# generated using pymatgen
data_Y2B5Pd14
_symmetry_space_group_name_H-M   'P 1'
_cell_length_a   10.41905056
_cell_length_b   10.41905056
_cell_length_c   10.41905056
_cell_angle_alpha   133.03590103
_cell_angle_beta   133.03590103
_cell_angle_gamma   68.59777306
_symmetry_Int_Tables_number   1
_chemical_formula_structural   Y2B5Pd14
_chemical_formula_sum   'Y4 B10 Pd28'
_cell_volume   593.41041129
_cell_formula_units_Z   2
loop_
 _symmetry_equiv_pos_site_id
 _symmetry_equiv_pos_as_xyz
  1  'x, y, z'
loop_
 _atom_site_type_symbol
 _atom_site_label
 _atom_site_symmetry_multiplicity
 _atom_site_fract_x
 _atom_site_fract_y
 _atom_site_fract_z
 _atom_site_occupancy
  Y  Y0  1  0.78394300  0.78394300  0.00000000  1
  Y  Y1  1  0.53394300  0.03394300  0.50000000  1
  Y  Y2  1  0.96605700  0.46605700  0.50000000  1
  Y  Y3  1  0.21605700  0.21605700  0.00000000  1
  B  B0  1  0.25000000  0.75000000  0.50000000  1
  B  B1  1  0.50000000  0.50000000  0.00000000  1
  B  B2  1  0.37500000  0.33580500  0.46080500  1
  B  B3  1  0.08580500  0.12500000  0.46080500  1
  B  B4  1  0.66419500  0.62500000  0.53919500  1
  B  B5  1  0.87500000  0.91419500  0.53919500  1
  B  B6  1  0.37500000  0.91419500  0.03919500  1
  B  B7  1  0.66419500  0.12500000  0.03919500  1
  B  B8  1  0.08580500  0.62500000  0.96080500  1
  B  B9  1  0.87500000  0.33580500  0.96080500  1
  Pd  Pd0  1  0.80757000  0.47627700  0.66870700  1
  Pd  Pd1  1  0.86113700  0.19243000  0.66870700  1
  Pd  Pd2  1  0.31278800  0.31278800  0.62557700  1
  Pd  Pd3  1  0.06278800  0.93721200  0.50000000  1
  Pd  Pd4  1  0.43721200  0.56278800  0.50000000  1
  Pd  Pd5  1  0.68721200  0.68721200  0.37442300  1
  Pd  Pd6  1  0.43721200  0.93721200  0.87442300  1
  Pd  Pd7  1  0.68721200  0.31278800  0.00000000  1
  Pd  Pd8  1  0.31278800  0.68721200  0.00000000  1
  Pd  Pd9  1  0.06278800  0.56278800  0.12557700  1
  Pd  Pd10  1  0.37500000  0.62500000  0.75000000  1
  Pd  Pd11  1  0.37500000  0.12500000  0.75000000  1
  Pd  Pd12  1  0.37500000  0.62500000  0.25000000  1
  Pd  Pd13  1  0.87500000  0.62500000  0.25000000  1
  Pd  Pd14  1  0.80757000  0.13886300  0.33129300  1
  Pd  Pd15  1  0.88886300  0.05757000  0.83129300  1
  Pd  Pd16  1  0.22627700  0.05757000  0.16870700  1
  Pd  Pd17  1  0.94243000  0.77372300  0.83129300  1
  Pd  Pd18  1  0.94243000  0.11113700  0.16870700  1
  Pd  Pd19  1  0.52372300  0.19243000  0.33129300  1
  Pd  Pd20  1  0.56951200  0.35568900  0.21382300  1
  Pd  Pd21  1  0.64431100  0.85813400  0.21382300  1
  Pd  Pd22  1  0.64431100  0.43048800  0.78617700  1
  Pd  Pd23  1  0.18048800  0.89431100  0.28617700  1
  Pd  Pd24  1  0.60813400  0.89431100  0.71382300  1
  Pd  Pd25  1  0.10568900  0.39186600  0.28617700  1
  Pd  Pd26  1  0.10568900  0.81951200  0.71382300  1
  Pd  Pd27  1  0.14186600  0.35568900  0.78617700  1
loop_
_geom_bond_atom_site_label_1
_geom_bond_atom_site_label_2
_geom_bond_distance
_geom_bond_site_symmetry_2
B0 Pd6 2.198327 1_555
B0 Pd9 2.198327 1_555
B0 Pd3 2.198333 1_555
B0 Pd4 2.198333 1_555
B1 Pd5 2.198327 1_555
B1 Pd2 2.198327 1_554
B1 Pd8 2.198333 1_555
B1 Pd7 2.198333 1_555
B2 Pd22 2.193422 1_555
B2 Pd25 2.193422 1_555
B2 Pd19 2.206072 1_555
B2 Pd16 2.206072 1_555
B2 Pd4 2.370477 1_555
B2 Pd2 2.370487 1_555
B2 Pd10 2.401240 1_555
B2 Y3 3.135242 1_555
B2 Y1 3.135242 1_555
B3 Pd23 2.193422 1_545
B3 Pd27 2.193422 1_555
B3 Pd14 2.206072 1_455
B3 Pd18 2.206072 1_455
B3 Pd2 2.370472 1_555
B3 Pd3 2.370477 1_545
B3 Pd11 2.401240 1_555
B3 Y0 3.135242 1_445
B3 Y2 3.135242 1_455
B4 Pd24 2.193422 1_555
B4 Pd20 2.193422 1_555
B4 Pd0 2.206072 1_555
B4 Pd17 2.206072 1_555
B4 Pd4 2.370477 1_555
B4 Pd5 2.370487 1_555
B4 Pd12 2.401240 1_555
B4 Y2 3.135242 1_555
B4 Y0 3.135242 1_556
B5 Pd26 2.193422 1_655
B5 Pd21 2.193422 1_555
B5 Pd15 2.206072 1_565
B5 Pd1 2.206072 1_565
B5 Pd5 2.370472 1_555
B5 Pd3 2.370477 1_655
B5 Pd13 2.401240 1_555
B5 Y3 3.135242 1_666
B5 Y1 3.135242 1_565
B6 Pd21 2.193422 1_555
B6 Pd26 2.193422 1_554
B6 Pd19 2.206072 1_565
B6 Pd16 2.206072 1_565
B6 Pd8 2.370477 1_555
B6 Pd6 2.370487 1_554
B6 Pd10 2.401240 1_554
B6 Y3 3.135242 1_565
B6 Y1 3.135242 1_565
B7 Pd20 2.193422 1_555
B7 Pd24 2.193422 1_544
B7 Pd14 2.206072 1_555
B7 Pd18 2.206072 1_555
B7 Pd6 2.370472 1_544
B7 Pd7 2.370477 1_555
B7 Pd11 2.401240 1_554
B7 Y2 3.135242 1_555
B7 Y0 3.135242 1_545
B8 Pd27 2.193422 1_555
B8 Pd23 2.193422 1_556
B8 Pd17 2.206072 1_455
B8 Pd0 2.206072 1_455
B8 Pd8 2.370477 1_556
B8 Pd9 2.370487 1_556
B8 Pd12 2.401240 1_556
B8 Y2 3.135242 1_455
B8 Y0 3.135242 1_456
B9 Pd25 2.193422 1_656
B9 Pd22 2.193422 1_555
B9 Pd15 2.206072 1_555
B9 Pd1 2.206072 1_555
B9 Pd9 2.370472 1_656
B9 Pd7 2.370477 1_556
B9 Pd13 2.401240 1_556
B9 Y3 3.135242 1_656
B9 Y1 3.135242 1_555
Pd0 Y0 2.780694 1_556
Pd0 Y2 3.066884 1_555
Pd1 Y3 2.780694 1_656
Pd1 Y1 3.066884 1_555
Pd2 Y2 3.082673 1_455
Pd2 Y1 3.082677 1_555
Pd3 Y3 3.082674 1_566
Pd3 Y0 3.082674 1_455
Pd4 Y3 3.082674 1_555
Pd4 Y0 3.082674 1_556
Pd5 Y1 3.082673 1_565
Pd5 Y2 3.082677 1_555
Pd6 Y0 3.082673 1_556
Pd6 Y3 3.082677 1_566
Pd7 Y2 3.082674 1_555
Pd7 Y1 3.082674 1_554
Pd8 Y2 3.082674 1_454
Pd8 Y1 3.082674 1_565
Pd9 Y3 3.082673 1_555
Pd9 Y0 3.082677 1_455
Pd10 Y0 3.434436 1_556
Pd10 Y2 3.434436 1_455
Pd11 Y1 3.434436 1_555
Pd11 Y3 3.434436 1_556
Pd12 Y3 3.434436 1_555
Pd12 Y1 3.434436 1_565
Pd13 Y0 3.434436 1_555
Pd13 Y2 3.434436 1_555
Pd14 Y0 2.780694 1_545
Pd14 Y2 3.066884 1_555
Pd15 Y1 2.780694 1_555
Pd15 Y3 3.066884 1_656
Pd16 Y1 2.780694 1_555
Pd16 Y3 3.066884 1_555
Pd17 Y2 2.780694 1_555
Pd17 Y0 3.066884 1_556
Pd18 Y2 2.780694 1_555
Pd18 Y0 3.066884 1_545
Pd19 Y3 2.780694 1_555
Pd19 Y1 3.066884 1_555
Pd20 Y3 2.988289 1_555
Pd20 Y2 3.042366 1_555
Pd21 Y0 2.988289 1_555
Pd21 Y1 3.042366 1_565
Pd22 Y0 2.988289 1_556
Pd22 Y1 3.042366 1_555
Pd23 Y1 2.988289 1_565
Pd23 Y0 3.042366 1_455
Pd24 Y1 2.988289 1_565
Pd24 Y0 3.042366 1_556
Pd25 Y2 2.988289 1_455
Pd25 Y3 3.042366 1_555
Pd26 Y2 2.988289 1_455
Pd26 Y3 3.042366 1_566
Pd27 Y3 2.988289 1_556
Pd27 Y2 3.042366 1_455
