# generated using pymatgen
data_Tb(SiPd)2
_symmetry_space_group_name_H-M   'P 1'
_cell_length_a   4.13843862
_cell_length_b   4.13843824
_cell_length_c   5.76376301
_cell_angle_alpha   111.03908375
_cell_angle_beta   111.03908896
_cell_angle_gamma   90.00001075
_symmetry_Int_Tables_number   1
_chemical_formula_structural   Tb(SiPd)2
_chemical_formula_sum   'Tb1 Si2 Pd2'
_cell_volume   85.04498287
_cell_formula_units_Z   1
loop_
 _symmetry_equiv_pos_site_id
 _symmetry_equiv_pos_as_xyz
  1  'x, y, z'
loop_
 _atom_site_type_symbol
 _atom_site_label
 _atom_site_symmetry_multiplicity
 _atom_site_fract_x
 _atom_site_fract_y
 _atom_site_fract_z
 _atom_site_occupancy
  Tb  Tb0  1  -0.00000000  -0.00000000  -0.00000000  1
  Si  Si0  1  0.38326367  0.38326367  0.76652835  1
  Si  Si1  1  0.61673633  0.61673633  0.23347165  1
  Pd  Pd0  1  0.75000000  0.25000000  0.50000000  1
  Pd  Pd1  1  0.25000000  0.75000000  0.50000000  1
loop_
_geom_bond_atom_site_label_1
_geom_bond_atom_site_label_2
_geom_bond_distance
_geom_bond_site_symmetry_2
Si0 Si1 2.318675 1_556
Si0 Tb0 3.147599 1_556
Si0 Tb0 3.147602 1_656
Si0 Tb0 3.147602 1_566
Si0 Tb0 3.147605 1_666
Si1 Tb0 3.147599 1_665
Si1 Tb0 3.147602 1_565
Si1 Tb0 3.147602 1_655
Si1 Tb0 3.147605 1_555
Pd0 Si1 2.456272 1_545
Pd0 Si0 2.456272 1_655
Pd0 Si1 2.456275 1_555
Pd0 Si0 2.456276 1_555
Pd0 Tb0 3.232039 1_656
Pd0 Tb0 3.232039 1_655
Pd0 Tb0 3.232039 1_666
Pd0 Tb0 3.232039 1_555
Pd1 Si0 2.456272 1_565
Pd1 Si1 2.456272 1_455
Pd1 Si0 2.456275 1_555
Pd1 Si1 2.456276 1_555
Pd1 Tb0 3.232039 1_565
Pd1 Tb0 3.232039 1_566
Pd1 Tb0 3.232039 1_555
Pd1 Tb0 3.232039 1_666
