# generated using pymatgen
data_Ca10Si3S3(ClO12)2
_symmetry_space_group_name_H-M   'P 1'
_cell_length_a   6.82800000
_cell_length_b   9.77436800
_cell_length_c   9.84524649
_cell_angle_alpha   60.68429545
_cell_angle_beta   90.00000000
_cell_angle_gamma   90.00000000
_symmetry_Int_Tables_number   1
_chemical_formula_structural   Ca10Si3S3(ClO12)2
_chemical_formula_sum   'Ca10 Si3 S3 Cl2 O24'
_cell_volume   572.91864188
_cell_formula_units_Z   1
loop_
 _symmetry_equiv_pos_site_id
 _symmetry_equiv_pos_as_xyz
  1  'x, y, z'
loop_
 _atom_site_type_symbol
 _atom_site_label
 _atom_site_symmetry_multiplicity
 _atom_site_fract_x
 _atom_site_fract_y
 _atom_site_fract_z
 _atom_site_occupancy
  Ca  Ca0  1  0.00000000  0.02812300  0.73932000  1
  Ca  Ca1  1  0.00000000  0.27393300  0.96137900  1
  Ca  Ca2  1  0.25510800  0.66108900  0.68610700  1
  Ca  Ca3  1  0.74489200  0.66108900  0.68610700  1
  Ca  Ca4  1  0.50000000  0.26046100  0.75476400  1
  Ca  Ca5  1  0.00000000  0.73290100  0.25392100  1
  Ca  Ca6  1  0.74010800  0.32527900  0.35438100  1
  Ca  Ca7  1  0.25989200  0.32527900  0.35438100  1
  Ca  Ca8  1  0.50000000  0.77380000  0.95989700  1
  Ca  Ca9  1  0.50000000  0.01919800  0.26777600  1
  Si  Si0  1  0.50000000  0.40345600  0.97511800  1
  Si  Si1  1  0.50000000  0.96321900  0.62101200  1
  Si  Si2  1  0.00000000  0.38563300  0.58670500  1
  S  S0  1  0.50000000  0.62976500  0.40368700  1
  S  S1  1  0.00000000  0.03119000  0.37517800  1
  S  S2  1  0.00000000  0.58081600  0.04085400  1
  Cl  Cl0  1  0.24724000  0.99237400  0.01211500  1
  Cl  Cl1  1  0.75276000  0.99237400  0.01211500  1
  O  O0  1  0.30411600  0.90635100  0.73511100  1
  O  O1  1  0.69588400  0.90635100  0.73511100  1
  O  O2  1  0.50000000  0.59774600  0.87883200  1
  O  O3  1  0.00000000  0.63607200  0.87106300  1
  O  O4  1  0.69108100  0.35692300  0.90375900  1
  O  O5  1  0.30891900  0.35692300  0.90375900  1
  O  O6  1  0.50000000  0.85781700  0.53029800  1
  O  O7  1  0.00000000  0.85903300  0.48156900  1
  O  O8  1  0.00000000  0.51254900  0.65099900  1
  O  O9  1  0.50000000  0.54198600  0.57825300  1
  O  O10  1  0.19281500  0.26831400  0.64164200  1
  O  O11  1  0.80718500  0.26831400  0.64164200  1
  O  O12  1  0.67662000  0.73090500  0.34855100  1
  O  O13  1  0.32338000  0.73090500  0.34855100  1
  O  O14  1  0.00000000  0.47224100  0.39272400  1
  O  O15  1  0.50000000  0.51729300  0.34231200  1
  O  O16  1  0.50000000  0.15000000  0.49349000  1
  O  O17  1  0.00000000  0.11939800  0.46467500  1
  O  O18  1  0.17646900  0.63916400  0.08604800  1
  O  O19  1  0.82353100  0.63916400  0.08604800  1
  O  O20  1  0.50000000  0.32289400  0.16590800  1
  O  O21  1  0.00000000  0.40482000  0.12874600  1
  O  O22  1  0.17463000  0.08243000  0.27304700  1
  O  O23  1  0.82537000  0.08243000  0.27304700  1
loop_
_geom_bond_atom_site_label_1
_geom_bond_atom_site_label_2
_geom_bond_distance
_geom_bond_site_symmetry_2
Ca0 O17 2.396874 1_555
Ca0 O0 2.403865 1_545
Ca0 O1 2.403865 1_445
Ca0 O10 2.441105 1_555
Ca0 O11 2.441105 1_455
Ca0 Cl1 3.044035 1_446
Ca0 Cl0 3.044035 1_546
Ca1 O5 2.231220 1_555
Ca1 O4 2.231220 1_455
Ca1 O21 2.533011 1_556
Ca1 O8 2.792551 1_555
Ca1 O23 2.952368 1_456
Ca1 O22 2.952368 1_556
Ca1 Cl1 3.054026 1_446
Ca1 Cl0 3.054026 1_546
Ca2 O2 2.372586 1_555
Ca2 O8 2.398541 1_555
Ca2 O6 2.440932 1_555
Ca2 O3 2.444119 1_555
Ca2 O9 2.547406 1_555
Ca2 O7 2.649029 1_555
Ca2 O0 2.687801 1_555
Ca2 O5 2.706876 1_555
Ca3 O2 2.372586 1_555
Ca3 O8 2.398541 1_655
Ca3 O6 2.440932 1_555
Ca3 O3 2.444119 1_655
Ca3 O9 2.547406 1_555
Ca3 O7 2.649029 1_655
Ca3 O1 2.687801 1_555
Ca3 O4 2.706876 1_555
Ca4 O11 2.358362 1_555
Ca4 O10 2.358362 1_555
Ca4 O9 2.430897 1_555
Ca4 O4 2.469282 1_555
Ca4 O5 2.469282 1_555
Ca4 Cl0 3.124594 1_546
Ca4 Cl1 3.124594 1_546
Ca5 O14 2.224695 1_555
Ca5 O12 2.392906 1_455
Ca5 O13 2.392906 1_555
Ca5 O18 2.550638 1_555
Ca5 O19 2.550638 1_455
Ca5 Cl1 3.006182 1_455
Ca5 Cl0 3.006182 1_555
Ca5 O7 3.041208 1_555
Ca6 O16 2.280577 1_555
Ca6 O14 2.426093 1_655
Ca6 O15 2.450714 1_555
Ca6 O20 2.484721 1_555
Ca6 O17 2.497578 1_655
Ca6 O11 2.641255 1_555
Ca6 O21 2.645180 1_655
Ca6 O23 2.911331 1_555
Ca6 O19 2.963021 1_555
Ca7 O16 2.280577 1_555
Ca7 O14 2.426093 1_555
Ca7 O15 2.450714 1_555
Ca7 O20 2.484721 1_555
Ca7 O17 2.497578 1_555
Ca7 O10 2.641255 1_555
Ca7 O21 2.645180 1_555
Ca7 O22 2.911331 1_555
Ca7 O18 2.963021 1_555
Ca8 O2 2.223301 1_555
Ca8 O1 2.357420 1_555
Ca8 O0 2.357420 1_555
Ca8 O18 2.560044 1_556
Ca8 O19 2.560044 1_556
Ca8 Cl1 2.980382 1_556
Ca8 Cl0 2.980382 1_556
Ca9 O6 2.275083 1_545
Ca9 O22 2.313377 1_555
Ca9 O23 2.313377 1_555
Ca9 O20 2.627196 1_555
Ca9 Cl0 3.166866 1_545
Ca9 Cl1 3.166866 1_545
O0 Si1 1.657799 1_555
O1 Si1 1.657799 1_555
O2 Si0 1.655958 1_555
O3 S2 1.483902 1_556
O4 Si0 1.647906 1_555
O5 Si0 1.647906 1_555
O6 Si1 1.661334 1_555
O7 S1 1.484160 1_565
O8 Si2 1.645757 1_555
O9 S0 1.498638 1_555
O10 Si2 1.653310 1_555
O11 Si2 1.653310 1_655
O12 S0 1.483511 1_555
O13 S0 1.483511 1_555
O14 Si2 1.667566 1_555
O15 S0 1.491364 1_555
O16 Si1 1.632416 1_545
O17 S1 1.504538 1_555
O18 S2 1.491169 1_555
O19 S2 1.491169 1_655
O20 Si0 1.643151 1_554
O21 S2 1.500123 1_555
O22 S1 1.480031 1_555
O23 S1 1.480031 1_655
