# generated using pymatgen
data_HoAlO3
_symmetry_space_group_name_H-M   'P 1'
_cell_length_a   5.14522288
_cell_length_b   5.31354550
_cell_length_c   7.35118279
_cell_angle_alpha   90.00000000
_cell_angle_beta   90.00000000
_cell_angle_gamma   90.00000000
_symmetry_Int_Tables_number   1
_chemical_formula_structural   HoAlO3
_chemical_formula_sum   'Ho4 Al4 O12'
_cell_volume   200.97674946
_cell_formula_units_Z   4
loop_
 _symmetry_equiv_pos_site_id
 _symmetry_equiv_pos_as_xyz
  1  'x, y, z'
loop_
 _atom_site_type_symbol
 _atom_site_label
 _atom_site_symmetry_multiplicity
 _atom_site_fract_x
 _atom_site_fract_y
 _atom_site_fract_z
 _atom_site_occupancy
  Ho  Ho0  1  0.01329435  0.94456954  0.75000000  1
  Ho  Ho1  1  0.51329435  0.55543046  0.25000000  1
  Ho  Ho2  1  0.48670565  0.44456954  0.75000000  1
  Ho  Ho3  1  0.98670565  0.05543046  0.25000000  1
  Al  Al0  1  0.50000000  -0.00000000  0.50000000  1
  Al  Al1  1  0.00000000  0.50000000  0.50000000  1
  Al  Al2  1  0.00000000  0.50000000  0.00000000  1
  Al  Al3  1  0.50000000  -0.00000000  0.00000000  1
  O  O0  1  0.70449793  0.29488127  0.45380127  1
  O  O1  1  0.20449793  0.20511873  0.54619873  1
  O  O2  1  0.79550207  0.79488127  0.04619873  1
  O  O3  1  0.29550207  0.70511873  0.95380127  1
  O  O4  1  0.29550207  0.70511873  0.54619873  1
  O  O5  1  0.79550207  0.79488127  0.45380127  1
  O  O6  1  0.20449793  0.20511873  0.95380127  1
  O  O7  1  0.70449793  0.29488127  0.04619873  1
  O  O8  1  0.08777484  0.47644257  0.25000000  1
  O  O9  1  0.58777484  0.02355743  0.75000000  1
  O  O10  1  0.41222516  0.97644257  0.25000000  1
  O  O11  1  0.91222516  0.52355743  0.75000000  1
loop_
_geom_bond_atom_site_label_1
_geom_bond_atom_site_label_2
_geom_bond_distance
_geom_bond_site_symmetry_2
Ho0 O9 2.229258 1_465
Ho0 O6 2.264741 1_565
Ho0 O1 2.264741 1_565
Ho0 O11 2.296714 1_455
Ho0 O4 2.443715 1_555
Ho0 O3 2.443715 1_555
Ho0 O2 2.574774 1_456
Ho0 O5 2.574774 1_455
Ho1 O8 2.229258 1_555
Ho1 O0 2.264741 1_555
Ho1 O7 2.264741 1_555
Ho1 O10 2.296714 1_555
Ho1 O5 2.443715 1_555
Ho1 O2 2.443715 1_555
Ho1 O4 2.574774 1_555
Ho1 O3 2.574774 1_554
Ho2 O11 2.229258 1_555
Ho2 O4 2.264741 1_555
Ho2 O3 2.264741 1_555
Ho2 O9 2.296714 1_555
Ho2 O1 2.443715 1_555
Ho2 O6 2.443715 1_555
Ho2 O7 2.574774 1_556
Ho2 O0 2.574774 1_555
Ho3 O10 2.229258 1_645
Ho3 O2 2.264741 1_545
Ho3 O5 2.264741 1_545
Ho3 O8 2.296714 1_655
Ho3 O0 2.443715 1_555
Ho3 O7 2.443715 1_555
Ho3 O1 2.574774 1_655
Ho3 O6 2.574774 1_654
Al0 O10 1.896608 1_545
Al0 O9 1.896608 1_555
Al0 O5 1.901296 1_545
Al0 O1 1.901296 1_555
Al0 O4 1.917682 1_545
Al0 O0 1.917682 1_555
Al1 O11 1.896608 1_455
Al1 O8 1.896608 1_555
Al1 O0 1.901296 1_455
Al1 O4 1.901296 1_555
Al1 O1 1.917682 1_555
Al1 O5 1.917682 1_455
Al2 O11 1.896608 1_454
Al2 O8 1.896608 1_555
Al2 O7 1.901296 1_455
Al2 O3 1.901296 1_554
Al2 O6 1.917682 1_554
Al2 O2 1.917682 1_455
Al3 O9 1.896608 1_554
Al3 O10 1.896608 1_545
Al3 O6 1.901296 1_554
Al3 O2 1.901296 1_545
Al3 O3 1.917682 1_544
Al3 O7 1.917682 1_555
