# generated using pymatgen
data_NaMnCr(CN)6
_symmetry_space_group_name_H-M   'P 1'
_cell_length_a   7.21808097
_cell_length_b   7.21808097
_cell_length_c   7.21808097
_cell_angle_alpha   60.00000000
_cell_angle_beta   60.00000000
_cell_angle_gamma   60.00000000
_symmetry_Int_Tables_number   1
_chemical_formula_structural   NaMnCr(CN)6
_chemical_formula_sum   'Na1 Mn1 Cr1 C6 N6'
_cell_volume   265.91953977
_cell_formula_units_Z   1
loop_
 _symmetry_equiv_pos_site_id
 _symmetry_equiv_pos_as_xyz
  1  'x, y, z'
loop_
 _atom_site_type_symbol
 _atom_site_label
 _atom_site_symmetry_multiplicity
 _atom_site_fract_x
 _atom_site_fract_y
 _atom_site_fract_z
 _atom_site_occupancy
  Na  Na0  1  0.25000000  0.25000000  0.25000000  1
  Mn  Mn0  1  0.00000000  0.00000000  0.00000000  1
  Cr  Cr0  1  0.50000000  0.50000000  0.50000000  1
  C  C0  1  0.69579100  0.30420900  0.69579100  1
  C  C1  1  0.69579100  0.30420900  0.30420900  1
  C  C2  1  0.69579100  0.69579100  0.30420900  1
  C  C3  1  0.30420900  0.30420900  0.69579100  1
  C  C4  1  0.30420900  0.69579100  0.69579100  1
  C  C5  1  0.30420900  0.69579100  0.30420900  1
  N  N0  1  0.81120600  0.18879400  0.81120600  1
  N  N1  1  0.81120600  0.18879400  0.18879400  1
  N  N2  1  0.81120600  0.81120600  0.18879400  1
  N  N3  1  0.18879400  0.18879400  0.81120600  1
  N  N4  1  0.18879400  0.81120600  0.81120600  1
  N  N5  1  0.18879400  0.81120600  0.18879400  1
loop_
_geom_bond_atom_site_label_1
_geom_bond_atom_site_label_2
_geom_bond_distance
_geom_bond_site_symmetry_2
Mn0 N1 1.927192 1_455
Mn0 N3 1.927192 1_554
Mn0 N5 1.927192 1_545
Mn0 N2 1.927192 1_445
Mn0 N0 1.927192 1_454
Mn0 N4 1.927192 1_544
C0 N0 1.178146 1_555
C0 Cr0 1.998617 1_555
C1 N1 1.178146 1_555
C1 Cr0 1.998617 1_555
C2 N2 1.178146 1_555
C2 Cr0 1.998617 1_555
C3 N3 1.178146 1_555
C3 Cr0 1.998617 1_555
C4 N4 1.178146 1_555
C4 Cr0 1.998617 1_555
C5 N5 1.178146 1_555
C5 Cr0 1.998617 1_555
