# generated using pymatgen
data_Ag3SbS3
_symmetry_space_group_name_H-M   'P 1'
_cell_length_a   7.00642863
_cell_length_b   7.00642916
_cell_length_c   7.00642890
_cell_angle_alpha   101.76926589
_cell_angle_beta   101.76928038
_cell_angle_gamma   101.76925423
_symmetry_Int_Tables_number   1
_chemical_formula_structural   Ag3SbS3
_chemical_formula_sum   'Ag6 Sb2 S6'
_cell_volume   318.63121791
_cell_formula_units_Z   2
loop_
 _symmetry_equiv_pos_site_id
 _symmetry_equiv_pos_as_xyz
  1  'x, y, z'
loop_
 _atom_site_type_symbol
 _atom_site_label
 _atom_site_symmetry_multiplicity
 _atom_site_fract_x
 _atom_site_fract_y
 _atom_site_fract_z
 _atom_site_occupancy
  Ag  Ag0  1  0.41447437  0.73987505  0.95178555  1
  Ag  Ag1  1  0.95178555  0.41447437  0.73987505  1
  Ag  Ag2  1  0.91447437  0.45178555  0.23987505  1
  Ag  Ag3  1  0.45178555  0.23987505  0.91447437  1
  Ag  Ag4  1  0.73987505  0.95178555  0.41447437  1
  Ag  Ag5  1  0.23987505  0.91447437  0.45178555  1
  Sb  Sb0  1  0.50634957  0.50634957  0.50634957  1
  Sb  Sb1  1  0.00634957  0.00634957  0.00634957  1
  S  S0  1  0.09757356  0.76488465  0.75095725  1
  S  S1  1  0.76488465  0.75095725  0.09757356  1
  S  S2  1  0.26488465  0.59757356  0.25095725  1
  S  S3  1  0.59757356  0.25095725  0.26488465  1
  S  S4  1  0.75095725  0.09757356  0.76488465  1
  S  S5  1  0.25095725  0.26488465  0.59757356  1
loop_
_geom_bond_atom_site_label_1
_geom_bond_atom_site_label_2
_geom_bond_distance
_geom_bond_site_symmetry_2
Ag0 S0 2.434199 1_555
Ag0 S1 2.438006 1_556
Ag0 S2 2.794419 1_556
Ag1 S4 2.434200 1_555
Ag1 S0 2.438007 1_655
Ag1 S5 2.794419 1_655
Ag2 S3 2.434200 1_555
Ag2 S2 2.438007 1_655
Ag2 S1 2.794419 1_555
Ag3 S5 2.434199 1_555
Ag3 S3 2.438006 1_556
Ag3 S4 2.794419 1_555
Ag4 S1 2.434199 1_555
Ag4 S4 2.438007 1_565
Ag4 S3 2.794419 1_565
Ag5 S2 2.434199 1_555
Ag5 S5 2.438007 1_565
Ag5 S0 2.794419 1_555
S0 Sb1 2.478983 1_566
S1 Sb1 2.478983 1_665
S2 Sb0 2.478982 1_555
S3 Sb0 2.478983 1_555
S4 Sb1 2.478982 1_656
S5 Sb0 2.478983 1_555
