# generated using pymatgen
data_BaIrO3
_symmetry_space_group_name_H-M   'P 1'
_cell_length_a   5.79428228
_cell_length_b   5.79428228
_cell_length_c   14.62414104
_cell_angle_alpha   89.05063261
_cell_angle_beta   89.05063261
_cell_angle_gamma   119.71560359
_symmetry_Int_Tables_number   1
_chemical_formula_structural   BaIrO3
_chemical_formula_sum   'Ba6 Ir6 O18'
_cell_volume   426.18800206
_cell_formula_units_Z   6
loop_
 _symmetry_equiv_pos_site_id
 _symmetry_equiv_pos_as_xyz
  1  'x, y, z'
loop_
 _atom_site_type_symbol
 _atom_site_label
 _atom_site_symmetry_multiplicity
 _atom_site_fract_x
 _atom_site_fract_y
 _atom_site_fract_z
 _atom_site_occupancy
  Ba  Ba0  1  0.99611100  0.00388900  0.75000000  1
  Ba  Ba1  1  0.00388900  0.99611100  0.25000000  1
  Ba  Ba2  1  0.34322000  0.67654200  0.90445700  1
  Ba  Ba3  1  0.32345800  0.65678000  0.59554300  1
  Ba  Ba4  1  0.65678000  0.32345800  0.09554300  1
  Ba  Ba5  1  0.67654200  0.34322000  0.40445700  1
  Ir  Ir0  1  0.00000000  0.00000000  0.00000000  1
  Ir  Ir1  1  0.00000000  0.00000000  0.50000000  1
  Ir  Ir2  1  0.32444700  0.65406400  0.15325500  1
  Ir  Ir3  1  0.34593600  0.67555300  0.34674500  1
  Ir  Ir4  1  0.67555300  0.34593600  0.84674500  1
  Ir  Ir5  1  0.65406400  0.32444700  0.65325500  1
  O  O0  1  0.71040400  0.88991400  0.40679400  1
  O  O1  1  0.11008600  0.28959600  0.09320600  1
  O  O2  1  0.28959600  0.11008600  0.59320600  1
  O  O3  1  0.88991400  0.71040400  0.90679400  1
  O  O4  1  0.09959000  0.79776600  0.09243500  1
  O  O5  1  0.20223400  0.90041000  0.40756500  1
  O  O6  1  0.90041000  0.20223400  0.90756500  1
  O  O7  1  0.79776600  0.09959000  0.59243500  1
  O  O8  1  0.18657600  0.37947200  0.44710900  1
  O  O9  1  0.62052800  0.81342400  0.05289100  1
  O  O10  1  0.81342400  0.62052800  0.55289100  1
  O  O11  1  0.37947200  0.18657600  0.94710900  1
  O  O12  1  0.51474400  0.48525600  0.75000000  1
  O  O13  1  0.48525600  0.51474400  0.25000000  1
  O  O14  1  0.95599900  0.48673400  0.74161600  1
  O  O15  1  0.51326600  0.04400100  0.75838400  1
  O  O16  1  0.04400100  0.51326600  0.25838400  1
  O  O17  1  0.48673400  0.95599900  0.24161600  1
loop_
_geom_bond_atom_site_label_1
_geom_bond_atom_site_label_2
_geom_bond_distance
_geom_bond_site_symmetry_2
Ba0 O2 2.704597 1_655
Ba0 O3 2.704597 1_545
Ba0 O6 2.759548 1_555
Ba0 O7 2.759548 1_555
Ba0 O14 2.893264 1_545
Ba0 O15 2.893264 1_655
Ba0 O12 2.915572 1_655
Ba0 O12 2.915572 1_545
Ba0 O15 2.920725 1_555
Ba0 O14 2.920725 1_555
Ba1 O1 2.704597 1_565
Ba1 O0 2.704597 1_455
Ba1 O5 2.759548 1_555
Ba1 O4 2.759548 1_555
Ba1 O17 2.893264 1_455
Ba1 O16 2.893264 1_565
Ba1 O13 2.915572 1_565
Ba1 O13 2.915572 1_455
Ba1 O16 2.920725 1_555
Ba1 O17 2.920725 1_555
Ba2 O9 2.613827 1_556
Ba2 O6 2.671986 1_455
Ba2 O3 2.728876 1_455
Ba2 O15 2.786968 1_565
Ba2 O12 2.901561 1_555
Ba2 O11 2.935451 1_565
Ba2 O11 3.004993 1_555
Ba2 O3 3.075975 1_555
Ba2 O14 3.119651 1_455
Ba2 O6 3.156514 1_565
Ba2 O4 3.310841 1_556
Ba2 O1 3.337608 1_556
Ba3 O8 2.613827 1_555
Ba3 O7 2.671986 1_565
Ba3 O2 2.728876 1_565
Ba3 O14 2.786968 1_455
Ba3 O12 2.901561 1_555
Ba3 O10 2.935451 1_455
Ba3 O10 3.004993 1_555
Ba3 O2 3.075975 1_555
Ba3 O15 3.119651 1_565
Ba3 O7 3.156514 1_455
Ba3 O5 3.310841 1_555
Ba3 O0 3.337608 1_555
Ba4 O11 2.613827 1_554
Ba4 O4 2.671986 1_655
Ba4 O1 2.728876 1_655
Ba4 O17 2.786968 1_545
Ba4 O13 2.901561 1_555
Ba4 O9 2.935451 1_545
Ba4 O9 3.004993 1_555
Ba4 O1 3.075975 1_555
Ba4 O16 3.119651 1_655
Ba4 O4 3.156514 1_545
Ba4 O6 3.310841 1_554
Ba4 O3 3.337608 1_554
Ba5 O10 2.613827 1_555
Ba5 O5 2.671986 1_545
Ba5 O0 2.728876 1_545
Ba5 O16 2.786968 1_655
Ba5 O13 2.901561 1_555
Ba5 O8 2.935451 1_655
Ba5 O8 3.004993 1_555
Ba5 O0 3.075975 1_555
Ba5 O17 3.119651 1_545
Ba5 O5 3.156514 1_655
Ba5 O7 3.310841 1_555
Ba5 O2 3.337608 1_555
Ir0 O1 2.030755 1_555
Ir0 O3 2.030755 1_444
Ir0 O11 2.039840 1_554
Ir0 O9 2.039840 1_445
Ir0 O4 2.043808 1_545
Ir0 O6 2.043808 1_454
Ir1 O2 2.030755 1_555
Ir1 O0 2.030755 1_445
Ir1 O8 2.039840 1_555
Ir1 O10 2.039840 1_445
Ir1 O7 2.043808 1_455
Ir1 O5 2.043808 1_545
Ir2 O17 2.024596 1_555
Ir2 O16 2.056980 1_555
Ir2 O9 2.061855 1_555
Ir2 O1 2.066611 1_555
Ir2 O4 2.066709 1_555
Ir2 O13 2.067149 1_555
Ir3 O16 2.024596 1_555
Ir3 O17 2.056980 1_555
Ir3 O8 2.061855 1_555
Ir3 O0 2.066611 1_555
Ir3 O5 2.066709 1_555
Ir3 O13 2.067149 1_555
Ir4 O15 2.024596 1_555
Ir4 O14 2.056980 1_555
Ir4 O11 2.061855 1_555
Ir4 O3 2.066611 1_555
Ir4 O6 2.066709 1_555
Ir4 O12 2.067149 1_555
Ir5 O14 2.024596 1_555
Ir5 O15 2.056980 1_555
Ir5 O10 2.061855 1_555
Ir5 O2 2.066611 1_555
Ir5 O7 2.066709 1_555
Ir5 O12 2.067149 1_555
