# generated using pymatgen
data_SiB2Mo5
_symmetry_space_group_name_H-M   'P 1'
_cell_length_a   7.03238936
_cell_length_b   7.03238936
_cell_length_c   7.03238936
_cell_angle_alpha   129.01607890
_cell_angle_beta   129.01607890
_cell_angle_gamma   74.98470351
_symmetry_Int_Tables_number   1
_chemical_formula_structural   SiB2Mo5
_chemical_formula_sum   'Si2 B4 Mo10'
_cell_volume   204.45276282
_cell_formula_units_Z   2
loop_
 _symmetry_equiv_pos_site_id
 _symmetry_equiv_pos_as_xyz
  1  'x, y, z'
loop_
 _atom_site_type_symbol
 _atom_site_label
 _atom_site_symmetry_multiplicity
 _atom_site_fract_x
 _atom_site_fract_y
 _atom_site_fract_z
 _atom_site_occupancy
  Si  Si0  1  0.75000000  0.75000000  0.00000000  1
  Si  Si1  1  0.25000000  0.25000000  0.00000000  1
  B  B0  1  0.37904800  0.87904800  0.25809700  1
  B  B1  1  0.87904800  0.62095200  0.50000000  1
  B  B2  1  0.62095200  0.12095200  0.74190300  1
  B  B3  1  0.12095200  0.37904800  0.50000000  1
  Mo  Mo0  1  0.00000000  0.00000000  0.00000000  1
  Mo  Mo1  1  0.80380800  0.97570900  0.50000000  1
  Mo  Mo2  1  0.30380800  0.80380800  0.82809900  1
  Mo  Mo3  1  0.19619200  0.02429100  0.50000000  1
  Mo  Mo4  1  0.52429100  0.69619200  0.50000000  1
  Mo  Mo5  1  0.02429100  0.52429100  0.82809900  1
  Mo  Mo6  1  0.69619200  0.19619200  0.17190100  1
  Mo  Mo7  1  0.97570900  0.47570900  0.17190100  1
  Mo  Mo8  1  0.50000000  0.50000000  0.00000000  1
  Mo  Mo9  1  0.47570900  0.30380800  0.50000000  1
loop_
_geom_bond_atom_site_label_1
_geom_bond_atom_site_label_2
_geom_bond_distance
_geom_bond_site_symmetry_2
B0 B2 2.070836 1_565
B0 Mo4 2.340248 1_555
B0 Mo3 2.340248 1_565
B0 Mo1 2.340256 1_555
B0 Mo9 2.340256 1_565
B0 Mo0 2.408461 1_565
B0 Mo8 2.408461 1_555
B0 Mo5 2.412458 1_554
B0 Mo2 2.412466 1_554
B1 B3 2.070845 1_655
B1 Mo6 2.340254 1_555
B1 Mo7 2.340254 1_555
B1 Mo2 2.340254 1_655
B1 Mo5 2.340254 1_655
B1 Mo8 2.408459 1_555
B1 Mo0 2.408459 1_666
B1 Mo4 2.412459 1_555
B1 Mo1 2.412459 1_555
B2 Mo1 2.340248 1_545
B2 Mo9 2.340248 1_555
B2 Mo3 2.340256 1_555
B2 Mo4 2.340256 1_545
B2 Mo8 2.408461 1_556
B2 Mo0 2.408461 1_656
B2 Mo7 2.412458 1_556
B2 Mo6 2.412466 1_556
B3 Mo6 2.340254 1_455
B3 Mo2 2.340254 1_555
B3 Mo5 2.340254 1_555
B3 Mo7 2.340254 1_455
B3 Mo0 2.408459 1_555
B3 Mo8 2.408459 1_556
B3 Mo3 2.412459 1_555
B3 Mo9 2.412459 1_555
Mo0 Mo4 2.748470 1_444
Mo0 Mo2 2.748470 1_544
Mo0 Mo1 2.748470 1_444
Mo0 Mo3 2.748470 1_555
Mo0 Mo6 2.748470 1_455
Mo0 Mo7 2.748470 1_455
Mo0 Mo5 2.748470 1_544
Mo0 Mo9 2.748470 1_555
Mo0 Si0 2.789871 1_445
Mo0 Si1 2.789871 1_555
Mo1 Si1 2.575872 1_666
Mo1 Si0 2.575872 1_555
Mo1 Mo8 2.748470 1_555
Mo2 Si0 2.575872 1_556
Mo2 Si1 2.575872 1_566
Mo2 Mo8 2.748470 1_556
Mo3 Si0 2.575872 1_445
Mo3 Si1 2.575872 1_556
Mo3 Mo8 2.748470 1_556
Mo4 Si1 2.575872 1_555
Mo4 Si0 2.575872 1_556
Mo4 Mo8 2.748470 1_555
Mo5 Si1 2.575872 1_556
Mo5 Si0 2.575872 1_456
Mo5 Mo8 2.748470 1_556
Mo6 Si0 2.575872 1_545
Mo6 Si1 2.575872 1_555
Mo6 Mo8 2.748470 1_555
Mo7 Si1 2.575872 1_655
Mo7 Si0 2.575872 1_555
Mo7 Mo8 2.748470 1_555
Mo8 Mo9 2.748470 1_554
Mo8 Si1 2.789871 1_555
Mo8 Si0 2.789871 1_555
Mo9 Si1 2.575872 1_555
Mo9 Si0 2.575872 1_556
