# generated using pymatgen
data_Ce2Fe14B
_symmetry_space_group_name_H-M   'P 1'
_cell_length_a   8.75092900
_cell_length_b   8.75092900
_cell_length_c   11.94779500
_cell_angle_alpha   90.00000000
_cell_angle_beta   90.00000000
_cell_angle_gamma   90.00000000
_symmetry_Int_Tables_number   1
_chemical_formula_structural   Ce2Fe14B
_chemical_formula_sum   'Ce8 Fe56 B4'
_cell_volume   914.94730628
_cell_formula_units_Z   4
loop_
 _symmetry_equiv_pos_site_id
 _symmetry_equiv_pos_as_xyz
  1  'x, y, z'
loop_
 _atom_site_type_symbol
 _atom_site_label
 _atom_site_symmetry_multiplicity
 _atom_site_fract_x
 _atom_site_fract_y
 _atom_site_fract_z
 _atom_site_occupancy
  Ce  Ce0  1  0.85651600  0.14348400  0.00000000  1
  Ce  Ce1  1  0.35651600  0.35651600  0.50000000  1
  Ce  Ce2  1  0.64348400  0.64348400  0.50000000  1
  Ce  Ce3  1  0.14348400  0.85651600  0.00000000  1
  Ce  Ce4  1  0.73147000  0.73147000  0.00000000  1
  Ce  Ce5  1  0.76853000  0.23147000  0.50000000  1
  Ce  Ce6  1  0.23147000  0.76853000  0.50000000  1
  Ce  Ce7  1  0.26853000  0.26853000  0.00000000  1
  Fe  Fe0  1  0.35915600  0.03822300  0.17539400  1
  Fe  Fe1  1  0.64084400  0.96177700  0.17539400  1
  Fe  Fe2  1  0.03822300  0.35915600  0.82460600  1
  Fe  Fe3  1  0.53822300  0.14084400  0.67539400  1
  Fe  Fe4  1  0.46177700  0.85915600  0.67539400  1
  Fe  Fe5  1  0.14084400  0.53822300  0.32460600  1
  Fe  Fe6  1  0.85915600  0.46177700  0.32460600  1
  Fe  Fe7  1  0.96177700  0.64084400  0.82460600  1
  Fe  Fe8  1  0.64084400  0.96177700  0.82460600  1
  Fe  Fe9  1  0.35915600  0.03822300  0.82460600  1
  Fe  Fe10  1  0.96177700  0.64084400  0.17539400  1
  Fe  Fe11  1  0.46177700  0.85915600  0.32460600  1
  Fe  Fe12  1  0.53822300  0.14084400  0.32460600  1
  Fe  Fe13  1  0.85915600  0.46177700  0.67539400  1
  Fe  Fe14  1  0.14084400  0.53822300  0.67539400  1
  Fe  Fe15  1  0.03822300  0.35915600  0.17539400  1
  Fe  Fe16  1  0.56613000  0.22360300  0.12607100  1
  Fe  Fe17  1  0.43387000  0.77639700  0.12607100  1
  Fe  Fe18  1  0.22360300  0.56613000  0.87392900  1
  Fe  Fe19  1  0.72360300  0.93387000  0.62607100  1
  Fe  Fe20  1  0.27639700  0.06613000  0.62607100  1
  Fe  Fe21  1  0.93387000  0.72360300  0.37392900  1
  Fe  Fe22  1  0.06613000  0.27639700  0.37392900  1
  Fe  Fe23  1  0.77639700  0.43387000  0.87392900  1
  Fe  Fe24  1  0.43387000  0.77639700  0.87392900  1
  Fe  Fe25  1  0.56613000  0.22360300  0.87392900  1
  Fe  Fe26  1  0.77639700  0.43387000  0.12607100  1
  Fe  Fe27  1  0.27639700  0.06613000  0.37392900  1
  Fe  Fe28  1  0.72360300  0.93387000  0.37392900  1
  Fe  Fe29  1  0.06613000  0.27639700  0.62607100  1
  Fe  Fe30  1  0.93387000  0.72360300  0.62607100  1
  Fe  Fe31  1  0.22360300  0.56613000  0.12607100  1
  Fe  Fe32  1  0.68236200  0.68236200  0.75385700  1
  Fe  Fe33  1  0.31763800  0.31763800  0.75385700  1
  Fe  Fe34  1  0.68236200  0.68236200  0.24614300  1
  Fe  Fe35  1  0.18236200  0.81763800  0.25385700  1
  Fe  Fe36  1  0.81763800  0.18236200  0.25385700  1
  Fe  Fe37  1  0.81763800  0.18236200  0.74614300  1
  Fe  Fe38  1  0.18236200  0.81763800  0.74614300  1
  Fe  Fe39  1  0.31763800  0.31763800  0.24614300  1
  Fe  Fe40  1  0.90210700  0.90210700  0.79793000  1
  Fe  Fe41  1  0.09789300  0.09789300  0.79793000  1
  Fe  Fe42  1  0.90210700  0.90210700  0.20207000  1
  Fe  Fe43  1  0.40210700  0.59789300  0.29793000  1
  Fe  Fe44  1  0.59789300  0.40210700  0.29793000  1
  Fe  Fe45  1  0.59789300  0.40210700  0.70207000  1
  Fe  Fe46  1  0.40210700  0.59789300  0.70207000  1
  Fe  Fe47  1  0.09789300  0.09789300  0.20207000  1
  Fe  Fe48  1  0.00000000  0.00000000  0.38394000  1
  Fe  Fe49  1  0.50000000  0.50000000  0.88394000  1
  Fe  Fe50  1  0.50000000  0.50000000  0.11606000  1
  Fe  Fe51  1  0.00000000  0.00000000  0.61606000  1
  Fe  Fe52  1  0.50000000  0.00000000  0.00000000  1
  Fe  Fe53  1  0.50000000  0.00000000  0.50000000  1
  Fe  Fe54  1  0.00000000  0.50000000  0.50000000  1
  Fe  Fe55  1  0.00000000  0.50000000  0.00000000  1
  B  B0  1  0.62239500  0.37760500  0.00000000  1
  B  B1  1  0.12239500  0.12239500  0.50000000  1
  B  B2  1  0.87760500  0.87760500  0.50000000  1
  B  B3  1  0.37760500  0.62239500  0.00000000  1
loop_
_geom_bond_atom_site_label_1
_geom_bond_atom_site_label_2
_geom_bond_distance
_geom_bond_site_symmetry_2
Ce0 Fe26 3.036090 1_555
Ce0 Fe23 3.036090 1_554
Ce0 Fe16 3.036090 1_555
Ce0 Fe25 3.036090 1_554
Ce0 Fe37 3.070957 1_554
Ce0 Fe36 3.070957 1_555
Ce0 Fe47 3.232595 1_655
Ce0 Fe41 3.232595 1_654
Ce0 Fe42 3.232595 1_545
Ce0 Fe40 3.232595 1_544
Ce0 Fe15 3.237572 1_655
Ce0 Fe2 3.237572 1_654
Ce0 Fe1 3.237572 1_545
Ce0 Fe8 3.237572 1_544
Ce0 Fe55 3.363037 1_655
Ce0 Fe52 3.363037 1_555
Ce1 Fe27 3.036090 1_555
Ce1 Fe22 3.036090 1_555
Ce1 Fe29 3.036090 1_555
Ce1 Fe20 3.036090 1_555
Ce1 Fe39 3.070957 1_555
Ce1 Fe33 3.070957 1_555
Ce1 Fe46 3.232595 1_555
Ce1 Fe45 3.232595 1_555
Ce1 Fe43 3.232595 1_555
Ce1 Fe44 3.232595 1_555
Ce1 Fe12 3.237572 1_555
Ce1 Fe3 3.237572 1_555
Ce1 Fe5 3.237572 1_555
Ce1 Fe14 3.237572 1_555
Ce1 Fe53 3.363037 1_555
Ce1 Fe54 3.363037 1_555
Ce2 Fe21 3.036090 1_555
Ce2 Fe28 3.036090 1_555
Ce2 Fe19 3.036090 1_555
Ce2 Fe30 3.036090 1_555
Ce2 Fe32 3.070957 1_555
Ce2 Fe34 3.070957 1_555
Ce2 Fe45 3.232595 1_555
Ce2 Fe46 3.232595 1_555
Ce2 Fe43 3.232595 1_555
Ce2 Fe44 3.232595 1_555
Ce2 Fe6 3.237572 1_555
Ce2 Fe11 3.237572 1_555
Ce2 Fe13 3.237572 1_555
Ce2 Fe4 3.237572 1_555
Ce2 Fe54 3.363037 1_655
Ce2 Fe53 3.363037 1_565
Ce3 Fe17 3.036090 1_555
Ce3 Fe24 3.036090 1_554
Ce3 Fe31 3.036090 1_555
Ce3 Fe18 3.036090 1_554
Ce3 Fe35 3.070957 1_555
Ce3 Fe38 3.070957 1_554
Ce3 Fe47 3.232595 1_565
Ce3 Fe40 3.232595 1_454
Ce3 Fe42 3.232595 1_455
Ce3 Fe41 3.232595 1_564
Ce3 Fe0 3.237572 1_565
Ce3 Fe9 3.237572 1_564
Ce3 Fe10 3.237572 1_455
Ce3 Fe7 3.237572 1_454
Ce3 Fe52 3.363037 1_565
Ce3 Fe55 3.363037 1_555
Ce4 Fe34 3.003006 1_555
Ce4 Fe32 3.003006 1_554
Ce4 Fe1 3.013670 1_555
Ce4 Fe8 3.013670 1_554
Ce4 Fe10 3.013670 1_555
Ce4 Fe7 3.013670 1_554
Ce4 Fe26 3.034086 1_555
Ce4 Fe17 3.034086 1_555
Ce4 Fe23 3.034086 1_554
Ce4 Fe24 3.034086 1_554
Ce4 Fe52 3.102408 1_565
Ce4 Fe55 3.102408 1_655
Ce4 Fe50 3.182571 1_555
Ce4 Fe49 3.182571 1_554
Ce4 Fe40 3.207536 1_554
Ce4 Fe42 3.207536 1_555
Ce5 Fe36 3.003006 1_555
Ce5 Fe37 3.003006 1_555
Ce5 Fe6 3.013670 1_555
Ce5 Fe12 3.013670 1_555
Ce5 Fe13 3.013670 1_555
Ce5 Fe3 3.013670 1_555
Ce5 Fe22 3.034086 1_655
Ce5 Fe29 3.034086 1_655
Ce5 Fe28 3.034086 1_545
Ce5 Fe19 3.034086 1_545
Ce5 Fe54 3.102408 1_655
Ce5 Fe53 3.102408 1_555
Ce5 Fe51 3.182571 1_655
Ce5 Fe48 3.182571 1_655
Ce5 Fe45 3.207536 1_555
Ce5 Fe44 3.207536 1_555
Ce6 Fe35 3.003006 1_555
Ce6 Fe38 3.003006 1_555
Ce6 Fe11 3.013670 1_555
Ce6 Fe5 3.013670 1_555
Ce6 Fe4 3.013670 1_555
Ce6 Fe14 3.013670 1_555
Ce6 Fe27 3.034086 1_565
Ce6 Fe21 3.034086 1_455
Ce6 Fe20 3.034086 1_565
Ce6 Fe30 3.034086 1_455
Ce6 Fe53 3.102408 1_565
Ce6 Fe54 3.102408 1_555
Ce6 Fe51 3.182571 1_565
Ce6 Fe48 3.182571 1_565
Ce6 Fe46 3.207536 1_555
Ce6 Fe43 3.207536 1_555
Ce7 Fe39 3.003006 1_555
Ce7 Fe33 3.003006 1_554
Ce7 Fe15 3.013670 1_555
Ce7 Fe0 3.013670 1_555
Ce7 Fe2 3.013670 1_554
Ce7 Fe9 3.013670 1_554
Ce7 Fe16 3.034086 1_555
Ce7 Fe31 3.034086 1_555
Ce7 Fe25 3.034086 1_554
Ce7 Fe18 3.034086 1_554
Ce7 Fe55 3.102408 1_555
Ce7 Fe52 3.102408 1_555
Ce7 Fe50 3.182571 1_555
Ce7 Fe49 3.182571 1_554
Ce7 Fe41 3.207536 1_554
Ce7 Fe47 3.207536 1_555
Fe0 Fe47 2.366724 1_555
Fe0 Fe52 2.454057 1_555
Fe0 Fe17 2.454474 1_545
Fe0 Fe27 2.492143 1_555
Fe0 Fe16 2.501891 1_555
Fe0 Fe11 2.537748 1_545
Fe0 Fe12 2.537748 1_555
Fe0 Fe1 2.554194 1_545
Fe0 Fe39 2.612516 1_555
Fe0 Fe35 2.645474 1_545
Fe1 Fe42 2.366724 1_555
Fe1 Fe52 2.454057 1_565
Fe1 Fe16 2.454474 1_565
Fe1 Fe28 2.492143 1_555
Fe1 Fe17 2.501891 1_555
Fe1 Fe11 2.537748 1_555
Fe1 Fe12 2.537748 1_565
Fe1 Fe34 2.612516 1_555
Fe1 Fe36 2.645474 1_565
Fe2 Fe41 2.366724 1_555
Fe2 Fe55 2.454057 1_556
Fe2 Fe23 2.454474 1_455
Fe2 Fe29 2.492143 1_555
Fe2 Fe7 2.554194 1_455
Fe2 Fe33 2.612516 1_555
Fe2 Fe37 2.645474 1_455
Fe3 Fe45 2.366724 1_555
Fe3 Fe53 2.454057 1_555
Fe3 Fe8 2.537748 1_545
Fe3 Fe9 2.537748 1_555
Fe3 Fe4 2.554194 1_545
Fe3 Fe37 2.612516 1_555
Fe3 Fe33 2.645474 1_555
Fe4 Fe46 2.366724 1_555
Fe4 Fe53 2.454057 1_565
Fe4 Fe9 2.537748 1_565
Fe4 Fe8 2.537748 1_555
Fe5 Fe54 2.454057 1_555
Fe5 Fe6 2.554194 1_455
Fe8 Fe9 2.554194 1_565
Fe10 Fe42 2.366724 1_555
Fe10 Fe55 2.454057 1_655
Fe10 Fe31 2.454474 1_655
Fe10 Fe21 2.492143 1_555
Fe10 Fe26 2.501891 1_555
Fe10 Fe5 2.537748 1_655
Fe10 Fe6 2.537748 1_555
Fe10 Fe15 2.554194 1_655
Fe10 Fe34 2.612516 1_555
Fe10 Fe35 2.645474 1_655
Fe11 Fe43 2.366724 1_555
Fe11 Fe53 2.454057 1_565
Fe11 Fe28 2.454474 1_555
Fe11 Fe17 2.492143 1_555
Fe11 Fe27 2.501891 1_565
Fe11 Fe12 2.554194 1_565
Fe11 Fe35 2.612516 1_555
Fe11 Fe34 2.645474 1_555
Fe12 Fe44 2.366724 1_555
Fe12 Fe53 2.454057 1_555
Fe12 Fe27 2.454474 1_555
Fe12 Fe16 2.492143 1_555
Fe12 Fe28 2.501891 1_545
Fe12 Fe36 2.612516 1_555
Fe12 Fe39 2.645474 1_555
Fe13 Fe45 2.366724 1_555
Fe13 Fe54 2.454057 1_655
Fe13 Fe30 2.454474 1_555
Fe13 Fe23 2.492143 1_555
Fe13 Fe29 2.501891 1_655
Fe13 Fe2 2.537748 1_655
Fe13 Fe7 2.537748 1_555
Fe13 Fe14 2.554194 1_655
Fe13 Fe37 2.612516 1_555
Fe13 Fe32 2.645474 1_555
Fe14 Fe46 2.366724 1_555
Fe14 Fe54 2.454057 1_555
Fe14 Fe29 2.454474 1_555
Fe14 Fe18 2.492143 1_555
Fe14 Fe30 2.501891 1_455
Fe14 Fe7 2.537748 1_455
Fe14 Fe2 2.537748 1_555
Fe14 Fe38 2.612516 1_555
Fe14 Fe33 2.645474 1_555
Fe15 Fe47 2.366724 1_555
Fe15 Fe55 2.454057 1_555
Fe15 Fe26 2.454474 1_455
Fe15 Fe22 2.492143 1_555
Fe15 Fe31 2.501891 1_555
Fe15 Fe6 2.537748 1_455
Fe15 Fe5 2.537748 1_555
Fe15 Fe39 2.612516 1_555
Fe15 Fe36 2.645474 1_455
Fe16 Fe52 2.536247 1_555
Fe16 Fe44 2.594905 1_555
Fe16 Fe36 2.702838 1_555
Fe16 Fe39 2.732000 1_555
Fe17 Fe52 2.536247 1_565
Fe17 Fe43 2.594905 1_555
Fe17 Fe35 2.702838 1_555
Fe17 Fe34 2.732000 1_555
Fe18 Fe7 2.454474 1_455
Fe18 Fe2 2.501891 1_555
Fe18 Fe55 2.536247 1_556
Fe18 Fe46 2.594905 1_555
Fe18 Fe38 2.702838 1_555
Fe18 Fe33 2.732000 1_555
Fe19 Fe4 2.454474 1_555
Fe19 Fe8 2.492143 1_555
Fe19 Fe3 2.501891 1_565
Fe19 Fe53 2.536247 1_565
Fe19 Fe40 2.594905 1_555
Fe19 Fe32 2.702838 1_555
Fe19 Fe37 2.732000 1_565
Fe20 Fe3 2.454474 1_555
Fe20 Fe9 2.492143 1_555
Fe20 Fe4 2.501891 1_545
Fe20 Fe53 2.536247 1_555
Fe20 Fe41 2.594905 1_555
Fe20 Fe33 2.702838 1_555
Fe20 Fe38 2.732000 1_545
Fe21 Fe6 2.454474 1_555
Fe21 Fe5 2.501891 1_655
Fe21 Fe54 2.536247 1_655
Fe21 Fe42 2.594905 1_555
Fe21 Fe34 2.702838 1_555
Fe21 Fe35 2.732000 1_655
Fe22 Fe5 2.454474 1_555
Fe22 Fe6 2.501891 1_455
Fe22 Fe54 2.536247 1_555
Fe22 Fe47 2.594905 1_555
Fe22 Fe39 2.702838 1_555
Fe22 Fe36 2.732000 1_455
Fe23 Fe7 2.501891 1_555
Fe23 Fe55 2.536247 1_656
Fe23 Fe45 2.594905 1_555
Fe23 Fe37 2.702838 1_555
Fe23 Fe32 2.732000 1_555
Fe24 Fe9 2.454474 1_565
Fe24 Fe4 2.492143 1_555
Fe24 Fe8 2.501891 1_555
Fe24 Fe52 2.536247 1_566
Fe24 Fe46 2.594905 1_555
Fe24 Fe38 2.702838 1_555
Fe24 Fe32 2.732000 1_555
Fe25 Fe8 2.454474 1_545
Fe25 Fe3 2.492143 1_555
Fe25 Fe9 2.501891 1_555
Fe25 Fe52 2.536247 1_556
Fe25 Fe45 2.594905 1_555
Fe25 Fe37 2.702838 1_555
Fe25 Fe33 2.732000 1_555
Fe26 Fe6 2.492143 1_555
Fe26 Fe55 2.536247 1_655
Fe26 Fe44 2.594905 1_555
Fe26 Fe36 2.702838 1_555
Fe26 Fe34 2.732000 1_555
Fe27 Fe53 2.536247 1_555
Fe27 Fe47 2.594905 1_555
Fe27 Fe39 2.702838 1_555
Fe27 Fe35 2.732000 1_545
Fe28 Fe53 2.536247 1_565
Fe28 Fe42 2.594905 1_555
Fe28 Fe34 2.702838 1_555
Fe28 Fe36 2.732000 1_565
Fe29 Fe54 2.536247 1_555
Fe29 Fe41 2.594905 1_555
Fe29 Fe33 2.702838 1_555
Fe29 Fe37 2.732000 1_455
Fe30 Fe7 2.492143 1_555
Fe30 Fe54 2.536247 1_655
Fe30 Fe40 2.594905 1_555
Fe30 Fe32 2.702838 1_555
Fe30 Fe38 2.732000 1_655
Fe31 Fe5 2.492143 1_555
Fe31 Fe55 2.536247 1_555
Fe31 Fe43 2.594905 1_555
Fe31 Fe35 2.702838 1_555
Fe31 Fe39 2.732000 1_555
Fe32 Fe8 2.612516 1_555
Fe32 Fe7 2.612516 1_555
Fe32 Fe46 2.635137 1_555
Fe32 Fe45 2.635137 1_555
Fe32 Fe4 2.645474 1_555
Fe32 Fe49 2.740245 1_555
Fe32 Fe40 2.770006 1_555
Fe33 Fe9 2.612516 1_555
Fe33 Fe46 2.635137 1_555
Fe33 Fe45 2.635137 1_555
Fe33 Fe49 2.740245 1_555
Fe33 Fe41 2.770006 1_555
Fe34 Fe44 2.635137 1_555
Fe34 Fe43 2.635137 1_555
Fe34 Fe6 2.645474 1_555
Fe34 Fe50 2.740245 1_555
Fe34 Fe42 2.770006 1_555
Fe35 Fe5 2.612516 1_555
Fe35 Fe47 2.635137 1_565
Fe35 Fe42 2.635137 1_455
Fe35 Fe48 2.740245 1_565
Fe35 Fe43 2.770006 1_555
Fe36 Fe6 2.612516 1_555
Fe36 Fe42 2.635137 1_545
Fe36 Fe47 2.635137 1_655
Fe36 Fe48 2.740245 1_655
Fe36 Fe44 2.770006 1_555
Fe37 Fe40 2.635137 1_545
Fe37 Fe41 2.635137 1_655
Fe37 Fe8 2.645474 1_545
Fe37 Fe51 2.740245 1_655
Fe37 Fe45 2.770006 1_555
Fe38 Fe4 2.612516 1_555
Fe38 Fe41 2.635137 1_565
Fe38 Fe40 2.635137 1_455
Fe38 Fe9 2.645474 1_565
Fe38 Fe7 2.645474 1_455
Fe38 Fe51 2.740245 1_565
Fe38 Fe46 2.770006 1_555
Fe39 Fe44 2.635137 1_555
Fe39 Fe43 2.635137 1_555
Fe39 Fe5 2.645474 1_555
Fe39 Fe50 2.740245 1_555
Fe39 Fe47 2.770006 1_555
Fe40 Fe7 2.366724 1_555
Fe40 Fe8 2.366724 1_555
Fe40 Fe41 2.422985 1_665
Fe40 Fe51 2.487852 1_665
Fe41 Fe9 2.366724 1_555
Fe41 Fe51 2.487852 1_555
Fe42 Fe47 2.422985 1_665
Fe42 Fe48 2.487852 1_665
Fe43 Fe5 2.366724 1_555
Fe43 Fe44 2.422985 1_555
Fe43 Fe50 2.487852 1_555
Fe44 Fe6 2.366724 1_555
Fe44 Fe50 2.487852 1_555
Fe45 Fe46 2.422985 1_555
Fe45 Fe49 2.487852 1_555
Fe46 Fe49 2.487852 1_555
Fe47 Fe48 2.487852 1_555
Fe52 Fe8 2.454057 1_544
Fe52 Fe9 2.454057 1_554
Fe54 Fe6 2.454057 1_455
Fe55 Fe7 2.454057 1_454
B0 Fe50 2.053585 1_555
B0 Fe49 2.053585 1_554
B0 Fe26 2.080257 1_555
B0 Fe23 2.080257 1_554
B0 Fe16 2.080257 1_555
B0 Fe25 2.080257 1_554
B0 Ce0 2.897407 1_555
B0 Ce4 3.240418 1_555
B0 Ce7 3.240418 1_555
B1 Fe48 2.053585 1_555
B1 Fe51 2.053585 1_555
B1 Fe27 2.080257 1_555
B1 Fe22 2.080257 1_555
B1 Fe29 2.080257 1_555
B1 Fe20 2.080257 1_555
B1 Ce1 2.897407 1_555
B1 Ce5 3.240418 1_455
B1 Ce6 3.240418 1_545
B2 Fe48 2.053585 1_665
B2 Fe51 2.053585 1_665
B2 Fe21 2.080257 1_555
B2 Fe28 2.080257 1_555
B2 Fe19 2.080257 1_555
B2 Fe30 2.080257 1_555
B2 Ce2 2.897407 1_555
B2 Ce6 3.240418 1_655
B2 Ce5 3.240418 1_565
B3 Fe50 2.053585 1_555
B3 Fe49 2.053585 1_554
B3 Fe17 2.080257 1_555
B3 Fe31 2.080257 1_555
B3 Fe24 2.080257 1_554
B3 Fe18 2.080257 1_554
B3 Ce3 2.897407 1_555
B3 Ce4 3.240418 1_555
B3 Ce7 3.240418 1_555
