# generated using pymatgen
data_Ta6Si7Ni16
_symmetry_space_group_name_H-M   'P 1'
_cell_length_a   7.88139418
_cell_length_b   7.88139548
_cell_length_c   7.88139543
_cell_angle_alpha   60.00306594
_cell_angle_beta   60.00305362
_cell_angle_gamma   60.00306452
_symmetry_Int_Tables_number   1
_chemical_formula_structural   Ta6Si7Ni16
_chemical_formula_sum   'Ta6 Si7 Ni16'
_cell_volume   346.19790185
_cell_formula_units_Z   1
loop_
 _symmetry_equiv_pos_site_id
 _symmetry_equiv_pos_as_xyz
  1  'x, y, z'
loop_
 _atom_site_type_symbol
 _atom_site_label
 _atom_site_symmetry_multiplicity
 _atom_site_fract_x
 _atom_site_fract_y
 _atom_site_fract_z
 _atom_site_occupancy
  Ta  Ta0  1  0.79633196  0.20366838  0.79633125  1
  Ta  Ta1  1  0.20366785  0.20366873  0.79633164  1
  Ta  Ta2  1  0.79633109  0.79633130  0.20366873  1
  Ta  Ta3  1  0.79633143  0.20366923  0.20366814  1
  Ta  Ta4  1  0.20366787  0.79633226  0.79633118  1
  Ta  Ta5  1  0.20366874  0.79633133  0.20366926  1
  Si  Si0  1  0.49999886  0.50000088  0.50000029  1
  Si  Si1  1  0.50000546  0.50000785  -0.00000666  1
  Si  Si2  1  0.99999256  -0.00000565  0.50000666  1
  Si  Si3  1  0.50000631  -0.00000642  0.50000755  1
  Si  Si4  1  -0.00000705  0.50000728  0.50000581  1
  Si  Si5  1  0.50000630  -0.00000607  -0.00000745  1
  Si  Si6  1  -0.00000655  0.50000720  -0.00000649  1
  Ni  Ni0  1  0.50285994  0.83237770  0.83237826  1
  Ni  Ni1  1  0.83237837  0.50285890  0.83237821  1
  Ni  Ni2  1  0.83237816  0.83237778  0.50285961  1
  Ni  Ni3  1  0.16759505  0.49722172  0.16759490  1
  Ni  Ni4  1  0.16759503  0.16759449  0.49722208  1
  Ni  Ni5  1  0.49722384  0.16759390  0.16759450  1
  Ni  Ni6  1  0.83238427  0.83238391  0.83238440  1
  Ni  Ni7  1  0.38319871  0.38319667  0.38319766  1
  Ni  Ni8  1  0.14951156  0.61683021  0.61683029  1
  Ni  Ni9  1  0.61683044  0.14951272  0.61682975  1
  Ni  Ni10  1  0.61683087  0.61683017  0.14951159  1
  Ni  Ni11  1  0.38319539  0.85041312  0.38319448  1
  Ni  Ni12  1  0.38319637  0.38319409  0.85041177  1
  Ni  Ni13  1  0.85041121  0.38319450  0.38319532  1
  Ni  Ni14  1  0.61682834  0.61682700  0.61682780  1
  Ni  Ni15  1  0.16758860  0.16758777  0.16758845  1
loop_
_geom_bond_atom_site_label_1
_geom_bond_atom_site_label_2
_geom_bond_distance
_geom_bond_site_symmetry_2
Si1 Ta5 2.834026 1_555
Si1 Ta4 2.834029 1_554
Si1 Ta3 2.834036 1_555
Si1 Ta0 2.834041 1_554
Si2 Ta0 2.833978 1_555
Si2 Ta4 2.833983 1_645
Si2 Ta3 2.833983 1_555
Si2 Ta5 2.833985 1_645
Si3 Ta1 2.834027 1_555
Si3 Ta4 2.834029 1_545
Si3 Ta3 2.834036 1_555
Si3 Ta2 2.834036 1_545
Si4 Ta2 2.834025 1_455
Si4 Ta5 2.834028 1_555
Si4 Ta0 2.834032 1_455
Si4 Ta1 2.834036 1_555
Si5 Ta1 2.833981 1_554
Si5 Ta5 2.833983 1_545
Si5 Ta0 2.833986 1_554
Si5 Ta2 2.833989 1_545
Si6 Ta2 2.833979 1_455
Si6 Ta4 2.833981 1_554
Si6 Ta3 2.833984 1_455
Si6 Ta1 2.833987 1_554
Ni0 Si5 2.275167 1_566
Ni0 Si1 2.275225 1_556
Ni0 Si3 2.275229 1_565
Ni0 Ni14 2.532410 1_555
Ni0 Ni10 2.532486 1_556
Ni0 Ni9 2.532495 1_565
Ni0 Ni6 2.597160 1_555
Ni0 Ni2 2.597185 1_555
Ni0 Ni1 2.597187 1_555
Ni0 Ta4 2.672493 1_555
Ni0 Ta5 2.672668 1_556
Ni0 Ta1 2.672671 1_565
Ni1 Si6 2.275175 1_656
Ni1 Si4 2.275236 1_655
Ni1 Si1 2.275237 1_556
Ni1 Ni14 2.532406 1_555
Ni1 Ni8 2.532486 1_655
Ni1 Ni10 2.532487 1_556
Ni1 Ni6 2.597165 1_555
Ni1 Ni2 2.597188 1_555
Ni1 Ta0 2.672486 1_555
Ni1 Ta1 2.672658 1_655
Ni1 Ta3 2.672659 1_556
Ni2 Si2 2.275173 1_565
Ni2 Si4 2.275228 1_655
Ni2 Si3 2.275233 1_565
Ni2 Ni8 2.532485 1_655
Ni2 Ni9 2.532493 1_565
Ni2 Ni6 2.597163 1_555
Ni2 Ta2 2.672489 1_555
Ni2 Ta5 2.672663 1_655
Ni2 Ta3 2.672672 1_565
Ni3 Si6 2.275286 1_555
Ni3 Si1 2.275342 1_555
Ni3 Si4 2.275345 1_555
Ni3 Ni7 2.532957 1_555
Ni3 Ni4 2.598043 1_555
Ni3 Ni5 2.598051 1_555
Ni3 Ta5 2.672114 1_555
Ni3 Ta2 2.672291 1_455
Ni3 Ta4 2.672293 1_554
Ni4 Si2 2.275287 1_455
Ni4 Si3 2.275347 1_555
Ni4 Si4 2.275354 1_555
Ni4 Ni7 2.532954 1_555
Ni4 Ni5 2.598050 1_555
Ni4 Ta1 2.672109 1_555
Ni4 Ta4 2.672281 1_545
Ni4 Ta0 2.672285 1_455
Ni5 Si5 2.275292 1_555
Ni5 Si3 2.275352 1_555
Ni5 Si1 2.275357 1_555
Ni5 Ni7 2.532953 1_555
Ni5 Ta3 2.672102 1_555
Ni5 Ta2 2.672277 1_545
Ni5 Ta0 2.672282 1_554
Ni6 Si6 2.275277 1_656
Ni6 Si5 2.275282 1_566
Ni6 Si2 2.275283 1_565
Ni6 Ni8 2.532522 1_655
Ni6 Ni9 2.532529 1_565
Ni6 Ta4 2.672500 1_655
Ni6 Ta2 2.672503 1_556
Ni6 Ta0 2.672505 1_565
Ni7 Si0 2.254863 1_555
Ni7 Si3 2.470557 1_555
Ni7 Si1 2.470565 1_555
Ni7 Si4 2.470574 1_555
Ni7 Ni9 2.604116 1_555
Ni7 Ni8 2.604129 1_555
Ni7 Ta3 2.719282 1_555
Ni7 Ta1 2.719292 1_555
Ni7 Ta5 2.719295 1_555
Ni8 Si0 2.255519 1_555
Ni8 Si4 2.470152 1_555
Ni8 Si6 2.470289 1_556
Ni8 Si2 2.470295 1_465
Ni8 Ta4 2.719170 1_555
Ni8 Ta5 2.719327 1_555
Ni8 Ta1 2.719331 1_555
Ni9 Si0 2.255525 1_555
Ni9 Si3 2.470148 1_555
Ni9 Si2 2.470282 1_555
Ni9 Si5 2.470286 1_556
Ni9 Ta0 2.719167 1_555
Ni9 Ta3 2.719332 1_555
Ni9 Ta1 2.719339 1_555
Ni10 Si0 2.255528 1_555
Ni10 Si1 2.470151 1_555
Ni10 Si6 2.470284 1_655
Ni10 Si5 2.470293 1_565
Ni10 Ni6 2.532520 1_554
Ni10 Ni13 2.604118 1_555
Ni10 Ni7 2.604126 1_555
Ni10 Ni11 2.604127 1_555
Ni10 Ta2 2.719163 1_555
Ni10 Ta3 2.719327 1_555
Ni10 Ta5 2.719333 1_555
Ni11 Si0 2.255036 1_555
Ni11 Si3 2.470419 1_565
Ni11 Si5 2.470558 1_565
Ni11 Si2 2.470563 1_465
Ni11 Ni5 2.533028 1_565
Ni11 Ni4 2.533028 1_565
Ni11 Ni15 2.533065 1_565
Ni11 Ni14 2.604130 1_555
Ni11 Ni8 2.604132 1_555
Ni11 Ta5 2.719103 1_555
Ni11 Ta2 2.719263 1_555
Ni11 Ta4 2.719271 1_555
Ni12 Si0 2.255031 1_555
Ni12 Si1 2.470419 1_556
Ni12 Si5 2.470547 1_556
Ni12 Si6 2.470564 1_556
Ni12 Ni5 2.533037 1_556
Ni12 Ni3 2.533040 1_556
Ni12 Ni15 2.533075 1_556
Ni12 Ni9 2.604113 1_555
Ni12 Ni14 2.604122 1_555
Ni12 Ni8 2.604130 1_555
Ni12 Ta1 2.719108 1_555
Ni12 Ta0 2.719264 1_555
Ni12 Ta4 2.719282 1_555
Ni13 Si0 2.255036 1_555
Ni13 Si4 2.470423 1_655
Ni13 Si2 2.470547 1_555
Ni13 Si6 2.470558 1_655
Ni13 Ni4 2.533041 1_655
Ni13 Ni3 2.533042 1_655
Ni13 Ni15 2.533075 1_655
Ni13 Ni9 2.604109 1_555
Ni13 Ni14 2.604122 1_555
Ni13 Ta3 2.719096 1_555
Ni13 Ta0 2.719269 1_555
Ni13 Ta2 2.719273 1_555
Ni14 Si0 2.255353 1_555
Ni14 Si4 2.470289 1_655
Ni14 Si1 2.470295 1_556
Ni14 Si3 2.470303 1_565
Ni14 Ni2 2.532407 1_555
Ni14 Ta0 2.719350 1_555
Ni14 Ta2 2.719352 1_555
Ni14 Ta4 2.719361 1_555
Ni15 Si5 2.275395 1_555
Ni15 Si2 2.275397 1_455
Ni15 Si6 2.275404 1_555
Ni15 Ni4 2.598025 1_555
Ni15 Ni3 2.598026 1_555
Ni15 Ni5 2.598033 1_555
Ni15 Ta5 2.672117 1_545
Ni15 Ta3 2.672122 1_455
Ni15 Ta1 2.672122 1_554
