# generated using pymatgen
data_La(CoP)2
_symmetry_space_group_name_H-M   'P 1'
_cell_length_a   3.80037815
_cell_length_b   3.80037915
_cell_length_c   6.12542718
_cell_angle_alpha   108.03603116
_cell_angle_beta   108.03604629
_cell_angle_gamma   89.99738700
_symmetry_Int_Tables_number   1
_chemical_formula_structural   La(CoP)2
_chemical_formula_sum   'La1 Co2 P2'
_cell_volume   79.53761401
_cell_formula_units_Z   1
loop_
 _symmetry_equiv_pos_site_id
 _symmetry_equiv_pos_as_xyz
  1  'x, y, z'
loop_
 _atom_site_type_symbol
 _atom_site_label
 _atom_site_symmetry_multiplicity
 _atom_site_fract_x
 _atom_site_fract_y
 _atom_site_fract_z
 _atom_site_occupancy
  La  La0  1  -0.00000000  0.00000000  -0.00000000  1
  Co  Co0  1  0.25000461  0.74999539  0.50000000  1
  Co  Co1  1  0.74999539  0.25000461  0.50000000  1
  P  P0  1  0.35020364  0.35020364  0.70069818  1
  P  P1  1  0.64979636  0.64979636  0.29930182  1
loop_
_geom_bond_atom_site_label_1
_geom_bond_atom_site_label_2
_geom_bond_distance
_geom_bond_site_symmetry_2
La0 P1 3.150529 1_445
La0 P0 3.150529 1_554
La0 P1 3.152444 1_545
La0 P0 3.152444 1_454
La0 P1 3.152445 1_455
La0 P0 3.152445 1_544
La0 P0 3.154568 1_444
La0 P1 3.154568 1_555
Co0 P1 2.198063 1_555
Co0 P0 2.198063 1_555
Co0 P1 2.198439 1_455
Co0 P0 2.198439 1_565
Co1 P0 2.198063 1_555
Co1 P1 2.198063 1_555
Co1 P0 2.198439 1_655
Co1 P1 2.198439 1_545
