# generated using pymatgen
data_NaGd3Ti2(SbO7)2
_symmetry_space_group_name_H-M   'P 1'
_cell_length_a   7.32399700
_cell_length_b   7.35683800
_cell_length_c   12.67799081
_cell_angle_alpha   54.94585857
_cell_angle_beta   90.00000000
_cell_angle_gamma   90.00000000
_symmetry_Int_Tables_number   1
_chemical_formula_structural   NaGd3Ti2(SbO7)2
_chemical_formula_sum   'Na2 Gd6 Ti4 Sb4 O28'
_cell_volume   559.19935144
_cell_formula_units_Z   2
loop_
 _symmetry_equiv_pos_site_id
 _symmetry_equiv_pos_as_xyz
  1  'x, y, z'
loop_
 _atom_site_type_symbol
 _atom_site_label
 _atom_site_symmetry_multiplicity
 _atom_site_fract_x
 _atom_site_fract_y
 _atom_site_fract_z
 _atom_site_occupancy
  Na  Na0  1  0.50000000  0.50000000  0.50000000  1
  Na  Na1  1  0.50000000  0.50000000  0.00000000  1
  Gd  Gd0  1  0.26701600  0.00000000  0.75000000  1
  Gd  Gd1  1  0.73298400  0.00000000  0.25000000  1
  Gd  Gd2  1  0.25473500  0.50000000  0.75000000  1
  Gd  Gd3  1  0.74526500  0.50000000  0.25000000  1
  Gd  Gd4  1  0.00000000  0.50000000  0.00000000  1
  Gd  Gd5  1  0.00000000  0.50000000  0.50000000  1
  Ti  Ti0  1  0.00000000  0.00000000  0.00000000  1
  Ti  Ti1  1  0.00000000  0.00000000  0.50000000  1
  Ti  Ti2  1  0.23918200  0.00000000  0.25000000  1
  Ti  Ti3  1  0.76081800  0.00000000  0.75000000  1
  Sb  Sb0  1  0.24589800  0.50000000  0.25000000  1
  Sb  Sb1  1  0.50000000  0.00000000  0.50000000  1
  Sb  Sb2  1  0.75410200  0.50000000  0.75000000  1
  Sb  Sb3  1  0.50000000  0.00000000  0.00000000  1
  O  O0  1  0.23981100  0.63268400  0.86881300  1
  O  O1  1  0.05348100  0.07328800  0.12231500  1
  O  O2  1  0.23228800  0.67830300  0.32229900  1
  O  O3  1  0.76018900  0.63268400  0.36881300  1
  O  O4  1  0.24928500  0.07662700  0.92308800  1
  O  O5  1  0.04549700  0.67618100  0.12263500  1
  O  O6  1  0.55028200  0.05722800  0.63216600  1
  O  O7  1  0.04549700  0.32381900  0.37736500  1
  O  O8  1  0.94651900  0.07328800  0.62231500  1
  O  O9  1  0.24928500  0.92337300  0.57691200  1
  O  O10  1  0.75071500  0.07662700  0.42308800  1
  O  O11  1  0.76771200  0.67830300  0.82229900  1
  O  O12  1  0.05348100  0.92671200  0.37768500  1
  O  O13  1  0.95450300  0.67618100  0.62263500  1
  O  O14  1  0.54483300  0.67056300  0.62859000  1
  O  O15  1  0.95450300  0.32381900  0.87736500  1
  O  O16  1  0.54483300  0.32943700  0.87141000  1
  O  O17  1  0.44971800  0.05722800  0.13216600  1
  O  O18  1  0.76771200  0.32169700  0.67770100  1
  O  O19  1  0.75071500  0.92337300  0.07691200  1
  O  O20  1  0.94651900  0.92671200  0.87768500  1
  O  O21  1  0.45516700  0.67056300  0.12859000  1
  O  O22  1  0.55028200  0.94277200  0.86783400  1
  O  O23  1  0.45516700  0.32943700  0.37141000  1
  O  O24  1  0.76018900  0.36731600  0.13118700  1
  O  O25  1  0.23228800  0.32169700  0.17770100  1
  O  O26  1  0.44971800  0.94277200  0.36783400  1
  O  O27  1  0.23981100  0.36731600  0.63118700  1
loop_
_geom_bond_atom_site_label_1
_geom_bond_atom_site_label_2
_geom_bond_distance
_geom_bond_site_symmetry_2
Na0 O27 2.342119 1_555
Na0 O3 2.342119 1_555
Na0 O23 2.586496 1_555
Na0 O14 2.586496 1_555
Na0 O18 2.691833 1_555
Na0 O2 2.691833 1_555
Na0 O6 2.698925 1_555
Na0 O26 2.698925 1_555
Na1 O24 2.342119 1_555
Na1 O0 2.342119 1_554
Na1 O16 2.586496 1_554
Na1 O21 2.586496 1_555
Na1 O11 2.691833 1_554
Na1 O25 2.691833 1_555
Na1 O17 2.698925 1_555
Na1 O22 2.698925 1_554
Gd0 O0 2.221542 1_545
Gd0 O27 2.221542 1_555
Gd0 O6 2.447577 1_555
Gd0 O22 2.447577 1_545
Gd0 O4 2.563415 1_555
Gd0 O9 2.563415 1_545
Gd0 O20 2.723693 1_445
Gd0 O8 2.723693 1_455
Gd1 O3 2.221542 1_545
Gd1 O24 2.221542 1_555
Gd1 O17 2.447577 1_555
Gd1 O26 2.447577 1_545
Gd1 O19 2.563415 1_545
Gd1 O10 2.563415 1_555
Gd1 O1 2.723693 1_655
Gd1 O12 2.723693 1_645
Gd2 O27 2.218730 1_555
Gd2 O0 2.218730 1_555
Gd2 O16 2.497876 1_555
Gd2 O14 2.497876 1_555
Gd2 O4 2.582063 1_555
Gd2 O9 2.582063 1_555
Gd2 O13 2.591978 1_455
Gd2 O15 2.591978 1_455
Gd3 O3 2.218730 1_555
Gd3 O24 2.218730 1_555
Gd3 O21 2.497876 1_555
Gd3 O23 2.497876 1_555
Gd3 O19 2.582063 1_555
Gd3 O10 2.582063 1_555
Gd3 O7 2.591978 1_655
Gd3 O5 2.591978 1_655
Gd4 O24 2.222381 1_455
Gd4 O0 2.222381 1_554
Gd4 O25 2.509158 1_555
Gd4 O11 2.509158 1_454
Gd4 O15 2.554044 1_454
Gd4 O5 2.554044 1_555
Gd4 O1 2.611718 1_555
Gd4 O20 2.611718 1_454
Gd5 O3 2.222381 1_455
Gd5 O27 2.222381 1_555
Gd5 O18 2.509158 1_455
Gd5 O2 2.509158 1_555
Gd5 O7 2.554044 1_555
Gd5 O13 2.554044 1_455
Gd5 O12 2.611718 1_555
Gd5 O8 2.611718 1_455
O1 Ti2 1.938658 1_555
O1 Ti0 1.951728 1_555
O2 Sb0 1.987945 1_555
O2 Ti2 1.987957 1_565
O4 Ti0 1.992630 1_556
O4 Sb3 2.002231 1_556
O5 Ti0 1.987195 1_565
O5 Sb0 2.009340 1_555
O6 Sb1 1.982641 1_555
O6 Ti3 2.015976 1_555
O7 Ti1 1.987195 1_555
O7 Sb0 2.009340 1_555
O8 Ti3 1.938658 1_555
O8 Ti1 1.951728 1_655
O9 Ti1 1.992630 1_565
O9 Sb1 2.002231 1_565
O10 Ti1 1.992630 1_655
O10 Sb1 2.002231 1_555
O11 Sb2 1.987945 1_555
O11 Ti3 1.987957 1_565
O12 Ti2 1.938658 1_565
O12 Ti1 1.951728 1_565
O13 Ti1 1.987195 1_665
O13 Sb2 2.009340 1_555
O14 Sb2 2.018479 1_555
O14 Sb1 2.025048 1_565
O15 Ti0 1.987195 1_656
O15 Sb2 2.009340 1_555
O16 Sb2 2.018479 1_555
O16 Sb3 2.025048 1_556
O17 Sb3 1.982641 1_555
O17 Ti2 2.015976 1_555
O18 Sb2 1.987945 1_555
O18 Ti3 1.987957 1_555
O19 Ti0 1.992630 1_665
O19 Sb3 2.002231 1_565
O20 Ti3 1.938658 1_565
O20 Ti0 1.951728 1_666
O21 Sb0 2.018479 1_555
O21 Sb3 2.025048 1_565
O22 Sb3 1.982641 1_566
O22 Ti3 2.015976 1_565
O23 Sb0 2.018479 1_555
O23 Sb1 2.025048 1_555
O25 Sb0 1.987945 1_555
O25 Ti2 1.987957 1_555
O26 Sb1 1.982641 1_565
O26 Ti2 2.015976 1_565
