# generated using pymatgen
data_TbPS4
_symmetry_space_group_name_H-M   'P 1'
_cell_length_a   12.20132743
_cell_length_b   12.20131329
_cell_length_c   12.20145819
_cell_angle_alpha   127.78471681
_cell_angle_beta   127.78490445
_cell_angle_gamma   76.97347076
_symmetry_Int_Tables_number   1
_chemical_formula_structural   TbPS4
_chemical_formula_sum   'Tb8 P8 S32'
_cell_volume   1101.36166026
_cell_formula_units_Z   8
loop_
 _symmetry_equiv_pos_site_id
 _symmetry_equiv_pos_as_xyz
  1  'x, y, z'
loop_
 _atom_site_type_symbol
 _atom_site_label
 _atom_site_symmetry_multiplicity
 _atom_site_fract_x
 _atom_site_fract_y
 _atom_site_fract_z
 _atom_site_occupancy
  Tb  Tb0  1  0.49999738  0.50001047  0.00000734  1
  Tb  Tb1  1  0.25000245  0.74999056  0.49999308  1
  Tb  Tb2  1  0.75000842  0.25000154  0.50000878  1
  Tb  Tb3  1  0.99999155  0.99999926  0.99999154  1
  Tb  Tb4  1  0.24999453  0.25000540  -0.00000055  1
  Tb  Tb5  1  0.99999390  0.50000875  0.50000130  1
  Tb  Tb6  1  0.50000614  0.99999397  0.50000036  1
  Tb  Tb7  1  0.75000525  0.74999099  -0.00000248  1
  P  P0  1  0.62499436  0.91295783  0.78795779  1
  P  P1  1  0.62499836  0.41299253  0.28799243  1
  P  P2  1  0.16296318  0.37499375  0.28795604  1
  P  P3  1  0.08701013  0.87499747  0.71200953  1
  P  P4  1  0.12500622  0.33704024  0.71204089  1
  P  P5  1  0.12500068  0.83700923  0.21200963  1
  P  P6  1  0.58703695  0.87500547  0.21204313  1
  P  P7  1  0.66299134  0.37500281  0.78799275  1
  S  S0  1  0.98501066  0.71036650  0.45169750  1
  S  S1  1  0.25865809  0.53333876  0.54829167  1
  S  S2  1  0.28333636  0.23504577  0.77467782  1
  S  S3  1  0.46036387  0.50868640  0.22534748  1
  S  S4  1  0.99131146  0.03963759  0.77465231  1
  S  S5  1  0.26495892  0.21666545  0.22532465  1
  S  S6  1  0.78963429  0.51498820  0.54830305  1
  S  S7  1  0.96666196  0.24134295  0.45170687  1
  S  S8  1  0.77962890  0.96770907  0.31977327  1
  S  S9  1  0.71770717  0.89793648  0.68807809  1
  S  S10  1  0.20984729  0.02957775  0.31185444  1
  S  S11  1  0.47041985  0.29015269  0.68814520  1
  S  S12  1  0.60206160  0.78229612  0.31192291  1
  S  S13  1  0.04015716  0.85204000  0.31975830  1
  S  S14  1  0.53229202  0.72036919  0.68022882  1
  S  S15  1  0.64795949  0.45984552  0.68024261  1
  S  S16  1  0.97037182  0.28229195  0.18022701  1
  S  S17  1  0.03229517  0.35206490  0.81192159  1
  S  S18  1  0.54014940  0.22041519  0.18814201  1
  S  S19  1  0.27958022  0.95984566  0.81185664  1
  S  S20  1  0.14794041  0.46770354  0.18807849  1
  S  S21  1  0.70984565  0.39795910  0.18023774  1
  S  S22  1  0.21770789  0.52962725  0.81976889  1
  S  S23  1  0.10203890  0.79015683  0.81975524  1
  S  S24  1  0.49134143  0.71666159  0.95170795  1
  S  S25  1  0.46666001  0.01495584  0.72532108  1
  S  S26  1  0.28963297  0.74131497  0.27465017  1
  S  S27  1  0.75868807  0.21036331  0.72534778  1
  S  S28  1  0.48504092  0.03333596  0.27467630  1
  S  S29  1  0.96036871  0.73501258  0.95170200  1
  S  S30  1  0.78333973  0.00865817  0.04829591  1
  S  S31  1  0.76498877  0.53963445  0.04830266  1
loop_
_geom_bond_atom_site_label_1
_geom_bond_atom_site_label_2
_geom_bond_distance
_geom_bond_site_symmetry_2
P0 S14 2.029841 1_555
P0 S9 2.029921 1_555
P0 S25 2.034083 1_565
P0 S30 2.034175 1_566
P1 S18 2.029848 1_555
P1 S21 2.029967 1_555
P1 S6 2.033971 1_555
P1 S3 2.034067 1_555
P2 S20 2.029854 1_555
P2 S16 2.029867 1_455
P2 S5 2.034014 1_555
P2 S1 2.034169 1_555
P3 S19 2.029781 1_555
P3 S23 2.029817 1_555
P3 S0 2.033968 1_455
P3 S4 2.034143 1_465
P4 S22 2.029825 1_555
P4 S17 2.029896 1_555
P4 S2 2.034026 1_555
P4 S7 2.034148 1_455
P5 S10 2.029768 1_565
P5 S13 2.029874 1_555
P5 S29 2.033940 1_454
P5 S26 2.034046 1_555
P6 S12 2.029864 1_555
P6 S8 2.029878 1_555
P6 S28 2.034036 1_565
P6 S24 2.034163 1_554
P7 S11 2.029804 1_555
P7 S15 2.029872 1_555
P7 S31 2.033957 1_556
P7 S27 2.034128 1_555
S0 Tb5 2.911794 1_555
S0 Tb1 3.009277 1_655
S1 Tb5 2.911945 1_455
S1 Tb1 3.008822 1_555
S2 Tb4 2.911931 1_556
S2 Tb0 3.008943 1_556
S3 Tb4 2.912027 1_555
S3 Tb0 3.009027 1_555
S4 Tb4 2.912037 1_656
S4 Tb3 3.009027 1_545
S5 Tb4 2.911924 1_555
S5 Tb3 3.008989 1_444
S6 Tb5 2.911816 1_555
S6 Tb2 3.009228 1_555
S7 Tb5 2.911941 1_555
S7 Tb2 3.008867 1_555
S8 Tb2 2.821565 1_565
S8 Tb7 2.900807 1_555
S9 Tb3 2.821530 1_555
S9 Tb6 2.900599 1_555
S10 Tb3 2.821409 1_444
S10 Tb6 2.900738 1_545
S11 Tb0 2.821418 1_556
S11 Tb6 2.900751 1_545
S12 Tb0 2.821550 1_555
S12 Tb6 2.900575 1_555
S13 Tb1 2.821450 1_555
S13 Tb7 2.900743 1_455
S14 Tb1 2.821538 1_555
S14 Tb7 2.900743 1_556
S15 Tb2 2.821442 1_555
S15 Tb7 2.900691 1_556
S16 Tb3 2.821564 1_544
S16 Tb5 2.900802 1_555
S17 Tb2 2.821541 1_455
S17 Tb4 2.900611 1_556
S18 Tb2 2.821399 1_555
S18 Tb4 2.900725 1_555
S19 Tb1 2.821425 1_555
S19 Tb4 2.900755 1_566
S20 Tb1 2.821557 1_555
S20 Tb4 2.900574 1_555
S21 Tb0 2.821452 1_555
S21 Tb5 2.900732 1_555
S22 Tb0 2.821523 1_556
S22 Tb5 2.900755 1_455
S23 Tb3 2.821437 1_455
S23 Tb5 2.900704 1_455
S24 Tb7 2.911944 1_556
S24 Tb0 3.008820 1_556
S25 Tb6 2.911942 1_545
S25 Tb1 3.008930 1_545
S26 Tb6 2.912028 1_555
S26 Tb1 3.009036 1_555
S27 Tb6 2.912036 1_545
S27 Tb2 3.009026 1_555
S28 Tb6 2.911922 1_545
S28 Tb2 3.008988 1_555
S29 Tb7 2.911812 1_556
S29 Tb3 3.009251 1_555
S30 Tb7 2.911940 1_545
S30 Tb3 3.008866 1_544
S31 Tb7 2.911790 1_555
S31 Tb0 3.009274 1_555
