# generated using pymatgen
data_Mg(GaO2)2
_symmetry_space_group_name_H-M   'P 1'
_cell_length_a   5.90707686
_cell_length_b   5.90707688
_cell_length_c   5.90707663
_cell_angle_alpha   59.99999028
_cell_angle_beta   59.99999017
_cell_angle_gamma   59.99999356
_symmetry_Int_Tables_number   1
_chemical_formula_structural   Mg(GaO2)2
_chemical_formula_sum   'Mg2 Ga4 O8'
_cell_volume   145.74805481
_cell_formula_units_Z   2
loop_
 _symmetry_equiv_pos_site_id
 _symmetry_equiv_pos_as_xyz
  1  'x, y, z'
loop_
 _atom_site_type_symbol
 _atom_site_label
 _atom_site_symmetry_multiplicity
 _atom_site_fract_x
 _atom_site_fract_y
 _atom_site_fract_z
 _atom_site_occupancy
  Mg  Mg0  1  0.12500000  0.12500000  0.12500000  1
  Mg  Mg1  1  0.87500000  0.87500000  0.87500000  1
  Ga  Ga0  1  0.50000000  0.50000000  -0.00000000  1
  Ga  Ga1  1  0.50000000  0.50000000  0.50000000  1
  Ga  Ga2  1  0.00000000  0.50000000  0.50000000  1
  Ga  Ga3  1  0.50000000  0.00000000  0.50000000  1
  O  O0  1  0.73880431  0.73880431  0.73880431  1
  O  O1  1  0.26119569  0.26119569  0.71641193  1
  O  O2  1  0.26119569  0.71641193  0.26119569  1
  O  O3  1  0.71641193  0.26119569  0.26119569  1
  O  O4  1  0.73880431  0.28358807  0.73880431  1
  O  O5  1  0.28358807  0.73880431  0.73880431  1
  O  O6  1  0.26119569  0.26119569  0.26119569  1
  O  O7  1  0.73880431  0.73880431  0.28358807  1
loop_
_geom_bond_atom_site_label_1
_geom_bond_atom_site_label_2
_geom_bond_distance
_geom_bond_site_symmetry_2
Mg0 O6 1.970660 1_555
Mg0 O1 1.970664 1_554
Mg0 O3 1.970664 1_455
Mg0 O2 1.970664 1_545
Mg1 O0 1.970660 1_555
Mg1 O7 1.970664 1_556
Mg1 O5 1.970664 1_655
Mg1 O4 1.970664 1_565
Ga0 O4 1.999316 1_554
Ga0 O2 1.999316 1_555
Ga0 O5 1.999316 1_554
Ga0 O3 1.999316 1_555
Ga0 O0 1.999319 1_554
Ga0 O6 1.999319 1_555
Ga1 O7 1.999320 1_555
Ga1 O1 1.999320 1_555
Ga1 O4 1.999320 1_555
Ga1 O2 1.999320 1_555
Ga1 O5 1.999320 1_555
Ga1 O3 1.999320 1_555
Ga2 O4 1.999316 1_455
Ga2 O2 1.999316 1_555
Ga2 O7 1.999316 1_455
Ga2 O1 1.999316 1_555
Ga2 O0 1.999320 1_455
Ga2 O6 1.999320 1_555
Ga3 O5 1.999316 1_545
Ga3 O3 1.999316 1_555
Ga3 O7 1.999316 1_545
Ga3 O1 1.999316 1_555
Ga3 O6 1.999320 1_555
Ga3 O0 1.999320 1_545
