# generated using pymatgen
data_Nd(CoSi)2
_symmetry_space_group_name_H-M   'P 1'
_cell_length_a   3.91785377
_cell_length_b   3.91785382
_cell_length_c   5.70427846
_cell_angle_alpha   110.08499059
_cell_angle_beta   110.08498994
_cell_angle_gamma   90.00000142
_symmetry_Int_Tables_number   1
_chemical_formula_structural   Nd(CoSi)2
_chemical_formula_sum   'Nd1 Co2 Si2'
_cell_volume   76.53885457
_cell_formula_units_Z   1
loop_
 _symmetry_equiv_pos_site_id
 _symmetry_equiv_pos_as_xyz
  1  'x, y, z'
loop_
 _atom_site_type_symbol
 _atom_site_label
 _atom_site_symmetry_multiplicity
 _atom_site_fract_x
 _atom_site_fract_y
 _atom_site_fract_z
 _atom_site_occupancy
  Nd  Nd0  1  0.00000000  0.00000000  0.00000000  1
  Co  Co0  1  0.25000000  0.75000000  0.50000000  1
  Co  Co1  1  0.75000000  0.25000000  0.50000000  1
  Si  Si0  1  0.63489855  0.63489855  0.26979509  1
  Si  Si1  1  0.36510145  0.36510145  0.73020491  1
loop_
_geom_bond_atom_site_label_1
_geom_bond_atom_site_label_2
_geom_bond_distance
_geom_bond_site_symmetry_2
Nd0 Si0 3.079707 1_445
Nd0 Si1 3.079707 1_554
Nd0 Si0 3.079712 1_455
Nd0 Si1 3.079712 1_544
Nd0 Si1 3.079712 1_454
Nd0 Si0 3.079712 1_545
Nd0 Si1 3.079717 1_444
Nd0 Si0 3.079717 1_555
Co0 Si0 2.270469 1_455
Co0 Si1 2.270469 1_565
Co0 Si0 2.270476 1_555
Co0 Si1 2.270476 1_555
Co0 Nd0 3.170709 1_666
Co0 Nd0 3.170709 1_555
Co0 Nd0 3.170709 1_566
Co0 Nd0 3.170709 1_565
Co1 Si1 2.270469 1_655
Co1 Si0 2.270469 1_545
Co1 Si1 2.270476 1_555
Co1 Si0 2.270476 1_555
Co1 Nd0 3.170709 1_555
Co1 Nd0 3.170709 1_666
Co1 Nd0 3.170709 1_655
Co1 Nd0 3.170709 1_656
Si0 Si1 2.690603 1_554
