# generated using pymatgen
data_Sm(CoB)2
_symmetry_space_group_name_H-M   'P 1'
_cell_length_a   3.55527590
_cell_length_b   3.55527594
_cell_length_c   5.46819609
_cell_angle_alpha   108.97082025
_cell_angle_beta   108.97082379
_cell_angle_gamma   89.99999763
_symmetry_Int_Tables_number   1
_chemical_formula_structural   Sm(CoB)2
_chemical_formula_sum   'Sm1 Co2 B2'
_cell_volume   61.38035414
_cell_formula_units_Z   1
loop_
 _symmetry_equiv_pos_site_id
 _symmetry_equiv_pos_as_xyz
  1  'x, y, z'
loop_
 _atom_site_type_symbol
 _atom_site_label
 _atom_site_symmetry_multiplicity
 _atom_site_fract_x
 _atom_site_fract_y
 _atom_site_fract_z
 _atom_site_occupancy
  Sm  Sm0  1  0.00000000  -0.00000000  0.00000000  1
  Co  Co0  1  0.25000000  0.75000000  0.50000000  1
  Co  Co1  1  0.75000000  0.25000000  0.50000000  1
  B  B0  1  0.66080281  0.66080281  0.32160661  1
  B  B1  1  0.33919719  0.33919719  0.67839339  1
loop_
_geom_bond_atom_site_label_1
_geom_bond_atom_site_label_2
_geom_bond_distance
_geom_bond_site_symmetry_2
Co0 Sm0 3.009201 1_565
Co0 Sm0 3.009201 1_566
Co0 Sm0 3.009201 1_666
Co0 Sm0 3.009201 1_555
Co1 Sm0 3.009201 1_656
Co1 Sm0 3.009201 1_655
Co1 Sm0 3.009201 1_555
Co1 Sm0 3.009201 1_666
B0 Co1 1.977484 1_555
B0 Co0 1.977484 1_555
B0 Co0 1.977487 1_655
B0 Co1 1.977487 1_565
B0 Sm0 2.959561 1_555
B0 Sm0 2.959563 1_565
B0 Sm0 2.959563 1_655
B0 Sm0 2.959565 1_665
B1 Co0 1.977484 1_555
B1 Co1 1.977484 1_555
B1 Co1 1.977487 1_455
B1 Co0 1.977487 1_545
B1 Sm0 2.959561 1_666
B1 Sm0 2.959563 1_656
B1 Sm0 2.959563 1_566
B1 Sm0 2.959565 1_556
