# generated using pymatgen
data_ScCo3B2
_symmetry_space_group_name_H-M   'P 1'
_cell_length_a   9.73783202
_cell_length_b   9.73783464
_cell_length_c   5.86963142
_cell_angle_alpha   90.00000000
_cell_angle_beta   90.00000000
_cell_angle_gamma   120.00026487
_symmetry_Int_Tables_number   1
_chemical_formula_structural   ScCo3B2
_chemical_formula_sum   'Sc8 Co24 B16'
_cell_volume   482.01991027
_cell_formula_units_Z   8
loop_
 _symmetry_equiv_pos_site_id
 _symmetry_equiv_pos_as_xyz
  1  'x, y, z'
loop_
 _atom_site_type_symbol
 _atom_site_label
 _atom_site_symmetry_multiplicity
 _atom_site_fract_x
 _atom_site_fract_y
 _atom_site_fract_z
 _atom_site_occupancy
  Sc  Sc0_0  1  0.00000000  0.00000000  0.00000000  1
  Sc  Sc0_1  1  0.00000000  0.00000000  0.50000000  1
  Sc  Sc0_2  1  0.00000000  0.50000000  0.00000000  1
  Sc  Sc0_3  1  0.00000000  0.50000000  0.50000000  1
  Sc  Sc0_4  1  0.50000000  0.00000000  0.00000000  1
  Sc  Sc0_5  1  0.50000000  0.00000000  0.50000000  1
  Sc  Sc0_6  1  0.50000000  0.50000000  0.00000000  1
  Sc  Sc0_7  1  0.50000000  0.50000000  0.50000000  1
  Co  Co0_0  1  0.25000000  0.00000000  0.25000000  1
  Co  Co0_1  1  0.25000000  0.00000000  0.75000000  1
  Co  Co0_2  1  0.25000000  0.50000000  0.25000000  1
  Co  Co0_3  1  0.25000000  0.50000000  0.75000000  1
  Co  Co0_4  1  0.75000000  0.00000000  0.25000000  1
  Co  Co0_5  1  0.75000000  0.00000000  0.75000000  1
  Co  Co0_6  1  0.75000000  0.50000000  0.25000000  1
  Co  Co0_7  1  0.75000000  0.50000000  0.75000000  1
  Co  Co1_0  1  0.00000000  0.25000000  0.25000000  1
  Co  Co1_1  1  0.00000000  0.25000000  0.75000000  1
  Co  Co1_2  1  0.00000000  0.75000000  0.25000000  1
  Co  Co1_3  1  0.00000000  0.75000000  0.75000000  1
  Co  Co1_4  1  0.50000000  0.25000000  0.25000000  1
  Co  Co1_5  1  0.50000000  0.25000000  0.75000000  1
  Co  Co1_6  1  0.50000000  0.75000000  0.25000000  1
  Co  Co1_7  1  0.50000000  0.75000000  0.75000000  1
  Co  Co2_0  1  0.25000000  0.25000000  0.25000000  1
  Co  Co2_1  1  0.25000000  0.25000000  0.75000000  1
  Co  Co2_2  1  0.25000000  0.75000000  0.25000000  1
  Co  Co2_3  1  0.25000000  0.75000000  0.75000000  1
  Co  Co2_4  1  0.75000000  0.25000000  0.25000000  1
  Co  Co2_5  1  0.75000000  0.25000000  0.75000000  1
  Co  Co2_6  1  0.75000000  0.75000000  0.25000000  1
  Co  Co2_7  1  0.75000000  0.75000000  0.75000000  1
  B  B0_0  1  0.16666968  0.33333132  0.00000000  1
  B  B0_1  1  0.16666968  0.33333132  0.50000000  1
  B  B0_2  1  0.16666968  0.83333132  0.00000000  1
  B  B0_3  1  0.16666968  0.83333132  0.50000000  1
  B  B0_4  1  0.66666968  0.33333132  0.00000000  1
  B  B0_5  1  0.66666968  0.33333132  0.50000000  1
  B  B0_6  1  0.66666968  0.83333132  0.00000000  1
  B  B0_7  1  0.66666968  0.83333132  0.50000000  1
  B  B1_0  1  0.33333032  0.16666868  0.00000000  1
  B  B1_1  1  0.33333032  0.16666868  0.50000000  1
  B  B1_2  1  0.33333032  0.66666868  0.00000000  1
  B  B1_3  1  0.33333032  0.66666868  0.50000000  1
  B  B1_4  1  0.83333032  0.16666868  0.00000000  1
  B  B1_5  1  0.83333032  0.16666868  0.50000000  1
  B  B1_6  1  0.83333032  0.66666868  0.00000000  1
  B  B1_7  1  0.83333032  0.66666868  0.50000000  1
loop_
_geom_bond_atom_site_label_1
_geom_bond_atom_site_label_2
_geom_bond_distance
_geom_bond_site_symmetry_2
Sc0_0 Sc0_1 2.934816 1_554
Sc0_0 Sc0_1 2.934816 1_555
Sc0_2 Sc0_3 2.934816 1_554
Sc0_2 Sc0_3 2.934816 1_555
Sc0_4 Sc0_5 2.934816 1_555
Sc0_4 Sc0_5 2.934816 1_554
Sc0_6 Sc0_7 2.934816 1_554
Sc0_6 Sc0_7 2.934816 1_555
Co0_0 Sc0_0 2.842511 1_555
Co0_0 Sc0_4 2.842511 1_555
Co0_0 Sc0_1 2.842511 1_555
Co0_0 Sc0_5 2.842511 1_555
Co0_1 Sc0_0 2.842511 1_556
Co0_1 Sc0_1 2.842511 1_555
Co0_1 Sc0_4 2.842511 1_556
Co0_1 Sc0_5 2.842511 1_555
Co0_2 Sc0_6 2.842511 1_555
Co0_2 Sc0_3 2.842511 1_555
Co0_2 Sc0_7 2.842511 1_555
Co0_2 Sc0_2 2.842511 1_555
Co0_3 Sc0_3 2.842511 1_555
Co0_3 Sc0_2 2.842511 1_556
Co0_3 Sc0_7 2.842511 1_555
Co0_3 Sc0_6 2.842511 1_556
Co0_4 Sc0_5 2.842511 1_555
Co0_4 Sc0_4 2.842511 1_555
Co0_4 Sc0_0 2.842511 1_655
Co0_4 Sc0_1 2.842511 1_655
Co0_5 Sc0_5 2.842511 1_555
Co0_5 Sc0_4 2.842511 1_556
Co0_5 Sc0_0 2.842511 1_656
Co0_5 Sc0_1 2.842511 1_655
Co0_6 Sc0_2 2.842511 1_655
Co0_6 Sc0_3 2.842511 1_655
Co0_6 Sc0_7 2.842511 1_555
Co0_6 Sc0_6 2.842511 1_555
Co0_7 Sc0_3 2.842511 1_655
Co0_7 Sc0_6 2.842511 1_556
Co0_7 Sc0_7 2.842511 1_555
Co0_7 Sc0_2 2.842511 1_656
Co1_0 Sc0_2 2.842512 1_555
Co1_0 Sc0_1 2.842512 1_555
Co1_0 Sc0_3 2.842512 1_555
Co1_0 Sc0_0 2.842512 1_555
Co1_1 Sc0_1 2.842512 1_555
Co1_1 Sc0_3 2.842512 1_555
Co1_1 Sc0_2 2.842512 1_556
Co1_1 Sc0_0 2.842512 1_556
Co1_2 Sc0_2 2.842512 1_555
Co1_2 Sc0_3 2.842512 1_555
Co1_2 Sc0_0 2.842512 1_565
Co1_2 Sc0_1 2.842512 1_565
Co1_3 Sc0_3 2.842512 1_555
Co1_3 Sc0_0 2.842512 1_566
Co1_3 Sc0_2 2.842512 1_556
Co1_3 Sc0_1 2.842512 1_565
Co1_4 Sc0_5 2.842512 1_555
Co1_4 Sc0_7 2.842512 1_555
Co1_4 Sc0_6 2.842512 1_555
Co1_4 Sc0_4 2.842512 1_555
Co1_5 Sc0_4 2.842512 1_556
Co1_5 Sc0_5 2.842512 1_555
Co1_5 Sc0_7 2.842512 1_555
Co1_5 Sc0_6 2.842512 1_556
Co1_6 Sc0_7 2.842512 1_555
Co1_6 Sc0_6 2.842512 1_555
Co1_6 Sc0_4 2.842512 1_565
Co1_6 Sc0_5 2.842512 1_565
Co1_7 Sc0_7 2.842512 1_555
Co1_7 Sc0_6 2.842512 1_556
Co1_7 Sc0_4 2.842512 1_566
Co1_7 Sc0_5 2.842512 1_565
Co2_0 Sc0_0 2.842503 1_555
Co2_0 Sc0_6 2.842503 1_555
Co2_0 Sc0_1 2.842503 1_555
Co2_0 Sc0_7 2.842503 1_555
Co2_1 Sc0_0 2.842503 1_556
Co2_1 Sc0_6 2.842503 1_556
Co2_1 Sc0_1 2.842503 1_555
Co2_1 Sc0_7 2.842503 1_555
Co2_2 Sc0_2 2.842503 1_555
Co2_2 Sc0_3 2.842503 1_555
Co2_2 Sc0_4 2.842503 1_565
Co2_2 Sc0_5 2.842503 1_565
Co2_3 Sc0_3 2.842503 1_555
Co2_3 Sc0_2 2.842503 1_556
Co2_3 Sc0_4 2.842503 1_566
Co2_3 Sc0_5 2.842503 1_565
Co2_4 Sc0_4 2.842503 1_555
Co2_4 Sc0_5 2.842503 1_555
Co2_4 Sc0_2 2.842503 1_655
Co2_4 Sc0_3 2.842503 1_655
Co2_5 Sc0_4 2.842503 1_556
Co2_5 Sc0_5 2.842503 1_555
Co2_5 Sc0_2 2.842503 1_656
Co2_5 Sc0_3 2.842503 1_655
Co2_6 Sc0_6 2.842503 1_555
Co2_6 Sc0_1 2.842503 1_665
Co2_6 Sc0_0 2.842503 1_665
Co2_6 Sc0_7 2.842503 1_555
Co2_7 Sc0_1 2.842503 1_665
Co2_7 Sc0_6 2.842503 1_556
Co2_7 Sc0_7 2.842503 1_555
Co2_7 Sc0_0 2.842503 1_666
B0_0 Co2_1 2.031921 1_554
B0_0 Co2_0 2.031921 1_555
B0_0 Co0_2 2.031958 1_555
B0_0 Co0_3 2.031958 1_554
B0_0 Co1_0 2.031963 1_555
B0_0 Co1_1 2.031963 1_554
B0_0 Sc0_6 2.811037 1_555
B0_0 Sc0_0 2.811046 1_555
B0_0 Sc0_2 2.811116 1_555
B0_1 Co2_0 2.031921 1_555
B0_1 Co2_1 2.031921 1_555
B0_1 Co0_2 2.031958 1_555
B0_1 Co0_3 2.031958 1_555
B0_1 Co1_0 2.031963 1_555
B0_1 Co1_1 2.031963 1_555
B0_1 Sc0_7 2.811037 1_555
B0_1 Sc0_1 2.811046 1_555
B0_1 Sc0_3 2.811116 1_555
B0_2 Co2_2 2.031921 1_555
B0_2 Co2_3 2.031921 1_554
B0_2 Co0_1 2.031958 1_564
B0_2 Co0_0 2.031958 1_565
B0_2 Co1_3 2.031963 1_554
B0_2 Co1_2 2.031963 1_555
B0_2 Sc0_4 2.811037 1_565
B0_2 Sc0_2 2.811046 1_555
B0_2 Sc0_0 2.811116 1_565
B0_3 Co2_2 2.031921 1_555
B0_3 Co2_3 2.031921 1_555
B0_3 Co0_1 2.031958 1_565
B0_3 Co0_0 2.031958 1_565
B0_3 Co1_3 2.031963 1_555
B0_3 Co1_2 2.031963 1_555
B0_3 Sc0_5 2.811037 1_565
B0_3 Sc0_3 2.811046 1_555
B0_3 Sc0_1 2.811116 1_565
B0_4 Co2_5 2.031921 1_554
B0_4 Co2_4 2.031921 1_555
B0_4 Co0_6 2.031958 1_555
B0_4 Co0_7 2.031958 1_554
B0_4 Co1_4 2.031963 1_555
B0_4 Co1_5 2.031963 1_554
B0_4 Sc0_2 2.811037 1_655
B0_4 Sc0_4 2.811046 1_555
B0_4 Sc0_6 2.811116 1_555
B0_5 Co2_5 2.031921 1_555
B0_5 Co2_4 2.031921 1_555
B0_5 Co0_6 2.031958 1_555
B0_5 Co0_7 2.031958 1_555
B0_5 Co1_4 2.031963 1_555
B0_5 Co1_5 2.031963 1_555
B0_5 Sc0_3 2.811037 1_655
B0_5 Sc0_5 2.811046 1_555
B0_5 Sc0_7 2.811116 1_555
B0_6 Co2_6 2.031921 1_555
B0_6 Co2_7 2.031921 1_554
B0_6 Co0_4 2.031958 1_565
B0_6 Co0_5 2.031958 1_564
B0_6 Co1_7 2.031963 1_554
B0_6 Co1_6 2.031963 1_555
B0_6 Sc0_0 2.811037 1_665
B0_6 Sc0_6 2.811046 1_555
B0_6 Sc0_4 2.811116 1_565
B0_7 Co2_6 2.031921 1_555
B0_7 Co2_7 2.031921 1_555
B0_7 Co0_5 2.031958 1_565
B0_7 Co0_4 2.031958 1_565
B0_7 Co1_7 2.031963 1_555
B0_7 Co1_6 2.031963 1_555
B0_7 Sc0_1 2.811037 1_665
B0_7 Sc0_7 2.811046 1_555
B0_7 Sc0_5 2.811116 1_565
B1_0 Co2_1 2.031921 1_554
B1_0 Co2_0 2.031921 1_555
B1_0 Co0_0 2.031958 1_555
B1_0 Co0_1 2.031958 1_554
B1_0 Co1_4 2.031963 1_555
B1_0 Co1_5 2.031963 1_554
B1_0 Sc0_0 2.811037 1_555
B1_0 Sc0_6 2.811046 1_555
B1_0 Sc0_4 2.811116 1_555
B1_1 Co2_1 2.031921 1_555
B1_1 Co2_0 2.031921 1_555
B1_1 Co0_0 2.031958 1_555
B1_1 Co0_1 2.031958 1_555
B1_1 Co1_4 2.031963 1_555
B1_1 Co1_5 2.031963 1_555
B1_1 Sc0_1 2.811037 1_555
B1_1 Sc0_7 2.811046 1_555
B1_1 Sc0_5 2.811116 1_555
B1_2 Co2_2 2.031921 1_555
B1_2 Co2_3 2.031921 1_554
B1_2 Co0_2 2.031958 1_555
B1_2 Co0_3 2.031958 1_554
B1_2 Co1_7 2.031963 1_554
B1_2 Co1_6 2.031963 1_555
B1_2 Sc0_2 2.811037 1_555
B1_2 Sc0_4 2.811046 1_565
B1_2 Sc0_6 2.811116 1_555
B1_3 Co2_2 2.031921 1_555
B1_3 Co2_3 2.031921 1_555
B1_3 Co0_2 2.031958 1_555
B1_3 Co0_3 2.031958 1_555
B1_3 Co1_7 2.031963 1_555
B1_3 Co1_6 2.031963 1_555
B1_3 Sc0_3 2.811037 1_555
B1_3 Sc0_5 2.811046 1_565
B1_3 Sc0_7 2.811116 1_555
B1_4 Co2_5 2.031921 1_554
B1_4 Co2_4 2.031921 1_555
B1_4 Co0_5 2.031958 1_554
B1_4 Co0_4 2.031958 1_555
B1_4 Co1_0 2.031963 1_655
B1_4 Co1_1 2.031963 1_654
B1_4 Sc0_4 2.811037 1_555
B1_4 Sc0_2 2.811046 1_655
B1_4 Sc0_0 2.811116 1_655
B1_5 Co2_4 2.031921 1_555
B1_5 Co2_5 2.031921 1_555
B1_5 Co0_5 2.031958 1_555
B1_5 Co0_4 2.031958 1_555
B1_5 Co1_0 2.031963 1_655
B1_5 Co1_1 2.031963 1_655
B1_5 Sc0_5 2.811037 1_555
B1_5 Sc0_3 2.811046 1_655
B1_5 Sc0_1 2.811116 1_655
B1_6 Co2_6 2.031921 1_555
B1_6 Co2_7 2.031921 1_554
B1_6 Co0_6 2.031958 1_555
B1_6 Co0_7 2.031958 1_554
B1_6 Co1_3 2.031963 1_654
B1_6 Co1_2 2.031963 1_655
B1_6 Sc0_6 2.811037 1_555
B1_6 Sc0_0 2.811046 1_665
B1_6 Sc0_2 2.811116 1_655
B1_7 Co2_7 2.031921 1_555
B1_7 Co2_6 2.031921 1_555
B1_7 Co0_6 2.031958 1_555
B1_7 Co0_7 2.031958 1_555
B1_7 Co1_3 2.031963 1_655
B1_7 Co1_2 2.031963 1_655
B1_7 Sc0_7 2.811037 1_555
B1_7 Sc0_1 2.811046 1_665
B1_7 Sc0_3 2.811116 1_655
