# generated using pymatgen
data_Yb(SiPd)2
_symmetry_space_group_name_H-M   'P 1'
_cell_length_a   5.74672953
_cell_length_b   5.74672953
_cell_length_c   5.74672953
_cell_angle_alpha   136.87490747
_cell_angle_beta   136.87490747
_cell_angle_gamma   62.63057583
_symmetry_Int_Tables_number   1
_chemical_formula_structural   Yb(SiPd)2
_chemical_formula_sum   'Yb1 Si2 Pd2'
_cell_volume   87.59857774
_cell_formula_units_Z   1
loop_
 _symmetry_equiv_pos_site_id
 _symmetry_equiv_pos_as_xyz
  1  'x, y, z'
loop_
 _atom_site_type_symbol
 _atom_site_label
 _atom_site_symmetry_multiplicity
 _atom_site_fract_x
 _atom_site_fract_y
 _atom_site_fract_z
 _atom_site_occupancy
  Yb  Yb0  1  0.00000000  0.00000000  0.00000000  1
  Si  Si0  1  0.62017500  0.62017500  0.00000000  1
  Si  Si1  1  0.37982500  0.37982500  0.00000000  1
  Pd  Pd0  1  0.25000000  0.75000000  0.50000000  1
  Pd  Pd1  1  0.75000000  0.25000000  0.50000000  1
loop_
_geom_bond_atom_site_label_1
_geom_bond_atom_site_label_2
_geom_bond_distance
_geom_bond_site_symmetry_2
Si0 Si1 2.360019 1_555
Si0 Yb0 3.211490 1_554
Si0 Yb0 3.211490 1_655
Si0 Yb0 3.211490 1_666
Si0 Yb0 3.211490 1_565
Si1 Yb0 3.211490 1_554
Si1 Yb0 3.211490 1_666
Si1 Yb0 3.211490 1_655
Si1 Yb0 3.211490 1_565
Pd0 Si0 2.466910 1_556
Pd0 Si1 2.466910 1_555
Pd0 Si0 2.466910 1_455
Pd0 Si1 2.466910 1_566
Pd0 Yb0 3.238292 1_555
Pd0 Yb0 3.238292 1_566
Pd0 Yb0 3.238292 1_666
Pd0 Yb0 3.238292 1_565
Pd1 Si0 2.466910 1_545
Pd1 Si0 2.466910 1_556
Pd1 Si1 2.466910 1_656
Pd1 Si1 2.466910 1_555
Pd1 Yb0 3.238292 1_555
Pd1 Yb0 3.238292 1_666
Pd1 Yb0 3.238292 1_655
Pd1 Yb0 3.238292 1_656
