# generated using pymatgen
data_Na3Al3Si3AgBrO12
_symmetry_space_group_name_H-M   'P 1'
_cell_length_a   9.03960992
_cell_length_b   9.03960992
_cell_length_c   9.04404820
_cell_angle_alpha   89.99153222
_cell_angle_beta   89.99153222
_cell_angle_gamma   90.04395805
_symmetry_Int_Tables_number   1
_chemical_formula_structural   Na3Al3Si3AgBrO12
_chemical_formula_sum   'Na6 Al6 Si6 Ag2 Br2 O24'
_cell_volume   739.03007165
_cell_formula_units_Z   2
loop_
 _symmetry_equiv_pos_site_id
 _symmetry_equiv_pos_as_xyz
  1  'x, y, z'
loop_
 _atom_site_type_symbol
 _atom_site_label
 _atom_site_symmetry_multiplicity
 _atom_site_fract_x
 _atom_site_fract_y
 _atom_site_fract_z
 _atom_site_occupancy
  Na  Na0  1  0.81211000  0.30967800  0.19057000  1
  Na  Na1  1  0.68887200  0.19042200  0.68945700  1
  Na  Na2  1  0.30967800  0.81211000  0.69057000  1
  Na  Na3  1  0.68942400  0.80969700  0.30968400  1
  Na  Na4  1  0.19042200  0.68887200  0.18945700  1
  Na  Na5  1  0.80969700  0.68942400  0.80968400  1
  Al  Al0  1  0.49853500  0.49967300  0.74971600  1
  Al  Al1  1  0.00181500  0.24995200  0.50113600  1
  Al  Al2  1  0.75002200  0.99994500  0.00007600  1
  Al  Al3  1  0.24995200  0.00181500  0.00113600  1
  Al  Al4  1  0.99994500  0.75002100  0.50007600  1
  Al  Al5  1  0.49967300  0.49853500  0.24971600  1
  Si  Si0  1  0.25003300  0.50054700  0.50056300  1
  Si  Si1  1  0.50054700  0.25003300  0.00056300  1
  Si  Si2  1  0.00006800  0.99984400  0.24968100  1
  Si  Si3  1  0.99984400  0.00006800  0.74968100  1
  Si  Si4  1  0.49952700  0.74998000  0.00035200  1
  Si  Si5  1  0.74998000  0.49952700  0.50035200  1
  Ag  Ag0  1  0.16499300  0.33506200  0.83593400  1
  Ag  Ag1  1  0.33506200  0.16499300  0.33593400  1
  Br  Br0  1  0.99703000  0.50286300  0.00115700  1
  Br  Br1  1  0.50286300  0.99703000  0.50115700  1
  O  O0  1  0.34810900  0.44307100  0.35881000  1
  O  O1  1  0.65079000  0.44355300  0.64164000  1
  O  O2  1  0.14955700  0.36195600  0.56050000  1
  O  O3  1  0.85032000  0.35925100  0.44446300  1
  O  O4  1  0.44307100  0.34810900  0.85881000  1
  O  O5  1  0.56068200  0.35202000  0.13772900  1
  O  O6  1  0.36195600  0.14955700  0.06050000  1
  O  O7  1  0.64090600  0.15034000  0.94279400  1
  O  O8  1  0.05662300  0.14108200  0.34885100  1
  O  O9  1  0.94087400  0.13777700  0.64808100  1
  O  O10  1  0.14108200  0.05662300  0.84885100  1
  O  O11  1  0.85820100  0.05655900  0.15156700  1
  O  O12  1  0.13777700  0.94087400  0.14808100  1
  O  O13  1  0.85932700  0.94315900  0.84961600  1
  O  O14  1  0.05655900  0.85820100  0.65156700  1
  O  O15  1  0.94315900  0.85932700  0.34961600  1
  O  O16  1  0.35925100  0.85032000  0.94446300  1
  O  O17  1  0.64147200  0.84839700  0.05620700  1
  O  O18  1  0.44355300  0.65079000  0.14164000  1
  O  O19  1  0.55531100  0.65040000  0.85938400  1
  O  O20  1  0.15034000  0.64090600  0.44279400  1
  O  O21  1  0.84839700  0.64147200  0.55620700  1
  O  O22  1  0.35202000  0.56068200  0.63772900  1
  O  O23  1  0.65040000  0.55531100  0.35938400  1
loop_
_geom_bond_atom_site_label_1
_geom_bond_atom_site_label_2
_geom_bond_distance
_geom_bond_site_symmetry_2
Na0 O11 2.352672 1_555
Na0 O5 2.354179 1_555
Na0 O3 2.364962 1_555
Na1 O1 2.354224 1_555
Na1 O9 2.357382 1_555
Na1 O7 2.359675 1_555
Na2 O14 2.352672 1_555
Na2 O22 2.354179 1_555
Na2 O16 2.364962 1_555
Na3 O17 2.359223 1_555
Na3 O15 2.364596 1_555
Na3 O23 2.369138 1_555
Na4 O18 2.354224 1_555
Na4 O12 2.357382 1_555
Na4 O20 2.359675 1_555
Na5 O21 2.359223 1_555
Na5 O13 2.364596 1_555
Na5 O19 2.369138 1_555
Al0 O22 1.756541 1_555
Al0 O4 1.760788 1_555
Al0 O19 1.761556 1_555
Al0 O1 1.762909 1_555
Al1 O2 1.759344 1_555
Al1 O9 1.759663 1_455
Al1 O8 1.764037 1_555
Al1 O3 1.765344 1_455
Al2 O7 1.758289 1_564
Al2 O13 1.758428 1_554
Al2 O17 1.759223 1_555
Al2 O11 1.759311 1_565
Al3 O6 1.759344 1_555
Al3 O12 1.759663 1_545
Al3 O10 1.764037 1_554
Al3 O16 1.765344 1_544
Al4 O20 1.758284 1_655
Al4 O15 1.758433 1_555
Al4 O21 1.759218 1_555
Al4 O14 1.759316 1_655
Al5 O5 1.756541 1_555
Al5 O0 1.760788 1_555
Al5 O23 1.761556 1_555
Al5 O18 1.762909 1_555
Ag0 O2 2.506755 1_555
Ag0 O4 2.524914 1_555
Ag0 O10 2.528760 1_555
Ag0 Br0 2.615830 1_456
Ag1 O6 2.506755 1_555
Ag1 O0 2.524914 1_555
Ag1 O8 2.528760 1_555
Ag1 Br1 2.615830 1_545
Br0 Na5 2.952097 1_554
Br0 Na0 2.961799 1_555
Br0 Na4 2.963248 1_655
Br1 Na3 2.952097 1_555
Br1 Na2 2.961799 1_555
Br1 Na1 2.963248 1_565
O0 Si0 1.643196 1_555
O1 Si5 1.640600 1_555
O2 Si0 1.638970 1_555
O3 Si5 1.639497 1_555
O4 Si1 1.643196 1_556
O5 Si1 1.638334 1_555
O6 Si1 1.638970 1_555
O7 Si1 1.642143 1_556
O8 Si2 1.641742 1_545
O9 Si3 1.636744 1_555
O10 Si3 1.641742 1_455
O11 Si2 1.641964 1_645
O12 Si2 1.636744 1_555
O13 Si3 1.641190 1_565
O14 Si3 1.641964 1_465
O15 Si2 1.641190 1_655
O16 Si4 1.639497 1_556
O17 Si4 1.640625 1_555
O18 Si4 1.640600 1_555
O19 Si4 1.640381 1_556
O20 Si0 1.642143 1_555
O21 Si5 1.640625 1_555
O22 Si0 1.638334 1_555
O23 Si5 1.640381 1_555
