# generated using pymatgen
data_Ca3Ti2O7
_symmetry_space_group_name_H-M   'P 1'
_cell_length_a   10.09155603
_cell_length_b   10.09155603
_cell_length_c   5.45650973
_cell_angle_alpha   90.00000000
_cell_angle_beta   90.00000000
_cell_angle_gamma   148.86990602
_symmetry_Int_Tables_number   1
_chemical_formula_structural   Ca3Ti2O7
_chemical_formula_sum   'Ca6 Ti4 O14'
_cell_volume   287.28137441
_cell_formula_units_Z   2
loop_
 _symmetry_equiv_pos_site_id
 _symmetry_equiv_pos_as_xyz
  1  'x, y, z'
loop_
 _atom_site_type_symbol
 _atom_site_label
 _atom_site_symmetry_multiplicity
 _atom_site_fract_x
 _atom_site_fract_y
 _atom_site_fract_z
 _atom_site_occupancy
  Ca  Ca0  1  0.25419545  0.25419545  0.96158646  1
  Ca  Ca1  1  0.74580455  0.74580455  0.46158646  1
  Ca  Ca2  1  0.55421583  0.92918255  0.53712284  1
  Ca  Ca3  1  0.44578417  0.07081745  0.03712284  1
  Ca  Ca4  1  0.92918255  0.55421583  0.53712284  1
  Ca  Ca5  1  0.07081745  0.44578417  0.03712284  1
  Ti  Ti0  1  0.15031049  0.34935499  0.50408512  1
  Ti  Ti1  1  0.84968951  0.65064501  0.00408512  1
  Ti  Ti2  1  0.65064501  0.84968951  0.00408512  1
  Ti  Ti3  1  0.34935499  0.15031049  0.50408512  1
  O  O0  1  0.15099643  0.92724527  0.78647631  1
  O  O1  1  0.84900357  0.07275473  0.28647631  1
  O  O2  1  0.07275473  0.84900357  0.28647631  1
  O  O3  1  0.92724527  0.15099643  0.78647631  1
  O  O4  1  0.62286290  0.45426543  0.70838863  1
  O  O5  1  0.37713710  0.54573457  0.20838863  1
  O  O6  1  0.54573457  0.37713710  0.20838863  1
  O  O7  1  0.45426543  0.62286290  0.70838863  1
  O  O8  1  0.88457906  0.48941066  0.98009400  1
  O  O9  1  0.11542094  0.51058934  0.48009400  1
  O  O10  1  0.82109644  0.82109644  0.01447874  1
  O  O11  1  0.17890356  0.17890356  0.51447874  1
  O  O12  1  0.48941066  0.88457906  0.98009400  1
  O  O13  1  0.51058934  0.11542094  0.48009400  1
loop_
_geom_bond_atom_site_label_1
_geom_bond_atom_site_label_2
_geom_bond_distance
_geom_bond_site_symmetry_2
Ca0 O10 2.363257 1_446
Ca0 O6 2.399921 1_556
Ca0 O5 2.399921 1_556
Ca0 O11 2.473490 1_555
Ca0 O4 2.639500 1_555
Ca0 O7 2.639500 1_555
Ca0 O0 2.645970 1_545
Ca0 O3 2.645970 1_455
Ca1 O11 2.363257 1_665
Ca1 O7 2.399921 1_555
Ca1 O4 2.399921 1_555
Ca1 O10 2.473490 1_555
Ca1 O5 2.639500 1_555
Ca1 O6 2.639500 1_555
Ca1 O2 2.645970 1_655
Ca1 O1 2.645970 1_565
Ca2 O13 2.288996 1_565
Ca2 O1 2.332494 1_565
Ca2 O9 2.350691 1_555
Ca2 O12 2.443072 1_555
Ca2 O7 2.471537 1_555
Ca2 O3 2.570373 1_565
Ca3 O12 2.288996 1_544
Ca3 O0 2.332494 1_544
Ca3 O8 2.350691 1_554
Ca3 O13 2.443072 1_555
Ca3 O6 2.471537 1_555
Ca3 O2 2.570373 1_545
Ca4 O9 2.288996 1_655
Ca4 O2 2.332494 1_655
Ca4 O13 2.350691 1_555
Ca4 O8 2.443072 1_555
Ca4 O4 2.471537 1_555
Ca4 O0 2.570373 1_655
Ca5 O8 2.288996 1_454
Ca5 O3 2.332494 1_454
Ca5 O12 2.350691 1_554
Ca5 O9 2.443072 1_555
Ca5 O5 2.471537 1_555
Ca5 O1 2.570373 1_455
O0 Ti3 1.932417 1_565
O0 Ti1 1.979018 1_456
O1 Ti2 1.932417 1_545
O1 Ti0 1.979018 1_655
O2 Ti1 1.932417 1_455
O2 Ti3 1.979018 1_565
O3 Ti0 1.932417 1_655
O3 Ti2 1.979018 1_546
O4 Ti3 1.943072 1_555
O4 Ti1 2.001051 1_556
O5 Ti2 1.943072 1_555
O5 Ti0 2.001051 1_555
O6 Ti1 1.943072 1_555
O6 Ti3 2.001051 1_555
O7 Ti0 1.943072 1_555
O7 Ti2 2.001051 1_556
O8 Ti1 1.941483 1_556
O9 Ti0 1.941483 1_555
O10 Ti1 1.973580 1_555
O10 Ti2 1.973580 1_555
O11 Ti0 1.973580 1_555
O11 Ti3 1.973580 1_555
O12 Ti2 1.941483 1_556
O13 Ti3 1.941483 1_555
