# generated using pymatgen
data_KPF6
_symmetry_space_group_name_H-M   'P 1'
_cell_length_a   4.72322052
_cell_length_b   4.72322086
_cell_length_c   4.72322053
_cell_angle_alpha   97.80054179
_cell_angle_beta   97.80054704
_cell_angle_gamma   97.80052257
_symmetry_Int_Tables_number   1
_chemical_formula_structural   KPF6
_chemical_formula_sum   'K1 P1 F6'
_cell_volume   102.14511390
_cell_formula_units_Z   1
loop_
 _symmetry_equiv_pos_site_id
 _symmetry_equiv_pos_as_xyz
  1  'x, y, z'
loop_
 _atom_site_type_symbol
 _atom_site_label
 _atom_site_symmetry_multiplicity
 _atom_site_fract_x
 _atom_site_fract_y
 _atom_site_fract_z
 _atom_site_occupancy
  K  K0  1  0.50000000  0.50000000  0.50000000  1
  P  P0  1  0.00000000  0.00000000  0.00000000  1
  F  F0  1  0.78187259  0.07719052  0.73649148  1
  F  F1  1  0.07719052  0.73649148  0.78187259  1
  F  F2  1  0.26350852  0.21812741  0.92280948  1
  F  F3  1  0.92280948  0.26350852  0.21812741  1
  F  F4  1  0.21812741  0.92280948  0.26350852  1
  F  F5  1  0.73649148  0.78187259  0.07719052  1
loop_
_geom_bond_atom_site_label_1
_geom_bond_atom_site_label_2
_geom_bond_distance
_geom_bond_site_symmetry_2
F0 P0 1.618791 1_656
F0 K0 2.816349 1_555
F0 K0 2.869985 1_545
F1 P0 1.618791 1_566
F1 K0 2.816349 1_555
F1 K0 2.869985 1_455
F2 P0 1.618791 1_556
F2 K0 2.816350 1_555
F2 K0 2.869985 1_556
F3 P0 1.618791 1_655
F3 K0 2.816349 1_555
F3 K0 2.869985 1_655
F4 P0 1.618791 1_565
F4 K0 2.816349 1_555
F4 K0 2.869985 1_565
F5 P0 1.618791 1_665
F5 K0 2.816350 1_555
F5 K0 2.869985 1_554
