# generated using pymatgen
data_NaGdTiNbO6F
_symmetry_space_group_name_H-M   'P 1'
_cell_length_a   7.35546300
_cell_length_b   7.35546300
_cell_length_c   10.41017100
_cell_angle_alpha   90.00000000
_cell_angle_beta   90.00000000
_cell_angle_gamma   90.00000000
_symmetry_Int_Tables_number   1
_chemical_formula_structural   NaGdTiNbO6F
_chemical_formula_sum   'Na4 Gd4 Ti4 Nb4 O24 F4'
_cell_volume   563.21977377
_cell_formula_units_Z   4
loop_
 _symmetry_equiv_pos_site_id
 _symmetry_equiv_pos_as_xyz
  1  'x, y, z'
loop_
 _atom_site_type_symbol
 _atom_site_label
 _atom_site_symmetry_multiplicity
 _atom_site_fract_x
 _atom_site_fract_y
 _atom_site_fract_z
 _atom_site_occupancy
  Na  Na0  1  0.76936500  0.00000000  0.25000000  1
  Na  Na1  1  0.00000000  0.76936500  0.00000000  1
  Na  Na2  1  0.00000000  0.23063500  0.50000000  1
  Na  Na3  1  0.23063500  0.00000000  0.75000000  1
  Gd  Gd0  1  0.50000000  0.78358100  0.00000000  1
  Gd  Gd1  1  0.21641900  0.50000000  0.75000000  1
  Gd  Gd2  1  0.50000000  0.21641900  0.50000000  1
  Gd  Gd3  1  0.78358100  0.50000000  0.25000000  1
  Ti  Ti0  1  0.50000000  0.26711200  0.00000000  1
  Ti  Ti1  1  0.50000000  0.73288800  0.50000000  1
  Ti  Ti2  1  0.26711200  0.50000000  0.25000000  1
  Ti  Ti3  1  0.73288800  0.50000000  0.75000000  1
  Nb  Nb0  1  0.74029500  0.00000000  0.75000000  1
  Nb  Nb1  1  0.00000000  0.74029500  0.50000000  1
  Nb  Nb2  1  0.00000000  0.25970500  0.00000000  1
  Nb  Nb3  1  0.25970500  0.00000000  0.25000000  1
  O  O0  1  0.06419200  0.93580800  0.37500000  1
  O  O1  1  0.25096900  0.72329500  0.57401900  1
  O  O2  1  0.45189100  0.94683500  0.38295100  1
  O  O3  1  0.54810900  0.05316500  0.88295100  1
  O  O4  1  0.54506000  0.45494000  0.87500000  1
  O  O5  1  0.54810900  0.94683500  0.61704900  1
  O  O6  1  0.74903100  0.27670500  0.07401900  1
  O  O7  1  0.72329500  0.74903100  0.82401900  1
  O  O8  1  0.74903100  0.72329500  0.42598100  1
  O  O9  1  0.72329500  0.25096900  0.67598100  1
  O  O10  1  0.93580800  0.93580800  0.62500000  1
  O  O11  1  0.93580800  0.06419200  0.87500000  1
  O  O12  1  0.94683500  0.45189100  0.86704900  1
  O  O13  1  0.05316500  0.45189100  0.13295100  1
  O  O14  1  0.05316500  0.54810900  0.36704900  1
  O  O15  1  0.06419200  0.06419200  0.12500000  1
  O  O16  1  0.25096900  0.27670500  0.92598100  1
  O  O17  1  0.27670500  0.25096900  0.32401900  1
  O  O18  1  0.27670500  0.74903100  0.17598100  1
  O  O19  1  0.45189100  0.05316500  0.11704900  1
  O  O20  1  0.45494000  0.54506000  0.37500000  1
  O  O21  1  0.45494000  0.45494000  0.12500000  1
  O  O22  1  0.54506000  0.54506000  0.62500000  1
  O  O23  1  0.94683500  0.54810900  0.63295100  1
  F  F0  1  0.75274600  0.75274600  0.12500000  1
  F  F1  1  0.24725400  0.24725400  0.62500000  1
  F  F2  1  0.75274600  0.24725400  0.37500000  1
  F  F3  1  0.24725400  0.75274600  0.87500000  1
loop_
_geom_bond_atom_site_label_1
_geom_bond_atom_site_label_2
_geom_bond_distance
_geom_bond_site_symmetry_2
Na0 O15 2.572746 1_655
Na0 O0 2.572746 1_645
Na0 O6 2.742441 1_555
Na0 O8 2.742441 1_545
Na0 O19 2.742537 1_555
Na0 O2 2.742537 1_545
Na1 O15 2.572746 1_565
Na1 O11 2.572746 1_464
Na1 O18 2.742441 1_555
Na1 O7 2.742441 1_454
Na1 O13 2.742537 1_555
Na1 O12 2.742537 1_454
Na2 O0 2.572746 1_545
Na2 O10 2.572746 1_445
Na2 O9 2.742441 1_455
Na2 O17 2.742441 1_555
Na2 O23 2.742537 1_455
Na2 O14 2.742537 1_555
Na3 O11 2.572746 1_455
Na3 O10 2.572746 1_445
Na3 O16 2.742441 1_555
Na3 O1 2.742441 1_545
Na3 O3 2.742537 1_555
Na3 O5 2.742537 1_545
Gd0 O19 2.354127 1_565
Gd0 O3 2.354127 1_564
Gd0 O18 2.473536 1_555
Gd0 O7 2.473536 1_554
Gd0 O4 2.765236 1_554
Gd0 O21 2.765236 1_555
Gd1 O12 2.354127 1_455
Gd1 O23 2.354127 1_455
Gd1 O16 2.473536 1_555
Gd1 O1 2.473536 1_555
Gd1 O22 2.765236 1_555
Gd1 O4 2.765236 1_555
Gd2 O5 2.354127 1_545
Gd2 O2 2.354127 1_545
Gd2 O9 2.473536 1_555
Gd2 O17 2.473536 1_555
Gd2 O22 2.765236 1_555
Gd2 O20 2.765236 1_555
Gd3 O14 2.354127 1_655
Gd3 O13 2.354127 1_655
Gd3 O8 2.473536 1_555
Gd3 O6 2.473536 1_555
Gd3 O20 2.765236 1_555
Gd3 O21 2.765236 1_555
Nb0 O11 1.996082 1_555
Nb0 O10 1.996082 1_545
Nb0 O7 2.004264 1_545
Nb0 O9 2.004264 1_555
Nb0 O3 2.016633 1_555
Nb0 O5 2.016633 1_545
Nb1 O0 1.996082 1_555
Nb1 O10 1.996082 1_455
Nb1 O1 2.004264 1_555
Nb1 O8 2.004264 1_455
Nb1 O23 2.016633 1_455
Nb1 O14 2.016633 1_555
Nb2 O15 1.996082 1_555
Nb2 O11 1.996082 1_454
Nb2 O6 2.004264 1_455
Nb2 O16 2.004264 1_554
Nb2 O13 2.016633 1_555
Nb2 O12 2.016633 1_454
Nb3 O0 1.996082 1_545
Nb3 O15 1.996082 1_555
Nb3 O18 2.004264 1_545
Nb3 O17 2.004264 1_555
Nb3 O19 2.016633 1_555
Nb3 O2 2.016633 1_545
O1 Ti1 1.988465 1_555
O2 Ti1 2.021492 1_555
O3 Ti0 2.021492 1_556
O4 Ti3 1.926622 1_555
O4 Ti0 1.926622 1_556
O5 Ti1 2.021492 1_555
O6 Ti0 1.988465 1_555
O7 Ti3 1.988465 1_555
O8 Ti1 1.988465 1_555
O9 Ti3 1.988465 1_555
O12 Ti3 2.021492 1_555
O13 Ti2 2.021492 1_555
O14 Ti2 2.021492 1_555
O16 Ti0 1.988465 1_556
O17 Ti2 1.988465 1_555
O18 Ti2 1.988465 1_555
O19 Ti0 2.021492 1_555
O20 Ti1 1.926622 1_555
O20 Ti2 1.926622 1_555
O21 Ti2 1.926622 1_555
O21 Ti0 1.926622 1_555
O22 Ti3 1.926622 1_555
O22 Ti1 1.926622 1_555
O23 Ti3 2.021492 1_555
F0 Na1 2.239599 1_655
F0 Na0 2.239599 1_565
F0 Gd0 2.280541 1_555
F0 Gd3 2.280541 1_555
F1 Na2 2.239599 1_555
F1 Na3 2.239599 1_555
F1 Gd1 2.280541 1_555
F1 Gd2 2.280541 1_555
F2 Na0 2.239599 1_555
F2 Na2 2.239599 1_655
F2 Gd2 2.280541 1_555
F2 Gd3 2.280541 1_555
F3 Na1 2.239599 1_556
F3 Na3 2.239599 1_565
F3 Gd1 2.280541 1_555
F3 Gd0 2.280541 1_556
