# generated using pymatgen
data_Li7VN4
_symmetry_space_group_name_H-M   'P 1'
_cell_length_a   9.50955386
_cell_length_b   9.50955386
_cell_length_c   9.50955386
_cell_angle_alpha   90.00000000
_cell_angle_beta   90.00000000
_cell_angle_gamma   90.00000000
_symmetry_Int_Tables_number   1
_chemical_formula_structural   Li7VN4
_chemical_formula_sum   'Li56 V8 N32'
_cell_volume   859.96430984
_cell_formula_units_Z   8
loop_
 _symmetry_equiv_pos_site_id
 _symmetry_equiv_pos_as_xyz
  1  'x, y, z'
loop_
 _atom_site_type_symbol
 _atom_site_label
 _atom_site_symmetry_multiplicity
 _atom_site_fract_x
 _atom_site_fract_y
 _atom_site_fract_z
 _atom_site_occupancy
  Li  Li0  1  0.51611587  0.73655036  0.75010388  1
  Li  Li1  1  0.51611587  0.26344964  0.24989612  1
  Li  Li2  1  0.73655036  0.75010388  0.51611587  1
  Li  Li3  1  0.26344964  0.75010388  0.48388413  1
  Li  Li4  1  0.75010388  0.51611587  0.73655036  1
  Li  Li5  1  0.24989612  0.48388413  0.73655036  1
  Li  Li6  1  0.98388413  0.74989612  0.23655036  1
  Li  Li7  1  0.98388413  0.25010388  0.76344964  1
  Li  Li8  1  0.01611587  0.74989612  0.76344964  1
  Li  Li9  1  0.25010388  0.76344964  0.98388413  1
  Li  Li10  1  0.76344964  0.01611587  0.74989612  1
  Li  Li11  1  0.76344964  0.98388413  0.25010388  1
  Li  Li12  1  0.74989612  0.23655036  0.98388413  1
  Li  Li13  1  0.23655036  0.98388413  0.74989612  1
  Li  Li14  1  0.74989612  0.76344964  0.01611587  1
  Li  Li15  1  0.25010388  0.23655036  0.01611587  1
  Li  Li16  1  0.23655036  0.01611587  0.25010388  1
  Li  Li17  1  0.24989612  0.51611587  0.26344964  1
  Li  Li18  1  0.75010388  0.48388413  0.26344964  1
  Li  Li19  1  0.73655036  0.24989612  0.48388413  1
  Li  Li20  1  0.26344964  0.24989612  0.51611587  1
  Li  Li21  1  0.48388413  0.26344964  0.75010388  1
  Li  Li22  1  0.48388413  0.73655036  0.24989612  1
  Li  Li23  1  0.50000000  0.25000000  0.00000000  1
  Li  Li24  1  0.01611587  0.25010388  0.23655036  1
  Li  Li25  1  0.73399175  0.26600825  0.73399175  1
  Li  Li26  1  0.26600825  0.73399175  0.73399175  1
  Li  Li27  1  0.73399175  0.73399175  0.26600825  1
  Li  Li28  1  0.76600825  0.23399175  0.23399175  1
  Li  Li29  1  0.23399175  0.23399175  0.76600825  1
  Li  Li30  1  0.23399175  0.76600825  0.23399175  1
  Li  Li31  1  0.26600825  0.26600825  0.26600825  1
  Li  Li32  1  0.00000000  0.50000000  0.00000000  1
  Li  Li33  1  0.50000000  0.00000000  0.00000000  1
  Li  Li34  1  0.50000000  0.50000000  0.00000000  1
  Li  Li35  1  0.00000000  0.50000000  0.50000000  1
  Li  Li36  1  0.50000000  0.00000000  0.50000000  1
  Li  Li37  1  0.00000000  0.00000000  0.50000000  1
  Li  Li38  1  0.75000000  0.00000000  0.50000000  1
  Li  Li39  1  0.50000000  0.75000000  0.00000000  1
  Li  Li40  1  0.23539270  0.50000000  0.50000000  1
  Li  Li41  1  0.26460730  0.00000000  0.00000000  1
  Li  Li42  1  0.00000000  0.00000000  0.73539270  1
  Li  Li43  1  0.00000000  0.00000000  0.26460730  1
  Li  Li44  1  0.00000000  0.26460730  0.00000000  1
  Li  Li45  1  0.00000000  0.73539270  0.00000000  1
  Li  Li46  1  0.50000000  0.23539270  0.50000000  1
  Li  Li47  1  0.50000000  0.50000000  0.23539270  1
  Li  Li48  1  0.50000000  0.76460730  0.50000000  1
  Li  Li49  1  0.50000000  0.50000000  0.76460730  1
  Li  Li50  1  0.76460730  0.50000000  0.50000000  1
  Li  Li51  1  0.73539270  0.00000000  0.00000000  1
  Li  Li52  1  0.25000000  0.00000000  0.50000000  1
  Li  Li53  1  0.00000000  0.50000000  0.75000000  1
  Li  Li54  1  0.00000000  0.50000000  0.25000000  1
  Li  Li55  1  0.76600825  0.76600825  0.76600825  1
  V  V0  1  0.75000000  0.50000000  0.00000000  1
  V  V1  1  0.00000000  0.75000000  0.50000000  1
  V  V2  1  0.00000000  0.25000000  0.50000000  1
  V  V3  1  0.50000000  0.00000000  0.25000000  1
  V  V4  1  0.50000000  0.00000000  0.75000000  1
  V  V5  1  0.25000000  0.50000000  0.00000000  1
  V  V6  1  0.50000000  0.50000000  0.50000000  1
  V  V7  1  0.00000000  0.00000000  0.00000000  1
  N  N0  1  0.61640017  0.89141922  0.64185278  1
  N  N1  1  0.61640017  0.10858078  0.35814722  1
  N  N2  1  0.89141922  0.64185278  0.61640017  1
  N  N3  1  0.10858078  0.64185278  0.38359983  1
  N  N4  1  0.64185278  0.61640017  0.89141922  1
  N  N5  1  0.35814722  0.38359983  0.89141922  1
  N  N6  1  0.88359983  0.85814722  0.39141922  1
  N  N7  1  0.88359983  0.14185278  0.60858078  1
  N  N8  1  0.11640017  0.85814722  0.60858078  1
  N  N9  1  0.14185278  0.60858078  0.88359983  1
  N  N10  1  0.60858078  0.11640017  0.85814722  1
  N  N11  1  0.60858078  0.88359983  0.14185278  1
  N  N12  1  0.85814722  0.39141922  0.88359983  1
  N  N13  1  0.39141922  0.88359983  0.85814722  1
  N  N14  1  0.85814722  0.60858078  0.11640017  1
  N  N15  1  0.14185278  0.39141922  0.11640017  1
  N  N16  1  0.39141922  0.11640017  0.14185278  1
  N  N17  1  0.35814722  0.61640017  0.10858078  1
  N  N18  1  0.64185278  0.38359983  0.10858078  1
  N  N19  1  0.89141922  0.35814722  0.38359983  1
  N  N20  1  0.10858078  0.35814722  0.61640017  1
  N  N21  1  0.38359983  0.10858078  0.64185278  1
  N  N22  1  0.38359983  0.89141922  0.35814722  1
  N  N23  1  0.11640017  0.14185278  0.39141922  1
  N  N24  1  0.88928070  0.88928070  0.88928070  1
  N  N25  1  0.61071930  0.38928070  0.61071930  1
  N  N26  1  0.38928070  0.61071930  0.61071930  1
  N  N27  1  0.61071930  0.61071930  0.38928070  1
  N  N28  1  0.88928070  0.11071930  0.11071930  1
  N  N29  1  0.11071930  0.11071930  0.88928070  1
  N  N30  1  0.11071930  0.88928070  0.11071930  1
  N  N31  1  0.38928070  0.38928070  0.38928070  1
loop_
_geom_bond_atom_site_label_1
_geom_bond_atom_site_label_2
_geom_bond_distance
_geom_bond_site_symmetry_2
Li0 N0 2.034236 1_555
Li0 N13 2.101723 1_555
Li0 N4 2.130986 1_555
Li0 N26 2.154888 1_555
Li1 N1 2.034236 1_555
Li1 N16 2.101723 1_555
Li1 N18 2.130986 1_555
Li1 N31 2.154888 1_555
Li2 N2 2.034236 1_555
Li2 N6 2.101723 1_555
Li2 N0 2.130986 1_555
Li2 N27 2.154888 1_555
Li3 N3 2.034236 1_555
Li3 N8 2.101723 1_555
Li3 N22 2.130986 1_555
Li3 N26 2.154888 1_555
Li4 N4 2.034236 1_555
Li4 N12 2.101723 1_555
Li4 N2 2.130986 1_555
Li4 N25 2.154888 1_555
Li5 N5 2.034236 1_555
Li5 N9 2.101723 1_555
Li5 N20 2.130986 1_555
Li5 N26 2.154888 1_555
Li6 N6 2.034236 1_555
Li6 N3 2.101723 1_655
Li6 N14 2.130986 1_555
Li6 N30 2.154888 1_655
Li7 N7 2.034236 1_555
Li7 N20 2.101723 1_655
Li7 N12 2.130986 1_555
Li7 N29 2.154888 1_655
Li8 N8 2.034236 1_555
Li8 N2 2.101723 1_455
Li8 N9 2.130986 1_555
Li8 N24 2.154888 1_455
Li9 N9 2.034236 1_555
Li9 N17 2.101723 1_556
Li9 N13 2.130986 1_555
Li9 N30 2.154888 1_556
Li10 N10 2.034236 1_555
Li10 N0 2.101723 1_545
Li10 N7 2.130986 1_555
Li10 N24 2.154888 1_545
Li11 N11 2.034236 1_555
Li11 N1 2.101723 1_565
Li11 N6 2.130986 1_555
Li11 N28 2.154888 1_565
Li12 N12 2.034236 1_555
Li12 N18 2.101723 1_556
Li12 N10 2.130986 1_555
Li12 N28 2.154888 1_556
Li13 N13 2.034236 1_555
Li13 N21 2.101723 1_565
Li13 N8 2.130986 1_555
Li13 N29 2.154888 1_565
Li14 N14 2.034236 1_555
Li14 N4 2.101723 1_554
Li14 N11 2.130986 1_555
Li14 N24 2.154888 1_554
Li15 N15 2.034236 1_555
Li15 N5 2.101723 1_554
Li15 N16 2.130986 1_555
Li15 N29 2.154888 1_554
Li16 N16 2.034236 1_555
Li16 N22 2.101723 1_545
Li16 N23 2.130986 1_555
Li16 N30 2.154888 1_545
Li17 N17 2.034236 1_555
Li17 N15 2.101723 1_555
Li17 N3 2.130986 1_555
Li17 N31 2.154888 1_555
Li18 N18 2.034236 1_555
Li18 N14 2.101723 1_555
Li18 N19 2.130986 1_555
Li18 N27 2.154888 1_555
Li19 N19 2.034236 1_555
Li19 N7 2.101723 1_555
Li19 N1 2.130986 1_555
Li19 N25 2.154888 1_555
Li20 N20 2.034236 1_555
Li20 N23 2.101723 1_555
Li20 N21 2.130986 1_555
Li20 N31 2.154888 1_555
Li21 N21 2.034236 1_555
Li21 N10 2.101723 1_555
Li21 N5 2.130986 1_555
Li21 N25 2.154888 1_555
Li22 N22 2.034236 1_555
Li22 N11 2.101723 1_555
Li22 N17 2.130986 1_555
Li22 N27 2.154888 1_555
Li23 N16 2.121311 1_555
Li23 N10 2.121311 1_554
Li23 N18 2.121311 1_555
Li23 N5 2.121311 1_554
Li24 N23 2.034236 1_555
Li24 N19 2.101723 1_455
Li24 N15 2.130986 1_555
Li24 N28 2.154888 1_455
Li25 N25 2.030424 1_555
Li25 N12 2.200081 1_555
Li25 N7 2.200081 1_555
Li25 N10 2.200081 1_555
Li26 N26 2.030424 1_555
Li26 N9 2.200081 1_555
Li26 N13 2.200081 1_555
Li26 N8 2.200081 1_555
Li27 N27 2.030424 1_555
Li27 N6 2.200081 1_555
Li27 N11 2.200081 1_555
Li27 N14 2.200081 1_555
Li28 N28 2.030424 1_555
Li28 N1 2.200081 1_555
Li28 N18 2.200081 1_555
Li28 N19 2.200081 1_555
Li29 N29 2.030424 1_555
Li29 N20 2.200081 1_555
Li29 N21 2.200081 1_555
Li29 N5 2.200081 1_555
Li30 N30 2.030424 1_555
Li30 N17 2.200081 1_555
Li30 N3 2.200081 1_555
Li30 N22 2.200081 1_555
Li31 N31 2.030424 1_555
Li31 N15 2.200081 1_555
Li31 N16 2.200081 1_555
Li31 N23 2.200081 1_555
Li32 N14 2.027588 1_455
Li32 N12 2.027588 1_454
Li32 N15 2.027588 1_555
Li32 N9 2.027588 1_554
Li33 N16 2.027588 1_555
Li33 N13 2.027588 1_544
Li33 N11 2.027588 1_545
Li33 N10 2.027588 1_554
Li34 N18 2.027588 1_555
Li34 N4 2.027588 1_554
Li34 N5 2.027588 1_554
Li34 N17 2.027588 1_555
Li35 N20 2.027588 1_555
Li35 N3 2.027588 1_555
Li35 N19 2.027588 1_455
Li35 N2 2.027588 1_455
Li36 N1 2.027588 1_555
Li36 N0 2.027588 1_545
Li36 N22 2.027588 1_545
Li36 N21 2.027588 1_555
Li37 N23 2.027588 1_555
Li37 N8 2.027588 1_545
Li37 N6 2.027588 1_445
Li37 N7 2.027588 1_455
Li38 N6 2.121311 1_545
Li38 N7 2.121311 1_555
Li38 N1 2.121311 1_555
Li38 N0 2.121311 1_545
Li39 N13 2.121311 1_554
Li39 N17 2.121311 1_555
Li39 N4 2.121311 1_554
Li39 N11 2.121311 1_555
Li40 N26 2.087754 1_555
Li40 N31 2.087754 1_555
Li40 N3 2.121131 1_555
Li40 N20 2.121131 1_555
Li41 N29 2.087754 1_554
Li41 N30 2.087754 1_545
Li41 N13 2.121131 1_544
Li41 N16 2.121131 1_555
Li42 N24 2.087754 1_445
Li42 N29 2.087754 1_555
Li42 N7 2.121131 1_455
Li42 N8 2.121131 1_545
Li43 N28 2.087754 1_455
Li43 N30 2.087754 1_545
Li43 N23 2.121131 1_555
Li43 N6 2.121131 1_445
Li44 N28 2.087754 1_455
Li44 N29 2.087754 1_554
Li44 N15 2.121131 1_555
Li44 N12 2.121131 1_454
Li45 N24 2.087754 1_454
Li45 N30 2.087754 1_555
Li45 N14 2.121131 1_455
Li45 N9 2.121131 1_554
Li46 N25 2.087754 1_555
Li46 N31 2.087754 1_555
Li46 N21 2.121131 1_555
Li46 N1 2.121131 1_555
Li47 N27 2.087754 1_555
Li47 N31 2.087754 1_555
Li47 N17 2.121131 1_555
Li47 N18 2.121131 1_555
Li48 N26 2.087754 1_555
Li48 N27 2.087754 1_555
Li48 N22 2.121131 1_555
Li48 N0 2.121131 1_555
Li49 N25 2.087754 1_555
Li49 N26 2.087754 1_555
Li49 N4 2.121131 1_555
Li49 N5 2.121131 1_555
Li50 N25 2.087754 1_555
Li50 N27 2.087754 1_555
Li50 N19 2.121131 1_555
Li50 N2 2.121131 1_555
Li51 N24 2.087754 1_544
Li51 N28 2.087754 1_555
Li51 N11 2.121131 1_545
Li51 N10 2.121131 1_554
Li52 N21 2.121311 1_555
Li52 N8 2.121311 1_545
Li52 N23 2.121311 1_555
Li52 N22 2.121311 1_545
Li53 N20 2.121311 1_555
Li53 N9 2.121311 1_555
Li53 N12 2.121311 1_455
Li53 N2 2.121311 1_455
Li54 N3 2.121311 1_555
Li54 N15 2.121311 1_555
Li54 N19 2.121311 1_455
Li54 N14 2.121311 1_455
Li55 N24 2.030424 1_555
Li55 N4 2.200081 1_555
Li55 N2 2.200081 1_555
Li55 N0 2.200081 1_555
N0 V4 1.830054 1_565
N1 V3 1.830054 1_555
N2 V1 1.830054 1_655
N3 V1 1.830054 1_555
N4 V0 1.830054 1_556
N5 V5 1.830054 1_556
N6 V1 1.830054 1_655
N7 V2 1.830054 1_655
N8 V1 1.830054 1_555
N9 V5 1.830054 1_556
N10 V4 1.830054 1_555
N11 V3 1.830054 1_565
N12 V0 1.830054 1_556
N13 V4 1.830054 1_565
N14 V0 1.830054 1_555
N15 V5 1.830054 1_555
N16 V3 1.830054 1_555
N17 V5 1.830054 1_555
N18 V0 1.830054 1_555
N19 V2 1.830054 1_655
N20 V2 1.830054 1_555
N21 V4 1.830054 1_555
N22 V3 1.830054 1_565
N23 V2 1.830054 1_555
N24 V7 1.823661 1_666
N25 V6 1.823661 1_555
N26 V6 1.823661 1_555
N27 V6 1.823661 1_555
N28 V7 1.823661 1_655
N29 V7 1.823661 1_556
N30 V7 1.823661 1_565
N31 V6 1.823661 1_555
