# generated using pymatgen
data_Cu2SO5
_symmetry_space_group_name_H-M   'P 1'
_cell_length_a   5.62190897
_cell_length_b   5.62190897
_cell_length_c   7.62033954
_cell_angle_alpha   63.84394589
_cell_angle_beta   63.84394589
_cell_angle_gamma   67.80748743
_symmetry_Int_Tables_number   1
_chemical_formula_structural   Cu2SO5
_chemical_formula_sum   'Cu4 S2 O10'
_cell_volume   188.95159419
_cell_formula_units_Z   2
loop_
 _symmetry_equiv_pos_site_id
 _symmetry_equiv_pos_as_xyz
  1  'x, y, z'
loop_
 _atom_site_type_symbol
 _atom_site_label
 _atom_site_symmetry_multiplicity
 _atom_site_fract_x
 _atom_site_fract_y
 _atom_site_fract_z
 _atom_site_occupancy
  Cu  Cu0  1  0.06855989  0.06855989  0.78008230  1
  Cu  Cu1  1  0.93144011  0.93144011  0.21991770  1
  Cu  Cu2  1  0.00000000  0.50000000  -0.00000000  1
  Cu  Cu3  1  0.50000000  0.00000000  -0.00000000  1
  S  S0  1  0.60157962  0.60157962  0.68415830  1
  S  S1  1  0.39842038  0.39842038  0.31584170  1
  O  O0  1  0.70266918  0.31842871  0.25143986  1
  O  O1  1  0.68157129  0.29733082  0.74856014  1
  O  O2  1  0.29733082  0.68157129  0.74856014  1
  O  O3  1  0.31842871  0.70266918  0.25143986  1
  O  O4  1  0.15081208  0.15081208  0.97625907  1
  O  O5  1  0.84918792  0.84918792  0.02374093  1
  O  O6  1  0.29945410  0.29945410  0.21930452  1
  O  O7  1  0.70054590  0.70054590  0.78069548  1
  O  O8  1  0.70593418  0.70593418  0.45785125  1
  O  O9  1  0.29406582  0.29406582  0.54214875  1
loop_
_geom_bond_atom_site_label_1
_geom_bond_atom_site_label_2
_geom_bond_distance
_geom_bond_site_symmetry_2
Cu0 O5 1.897588 1_446
Cu0 O9 1.913898 1_555
Cu0 O4 2.010703 1_555
Cu0 O1 2.125956 1_455
Cu0 O2 2.125956 1_545
Cu1 O4 1.897588 1_664
Cu1 O8 1.913898 1_555
Cu1 O5 2.010703 1_555
Cu1 O0 2.125956 1_565
Cu1 O3 2.125956 1_655
Cu2 O5 1.877730 1_455
Cu2 O4 1.877730 1_554
Cu2 O0 2.061146 1_455
Cu2 O2 2.061146 1_554
Cu2 O7 2.506701 1_454
Cu2 O6 2.506701 1_555
Cu3 O5 1.877730 1_545
Cu3 O4 1.877730 1_554
Cu3 O1 2.061146 1_554
Cu3 O3 2.061146 1_545
Cu3 O7 2.506701 1_544
Cu3 O6 2.506701 1_555
O0 S1 1.497388 1_555
O1 S0 1.497388 1_555
O2 S0 1.497388 1_555
O3 S1 1.497388 1_555
O6 S1 1.454595 1_555
O7 S0 1.454595 1_555
O8 S0 1.462340 1_555
O9 S1 1.462340 1_555
