# generated using pymatgen
data_CeAl3Pd2
_symmetry_space_group_name_H-M   'P 1'
_cell_length_a   5.43264891
_cell_length_b   5.43264976
_cell_length_c   4.22537958
_cell_angle_alpha   90.00000000
_cell_angle_beta   90.00000000
_cell_angle_gamma   119.99999491
_symmetry_Int_Tables_number   1
_chemical_formula_structural   CeAl3Pd2
_chemical_formula_sum   'Ce1 Al3 Pd2'
_cell_volume   107.99899877
_cell_formula_units_Z   1
loop_
 _symmetry_equiv_pos_site_id
 _symmetry_equiv_pos_as_xyz
  1  'x, y, z'
loop_
 _atom_site_type_symbol
 _atom_site_label
 _atom_site_symmetry_multiplicity
 _atom_site_fract_x
 _atom_site_fract_y
 _atom_site_fract_z
 _atom_site_occupancy
  Ce  Ce0  1  0.00000000  -0.00000000  0.00000000  1
  Al  Al0  1  0.50000000  -0.00000000  0.50000000  1
  Al  Al1  1  0.50000000  0.50000000  0.50000000  1
  Al  Al2  1  0.00000000  0.50000000  0.50000000  1
  Pd  Pd0  1  0.66666700  0.33333300  -0.00000000  1
  Pd  Pd1  1  0.33333300  0.66666700  0.00000000  1
loop_
_geom_bond_atom_site_label_1
_geom_bond_atom_site_label_2
_geom_bond_distance
_geom_bond_site_symmetry_2
Ce0 Pd1 3.136538 1_545
Ce0 Pd0 3.136538 1_455
Ce0 Pd0 3.136543 1_555
Ce0 Pd1 3.136543 1_445
Ce0 Pd1 3.136544 1_555
Ce0 Pd0 3.136544 1_445
Al0 Pd0 2.631146 1_556
Al0 Pd1 2.631146 1_546
Al0 Pd1 2.631146 1_545
Al0 Pd0 2.631146 1_555
Al1 Pd0 2.631148 1_556
Al1 Pd1 2.631148 1_555
Al1 Pd0 2.631148 1_555
Al1 Pd1 2.631148 1_556
Al2 Pd1 2.631145 1_556
Al2 Pd0 2.631145 1_455
Al2 Pd0 2.631145 1_456
Al2 Pd1 2.631145 1_555
