# generated using pymatgen
data_NaCeTiNbO6F
_symmetry_space_group_name_H-M   'P 1'
_cell_length_a   7.37955400
_cell_length_b   7.37955400
_cell_length_c   10.48438700
_cell_angle_alpha   90.00000000
_cell_angle_beta   90.00000000
_cell_angle_gamma   90.00000000
_symmetry_Int_Tables_number   1
_chemical_formula_structural   NaCeTiNbO6F
_chemical_formula_sum   'Na4 Ce4 Ti4 Nb4 O24 F4'
_cell_volume   570.95683111
_cell_formula_units_Z   4
loop_
 _symmetry_equiv_pos_site_id
 _symmetry_equiv_pos_as_xyz
  1  'x, y, z'
loop_
 _atom_site_type_symbol
 _atom_site_label
 _atom_site_symmetry_multiplicity
 _atom_site_fract_x
 _atom_site_fract_y
 _atom_site_fract_z
 _atom_site_occupancy
  Na  Na0  1  0.50000000  0.72765500  0.00000000  1
  Na  Na1  1  0.50000000  0.27234500  0.50000000  1
  Na  Na2  1  0.72765500  0.50000000  0.75000000  1
  Na  Na3  1  0.27234500  0.50000000  0.25000000  1
  Ce  Ce0  1  0.00000000  0.72845700  0.00000000  1
  Ce  Ce1  1  0.27154300  0.00000000  0.25000000  1
  Ce  Ce2  1  0.00000000  0.27154300  0.50000000  1
  Ce  Ce3  1  0.72845700  0.00000000  0.75000000  1
  Ti  Ti0  1  0.00000000  0.76360900  0.50000000  1
  Ti  Ti1  1  0.23639100  0.00000000  0.75000000  1
  Ti  Ti2  1  0.76360900  0.00000000  0.25000000  1
  Ti  Ti3  1  0.00000000  0.23639100  0.00000000  1
  Nb  Nb0  1  0.50000000  0.75756800  0.50000000  1
  Nb  Nb1  1  0.50000000  0.24243200  0.00000000  1
  Nb  Nb2  1  0.75756800  0.50000000  0.25000000  1
  Nb  Nb3  1  0.24243200  0.50000000  0.75000000  1
  O  O0  1  0.55556100  0.94883300  0.36753500  1
  O  O1  1  0.95887500  0.95887500  0.37500000  1
  O  O2  1  0.05116700  0.44443900  0.88246500  1
  O  O3  1  0.04112500  0.04112500  0.87500000  1
  O  O4  1  0.04112500  0.95887500  0.62500000  1
  O  O5  1  0.24853100  0.22638700  0.07214600  1
  O  O6  1  0.24853100  0.77361300  0.42785400  1
  O  O7  1  0.22638700  0.24853100  0.67785400  1
  O  O8  1  0.44443900  0.94883300  0.63246500  1
  O  O9  1  0.43677100  0.43677100  0.87500000  1
  O  O10  1  0.44443900  0.05116700  0.86753500  1
  O  O11  1  0.56322900  0.56322900  0.37500000  1
  O  O12  1  0.56322900  0.43677100  0.12500000  1
  O  O13  1  0.55556100  0.05116700  0.13246500  1
  O  O14  1  0.75146900  0.77361300  0.57214600  1
  O  O15  1  0.75146900  0.22638700  0.92785400  1
  O  O16  1  0.77361300  0.24853100  0.32214600  1
  O  O17  1  0.77361300  0.75146900  0.17785400  1
  O  O18  1  0.94883300  0.44443900  0.11753500  1
  O  O19  1  0.95887500  0.04112500  0.12500000  1
  O  O20  1  0.94883300  0.55556100  0.38246500  1
  O  O21  1  0.05116700  0.55556100  0.61753500  1
  O  O22  1  0.22638700  0.75146900  0.82214600  1
  O  O23  1  0.43677100  0.56322900  0.62500000  1
  F  F0  1  0.26185600  0.73814400  0.12500000  1
  F  F1  1  0.73814400  0.26185600  0.62500000  1
  F  F2  1  0.73814400  0.73814400  0.87500000  1
  F  F3  1  0.26185600  0.26185600  0.37500000  1
loop_
_geom_bond_atom_site_label_1
_geom_bond_atom_site_label_2
_geom_bond_distance
_geom_bond_site_symmetry_2
Na0 O9 2.557952 1_554
Na0 O12 2.557952 1_555
Na0 O22 2.754067 1_554
Na0 O17 2.754067 1_555
Na0 O13 2.792217 1_565
Na0 O10 2.792217 1_564
Na1 O23 2.557952 1_555
Na1 O11 2.557952 1_555
Na1 O7 2.754067 1_555
Na1 O16 2.754067 1_555
Na1 O0 2.792217 1_545
Na1 O8 2.792217 1_545
Na2 O23 2.557952 1_555
Na2 O9 2.557952 1_555
Na2 O14 2.754067 1_555
Na2 O15 2.754067 1_555
Na2 O21 2.792217 1_655
Na2 O2 2.792217 1_655
Na3 O12 2.557952 1_555
Na3 O11 2.557952 1_555
Na3 O6 2.754067 1_555
Na3 O5 2.754067 1_555
Na3 O18 2.792217 1_455
Na3 O20 2.792217 1_455
Ce0 F2 2.335967 1_454
Ce0 F0 2.335967 1_555
Ce0 O2 2.460488 1_554
Ce0 O18 2.460488 1_455
Ce0 O22 2.509368 1_554
Ce0 O17 2.509368 1_455
Ce0 O3 2.670862 1_564
Ce0 O19 2.670862 1_465
Ce1 F3 2.335967 1_555
Ce1 F0 2.335967 1_545
Ce1 O13 2.460488 1_555
Ce1 O0 2.460488 1_545
Ce1 O6 2.509368 1_545
Ce1 O5 2.509368 1_555
Ce1 O19 2.670862 1_455
Ce1 O1 2.670862 1_445
Ce2 F3 2.335967 1_555
Ce2 F1 2.335967 1_455
Ce2 O21 2.460488 1_555
Ce2 O20 2.460488 1_455
Ce2 O7 2.509368 1_555
Ce2 O16 2.509368 1_455
Ce2 O1 2.670862 1_445
Ce2 O4 2.670862 1_545
Ce3 F1 2.335967 1_555
Ce3 F2 2.335967 1_545
Ce3 O10 2.460488 1_555
Ce3 O8 2.460488 1_545
Ce3 O14 2.509368 1_545
Ce3 O15 2.509368 1_555
Ce3 O3 2.670862 1_655
Ce3 O4 2.670862 1_645
Nb0 O23 1.997998 1_555
Nb0 O11 1.997998 1_555
Nb0 O6 2.007461 1_555
Nb0 O14 2.007461 1_555
Nb0 O0 2.022155 1_555
Nb0 O8 2.022155 1_555
Nb1 O9 1.997998 1_554
Nb1 O12 1.997998 1_555
Nb1 O5 2.007461 1_555
Nb1 O15 2.007461 1_554
Nb1 O13 2.022155 1_555
Nb1 O10 2.022155 1_554
Nb2 O12 1.997998 1_555
Nb2 O11 1.997998 1_555
Nb2 O16 2.007461 1_555
Nb2 O17 2.007461 1_555
Nb2 O20 2.022155 1_555
Nb2 O18 2.022155 1_555
Nb3 O9 1.997998 1_555
Nb3 O23 1.997998 1_555
Nb3 O7 2.007461 1_555
Nb3 O22 2.007461 1_555
Nb3 O21 2.022155 1_555
Nb3 O2 2.022155 1_555
O0 Ti2 2.004556 1_565
O1 Ti2 1.971307 1_565
O1 Ti0 1.971307 1_655
O2 Ti3 2.004556 1_556
O3 Ti3 1.971307 1_556
O3 Ti1 1.971307 1_555
O4 Ti1 1.971307 1_565
O4 Ti0 1.971307 1_555
O5 Ti3 1.985279 1_555
O6 Ti0 1.985279 1_555
O7 Ti1 1.985279 1_555
O8 Ti1 2.004556 1_565
O10 Ti1 2.004556 1_555
O13 Ti2 2.004556 1_555
O14 Ti0 1.985279 1_655
O15 Ti3 1.985279 1_656
O16 Ti2 1.985279 1_555
O17 Ti2 1.985279 1_565
O18 Ti3 2.004556 1_655
O19 Ti3 1.971307 1_655
O19 Ti2 1.971307 1_555
O20 Ti0 2.004556 1_655
O21 Ti0 2.004556 1_555
O22 Ti1 1.985279 1_565
F0 Na0 2.193621 1_555
F0 Na3 2.193621 1_555
F1 Na2 2.193621 1_555
F1 Na1 2.193621 1_555
F2 Na2 2.193621 1_555
F2 Na0 2.193621 1_556
F3 Na1 2.193621 1_555
F3 Na3 2.193621 1_555
