# generated using pymatgen
data_La2MgNi2
_symmetry_space_group_name_H-M   'P 1'
_cell_length_a   3.90525792
_cell_length_b   7.60167783
_cell_length_c   7.60167783
_cell_angle_alpha   90.00000000
_cell_angle_beta   90.00000000
_cell_angle_gamma   90.00000000
_symmetry_Int_Tables_number   1
_chemical_formula_structural   La2MgNi2
_chemical_formula_sum   'La4 Mg2 Ni4'
_cell_volume   225.66730431
_cell_formula_units_Z   2
loop_
 _symmetry_equiv_pos_site_id
 _symmetry_equiv_pos_as_xyz
  1  'x, y, z'
loop_
 _atom_site_type_symbol
 _atom_site_label
 _atom_site_symmetry_multiplicity
 _atom_site_fract_x
 _atom_site_fract_y
 _atom_site_fract_z
 _atom_site_occupancy
  La  La0  1  0.50000000  0.82805570  0.32805570  1
  La  La1  1  0.50000000  0.67194430  0.82805570  1
  La  La2  1  0.50000000  0.32805570  0.17194430  1
  La  La3  1  0.50000000  0.17194430  0.67194430  1
  Mg  Mg0  1  -0.00000000  0.50000000  0.50000000  1
  Mg  Mg1  1  -0.00000000  0.00000000  0.00000000  1
  Ni  Ni0  1  -0.00000000  0.62008575  0.12008575  1
  Ni  Ni1  1  0.00000000  0.87991425  0.62008575  1
  Ni  Ni2  1  0.00000000  0.37991425  0.87991425  1
  Ni  Ni3  1  -0.00000000  0.12008575  0.37991425  1
loop_
_geom_bond_atom_site_label_1
_geom_bond_atom_site_label_2
_geom_bond_distance
_geom_bond_site_symmetry_2
La0 Ni0 2.968397 1_655
La0 Ni0 2.968397 1_555
La0 Ni1 2.982650 1_555
La0 Ni1 2.982650 1_655
La0 Ni3 2.982650 1_565
La0 Ni3 2.982650 1_665
La0 Mg0 3.426381 1_655
La0 Mg0 3.426381 1_555
La0 Mg1 3.426381 1_665
La0 Mg1 3.426381 1_565
La1 Ni1 2.968397 1_655
La1 Ni1 2.968397 1_555
La1 Ni2 2.982650 1_655
La1 Ni2 2.982650 1_555
La1 Ni0 2.982650 1_656
La1 Ni0 2.982650 1_556
La1 Mg0 3.426381 1_555
La1 Mg0 3.426381 1_655
La1 Mg1 3.426381 1_566
La1 Mg1 3.426381 1_666
La2 Ni3 2.968397 1_655
La2 Ni3 2.968397 1_555
La2 Ni0 2.982650 1_655
La2 Ni0 2.982650 1_555
La2 Ni2 2.982650 1_554
La2 Ni2 2.982650 1_654
La2 Mg0 3.426381 1_655
La2 Mg0 3.426381 1_555
La2 Mg1 3.426381 1_655
La2 Mg1 3.426381 1_555
La3 Ni2 2.968397 1_555
La3 Ni2 2.968397 1_655
La3 Ni3 2.982650 1_655
La3 Ni3 2.982650 1_555
La3 Ni1 2.982650 1_545
La3 Ni1 2.982650 1_645
La3 Mg0 3.426381 1_655
La3 Mg0 3.426381 1_555
La3 Mg1 3.426381 1_656
La3 Mg1 3.426381 1_556
Mg0 Ni2 3.028822 1_555
Mg0 Ni3 3.028822 1_555
Mg0 Ni0 3.028822 1_555
Mg0 Ni1 3.028822 1_555
Mg1 Ni0 3.028822 1_545
Mg1 Ni3 3.028822 1_555
Mg1 Ni1 3.028822 1_544
Mg1 Ni2 3.028822 1_554
Ni0 Ni2 2.581939 1_554
Ni1 Ni3 2.581939 1_565
