# generated using pymatgen
data_VFe2Si
_symmetry_space_group_name_H-M   'P 1'
_cell_length_a   3.95171838
_cell_length_b   3.95171849
_cell_length_c   3.95171796
_cell_angle_alpha   59.99998751
_cell_angle_beta   59.99998643
_cell_angle_gamma   59.99998710
_symmetry_Int_Tables_number   1
_chemical_formula_structural   VFe2Si
_chemical_formula_sum   'V1 Fe2 Si1'
_cell_volume   43.63578579
_cell_formula_units_Z   1
loop_
 _symmetry_equiv_pos_site_id
 _symmetry_equiv_pos_as_xyz
  1  'x, y, z'
loop_
 _atom_site_type_symbol
 _atom_site_label
 _atom_site_symmetry_multiplicity
 _atom_site_fract_x
 _atom_site_fract_y
 _atom_site_fract_z
 _atom_site_occupancy
  V  V0  1  0.00000000  -0.00000000  0.00000000  1
  Fe  Fe0  1  0.75000000  0.75000000  0.75000000  1
  Fe  Fe1  1  0.25000000  0.25000000  0.25000000  1
  Si  Si0  1  0.50000000  0.50000000  0.50000000  1
loop_
_geom_bond_atom_site_label_1
_geom_bond_atom_site_label_2
_geom_bond_distance
_geom_bond_site_symmetry_2
Fe0 Si0 2.419923 1_556
Fe0 V0 2.419923 1_665
Fe0 Si0 2.419923 1_655
Fe0 V0 2.419923 1_566
Fe0 V0 2.419923 1_656
Fe0 Si0 2.419923 1_565
Fe0 Si0 2.419924 1_555
Fe0 V0 2.419924 1_666
Fe1 Si0 2.419923 1_554
Fe1 V0 2.419923 1_556
Fe1 V0 2.419923 1_655
Fe1 Si0 2.419923 1_455
Fe1 Si0 2.419923 1_545
Fe1 V0 2.419923 1_565
Fe1 Si0 2.419924 1_555
Fe1 V0 2.419924 1_555
Si0 V0 2.794286 1_566
Si0 V0 2.794286 1_655
Si0 V0 2.794286 1_656
Si0 V0 2.794286 1_565
Si0 V0 2.794287 1_665
Si0 V0 2.794287 1_556
