# generated using pymatgen
data_CaPrMn2O6
_symmetry_space_group_name_H-M   'P 1'
_cell_length_a   5.45382800
_cell_length_b   5.50013800
_cell_length_c   7.72145000
_cell_angle_alpha   90.00000000
_cell_angle_beta   90.00000000
_cell_angle_gamma   90.00000000
_symmetry_Int_Tables_number   1
_chemical_formula_structural   CaPrMn2O6
_chemical_formula_sum   'Ca2 Pr2 Mn4 O12'
_cell_volume   231.61884254
_cell_formula_units_Z   2
loop_
 _symmetry_equiv_pos_site_id
 _symmetry_equiv_pos_as_xyz
  1  'x, y, z'
loop_
 _atom_site_type_symbol
 _atom_site_label
 _atom_site_symmetry_multiplicity
 _atom_site_fract_x
 _atom_site_fract_y
 _atom_site_fract_z
 _atom_site_occupancy
  Ca  Ca0  1  0.49010700  0.20890000  0.00000000  1
  Ca  Ca1  1  0.99010700  0.79110000  0.50000000  1
  Pr  Pr0  1  0.00895700  0.71357800  0.00000000  1
  Pr  Pr1  1  0.50895700  0.28642200  0.50000000  1
  Mn  Mn0  1  0.00031700  0.24874300  0.75040200  1
  Mn  Mn1  1  0.00031700  0.24874300  0.24959800  1
  Mn  Mn2  1  0.50031700  0.75125700  0.25040200  1
  Mn  Mn3  1  0.50031700  0.75125700  0.74959800  1
  O  O0  1  0.07227300  0.23314800  0.50000000  1
  O  O1  1  0.21896900  0.96860900  0.78905500  1
  O  O2  1  0.21896900  0.96860900  0.21094500  1
  O  O3  1  0.28408600  0.46620800  0.20829100  1
  O  O4  1  0.28408600  0.46620800  0.79170900  1
  O  O5  1  0.42189900  0.73558600  0.50000000  1
  O  O6  1  0.57227300  0.76685200  0.00000000  1
  O  O7  1  0.71896900  0.03139100  0.71094500  1
  O  O8  1  0.71896900  0.03139100  0.28905500  1
  O  O9  1  0.78408600  0.53379200  0.70829100  1
  O  O10  1  0.78408600  0.53379200  0.29170900  1
  O  O11  1  0.92189900  0.26441400  0.00000000  1
loop_
_geom_bond_atom_site_label_1
_geom_bond_atom_site_label_2
_geom_bond_distance
_geom_bond_site_symmetry_2
Ca0 O11 2.374631 1_555
Ca0 O4 2.419094 1_554
Ca0 O3 2.419094 1_555
Ca0 O6 2.472277 1_545
Ca0 O2 2.566395 1_545
Ca0 O1 2.566395 1_544
Ca0 O8 2.737267 1_555
Ca0 O7 2.737267 1_554
Ca1 O5 2.374631 1_655
Ca1 O10 2.419094 1_555
Ca1 O9 2.419094 1_555
Ca1 O0 2.472277 1_665
Ca1 O7 2.566395 1_565
Ca1 O8 2.566395 1_565
Ca1 O1 2.737267 1_655
Ca1 O2 2.737267 1_655
Mn0 O7 1.968862 1_455
Mn0 O1 1.971066 1_545
Mn0 O0 1.974755 1_555
Mn0 O11 1.976022 1_456
Mn0 O4 1.981793 1_555
Mn0 O9 1.988585 1_455
Mn1 O8 1.968862 1_455
Mn1 O2 1.971066 1_545
Mn1 O0 1.974755 1_555
Mn1 O11 1.976022 1_455
Mn1 O3 1.981793 1_555
Mn1 O10 1.988585 1_455
Mn2 O2 1.968862 1_555
Mn2 O8 1.971066 1_565
Mn2 O6 1.974755 1_555
Mn2 O5 1.976022 1_555
Mn2 O10 1.981793 1_555
Mn2 O3 1.988585 1_555
Mn3 O1 1.968862 1_555
Mn3 O7 1.971066 1_565
Mn3 O6 1.974755 1_556
Mn3 O5 1.976022 1_555
Mn3 O9 1.981793 1_555
Mn3 O4 1.988585 1_555
O0 Pr1 2.399557 1_555
O1 Pr0 2.435662 1_556
O2 Pr0 2.435662 1_555
O3 Pr0 2.586373 1_555
O3 Pr1 2.748686 1_555
O4 Pr0 2.586373 1_556
O4 Pr1 2.748686 1_555
O5 Pr1 2.515676 1_555
O6 Pr0 2.399557 1_655
O7 Pr1 2.435662 1_555
O8 Pr1 2.435662 1_555
O9 Pr1 2.586373 1_555
O9 Pr0 2.748686 1_656
O10 Pr1 2.586373 1_555
O10 Pr0 2.748686 1_655
O11 Pr0 2.515676 1_655
