# generated using pymatgen
data_NaNbO3
_symmetry_space_group_name_H-M   'P 1'
_cell_length_a   5.53000775
_cell_length_b   5.60546511
_cell_length_c   7.79067262
_cell_angle_alpha   90.00000000
_cell_angle_beta   90.00000000
_cell_angle_gamma   90.00000000
_symmetry_Int_Tables_number   1
_chemical_formula_structural   NaNbO3
_chemical_formula_sum   'Na4 Nb4 O12'
_cell_volume   241.49733830
_cell_formula_units_Z   4
loop_
 _symmetry_equiv_pos_site_id
 _symmetry_equiv_pos_as_xyz
  1  'x, y, z'
loop_
 _atom_site_type_symbol
 _atom_site_label
 _atom_site_symmetry_multiplicity
 _atom_site_fract_x
 _atom_site_fract_y
 _atom_site_fract_z
 _atom_site_occupancy
  Na  Na0  1  0.75996350  0.24961452  0.50000000  1
  Na  Na1  1  0.24003650  0.74961452  0.50000000  1
  Na  Na2  1  0.76272699  0.28773070  -0.00000000  1
  Na  Na3  1  0.23727301  0.78773070  -0.00000000  1
  Nb  Nb0  1  0.74305054  0.77118186  0.25082239  1
  Nb  Nb1  1  0.25694946  0.27118186  0.74917761  1
  Nb  Nb2  1  0.25694946  0.27118186  0.25082239  1
  Nb  Nb3  1  0.74305054  0.77118186  0.74917761  1
  O  O0  1  0.95434584  0.50819126  0.71257006  1
  O  O1  1  0.04565416  0.00819126  0.28742994  1
  O  O2  1  0.04565416  0.00819126  0.71257006  1
  O  O3  1  0.95434584  0.50819126  0.28742994  1
  O  O4  1  0.54619342  0.09525407  0.78478013  1
  O  O5  1  0.45380658  0.59525407  0.21521987  1
  O  O6  1  0.45380658  0.59525407  0.78478013  1
  O  O7  1  0.54619342  0.09525407  0.21521987  1
  O  O8  1  0.18138219  0.29518066  -0.00000000  1
  O  O9  1  0.81861781  0.79518066  -0.00000000  1
  O  O10  1  0.32311772  0.32421774  0.50000000  1
  O  O11  1  0.67688228  0.82421774  0.50000000  1
loop_
_geom_bond_atom_site_label_1
_geom_bond_atom_site_label_2
_geom_bond_distance
_geom_bond_site_symmetry_2
Na0 O11 2.428404 1_545
Na0 O0 2.449269 1_555
Na0 O3 2.449269 1_555
Na0 O10 2.451689 1_555
Na0 O7 2.658660 1_555
Na0 O4 2.658660 1_555
Na0 O1 2.658935 1_655
Na0 O2 2.658935 1_655
Na1 O10 2.428404 1_555
Na1 O2 2.449269 1_565
Na1 O1 2.449269 1_565
Na1 O11 2.451689 1_555
Na1 O5 2.658660 1_555
Na1 O6 2.658660 1_555
Na1 O3 2.658935 1_455
Na1 O0 2.658935 1_455
Na2 O8 2.315543 1_655
Na2 O4 2.325782 1_554
Na2 O7 2.325782 1_555
Na2 O3 2.768460 1_555
Na2 O0 2.768460 1_554
Na2 O9 2.778218 1_545
Na2 O9 2.861236 1_555
Na3 O9 2.315543 1_455
Na3 O5 2.325782 1_555
Na3 O6 2.325782 1_554
Na3 O1 2.768460 1_565
Na3 O2 2.768460 1_564
Na3 O8 2.778218 1_555
Na3 O8 2.861236 1_565
Nb0 O5 1.899449 1_555
Nb0 O3 1.902595 1_555
Nb0 O11 1.997691 1_555
Nb0 O9 2.002782 1_555
Nb0 O7 2.135878 1_565
Nb0 O1 2.155608 1_665
Nb1 O4 1.899449 1_555
Nb1 O2 1.902595 1_555
Nb1 O10 1.997691 1_555
Nb1 O8 2.002782 1_556
Nb1 O6 2.135878 1_555
Nb1 O0 2.155608 1_455
Nb2 O7 1.899449 1_555
Nb2 O1 1.902595 1_555
Nb2 O10 1.997691 1_555
Nb2 O8 2.002782 1_555
Nb2 O5 2.135878 1_555
Nb2 O3 2.155608 1_455
Nb3 O6 1.899449 1_555
Nb3 O0 1.902595 1_555
Nb3 O11 1.997691 1_555
Nb3 O9 2.002782 1_556
Nb3 O4 2.135878 1_565
Nb3 O2 2.155608 1_665
