# generated using pymatgen
data_HoCuSi
_symmetry_space_group_name_H-M   'P 1'
_cell_length_a   4.10003529
_cell_length_b   4.10003561
_cell_length_c   7.47195506
_cell_angle_alpha   90.00000000
_cell_angle_beta   90.00000000
_cell_angle_gamma   120.00000561
_symmetry_Int_Tables_number   1
_chemical_formula_structural   HoCuSi
_chemical_formula_sum   'Ho2 Cu2 Si2'
_cell_volume   108.77775248
_cell_formula_units_Z   2
loop_
 _symmetry_equiv_pos_site_id
 _symmetry_equiv_pos_as_xyz
  1  'x, y, z'
loop_
 _atom_site_type_symbol
 _atom_site_label
 _atom_site_symmetry_multiplicity
 _atom_site_fract_x
 _atom_site_fract_y
 _atom_site_fract_z
 _atom_site_occupancy
  Ho  Ho0  1  -0.00000000  -0.00000000  0.50000000  1
  Ho  Ho1  1  -0.00000000  -0.00000000  0.00000000  1
  Cu  Cu0  1  0.33333300  0.66666700  0.25000000  1
  Cu  Cu1  1  0.66666700  0.33333300  0.75000000  1
  Si  Si0  1  0.66666700  0.33333300  0.25000000  1
  Si  Si1  1  0.33333300  0.66666700  0.75000000  1
loop_
_geom_bond_atom_site_label_1
_geom_bond_atom_site_label_2
_geom_bond_distance
_geom_bond_site_symmetry_2
Ho0 Si0 3.015427 1_455
Ho0 Si1 3.015427 1_545
Ho0 Si0 3.015430 1_555
Ho0 Si1 3.015430 1_445
Ho0 Si0 3.015430 1_445
Ho0 Si1 3.015430 1_555
Ho1 Si0 3.015427 1_455
Ho1 Si1 3.015427 1_544
Ho1 Si0 3.015430 1_555
Ho1 Si1 3.015430 1_444
Ho1 Si1 3.015430 1_554
Ho1 Si0 3.015430 1_445
Cu0 Si0 2.367154 1_455
Cu0 Si0 2.367154 1_565
Cu0 Si0 2.367161 1_555
Cu0 Ho0 3.015427 1_565
Cu0 Ho1 3.015427 1_565
Cu0 Ho1 3.015430 1_665
Cu0 Ho0 3.015430 1_665
Cu0 Ho0 3.015430 1_555
Cu0 Ho1 3.015430 1_555
Cu1 Si1 2.367154 1_655
Cu1 Si1 2.367154 1_545
Cu1 Si1 2.367161 1_555
Cu1 Ho0 3.015427 1_655
Cu1 Ho1 3.015427 1_656
Cu1 Ho0 3.015430 1_555
Cu1 Ho1 3.015430 1_556
Cu1 Ho0 3.015430 1_665
Cu1 Ho1 3.015430 1_666
