# generated using pymatgen
data_Ca2SiO4
_symmetry_space_group_name_H-M   'P 1'
_cell_length_a   5.08711656
_cell_length_b   6.75454416
_cell_length_c   11.23729743
_cell_angle_alpha   90.00000000
_cell_angle_beta   90.00000000
_cell_angle_gamma   90.00000000
_symmetry_Int_Tables_number   1
_chemical_formula_structural   Ca2SiO4
_chemical_formula_sum   'Ca8 Si4 O16'
_cell_volume   386.12650137
_cell_formula_units_Z   4
loop_
 _symmetry_equiv_pos_site_id
 _symmetry_equiv_pos_as_xyz
  1  'x, y, z'
loop_
 _atom_site_type_symbol
 _atom_site_label
 _atom_site_symmetry_multiplicity
 _atom_site_fract_x
 _atom_site_fract_y
 _atom_site_fract_z
 _atom_site_occupancy
  Ca  Ca0  1  0.49049144  0.75000000  0.78049962  1
  Ca  Ca1  1  0.99049144  0.25000000  0.71950038  1
  Ca  Ca2  1  0.50950856  0.25000000  0.21950038  1
  Ca  Ca3  1  0.00950856  0.75000000  0.28049962  1
  Ca  Ca4  1  0.50000000  0.50000000  0.50000000  1
  Ca  Ca5  1  0.00000000  0.50000000  -0.00000000  1
  Ca  Ca6  1  0.50000000  0.00000000  0.50000000  1
  Ca  Ca7  1  0.00000000  0.00000000  -0.00000000  1
  Si  Si0  1  0.92726151  0.75000000  0.59622558  1
  Si  Si1  1  0.42726151  0.25000000  0.90377442  1
  Si  Si2  1  0.07273849  0.25000000  0.40377442  1
  Si  Si3  1  0.57273849  0.75000000  0.09622558  1
  O  O0  1  0.20304126  0.44456001  0.33801316  1
  O  O1  1  0.70304126  0.55543999  0.16198684  1
  O  O2  1  0.79695874  0.94456001  0.66198684  1
  O  O3  1  0.29695874  0.05543999  0.83801316  1
  O  O4  1  0.79695874  0.55543999  0.66198684  1
  O  O5  1  0.29695874  0.44456001  0.83801316  1
  O  O6  1  0.20304126  0.05543999  0.33801316  1
  O  O7  1  0.70304126  0.94456001  0.16198684  1
  O  O8  1  0.79784059  0.75000000  0.46091837  1
  O  O9  1  0.29784059  0.25000000  0.03908163  1
  O  O10  1  0.20215941  0.25000000  0.53908163  1
  O  O11  1  0.70215941  0.75000000  0.96091837  1
  O  O12  1  0.25303831  0.75000000  0.09292389  1
  O  O13  1  0.75303831  0.25000000  0.40707611  1
  O  O14  1  0.74696169  0.25000000  0.90707611  1
  O  O15  1  0.24696169  0.75000000  0.59292389  1
loop_
_geom_bond_atom_site_label_1
_geom_bond_atom_site_label_2
_geom_bond_distance
_geom_bond_site_symmetry_2
Ca0 O11 2.295623 1_555
Ca0 O5 2.375584 1_555
Ca0 O3 2.375584 1_565
Ca0 O4 2.435408 1_555
Ca0 O2 2.435408 1_555
Ca0 O15 2.444952 1_555
Ca1 O10 2.295623 1_655
Ca1 O2 2.375584 1_545
Ca1 O4 2.375584 1_555
Ca1 O3 2.435408 1_655
Ca1 O5 2.435408 1_655
Ca1 O14 2.444952 1_555
Ca2 O9 2.295623 1_555
Ca2 O1 2.375584 1_555
Ca2 O7 2.375584 1_545
Ca2 O0 2.435408 1_555
Ca2 O6 2.435408 1_555
Ca2 O13 2.444952 1_555
Ca3 O8 2.295623 1_455
Ca3 O6 2.375584 1_565
Ca3 O0 2.375584 1_555
Ca3 O1 2.435408 1_455
Ca3 O7 2.435408 1_455
Ca3 O12 2.444952 1_555
Ca4 O8 2.310853 1_555
Ca4 O10 2.310853 1_555
Ca4 O13 2.366189 1_555
Ca4 O15 2.366189 1_555
Ca4 O4 2.394954 1_555
Ca4 O0 2.394954 1_555
Ca5 O11 2.310853 1_454
Ca5 O9 2.310853 1_555
Ca5 O12 2.366189 1_555
Ca5 O14 2.366189 1_454
Ca5 O5 2.394954 1_554
Ca5 O1 2.394954 1_455
Ca6 O10 2.310853 1_555
Ca6 O8 2.310853 1_545
Ca6 O13 2.366189 1_555
Ca6 O15 2.366189 1_545
Ca6 O2 2.394954 1_545
Ca6 O6 2.394954 1_555
Ca7 O11 2.310853 1_444
Ca7 O9 2.310853 1_555
Ca7 O12 2.366189 1_545
Ca7 O14 2.366189 1_454
Ca7 O3 2.394954 1_554
Ca7 O7 2.394954 1_445
O0 Si2 1.646969 1_555
O1 Si3 1.646969 1_555
O2 Si0 1.646969 1_555
O3 Si1 1.646969 1_555
O4 Si0 1.646969 1_555
O5 Si1 1.646969 1_555
O6 Si2 1.646969 1_555
O7 Si3 1.646969 1_555
O8 Si0 1.656908 1_555
O9 Si1 1.656908 1_554
O10 Si2 1.656908 1_555
O11 Si3 1.656908 1_556
O12 Si3 1.626775 1_555
O13 Si2 1.626775 1_655
O14 Si1 1.626775 1_555
O15 Si0 1.626775 1_455
