# generated using pymatgen
data_Na3Ti2P2O10F
_symmetry_space_group_name_H-M   'P 1'
_cell_length_a   7.08005847
_cell_length_b   7.07016057
_cell_length_c   6.49329275
_cell_angle_alpha   62.76258337
_cell_angle_beta   62.60738515
_cell_angle_gamma   54.63003148
_symmetry_Int_Tables_number   1
_chemical_formula_structural   Na3Ti2P2O10F
_chemical_formula_sum   'Na3 Ti2 P2 O10 F1'
_cell_volume   226.95778922
_cell_formula_units_Z   1
loop_
 _symmetry_equiv_pos_site_id
 _symmetry_equiv_pos_as_xyz
  1  'x, y, z'
loop_
 _atom_site_type_symbol
 _atom_site_label
 _atom_site_symmetry_multiplicity
 _atom_site_fract_x
 _atom_site_fract_y
 _atom_site_fract_z
 _atom_site_occupancy
  Na  Na0  1  0.70201900  0.29798100  0.26105300  1
  Na  Na1  1  0.73619700  0.26380300  0.73619700  1
  Na  Na2  1  0.26105300  0.73894700  0.70201900  1
  Ti  Ti0  1  0.20837800  0.19123300  0.80876700  1
  Ti  Ti1  1  0.80876700  0.79162200  0.20837800  1
  P  P0  1  0.74879000  0.75121000  0.74879000  1
  P  P1  1  0.24879000  0.25121000  0.24879000  1
  O  O0  1  0.83249800  0.84373900  0.47086200  1
  O  O1  1  0.47086200  0.85290000  0.83249800  1
  O  O2  1  0.85851400  0.47360100  0.83193300  1
  O  O3  1  0.37730400  0.33814700  0.66185300  1
  O  O4  1  0.83193300  0.83595200  0.85851400  1
  O  O5  1  0.15626100  0.16750200  0.14710000  1
  O  O6  1  0.66185300  0.62269600  0.37730400  1
  O  O7  1  0.14710000  0.52913800  0.15626100  1
  O  O8  1  0.52639900  0.14148600  0.16404900  1
  O  O9  1  0.16404900  0.16806700  0.52639900  1
  F  F0  1  0.99001400  0.00998600  0.99001400  1
loop_
_geom_bond_atom_site_label_1
_geom_bond_atom_site_label_2
_geom_bond_distance
_geom_bond_site_symmetry_2
Na0 O8 2.473525 1_555
Na0 O2 2.473529 1_554
Na0 O3 2.560126 1_555
Na0 O6 2.560126 1_555
Na0 O0 2.596525 1_545
Na0 O5 2.596526 1_655
Na1 O4 2.482572 1_545
Na1 O2 2.482572 1_555
Na1 O8 2.482577 1_556
Na1 O9 2.482578 1_655
Na1 O6 2.513190 1_555
Na1 O3 2.513190 1_555
Na2 O4 2.473529 1_455
Na2 O9 2.473531 1_565
Na2 O6 2.560126 1_555
Na2 O3 2.560126 1_555
Na2 O1 2.596520 1_555
Na2 O7 2.596524 1_556
O0 P0 1.555653 1_555
O0 Ti1 1.994738 1_555
O1 P0 1.555654 1_555
O1 Ti0 1.994742 1_565
O2 P0 1.548569 1_555
O2 Ti0 2.085898 1_655
O3 Ti0 1.703151 1_555
O4 P0 1.548569 1_555
O4 Ti1 2.085898 1_556
O5 P1 1.555648 1_555
O5 Ti0 1.994744 1_554
O6 Ti1 1.703151 1_555
O7 P1 1.555653 1_555
O7 Ti1 1.994742 1_455
O8 P1 1.548569 1_555
O8 Ti1 2.085897 1_545
O9 P1 1.548569 1_555
O9 Ti0 2.085893 1_555
F0 Ti1 2.157835 1_546
F0 Ti0 2.157835 1_655
F0 Na1 2.334645 1_555
F0 Na2 2.563697 1_645
F0 Na0 2.563697 1_556
