# generated using pymatgen
data_ZrSiSe
_symmetry_space_group_name_H-M   'P 1'
_cell_length_a   3.60435103
_cell_length_b   3.60435103
_cell_length_c   8.66088215
_cell_angle_alpha   90.00000000
_cell_angle_beta   90.00000000
_cell_angle_gamma   90.00000000
_symmetry_Int_Tables_number   1
_chemical_formula_structural   ZrSiSe
_chemical_formula_sum   'Zr2 Si2 Se2'
_cell_volume   112.51651969
_cell_formula_units_Z   2
loop_
 _symmetry_equiv_pos_site_id
 _symmetry_equiv_pos_as_xyz
  1  'x, y, z'
loop_
 _atom_site_type_symbol
 _atom_site_label
 _atom_site_symmetry_multiplicity
 _atom_site_fract_x
 _atom_site_fract_y
 _atom_site_fract_z
 _atom_site_occupancy
  Zr  Zr0  1  0.75000000  0.75000000  0.75085212  1
  Zr  Zr1  1  0.25000000  0.25000000  0.24914788  1
  Si  Si0  1  0.75000000  0.25000000  -0.00000000  1
  Si  Si1  1  0.25000000  0.75000000  -0.00000000  1
  Se  Se0  1  0.25000000  0.25000000  0.62929942  1
  Se  Se1  1  0.75000000  0.75000000  0.37070058  1
loop_
_geom_bond_atom_site_label_1
_geom_bond_atom_site_label_2
_geom_bond_distance
_geom_bond_site_symmetry_2
Si0 Si1 2.548661 1_555
Si0 Si1 2.548661 1_545
Si0 Si1 2.548661 1_655
Si0 Si1 2.548661 1_645
Si0 Zr0 2.811425 1_554
Si0 Zr1 2.811425 1_555
Si0 Zr0 2.811425 1_544
Si0 Zr1 2.811425 1_655
Si1 Zr0 2.811425 1_554
Si1 Zr1 2.811425 1_555
Si1 Zr0 2.811425 1_454
Si1 Zr1 2.811425 1_565
Se0 Zr0 2.757528 1_545
Se0 Zr0 2.757528 1_555
Se0 Zr0 2.757528 1_455
Se0 Zr0 2.757528 1_445
Se0 Zr1 3.292448 1_555
Se1 Zr1 2.757528 1_565
Se1 Zr1 2.757528 1_655
Se1 Zr1 2.757528 1_665
Se1 Zr1 2.757528 1_555
Se1 Zr0 3.292448 1_555
