# generated using pymatgen
data_ScCuO2
_symmetry_space_group_name_H-M   'P 1'
_cell_length_a   5.98617589
_cell_length_b   5.98617679
_cell_length_c   5.98617525
_cell_angle_alpha   31.23584853
_cell_angle_beta   31.23582468
_cell_angle_gamma   31.23584369
_symmetry_Int_Tables_number   1
_chemical_formula_structural   ScCuO2
_chemical_formula_sum   'Sc1 Cu1 O2'
_cell_volume   51.19027908
_cell_formula_units_Z   1
loop_
 _symmetry_equiv_pos_site_id
 _symmetry_equiv_pos_as_xyz
  1  'x, y, z'
loop_
 _atom_site_type_symbol
 _atom_site_label
 _atom_site_symmetry_multiplicity
 _atom_site_fract_x
 _atom_site_fract_y
 _atom_site_fract_z
 _atom_site_occupancy
  Sc  Sc0  1  0.50000000  0.50000000  0.50000000  1
  Cu  Cu0  1  -0.00000000  -0.00000000  -0.00000000  1
  O  O0  1  0.89317000  0.89317000  0.89317000  1
  O  O1  1  0.10682900  0.10682900  0.10682900  1
loop_
_geom_bond_atom_site_label_1
_geom_bond_atom_site_label_2
_geom_bond_distance
_geom_bond_site_symmetry_2
Cu0 O1 1.823435 1_555
Cu0 O0 1.823452 1_444
O0 Sc0 2.122769 1_655
O0 Sc0 2.122770 1_556
O0 Sc0 2.122771 1_565
O1 Sc0 2.122778 1_455
O1 Sc0 2.122778 1_554
O1 Sc0 2.122779 1_545
