# generated using pymatgen
data_Nb3Co4B7
_symmetry_space_group_name_H-M   'P 1'
_cell_length_a   9.30155421
_cell_length_b   9.30155421
_cell_length_c   8.85734029
_cell_angle_alpha   90.00000000
_cell_angle_beta   90.00000000
_cell_angle_gamma   160.23655087
_symmetry_Int_Tables_number   1
_chemical_formula_structural   Nb3Co4B7
_chemical_formula_sum   'Nb6 Co8 B14'
_cell_volume   259.12414423
_cell_formula_units_Z   2
loop_
 _symmetry_equiv_pos_site_id
 _symmetry_equiv_pos_as_xyz
  1  'x, y, z'
loop_
 _atom_site_type_symbol
 _atom_site_label
 _atom_site_symmetry_multiplicity
 _atom_site_fract_x
 _atom_site_fract_y
 _atom_site_fract_z
 _atom_site_occupancy
  Nb  Nb0  1  0.69830748  0.30169252  0.25000000  1
  Nb  Nb1  1  0.30169252  0.69830748  0.75000000  1
  Nb  Nb2  1  0.58087902  0.41912098  0.55501862  1
  Nb  Nb3  1  0.41912098  0.58087902  0.44498138  1
  Nb  Nb4  1  0.41912098  0.58087902  0.05501862  1
  Nb  Nb5  1  0.58087902  0.41912098  0.94498138  1
  Co  Co0  1  0.54198033  0.45801967  0.25000000  1
  Co  Co1  1  0.45801967  0.54198033  0.75000000  1
  Co  Co2  1  0.84359447  0.15640553  0.25000000  1
  Co  Co3  1  0.15640553  0.84359447  0.75000000  1
  Co  Co4  1  0.80077066  0.19922934  0.50539515  1
  Co  Co5  1  0.19922934  0.80077066  0.49460485  1
  Co  Co6  1  0.19922934  0.80077066  0.00539515  1
  Co  Co7  1  0.80077066  0.19922934  0.99460485  1
  B  B0  1  0.95497570  0.04502430  0.25000000  1
  B  B1  1  0.04502430  0.95497570  0.75000000  1
  B  B2  1  0.89009804  0.10990196  0.64766643  1
  B  B3  1  0.10990196  0.89009804  0.35233357  1
  B  B4  1  0.10990196  0.89009804  0.14766643  1
  B  B5  1  0.89009804  0.10990196  0.85233357  1
  B  B6  1  0.71012475  0.28987525  0.64440072  1
  B  B7  1  0.28987525  0.71012475  0.35559928  1
  B  B8  1  0.28987525  0.71012475  0.14440072  1
  B  B9  1  0.71012475  0.28987525  0.85559928  1
  B  B10  1  0.98443494  0.01556506  0.59349505  1
  B  B11  1  0.01556506  0.98443494  0.40650495  1
  B  B12  1  0.01556506  0.98443494  0.09349505  1
  B  B13  1  0.98443494  0.01556506  0.90650495  1
loop_
_geom_bond_atom_site_label_1
_geom_bond_atom_site_label_2
_geom_bond_distance
_geom_bond_site_symmetry_2
B0 B11 1.776133 1_645
B0 B12 1.776133 1_645
B0 Co2 2.041297 1_555
B0 Co0 2.256257 1_655
B0 Co0 2.256257 1_545
B0 Nb3 2.441825 1_545
B0 Nb4 2.441825 1_545
B0 Nb4 2.441825 1_655
B0 Nb3 2.441825 1_655
B1 B10 1.776133 1_465
B1 B13 1.776133 1_465
B1 Co3 2.041297 1_555
B1 Co1 2.256257 1_565
B1 Co1 2.256257 1_455
B1 Nb2 2.441825 1_565
B1 Nb5 2.441825 1_455
B1 Nb2 2.441825 1_455
B1 Nb5 2.441825 1_565
B2 B5 1.812807 1_555
B2 Co4 2.065939 1_555
B2 Co1 2.217936 1_545
B2 Co1 2.217936 1_655
B2 Nb1 2.448428 1_655
B2 Nb1 2.448428 1_545
B2 Nb3 2.460483 1_545
B2 Nb3 2.460483 1_655
B3 B4 1.812807 1_555
B3 Co5 2.065939 1_555
B3 Co0 2.217936 1_455
B3 Co0 2.217936 1_565
B3 Nb0 2.448428 1_565
B3 Nb0 2.448428 1_455
B3 Nb2 2.460483 1_455
B3 Nb2 2.460483 1_565
B4 Co6 2.065939 1_555
B4 Co0 2.217936 1_455
B4 Co0 2.217936 1_565
B4 Nb0 2.448428 1_565
B4 Nb0 2.448428 1_455
B4 Nb5 2.460483 1_564
B4 Nb5 2.460483 1_454
B5 Co7 2.065939 1_555
B5 Co1 2.217936 1_545
B5 Co1 2.217936 1_655
B5 Nb1 2.448428 1_655
B5 Nb1 2.448428 1_545
B5 Nb4 2.460483 1_656
B5 Nb4 2.460483 1_546
B6 B9 1.870658 1_555
B6 Co4 2.067788 1_555
B6 Co5 2.085277 1_545
B6 Co5 2.085277 1_655
B6 Co3 2.095768 1_545
B6 Co3 2.095768 1_655
B6 Nb2 2.497502 1_555
B6 Nb1 2.497845 1_545
B6 Nb1 2.497845 1_655
B7 B8 1.870658 1_555
B7 Co5 2.067788 1_555
B7 Co4 2.085277 1_455
B7 Co4 2.085277 1_565
B7 Co2 2.095768 1_455
B7 Co2 2.095768 1_565
B7 Nb3 2.497502 1_555
B7 Nb0 2.497845 1_455
B7 Nb0 2.497845 1_565
B8 Co6 2.067788 1_555
B8 Co7 2.085277 1_454
B8 Co7 2.085277 1_564
B8 Co2 2.095768 1_455
B8 Co2 2.095768 1_565
B8 Nb4 2.497502 1_555
B8 Nb0 2.497845 1_455
B8 Nb0 2.497845 1_565
B9 Co7 2.067788 1_555
B9 Co6 2.085277 1_546
B9 Co6 2.085277 1_656
B9 Co3 2.095768 1_545
B9 Co3 2.095768 1_655
B9 Nb5 2.497502 1_555
B9 Nb1 2.497845 1_545
B9 Nb1 2.497845 1_655
B10 B11 1.751746 1_645
B10 B2 1.794268 1_555
B10 Co1 2.168892 1_655
B10 Co1 2.168892 1_545
B10 Nb3 2.389842 1_545
B10 Nb3 2.389842 1_655
B10 Nb2 2.405925 1_545
B10 Nb2 2.405925 1_655
B11 B3 1.794268 1_555
B11 Co0 2.168892 1_455
B11 Co0 2.168892 1_565
B11 Nb2 2.389842 1_455
B11 Nb2 2.389842 1_565
B11 Nb3 2.405925 1_455
B11 Nb3 2.405925 1_565
B12 B13 1.751746 1_464
B12 B4 1.794268 1_555
B12 Co0 2.168892 1_455
B12 Co0 2.168892 1_565
B12 Nb5 2.389842 1_564
B12 Nb5 2.389842 1_454
B12 Nb4 2.405925 1_565
B12 Nb4 2.405925 1_455
B13 B5 1.794268 1_555
B13 Co1 2.168892 1_655
B13 Co1 2.168892 1_545
B13 Nb4 2.389842 1_546
B13 Nb4 2.389842 1_656
B13 Nb5 2.405925 1_545
B13 Nb5 2.405925 1_655
