# generated using pymatgen
data_Li4TeO5
_symmetry_space_group_name_H-M   'P 1'
_cell_length_a   5.08465933
_cell_length_b   5.14222787
_cell_length_c   7.72468069
_cell_angle_alpha   107.71844402
_cell_angle_beta   102.02532547
_cell_angle_gamma   101.66717708
_symmetry_Int_Tables_number   1
_chemical_formula_structural   Li4TeO5
_chemical_formula_sum   'Li8 Te2 O10'
_cell_volume   180.35983354
_cell_formula_units_Z   2
loop_
 _symmetry_equiv_pos_site_id
 _symmetry_equiv_pos_as_xyz
  1  'x, y, z'
loop_
 _atom_site_type_symbol
 _atom_site_label
 _atom_site_symmetry_multiplicity
 _atom_site_fract_x
 _atom_site_fract_y
 _atom_site_fract_z
 _atom_site_occupancy
  Li  Li0  1  0.42646130  0.80460678  0.31956461  1
  Li  Li1  1  0.57353870  0.19539322  0.68043539  1
  Li  Li2  1  -0.00000000  -0.00000000  0.50000000  1
  Li  Li3  1  0.50000000  -0.00000000  -0.00000000  1
  Li  Li4  1  0.22970857  0.39446713  0.88784684  1
  Li  Li5  1  0.77029143  0.60553287  0.11215316  1
  Li  Li6  1  0.29618315  0.61451636  0.60385483  1
  Li  Li7  1  0.70381685  0.38548364  0.39614517  1
  Te  Te0  1  0.89101632  0.78899673  0.78776195  1
  Te  Te1  1  0.10898368  0.21100327  0.21223805  1
  O  O0  1  0.57492733  0.61003426  0.84700174  1
  O  O1  1  0.42507267  0.38996574  0.15299826  1
  O  O2  1  0.05115830  0.56314896  0.33109817  1
  O  O3  1  0.94884170  0.43685104  0.66890183  1
  O  O4  1  0.13223576  0.83060987  0.04404533  1
  O  O5  1  0.86776424  0.16939013  0.95595467  1
  O  O6  1  0.21957208  0.99015024  0.75068676  1
  O  O7  1  0.78042792  0.00984976  0.24931324  1
  O  O8  1  0.33690207  0.18320271  0.42824307  1
  O  O9  1  0.66309793  0.81679729  0.57175693  1
loop_
_geom_bond_atom_site_label_1
_geom_bond_atom_site_label_2
_geom_bond_distance
_geom_bond_site_symmetry_2
Li0 O9 2.040888 1_555
Li0 O8 2.055560 1_565
Li0 O2 2.090698 1_555
Li0 O1 2.126506 1_555
Li0 O7 2.152899 1_565
Li0 O4 2.390198 1_555
Li1 O8 2.040888 1_555
Li1 O9 2.055560 1_545
Li1 O3 2.090698 1_555
Li1 O0 2.126506 1_555
Li1 O6 2.152899 1_545
Li1 O5 2.390198 1_555
Li2 O7 2.044667 1_455
Li2 O6 2.044667 1_545
Li2 O8 2.046955 1_555
Li2 O9 2.046955 1_445
Li2 O2 2.325936 1_545
Li2 O3 2.325936 1_455
Li3 O5 2.039100 1_554
Li3 O4 2.039100 1_545
Li3 O6 2.124106 1_544
Li3 O7 2.124106 1_555
Li3 O1 2.148767 1_555
Li3 O0 2.148767 1_544
Li4 O6 2.010208 1_545
Li4 O0 2.016469 1_555
Li4 O3 2.071532 1_455
Li4 O1 2.091130 1_556
Li4 O5 2.217181 1_455
Li4 O4 2.404789 1_556
Li5 O7 2.010208 1_565
Li5 O1 2.016469 1_555
Li5 O2 2.071532 1_655
Li5 O0 2.091130 1_554
Li5 O4 2.217181 1_655
Li5 O5 2.404789 1_554
Li6 O9 2.046680 1_555
Li6 O3 2.050094 1_455
Li6 O6 2.079464 1_555
Li6 O0 2.113622 1_555
Li6 O2 2.120277 1_555
Li6 O8 2.296441 1_555
Li7 O8 2.046680 1_555
Li7 O2 2.050094 1_655
Li7 O7 2.079464 1_555
Li7 O1 2.113622 1_555
Li7 O3 2.120277 1_555
Li7 O9 2.296441 1_555
O0 Te0 1.898416 1_555
O1 Te1 1.898416 1_555
O2 Te1 1.877322 1_555
O3 Te0 1.877322 1_555
O4 Te0 2.023263 1_454
O4 Te1 2.034415 1_565
O5 Te1 2.023263 1_656
O5 Te0 2.034415 1_545
O6 Te0 1.903580 1_455
O7 Te1 1.903580 1_655
O8 Te1 1.885215 1_555
O9 Te0 1.885215 1_555
