# generated using pymatgen
data_KErS2
_symmetry_space_group_name_H-M   'P 1'
_cell_length_a   7.66243672
_cell_length_b   7.66243672
_cell_length_c   7.66243639
_cell_angle_alpha   30.21634127
_cell_angle_beta   30.21634127
_cell_angle_gamma   30.21634696
_symmetry_Int_Tables_number   1
_chemical_formula_structural   KErS2
_chemical_formula_sum   'K1 Er1 S2'
_cell_volume   100.96323018
_cell_formula_units_Z   1
loop_
 _symmetry_equiv_pos_site_id
 _symmetry_equiv_pos_as_xyz
  1  'x, y, z'
loop_
 _atom_site_type_symbol
 _atom_site_label
 _atom_site_symmetry_multiplicity
 _atom_site_fract_x
 _atom_site_fract_y
 _atom_site_fract_z
 _atom_site_occupancy
  K  K0  1  0.50000000  0.50000000  0.50000000  1
  Er  Er0  1  0.00000000  0.00000000  -0.00000000  1
  S  S0  1  0.73370096  0.73370096  0.73370096  1
  S  S1  1  0.26629904  0.26629904  0.26629904  1
loop_
_geom_bond_atom_site_label_1
_geom_bond_atom_site_label_2
_geom_bond_distance
_geom_bond_site_symmetry_2
K0 S0 3.176228 1_554
K0 S1 3.176228 1_556
K0 S0 3.176229 1_455
K0 S0 3.176229 1_545
K0 S1 3.176229 1_565
K0 S1 3.176229 1_655
Er0 S1 2.734516 1_554
Er0 S0 2.734516 1_445
Er0 S1 2.734516 1_545
Er0 S1 2.734516 1_455
Er0 S0 2.734516 1_454
Er0 S0 2.734516 1_544
