# generated using pymatgen
data_ErCo3
_symmetry_space_group_name_H-M   'P 1'
_cell_length_a   8.48348419
_cell_length_b   8.48348357
_cell_length_c   8.48348493
_cell_angle_alpha   34.09992198
_cell_angle_beta   34.09993473
_cell_angle_gamma   34.09989482
_symmetry_Int_Tables_number   1
_chemical_formula_structural   ErCo3
_chemical_formula_sum   'Er3 Co9'
_cell_volume   171.08850620
_cell_formula_units_Z   3
loop_
 _symmetry_equiv_pos_site_id
 _symmetry_equiv_pos_as_xyz
  1  'x, y, z'
loop_
 _atom_site_type_symbol
 _atom_site_label
 _atom_site_symmetry_multiplicity
 _atom_site_fract_x
 _atom_site_fract_y
 _atom_site_fract_z
 _atom_site_occupancy
  Er  Er0  1  0.85823135  0.85823135  0.85823135  1
  Er  Er1  1  0.14176865  0.14176865  0.14176865  1
  Er  Er2  1  -0.00000000  -0.00000000  0.00000000  1
  Co  Co0  1  0.42430942  0.90851571  0.42430942  1
  Co  Co1  1  0.32871384  0.32871584  0.32871684  1
  Co  Co2  1  0.67128616  0.67128416  0.67128316  1
  Co  Co3  1  0.57569058  0.57569058  0.09148429  1
  Co  Co4  1  0.57569058  0.09148429  0.57569058  1
  Co  Co5  1  0.42430942  0.42430942  0.90851571  1
  Co  Co6  1  0.09148429  0.57569058  0.57569058  1
  Co  Co7  1  0.90851571  0.42430942  0.42430942  1
  Co  Co8  1  0.50000000  0.50000000  0.50000000  1
loop_
_geom_bond_atom_site_label_1
_geom_bond_atom_site_label_2
_geom_bond_distance
_geom_bond_site_symmetry_2
Co0 Co1 2.353004 1_565
Co0 Co7 2.408831 1_555
Co0 Co5 2.408833 1_555
Co0 Co2 2.476610 1_555
Co0 Co8 2.479355 1_555
Co0 Co7 2.565973 1_465
Co0 Co5 2.565975 1_564
Co0 Er0 2.882730 1_455
Co0 Er0 2.882730 1_554
Co0 Er1 3.034956 1_565
Co0 Er2 3.153993 1_566
Co0 Er2 3.153993 1_665
Co1 Co7 2.352999 1_455
Co1 Co5 2.353008 1_554
Co1 Co6 2.476606 1_555
Co1 Co4 2.476610 1_555
Co1 Co3 2.476614 1_555
Co1 Er2 2.874331 1_556
Co1 Er2 2.874331 1_565
Co1 Er2 2.874341 1_655
Co2 Co6 2.352999 1_655
Co2 Co4 2.353004 1_565
Co2 Co3 2.353008 1_556
Co2 Co7 2.476606 1_555
Co2 Co5 2.476614 1_555
Co2 Er2 2.874331 1_665
Co2 Er2 2.874331 1_656
Co2 Er2 2.874341 1_566
Co3 Co4 2.408833 1_555
Co3 Co6 2.408834 1_555
Co3 Co8 2.479356 1_555
Co3 Co4 2.565975 1_564
Co3 Co6 2.565976 1_654
Co3 Er1 2.882727 1_565
Co3 Er1 2.882727 1_655
Co3 Er0 3.034956 1_554
Co3 Er2 3.153991 1_655
Co3 Er2 3.153991 1_565
Co4 Co6 2.408831 1_555
Co4 Co8 2.479355 1_555
Co4 Co6 2.565973 1_645
Co4 Er1 2.882730 1_655
Co4 Er1 2.882730 1_556
Co4 Er0 3.034956 1_545
Co4 Er2 3.153993 1_655
Co4 Er2 3.153993 1_556
Co5 Co7 2.408834 1_555
Co5 Co8 2.479356 1_555
Co5 Co7 2.565976 1_456
Co5 Er0 2.882727 1_545
Co5 Er0 2.882727 1_455
Co5 Er1 3.034956 1_556
Co5 Er2 3.153991 1_566
Co5 Er2 3.153991 1_656
Co6 Co8 2.479356 1_555
Co6 Er1 2.882729 1_565
Co6 Er1 2.882729 1_556
Co6 Er0 3.034956 1_455
Co6 Er2 3.153993 1_556
Co6 Er2 3.153993 1_565
Co7 Co8 2.479356 1_555
Co7 Er0 2.882729 1_545
Co7 Er0 2.882729 1_554
Co7 Er1 3.034956 1_655
Co7 Er2 3.153993 1_665
Co7 Er2 3.153993 1_656
Co8 Er1 2.933439 1_565
Co8 Er0 2.933439 1_545
Co8 Er0 2.933441 1_455
Co8 Er1 2.933441 1_655
Co8 Er1 2.933443 1_556
Co8 Er0 2.933443 1_554
