# generated using pymatgen
data_La2Sn2O7
_symmetry_space_group_name_H-M   'P 1'
_cell_length_a   7.58612373
_cell_length_b   7.58612373
_cell_length_c   7.58612373
_cell_angle_alpha   60.00000000
_cell_angle_beta   60.00000000
_cell_angle_gamma   60.00000000
_symmetry_Int_Tables_number   1
_chemical_formula_structural   La2Sn2O7
_chemical_formula_sum   'La4 Sn4 O14'
_cell_volume   308.70578423
_cell_formula_units_Z   2
loop_
 _symmetry_equiv_pos_site_id
 _symmetry_equiv_pos_as_xyz
  1  'x, y, z'
loop_
 _atom_site_type_symbol
 _atom_site_label
 _atom_site_symmetry_multiplicity
 _atom_site_fract_x
 _atom_site_fract_y
 _atom_site_fract_z
 _atom_site_occupancy
  La  La0  1  0.12500000  0.12500000  0.62500000  1
  La  La1  1  0.12500000  0.62500000  0.12500000  1
  La  La2  1  0.62500000  0.12500000  0.12500000  1
  La  La3  1  0.12500000  0.12500000  0.12500000  1
  Sn  Sn0  1  0.62500000  0.62500000  0.12500000  1
  Sn  Sn1  1  0.62500000  0.12500000  0.62500000  1
  Sn  Sn2  1  0.12500000  0.62500000  0.62500000  1
  Sn  Sn3  1  0.62500000  0.62500000  0.62500000  1
  O  O0  1  0.25000000  0.25000000  0.25000000  1
  O  O1  1  -0.00000000  -0.00000000  -0.00000000  1
  O  O2  1  0.54466290  0.95533710  0.54466290  1
  O  O3  1  0.29466290  0.70533710  0.29466290  1
  O  O4  1  0.54466290  0.54466290  0.95533710  1
  O  O5  1  0.95533710  0.54466290  0.54466290  1
  O  O6  1  0.54466290  0.95533710  0.95533710  1
  O  O7  1  0.95533710  0.95533710  0.54466290  1
  O  O8  1  0.95533710  0.54466290  0.95533710  1
  O  O9  1  0.70533710  0.29466290  0.29466290  1
  O  O10  1  0.29466290  0.70533710  0.70533710  1
  O  O11  1  0.70533710  0.29466290  0.70533710  1
  O  O12  1  0.29466290  0.29466290  0.70533710  1
  O  O13  1  0.70533710  0.70533710  0.29466290  1
loop_
_geom_bond_atom_site_label_1
_geom_bond_atom_site_label_2
_geom_bond_distance
_geom_bond_site_symmetry_2
La0 O1 2.322767 1_556
La0 O0 2.322767 1_555
La0 O12 2.628688 1_555
La0 O5 2.628688 1_455
La0 O2 2.628688 1_545
La0 O10 2.628688 1_545
La0 O11 2.628688 1_455
La0 O7 2.628688 1_445
La1 O1 2.322767 1_565
La1 O0 2.322767 1_555
La1 O3 2.628688 1_555
La1 O5 2.628688 1_455
La1 O4 2.628688 1_554
La1 O10 2.628688 1_554
La1 O13 2.628688 1_455
La1 O8 2.628688 1_454
La2 O1 2.322767 1_655
La2 O0 2.322767 1_555
La2 O9 2.628688 1_555
La2 O2 2.628688 1_545
La2 O4 2.628688 1_554
La2 O11 2.628688 1_554
La2 O13 2.628688 1_545
La2 O6 2.628688 1_544
La3 O1 2.322767 1_555
La3 O0 2.322767 1_555
La3 O7 2.628688 1_445
La3 O6 2.628688 1_544
La3 O8 2.628688 1_454
La3 O3 2.628688 1_545
La3 O9 2.628688 1_455
La3 O12 2.628688 1_554
O2 Sn3 2.083190 1_555
O2 Sn1 2.083190 1_565
O3 Sn2 2.083190 1_555
O3 Sn0 2.083190 1_555
O4 Sn3 2.083190 1_555
O4 Sn0 2.083190 1_556
O5 Sn3 2.083190 1_555
O5 Sn2 2.083190 1_655
O6 Sn0 2.083190 1_556
O6 Sn1 2.083190 1_565
O7 Sn2 2.083190 1_655
O7 Sn1 2.083190 1_565
O8 Sn0 2.083190 1_556
O8 Sn2 2.083190 1_655
O9 Sn0 2.083190 1_555
O9 Sn1 2.083190 1_555
O10 Sn2 2.083190 1_555
O10 Sn3 2.083190 1_555
O11 Sn1 2.083190 1_555
O11 Sn3 2.083190 1_555
O12 Sn2 2.083190 1_555
O12 Sn1 2.083190 1_555
O13 Sn0 2.083190 1_555
O13 Sn3 2.083190 1_555
