# generated using pymatgen
data_Li2B4O7
_symmetry_space_group_name_H-M   'P 1'
_cell_length_a   8.48278628
_cell_length_b   8.48278339
_cell_length_c   8.48270116
_cell_angle_alpha   112.30378925
_cell_angle_beta   112.30376023
_cell_angle_gamma   103.94282900
_symmetry_Int_Tables_number   1
_chemical_formula_structural   Li2B4O7
_chemical_formula_sum   'Li8 B16 O28'
_cell_volume   466.64867876
_cell_formula_units_Z   4
loop_
 _symmetry_equiv_pos_site_id
 _symmetry_equiv_pos_as_xyz
  1  'x, y, z'
loop_
 _atom_site_type_symbol
 _atom_site_label
 _atom_site_symmetry_multiplicity
 _atom_site_fract_x
 _atom_site_fract_y
 _atom_site_fract_z
 _atom_site_occupancy
  Li  Li0  1  -0.00007742  0.98429105  0.66618572  1
  Li  Li1  1  0.08380707  0.24989249  0.51560260  1
  Li  Li2  1  0.73426681  0.56809491  0.48434329  1
  Li  Li3  1  0.31818090  0.33378493  0.33389706  1
  Li  Li4  1  0.49989063  0.83380240  0.01559930  1
  Li  Li5  1  0.81809253  0.48426805  0.98434619  1
  Li  Li6  1  0.23429047  0.74992099  0.16618872  1
  Li  Li7  1  0.58377921  0.06817776  0.83389454  1
  B  B0  1  0.63288242  0.87933649  0.41717622  1
  B  B1  1  0.96570019  0.88287686  0.25353109  1
  B  B2  1  0.62934018  0.71217195  0.74645789  1
  B  B3  1  0.46216577  0.21569200  0.58282841  1
  B  B4  1  0.13287854  0.71570662  0.75353355  1
  B  B5  1  0.96217575  0.37934007  0.24645663  1
  B  B6  1  0.12933755  0.38288710  0.91717298  1
  B  B7  1  0.46569932  0.21216674  0.08283182  1
  B  B8  1  0.46847033  0.52908231  0.16506056  1
  B  B9  1  0.05341587  0.71847799  0.43939131  1
  B  B10  1  0.27908362  0.61402165  0.56060214  1
  B  B11  1  0.36401305  0.30341703  0.83494170  1
  B  B12  1  0.96848260  0.80342136  0.93939247  1
  B  B13  1  0.86402411  0.02908749  0.06060150  1
  B  B14  1  0.77908725  0.21847576  0.66506199  1
  B  B15  1  0.55342223  0.11401594  0.33494247  1
  O  O0  1  0.61817858  0.70100176  0.35570652  1
  O  O1  1  0.01247531  0.86818600  0.41717670  1
  O  O2  1  0.45101342  0.59529855  0.58282401  1
  O  O3  1  0.34529669  0.26247088  0.64429143  1
  O  O4  1  0.11819838  0.76248705  0.91718260  1
  O  O5  1  0.84530520  0.20102158  0.08282131  1
  O  O6  1  0.95101269  0.36818950  0.85571085  1
  O  O7  1  0.51247940  0.09530192  0.14428804  1
  O  O8  1  0.77145482  0.02473861  0.60915430  1
  O  O9  1  0.91229615  0.02144683  0.24670118  1
  O  O10  1  0.77474579  0.66558981  0.75328621  1
  O  O11  1  0.41558646  0.16228192  0.39084682  1
  O  O12  1  0.27143791  0.66228419  0.74669131  1
  O  O13  1  0.91558755  0.52474546  0.25329591  1
  O  O14  1  0.27474039  0.52144733  0.10915960  1
  O  O15  1  0.41226619  0.16557902  0.89083967  1
  O  O16  1  0.50997017  0.91159458  0.28565024  1
  O  O17  1  0.97431665  0.75996199  0.09836319  1
  O  O18  1  0.66159647  0.87595113  0.90162705  1
  O  O19  1  0.62594765  0.22431472  0.71435878  1
  O  O20  1  0.00996667  0.72433040  0.59837030  1
  O  O21  1  0.12595693  0.41159387  0.40162098  1
  O  O22  1  0.16159352  0.25997630  0.78564005  1
  O  O23  1  0.47432918  0.37595371  0.21436717  1
  O  O24  1  0.49589649  0.49589287  -0.00000012  1
  O  O25  1  0.24589611  0.74589677  0.49999055  1
  O  O26  1  0.99590130  0.99590182  -0.00000992  1
  O  O27  1  0.74589897  0.24590147  0.50000111  1
loop_
_geom_bond_atom_site_label_1
_geom_bond_atom_site_label_2
_geom_bond_distance
_geom_bond_site_symmetry_2
Li0 O8 1.960244 1_465
Li0 O22 1.994365 1_565
Li0 O1 2.021195 1_555
Li0 O20 2.089477 1_555
Li1 O9 1.960164 1_455
Li1 O21 1.994216 1_555
Li1 O3 2.020613 1_555
Li1 O22 2.089639 1_555
Li2 O10 1.960341 1_555
Li2 O20 1.994453 1_655
Li2 O0 2.021063 1_555
Li2 O23 2.089301 1_555
Li3 O11 1.960198 1_555
Li3 O23 1.994213 1_555
Li3 O2 2.020761 1_555
Li3 O21 2.089589 1_555
Li4 O12 1.960219 1_554
Li4 O18 1.994180 1_554
Li4 O7 2.020649 1_565
Li4 O16 2.089760 1_555
Li5 O13 1.960400 1_556
Li5 O17 1.994409 1_556
Li5 O6 2.021121 1_555
Li5 O19 2.089403 1_555
Li6 O14 1.960301 1_555
Li6 O16 1.994320 1_555
Li6 O4 2.021227 1_554
Li6 O17 2.089565 1_455
Li7 O15 1.960244 1_555
Li7 O19 1.994175 1_555
Li7 O5 2.020811 1_556
Li7 O18 2.089672 1_545
B0 O0 1.355326 1_555
B0 O8 1.370681 1_565
B0 O16 1.375868 1_555
B1 O1 1.355363 1_655
B1 O9 1.370645 1_565
B1 O17 1.375875 1_555
B2 O2 1.355309 1_555
B2 O10 1.370731 1_555
B2 O18 1.375850 1_555
B3 O3 1.355355 1_555
B3 O11 1.370678 1_555
B3 O19 1.375838 1_555
B4 O4 1.355337 1_555
B4 O12 1.370667 1_555
B4 O20 1.375876 1_555
B5 O5 1.355272 1_555
B5 O13 1.370738 1_555
B5 O21 1.375849 1_655
B6 O6 1.355269 1_455
B6 O14 1.370701 1_556
B6 O22 1.375884 1_555
B7 O7 1.355292 1_555
B7 O15 1.370709 1_554
B7 O23 1.375854 1_555
B8 O24 1.439947 1_555
B8 O0 1.453741 1_555
B8 O14 1.504533 1_555
B8 O23 1.514069 1_555
B9 O25 1.439945 1_555
B9 O1 1.453746 1_555
B9 O13 1.504553 1_455
B9 O20 1.514010 1_555
B10 O25 1.439963 1_555
B10 O2 1.453786 1_555
B10 O12 1.504518 1_555
B10 O21 1.514040 1_555
B11 O24 1.439927 1_556
B11 O3 1.453770 1_555
B11 O15 1.504549 1_555
B11 O22 1.513968 1_555
B12 O26 1.439948 1_556
B12 O4 1.453775 1_655
B12 O10 1.504606 1_555
B12 O17 1.514031 1_556
B13 O26 1.439975 1_545
B13 O5 1.453811 1_555
B13 O9 1.504573 1_555
B13 O18 1.514052 1_544
B14 O27 1.439948 1_555
B14 O6 1.453780 1_555
B14 O8 1.504592 1_555
B14 O19 1.514088 1_555
B15 O27 1.439936 1_555
B15 O7 1.453818 1_555
B15 O11 1.504595 1_555
B15 O16 1.513989 1_545
