# generated using pymatgen
data_Sm2As4O9
_symmetry_space_group_name_H-M   'P 1'
_cell_length_a   6.82574827
_cell_length_b   7.58545002
_cell_length_c   9.61435124
_cell_angle_alpha   96.14832566
_cell_angle_beta   103.98257997
_cell_angle_gamma   104.49197063
_symmetry_Int_Tables_number   1
_chemical_formula_structural   Sm2As4O9
_chemical_formula_sum   'Sm4 As8 O18'
_cell_volume   460.17785587
_cell_formula_units_Z   2
loop_
 _symmetry_equiv_pos_site_id
 _symmetry_equiv_pos_as_xyz
  1  'x, y, z'
loop_
 _atom_site_type_symbol
 _atom_site_label
 _atom_site_symmetry_multiplicity
 _atom_site_fract_x
 _atom_site_fract_y
 _atom_site_fract_z
 _atom_site_occupancy
  Sm  Sm0  1  0.24810706  0.94219359  0.61960628  1
  Sm  Sm1  1  0.75189294  0.05780641  0.38039372  1
  Sm  Sm2  1  0.72167108  0.53225697  0.40741352  1
  Sm  Sm3  1  0.27832892  0.46774303  0.59258648  1
  As  As0  1  0.67812008  0.77200075  0.06390156  1
  As  As1  1  0.32187992  0.22799925  0.93609844  1
  As  As2  1  0.17664331  0.75895330  0.91830128  1
  As  As3  1  0.82335669  0.24104670  0.08169872  1
  As  As4  1  0.74864984  0.92066093  0.71395228  1
  As  As5  1  0.25135016  0.07933907  0.28604772  1
  As  As6  1  0.80841793  0.35081974  0.70685241  1
  As  As7  1  0.19158207  0.64918026  0.29314759  1
  O  O0  1  0.72443091  0.74905109  0.24623493  1
  O  O1  1  0.27556909  0.25094891  0.75376507  1
  O  O2  1  0.31720700  0.98442221  0.88392147  1
  O  O3  1  0.68279300  0.01557779  0.11607853  1
  O  O4  1  0.60474677  0.31980562  0.99177145  1
  O  O5  1  0.39525323  0.68019438  0.00822855  1
  O  O6  1  0.13090818  0.66059485  0.73823289  1
  O  O7  1  0.86909182  0.33940515  0.26176711  1
  O  O8  1  0.84307959  0.87060089  0.56091896  1
  O  O9  1  0.15692041  0.12939911  0.43908104  1
  O  O10  1  0.49589490  0.77442286  0.67155860  1
  O  O11  1  0.50410510  0.22557714  0.32844140  1
  O  O12  1  0.37260013  0.53968189  0.37260090  1
  O  O13  1  0.62739987  0.46031811  0.62739910  1
  O  O14  1  0.09151014  0.66808937  0.44814509  1
  O  O15  1  0.90848986  0.33191063  0.55185491  1
  O  O16  1  0.36684754  0.89619967  0.35583757  1
  O  O17  1  0.63315246  0.10380033  0.64416243  1
loop_
_geom_bond_atom_site_label_1
_geom_bond_atom_site_label_2
_geom_bond_distance
_geom_bond_site_symmetry_2
As0 O0 1.740235 1_555
As0 O5 1.801985 1_555
As0 O3 1.852209 1_565
As1 O1 1.740235 1_555
As1 O4 1.801985 1_555
As1 O2 1.852209 1_545
As2 O6 1.731149 1_555
As2 O5 1.806758 1_556
As2 O2 1.846065 1_555
As3 O7 1.731149 1_555
As3 O4 1.806758 1_554
As3 O3 1.846065 1_555
As4 O10 1.725862 1_555
As4 O8 1.784804 1_555
As4 O17 1.869158 1_565
As5 O11 1.725862 1_555
As5 O9 1.784804 1_555
As5 O16 1.869158 1_545
As6 O13 1.730177 1_555
As6 O15 1.789694 1_555
As6 O17 1.895559 1_555
As7 O12 1.730177 1_555
As7 O14 1.789694 1_555
As7 O16 1.895559 1_555
O0 Sm2 2.377075 1_555
O0 Sm1 2.490057 1_565
O1 Sm3 2.377075 1_555
O1 Sm0 2.490057 1_545
O2 Sm0 2.440012 1_555
O3 Sm1 2.440012 1_555
O6 Sm3 2.468246 1_555
O6 Sm0 2.571185 1_555
O7 Sm2 2.468246 1_555
O7 Sm1 2.571185 1_555
O8 Sm1 2.421690 1_565
O8 Sm0 2.585634 1_655
O8 Sm2 2.642896 1_555
O9 Sm0 2.421690 1_545
O9 Sm1 2.585634 1_455
O9 Sm3 2.642896 1_555
O10 Sm0 2.352623 1_555
O10 Sm3 2.353993 1_555
O11 Sm1 2.352623 1_555
O11 Sm2 2.353993 1_555
O12 Sm2 2.340541 1_555
O12 Sm3 2.431935 1_555
O13 Sm3 2.340541 1_555
O13 Sm2 2.431935 1_555
O14 Sm0 2.342030 1_555
O14 Sm2 2.392019 1_455
O14 Sm3 2.535811 1_555
O15 Sm1 2.342030 1_555
O15 Sm3 2.392019 1_655
O15 Sm2 2.535811 1_555
O16 Sm1 2.547878 1_565
O16 Sm0 2.855698 1_555
O17 Sm0 2.547878 1_545
O17 Sm1 2.855698 1_555
