# generated using pymatgen
data_LiNi2P4H3O14
_symmetry_space_group_name_H-M   'P 1'
_cell_length_a   8.51811556
_cell_length_b   8.51811556
_cell_length_c   8.88551670
_cell_angle_alpha   69.21899282
_cell_angle_beta   69.21899282
_cell_angle_gamma   99.24313516
_symmetry_Int_Tables_number   1
_chemical_formula_structural   LiNi2P4H3O14
_chemical_formula_sum   'Li2 Ni4 P8 H6 O28'
_cell_volume   532.42882645
_cell_formula_units_Z   2
loop_
 _symmetry_equiv_pos_site_id
 _symmetry_equiv_pos_as_xyz
  1  'x, y, z'
loop_
 _atom_site_type_symbol
 _atom_site_label
 _atom_site_symmetry_multiplicity
 _atom_site_fract_x
 _atom_site_fract_y
 _atom_site_fract_z
 _atom_site_occupancy
  Li  Li0  1  0.36427800  0.64387100  0.74273000  1
  Li  Li1  1  0.64387100  0.36427800  0.24273000  1
  Ni  Ni0  1  0.50296300  0.00150800  0.00298600  1
  Ni  Ni1  1  0.40516800  0.59537400  0.25133000  1
  Ni  Ni2  1  0.59537400  0.40516800  0.75133000  1
  Ni  Ni3  1  0.00150800  0.50296300  0.50298600  1
  P  P0  1  0.28578800  0.85515800  0.43493400  1
  P  P1  1  0.67699700  0.76577000  0.81686800  1
  P  P2  1  0.14383000  0.72030500  0.07155800  1
  P  P3  1  0.76577000  0.67699700  0.31686800  1
  P  P4  1  0.23217100  0.32369500  0.68539200  1
  P  P5  1  0.85515800  0.28578800  0.93493400  1
  P  P6  1  0.32369500  0.23217100  0.18539200  1
  P  P7  1  0.72030500  0.14383000  0.57155800  1
  H  H0  1  0.02532000  0.52677100  0.99065200  1
  H  H1  1  0.73124100  0.94130600  0.20730200  1
  H  H2  1  0.94130600  0.73124100  0.70730200  1
  H  H3  1  0.06181700  0.26937300  0.28997400  1
  H  H4  1  0.26937300  0.06181700  0.78997400  1
  H  H5  1  0.52677100  0.02532000  0.49065200  1
  O  O0  1  0.27841700  0.90501400  0.96147600  1
  O  O1  1  0.73457200  0.94976300  0.64327600  1
  O  O2  1  0.57472100  0.78735700  0.98368100  1
  O  O3  1  0.38003700  0.86004900  0.55095200  1
  O  O4  1  0.14268300  0.62933000  0.94573600  1
  O  O5  1  0.85533500  0.74420900  0.81276000  1
  O  O6  1  0.09641100  0.72358300  0.54015100  1
  O  O7  1  0.39638600  0.83131500  0.26983500  1
  O  O8  1  0.74420900  0.85533500  0.31276000  1
  O  O9  1  0.56906100  0.62523400  0.79334100  1
  O  O10  1  0.16721000  0.60333900  0.23215200  1
  O  O11  1  0.94976300  0.73457200  0.14327600  1
  O  O12  1  0.78735700  0.57472100  0.48368100  1
  O  O13  1  0.37545700  0.43138700  0.70647600  1
  O  O14  1  0.62523400  0.56906100  0.29334100  1
  O  O15  1  0.21288100  0.42583900  0.51661500  1
  O  O16  1  0.04953300  0.26590900  0.85687400  1
  O  O17  1  0.83131500  0.39638600  0.76983500  1
  O  O18  1  0.43138700  0.37545700  0.20647600  1
  O  O19  1  0.25718800  0.14687300  0.68504800  1
  O  O20  1  0.60333900  0.16721000  0.73215200  1
  O  O21  1  0.90501400  0.27841700  0.46147600  1
  O  O22  1  0.14687300  0.25718800  0.18504800  1
  O  O23  1  0.86004900  0.38003700  0.05095200  1
  O  O24  1  0.62933000  0.14268300  0.44573600  1
  O  O25  1  0.42583900  0.21288100  0.01661500  1
  O  O26  1  0.26590900  0.04953300  0.35687500  1
  O  O27  1  0.72358300  0.09641100  0.04015100  1
loop_
_geom_bond_atom_site_label_1
_geom_bond_atom_site_label_2
_geom_bond_distance
_geom_bond_site_symmetry_2
Li0 O13 1.958606 1_555
Li0 O3 1.960691 1_555
Li0 O9 1.966008 1_555
Li0 O4 2.045072 1_555
Li1 O18 1.958606 1_555
Li1 O23 1.960691 1_555
Li1 O14 1.966008 1_555
Li1 O24 2.045072 1_555
Ni0 O7 2.039244 1_545
Ni0 O25 2.041152 1_555
Ni0 O2 2.058262 1_544
Ni0 O20 2.063131 1_554
Ni0 O27 2.106171 1_555
Ni0 O0 2.163509 1_544
Ni1 O14 2.067765 1_555
Ni1 O18 2.078200 1_555
Ni1 O7 2.084677 1_555
Ni1 O15 2.099902 1_555
Ni1 O10 2.103154 1_555
Ni1 O2 2.111946 1_554
Ni2 O9 2.067765 1_555
Ni2 O13 2.078200 1_555
Ni2 O17 2.084677 1_555
Ni2 O25 2.099902 1_556
Ni2 O20 2.103154 1_555
Ni2 O12 2.111946 1_555
Ni3 O17 2.039244 1_455
Ni3 O15 2.041152 1_555
Ni3 O12 2.058262 1_455
Ni3 O10 2.063131 1_555
Ni3 O6 2.106171 1_555
Ni3 O21 2.163509 1_455
H0 O4 1.053949 1_555
H0 O23 1.501830 1_456
H1 O8 1.019336 1_555
H1 O27 1.630868 1_565
H2 O5 1.019336 1_555
H2 O6 1.630868 1_655
H3 O22 1.009172 1_555
H3 O21 1.668596 1_455
H4 O19 1.009172 1_555
H4 O0 1.668596 1_545
H5 O24 1.053949 1_555
H5 O3 1.501830 1_545
O0 P2 1.509747 1_556
O1 P7 1.589192 1_565
O1 P1 1.605279 1_555
O2 P1 1.522608 1_555
O3 P0 1.521833 1_555
O4 P2 1.571821 1_556
O5 P1 1.548476 1_555
O6 P0 1.529018 1_555
O7 P0 1.540467 1_555
O8 P3 1.548476 1_555
O9 P1 1.510781 1_555
O10 P2 1.524829 1_555
O11 P2 1.589192 1_655
O11 P3 1.605279 1_555
O12 P3 1.522608 1_555
O13 P4 1.513540 1_555
O14 P3 1.510781 1_555
O15 P4 1.525755 1_555
O16 P4 1.588706 1_555
O16 P5 1.615437 1_455
O17 P5 1.540467 1_555
O18 P6 1.513540 1_555
O19 P4 1.555617 1_555
O20 P7 1.524829 1_555
O21 P7 1.509747 1_555
O22 P6 1.555617 1_555
O23 P5 1.521833 1_554
O24 P7 1.571821 1_555
O25 P6 1.525755 1_555
O26 P6 1.588710 1_555
O26 P0 1.615436 1_545
O27 P5 1.529018 1_554
