# generated using pymatgen
data_Rb2Mn3Se4
_symmetry_space_group_name_H-M   'P 1'
_cell_length_a   6.20456804
_cell_length_b   9.77110334
_cell_length_c   9.77075694
_cell_angle_alpha   74.70745640
_cell_angle_beta   71.49114183
_cell_angle_gamma   71.48508202
_symmetry_Int_Tables_number   1
_chemical_formula_structural   Rb2Mn3Se4
_chemical_formula_sum   'Rb4 Mn6 Se8'
_cell_volume   523.82503242
_cell_formula_units_Z   2
loop_
 _symmetry_equiv_pos_site_id
 _symmetry_equiv_pos_as_xyz
  1  'x, y, z'
loop_
 _atom_site_type_symbol
 _atom_site_label
 _atom_site_symmetry_multiplicity
 _atom_site_fract_x
 _atom_site_fract_y
 _atom_site_fract_z
 _atom_site_occupancy
  Rb  Rb0  1  0.23627767  0.12124953  0.87875047  1
  Rb  Rb1  1  0.73627625  0.37875000  0.62125000  1
  Rb  Rb2  1  0.26372375  0.62125000  0.37875000  1
  Rb  Rb3  1  0.76372233  0.87875047  0.12124953  1
  Mn  Mn0  1  0.24999664  0.52281232  0.97718385  1
  Mn  Mn1  1  0.25000719  0.97718385  0.52281232  1
  Mn  Mn2  1  0.75000336  0.47718768  0.02281615  1
  Mn  Mn3  1  0.75000043  0.74999957  0.74999957  1
  Mn  Mn4  1  0.24999957  0.25000043  0.25000043  1
  Mn  Mn5  1  0.74999281  0.02281615  0.47718768  1
  Se  Se0  1  0.36739883  0.22172620  0.48740115  1
  Se  Se1  1  0.57648539  0.27825581  0.01261334  1
  Se  Se2  1  0.13264646  0.01261334  0.27825581  1
  Se  Se3  1  0.92347182  0.48740115  0.22172620  1
  Se  Se4  1  0.63260117  0.77827380  0.51259885  1
  Se  Se5  1  0.42351461  0.72174419  0.98738666  1
  Se  Se6  1  0.86735354  0.98738666  0.72174419  1
  Se  Se7  1  0.07652818  0.51259885  0.77827380  1
loop_
_geom_bond_atom_site_label_1
_geom_bond_atom_site_label_2
_geom_bond_distance
_geom_bond_site_symmetry_2
Rb0 Se7 3.577563 1_555
Rb0 Se0 3.577563 1_555
Rb0 Se6 3.658939 1_545
Rb0 Se1 3.658944 1_556
Rb0 Se5 3.664907 1_545
Rb0 Se2 3.664907 1_556
Rb0 Se1 3.806989 1_456
Rb0 Se6 3.806994 1_445
Rb1 Se1 3.577721 1_556
Rb1 Se6 3.577721 1_545
Rb1 Se0 3.659169 1_655
Rb1 Se7 3.659179 1_655
Rb1 Se3 3.665104 1_555
Rb1 Se4 3.665105 1_555
Rb1 Se7 3.806791 1_555
Rb1 Se0 3.806802 1_555
Rb2 Se5 3.577721 1_554
Rb2 Se2 3.577721 1_565
Rb2 Se4 3.659169 1_455
Rb2 Se3 3.659179 1_455
Rb2 Se7 3.665104 1_555
Rb2 Se0 3.665105 1_555
Rb2 Se3 3.806791 1_555
Rb2 Se4 3.806802 1_555
Rb3 Se3 3.577563 1_555
Rb3 Se4 3.577563 1_555
Rb3 Se2 3.658939 1_565
Rb3 Se5 3.658944 1_554
Rb3 Se1 3.664907 1_565
Rb3 Se6 3.664907 1_554
Rb3 Se5 3.806989 1_654
Rb3 Se2 3.806994 1_665
Mn0 Se7 2.538539 1_555
Mn0 Se5 2.539043 1_555
Mn0 Se1 2.620702 1_556
Mn0 Se3 2.620868 1_456
Mn1 Se4 2.538548 1_555
Mn1 Se6 2.539047 1_455
Mn1 Se2 2.620699 1_565
Mn1 Se0 2.620862 1_565
Mn2 Se3 2.538539 1_555
Mn2 Se1 2.539043 1_555
Mn2 Se5 2.620702 1_554
Mn2 Se7 2.620868 1_654
Mn3 Se6 2.567847 1_555
Mn3 Se5 2.567850 1_555
Mn3 Se4 2.567933 1_555
Mn3 Se7 2.567939 1_655
Mn4 Se2 2.567847 1_555
Mn4 Se1 2.567850 1_555
Mn4 Se0 2.567933 1_555
Mn4 Se3 2.567939 1_455
Mn5 Se0 2.538548 1_555
Mn5 Se2 2.539047 1_655
Mn5 Se6 2.620699 1_545
Mn5 Se4 2.620862 1_545
