# generated using pymatgen
data_CaSnO3
_symmetry_space_group_name_H-M   'P 1'
_cell_length_a   5.52398931
_cell_length_b   5.69627790
_cell_length_c   7.90708393
_cell_angle_alpha   90.00000000
_cell_angle_beta   90.00000000
_cell_angle_gamma   90.00000000
_symmetry_Int_Tables_number   1
_chemical_formula_structural   CaSnO3
_chemical_formula_sum   'Ca4 Sn4 O12'
_cell_volume   248.80571219
_cell_formula_units_Z   4
loop_
 _symmetry_equiv_pos_site_id
 _symmetry_equiv_pos_as_xyz
  1  'x, y, z'
loop_
 _atom_site_type_symbol
 _atom_site_label
 _atom_site_symmetry_multiplicity
 _atom_site_fract_x
 _atom_site_fract_y
 _atom_site_fract_z
 _atom_site_occupancy
  Ca  Ca0  1  0.98550620  0.05371059  0.25000000  1
  Ca  Ca1  1  0.48550620  0.44628941  0.75000000  1
  Ca  Ca2  1  0.51449380  0.55371059  0.25000000  1
  Ca  Ca3  1  0.01449380  0.94628941  0.75000000  1
  Sn  Sn0  1  0.00000000  0.50000000  0.50000000  1
  Sn  Sn1  1  0.50000000  0.00000000  0.50000000  1
  Sn  Sn2  1  0.50000000  0.00000000  0.00000000  1
  Sn  Sn3  1  0.00000000  0.50000000  0.00000000  1
  O  O0  1  0.69829072  0.29833849  0.44599988  1
  O  O1  1  0.19829072  0.20166151  0.55400012  1
  O  O2  1  0.80170928  0.79833849  0.05400012  1
  O  O3  1  0.30170928  0.70166151  0.94599988  1
  O  O4  1  0.30170928  0.70166151  0.55400012  1
  O  O5  1  0.80170928  0.79833849  0.44599988  1
  O  O6  1  0.19829072  0.20166151  0.94599988  1
  O  O7  1  0.69829072  0.29833849  0.05400012  1
  O  O8  1  0.10312700  0.46181752  0.25000000  1
  O  O9  1  0.60312700  0.03818248  0.75000000  1
  O  O10  1  0.39687300  0.96181752  0.25000000  1
  O  O11  1  0.89687300  0.53818248  0.75000000  1
loop_
_geom_bond_atom_site_label_1
_geom_bond_atom_site_label_2
_geom_bond_distance
_geom_bond_site_symmetry_2
Ca0 O10 2.331895 1_645
Ca0 O2 2.355573 1_545
Ca0 O5 2.355573 1_545
Ca0 O8 2.413782 1_655
Ca0 O0 2.619316 1_555
Ca0 O7 2.619316 1_555
Ca0 O1 2.805335 1_655
Ca0 O6 2.805335 1_654
Ca1 O11 2.331895 1_555
Ca1 O4 2.355573 1_555
Ca1 O3 2.355573 1_555
Ca1 O9 2.413782 1_555
Ca1 O6 2.619316 1_555
Ca1 O1 2.619316 1_555
Ca1 O7 2.805335 1_556
Ca1 O0 2.805335 1_555
Ca2 O8 2.331895 1_555
Ca2 O0 2.355573 1_555
Ca2 O7 2.355573 1_555
Ca2 O10 2.413782 1_555
Ca2 O5 2.619316 1_555
Ca2 O2 2.619316 1_555
Ca2 O4 2.805335 1_555
Ca2 O3 2.805335 1_554
Ca3 O9 2.331895 1_465
Ca3 O1 2.355573 1_565
Ca3 O6 2.355573 1_565
Ca3 O11 2.413782 1_455
Ca3 O3 2.619316 1_555
Ca3 O4 2.619316 1_555
Ca3 O2 2.805335 1_456
Ca3 O5 2.805335 1_455
O0 Sn1 2.066433 1_555
O0 Sn0 2.068709 1_655
O1 Sn0 2.066433 1_555
O1 Sn1 2.068709 1_555
O2 Sn3 2.066433 1_655
O2 Sn2 2.068709 1_565
O3 Sn2 2.066433 1_566
O3 Sn3 2.068709 1_556
O4 Sn1 2.066433 1_565
O4 Sn0 2.068709 1_555
O5 Sn0 2.066433 1_655
O5 Sn1 2.068709 1_565
O6 Sn3 2.066433 1_556
O6 Sn2 2.068709 1_556
O7 Sn2 2.066433 1_555
O7 Sn3 2.068709 1_655
O8 Sn3 2.068685 1_555
O8 Sn0 2.068685 1_555
O9 Sn1 2.068685 1_555
O9 Sn2 2.068685 1_556
O10 Sn2 2.068685 1_565
O10 Sn1 2.068685 1_565
O11 Sn0 2.068685 1_655
O11 Sn3 2.068685 1_656
