# generated using pymatgen
data_BaLaCuRuO6
_symmetry_space_group_name_H-M   'P 1'
_cell_length_a   5.80606157
_cell_length_b   5.80606157
_cell_length_c   5.80606157
_cell_angle_alpha   123.29561419
_cell_angle_beta   123.29561419
_cell_angle_gamma   84.38072643
_symmetry_Int_Tables_number   1
_chemical_formula_structural   BaLaCuRuO6
_chemical_formula_sum   'Ba1 La1 Cu1 Ru1 O6'
_cell_volume   130.81603288
_cell_formula_units_Z   1
loop_
 _symmetry_equiv_pos_site_id
 _symmetry_equiv_pos_as_xyz
  1  'x, y, z'
loop_
 _atom_site_type_symbol
 _atom_site_label
 _atom_site_symmetry_multiplicity
 _atom_site_fract_x
 _atom_site_fract_y
 _atom_site_fract_z
 _atom_site_occupancy
  Ba  Ba0  1  0.00000000  0.00000000  0.00000000  1
  La  La0  1  0.50000000  0.50000000  0.00000000  1
  Cu  Cu0  1  0.75000000  0.25000000  0.50000000  1
  Ru  Ru0  1  0.25000000  0.75000000  0.50000000  1
  O  O0  1  0.48210500  0.98210500  0.50000000  1
  O  O1  1  0.47199000  0.47806500  0.39692900  1
  O  O2  1  0.52193500  0.91886400  0.99392600  1
  O  O3  1  0.01789500  0.51789500  0.50000000  1
  O  O4  1  0.92493900  0.52801000  0.00607400  1
  O  O5  1  0.08113600  0.07506100  0.60307100  1
loop_
_geom_bond_atom_site_label_1
_geom_bond_atom_site_label_2
_geom_bond_distance
_geom_bond_site_symmetry_2
Ba0 O0 2.761536 1_444
Ba0 O3 2.761536 1_544
Ba0 O0 2.761536 1_545
Ba0 O3 2.761536 1_555
Ba0 O4 2.838635 1_445
Ba0 O1 2.838638 1_555
Ba0 O5 2.838638 1_554
Ba0 O2 2.838642 1_444
Ba0 O2 3.037422 1_544
Ba0 O5 3.037425 1_555
Ba0 O1 3.037425 1_444
Ba0 O4 3.037427 1_455
La0 O2 2.468115 1_554
La0 O1 2.468119 1_555
La0 O5 2.468119 1_554
La0 O4 2.468122 1_555
La0 O0 2.761536 1_544
La0 O3 2.761536 1_655
La0 O0 2.761536 1_555
La0 O3 2.761536 1_554
Cu0 O4 2.026786 1_556
Cu0 O2 2.026787 1_544
Cu0 O1 2.026790 1_555
Cu0 O5 2.026790 1_655
Cu0 O0 2.304868 1_545
Cu0 O3 2.304868 1_655
O0 Ru0 1.996945 1_555
O1 Ru0 1.980692 1_555
O2 Ru0 1.980696 1_555
O3 Ru0 1.996945 1_555
O4 Ru0 1.980695 1_655
O5 Ru0 1.980692 1_545
