# generated using pymatgen
data_Ge3N4
_symmetry_space_group_name_H-M   'P 1'
_cell_length_a   5.87722266
_cell_length_b   5.87722266
_cell_length_c   5.87722266
_cell_angle_alpha   60.00000000
_cell_angle_beta   60.00000000
_cell_angle_gamma   60.00000000
_symmetry_Int_Tables_number   1
_chemical_formula_structural   Ge3N4
_chemical_formula_sum   'Ge6 N8'
_cell_volume   143.54941802
_cell_formula_units_Z   2
loop_
 _symmetry_equiv_pos_site_id
 _symmetry_equiv_pos_as_xyz
  1  'x, y, z'
loop_
 _atom_site_type_symbol
 _atom_site_label
 _atom_site_symmetry_multiplicity
 _atom_site_fract_x
 _atom_site_fract_y
 _atom_site_fract_z
 _atom_site_occupancy
  Ge  Ge0  1  0.12500000  0.12500000  0.12500000  1
  Ge  Ge1  1  0.62500000  0.12500000  0.12500000  1
  Ge  Ge2  1  0.12500000  0.12500000  0.62500000  1
  Ge  Ge3  1  0.12500000  0.62500000  0.12500000  1
  Ge  Ge4  1  0.50000000  0.50000000  0.50000000  1
  Ge  Ge5  1  0.75000000  0.75000000  0.75000000  1
  N  N0  1  0.88316000  0.35051900  0.88316000  1
  N  N1  1  0.36684000  0.36684000  0.89948100  1
  N  N2  1  0.36684000  0.36684000  0.36684000  1
  N  N3  1  0.89948100  0.36684000  0.36684000  1
  N  N4  1  0.88316000  0.88316000  0.88316000  1
  N  N5  1  0.35051900  0.88316000  0.88316000  1
  N  N6  1  0.36684000  0.89948100  0.36684000  1
  N  N7  1  0.88316000  0.88316000  0.35051900  1
loop_
_geom_bond_atom_site_label_1
_geom_bond_atom_site_label_2
_geom_bond_distance
_geom_bond_site_symmetry_2
Ge0 N6 2.012376 1_545
Ge0 N3 2.012376 1_455
Ge0 N5 2.012376 1_544
Ge0 N1 2.012376 1_554
Ge0 N7 2.012376 1_445
Ge0 N0 2.012376 1_454
Ge1 N7 2.012372 1_545
Ge1 N0 2.012372 1_554
Ge1 N1 2.012372 1_554
Ge1 N6 2.012372 1_545
Ge1 N2 2.012376 1_555
Ge1 N4 2.012376 1_544
Ge2 N0 2.012372 1_455
Ge2 N5 2.012372 1_545
Ge2 N6 2.012372 1_545
Ge2 N3 2.012372 1_455
Ge2 N2 2.012376 1_555
Ge2 N4 2.012376 1_445
Ge3 N7 2.012372 1_455
Ge3 N1 2.012372 1_554
Ge3 N5 2.012372 1_554
Ge3 N3 2.012372 1_455
Ge3 N2 2.012376 1_555
Ge3 N4 2.012376 1_454
Ge4 N2 1.916998 1_555
Ge4 N1 1.917002 1_555
Ge4 N6 1.917002 1_555
Ge4 N3 1.917002 1_555
Ge5 N4 1.916998 1_555
Ge5 N0 1.917002 1_555
Ge5 N7 1.917002 1_555
Ge5 N5 1.917002 1_555
