# generated using pymatgen
data_BaAlF5
_symmetry_space_group_name_H-M   'P 1'
_cell_length_a   4.87478029
_cell_length_b   5.62624815
_cell_length_c   13.72833824
_cell_angle_alpha   90.00000000
_cell_angle_beta   90.00000000
_cell_angle_gamma   90.00000000
_symmetry_Int_Tables_number   1
_chemical_formula_structural   BaAlF5
_chemical_formula_sum   'Ba4 Al4 F20'
_cell_volume   376.52333823
_cell_formula_units_Z   4
loop_
 _symmetry_equiv_pos_site_id
 _symmetry_equiv_pos_as_xyz
  1  'x, y, z'
loop_
 _atom_site_type_symbol
 _atom_site_label
 _atom_site_symmetry_multiplicity
 _atom_site_fract_x
 _atom_site_fract_y
 _atom_site_fract_z
 _atom_site_occupancy
  Ba  Ba0  1  0.77551239  0.34106972  0.34204731  1
  Ba  Ba1  1  0.27551239  0.15893028  0.65795269  1
  Ba  Ba2  1  0.22448761  0.84106972  0.15795269  1
  Ba  Ba3  1  0.72448761  0.65893028  0.84204731  1
  Al  Al0  1  0.18184559  0.85054580  0.41621107  1
  Al  Al1  1  0.68184559  0.64945420  0.58378893  1
  Al  Al2  1  0.81815441  0.35054580  0.08378893  1
  Al  Al3  1  0.31815441  0.14945420  0.91621107  1
  F  F0  1  0.97664515  0.65667646  0.49917281  1
  F  F1  1  0.47664515  0.84332354  0.50082719  1
  F  F2  1  0.02335485  0.15667646  0.00082719  1
  F  F3  1  0.52335485  0.34332354  -0.00082719  1
  F  F4  1  0.89400026  0.85032914  0.33265232  1
  F  F5  1  0.39400026  0.64967086  0.66734768  1
  F  F6  1  0.10599974  0.35032914  0.16734768  1
  F  F7  1  0.60599974  0.14967086  0.83265232  1
  F  F8  1  0.94645154  0.60018498  0.01944281  1
  F  F9  1  0.44645154  0.89981502  0.98055719  1
  F  F10  1  0.05354846  0.10018498  0.48055719  1
  F  F11  1  0.55354846  0.39981502  0.51944281  1
  F  F12  1  0.64919048  0.54841008  0.16696293  1
  F  F13  1  0.14919048  0.95158992  0.83303707  1
  F  F14  1  0.35080952  0.04841008  0.33303707  1
  F  F15  1  0.85080952  0.45158992  0.66696293  1
  F  F16  1  0.19944855  0.40510725  0.85174627  1
  F  F17  1  0.69944855  0.09489275  0.14825373  1
  F  F18  1  0.80055145  0.90510725  0.64825373  1
  F  F19  1  0.30055145  0.59489275  0.35174627  1
loop_
_geom_bond_atom_site_label_1
_geom_bond_atom_site_label_2
_geom_bond_distance
_geom_bond_site_symmetry_2
Ba0 F14 2.648168 1_555
Ba0 F11 2.685317 1_555
Ba0 F10 2.699913 1_655
Ba0 F19 2.723577 1_555
Ba0 F12 2.741790 1_555
Ba0 F4 2.823745 1_545
Ba0 F6 2.889675 1_655
Ba0 F4 2.925704 1_555
Ba0 F19 2.933923 1_655
Ba0 F0 2.960970 1_555
Ba0 F17 3.022239 1_555
Ba0 F14 3.254449 1_655
Ba1 F15 2.648168 1_455
Ba1 F10 2.685317 1_555
Ba1 F11 2.699913 1_555
Ba1 F18 2.723577 1_445
Ba1 F13 2.741790 1_545
Ba1 F5 2.823745 1_555
Ba1 F7 2.889675 1_555
Ba1 F5 2.925704 1_545
Ba1 F18 2.933923 1_545
Ba1 F1 2.960970 1_545
Ba1 F16 3.022239 1_555
Ba1 F15 3.254449 1_555
Ba2 F12 2.648168 1_555
Ba2 F9 2.685317 1_554
Ba2 F8 2.699913 1_455
Ba2 F17 2.723577 1_565
Ba2 F14 2.741790 1_565
Ba2 F6 2.823745 1_555
Ba2 F4 2.889675 1_455
Ba2 F6 2.925704 1_565
Ba2 F17 2.933923 1_465
Ba2 F2 2.960970 1_565
Ba2 F19 3.022239 1_555
Ba2 F12 3.254449 1_455
Ba3 F13 2.648168 1_655
Ba3 F8 2.685317 1_556
Ba3 F9 2.699913 1_555
Ba3 F16 2.723577 1_655
Ba3 F15 2.741790 1_555
Ba3 F7 2.823745 1_565
Ba3 F5 2.889675 1_555
Ba3 F7 2.925704 1_555
Ba3 F16 2.933923 1_555
Ba3 F3 2.960970 1_556
Ba3 F18 3.022239 1_555
Ba3 F13 3.254449 1_555
Al0 F10 1.773188 1_565
Al0 F19 1.785209 1_555
Al0 F14 1.794856 1_565
Al0 F4 1.812406 1_455
Al0 F1 1.848314 1_555
Al0 F0 1.867490 1_455
Al1 F11 1.773188 1_555
Al1 F18 1.785209 1_555
Al1 F15 1.794856 1_555
Al1 F5 1.812406 1_555
Al1 F0 1.848314 1_555
Al1 F1 1.867490 1_555
Al2 F8 1.773188 1_555
Al2 F17 1.785209 1_555
Al2 F12 1.794856 1_555
Al2 F6 1.812406 1_655
Al2 F3 1.848314 1_555
Al2 F2 1.867490 1_655
Al3 F9 1.773188 1_545
Al3 F16 1.785209 1_555
Al3 F13 1.794856 1_545
Al3 F7 1.812406 1_555
Al3 F2 1.848314 1_556
Al3 F3 1.867490 1_556
