# generated using pymatgen
data_Li2RuO3
_symmetry_space_group_name_H-M   'P 1'
_cell_length_a   5.01576303
_cell_length_b   5.01576303
_cell_length_c   5.11008031
_cell_angle_alpha   80.57100615
_cell_angle_beta   80.57100615
_cell_angle_gamma   119.47729518
_symmetry_Int_Tables_number   1
_chemical_formula_structural   Li2RuO3
_chemical_formula_sum   'Li4 Ru2 O6'
_cell_volume   105.83813954
_cell_formula_units_Z   2
loop_
 _symmetry_equiv_pos_site_id
 _symmetry_equiv_pos_as_xyz
  1  'x, y, z'
loop_
 _atom_site_type_symbol
 _atom_site_label
 _atom_site_symmetry_multiplicity
 _atom_site_fract_x
 _atom_site_fract_y
 _atom_site_fract_z
 _atom_site_occupancy
  Li  Li0  1  0.33878182  0.66121818  0.50000000  1
  Li  Li1  1  -0.00000000  0.00000000  0.50000000  1
  Li  Li2  1  0.66121818  0.33878182  0.50000000  1
  Li  Li3  1  0.50000000  0.50000000  0.00000000  1
  Ru  Ru0  1  0.83676694  0.16323306  0.00000000  1
  Ru  Ru1  1  0.16323306  0.83676694  0.00000000  1
  O  O0  1  0.75885590  0.75885590  0.24341649  1
  O  O1  1  0.07658695  0.42042819  0.23505531  1
  O  O2  1  0.24114410  0.24114410  0.75658351  1
  O  O3  1  0.57957181  0.92341305  0.76494469  1
  O  O4  1  0.42042819  0.07658695  0.23505531  1
  O  O5  1  0.92341305  0.57957181  0.76494469  1
loop_
_geom_bond_atom_site_label_1
_geom_bond_atom_site_label_2
_geom_bond_distance
_geom_bond_site_symmetry_2
Li0 O0 2.065752 1_555
Li0 O2 2.065752 1_555
Li0 O5 2.096594 1_455
Li0 O4 2.096594 1_565
Li0 O3 2.139430 1_555
Li0 O1 2.139430 1_555
Li1 O2 2.060217 1_555
Li1 O0 2.060217 1_445
Li1 O5 2.127061 1_445
Li1 O3 2.127061 1_445
Li1 O4 2.127061 1_555
Li1 O1 2.127061 1_555
Li2 O0 2.065752 1_555
Li2 O2 2.065752 1_555
Li2 O1 2.096594 1_655
Li2 O3 2.096594 1_545
Li2 O4 2.139430 1_555
Li2 O5 2.139430 1_555
Li3 O5 2.070085 1_554
Li3 O3 2.070085 1_554
Li3 O1 2.070085 1_555
Li3 O4 2.070085 1_555
Li3 O2 2.077977 1_554
Li3 O0 2.077977 1_555
O0 Ru0 2.011922 1_565
O0 Ru1 2.011922 1_655
O1 Ru0 2.001949 1_455
O1 Ru1 2.026424 1_555
O2 Ru1 2.011922 1_546
O2 Ru0 2.011922 1_456
O3 Ru0 2.001949 1_566
O3 Ru1 2.026424 1_556
O4 Ru1 2.001949 1_545
O4 Ru0 2.026424 1_555
O5 Ru1 2.001949 1_656
O5 Ru0 2.026424 1_556
