# generated using pymatgen
data_Tm(MnSn)6
_symmetry_space_group_name_H-M   'P 1'
_cell_length_a   5.67040500
_cell_length_b   5.67040091
_cell_length_c   9.14390902
_cell_angle_alpha   90.00000000
_cell_angle_beta   90.00000000
_cell_angle_gamma   119.99880729
_symmetry_Int_Tables_number   1
_chemical_formula_structural   Tm(MnSn)6
_chemical_formula_sum   'Tm1 Mn6 Sn6'
_cell_volume   254.62180476
_cell_formula_units_Z   1
loop_
 _symmetry_equiv_pos_site_id
 _symmetry_equiv_pos_as_xyz
  1  'x, y, z'
loop_
 _atom_site_type_symbol
 _atom_site_label
 _atom_site_symmetry_multiplicity
 _atom_site_fract_x
 _atom_site_fract_y
 _atom_site_fract_z
 _atom_site_occupancy
  Tm  Tm0  1  -0.00000000  -0.00000000  -0.00000000  1
  Mn  Mn0  1  -0.00000000  0.50000000  0.75324461  1
  Mn  Mn1  1  0.50000000  -0.00000000  0.24675539  1
  Mn  Mn2  1  0.50000000  0.50000000  0.24675781  1
  Mn  Mn3  1  -0.00000000  0.50000000  0.24675539  1
  Mn  Mn4  1  0.50000000  -0.00000000  0.75324461  1
  Mn  Mn5  1  0.50000000  0.50000000  0.75324219  1
  Sn  Sn0  1  0.66663519  0.33336581  0.50000000  1
  Sn  Sn1  1  -0.00000000  -0.00000000  0.33352527  1
  Sn  Sn2  1  -0.00000000  -0.00000000  0.66647473  1
  Sn  Sn3  1  0.33336436  0.66663464  -0.00000000  1
  Sn  Sn4  1  0.66663564  0.33336536  -0.00000000  1
  Sn  Sn5  1  0.33336481  0.66663419  0.50000000  1
loop_
_geom_bond_atom_site_label_1
_geom_bond_atom_site_label_2
_geom_bond_distance
_geom_bond_site_symmetry_2
Mn0 Sn3 2.787642 1_556
Mn0 Sn4 2.787642 1_456
Mn0 Sn5 2.835885 1_555
Mn0 Sn0 2.835885 1_455
Mn0 Sn2 2.944125 1_555
Mn0 Sn2 2.944125 1_565
Mn1 Sn4 2.787645 1_555
Mn1 Sn3 2.787645 1_545
Mn1 Sn5 2.835887 1_545
Mn1 Sn0 2.835887 1_555
Mn1 Sn1 2.944127 1_555
Mn1 Sn1 2.944127 1_655
Mn2 Sn4 2.787371 1_555
Mn2 Sn3 2.787371 1_555
Mn2 Sn5 2.835579 1_555
Mn2 Sn0 2.835579 1_555
Mn2 Sn1 2.944169 1_665
Mn2 Sn1 2.944169 1_555
Mn3 Sn3 2.787642 1_555
Mn3 Sn4 2.787642 1_455
Mn3 Sn5 2.835885 1_555
Mn3 Sn0 2.835885 1_455
Mn3 Sn1 2.944125 1_555
Mn3 Sn1 2.944125 1_565
Mn4 Sn4 2.787645 1_556
Mn4 Sn3 2.787645 1_546
Mn4 Sn5 2.835887 1_545
Mn4 Sn0 2.835887 1_555
Mn4 Sn2 2.944127 1_555
Mn4 Sn2 2.944127 1_655
Mn5 Sn3 2.787371 1_556
Mn5 Sn4 2.787371 1_556
Mn5 Sn5 2.835579 1_555
Mn5 Sn0 2.835579 1_555
Mn5 Sn2 2.944169 1_665
Mn5 Sn2 2.944169 1_555
Sn1 Sn2 3.044460 1_555
Sn1 Tm0 3.049725 1_555
Sn2 Tm0 3.049725 1_556
Sn3 Tm0 3.273690 1_555
Sn3 Tm0 3.273697 1_665
Sn3 Tm0 3.274099 1_565
Sn4 Tm0 3.273690 1_665
Sn4 Tm0 3.273697 1_555
Sn4 Tm0 3.274099 1_655
