# generated using pymatgen
data_Tl(NiSe)2
_symmetry_space_group_name_H-M   'P 1'
_cell_length_a   7.27059338
_cell_length_b   7.27059338
_cell_length_c   7.27059338
_cell_angle_alpha   148.95692580
_cell_angle_beta   148.95692580
_cell_angle_gamma   44.47471303
_symmetry_Int_Tables_number   1
_chemical_formula_structural   Tl(NiSe)2
_chemical_formula_sum   'Tl1 Ni2 Se2'
_cell_volume   101.90096201
_cell_formula_units_Z   1
loop_
 _symmetry_equiv_pos_site_id
 _symmetry_equiv_pos_as_xyz
  1  'x, y, z'
loop_
 _atom_site_type_symbol
 _atom_site_label
 _atom_site_symmetry_multiplicity
 _atom_site_fract_x
 _atom_site_fract_y
 _atom_site_fract_z
 _atom_site_occupancy
  Tl  Tl0  1  0.00000000  0.00000000  0.00000000  1
  Ni  Ni0  1  0.75000000  0.25000000  0.50000000  1
  Ni  Ni1  1  0.25000000  0.75000000  0.50000000  1
  Se  Se0  1  0.64925900  0.64925900  0.00000000  1
  Se  Se1  1  0.35074100  0.35074100  0.00000000  1
loop_
_geom_bond_atom_site_label_1
_geom_bond_atom_site_label_2
_geom_bond_distance
_geom_bond_site_symmetry_2
Ni0 Se1 2.371496 1_656
Ni0 Se0 2.371496 1_545
Ni0 Se0 2.371496 1_556
Ni0 Se1 2.371496 1_555
Ni1 Se0 2.371496 1_455
Ni1 Se0 2.371496 1_556
Ni1 Se1 2.371496 1_566
Ni1 Se1 2.371496 1_555
Se0 Tl0 3.406879 1_666
Se0 Tl0 3.406879 1_565
Se0 Tl0 3.406879 1_655
Se0 Tl0 3.406879 1_554
Se1 Tl0 3.406879 1_554
Se1 Tl0 3.406879 1_666
Se1 Tl0 3.406879 1_565
Se1 Tl0 3.406879 1_655
