# generated using pymatgen
data_AlF3
_symmetry_space_group_name_H-M   'P 1'
_cell_length_a   8.77423069
_cell_length_b   6.99452693
_cell_length_c   5.01761712
_cell_angle_alpha   135.84411518
_cell_angle_beta   150.95003080
_cell_angle_gamma   34.84540193
_symmetry_Int_Tables_number   1
_chemical_formula_structural   AlF3
_chemical_formula_sum   'Al2 F6'
_cell_volume   85.43418366
_cell_formula_units_Z   2
loop_
 _symmetry_equiv_pos_site_id
 _symmetry_equiv_pos_as_xyz
  1  'x, y, z'
loop_
 _atom_site_type_symbol
 _atom_site_label
 _atom_site_symmetry_multiplicity
 _atom_site_fract_x
 _atom_site_fract_y
 _atom_site_fract_z
 _atom_site_occupancy
  Al  Al0  1  0.49991311  0.75013768  0.00011922  1
  Al  Al1  1  0.49998650  0.24996728  -0.00016565  1
  F  F0  1  0.41281156  -0.00027007  0.82516300  1
  F  F1  1  0.00001468  0.91197287  0.41178250  1
  F  F2  1  0.41180985  0.08818844  0.41163447  1
  F  F3  1  0.58763630  0.50026991  0.17574064  1
  F  F4  1  0.00004140  0.58739818  0.58782109  1
  F  F5  1  0.58778759  0.41233672  0.58790473  1
loop_
_geom_bond_atom_site_label_1
_geom_bond_atom_site_label_2
_geom_bond_distance
_geom_bond_site_symmetry_2
Al0 F2 1.799152 1_565
Al0 F0 1.799597 1_564
Al0 F3 1.799831 1_555
Al0 F5 1.800238 1_554
Al0 F4 1.800260 1_655
Al0 F1 1.800378 1_554
Al1 F4 1.799675 1_554
Al1 F0 1.800267 1_554
Al1 F3 1.800427 1_555
Al1 F1 1.800485 1_645
Al1 F2 1.800607 1_554
Al1 F5 1.800882 1_555
