# generated using pymatgen
data_Tb(SiNi)2
_symmetry_space_group_name_H-M   'P 1'
_cell_length_a   3.95185955
_cell_length_b   3.95185981
_cell_length_c   5.50454607
_cell_angle_alpha   111.03652052
_cell_angle_beta   111.03653325
_cell_angle_gamma   90.00000569
_symmetry_Int_Tables_number   1
_chemical_formula_structural   Tb(SiNi)2
_chemical_formula_sum   'Tb1 Si2 Ni2'
_cell_volume   74.06476514
_cell_formula_units_Z   1
loop_
 _symmetry_equiv_pos_site_id
 _symmetry_equiv_pos_as_xyz
  1  'x, y, z'
loop_
 _atom_site_type_symbol
 _atom_site_label
 _atom_site_symmetry_multiplicity
 _atom_site_fract_x
 _atom_site_fract_y
 _atom_site_fract_z
 _atom_site_occupancy
  Tb  Tb0  1  0.00000000  -0.00000000  0.00000000  1
  Si  Si0  1  0.62790433  0.62790433  0.25580967  1
  Si  Si1  1  0.37209567  0.37209567  0.74419033  1
  Ni  Ni0  1  0.75000000  0.25000000  0.50000000  1
  Ni  Ni1  1  0.25000000  0.75000000  0.50000000  1
loop_
_geom_bond_atom_site_label_1
_geom_bond_atom_site_label_2
_geom_bond_distance
_geom_bond_site_symmetry_2
Si0 Si1 2.426362 1_554
Si0 Tb0 3.046373 1_555
Si0 Tb0 3.046376 1_565
Si0 Tb0 3.046376 1_655
Si0 Tb0 3.046378 1_665
Si1 Tb0 3.046373 1_666
Si1 Tb0 3.046376 1_656
Si1 Tb0 3.046376 1_566
Si1 Tb0 3.046378 1_556
Ni0 Si0 2.290290 1_555
Ni0 Si1 2.290290 1_555
Ni0 Si1 2.290294 1_655
Ni0 Si0 2.290294 1_545
Ni0 Tb0 3.086609 1_656
Ni0 Tb0 3.086609 1_655
Ni0 Tb0 3.086610 1_555
Ni0 Tb0 3.086610 1_666
Ni1 Si1 2.290290 1_555
Ni1 Si0 2.290290 1_555
Ni1 Si0 2.290294 1_455
Ni1 Si1 2.290294 1_565
Ni1 Tb0 3.086609 1_565
Ni1 Tb0 3.086609 1_566
Ni1 Tb0 3.086610 1_666
Ni1 Tb0 3.086610 1_555
