# generated using pymatgen
data_CaLaTiMnO6
_symmetry_space_group_name_H-M   'P 1'
_cell_length_a   7.94735851
_cell_length_b   9.40904655
_cell_length_c   7.94735851
_cell_angle_alpha   114.09030413
_cell_angle_beta   91.11377680
_cell_angle_gamma   114.09030413
_symmetry_Int_Tables_number   1
_chemical_formula_structural   CaLaTiMnO6
_chemical_formula_sum   'Ca4 La4 Ti4 Mn4 O24'
_cell_volume   482.76984589
_cell_formula_units_Z   4
loop_
 _symmetry_equiv_pos_site_id
 _symmetry_equiv_pos_as_xyz
  1  'x, y, z'
loop_
 _atom_site_type_symbol
 _atom_site_label
 _atom_site_symmetry_multiplicity
 _atom_site_fract_x
 _atom_site_fract_y
 _atom_site_fract_z
 _atom_site_occupancy
  Ca  Ca0  1  0.10625300  0.25093200  0.65474200  1
  Ca  Ca1  1  0.60625300  0.25093200  0.15474200  1
  Ca  Ca2  1  0.90474200  0.75093200  0.85625300  1
  Ca  Ca3  1  0.40474200  0.75093200  0.35625300  1
  La  La0  1  0.60098700  0.25002800  0.64060500  1
  La  La1  1  0.10098700  0.25002800  0.14060500  1
  La  La2  1  0.39060500  0.75002800  0.85098700  1
  La  La3  1  0.89060500  0.75002800  0.35098700  1
  Ti  Ti0  1  0.24931000  0.00118800  0.75074000  1
  Ti  Ti1  1  0.74931000  0.00118800  0.25074000  1
  Ti  Ti2  1  0.00074000  0.50118800  0.99931000  1
  Ti  Ti3  1  0.50074000  0.50118800  0.49931000  1
  Mn  Mn0  1  0.49928200  0.49929700  0.99988800  1
  Mn  Mn1  1  0.24988800  0.99929700  0.24928200  1
  Mn  Mn2  1  0.99928200  0.49929700  0.49988800  1
  Mn  Mn3  1  0.74988800  0.99929700  0.74928200  1
  O  O0  1  0.57239900  0.74536700  0.09584600  1
  O  O1  1  0.07239900  0.74536700  0.59584600  1
  O  O2  1  0.84584600  0.24536700  0.82239900  1
  O  O3  1  0.34584600  0.24536700  0.32239900  1
  O  O4  1  0.02630100  0.04047800  0.80986000  1
  O  O5  1  0.52630100  0.04047800  0.30986000  1
  O  O6  1  0.05986000  0.54047800  0.77630100  1
  O  O7  1  0.55986000  0.54047800  0.27630100  1
  O  O8  1  0.21926100  0.45809100  0.01690900  1
  O  O9  1  0.71926100  0.45809100  0.51690900  1
  O  O10  1  0.26690900  0.95809100  0.96926100  1
  O  O11  1  0.76690900  0.95809100  0.46926100  1
  O  O12  1  0.22920700  0.04404200  0.53295300  1
  O  O13  1  0.72920700  0.04404200  0.03295300  1
  O  O14  1  0.28295300  0.54404200  0.47920700  1
  O  O15  1  0.78295300  0.54404200  0.97920700  1
  O  O16  1  0.43699000  0.45638900  0.72030300  1
  O  O17  1  0.93699000  0.45638900  0.22030300  1
  O  O18  1  0.47030300  0.95638900  0.68699000  1
  O  O19  1  0.97030300  0.95638900  0.18699000  1
  O  O20  1  0.65910900  0.75418700  0.67905500  1
  O  O21  1  0.15910900  0.75418700  0.17905500  1
  O  O22  1  0.92905500  0.25418700  0.40910900  1
  O  O23  1  0.42905500  0.25418700  0.90910900  1
loop_
_geom_bond_atom_site_label_1
_geom_bond_atom_site_label_2
_geom_bond_distance
_geom_bond_site_symmetry_2
Ca0 O12 2.394275 1_555
Ca0 O22 2.402518 1_455
Ca0 O16 2.427734 1_555
Ca0 O2 2.477263 1_455
Ca0 O8 2.603998 1_556
Ca0 O4 2.615469 1_555
Ca0 O6 2.678919 1_555
Ca0 O11 2.738910 1_445
Ca1 O13 2.394275 1_555
Ca1 O23 2.402518 1_554
Ca1 O17 2.427734 1_555
Ca1 O3 2.477263 1_555
Ca1 O9 2.603998 1_555
Ca1 O5 2.615469 1_555
Ca1 O7 2.678919 1_555
Ca1 O10 2.738910 1_544
Ca2 O15 2.394275 1_555
Ca2 O20 2.402518 1_555
Ca2 O19 2.427734 1_556
Ca2 O1 2.477263 1_655
Ca2 O10 2.603998 1_655
Ca2 O6 2.615469 1_655
Ca2 O4 2.678919 1_665
Ca2 O9 2.738910 1_555
Ca3 O14 2.394275 1_555
Ca3 O21 2.402518 1_555
Ca3 O18 2.427734 1_555
Ca3 O0 2.477263 1_555
Ca3 O11 2.603998 1_555
Ca3 O7 2.615469 1_555
Ca3 O5 2.678919 1_565
Ca3 O8 2.738910 1_555
La0 O9 2.405663 1_555
La0 O2 2.426574 1_555
La0 O5 2.429440 1_555
La0 O23 2.551656 1_555
La0 O16 2.638930 1_555
La0 O12 2.663005 1_555
La0 O18 2.711421 1_545
La0 O15 2.737026 1_555
La1 O8 2.405663 1_555
La1 O3 2.426574 1_555
La1 O4 2.429440 1_554
La1 O22 2.551656 1_455
La1 O17 2.638930 1_455
La1 O13 2.663005 1_455
La1 O19 2.711421 1_445
La1 O14 2.737026 1_555
La2 O10 2.405663 1_555
La2 O0 2.426574 1_556
La2 O6 2.429440 1_555
La2 O20 2.551656 1_555
La2 O18 2.638930 1_555
La2 O14 2.663005 1_555
La2 O16 2.711421 1_555
La2 O13 2.737026 1_566
La3 O11 2.405663 1_555
La3 O1 2.426574 1_655
La3 O7 2.429440 1_555
La3 O21 2.551656 1_655
La3 O19 2.638930 1_555
La3 O15 2.663005 1_554
La3 O17 2.711421 1_555
La3 O12 2.737026 1_665
Mn0 O0 1.929467 1_556
Mn0 O23 1.930302 1_555
Mn0 O7 2.078310 1_556
Mn0 O16 2.099274 1_555
Mn0 O8 2.114544 1_556
Mn0 O15 2.140749 1_555
Mn1 O3 1.929467 1_565
Mn1 O21 1.930302 1_555
Mn1 O5 2.078310 1_565
Mn1 O19 2.099274 1_455
Mn1 O10 2.114544 1_554
Mn1 O12 2.140749 1_565
Mn2 O1 1.929467 1_655
Mn2 O22 1.930302 1_555
Mn2 O6 2.078310 1_655
Mn2 O17 2.099274 1_555
Mn2 O9 2.114544 1_555
Mn2 O14 2.140749 1_655
Mn3 O2 1.929467 1_565
Mn3 O20 1.930302 1_555
Mn3 O4 2.078310 1_665
Mn3 O18 2.099274 1_555
Mn3 O11 2.114544 1_555
Mn3 O13 2.140749 1_566
O0 Ti1 2.009235 1_565
O1 Ti0 2.009235 1_565
O2 Ti2 2.009235 1_655
O3 Ti3 2.009235 1_555
O4 Ti0 1.980917 1_555
O5 Ti1 1.980917 1_555
O6 Ti2 1.980917 1_555
O7 Ti3 1.980917 1_555
O8 Ti2 1.952370 1_554
O9 Ti3 1.952370 1_555
O10 Ti0 1.952370 1_565
O11 Ti1 1.952370 1_565
O12 Ti0 1.948193 1_555
O13 Ti1 1.948193 1_555
O14 Ti3 1.948193 1_555
O15 Ti2 1.948193 1_655
O16 Ti3 1.995896 1_555
O17 Ti2 1.995896 1_654
O18 Ti0 1.995896 1_565
O19 Ti1 1.995896 1_565
O20 Ti3 1.999903 1_555
O21 Ti2 1.999903 1_554
O22 Ti1 1.999903 1_555
O23 Ti0 1.999903 1_555
