# generated using pymatgen
data_La(FeSi)2
_symmetry_space_group_name_H-M   'P 1'
_cell_length_a   4.03915816
_cell_length_b   4.03915847
_cell_length_c   5.73231696
_cell_angle_alpha   110.62895596
_cell_angle_beta   110.62895554
_cell_angle_gamma   89.99999836
_symmetry_Int_Tables_number   1
_chemical_formula_structural   La(FeSi)2
_chemical_formula_sum   'La1 Fe2 Si2'
_cell_volume   81.08645407
_cell_formula_units_Z   1
loop_
 _symmetry_equiv_pos_site_id
 _symmetry_equiv_pos_as_xyz
  1  'x, y, z'
loop_
 _atom_site_type_symbol
 _atom_site_label
 _atom_site_symmetry_multiplicity
 _atom_site_fract_x
 _atom_site_fract_y
 _atom_site_fract_z
 _atom_site_occupancy
  La  La0  1  -0.00000000  -0.00000000  0.00000000  1
  Fe  Fe0  1  0.75000000  0.25000000  0.50000000  1
  Fe  Fe1  1  0.25000000  0.75000000  0.50000000  1
  Si  Si0  1  0.64875862  0.64875862  0.29751724  1
  Si  Si1  1  0.35124138  0.35124138  0.70248276  1
loop_
_geom_bond_atom_site_label_1
_geom_bond_atom_site_label_2
_geom_bond_distance
_geom_bond_site_symmetry_2
La0 Si1 3.216200 1_454
La0 Si0 3.216200 1_545
La0 Si1 3.216200 1_544
La0 Si0 3.216200 1_455
La0 Si1 3.216200 1_444
La0 Si0 3.216200 1_555
La0 Si1 3.216200 1_554
La0 Si0 3.216200 1_445
Fe0 Si1 2.256428 1_655
Fe0 Si1 2.256428 1_555
Fe0 Si0 2.256428 1_545
Fe0 Si0 2.256428 1_555
Fe0 La0 3.202220 1_555
Fe0 La0 3.202220 1_655
Fe0 La0 3.202220 1_666
Fe0 La0 3.202220 1_656
Fe1 Si0 2.256428 1_455
Fe1 Si0 2.256428 1_555
Fe1 Si1 2.256428 1_565
Fe1 Si1 2.256428 1_555
Fe1 La0 3.202220 1_666
Fe1 La0 3.202220 1_566
Fe1 La0 3.202220 1_555
Fe1 La0 3.202220 1_565
