# generated using pymatgen
data_TbAl4Ni
_symmetry_space_group_name_H-M   'P 1'
_cell_length_a   4.05239009
_cell_length_b   6.54812908
_cell_length_c   7.95326395
_cell_angle_alpha   90.00000000
_cell_angle_beta   104.75951855
_cell_angle_gamma   90.00000000
_symmetry_Int_Tables_number   1
_chemical_formula_structural   TbAl4Ni
_chemical_formula_sum   'Tb2 Al8 Ni2'
_cell_volume   204.08071916
_cell_formula_units_Z   2
loop_
 _symmetry_equiv_pos_site_id
 _symmetry_equiv_pos_as_xyz
  1  'x, y, z'
loop_
 _atom_site_type_symbol
 _atom_site_label
 _atom_site_symmetry_multiplicity
 _atom_site_fract_x
 _atom_site_fract_y
 _atom_site_fract_z
 _atom_site_occupancy
  Tb  Tb0  1  0.11690847  0.75000000  0.23381693  1
  Tb  Tb1  1  0.88309153  0.25000000  0.76618307  1
  Al  Al0  1  0.68963063  0.44692538  0.37926126  1
  Al  Al1  1  0.31036937  0.55307462  0.62073874  1
  Al  Al2  1  0.31036937  0.94692538  0.62073874  1
  Al  Al3  1  0.68963063  0.05307462  0.37926126  1
  Al  Al4  1  0.50000000  0.00000000  -0.00000000  1
  Al  Al5  1  0.50000000  0.50000000  -0.00000000  1
  Al  Al6  1  0.07730847  0.25000000  0.15461594  1
  Al  Al7  1  0.92269153  0.75000000  0.84538406  1
  Ni  Ni0  1  0.77386474  0.75000000  0.54772947  1
  Ni  Ni1  1  0.22613526  0.25000000  0.45227053  1
loop_
_geom_bond_atom_site_label_1
_geom_bond_atom_site_label_2
_geom_bond_distance
_geom_bond_site_symmetry_2
Al0 Ni0 2.370077 1_555
Al0 Ni1 2.466484 1_555
Al0 Ni1 2.466484 1_655
Al0 Al5 2.937467 1_555
Al0 Tb0 3.048808 1_655
Al0 Tb0 3.048808 1_555
Al0 Tb1 3.243130 1_555
Al1 Ni1 2.370077 1_555
Al1 Ni0 2.466484 1_555
Al1 Ni0 2.466484 1_455
Al1 Al5 2.937467 1_556
Al1 Tb1 3.048808 1_455
Al1 Tb1 3.048808 1_555
Al1 Tb0 3.243130 1_555
Al2 Ni1 2.370077 1_565
Al2 Ni0 2.466484 1_555
Al2 Ni0 2.466484 1_455
Al2 Al4 2.937467 1_566
Al2 Tb1 3.048808 1_465
Al2 Tb1 3.048808 1_565
Al2 Tb0 3.243130 1_555
Al3 Ni0 2.370077 1_545
Al3 Ni1 2.466484 1_555
Al3 Ni1 2.466484 1_655
Al3 Al4 2.937467 1_555
Al3 Tb0 3.048808 1_645
Al3 Tb0 3.048808 1_545
Al3 Tb1 3.243130 1_555
Al4 Al6 2.863451 1_555
Al4 Al7 2.863451 1_544
Al4 Al7 2.863454 1_444
Al4 Al6 2.863454 1_655
Al4 Tb0 3.165286 1_545
Al4 Tb1 3.165286 1_554
Al4 Tb1 3.165286 1_454
Al4 Tb0 3.165286 1_645
Al5 Al7 2.863451 1_554
Al5 Al6 2.863451 1_555
Al5 Al6 2.863454 1_655
Al5 Al7 2.863454 1_454
Al5 Tb0 3.165286 1_555
Al5 Tb1 3.165286 1_554
Al5 Tb1 3.165286 1_454
Al5 Tb0 3.165286 1_655
Al6 Ni1 2.289212 1_555
Al6 Tb1 2.987373 1_454
Al6 Tb0 3.330244 1_555
Al6 Tb0 3.330244 1_545
Al7 Ni0 2.289212 1_555
Al7 Tb0 2.987373 1_656
Al7 Tb1 3.330244 1_565
Al7 Tb1 3.330244 1_555
Ni0 Tb0 3.151835 1_655
Ni0 Tb0 3.151836 1_555
Ni1 Tb1 3.151835 1_455
Ni1 Tb1 3.151836 1_555
