# generated using pymatgen
data_Al2(SO4)3
_symmetry_space_group_name_H-M   'P 1'
_cell_length_a   8.49376622
_cell_length_b   8.49376756
_cell_length_c   8.49377179
_cell_angle_alpha   56.35278336
_cell_angle_beta   56.35276361
_cell_angle_gamma   56.35278555
_symmetry_Int_Tables_number   1
_chemical_formula_structural   Al2(SO4)3
_chemical_formula_sum   'Al4 S6 O24'
_cell_volume   396.74517547
_cell_formula_units_Z   2
loop_
 _symmetry_equiv_pos_site_id
 _symmetry_equiv_pos_as_xyz
  1  'x, y, z'
loop_
 _atom_site_type_symbol
 _atom_site_label
 _atom_site_symmetry_multiplicity
 _atom_site_fract_x
 _atom_site_fract_y
 _atom_site_fract_z
 _atom_site_occupancy
  Al  Al0  1  0.14338378  0.14338305  0.14338315  1
  Al  Al1  1  0.85661686  0.85661589  0.85661700  1
  Al  Al2  1  0.35191161  0.35191207  0.35191181  1
  Al  Al3  1  0.64808738  0.64808877  0.64808823  1
  S  S0  1  0.53939471  0.96374901  0.24844381  1
  S  S1  1  0.24844438  0.53939455  0.96374906  1
  S  S2  1  0.96374897  0.24844405  0.53939397  1
  S  S3  1  0.75155616  0.46060612  0.03625052  1
  S  S4  1  0.46060500  0.03625126  0.75155568  1
  S  S5  1  0.03625106  0.75155589  0.46060539  1
  O  O0  1  0.18417439  0.54606558  0.47596094  1
  O  O1  1  0.47596125  0.18417436  0.54606516  1
  O  O2  1  0.54606770  0.47595909  0.18417401  1
  O  O3  1  0.81582563  0.45393267  0.52404063  1
  O  O4  1  0.52403897  0.81582598  0.45393384  1
  O  O5  1  0.45393516  0.52403889  0.81582533  1
  O  O6  1  0.11188633  0.89538223  0.26382305  1
  O  O7  1  0.26382287  0.11188671  0.89538190  1
  O  O8  1  0.89538194  0.26382425  0.11188451  1
  O  O9  1  0.88811519  0.10461863  0.73617483  1
  O  O10  1  0.20486244  0.37920907  0.99296507  1
  O  O11  1  0.37920985  0.99296423  0.20486280  1
  O  O12  1  0.99296245  0.20486570  0.37921171  1
  O  O13  1  0.79513488  0.62078793  0.00703697  1
  O  O14  1  0.62079045  0.00703567  0.79513680  1
  O  O15  1  0.00703575  0.79513757  0.62078999  1
  O  O16  1  0.22853418  0.51949790  0.15646395  1
  O  O17  1  0.51949807  0.15646344  0.22853328  1
  O  O18  1  0.15646145  0.22853410  0.51949863  1
  O  O19  1  0.77146662  0.48050066  0.84353836  1
  O  O20  1  0.48050201  0.84353631  0.77146591  1
  O  O21  1  0.84353637  0.77146607  0.48050225  1
  O  O22  1  0.10461723  0.73617709  0.88811372  1
  O  O23  1  0.73617691  0.88811423  0.10461775  1
loop_
_geom_bond_atom_site_label_1
_geom_bond_atom_site_label_2
_geom_bond_distance
_geom_bond_site_symmetry_2
Al0 O6 1.867759 1_545
Al0 O7 1.867760 1_554
Al0 O8 1.867770 1_455
Al0 O10 1.871113 1_554
Al0 O11 1.871117 1_545
Al0 O12 1.871146 1_455
Al1 O22 1.867754 1_655
Al1 O23 1.867763 1_556
Al1 O9 1.867774 1_565
Al1 O15 1.871118 1_655
Al1 O14 1.871121 1_565
Al1 O13 1.871139 1_556
Al2 O0 1.875601 1_555
Al2 O1 1.875603 1_555
Al2 O2 1.875606 1_555
Al2 O16 1.880548 1_555
Al2 O17 1.880558 1_555
Al2 O18 1.880564 1_555
Al3 O5 1.875596 1_555
Al3 O4 1.875603 1_555
Al3 O3 1.875609 1_555
Al3 O20 1.880546 1_555
Al3 O21 1.880553 1_555
Al3 O19 1.880571 1_555
O0 S5 1.463282 1_555
O1 S4 1.463282 1_555
O2 S3 1.463273 1_555
O3 S2 1.463274 1_555
O4 S0 1.463280 1_555
O5 S1 1.463285 1_555
O6 S5 1.454591 1_555
O7 S4 1.454590 1_555
O8 S3 1.454584 1_555
O9 S2 1.454579 1_555
O10 S1 1.460124 1_555
O11 S0 1.460117 1_555
O12 S2 1.460088 1_555
O13 S3 1.460085 1_555
O14 S4 1.460121 1_555
O15 S5 1.460119 1_555
O16 S1 1.467955 1_554
O17 S0 1.467949 1_545
O18 S2 1.467939 1_455
O19 S3 1.467939 1_556
O20 S4 1.467953 1_565
O21 S5 1.467951 1_655
O22 S1 1.454595 1_555
O23 S0 1.454588 1_555
