# generated using pymatgen
data_Y3(AlNi3)2
_symmetry_space_group_name_H-M   'P 1'
_cell_length_a   7.69163080
_cell_length_b   7.69184431
_cell_length_c   7.69335151
_cell_angle_alpha   109.48845295
_cell_angle_beta   109.46886816
_cell_angle_gamma   109.44937569
_symmetry_Int_Tables_number   1
_chemical_formula_structural   Y3(AlNi3)2
_chemical_formula_sum   'Y6 Al4 Ni12'
_cell_volume   350.41274007
_cell_formula_units_Z   2
loop_
 _symmetry_equiv_pos_site_id
 _symmetry_equiv_pos_as_xyz
  1  'x, y, z'
loop_
 _atom_site_type_symbol
 _atom_site_label
 _atom_site_symmetry_multiplicity
 _atom_site_fract_x
 _atom_site_fract_y
 _atom_site_fract_z
 _atom_site_occupancy
  Y  Y0  1  0.70585621  0.70586065  0.00001418  1
  Y  Y1  1  0.70589879  -0.00009323  0.70578854  1
  Y  Y2  1  0.29413820  0.29416780  -0.00000389  1
  Y  Y3  1  -0.00008484  0.70596989  0.70588498  1
  Y  Y4  1  0.29408670  0.00006559  0.29417894  1
  Y  Y5  1  0.00010006  0.29404195  0.29413458  1
  Al  Al0  1  0.49999408  0.50001318  0.49999408  1
  Al  Al1  1  0.00000101  0.49999663  0.00000194  1
  Al  Al2  1  0.50000674  0.00001342  -0.00000008  1
  Al  Al3  1  -0.00000616  0.00001105  0.50000408  1
  Ni  Ni0  1  0.66691981  0.66698872  0.33389518  1
  Ni  Ni1  1  0.66693359  0.33390753  0.66691482  1
  Ni  Ni2  1  0.33310761  0.66609672  0.33307372  1
  Ni  Ni3  1  0.33298300  -0.00003243  0.66688811  1
  Ni  Ni4  1  0.66616621  0.33311509  0.33313241  1
  Ni  Ni5  1  0.33298859  0.66699867  0.00000893  1
  Ni  Ni6  1  0.00004215  0.33306365  0.66685539  1
  Ni  Ni7  1  0.66698846  -0.00004536  0.33308717  1
  Ni  Ni8  1  0.33381740  0.66683949  0.66686458  1
  Ni  Ni9  1  0.33301186  0.33306126  0.66611183  1
  Ni  Ni10  1  0.00003222  0.66696775  0.33315956  1
  Ni  Ni11  1  0.66702030  0.33298999  0.00000997  1
loop_
_geom_bond_atom_site_label_1
_geom_bond_atom_site_label_2
_geom_bond_distance
_geom_bond_site_symmetry_2
Al0 Ni8 2.452618 1_555
Al0 Ni4 2.452841 1_555
Al0 Ni2 2.452882 1_555
Al0 Ni1 2.453244 1_555
Al0 Ni0 2.453880 1_555
Al0 Ni9 2.454138 1_555
Al0 Y1 3.164008 1_565
Al0 Y5 3.164206 1_555
Al0 Y4 3.164361 1_555
Al0 Y3 3.164380 1_655
Al0 Y2 3.165038 1_555
Al0 Y0 3.165184 1_556
Al1 Ni5 2.453323 1_555
Al1 Ni11 2.453344 1_455
Al1 Ni1 2.453942 1_454
Al1 Ni10 2.453958 1_555
Al1 Ni2 2.454023 1_555
Al1 Ni6 2.454123 1_554
Al1 Y2 3.163905 1_555
Al1 Y0 3.164160 1_455
Al1 Y4 3.165241 1_565
Al1 Y1 3.165389 1_454
Al1 Y5 3.165706 1_555
Al1 Y3 3.165712 1_554
Al2 Ni11 2.453308 1_555
Al2 Ni5 2.453646 1_545
Al2 Ni4 2.453778 1_555
Al2 Ni8 2.454040 1_544
Al2 Ni3 2.454089 1_554
Al2 Ni7 2.454289 1_555
Al2 Y0 3.164155 1_545
Al2 Y2 3.164269 1_555
Al2 Y4 3.165452 1_555
Al2 Y1 3.165482 1_554
Al2 Y3 3.165603 1_544
Al2 Y5 3.165615 1_655
Al3 Ni6 2.452632 1_555
Al3 Ni7 2.452742 1_455
Al3 Ni10 2.452909 1_545
Al3 Ni3 2.452991 1_555
Al3 Ni9 2.453694 1_555
Al3 Ni0 2.453805 1_445
Al3 Y1 3.163899 1_455
Al3 Y4 3.164143 1_555
Al3 Y5 3.164366 1_555
Al3 Y3 3.164516 1_545
Al3 Y0 3.164968 1_445
Al3 Y2 3.164987 1_556
Ni0 Ni7 2.563027 1_565
Ni0 Ni2 2.563177 1_555
Ni0 Ni10 2.564123 1_655
Ni0 Ni4 2.564222 1_555
Ni0 Y0 2.782577 1_555
Ni0 Y2 2.782630 1_555
Ni0 Y1 2.976853 1_565
Ni0 Y3 2.978281 1_655
Ni1 Ni4 2.563911 1_555
Ni1 Ni9 2.564183 1_555
Ni1 Ni6 2.564469 1_655
Ni1 Ni11 2.564760 1_556
Ni1 Y4 2.782464 1_555
Ni1 Y1 2.783005 1_555
Ni1 Y0 2.977978 1_556
Ni1 Y3 2.978946 1_655
Ni2 Ni8 2.564250 1_555
Ni2 Ni5 2.564403 1_555
Ni2 Y1 2.782182 1_565
Ni2 Y4 2.782985 1_565
Ni2 Y2 2.977592 1_555
Ni2 Y5 2.979130 1_555
Ni3 Ni9 2.564030 1_555
Ni3 Ni8 2.564453 1_545
Ni3 Y4 2.782292 1_555
Ni3 Y1 2.783103 1_555
Ni3 Y2 2.978067 1_556
Ni3 Y3 2.978902 1_545
Ni4 Ni7 2.564615 1_555
Ni4 Y3 2.782281 1_655
Ni4 Y5 2.783003 1_655
Ni4 Y2 2.979050 1_555
Ni4 Y4 2.979355 1_555
Ni5 Ni6 2.564483 1_554
Ni5 Ni7 2.564484 1_565
Ni5 Ni8 2.564721 1_554
Ni5 Y2 2.782523 1_555
Ni5 Y0 2.782724 1_555
Ni5 Y4 2.977921 1_565
Ni5 Y3 2.978776 1_554
Ni6 Ni9 2.562998 1_555
Ni6 Ni7 2.564213 1_455
Ni6 Y5 2.781935 1_555
Ni6 Y3 2.782968 1_555
Ni6 Y2 2.978758 1_556
Ni6 Y1 2.979618 1_455
Ni7 Y1 2.782060 1_555
Ni7 Y4 2.783127 1_555
Ni7 Y0 2.977594 1_545
Ni7 Y5 2.979249 1_655
Ni8 Ni9 2.563381 1_555
Ni8 Y5 2.781990 1_555
Ni8 Y3 2.782994 1_555
Ni8 Y0 2.978867 1_556
Ni8 Y1 2.979548 1_565
Ni9 Y2 2.782482 1_556
Ni9 Y0 2.782756 1_556
Ni9 Y4 2.977560 1_555
Ni9 Y5 2.977745 1_555
Ni10 Ni3 2.563568 1_565
Ni10 Ni2 2.564351 1_555
Ni10 Ni11 2.564750 1_455
Ni10 Y3 2.782178 1_555
Ni10 Y5 2.782953 1_555
Ni10 Y0 2.979077 1_455
Ni10 Y4 2.979215 1_565
Ni11 Ni4 2.564705 1_555
Ni11 Ni3 2.564862 1_554
Ni11 Y0 2.782879 1_555
Ni11 Y2 2.782882 1_555
Ni11 Y1 2.978086 1_554
Ni11 Y5 2.978695 1_655
