# generated using pymatgen
data_NdAl2
_symmetry_space_group_name_H-M   'P 1'
_cell_length_a   5.66924845
_cell_length_b   5.66926232
_cell_length_c   5.66925414
_cell_angle_alpha   59.99995713
_cell_angle_beta   60.00013697
_cell_angle_gamma   59.99991400
_symmetry_Int_Tables_number   1
_chemical_formula_structural   NdAl2
_chemical_formula_sum   'Nd2 Al4'
_cell_volume   128.84364335
_cell_formula_units_Z   2
loop_
 _symmetry_equiv_pos_site_id
 _symmetry_equiv_pos_as_xyz
  1  'x, y, z'
loop_
 _atom_site_type_symbol
 _atom_site_label
 _atom_site_symmetry_multiplicity
 _atom_site_fract_x
 _atom_site_fract_y
 _atom_site_fract_z
 _atom_site_occupancy
  Nd  Nd0  1  0.87500000  0.87500000  0.87500000  1
  Nd  Nd1  1  0.12500000  0.12500000  0.12500000  1
  Al  Al0  1  0.50000000  0.50000000  0.50000000  1
  Al  Al1  1  0.50000000  0.50000000  0.00000000  1
  Al  Al2  1  0.00000000  0.50000000  0.50000000  1
  Al  Al3  1  0.50000000  -0.00000000  0.50000000  1
loop_
_geom_bond_atom_site_label_1
_geom_bond_atom_site_label_2
_geom_bond_distance
_geom_bond_site_symmetry_2
Nd0 Nd1 3.471693 1_566
Nd0 Nd1 3.471695 1_656
Nd0 Nd1 3.471695 1_666
Nd0 Nd1 3.471698 1_665
Al0 Al2 2.834624 1_555
Al0 Al2 2.834624 1_655
Al0 Al1 2.834627 1_556
Al0 Al1 2.834627 1_555
Al0 Al3 2.834631 1_555
Al0 Al3 2.834631 1_565
Al0 Nd1 3.323889 1_565
Al0 Nd0 3.323889 1_545
Al0 Nd1 3.323897 1_655
Al0 Nd0 3.323897 1_455
Al0 Nd0 3.323900 1_554
Al0 Nd1 3.323900 1_556
Al1 Al3 2.834627 1_555
Al1 Al3 2.834627 1_564
Al1 Al2 2.834632 1_555
Al1 Al2 2.834632 1_654
Al1 Nd0 3.323887 1_454
Al1 Nd1 3.323887 1_655
Al1 Nd0 3.323898 1_544
Al1 Nd1 3.323898 1_565
Al1 Nd1 3.323898 1_555
Al1 Nd0 3.323898 1_554
Al2 Al3 2.834624 1_555
Al2 Al3 2.834624 1_465
Al2 Nd1 3.323891 1_556
Al2 Nd0 3.323891 1_454
Al2 Nd1 3.323899 1_555
Al2 Nd0 3.323899 1_455
Al2 Nd1 3.323899 1_565
Al2 Nd0 3.323899 1_445
Al3 Nd1 3.323889 1_555
Al3 Nd0 3.323889 1_545
Al3 Nd0 3.323898 1_445
Al3 Nd1 3.323898 1_655
Al3 Nd1 3.323900 1_556
Al3 Nd0 3.323900 1_544
