# generated using pymatgen
data_RbSb3Se5
_symmetry_space_group_name_H-M   'P 1'
_cell_length_a   8.80451087
_cell_length_b   9.69550567
_cell_length_c   13.15641808
_cell_angle_alpha   90.00000000
_cell_angle_beta   90.00000000
_cell_angle_gamma   96.79824545
_symmetry_Int_Tables_number   1
_chemical_formula_structural   RbSb3Se5
_chemical_formula_sum   'Rb4 Sb12 Se20'
_cell_volume   1115.19063365
_cell_formula_units_Z   4
loop_
 _symmetry_equiv_pos_site_id
 _symmetry_equiv_pos_as_xyz
  1  'x, y, z'
loop_
 _atom_site_type_symbol
 _atom_site_label
 _atom_site_symmetry_multiplicity
 _atom_site_fract_x
 _atom_site_fract_y
 _atom_site_fract_z
 _atom_site_occupancy
  Rb  Rb0  1  0.38030407  0.69903371  0.24900566  1
  Rb  Rb1  1  0.11969593  0.80096629  0.74900566  1
  Rb  Rb2  1  0.61969593  0.30096629  0.75099434  1
  Rb  Rb3  1  0.88030407  0.19903371  0.25099434  1
  Sb  Sb0  1  0.99098193  0.17850901  0.95963325  1
  Sb  Sb1  1  0.50901807  0.32149099  0.45963325  1
  Sb  Sb2  1  0.00901807  0.82149099  0.04036675  1
  Sb  Sb3  1  0.49098193  0.67850901  0.54036675  1
  Sb  Sb4  1  0.31881251  0.46006708  0.94368700  1
  Sb  Sb5  1  0.18118749  0.03993292  0.44368700  1
  Sb  Sb6  1  0.68118749  0.53993292  0.05631300  1
  Sb  Sb7  1  0.81881251  0.96006708  0.55631300  1
  Sb  Sb8  1  0.87939878  0.62479517  0.40136442  1
  Sb  Sb9  1  0.62060122  0.87520483  0.90136442  1
  Sb  Sb10  1  0.12060122  0.37520483  0.59863558  1
  Sb  Sb11  1  0.37939878  0.12479517  0.09863558  1
  Se  Se0  1  0.14206274  0.96106729  0.19048978  1
  Se  Se1  1  0.35793726  0.53893271  0.69048978  1
  Se  Se2  1  0.85793726  0.03893271  0.80951022  1
  Se  Se3  1  0.64206274  0.46106729  0.30951022  1
  Se  Se4  1  0.27666699  0.09802813  0.91323208  1
  Se  Se5  1  0.22333301  0.40197187  0.41323208  1
  Se  Se6  1  0.72333301  0.90197187  0.08676792  1
  Se  Se7  1  0.77666699  0.59802813  0.58676792  1
  Se  Se8  1  0.25200557  0.35484539  0.12693732  1
  Se  Se9  1  0.24799443  0.14515461  0.62693732  1
  Se  Se10  1  0.74799443  0.64515461  0.87306268  1
  Se  Se11  1  0.75200557  0.85484539  0.37306268  1
  Se  Se12  1  0.04732976  0.40921374  0.85895340  1
  Se  Se13  1  0.45267024  0.09078626  0.35895340  1
  Se  Se14  1  0.95267024  0.59078626  0.14104660  1
  Se  Se15  1  0.54732976  0.90921374  0.64104660  1
  Se  Se16  1  0.81100051  0.21691280  0.51745761  1
  Se  Se17  1  0.68899949  0.28308720  0.01745761  1
  Se  Se18  1  0.18899949  0.78308720  0.48254239  1
  Se  Se19  1  0.31100051  0.71691280  0.98254239  1
loop_
_geom_bond_atom_site_label_1
_geom_bond_atom_site_label_2
_geom_bond_distance
_geom_bond_site_symmetry_2
Rb0 Se3 3.539371 1_555
Rb0 Se0 3.564916 1_555
Rb0 Se19 3.566141 1_554
Rb0 Se18 3.642308 1_555
Rb0 Se5 3.732475 1_555
Rb0 Se8 3.754844 1_555
Rb0 Se11 3.806024 1_555
Rb0 Sb3 3.965985 1_555
Rb0 Se6 4.017723 1_555
Rb0 Se13 4.043768 1_565
Rb0 Se14 4.044676 1_455
Rb0 Sb6 4.097781 1_555
Rb1 Se2 3.539371 1_465
Rb1 Se1 3.564916 1_555
Rb1 Se18 3.566141 1_555
Rb1 Se19 3.642308 1_555
Rb1 Se4 3.732475 1_565
Rb1 Se9 3.754844 1_565
Rb1 Se10 3.806024 1_455
Rb1 Sb2 3.965985 1_556
Rb1 Se7 4.017723 1_455
Rb1 Se12 4.043768 1_555
Rb1 Se15 4.044676 1_555
Rb1 Sb7 4.097781 1_455
Rb2 Se1 3.539371 1_555
Rb2 Se2 3.564916 1_555
Rb2 Se17 3.566141 1_556
Rb2 Se16 3.642308 1_555
Rb2 Se7 3.732475 1_555
Rb2 Se10 3.754844 1_555
Rb2 Se9 3.806024 1_555
Rb2 Sb1 3.965985 1_555
Rb2 Se4 4.017723 1_555
Rb2 Se15 4.043768 1_545
Rb2 Se12 4.044676 1_655
Rb2 Sb4 4.097781 1_555
Rb3 Se0 3.539371 1_645
Rb3 Se3 3.564916 1_555
Rb3 Se16 3.566141 1_555
Rb3 Se17 3.642308 1_555
Rb3 Se6 3.732475 1_545
Rb3 Se11 3.754844 1_545
Rb3 Se8 3.806024 1_655
Rb3 Sb0 3.965985 1_554
Rb3 Se5 4.017723 1_655
Rb3 Se14 4.043768 1_555
Rb3 Se13 4.044676 1_555
Rb3 Sb5 4.097781 1_655
Sb0 Se2 2.594058 1_555
Sb0 Se12 2.596384 1_655
Sb0 Se4 2.788017 1_655
Sb0 Se17 3.051938 1_556
Sb1 Se3 2.594058 1_555
Sb1 Se13 2.596384 1_555
Sb1 Se5 2.788017 1_555
Sb1 Se16 3.051938 1_555
Sb2 Se0 2.594058 1_555
Sb2 Se14 2.596384 1_455
Sb2 Se6 2.788017 1_455
Sb2 Se19 3.051938 1_554
Sb3 Se1 2.594058 1_555
Sb3 Se15 2.596384 1_555
Sb3 Se7 2.788017 1_555
Sb3 Se18 3.051938 1_555
Sb4 Se19 2.551067 1_555
Sb4 Se12 2.630636 1_555
Sb4 Se8 2.656540 1_556
Sb5 Se18 2.551067 1_545
Sb5 Se13 2.630636 1_555
Sb5 Se9 2.656540 1_555
Sb6 Se17 2.551067 1_555
Sb6 Se14 2.630636 1_555
Sb6 Se10 2.656540 1_554
Sb7 Se16 2.551067 1_565
Sb7 Se15 2.630636 1_555
Sb7 Se11 2.656540 1_555
Sb8 Se7 2.603810 1_555
Sb8 Se11 2.638923 1_555
Sb8 Se3 2.749827 1_555
Sb8 Se18 3.152147 1_655
Sb9 Se6 2.603810 1_556
Sb9 Se10 2.638923 1_555
Sb9 Se2 2.749827 1_565
Sb9 Se19 3.152147 1_555
Sb10 Se5 2.603810 1_555
Sb10 Se9 2.638923 1_555
Sb10 Se1 2.749827 1_555
Sb10 Se16 3.152147 1_455
Sb11 Se4 2.603810 1_554
Sb11 Se8 2.638923 1_555
Sb11 Se0 2.749827 1_545
Sb11 Se17 3.152147 1_555
