# generated using pymatgen
data_CaSiO3
_symmetry_space_group_name_H-M   'P 1'
_cell_length_a   6.25055221
_cell_length_b   6.25055221
_cell_length_c   6.25055221
_cell_angle_alpha   109.47122063
_cell_angle_beta   109.47122063
_cell_angle_gamma   109.47122063
_symmetry_Int_Tables_number   1
_chemical_formula_structural   CaSiO3
_chemical_formula_sum   'Ca4 Si4 O12'
_cell_volume   187.98936040
_cell_formula_units_Z   4
loop_
 _symmetry_equiv_pos_site_id
 _symmetry_equiv_pos_as_xyz
  1  'x, y, z'
loop_
 _atom_site_type_symbol
 _atom_site_label
 _atom_site_symmetry_multiplicity
 _atom_site_fract_x
 _atom_site_fract_y
 _atom_site_fract_z
 _atom_site_occupancy
  Ca  Ca0  1  0.00000000  0.50000000  0.50000000  1
  Ca  Ca1  1  0.50000000  0.50000000  0.00000000  1
  Ca  Ca2  1  0.50000000  0.00000000  0.50000000  1
  Ca  Ca3  1  0.00000000  0.00000000  0.00000000  1
  Si  Si0  1  0.50000000  0.00000000  0.00000000  1
  Si  Si1  1  0.50000000  0.50000000  0.50000000  1
  Si  Si2  1  0.00000000  0.50000000  0.00000000  1
  Si  Si3  1  0.00000000  0.00000000  0.50000000  1
  O  O0  1  0.24059500  0.98148400  0.74088900  1
  O  O1  1  0.24059500  0.49970600  0.25911100  1
  O  O2  1  0.75940500  0.50029400  0.74088900  1
  O  O3  1  0.25911100  0.24059500  0.49970600  1
  O  O4  1  0.98148400  0.74088900  0.24059500  1
  O  O5  1  0.01851600  0.25911100  0.75940500  1
  O  O6  1  0.25911100  0.75940500  0.01851600  1
  O  O7  1  0.49970600  0.25911100  0.24059500  1
  O  O8  1  0.75940500  0.01851600  0.25911100  1
  O  O9  1  0.74088900  0.24059500  0.98148400  1
  O  O10  1  0.50029400  0.74088900  0.75940500  1
  O  O11  1  0.74088900  0.75940500  0.50029400  1
loop_
_geom_bond_atom_site_label_1
_geom_bond_atom_site_label_2
_geom_bond_distance
_geom_bond_site_symmetry_2
Ca0 O0 2.457280 1_555
Ca0 O1 2.457280 1_555
Ca0 O8 2.457280 1_455
Ca0 O2 2.457280 1_455
Ca0 O7 2.555026 1_455
Ca0 O4 2.555026 1_455
Ca0 O10 2.555026 1_555
Ca0 O5 2.555026 1_555
Ca0 O3 2.646275 1_555
Ca0 O11 2.646275 1_455
Ca0 O6 2.646275 1_556
Ca0 O9 2.646275 1_454
Ca1 O4 2.457280 1_555
Ca1 O5 2.457280 1_554
Ca1 O10 2.457280 1_554
Ca1 O7 2.457280 1_555
Ca1 O6 2.555026 1_555
Ca1 O3 2.555026 1_554
Ca1 O11 2.555026 1_555
Ca1 O9 2.555026 1_554
Ca1 O2 2.646275 1_554
Ca1 O0 2.646275 1_544
Ca1 O1 2.646275 1_555
Ca1 O8 2.646275 1_565
Ca2 O3 2.457280 1_555
Ca2 O9 2.457280 1_555
Ca2 O11 2.457280 1_545
Ca2 O6 2.457280 1_545
Ca2 O1 2.555026 1_545
Ca2 O0 2.555026 1_545
Ca2 O8 2.555026 1_555
Ca2 O2 2.555026 1_555
Ca2 O4 2.646275 1_445
Ca2 O5 2.646275 1_655
Ca2 O10 2.646275 1_545
Ca2 O7 2.646275 1_555
Ca3 O2 2.552027 1_444
Ca3 O7 2.552027 1_555
Ca3 O10 2.552027 1_444
Ca3 O0 2.552027 1_544
Ca3 O1 2.552027 1_555
Ca3 O6 2.552027 1_545
Ca3 O8 2.552027 1_455
Ca3 O11 2.552027 1_444
Ca3 O5 2.552027 1_554
Ca3 O4 2.552027 1_445
Ca3 O3 2.552027 1_555
Ca3 O9 2.552027 1_454
O0 Si3 1.806852 1_565
O0 Si0 1.806852 1_566
O1 Si2 1.806852 1_555
O1 Si1 1.806852 1_555
O2 Si2 1.806852 1_656
O2 Si1 1.806852 1_555
O3 Si1 1.806852 1_555
O3 Si3 1.806852 1_555
O4 Si2 1.806852 1_655
O4 Si3 1.806852 1_665
O5 Si3 1.806852 1_555
O5 Si2 1.806852 1_556
O6 Si2 1.806852 1_555
O6 Si0 1.806852 1_565
O7 Si0 1.806852 1_555
O7 Si1 1.806852 1_555
O8 Si0 1.806852 1_555
O8 Si3 1.806852 1_655
O9 Si0 1.806852 1_556
O9 Si2 1.806852 1_656
O10 Si0 1.806852 1_566
O10 Si1 1.806852 1_555
O11 Si1 1.806852 1_555
O11 Si3 1.806852 1_665
