# generated using pymatgen
data_La(BO2)3
_symmetry_space_group_name_H-M   'P 1'
_cell_length_a   6.43706024
_cell_length_b   6.43706024
_cell_length_c   6.48989911
_cell_angle_alpha   62.32367109
_cell_angle_beta   62.32367109
_cell_angle_gamma   78.90458446
_symmetry_Int_Tables_number   1
_chemical_formula_structural   La(BO2)3
_chemical_formula_sum   'La2 B6 O12'
_cell_volume   210.80578096
_cell_formula_units_Z   2
loop_
 _symmetry_equiv_pos_site_id
 _symmetry_equiv_pos_as_xyz
  1  'x, y, z'
loop_
 _atom_site_type_symbol
 _atom_site_label
 _atom_site_symmetry_multiplicity
 _atom_site_fract_x
 _atom_site_fract_y
 _atom_site_fract_z
 _atom_site_occupancy
  La  La0  1  0.20005436  0.79994564  0.75000000  1
  La  La1  1  0.79994564  0.20005436  0.25000000  1
  B  B0  1  0.77771476  0.22228524  0.75000000  1
  B  B1  1  0.79594984  0.65770063  0.41850007  1
  B  B2  1  0.34229937  0.20405016  0.08149993  1
  B  B3  1  0.22228524  0.77771476  0.25000000  1
  B  B4  1  0.65770063  0.79594984  0.91850007  1
  B  B5  1  0.20405016  0.34229937  0.58149993  1
  O  O0  1  0.78958010  0.41606196  0.51019585  1
  O  O1  1  0.58393804  0.21041990  0.98980415  1
  O  O2  1  0.99112626  0.22073699  0.78452576  1
  O  O3  1  0.77926301  0.00887374  0.71547424  1
  O  O4  1  0.00887374  0.77926301  0.21547424  1
  O  O5  1  0.22073699  0.99112626  0.28452576  1
  O  O6  1  0.61769470  0.78689893  0.50176610  1
  O  O7  1  0.21310107  0.38230530  0.99823390  1
  O  O8  1  0.38230530  0.21310107  0.49823390  1
  O  O9  1  0.78689893  0.61769470  0.00176610  1
  O  O10  1  0.41606196  0.78958010  0.01019585  1
  O  O11  1  0.21041990  0.58393804  0.48980415  1
loop_
_geom_bond_atom_site_label_1
_geom_bond_atom_site_label_2
_geom_bond_distance
_geom_bond_site_symmetry_2
La0 O7 2.417699 1_555
La0 O6 2.417699 1_555
La0 O9 2.549995 1_456
La0 O8 2.549995 1_565
La0 O10 2.613451 1_556
La0 O11 2.613451 1_555
La0 O4 2.625620 1_556
La0 O5 2.625620 1_555
La0 O2 2.842102 1_465
La0 O3 2.842102 1_465
La1 O9 2.417699 1_555
La1 O8 2.417699 1_555
La1 O7 2.549995 1_654
La1 O6 2.549995 1_545
La1 O0 2.613451 1_555
La1 O1 2.613451 1_554
La1 O2 2.625620 1_554
La1 O3 2.625620 1_555
La1 O4 2.842102 1_645
La1 O5 2.842102 1_645
B0 O1 1.451452 1_555
B0 O0 1.451452 1_555
B0 O3 1.488649 1_555
B0 O2 1.488649 1_555
B1 O6 1.332096 1_555
B1 O0 1.384640 1_555
B1 O4 1.415755 1_655
B2 O7 1.332096 1_554
B2 O1 1.384640 1_554
B2 O5 1.415755 1_545
B3 O11 1.451452 1_555
B3 O10 1.451452 1_555
B3 O4 1.488649 1_555
B3 O5 1.488649 1_555
B4 O9 1.332096 1_556
B4 O10 1.384640 1_556
B4 O3 1.415755 1_565
B5 O8 1.332096 1_555
B5 O11 1.384640 1_555
B5 O2 1.415755 1_455
