# generated using pymatgen
data_HoAgSn
_symmetry_space_group_name_H-M   'P 1'
_cell_length_a   4.68722679
_cell_length_b   4.68722656
_cell_length_c   7.38265781
_cell_angle_alpha   90.00000000
_cell_angle_beta   90.00000000
_cell_angle_gamma   119.99999449
_symmetry_Int_Tables_number   1
_chemical_formula_structural   HoAgSn
_chemical_formula_sum   'Ho2 Ag2 Sn2'
_cell_volume   140.46732375
_cell_formula_units_Z   2
loop_
 _symmetry_equiv_pos_site_id
 _symmetry_equiv_pos_as_xyz
  1  'x, y, z'
loop_
 _atom_site_type_symbol
 _atom_site_label
 _atom_site_symmetry_multiplicity
 _atom_site_fract_x
 _atom_site_fract_y
 _atom_site_fract_z
 _atom_site_occupancy
  Ho  Ho0  1  0.00000000  -0.00000000  0.72663766  1
  Ho  Ho1  1  0.00000000  0.00000000  0.22663766  1
  Ag  Ag0  1  0.66666700  0.33333300  0.54384396  1
  Ag  Ag1  1  0.33333300  0.66666700  0.04384396  1
  Sn  Sn0  1  0.33333300  0.66666700  0.44651938  1
  Sn  Sn1  1  0.66666700  0.33333300  0.94651938  1
loop_
_geom_bond_atom_site_label_1
_geom_bond_atom_site_label_2
_geom_bond_distance
_geom_bond_site_symmetry_2
Ho0 Sn1 3.155707 1_455
Ho0 Sn1 3.155711 1_445
Ho0 Sn1 3.155711 1_555
Ho0 Sn0 3.405884 1_545
Ho0 Sn0 3.405887 1_555
Ho0 Sn0 3.405887 1_445
Ho1 Sn0 3.155707 1_545
Ho1 Sn0 3.155711 1_555
Ho1 Sn0 3.155711 1_445
Ho1 Sn1 3.405884 1_454
Ho1 Sn1 3.405887 1_444
Ho1 Sn1 3.405887 1_554
Ag0 Sn0 2.799931 1_545
Ag0 Sn0 2.799931 1_655
Ag0 Sn0 2.799939 1_555
Ag0 Sn1 2.972815 1_555
Ag0 Ho0 3.023989 1_655
Ag0 Ho0 3.023993 1_665
Ag0 Ho0 3.023993 1_555
Ag0 Ho1 3.578756 1_655
Ag0 Ho1 3.578759 1_665
Ag0 Ho1 3.578760 1_555
Ag1 Sn1 2.799931 1_564
Ag1 Sn1 2.799931 1_454
Ag1 Sn1 2.799939 1_554
Ag1 Sn0 2.972815 1_555
Ag1 Ho1 3.023989 1_565
Ag1 Ho1 3.023993 1_555
Ag1 Ho1 3.023993 1_665
Ag1 Ho0 3.578756 1_564
Ag1 Ho0 3.578759 1_554
Ag1 Ho0 3.578760 1_664
