# generated using pymatgen
data_NdTe2Se
_symmetry_space_group_name_H-M   'P 1'
_cell_length_a   4.30484156
_cell_length_b   4.30041298
_cell_length_c   13.14228198
_cell_angle_alpha   90.00000000
_cell_angle_beta   99.42628338
_cell_angle_gamma   90.00000000
_symmetry_Int_Tables_number   1
_chemical_formula_structural   NdTe2Se
_chemical_formula_sum   'Nd2 Te4 Se2'
_cell_volume   240.01254694
_cell_formula_units_Z   2
loop_
 _symmetry_equiv_pos_site_id
 _symmetry_equiv_pos_as_xyz
  1  'x, y, z'
loop_
 _atom_site_type_symbol
 _atom_site_label
 _atom_site_symmetry_multiplicity
 _atom_site_fract_x
 _atom_site_fract_y
 _atom_site_fract_z
 _atom_site_occupancy
  Nd  Nd0  1  0.17889590  0.25000000  0.35779080  1
  Nd  Nd1  1  0.82110510  0.75000000  0.64220920  1
  Te  Te0  1  0.42333957  0.75000000  0.84667915  1
  Te  Te1  1  0.57666043  0.25000000  0.15332085  1
  Te  Te2  1  0.92355273  0.25000000  0.84710346  1
  Te  Te3  1  0.07644727  0.75000000  0.15289654  1
  Se  Se0  1  0.29430819  0.25000000  0.58861638  1
  Se  Se1  1  0.70569181  0.75000000  0.41138362  1
loop_
_geom_bond_atom_site_label_1
_geom_bond_atom_site_label_2
_geom_bond_distance
_geom_bond_site_symmetry_2
Nd0 Se0 2.992613 1_555
Nd0 Se1 3.120748 1_555
Nd0 Se1 3.120748 1_545
Nd0 Se1 3.120751 1_455
Nd0 Se1 3.120751 1_445
Nd0 Te1 3.414714 1_555
Nd0 Te1 3.414716 1_455
Nd0 Te3 3.417593 1_545
Nd0 Te3 3.417593 1_555
Nd1 Se1 2.992613 1_555
Nd1 Se0 3.120749 1_665
Nd1 Se0 3.120749 1_655
Nd1 Se0 3.120751 1_565
Nd1 Se0 3.120751 1_555
Nd1 Te0 3.414713 1_655
Nd1 Te0 3.414716 1_555
Nd1 Te2 3.417593 1_565
Nd1 Te2 3.417593 1_555
Te0 Te2 3.042419 1_455
Te0 Te2 3.042419 1_465
Te0 Te2 3.042425 1_565
Te0 Te2 3.042425 1_555
Te1 Te3 3.042419 1_645
Te1 Te3 3.042419 1_655
Te1 Te3 3.042425 1_545
Te1 Te3 3.042425 1_555
