# generated using pymatgen
data_Sr(AsRu)2
_symmetry_space_group_name_H-M   'P 1'
_cell_length_a   4.17481035
_cell_length_b   4.17480963
_cell_length_c   6.41950294
_cell_angle_alpha   108.97563572
_cell_angle_beta   108.97564663
_cell_angle_gamma   89.99999271
_symmetry_Int_Tables_number   1
_chemical_formula_structural   Sr(AsRu)2
_chemical_formula_sum   'Sr1 As2 Ru2'
_cell_volume   99.35392702
_cell_formula_units_Z   1
loop_
 _symmetry_equiv_pos_site_id
 _symmetry_equiv_pos_as_xyz
  1  'x, y, z'
loop_
 _atom_site_type_symbol
 _atom_site_label
 _atom_site_symmetry_multiplicity
 _atom_site_fract_x
 _atom_site_fract_y
 _atom_site_fract_z
 _atom_site_occupancy
  Sr  Sr0  1  -0.00000000  0.00000000  -0.00000000  1
  As  As0  1  0.64322152  0.64322152  0.28644404  1
  As  As1  1  0.35677848  0.35677848  0.71355596  1
  Ru  Ru0  1  0.75000000  0.25000000  0.50000000  1
  Ru  Ru1  1  0.25000000  0.75000000  0.50000000  1
loop_
_geom_bond_atom_site_label_1
_geom_bond_atom_site_label_2
_geom_bond_distance
_geom_bond_site_symmetry_2
As0 Ru0 2.416453 1_555
As0 Ru1 2.416453 1_555
As0 Ru0 2.416457 1_565
As0 Ru1 2.416457 1_655
As0 Sr0 3.373539 1_555
As0 Sr0 3.373541 1_565
As0 Sr0 3.373541 1_655
As0 Sr0 3.373544 1_665
As1 Ru1 2.416453 1_555
As1 Ru0 2.416453 1_555
As1 Ru1 2.416457 1_545
As1 Ru0 2.416457 1_455
As1 Sr0 3.373539 1_666
As1 Sr0 3.373541 1_656
As1 Sr0 3.373541 1_566
As1 Sr0 3.373544 1_556
Ru0 Sr0 3.532865 1_656
Ru0 Sr0 3.532865 1_555
Ru0 Sr0 3.532865 1_666
Ru0 Sr0 3.532865 1_655
Ru1 Sr0 3.532865 1_565
Ru1 Sr0 3.532865 1_666
Ru1 Sr0 3.532865 1_555
Ru1 Sr0 3.532865 1_566
