# generated using pymatgen
data_UAsS
_symmetry_space_group_name_H-M   'P 1'
_cell_length_a   3.90394057
_cell_length_b   3.90394057
_cell_length_c   8.38513821
_cell_angle_alpha   90.00000000
_cell_angle_beta   90.00000000
_cell_angle_gamma   90.00000000
_symmetry_Int_Tables_number   1
_chemical_formula_structural   UAsS
_chemical_formula_sum   'U2 As2 S2'
_cell_volume   127.79581173
_cell_formula_units_Z   2
loop_
 _symmetry_equiv_pos_site_id
 _symmetry_equiv_pos_as_xyz
  1  'x, y, z'
loop_
 _atom_site_type_symbol
 _atom_site_label
 _atom_site_symmetry_multiplicity
 _atom_site_fract_x
 _atom_site_fract_y
 _atom_site_fract_z
 _atom_site_occupancy
  U  U0  1  0.00000000  0.50000000  0.71851371  1
  U  U1  1  0.50000000  0.00000000  0.28148629  1
  As  As0  1  0.50000000  0.50000000  0.00000000  1
  As  As1  1  0.00000000  0.00000000  0.00000000  1
  S  S0  1  0.00000000  0.50000000  0.37052058  1
  S  S1  1  0.50000000  -0.00000000  0.62947942  1
loop_
_geom_bond_atom_site_label_1
_geom_bond_atom_site_label_2
_geom_bond_distance
_geom_bond_site_symmetry_2
As0 As1 2.760503 1_555
As0 As1 2.760503 1_565
As0 As1 2.760503 1_655
As0 As1 2.760503 1_665
As0 U1 3.062876 1_555
As0 U0 3.062876 1_654
As0 U0 3.062876 1_554
As0 U1 3.062876 1_565
As1 U1 3.062876 1_555
As1 U0 3.062876 1_544
As1 U0 3.062876 1_554
As1 U1 3.062876 1_455
S0 U1 2.859674 1_455
S0 U1 2.859674 1_555
S0 U1 2.859674 1_565
S0 U1 2.859674 1_465
S0 U0 2.917970 1_555
S1 U0 2.859674 1_545
S1 U0 2.859674 1_655
S1 U0 2.859674 1_555
S1 U0 2.859674 1_645
S1 U1 2.917970 1_555
