# generated using pymatgen
data_RbAlF4
_symmetry_space_group_name_H-M   'P 1'
_cell_length_a   6.25700599
_cell_length_b   7.20703511
_cell_length_c   7.21524016
_cell_angle_alpha   90.00000000
_cell_angle_beta   90.00000000
_cell_angle_gamma   90.00000000
_symmetry_Int_Tables_number   1
_chemical_formula_structural   RbAlF4
_chemical_formula_sum   'Rb4 Al4 F16'
_cell_volume   325.36737216
_cell_formula_units_Z   4
loop_
 _symmetry_equiv_pos_site_id
 _symmetry_equiv_pos_as_xyz
  1  'x, y, z'
loop_
 _atom_site_type_symbol
 _atom_site_label
 _atom_site_symmetry_multiplicity
 _atom_site_fract_x
 _atom_site_fract_y
 _atom_site_fract_z
 _atom_site_occupancy
  Rb  Rb0  1  0.53023761  0.50000000  -0.00000000  1
  Rb  Rb1  1  0.46976239  -0.00000000  0.50000000  1
  Rb  Rb2  1  0.47916800  -0.00000000  -0.00000000  1
  Rb  Rb3  1  0.52083200  0.50000000  0.50000000  1
  Al  Al0  1  -0.00000000  0.75000000  0.25000000  1
  Al  Al1  1  -0.00000000  0.25000000  0.75000000  1
  Al  Al2  1  -0.00000000  0.25000000  0.25000000  1
  Al  Al3  1  -0.00000000  0.75000000  0.75000000  1
  F  F0  1  0.71959603  0.77177791  0.25376579  1
  F  F1  1  0.71959603  0.22822209  0.74623421  1
  F  F2  1  0.28040397  0.27177791  0.24623421  1
  F  F3  1  0.28040397  0.72822209  0.75376579  1
  F  F4  1  0.28040397  0.72822209  0.24623421  1
  F  F5  1  0.28040397  0.27177791  0.75376579  1
  F  F6  1  0.71959603  0.22822209  0.25376579  1
  F  F7  1  0.71959603  0.77177791  0.74623421  1
  F  F8  1  0.01047056  0.79356911  0.50000000  1
  F  F9  1  0.01047056  0.20643089  0.50000000  1
  F  F10  1  0.98952944  0.29356911  -0.00000000  1
  F  F11  1  0.98952944  0.70643089  -0.00000000  1
  F  F12  1  0.96988309  0.50000000  0.70630898  1
  F  F13  1  0.96988309  0.50000000  0.29369102  1
  F  F14  1  0.03011691  -0.00000000  0.79369102  1
  F  F15  1  0.03011691  -0.00000000  0.20630898  1
loop_
_geom_bond_atom_site_label_1
_geom_bond_atom_site_label_2
_geom_bond_distance
_geom_bond_site_symmetry_2
Al0 F4 1.761705 1_555
Al0 F0 1.761705 1_455
Al0 F11 1.832108 1_455
Al0 F8 1.832108 1_555
Al0 F13 1.838810 1_455
Al0 F15 1.838810 1_565
Al1 F1 1.761705 1_455
Al1 F5 1.761705 1_555
Al1 F9 1.832108 1_555
Al1 F10 1.832108 1_456
Al1 F12 1.838810 1_455
Al1 F14 1.838810 1_555
Al2 F6 1.761705 1_455
Al2 F2 1.761705 1_555
Al2 F9 1.832108 1_555
Al2 F10 1.832108 1_455
Al2 F13 1.838810 1_455
Al2 F15 1.838810 1_555
Al3 F7 1.761705 1_455
Al3 F3 1.761705 1_555
Al3 F11 1.832108 1_456
Al3 F8 1.832108 1_555
Al3 F12 1.838810 1_455
Al3 F14 1.838810 1_565
F0 Rb1 2.881919 1_565
F0 Rb2 2.884609 1_565
F0 Rb3 2.922279 1_555
F0 Rb0 2.931354 1_555
F1 Rb1 2.881919 1_555
F1 Rb2 2.884609 1_556
F1 Rb3 2.922279 1_555
F1 Rb0 2.931354 1_556
F2 Rb0 2.881919 1_555
F2 Rb3 2.884609 1_555
F2 Rb2 2.922279 1_555
F2 Rb1 2.931354 1_555
F3 Rb0 2.881919 1_556
F3 Rb3 2.884609 1_555
F3 Rb2 2.922279 1_566
F3 Rb1 2.931354 1_565
F4 Rb0 2.881919 1_555
F4 Rb3 2.884609 1_555
F4 Rb2 2.922279 1_565
F4 Rb1 2.931354 1_565
F5 Rb0 2.881919 1_556
F5 Rb3 2.884609 1_555
F5 Rb2 2.922279 1_556
F5 Rb1 2.931354 1_555
F6 Rb1 2.881919 1_555
F6 Rb2 2.884609 1_555
F6 Rb3 2.922279 1_555
F6 Rb0 2.931354 1_555
F7 Rb1 2.881919 1_565
F7 Rb2 2.884609 1_566
F7 Rb3 2.922279 1_555
F7 Rb0 2.931354 1_556
F12 Rb3 3.179676 1_555
F13 Rb3 3.179676 1_555
F14 Rb2 3.179676 1_556
F15 Rb2 3.179676 1_555
