# generated using pymatgen
data_U3(CuGe)4
_symmetry_space_group_name_H-M   'P 1'
_cell_length_a   7.99377470
_cell_length_b   7.99377470
_cell_length_c   7.99377470
_cell_angle_alpha   148.28177952
_cell_angle_beta   131.88673526
_cell_angle_gamma   58.78143203
_symmetry_Int_Tables_number   1
_chemical_formula_structural   U3(CuGe)4
_chemical_formula_sum   'U3 Cu4 Ge4'
_cell_volume   198.31367355
_cell_formula_units_Z   1
loop_
 _symmetry_equiv_pos_site_id
 _symmetry_equiv_pos_as_xyz
  1  'x, y, z'
loop_
 _atom_site_type_symbol
 _atom_site_label
 _atom_site_symmetry_multiplicity
 _atom_site_fract_x
 _atom_site_fract_y
 _atom_site_fract_z
 _atom_site_occupancy
  U  U0  1  0.87078892  0.37078892  0.50000000  1
  U  U1  1  0.12921108  0.62921108  0.50000000  1
  U  U2  1  0.50000000  0.50000000  -0.00000000  1
  Cu  Cu0  1  0.85773134  0.16901049  0.68872085  1
  Cu  Cu1  1  0.14226866  0.83098951  0.31127915  1
  Cu  Cu2  1  0.48028963  0.16901049  0.31127915  1
  Cu  Cu3  1  0.51971037  0.83098951  0.68872085  1
  Ge  Ge0  1  0.28511147  0.28511147  -0.00000000  1
  Ge  Ge1  1  0.80664851  0.00000000  0.80664851  1
  Ge  Ge2  1  0.19335149  -0.00000000  0.19335149  1
  Ge  Ge3  1  0.71488853  0.71488853  -0.00000000  1
loop_
_geom_bond_atom_site_label_1
_geom_bond_atom_site_label_2
_geom_bond_distance
_geom_bond_site_symmetry_2
Cu0 Cu2 2.459846 1_555
Cu0 Ge1 2.476561 1_555
Cu0 Ge3 2.587100 1_545
Cu0 Ge3 2.587100 1_556
Cu0 Ge0 2.594417 1_656
Cu0 U1 3.032286 1_645
Cu0 U1 3.032286 1_656
Cu0 U0 3.068059 1_555
Cu1 Cu3 2.459846 1_555
Cu1 Ge2 2.476561 1_565
Cu1 Ge0 2.587100 1_566
Cu1 Ge0 2.587100 1_555
Cu1 Ge3 2.594417 1_455
Cu1 U0 3.032286 1_454
Cu1 U0 3.032286 1_465
Cu1 U1 3.068059 1_555
Cu2 Ge2 2.476561 1_555
Cu2 Ge3 2.587100 1_556
Cu2 Ge3 2.587100 1_545
Cu2 Ge0 2.594417 1_555
Cu2 U1 3.032286 1_555
Cu2 U1 3.032286 1_544
Cu2 U0 3.068059 1_555
Cu3 Ge1 2.476561 1_565
Cu3 Ge0 2.587100 1_555
Cu3 Ge0 2.587100 1_566
Cu3 Ge3 2.594417 1_556
Cu3 U0 3.032286 1_555
Cu3 U0 3.032286 1_566
Cu3 U1 3.068059 1_555
Ge0 U2 2.993364 1_555
Ge0 U1 3.080276 1_544
Ge0 U1 3.080276 1_555
Ge1 Ge2 2.520203 1_656
Ge1 U2 2.960720 1_556
Ge1 U2 2.960720 1_545
Ge1 U1 3.098293 1_645
Ge1 U0 3.098293 1_545
Ge1 U1 3.098293 1_656
Ge1 U0 3.098293 1_556
Ge2 U2 2.960720 1_556
Ge2 U2 2.960720 1_545
Ge2 U0 3.098293 1_444
Ge2 U1 3.098293 1_544
Ge2 U1 3.098293 1_555
Ge2 U0 3.098293 1_455
Ge3 U2 2.993364 1_555
Ge3 U0 3.080276 1_565
Ge3 U0 3.080276 1_554
