# generated using pymatgen
data_Li2SeO4
_symmetry_space_group_name_H-M   'P 1'
_cell_length_a   8.61882476
_cell_length_b   8.61882476
_cell_length_c   8.61882491
_cell_angle_alpha   107.80369941
_cell_angle_beta   107.80369940
_cell_angle_gamma   107.80369968
_symmetry_Int_Tables_number   1
_chemical_formula_structural   Li2SeO4
_chemical_formula_sum   'Li12 Se6 O24'
_cell_volume   521.06797266
_cell_formula_units_Z   6
loop_
 _symmetry_equiv_pos_site_id
 _symmetry_equiv_pos_as_xyz
  1  'x, y, z'
loop_
 _atom_site_type_symbol
 _atom_site_label
 _atom_site_symmetry_multiplicity
 _atom_site_fract_x
 _atom_site_fract_y
 _atom_site_fract_z
 _atom_site_occupancy
  Li  Li0  1  0.29509654  0.06539129  0.89232337  1
  Li  Li1  1  0.06539129  0.89232337  0.29509654  1
  Li  Li2  1  0.89232337  0.29509654  0.06539129  1
  Li  Li3  1  0.70490346  0.93460871  0.10767663  1
  Li  Li4  1  0.93460871  0.10767663  0.70490346  1
  Li  Li5  1  0.10767663  0.70490346  0.93460871  1
  Li  Li6  1  0.62237670  0.39977621  0.22237186  1
  Li  Li7  1  0.39977621  0.22237186  0.62237670  1
  Li  Li8  1  0.22237186  0.62237670  0.39977621  1
  Li  Li9  1  0.37762330  0.60022379  0.77762814  1
  Li  Li10  1  0.60022379  0.77762814  0.37762330  1
  Li  Li11  1  0.77762814  0.37762330  0.60022379  1
  Se  Se0  1  0.96182292  0.73609522  0.55099345  1
  Se  Se1  1  0.44900655  0.03817708  0.26390478  1
  Se  Se2  1  0.26390478  0.44900655  0.03817708  1
  Se  Se3  1  0.03817708  0.26390478  0.44900655  1
  Se  Se4  1  0.55099345  0.96182292  0.73609522  1
  Se  Se5  1  0.73609522  0.55099345  0.96182292  1
  O  O0  1  0.52473732  0.47236925  0.81112939  1
  O  O1  1  0.52763075  0.18887061  0.47526268  1
  O  O2  1  0.47526268  0.52763075  0.18887061  1
  O  O3  1  0.18887061  0.47526268  0.52763075  1
  O  O4  1  0.47236925  0.81112939  0.52473732  1
  O  O5  1  0.14722014  0.13788495  0.46645993  1
  O  O6  1  0.85277986  0.86211505  0.53354007  1
  O  O7  1  0.86211505  0.53354007  0.85277986  1
  O  O8  1  0.53354007  0.85277986  0.86211505  1
  O  O9  1  0.92356751  0.25162012  0.57011096  1
  O  O10  1  0.13788495  0.46645993  0.14722014  1
  O  O11  1  0.46645993  0.14722014  0.13788495  1
  O  O12  1  0.07643249  0.74837988  0.42988904  1
  O  O13  1  0.74837988  0.42988904  0.07643249  1
  O  O14  1  0.42988904  0.07643249  0.74837988  1
  O  O15  1  0.23355830  0.89713790  0.18536551  1
  O  O16  1  0.25162012  0.57011096  0.92356751  1
  O  O17  1  0.57011096  0.92356751  0.25162012  1
  O  O18  1  0.10286210  0.81463449  0.76644170  1
  O  O19  1  0.81463449  0.76644170  0.10286210  1
  O  O20  1  0.76644170  0.10286210  0.81463449  1
  O  O21  1  0.89713790  0.18536551  0.23355830  1
  O  O22  1  0.18536551  0.23355830  0.89713790  1
  O  O23  1  0.81112939  0.52473732  0.47236925  1
loop_
_geom_bond_atom_site_label_1
_geom_bond_atom_site_label_2
_geom_bond_distance
_geom_bond_site_symmetry_2
Li0 O11 1.922723 1_556
Li0 O14 1.945209 1_555
Li0 O22 1.955097 1_555
Li0 O18 1.967303 1_545
Li1 O5 1.922723 1_565
Li1 O12 1.945209 1_555
Li1 O15 1.955097 1_555
Li1 O19 1.967303 1_455
Li2 O10 1.922723 1_655
Li2 O13 1.945208 1_555
Li2 O21 1.955097 1_555
Li2 O20 1.967303 1_554
Li3 O8 1.922723 1_554
Li3 O17 1.945209 1_555
Li3 O19 1.955097 1_555
Li3 O21 1.967303 1_565
Li4 O6 1.922723 1_545
Li4 O9 1.945209 1_555
Li4 O20 1.955097 1_555
Li4 O22 1.967303 1_655
Li5 O7 1.922723 1_455
Li5 O16 1.945208 1_555
Li5 O18 1.955097 1_555
Li5 O15 1.967303 1_556
Li6 O13 1.921322 1_555
Li6 O11 1.928171 1_555
Li6 O2 1.931447 1_555
Li6 O23 1.953231 1_555
Li7 O14 1.921322 1_555
Li7 O5 1.928171 1_555
Li7 O1 1.931447 1_555
Li7 O0 1.953231 1_555
Li8 O12 1.921322 1_555
Li8 O10 1.928171 1_555
Li8 O3 1.931447 1_555
Li8 O4 1.953231 1_555
Li9 O16 1.921322 1_555
Li9 O8 1.928171 1_555
Li9 O0 1.931447 1_555
Li9 O3 1.953231 1_555
Li10 O17 1.921322 1_555
Li10 O6 1.928171 1_555
Li10 O4 1.931447 1_555
Li10 O2 1.953231 1_555
Li11 O9 1.921322 1_555
Li11 O7 1.928171 1_555
Li11 O23 1.931447 1_555
Li11 O1 1.953231 1_555
O0 Se5 1.650640 1_555
O1 Se1 1.650640 1_555
O2 Se2 1.650640 1_555
O3 Se3 1.650640 1_555
O4 Se4 1.650640 1_555
O5 Se3 1.650238 1_555
O6 Se0 1.650238 1_555
O7 Se5 1.650238 1_555
O8 Se4 1.650238 1_555
O9 Se3 1.646375 1_655
O10 Se2 1.650238 1_555
O11 Se1 1.650238 1_555
O12 Se0 1.646375 1_455
O13 Se5 1.646375 1_554
O14 Se4 1.646375 1_545
O15 Se1 1.652821 1_565
O16 Se2 1.646375 1_556
O17 Se1 1.646375 1_565
O18 Se0 1.652821 1_455
O19 Se5 1.652821 1_554
O20 Se4 1.652821 1_545
O21 Se3 1.652821 1_655
O22 Se2 1.652821 1_556
O23 Se0 1.650640 1_555
