# generated using pymatgen
data_Cs2ZrTlOF5
_symmetry_space_group_name_H-M   'P 1'
_cell_length_a   6.81961677
_cell_length_b   6.81961677
_cell_length_c   6.81961677
_cell_angle_alpha   119.61822145
_cell_angle_beta   119.61822145
_cell_angle_gamma   90.66254167
_symmetry_Int_Tables_number   1
_chemical_formula_structural   Cs2ZrTlOF5
_chemical_formula_sum   'Cs2 Zr1 Tl1 O1 F5'
_cell_volume   225.54458419
_cell_formula_units_Z   1
loop_
 _symmetry_equiv_pos_site_id
 _symmetry_equiv_pos_as_xyz
  1  'x, y, z'
loop_
 _atom_site_type_symbol
 _atom_site_label
 _atom_site_symmetry_multiplicity
 _atom_site_fract_x
 _atom_site_fract_y
 _atom_site_fract_z
 _atom_site_occupancy
  Cs  Cs0  1  0.74834600  0.24834600  0.50000000  1
  Cs  Cs1  1  0.24834600  0.74834600  0.50000000  1
  Zr  Zr0  1  0.98099800  0.98099800  0.00000000  1
  Tl  Tl0  1  0.51306700  0.51306700  0.00000000  1
  O  O0  1  0.78117000  0.78117000  0.00000000  1
  F  F0  1  0.21947500  0.21947500  0.42971200  1
  F  F1  1  0.78976300  0.21947500  0.00000000  1
  F  F2  1  0.21947500  0.78976300  0.00000000  1
  F  F3  1  0.78976300  0.78976300  0.57028800  1
  F  F4  1  0.20959800  0.20959800  0.00000000  1
loop_
_geom_bond_atom_site_label_1
_geom_bond_atom_site_label_2
_geom_bond_distance
_geom_bond_site_symmetry_2
Cs0 F1 3.385005 1_556
Cs0 F0 3.385005 1_555
Cs0 F2 3.385005 1_545
Cs0 F3 3.385005 1_545
Cs0 O0 3.443878 1_556
Cs0 O0 3.443878 1_545
Cs0 F4 3.449533 1_656
Cs0 F4 3.449533 1_555
Cs0 F3 3.469148 1_555
Cs0 F1 3.469148 1_555
Cs0 F2 3.469148 1_656
Cs0 F0 3.469148 1_655
Cs1 F2 3.385005 1_556
Cs1 F0 3.385005 1_555
Cs1 F3 3.385005 1_455
Cs1 F1 3.385005 1_455
Cs1 O0 3.443878 1_556
Cs1 O0 3.443878 1_455
Cs1 F4 3.449533 1_566
Cs1 F4 3.449533 1_555
Cs1 F2 3.469148 1_555
Cs1 F1 3.469148 1_566
Cs1 F3 3.469148 1_555
Cs1 F0 3.469148 1_565
O0 Zr0 1.916045 1_555
O0 Tl0 2.570698 1_555
F0 Zr0 2.096373 1_445
F0 Tl0 2.767081 1_556
F1 Zr0 2.096373 1_545
F1 Tl0 2.767081 1_555
F2 Zr0 2.096373 1_455
F2 Tl0 2.767081 1_555
F3 Zr0 2.096373 1_556
F3 Tl0 2.767081 1_555
F4 Zr0 2.191925 1_445
