# generated using pymatgen
data_Cu2Ag2O3
_symmetry_space_group_name_H-M   'P 1'
_cell_length_a   6.84254195
_cell_length_b   6.84254195
_cell_length_c   6.84254195
_cell_angle_alpha   128.04426632
_cell_angle_beta   128.04426632
_cell_angle_gamma   76.55332942
_symmetry_Int_Tables_number   1
_chemical_formula_structural   Cu2Ag2O3
_chemical_formula_sum   'Cu4 Ag4 O6'
_cell_volume   193.01612308
_cell_formula_units_Z   2
loop_
 _symmetry_equiv_pos_site_id
 _symmetry_equiv_pos_as_xyz
  1  'x, y, z'
loop_
 _atom_site_type_symbol
 _atom_site_label
 _atom_site_symmetry_multiplicity
 _atom_site_fract_x
 _atom_site_fract_y
 _atom_site_fract_z
 _atom_site_occupancy
  Cu  Cu0  1  0.37500000  0.62500000  0.25000000  1
  Cu  Cu1  1  0.87500000  0.62500000  0.25000000  1
  Cu  Cu2  1  0.37500000  0.62500000  0.75000000  1
  Cu  Cu3  1  0.37500000  0.12500000  0.75000000  1
  Ag  Ag0  1  0.37500000  0.12500000  0.25000000  1
  Ag  Ag1  1  0.87500000  0.12500000  0.25000000  1
  Ag  Ag2  1  0.87500000  0.62500000  0.75000000  1
  Ag  Ag3  1  0.87500000  0.12500000  0.75000000  1
  O  O0  1  0.25000000  0.75000000  0.50000000  1
  O  O1  1  0.50000000  0.50000000  0.00000000  1
  O  O2  1  0.73663300  0.73663300  0.00000000  1
  O  O3  1  0.48663300  0.98663300  0.50000000  1
  O  O4  1  0.26336700  0.26336700  0.00000000  1
  O  O5  1  0.01336700  0.51336700  0.50000000  1
loop_
_geom_bond_atom_site_label_1
_geom_bond_atom_site_label_2
_geom_bond_distance
_geom_bond_site_symmetry_2
Cu0 O3 1.919402 1_555
Cu0 O4 1.919402 1_555
Cu0 O1 2.012256 1_555
Cu0 O0 2.012256 1_555
Cu1 O2 1.919402 1_555
Cu1 O5 1.919402 1_655
Cu1 O1 2.012256 1_555
Cu1 O0 2.012256 1_655
Cu2 O2 1.919402 1_556
Cu2 O5 1.919402 1_555
Cu2 O1 2.012256 1_556
Cu2 O0 2.012256 1_555
Cu3 O3 1.919402 1_545
Cu3 O4 1.919402 1_556
Cu3 O0 2.012256 1_545
Cu3 O1 2.012256 1_556
Ag0 O4 2.110802 1_555
Ag0 O3 2.110802 1_545
Ag1 O5 2.110802 1_655
Ag1 O2 2.110802 1_545
Ag2 O5 2.110802 1_655
Ag2 O2 2.110802 1_556
Ag3 O4 2.110802 1_656
Ag3 O3 2.110802 1_545
