# generated using pymatgen
data_V(CrC)2
_symmetry_space_group_name_H-M   'P 1'
_cell_length_a   4.80571871
_cell_length_b   4.80571871
_cell_length_c   7.10046400
_cell_angle_alpha   90.00000000
_cell_angle_beta   90.00000000
_cell_angle_gamma   145.55124043
_symmetry_Int_Tables_number   1
_chemical_formula_structural   V(CrC)2
_chemical_formula_sum   'V2 Cr4 C4'
_cell_volume   92.76107859
_cell_formula_units_Z   2
loop_
 _symmetry_equiv_pos_site_id
 _symmetry_equiv_pos_as_xyz
  1  'x, y, z'
loop_
 _atom_site_type_symbol
 _atom_site_label
 _atom_site_symmetry_multiplicity
 _atom_site_fract_x
 _atom_site_fract_y
 _atom_site_fract_z
 _atom_site_occupancy
  V  V0  1  0.59586800  0.40413200  0.75000000  1
  V  V1  1  0.40413200  0.59586800  0.25000000  1
  Cr  Cr0  1  0.85925300  0.14074700  0.57172700  1
  Cr  Cr1  1  0.14074700  0.85925300  0.42827300  1
  Cr  Cr2  1  0.14074700  0.85925300  0.07172700  1
  Cr  Cr3  1  0.85925300  0.14074700  0.92827300  1
  C  C0  1  0.74950800  0.25049200  0.25000000  1
  C  C1  1  0.25049200  0.74950800  0.75000000  1
  C  C2  1  0.50000000  0.50000000  0.50000000  1
  C  C3  1  0.50000000  0.50000000  0.00000000  1
loop_
_geom_bond_atom_site_label_1
_geom_bond_atom_site_label_2
_geom_bond_distance
_geom_bond_site_symmetry_2
C0 V1 2.009989 1_655
C0 V1 2.009989 1_545
C0 Cr2 2.150417 1_545
C0 Cr1 2.150417 1_545
C0 Cr2 2.150417 1_655
C0 Cr1 2.150417 1_655
C0 Cr0 2.496716 1_555
C0 Cr3 2.496716 1_554
C1 V0 2.009989 1_565
C1 V0 2.009989 1_455
C1 Cr3 2.150417 1_455
C1 Cr0 2.150417 1_455
C1 Cr3 2.150417 1_565
C1 Cr0 2.150417 1_565
C1 Cr1 2.496716 1_555
C1 Cr2 2.496716 1_556
C2 V1 1.981318 1_555
C2 V0 1.981318 1_555
C2 Cr1 1.988463 1_655
C2 Cr0 1.988463 1_565
C2 Cr0 1.988463 1_455
C2 Cr1 1.988463 1_545
C3 V0 1.981318 1_554
C3 V1 1.981318 1_555
C3 Cr3 1.988463 1_564
C3 Cr2 1.988463 1_655
C3 Cr2 1.988463 1_545
C3 Cr3 1.988463 1_454
