# generated using pymatgen
data_K2B2S7
_symmetry_space_group_name_H-M   'P 1'
_cell_length_a   8.19823360
_cell_length_b   8.19823360
_cell_length_c   11.81158301
_cell_angle_alpha   60.38370982
_cell_angle_beta   60.38370982
_cell_angle_gamma   49.38139638
_symmetry_Int_Tables_number   1
_chemical_formula_structural   K2B2S7
_chemical_formula_sum   'K4 B4 S14'
_cell_volume   505.66047732
_cell_formula_units_Z   2
loop_
 _symmetry_equiv_pos_site_id
 _symmetry_equiv_pos_as_xyz
  1  'x, y, z'
loop_
 _atom_site_type_symbol
 _atom_site_label
 _atom_site_symmetry_multiplicity
 _atom_site_fract_x
 _atom_site_fract_y
 _atom_site_fract_z
 _atom_site_occupancy
  K  K0  1  0.66824949  0.12885612  0.02298312  1
  K  K1  1  0.12885612  0.66824949  0.52298312  1
  K  K2  1  0.33175051  0.87114388  0.97701688  1
  K  K3  1  0.87114388  0.33175051  0.47701688  1
  B  B0  1  0.84146588  0.39134961  0.14892049  1
  B  B1  1  0.60865039  0.15853412  0.35107951  1
  B  B2  1  0.15853412  0.60865039  0.85107951  1
  B  B3  1  0.39134961  0.84146588  0.64892049  1
  S  S0  1  0.54578116  0.45421884  0.25000000  1
  S  S1  1  0.09688792  0.05743799  0.72975621  1
  S  S2  1  0.94256201  0.90311208  0.77024379  1
  S  S3  1  0.90311208  0.94256201  0.27024379  1
  S  S4  1  0.43110698  0.84210638  0.47514924  1
  S  S5  1  0.45421884  0.54578116  0.75000000  1
  S  S6  1  0.15789362  0.56889302  0.02485076  1
  S  S7  1  0.56889302  0.15789362  0.52485076  1
  S  S8  1  0.84210638  0.43110698  0.97514924  1
  S  S9  1  0.60695889  0.85534811  0.65869098  1
  S  S10  1  0.85534811  0.60695889  0.15869098  1
  S  S11  1  0.39304111  0.14465189  0.34130902  1
  S  S12  1  0.14465189  0.39304111  0.84130902  1
  S  S13  1  0.05743799  0.09688792  0.22975621  1
loop_
_geom_bond_atom_site_label_1
_geom_bond_atom_site_label_2
_geom_bond_distance
_geom_bond_site_symmetry_2
K0 S10 3.214839 1_545
K0 S2 3.286387 1_544
K0 S6 3.294724 1_555
K0 S8 3.302994 1_554
K0 S11 3.310675 1_555
K0 S3 3.448184 1_545
K0 S1 3.461661 1_654
K0 S5 3.471079 1_554
K0 S6 3.630745 1_645
K1 S9 3.214839 1_455
K1 S3 3.286387 1_455
K1 S7 3.294724 1_555
K1 S4 3.302994 1_555
K1 S12 3.310675 1_555
K1 S2 3.448184 1_455
K1 S13 3.461661 1_565
K1 S0 3.471079 1_555
K1 S7 3.630745 1_465
K2 S12 3.214839 1_565
K2 S13 3.286387 1_566
K2 S8 3.294724 1_555
K2 S6 3.302994 1_556
K2 S9 3.310675 1_555
K2 S1 3.448184 1_565
K2 S3 3.461661 1_456
K2 S0 3.471079 1_556
K2 S8 3.630745 1_465
K3 S11 3.214839 1_655
K3 S1 3.286387 1_655
K3 S4 3.294724 1_555
K3 S7 3.302994 1_555
K3 S10 3.310675 1_555
K3 S13 3.448184 1_655
K3 S2 3.461661 1_545
K3 S5 3.471079 1_555
K3 S4 3.630745 1_645
B0 S10 1.904540 1_555
B0 S8 1.910348 1_554
B0 S0 1.920469 1_555
B0 S13 1.923993 1_655
B1 S11 1.904540 1_555
B1 S7 1.910348 1_555
B1 S0 1.920469 1_555
B1 S3 1.923993 1_545
B2 S12 1.904540 1_555
B2 S6 1.910348 1_556
B2 S5 1.920469 1_555
B2 S2 1.923993 1_455
B3 S9 1.904540 1_555
B3 S4 1.910348 1_555
B3 S5 1.920469 1_555
B3 S1 1.923993 1_565
S7 S9 2.086352 1_545
S10 S6 2.086352 1_655
S11 S4 2.086352 1_545
S12 S8 2.086352 1_455
