# generated using pymatgen
data_La4Re6O19
_symmetry_space_group_name_H-M   'P 1'
_cell_length_a   7.85816124
_cell_length_b   7.85823690
_cell_length_c   7.85825754
_cell_angle_alpha   109.47765935
_cell_angle_beta   109.47522735
_cell_angle_gamma   109.47626916
_symmetry_Int_Tables_number   1
_chemical_formula_structural   La4Re6O19
_chemical_formula_sum   'La4 Re6 O19'
_cell_volume   373.47999851
_cell_formula_units_Z   1
loop_
 _symmetry_equiv_pos_site_id
 _symmetry_equiv_pos_as_xyz
  1  'x, y, z'
loop_
 _atom_site_type_symbol
 _atom_site_label
 _atom_site_symmetry_multiplicity
 _atom_site_fract_x
 _atom_site_fract_y
 _atom_site_fract_z
 _atom_site_occupancy
  La  La0  1  0.31598317  0.00006918  0.00043558  1
  La  La1  1  0.68410830  0.68412815  0.68412355  1
  La  La2  1  0.00046705  0.31592011  0.00008122  1
  La  La3  1  0.00012379  0.00048700  0.31615511  1
  Re  Re0  1  0.63338163  0.50019252  0.13302408  1
  Re  Re1  1  0.49991843  0.86671600  0.36679207  1
  Re  Re2  1  0.13300123  0.63341897  0.50018560  1
  Re  Re3  1  0.50019427  0.13303350  0.63338171  1
  Re  Re4  1  0.86664433  0.36676905  0.49981771  1
  Re  Re5  1  0.36675504  0.49986120  0.86667360  1
  O  O0  1  0.00048908  0.00049482  0.00047138  1
  O  O1  1  0.32009188  0.69469492  0.05803799  1
  O  O2  1  0.63788045  0.26304759  0.94170389  1
  O  O3  1  0.67781818  0.73657965  0.37377123  1
  O  O4  1  0.94168925  0.63787375  0.26303849  1
  O  O5  1  0.69468433  0.05805360  0.32010449  1
  O  O6  1  0.30468158  0.62594081  0.36321009  1
  O  O7  1  0.62593494  0.36320377  0.30465875  1
  O  O8  1  0.26305190  0.94172535  0.63783967  1
  O  O9  1  0.37378853  0.67782690  0.73659548  1
  O  O10  1  0.32169914  0.00015498  0.32201094  1
  O  O11  1  0.32199460  0.32163692  0.00011481  1
  O  O12  1  0.00014779  0.67831464  0.67911540  1
  O  O13  1  0.67832117  0.67911529  0.00019103  1
  O  O14  1  0.00013985  0.32198030  0.32170468  1
  O  O15  1  0.67912666  0.00015126  0.67832229  1
  O  O16  1  0.36322785  0.30468207  0.62595342  1
  O  O17  1  0.05803065  0.32009627  0.69465069  1
  O  O18  1  0.73662492  0.37383043  0.67783406  1
loop_
_geom_bond_atom_site_label_1
_geom_bond_atom_site_label_2
_geom_bond_distance
_geom_bond_site_symmetry_2
La0 O0 2.480414 1_555
La0 O12 2.511491 1_544
La0 O10 2.512174 1_555
La0 O11 2.512463 1_555
La0 O8 2.591042 1_544
La0 O7 2.593042 1_555
La0 O1 2.594383 1_545
La0 O5 2.953249 1_555
La0 O2 2.968302 1_554
La0 O9 2.968352 1_544
La1 O0 2.485432 1_666
La1 O15 2.511960 1_565
La1 O12 2.512167 1_655
La1 O13 2.512360 1_556
La1 O9 2.592784 1_555
La1 O18 2.592830 1_555
La1 O3 2.593026 1_555
La1 O6 2.960876 1_555
La1 O16 2.960886 1_555
La1 O7 2.961106 1_555
La2 O0 2.479768 1_555
La2 O15 2.511392 1_454
La2 O11 2.511904 1_555
La2 O14 2.512802 1_555
La2 O2 2.591003 1_454
La2 O6 2.593156 1_555
La2 O17 2.594800 1_554
La2 O1 2.953546 1_555
La2 O4 2.968735 1_455
La2 O18 2.969018 1_454
La3 O0 2.481703 1_555
La3 O13 2.512079 1_445
La3 O14 2.512123 1_555
La3 O10 2.512916 1_555
La3 O4 2.590604 1_445
La3 O16 2.592563 1_555
La3 O5 2.594392 1_455
La3 O17 2.952168 1_555
La3 O8 2.967203 1_545
La3 O3 2.967966 1_445
O1 Re5 1.986607 1_554
O1 Re1 1.990926 1_555
O2 Re0 1.986287 1_556
O2 Re3 1.987181 1_555
O3 Re0 1.983691 1_555
O3 Re1 1.985625 1_555
O4 Re2 1.986121 1_655
O4 Re0 1.987071 1_555
O5 Re1 1.986338 1_545
O5 Re4 1.990592 1_555
O6 Re1 1.983554 1_555
O6 Re2 1.990248 1_555
O7 Re4 1.983015 1_555
O7 Re0 1.990038 1_555
O8 Re3 1.986062 1_565
O8 Re2 1.987041 1_555
O9 Re2 1.984123 1_555
O9 Re5 1.985740 1_555
O10 Re3 2.018847 1_555
O10 Re1 2.020259 1_545
O11 Re0 2.018960 1_555
O11 Re5 2.020304 1_554
O12 Re4 2.020100 1_455
O12 Re2 2.021143 1_555
O13 Re5 2.020187 1_554
O13 Re0 2.021048 1_555
O14 Re2 2.019253 1_555
O14 Re4 2.019930 1_455
O15 Re1 2.020010 1_545
O15 Re3 2.021404 1_555
O16 Re5 1.983270 1_555
O16 Re3 1.989964 1_555
O17 Re4 1.986805 1_455
O17 Re5 1.990706 1_555
O18 Re3 1.984072 1_555
O18 Re4 1.985692 1_555
