# generated using pymatgen
data_Dy(MnSi)2
_symmetry_space_group_name_H-M   'P 1'
_cell_length_a   3.87520269
_cell_length_b   3.87520306
_cell_length_c   5.91285852
_cell_angle_alpha   109.12879386
_cell_angle_beta   109.12880408
_cell_angle_gamma   90.00001130
_symmetry_Int_Tables_number   1
_chemical_formula_structural   Dy(MnSi)2
_chemical_formula_sum   'Dy1 Mn2 Si2'
_cell_volume   78.68394742
_cell_formula_units_Z   1
loop_
 _symmetry_equiv_pos_site_id
 _symmetry_equiv_pos_as_xyz
  1  'x, y, z'
loop_
 _atom_site_type_symbol
 _atom_site_label
 _atom_site_symmetry_multiplicity
 _atom_site_fract_x
 _atom_site_fract_y
 _atom_site_fract_z
 _atom_site_occupancy
  Dy  Dy0  1  -0.00000000  0.00000000  -0.00000000  1
  Mn  Mn0  1  0.25000000  0.75000000  0.50000000  1
  Mn  Mn1  1  0.75000000  0.25000000  0.50000000  1
  Si  Si0  1  0.61730503  0.61730503  0.23460906  1
  Si  Si1  1  0.38269497  0.38269497  0.76539094  1
loop_
_geom_bond_atom_site_label_1
_geom_bond_atom_site_label_2
_geom_bond_distance
_geom_bond_site_symmetry_2
Dy0 Si0 3.003273 1_445
Dy0 Si1 3.003273 1_554
Dy0 Si1 3.003276 1_454
Dy0 Si0 3.003276 1_545
Dy0 Si0 3.003276 1_455
Dy0 Si1 3.003276 1_544
Dy0 Si0 3.003278 1_555
Dy0 Si1 3.003278 1_444
Dy0 Mn1 3.258469 1_555
Dy0 Mn0 3.258469 1_444
Dy0 Mn0 3.258469 1_545
Dy0 Mn1 3.258469 1_454
Dy0 Mn1 3.258470 1_444
Dy0 Mn0 3.258470 1_555
Dy0 Mn1 3.258470 1_455
Dy0 Mn0 3.258470 1_544
Mn0 Si0 2.384930 1_455
Mn0 Si1 2.384930 1_565
Mn0 Si1 2.384933 1_555
Mn0 Si0 2.384933 1_555
Mn1 Si1 2.384930 1_655
Mn1 Si0 2.384930 1_545
Mn1 Si0 2.384933 1_555
Mn1 Si1 2.384933 1_555
Si0 Si1 2.458510 1_554
