# generated using pymatgen
data_SmRh
_symmetry_space_group_name_H-M   'P 1'
_cell_length_a   3.48117514
_cell_length_b   3.48117514
_cell_length_c   3.48117514
_cell_angle_alpha   90.00000000
_cell_angle_beta   90.00000000
_cell_angle_gamma   90.00000000
_symmetry_Int_Tables_number   1
_chemical_formula_structural   SmRh
_chemical_formula_sum   'Sm1 Rh1'
_cell_volume   42.18690067
_cell_formula_units_Z   1
loop_
 _symmetry_equiv_pos_site_id
 _symmetry_equiv_pos_as_xyz
  1  'x, y, z'
loop_
 _atom_site_type_symbol
 _atom_site_label
 _atom_site_symmetry_multiplicity
 _atom_site_fract_x
 _atom_site_fract_y
 _atom_site_fract_z
 _atom_site_occupancy
  Sm  Sm0  1  0.50000000  0.50000000  0.50000000  1
  Rh  Rh0  1  0.00000000  0.00000000  0.00000000  1
loop_
_geom_bond_atom_site_label_1
_geom_bond_atom_site_label_2
_geom_bond_distance
_geom_bond_site_symmetry_2
Rh0 Sm0 3.014786 1_445
Rh0 Sm0 3.014786 1_544
Rh0 Sm0 3.014786 1_545
Rh0 Sm0 3.014786 1_444
Rh0 Sm0 3.014786 1_454
Rh0 Sm0 3.014786 1_554
Rh0 Sm0 3.014786 1_455
Rh0 Sm0 3.014786 1_555
