# generated using pymatgen
data_MgSiO3
_symmetry_space_group_name_H-M   'P 1'
_cell_length_a   6.43502636
_cell_length_b   6.43502636
_cell_length_c   4.99083737
_cell_angle_alpha   81.02678019
_cell_angle_beta   81.02678019
_cell_angle_gamma   86.38327046
_symmetry_Int_Tables_number   1
_chemical_formula_structural   MgSiO3
_chemical_formula_sum   'Mg4 Si4 O12'
_cell_volume   201.48154165
_cell_formula_units_Z   4
loop_
 _symmetry_equiv_pos_site_id
 _symmetry_equiv_pos_as_xyz
  1  'x, y, z'
loop_
 _atom_site_type_symbol
 _atom_site_label
 _atom_site_symmetry_multiplicity
 _atom_site_fract_x
 _atom_site_fract_y
 _atom_site_fract_z
 _atom_site_occupancy
  Mg  Mg0  1  0.09667400  0.90332600  0.75000000  1
  Mg  Mg1  1  0.90332600  0.09667400  0.25000000  1
  Mg  Mg2  1  0.72914378  0.27085622  0.75000000  1
  Mg  Mg3  1  0.27085622  0.72914378  0.25000000  1
  Si  Si0  1  0.20793998  0.38888763  0.78560076  1
  Si  Si1  1  0.61111237  0.79206002  0.71439924  1
  Si  Si2  1  0.79206002  0.61111237  0.21439924  1
  Si  Si3  1  0.38888763  0.20793998  0.28560076  1
  O  O0  1  0.41171048  0.29508861  0.57894772  1
  O  O1  1  0.70491139  0.58828952  0.92105228  1
  O  O2  1  0.58828952  0.70491139  0.42105228  1
  O  O3  1  0.29508861  0.41171048  0.07894772  1
  O  O4  1  0.61347649  0.14421676  0.13208443  1
  O  O5  1  0.85578324  0.38652351  0.36791557  1
  O  O6  1  0.38652351  0.85578324  0.86791557  1
  O  O7  1  0.14421676  0.61347649  0.63208443  1
  O  O8  1  0.03037411  0.21320493  0.85940791  1
  O  O9  1  0.78679507  0.96962589  0.64059209  1
  O  O10  1  0.96962589  0.78679507  0.14059209  1
  O  O11  1  0.21320493  0.03037411  0.35940791  1
loop_
_geom_bond_atom_site_label_1
_geom_bond_atom_site_label_2
_geom_bond_distance
_geom_bond_site_symmetry_2
Mg0 O7 2.033005 1_555
Mg0 O6 2.033005 1_555
Mg0 O11 2.038381 1_565
Mg0 O10 2.038381 1_456
Mg0 O9 2.148531 1_455
Mg0 O8 2.148531 1_565
Mg1 O4 2.033005 1_555
Mg1 O5 2.033005 1_555
Mg1 O8 2.038381 1_654
Mg1 O9 2.038381 1_545
Mg1 O10 2.148531 1_545
Mg1 O11 2.148531 1_655
Mg2 O4 2.000867 1_556
Mg2 O5 2.000867 1_555
Mg2 O8 2.090344 1_655
Mg2 O9 2.090344 1_545
Mg2 O0 2.321199 1_555
Mg2 O1 2.321199 1_555
Mg3 O7 2.000867 1_555
Mg3 O6 2.000867 1_554
Mg3 O11 2.090344 1_565
Mg3 O10 2.090344 1_455
Mg3 O3 2.321199 1_555
Mg3 O2 2.321199 1_555
O0 Si3 1.677227 1_555
O0 Si0 1.679270 1_555
O1 Si2 1.677227 1_556
O1 Si1 1.679270 1_555
O2 Si1 1.677227 1_555
O2 Si2 1.679270 1_555
O3 Si0 1.677227 1_554
O3 Si3 1.679270 1_555
O4 Si3 1.587985 1_555
O5 Si2 1.587985 1_555
O6 Si1 1.587985 1_555
O7 Si0 1.587985 1_555
O8 Si0 1.619003 1_555
O9 Si1 1.619003 1_555
O10 Si2 1.619003 1_555
O11 Si3 1.619003 1_555
