# generated using pymatgen
data_Pr(SiRh)2
_symmetry_space_group_name_H-M   'P 1'
_cell_length_a   4.10648297
_cell_length_b   4.10648436
_cell_length_c   5.86102025
_cell_angle_alpha   110.50697448
_cell_angle_beta   110.50699289
_cell_angle_gamma   90.00001689
_symmetry_Int_Tables_number   1
_chemical_formula_structural   Pr(SiRh)2
_chemical_formula_sum   'Pr1 Si2 Rh2'
_cell_volume   85.85336145
_cell_formula_units_Z   1
loop_
 _symmetry_equiv_pos_site_id
 _symmetry_equiv_pos_as_xyz
  1  'x, y, z'
loop_
 _atom_site_type_symbol
 _atom_site_label
 _atom_site_symmetry_multiplicity
 _atom_site_fract_x
 _atom_site_fract_y
 _atom_site_fract_z
 _atom_site_occupancy
  Pr  Pr0  1  -0.00000000  0.00000000  -0.00000000  1
  Si  Si0  1  0.62661485  0.62661485  0.25323071  1
  Si  Si1  1  0.37338515  0.37338515  0.74677029  1
  Rh  Rh0  1  0.25000000  0.75000000  0.50000000  1
  Rh  Rh1  1  0.75000000  0.25000000  0.50000000  1
loop_
_geom_bond_atom_site_label_1
_geom_bond_atom_site_label_2
_geom_bond_distance
_geom_bond_site_symmetry_2
Pr0 Si0 3.177062 1_555
Pr0 Si1 3.177062 1_444
Pr0 Si1 3.177063 1_554
Pr0 Si1 3.177063 1_454
Pr0 Si1 3.177064 1_544
Pr0 Si0 3.177065 1_545
Pr0 Si0 3.177066 1_455
Pr0 Si0 3.177067 1_445
Pr0 Rh0 3.270441 1_444
Pr0 Rh1 3.270441 1_555
Pr0 Rh0 3.270442 1_545
Pr0 Rh1 3.270442 1_454
Pr0 Rh1 3.270442 1_455
Pr0 Rh0 3.270442 1_544
Pr0 Rh0 3.270442 1_555
Pr0 Rh1 3.270442 1_444
Si0 Si1 2.578473 1_554
Rh0 Si0 2.407113 1_555
Rh0 Si0 2.407116 1_455
Rh0 Si1 2.407117 1_555
Rh0 Si1 2.407118 1_565
Rh1 Si0 2.407113 1_555
Rh1 Si1 2.407116 1_655
Rh1 Si0 2.407117 1_545
Rh1 Si1 2.407117 1_555
