# generated using pymatgen
data_Y(Al2Fe)4
_symmetry_space_group_name_H-M   'P 1'
_cell_length_a   4.99201851
_cell_length_b   6.64325657
_cell_length_c   6.64320302
_cell_angle_alpha   81.89572511
_cell_angle_beta   67.96692924
_cell_angle_gamma   67.96669508
_symmetry_Int_Tables_number   1
_chemical_formula_structural   Y(Al2Fe)4
_chemical_formula_sum   'Y1 Al8 Fe4'
_cell_volume   189.30539821
_cell_formula_units_Z   1
loop_
 _symmetry_equiv_pos_site_id
 _symmetry_equiv_pos_as_xyz
  1  'x, y, z'
loop_
 _atom_site_type_symbol
 _atom_site_label
 _atom_site_symmetry_multiplicity
 _atom_site_fract_x
 _atom_site_fract_y
 _atom_site_fract_z
 _atom_site_occupancy
  Y  Y0  1  0.00000000  -0.00000000  0.00000000  1
  Al  Al0  1  0.34173654  0.65808822  0.65807047  1
  Al  Al1  1  0.00001095  0.34186076  0.65811982  1
  Al  Al2  1  -0.00001095  0.65813924  0.34188018  1
  Al  Al3  1  0.65826346  0.34191178  0.34192953  1
  Al  Al4  1  0.27787634  0.22232151  0.22236150  1
  Al  Al5  1  0.49997762  0.77778771  0.22225395  1
  Al  Al6  1  0.50002238  0.22221229  0.77774605  1
  Al  Al7  1  0.72212366  0.77767849  0.77763850  1
  Fe  Fe0  1  0.50000000  -0.00000000  0.50000000  1
  Fe  Fe1  1  0.00000000  0.50000000  0.00000000  1
  Fe  Fe2  1  0.50000000  0.50000000  0.00000000  1
  Fe  Fe3  1  0.00000000  -0.00000000  0.50000000  1
loop_
_geom_bond_atom_site_label_1
_geom_bond_atom_site_label_2
_geom_bond_distance
_geom_bond_site_symmetry_2
Al0 Fe3 2.633727 1_565
Al0 Fe1 2.633857 1_556
Al0 Fe0 2.633939 1_565
Al0 Fe2 2.634048 1_556
Al0 Al7 2.703597 1_555
Al0 Al7 2.705604 1_455
Al0 Al3 2.753755 1_555
Al0 Al5 2.782960 1_555
Al0 Al6 2.783289 1_555
Al0 Y0 2.978140 1_566
Al1 Fe3 2.633228 1_555
Al1 Fe1 2.633350 1_556
Al1 Fe0 2.635040 1_555
Al1 Fe2 2.635181 1_456
Al1 Al6 2.704679 1_555
Al1 Al6 2.704686 1_455
Al1 Al2 2.753849 1_555
Al1 Al4 2.782755 1_555
Al1 Al7 2.783090 1_455
Al1 Y0 2.976862 1_556
Al2 Fe3 2.633228 1_565
Al2 Fe1 2.633350 1_555
Al2 Fe0 2.635040 1_465
Al2 Fe2 2.635181 1_555
Al2 Al5 2.704679 1_455
Al2 Al5 2.704686 1_555
Al2 Al7 2.782755 1_455
Al2 Al4 2.783090 1_555
Al2 Y0 2.976862 1_565
Al3 Fe3 2.633727 1_655
Al3 Fe1 2.633857 1_655
Al3 Fe0 2.633939 1_555
Al3 Fe2 2.634048 1_555
Al3 Al4 2.703597 1_555
Al3 Al4 2.705604 1_655
Al3 Al6 2.782960 1_555
Al3 Al5 2.783289 1_555
Al3 Y0 2.978140 1_655
Al4 Fe0 2.519996 1_555
Al4 Fe2 2.520311 1_555
Al4 Fe3 2.521295 1_555
Al4 Fe1 2.521587 1_555
Al4 Al5 2.737472 1_545
Al4 Al6 2.737957 1_554
Al4 Y0 3.158699 1_555
Al4 Y0 3.159682 1_655
Al5 Fe0 2.520305 1_565
Al5 Fe2 2.520615 1_555
Al5 Fe3 2.522202 1_565
Al5 Fe1 2.522524 1_655
Al5 Al7 2.737957 1_554
Al5 Y0 3.158263 1_565
Al5 Y0 3.158292 1_665
Al6 Fe0 2.520305 1_555
Al6 Fe2 2.520615 1_556
Al6 Fe3 2.522202 1_655
Al6 Fe1 2.522524 1_556
Al6 Al7 2.737472 1_545
Al6 Y0 3.158263 1_656
Al6 Y0 3.158292 1_556
Al7 Fe0 2.519996 1_565
Al7 Fe2 2.520311 1_556
Al7 Fe3 2.521295 1_665
Al7 Fe1 2.521587 1_656
Al7 Y0 3.158699 1_666
Al7 Y0 3.159682 1_566
Fe0 Fe3 2.496009 1_555
Fe0 Fe3 2.496009 1_655
Fe0 Y0 3.323054 1_655
Fe0 Y0 3.323054 1_556
Fe1 Fe2 2.496009 1_555
Fe1 Fe2 2.496009 1_455
Fe1 Y0 3.321628 1_565
Fe1 Y0 3.321628 1_555
Fe2 Y0 3.323064 1_565
Fe2 Y0 3.323064 1_655
Fe3 Y0 3.321602 1_556
Fe3 Y0 3.321602 1_555
