# generated using pymatgen
data_NaTaO3
_symmetry_space_group_name_H-M   'P 1'
_cell_length_a   3.95914000
_cell_length_b   5.47712900
_cell_length_c   5.47712900
_cell_angle_alpha   90.00000000
_cell_angle_beta   90.00000000
_cell_angle_gamma   90.00000000
_symmetry_Int_Tables_number   1
_chemical_formula_structural   NaTaO3
_chemical_formula_sum   'Na2 Ta2 O6'
_cell_volume   118.77001156
_cell_formula_units_Z   2
loop_
 _symmetry_equiv_pos_site_id
 _symmetry_equiv_pos_as_xyz
  1  'x, y, z'
loop_
 _atom_site_type_symbol
 _atom_site_label
 _atom_site_symmetry_multiplicity
 _atom_site_fract_x
 _atom_site_fract_y
 _atom_site_fract_z
 _atom_site_occupancy
  Na  Na0  1  0.50000000  0.00000000  0.50000000  1
  Na  Na1  1  0.50000000  0.50000000  0.00000000  1
  Ta  Ta0  1  0.00000000  0.00000000  0.00000000  1
  Ta  Ta1  1  0.00000000  0.50000000  0.50000000  1
  O  O0  1  0.00000000  0.69662400  0.19662400  1
  O  O1  1  0.00000000  0.80337600  0.69662400  1
  O  O2  1  0.00000000  0.19662400  0.30337600  1
  O  O3  1  0.00000000  0.30337600  0.80337600  1
  O  O4  1  0.50000000  0.00000000  0.00000000  1
  O  O5  1  0.50000000  0.50000000  0.50000000  1
loop_
_geom_bond_atom_site_label_1
_geom_bond_atom_site_label_2
_geom_bond_distance
_geom_bond_site_symmetry_2
Na0 O1 2.497654 1_545
Na0 O2 2.497654 1_555
Na0 O1 2.497654 1_645
Na0 O2 2.497654 1_655
Na0 O4 2.738564 1_555
Na0 O4 2.738564 1_556
Na0 O5 2.738564 1_555
Na0 O5 2.738564 1_545
Na1 O0 2.497654 1_555
Na1 O3 2.497654 1_554
Na1 O0 2.497654 1_655
Na1 O3 2.497654 1_654
Na1 O4 2.738564 1_555
Na1 O5 2.738564 1_555
Na1 O5 2.738564 1_554
Na1 O4 2.738564 1_565
O0 Ta0 1.980101 1_565
O0 Ta1 1.980101 1_555
O1 Ta0 1.980101 1_566
O1 Ta1 1.980101 1_555
O2 Ta0 1.980101 1_555
O2 Ta1 1.980101 1_555
O3 Ta0 1.980101 1_556
O3 Ta1 1.980101 1_555
O4 Ta0 1.979570 1_555
O4 Ta0 1.979570 1_655
O5 Ta1 1.979570 1_655
O5 Ta1 1.979570 1_555
