# generated using pymatgen
data_Tb2Sn2O7
_symmetry_space_group_name_H-M   'P 1'
_cell_length_a   7.36966564
_cell_length_b   7.36966564
_cell_length_c   7.36966564
_cell_angle_alpha   60.00000000
_cell_angle_beta   60.00000000
_cell_angle_gamma   60.00000000
_symmetry_Int_Tables_number   1
_chemical_formula_structural   Tb2Sn2O7
_chemical_formula_sum   'Tb4 Sn4 O14'
_cell_volume   283.02731789
_cell_formula_units_Z   2
loop_
 _symmetry_equiv_pos_site_id
 _symmetry_equiv_pos_as_xyz
  1  'x, y, z'
loop_
 _atom_site_type_symbol
 _atom_site_label
 _atom_site_symmetry_multiplicity
 _atom_site_fract_x
 _atom_site_fract_y
 _atom_site_fract_z
 _atom_site_occupancy
  Tb  Tb0  1  0.62500000  0.62500000  0.12500000  1
  Tb  Tb1  1  0.62500000  0.12500000  0.62500000  1
  Tb  Tb2  1  0.12500000  0.62500000  0.62500000  1
  Tb  Tb3  1  0.62500000  0.62500000  0.62500000  1
  Sn  Sn0  1  0.12500000  0.12500000  0.62500000  1
  Sn  Sn1  1  0.12500000  0.62500000  0.12500000  1
  Sn  Sn2  1  0.62500000  0.12500000  0.12500000  1
  Sn  Sn3  1  0.12500000  0.12500000  0.12500000  1
  O  O0  1  0.75000000  0.75000000  0.75000000  1
  O  O1  1  0.50000000  0.50000000  0.50000000  1
  O  O2  1  0.03751996  0.46248004  0.03751996  1
  O  O3  1  0.78751996  0.21248004  0.78751996  1
  O  O4  1  0.03751996  0.03751996  0.46248004  1
  O  O5  1  0.46248004  0.03751996  0.03751996  1
  O  O6  1  0.03751996  0.46248004  0.46248004  1
  O  O7  1  0.46248004  0.46248004  0.03751996  1
  O  O8  1  0.46248004  0.03751996  0.46248004  1
  O  O9  1  0.21248004  0.78751996  0.78751996  1
  O  O10  1  0.78751996  0.21248004  0.21248004  1
  O  O11  1  0.21248004  0.78751996  0.21248004  1
  O  O12  1  0.78751996  0.78751996  0.21248004  1
  O  O13  1  0.21248004  0.21248004  0.78751996  1
loop_
_geom_bond_atom_site_label_1
_geom_bond_atom_site_label_2
_geom_bond_distance
_geom_bond_site_symmetry_2
O0 Tb1 2.256490 1_565
O0 Tb2 2.256490 1_655
O0 Tb3 2.256490 1_555
O0 Tb0 2.256490 1_556
O1 Tb3 2.256490 1_555
O1 Tb2 2.256490 1_555
O1 Tb0 2.256490 1_555
O1 Tb1 2.256490 1_555
O2 Sn3 2.055668 1_555
O2 Sn1 2.055668 1_555
O2 Tb0 2.502709 1_455
O2 Tb2 2.502709 1_554
O3 Sn0 2.055668 1_655
O3 Sn2 2.055668 1_556
O3 Tb3 2.502709 1_555
O3 Tb1 2.502709 1_555
O4 Sn3 2.055668 1_555
O4 Sn0 2.055668 1_555
O4 Tb2 2.502709 1_545
O4 Tb1 2.502709 1_455
O5 Sn3 2.055668 1_555
O5 Sn2 2.055668 1_555
O5 Tb0 2.502709 1_545
O5 Tb1 2.502709 1_554
O6 Sn0 2.055668 1_555
O6 Sn1 2.055668 1_555
O6 Tb3 2.502709 1_455
O6 Tb2 2.502709 1_555
O7 Sn1 2.055668 1_555
O7 Sn2 2.055668 1_555
O7 Tb3 2.502709 1_554
O7 Tb0 2.502709 1_555
O8 Sn0 2.055668 1_555
O8 Sn2 2.055668 1_555
O8 Tb3 2.502709 1_545
O8 Tb1 2.502709 1_555
O9 Sn1 2.055668 1_556
O9 Sn0 2.055668 1_565
O9 Tb3 2.502709 1_555
O9 Tb2 2.502709 1_555
O10 Sn3 2.055668 1_655
O10 Sn2 2.055668 1_555
O10 Tb0 2.502709 1_555
O10 Tb1 2.502709 1_555
O11 Sn3 2.055668 1_565
O11 Sn1 2.055668 1_555
O11 Tb0 2.502709 1_555
O11 Tb2 2.502709 1_555
O12 Sn1 2.055668 1_655
O12 Sn2 2.055668 1_565
O12 Tb3 2.502709 1_555
O12 Tb0 2.502709 1_555
O13 Sn3 2.055668 1_556
O13 Sn0 2.055668 1_555
O13 Tb1 2.502709 1_555
O13 Tb2 2.502709 1_555
