# generated using pymatgen
data_U
_symmetry_space_group_name_H-M   'P 1'
_cell_length_a   5.59138008
_cell_length_b   10.15644829
_cell_length_c   10.15644829
_cell_angle_alpha   90.00000000
_cell_angle_beta   90.00000000
_cell_angle_gamma   90.00000000
_symmetry_Int_Tables_number   1
_chemical_formula_structural   U
_chemical_formula_sum   U30
_cell_volume   576.77010004
_cell_formula_units_Z   30
loop_
 _symmetry_equiv_pos_site_id
 _symmetry_equiv_pos_as_xyz
  1  'x, y, z'
loop_
 _atom_site_type_symbol
 _atom_site_label
 _atom_site_symmetry_multiplicity
 _atom_site_fract_x
 _atom_site_fract_y
 _atom_site_fract_z
 _atom_site_occupancy
  U  U0  1  0.73234440  -0.00000000  0.00000000  1
  U  U1  1  0.23234440  0.50000000  0.50000000  1
  U  U2  1  0.27076594  0.11002787  0.11002787  1
  U  U3  1  0.77076594  0.38997213  0.61002787  1
  U  U4  1  0.77076594  0.61002787  0.38997213  1
  U  U5  1  0.27076594  0.88997213  0.88997213  1
  U  U6  1  0.94729882  0.32268157  0.32268157  1
  U  U7  1  0.44729882  0.17731843  0.82268157  1
  U  U8  1  0.44729882  0.82268157  0.17731843  1
  U  U9  1  0.94729882  0.67731843  0.67731843  1
  U  U10  1  0.49783229  0.67621483  0.67621483  1
  U  U11  1  -0.00216771  0.82378517  0.17621483  1
  U  U12  1  -0.00216771  0.17621483  0.82378517  1
  U  U13  1  0.49783229  0.32378517  0.32378517  1
  U  U14  1  0.24773137  0.55589869  0.22940858  1
  U  U15  1  0.74773137  0.27059242  0.05589869  1
  U  U16  1  0.74773137  0.72940858  0.94410131  1
  U  U17  1  0.24773137  0.44410131  0.77059142  1
  U  U18  1  0.74773137  0.94410131  0.72940858  1
  U  U19  1  0.74773137  0.05589869  0.27059242  1
  U  U20  1  0.24773137  0.77059142  0.44410131  1
  U  U21  1  0.24773137  0.22940858  0.55589869  1
  U  U22  1  0.19123400  0.35941695  0.04951266  1
  U  U23  1  0.69123400  0.45048734  0.85941695  1
  U  U24  1  0.69123400  0.54951266  0.14058305  1
  U  U25  1  0.19123400  0.64058305  0.95048734  1
  U  U26  1  0.69123400  0.14058305  0.54951266  1
  U  U27  1  0.69123400  0.85941695  0.45048734  1
  U  U28  1  0.19123400  0.95048734  0.64058305  1
  U  U29  1  0.19123400  0.04951266  0.35941695  1
loop_
_geom_bond_atom_site_label_1
_geom_bond_atom_site_label_2
_geom_bond_distance
_geom_bond_site_symmetry_2
U0 U18 2.807595 1_544
U0 U16 2.807595 1_544
U0 U15 2.807605 1_555
U0 U19 2.807605 1_555
U0 U12 2.934237 1_654
U0 U11 2.934237 1_645
U0 U7 3.004473 1_554
U0 U8 3.004473 1_545
U0 U2 3.026288 1_555
U0 U5 3.026288 1_544
U0 U2 3.400119 1_655
U0 U5 3.400119 1_644
U1 U20 2.807595 1_555
U1 U17 2.807595 1_555
U1 U21 2.807595 1_555
U1 U14 2.807595 1_555
U1 U13 2.934237 1_555
U1 U10 2.934237 1_555
U1 U6 3.004473 1_455
U1 U9 3.004473 1_455
U1 U3 3.026288 1_455
U1 U4 3.026288 1_455
U1 U3 3.400119 1_555
U1 U4 3.400119 1_555
U2 U29 2.644074 1_555
U2 U22 2.644074 1_555
U10 U9 2.513188 1_555
U10 U20 2.903773 1_555
U10 U17 2.903773 1_555
U10 U9 3.078283 1_455
U10 U16 3.105945 1_555
U10 U18 3.105945 1_555
U10 U23 3.144439 1_555
U10 U27 3.144439 1_555
U10 U28 3.290832 1_555
U10 U25 3.290832 1_555
U10 U5 3.322429 1_555
U10 U3 3.351516 1_555
U10 U4 3.351516 1_555
U11 U8 2.513188 1_555
U11 U16 2.903773 1_454
U11 U19 2.903776 1_465
U11 U8 3.078283 1_455
U11 U14 3.105945 1_555
U11 U20 3.105945 1_555
U11 U29 3.144439 1_565
U11 U25 3.144439 1_554
U11 U27 3.290832 1_455
U11 U24 3.290832 1_455
U11 U4 3.322429 1_455
U11 U2 3.351516 1_565
U11 U5 3.351516 1_554
U12 U7 2.513188 1_555
U12 U18 2.903773 1_445
U12 U15 2.903776 1_456
U12 U7 3.078283 1_455
U12 U21 3.105945 1_555
U12 U17 3.105945 1_555
U12 U22 3.144439 1_556
U12 U28 3.144439 1_545
U12 U23 3.290832 1_455
U12 U26 3.290832 1_455
U12 U3 3.322429 1_455
U12 U2 3.351516 1_556
U12 U5 3.351516 1_545
U13 U6 2.513188 1_555
U13 U21 2.903773 1_555
U13 U14 2.903773 1_555
U13 U6 3.078283 1_455
U13 U15 3.105943 1_555
U13 U19 3.105943 1_555
U13 U24 3.144439 1_555
U13 U26 3.144439 1_555
U13 U29 3.290832 1_555
U13 U22 3.290832 1_555
U13 U2 3.322429 1_555
U13 U3 3.351516 1_555
U13 U4 3.351516 1_555
U14 U24 2.639593 1_555
U14 U22 2.724031 1_555
U14 U25 2.977345 1_554
U14 U8 2.977714 1_555
U14 U6 3.054471 1_455
U14 U20 3.083715 1_555
U14 U4 3.173945 1_455
U14 U24 3.240381 1_455
U14 U4 3.393260 1_555
U15 U22 2.639590 1_655
U15 U23 2.724024 1_554
U15 U24 2.977336 1_555
U15 U6 2.977713 1_555
U15 U7 3.054475 1_554
U15 U19 3.083729 1_555
U15 U2 3.173950 1_555
U15 U22 3.240378 1_555
U15 U2 3.393265 1_655
U16 U25 2.639593 1_655
U16 U24 2.724031 1_556
U16 U23 2.977345 1_555
U16 U9 2.977714 1_555
U16 U8 3.054471 1_556
U16 U18 3.083715 1_555
U16 U5 3.173945 1_555
U16 U25 3.240381 1_555
U16 U5 3.393260 1_655
U17 U23 2.639593 1_555
U17 U25 2.724031 1_555
U17 U22 2.977345 1_556
U17 U7 2.977714 1_555
U17 U9 3.054471 1_455
U17 U21 3.083715 1_555
U17 U3 3.173945 1_455
U17 U23 3.240381 1_455
U17 U3 3.393260 1_555
U18 U28 2.639593 1_655
U18 U26 2.724031 1_565
U18 U27 2.977345 1_555
U18 U9 2.977714 1_555
U18 U7 3.054471 1_565
U18 U5 3.173945 1_555
U18 U28 3.240381 1_555
U18 U5 3.393260 1_655
U19 U29 2.639590 1_655
U19 U27 2.724024 1_545
U19 U26 2.977336 1_555
U19 U6 2.977713 1_555
U19 U8 3.054475 1_545
U19 U2 3.173950 1_555
U19 U29 3.240378 1_555
U19 U2 3.393265 1_655
U20 U27 2.639593 1_555
U20 U28 2.724031 1_555
U20 U29 2.977345 1_565
U20 U8 2.977714 1_555
U20 U9 3.054471 1_455
U20 U4 3.173945 1_455
U20 U27 3.240381 1_455
U20 U4 3.393260 1_555
U21 U26 2.639593 1_555
U21 U29 2.724031 1_555
U21 U28 2.977345 1_545
U21 U7 2.977714 1_555
U21 U6 3.054471 1_455
U21 U3 3.173945 1_455
U21 U26 3.240381 1_455
U21 U3 3.393260 1_555
U22 U25 3.027582 1_554
U22 U6 3.113994 1_455
U22 U7 3.282981 1_554
U22 U23 3.521223 1_454
U22 U23 3.521223 1_554
U22 U24 3.521223 1_455
U22 U24 3.521223 1_555
U23 U3 2.644074 1_555
U23 U24 3.027582 1_556
U23 U7 3.113994 1_555
U23 U9 3.282981 1_555
U23 U25 3.521223 1_655
U23 U25 3.521223 1_555
U24 U4 2.644074 1_555
U24 U8 3.113994 1_555
U24 U6 3.282981 1_555
U24 U25 3.521223 1_654
U24 U25 3.521223 1_554
U25 U5 2.644074 1_555
U25 U9 3.113994 1_455
U25 U8 3.282981 1_556
U26 U3 2.644074 1_555
U26 U27 3.027582 1_545
U26 U7 3.113994 1_555
U26 U6 3.282981 1_555
U26 U29 3.521223 1_655
U26 U28 3.521223 1_545
U26 U28 3.521223 1_645
U26 U29 3.521223 1_555
U27 U4 2.644074 1_555
U27 U8 3.113994 1_555
U27 U9 3.282981 1_555
U27 U29 3.521223 1_665
U27 U29 3.521223 1_565
U27 U28 3.521223 1_655
U27 U28 3.521223 1_555
U28 U5 2.644074 1_555
U28 U29 3.027582 1_565
U28 U9 3.113994 1_455
U28 U7 3.282981 1_565
U29 U6 3.113994 1_455
U29 U8 3.282981 1_545
