# generated using pymatgen
data_Cd(GaS2)2
_symmetry_space_group_name_H-M   'P 1'
_cell_length_a   5.59116485
_cell_length_b   5.59116359
_cell_length_c   6.46595332
_cell_angle_alpha   115.61704791
_cell_angle_beta   115.61705626
_cell_angle_gamma   89.99999637
_symmetry_Int_Tables_number   1
_chemical_formula_structural   Cd(GaS2)2
_chemical_formula_sum   'Cd1 Ga2 S4'
_cell_volume   159.94575929
_cell_formula_units_Z   1
loop_
 _symmetry_equiv_pos_site_id
 _symmetry_equiv_pos_as_xyz
  1  'x, y, z'
loop_
 _atom_site_type_symbol
 _atom_site_label
 _atom_site_symmetry_multiplicity
 _atom_site_fract_x
 _atom_site_fract_y
 _atom_site_fract_z
 _atom_site_occupancy
  Cd  Cd0  1  0.00000000  0.00000000  -0.00000000  1
  Ga  Ga0  1  0.25000000  0.75000000  0.50000000  1
  Ga  Ga1  1  0.50000000  0.50000000  -0.00000000  1
  S  S0  1  0.86817467  0.86282230  0.27113020  1
  S  S1  1  0.59169110  0.13182533  0.72886980  1
  S  S2  1  0.13717770  0.59704447  0.72886980  1
  S  S3  1  0.40295553  0.40830890  0.27113020  1
loop_
_geom_bond_atom_site_label_1
_geom_bond_atom_site_label_2
_geom_bond_distance
_geom_bond_site_symmetry_2
Cd0 S0 2.546557 1_445
Cd0 S2 2.546557 1_544
Cd0 S1 2.546561 1_454
Cd0 S3 2.546561 1_555
Ga0 S3 2.284913 1_555
Ga0 S1 2.284913 1_565
Ga0 S2 2.284916 1_555
Ga0 S0 2.284916 1_455
Ga1 S3 2.286991 1_555
Ga1 S1 2.286992 1_554
Ga1 S2 2.286995 1_554
Ga1 S0 2.286995 1_555
