# generated using pymatgen
data_GeMo3
_symmetry_space_group_name_H-M   'P 1'
_cell_length_a   4.93996455
_cell_length_b   4.93996455
_cell_length_c   4.93996455
_cell_angle_alpha   90.00000000
_cell_angle_beta   90.00000000
_cell_angle_gamma   90.00000000
_symmetry_Int_Tables_number   1
_chemical_formula_structural   GeMo3
_chemical_formula_sum   'Ge2 Mo6'
_cell_volume   120.55118870
_cell_formula_units_Z   2
loop_
 _symmetry_equiv_pos_site_id
 _symmetry_equiv_pos_as_xyz
  1  'x, y, z'
loop_
 _atom_site_type_symbol
 _atom_site_label
 _atom_site_symmetry_multiplicity
 _atom_site_fract_x
 _atom_site_fract_y
 _atom_site_fract_z
 _atom_site_occupancy
  Ge  Ge0  1  0.00000000  0.00000000  0.00000000  1
  Ge  Ge1  1  0.50000000  0.50000000  0.50000000  1
  Mo  Mo0  1  0.25000000  0.00000000  0.50000000  1
  Mo  Mo1  1  0.75000000  0.00000000  0.50000000  1
  Mo  Mo2  1  0.00000000  0.50000000  0.25000000  1
  Mo  Mo3  1  0.00000000  0.50000000  0.75000000  1
  Mo  Mo4  1  0.50000000  0.75000000  0.00000000  1
  Mo  Mo5  1  0.50000000  0.25000000  0.00000000  1
loop_
_geom_bond_atom_site_label_1
_geom_bond_atom_site_label_2
_geom_bond_distance
_geom_bond_site_symmetry_2
Ge0 Mo3 2.761524 1_554
Ge0 Mo0 2.761524 1_554
Ge0 Mo2 2.761524 1_545
Ge0 Mo2 2.761524 1_555
Ge0 Mo5 2.761524 1_555
Ge0 Mo1 2.761524 1_455
Ge0 Mo5 2.761524 1_455
Ge0 Mo3 2.761524 1_544
Ge0 Mo0 2.761524 1_555
Ge0 Mo4 2.761524 1_445
Ge0 Mo4 2.761524 1_545
Ge0 Mo1 2.761524 1_454
Ge1 Mo5 2.761524 1_556
Ge1 Mo3 2.761524 1_655
Ge1 Mo4 2.761524 1_556
Ge1 Mo1 2.761524 1_555
Ge1 Mo2 2.761524 1_555
Ge1 Mo5 2.761524 1_555
Ge1 Mo0 2.761524 1_565
Ge1 Mo1 2.761524 1_565
Ge1 Mo3 2.761524 1_555
Ge1 Mo0 2.761524 1_555
Ge1 Mo2 2.761524 1_655
Ge1 Mo4 2.761524 1_555
Mo0 Mo1 2.469982 1_455
Mo0 Mo1 2.469982 1_555
Mo2 Mo3 2.469982 1_554
Mo2 Mo3 2.469982 1_555
Mo4 Mo5 2.469982 1_555
Mo4 Mo5 2.469982 1_565
