# generated using pymatgen
data_ThGeO4
_symmetry_space_group_name_H-M   'P 1'
_cell_length_a   6.08987098
_cell_length_b   6.08987145
_cell_length_c   6.08987169
_cell_angle_alpha   106.89487374
_cell_angle_beta   106.89487432
_cell_angle_gamma   114.75676615
_symmetry_Int_Tables_number   1
_chemical_formula_structural   ThGeO4
_chemical_formula_sum   'Th2 Ge2 O8'
_cell_volume   172.74103780
_cell_formula_units_Z   2
loop_
 _symmetry_equiv_pos_site_id
 _symmetry_equiv_pos_as_xyz
  1  'x, y, z'
loop_
 _atom_site_type_symbol
 _atom_site_label
 _atom_site_symmetry_multiplicity
 _atom_site_fract_x
 _atom_site_fract_y
 _atom_site_fract_z
 _atom_site_occupancy
  Th  Th0  1  0.12500000  0.87500000  0.25000000  1
  Th  Th1  1  0.87500000  0.12500000  0.75000000  1
  Ge  Ge0  1  0.37500000  0.62500000  0.75000000  1
  Ge  Ge1  1  0.62500000  0.37500000  0.25000000  1
  O  O0  1  0.80208266  0.73418190  0.43209724  1
  O  O1  1  0.36998642  0.80208266  0.56790276  1
  O  O2  1  0.73418190  0.80208266  0.93209724  1
  O  O3  1  0.80208266  0.36998642  0.06790276  1
  O  O4  1  0.63001358  0.19791734  0.43209724  1
  O  O5  1  0.19791734  0.26581810  0.56790276  1
  O  O6  1  0.19791734  0.63001358  0.93209724  1
  O  O7  1  0.26581810  0.19791734  0.06790276  1
loop_
_geom_bond_atom_site_label_1
_geom_bond_atom_site_label_2
_geom_bond_distance
_geom_bond_site_symmetry_2
Ge0 O6 1.759734 1_555
Ge0 O1 1.759734 1_555
Ge0 O2 1.759744 1_555
Ge0 O5 1.759744 1_555
Ge1 O3 1.759734 1_555
Ge1 O4 1.759734 1_555
Ge1 O7 1.759744 1_555
Ge1 O0 1.759744 1_555
O0 Th1 2.355162 1_565
O0 Th0 2.498051 1_655
O1 Th0 2.355173 1_555
O1 Th1 2.498047 1_565
O2 Th0 2.355161 1_656
O2 Th1 2.498051 1_565
O3 Th1 2.355173 1_554
O3 Th0 2.498048 1_655
O4 Th1 2.355173 1_555
O4 Th0 2.498047 1_545
O5 Th0 2.355162 1_545
O5 Th1 2.498051 1_455
O6 Th0 2.355173 1_556
O6 Th1 2.498048 1_455
O7 Th1 2.355161 1_454
O7 Th0 2.498051 1_545
