# generated using pymatgen
data_YTiO3
_symmetry_space_group_name_H-M   'P 1'
_cell_length_a   5.34770600
_cell_length_b   5.71762200
_cell_length_c   7.70200900
_cell_angle_alpha   90.00000000
_cell_angle_beta   90.00000000
_cell_angle_gamma   90.00000000
_symmetry_Int_Tables_number   1
_chemical_formula_structural   YTiO3
_chemical_formula_sum   'Y4 Ti4 O12'
_cell_volume   235.49787087
_cell_formula_units_Z   4
loop_
 _symmetry_equiv_pos_site_id
 _symmetry_equiv_pos_as_xyz
  1  'x, y, z'
loop_
 _atom_site_type_symbol
 _atom_site_label
 _atom_site_symmetry_multiplicity
 _atom_site_fract_x
 _atom_site_fract_y
 _atom_site_fract_z
 _atom_site_occupancy
  Y  Y0  1  0.02217800  0.92848400  0.75000000  1
  Y  Y1  1  0.52217800  0.57151600  0.25000000  1
  Y  Y2  1  0.47782200  0.42848400  0.75000000  1
  Y  Y3  1  0.97782200  0.07151600  0.25000000  1
  Ti  Ti0  1  0.00000000  0.50000000  0.50000000  1
  Ti  Ti1  1  0.50000000  0.00000000  0.50000000  1
  Ti  Ti2  1  0.50000000  0.00000000  0.00000000  1
  Ti  Ti3  1  0.00000000  0.50000000  0.00000000  1
  O  O0  1  0.69048900  0.30185200  0.44223100  1
  O  O1  1  0.19048900  0.19814800  0.55776900  1
  O  O2  1  0.80951100  0.80185200  0.05776900  1
  O  O3  1  0.30951100  0.69814800  0.94223100  1
  O  O4  1  0.30951100  0.69814800  0.55776900  1
  O  O5  1  0.80951100  0.80185200  0.44223100  1
  O  O6  1  0.19048900  0.19814800  0.94223100  1
  O  O7  1  0.69048900  0.30185200  0.05776900  1
  O  O8  1  0.12051400  0.45465400  0.25000000  1
  O  O9  1  0.62051400  0.04534600  0.75000000  1
  O  O10  1  0.37948600  0.95465400  0.25000000  1
  O  O11  1  0.87948600  0.54534600  0.75000000  1
loop_
_geom_bond_atom_site_label_1
_geom_bond_atom_site_label_2
_geom_bond_distance
_geom_bond_site_symmetry_2
O0 Ti1 2.052882 1_555
O0 Ti0 2.054535 1_655
O0 Y1 2.319369 1_555
O0 Y3 2.507498 1_555
O0 Y2 2.727016 1_555
O1 Ti0 2.052882 1_555
O1 Ti1 2.054535 1_555
O1 Y0 2.319369 1_545
O1 Y2 2.507498 1_555
O1 Y3 2.727016 1_455
O2 Ti3 2.052882 1_655
O2 Ti2 2.054535 1_565
O2 Y3 2.319369 1_565
O2 Y1 2.507498 1_555
O2 Y0 2.727016 1_654
O3 Ti2 2.052882 1_566
O3 Ti3 2.054535 1_556
O3 Y2 2.319369 1_555
O3 Y0 2.507498 1_555
O3 Y1 2.727016 1_556
O4 Ti1 2.052882 1_565
O4 Ti0 2.054535 1_555
O4 Y2 2.319369 1_555
O4 Y0 2.507498 1_555
O4 Y1 2.727016 1_555
O5 Ti0 2.052882 1_655
O5 Ti1 2.054535 1_565
O5 Y3 2.319369 1_565
O5 Y1 2.507498 1_555
O5 Y0 2.727016 1_655
O6 Ti3 2.052882 1_556
O6 Ti2 2.054535 1_556
O6 Y0 2.319369 1_545
O6 Y2 2.507498 1_555
O6 Y3 2.727016 1_456
O7 Ti2 2.052882 1_555
O7 Ti3 2.054535 1_655
O7 Y1 2.319369 1_555
O7 Y3 2.507498 1_555
O7 Y2 2.727016 1_554
O8 Ti0 2.046980 1_555
O8 Ti3 2.046980 1_555
O8 Y1 2.249506 1_555
O8 Y3 2.319737 1_455
O9 Ti2 2.046980 1_556
O9 Ti1 2.046980 1_555
O9 Y0 2.249506 1_645
O9 Y2 2.319737 1_555
O10 Ti1 2.046980 1_565
O10 Ti2 2.046980 1_565
O10 Y3 2.249506 1_465
O10 Y1 2.319737 1_555
O11 Ti3 2.046980 1_656
O11 Ti0 2.046980 1_655
O11 Y2 2.249506 1_555
O11 Y0 2.319737 1_655
