# generated using pymatgen
data_USb2Pd
_symmetry_space_group_name_H-M   'P 1'
_cell_length_a   4.43650111
_cell_length_b   4.43650111
_cell_length_c   9.61211301
_cell_angle_alpha   90.00000000
_cell_angle_beta   90.00000000
_cell_angle_gamma   90.00000000
_symmetry_Int_Tables_number   1
_chemical_formula_structural   USb2Pd
_chemical_formula_sum   'U2 Sb4 Pd2'
_cell_volume   189.19081898
_cell_formula_units_Z   2
loop_
 _symmetry_equiv_pos_site_id
 _symmetry_equiv_pos_as_xyz
  1  'x, y, z'
loop_
 _atom_site_type_symbol
 _atom_site_label
 _atom_site_symmetry_multiplicity
 _atom_site_fract_x
 _atom_site_fract_y
 _atom_site_fract_z
 _atom_site_occupancy
  U  U0  1  0.00000000  0.50000000  0.74442285  1
  U  U1  1  0.50000000  -0.00000000  0.25557715  1
  Sb  Sb0  1  -0.00000000  0.50000000  0.33295368  1
  Sb  Sb1  1  0.50000000  -0.00000000  0.66704632  1
  Sb  Sb2  1  -0.00000000  -0.00000000  0.00000000  1
  Sb  Sb3  1  0.50000000  0.50000000  0.00000000  1
  Pd  Pd0  1  -0.00000000  -0.00000000  0.50000000  1
  Pd  Pd1  1  0.50000000  0.50000000  0.50000000  1
loop_
_geom_bond_atom_site_label_1
_geom_bond_atom_site_label_2
_geom_bond_distance
_geom_bond_site_symmetry_2
Sb0 U1 3.224041 1_555
Sb0 U1 3.224041 1_455
Sb0 U1 3.224041 1_565
Sb0 U1 3.224041 1_465
Sb1 U0 3.224041 1_555
Sb1 U0 3.224041 1_655
Sb1 U0 3.224041 1_645
Sb1 U0 3.224041 1_545
Sb2 Sb3 3.137080 1_455
Sb2 Sb3 3.137080 1_555
Sb2 Sb3 3.137080 1_545
Sb2 Sb3 3.137080 1_445
Sb2 U0 3.309939 1_544
Sb2 U1 3.309939 1_455
Sb2 U1 3.309939 1_555
Sb2 U0 3.309939 1_554
Sb3 U1 3.309939 1_555
Sb3 U0 3.309939 1_654
Sb3 U0 3.309939 1_554
Sb3 U1 3.309939 1_565
Pd0 Sb1 2.738395 1_555
Pd0 Sb0 2.738395 1_545
Pd0 Sb0 2.738395 1_555
Pd0 Sb1 2.738395 1_455
Pd0 U0 3.231162 1_545
Pd0 U1 3.231162 1_455
Pd0 U0 3.231162 1_555
Pd0 U1 3.231162 1_555
Pd1 Sb0 2.738395 1_555
Pd1 Sb0 2.738395 1_655
Pd1 Sb1 2.738395 1_565
Pd1 Sb1 2.738395 1_555
Pd1 U1 3.231162 1_565
Pd1 U0 3.231162 1_555
Pd1 U1 3.231162 1_555
Pd1 U0 3.231162 1_655
