# generated using pymatgen
data_CeAlO3
_symmetry_space_group_name_H-M   'P 1'
_cell_length_a   5.33074943
_cell_length_b   5.33074943
_cell_length_c   5.33074943
_cell_angle_alpha   120.30143004
_cell_angle_beta   120.30143004
_cell_angle_gamma   89.47869598
_symmetry_Int_Tables_number   1
_chemical_formula_structural   CeAlO3
_chemical_formula_sum   'Ce2 Al2 O6'
_cell_volume   106.62207029
_cell_formula_units_Z   2
loop_
 _symmetry_equiv_pos_site_id
 _symmetry_equiv_pos_as_xyz
  1  'x, y, z'
loop_
 _atom_site_type_symbol
 _atom_site_label
 _atom_site_symmetry_multiplicity
 _atom_site_fract_x
 _atom_site_fract_y
 _atom_site_fract_z
 _atom_site_occupancy
  Ce  Ce0  1  0.25000000  0.75000000  0.50000000  1
  Ce  Ce1  1  0.75000000  0.25000000  0.50000000  1
  Al  Al0  1  0.50000000  0.50000000  0.00000000  1
  Al  Al1  1  0.00000000  0.00000000  0.00000000  1
  O  O0  1  0.28109545  0.78109545  0.06219089  1
  O  O1  1  0.78109545  0.71890455  0.50000000  1
  O  O2  1  0.21890455  0.28109545  0.50000000  1
  O  O3  1  0.71890455  0.21890455  0.93780911  1
  O  O4  1  0.25000000  0.25000000  0.00000000  1
  O  O5  1  0.75000000  0.75000000  0.00000000  1
loop_
_geom_bond_atom_site_label_1
_geom_bond_atom_site_label_2
_geom_bond_distance
_geom_bond_site_symmetry_2
Ce0 O3 2.506607 1_565
Ce0 O2 2.506607 1_555
Ce0 O1 2.506607 1_455
Ce0 O0 2.506607 1_555
Ce0 O5 2.653222 1_455
Ce0 O5 2.653222 1_556
Ce0 O4 2.653222 1_566
Ce0 O4 2.653222 1_555
Ce0 O0 2.834479 1_556
Ce0 O3 2.834479 1_454
Ce0 O2 2.834479 1_565
Ce0 O1 2.834479 1_555
Ce1 O0 2.506607 1_545
Ce1 O1 2.506607 1_555
Ce1 O2 2.506607 1_655
Ce1 O3 2.506607 1_555
Ce1 O4 2.653222 1_656
Ce1 O5 2.653222 1_556
Ce1 O5 2.653222 1_545
Ce1 O4 2.653222 1_555
Ce1 O3 2.834479 1_554
Ce1 O0 2.834479 1_656
Ce1 O1 2.834479 1_545
Ce1 O2 2.834479 1_555
Al0 O0 1.890568 1_555
Al0 O3 1.890568 1_554
Al0 O1 1.890568 1_555
Al0 O2 1.890568 1_554
Al0 O5 1.893259 1_555
Al0 O4 1.893259 1_555
Al1 O3 1.890568 1_454
Al1 O0 1.890568 1_545
Al1 O2 1.890568 1_555
Al1 O1 1.890568 1_444
Al1 O5 1.893259 1_445
Al1 O4 1.893259 1_555
