# generated using pymatgen
data_CaAl4O7
_symmetry_space_group_name_H-M   'P 1'
_cell_length_a   5.45018699
_cell_length_b   7.80867106
_cell_length_c   7.80867041
_cell_angle_alpha   69.32710202
_cell_angle_beta   76.51584080
_cell_angle_gamma   76.51585218
_symmetry_Int_Tables_number   1
_chemical_formula_structural   CaAl4O7
_chemical_formula_sum   'Ca2 Al8 O14'
_cell_volume   298.17257312
_cell_formula_units_Z   2
loop_
 _symmetry_equiv_pos_site_id
 _symmetry_equiv_pos_as_xyz
  1  'x, y, z'
loop_
 _atom_site_type_symbol
 _atom_site_label
 _atom_site_symmetry_multiplicity
 _atom_site_fract_x
 _atom_site_fract_y
 _atom_site_fract_z
 _atom_site_occupancy
  Ca  Ca0  1  0.25000000  0.19404417  0.80595583  1
  Ca  Ca1  1  0.75000000  0.80595583  0.19404417  1
  Al  Al0  1  0.25517865  0.68005466  0.56104191  1
  Al  Al1  1  0.24482135  0.43895809  0.31994434  1
  Al  Al2  1  0.74482135  0.31994434  0.43895809  1
  Al  Al3  1  0.75517865  0.56104191  0.68005466  1
  Al  Al4  1  0.19566947  0.07732251  0.24922643  1
  Al  Al5  1  0.30433053  0.75077357  0.92267749  1
  Al  Al6  1  0.80433053  0.92267749  0.75077357  1
  Al  Al7  1  0.69566947  0.24922643  0.07732251  1
  O  O0  1  0.91919290  0.74891601  0.63697293  1
  O  O1  1  0.58080710  0.36302707  0.25108399  1
  O  O2  1  0.08080710  0.25108399  0.36302707  1
  O  O3  1  0.41919290  0.63697293  0.74891601  1
  O  O4  1  0.34954947  0.86401375  0.37373709  1
  O  O5  1  0.15045053  0.62626191  0.13598625  1
  O  O6  1  0.65045053  0.13598625  0.62626191  1
  O  O7  1  0.84954947  0.37373709  0.86401375  1
  O  O8  1  0.93047927  0.06222303  0.16860071  1
  O  O9  1  0.56952073  0.83139929  0.93777697  1
  O  O10  1  0.75000000  0.53165859  0.46834141  1
  O  O11  1  0.25000000  0.46834141  0.53165859  1
  O  O12  1  0.43047927  0.16860071  0.06222303  1
  O  O13  1  0.06952073  0.93777697  0.83139929  1
loop_
_geom_bond_atom_site_label_1
_geom_bond_atom_site_label_2
_geom_bond_distance
_geom_bond_site_symmetry_2
Ca0 O7 2.344647 1_455
Ca0 O6 2.344650 1_555
Ca0 O13 2.357448 1_545
Ca0 O12 2.357448 1_556
Ca0 O11 2.436435 1_555
Ca1 O4 2.344646 1_555
Ca1 O5 2.344650 1_655
Ca1 O8 2.357448 1_565
Ca1 O9 2.357448 1_554
Ca1 O10 2.436435 1_555
Al0 O4 1.725546 1_555
Al0 O11 1.754740 1_555
Al0 O3 1.785313 1_555
Al0 O0 1.803747 1_455
Al1 O5 1.725537 1_555
Al1 O11 1.754748 1_555
Al1 O2 1.785311 1_555
Al1 O1 1.803745 1_555
Al2 O6 1.725537 1_555
Al2 O10 1.754748 1_555
Al2 O1 1.785311 1_555
Al2 O2 1.803745 1_655
Al3 O7 1.725546 1_555
Al3 O10 1.754740 1_555
Al3 O0 1.785313 1_555
Al3 O3 1.803747 1_555
Al4 O4 1.734487 1_545
Al4 O8 1.748003 1_455
Al4 O12 1.759869 1_555
Al4 O2 1.793981 1_555
Al5 O5 1.734490 1_556
Al5 O9 1.748003 1_555
Al5 O13 1.759869 1_555
Al5 O3 1.793981 1_555
Al6 O6 1.734490 1_565
Al6 O13 1.748003 1_655
Al6 O9 1.759869 1_555
Al6 O0 1.793981 1_555
Al7 O7 1.734487 1_554
Al7 O12 1.748003 1_555
Al7 O8 1.759869 1_555
Al7 O1 1.793981 1_555
