# generated using pymatgen
data_Ba10Ta10(N3O7)3
_symmetry_space_group_name_H-M   'P 1'
_cell_length_a   4.13157600
_cell_length_b   4.13789900
_cell_length_c   41.51311700
_cell_angle_alpha   90.00000000
_cell_angle_beta   90.00000000
_cell_angle_gamma   90.00000000
_symmetry_Int_Tables_number   1
_chemical_formula_structural   Ba10Ta10(N3O7)3
_chemical_formula_sum   'Ba10 Ta10 N9 O21'
_cell_volume   709.71008306
_cell_formula_units_Z   1
loop_
 _symmetry_equiv_pos_site_id
 _symmetry_equiv_pos_as_xyz
  1  'x, y, z'
loop_
 _atom_site_type_symbol
 _atom_site_label
 _atom_site_symmetry_multiplicity
 _atom_site_fract_x
 _atom_site_fract_y
 _atom_site_fract_z
 _atom_site_occupancy
  Ba  Ba0  1  0.00000000  0.00000000  0.79846500  1
  Ba  Ba1  1  0.00000000  0.00000000  0.90028500  1
  Ba  Ba2  1  0.00000000  0.00000000  0.00000000  1
  Ba  Ba3  1  0.00000000  0.00000000  0.20153500  1
  Ba  Ba4  1  0.00000000  0.00000000  0.30031800  1
  Ba  Ba5  1  0.00000000  0.00000000  0.59993000  1
  Ba  Ba6  1  0.00000000  0.00000000  0.09971500  1
  Ba  Ba7  1  0.00000000  0.00000000  0.50000000  1
  Ba  Ba8  1  0.00000000  0.00000000  0.40007000  1
  Ba  Ba9  1  0.00000000  0.00000000  0.69968200  1
  Ta  Ta0  1  0.50000000  0.50000000  0.85258600  1
  Ta  Ta1  1  0.50000000  0.50000000  0.04880700  1
  Ta  Ta2  1  0.50000000  0.50000000  0.95119300  1
  Ta  Ta3  1  0.50000000  0.50000000  0.14741400  1
  Ta  Ta4  1  0.50000000  0.50000000  0.34994800  1
  Ta  Ta5  1  0.50000000  0.50000000  0.24966500  1
  Ta  Ta6  1  0.50000000  0.50000000  0.55000400  1
  Ta  Ta7  1  0.50000000  0.50000000  0.44999600  1
  Ta  Ta8  1  0.50000000  0.50000000  0.75033500  1
  Ta  Ta9  1  0.50000000  0.50000000  0.65005200  1
  N  N0  1  0.50000000  0.50000000  0.00000000  1
  N  N1  1  0.50000000  0.50000000  0.89888800  1
  N  N2  1  0.50000000  0.50000000  0.10111200  1
  N  N3  1  0.50000000  0.00000000  0.35001200  1
  N  N4  1  0.50000000  0.00000000  0.45001500  1
  N  N5  1  0.50000000  0.00000000  0.54998500  1
  N  N6  1  0.50000000  0.00000000  0.24978200  1
  N  N7  1  0.50000000  0.00000000  0.64998800  1
  N  N8  1  0.50000000  0.00000000  0.75021800  1
  O  O0  1  0.00000000  0.50000000  0.84885500  1
  O  O1  1  0.00000000  0.50000000  0.94979300  1
  O  O2  1  0.00000000  0.50000000  0.05020700  1
  O  O3  1  0.00000000  0.50000000  0.15114500  1
  O  O4  1  0.00000000  0.50000000  0.35002800  1
  O  O5  1  0.00000000  0.50000000  0.45001600  1
  O  O6  1  0.00000000  0.50000000  0.54998400  1
  O  O7  1  0.00000000  0.50000000  0.64997200  1
  O  O8  1  0.50000000  0.00000000  0.84936500  1
  O  O9  1  0.50000000  0.50000000  0.79946400  1
  O  O10  1  0.50000000  0.00000000  0.05017200  1
  O  O11  1  0.50000000  0.50000000  0.20053600  1
  O  O12  1  0.50000000  0.00000000  0.94982800  1
  O  O13  1  0.50000000  0.50000000  0.40004200  1
  O  O14  1  0.50000000  0.50000000  0.30012400  1
  O  O15  1  0.50000000  0.00000000  0.15063500  1
  O  O16  1  0.50000000  0.50000000  0.50000000  1
  O  O17  1  0.50000000  0.50000000  0.59995800  1
  O  O18  1  0.50000000  0.50000000  0.69987600  1
  O  O19  1  0.00000000  0.50000000  0.25008500  1
  O  O20  1  0.00000000  0.50000000  0.74991500  1
loop_
_geom_bond_atom_site_label_1
_geom_bond_atom_site_label_2
_geom_bond_distance
_geom_bond_site_symmetry_2
Ba0 N8 2.877329 1_555
Ba0 N8 2.877329 1_455
Ba0 O20 2.888363 1_545
Ba0 O20 2.888363 1_555
Ba0 O9 2.923996 1_545
Ba0 O9 2.923996 1_445
Ba0 O9 2.923996 1_555
Ba0 O9 2.923996 1_455
Ba0 O0 2.942171 1_545
Ba0 O0 2.942171 1_555
Ba0 O8 2.955051 1_455
Ba0 O8 2.955051 1_555
Ba1 O12 2.915035 1_455
Ba1 O12 2.915035 1_555
Ba1 O1 2.916252 1_555
Ba1 O1 2.916252 1_545
Ba1 N1 2.924277 1_445
Ba1 N1 2.924277 1_545
Ba1 N1 2.924277 1_555
Ba1 N1 2.924277 1_455
Ba1 O8 2.955644 1_555
Ba1 O8 2.955644 1_455
Ba1 O0 2.973022 1_545
Ba1 O0 2.973022 1_555
Ba2 N0 2.923702 1_445
Ba2 N0 2.923702 1_555
Ba2 N0 2.923702 1_545
Ba2 N0 2.923702 1_455
Ba2 O10 2.933517 1_455
Ba2 O10 2.933517 1_555
Ba2 O12 2.933517 1_554
Ba2 O12 2.933517 1_454
Ba2 O2 2.936775 1_545
Ba2 O2 2.936775 1_555
Ba2 O1 2.936775 1_544
Ba2 O1 2.936775 1_554
Ba3 N6 2.877329 1_455
Ba3 N6 2.877329 1_555
Ba3 O19 2.888363 1_555
Ba3 O19 2.888363 1_545
Ba3 O11 2.923996 1_455
Ba3 O11 2.923996 1_555
Ba3 O11 2.923996 1_445
Ba3 O11 2.923996 1_545
Ba3 O3 2.942171 1_555
Ba3 O3 2.942171 1_545
Ba3 O15 2.955051 1_555
Ba3 O15 2.955051 1_455
Ba4 N3 2.919461 1_555
Ba4 N3 2.919461 1_455
Ba4 O4 2.922168 1_555
Ba4 O4 2.922168 1_545
Ba4 O14 2.923713 1_545
Ba4 O14 2.923713 1_445
Ba4 O14 2.923713 1_455
Ba4 O14 2.923713 1_555
Ba4 O19 2.937541 1_545
Ba4 O19 2.937541 1_555
Ba4 N6 2.944264 1_555
Ba4 N6 2.944264 1_455
Ba5 O17 2.923702 1_555
Ba5 O17 2.923702 1_445
Ba5 O17 2.923702 1_545
Ba5 O17 2.923702 1_455
Ba5 N5 2.926833 1_555
Ba5 N5 2.926833 1_455
Ba5 O6 2.929095 1_555
Ba5 O6 2.929095 1_545
Ba5 N7 2.930158 1_555
Ba5 N7 2.930158 1_455
Ba5 O7 2.931918 1_545
Ba5 O7 2.931918 1_555
Ba6 O10 2.915035 1_455
Ba6 O10 2.915035 1_555
Ba6 O2 2.916252 1_555
Ba6 O2 2.916252 1_545
Ba6 N2 2.924277 1_545
Ba6 N2 2.924277 1_555
Ba6 N2 2.924277 1_445
Ba6 N2 2.924277 1_455
Ba6 O15 2.955644 1_455
Ba6 O15 2.955644 1_555
Ba6 O3 2.973022 1_545
Ba6 O3 2.973022 1_555
Ba7 O16 2.923702 1_555
Ba7 O16 2.923702 1_445
Ba7 O16 2.923702 1_545
Ba7 O16 2.923702 1_455
Ba7 N5 2.928010 1_555
Ba7 N5 2.928010 1_455
Ba7 N4 2.928010 1_555
Ba7 N4 2.928010 1_455
Ba7 O6 2.930212 1_555
Ba7 O6 2.930212 1_545
Ba7 O5 2.930212 1_545
Ba7 O5 2.930212 1_555
Ba8 O13 2.923702 1_445
Ba8 O13 2.923702 1_545
Ba8 O13 2.923702 1_455
Ba8 O13 2.923702 1_555
Ba8 N4 2.926833 1_555
Ba8 N4 2.926833 1_455
Ba8 O5 2.929095 1_555
Ba8 O5 2.929095 1_545
Ba8 N3 2.930158 1_555
Ba8 N3 2.930158 1_455
Ba8 O4 2.931918 1_545
Ba8 O4 2.931918 1_555
Ba9 N7 2.919461 1_555
Ba9 N7 2.919461 1_455
Ba9 O7 2.922168 1_555
Ba9 O7 2.922168 1_545
Ba9 O18 2.923713 1_545
Ba9 O18 2.923713 1_555
Ba9 O18 2.923713 1_445
Ba9 O18 2.923713 1_455
Ba9 O20 2.937541 1_545
Ba9 O20 2.937541 1_555
Ba9 N8 2.944264 1_455
Ba9 N8 2.944264 1_555
N0 Ta1 2.026131 1_555
N0 Ta2 2.026131 1_554
N1 Ta0 1.922140 1_555
N1 Ta2 2.171344 1_555
N2 Ta3 1.922140 1_555
N2 Ta1 2.171344 1_555
N3 Ta4 2.068951 1_555
N3 Ta4 2.068951 1_545
N4 Ta7 2.068950 1_545
N4 Ta7 2.068950 1_555
N5 Ta6 2.068950 1_545
N5 Ta6 2.068950 1_555
N6 Ta5 2.068955 1_545
N6 Ta5 2.068955 1_555
N7 Ta9 2.068951 1_545
N7 Ta9 2.068951 1_555
N8 Ta8 2.068955 1_555
N8 Ta8 2.068955 1_545
O0 Ta0 2.071586 1_555
O0 Ta0 2.071586 1_455
O1 Ta2 2.066605 1_455
O1 Ta2 2.066605 1_555
O2 Ta1 2.066605 1_555
O2 Ta1 2.066605 1_455
O3 Ta3 2.071586 1_455
O3 Ta3 2.071586 1_555
O4 Ta4 2.065791 1_455
O4 Ta4 2.065791 1_555
O5 Ta7 2.065788 1_455
O5 Ta7 2.065788 1_555
O6 Ta6 2.065788 1_555
O6 Ta6 2.065788 1_455
O7 Ta9 2.065791 1_555
O7 Ta9 2.065791 1_455
O8 Ta0 2.073266 1_555
O8 Ta0 2.073266 1_545
O9 Ta8 2.039498 1_555
O9 Ta0 2.205260 1_555
O10 Ta1 2.069725 1_545
O10 Ta1 2.069725 1_555
O11 Ta5 2.039498 1_555
O11 Ta3 2.205260 1_555
O12 Ta2 2.069725 1_545
O12 Ta2 2.069725 1_555
O13 Ta7 2.073746 1_555
O13 Ta4 2.079558 1_555
O14 Ta4 2.068350 1_555
O14 Ta5 2.094710 1_555
O15 Ta3 2.073266 1_555
O15 Ta3 2.073266 1_545
O16 Ta6 2.075822 1_555
O16 Ta7 2.075822 1_555
O17 Ta6 2.073746 1_555
O17 Ta9 2.079558 1_555
O18 Ta9 2.068350 1_555
O18 Ta8 2.094710 1_555
O19 Ta5 2.065862 1_555
O19 Ta5 2.065862 1_455
O20 Ta8 2.065862 1_555
O20 Ta8 2.065862 1_455
