# generated using pymatgen
data_CaMgSn
_symmetry_space_group_name_H-M   'P 1'
_cell_length_a   4.69681030
_cell_length_b   7.87349508
_cell_length_c   8.74125517
_cell_angle_alpha   90.00000000
_cell_angle_beta   90.00000000
_cell_angle_gamma   90.00000000
_symmetry_Int_Tables_number   1
_chemical_formula_structural   CaMgSn
_chemical_formula_sum   'Ca4 Mg4 Sn4'
_cell_volume   323.25435035
_cell_formula_units_Z   4
loop_
 _symmetry_equiv_pos_site_id
 _symmetry_equiv_pos_as_xyz
  1  'x, y, z'
loop_
 _atom_site_type_symbol
 _atom_site_label
 _atom_site_symmetry_multiplicity
 _atom_site_fract_x
 _atom_site_fract_y
 _atom_site_fract_z
 _atom_site_occupancy
  Ca  Ca0  1  0.75000000  0.48084683  0.68415992  1
  Ca  Ca1  1  0.75000000  0.98084683  0.81584008  1
  Ca  Ca2  1  0.25000000  0.51915317  0.31584008  1
  Ca  Ca3  1  0.25000000  0.01915317  0.18415992  1
  Mg  Mg0  1  0.75000000  0.85472368  0.43736431  1
  Mg  Mg1  1  0.25000000  0.14527632  0.56263569  1
  Mg  Mg2  1  0.25000000  0.64527632  0.93736431  1
  Mg  Mg3  1  0.75000000  0.35472368  0.06263569  1
  Sn  Sn0  1  0.75000000  0.73360566  0.11524097  1
  Sn  Sn1  1  0.25000000  0.26639434  0.88475903  1
  Sn  Sn2  1  0.75000000  0.23360566  0.38475903  1
  Sn  Sn3  1  0.25000000  0.76639434  0.61524097  1
loop_
_geom_bond_atom_site_label_1
_geom_bond_atom_site_label_2
_geom_bond_distance
_geom_bond_site_symmetry_2
Ca0 Sn2 3.261729 1_555
Ca0 Sn3 3.306448 1_555
Ca0 Sn3 3.306448 1_655
Ca0 Sn1 3.382414 1_555
Ca0 Sn1 3.382414 1_655
Ca0 Mg3 3.454173 1_556
Ca0 Mg2 3.477052 1_555
Ca0 Mg2 3.477052 1_655
Ca0 Mg0 3.649580 1_555
Ca0 Mg1 3.691096 1_655
Ca0 Mg1 3.691096 1_555
Ca1 Sn0 3.261729 1_556
Ca1 Sn1 3.306448 1_665
Ca1 Sn1 3.306448 1_565
Ca1 Sn3 3.382414 1_555
Ca1 Sn3 3.382414 1_655
Ca1 Mg0 3.454173 1_555
Ca1 Mg1 3.477052 1_665
Ca1 Mg1 3.477052 1_565
Ca1 Mg3 3.649580 1_566
Ca1 Mg2 3.691096 1_555
Ca1 Mg2 3.691096 1_655
Ca2 Sn3 3.261729 1_555
Ca2 Sn2 3.306448 1_555
Ca2 Sn2 3.306448 1_455
Ca2 Sn0 3.382414 1_555
Ca2 Sn0 3.382414 1_455
Ca2 Mg2 3.454173 1_554
Ca2 Mg3 3.477052 1_455
Ca2 Mg3 3.477052 1_555
Ca2 Mg1 3.649580 1_555
Ca2 Mg0 3.691096 1_555
Ca2 Mg0 3.691096 1_455
Ca3 Sn1 3.261729 1_554
Ca3 Sn0 3.306448 1_445
Ca3 Sn0 3.306448 1_545
Ca3 Sn2 3.382414 1_555
Ca3 Sn2 3.382414 1_455
Ca3 Mg1 3.454173 1_555
Ca3 Mg0 3.477052 1_445
Ca3 Mg0 3.477052 1_545
Ca3 Mg2 3.649580 1_544
Ca3 Mg3 3.691096 1_555
Ca3 Mg3 3.691096 1_455
Mg0 Sn3 2.901082 1_655
Mg0 Sn3 2.901082 1_555
Mg0 Sn0 2.972863 1_555
Mg0 Sn2 3.018358 1_565
Mg1 Sn2 2.901082 1_555
Mg1 Sn2 2.901082 1_455
Mg1 Sn1 2.972863 1_555
Mg1 Sn3 3.018358 1_545
Mg2 Sn0 2.901082 1_456
Mg2 Sn0 2.901082 1_556
Mg2 Sn3 2.972863 1_555
Mg2 Sn1 3.018358 1_555
Mg3 Sn1 2.901082 1_554
Mg3 Sn1 2.901082 1_654
Mg3 Sn2 2.972863 1_555
Mg3 Sn0 3.018358 1_555
