# generated using pymatgen
data_NiH6C2(SN2)2
_symmetry_space_group_name_H-M   'P 1'
_cell_length_a   5.81298654
_cell_length_b   5.81298654
_cell_length_c   5.66507508
_cell_angle_alpha   83.08270187
_cell_angle_beta   83.08270187
_cell_angle_gamma   83.93560445
_symmetry_Int_Tables_number   1
_chemical_formula_structural   NiH6C2(SN2)2
_chemical_formula_sum   'Ni1 H6 C2 S2 N4'
_cell_volume   187.84233953
_cell_formula_units_Z   1
loop_
 _symmetry_equiv_pos_site_id
 _symmetry_equiv_pos_as_xyz
  1  'x, y, z'
loop_
 _atom_site_type_symbol
 _atom_site_label
 _atom_site_symmetry_multiplicity
 _atom_site_fract_x
 _atom_site_fract_y
 _atom_site_fract_z
 _atom_site_occupancy
  Ni  Ni0  1  0.99986500  0.99986500  0.00101800  1
  H  H0  1  0.35192300  0.76169600  0.84011100  1
  H  H1  1  0.76169600  0.35192300  0.84011100  1
  H  H2  1  0.75726900  0.35085100  0.13543600  1
  H  H3  1  0.35085100  0.75726900  0.13543600  1
  H  H4  1  0.58925600  0.18425600  0.02738500  1
  H  H5  1  0.18425600  0.58925600  0.02738500  1
  C  C0  1  0.80481900  0.80481900  0.60801600  1
  C  C1  1  0.19668300  0.19668300  0.39066600  1
  S  S0  1  0.27633000  0.27633000  0.62727700  1
  S  S1  1  0.72292200  0.72292200  0.37078700  1
  N  N0  1  0.74848800  0.24949800  0.00112100  1
  N  N1  1  0.86301800  0.86301800  0.78349000  1
  N  N2  1  0.14312600  0.14312600  0.20863800  1
  N  N3  1  0.24949800  0.74848800  0.00112100  1
loop_
_geom_bond_atom_site_label_1
_geom_bond_atom_site_label_2
_geom_bond_distance
_geom_bond_site_symmetry_2
Ni0 S1 2.914516 1_555
H0 N3 1.026818 1_556
H1 N0 1.026818 1_556
H2 N0 1.025859 1_555
H3 N3 1.025859 1_555
H4 N0 1.024762 1_555
H5 N3 1.024762 1_555
C0 N1 1.184604 1_555
C0 S1 1.617252 1_555
C1 N2 1.196815 1_555
C1 S0 1.603028 1_555
N0 Ni0 1.947550 1_545
N1 Ni0 1.841239 1_556
N2 Ni0 1.840879 1_445
N3 Ni0 1.947550 1_455
