# generated using pymatgen
data_Ca5P3HO13
_symmetry_space_group_name_H-M   'P 1'
_cell_length_a   9.39685478
_cell_length_b   9.39685434
_cell_length_c   6.86402561
_cell_angle_alpha   90.00000000
_cell_angle_beta   90.00000000
_cell_angle_gamma   119.99999707
_symmetry_Int_Tables_number   1
_chemical_formula_structural   Ca5P3HO13
_chemical_formula_sum   'Ca10 P6 H2 O26'
_cell_volume   524.89755496
_cell_formula_units_Z   2
loop_
 _symmetry_equiv_pos_site_id
 _symmetry_equiv_pos_as_xyz
  1  'x, y, z'
loop_
 _atom_site_type_symbol
 _atom_site_label
 _atom_site_symmetry_multiplicity
 _atom_site_fract_x
 _atom_site_fract_y
 _atom_site_fract_z
 _atom_site_occupancy
  Ca  Ca0  1  0.24757361  0.99356128  0.25078644  1
  Ca  Ca1  1  0.00643872  0.25401033  0.25078644  1
  Ca  Ca2  1  0.33333300  0.66666700  0.00154235  1
  Ca  Ca3  1  0.33333300  0.66666700  0.49920427  1
  Ca  Ca4  1  0.25401033  0.24757361  0.75078644  1
  Ca  Ca5  1  0.74598967  0.75242639  0.25078644  1
  Ca  Ca6  1  0.66666700  0.33333300  0.50154235  1
  Ca  Ca7  1  0.66666700  0.33333300  0.99920427  1
  Ca  Ca8  1  0.99356128  0.74598967  0.75078644  1
  Ca  Ca9  1  0.75242639  0.00643872  0.75078644  1
  P  P0  1  0.03142597  0.39923003  0.75182353  1
  P  P1  1  0.36780406  0.96857403  0.75182353  1
  P  P2  1  0.39923003  0.36780406  0.25182353  1
  P  P3  1  0.60076997  0.63219594  0.75182353  1
  P  P4  1  0.63219594  0.03142597  0.25182353  1
  P  P5  1  0.96857403  0.60076997  0.25182353  1
  H  H0  1  0.00000000  0.00000000  0.43085188  1
  H  H1  1  0.00000000  0.00000000  0.93085188  1
  O  O0  1  0.25900857  0.91002269  0.93406060  1
  O  O1  1  0.25432187  0.91581049  0.57328549  1
  O  O2  1  0.15501305  0.67072699  0.25330212  1
  O  O3  1  0.12363870  0.58860556  0.74644802  1
  O  O4  1  0.08418951  0.33850938  0.57328549  1
  O  O5  1  0.08997731  0.34898588  0.93406060  1
  O  O6  1  0.46496686  0.87636130  0.74644802  1
  O  O7  1  0.32927301  0.48428606  0.25330212  1
  O  O8  1  0.51571394  0.84498695  0.25330212  1
  O  O9  1  0.41139444  0.53503314  0.74644802  1
  O  O10  1  0.34898588  0.25900857  0.43406060  1
  O  O11  1  0.33850938  0.25432187  0.07328549  1
  O  O12  1  0.65101412  0.74099143  0.93406060  1
  O  O13  1  0.66149062  0.74567813  0.57328549  1
  O  O14  1  0.58860556  0.46496686  0.24644802  1
  O  O15  1  0.48428606  0.15501305  0.75330212  1
  O  O16  1  0.67072699  0.51571394  0.75330212  1
  O  O17  1  0.53503314  0.12363870  0.24644802  1
  O  O18  1  0.91581049  0.66149062  0.07328549  1
  O  O19  1  0.91002269  0.65101412  0.43406060  1
  O  O20  1  0.87636130  0.41139444  0.24644802  1
  O  O21  1  0.84498695  0.32927301  0.75330212  1
  O  O22  1  0.74099143  0.08997731  0.43406060  1
  O  O23  1  0.74567813  0.08418951  0.07328549  1
  O  O24  1  0.00000000  0.00000000  0.28958289  1
  O  O25  1  0.00000000  0.00000000  0.78958289  1
loop_
_geom_bond_atom_site_label_1
_geom_bond_atom_site_label_2
_geom_bond_distance
_geom_bond_site_symmetry_2
Ca0 O0 2.332050 1_554
Ca0 O1 2.341870 1_555
Ca0 O17 2.343026 1_565
Ca0 O24 2.372242 1_565
Ca0 O11 2.474853 1_565
Ca0 O10 2.517050 1_565
Ca0 O2 2.705757 1_555
Ca1 O5 2.332055 1_554
Ca1 O4 2.341870 1_555
Ca1 O20 2.343042 1_455
Ca1 O24 2.372223 1_555
Ca1 O23 2.474848 1_455
Ca1 O22 2.517048 1_455
Ca1 O7 2.705762 1_555
Ca2 O2 2.420631 1_555
Ca2 O8 2.420634 1_555
Ca2 O7 2.420638 1_555
Ca2 O3 2.457909 1_554
Ca2 O6 2.457910 1_554
Ca2 O9 2.457915 1_554
Ca2 O0 2.743868 1_554
Ca2 O5 2.743874 1_554
Ca2 O12 2.743877 1_554
Ca3 O2 2.392093 1_555
Ca3 O8 2.392097 1_555
Ca3 O7 2.392100 1_555
Ca3 O3 2.419817 1_555
Ca3 O6 2.419818 1_555
Ca3 O9 2.419823 1_555
Ca3 O1 2.833562 1_555
Ca3 O4 2.833581 1_555
Ca3 O13 2.833589 1_555
Ca4 O10 2.332057 1_555
Ca4 O11 2.341870 1_556
Ca4 O9 2.343027 1_555
Ca4 O25 2.372232 1_555
Ca4 O4 2.474822 1_555
Ca4 O5 2.517035 1_555
Ca4 O15 2.705775 1_555
Ca5 O12 2.332057 1_554
Ca5 O13 2.341870 1_555
Ca5 O14 2.343027 1_555
Ca5 O24 2.372232 1_665
Ca5 O18 2.474822 1_555
Ca5 O19 2.517035 1_555
Ca5 O8 2.705775 1_555
Ca6 O21 2.420631 1_555
Ca6 O15 2.420634 1_555
Ca6 O16 2.420638 1_555
Ca6 O20 2.457909 1_555
Ca6 O17 2.457910 1_555
Ca6 O14 2.457915 1_555
Ca6 O22 2.743868 1_555
Ca6 O19 2.743874 1_555
Ca6 O10 2.743877 1_555
Ca7 O21 2.392093 1_555
Ca7 O15 2.392097 1_555
Ca7 O16 2.392100 1_555
Ca7 O20 2.419817 1_556
Ca7 O17 2.419818 1_556
Ca7 O14 2.419823 1_556
Ca7 O23 2.833562 1_556
Ca7 O18 2.833581 1_556
Ca7 O11 2.833589 1_556
Ca8 O19 2.332055 1_555
Ca8 O18 2.341870 1_556
Ca8 O3 2.343042 1_655
Ca8 O25 2.372223 1_665
Ca8 O1 2.474848 1_655
Ca8 O0 2.517048 1_655
Ca8 O16 2.705762 1_555
Ca9 O22 2.332050 1_555
Ca9 O23 2.341870 1_556
Ca9 O6 2.343026 1_545
Ca9 O25 2.372242 1_655
Ca9 O13 2.474853 1_545
Ca9 O12 2.517050 1_545
Ca9 O21 2.705757 1_555
H0 O24 0.969674 1_555
H1 O25 0.969674 1_555
O0 P1 1.533004 1_555
O1 P1 1.534956 1_555
O2 P5 1.532925 1_455
O3 P0 1.541739 1_555
O4 P0 1.534966 1_555
O5 P0 1.533004 1_555
O6 P1 1.541739 1_555
O7 P2 1.532925 1_555
O8 P4 1.532925 1_565
O9 P3 1.541739 1_555
O10 P2 1.533004 1_555
O11 P2 1.534956 1_555
O12 P3 1.533004 1_555
O13 P3 1.534956 1_555
O14 P2 1.541739 1_555
O15 P1 1.532925 1_545
O16 P3 1.532925 1_555
O17 P4 1.541739 1_555
O18 P5 1.534966 1_555
O19 P5 1.533004 1_555
O20 P5 1.541739 1_555
O21 P0 1.532925 1_655
O22 P4 1.533004 1_555
O23 P4 1.534956 1_555
