# generated using pymatgen
data_CeZrO4
_symmetry_space_group_name_H-M   'P 1'
_cell_length_a   10.63808200
_cell_length_b   10.63808200
_cell_length_c   10.63808200
_cell_angle_alpha   90.00000000
_cell_angle_beta   90.00000000
_cell_angle_gamma   90.00000000
_symmetry_Int_Tables_number   1
_chemical_formula_structural   CeZrO4
_chemical_formula_sum   'Ce16 Zr16 O64'
_cell_volume   1203.89885338
_cell_formula_units_Z   16
loop_
 _symmetry_equiv_pos_site_id
 _symmetry_equiv_pos_as_xyz
  1  'x, y, z'
loop_
 _atom_site_type_symbol
 _atom_site_label
 _atom_site_symmetry_multiplicity
 _atom_site_fract_x
 _atom_site_fract_y
 _atom_site_fract_z
 _atom_site_occupancy
  Ce  Ce0  1  0.37300900  0.87354300  0.87697700  1
  Ce  Ce1  1  0.87300900  0.62645700  0.12302300  1
  Ce  Ce2  1  0.62699100  0.37354300  0.62302300  1
  Ce  Ce3  1  0.62645700  0.12302300  0.87300900  1
  Ce  Ce4  1  0.62302300  0.62699100  0.37354300  1
  Ce  Ce5  1  0.12302300  0.87300900  0.62645700  1
  Ce  Ce6  1  0.87354300  0.87697700  0.37300900  1
  Ce  Ce7  1  0.87697700  0.37300900  0.87354300  1
  Ce  Ce8  1  0.37354300  0.62302300  0.62699100  1
  Ce  Ce9  1  0.12645700  0.37697700  0.12699100  1
  Ce  Ce10  1  0.37697700  0.12699100  0.12645700  1
  Ce  Ce11  1  0.12699100  0.12645700  0.37697700  1
  Ce  Ce12  1  0.62348000  0.87652000  0.12348000  1
  Ce  Ce13  1  0.87652000  0.12348000  0.62348000  1
  Ce  Ce14  1  0.12348000  0.62348000  0.87652000  1
  Ce  Ce15  1  0.37652000  0.37652000  0.37652000  1
  Zr  Zr0  1  0.37096600  0.87222700  0.37492500  1
  Zr  Zr1  1  0.87096600  0.62777300  0.62507500  1
  Zr  Zr2  1  0.62903400  0.37222700  0.12507500  1
  Zr  Zr3  1  0.62777300  0.62507500  0.87096600  1
  Zr  Zr4  1  0.12507500  0.62903400  0.37222700  1
  Zr  Zr5  1  0.62507500  0.87096600  0.62777300  1
  Zr  Zr6  1  0.87222700  0.37492500  0.37096600  1
  Zr  Zr7  1  0.37492500  0.37096600  0.87222700  1
  Zr  Zr8  1  0.37222700  0.12507500  0.62903400  1
  Zr  Zr9  1  0.12777300  0.87492500  0.12903400  1
  Zr  Zr10  1  0.87492500  0.12903400  0.12777300  1
  Zr  Zr11  1  0.12903400  0.12777300  0.87492500  1
  Zr  Zr12  1  0.11357000  0.38643000  0.61357000  1
  Zr  Zr13  1  0.38643000  0.61357000  0.11357000  1
  Zr  Zr14  1  0.61357000  0.11357000  0.38643000  1
  Zr  Zr15  1  0.88643000  0.88643000  0.88643000  1
  O  O0  1  0.25181400  0.74802200  0.50131900  1
  O  O1  1  0.75181400  0.75197800  0.49868100  1
  O  O2  1  0.74818600  0.24802200  0.99868100  1
  O  O3  1  0.75197800  0.49868100  0.75181400  1
  O  O4  1  0.99868100  0.74818600  0.24802200  1
  O  O5  1  0.49868100  0.75181400  0.75197800  1
  O  O6  1  0.74802200  0.50131900  0.25181400  1
  O  O7  1  0.50131900  0.25181400  0.74802200  1
  O  O8  1  0.24802200  0.99868100  0.74818600  1
  O  O9  1  0.25197800  0.00131900  0.24818600  1
  O  O10  1  0.00131900  0.24818600  0.25197800  1
  O  O11  1  0.24818600  0.25197800  0.00131900  1
  O  O12  1  0.25686800  0.74799700  0.02012200  1
  O  O13  1  0.75686800  0.75200300  0.97987800  1
  O  O14  1  0.74313200  0.24799700  0.47987800  1
  O  O15  1  0.75200300  0.97987800  0.75686800  1
  O  O16  1  0.47987800  0.74313200  0.24799700  1
  O  O17  1  0.97987800  0.75686800  0.75200300  1
  O  O18  1  0.74799700  0.02012200  0.25686800  1
  O  O19  1  0.02012200  0.25686800  0.74799700  1
  O  O20  1  0.24799700  0.47987800  0.74313200  1
  O  O21  1  0.25200300  0.52012200  0.24313200  1
  O  O22  1  0.52012200  0.24313200  0.25200300  1
  O  O23  1  0.50048600  0.75916200  0.49986000  1
  O  O24  1  0.24313200  0.25200300  0.52012200  1
  O  O25  1  0.00014000  0.49951400  0.25916200  1
  O  O26  1  0.49986000  0.50048600  0.75916200  1
  O  O27  1  0.49951400  0.25916200  0.00014000  1
  O  O28  1  0.75916200  0.49986000  0.50048600  1
  O  O29  1  0.25916200  0.00014000  0.49951400  1
  O  O30  1  0.00048600  0.74083800  0.50014000  1
  O  O31  1  0.74083800  0.50014000  0.00048600  1
  O  O32  1  0.25575100  0.25575100  0.25575100  1
  O  O33  1  0.24424900  0.74424900  0.75575100  1
  O  O34  1  0.75575100  0.24424900  0.74424900  1
  O  O35  1  0.74424900  0.75575100  0.24424900  1
  O  O36  1  0.50003200  0.50003200  0.50003200  1
  O  O37  1  0.99996800  0.49996800  0.00003200  1
  O  O38  1  0.00003200  0.99996800  0.49996800  1
  O  O39  1  0.49996800  0.00003200  0.99996800  1
  O  O40  1  0.73076200  0.73076200  0.73076200  1
  O  O41  1  0.76923800  0.26923800  0.23076200  1
  O  O42  1  0.23076200  0.76923800  0.26923800  1
  O  O43  1  0.26923800  0.23076200  0.76923800  1
  O  O44  1  0.00015100  0.00015100  0.00015100  1
  O  O45  1  0.49984900  0.99984900  0.50015100  1
  O  O46  1  0.50015100  0.49984900  0.99984900  1
  O  O47  1  0.99984900  0.50015100  0.49984900  1
  O  O48  1  0.00178700  0.00813900  0.75984200  1
  O  O49  1  0.75984200  0.00178700  0.00813900  1
  O  O50  1  0.00813900  0.75984200  0.00178700  1
  O  O51  1  0.49186100  0.24015800  0.50178700  1
  O  O52  1  0.25984200  0.49821300  0.99186100  1
  O  O53  1  0.99186100  0.25984200  0.49821300  1
  O  O54  1  0.74015800  0.99821300  0.50813900  1
  O  O55  1  0.24015800  0.50178700  0.49186100  1
  O  O56  1  0.50813900  0.74015800  0.99821300  1
  O  O57  1  0.50178700  0.49186100  0.24015800  1
  O  O58  1  0.99821300  0.50813900  0.74015800  1
  O  O59  1  0.49821300  0.99186100  0.25984200  1
  O  O60  1  0.99986000  0.99951400  0.24083800  1
  O  O61  1  0.24083800  0.99986000  0.99951400  1
  O  O62  1  0.99951400  0.24083800  0.99986000  1
  O  O63  1  0.50014000  0.00048600  0.74083800  1
loop_
_geom_bond_atom_site_label_1
_geom_bond_atom_site_label_2
_geom_bond_distance
_geom_bond_site_symmetry_2
Ce0 O5 2.287463 1_555
Ce0 O39 2.312281 1_565
Ce0 O8 2.327490 1_555
Ce0 O33 2.330488 1_555
Ce0 O61 2.341356 1_555
Ce0 O12 2.372579 1_556
Ce0 O56 2.396518 1_555
Ce0 O63 2.397953 1_565
Ce1 O4 2.287463 1_555
Ce1 O37 2.312281 1_555
Ce1 O6 2.327490 1_555
Ce1 O35 2.330488 1_555
Ce1 O31 2.341356 1_555
Ce1 O13 2.372579 1_554
Ce1 O50 2.396518 1_655
Ce1 O25 2.397953 1_655
Ce2 O7 2.287463 1_555
Ce2 O36 2.312281 1_555
Ce2 O3 2.327490 1_555
Ce2 O34 2.330488 1_555
Ce2 O28 2.341356 1_555
Ce2 O14 2.372579 1_555
Ce2 O51 2.396518 1_555
Ce2 O26 2.397953 1_555
Ce3 O2 2.287463 1_555
Ce3 O39 2.312281 1_555
Ce3 O7 2.327490 1_555
Ce3 O34 2.330488 1_555
Ce3 O63 2.341356 1_555
Ce3 O15 2.372579 1_545
Ce3 O49 2.396518 1_556
Ce3 O27 2.397953 1_556
Ce4 O6 2.287463 1_555
Ce4 O36 2.312281 1_555
Ce4 O1 2.327490 1_555
Ce4 O35 2.330488 1_555
Ce4 O23 2.341356 1_555
Ce4 O16 2.372579 1_555
Ce4 O57 2.396518 1_555
Ce4 O28 2.397953 1_555
Ce5 O8 2.287463 1_555
Ce5 O38 2.312281 1_555
Ce5 O0 2.327490 1_555
Ce5 O33 2.330488 1_555
Ce5 O30 2.341356 1_555
Ce5 O17 2.372579 1_455
Ce5 O48 2.396518 1_565
Ce5 O29 2.397953 1_565
Ce6 O1 2.287463 1_555
Ce6 O38 2.312281 1_655
Ce6 O4 2.327490 1_555
Ce6 O35 2.330488 1_555
Ce6 O60 2.341356 1_555
Ce6 O18 2.372579 1_565
Ce6 O54 2.396518 1_555
Ce6 O30 2.397953 1_655
Ce7 O3 2.287463 1_555
Ce7 O37 2.312281 1_556
Ce7 O2 2.327490 1_555
Ce7 O34 2.330488 1_555
Ce7 O62 2.341356 1_555
Ce7 O19 2.372579 1_655
Ce7 O58 2.396518 1_555
Ce7 O31 2.397953 1_556
Ce8 O0 2.287463 1_555
Ce8 O36 2.312281 1_555
Ce8 O5 2.327490 1_555
Ce8 O33 2.330488 1_555
Ce8 O26 2.341356 1_555
Ce8 O20 2.372579 1_555
Ce8 O55 2.396518 1_555
Ce8 O23 2.397953 1_555
Ce9 O11 2.287463 1_555
Ce9 O37 2.312281 1_455
Ce9 O10 2.327490 1_555
Ce9 O32 2.330488 1_555
Ce9 O25 2.341356 1_555
Ce9 O21 2.372579 1_555
Ce9 O52 2.396518 1_554
Ce9 O62 2.397953 1_454
Ce10 O9 2.287463 1_555
Ce10 O39 2.312281 1_554
Ce10 O11 2.327490 1_555
Ce10 O32 2.330488 1_555
Ce10 O27 2.341356 1_555
Ce10 O22 2.372579 1_555
Ce10 O59 2.396518 1_545
Ce10 O61 2.397953 1_544
Ce11 O10 2.287463 1_555
Ce11 O38 2.312281 1_545
Ce11 O9 2.327490 1_555
Ce11 O32 2.330488 1_555
Ce11 O29 2.341356 1_555
Ce11 O24 2.372579 1_555
Ce11 O53 2.396518 1_455
Ce11 O60 2.397953 1_445
Ce12 O35 2.225253 1_555
Ce12 O39 2.275795 1_564
Ce12 O59 2.320711 1_555
Ce12 O49 2.320711 1_565
Ce12 O56 2.320711 1_554
Ce12 O18 2.470198 1_565
Ce12 O13 2.470198 1_554
Ce12 O16 2.470198 1_555
Ce13 O34 2.225253 1_555
Ce13 O38 2.275795 1_645
Ce13 O48 2.320711 1_655
Ce13 O53 2.320711 1_555
Ce13 O54 2.320711 1_545
Ce13 O19 2.470198 1_655
Ce13 O15 2.470198 1_545
Ce13 O14 2.470198 1_555
Ce14 O33 2.225253 1_555
Ce14 O37 2.275795 1_456
Ce14 O50 2.320711 1_556
Ce14 O52 2.320711 1_555
Ce14 O58 2.320711 1_455
Ce14 O12 2.470198 1_556
Ce14 O20 2.470198 1_555
Ce14 O17 2.470198 1_455
Ce15 O32 2.225253 1_555
Ce15 O36 2.275795 1_555
Ce15 O55 2.320711 1_555
Ce15 O51 2.320711 1_555
Ce15 O57 2.320711 1_555
Ce15 O24 2.470198 1_555
Ce15 O22 2.470198 1_555
Ce15 O21 2.470198 1_555
O0 Zr0 2.271661 1_555
O0 Zr4 2.303474 1_555
O1 Zr1 2.271661 1_555
O1 Zr5 2.303474 1_555
O2 Zr2 2.271661 1_556
O2 Zr10 2.303474 1_556
O3 Zr3 2.271661 1_555
O3 Zr1 2.303474 1_555
O4 Zr4 2.271661 1_655
O4 Zr9 2.303474 1_655
O5 Zr5 2.271661 1_555
O5 Zr3 2.303474 1_555
O6 Zr6 2.271661 1_555
O6 Zr2 2.303474 1_555
O7 Zr7 2.271661 1_555
O7 Zr8 2.303474 1_555
O8 Zr8 2.271661 1_565
O8 Zr11 2.303474 1_565
O9 Zr9 2.271661 1_545
O9 Zr0 2.303474 1_545
O10 Zr10 2.271661 1_455
O10 Zr6 2.303474 1_455
O11 Zr11 2.271661 1_554
O11 Zr7 2.303474 1_554
O12 Zr13 2.221028 1_555
O12 Zr9 2.247584 1_555
O13 Zr15 2.221028 1_555
O13 Zr3 2.247584 1_555
O14 Zr14 2.221028 1_555
O14 Zr6 2.247584 1_555
O15 Zr15 2.221028 1_555
O15 Zr5 2.247584 1_555
O16 Zr13 2.221028 1_555
O16 Zr0 2.247584 1_555
O17 Zr15 2.221028 1_555
O17 Zr1 2.247584 1_555
O18 Zr14 2.221028 1_555
O18 Zr10 2.247584 1_555
O19 Zr12 2.221028 1_555
O19 Zr11 2.247584 1_555
O20 Zr12 2.221028 1_555
O20 Zr7 2.247584 1_555
O21 Zr13 2.221028 1_555
O21 Zr4 2.247584 1_555
O22 Zr14 2.221028 1_555
O22 Zr2 2.247584 1_555
O23 Zr5 2.241186 1_555
O23 Zr0 2.260883 1_555
O24 Zr12 2.221028 1_555
O24 Zr8 2.247584 1_555
O25 Zr6 2.241186 1_455
O25 Zr4 2.260883 1_555
O26 Zr3 2.241186 1_555
O26 Zr7 2.260883 1_555
O27 Zr7 2.241186 1_554
O27 Zr2 2.260883 1_555
O28 Zr1 2.241186 1_555
O28 Zr6 2.260883 1_555
O29 Zr0 2.241186 1_545
O29 Zr8 2.260883 1_555
O30 Zr4 2.241186 1_555
O30 Zr1 2.260883 1_455
O31 Zr2 2.241186 1_555
O31 Zr3 2.260883 1_554
O40 Zr3 2.165409 1_555
O40 Zr5 2.165409 1_555
O40 Zr1 2.165409 1_555
O41 Zr6 2.165409 1_555
O41 Zr2 2.165409 1_555
O41 Zr10 2.165409 1_555
O42 Zr0 2.165409 1_555
O42 Zr4 2.165409 1_555
O42 Zr9 2.165409 1_555
O43 Zr7 2.165409 1_555
O43 Zr8 2.165409 1_555
O43 Zr11 2.165409 1_555
O44 Zr15 2.095389 1_444
O44 Zr9 2.344720 1_545
O44 Zr11 2.344720 1_554
O44 Zr10 2.344720 1_455
O45 Zr14 2.095389 1_565
O45 Zr5 2.344720 1_555
O45 Zr8 2.344720 1_565
O45 Zr0 2.344720 1_555
O46 Zr13 2.095389 1_556
O46 Zr3 2.344720 1_555
O46 Zr2 2.344720 1_556
O46 Zr7 2.344720 1_555
O47 Zr12 2.095389 1_655
O47 Zr4 2.344720 1_655
O47 Zr1 2.344720 1_555
O47 Zr6 2.344720 1_555
O48 Zr11 2.225068 1_555
O48 Zr15 2.235133 1_445
O49 Zr10 2.225068 1_555
O49 Zr15 2.235133 1_544
O50 Zr9 2.225068 1_555
O50 Zr15 2.235133 1_454
O51 Zr8 2.225068 1_555
O51 Zr14 2.235133 1_555
O52 Zr7 2.225068 1_555
O52 Zr13 2.235133 1_556
O53 Zr6 2.225068 1_555
O53 Zr12 2.235133 1_655
O54 Zr5 2.225068 1_555
O54 Zr14 2.235133 1_565
O55 Zr4 2.225068 1_555
O55 Zr12 2.235133 1_555
O56 Zr3 2.225068 1_555
O56 Zr13 2.235133 1_556
O57 Zr2 2.225068 1_555
O57 Zr13 2.235133 1_555
O58 Zr1 2.225068 1_555
O58 Zr12 2.235133 1_655
O59 Zr0 2.225068 1_555
O59 Zr14 2.235133 1_565
O60 Zr9 2.241186 1_655
O60 Zr10 2.260883 1_565
O61 Zr11 2.241186 1_565
O61 Zr9 2.260883 1_556
O62 Zr10 2.241186 1_556
O62 Zr11 2.260883 1_655
O63 Zr8 2.241186 1_555
O63 Zr5 2.260883 1_545
