# generated using pymatgen
data_La3(B3Ru4)2
_symmetry_space_group_name_H-M   'P 1'
_cell_length_a   5.56020752
_cell_length_b   5.62925092
_cell_length_c   9.20330592
_cell_angle_alpha   81.42452001
_cell_angle_beta   72.41762426
_cell_angle_gamma   60.42093918
_symmetry_Int_Tables_number   1
_chemical_formula_structural   La3(B3Ru4)2
_chemical_formula_sum   'La3 B6 Ru8'
_cell_volume   238.81674888
_cell_formula_units_Z   1
loop_
 _symmetry_equiv_pos_site_id
 _symmetry_equiv_pos_as_xyz
  1  'x, y, z'
loop_
 _atom_site_type_symbol
 _atom_site_label
 _atom_site_symmetry_multiplicity
 _atom_site_fract_x
 _atom_site_fract_y
 _atom_site_fract_z
 _atom_site_occupancy
  La  La0  1  0.00000000  -0.00000000  -0.00000000  1
  La  La1  1  0.18101711  -0.00000000  0.63796778  1
  La  La2  1  0.81898289  0.00000000  0.36203222  1
  B  B0  1  0.33043754  0.33906374  -0.00000000  1
  B  B1  1  0.66956246  0.66093626  0.00000000  1
  B  B2  1  0.83535042  0.67199370  0.65755752  1
  B  B3  1  0.50709206  0.32800630  0.65755752  1
  B  B4  1  0.16464958  0.32800630  0.34244248  1
  B  B5  1  0.49290794  0.67199370  0.34244248  1
  Ru  Ru0  1  0.08597204  0.50000000  0.82805591  1
  Ru  Ru1  1  0.58670803  0.00000000  0.82658394  1
  Ru  Ru2  1  0.41329197  -0.00000000  0.17341606  1
  Ru  Ru3  1  0.74997188  0.50000000  0.50005624  1
  Ru  Ru4  1  0.25002812  0.50000000  0.49994376  1
  Ru  Ru5  1  0.91402796  0.50000000  0.17194409  1
  Ru  Ru6  1  0.41400839  0.50000000  0.17198223  1
  Ru  Ru7  1  0.58599161  0.50000000  0.82801777  1
loop_
_geom_bond_atom_site_label_1
_geom_bond_atom_site_label_2
_geom_bond_distance
_geom_bond_site_symmetry_2
La0 Ru1 3.169189 1_554
La0 Ru2 3.169189 1_455
La0 Ru1 3.169189 1_454
La0 Ru2 3.169189 1_555
La0 La2 3.176239 1_455
La0 La1 3.176239 1_554
La0 Ru0 3.193395 1_544
La0 Ru5 3.193395 1_455
La0 Ru5 3.193395 1_445
La0 Ru0 3.193395 1_554
La0 Ru7 3.194148 1_454
La0 Ru6 3.194148 1_545
La0 Ru7 3.194150 1_544
La0 Ru6 3.194150 1_455
La1 Ru4 3.064060 1_555
La1 Ru4 3.064065 1_545
La1 Ru3 3.064291 1_545
La1 Ru3 3.064297 1_455
La1 Ru1 3.235321 1_555
La1 Ru1 3.235330 1_455
La1 Ru0 3.271599 1_555
La1 Ru0 3.271604 1_545
La1 Ru7 3.272012 1_545
La1 Ru7 3.272014 1_455
La2 Ru3 3.064060 1_545
La2 Ru3 3.064065 1_555
La2 Ru4 3.064291 1_555
La2 Ru4 3.064297 1_645
La2 Ru2 3.235321 1_555
La2 Ru2 3.235330 1_655
La2 Ru5 3.271599 1_545
La2 Ru5 3.271604 1_555
La2 Ru6 3.272012 1_555
La2 Ru6 3.272014 1_645
B0 Ru5 2.197453 1_455
B0 Ru0 2.197453 1_554
B0 Ru6 2.197617 1_555
B0 Ru7 2.197621 1_554
B0 Ru1 2.251698 1_554
B0 Ru2 2.251698 1_555
B0 La0 3.235693 1_565
B0 La0 3.237408 1_555
B0 La0 3.238497 1_655
B1 Ru0 2.197453 1_654
B1 Ru5 2.197453 1_555
B1 Ru7 2.197617 1_554
B1 Ru6 2.197621 1_555
B1 Ru2 2.251698 1_565
B1 Ru1 2.251698 1_564
B1 La0 3.235693 1_655
B1 La0 3.237408 1_665
B1 La0 3.238497 1_565
B2 Ru3 2.133528 1_555
B2 Ru4 2.133561 1_655
B2 Ru1 2.185785 1_565
B2 Ru0 2.208504 1_655
B2 Ru7 2.208861 1_555
B2 La2 3.049743 1_565
B2 La1 3.214145 1_665
B2 La1 3.216125 1_565
B2 La1 3.294313 1_655
B3 Ru3 2.133528 1_555
B3 Ru4 2.133562 1_555
B3 Ru1 2.185786 1_555
B3 Ru0 2.208504 1_555
B3 Ru7 2.208865 1_555
B3 La2 3.049742 1_555
B3 La1 3.214135 1_555
B3 La1 3.216134 1_655
B3 La1 3.294313 1_565
B4 Ru4 2.133528 1_555
B4 Ru3 2.133561 1_455
B4 Ru2 2.185785 1_555
B4 Ru5 2.208504 1_455
B4 Ru6 2.208861 1_555
B4 La1 3.049743 1_555
B4 La2 3.214145 1_455
B4 La2 3.216125 1_555
B4 La2 3.294313 1_465
B5 Ru4 2.133528 1_555
B5 Ru3 2.133562 1_555
B5 Ru2 2.185786 1_565
B5 Ru5 2.208504 1_555
B5 Ru6 2.208865 1_555
B5 La1 3.049742 1_565
B5 La2 3.214135 1_565
B5 La2 3.216134 1_465
B5 La2 3.294313 1_555
