# generated using pymatgen
data_Pr(CoB)2
_symmetry_space_group_name_H-M   'P 1'
_cell_length_a   3.57305274
_cell_length_b   3.57305117
_cell_length_c   5.63349210
_cell_angle_alpha   108.48920207
_cell_angle_beta   108.48920345
_cell_angle_gamma   90.00000956
_symmetry_Int_Tables_number   1
_chemical_formula_structural   Pr(CoB)2
_chemical_formula_sum   'Pr1 Co2 B2'
_cell_volume   64.28243201
_cell_formula_units_Z   1
loop_
 _symmetry_equiv_pos_site_id
 _symmetry_equiv_pos_as_xyz
  1  'x, y, z'
loop_
 _atom_site_type_symbol
 _atom_site_label
 _atom_site_symmetry_multiplicity
 _atom_site_fract_x
 _atom_site_fract_y
 _atom_site_fract_z
 _atom_site_occupancy
  Pr  Pr0  1  0.00000000  -0.00000000  0.00000000  1
  Co  Co0  1  0.25000000  0.75000000  0.50000000  1
  Co  Co1  1  0.75000000  0.25000000  0.50000000  1
  B  B0  1  0.66649158  0.66649158  0.33298516  1
  B  B1  1  0.33350842  0.33350842  0.66701484  1
loop_
_geom_bond_atom_site_label_1
_geom_bond_atom_site_label_2
_geom_bond_distance
_geom_bond_site_symmetry_2
Co0 Pr0 3.087052 1_555
Co0 Pr0 3.087053 1_666
Co0 Pr0 3.087053 1_565
Co0 Pr0 3.087053 1_566
Co1 Pr0 3.087052 1_666
Co1 Pr0 3.087053 1_555
Co1 Pr0 3.087053 1_656
Co1 Pr0 3.087053 1_655
B0 Co1 1.974552 1_555
B0 Co0 1.974552 1_555
B0 Co1 1.974558 1_565
B0 Co0 1.974558 1_655
B0 Pr0 3.032231 1_555
B0 Pr0 3.032236 1_655
B0 Pr0 3.032236 1_565
B0 Pr0 3.032240 1_665
B1 Co0 1.974552 1_555
B1 Co1 1.974552 1_555
B1 Co0 1.974558 1_545
B1 Co1 1.974558 1_455
B1 Pr0 3.032231 1_666
B1 Pr0 3.032236 1_566
B1 Pr0 3.032236 1_656
B1 Pr0 3.032240 1_556
