# generated using pymatgen
data_Y(CuGe)2
_symmetry_space_group_name_H-M   'P 1'
_cell_length_a   4.03071877
_cell_length_b   4.03071891
_cell_length_c   5.87489114
_cell_angle_alpha   110.06259533
_cell_angle_beta   110.06259397
_cell_angle_gamma   89.99998506
_symmetry_Int_Tables_number   1
_chemical_formula_structural   Y(CuGe)2
_chemical_formula_sum   'Y1 Cu2 Ge2'
_cell_volume   83.46277738
_cell_formula_units_Z   1
loop_
 _symmetry_equiv_pos_site_id
 _symmetry_equiv_pos_as_xyz
  1  'x, y, z'
loop_
 _atom_site_type_symbol
 _atom_site_label
 _atom_site_symmetry_multiplicity
 _atom_site_fract_x
 _atom_site_fract_y
 _atom_site_fract_z
 _atom_site_occupancy
  Y  Y0  1  -0.00000000  -0.00000000  -0.00000000  1
  Cu  Cu0  1  0.25000000  0.75000000  0.50000000  1
  Cu  Cu1  1  0.75000000  0.25000000  0.50000000  1
  Ge  Ge0  1  0.61934427  0.61934427  0.23868953  1
  Ge  Ge1  1  0.38065573  0.38065573  0.76131047  1
loop_
_geom_bond_atom_site_label_1
_geom_bond_atom_site_label_2
_geom_bond_distance
_geom_bond_site_symmetry_2
Cu0 Ge0 2.421513 1_555
Cu0 Ge1 2.421513 1_555
Cu0 Ge0 2.421516 1_455
Cu0 Ge1 2.421516 1_565
Cu0 Y0 3.264876 1_666
Cu0 Y0 3.264876 1_555
Cu0 Y0 3.264877 1_566
Cu0 Y0 3.264877 1_565
Cu1 Ge1 2.421513 1_555
Cu1 Ge0 2.421513 1_555
Cu1 Ge1 2.421516 1_655
Cu1 Ge0 2.421516 1_545
Cu1 Y0 3.264876 1_555
Cu1 Y0 3.264876 1_666
Cu1 Y0 3.264877 1_655
Cu1 Y0 3.264877 1_656
Ge0 Ge1 2.452399 1_554
Ge0 Y0 3.102724 1_555
Ge0 Y0 3.102726 1_655
Ge0 Y0 3.102726 1_565
Ge0 Y0 3.102730 1_665
Ge1 Y0 3.102724 1_666
Ge1 Y0 3.102726 1_566
Ge1 Y0 3.102726 1_656
Ge1 Y0 3.102730 1_556
