# generated using pymatgen
data_NaHf2(PO4)3
_symmetry_space_group_name_H-M   'P 1'
_cell_length_a   9.18271482
_cell_length_b   9.18271482
_cell_length_c   9.18271586
_cell_angle_alpha   57.67412642
_cell_angle_beta   57.67412642
_cell_angle_gamma   57.67412646
_symmetry_Int_Tables_number   1
_chemical_formula_structural   NaHf2(PO4)3
_chemical_formula_sum   'Na2 Hf4 P6 O24'
_cell_volume   518.25561547
_cell_formula_units_Z   2
loop_
 _symmetry_equiv_pos_site_id
 _symmetry_equiv_pos_as_xyz
  1  'x, y, z'
loop_
 _atom_site_type_symbol
 _atom_site_label
 _atom_site_symmetry_multiplicity
 _atom_site_fract_x
 _atom_site_fract_y
 _atom_site_fract_z
 _atom_site_occupancy
  Na  Na0  1  0.00000000  0.00000000  0.00000000  1
  Na  Na1  1  0.50000000  0.50000000  0.50000000  1
  Hf  Hf0  1  0.14557900  0.14557900  0.14557900  1
  Hf  Hf1  1  0.35442100  0.35442100  0.35442100  1
  Hf  Hf2  1  0.64557900  0.64557900  0.64557900  1
  Hf  Hf3  1  0.85442100  0.85442100  0.85442100  1
  P  P0  1  0.04056000  0.45944000  0.75000000  1
  P  P1  1  0.45944000  0.75000000  0.04056000  1
  P  P2  1  0.75000000  0.04056000  0.45944000  1
  P  P3  1  0.25000000  0.95944000  0.54056000  1
  P  P4  1  0.54056000  0.25000000  0.95944000  1
  P  P5  1  0.95944000  0.54056000  0.25000000  1
  O  O0  1  0.56382700  0.41812900  0.78064000  1
  O  O1  1  0.78064000  0.56382700  0.41812900  1
  O  O2  1  0.41812900  0.78064000  0.56382700  1
  O  O3  1  0.87733000  0.49436800  0.71315600  1
  O  O4  1  0.49436800  0.71315600  0.87733000  1
  O  O5  1  0.71315600  0.87733000  0.49436800  1
  O  O6  1  0.00563200  0.62267000  0.78684400  1
  O  O7  1  0.62267000  0.78684400  0.00563200  1
  O  O8  1  0.78684400  0.00563200  0.62267000  1
  O  O9  1  0.93617300  0.71936000  0.08187100  1
  O  O10  1  0.08187100  0.93617300  0.71936000  1
  O  O11  1  0.71936000  0.08187100  0.93617300  1
  O  O12  1  0.28064000  0.91812900  0.06382700  1
  O  O13  1  0.91812900  0.06382700  0.28064000  1
  O  O14  1  0.06382700  0.28064000  0.91812900  1
  O  O15  1  0.21315600  0.99436800  0.37733000  1
  O  O16  1  0.37733000  0.21315600  0.99436800  1
  O  O17  1  0.99436800  0.37733000  0.21315600  1
  O  O18  1  0.28684400  0.12267000  0.50563200  1
  O  O19  1  0.50563200  0.28684400  0.12267000  1
  O  O20  1  0.12267000  0.50563200  0.28684400  1
  O  O21  1  0.58187100  0.21936000  0.43617300  1
  O  O22  1  0.21936000  0.43617300  0.58187100  1
  O  O23  1  0.43617300  0.58187100  0.21936000  1
loop_
_geom_bond_atom_site_label_1
_geom_bond_atom_site_label_2
_geom_bond_distance
_geom_bond_site_symmetry_2
Na0 O14 2.573313 1_554
Na0 O9 2.573313 1_445
Na0 O12 2.573313 1_545
Na0 O11 2.573313 1_454
Na0 O13 2.573313 1_455
Na0 O10 2.573313 1_544
Na1 O22 2.573313 1_555
Na1 O1 2.573313 1_555
Na1 O21 2.573313 1_555
Na1 O2 2.573313 1_555
Na1 O23 2.573313 1_555
Na1 O0 2.573313 1_555
Hf0 O16 2.042674 1_554
Hf0 O17 2.042674 1_455
Hf0 O15 2.042674 1_545
Hf0 O13 2.091612 1_455
Hf0 O12 2.091612 1_545
Hf0 O14 2.091612 1_554
Hf1 O18 2.042674 1_555
Hf1 O20 2.042674 1_555
Hf1 O19 2.042674 1_555
Hf1 O23 2.091612 1_555
Hf1 O21 2.091612 1_555
Hf1 O22 2.091612 1_555
Hf2 O5 2.042674 1_555
Hf2 O3 2.042674 1_555
Hf2 O4 2.042674 1_555
Hf2 O0 2.091612 1_555
Hf2 O2 2.091612 1_555
Hf2 O1 2.091612 1_555
Hf3 O7 2.042674 1_556
Hf3 O6 2.042674 1_655
Hf3 O8 2.042674 1_565
Hf3 O10 2.091612 1_655
Hf3 O11 2.091612 1_565
Hf3 O9 2.091612 1_556
O0 P4 1.546486 1_555
O1 P5 1.546486 1_555
O2 P3 1.546486 1_555
O3 P0 1.541484 1_655
O4 P1 1.541484 1_556
O5 P2 1.541484 1_565
O6 P0 1.541484 1_555
O7 P1 1.541484 1_555
O8 P2 1.541484 1_555
O9 P5 1.546486 1_555
O10 P3 1.546486 1_555
O11 P4 1.546486 1_555
O12 P1 1.546486 1_555
O13 P2 1.546486 1_555
O14 P0 1.546486 1_555
O15 P3 1.541484 1_555
O16 P4 1.541484 1_555
O17 P5 1.541484 1_555
O18 P3 1.541484 1_545
O19 P4 1.541484 1_554
O20 P5 1.541484 1_455
O21 P2 1.546486 1_555
O22 P0 1.546486 1_555
O23 P1 1.546486 1_555
