# generated using pymatgen
data_SmSnAu
_symmetry_space_group_name_H-M   'P 1'
_cell_length_a   4.71823209
_cell_length_b   4.71823202
_cell_length_c   7.58517594
_cell_angle_alpha   90.00000000
_cell_angle_beta   90.00000000
_cell_angle_gamma   119.99999342
_symmetry_Int_Tables_number   1
_chemical_formula_structural   SmSnAu
_chemical_formula_sum   'Sm2 Sn2 Au2'
_cell_volume   146.23620659
_cell_formula_units_Z   2
loop_
 _symmetry_equiv_pos_site_id
 _symmetry_equiv_pos_as_xyz
  1  'x, y, z'
loop_
 _atom_site_type_symbol
 _atom_site_label
 _atom_site_symmetry_multiplicity
 _atom_site_fract_x
 _atom_site_fract_y
 _atom_site_fract_z
 _atom_site_occupancy
  Sm  Sm0  1  -0.00000000  0.00000000  0.47414685  1
  Sm  Sm1  1  0.00000000  0.00000000  0.97414685  1
  Sn  Sn0  1  0.33333300  0.66666700  0.69927193  1
  Sn  Sn1  1  0.66666700  0.33333300  0.19927193  1
  Au  Au0  1  0.66666700  0.33333300  0.79657922  1
  Au  Au1  1  0.33333300  0.66666700  0.29657922  1
loop_
_geom_bond_atom_site_label_1
_geom_bond_atom_site_label_2
_geom_bond_distance
_geom_bond_site_symmetry_2
Sm0 Sn0 3.215043 1_545
Sm0 Sn0 3.215046 1_555
Sm0 Sn0 3.215046 1_445
Sm0 Sn1 3.430405 1_455
Sm0 Sn1 3.430408 1_445
Sm0 Sn1 3.430408 1_555
Sm1 Sn1 3.215043 1_456
Sm1 Sn1 3.215046 1_446
Sm1 Sn1 3.215046 1_556
Sm1 Sn0 3.430405 1_545
Sm1 Sn0 3.430408 1_555
Sm1 Sn0 3.430408 1_445
Au0 Sn0 2.822293 1_545
Au0 Sn0 2.822293 1_655
Au0 Sn0 2.822301 1_555
Au0 Sm1 3.038856 1_655
Au0 Sm1 3.038860 1_665
Au0 Sm1 3.038860 1_555
Au0 Sn1 3.054495 1_556
Au0 Sm0 3.660879 1_655
Au0 Sm0 3.660882 1_665
Au0 Sm0 3.660882 1_555
Au1 Sn1 2.822293 1_565
Au1 Sn1 2.822293 1_455
Au1 Sn1 2.822301 1_555
Au1 Sm0 3.038856 1_565
Au1 Sm0 3.038860 1_555
Au1 Sm0 3.038860 1_665
Au1 Sn0 3.054495 1_555
Au1 Sm1 3.660879 1_564
Au1 Sm1 3.660882 1_554
Au1 Sm1 3.660882 1_664
