# generated using pymatgen
data_Na2ThF6
_symmetry_space_group_name_H-M   'P 1'
_cell_length_a   5.90668136
_cell_length_b   5.90668103
_cell_length_c   3.83557536
_cell_angle_alpha   90.00000000
_cell_angle_beta   90.00000000
_cell_angle_gamma   120.00000722
_symmetry_Int_Tables_number   1
_chemical_formula_structural   Na2ThF6
_chemical_formula_sum   'Na2 Th1 F6'
_cell_volume   115.89059230
_cell_formula_units_Z   1
loop_
 _symmetry_equiv_pos_site_id
 _symmetry_equiv_pos_as_xyz
  1  'x, y, z'
loop_
 _atom_site_type_symbol
 _atom_site_label
 _atom_site_symmetry_multiplicity
 _atom_site_fract_x
 _atom_site_fract_y
 _atom_site_fract_z
 _atom_site_occupancy
  Na  Na0  1  0.66666700  0.33333300  0.59149988  1
  Na  Na1  1  0.33333300  0.66666700  0.40850012  1
  Th  Th0  1  0.00000000  -0.00000000  -0.00000000  1
  F  F0  1  0.74585841  0.74585841  0.50000000  1
  F  F1  1  -0.00000000  0.25414159  0.50000000  1
  F  F2  1  0.25414159  -0.00000000  0.50000000  1
  F  F3  1  0.61508718  0.00000000  -0.00000000  1
  F  F4  1  0.00000000  0.61508718  -0.00000000  1
  F  F5  1  0.38491282  0.38491282  -0.00000000  1
loop_
_geom_bond_atom_site_label_1
_geom_bond_atom_site_label_2
_geom_bond_distance
_geom_bond_site_symmetry_2
F0 Na0 2.267045 1_555
F0 Na1 2.267045 1_555
F0 Th0 2.435428 1_665
F0 Th0 2.435428 1_666
F1 Na0 2.267039 1_455
F1 Na1 2.267043 1_555
F1 Th0 2.435428 1_555
F1 Th0 2.435428 1_556
F2 Na1 2.267039 1_545
F2 Na0 2.267043 1_555
F2 Th0 2.435428 1_555
F2 Th0 2.435428 1_556
F3 Th0 2.273557 1_655
F3 Na0 2.413393 1_554
F3 Na1 2.413395 1_545
F4 Th0 2.273557 1_565
F4 Na1 2.413393 1_555
F4 Na0 2.413395 1_454
F5 Th0 2.273557 1_555
F5 Na1 2.413398 1_555
F5 Na0 2.413398 1_554
