# generated using pymatgen
data_Na2HgO2
_symmetry_space_group_name_H-M   'P 1'
_cell_length_a   3.38009194
_cell_length_b   3.38009135
_cell_length_c   7.08736829
_cell_angle_alpha   103.79560307
_cell_angle_beta   103.79560385
_cell_angle_gamma   89.99999480
_symmetry_Int_Tables_number   1
_chemical_formula_structural   Na2HgO2
_chemical_formula_sum   'Na2 Hg1 O2'
_cell_volume   76.23003579
_cell_formula_units_Z   1
loop_
 _symmetry_equiv_pos_site_id
 _symmetry_equiv_pos_as_xyz
  1  'x, y, z'
loop_
 _atom_site_type_symbol
 _atom_site_label
 _atom_site_symmetry_multiplicity
 _atom_site_fract_x
 _atom_site_fract_y
 _atom_site_fract_z
 _atom_site_occupancy
  Na  Na0  1  0.67768444  0.67768444  0.35536688  1
  Na  Na1  1  0.32231556  0.32231556  0.64463312  1
  Hg  Hg0  1  -0.00000000  0.00000000  0.00000000  1
  O  O0  1  0.85046410  0.85046410  0.70092719  1
  O  O1  1  0.14953590  0.14953590  0.29907281  1
loop_
_geom_bond_atom_site_label_1
_geom_bond_atom_site_label_2
_geom_bond_distance
_geom_bond_site_symmetry_2
Na0 O0 2.305648 1_555
Na0 O1 2.419412 1_665
Na0 O1 2.419419 1_655
Na0 O1 2.419419 1_565
Na0 O1 2.419426 1_555
Na1 O1 2.305648 1_555
Na1 O0 2.419412 1_445
Na1 O0 2.419419 1_455
Na1 O0 2.419419 1_545
Na1 O0 2.419426 1_555
Hg0 O0 1.995474 1_444
Hg0 O1 1.995474 1_555
