# generated using pymatgen
data_Tb(CuGe)2
_symmetry_space_group_name_H-M   'P 1'
_cell_length_a   4.03208401
_cell_length_b   4.03208495
_cell_length_c   5.86490216
_cell_angle_alpha   110.10531020
_cell_angle_beta   110.10532610
_cell_angle_gamma   90.00001522
_symmetry_Int_Tables_number   1
_chemical_formula_structural   Tb(CuGe)2
_chemical_formula_sum   'Tb1 Cu2 Ge2'
_cell_volume   83.32486621
_cell_formula_units_Z   1
loop_
 _symmetry_equiv_pos_site_id
 _symmetry_equiv_pos_as_xyz
  1  'x, y, z'
loop_
 _atom_site_type_symbol
 _atom_site_label
 _atom_site_symmetry_multiplicity
 _atom_site_fract_x
 _atom_site_fract_y
 _atom_site_fract_z
 _atom_site_occupancy
  Tb  Tb0  1  0.00000000  -0.00000000  0.00000000  1
  Cu  Cu0  1  0.25000000  0.75000000  0.50000000  1
  Cu  Cu1  1  0.75000000  0.25000000  0.50000000  1
  Ge  Ge0  1  0.61962431  0.61962431  0.23924661  1
  Ge  Ge1  1  0.38037569  0.38037569  0.76075339  1
loop_
_geom_bond_atom_site_label_1
_geom_bond_atom_site_label_2
_geom_bond_distance
_geom_bond_site_symmetry_2
Cu0 Ge0 2.418770 1_455
Cu0 Ge1 2.418770 1_565
Cu0 Ge1 2.418777 1_555
Cu0 Ge0 2.418777 1_555
Cu0 Tb0 3.260595 1_666
Cu0 Tb0 3.260595 1_565
Cu0 Tb0 3.260596 1_566
Cu0 Tb0 3.260596 1_555
Cu1 Ge1 2.418770 1_655
Cu1 Ge0 2.418770 1_545
Cu1 Ge0 2.418777 1_555
Cu1 Ge1 2.418777 1_555
Cu1 Tb0 3.260595 1_555
Cu1 Tb0 3.260595 1_656
Cu1 Tb0 3.260596 1_655
Cu1 Tb0 3.260596 1_666
Ge0 Ge1 2.452399 1_554
Ge0 Tb0 3.103608 1_665
Ge0 Tb0 3.103614 1_565
Ge0 Tb0 3.103614 1_655
Ge0 Tb0 3.103619 1_555
Ge1 Tb0 3.103608 1_556
Ge1 Tb0 3.103614 1_656
Ge1 Tb0 3.103614 1_566
Ge1 Tb0 3.103619 1_666
