# generated using pymatgen
data_ScPO4
_symmetry_space_group_name_H-M   'P 1'
_cell_length_a   5.48776415
_cell_length_b   5.48776420
_cell_length_c   5.48776493
_cell_angle_alpha   106.20393287
_cell_angle_beta   106.20392413
_cell_angle_gamma   116.22427760
_symmetry_Int_Tables_number   1
_chemical_formula_structural   ScPO4
_chemical_formula_sum   'Sc2 P2 O8'
_cell_volume   125.88204687
_cell_formula_units_Z   2
loop_
 _symmetry_equiv_pos_site_id
 _symmetry_equiv_pos_as_xyz
  1  'x, y, z'
loop_
 _atom_site_type_symbol
 _atom_site_label
 _atom_site_symmetry_multiplicity
 _atom_site_fract_x
 _atom_site_fract_y
 _atom_site_fract_z
 _atom_site_occupancy
  Sc  Sc0  1  0.12500000  0.87500000  0.25000000  1
  Sc  Sc1  1  0.87500000  0.12500000  0.75000000  1
  P  P0  1  0.37500000  0.62500000  0.75000000  1
  P  P1  1  0.62500000  0.37500000  0.25000000  1
  O  O0  1  0.79280370  0.72279572  0.42999102  1
  O  O1  1  0.36281169  0.79280370  0.57000898  1
  O  O2  1  0.72279572  0.79280370  0.92999102  1
  O  O3  1  0.79280370  0.36281169  0.07000898  1
  O  O4  1  0.63718831  0.20719630  0.42999102  1
  O  O5  1  0.20719630  0.27720428  0.57000898  1
  O  O6  1  0.20719630  0.63718831  0.92999102  1
  O  O7  1  0.27720428  0.20719630  0.07000898  1
loop_
_geom_bond_atom_site_label_1
_geom_bond_atom_site_label_2
_geom_bond_distance
_geom_bond_site_symmetry_2
O0 P1 1.534061 1_555
O0 Sc1 2.161917 1_565
O0 Sc0 2.261951 1_655
O1 P0 1.534057 1_555
O1 Sc0 2.161919 1_555
O1 Sc1 2.261956 1_565
O2 P0 1.534061 1_555
O2 Sc0 2.161917 1_656
O2 Sc1 2.261951 1_565
O3 P1 1.534057 1_555
O3 Sc1 2.161918 1_554
O3 Sc0 2.261956 1_655
O4 P1 1.534057 1_555
O4 Sc1 2.161919 1_555
O4 Sc0 2.261956 1_545
O5 P0 1.534061 1_555
O5 Sc0 2.161917 1_545
O5 Sc1 2.261951 1_455
O6 P0 1.534057 1_555
O6 Sc0 2.161918 1_556
O6 Sc1 2.261956 1_455
O7 P1 1.534061 1_555
O7 Sc1 2.161917 1_454
O7 Sc0 2.261951 1_545
