# generated using pymatgen
data_CsTiNiOF5
_symmetry_space_group_name_H-M   'P 1'
_cell_length_a   7.40781650
_cell_length_b   7.41771315
_cell_length_c   12.67944479
_cell_angle_alpha   91.30660910
_cell_angle_beta   106.98656939
_cell_angle_gamma   60.04136986
_symmetry_Int_Tables_number   1
_chemical_formula_structural   CsTiNiOF5
_chemical_formula_sum   'Cs4 Ti4 Ni4 O4 F20'
_cell_volume   570.89185011
_cell_formula_units_Z   4
loop_
 _symmetry_equiv_pos_site_id
 _symmetry_equiv_pos_as_xyz
  1  'x, y, z'
loop_
 _atom_site_type_symbol
 _atom_site_label
 _atom_site_symmetry_multiplicity
 _atom_site_fract_x
 _atom_site_fract_y
 _atom_site_fract_z
 _atom_site_occupancy
  Cs  Cs0  1  0.62652400  0.93522500  0.18825400  1
  Cs  Cs1  1  0.62650400  0.43522700  0.68825500  1
  Cs  Cs2  1  0.37349700  0.56478000  0.31174700  1
  Cs  Cs3  1  0.37347700  0.06478000  0.81174800  1
  Ti  Ti0  1  0.99999900  0.00000500  0.00000100  1
  Ti  Ti1  1  0.00000100  0.50000000  0.50000200  1
  Ti  Ti2  1  0.99991700  0.25000300  0.25000200  1
  Ti  Ti3  1  0.00008400  0.75000300  0.75000100  1
  Ni  Ni0  1  0.50003600  0.99995000  0.49999800  1
  Ni  Ni1  1  0.99998700  0.50001700  0.00000100  1
  Ni  Ni2  1  0.49996300  0.50001600  0.99997600  1
  Ni  Ni3  1  0.99999400  0.99993300  0.49999100  1
  O  O0  1  0.95753300  0.43871700  0.35377400  1
  O  O1  1  0.95753800  0.93871200  0.85376900  1
  O  O2  1  0.04246300  0.06129300  0.14623300  1
  O  O3  1  0.04246900  0.56128900  0.64622900  1
  F  F0  1  0.67814900  0.10779300  0.46408800  1
  F  F1  1  0.67815300  0.60779300  0.96408800  1
  F  F2  1  0.32184800  0.39221300  0.03591400  1
  F  F3  1  0.32185200  0.89221200  0.53591400  1
  F  F4  1  0.31406900  0.78925600  0.04121200  1
  F  F5  1  0.31406900  0.28925200  0.54121100  1
  F  F6  1  0.93788000  0.78930000  0.04120400  1
  F  F7  1  0.93787700  0.28930100  0.54120400  1
  F  F8  1  0.31403200  0.08280700  0.33477000  1
  F  F9  1  0.31404600  0.58281500  0.83476700  1
  F  F10  1  0.06210100  0.41722600  0.16524600  1
  F  F11  1  0.06212300  0.91721500  0.66524500  1
  F  F12  1  0.93787800  0.08279000  0.33475800  1
  F  F13  1  0.93790000  0.58277900  0.83475600  1
  F  F14  1  0.68595500  0.41719000  0.16523400  1
  F  F15  1  0.68597000  0.91719800  0.66523200  1
  F  F16  1  0.06212400  0.71070300  0.45879700  1
  F  F17  1  0.06212100  0.21070600  0.95879800  1
  F  F18  1  0.68593300  0.71075300  0.45879100  1
  F  F19  1  0.68593200  0.21075000  0.95879000  1
loop_
_geom_bond_atom_site_label_1
_geom_bond_atom_site_label_2
_geom_bond_distance
_geom_bond_site_symmetry_2
Cs0 F12 3.145452 1_565
Cs0 F6 3.145643 1_555
Cs0 F4 3.145681 1_555
Cs0 F8 3.145999 1_565
Cs0 F2 3.228926 1_565
Cs1 F13 3.145599 1_555
Cs1 F5 3.145612 1_555
Cs1 F7 3.145746 1_555
Cs1 F9 3.145772 1_555
Cs1 F3 3.228915 1_555
Cs2 F18 3.145607 1_555
Cs2 F10 3.145609 1_555
Cs2 F16 3.145737 1_555
Cs2 F14 3.145781 1_555
Cs2 F0 3.228926 1_555
Cs3 F11 3.145447 1_545
Cs3 F17 3.145643 1_555
Cs3 F19 3.145686 1_555
Cs3 F15 3.146004 1_545
Cs3 F1 3.228920 1_545
O0 Ti1 1.872656 1_655
O0 Ti2 1.872905 1_555
O1 Ti0 1.872726 1_566
O1 Ti3 1.872844 1_655
O2 Ti0 1.872715 1_455
O2 Ti2 1.872858 1_455
O3 Ti1 1.872658 1_555
O3 Ti3 1.872905 1_555
F0 Ni3 2.002233 1_545
F0 Ni0 2.002476 1_545
F1 Ni1 2.002262 1_556
F1 Ni2 2.002525 1_555
F2 Ni1 2.002407 1_455
F2 Ni2 2.002425 1_554
F3 Ni0 2.002424 1_555
F3 Ni3 2.002490 1_455
F4 Ti0 1.955558 1_465
F4 Ni2 2.047336 1_554
F5 Ti1 1.955547 1_555
F5 Ni0 2.047658 1_545
F6 Ti0 1.955382 1_565
F6 Ni1 2.047547 1_555
F7 Ti1 1.955363 1_655
F7 Ni3 2.048155 1_545
F8 Ti2 1.955778 1_455
F8 Ni0 2.047336 1_545
F9 Ti3 1.954962 1_555
F9 Ni2 2.046997 1_555
F10 Ti2 1.956126 1_455
F10 Ni1 2.047424 1_455
F11 Ti3 1.955299 1_555
F11 Ni3 2.047395 1_455
F12 Ti2 1.955304 1_555
F12 Ni3 2.047378 1_545
F13 Ti3 1.956124 1_655
F13 Ni1 2.047424 1_556
F14 Ti2 1.954967 1_555
F14 Ni2 2.047636 1_554
F15 Ti3 1.955775 1_655
F15 Ni0 2.047294 1_555
F16 Ti1 1.955399 1_555
F16 Ni3 2.047109 1_455
F17 Ti0 1.955371 1_456
F17 Ni1 2.047695 1_456
F18 Ti1 1.955554 1_655
F18 Ni0 2.046959 1_555
F19 Ti0 1.955536 1_556
F19 Ni2 2.047326 1_555
