# generated using pymatgen
data_Li4GeO4
_symmetry_space_group_name_H-M   'P 1'
_cell_length_a   5.31750646
_cell_length_b   5.31750646
_cell_length_c   6.02474053
_cell_angle_alpha   90.00000000
_cell_angle_beta   90.00000000
_cell_angle_gamma   93.63963419
_symmetry_Int_Tables_number   1
_chemical_formula_structural   Li4GeO4
_chemical_formula_sum   'Li8 Ge2 O8'
_cell_volume   170.01121328
_cell_formula_units_Z   2
loop_
 _symmetry_equiv_pos_site_id
 _symmetry_equiv_pos_as_xyz
  1  'x, y, z'
loop_
 _atom_site_type_symbol
 _atom_site_label
 _atom_site_symmetry_multiplicity
 _atom_site_fract_x
 _atom_site_fract_y
 _atom_site_fract_z
 _atom_site_occupancy
  Li  Li0  1  0.41878755  0.12442032  0.75000000  1
  Li  Li1  1  0.58121245  0.87557968  0.25000000  1
  Li  Li2  1  0.83937269  0.16062731  -0.00000000  1
  Li  Li3  1  0.16062731  0.83937269  0.50000000  1
  Li  Li4  1  0.16062731  0.83937269  -0.00000000  1
  Li  Li5  1  0.83937269  0.16062731  0.50000000  1
  Li  Li6  1  0.87557968  0.58121245  0.25000000  1
  Li  Li7  1  0.12442032  0.41878755  0.75000000  1
  Ge  Ge0  1  0.65941725  0.65941725  0.75000000  1
  Ge  Ge1  1  0.34058275  0.34058275  0.25000000  1
  O  O0  1  0.66009503  0.26851346  0.25000000  1
  O  O1  1  0.33990497  0.73148654  0.75000000  1
  O  O2  1  0.20437683  0.20437683  0.00545344  1
  O  O3  1  0.79562317  0.79562317  0.50545344  1
  O  O4  1  0.20437683  0.20437683  0.49454656  1
  O  O5  1  0.79562317  0.79562317  0.99454656  1
  O  O6  1  0.26851346  0.66009503  0.25000000  1
  O  O7  1  0.73148654  0.33990497  0.75000000  1
loop_
_geom_bond_atom_site_label_1
_geom_bond_atom_site_label_2
_geom_bond_distance
_geom_bond_site_symmetry_2
Li0 O7 1.958542 1_555
Li0 O2 1.977589 1_556
Li0 O4 1.977589 1_555
Li0 O1 2.104847 1_545
Li1 O6 1.958542 1_555
Li1 O5 1.977589 1_554
Li1 O3 1.977589 1_555
Li1 O0 2.104847 1_565
Li2 O7 1.891017 1_554
Li2 O0 1.891017 1_555
Li2 O2 1.940364 1_655
Li2 O5 1.940364 1_544
Li3 O6 1.891017 1_555
Li3 O1 1.891017 1_555
Li3 O3 1.940364 1_455
Li3 O4 1.940364 1_565
Li4 O6 1.891017 1_555
Li4 O1 1.891017 1_554
Li4 O5 1.940364 1_454
Li4 O2 1.940364 1_565
Li5 O7 1.891017 1_555
Li5 O0 1.891017 1_555
Li5 O3 1.940364 1_545
Li5 O4 1.940364 1_655
Li6 O0 1.958542 1_555
Li6 O3 1.977589 1_555
Li6 O5 1.977589 1_554
Li6 O6 2.104847 1_655
Li7 O1 1.958542 1_555
Li7 O2 1.977589 1_556
Li7 O4 1.977589 1_555
Li7 O7 2.104847 1_455
Ge0 O7 1.765265 1_555
Ge0 O1 1.765265 1_555
Ge0 O3 1.775739 1_555
Ge0 O5 1.775739 1_555
Ge1 O0 1.765265 1_555
Ge1 O6 1.765265 1_555
Ge1 O2 1.775739 1_555
Ge1 O4 1.775739 1_555
