# generated using pymatgen
data_Sr6(RhO3)5
_symmetry_space_group_name_H-M   'P 1'
_cell_length_a   7.07864129
_cell_length_b   7.07864129
_cell_length_c   7.07864165
_cell_angle_alpha   86.38834472
_cell_angle_beta   86.38834472
_cell_angle_gamma   86.38835405
_symmetry_Int_Tables_number   1
_chemical_formula_structural   Sr6(RhO3)5
_chemical_formula_sum   'Sr6 Rh5 O15'
_cell_volume   352.66229525
_cell_formula_units_Z   1
loop_
 _symmetry_equiv_pos_site_id
 _symmetry_equiv_pos_as_xyz
  1  'x, y, z'
loop_
 _atom_site_type_symbol
 _atom_site_label
 _atom_site_symmetry_multiplicity
 _atom_site_fract_x
 _atom_site_fract_y
 _atom_site_fract_z
 _atom_site_occupancy
  Sr  Sr0  1  0.31986423  0.68013577  0.00000000  1
  Sr  Sr1  1  0.68013577  0.00000000  0.31986423  1
  Sr  Sr2  1  -0.00000000  0.31986423  0.68013577  1
  Sr  Sr3  1  0.14540408  0.85459592  0.50000000  1
  Sr  Sr4  1  0.85459592  0.50000000  0.14540408  1
  Sr  Sr5  1  0.50000000  0.14540408  0.85459592  1
  Rh  Rh0  1  0.90448013  0.90448013  0.90448013  1
  Rh  Rh1  1  0.09551987  0.09551987  0.09551987  1
  Rh  Rh2  1  0.70958668  0.70958668  0.70958668  1
  Rh  Rh3  1  0.29041332  0.29041332  0.29041332  1
  Rh  Rh4  1  0.50000000  0.50000000  0.50000000  1
  O  O0  1  0.26396652  0.56256107  0.34766022  1
  O  O1  1  0.34766022  0.26396652  0.56256107  1
  O  O2  1  0.56256107  0.34766022  0.26396652  1
  O  O3  1  0.73603348  0.65233978  0.43743893  1
  O  O4  1  0.43743893  0.73603348  0.65233978  1
  O  O5  1  0.65233978  0.43743893  0.73603348  1
  O  O6  1  0.00000000  0.83462558  0.16537442  1
  O  O7  1  0.16537442  -0.00000000  0.83462558  1
  O  O8  1  0.83462558  0.16537442  0.00000000  1
  O  O9  1  0.34686248  0.01531695  0.20714421  1
  O  O10  1  0.20714421  0.34686248  0.01531695  1
  O  O11  1  0.79285579  0.98468305  0.65313752  1
  O  O12  1  0.98468305  0.65313752  0.79285579  1
  O  O13  1  0.65313752  0.79285579  0.98468305  1
  O  O14  1  0.01531695  0.20714421  0.34686248  1
loop_
_geom_bond_atom_site_label_1
_geom_bond_atom_site_label_2
_geom_bond_distance
_geom_bond_site_symmetry_2
O0 Rh3 1.988410 1_555
O0 Rh4 2.055272 1_555
O0 Sr3 2.467554 1_555
O0 Sr0 2.562486 1_555
O1 Rh3 1.988410 1_555
O1 Rh4 2.055271 1_555
O1 Sr5 2.467554 1_555
O1 Sr2 2.562486 1_555
O2 Rh3 1.988410 1_555
O2 Rh4 2.055272 1_555
O2 Sr4 2.467554 1_555
O2 Sr1 2.562486 1_555
O3 Rh2 1.988410 1_555
O3 Rh4 2.055271 1_555
O3 Sr4 2.467554 1_555
O3 Sr1 2.562486 1_565
O4 Rh2 1.988410 1_555
O4 Rh4 2.055272 1_555
O4 Sr3 2.467554 1_555
O4 Sr0 2.562486 1_556
O5 Rh2 1.988410 1_555
O5 Rh4 2.055272 1_555
O5 Sr5 2.467554 1_555
O5 Sr2 2.562486 1_655
O6 Rh1 2.027910 1_565
O6 Rh0 2.027910 1_454
O6 Sr4 2.656643 1_455
O6 Sr3 2.656644 1_555
O6 Sr0 2.684827 1_555
O6 Sr1 2.684827 1_465
O7 Rh0 2.027910 1_445
O7 Rh1 2.027910 1_556
O7 Sr5 2.656643 1_555
O7 Sr3 2.656644 1_545
O7 Sr0 2.684827 1_546
O7 Sr2 2.684827 1_555
O8 Rh0 2.027910 1_544
O8 Rh1 2.027910 1_655
O8 Sr4 2.656644 1_555
O8 Sr5 2.656644 1_554
O8 Sr2 2.684827 1_654
O8 Sr1 2.684827 1_555
O9 Rh1 2.026182 1_555
O9 Rh3 2.077501 1_555
O9 Sr1 2.531381 1_555
O9 Sr3 2.675853 1_545
O9 Sr5 2.783212 1_554
O9 Sr0 2.889058 1_545
O10 Rh1 2.026182 1_555
O10 Rh3 2.077501 1_555
O10 Sr0 2.531381 1_555
O10 Sr5 2.675853 1_554
O10 Sr4 2.783212 1_455
O10 Sr2 2.889058 1_554
O11 Rh0 2.026182 1_555
O11 Rh2 2.077501 1_555
O11 Sr1 2.531382 1_565
O11 Sr5 2.675853 1_565
O11 Sr3 2.783212 1_655
O11 Sr2 2.889058 1_665
O12 Rh0 2.026182 1_555
O12 Rh2 2.077501 1_555
O12 Sr2 2.531381 1_655
O12 Sr3 2.675853 1_655
O12 Sr4 2.783212 1_556
O12 Sr0 2.889058 1_656
O13 Rh0 2.026182 1_555
O13 Rh2 2.077501 1_555
O13 Sr0 2.531381 1_556
O13 Sr4 2.675853 1_556
O13 Sr5 2.783212 1_565
O13 Sr1 2.889058 1_566
O14 Rh1 2.026182 1_555
O14 Rh3 2.077501 1_555
O14 Sr2 2.531382 1_555
O14 Sr4 2.675853 1_455
O14 Sr3 2.783212 1_545
O14 Sr1 2.889058 1_455
