# generated using pymatgen
data_Nd3Co13B2
_symmetry_space_group_name_H-M   'P 1'
_cell_length_a   5.07253733
_cell_length_b   5.07253733
_cell_length_c   10.77609800
_cell_angle_alpha   90.00000000
_cell_angle_beta   90.00000000
_cell_angle_gamma   119.99999131
_symmetry_Int_Tables_number   1
_chemical_formula_structural   Nd3Co13B2
_chemical_formula_sum   'Nd3 Co13 B2'
_cell_volume   240.12794610
_cell_formula_units_Z   1
loop_
 _symmetry_equiv_pos_site_id
 _symmetry_equiv_pos_as_xyz
  1  'x, y, z'
loop_
 _atom_site_type_symbol
 _atom_site_label
 _atom_site_symmetry_multiplicity
 _atom_site_fract_x
 _atom_site_fract_y
 _atom_site_fract_z
 _atom_site_occupancy
  Nd  Nd0  1  0.00000000  0.00000000  0.67722500  1
  Nd  Nd1  1  0.00000000  0.00000000  0.32277500  1
  Nd  Nd2  1  0.00000000  0.00000000  0.00000000  1
  Co  Co0  1  0.00000000  0.50000000  0.86548500  1
  Co  Co1  1  0.50000000  0.00000000  0.50000000  1
  Co  Co2  1  0.50000000  0.50000000  0.50000000  1
  Co  Co3  1  0.00000000  0.50000000  0.50000000  1
  Co  Co4  1  0.33333300  0.66666700  0.31819300  1
  Co  Co5  1  0.66666700  0.33333300  0.31819300  1
  Co  Co6  1  0.66666700  0.33333300  0.68180700  1
  Co  Co7  1  0.33333300  0.66666700  0.68180700  1
  Co  Co8  1  0.50000000  0.00000000  0.13451500  1
  Co  Co9  1  0.50000000  0.50000000  0.13451500  1
  Co  Co10  1  0.00000000  0.50000000  0.13451500  1
  Co  Co11  1  0.50000000  0.00000000  0.86548500  1
  Co  Co12  1  0.50000000  0.50000000  0.86548500  1
  B  B0  1  0.66666700  0.33333300  0.00000000  1
  B  B1  1  0.33333300  0.66666700  0.00000000  1
loop_
_geom_bond_atom_site_label_1
_geom_bond_atom_site_label_2
_geom_bond_distance
_geom_bond_site_symmetry_2
Co0 Co6 2.462107 1_455
Co0 Co7 2.462107 1_555
Co0 Nd2 2.921275 1_556
Co0 Nd2 2.921275 1_566
Co0 Nd0 3.247817 1_555
Co0 Nd0 3.247817 1_565
Co1 Co6 2.445928 1_555
Co1 Co7 2.445928 1_545
Co1 Co5 2.445928 1_555
Co1 Co4 2.445928 1_545
Co1 Co2 2.536269 1_555
Co1 Co2 2.536269 1_545
Co1 Co3 2.536269 1_655
Co1 Co3 2.536269 1_545
Co1 Nd0 3.174897 1_655
Co1 Nd0 3.174897 1_555
Co1 Nd1 3.174897 1_655
Co1 Nd1 3.174897 1_555
Co2 Co7 2.445930 1_555
Co2 Co6 2.445930 1_555
Co2 Co5 2.445930 1_555
Co2 Co4 2.445930 1_555
Co2 Co3 2.536269 1_655
Co2 Co3 2.536269 1_555
Co2 Nd1 3.174897 1_665
Co2 Nd0 3.174897 1_555
Co2 Nd1 3.174897 1_555
Co2 Nd0 3.174897 1_665
Co3 Co6 2.445928 1_455
Co3 Co7 2.445928 1_555
Co3 Co5 2.445928 1_455
Co3 Co4 2.445928 1_555
Co3 Nd1 3.174897 1_565
Co3 Nd0 3.174897 1_555
Co3 Nd1 3.174897 1_555
Co3 Nd0 3.174897 1_565
Co4 Co8 2.462107 1_565
Co4 Co9 2.462110 1_555
Co4 Nd1 2.929044 1_565
Co4 Nd1 2.929049 1_665
Co4 Nd1 2.929049 1_555
Co5 Co8 2.462107 1_555
Co5 Co9 2.462110 1_555
Co5 Nd1 2.929044 1_655
Co5 Nd1 2.929049 1_665
Co5 Nd1 2.929049 1_555
Co6 Nd0 2.929044 1_655
Co6 Nd0 2.929049 1_665
Co6 Nd0 2.929049 1_555
Co7 Nd0 2.929044 1_565
Co7 Nd0 2.929049 1_665
Co7 Nd0 2.929049 1_555
Co8 Nd2 2.921275 1_555
Co8 Nd2 2.921275 1_655
Co8 Nd1 3.247817 1_655
Co8 Nd1 3.247817 1_555
Co9 Nd2 2.921275 1_665
Co9 Nd2 2.921275 1_555
Co9 Nd1 3.247817 1_555
Co9 Nd1 3.247817 1_665
Co10 Co5 2.462107 1_455
Co10 Co4 2.462107 1_555
Co10 Nd2 2.921275 1_555
Co10 Nd2 2.921275 1_565
Co10 Nd1 3.247817 1_565
Co10 Nd1 3.247817 1_555
Co11 Co6 2.462107 1_555
Co11 Co7 2.462107 1_545
Co11 Nd2 2.921275 1_556
Co11 Nd2 2.921275 1_656
Co11 Nd0 3.247817 1_555
Co11 Nd0 3.247817 1_655
Co12 Co6 2.462110 1_555
Co12 Co7 2.462110 1_555
Co12 Nd2 2.921275 1_556
Co12 Nd2 2.921275 1_666
Co12 Nd0 3.247817 1_665
Co12 Nd0 3.247817 1_555
B0 Co10 2.060437 1_655
B0 Co11 2.060437 1_554
B0 Co0 2.060437 1_654
B0 Co8 2.060437 1_555
B0 Co9 2.060440 1_555
B0 Co12 2.060440 1_554
B0 Nd2 2.928628 1_655
B0 Nd2 2.928633 1_555
B0 Nd2 2.928633 1_665
B1 Co10 2.060437 1_555
B1 Co11 2.060437 1_564
B1 Co0 2.060437 1_554
B1 Co8 2.060437 1_565
B1 Co9 2.060440 1_555
B1 Co12 2.060440 1_554
B1 Nd2 2.928628 1_565
B1 Nd2 2.928633 1_555
B1 Nd2 2.928633 1_665
