# generated using pymatgen
data_Ca2Nb2O7
_symmetry_space_group_name_H-M   'P 1'
_cell_length_a   7.48360946
_cell_length_b   7.48360946
_cell_length_c   7.48360946
_cell_angle_alpha   60.00000000
_cell_angle_beta   60.00000000
_cell_angle_gamma   60.00000000
_symmetry_Int_Tables_number   1
_chemical_formula_structural   Ca2Nb2O7
_chemical_formula_sum   'Ca4 Nb4 O14'
_cell_volume   296.35915570
_cell_formula_units_Z   2
loop_
 _symmetry_equiv_pos_site_id
 _symmetry_equiv_pos_as_xyz
  1  'x, y, z'
loop_
 _atom_site_type_symbol
 _atom_site_label
 _atom_site_symmetry_multiplicity
 _atom_site_fract_x
 _atom_site_fract_y
 _atom_site_fract_z
 _atom_site_occupancy
  Ca  Ca0  1  0.12500000  0.62500000  0.12500000  1
  Ca  Ca1  1  0.12500000  0.12500000  0.62500000  1
  Ca  Ca2  1  0.62500000  0.12500000  0.12500000  1
  Ca  Ca3  1  0.12500000  0.12500000  0.12500000  1
  Nb  Nb0  1  0.62500000  0.12500000  0.62500000  1
  Nb  Nb1  1  0.62500000  0.62500000  0.12500000  1
  Nb  Nb2  1  0.12500000  0.62500000  0.62500000  1
  Nb  Nb3  1  0.62500000  0.62500000  0.62500000  1
  O  O0  1  0.00000000  0.00000000  0.00000000  1
  O  O1  1  0.25000000  0.25000000  0.25000000  1
  O  O2  1  0.30740400  0.30740400  0.69259600  1
  O  O3  1  0.55740400  0.55740400  0.94259600  1
  O  O4  1  0.69259600  0.30740400  0.69259600  1
  O  O5  1  0.69259600  0.30740400  0.30740400  1
  O  O6  1  0.30740400  0.69259600  0.69259600  1
  O  O7  1  0.30740400  0.69259600  0.30740400  1
  O  O8  1  0.69259600  0.69259600  0.30740400  1
  O  O9  1  0.94259600  0.55740400  0.55740400  1
  O  O10  1  0.55740400  0.94259600  0.94259600  1
  O  O11  1  0.94259600  0.94259600  0.55740400  1
  O  O12  1  0.94259600  0.55740400  0.94259600  1
  O  O13  1  0.55740400  0.94259600  0.55740400  1
loop_
_geom_bond_atom_site_label_1
_geom_bond_atom_site_label_2
_geom_bond_distance
_geom_bond_site_symmetry_2
Ca0 O1 2.291378 1_555
Ca0 O0 2.291378 1_565
Ca0 O6 2.688298 1_554
Ca0 O3 2.688298 1_554
Ca0 O7 2.688298 1_555
Ca0 O8 2.688298 1_455
Ca0 O12 2.688298 1_454
Ca0 O9 2.688298 1_455
Ca1 O1 2.291378 1_555
Ca1 O0 2.291378 1_556
Ca1 O4 2.688298 1_455
Ca1 O13 2.688298 1_545
Ca1 O6 2.688298 1_545
Ca1 O9 2.688298 1_455
Ca1 O2 2.688298 1_555
Ca1 O11 2.688298 1_445
Ca2 O0 2.291378 1_655
Ca2 O1 2.291378 1_555
Ca2 O3 2.688298 1_554
Ca2 O8 2.688298 1_545
Ca2 O4 2.688298 1_554
Ca2 O13 2.688298 1_545
Ca2 O10 2.688298 1_544
Ca2 O5 2.688298 1_555
Ca3 O1 2.291378 1_555
Ca3 O0 2.291378 1_555
Ca3 O5 2.688298 1_455
Ca3 O2 2.688298 1_554
Ca3 O12 2.688298 1_454
Ca3 O10 2.688298 1_544
Ca3 O11 2.688298 1_445
Ca3 O7 2.688298 1_545
Nb0 O2 2.003015 1_555
Nb0 O11 2.003015 1_545
Nb0 O4 2.003015 1_555
Nb0 O13 2.003015 1_545
Nb0 O10 2.003015 1_545
Nb0 O5 2.003015 1_555
Nb1 O12 2.003015 1_554
Nb1 O3 2.003015 1_554
Nb1 O7 2.003015 1_555
Nb1 O8 2.003015 1_555
Nb1 O10 2.003015 1_554
Nb1 O5 2.003015 1_555
Nb2 O2 2.003015 1_555
Nb2 O7 2.003015 1_555
Nb2 O11 2.003015 1_455
Nb2 O12 2.003015 1_455
Nb2 O9 2.003015 1_455
Nb2 O6 2.003015 1_555
Nb3 O3 2.003015 1_555
Nb3 O13 2.003015 1_555
Nb3 O4 2.003015 1_555
Nb3 O8 2.003015 1_555
Nb3 O9 2.003015 1_555
Nb3 O6 2.003015 1_555
