# generated using pymatgen
data_CaLaMnFeO6
_symmetry_space_group_name_H-M   'P 1'
_cell_length_a   5.47599100
_cell_length_b   5.51825400
_cell_length_c   9.46838822
_cell_angle_alpha   54.59061608
_cell_angle_beta   90.00000000
_cell_angle_gamma   90.00000000
_symmetry_Int_Tables_number   1
_chemical_formula_structural   CaLaMnFeO6
_chemical_formula_sum   'Ca2 La2 Mn2 Fe2 O12'
_cell_volume   233.19305606
_cell_formula_units_Z   2
loop_
 _symmetry_equiv_pos_site_id
 _symmetry_equiv_pos_as_xyz
  1  'x, y, z'
loop_
 _atom_site_type_symbol
 _atom_site_label
 _atom_site_symmetry_multiplicity
 _atom_site_fract_x
 _atom_site_fract_y
 _atom_site_fract_z
 _atom_site_occupancy
  Ca  Ca0  1  0.73902900  0.73762400  0.75060700  1
  Ca  Ca1  1  0.26097100  0.73762400  0.25060700  1
  La  La0  1  0.24205200  0.25709200  0.74960800  1
  La  La1  1  0.75794800  0.25709200  0.24960800  1
  Mn  Mn0  1  0.74998500  0.49966600  0.50046400  1
  Mn  Mn1  1  0.25001500  0.49966600  0.00046400  1
  Fe  Fe0  1  0.75009600  0.00032500  0.99941700  1
  Fe  Fe1  1  0.24990400  0.00032500  0.49941700  1
  O  O0  1  0.25491100  0.82080500  0.75437500  1
  O  O1  1  0.99201200  0.31016800  0.95654300  1
  O  O2  1  0.98485900  0.71320700  0.54399800  1
  O  O3  1  0.00798800  0.31016800  0.45654300  1
  O  O4  1  0.01514100  0.71320700  0.04399800  1
  O  O5  1  0.74508900  0.82080500  0.25437500  1
  O  O6  1  0.75396400  0.17162900  0.74538100  1
  O  O7  1  0.49694300  0.69697700  0.54275600  1
  O  O8  1  0.49072000  0.29250500  0.95685200  1
  O  O9  1  0.50928000  0.29250500  0.45685200  1
  O  O10  1  0.50305700  0.69697700  0.04275600  1
  O  O11  1  0.24603600  0.17162900  0.24538100  1
loop_
_geom_bond_atom_site_label_1
_geom_bond_atom_site_label_2
_geom_bond_distance
_geom_bond_site_symmetry_2
Ca0 O6 2.368036 1_565
Ca0 O1 2.440338 1_555
Ca0 O2 2.441862 1_555
Ca0 O8 2.477330 1_555
Ca0 O7 2.488434 1_555
Ca1 O11 2.368036 1_565
Ca1 O3 2.440338 1_555
Ca1 O4 2.441862 1_555
Ca1 O9 2.477330 1_555
Ca1 O10 2.488434 1_555
La0 O0 2.382715 1_545
La0 O7 2.483365 1_555
La0 O8 2.487425 1_555
La0 O2 2.535819 1_455
La0 O1 2.542551 1_455
La0 O6 2.718375 1_455
La0 O6 2.846746 1_555
La0 O3 2.913182 1_555
La0 O4 2.937139 1_546
La0 O9 3.038982 1_555
La0 O10 3.059189 1_546
La0 O0 3.137870 1_555
La1 O5 2.382715 1_545
La1 O10 2.483365 1_555
La1 O9 2.487425 1_555
La1 O4 2.535819 1_655
La1 O3 2.542551 1_655
La1 O11 2.718375 1_655
La1 O11 2.846746 1_555
La1 O1 2.913182 1_554
La1 O2 2.937139 1_545
La1 O8 3.038982 1_554
La1 O7 3.059189 1_545
La1 O5 3.137870 1_555
Mn0 O9 1.939526 1_555
Mn0 O3 1.940728 1_655
Mn0 O7 1.941946 1_555
Mn0 O2 1.943082 1_555
Mn0 O5 1.945599 1_555
Mn0 O6 1.946889 1_555
Mn1 O8 1.939526 1_554
Mn1 O1 1.940728 1_454
Mn1 O10 1.941946 1_555
Mn1 O4 1.943082 1_555
Mn1 O0 1.945599 1_554
Mn1 O11 1.946889 1_555
Fe0 O10 2.001129 1_546
Fe0 O4 2.004987 1_646
Fe0 O8 2.006582 1_555
Fe0 O5 2.009587 1_546
Fe0 O1 2.009668 1_555
Fe0 O6 2.011141 1_555
Fe1 O7 2.001129 1_545
Fe1 O2 2.004987 1_445
Fe1 O9 2.006582 1_555
Fe1 O0 2.009587 1_545
Fe1 O3 2.009668 1_555
Fe1 O11 2.011141 1_555
