# generated using pymatgen
data_Tb2Ti2O7
_symmetry_space_group_name_H-M   'P 1'
_cell_length_a   7.15842042
_cell_length_b   7.15842042
_cell_length_c   7.15842042
_cell_angle_alpha   60.00000000
_cell_angle_beta   60.00000000
_cell_angle_gamma   60.00000000
_symmetry_Int_Tables_number   1
_chemical_formula_structural   Tb2Ti2O7
_chemical_formula_sum   'Tb4 Ti4 O14'
_cell_volume   259.38007148
_cell_formula_units_Z   2
loop_
 _symmetry_equiv_pos_site_id
 _symmetry_equiv_pos_as_xyz
  1  'x, y, z'
loop_
 _atom_site_type_symbol
 _atom_site_label
 _atom_site_symmetry_multiplicity
 _atom_site_fract_x
 _atom_site_fract_y
 _atom_site_fract_z
 _atom_site_occupancy
  Tb  Tb0  1  0.12500000  0.12500000  0.12500000  1
  Tb  Tb1  1  0.62500000  0.12500000  0.12500000  1
  Tb  Tb2  1  0.12500000  0.12500000  0.62500000  1
  Tb  Tb3  1  0.12500000  0.62500000  0.12500000  1
  Ti  Ti0  1  0.62500000  0.62500000  0.62500000  1
  Ti  Ti1  1  0.12500000  0.62500000  0.62500000  1
  Ti  Ti2  1  0.62500000  0.62500000  0.12500000  1
  Ti  Ti3  1  0.62500000  0.12500000  0.62500000  1
  O  O0  1  -0.00000000  -0.00000000  0.00000000  1
  O  O1  1  0.25000000  0.25000000  0.25000000  1
  O  O2  1  0.29548852  0.29548852  0.70451148  1
  O  O3  1  0.54548852  0.54548852  0.95451148  1
  O  O4  1  0.70451148  0.29548852  0.70451148  1
  O  O5  1  0.70451148  0.29548852  0.29548852  1
  O  O6  1  0.29548852  0.70451148  0.70451148  1
  O  O7  1  0.29548852  0.70451148  0.29548852  1
  O  O8  1  0.70451148  0.70451148  0.29548852  1
  O  O9  1  0.95451148  0.54548852  0.54548852  1
  O  O10  1  0.54548852  0.95451148  0.95451148  1
  O  O11  1  0.95451148  0.95451148  0.54548852  1
  O  O12  1  0.95451148  0.54548852  0.95451148  1
  O  O13  1  0.54548852  0.95451148  0.54548852  1
loop_
_geom_bond_atom_site_label_1
_geom_bond_atom_site_label_2
_geom_bond_distance
_geom_bond_site_symmetry_2
O0 Tb1 2.191810 1_455
O0 Tb3 2.191810 1_545
O0 Tb0 2.191810 1_555
O0 Tb2 2.191810 1_554
O1 Tb1 2.191810 1_555
O1 Tb3 2.191810 1_555
O1 Tb2 2.191810 1_555
O1 Tb0 2.191810 1_555
O2 Ti1 1.962297 1_555
O2 Ti3 1.962297 1_555
O2 Tb2 2.486278 1_555
O2 Tb0 2.486278 1_556
O3 Ti2 1.962297 1_556
O3 Ti0 1.962297 1_555
O3 Tb1 2.486278 1_556
O3 Tb3 2.486278 1_556
O4 Ti3 1.962297 1_555
O4 Ti0 1.962297 1_555
O4 Tb2 2.486278 1_655
O4 Tb1 2.486278 1_556
O5 Ti2 1.962297 1_555
O5 Ti3 1.962297 1_555
O5 Tb1 2.486278 1_555
O5 Tb0 2.486278 1_655
O6 Ti1 1.962297 1_555
O6 Ti0 1.962297 1_555
O6 Tb3 2.486278 1_556
O6 Tb2 2.486278 1_565
O7 Ti1 1.962297 1_555
O7 Ti2 1.962297 1_555
O7 Tb3 2.486278 1_555
O7 Tb0 2.486278 1_565
O8 Ti2 1.962297 1_555
O8 Ti0 1.962297 1_555
O8 Tb1 2.486278 1_565
O8 Tb3 2.486278 1_655
O9 Ti0 1.962297 1_555
O9 Ti1 1.962297 1_655
O9 Tb3 2.486278 1_655
O9 Tb2 2.486278 1_655
O10 Ti2 1.962297 1_556
O10 Ti3 1.962297 1_565
O10 Tb1 2.486278 1_566
O10 Tb0 2.486278 1_566
O11 Ti3 1.962297 1_565
O11 Ti1 1.962297 1_655
O11 Tb2 2.486278 1_665
O11 Tb0 2.486278 1_665
O12 Ti2 1.962297 1_556
O12 Ti1 1.962297 1_655
O12 Tb0 2.486278 1_656
O12 Tb3 2.486278 1_656
O13 Ti0 1.962297 1_555
O13 Ti3 1.962297 1_565
O13 Tb1 2.486278 1_565
O13 Tb2 2.486278 1_565
