# generated using pymatgen
data_Nd(GeRh)2
_symmetry_space_group_name_H-M   'P 1'
_cell_length_a   4.15794630
_cell_length_b   4.15794739
_cell_length_c   5.99909205
_cell_angle_alpha   110.27631937
_cell_angle_beta   110.27631843
_cell_angle_gamma   89.99999955
_symmetry_Int_Tables_number   1
_chemical_formula_structural   Nd(GeRh)2
_chemical_formula_sum   'Nd1 Ge2 Rh2'
_cell_volume   90.40565717
_cell_formula_units_Z   1
loop_
 _symmetry_equiv_pos_site_id
 _symmetry_equiv_pos_as_xyz
  1  'x, y, z'
loop_
 _atom_site_type_symbol
 _atom_site_label
 _atom_site_symmetry_multiplicity
 _atom_site_fract_x
 _atom_site_fract_y
 _atom_site_fract_z
 _atom_site_occupancy
  Nd  Nd0  1  0.00000000  0.00000000  0.00000000  1
  Ge  Ge0  1  0.62483812  0.62483812  0.24967523  1
  Ge  Ge1  1  0.37516188  0.37516188  0.75032477  1
  Rh  Rh0  1  0.25000000  0.75000000  0.50000000  1
  Rh  Rh1  1  0.75000000  0.25000000  0.50000000  1
loop_
_geom_bond_atom_site_label_1
_geom_bond_atom_site_label_2
_geom_bond_distance
_geom_bond_site_symmetry_2
Nd0 Rh1 3.340410 1_555
Nd0 Rh0 3.340410 1_444
Nd0 Rh0 3.340410 1_544
Nd0 Rh1 3.340410 1_455
Nd0 Rh1 3.340410 1_454
Nd0 Rh0 3.340410 1_545
Nd0 Rh1 3.340411 1_444
Nd0 Rh0 3.340411 1_555
Ge0 Rh0 2.456749 1_655
Ge0 Rh1 2.456750 1_565
Ge0 Rh0 2.456753 1_555
Ge0 Rh1 2.456753 1_555
Ge0 Ge1 2.611218 1_554
Ge0 Nd0 3.216964 1_665
Ge0 Nd0 3.216967 1_565
Ge0 Nd0 3.216967 1_655
Ge0 Nd0 3.216970 1_555
Ge1 Rh1 2.456749 1_455
Ge1 Rh0 2.456750 1_545
Ge1 Rh1 2.456753 1_555
Ge1 Rh0 2.456753 1_555
Ge1 Nd0 3.216964 1_556
Ge1 Nd0 3.216967 1_656
Ge1 Nd0 3.216967 1_566
Ge1 Nd0 3.216970 1_666
