# generated using pymatgen
data_UPS
_symmetry_space_group_name_H-M   'P 1'
_cell_length_a   3.80280742
_cell_length_b   3.80280742
_cell_length_c   8.27490444
_cell_angle_alpha   90.00000000
_cell_angle_beta   90.00000000
_cell_angle_gamma   90.00000000
_symmetry_Int_Tables_number   1
_chemical_formula_structural   UPS
_chemical_formula_sum   'U2 P2 S2'
_cell_volume   119.66624194
_cell_formula_units_Z   2
loop_
 _symmetry_equiv_pos_site_id
 _symmetry_equiv_pos_as_xyz
  1  'x, y, z'
loop_
 _atom_site_type_symbol
 _atom_site_label
 _atom_site_symmetry_multiplicity
 _atom_site_fract_x
 _atom_site_fract_y
 _atom_site_fract_z
 _atom_site_occupancy
  U  U0  1  0.00000000  0.50000000  0.26963345  1
  U  U1  1  0.50000000  0.00000000  0.73036655  1
  P  P0  1  -0.00000000  0.00000000  -0.00000000  1
  P  P1  1  0.50000000  0.50000000  -0.00000000  1
  S  S0  1  0.50000000  0.00000000  0.37004128  1
  S  S1  1  -0.00000000  0.50000000  0.62995872  1
loop_
_geom_bond_atom_site_label_1
_geom_bond_atom_site_label_2
_geom_bond_distance
_geom_bond_site_symmetry_2
P0 P1 2.688991 1_445
P0 P1 2.688991 1_545
P0 P1 2.688991 1_555
P0 P1 2.688991 1_455
P0 U1 2.931476 1_554
P0 U1 2.931476 1_454
P0 U0 2.931476 1_545
P0 U0 2.931476 1_555
P1 U1 2.931476 1_554
P1 U1 2.931476 1_564
P1 U0 2.931476 1_555
P1 U0 2.931476 1_655
S0 U0 2.814429 1_545
S0 U0 2.814429 1_645
S0 U0 2.814429 1_655
S0 U0 2.814429 1_555
S0 U1 2.981657 1_555
S1 U1 2.814429 1_555
S1 U1 2.814429 1_455
S1 U1 2.814429 1_565
S1 U1 2.814429 1_465
S1 U0 2.981657 1_555
