# generated using pymatgen
data_Ag5SbS4
_symmetry_space_group_name_H-M   'P 1'
_cell_length_a   7.37412382
_cell_length_b   7.37412382
_cell_length_c   9.12207900
_cell_angle_alpha   90.00000000
_cell_angle_beta   90.00000000
_cell_angle_gamma   116.27542886
_symmetry_Int_Tables_number   1
_chemical_formula_structural   Ag5SbS4
_chemical_formula_sum   'Ag10 Sb2 S8'
_cell_volume   444.78527304
_cell_formula_units_Z   2
loop_
 _symmetry_equiv_pos_site_id
 _symmetry_equiv_pos_as_xyz
  1  'x, y, z'
loop_
 _atom_site_type_symbol
 _atom_site_label
 _atom_site_symmetry_multiplicity
 _atom_site_fract_x
 _atom_site_fract_y
 _atom_site_fract_z
 _atom_site_occupancy
  Ag  Ag0  1  0.26083600  0.13183300  0.82021200  1
  Ag  Ag1  1  0.80483500  0.57108600  0.50884300  1
  Ag  Ag2  1  0.57108600  0.80483500  0.00884300  1
  Ag  Ag3  1  0.42891400  0.19516500  0.50884300  1
  Ag  Ag4  1  0.86816700  0.73916400  0.82021200  1
  Ag  Ag5  1  0.13183300  0.26083600  0.32021200  1
  Ag  Ag6  1  0.86272300  0.13727700  0.67796600  1
  Ag  Ag7  1  0.13727700  0.86272300  0.17796600  1
  Ag  Ag8  1  0.19516500  0.42891400  0.00884300  1
  Ag  Ag9  1  0.73916400  0.86816700  0.32021200  1
  Sb  Sb0  1  0.32498700  0.67501300  0.61746100  1
  Sb  Sb1  1  0.67501300  0.32498700  0.11746100  1
  S  S0  1  0.50422000  0.96558800  0.78217600  1
  S  S1  1  0.49578000  0.03441200  0.28217600  1
  S  S2  1  0.51760400  0.48239600  0.69712200  1
  S  S3  1  0.48239600  0.51760400  0.19712200  1
  S  S4  1  0.01829500  0.98170500  0.51048800  1
  S  S5  1  0.98170500  0.01829500  0.01048800  1
  S  S6  1  0.03441200  0.49578000  0.78217600  1
  S  S7  1  0.96558800  0.50422000  0.28217600  1
loop_
_geom_bond_atom_site_label_1
_geom_bond_atom_site_label_2
_geom_bond_distance
_geom_bond_site_symmetry_2
Ag0 S5 2.534693 1_456
Ag0 S0 2.606213 1_545
Ag0 S2 2.682338 1_555
Ag1 S7 2.537934 1_555
Ag1 S2 2.576298 1_555
Ag1 S4 2.725172 1_655
Ag2 S0 2.537934 1_554
Ag2 S3 2.576298 1_555
Ag2 S5 2.725172 1_565
Ag3 S1 2.537934 1_555
Ag3 S2 2.576298 1_555
Ag3 S4 2.725172 1_545
Ag4 S5 2.534693 1_566
Ag4 S6 2.606213 1_655
Ag4 S2 2.682338 1_555
Ag5 S4 2.534693 1_545
Ag5 S7 2.606213 1_455
Ag5 S3 2.682338 1_555
Ag6 S4 2.476168 1_645
Ag6 S0 2.555792 1_545
Ag6 S6 2.555792 1_655
Ag7 S5 2.476168 1_465
Ag7 S7 2.555792 1_455
Ag7 S1 2.555792 1_565
Ag8 S6 2.537934 1_554
Ag8 S3 2.576298 1_555
Ag8 S5 2.725172 1_455
Ag9 S4 2.534693 1_655
Ag9 S1 2.606213 1_565
Ag9 S3 2.682338 1_555
S0 Sb0 2.467470 1_555
S1 Sb1 2.467470 1_555
S2 Sb0 2.519772 1_555
S3 Sb1 2.519772 1_555
S6 Sb0 2.467470 1_555
S7 Sb1 2.467470 1_555
