# generated using pymatgen
data_Na6Sn2S7
_symmetry_space_group_name_H-M   'P 1'
_cell_length_a   7.13473263
_cell_length_b   7.13473263
_cell_length_c   15.15429896
_cell_angle_alpha   79.85856480
_cell_angle_beta   79.85856480
_cell_angle_gamma   97.29782477
_symmetry_Int_Tables_number   1
_chemical_formula_structural   Na6Sn2S7
_chemical_formula_sum   'Na12 Sn4 S14'
_cell_volume   737.49595191
_cell_formula_units_Z   2
loop_
 _symmetry_equiv_pos_site_id
 _symmetry_equiv_pos_as_xyz
  1  'x, y, z'
loop_
 _atom_site_type_symbol
 _atom_site_label
 _atom_site_symmetry_multiplicity
 _atom_site_fract_x
 _atom_site_fract_y
 _atom_site_fract_z
 _atom_site_occupancy
  Na  Na0  1  0.95398761  0.24109728  0.42644314  1
  Na  Na1  1  0.75890272  0.04601239  0.07355686  1
  Na  Na2  1  0.04601239  0.75890272  0.57355686  1
  Na  Na3  1  0.24109728  0.95398761  0.92644314  1
  Na  Na4  1  0.49939112  0.95859723  0.63641100  1
  Na  Na5  1  0.04140277  0.50060888  0.86358900  1
  Na  Na6  1  0.43171512  0.56828488  0.25000000  1
  Na  Na7  1  0.56828488  0.43171512  0.75000000  1
  Na  Na8  1  0.50000000  0.50000000  -0.00000000  1
  Na  Na9  1  0.50000000  0.50000000  0.50000000  1
  Na  Na10  1  0.50060888  0.04140277  0.36358900  1
  Na  Na11  1  0.95859723  0.49939112  0.13641100  1
  Sn  Sn0  1  0.24823813  0.07088054  0.13586788  1
  Sn  Sn1  1  0.92911946  0.75176187  0.36413212  1
  Sn  Sn2  1  0.75176187  0.92911946  0.86413212  1
  Sn  Sn3  1  0.07088054  0.24823813  0.63586788  1
  S  S0  1  0.77060378  0.31336634  0.60291165  1
  S  S1  1  0.22939622  0.68663366  0.39708835  1
  S  S2  1  0.85823948  0.73342374  0.98488385  1
  S  S3  1  0.26657626  0.14176052  0.51511615  1
  S  S4  1  0.14176052  0.26657626  0.01511615  1
  S  S5  1  0.73342374  0.85823948  0.48488385  1
  S  S6  1  0.75754758  0.48843378  0.31991581  1
  S  S7  1  0.51156622  0.24245242  0.18008419  1
  S  S8  1  0.24245242  0.51156622  0.68008419  1
  S  S9  1  0.48843378  0.75754758  0.81991581  1
  S  S10  1  0.95350222  0.04649778  0.25000000  1
  S  S11  1  0.04649778  0.95350222  0.75000000  1
  S  S12  1  0.31336634  0.77060378  0.10291165  1
  S  S13  1  0.68663366  0.22939622  0.89708835  1
loop_
_geom_bond_atom_site_label_1
_geom_bond_atom_site_label_2
_geom_bond_distance
_geom_bond_site_symmetry_2
Na0 S6 2.847183 1_555
Na0 S5 2.878807 1_545
Na0 S3 2.898893 1_655
Na0 S0 2.924756 1_555
Na0 S10 3.222841 1_555
Na1 S7 2.847183 1_555
Na1 S4 2.878807 1_655
Na1 S2 2.898893 1_544
Na1 S13 2.924756 1_554
Na1 S10 3.222841 1_555
Na2 S8 2.847183 1_555
Na2 S3 2.878807 1_565
Na2 S5 2.898893 1_455
Na2 S1 2.924756 1_555
Na2 S11 3.222841 1_555
Na3 S9 2.847183 1_555
Na3 S2 2.878807 1_455
Na3 S4 2.898893 1_566
Na3 S12 2.924756 1_556
Na3 S11 3.222841 1_555
Na4 S5 2.847145 1_555
Na4 S9 2.878757 1_555
Na4 S0 2.892431 1_565
Na4 S3 2.937088 1_565
Na4 S8 3.363798 1_555
Na4 S11 3.375632 1_555
Na5 S4 2.847145 1_556
Na5 S8 2.878757 1_555
Na5 S13 2.892431 1_455
Na5 S2 2.937088 1_455
Na5 S9 3.363798 1_555
Na5 S11 3.375632 1_555
Na6 S1 2.757639 1_555
Na6 S12 2.757639 1_555
Na6 S7 2.800506 1_555
Na6 S6 2.800506 1_555
Na7 S0 2.757639 1_555
Na7 S13 2.757639 1_555
Na7 S8 2.800506 1_555
Na7 S9 2.800506 1_555
Na8 S4 2.817261 1_555
Na8 S2 2.817261 1_554
Na8 S12 2.985806 1_555
Na8 S13 2.985806 1_554
Na8 S9 3.030332 1_554
Na8 S7 3.030332 1_555
Na9 S3 2.817261 1_555
Na9 S5 2.817261 1_555
Na9 S1 2.985806 1_555
Na9 S0 2.985806 1_555
Na9 S8 3.030332 1_555
Na9 S6 3.030332 1_555
Na10 S3 2.847145 1_555
Na10 S7 2.878757 1_555
Na10 S1 2.892431 1_545
Na10 S5 2.937088 1_545
Na10 S6 3.363798 1_555
Na10 S10 3.375632 1_555
Na11 S2 2.847145 1_554
Na11 S6 2.878757 1_555
Na11 S12 2.892431 1_655
Na11 S4 2.937088 1_655
Na11 S7 3.363798 1_555
Na11 S10 3.375632 1_555
S0 Sn3 2.367106 1_655
S1 Sn1 2.367106 1_455
S2 Sn2 2.394670 1_555
S3 Sn3 2.394670 1_555
S4 Sn0 2.394670 1_555
S5 Sn1 2.394670 1_555
S6 Sn1 2.371742 1_555
S7 Sn0 2.371742 1_555
S8 Sn3 2.371742 1_555
S9 Sn2 2.371742 1_555
S10 Sn1 2.442141 1_545
S10 Sn0 2.442141 1_655
S11 Sn2 2.442141 1_455
S11 Sn3 2.442141 1_565
S12 Sn0 2.367106 1_565
S13 Sn2 2.367106 1_545
