# generated using pymatgen
data_Tm(CuSi)2
_symmetry_space_group_name_H-M   'P 1'
_cell_length_a   3.90795010
_cell_length_b   3.90794888
_cell_length_c   5.68797057
_cell_angle_alpha   110.09194201
_cell_angle_beta   110.09193365
_cell_angle_gamma   89.99999356
_symmetry_Int_Tables_number   1
_chemical_formula_structural   Tm(CuSi)2
_chemical_formula_sum   'Tm1 Cu2 Si2'
_cell_volume   75.92688047
_cell_formula_units_Z   1
loop_
 _symmetry_equiv_pos_site_id
 _symmetry_equiv_pos_as_xyz
  1  'x, y, z'
loop_
 _atom_site_type_symbol
 _atom_site_label
 _atom_site_symmetry_multiplicity
 _atom_site_fract_x
 _atom_site_fract_y
 _atom_site_fract_z
 _atom_site_occupancy
  Tm  Tm0  1  -0.00000000  0.00000000  -0.00000000  1
  Cu  Cu0  1  0.75000000  0.25000000  0.50000000  1
  Cu  Cu1  1  0.25000000  0.75000000  0.50000000  1
  Si  Si0  1  0.61672953  0.61672953  0.23346006  1
  Si  Si1  1  0.38327047  0.38327047  0.76653994  1
loop_
_geom_bond_atom_site_label_1
_geom_bond_atom_site_label_2
_geom_bond_distance
_geom_bond_site_symmetry_2
Cu0 Si0 2.360930 1_555
Cu0 Si1 2.360930 1_555
Cu0 Si0 2.360933 1_545
Cu0 Si1 2.360934 1_655
Cu0 Cu1 2.763337 1_645
Cu0 Cu1 2.763337 1_555
Cu0 Cu1 2.763338 1_545
Cu0 Cu1 2.763338 1_655
Cu0 Tm0 3.161844 1_666
Cu0 Tm0 3.161844 1_655
Cu0 Tm0 3.161845 1_656
Cu0 Tm0 3.161845 1_555
Cu1 Si1 2.360930 1_555
Cu1 Si0 2.360930 1_555
Cu1 Si1 2.360933 1_565
Cu1 Si0 2.360934 1_455
Cu1 Tm0 3.161844 1_555
Cu1 Tm0 3.161844 1_566
Cu1 Tm0 3.161845 1_565
Cu1 Tm0 3.161845 1_666
Si0 Si1 2.321348 1_554
Si0 Tm0 2.997196 1_555
Si0 Tm0 2.997198 1_655
Si0 Tm0 2.997199 1_565
Si0 Tm0 2.997201 1_665
Si1 Tm0 2.997196 1_666
Si1 Tm0 2.997198 1_566
Si1 Tm0 2.997199 1_656
Si1 Tm0 2.997201 1_556
