# generated using pymatgen
data_Er2Si3Rh
_symmetry_space_group_name_H-M   'P 1'
_cell_length_a   8.09910675
_cell_length_b   8.09908566
_cell_length_c   7.80424567
_cell_angle_alpha   89.99998419
_cell_angle_beta   90.00000234
_cell_angle_gamma   119.99997090
_symmetry_Int_Tables_number   1
_chemical_formula_structural   Er2Si3Rh
_chemical_formula_sum   'Er8 Si12 Rh4'
_cell_volume   443.33784605
_cell_formula_units_Z   4
loop_
 _symmetry_equiv_pos_site_id
 _symmetry_equiv_pos_as_xyz
  1  'x, y, z'
loop_
 _atom_site_type_symbol
 _atom_site_label
 _atom_site_symmetry_multiplicity
 _atom_site_fract_x
 _atom_site_fract_y
 _atom_site_fract_z
 _atom_site_occupancy
  Er  Er0  1  0.98287573  0.49143789  0.24999936  1
  Er  Er1  1  0.50856229  0.49143786  0.24999941  1
  Er  Er2  1  0.49142993  0.98286109  0.75000005  1
  Er  Er3  1  0.01713789  0.50856904  0.75000061  1
  Er  Er4  1  0.49143133  0.50856911  0.75000036  1
  Er  Er5  1  0.50856203  0.01712435  0.24999956  1
  Er  Er6  1  -0.00000014  0.00000013  0.74999984  1
  Er  Er7  1  0.00000002  0.00000030  0.24999997  1
  Si  Si0  1  0.16692965  0.83307040  0.49954471  1
  Si  Si1  1  0.16692964  0.33385925  0.49954457  1
  Si  Si2  1  0.66614179  0.83307121  0.49954498  1
  Si  Si3  1  0.33385772  0.16692889  0.99955105  1
  Si  Si4  1  0.83307048  0.66614123  0.50044894  1
  Si  Si5  1  0.83307037  0.16692930  0.99955079  1
  Si  Si6  1  0.83307057  0.66614153  0.99955070  1
  Si  Si7  1  0.16692983  0.33385963  0.00045543  1
  Si  Si8  1  0.66614074  0.83307071  0.00045543  1
  Si  Si9  1  0.33385842  0.16692919  0.50044877  1
  Si  Si10  1  0.83307081  0.16692899  0.50044929  1
  Si  Si11  1  0.16693014  0.83307017  0.00045542  1
  Rh  Rh0  1  0.33333321  0.66666622  0.03202054  1
  Rh  Rh1  1  0.66666587  0.33333289  0.96801388  1
  Rh  Rh2  1  0.66666640  0.33333283  0.53198667  1
  Rh  Rh3  1  0.33333325  0.66666680  0.46797966  1
loop_
_geom_bond_atom_site_label_1
_geom_bond_atom_site_label_2
_geom_bond_distance
_geom_bond_site_symmetry_2
Er0 Rh0 2.989365 1_655
Er0 Rh3 2.989372 1_655
Er0 Si5 3.001858 1_554
Er0 Si6 3.001860 1_554
Er0 Si4 3.001864 1_555
Er0 Si10 3.001866 1_555
Er0 Si11 3.089677 1_655
Er0 Si7 3.089679 1_655
Er0 Si0 3.089686 1_655
Er0 Si1 3.089686 1_655
Er0 Rh1 3.124439 1_554
Er0 Rh2 3.124446 1_555
Er1 Rh0 2.989361 1_555
Er1 Rh3 2.989371 1_555
Er1 Si3 3.001859 1_554
Er1 Si6 3.001861 1_554
Er1 Si9 3.001862 1_555
Er1 Si4 3.001865 1_555
Er1 Si8 3.089680 1_555
Er1 Si7 3.089683 1_555
Er1 Si1 3.089690 1_555
Er1 Si2 3.089691 1_555
Er1 Rh1 3.124431 1_554
Er1 Rh2 3.124442 1_555
Er2 Rh2 2.989595 1_565
Er2 Rh1 2.989598 1_565
Er2 Si11 3.001852 1_556
Er2 Si0 3.001855 1_555
Er2 Si8 3.001857 1_556
Er2 Si2 3.001859 1_555
Er2 Si9 3.089757 1_565
Er2 Si3 3.089758 1_565
Er2 Si5 3.089762 1_565
Er2 Si10 3.089764 1_565
Er2 Rh3 3.124550 1_555
Er2 Rh0 3.124552 1_556
Er3 Rh1 2.989602 1_455
Er3 Rh2 2.989602 1_455
Er3 Si11 3.001852 1_556
Er3 Si7 3.001854 1_556
Er3 Si0 3.001858 1_555
Er3 Si1 3.001862 1_555
Er3 Si5 3.089751 1_455
Er3 Si6 3.089753 1_455
Er3 Si10 3.089759 1_455
Er3 Si4 3.089759 1_455
Er3 Rh0 3.124556 1_556
Er3 Rh3 3.124562 1_555
Er4 Rh1 2.989592 1_555
Er4 Rh2 2.989597 1_555
Er4 Si8 3.001857 1_556
Er4 Si7 3.001860 1_556
Er4 Si2 3.001860 1_555
Er4 Si1 3.001865 1_555
Er4 Si6 3.089754 1_555
Er4 Si3 3.089755 1_555
Er4 Si4 3.089758 1_555
Er4 Si9 3.089759 1_555
Er4 Rh0 3.124555 1_556
Er4 Rh3 3.124560 1_555
Er5 Rh0 2.989365 1_545
Er5 Rh3 2.989366 1_545
Er5 Si3 3.001860 1_554
Er5 Si5 3.001862 1_554
Er5 Si9 3.001862 1_555
Er5 Si10 3.001869 1_555
Er5 Si8 3.089680 1_545
Er5 Si11 3.089681 1_545
Er5 Si0 3.089688 1_545
Er5 Si2 3.089688 1_545
Er5 Rh1 3.124429 1_554
Er5 Rh2 3.124438 1_555
Er6 Si10 3.045728 1_455
Er6 Si6 3.045732 1_445
Er6 Si4 3.045735 1_445
Er6 Si5 3.045735 1_455
Er6 Si3 3.045735 1_555
Er6 Si9 3.045738 1_555
Er6 Si2 3.050250 1_445
Er6 Si1 3.050253 1_555
Er6 Si0 3.050257 1_545
Er6 Si7 3.050257 1_556
Er6 Si8 3.050259 1_446
Er6 Si11 3.050262 1_546
Er7 Si1 3.045703 1_555
Er7 Si7 3.045704 1_555
Er7 Si2 3.045706 1_445
Er7 Si0 3.045708 1_545
Er7 Si8 3.045709 1_445
Er7 Si11 3.045712 1_545
Er7 Si3 3.050218 1_554
Er7 Si10 3.050219 1_455
Er7 Si4 3.050221 1_445
Er7 Si5 3.050222 1_454
Er7 Si6 3.050222 1_444
Er7 Si9 3.050222 1_555
Si0 Si9 2.341702 1_565
Si0 Si4 2.341710 1_455
Si1 Si9 2.341704 1_555
Si1 Si10 2.341708 1_455
Si2 Si4 2.341703 1_555
Si3 Si7 2.341702 1_556
Si5 Si8 2.341700 1_546
Si5 Si7 2.341712 1_656
Si6 Si8 2.341705 1_556
Si10 Si2 2.341694 1_545
Si11 Si3 2.341701 1_564
Si11 Si6 2.341713 1_454
Rh0 Si7 2.347273 1_555
Rh0 Si11 2.347278 1_555
Rh0 Si8 2.347286 1_555
Rh1 Si5 2.347262 1_555
Rh1 Si6 2.347264 1_555
Rh1 Si3 2.347267 1_555
Rh2 Si4 2.347263 1_555
Rh2 Si10 2.347264 1_555
Rh2 Si9 2.347267 1_555
Rh3 Si0 2.347279 1_555
Rh3 Si1 2.347280 1_555
Rh3 Si2 2.347293 1_555
