# generated using pymatgen
data_BaLaMgBiO6
_symmetry_space_group_name_H-M   'P 1'
_cell_length_a   5.86615361
_cell_length_b   5.86615361
_cell_length_c   5.86615361
_cell_angle_alpha   60.00000000
_cell_angle_beta   60.00000000
_cell_angle_gamma   60.00000000
_symmetry_Int_Tables_number   1
_chemical_formula_structural   BaLaMgBiO6
_chemical_formula_sum   'Ba1 La1 Mg1 Bi1 O6'
_cell_volume   142.73986988
_cell_formula_units_Z   1
loop_
 _symmetry_equiv_pos_site_id
 _symmetry_equiv_pos_as_xyz
  1  'x, y, z'
loop_
 _atom_site_type_symbol
 _atom_site_label
 _atom_site_symmetry_multiplicity
 _atom_site_fract_x
 _atom_site_fract_y
 _atom_site_fract_z
 _atom_site_occupancy
  Ba  Ba0  1  0.75000000  0.75000000  0.75000000  1
  La  La0  1  0.25000000  0.25000000  0.25000000  1
  Mg  Mg0  1  0.50000000  0.50000000  0.50000000  1
  Bi  Bi0  1  0.00000000  0.00000000  0.00000000  1
  O  O0  1  0.74705000  0.25295000  0.25295000  1
  O  O1  1  0.25295000  0.25295000  0.74705000  1
  O  O2  1  0.25295000  0.74705000  0.25295000  1
  O  O3  1  0.74705000  0.25295000  0.74705000  1
  O  O4  1  0.74705000  0.74705000  0.25295000  1
  O  O5  1  0.25295000  0.74705000  0.74705000  1
loop_
_geom_bond_atom_site_label_1
_geom_bond_atom_site_label_2
_geom_bond_distance
_geom_bond_site_symmetry_2
Ba0 O1 2.933179 1_655
Ba0 O1 2.933179 1_565
Ba0 O3 2.933179 1_555
Ba0 O3 2.933179 1_565
Ba0 O4 2.933179 1_555
Ba0 O4 2.933179 1_556
Ba0 O0 2.933179 1_565
Ba0 O5 2.933179 1_555
Ba0 O2 2.933179 1_655
Ba0 O2 2.933179 1_556
Ba0 O5 2.933179 1_655
Ba0 O0 2.933179 1_556
La0 O4 2.933179 1_545
La0 O2 2.933179 1_545
La0 O2 2.933179 1_555
La0 O4 2.933179 1_455
La0 O1 2.933179 1_555
La0 O1 2.933179 1_554
La0 O5 2.933179 1_554
La0 O3 2.933179 1_455
La0 O0 2.933179 1_455
La0 O3 2.933179 1_554
La0 O0 2.933179 1_555
La0 O5 2.933179 1_545
Mg0 O3 2.049525 1_555
Mg0 O0 2.049525 1_555
Mg0 O2 2.049525 1_555
Mg0 O4 2.049525 1_555
Mg0 O1 2.049525 1_555
Mg0 O5 2.049525 1_555
Bi0 O4 2.098472 1_445
Bi0 O0 2.098472 1_455
Bi0 O5 2.098472 1_544
Bi0 O2 2.098472 1_545
Bi0 O1 2.098472 1_554
Bi0 O3 2.098472 1_454
