# generated using pymatgen
data_Rb2SeO4
_symmetry_space_group_name_H-M   'P 1'
_cell_length_a   6.15174812
_cell_length_b   7.97600487
_cell_length_c   10.78880138
_cell_angle_alpha   90.00000000
_cell_angle_beta   90.00000000
_cell_angle_gamma   90.00000000
_symmetry_Int_Tables_number   1
_chemical_formula_structural   Rb2SeO4
_chemical_formula_sum   'Rb8 Se4 O16'
_cell_volume   529.36735235
_cell_formula_units_Z   4
loop_
 _symmetry_equiv_pos_site_id
 _symmetry_equiv_pos_as_xyz
  1  'x, y, z'
loop_
 _atom_site_type_symbol
 _atom_site_label
 _atom_site_symmetry_multiplicity
 _atom_site_fract_x
 _atom_site_fract_y
 _atom_site_fract_z
 _atom_site_occupancy
  Rb  Rb0  1  0.25000000  0.00827667  0.29627887  1
  Rb  Rb1  1  0.75000000  0.99172333  0.70372113  1
  Rb  Rb2  1  0.25000000  0.50827667  0.20372113  1
  Rb  Rb3  1  0.75000000  0.49172333  0.79627887  1
  Rb  Rb4  1  0.25000000  0.33254163  0.58737662  1
  Rb  Rb5  1  0.75000000  0.66745837  0.41262338  1
  Rb  Rb6  1  0.25000000  0.83254163  0.91262338  1
  Rb  Rb7  1  0.75000000  0.16745837  0.08737662  1
  Se  Se0  1  0.25000000  0.77155907  0.58029851  1
  Se  Se1  1  0.75000000  0.22844093  0.41970149  1
  Se  Se2  1  0.25000000  0.27155907  0.91970149  1
  Se  Se3  1  0.75000000  0.72844093  0.08029851  1
  O  O0  1  0.53011110  0.29928039  0.34797741  1
  O  O1  1  0.03011110  0.70071961  0.65202259  1
  O  O2  1  0.96988890  0.79928039  0.15202259  1
  O  O3  1  0.46988890  0.20071961  0.84797741  1
  O  O4  1  0.46988890  0.70071961  0.65202259  1
  O  O5  1  0.96988890  0.29928039  0.34797741  1
  O  O6  1  0.03011110  0.20071961  0.84797741  1
  O  O7  1  0.53011110  0.79928039  0.15202259  1
  O  O8  1  0.25000000  0.69676317  0.43652418  1
  O  O9  1  0.75000000  0.30323683  0.56347582  1
  O  O10  1  0.25000000  0.19676317  0.06347582  1
  O  O11  1  0.75000000  0.80323683  0.93652418  1
  O  O12  1  0.75000000  0.52152557  0.08065894  1
  O  O13  1  0.25000000  0.47847443  0.91934106  1
  O  O14  1  0.75000000  0.02152557  0.41934106  1
  O  O15  1  0.25000000  0.97847443  0.58065894  1
loop_
_geom_bond_atom_site_label_1
_geom_bond_atom_site_label_2
_geom_bond_distance
_geom_bond_site_symmetry_2
O0 Se1 1.657660 1_555
O0 Rb2 2.858373 1_555
O0 Rb0 2.944094 1_555
O0 Rb4 3.116203 1_555
O0 Rb7 3.292445 1_555
O0 Rb5 3.307536 1_555
O1 Se0 1.657660 1_555
O1 Rb3 2.858373 1_455
O1 Rb1 2.944094 1_455
O1 Rb5 3.116203 1_455
O1 Rb6 3.292445 1_555
O1 Rb4 3.307536 1_555
O2 Se3 1.657660 1_555
O2 Rb0 2.858373 1_665
O2 Rb2 2.944094 1_655
O2 Rb6 3.116203 1_654
O2 Rb5 3.292445 1_555
O2 Rb7 3.307536 1_565
O3 Se2 1.657660 1_555
O3 Rb1 2.858373 1_545
O3 Rb3 2.944094 1_555
O3 Rb7 3.116203 1_556
O3 Rb4 3.292445 1_555
O3 Rb6 3.307536 1_545
O4 Se0 1.657660 1_555
O4 Rb3 2.858373 1_555
O4 Rb1 2.944094 1_555
O4 Rb5 3.116203 1_555
O4 Rb6 3.292445 1_555
O4 Rb4 3.307536 1_555
O5 Se1 1.657660 1_555
O5 Rb2 2.858373 1_655
O5 Rb0 2.944094 1_655
O5 Rb4 3.116203 1_655
O5 Rb7 3.292445 1_555
O5 Rb5 3.307536 1_555
O6 Se2 1.657660 1_555
O6 Rb1 2.858373 1_445
O6 Rb3 2.944094 1_455
O6 Rb7 3.116203 1_456
O6 Rb4 3.292445 1_555
O6 Rb6 3.307536 1_545
O7 Se3 1.657660 1_555
O7 Rb0 2.858373 1_565
O7 Rb2 2.944094 1_555
O7 Rb6 3.116203 1_554
O7 Rb5 3.292445 1_555
O7 Rb7 3.307536 1_565
O8 Se0 1.661919 1_555
O8 Rb0 2.909091 1_565
O8 Rb2 2.927214 1_555
O8 Rb5 3.095501 1_555
O8 Rb5 3.095501 1_455
O8 Rb4 3.329869 1_555
O9 Se1 1.661919 1_555
O9 Rb1 2.909091 1_545
O9 Rb3 2.927214 1_555
O9 Rb4 3.095501 1_655
O9 Rb4 3.095501 1_555
O9 Rb5 3.329869 1_555
O10 Se2 1.661919 1_554
O10 Rb2 2.909091 1_555
O10 Rb0 2.927214 1_555
O10 Rb7 3.095501 1_555
O10 Rb7 3.095501 1_455
O10 Rb6 3.329869 1_544
O11 Se3 1.661919 1_556
O11 Rb3 2.909091 1_555
O11 Rb1 2.927214 1_555
O11 Rb6 3.095501 1_555
O11 Rb6 3.095501 1_655
O11 Rb7 3.329869 1_566
O12 Se3 1.650363 1_555
O12 Rb7 2.824972 1_555
O12 Rb3 3.077314 1_554
O12 Rb2 3.351856 1_655
O12 Rb2 3.351856 1_555
O13 Se2 1.650363 1_555
O13 Rb6 2.824972 1_555
O13 Rb2 3.077314 1_556
O13 Rb3 3.351856 1_555
O13 Rb3 3.351856 1_455
O14 Se1 1.650363 1_555
O14 Rb5 2.824972 1_545
O14 Rb1 3.077314 1_545
O14 Rb0 3.351856 1_655
O14 Rb0 3.351856 1_555
O15 Se0 1.650363 1_555
O15 Rb4 2.824972 1_565
O15 Rb0 3.077314 1_565
O15 Rb1 3.351856 1_555
O15 Rb1 3.351856 1_455
