# generated using pymatgen
data_CsBF4
_symmetry_space_group_name_H-M   'P 1'
_cell_length_a   5.70422757
_cell_length_b   7.59323278
_cell_length_c   9.67388012
_cell_angle_alpha   89.99891846
_cell_angle_beta   89.99988519
_cell_angle_gamma   90.00047299
_symmetry_Int_Tables_number   1
_chemical_formula_structural   CsBF4
_chemical_formula_sum   'Cs4 B4 F16'
_cell_volume   419.00987517
_cell_formula_units_Z   4
loop_
 _symmetry_equiv_pos_site_id
 _symmetry_equiv_pos_as_xyz
  1  'x, y, z'
loop_
 _atom_site_type_symbol
 _atom_site_label
 _atom_site_symmetry_multiplicity
 _atom_site_fract_x
 _atom_site_fract_y
 _atom_site_fract_z
 _atom_site_occupancy
  Cs  Cs0  1  0.25000031  0.83987087  0.69124254  1
  Cs  Cs1  1  0.75000125  0.16012518  0.30876458  1
  Cs  Cs2  1  0.75000101  0.33978614  0.80847328  1
  Cs  Cs3  1  0.25000186  0.66021425  0.19156548  1
  B  B0  1  0.25000164  0.19914041  0.05234060  1
  B  B1  1  0.25000066  0.30082859  0.55237701  1
  B  B2  1  0.74999781  0.69914327  0.44761042  1
  B  B3  1  0.74999790  0.80088231  0.94766687  1
  F  F0  1  0.54890479  0.80527910  0.42809679  1
  F  F1  1  0.95119669  0.69479450  0.92812450  1
  F  F2  1  0.45113328  0.30524833  0.07188068  1
  F  F3  1  0.04891418  0.19464928  0.57192206  1
  F  F4  1  0.25000154  0.36823122  0.41757463  1
  F  F5  1  0.74999160  0.63180508  0.58240526  1
  F  F6  1  0.74999358  0.86819714  0.08249059  1
  F  F7  1  0.25000266  0.13179404  0.91752255  1
  F  F8  1  0.24999871  0.06314419  0.15069639  1
  F  F9  1  0.75000519  0.93684710  0.84925050  1
  F  F10  1  0.75000019  0.56315757  0.34929569  1
  F  F11  1  0.25000039  0.43690229  0.65067534  1
  F  F12  1  0.04886982  0.30524689  0.07188272  1
  F  F13  1  0.54880282  0.69478780  0.92811839  1
  F  F14  1  0.95109460  0.80527556  0.42810241  1
  F  F15  1  0.45108752  0.19464887  0.57192070  1
loop_
_geom_bond_atom_site_label_1
_geom_bond_atom_site_label_2
_geom_bond_distance
_geom_bond_site_symmetry_2
Cs0 F13 3.060997 1_555
Cs0 F1 3.061011 1_455
Cs0 F14 3.075088 1_455
Cs0 F0 3.075123 1_555
Cs0 F11 3.084905 1_555
Cs0 F7 3.115353 1_565
Cs0 F15 3.147241 1_565
Cs0 F3 3.147254 1_565
Cs0 F9 3.318607 1_455
Cs0 F9 3.318649 1_555
Cs0 F5 3.426223 1_555
Cs0 F5 3.426288 1_455
Cs1 F12 3.061341 1_655
Cs1 F2 3.061373 1_555
Cs1 F15 3.075191 1_555
Cs1 F3 3.075203 1_655
Cs1 F10 3.085342 1_555
Cs1 F6 3.115338 1_545
Cs1 F0 3.147739 1_545
Cs1 F14 3.147794 1_545
Cs1 F8 3.318895 1_655
Cs1 F8 3.318914 1_555
Cs1 F4 3.426308 1_655
Cs1 F4 3.426323 1_555
Cs2 F3 3.059172 1_655
Cs2 F15 3.059178 1_555
Cs2 F2 3.077057 1_556
Cs2 F12 3.077086 1_656
Cs2 F9 3.084927 1_545
Cs2 F5 3.114371 1_555
Cs2 F13 3.150127 1_555
Cs2 F1 3.150172 1_555
Cs2 F11 3.317905 1_655
Cs2 F11 3.317927 1_555
Cs2 F7 3.426590 1_555
Cs2 F7 3.426631 1_655
Cs3 F0 3.058793 1_555
Cs3 F14 3.058843 1_455
Cs3 F1 3.077164 1_454
Cs3 F13 3.077187 1_554
Cs3 F8 3.084973 1_565
Cs3 F4 3.113777 1_555
Cs3 F12 3.149886 1_555
Cs3 F2 3.149897 1_555
Cs3 F10 3.317514 1_555
Cs3 F10 3.317514 1_455
Cs3 F6 3.426602 1_555
Cs3 F6 3.426706 1_455
B0 F7 1.400894 1_554
B0 F8 1.404154 1_555
B0 F2 1.414630 1_555
B0 F12 1.414637 1_555
B1 F4 1.400891 1_555
B1 F11 1.404237 1_555
B1 F3 1.414732 1_555
B1 F15 1.414745 1_555
B2 F5 1.400645 1_555
B2 F10 1.403853 1_555
B2 F14 1.414528 1_555
B2 F0 1.414545 1_555
B3 F6 1.400858 1_556
B3 F9 1.404376 1_555
B3 F1 1.414867 1_555
B3 F13 1.414876 1_555
