# generated using pymatgen
data_SiP2O7
_symmetry_space_group_name_H-M   'P 1'
_cell_length_a   6.32499470
_cell_length_b   4.74152477
_cell_length_c   14.74688091
_cell_angle_alpha   89.89956370
_cell_angle_beta   90.00000000
_cell_angle_gamma   90.00000000
_symmetry_Int_Tables_number   1
_chemical_formula_structural   SiP2O7
_chemical_formula_sum   'Si4 P8 O28'
_cell_volume   442.26003498
_cell_formula_units_Z   4
loop_
 _symmetry_equiv_pos_site_id
 _symmetry_equiv_pos_as_xyz
  1  'x, y, z'
loop_
 _atom_site_type_symbol
 _atom_site_label
 _atom_site_symmetry_multiplicity
 _atom_site_fract_x
 _atom_site_fract_y
 _atom_site_fract_z
 _atom_site_occupancy
  Si  Si0  1  0.91675660  0.75009684  0.13528805  1
  Si  Si1  1  0.41675660  0.24990316  0.36471195  1
  Si  Si2  1  0.08324340  0.24990316  0.86471195  1
  Si  Si3  1  0.58324340  0.75009684  0.63528805  1
  P  P0  1  0.30905023  0.25430631  0.57273972  1
  P  P1  1  0.80905023  0.74569369  0.92726028  1
  P  P2  1  0.69094977  0.74569369  0.42726028  1
  P  P3  1  0.19094977  0.25430631  0.07273972  1
  P  P4  1  0.60504119  0.26158241  0.16841839  1
  P  P5  1  0.10504119  0.73841759  0.33158161  1
  P  P6  1  0.39495881  0.73841759  0.83158161  1
  P  P7  1  0.89495881  0.26158241  0.66841839  1
  O  O0  1  0.00764857  0.16461783  0.75278880  1
  O  O1  1  0.50764857  0.83538217  0.74721120  1
  O  O2  1  0.99235143  0.83538217  0.24721120  1
  O  O3  1  0.49235143  0.16461783  0.25278880  1
  O  O4  1  0.79545499  0.54808918  0.67921438  1
  O  O5  1  0.29545499  0.45191082  0.82078562  1
  O  O6  1  0.20454501  0.45191082  0.32078562  1
  O  O7  1  0.70454501  0.54808918  0.17921438  1
  O  O8  1  0.74288087  0.04748381  0.63194468  1
  O  O9  1  0.24288087  0.95251619  0.86805532  1
  O  O10  1  0.25711913  0.95251619  0.36805532  1
  O  O11  1  0.75711913  0.04748381  0.13194468  1
  O  O12  1  0.43569767  0.28786906  0.08969701  1
  O  O13  1  0.93569767  0.71213094  0.41030299  1
  O  O14  1  0.56430233  0.71213094  0.91030299  1
  O  O15  1  0.06430233  0.28786906  0.58969701  1
  O  O16  1  0.16755058  0.33688342  0.97493548  1
  O  O17  1  0.66755058  0.66311658  0.52506452  1
  O  O18  1  0.83244942  0.66311658  0.02506452  1
  O  O19  1  0.33244942  0.33688342  0.47493548  1
  O  O20  1  0.08165810  0.45536373  0.13653448  1
  O  O21  1  0.58165810  0.54463627  0.36346552  1
  O  O22  1  0.91834190  0.54463627  0.86346552  1
  O  O23  1  0.41834190  0.45536373  0.63653448  1
  O  O24  1  0.13352280  0.95049581  0.09185352  1
  O  O25  1  0.63352280  0.04950419  0.40814648  1
  O  O26  1  0.86647720  0.04950419  0.90814648  1
  O  O27  1  0.36647720  0.95049581  0.59185352  1
loop_
_geom_bond_atom_site_label_1
_geom_bond_atom_site_label_2
_geom_bond_distance
_geom_bond_site_symmetry_2
O0 P7 1.505137 1_455
O0 Si2 1.765981 1_555
O1 P6 1.505137 1_555
O1 Si3 1.765981 1_555
O2 P5 1.505137 1_655
O2 Si0 1.765981 1_555
O3 P4 1.505137 1_555
O3 Si1 1.765981 1_555
O4 P7 1.505877 1_555
O4 Si3 1.771007 1_555
O5 P6 1.505877 1_555
O5 Si2 1.771007 1_555
O6 P5 1.505877 1_555
O6 Si1 1.771007 1_555
O7 P4 1.505877 1_555
O7 Si0 1.771007 1_555
O8 P7 1.498998 1_555
O8 Si3 1.734931 1_545
O9 P6 1.498998 1_555
O9 Si2 1.734931 1_565
O10 P5 1.498998 1_555
O10 Si1 1.734931 1_565
O11 P4 1.498998 1_555
O11 Si0 1.734931 1_545
O12 P3 1.576196 1_555
O12 P4 1.584283 1_555
O13 P2 1.576196 1_555
O13 P5 1.584283 1_655
O14 P1 1.576196 1_555
O14 P6 1.584283 1_555
O15 P0 1.576196 1_555
O15 P7 1.584283 1_455
O16 P3 1.501159 1_556
O16 Si2 1.760365 1_555
O17 P2 1.501159 1_555
O17 Si3 1.760365 1_555
O18 P1 1.501159 1_554
O18 Si0 1.760365 1_555
O19 P0 1.501159 1_555
O19 Si1 1.760365 1_555
O20 P3 1.508267 1_555
O20 Si0 1.743864 1_455
O21 P2 1.508267 1_555
O21 Si1 1.743864 1_555
O22 P1 1.508267 1_555
O22 Si2 1.743864 1_655
O23 P0 1.508267 1_555
O23 Si3 1.743864 1_555
O24 P3 1.511645 1_565
O24 Si0 1.786274 1_455
O25 P2 1.511645 1_545
O25 Si1 1.786274 1_555
O26 P1 1.511645 1_545
O26 Si2 1.786274 1_655
O27 P0 1.511645 1_565
O27 Si3 1.786274 1_555
