# generated using pymatgen
data_Sc(AlC)3
_symmetry_space_group_name_H-M   'P 1'
_cell_length_a   3.34516663
_cell_length_b   3.34516594
_cell_length_c   16.72259029
_cell_angle_alpha   90.00000000
_cell_angle_beta   90.00000000
_cell_angle_gamma   119.99999680
_symmetry_Int_Tables_number   1
_chemical_formula_structural   Sc(AlC)3
_chemical_formula_sum   'Sc2 Al6 C6'
_cell_volume   162.05768012
_cell_formula_units_Z   2
loop_
 _symmetry_equiv_pos_site_id
 _symmetry_equiv_pos_as_xyz
  1  'x, y, z'
loop_
 _atom_site_type_symbol
 _atom_site_label
 _atom_site_symmetry_multiplicity
 _atom_site_fract_x
 _atom_site_fract_y
 _atom_site_fract_z
 _atom_site_occupancy
  Sc  Sc0  1  -0.00000000  -0.00000000  0.00057133  1
  Sc  Sc1  1  -0.00000000  -0.00000000  0.50057133  1
  Al  Al0  1  0.33333300  0.66666700  0.37081546  1
  Al  Al1  1  0.66666700  0.33333300  0.63029268  1
  Al  Al2  1  0.66666700  0.33333300  0.87081546  1
  Al  Al3  1  0.33333300  0.66666700  0.75055815  1
  Al  Al4  1  0.33333300  0.66666700  0.13029268  1
  Al  Al5  1  0.66666700  0.33333300  0.25055815  1
  C  C0  1  0.33333300  0.66666700  0.25057093  1
  C  C1  1  0.66666700  0.33333300  0.75057093  1
  C  C2  1  0.66666700  0.33333300  0.41330432  1
  C  C3  1  0.33333300  0.66666700  0.91330432  1
  C  C4  1  0.66666700  0.33333300  0.08788812  1
  C  C5  1  0.33333300  0.66666700  0.58788812  1
loop_
_geom_bond_atom_site_label_1
_geom_bond_atom_site_label_2
_geom_bond_distance
_geom_bond_site_symmetry_2
Al0 C0 2.010800 1_555
Al0 C2 2.057883 1_565
Al0 C2 2.057883 1_455
Al0 C2 2.057888 1_555
Al1 C1 2.011364 1_555
Al1 C5 2.057397 1_545
Al1 C5 2.057397 1_655
Al1 C5 2.057402 1_555
Al2 C1 2.010800 1_555
Al2 C3 2.057883 1_545
Al2 C3 2.057883 1_655
Al2 C3 2.057888 1_555
Al3 C1 1.931331 1_565
Al3 C1 1.931331 1_455
Al3 C1 1.931336 1_555
Al4 C0 2.011364 1_555
Al4 C4 2.057397 1_565
Al4 C4 2.057397 1_455
Al4 C4 2.057402 1_555
Al5 C0 1.931331 1_545
Al5 C0 1.931331 1_655
Al5 C0 1.931336 1_555
C2 Sc1 2.420678 1_655
C2 Sc1 2.420681 1_665
C2 Sc1 2.420681 1_555
C3 Sc0 2.420678 1_566
C3 Sc0 2.420681 1_556
C3 Sc0 2.420681 1_666
C4 Sc0 2.421180 1_655
C4 Sc0 2.421183 1_665
C4 Sc0 2.421183 1_555
C5 Sc1 2.421180 1_565
C5 Sc1 2.421183 1_555
C5 Sc1 2.421183 1_665
