# generated using pymatgen
data_Rb3AuO
_symmetry_space_group_name_H-M   'P 1'
_cell_length_a   5.50932825
_cell_length_b   5.50932825
_cell_length_c   5.50932825
_cell_angle_alpha   90.00000000
_cell_angle_beta   90.00000000
_cell_angle_gamma   90.00000000
_symmetry_Int_Tables_number   1
_chemical_formula_structural   Rb3AuO
_chemical_formula_sum   'Rb3 Au1 O1'
_cell_volume   167.22297527
_cell_formula_units_Z   1
loop_
 _symmetry_equiv_pos_site_id
 _symmetry_equiv_pos_as_xyz
  1  'x, y, z'
loop_
 _atom_site_type_symbol
 _atom_site_label
 _atom_site_symmetry_multiplicity
 _atom_site_fract_x
 _atom_site_fract_y
 _atom_site_fract_z
 _atom_site_occupancy
  Rb  Rb0  1  0.00000000  0.50000000  0.50000000  1
  Rb  Rb1  1  0.50000000  0.50000000  0.00000000  1
  Rb  Rb2  1  0.50000000  0.00000000  0.50000000  1
  Au  Au0  1  -0.00000000  -0.00000000  0.00000000  1
  O  O0  1  0.50000000  0.50000000  0.50000000  1
loop_
_geom_bond_atom_site_label_1
_geom_bond_atom_site_label_2
_geom_bond_distance
_geom_bond_site_symmetry_2
Au0 Rb0 3.895683 1_555
Au0 Rb0 3.895683 1_554
Au0 Rb1 3.895683 1_555
Au0 Rb2 3.895683 1_555
Au0 Rb1 3.895683 1_455
Au0 Rb0 3.895683 1_545
Au0 Rb0 3.895683 1_544
Au0 Rb2 3.895683 1_455
Au0 Rb2 3.895683 1_454
Au0 Rb2 3.895683 1_554
Au0 Rb1 3.895683 1_545
Au0 Rb1 3.895683 1_445
O0 Rb0 2.754664 1_655
O0 Rb0 2.754664 1_555
O0 Rb2 2.754664 1_555
O0 Rb2 2.754664 1_565
O0 Rb1 2.754664 1_555
O0 Rb1 2.754664 1_556
