# generated using pymatgen
data_Ho(NiGe)2
_symmetry_space_group_name_H-M   'P 1'
_cell_length_a   4.02482773
_cell_length_b   4.02482700
_cell_length_c   5.62293508
_cell_angle_alpha   110.97090837
_cell_angle_beta   110.97090384
_cell_angle_gamma   89.99999293
_symmetry_Int_Tables_number   1
_chemical_formula_structural   Ho(NiGe)2
_chemical_formula_sum   'Ho1 Ni2 Ge2'
_cell_volume   78.55840960
_cell_formula_units_Z   1
loop_
 _symmetry_equiv_pos_site_id
 _symmetry_equiv_pos_as_xyz
  1  'x, y, z'
loop_
 _atom_site_type_symbol
 _atom_site_label
 _atom_site_symmetry_multiplicity
 _atom_site_fract_x
 _atom_site_fract_y
 _atom_site_fract_z
 _atom_site_occupancy
  Ho  Ho0  1  0.00000000  -0.00000000  -0.00000000  1
  Ni  Ni0  1  0.75000000  0.25000000  0.50000000  1
  Ni  Ni1  1  0.25000000  0.75000000  0.50000000  1
  Ge  Ge0  1  0.62862634  0.62862634  0.25725168  1
  Ge  Ge1  1  0.37137366  0.37137366  0.74274832  1
loop_
_geom_bond_atom_site_label_1
_geom_bond_atom_site_label_2
_geom_bond_distance
_geom_bond_site_symmetry_2
Ho0 Ni1 3.151072 1_555
Ho0 Ni0 3.151072 1_444
Ho0 Ni0 3.151072 1_455
Ho0 Ni1 3.151072 1_544
Ho0 Ni0 3.151072 1_454
Ho0 Ni1 3.151072 1_545
Ho0 Ni1 3.151072 1_444
Ho0 Ni0 3.151072 1_555
Ge0 Ni0 2.331443 1_565
Ge0 Ni1 2.331443 1_655
Ge0 Ni0 2.331447 1_555
Ge0 Ni1 2.331447 1_555
Ge0 Ge1 2.495091 1_554
Ge0 Ho0 3.107406 1_665
Ge0 Ho0 3.107408 1_655
Ge0 Ho0 3.107408 1_565
Ge0 Ho0 3.107411 1_555
Ge1 Ni1 2.331443 1_545
Ge1 Ni0 2.331443 1_455
Ge1 Ni1 2.331447 1_555
Ge1 Ni0 2.331447 1_555
Ge1 Ho0 3.107406 1_556
Ge1 Ho0 3.107408 1_566
Ge1 Ho0 3.107408 1_656
Ge1 Ho0 3.107411 1_666
