# generated using pymatgen
data_KNbO3
_symmetry_space_group_name_H-M   'P 1'
_cell_length_a   4.01297268
_cell_length_b   4.01297268
_cell_length_c   4.11029183
_cell_angle_alpha   90.00000000
_cell_angle_beta   90.00000000
_cell_angle_gamma   90.00000000
_symmetry_Int_Tables_number   1
_chemical_formula_structural   KNbO3
_chemical_formula_sum   'K1 Nb1 O3'
_cell_volume   66.19193301
_cell_formula_units_Z   1
loop_
 _symmetry_equiv_pos_site_id
 _symmetry_equiv_pos_as_xyz
  1  'x, y, z'
loop_
 _atom_site_type_symbol
 _atom_site_label
 _atom_site_symmetry_multiplicity
 _atom_site_fract_x
 _atom_site_fract_y
 _atom_site_fract_z
 _atom_site_occupancy
  K  K0  1  0.50000000  0.50000000  0.49995451  1
  Nb  Nb0  1  -0.00000000  0.00000000  0.01491577  1
  O  O0  1  0.50000000  0.00000000  0.97414234  1
  O  O1  1  -0.00000000  0.50000000  0.97414234  1
  O  O2  1  -0.00000000  0.00000000  0.47164604  1
loop_
_geom_bond_atom_site_label_1
_geom_bond_atom_site_label_2
_geom_bond_distance
_geom_bond_site_symmetry_2
K0 O1 2.797282 1_655
K0 O1 2.797282 1_555
K0 O0 2.797282 1_555
K0 O0 2.797282 1_565
K0 O2 2.839985 1_565
K0 O2 2.839985 1_665
K0 O2 2.839985 1_555
K0 O2 2.839985 1_655
K0 O0 2.949060 1_554
K0 O1 2.949060 1_654
K0 O1 2.949060 1_554
K0 O0 2.949060 1_564
Nb0 O2 1.877295 1_555
Nb0 O0 2.013473 1_454
Nb0 O1 2.013473 1_554
Nb0 O1 2.013473 1_544
Nb0 O0 2.013473 1_554
Nb0 O2 2.232997 1_554
