# generated using pymatgen
data_Yb(MnSb)2
_symmetry_space_group_name_H-M   'P 1'
_cell_length_a   4.45226424
_cell_length_b   4.45226424
_cell_length_c   7.58971600
_cell_angle_alpha   90.00000000
_cell_angle_beta   90.00000000
_cell_angle_gamma   120.00000350
_symmetry_Int_Tables_number   1
_chemical_formula_structural   Yb(MnSb)2
_chemical_formula_sum   'Yb1 Mn2 Sb2'
_cell_volume   130.29207603
_cell_formula_units_Z   1
loop_
 _symmetry_equiv_pos_site_id
 _symmetry_equiv_pos_as_xyz
  1  'x, y, z'
loop_
 _atom_site_type_symbol
 _atom_site_label
 _atom_site_symmetry_multiplicity
 _atom_site_fract_x
 _atom_site_fract_y
 _atom_site_fract_z
 _atom_site_occupancy
  Yb  Yb0  1  0.00000000  0.00000000  0.00000000  1
  Mn  Mn0  1  0.66666700  0.33333300  0.38047500  1
  Mn  Mn1  1  0.33333300  0.66666700  0.61952500  1
  Sb  Sb0  1  0.66666700  0.33333300  0.74609100  1
  Sb  Sb1  1  0.33333300  0.66666700  0.25390900  1
loop_
_geom_bond_atom_site_label_1
_geom_bond_atom_site_label_2
_geom_bond_distance
_geom_bond_site_symmetry_2
Mn0 Sb1 2.744138 1_545
Mn0 Sb1 2.744138 1_655
Mn0 Sb1 2.744145 1_555
Mn0 Sb0 2.774922 1_555
Mn1 Sb0 2.744138 1_455
Mn1 Sb0 2.744138 1_565
Mn1 Sb0 2.744145 1_555
Mn1 Sb1 2.774922 1_555
Sb0 Yb0 3.212669 1_656
Sb0 Yb0 3.212672 1_666
Sb0 Yb0 3.212672 1_556
Sb1 Yb0 3.212669 1_565
Sb1 Yb0 3.212672 1_665
Sb1 Yb0 3.212672 1_555
