# generated using pymatgen
data_BaNdNiSbO6
_symmetry_space_group_name_H-M   'P 1'
_cell_length_a   5.78868100
_cell_length_b   5.72556900
_cell_length_c   9.87265909
_cell_angle_alpha   54.58782102
_cell_angle_beta   90.00000000
_cell_angle_gamma   90.00000000
_symmetry_Int_Tables_number   1
_chemical_formula_structural   BaNdNiSbO6
_chemical_formula_sum   'Ba2 Nd2 Ni2 Sb2 O12'
_cell_volume   266.68125727
_cell_formula_units_Z   2
loop_
 _symmetry_equiv_pos_site_id
 _symmetry_equiv_pos_as_xyz
  1  'x, y, z'
loop_
 _atom_site_type_symbol
 _atom_site_label
 _atom_site_symmetry_multiplicity
 _atom_site_fract_x
 _atom_site_fract_y
 _atom_site_fract_z
 _atom_site_occupancy
  Ba  Ba0  1  0.74049500  0.24842200  0.25061600  1
  Ba  Ba1  1  0.25950500  0.24842200  0.75061600  1
  Nd  Nd0  1  0.20444500  0.76608600  0.25204400  1
  Nd  Nd1  1  0.79555500  0.76608600  0.75204400  1
  Ni  Ni0  1  0.25869400  0.50257000  0.00062400  1
  Ni  Ni1  1  0.74130600  0.50257000  0.50062400  1
  Sb  Sb0  1  0.25590100  0.00073600  0.49989900  1
  Sb  Sb1  1  0.74409900  0.00073600  0.99989900  1
  O  O0  1  0.21597400  0.70727000  0.74496800  1
  O  O1  1  0.99455100  0.79755500  0.96126500  1
  O  O2  1  0.00830900  0.21391700  0.53216700  1
  O  O3  1  0.99169100  0.21391700  0.03216700  1
  O  O4  1  0.00544900  0.79755500  0.46126500  1
  O  O5  1  0.78402600  0.70727000  0.24496800  1
  O  O6  1  0.73921400  0.34325000  0.75789200  1
  O  O7  1  0.53296700  0.15186700  0.54904400  1
  O  O8  1  0.54225100  0.76832600  0.95148000  1
  O  O9  1  0.45774900  0.76832600  0.45148000  1
  O  O10  1  0.46703300  0.15186700  0.04904400  1
  O  O11  1  0.26078600  0.34325000  0.25789200  1
loop_
_geom_bond_atom_site_label_1
_geom_bond_atom_site_label_2
_geom_bond_distance
_geom_bond_site_symmetry_2
Ba0 O5 2.607458 1_555
Ba0 O4 2.668263 1_645
Ba0 O3 2.701562 1_555
Ba0 O9 2.801807 1_545
Ba0 O10 2.836681 1_555
Ba0 O11 2.838349 1_555
Ba0 O7 2.922619 1_555
Ba0 O8 2.951544 1_554
Ba0 O11 3.068563 1_655
Ba0 O2 3.087476 1_655
Ba0 O1 3.130463 1_554
Ba0 O5 3.141167 1_545
Ba1 O0 2.607458 1_555
Ba1 O1 2.668263 1_445
Ba1 O2 2.701562 1_555
Ba1 O8 2.801807 1_545
Ba1 O7 2.836681 1_555
Ba1 O6 2.838349 1_555
Ba1 O10 2.922619 1_556
Ba1 O9 2.951544 1_555
Ba1 O6 3.068563 1_455
Ba1 O3 3.087476 1_456
Ba1 O4 3.130463 1_555
Ba1 O0 3.141167 1_545
Nd0 O11 2.410154 1_555
Nd0 O9 2.460949 1_555
Nd0 O4 2.461153 1_555
Nd0 O5 2.463393 1_455
Nd0 O10 2.464903 1_565
Nd0 O3 2.520516 1_465
Nd0 O2 2.966429 1_555
Nd1 O6 2.410154 1_555
Nd1 O8 2.460949 1_555
Nd1 O1 2.461153 1_555
Nd1 O0 2.463393 1_655
Nd1 O7 2.464903 1_565
Nd1 O2 2.520516 1_665
Nd1 O3 2.966429 1_556
Ni0 O0 2.092156 1_554
Ni0 O8 2.095083 1_554
Ni0 O1 2.140315 1_454
Ni0 O11 2.144378 1_555
Ni0 O10 2.145348 1_555
Ni0 O3 2.149607 1_455
Ni1 O5 2.092156 1_555
Ni1 O9 2.095083 1_555
Ni1 O4 2.140315 1_655
Ni1 O6 2.144378 1_555
Ni1 O7 2.145348 1_555
Ni1 O2 2.149607 1_655
O0 Sb0 2.004796 1_565
O1 Sb1 2.028526 1_565
O2 Sb0 2.023881 1_555
O3 Sb1 2.023881 1_554
O4 Sb0 2.028526 1_565
O5 Sb1 2.004796 1_564
O6 Sb1 2.031031 1_555
O7 Sb0 2.010735 1_555
O8 Sb1 2.025248 1_565
O9 Sb0 2.025248 1_565
O10 Sb1 2.010735 1_554
O11 Sb0 2.031031 1_555
