# generated using pymatgen
data_Cs2KZrOF5
_symmetry_space_group_name_H-M   'P 1'
_cell_length_a   6.70809323
_cell_length_b   6.70809323
_cell_length_c   6.70809323
_cell_angle_alpha   120.29082599
_cell_angle_beta   120.29082599
_cell_angle_gamma   89.49700842
_symmetry_Int_Tables_number   1
_chemical_formula_structural   Cs2KZrOF5
_chemical_formula_sum   'Cs2 K1 Zr1 O1 F5'
_cell_volume   212.49603914
_cell_formula_units_Z   1
loop_
 _symmetry_equiv_pos_site_id
 _symmetry_equiv_pos_as_xyz
  1  'x, y, z'
loop_
 _atom_site_type_symbol
 _atom_site_label
 _atom_site_symmetry_multiplicity
 _atom_site_fract_x
 _atom_site_fract_y
 _atom_site_fract_z
 _atom_site_occupancy
  Cs  Cs0  1  0.24810500  0.74810500  0.50000000  1
  Cs  Cs1  1  0.74810500  0.24810500  0.50000000  1
  K  K0  1  0.50267300  0.50267300  0.00000000  1
  Zr  Zr0  1  0.98208700  0.98208700  0.00000000  1
  O  O0  1  0.78324200  0.78324200  0.00000000  1
  F  F0  1  0.78264000  0.22534900  0.00000000  1
  F  F1  1  0.78264000  0.78264000  0.55729200  1
  F  F2  1  0.22534900  0.22534900  0.44270800  1
  F  F3  1  0.21980900  0.21980900  0.00000000  1
  F  F4  1  0.22534900  0.78264000  0.00000000  1
loop_
_geom_bond_atom_site_label_1
_geom_bond_atom_site_label_2
_geom_bond_distance
_geom_bond_site_symmetry_2
Cs0 F2 3.325449 1_555
Cs0 F4 3.325452 1_556
Cs0 F0 3.325452 1_455
Cs0 F1 3.325456 1_455
Cs0 F3 3.350158 1_555
Cs0 F3 3.350158 1_566
Cs0 O0 3.356033 1_455
Cs0 O0 3.356033 1_556
Cs0 F1 3.404894 1_555
Cs0 F4 3.404897 1_555
Cs0 F0 3.404897 1_566
Cs0 F2 3.404901 1_565
Cs1 F2 3.325449 1_555
Cs1 F4 3.325452 1_545
Cs1 F0 3.325452 1_556
Cs1 F1 3.325456 1_545
Cs1 F3 3.350158 1_555
Cs1 F3 3.350158 1_656
Cs1 O0 3.356033 1_545
Cs1 O0 3.356033 1_556
Cs1 F1 3.404894 1_555
Cs1 F4 3.404897 1_656
Cs1 F0 3.404897 1_555
Cs1 F2 3.404901 1_655
K0 O0 2.673325 1_555
O0 Zr0 1.894640 1_555
F0 Zr0 2.101076 1_545
F0 K0 2.631821 1_555
F1 Zr0 2.101070 1_556
F1 K0 2.631826 1_555
F2 Zr0 2.101071 1_445
F2 K0 2.631826 1_556
F3 Zr0 2.265069 1_445
F3 K0 2.695192 1_555
F4 Zr0 2.101076 1_455
F4 K0 2.631821 1_555
