# generated using pymatgen
data_Sr2PdO3
_symmetry_space_group_name_H-M   'P 1'
_cell_length_a   3.53986739
_cell_length_b   4.00535438
_cell_length_c   6.94013108
_cell_angle_alpha   106.76975577
_cell_angle_beta   104.77529682
_cell_angle_gamma   90.00000887
_symmetry_Int_Tables_number   1
_chemical_formula_structural   Sr2PdO3
_chemical_formula_sum   'Sr2 Pd1 O3'
_cell_volume   90.81177965
_cell_formula_units_Z   1
loop_
 _symmetry_equiv_pos_site_id
 _symmetry_equiv_pos_as_xyz
  1  'x, y, z'
loop_
 _atom_site_type_symbol
 _atom_site_label
 _atom_site_symmetry_multiplicity
 _atom_site_fract_x
 _atom_site_fract_y
 _atom_site_fract_z
 _atom_site_occupancy
  Sr  Sr0  1  0.64700792  0.64699702  0.29401584  1
  Sr  Sr1  1  0.35299208  0.35300298  0.70598416  1
  Pd  Pd0  1  -0.00000000  0.00000000  0.00000000  1
  O  O0  1  0.83983060  0.83986675  0.67966221  1
  O  O1  1  0.16016940  0.16013325  0.32033779  1
  O  O2  1  -0.00000000  0.50000000  0.00000000  1
loop_
_geom_bond_atom_site_label_1
_geom_bond_atom_site_label_2
_geom_bond_distance
_geom_bond_site_symmetry_2
O0 Pd0 2.051740 1_666
O0 Sr0 2.470037 1_555
O0 Sr1 2.677953 1_565
O0 Sr1 2.677954 1_665
O0 Sr1 2.678090 1_555
O0 Sr1 2.678093 1_655
O1 Pd0 2.051740 1_555
O1 Sr1 2.470037 1_555
O1 Sr0 2.677953 1_545
O1 Sr0 2.677954 1_445
O1 Sr0 2.678090 1_555
O1 Sr0 2.678093 1_455
O2 Pd0 2.002677 1_555
O2 Pd0 2.002677 1_565
O2 Sr1 2.584361 1_454
O2 Sr0 2.584361 1_555
O2 Sr1 2.584361 1_554
O2 Sr0 2.584361 1_455
