# generated using pymatgen
data_Pr(SiRu)2
_symmetry_space_group_name_H-M   'P 1'
_cell_length_a   4.21148737
_cell_length_b   4.21148787
_cell_length_c   5.76204300
_cell_angle_alpha   111.43532251
_cell_angle_beta   111.43533042
_cell_angle_gamma   90.00000921
_symmetry_Int_Tables_number   1
_chemical_formula_structural   Pr(SiRu)2
_chemical_formula_sum   'Pr1 Si2 Ru2'
_cell_volume   87.49180418
_cell_formula_units_Z   1
loop_
 _symmetry_equiv_pos_site_id
 _symmetry_equiv_pos_as_xyz
  1  'x, y, z'
loop_
 _atom_site_type_symbol
 _atom_site_label
 _atom_site_symmetry_multiplicity
 _atom_site_fract_x
 _atom_site_fract_y
 _atom_site_fract_z
 _atom_site_occupancy
  Pr  Pr0  1  0.00000000  -0.00000000  -0.00000000  1
  Si  Si0  1  0.63838711  0.63838711  0.27677421  1
  Si  Si1  1  0.36161289  0.36161289  0.72322579  1
  Ru  Ru0  1  0.75000000  0.25000000  0.50000000  1
  Ru  Ru1  1  0.25000000  0.75000000  0.50000000  1
loop_
_geom_bond_atom_site_label_1
_geom_bond_atom_site_label_2
_geom_bond_distance
_geom_bond_site_symmetry_2
Pr0 Ru0 3.243048 1_454
Pr0 Ru1 3.243048 1_545
Pr0 Ru1 3.243049 1_444
Pr0 Ru0 3.243049 1_555
Pr0 Ru0 3.243049 1_455
Pr0 Ru1 3.243049 1_544
Pr0 Ru1 3.243049 1_555
Pr0 Ru0 3.243049 1_444
Pr0 Si0 3.276019 1_445
Pr0 Si1 3.276019 1_554
Pr0 Si1 3.276020 1_444
Pr0 Si0 3.276020 1_555
Pr0 Si0 3.276020 1_545
Pr0 Si1 3.276020 1_454
Pr0 Si1 3.276020 1_544
Pr0 Si0 3.276020 1_455
Ru0 Si1 2.376269 1_655
Ru0 Si1 2.376269 1_555
Ru0 Si0 2.376269 1_555
Ru0 Si0 2.376270 1_545
Ru1 Si0 2.376269 1_455
Ru1 Si0 2.376269 1_555
Ru1 Si1 2.376269 1_555
Ru1 Si1 2.376270 1_565
