# generated using pymatgen
data_KCu2H20N3(Cl2O)4
_symmetry_space_group_name_H-M   'P 1'
_cell_length_a   7.68043500
_cell_length_b   7.68043500
_cell_length_c   8.00730100
_cell_angle_alpha   90.00000000
_cell_angle_beta   90.00000000
_cell_angle_gamma   90.00000000
_symmetry_Int_Tables_number   1
_chemical_formula_structural   KCu2H20N3(Cl2O)4
_chemical_formula_sum   'K1 Cu2 H20 N3 Cl8 O4'
_cell_volume   472.34333360
_cell_formula_units_Z   1
loop_
 _symmetry_equiv_pos_site_id
 _symmetry_equiv_pos_as_xyz
  1  'x, y, z'
loop_
 _atom_site_type_symbol
 _atom_site_label
 _atom_site_symmetry_multiplicity
 _atom_site_fract_x
 _atom_site_fract_y
 _atom_site_fract_z
 _atom_site_occupancy
  K  K0  1  0.00000000  0.00000000  0.50000000  1
  Cu  Cu0  1  0.00000000  0.50000000  0.25098900  1
  Cu  Cu1  1  0.50000000  0.00000000  0.74901100  1
  H  H0  1  0.57167500  0.41572100  0.07456400  1
  H  H1  1  0.57196100  0.41612100  0.42546200  1
  H  H2  1  0.58387900  0.57196100  0.57453800  1
  H  H3  1  0.58427900  0.57167500  0.92543600  1
  H  H4  1  0.57384400  0.07465800  0.06646800  1
  H  H5  1  0.57355500  0.07500800  0.43130000  1
  H  H6  1  0.92534200  0.57384400  0.93353200  1
  H  H7  1  0.92499200  0.57355500  0.56870000  1
  H  H8  1  0.91628800  0.07226100  0.07436600  1
  H  H9  1  0.92773900  0.91628800  0.92563400  1
  H  H10  1  0.07226100  0.08371200  0.92563400  1
  H  H11  1  0.08371200  0.92773900  0.07436600  1
  H  H12  1  0.07465800  0.42615600  0.93353200  1
  H  H13  1  0.07500800  0.42644500  0.56870000  1
  H  H14  1  0.42615600  0.92534200  0.06646800  1
  H  H15  1  0.42644500  0.92499200  0.43130000  1
  H  H16  1  0.41572100  0.42832500  0.92543600  1
  H  H17  1  0.41612100  0.42803900  0.57453800  1
  H  H18  1  0.42832500  0.58427900  0.07456400  1
  H  H19  1  0.42803900  0.58387900  0.42546200  1
  N  N0  1  0.50000000  0.50000000  0.00000000  1
  N  N1  1  0.00000000  0.00000000  0.00000000  1
  N  N2  1  0.50000000  0.50000000  0.50000000  1
  Cl  Cl0  1  0.71348400  0.21775100  0.24784000  1
  Cl  Cl1  1  0.71437000  0.20379000  0.74604900  1
  Cl  Cl2  1  0.79621000  0.71437000  0.25395100  1
  Cl  Cl3  1  0.78224900  0.71348400  0.75216000  1
  Cl  Cl4  1  0.21775100  0.28651600  0.75216000  1
  Cl  Cl5  1  0.20379000  0.28563000  0.25395100  1
  Cl  Cl6  1  0.28563000  0.79621000  0.74604900  1
  Cl  Cl7  1  0.28651600  0.78224900  0.24784000  1
  O  O0  1  0.50000000  0.00000000  0.50333400  1
  O  O1  1  0.00000000  0.50000000  0.00555200  1
  O  O2  1  0.00000000  0.50000000  0.49666600  1
  O  O3  1  0.50000000  0.00000000  0.99444800  1
loop_
_geom_bond_atom_site_label_1
_geom_bond_atom_site_label_2
_geom_bond_distance
_geom_bond_site_symmetry_2
Cu0 O1 1.965288 1_555
Cu0 O2 1.967210 1_555
Cu1 O3 1.965288 1_555
Cu1 O0 1.967210 1_555
H0 N0 1.038517 1_555
H1 N2 1.037653 1_555
H2 N2 1.037653 1_555
H3 N0 1.038517 1_556
H4 O3 0.991476 1_554
H5 O0 0.991832 1_555
H6 O1 0.991476 1_656
H7 O2 0.991832 1_655
H8 N1 1.037296 1_655
H9 N1 1.037296 1_666
H10 N1 1.037296 1_556
H11 N1 1.037296 1_565
H12 O1 0.991476 1_556
H13 O2 0.991832 1_555
H14 O3 0.991476 1_564
H15 O0 0.991832 1_565
H16 N0 1.038517 1_556
H17 N2 1.037653 1_555
H18 N0 1.038517 1_555
H19 N2 1.037653 1_555
Cl0 K0 3.422915 1_655
Cl1 Cu1 2.271831 1_555
Cl1 K0 3.338274 1_655
Cl2 Cu0 2.271831 1_655
Cl2 K0 3.338274 1_665
Cl3 K0 3.422915 1_665
Cl4 K0 3.422915 1_555
Cl5 Cu0 2.271831 1_555
Cl5 K0 3.338274 1_555
Cl6 Cu1 2.271831 1_565
Cl6 K0 3.338274 1_565
Cl7 K0 3.422915 1_565
