# generated using pymatgen
data_LaCuS2
_symmetry_space_group_name_H-M   'P 1'
_cell_length_a   6.59342345
_cell_length_b   6.93931772
_cell_length_c   7.29905665
_cell_angle_alpha   90.00000000
_cell_angle_beta   90.00000000
_cell_angle_gamma   97.93049878
_symmetry_Int_Tables_number   1
_chemical_formula_structural   LaCuS2
_chemical_formula_sum   'La4 Cu4 S8'
_cell_volume   330.76607769
_cell_formula_units_Z   4
loop_
 _symmetry_equiv_pos_site_id
 _symmetry_equiv_pos_as_xyz
  1  'x, y, z'
loop_
 _atom_site_type_symbol
 _atom_site_label
 _atom_site_symmetry_multiplicity
 _atom_site_fract_x
 _atom_site_fract_y
 _atom_site_fract_z
 _atom_site_occupancy
  La  La0  1  0.18872160  0.80010051  0.94685694  1
  La  La1  1  0.81127840  0.69989949  0.44685694  1
  La  La2  1  0.81127840  0.19989949  0.05314306  1
  La  La3  1  0.18872160  0.30010051  0.55314306  1
  Cu  Cu0  1  0.56949847  0.04640961  0.66409556  1
  Cu  Cu1  1  0.43050153  0.95359039  0.33590444  1
  Cu  Cu2  1  0.43050153  0.45359039  0.16409556  1
  Cu  Cu3  1  0.56949847  0.54640961  0.83590444  1
  S  S0  1  0.90671154  0.00102430  0.72596473  1
  S  S1  1  0.09328846  0.49897570  0.22596473  1
  S  S2  1  0.09328846  -0.00102430  0.27403527  1
  S  S3  1  0.90671154  0.50102430  0.77403527  1
  S  S4  1  0.58646016  0.77598195  0.11621742  1
  S  S5  1  0.58646016  0.27598195  0.38378258  1
  S  S6  1  0.41353984  0.22401805  0.88378258  1
  S  S7  1  0.41353984  0.72401805  0.61621742  1
loop_
_geom_bond_atom_site_label_1
_geom_bond_atom_site_label_2
_geom_bond_distance
_geom_bond_site_symmetry_2
La0 S2 2.871081 1_566
La0 S3 2.879408 1_455
La0 S7 2.918264 1_555
La0 S1 2.924008 1_556
La0 S4 2.924814 1_556
La0 S0 2.952343 1_465
La0 S6 3.139993 1_565
La1 S3 2.871081 1_555
La1 S2 2.879408 1_665
La1 S4 2.918264 1_555
La1 S0 2.924008 1_565
La1 S7 2.924814 1_555
La1 S1 2.952343 1_655
La1 S5 3.139993 1_555
La2 S0 2.871081 1_554
La2 S1 2.879408 1_655
La2 S5 2.918264 1_555
La2 S3 2.924008 1_554
La2 S6 2.924814 1_554
La2 S2 2.952343 1_655
La2 S4 3.139993 1_545
La3 S1 2.871081 1_555
La3 S0 2.879408 1_455
La3 S6 2.918264 1_555
La3 S2 2.924008 1_555
La3 S5 2.924814 1_555
La3 S3 2.952343 1_455
La3 S7 3.139993 1_555
Cu0 S0 2.332339 1_555
Cu0 S6 2.344648 1_555
Cu0 S7 2.355777 1_545
Cu0 S5 2.586007 1_555
Cu1 S2 2.332339 1_565
Cu1 S4 2.344648 1_555
Cu1 S5 2.355777 1_565
Cu1 S7 2.586007 1_555
Cu2 S1 2.332339 1_555
Cu2 S5 2.344648 1_555
Cu2 S4 2.355777 1_555
Cu2 S6 2.586007 1_554
Cu3 S3 2.332339 1_555
Cu3 S7 2.344648 1_555
Cu3 S6 2.355777 1_555
Cu3 S4 2.586007 1_556
