# generated using pymatgen
data_Sr(MnAs)2
_symmetry_space_group_name_H-M   'P 1'
_cell_length_a   4.07630999
_cell_length_b   4.07630999
_cell_length_c   7.35146700
_cell_angle_alpha   90.00000000
_cell_angle_beta   90.00000000
_cell_angle_gamma   119.99999981
_symmetry_Int_Tables_number   1
_chemical_formula_structural   Sr(MnAs)2
_chemical_formula_sum   'Sr1 Mn2 As2'
_cell_volume   105.78864409
_cell_formula_units_Z   1
loop_
 _symmetry_equiv_pos_site_id
 _symmetry_equiv_pos_as_xyz
  1  'x, y, z'
loop_
 _atom_site_type_symbol
 _atom_site_label
 _atom_site_symmetry_multiplicity
 _atom_site_fract_x
 _atom_site_fract_y
 _atom_site_fract_z
 _atom_site_occupancy
  Sr  Sr0  1  0.00000000  0.00000000  0.00000000  1
  Mn  Mn0  1  0.66666700  0.33333300  0.38768300  1
  Mn  Mn1  1  0.33333300  0.66666700  0.61231700  1
  As  As0  1  0.66666700  0.33333300  0.71795700  1
  As  As1  1  0.33333300  0.66666700  0.28204300  1
loop_
_geom_bond_atom_site_label_1
_geom_bond_atom_site_label_2
_geom_bond_distance
_geom_bond_site_symmetry_2
As0 Mn0 2.427998 1_555
As0 Mn1 2.478281 1_545
As0 Mn1 2.478281 1_655
As0 Mn1 2.478288 1_555
As0 Sr0 3.136538 1_656
As0 Sr0 3.136540 1_556
As0 Sr0 3.136540 1_666
As1 Mn1 2.427998 1_555
As1 Mn0 2.478281 1_565
As1 Mn0 2.478281 1_455
As1 Mn0 2.478288 1_555
As1 Sr0 3.136538 1_565
As1 Sr0 3.136540 1_555
As1 Sr0 3.136540 1_665
