# generated using pymatgen
data_Zn(CrS2)2
_symmetry_space_group_name_H-M   'P 1'
_cell_length_a   7.07310476
_cell_length_b   7.07310438
_cell_length_c   7.07310597
_cell_angle_alpha   60.00000227
_cell_angle_beta   60.00000402
_cell_angle_gamma   59.99999336
_symmetry_Int_Tables_number   1
_chemical_formula_structural   Zn(CrS2)2
_chemical_formula_sum   'Zn2 Cr4 S8'
_cell_volume   250.21614210
_cell_formula_units_Z   2
loop_
 _symmetry_equiv_pos_site_id
 _symmetry_equiv_pos_as_xyz
  1  'x, y, z'
loop_
 _atom_site_type_symbol
 _atom_site_label
 _atom_site_symmetry_multiplicity
 _atom_site_fract_x
 _atom_site_fract_y
 _atom_site_fract_z
 _atom_site_occupancy
  Zn  Zn0  1  0.87500013  0.87500029  0.87499929  1
  Zn  Zn1  1  0.12499987  0.12499971  0.12500071  1
  Cr  Cr0  1  0.50000000  0.50000000  0.50000000  1
  Cr  Cr1  1  0.50000000  0.00000000  0.50000000  1
  Cr  Cr2  1  -0.00000000  0.50000000  0.50000000  1
  Cr  Cr3  1  0.50000000  0.50000000  0.00000000  1
  S  S0  1  0.74036798  0.27888638  0.74037232  1
  S  S1  1  0.74036898  0.74037132  0.74037332  1
  S  S2  1  0.25963102  0.25962868  0.72111362  1
  S  S3  1  0.25963202  0.72111362  0.25962768  1
  S  S4  1  0.25963102  0.25962868  0.25962668  1
  S  S5  1  0.74036898  0.74037132  0.27888638  1
  S  S6  1  0.27888711  0.74036930  0.74037130  1
  S  S7  1  0.72111289  0.25963070  0.25962870  1
loop_
_geom_bond_atom_site_label_1
_geom_bond_atom_site_label_2
_geom_bond_distance
_geom_bond_site_symmetry_2
Cr0 S3 2.408249 1_555
Cr0 S0 2.408249 1_555
Cr0 S2 2.408249 1_555
Cr0 S5 2.408249 1_555
Cr0 S6 2.408251 1_555
Cr0 S7 2.408251 1_555
Cr1 S5 2.408259 1_545
Cr1 S2 2.408259 1_555
Cr1 S4 2.408259 1_555
Cr1 S1 2.408259 1_545
Cr1 S7 2.408266 1_555
Cr1 S6 2.408266 1_545
Cr2 S5 2.408271 1_455
Cr2 S2 2.408271 1_555
Cr2 S1 2.408271 1_455
Cr2 S4 2.408271 1_555
Cr2 S0 2.408277 1_455
Cr2 S3 2.408277 1_555
Cr3 S4 2.408249 1_555
Cr3 S1 2.408249 1_554
Cr3 S0 2.408254 1_554
Cr3 S3 2.408254 1_555
Cr3 S7 2.408256 1_555
Cr3 S6 2.408256 1_554
S0 Zn0 2.332509 1_545
S1 Zn0 2.332509 1_555
S2 Zn1 2.332515 1_556
S3 Zn1 2.332509 1_565
S4 Zn1 2.332509 1_555
S5 Zn0 2.332515 1_554
S6 Zn0 2.332514 1_455
S7 Zn1 2.332514 1_655
