# generated using pymatgen
data_NaSi2Pd3
_symmetry_space_group_name_H-M   'P 1'
_cell_length_a   5.70868994
_cell_length_b   6.66585988
_cell_length_c   6.66585967
_cell_angle_alpha   63.89167230
_cell_angle_beta   64.64640426
_cell_angle_gamma   64.64639516
_symmetry_Int_Tables_number   1
_chemical_formula_structural   NaSi2Pd3
_chemical_formula_sum   'Na2 Si4 Pd6'
_cell_volume   196.64691624
_cell_formula_units_Z   2
loop_
 _symmetry_equiv_pos_site_id
 _symmetry_equiv_pos_as_xyz
  1  'x, y, z'
loop_
 _atom_site_type_symbol
 _atom_site_label
 _atom_site_symmetry_multiplicity
 _atom_site_fract_x
 _atom_site_fract_y
 _atom_site_fract_z
 _atom_site_occupancy
  Na  Na0  1  0.95485456  1.00000000  0.00000000  1
  Na  Na1  1  0.01843882  0.50000000  0.50000000  1
  Si  Si0  1  0.38279386  0.69010956  0.69010956  1
  Si  Si1  1  0.28294011  0.15610424  0.15610424  1
  Si  Si2  1  0.76301198  0.30989044  0.30989044  1
  Si  Si3  1  0.59514759  0.84389576  0.84389576  1
  Pd  Pd0  1  0.49545655  0.04984409  0.45128402  1
  Pd  Pd1  1  0.49545655  0.45128402  0.04984409  1
  Pd  Pd2  1  0.99658367  0.95015591  0.54871598  1
  Pd  Pd3  1  0.50186581  0.28292233  0.71707767  1
  Pd  Pd4  1  0.50186581  0.71707767  0.28292233  1
  Pd  Pd5  1  0.99658367  0.54871598  0.95015591  1
loop_
_geom_bond_atom_site_label_1
_geom_bond_atom_site_label_2
_geom_bond_distance
_geom_bond_site_symmetry_2
Na0 Pd1 3.068316 1_565
Na0 Pd0 3.068317 1_565
Na0 Pd2 3.068318 1_554
Na0 Pd5 3.068318 1_554
Na0 Si2 3.100688 1_565
Na0 Si0 3.100689 1_654
Na0 Si3 3.156672 1_654
Na0 Si1 3.156677 1_665
Na0 Pd3 3.266536 1_564
Na0 Pd4 3.266536 1_555
Na0 Si1 3.315885 1_565
Na0 Si3 3.315890 1_554
Na1 Pd5 3.102803 1_455
Na1 Pd2 3.102803 1_455
Na1 Pd0 3.102805 1_555
Na1 Pd1 3.102806 1_555
Na1 Si0 3.149034 1_455
Na1 Si2 3.149038 1_455
Na1 Pd3 3.156096 1_555
Na1 Pd4 3.156096 1_555
Na1 Pd4 3.322821 1_455
Na1 Pd3 3.322821 1_455
Na1 Si1 3.389129 1_555
Na1 Si3 3.389130 1_455
Si0 Si3 2.573859 1_555
Si1 Si2 2.573868 1_455
Pd0 Si0 2.404617 1_545
Pd0 Si2 2.413020 1_555
Pd0 Si1 2.434513 1_555
Pd0 Si3 2.549897 1_545
Pd1 Si0 2.404617 1_554
Pd1 Si2 2.413020 1_555
Pd1 Si1 2.434513 1_555
Pd1 Si3 2.549898 1_554
Pd2 Si2 2.404617 1_565
Pd2 Si0 2.413029 1_655
Pd2 Si3 2.434513 1_555
Pd2 Si1 2.549903 1_665
Pd3 Si2 2.440628 1_555
Pd3 Si0 2.440629 1_555
Pd3 Si1 2.536935 1_556
Pd3 Si3 2.536935 1_545
Pd4 Si2 2.440628 1_555
Pd4 Si0 2.440629 1_555
Pd4 Si1 2.536935 1_565
Pd4 Si3 2.536935 1_554
Pd5 Si2 2.404617 1_556
Pd5 Si0 2.413029 1_655
Pd5 Si3 2.434513 1_555
Pd5 Si1 2.549902 1_656
