# generated using pymatgen
data_Gd2SO2
_symmetry_space_group_name_H-M   'P 1'
_cell_length_a   3.85490617
_cell_length_b   3.85490600
_cell_length_c   6.66746081
_cell_angle_alpha   90.00000000
_cell_angle_beta   90.00000000
_cell_angle_gamma   120.00000157
_symmetry_Int_Tables_number   1
_chemical_formula_structural   Gd2SO2
_chemical_formula_sum   'Gd2 S1 O2'
_cell_volume   85.80620612
_cell_formula_units_Z   1
loop_
 _symmetry_equiv_pos_site_id
 _symmetry_equiv_pos_as_xyz
  1  'x, y, z'
loop_
 _atom_site_type_symbol
 _atom_site_label
 _atom_site_symmetry_multiplicity
 _atom_site_fract_x
 _atom_site_fract_y
 _atom_site_fract_z
 _atom_site_occupancy
  Gd  Gd0  1  0.66666700  0.33333300  0.71874026  1
  Gd  Gd1  1  0.33333300  0.66666700  0.28125974  1
  S  S0  1  -0.00000000  0.00000000  -0.00000000  1
  O  O0  1  0.33333300  0.66666700  0.62912146  1
  O  O1  1  0.66666700  0.33333300  0.37087854  1
loop_
_geom_bond_atom_site_label_1
_geom_bond_atom_site_label_2
_geom_bond_distance
_geom_bond_site_symmetry_2
Gd0 O0 2.304445 1_545
Gd0 O0 2.304445 1_655
Gd0 O0 2.304451 1_555
Gd0 O1 2.319354 1_555
Gd0 S0 2.910349 1_656
Gd0 S0 2.910351 1_666
Gd0 S0 2.910351 1_556
Gd1 O1 2.304445 1_565
Gd1 O1 2.304445 1_455
Gd1 O1 2.304451 1_555
Gd1 O0 2.319354 1_555
Gd1 S0 2.910349 1_565
Gd1 S0 2.910351 1_555
Gd1 S0 2.910351 1_665
