# generated using pymatgen
data_Ca3AsN
_symmetry_space_group_name_H-M   'P 1'
_cell_length_a   6.72350532
_cell_length_b   6.71622716
_cell_length_c   9.52706106
_cell_angle_alpha   90.00000000
_cell_angle_beta   90.00000000
_cell_angle_gamma   90.00000000
_symmetry_Int_Tables_number   1
_chemical_formula_structural   Ca3AsN
_chemical_formula_sum   'Ca12 As4 N4'
_cell_volume   430.20958105
_cell_formula_units_Z   4
loop_
 _symmetry_equiv_pos_site_id
 _symmetry_equiv_pos_as_xyz
  1  'x, y, z'
loop_
 _atom_site_type_symbol
 _atom_site_label
 _atom_site_symmetry_multiplicity
 _atom_site_fract_x
 _atom_site_fract_y
 _atom_site_fract_z
 _atom_site_occupancy
  Ca  Ca0  1  0.50766610  0.95509763  0.75000000  1
  Ca  Ca1  1  0.00766610  0.54490237  0.75000000  1
  Ca  Ca2  1  0.99233390  0.45509863  0.25000000  1
  Ca  Ca3  1  0.49233390  0.04490237  0.25000000  1
  Ca  Ca4  1  0.71683061  0.28311997  0.97660947  1
  Ca  Ca5  1  0.21683061  0.21688003  0.52339053  1
  Ca  Ca6  1  0.78316939  0.78311997  0.02339053  1
  Ca  Ca7  1  0.28316939  0.71688003  0.47660947  1
  Ca  Ca8  1  0.28316939  0.71688003  0.02339053  1
  Ca  Ca9  1  0.78316939  0.78311997  0.47660947  1
  Ca  Ca10  1  0.21683061  0.21688003  0.97660947  1
  Ca  Ca11  1  0.71683061  0.28311997  0.52339053  1
  As  As0  1  0.02039733  0.99707869  0.25000000  1
  As  As1  1  0.52039733  0.50292131  0.25000000  1
  As  As2  1  0.47960267  0.49707869  0.75000000  1
  As  As3  1  0.97960267  0.00292131  0.75000000  1
  N  N0  1  0.00000000  0.50000000  0.50000000  1
  N  N1  1  0.50000000  0.00000000  0.00000000  1
  N  N2  1  0.50000000  0.00000000  0.50000000  1
  N  N3  1  0.00000000  0.50000000  0.00000000  1
loop_
_geom_bond_atom_site_label_1
_geom_bond_atom_site_label_2
_geom_bond_distance
_geom_bond_site_symmetry_2
Ca0 N2 2.401335 1_565
Ca0 N1 2.401335 1_566
Ca1 N0 2.401335 1_555
Ca1 N3 2.401335 1_556
Ca2 N3 2.401334 1_655
Ca2 N0 2.401334 1_655
Ca3 N1 2.401335 1_555
Ca3 N2 2.401335 1_555
Ca4 N1 2.406390 1_556
Ca4 N3 2.407527 1_656
Ca5 N0 2.406390 1_555
Ca5 N2 2.407527 1_555
Ca6 N3 2.406390 1_655
Ca6 N1 2.407527 1_565
Ca7 N2 2.406390 1_565
Ca7 N0 2.407527 1_555
Ca8 N1 2.406390 1_565
Ca8 N3 2.407527 1_555
Ca9 N0 2.406390 1_655
Ca9 N2 2.407527 1_565
Ca10 N3 2.406390 1_556
Ca10 N1 2.407527 1_556
Ca11 N2 2.406390 1_555
Ca11 N0 2.407527 1_655
As0 Ca6 3.044657 1_455
As0 Ca9 3.044657 1_455
As0 Ca2 3.081947 1_465
As0 Ca3 3.189283 1_565
As0 Ca10 3.272241 1_564
As0 Ca5 3.272241 1_565
As0 Ca8 3.365087 1_555
As0 Ca7 3.365087 1_555
As0 Ca3 3.564936 1_465
As0 Ca2 3.644948 1_455
As1 Ca8 3.044657 1_555
As1 Ca7 3.044657 1_555
As1 Ca3 3.081941 1_555
As1 Ca2 3.189282 1_555
As1 Ca11 3.272241 1_555
As1 Ca4 3.272241 1_554
As1 Ca9 3.365087 1_555
As1 Ca6 3.365087 1_555
As1 Ca2 3.564936 1_455
As1 Ca3 3.644955 1_565
As2 Ca4 3.044657 1_555
As2 Ca11 3.044657 1_555
As2 Ca0 3.081941 1_555
As2 Ca1 3.189283 1_555
As2 Ca7 3.272241 1_555
As2 Ca8 3.272241 1_556
As2 Ca10 3.365087 1_555
As2 Ca5 3.365087 1_555
As2 Ca1 3.564936 1_655
As2 Ca0 3.644955 1_545
As3 Ca10 3.044657 1_655
As3 Ca5 3.044657 1_655
As3 Ca1 3.081941 1_645
As3 Ca0 3.189283 1_545
As3 Ca6 3.272241 1_546
As3 Ca9 3.272241 1_545
As3 Ca4 3.365087 1_555
As3 Ca11 3.365087 1_555
As3 Ca0 3.564936 1_645
As3 Ca1 3.644955 1_655
