# generated using pymatgen
data_Sm3S3N
_symmetry_space_group_name_H-M   'P 1'
_cell_length_a   3.94811565
_cell_length_b   12.17627999
_cell_length_c   13.02505979
_cell_angle_alpha   90.00000000
_cell_angle_beta   90.00000000
_cell_angle_gamma   90.00000000
_symmetry_Int_Tables_number   1
_chemical_formula_structural   Sm3S3N
_chemical_formula_sum   'Sm12 S12 N4'
_cell_volume   626.15840898
_cell_formula_units_Z   4
loop_
 _symmetry_equiv_pos_site_id
 _symmetry_equiv_pos_as_xyz
  1  'x, y, z'
loop_
 _atom_site_type_symbol
 _atom_site_label
 _atom_site_symmetry_multiplicity
 _atom_site_fract_x
 _atom_site_fract_y
 _atom_site_fract_z
 _atom_site_occupancy
  Sm  Sm0  1  0.25000000  0.54533390  0.64653703  1
  Sm  Sm1  1  0.75000000  0.45466610  0.35346297  1
  Sm  Sm2  1  0.25000000  0.04533390  0.85346297  1
  Sm  Sm3  1  0.75000000  0.95466610  0.14653703  1
  Sm  Sm4  1  0.25000000  0.71547030  0.36316657  1
  Sm  Sm5  1  0.75000000  0.28452970  0.63683343  1
  Sm  Sm6  1  0.25000000  0.21547030  0.13683343  1
  Sm  Sm7  1  0.75000000  0.78452970  0.86316657  1
  Sm  Sm8  1  0.25000000  0.07329491  0.36997396  1
  Sm  Sm9  1  0.75000000  0.92670509  0.63002604  1
  Sm  Sm10  1  0.25000000  0.57329491  0.13002604  1
  Sm  Sm11  1  0.75000000  0.42670509  0.86997396  1
  S  S0  1  0.75000000  0.72606841  0.19333536  1
  S  S1  1  0.75000000  0.91148764  0.39505082  1
  S  S2  1  0.25000000  0.58851236  0.89505082  1
  S  S3  1  0.25000000  0.08851236  0.60494918  1
  S  S4  1  0.25000000  0.86535672  0.99282221  1
  S  S5  1  0.75000000  0.13464328  0.00717779  1
  S  S6  1  0.25000000  0.36535672  0.50717779  1
  S  S7  1  0.75000000  0.63464328  0.49282221  1
  S  S8  1  0.25000000  0.27393159  0.80666464  1
  S  S9  1  0.75000000  0.22606841  0.30666464  1
  S  S10  1  0.25000000  0.77393159  0.69333536  1
  S  S11  1  0.75000000  0.41148764  0.10494918  1
  N  N0  1  0.75000000  0.95993294  0.79816737  1
  N  N1  1  0.25000000  0.54006706  0.29816737  1
  N  N2  1  0.75000000  0.45993294  0.70183263  1
  N  N3  1  0.25000000  0.04006706  0.20183263  1
loop_
_geom_bond_atom_site_label_1
_geom_bond_atom_site_label_2
_geom_bond_distance
_geom_bond_site_symmetry_2
S0 Sm10 2.835009 1_555
S0 Sm10 2.835009 1_655
S0 Sm3 2.849431 1_555
S0 Sm4 2.967621 1_655
S0 Sm4 2.967621 1_555
S1 Sm8 2.808081 1_565
S1 Sm8 2.808081 1_665
S1 Sm9 3.066170 1_555
S1 Sm4 3.125061 1_655
S1 Sm4 3.125061 1_555
S1 Sm3 3.279327 1_555
S2 Sm11 2.808081 1_555
S2 Sm11 2.808081 1_455
S2 Sm10 3.066170 1_556
S2 Sm7 3.125061 1_455
S2 Sm7 3.125061 1_555
S2 Sm0 3.279327 1_555
S3 Sm9 2.808081 1_445
S3 Sm9 2.808081 1_545
S3 Sm8 3.066170 1_555
S3 Sm5 3.125061 1_455
S3 Sm5 3.125061 1_555
S3 Sm2 3.279327 1_555
S4 Sm7 2.778030 1_455
S4 Sm7 2.778030 1_555
S4 Sm2 2.845572 1_565
S4 Sm3 3.014639 1_556
S4 Sm3 3.014639 1_456
S5 Sm6 2.778030 1_655
S5 Sm6 2.778030 1_555
S5 Sm3 2.845572 1_545
S5 Sm2 3.014639 1_654
S5 Sm2 3.014639 1_554
S6 Sm5 2.778030 1_455
S6 Sm5 2.778030 1_555
S6 Sm0 2.845572 1_555
S6 Sm1 3.014639 1_455
S6 Sm1 3.014639 1_555
S7 Sm4 2.778030 1_555
S7 Sm4 2.778030 1_655
S7 Sm1 2.845572 1_555
S7 Sm0 3.014639 1_655
S7 Sm0 3.014639 1_555
S8 Sm11 2.835009 1_455
S8 Sm11 2.835009 1_555
S8 Sm2 2.849431 1_555
S8 Sm5 2.967621 1_455
S8 Sm5 2.967621 1_555
S9 Sm8 2.835009 1_655
S9 Sm8 2.835009 1_555
S9 Sm1 2.849431 1_555
S9 Sm6 2.967621 1_555
S9 Sm6 2.967621 1_655
S10 Sm9 2.835009 1_455
S10 Sm9 2.835009 1_555
S10 Sm0 2.849431 1_555
S10 Sm7 2.967621 1_455
S10 Sm7 2.967621 1_555
S11 Sm10 2.808081 1_555
S11 Sm10 2.808081 1_655
S11 Sm11 3.066170 1_554
S11 Sm6 3.125061 1_555
S11 Sm6 3.125061 1_655
S11 Sm1 3.279327 1_555
N0 Sm9 2.227110 1_555
N0 Sm7 2.297440 1_555
N0 Sm2 2.344559 1_665
N0 Sm2 2.344559 1_565
N1 Sm10 2.227110 1_555
N1 Sm4 2.297440 1_555
N1 Sm1 2.344559 1_455
N1 Sm1 2.344559 1_555
N2 Sm11 2.227110 1_555
N2 Sm5 2.297440 1_555
N2 Sm0 2.344559 1_555
N2 Sm0 2.344559 1_655
N3 Sm8 2.227110 1_555
N3 Sm6 2.297440 1_555
N3 Sm3 2.344559 1_445
N3 Sm3 2.344559 1_545
