# generated using pymatgen
data_Ga2CoS4
_symmetry_space_group_name_H-M   'P 1'
_cell_length_a   6.45268107
_cell_length_b   6.45268107
_cell_length_c   6.45268107
_cell_angle_alpha   131.58264408
_cell_angle_beta   131.58264408
_cell_angle_gamma   70.88899931
_symmetry_Int_Tables_number   1
_chemical_formula_structural   Ga2CoS4
_chemical_formula_sum   'Ga2 Co1 S4'
_cell_volume   147.21894442
_cell_formula_units_Z   1
loop_
 _symmetry_equiv_pos_site_id
 _symmetry_equiv_pos_as_xyz
  1  'x, y, z'
loop_
 _atom_site_type_symbol
 _atom_site_label
 _atom_site_symmetry_multiplicity
 _atom_site_fract_x
 _atom_site_fract_y
 _atom_site_fract_z
 _atom_site_occupancy
  Ga  Ga0  1  0.50000000  0.50000000  0.00000000  1
  Ga  Ga1  1  0.25000000  0.75000000  0.50000000  1
  Co  Co0  1  0.00000000  0.00000000  0.00000000  1
  S  S0  1  0.11366000  0.62133700  0.98852900  1
  S  S1  1  0.87486900  0.88634000  0.50767700  1
  S  S2  1  0.37866300  0.36719200  0.49232300  1
  S  S3  1  0.63280800  0.12513100  0.01147100  1
loop_
_geom_bond_atom_site_label_1
_geom_bond_atom_site_label_2
_geom_bond_distance
_geom_bond_site_symmetry_2
Ga0 S2 2.321015 1_554
Ga0 S3 2.321015 1_555
Ga0 S0 2.321015 1_554
Ga0 S1 2.321015 1_555
Ga1 S2 2.311414 1_555
Ga1 S1 2.311414 1_455
Ga1 S3 2.311414 1_566
Ga1 S0 2.311414 1_554
Co0 S3 2.274229 1_455
Co0 S1 2.274229 1_444
Co0 S0 2.274229 1_544
Co0 S2 2.274229 1_555
