# generated using pymatgen
data_CeBe13
_symmetry_space_group_name_H-M   'P 1'
_cell_length_a   7.28974312
_cell_length_b   7.28975052
_cell_length_c   7.29465979
_cell_angle_alpha   59.97773395
_cell_angle_beta   59.97770032
_cell_angle_gamma   59.98592469
_symmetry_Int_Tables_number   1
_chemical_formula_structural   CeBe13
_chemical_formula_sum   'Ce2 Be26'
_cell_volume   273.98222707
_cell_formula_units_Z   2
loop_
 _symmetry_equiv_pos_site_id
 _symmetry_equiv_pos_as_xyz
  1  'x, y, z'
loop_
 _atom_site_type_symbol
 _atom_site_label
 _atom_site_symmetry_multiplicity
 _atom_site_fract_x
 _atom_site_fract_y
 _atom_site_fract_z
 _atom_site_occupancy
  Ce  Ce0  1  0.75000000  0.75000000  0.75000000  1
  Ce  Ce1  1  0.25000000  0.25000000  0.25000000  1
  Be  Be0  1  0.93757505  0.28869507  0.71131670  1
  Be  Be1  1  0.71130493  0.06242495  0.93758682  1
  Be  Be2  1  -0.00000000  0.00000000  -0.00000000  1
  Be  Be3  1  0.50000000  0.50000000  0.50000000  1
  Be  Be4  1  0.28869507  0.93757505  0.06241318  1
  Be  Be5  1  0.56225666  0.43774334  0.78879067  1
  Be  Be6  1  0.78873873  0.21126127  0.56248440  1
  Be  Be7  1  0.56255831  0.78865924  0.21115190  1
  Be  Be8  1  0.43744169  0.21134076  0.78884810  1
  Be  Be9  1  0.43757505  0.78869507  0.56241318  1
  Be  Be10  1  0.78869507  0.43757505  0.21131670  1
  Be  Be11  1  0.06255831  0.28865924  0.93763255  1
  Be  Be12  1  0.93774334  0.06225666  0.28879067  1
  Be  Be13  1  0.71126127  0.28873873  0.06248440  1
  Be  Be14  1  0.93744169  0.71134076  0.06236745  1
  Be  Be15  1  0.71134076  0.93744169  0.28884810  1
  Be  Be16  1  0.06225666  0.93774334  0.71120933  1
  Be  Be17  1  0.28865924  0.06255831  0.71115190  1
  Be  Be18  1  0.28873873  0.71126127  0.93751560  1
  Be  Be19  1  0.78865924  0.56255831  0.43763255  1
  Be  Be20  1  0.21126127  0.78873873  0.43751560  1
  Be  Be21  1  0.21130493  0.56242495  0.78868330  1
  Be  Be22  1  0.56242495  0.21130493  0.43758682  1
  Be  Be23  1  0.43774334  0.56225666  0.21120933  1
  Be  Be24  1  0.21134076  0.43744169  0.56236745  1
  Be  Be25  1  0.06242495  0.71130493  0.28868330  1
loop_
_geom_bond_atom_site_label_1
_geom_bond_atom_site_label_2
_geom_bond_distance
_geom_bond_site_symmetry_2
Be0 Be2 2.153307 1_656
Be0 Be17 2.246265 1_655
Be0 Be16 2.246392 1_645
Be0 Be13 2.248354 1_556
Be0 Be11 2.249450 1_655
Be0 Be5 2.253598 1_555
Be0 Be6 2.253708 1_555
Be0 Be24 2.270499 1_655
Be0 Be19 2.272004 1_555
Be0 Be1 2.332139 1_555
Be0 Ce0 3.036616 1_555
Be0 Ce1 3.037873 1_655
Be1 Be2 2.153304 1_656
Be1 Be14 2.246264 1_546
Be1 Be16 2.246390 1_645
Be1 Be13 2.248355 1_556
Be1 Be15 2.249437 1_546
Be1 Be5 2.253601 1_555
Be1 Be6 2.253709 1_555
Be1 Be7 2.270504 1_546
Be1 Be8 2.272012 1_555
Be1 Ce1 3.036614 1_556
Be1 Ce0 3.037874 1_545
Be2 Be4 2.153304 1_545
Be2 Be25 2.153307 1_545
Be3 Be6 2.153181 1_555
Be3 Be9 2.153306 1_555
Be3 Be8 2.153426 1_555
Be3 Be7 2.153426 1_555
Be3 Be5 2.154940 1_555
Be4 Be8 2.270504 1_564
Be4 Be7 2.272012 1_555
Be4 Ce0 3.036614 1_554
Be4 Ce1 3.037874 1_565
Be5 Be9 2.246393 1_555
Be5 Be8 2.247882 1_555
Be5 Be6 2.334494 1_555
Be5 Ce1 3.036301 1_556
Be5 Ce0 3.036301 1_555
Be6 Be8 2.247810 1_555
Be6 Ce1 3.036108 1_655
Be6 Ce0 3.036111 1_545
Be7 Be9 2.249437 1_555
Be7 Ce1 3.037033 1_565
Be7 Ce0 3.037503 1_554
Be8 Ce0 3.037033 1_545
Be8 Ce1 3.037503 1_556
Be9 Ce1 3.036617 1_565
Be9 Ce0 3.037872 1_555
Be10 Be3 2.153305 1_555
Be10 Be7 2.246267 1_555
Be10 Be23 2.246390 1_555
Be10 Be6 2.248355 1_555
Be10 Be19 2.249451 1_555
Be10 Be12 2.253601 1_555
Be10 Be13 2.253708 1_555
Be10 Be14 2.270500 1_555
Be10 Be11 2.272003 1_654
Be10 Be22 2.332139 1_555
Be10 Ce1 3.036613 1_655
Be10 Ce0 3.037874 1_554
Be11 Be2 2.153431 1_556
Be11 Be4 2.246264 1_546
Be11 Be13 2.247812 1_456
Be11 Be12 2.247874 1_456
Be11 Be8 2.251007 1_555
Be11 Be24 2.254119 1_555
Be11 Be21 2.270500 1_555
Be11 Be17 2.333431 1_555
Be11 Ce0 3.037037 1_455
Be11 Ce1 3.037489 1_556
Be12 Be2 2.154940 1_655
Be12 Be4 2.246390 1_645
Be12 Be25 2.246392 1_645
Be12 Be15 2.247881 1_545
Be12 Be22 2.253598 1_555
Be12 Be20 2.269550 1_645
Be12 Be6 2.272744 1_555
Be12 Be13 2.334494 1_555
Be12 Ce1 3.036300 1_655
Be12 Ce0 3.036302 1_545
Be13 Be2 2.153181 1_655
Be13 Be15 2.247813 1_545
Be13 Be22 2.253708 1_555
Be13 Be23 2.269550 1_555
Be13 Be5 2.272744 1_554
Be13 Ce1 3.036108 1_555
Be13 Ce0 3.036112 1_554
Be14 Be2 2.153431 1_665
Be14 Be18 2.247812 1_654
Be14 Be16 2.247874 1_654
Be14 Be25 2.249450 1_655
Be14 Be7 2.251007 1_555
Be14 Be19 2.254119 1_555
Be14 Be21 2.272003 1_654
Be14 Be15 2.333431 1_555
Be14 Ce1 3.037037 1_655
Be14 Ce0 3.037489 1_554
Be15 Be2 2.153424 1_665
Be15 Be25 2.246265 1_655
Be15 Be19 2.251010 1_555
Be15 Be7 2.254097 1_555
Be15 Be9 2.270502 1_555
Be15 Be22 2.272013 1_565
Be15 Ce1 3.037031 1_565
Be15 Ce0 3.037503 1_555
Be16 Be2 2.154940 1_566
Be16 Be17 2.247881 1_565
Be16 Be9 2.253598 1_555
Be16 Be21 2.253601 1_555
Be16 Be6 2.269550 1_465
Be16 Be20 2.272744 1_555
Be16 Be18 2.334494 1_555
Be16 Ce0 3.036300 1_455
Be16 Ce1 3.036302 1_565
Be17 Be2 2.153424 1_556
Be17 Be18 2.247813 1_545
Be17 Be4 2.249437 1_546
Be17 Be24 2.251010 1_555
Be17 Be8 2.254097 1_555
Be17 Be22 2.270502 1_555
Be17 Be9 2.272013 1_545
Be17 Ce0 3.037031 1_545
Be17 Ce1 3.037503 1_555
Be18 Be2 2.153181 1_566
Be18 Be25 2.248354 1_556
Be18 Be4 2.248355 1_556
Be18 Be21 2.253708 1_555
Be18 Be9 2.253708 1_555
Be18 Be5 2.269550 1_555
Be18 Be23 2.272744 1_556
Be18 Ce0 3.036108 1_555
Be18 Ce1 3.036112 1_556
Be19 Be3 2.153429 1_555
Be19 Be9 2.246262 1_555
Be19 Be6 2.247815 1_555
Be19 Be5 2.247873 1_555
Be19 Be25 2.270499 1_655
Be19 Be7 2.333431 1_555
Be19 Ce1 3.037035 1_655
Be19 Ce0 3.037489 1_555
Be20 Be3 2.153181 1_555
Be20 Be7 2.247810 1_555
Be20 Be24 2.247815 1_555
Be20 Be9 2.248354 1_555
Be20 Be21 2.248355 1_555
Be20 Be25 2.253708 1_555
Be20 Be4 2.253709 1_555
Be20 Be23 2.334494 1_555
Be20 Ce0 3.036108 1_455
Be20 Ce1 3.036111 1_565
Be21 Be3 2.153305 1_555
Be21 Be8 2.246267 1_555
Be21 Be5 2.246390 1_555
Be21 Be24 2.249451 1_555
Be21 Be9 2.332139 1_555
Be21 Ce0 3.036613 1_455
Be21 Ce1 3.037874 1_556
Be22 Be3 2.153306 1_555
Be22 Be24 2.246262 1_555
Be22 Be23 2.246393 1_555
Be22 Be6 2.248354 1_555
Be22 Be8 2.249437 1_555
Be22 Ce0 3.036617 1_545
Be22 Ce1 3.037872 1_555
Be23 Be3 2.154940 1_555
Be23 Be24 2.247873 1_555
Be23 Be7 2.247882 1_555
Be23 Be25 2.253598 1_555
Be23 Be4 2.253601 1_555
Be23 Ce0 3.036301 1_554
Be23 Ce1 3.036301 1_555
Be24 Be3 2.153429 1_555
Be24 Be25 2.272004 1_555
Be24 Be8 2.333431 1_555
Be24 Ce0 3.037035 1_455
Be24 Ce1 3.037489 1_555
Be25 Be4 2.332139 1_555
Be25 Ce1 3.036616 1_555
Be25 Ce0 3.037873 1_455
