# generated using pymatgen
data_V2NiS4
_symmetry_space_group_name_H-M   'P 1'
_cell_length_a   6.28183709
_cell_length_b   6.28183709
_cell_length_c   5.84406730
_cell_angle_alpha   64.93490179
_cell_angle_beta   64.93490179
_cell_angle_gamma   29.81930180
_symmetry_Int_Tables_number   1
_chemical_formula_structural   V2NiS4
_chemical_formula_sum   'V2 Ni1 S4'
_cell_volume   103.06925068
_cell_formula_units_Z   1
loop_
 _symmetry_equiv_pos_site_id
 _symmetry_equiv_pos_as_xyz
  1  'x, y, z'
loop_
 _atom_site_type_symbol
 _atom_site_label
 _atom_site_symmetry_multiplicity
 _atom_site_fract_x
 _atom_site_fract_y
 _atom_site_fract_z
 _atom_site_occupancy
  V  V0  1  0.74181108  0.74181108  0.31055460  1
  V  V1  1  0.25818892  0.25818892  0.68944540  1
  Ni  Ni0  1  -0.00000000  -0.00000000  0.00000000  1
  S  S0  1  0.10831461  0.10831461  0.55229056  1
  S  S1  1  0.36256311  0.36256311  0.98146055  1
  S  S2  1  0.89168539  0.89168539  0.44770944  1
  S  S3  1  0.63743689  0.63743689  0.01853945  1
loop_
_geom_bond_atom_site_label_1
_geom_bond_atom_site_label_2
_geom_bond_distance
_geom_bond_site_symmetry_2
Ni0 S0 2.357587 1_554
Ni0 S2 2.357587 1_445
Ni0 S3 2.359406 1_455
Ni0 S3 2.359406 1_545
Ni0 S1 2.359406 1_454
Ni0 S1 2.359406 1_544
S0 V0 2.286343 1_545
S0 V0 2.286343 1_455
S0 V1 2.287387 1_555
S1 V0 2.447096 1_546
S1 V0 2.447096 1_456
S1 V1 2.532624 1_555
S2 V1 2.286343 1_565
S2 V1 2.286343 1_655
S2 V0 2.287387 1_555
S3 V1 2.447096 1_564
S3 V1 2.447096 1_654
S3 V0 2.532624 1_555
