# generated using pymatgen
data_CaCuAs
_symmetry_space_group_name_H-M   'P 1'
_cell_length_a   4.15812582
_cell_length_b   4.15812615
_cell_length_c   7.96860707
_cell_angle_alpha   90.00000000
_cell_angle_beta   90.00000000
_cell_angle_gamma   120.00000529
_symmetry_Int_Tables_number   1
_chemical_formula_structural   CaCuAs
_chemical_formula_sum   'Ca2 Cu2 As2'
_cell_volume   119.31864389
_cell_formula_units_Z   2
loop_
 _symmetry_equiv_pos_site_id
 _symmetry_equiv_pos_as_xyz
  1  'x, y, z'
loop_
 _atom_site_type_symbol
 _atom_site_label
 _atom_site_symmetry_multiplicity
 _atom_site_fract_x
 _atom_site_fract_y
 _atom_site_fract_z
 _atom_site_occupancy
  Ca  Ca0  1  -0.00000000  0.00000000  0.50000000  1
  Ca  Ca1  1  -0.00000000  0.00000000  0.00000000  1
  Cu  Cu0  1  0.33333300  0.66666700  0.25000000  1
  Cu  Cu1  1  0.66666700  0.33333300  0.75000000  1
  As  As0  1  0.66666700  0.33333300  0.25000000  1
  As  As1  1  0.33333300  0.66666700  0.75000000  1
loop_
_geom_bond_atom_site_label_1
_geom_bond_atom_site_label_2
_geom_bond_distance
_geom_bond_site_symmetry_2
Ca0 Cu1 3.119615 1_455
Ca0 Cu0 3.119615 1_545
Ca0 Cu0 3.119617 1_445
Ca0 Cu1 3.119617 1_555
Ca0 Cu1 3.119617 1_445
Ca0 Cu0 3.119617 1_555
Ca1 Cu1 3.119615 1_454
Ca1 Cu0 3.119615 1_545
Ca1 Cu1 3.119617 1_554
Ca1 Cu0 3.119617 1_445
Ca1 Cu1 3.119617 1_444
Ca1 Cu0 3.119617 1_555
As0 Cu0 2.400693 1_655
As0 Cu0 2.400693 1_545
As0 Cu0 2.400700 1_555
As0 Ca0 3.119615 1_655
As0 Ca1 3.119615 1_655
As0 Ca1 3.119617 1_555
As0 Ca0 3.119617 1_555
As0 Ca0 3.119617 1_665
As0 Ca1 3.119617 1_665
As1 Cu1 2.400693 1_455
As1 Cu1 2.400693 1_565
As1 Cu1 2.400700 1_555
As1 Ca0 3.119615 1_565
As1 Ca1 3.119615 1_566
As1 Ca0 3.119617 1_665
As1 Ca1 3.119617 1_666
As1 Ca1 3.119617 1_556
As1 Ca0 3.119617 1_555
