# generated using pymatgen
data_Rb2CO3
_symmetry_space_group_name_H-M   'P 1'
_cell_length_a   10.02755033
_cell_length_b   5.85857688
_cell_length_c   7.40690196
_cell_angle_alpha   81.56801265
_cell_angle_beta   90.00000000
_cell_angle_gamma   90.00000000
_symmetry_Int_Tables_number   1
_chemical_formula_structural   Rb2CO3
_chemical_formula_sum   'Rb8 C4 O12'
_cell_volume   430.43102883
_cell_formula_units_Z   4
loop_
 _symmetry_equiv_pos_site_id
 _symmetry_equiv_pos_as_xyz
  1  'x, y, z'
loop_
 _atom_site_type_symbol
 _atom_site_label
 _atom_site_symmetry_multiplicity
 _atom_site_fract_x
 _atom_site_fract_y
 _atom_site_fract_z
 _atom_site_occupancy
  Rb  Rb0  1  0.27539586  0.26236936  0.97490551  1
  Rb  Rb1  1  0.77539586  0.73763064  0.52509449  1
  Rb  Rb2  1  0.72460414  0.73763064  0.02509449  1
  Rb  Rb3  1  0.22460414  0.26236936  0.47490551  1
  Rb  Rb4  1  0.91779871  0.24057462  0.81131243  1
  Rb  Rb5  1  0.41779871  0.75942538  0.68868757  1
  Rb  Rb6  1  0.08220129  0.75942538  0.18868757  1
  Rb  Rb7  1  0.58220129  0.24057462  0.31131243  1
  C  C0  1  0.58220014  0.24870143  0.73918610  1
  C  C1  1  0.91779986  0.24870143  0.23918610  1
  C  C2  1  0.41779986  0.75129857  0.26081390  1
  C  C3  1  0.08220014  0.75129857  0.76081390  1
  O  O0  1  0.84666190  0.07045565  0.21444428  1
  O  O1  1  0.34666190  0.92954435  0.28555572  1
  O  O2  1  0.15333810  0.92954435  0.78555572  1
  O  O3  1  0.65333810  0.07045565  0.71444428  1
  O  O4  1  0.86673660  0.41231660  0.31726777  1
  O  O5  1  0.63326340  0.41231660  0.81726777  1
  O  O6  1  0.13326340  0.58768340  0.68273223  1
  O  O7  1  0.36673660  0.58768340  0.18273223  1
  O  O8  1  0.45943116  0.26278874  0.68224584  1
  O  O9  1  0.95943116  0.73721126  0.81775416  1
  O  O10  1  0.54056884  0.73721126  0.31775416  1
  O  O11  1  0.04056884  0.26278874  0.18224584  1
loop_
_geom_bond_atom_site_label_1
_geom_bond_atom_site_label_2
_geom_bond_distance
_geom_bond_site_symmetry_2
C0 O5 1.295403 1_555
C0 O3 1.299636 1_555
C0 O8 1.300006 1_555
C1 O4 1.295403 1_555
C1 O0 1.299636 1_555
C1 O11 1.300006 1_655
C2 O7 1.295403 1_555
C2 O1 1.299636 1_555
C2 O10 1.300006 1_555
C3 O6 1.295403 1_555
C3 O2 1.299636 1_555
C3 O9 1.300006 1_455
O0 Rb2 2.840610 1_545
O0 Rb1 2.879468 1_545
O0 Rb7 2.958102 1_555
O0 Rb6 3.006199 1_645
O0 Rb4 3.089553 1_554
O1 Rb3 2.840610 1_565
O1 Rb0 2.879468 1_564
O1 Rb6 2.958102 1_555
O1 Rb7 3.006199 1_565
O1 Rb5 3.089553 1_555
O2 Rb0 2.840610 1_565
O2 Rb3 2.879468 1_565
O2 Rb5 2.958102 1_555
O2 Rb4 3.006199 1_465
O2 Rb6 3.089553 1_556
O3 Rb1 2.840610 1_545
O3 Rb2 2.879468 1_546
O3 Rb4 2.958102 1_555
O3 Rb5 3.006199 1_545
O3 Rb7 3.089553 1_555
O4 Rb1 2.775120 1_555
O4 Rb2 3.022814 1_555
O4 Rb6 3.023664 1_655
O4 Rb7 3.027876 1_555
O5 Rb2 2.775120 1_556
O5 Rb1 3.022814 1_555
O5 Rb5 3.023664 1_555
O5 Rb4 3.027876 1_555
O6 Rb3 2.775120 1_555
O6 Rb0 3.022814 1_555
O6 Rb4 3.023664 1_455
O6 Rb5 3.027876 1_555
O7 Rb0 2.775120 1_554
O7 Rb3 3.022814 1_555
O7 Rb7 3.023664 1_555
O7 Rb6 3.027876 1_555
O8 Rb3 2.811483 1_555
O8 Rb0 2.846570 1_555
O8 Rb5 2.946685 1_555
O8 Rb5 2.971843 1_545
O8 Rb7 3.030832 1_555
O9 Rb2 2.811483 1_556
O9 Rb1 2.846570 1_555
O9 Rb4 2.946685 1_555
O9 Rb4 2.971843 1_565
O9 Rb6 3.030832 1_656
O10 Rb1 2.811483 1_555
O10 Rb2 2.846570 1_555
O10 Rb7 2.946685 1_555
O10 Rb7 2.971843 1_565
O10 Rb5 3.030832 1_555
O11 Rb0 2.811483 1_554
O11 Rb3 2.846570 1_555
O11 Rb6 2.946685 1_555
O11 Rb6 2.971843 1_545
O11 Rb4 3.030832 1_454
