# generated using pymatgen
data_Dy(SiNi)2
_symmetry_space_group_name_H-M   'P 1'
_cell_length_a   3.93993930
_cell_length_b   3.93993894
_cell_length_c   5.49733933
_cell_angle_alpha   110.99888680
_cell_angle_beta   110.99888748
_cell_angle_gamma   89.99999681
_symmetry_Int_Tables_number   1
_chemical_formula_structural   Dy(SiNi)2
_chemical_formula_sum   'Dy1 Si2 Ni2'
_cell_volume   73.56578883
_cell_formula_units_Z   1
loop_
 _symmetry_equiv_pos_site_id
 _symmetry_equiv_pos_as_xyz
  1  'x, y, z'
loop_
 _atom_site_type_symbol
 _atom_site_label
 _atom_site_symmetry_multiplicity
 _atom_site_fract_x
 _atom_site_fract_y
 _atom_site_fract_z
 _atom_site_occupancy
  Dy  Dy0  1  0.00000000  -0.00000000  0.00000000  1
  Si  Si0  1  0.62746558  0.62746558  0.25493215  1
  Si  Si1  1  0.37253442  0.37253442  0.74506785  1
  Ni  Ni0  1  0.75000000  0.25000000  0.50000000  1
  Ni  Ni1  1  0.25000000  0.75000000  0.50000000  1
loop_
_geom_bond_atom_site_label_1
_geom_bond_atom_site_label_2
_geom_bond_distance
_geom_bond_site_symmetry_2
Dy0 Si1 3.036639 1_444
Dy0 Si0 3.036639 1_555
Dy0 Si0 3.036641 1_455
Dy0 Si1 3.036641 1_544
Dy0 Si1 3.036641 1_454
Dy0 Si0 3.036641 1_545
Dy0 Si1 3.036644 1_554
Dy0 Si0 3.036644 1_445
Dy0 Ni0 3.081488 1_444
Dy0 Ni1 3.081488 1_555
Dy0 Ni1 3.081489 1_444
Dy0 Ni0 3.081489 1_555
Dy0 Ni1 3.081489 1_545
Dy0 Ni0 3.081489 1_454
Dy0 Ni1 3.081489 1_544
Dy0 Ni0 3.081489 1_455
Si0 Si1 2.416303 1_554
Ni0 Si0 2.286839 1_555
Ni0 Si1 2.286839 1_555
Ni0 Si0 2.286842 1_545
Ni0 Si1 2.286842 1_655
Ni1 Si1 2.286839 1_555
Ni1 Si0 2.286839 1_555
Ni1 Si1 2.286842 1_565
Ni1 Si0 2.286842 1_455
