# generated using pymatgen
data_Tl3BO3
_symmetry_space_group_name_H-M   'P 1'
_cell_length_a   9.28345655
_cell_length_b   9.28345696
_cell_length_c   3.76205605
_cell_angle_alpha   90.00000000
_cell_angle_beta   90.00000000
_cell_angle_gamma   119.99999569
_symmetry_Int_Tables_number   1
_chemical_formula_structural   Tl3BO3
_chemical_formula_sum   'Tl6 B2 O6'
_cell_volume   280.78593510
_cell_formula_units_Z   2
loop_
 _symmetry_equiv_pos_site_id
 _symmetry_equiv_pos_as_xyz
  1  'x, y, z'
loop_
 _atom_site_type_symbol
 _atom_site_label
 _atom_site_symmetry_multiplicity
 _atom_site_fract_x
 _atom_site_fract_y
 _atom_site_fract_z
 _atom_site_occupancy
  Tl  Tl0  1  0.70075114  0.64753216  0.75000000  1
  Tl  Tl1  1  0.05321898  0.70075114  0.25000000  1
  Tl  Tl2  1  0.64753216  0.94678102  0.25000000  1
  Tl  Tl3  1  0.35246784  0.05321898  0.75000000  1
  Tl  Tl4  1  0.94678102  0.29924886  0.75000000  1
  Tl  Tl5  1  0.29924886  0.35246784  0.25000000  1
  B  B0  1  0.33333300  0.66666700  0.75000000  1
  B  B1  1  0.66666700  0.33333300  0.25000000  1
  O  O0  1  0.43211923  0.83853971  0.75000000  1
  O  O1  1  0.59357953  0.43211923  0.25000000  1
  O  O2  1  0.83853971  0.40642047  0.25000000  1
  O  O3  1  0.16146029  0.59357953  0.75000000  1
  O  O4  1  0.56788077  0.16146029  0.25000000  1
  O  O5  1  0.40642047  0.56788077  0.75000000  1
loop_
_geom_bond_atom_site_label_1
_geom_bond_atom_site_label_2
_geom_bond_distance
_geom_bond_site_symmetry_2
B0 O3 1.386946 1_555
B0 O0 1.386946 1_555
B0 O5 1.386954 1_555
B1 O2 1.386946 1_555
B1 O4 1.386946 1_555
B1 O1 1.386954 1_555
O0 Tl3 2.447930 1_565
O0 Tl2 2.556877 1_556
O0 Tl2 2.556877 1_555
O1 Tl5 2.447930 1_555
O1 Tl0 2.556877 1_555
O1 Tl0 2.556877 1_554
O2 Tl1 2.447931 1_655
O2 Tl4 2.556877 1_554
O2 Tl4 2.556877 1_555
O3 Tl4 2.447931 1_455
O3 Tl1 2.556877 1_555
O3 Tl1 2.556877 1_556
O4 Tl2 2.447930 1_545
O4 Tl3 2.556877 1_554
O4 Tl3 2.556877 1_555
O5 Tl0 2.447930 1_555
O5 Tl5 2.556877 1_555
O5 Tl5 2.556877 1_556
