# generated using pymatgen
data_K(CoSe)2
_symmetry_space_group_name_H-M   'P 1'
_cell_length_a   3.89761200
_cell_length_b   3.89761200
_cell_length_c   7.21721494
_cell_angle_alpha   105.66556928
_cell_angle_beta   105.66556928
_cell_angle_gamma   90.00000000
_symmetry_Int_Tables_number   1
_chemical_formula_structural   K(CoSe)2
_chemical_formula_sum   'K1 Co2 Se2'
_cell_volume   101.33060162
_cell_formula_units_Z   1
loop_
 _symmetry_equiv_pos_site_id
 _symmetry_equiv_pos_as_xyz
  1  'x, y, z'
loop_
 _atom_site_type_symbol
 _atom_site_label
 _atom_site_symmetry_multiplicity
 _atom_site_fract_x
 _atom_site_fract_y
 _atom_site_fract_z
 _atom_site_occupancy
  K  K0  1  0.00000000  0.00000000  0.00000000  1
  Co  Co0  1  0.75000000  0.25000000  0.50000000  1
  Co  Co1  1  0.25000000  0.75000000  0.50000000  1
  Se  Se0  1  0.34907400  0.34907400  0.69814800  1
  Se  Se1  1  0.65092600  0.65092600  0.30185200  1
loop_
_geom_bond_atom_site_label_1
_geom_bond_atom_site_label_2
_geom_bond_distance
_geom_bond_site_symmetry_2
K0 Se1 3.413152 1_445
K0 Se0 3.413152 1_554
K0 Se1 3.413152 1_545
K0 Se1 3.413152 1_555
K0 Se0 3.413152 1_444
K0 Se0 3.413152 1_544
K0 Se0 3.413152 1_454
K0 Se1 3.413152 1_455
Co0 Se0 2.354727 1_555
Co0 Se1 2.354727 1_555
Co0 Se0 2.354727 1_655
Co0 Se1 2.354727 1_545
Co1 Se0 2.354727 1_565
Co1 Se0 2.354727 1_555
Co1 Se1 2.354727 1_555
Co1 Se1 2.354727 1_455
