# generated using pymatgen
data_Gd2CuO4
_symmetry_space_group_name_H-M   'P 1'
_cell_length_a   3.88132894
_cell_length_b   3.88132825
_cell_length_c   6.53583058
_cell_angle_alpha   107.27312650
_cell_angle_beta   107.27313511
_cell_angle_gamma   90.00000802
_symmetry_Int_Tables_number   1
_chemical_formula_structural   Gd2CuO4
_chemical_formula_sum   'Gd2 Cu1 O4'
_cell_volume   89.35890895
_cell_formula_units_Z   1
loop_
 _symmetry_equiv_pos_site_id
 _symmetry_equiv_pos_as_xyz
  1  'x, y, z'
loop_
 _atom_site_type_symbol
 _atom_site_label
 _atom_site_symmetry_multiplicity
 _atom_site_fract_x
 _atom_site_fract_y
 _atom_site_fract_z
 _atom_site_occupancy
  Gd  Gd0  1  0.64994239  0.64994239  0.29988479  1
  Gd  Gd1  1  0.35005761  0.35005761  0.70011521  1
  Cu  Cu0  1  -0.00000000  0.00000000  -0.00000000  1
  O  O0  1  -0.00000000  0.50000000  -0.00000000  1
  O  O1  1  0.50000000  0.00000000  -0.00000000  1
  O  O2  1  0.25000000  0.75000000  0.50000000  1
  O  O3  1  0.75000000  0.25000000  0.50000000  1
loop_
_geom_bond_atom_site_label_1
_geom_bond_atom_site_label_2
_geom_bond_distance
_geom_bond_site_symmetry_2
Gd0 O3 2.274904 1_565
Gd0 O2 2.274904 1_655
Gd0 O3 2.274904 1_555
Gd0 O2 2.274904 1_555
Gd0 O1 2.632559 1_555
Gd0 O0 2.632560 1_555
Gd0 O1 2.632560 1_565
Gd0 O0 2.632560 1_655
Gd1 O2 2.274904 1_545
Gd1 O3 2.274904 1_455
Gd1 O2 2.274904 1_555
Gd1 O3 2.274904 1_555
Gd1 O1 2.632559 1_566
Gd1 O0 2.632560 1_656
Gd1 O1 2.632560 1_556
Gd1 O0 2.632560 1_556
Cu0 O0 1.940664 1_545
Cu0 O0 1.940664 1_555
Cu0 O1 1.940664 1_555
Cu0 O1 1.940664 1_455
