# generated using pymatgen
data_Dy2Fe14B
_symmetry_space_group_name_H-M   'P 1'
_cell_length_a   8.73004800
_cell_length_b   8.73004800
_cell_length_c   11.89953800
_cell_angle_alpha   90.00000000
_cell_angle_beta   90.00000000
_cell_angle_gamma   90.00000000
_symmetry_Int_Tables_number   1
_chemical_formula_structural   Dy2Fe14B
_chemical_formula_sum   'Dy8 Fe56 B4'
_cell_volume   906.90827243
_cell_formula_units_Z   4
loop_
 _symmetry_equiv_pos_site_id
 _symmetry_equiv_pos_as_xyz
  1  'x, y, z'
loop_
 _atom_site_type_symbol
 _atom_site_label
 _atom_site_symmetry_multiplicity
 _atom_site_fract_x
 _atom_site_fract_y
 _atom_site_fract_z
 _atom_site_occupancy
  Dy  Dy0  1  0.85643100  0.14356900  0.00000000  1
  Dy  Dy1  1  0.35643100  0.35643100  0.50000000  1
  Dy  Dy2  1  0.64356900  0.64356900  0.50000000  1
  Dy  Dy3  1  0.14356900  0.85643100  0.00000000  1
  Dy  Dy4  1  0.73280500  0.73280500  0.00000000  1
  Dy  Dy5  1  0.76719500  0.23280500  0.50000000  1
  Dy  Dy6  1  0.23280500  0.76719500  0.50000000  1
  Dy  Dy7  1  0.26719500  0.26719500  0.00000000  1
  Fe  Fe0  1  0.50000000  0.00000000  0.00000000  1
  Fe  Fe1  1  0.50000000  0.00000000  0.50000000  1
  Fe  Fe2  1  0.00000000  0.50000000  0.50000000  1
  Fe  Fe3  1  0.00000000  0.50000000  0.00000000  1
  Fe  Fe4  1  0.50000000  0.50000000  0.88410400  1
  Fe  Fe5  1  0.00000000  0.00000000  0.38410400  1
  Fe  Fe6  1  0.00000000  0.00000000  0.61589600  1
  Fe  Fe7  1  0.50000000  0.50000000  0.11589600  1
  Fe  Fe8  1  0.68285500  0.68285500  0.75414100  1
  Fe  Fe9  1  0.31714500  0.31714500  0.75414100  1
  Fe  Fe10  1  0.68285500  0.68285500  0.24585900  1
  Fe  Fe11  1  0.18285500  0.81714500  0.25414100  1
  Fe  Fe12  1  0.81714500  0.18285500  0.25414100  1
  Fe  Fe13  1  0.81714500  0.18285500  0.74585900  1
  Fe  Fe14  1  0.18285500  0.81714500  0.74585900  1
  Fe  Fe15  1  0.31714500  0.31714500  0.24585900  1
  Fe  Fe16  1  0.90267700  0.90267700  0.79959000  1
  Fe  Fe17  1  0.09732300  0.09732300  0.79959000  1
  Fe  Fe18  1  0.90267700  0.90267700  0.20041000  1
  Fe  Fe19  1  0.40267700  0.59732300  0.29959000  1
  Fe  Fe20  1  0.59732300  0.40267700  0.29959000  1
  Fe  Fe21  1  0.59732300  0.40267700  0.70041000  1
  Fe  Fe22  1  0.40267700  0.59732300  0.70041000  1
  Fe  Fe23  1  0.09732300  0.09732300  0.20041000  1
  Fe  Fe24  1  0.35886400  0.03704000  0.17470900  1
  Fe  Fe25  1  0.64113600  0.96296000  0.17470900  1
  Fe  Fe26  1  0.03704000  0.35886400  0.82529100  1
  Fe  Fe27  1  0.53704000  0.14113600  0.67470900  1
  Fe  Fe28  1  0.46296000  0.85886400  0.67470900  1
  Fe  Fe29  1  0.14113600  0.53704000  0.32529100  1
  Fe  Fe30  1  0.85886400  0.46296000  0.32529100  1
  Fe  Fe31  1  0.96296000  0.64113600  0.82529100  1
  Fe  Fe32  1  0.64113600  0.96296000  0.82529100  1
  Fe  Fe33  1  0.35886400  0.03704000  0.82529100  1
  Fe  Fe34  1  0.96296000  0.64113600  0.17470900  1
  Fe  Fe35  1  0.46296000  0.85886400  0.32529100  1
  Fe  Fe36  1  0.53704000  0.14113600  0.32529100  1
  Fe  Fe37  1  0.85886400  0.46296000  0.67470900  1
  Fe  Fe38  1  0.14113600  0.53704000  0.67470900  1
  Fe  Fe39  1  0.03704000  0.35886400  0.17470900  1
  Fe  Fe40  1  0.56624400  0.22448200  0.12622200  1
  Fe  Fe41  1  0.43375600  0.77551800  0.12622200  1
  Fe  Fe42  1  0.22448200  0.56624400  0.87377800  1
  Fe  Fe43  1  0.72448200  0.93375600  0.62622200  1
  Fe  Fe44  1  0.27551800  0.06624400  0.62622200  1
  Fe  Fe45  1  0.93375600  0.72448200  0.37377800  1
  Fe  Fe46  1  0.06624400  0.27551800  0.37377800  1
  Fe  Fe47  1  0.77551800  0.43375600  0.87377800  1
  Fe  Fe48  1  0.43375600  0.77551800  0.87377800  1
  Fe  Fe49  1  0.56624400  0.22448200  0.87377800  1
  Fe  Fe50  1  0.77551800  0.43375600  0.12622200  1
  Fe  Fe51  1  0.27551800  0.06624400  0.37377800  1
  Fe  Fe52  1  0.72448200  0.93375600  0.37377800  1
  Fe  Fe53  1  0.06624400  0.27551800  0.62622200  1
  Fe  Fe54  1  0.93375600  0.72448200  0.62622200  1
  Fe  Fe55  1  0.22448200  0.56624400  0.12622200  1
  B  B0  1  0.62453500  0.37546500  0.00000000  1
  B  B1  1  0.12453500  0.12453500  0.50000000  1
  B  B2  1  0.87546500  0.87546500  0.50000000  1
  B  B3  1  0.37546500  0.62453500  0.00000000  1
loop_
_geom_bond_atom_site_label_1
_geom_bond_atom_site_label_2
_geom_bond_distance
_geom_bond_site_symmetry_2
Dy0 Fe47 3.028657 1_554
Dy0 Fe50 3.028657 1_555
Dy0 Fe49 3.028657 1_554
Dy0 Fe40 3.028657 1_555
Dy0 Fe13 3.062809 1_554
Dy0 Fe12 3.062809 1_555
Dy0 Fe18 3.205122 1_545
Dy0 Fe16 3.205122 1_544
Dy0 Fe23 3.205122 1_655
Dy0 Fe17 3.205122 1_654
Dy0 Fe39 3.215708 1_655
Dy0 Fe26 3.215708 1_654
Dy0 Fe25 3.215708 1_545
Dy0 Fe32 3.215708 1_544
Dy0 Fe3 3.354601 1_655
Dy0 Fe0 3.354601 1_555
Dy1 Fe53 3.028657 1_555
Dy1 Fe44 3.028657 1_555
Dy1 Fe51 3.028657 1_555
Dy1 Fe46 3.028657 1_555
Dy1 Fe9 3.062809 1_555
Dy1 Fe15 3.062809 1_555
Dy1 Fe19 3.205122 1_555
Dy1 Fe22 3.205122 1_555
Dy1 Fe21 3.205122 1_555
Dy1 Fe20 3.205122 1_555
Dy1 Fe29 3.215708 1_555
Dy1 Fe27 3.215708 1_555
Dy1 Fe36 3.215708 1_555
Dy1 Fe38 3.215708 1_555
Dy1 Fe1 3.354601 1_555
Dy1 Fe2 3.354601 1_555
Dy2 Fe43 3.028657 1_555
Dy2 Fe54 3.028657 1_555
Dy2 Fe52 3.028657 1_555
Dy2 Fe45 3.028657 1_555
Dy2 Fe8 3.062809 1_555
Dy2 Fe10 3.062809 1_555
Dy2 Fe20 3.205122 1_555
Dy2 Fe19 3.205122 1_555
Dy2 Fe21 3.205122 1_555
Dy2 Fe22 3.205122 1_555
Dy2 Fe28 3.215708 1_555
Dy2 Fe30 3.215708 1_555
Dy2 Fe37 3.215708 1_555
Dy2 Fe35 3.215708 1_555
Dy2 Fe2 3.354601 1_655
Dy2 Fe1 3.354601 1_565
Dy3 Fe48 3.028657 1_554
Dy3 Fe42 3.028657 1_554
Dy3 Fe41 3.028657 1_555
Dy3 Fe55 3.028657 1_555
Dy3 Fe14 3.062809 1_554
Dy3 Fe11 3.062809 1_555
Dy3 Fe17 3.205122 1_564
Dy3 Fe23 3.205122 1_565
Dy3 Fe18 3.205122 1_455
Dy3 Fe16 3.205122 1_454
Dy3 Fe24 3.215708 1_565
Dy3 Fe33 3.215708 1_564
Dy3 Fe34 3.215708 1_455
Dy3 Fe31 3.215708 1_454
Dy3 Fe0 3.354601 1_565
Dy3 Fe3 3.354601 1_555
Dy4 Fe10 2.989898 1_555
Dy4 Fe8 2.989898 1_554
Dy4 Fe31 2.999940 1_554
Dy4 Fe32 2.999940 1_554
Dy4 Fe25 2.999940 1_555
Dy4 Fe34 2.999940 1_555
Dy4 Fe48 3.034933 1_554
Dy4 Fe47 3.034933 1_554
Dy4 Fe41 3.034933 1_555
Dy4 Fe50 3.034933 1_555
Dy4 Fe3 3.093830 1_655
Dy4 Fe0 3.093830 1_565
Dy4 Fe18 3.175804 1_555
Dy4 Fe16 3.175804 1_554
Dy4 Fe7 3.187982 1_555
Dy4 Fe4 3.187982 1_554
Dy5 Fe13 2.989898 1_555
Dy5 Fe12 2.989898 1_555
Dy5 Fe30 2.999940 1_555
Dy5 Fe27 2.999940 1_555
Dy5 Fe36 2.999940 1_555
Dy5 Fe37 2.999940 1_555
Dy5 Fe46 3.034933 1_655
Dy5 Fe52 3.034933 1_545
Dy5 Fe43 3.034933 1_545
Dy5 Fe53 3.034933 1_655
Dy5 Fe1 3.093830 1_555
Dy5 Fe2 3.093830 1_655
Dy5 Fe20 3.175804 1_555
Dy5 Fe21 3.175804 1_555
Dy5 Fe6 3.187982 1_655
Dy5 Fe5 3.187982 1_655
Dy6 Fe14 2.989898 1_555
Dy6 Fe11 2.989898 1_555
Dy6 Fe35 2.999940 1_555
Dy6 Fe38 2.999940 1_555
Dy6 Fe28 2.999940 1_555
Dy6 Fe29 2.999940 1_555
Dy6 Fe54 3.034933 1_455
Dy6 Fe44 3.034933 1_565
Dy6 Fe45 3.034933 1_455
Dy6 Fe51 3.034933 1_565
Dy6 Fe2 3.093830 1_555
Dy6 Fe1 3.093830 1_565
Dy6 Fe22 3.175804 1_555
Dy6 Fe19 3.175804 1_555
Dy6 Fe6 3.187982 1_565
Dy6 Fe5 3.187982 1_565
Dy7 Fe15 2.989898 1_555
Dy7 Fe9 2.989898 1_554
Dy7 Fe39 2.999940 1_555
Dy7 Fe24 2.999940 1_555
Dy7 Fe33 2.999940 1_554
Dy7 Fe26 2.999940 1_554
Dy7 Fe42 3.034933 1_554
Dy7 Fe49 3.034933 1_554
Dy7 Fe55 3.034933 1_555
Dy7 Fe40 3.034933 1_555
Dy7 Fe3 3.093830 1_555
Dy7 Fe0 3.093830 1_555
Dy7 Fe17 3.175804 1_554
Dy7 Fe23 3.175804 1_555
Dy7 Fe7 3.187982 1_555
Dy7 Fe4 3.187982 1_554
Fe0 Fe33 2.438186 1_554
Fe0 Fe32 2.438186 1_544
Fe0 Fe24 2.438186 1_555
Fe0 Fe25 2.438186 1_545
Fe0 Fe48 2.535937 1_544
Fe0 Fe41 2.535937 1_545
Fe0 Fe49 2.535937 1_554
Fe0 Fe40 2.535937 1_555
Fe1 Fe27 2.438186 1_555
Fe1 Fe36 2.438186 1_555
Fe1 Fe35 2.438186 1_545
Fe1 Fe28 2.438186 1_545
Fe1 Fe43 2.535937 1_545
Fe1 Fe44 2.535937 1_555
Fe1 Fe52 2.535937 1_545
Fe1 Fe51 2.535937 1_555
Fe2 Fe38 2.438186 1_555
Fe2 Fe29 2.438186 1_555
Fe2 Fe30 2.438186 1_455
Fe2 Fe37 2.438186 1_455
Fe2 Fe54 2.535937 1_455
Fe2 Fe53 2.535937 1_555
Fe2 Fe45 2.535937 1_455
Fe2 Fe46 2.535937 1_555
Fe3 Fe34 2.438186 1_455
Fe3 Fe31 2.438186 1_454
Fe3 Fe39 2.438186 1_555
Fe3 Fe47 2.535937 1_454
Fe3 Fe42 2.535937 1_554
Fe3 Fe50 2.535937 1_455
Fe3 Fe55 2.535937 1_555
Fe4 Fe8 2.736461 1_555
Fe4 Fe9 2.736461 1_555
Fe10 Fe34 2.613256 1_555
Fe10 Fe25 2.613256 1_555
Fe10 Fe35 2.634326 1_555
Fe10 Fe30 2.634326 1_555
Fe10 Fe19 2.636117 1_555
Fe10 Fe20 2.636117 1_555
Fe10 Fe45 2.691996 1_555
Fe10 Fe52 2.691996 1_555
Fe10 Fe41 2.722168 1_555
Fe10 Fe50 2.722168 1_555
Fe10 Fe7 2.736461 1_555
Fe10 Fe18 2.767317 1_555
Fe11 Fe35 2.613256 1_555
Fe11 Fe29 2.613256 1_555
Fe11 Fe24 2.634326 1_565
Fe11 Fe34 2.634326 1_455
Fe11 Fe18 2.636117 1_455
Fe11 Fe23 2.636117 1_565
Fe11 Fe41 2.691996 1_555
Fe11 Fe55 2.691996 1_555
Fe11 Fe45 2.722168 1_455
Fe11 Fe51 2.722168 1_565
Fe11 Fe5 2.736461 1_565
Fe11 Fe19 2.767317 1_555
Fe12 Fe30 2.613256 1_555
Fe12 Fe36 2.613256 1_555
Fe12 Fe25 2.634326 1_545
Fe12 Fe39 2.634326 1_655
Fe12 Fe18 2.636117 1_545
Fe12 Fe23 2.636117 1_655
Fe12 Fe50 2.691996 1_555
Fe12 Fe40 2.691996 1_555
Fe12 Fe52 2.722168 1_545
Fe12 Fe46 2.722168 1_655
Fe12 Fe5 2.736461 1_655
Fe12 Fe20 2.767317 1_555
Fe13 Fe37 2.613256 1_555
Fe13 Fe27 2.613256 1_555
Fe13 Fe32 2.634326 1_545
Fe13 Fe26 2.634326 1_655
Fe13 Fe16 2.636117 1_545
Fe13 Fe17 2.636117 1_655
Fe13 Fe47 2.691996 1_555
Fe13 Fe49 2.691996 1_555
Fe13 Fe43 2.722168 1_545
Fe13 Fe53 2.722168 1_655
Fe13 Fe6 2.736461 1_655
Fe13 Fe21 2.767317 1_555
Fe14 Fe28 2.613256 1_555
Fe14 Fe38 2.613256 1_555
Fe14 Fe31 2.634326 1_455
Fe14 Fe33 2.634326 1_565
Fe14 Fe16 2.636117 1_455
Fe14 Fe17 2.636117 1_565
Fe14 Fe48 2.691996 1_555
Fe14 Fe42 2.691996 1_555
Fe14 Fe54 2.722168 1_455
Fe14 Fe44 2.722168 1_565
Fe14 Fe6 2.736461 1_565
Fe14 Fe22 2.767317 1_555
Fe15 Fe39 2.613256 1_555
Fe15 Fe24 2.613256 1_555
Fe15 Fe29 2.634326 1_555
Fe15 Fe36 2.634326 1_555
Fe15 Fe19 2.636117 1_555
Fe15 Fe20 2.636117 1_555
Fe15 Fe51 2.691996 1_555
Fe15 Fe46 2.691996 1_555
Fe15 Fe55 2.722168 1_555
Fe15 Fe40 2.722168 1_555
Fe15 Fe7 2.736461 1_555
Fe15 Fe23 2.767317 1_555
Fe16 Fe31 2.363006 1_555
Fe16 Fe32 2.363006 1_555
Fe16 Fe17 2.403129 1_665
Fe16 Fe6 2.494354 1_665
Fe16 Fe54 2.598005 1_555
Fe16 Fe43 2.598005 1_555
Fe16 Fe8 2.767317 1_555
Fe17 Fe33 2.363006 1_555
Fe17 Fe26 2.363006 1_555
Fe17 Fe6 2.494354 1_555
Fe17 Fe53 2.598005 1_555
Fe17 Fe44 2.598005 1_555
Fe17 Fe9 2.767317 1_555
Fe18 Fe25 2.363006 1_555
Fe18 Fe34 2.363006 1_555
Fe18 Fe23 2.403129 1_665
Fe18 Fe5 2.494354 1_665
Fe18 Fe45 2.598005 1_555
Fe18 Fe52 2.598005 1_555
Fe19 Fe35 2.363006 1_555
Fe19 Fe29 2.363006 1_555
Fe19 Fe20 2.403129 1_555
Fe19 Fe7 2.494354 1_555
Fe19 Fe55 2.598005 1_555
Fe19 Fe41 2.598005 1_555
Fe20 Fe30 2.363006 1_555
Fe20 Fe36 2.363006 1_555
Fe20 Fe7 2.494354 1_555
Fe20 Fe50 2.598005 1_555
Fe20 Fe40 2.598005 1_555
Fe21 Fe37 2.363006 1_555
Fe21 Fe27 2.363006 1_555
Fe21 Fe22 2.403129 1_555
Fe21 Fe4 2.494354 1_555
Fe21 Fe49 2.598005 1_555
Fe21 Fe47 2.598005 1_555
Fe21 Fe8 2.636117 1_555
Fe21 Fe9 2.636117 1_555
Fe22 Fe28 2.363006 1_555
Fe22 Fe38 2.363006 1_555
Fe22 Fe4 2.494354 1_555
Fe22 Fe48 2.598005 1_555
Fe22 Fe42 2.598005 1_555
Fe22 Fe8 2.636117 1_555
Fe22 Fe9 2.636117 1_555
Fe23 Fe39 2.363006 1_555
Fe23 Fe24 2.363006 1_555
Fe23 Fe5 2.494354 1_555
Fe23 Fe51 2.598005 1_555
Fe23 Fe46 2.598005 1_555
Fe24 Fe41 2.443954 1_545
Fe24 Fe51 2.491139 1_555
Fe24 Fe40 2.507651 1_555
Fe24 Fe36 2.540892 1_555
Fe24 Fe35 2.540892 1_545
Fe24 Fe25 2.547699 1_545
Fe25 Fe40 2.443954 1_565
Fe25 Fe52 2.491139 1_555
Fe25 Fe41 2.507651 1_555
Fe25 Fe36 2.540892 1_565
Fe25 Fe35 2.540892 1_555
Fe26 Fe3 2.438186 1_556
Fe26 Fe47 2.443954 1_455
Fe26 Fe53 2.491139 1_555
Fe26 Fe42 2.507651 1_555
Fe26 Fe38 2.540892 1_555
Fe26 Fe37 2.540892 1_455
Fe26 Fe31 2.547699 1_455
Fe26 Fe9 2.613256 1_555
Fe27 Fe44 2.443954 1_555
Fe27 Fe49 2.491139 1_555
Fe27 Fe43 2.507651 1_545
Fe27 Fe33 2.540892 1_555
Fe27 Fe32 2.540892 1_545
Fe27 Fe28 2.547699 1_545
Fe27 Fe9 2.634326 1_555
Fe28 Fe43 2.443954 1_555
Fe28 Fe48 2.491139 1_555
Fe28 Fe44 2.507651 1_565
Fe28 Fe33 2.540892 1_565
Fe28 Fe32 2.540892 1_555
Fe28 Fe8 2.634326 1_555
Fe29 Fe46 2.443954 1_555
Fe29 Fe55 2.491139 1_555
Fe29 Fe45 2.507651 1_455
Fe29 Fe39 2.540892 1_555
Fe29 Fe34 2.540892 1_455
Fe29 Fe30 2.547699 1_455
Fe30 Fe45 2.443954 1_555
Fe30 Fe50 2.491139 1_555
Fe30 Fe46 2.507651 1_655
Fe30 Fe39 2.540892 1_655
Fe30 Fe34 2.540892 1_555
Fe31 Fe42 2.443954 1_655
Fe31 Fe54 2.491139 1_555
Fe31 Fe47 2.507651 1_555
Fe31 Fe38 2.540892 1_655
Fe31 Fe37 2.540892 1_555
Fe31 Fe8 2.613256 1_555
Fe32 Fe49 2.443954 1_565
Fe32 Fe43 2.491139 1_555
Fe32 Fe48 2.507651 1_555
Fe32 Fe33 2.547699 1_565
Fe32 Fe8 2.613256 1_555
Fe33 Fe48 2.443954 1_545
Fe33 Fe44 2.491139 1_555
Fe33 Fe49 2.507651 1_555
Fe33 Fe9 2.613256 1_555
Fe34 Fe55 2.443954 1_655
Fe34 Fe45 2.491139 1_555
Fe34 Fe50 2.507651 1_555
Fe34 Fe39 2.547699 1_655
Fe35 Fe52 2.443954 1_555
Fe35 Fe41 2.491139 1_555
Fe35 Fe51 2.507651 1_565
Fe35 Fe36 2.547699 1_565
Fe36 Fe51 2.443954 1_555
Fe36 Fe40 2.491139 1_555
Fe36 Fe52 2.507651 1_545
Fe37 Fe54 2.443954 1_555
Fe37 Fe47 2.491139 1_555
Fe37 Fe53 2.507651 1_655
Fe37 Fe38 2.547699 1_655
Fe37 Fe8 2.634326 1_555
Fe38 Fe53 2.443954 1_555
Fe38 Fe42 2.491139 1_555
Fe38 Fe54 2.507651 1_455
Fe38 Fe9 2.634326 1_555
Fe39 Fe50 2.443954 1_455
Fe39 Fe46 2.491139 1_555
Fe39 Fe55 2.507651 1_555
Fe42 Fe9 2.722168 1_555
Fe43 Fe8 2.691996 1_555
Fe44 Fe9 2.691996 1_555
Fe47 Fe8 2.722168 1_555
Fe48 Fe8 2.722168 1_555
Fe49 Fe9 2.722168 1_555
Fe53 Fe9 2.691996 1_555
Fe54 Fe8 2.691996 1_555
B0 Fe49 2.062104 1_554
B0 Fe40 2.062104 1_555
B0 Fe47 2.062104 1_554
B0 Fe50 2.062104 1_555
B0 Fe7 2.065414 1_555
B0 Fe4 2.065414 1_554
B0 Dy0 2.863023 1_555
B0 Dy7 3.259645 1_555
B0 Dy4 3.259645 1_555
B1 Fe53 2.062104 1_555
B1 Fe44 2.062104 1_555
B1 Fe46 2.062104 1_555
B1 Fe51 2.062104 1_555
B1 Fe5 2.065414 1_555
B1 Fe6 2.065414 1_555
B1 Dy1 2.863023 1_555
B1 Dy6 3.259645 1_545
B1 Dy5 3.259645 1_455
B2 Fe43 2.062104 1_555
B2 Fe54 2.062104 1_555
B2 Fe45 2.062104 1_555
B2 Fe52 2.062104 1_555
B2 Fe5 2.065414 1_665
B2 Fe6 2.065414 1_665
B2 Dy2 2.863023 1_555
B2 Dy6 3.259645 1_655
B2 Dy5 3.259645 1_565
B3 Fe42 2.062104 1_554
B3 Fe48 2.062104 1_554
B3 Fe55 2.062104 1_555
B3 Fe41 2.062104 1_555
B3 Fe7 2.065414 1_555
B3 Fe4 2.065414 1_554
B3 Dy3 2.863023 1_555
B3 Dy7 3.259645 1_555
B3 Dy4 3.259645 1_555
