# generated using pymatgen
data_UAs2Pd
_symmetry_space_group_name_H-M   'P 1'
_cell_length_a   3.97923544
_cell_length_b   3.97923544
_cell_length_c   9.74855634
_cell_angle_alpha   90.00000000
_cell_angle_beta   90.00000000
_cell_angle_gamma   90.00000000
_symmetry_Int_Tables_number   1
_chemical_formula_structural   UAs2Pd
_chemical_formula_sum   'U2 As4 Pd2'
_cell_volume   154.36170883
_cell_formula_units_Z   2
loop_
 _symmetry_equiv_pos_site_id
 _symmetry_equiv_pos_as_xyz
  1  'x, y, z'
loop_
 _atom_site_type_symbol
 _atom_site_label
 _atom_site_symmetry_multiplicity
 _atom_site_fract_x
 _atom_site_fract_y
 _atom_site_fract_z
 _atom_site_occupancy
  U  U0  1  0.50000000  -0.00000000  0.76479981  1
  U  U1  1  -0.00000000  0.50000000  0.23520019  1
  As  As0  1  0.50000000  0.50000000  -0.00000000  1
  As  As1  1  0.00000000  -0.00000000  -0.00000000  1
  As  As2  1  0.50000000  -0.00000000  0.31929543  1
  As  As3  1  0.00000000  0.50000000  0.68070457  1
  Pd  Pd0  1  0.50000000  0.50000000  0.50000000  1
  Pd  Pd1  1  0.00000000  0.00000000  0.50000000  1
loop_
_geom_bond_atom_site_label_1
_geom_bond_atom_site_label_2
_geom_bond_distance
_geom_bond_site_symmetry_2
As0 As1 2.813744 1_565
As0 As1 2.813744 1_655
As0 As1 2.813744 1_665
As0 As1 2.813744 1_555
As0 U1 3.035753 1_555
As0 U0 3.035753 1_564
As0 U0 3.035753 1_554
As0 U1 3.035753 1_655
As1 U1 3.035753 1_545
As1 U1 3.035753 1_555
As1 U0 3.035753 1_554
As1 U0 3.035753 1_454
As2 Pd1 2.657413 1_555
As2 Pd0 2.657413 1_555
As2 Pd0 2.657413 1_545
As2 Pd1 2.657413 1_655
As2 U1 2.930741 1_655
As2 U1 2.930741 1_645
As2 U1 2.930741 1_545
As2 U1 2.930741 1_555
As3 Pd1 2.657413 1_555
As3 Pd0 2.657413 1_455
As3 Pd1 2.657413 1_565
As3 Pd0 2.657413 1_555
As3 U0 2.930741 1_555
As3 U0 2.930741 1_465
As3 U0 2.930741 1_565
As3 U0 2.930741 1_455
Pd0 Pd1 2.813744 1_665
Pd0 Pd1 2.813744 1_555
Pd0 Pd1 2.813744 1_565
Pd0 Pd1 2.813744 1_655
Pd0 U1 3.259185 1_655
Pd0 U0 3.259185 1_555
Pd0 U1 3.259185 1_555
Pd0 U0 3.259185 1_565
Pd1 U0 3.259185 1_455
Pd1 U0 3.259185 1_555
Pd1 U1 3.259185 1_545
Pd1 U1 3.259185 1_555
