# generated using pymatgen
data_K(OsO3)2
_symmetry_space_group_name_H-M   'P 1'
_cell_length_a   7.16754676
_cell_length_b   7.16754676
_cell_length_c   7.16754676
_cell_angle_alpha   60.00000000
_cell_angle_beta   60.00000000
_cell_angle_gamma   60.00000000
_symmetry_Int_Tables_number   1
_chemical_formula_structural   K(OsO3)2
_chemical_formula_sum   'K2 Os4 O12'
_cell_volume   260.37339583
_cell_formula_units_Z   2
loop_
 _symmetry_equiv_pos_site_id
 _symmetry_equiv_pos_as_xyz
  1  'x, y, z'
loop_
 _atom_site_type_symbol
 _atom_site_label
 _atom_site_symmetry_multiplicity
 _atom_site_fract_x
 _atom_site_fract_y
 _atom_site_fract_z
 _atom_site_occupancy
  K  K0  1  0.00000000  -0.00000000  -0.00000000  1
  K  K1  1  0.25000000  0.25000000  0.25000000  1
  Os  Os0  1  0.12500000  0.62500000  0.62500000  1
  Os  Os1  1  0.62500000  0.62500000  0.62500000  1
  Os  Os2  1  0.62500000  0.12500000  0.62500000  1
  Os  Os3  1  0.62500000  0.62500000  0.12500000  1
  O  O0  1  0.55917055  0.94082945  0.55917055  1
  O  O1  1  0.30917055  0.69082945  0.30917055  1
  O  O2  1  0.55917055  0.55917055  0.94082945  1
  O  O3  1  0.94082945  0.55917055  0.55917055  1
  O  O4  1  0.55917055  0.94082945  0.94082945  1
  O  O5  1  0.94082945  0.94082945  0.55917055  1
  O  O6  1  0.94082945  0.55917055  0.94082945  1
  O  O7  1  0.69082945  0.30917055  0.30917055  1
  O  O8  1  0.30917055  0.69082945  0.69082945  1
  O  O9  1  0.69082945  0.30917055  0.69082945  1
  O  O10  1  0.30917055  0.30917055  0.69082945  1
  O  O11  1  0.69082945  0.69082945  0.30917055  1
loop_
_geom_bond_atom_site_label_1
_geom_bond_atom_site_label_2
_geom_bond_distance
_geom_bond_site_symmetry_2
K0 O10 3.133889 1_554
K0 O1 3.133889 1_545
K0 O7 3.133889 1_455
K0 O11 3.133889 1_445
K0 O8 3.133889 1_544
K0 O9 3.133889 1_454
K1 O3 3.133889 1_455
K1 O5 3.133889 1_445
K1 O6 3.133889 1_454
K1 O0 3.133889 1_545
K1 O2 3.133889 1_554
K1 O4 3.133889 1_544
O0 Os2 1.912097 1_565
O0 Os1 1.912097 1_555
O1 Os0 1.912097 1_555
O1 Os3 1.912097 1_555
O2 Os3 1.912097 1_556
O2 Os1 1.912097 1_555
O3 Os1 1.912097 1_555
O3 Os0 1.912097 1_655
O4 Os2 1.912097 1_565
O4 Os3 1.912097 1_556
O5 Os2 1.912097 1_565
O5 Os0 1.912097 1_655
O6 Os3 1.912097 1_556
O6 Os0 1.912097 1_655
O7 Os3 1.912097 1_555
O7 Os2 1.912097 1_555
O8 Os0 1.912097 1_555
O8 Os1 1.912097 1_555
O9 Os2 1.912097 1_555
O9 Os1 1.912097 1_555
O10 Os0 1.912097 1_555
O10 Os2 1.912097 1_555
O11 Os3 1.912097 1_555
O11 Os1 1.912097 1_555
