# generated using pymatgen
data_CaSc2O4
_symmetry_space_group_name_H-M   'P 1'
_cell_length_a   3.14637618
_cell_length_b   9.46110334
_cell_length_c   11.12515248
_cell_angle_alpha   90.00000000
_cell_angle_beta   90.00000000
_cell_angle_gamma   90.00000000
_symmetry_Int_Tables_number   1
_chemical_formula_structural   CaSc2O4
_chemical_formula_sum   'Ca4 Sc8 O16'
_cell_volume   331.17565487
_cell_formula_units_Z   4
loop_
 _symmetry_equiv_pos_site_id
 _symmetry_equiv_pos_as_xyz
  1  'x, y, z'
loop_
 _atom_site_type_symbol
 _atom_site_label
 _atom_site_symmetry_multiplicity
 _atom_site_fract_x
 _atom_site_fract_y
 _atom_site_fract_z
 _atom_site_occupancy
  Ca  Ca0  1  0.75000000  0.25569394  0.84715428  1
  Ca  Ca1  1  0.25000000  0.74430606  0.15284572  1
  Ca  Ca2  1  0.75000000  0.75569394  0.65284572  1
  Ca  Ca3  1  0.25000000  0.24430606  0.34715428  1
  Sc  Sc0  1  0.25000000  0.58041309  0.89305287  1
  Sc  Sc1  1  0.75000000  0.41958691  0.10694713  1
  Sc  Sc2  1  0.25000000  0.08041309  0.60694713  1
  Sc  Sc3  1  0.75000000  0.91958691  0.39305287  1
  Sc  Sc4  1  0.75000000  0.92995490  0.88755765  1
  Sc  Sc5  1  0.25000000  0.07004510  0.11244235  1
  Sc  Sc6  1  0.75000000  0.42995490  0.61244235  1
  Sc  Sc7  1  0.25000000  0.57004510  0.38755765  1
  O  O0  1  0.25000000  0.58007740  0.57562465  1
  O  O1  1  0.75000000  0.41992260  0.42437535  1
  O  O2  1  0.25000000  0.08007740  0.92437535  1
  O  O3  1  0.75000000  0.91992260  0.07562465  1
  O  O4  1  0.25000000  0.47757592  0.21618875  1
  O  O5  1  0.75000000  0.52242408  0.78381125  1
  O  O6  1  0.25000000  0.97757592  0.28381125  1
  O  O7  1  0.75000000  0.02242408  0.71618875  1
  O  O8  1  0.25000000  0.87639857  0.52396573  1
  O  O9  1  0.75000000  0.12360143  0.47603427  1
  O  O10  1  0.25000000  0.37639857  0.97603427  1
  O  O11  1  0.75000000  0.62360143  0.02396573  1
  O  O12  1  0.75000000  0.70750208  0.32790443  1
  O  O13  1  0.25000000  0.29249792  0.67209557  1
  O  O14  1  0.75000000  0.20750208  0.17209557  1
  O  O15  1  0.25000000  0.79249792  0.82790443  1
loop_
_geom_bond_atom_site_label_1
_geom_bond_atom_site_label_2
_geom_bond_distance
_geom_bond_site_symmetry_2
Ca0 O10 2.415552 1_555
Ca0 O10 2.415552 1_655
Ca0 O2 2.444102 1_555
Ca0 O2 2.444102 1_655
Ca0 O13 2.527674 1_555
Ca0 O13 2.527674 1_655
Ca0 O5 2.620108 1_555
Ca0 O7 2.644558 1_555
Ca1 O11 2.415552 1_555
Ca1 O11 2.415552 1_455
Ca1 O3 2.444102 1_455
Ca1 O3 2.444102 1_555
Ca1 O12 2.527674 1_555
Ca1 O12 2.527674 1_455
Ca1 O4 2.620108 1_555
Ca1 O6 2.644558 1_555
Ca2 O8 2.415552 1_555
Ca2 O8 2.415552 1_655
Ca2 O0 2.444102 1_655
Ca2 O0 2.444102 1_555
Ca2 O15 2.527674 1_555
Ca2 O15 2.527674 1_655
Ca2 O7 2.620108 1_565
Ca2 O5 2.644558 1_555
Ca3 O9 2.415552 1_555
Ca3 O9 2.415552 1_455
Ca3 O1 2.444102 1_455
Ca3 O1 2.444102 1_555
Ca3 O14 2.527674 1_455
Ca3 O14 2.527674 1_555
Ca3 O6 2.620108 1_545
Ca3 O4 2.644558 1_555
O0 Sc7 2.094426 1_555
O0 Sc6 2.158707 1_555
O0 Sc6 2.158707 1_455
O1 Sc6 2.094426 1_555
O1 Sc7 2.158707 1_555
O1 Sc7 2.158707 1_655
O2 Sc5 2.094426 1_556
O2 Sc4 2.158707 1_545
O2 Sc4 2.158707 1_445
O3 Sc4 2.094426 1_554
O3 Sc5 2.158707 1_565
O3 Sc5 2.158707 1_665
O4 Sc1 2.062269 1_455
O4 Sc1 2.062269 1_555
O4 Sc7 2.097652 1_555
O5 Sc0 2.062269 1_655
O5 Sc0 2.062269 1_555
O5 Sc6 2.097652 1_555
O6 Sc3 2.062269 1_555
O6 Sc3 2.062269 1_455
O6 Sc5 2.097652 1_565
O7 Sc2 2.062269 1_655
O7 Sc2 2.062269 1_555
O7 Sc4 2.097652 1_545
O8 Sc2 2.139613 1_565
O8 Sc3 2.182443 1_555
O8 Sc3 2.182443 1_455
O9 Sc3 2.139613 1_545
O9 Sc2 2.182443 1_655
O9 Sc2 2.182443 1_555
O10 Sc0 2.139613 1_555
O10 Sc1 2.182443 1_456
O10 Sc1 2.182443 1_556
O11 Sc1 2.139613 1_555
O11 Sc0 2.182443 1_654
O11 Sc0 2.182443 1_554
O12 Sc3 2.133444 1_555
O12 Sc7 2.146308 1_555
O12 Sc7 2.146308 1_655
O13 Sc2 2.133444 1_555
O13 Sc6 2.146308 1_455
O13 Sc6 2.146308 1_555
O14 Sc1 2.133444 1_555
O14 Sc5 2.146308 1_655
O14 Sc5 2.146308 1_555
O15 Sc0 2.133444 1_555
O15 Sc4 2.146308 1_555
O15 Sc4 2.146308 1_455
