# generated using pymatgen
data_CeAl5Ni2
_symmetry_space_group_name_H-M   'P 1'
_cell_length_a   3.97626102
_cell_length_b   6.23614941
_cell_length_c   6.23614996
_cell_angle_alpha   68.31905395
_cell_angle_beta   71.40918187
_cell_angle_gamma   71.40919179
_symmetry_Int_Tables_number   1
_chemical_formula_structural   CeAl5Ni2
_chemical_formula_sum   'Ce1 Al5 Ni2'
_cell_volume   132.60236892
_cell_formula_units_Z   1
loop_
 _symmetry_equiv_pos_site_id
 _symmetry_equiv_pos_as_xyz
  1  'x, y, z'
loop_
 _atom_site_type_symbol
 _atom_site_label
 _atom_site_symmetry_multiplicity
 _atom_site_fract_x
 _atom_site_fract_y
 _atom_site_fract_z
 _atom_site_occupancy
  Ce  Ce0  1  -0.00000000  0.00000000  0.00000000  1
  Al  Al0  1  -0.00000000  0.50000000  0.50000000  1
  Al  Al1  1  0.65897998  0.15175715  0.53028390  1
  Al  Al2  1  0.34102002  0.84824285  0.46971610  1
  Al  Al3  1  0.34102002  0.46971610  0.84824285  1
  Al  Al4  1  0.65897998  0.53028390  0.15175715  1
  Ni  Ni0  1  0.76116835  0.73883165  0.73883165  1
  Ni  Ni1  1  0.23883165  0.26116835  0.26116835  1
loop_
_geom_bond_atom_site_label_1
_geom_bond_atom_site_label_2
_geom_bond_distance
_geom_bond_site_symmetry_2
Ce0 Ni0 3.184245 1_444
Ce0 Ni1 3.184245 1_555
Ce0 Ni0 3.184245 1_544
Ce0 Ni1 3.184245 1_455
Al0 Ni1 2.274588 1_555
Al0 Ni0 2.274588 1_455
Al0 Ce0 3.501592 1_565
Al0 Ce0 3.501592 1_556
Al1 Ni0 2.383859 1_545
Al1 Ni1 2.507552 1_655
Al1 Ni1 2.507556 1_555
Al1 Ce0 3.313720 1_656
Al1 Ce0 3.313722 1_556
Al1 Ce0 3.507865 1_655
Al2 Ni1 2.383859 1_565
Al2 Ni0 2.507552 1_455
Al2 Ni0 2.507556 1_555
Al2 Ce0 3.313720 1_565
Al2 Ce0 3.313722 1_665
Al2 Ce0 3.507865 1_566
Al3 Ni1 2.383859 1_556
Al3 Ni0 2.507552 1_455
Al3 Ni0 2.507555 1_555
Al3 Ce0 3.313719 1_556
Al3 Ce0 3.313722 1_656
Al3 Ce0 3.507865 1_566
Al4 Ni0 2.383859 1_554
Al4 Ni1 2.507552 1_655
Al4 Ni1 2.507555 1_555
Al4 Ce0 3.313719 1_665
Al4 Ce0 3.313722 1_565
Al4 Ce0 3.507865 1_655
