# generated using pymatgen
data_Th(GePd)2
_symmetry_space_group_name_H-M   'P 1'
_cell_length_a   4.31725529
_cell_length_b   4.31725382
_cell_length_c   5.93155395
_cell_angle_alpha   111.34130889
_cell_angle_beta   111.34129301
_cell_angle_gamma   90.00000461
_symmetry_Int_Tables_number   1
_chemical_formula_structural   Th(GePd)2
_chemical_formula_sum   'Th1 Ge2 Pd2'
_cell_volume   94.79011608
_cell_formula_units_Z   1
loop_
 _symmetry_equiv_pos_site_id
 _symmetry_equiv_pos_as_xyz
  1  'x, y, z'
loop_
 _atom_site_type_symbol
 _atom_site_label
 _atom_site_symmetry_multiplicity
 _atom_site_fract_x
 _atom_site_fract_y
 _atom_site_fract_z
 _atom_site_occupancy
  Th  Th0  1  0.00000000  0.00000000  0.00000000  1
  Ge  Ge0  1  0.62126437  0.62126437  0.24252673  1
  Ge  Ge1  1  0.37873563  0.37873563  0.75747327  1
  Pd  Pd0  1  0.75000000  0.25000000  0.50000000  1
  Pd  Pd1  1  0.25000000  0.75000000  0.50000000  1
loop_
_geom_bond_atom_site_label_1
_geom_bond_atom_site_label_2
_geom_bond_distance
_geom_bond_site_symmetry_2
Ge0 Ge1 2.466819 1_554
Ge0 Pd0 2.524725 1_565
Ge0 Pd1 2.524726 1_655
Ge0 Pd0 2.524733 1_555
Ge0 Pd1 2.524733 1_555
Ge0 Th0 3.292507 1_665
Ge0 Th0 3.292513 1_655
Ge0 Th0 3.292514 1_565
Ge0 Th0 3.292519 1_555
Ge1 Pd1 2.524725 1_545
Ge1 Pd0 2.524726 1_455
Ge1 Pd1 2.524733 1_555
Ge1 Pd0 2.524733 1_555
Ge1 Th0 3.292507 1_556
Ge1 Th0 3.292513 1_566
Ge1 Th0 3.292514 1_656
Ge1 Th0 3.292519 1_666
Pd0 Th0 3.335516 1_666
Pd0 Th0 3.335516 1_655
Pd0 Th0 3.335516 1_656
Pd0 Th0 3.335517 1_555
Pd1 Th0 3.335516 1_555
Pd1 Th0 3.335516 1_566
Pd1 Th0 3.335516 1_565
Pd1 Th0 3.335517 1_666
