# generated using pymatgen
data_Ca2SiO4
_symmetry_space_group_name_H-M   'P 1'
_cell_length_a   6.81557400
_cell_length_b   5.57569900
_cell_length_c   10.52285396
_cell_angle_alpha   62.69112893
_cell_angle_beta   90.00000000
_cell_angle_gamma   90.00000000
_symmetry_Int_Tables_number   1
_chemical_formula_structural   Ca2SiO4
_chemical_formula_sum   'Ca8 Si4 O16'
_cell_volume   355.31645449
_cell_formula_units_Z   4
loop_
 _symmetry_equiv_pos_site_id
 _symmetry_equiv_pos_as_xyz
  1  'x, y, z'
loop_
 _atom_site_type_symbol
 _atom_site_label
 _atom_site_symmetry_multiplicity
 _atom_site_fract_x
 _atom_site_fract_y
 _atom_site_fract_z
 _atom_site_occupancy
  Ca  Ca0  1  0.50331600  0.48116100  0.79748500  1
  Ca  Ca1  1  0.00331600  0.51883900  0.70251500  1
  Ca  Ca2  1  0.49668400  0.51883900  0.20251500  1
  Ca  Ca3  1  0.99668400  0.48116100  0.29748500  1
  Ca  Ca4  1  0.15891600  0.20447500  0.06902600  1
  Ca  Ca5  1  0.65891600  0.79552500  0.43097400  1
  Ca  Ca6  1  0.84108400  0.79552500  0.93097400  1
  Ca  Ca7  1  0.34108400  0.20447500  0.56902600  1
  Si  Si0  1  0.71899200  0.15027800  0.08153700  1
  Si  Si1  1  0.21899200  0.84972200  0.41846300  1
  Si  Si2  1  0.28100800  0.84972200  0.91846300  1
  Si  Si3  1  0.78100800  0.15027800  0.58153700  1
  O  O0  1  0.83069700  0.22119500  0.92769100  1
  O  O1  1  0.33069700  0.77880500  0.57230900  1
  O  O2  1  0.16930300  0.77880500  0.07230900  1
  O  O3  1  0.66930300  0.22119500  0.42769100  1
  O  O4  1  0.83209300  0.35075900  0.13621800  1
  O  O5  1  0.33209300  0.64924100  0.36378200  1
  O  O6  1  0.16790700  0.64924100  0.86378200  1
  O  O7  1  0.66790700  0.35075900  0.63621800  1
  O  O8  1  0.74872100  0.82827800  0.19559800  1
  O  O9  1  0.24872100  0.17172200  0.30440200  1
  O  O10  1  0.25127900  0.17172200  0.80440200  1
  O  O11  1  0.75127900  0.82827800  0.69559800  1
  O  O12  1  0.01263200  0.22514800  0.55594500  1
  O  O13  1  0.51263200  0.77485200  0.94405500  1
  O  O14  1  0.98736800  0.77485200  0.44405500  1
  O  O15  1  0.48736800  0.22514800  0.05594500  1
loop_
_geom_bond_atom_site_label_1
_geom_bond_atom_site_label_2
_geom_bond_distance
_geom_bond_site_symmetry_2
Ca0 O7 2.408104 1_555
Ca0 O10 2.411974 1_555
Ca0 O11 2.418153 1_555
Ca0 O15 2.425718 1_556
Ca0 O1 2.478832 1_555
Ca0 O0 2.671077 1_555
Ca0 O6 2.681547 1_555
Ca0 O13 2.716945 1_555
Ca1 O6 2.408104 1_555
Ca1 O11 2.411974 1_455
Ca1 O10 2.418153 1_555
Ca1 O14 2.425718 1_455
Ca1 O0 2.478832 1_455
Ca1 O1 2.671077 1_555
Ca1 O7 2.681547 1_455
Ca1 O12 2.716945 1_555
Ca2 O5 2.408104 1_555
Ca2 O8 2.411974 1_555
Ca2 O9 2.418153 1_555
Ca2 O13 2.425718 1_554
Ca2 O3 2.478832 1_555
Ca2 O2 2.671077 1_555
Ca2 O4 2.681547 1_555
Ca2 O15 2.716945 1_555
Ca3 O4 2.408104 1_555
Ca3 O9 2.411974 1_655
Ca3 O8 2.418153 1_555
Ca3 O12 2.425718 1_655
Ca3 O2 2.478832 1_655
Ca3 O3 2.671077 1_555
Ca3 O5 2.681547 1_655
Ca3 O14 2.716945 1_555
Ca4 O15 2.242533 1_555
Ca4 O2 2.358821 1_545
Ca4 O6 2.429740 1_554
Ca4 O9 2.475403 1_555
Ca4 O4 2.579930 1_455
Ca4 O0 2.664122 1_454
Ca4 O10 2.941128 1_554
Ca5 O14 2.242533 1_555
Ca5 O3 2.358821 1_565
Ca5 O7 2.429740 1_555
Ca5 O8 2.475403 1_555
Ca5 O5 2.579930 1_555
Ca5 O1 2.664122 1_555
Ca5 O11 2.941128 1_555
Ca6 O13 2.242533 1_555
Ca6 O0 2.358821 1_565
Ca6 O4 2.429740 1_556
Ca6 O11 2.475403 1_555
Ca6 O6 2.579930 1_655
Ca6 O2 2.664122 1_656
Ca6 O8 2.941128 1_556
Ca7 O12 2.242533 1_555
Ca7 O1 2.358821 1_545
Ca7 O5 2.429740 1_555
Ca7 O10 2.475403 1_555
Ca7 O7 2.579930 1_555
Ca7 O3 2.664122 1_555
Ca7 O9 2.941128 1_555
O0 Si0 1.664165 1_556
O1 Si1 1.664165 1_555
O2 Si2 1.664165 1_554
O3 Si3 1.664165 1_555
O4 Si0 1.662828 1_555
O5 Si1 1.662828 1_555
O6 Si2 1.662828 1_555
O7 Si3 1.662828 1_555
O8 Si0 1.651589 1_565
O9 Si1 1.651589 1_545
O10 Si2 1.651589 1_545
O11 Si3 1.651589 1_565
O12 Si3 1.623506 1_455
O13 Si2 1.623506 1_555
O14 Si1 1.623506 1_655
O15 Si0 1.623506 1_555
