# generated using pymatgen
data_BaLa2TiCr2O9
_symmetry_space_group_name_H-M   'P 1'
_cell_length_a   25.27657650
_cell_length_b   25.27657650
_cell_length_c   3.96824900
_cell_angle_alpha   90.00000000
_cell_angle_beta   90.00000000
_cell_angle_gamma   167.22251744
_symmetry_Int_Tables_number   1
_chemical_formula_structural   BaLa2TiCr2O9
_chemical_formula_sum   'Ba3 La6 Ti3 Cr6 O27'
_cell_volume   560.72806974
_cell_formula_units_Z   3
loop_
 _symmetry_equiv_pos_site_id
 _symmetry_equiv_pos_as_xyz
  1  'x, y, z'
loop_
 _atom_site_type_symbol
 _atom_site_label
 _atom_site_symmetry_multiplicity
 _atom_site_fract_x
 _atom_site_fract_y
 _atom_site_fract_z
 _atom_site_occupancy
  Ba  Ba0  1  0.05708200  0.94291800  0.50000000  1
  Ba  Ba1  1  0.50000000  0.50000000  0.50000000  1
  Ba  Ba2  1  0.94291800  0.05708200  0.50000000  1
  La  La0  1  0.38659100  0.61340900  0.50000000  1
  La  La1  1  0.83335100  0.16664900  0.50000000  1
  La  La2  1  0.27735800  0.72264200  0.50000000  1
  La  La3  1  0.72264200  0.27735800  0.50000000  1
  La  La4  1  0.16664900  0.83335100  0.50000000  1
  La  La5  1  0.61340900  0.38659100  0.50000000  1
  Ti  Ti0  1  0.55722000  0.44278000  0.00000000  1
  Ti  Ti1  1  0.00000000  0.00000000  0.00000000  1
  Ti  Ti2  1  0.44278000  0.55722000  0.00000000  1
  Cr  Cr0  1  0.88775400  0.11224600  0.00000000  1
  Cr  Cr1  1  0.33250700  0.66749300  0.00000000  1
  Cr  Cr2  1  0.77756400  0.22243600  0.00000000  1
  Cr  Cr3  1  0.22243600  0.77756400  0.00000000  1
  Cr  Cr4  1  0.66749300  0.33250700  0.00000000  1
  Cr  Cr5  1  0.11224600  0.88775400  0.00000000  1
  O  O0  1  0.11498900  0.88501100  0.50000000  1
  O  O1  1  0.27814700  0.22111600  0.00000000  1
  O  O2  1  0.72185300  0.77888400  0.00000000  1
  O  O3  1  0.17861300  0.34968500  0.00000000  1
  O  O4  1  0.05587700  0.44572900  0.00000000  1
  O  O5  1  0.61014900  0.88974600  0.00000000  1
  O  O6  1  0.50000000  0.00000000  0.00000000  1
  O  O7  1  0.94412300  0.55427100  0.00000000  1
  O  O8  1  0.38985100  0.11025400  0.00000000  1
  O  O9  1  0.82138700  0.65031500  0.00000000  1
  O  O10  1  0.77888400  0.72185300  0.00000000  1
  O  O11  1  0.22111600  0.27814700  0.00000000  1
  O  O12  1  0.65031500  0.82138700  0.00000000  1
  O  O13  1  0.11025400  0.38985100  0.00000000  1
  O  O14  1  0.55427100  0.94412300  0.00000000  1
  O  O15  1  0.44572900  0.05587700  0.00000000  1
  O  O16  1  0.00000000  0.50000000  0.00000000  1
  O  O17  1  0.34968500  0.17861300  0.00000000  1
  O  O18  1  0.88974600  0.61014900  0.00000000  1
  O  O19  1  0.55845200  0.44154800  0.50000000  1
  O  O20  1  0.00000000  0.00000000  0.50000000  1
  O  O21  1  0.44154800  0.55845200  0.50000000  1
  O  O22  1  0.88501100  0.11498900  0.50000000  1
  O  O23  1  0.33330900  0.66669100  0.50000000  1
  O  O24  1  0.77716000  0.22284000  0.50000000  1
  O  O25  1  0.22284000  0.77716000  0.50000000  1
  O  O26  1  0.66669100  0.33330900  0.50000000  1
loop_
_geom_bond_atom_site_label_1
_geom_bond_atom_site_label_2
_geom_bond_distance
_geom_bond_site_symmetry_2
Ba0 O19 2.813459 1_565
Ba0 O19 2.813459 1_455
Ba0 O10 2.822819 1_456
Ba0 O10 2.822819 1_455
Ba0 O1 2.822819 1_565
Ba0 O1 2.822819 1_566
Ba0 O9 2.861492 1_455
Ba0 O9 2.861492 1_456
Ba0 O17 2.861492 1_565
Ba0 O17 2.861492 1_566
Ba0 O20 2.867754 1_565
Ba0 O0 2.909202 1_555
Ba1 O20 2.812617 1_665
Ba1 O20 2.812617 1_555
Ba1 O11 2.823583 1_555
Ba1 O11 2.823583 1_556
Ba1 O1 2.823583 1_556
Ba1 O1 2.823583 1_555
Ba1 O10 2.823583 1_556
Ba1 O10 2.823583 1_555
Ba1 O2 2.823583 1_556
Ba1 O2 2.823583 1_555
Ba1 O21 2.936582 1_555
Ba1 O19 2.936582 1_555
Ba2 O21 2.813459 1_655
Ba2 O21 2.813459 1_545
Ba2 O2 2.822819 1_545
Ba2 O2 2.822819 1_546
Ba2 O11 2.822819 1_656
Ba2 O11 2.822819 1_655
Ba2 O12 2.861492 1_546
Ba2 O12 2.861492 1_545
Ba2 O3 2.861492 1_655
Ba2 O3 2.861492 1_656
Ba2 O20 2.867754 1_655
Ba2 O22 2.909202 1_555
La0 O23 2.676845 1_555
La0 O21 2.760996 1_555
La0 O3 2.767276 1_555
La0 O3 2.767276 1_556
La0 O12 2.767276 1_556
La0 O12 2.767276 1_555
La0 O5 2.769718 1_556
La0 O13 2.769718 1_555
La0 O13 2.769718 1_556
La0 O5 2.769718 1_555
La0 O22 2.813737 1_455
La0 O22 2.813737 1_565
La1 O22 2.595357 1_555
La1 O5 2.781177 1_546
La1 O5 2.781177 1_545
La1 O13 2.781177 1_656
La1 O13 2.781177 1_655
La1 O23 2.812618 1_545
La1 O23 2.812618 1_655
La1 O4 2.818745 1_655
La1 O4 2.818745 1_656
La1 O14 2.818745 1_545
La1 O14 2.818745 1_546
La1 O24 2.822991 1_555
La2 O25 2.738941 1_555
La2 O16 2.793484 1_555
La2 O6 2.793484 1_565
La2 O16 2.793484 1_556
La2 O6 2.793484 1_566
La2 O14 2.800113 1_555
La2 O14 2.800113 1_556
La2 O4 2.800113 1_556
La2 O4 2.800113 1_555
La2 O23 2.810934 1_555
La2 O24 2.812635 1_565
La2 O24 2.812635 1_455
La3 O24 2.738941 1_555
La3 O6 2.793484 1_555
La3 O16 2.793484 1_656
La3 O6 2.793484 1_556
La3 O16 2.793484 1_655
La3 O7 2.800113 1_556
La3 O7 2.800113 1_555
La3 O15 2.800113 1_555
La3 O15 2.800113 1_556
La3 O26 2.810934 1_555
La3 O25 2.812635 1_655
La3 O25 2.812635 1_545
La4 O0 2.595357 1_555
La4 O18 2.781177 1_455
La4 O18 2.781177 1_456
La4 O8 2.781177 1_566
La4 O8 2.781177 1_565
La4 O26 2.812618 1_455
La4 O26 2.812618 1_565
La4 O15 2.818745 1_565
La4 O15 2.818745 1_566
La4 O7 2.818745 1_456
La4 O7 2.818745 1_455
La4 O25 2.822991 1_555
La5 O26 2.676845 1_555
La5 O19 2.760996 1_555
La5 O17 2.767276 1_556
La5 O17 2.767276 1_555
La5 O9 2.767276 1_556
La5 O9 2.767276 1_555
La5 O8 2.769718 1_555
La5 O8 2.769718 1_556
La5 O18 2.769718 1_556
La5 O18 2.769718 1_555
La5 O0 2.813737 1_545
La5 O0 2.813737 1_655
Cr0 O13 1.973471 1_655
Cr0 O5 1.973471 1_545
Cr0 O22 1.988904 1_554
Cr0 O22 1.988904 1_555
Cr0 O3 2.002140 1_655
Cr0 O12 2.002140 1_545
Cr1 O4 1.965830 1_555
Cr1 O14 1.965830 1_555
Cr1 O13 1.978061 1_555
Cr1 O5 1.978061 1_555
Cr1 O23 1.984534 1_554
Cr1 O23 1.984534 1_555
Cr2 O6 1.973666 1_555
Cr2 O16 1.973666 1_655
Cr2 O14 1.974987 1_545
Cr2 O4 1.974987 1_655
Cr2 O24 1.984228 1_555
Cr2 O24 1.984228 1_554
Cr3 O16 1.973666 1_555
Cr3 O6 1.973666 1_565
Cr3 O7 1.974987 1_455
Cr3 O15 1.974987 1_565
Cr3 O25 1.984228 1_554
Cr3 O25 1.984228 1_555
Cr4 O15 1.965830 1_555
Cr4 O7 1.965830 1_555
Cr4 O8 1.978061 1_555
Cr4 O18 1.978061 1_555
Cr4 O26 1.984534 1_555
Cr4 O26 1.984534 1_554
Cr5 O8 1.973471 1_565
Cr5 O18 1.973471 1_455
Cr5 O0 1.988904 1_554
Cr5 O0 1.988904 1_555
Cr5 O17 2.002140 1_565
Cr5 O9 2.002140 1_455
O1 Ti1 2.006043 1_555
O1 Ti0 2.015730 1_555
O2 Ti1 2.006043 1_665
O2 Ti2 2.015730 1_555
O3 Ti2 1.945223 1_555
O9 Ti0 1.945223 1_555
O10 Ti1 2.006043 1_665
O10 Ti0 2.015730 1_555
O11 Ti1 2.006043 1_555
O11 Ti2 2.015730 1_555
O12 Ti2 1.945223 1_555
O17 Ti0 1.945223 1_555
O19 Ti0 1.985090 1_555
O19 Ti0 1.985090 1_556
O20 Ti1 1.984125 1_556
O20 Ti1 1.984125 1_555
O21 Ti2 1.985090 1_555
O21 Ti2 1.985090 1_556
