# generated using pymatgen
data_Hg3AsO4
_symmetry_space_group_name_H-M   'P 1'
_cell_length_a   5.12340039
_cell_length_b   8.94887383
_cell_length_c   14.51027393
_cell_angle_alpha   57.58308483
_cell_angle_beta   90.00000000
_cell_angle_gamma   90.00000000
_symmetry_Int_Tables_number   1
_chemical_formula_structural   Hg3AsO4
_chemical_formula_sum   'Hg12 As4 O16'
_cell_volume   561.60640546
_cell_formula_units_Z   4
loop_
 _symmetry_equiv_pos_site_id
 _symmetry_equiv_pos_as_xyz
  1  'x, y, z'
loop_
 _atom_site_type_symbol
 _atom_site_label
 _atom_site_symmetry_multiplicity
 _atom_site_fract_x
 _atom_site_fract_y
 _atom_site_fract_z
 _atom_site_occupancy
  Hg  Hg0  1  0.15966218  0.44738142  0.37491877  1
  Hg  Hg1  1  0.34914309  0.72547275  0.96123401  1
  Hg  Hg2  1  0.15085691  0.72547275  0.46123401  1
  Hg  Hg3  1  0.65085691  0.27452725  0.03876599  1
  Hg  Hg4  1  0.84914309  0.27452725  0.53876599  1
  Hg  Hg5  1  0.65966218  0.55261858  0.12508123  1
  Hg  Hg6  1  0.84033782  0.55261858  0.62508123  1
  Hg  Hg7  1  0.34033782  0.44738142  0.87491877  1
  Hg  Hg8  1  0.35557432  0.96199840  0.58245447  1
  Hg  Hg9  1  0.85557432  0.03800160  0.91754553  1
  Hg  Hg10  1  0.64442568  0.03800160  0.41754553  1
  Hg  Hg11  1  0.14442568  0.96199840  0.08245447  1
  As  As0  1  0.13309924  0.23043211  0.22589695  1
  As  As1  1  0.86690076  0.76956789  0.77410305  1
  As  As2  1  0.63309924  0.76956789  0.27410305  1
  As  As3  1  0.36690076  0.23043211  0.72589695  1
  O  O0  1  0.53582304  0.76415707  0.77106415  1
  O  O1  1  0.03582304  0.23584293  0.72893585  1
  O  O2  1  0.46417696  0.23584293  0.22893585  1
  O  O3  1  0.96417696  0.76415707  0.27106415  1
  O  O4  1  0.96177541  0.77712453  0.88404710  1
  O  O5  1  0.46177541  0.22287547  0.61595290  1
  O  O6  1  0.03822459  0.22287547  0.11595290  1
  O  O7  1  0.53822459  0.77712453  0.38404710  1
  O  O8  1  0.97410404  0.95120382  0.65536933  1
  O  O9  1  0.51393132  0.58376834  0.28137404  1
  O  O10  1  0.02589596  0.04879618  0.34463067  1
  O  O11  1  0.52589596  0.95120382  0.15536933  1
  O  O12  1  0.98606868  0.58376834  0.78137404  1
  O  O13  1  0.48606868  0.41623166  0.71862596  1
  O  O14  1  0.01393132  0.41623166  0.21862596  1
  O  O15  1  0.47410404  0.04879618  0.84463067  1
loop_
_geom_bond_atom_site_label_1
_geom_bond_atom_site_label_2
_geom_bond_distance
_geom_bond_site_symmetry_2
Hg0 O9 2.202344 1_555
Hg0 O14 2.540888 1_555
Hg0 O3 2.594205 1_455
Hg1 O4 2.202682 1_455
Hg1 O15 2.528945 1_565
Hg2 O7 2.202682 1_555
Hg2 O10 2.528945 1_565
Hg3 O6 2.202682 1_655
Hg3 O11 2.528945 1_545
Hg4 O5 2.202682 1_555
Hg4 O8 2.528945 1_545
Hg5 O14 2.202344 1_655
Hg5 O9 2.540888 1_555
Hg5 O2 2.594205 1_555
Hg6 O13 2.202344 1_555
Hg6 O12 2.540888 1_555
Hg6 O1 2.594205 1_655
Hg7 O12 2.202344 1_455
Hg7 O13 2.540888 1_555
Hg7 O0 2.594205 1_555
Hg8 O8 2.199756 1_455
Hg8 O0 2.506462 1_555
Hg9 O15 2.199756 1_555
Hg9 O1 2.506462 1_655
Hg10 O10 2.199756 1_655
Hg10 O2 2.506462 1_555
Hg11 O11 2.199756 1_555
Hg11 O3 2.506462 1_455
As0 O2 1.698182 1_555
As0 O6 1.703394 1_555
As0 O10 1.705727 1_555
As0 O14 1.720575 1_555
As1 O0 1.698182 1_555
As1 O4 1.703394 1_555
As1 O8 1.705727 1_555
As1 O12 1.720575 1_555
As2 O3 1.698182 1_555
As2 O7 1.703394 1_555
As2 O11 1.705727 1_555
As2 O9 1.720575 1_555
As3 O1 1.698182 1_555
As3 O5 1.703394 1_555
As3 O15 1.705727 1_555
As3 O13 1.720575 1_555
