# generated using pymatgen
data_ZrNi3
_symmetry_space_group_name_H-M   'P 1'
_cell_length_a   5.26463149
_cell_length_b   5.26463049
_cell_length_c   4.26897308
_cell_angle_alpha   90.00000000
_cell_angle_beta   90.00000000
_cell_angle_gamma   119.99999993
_symmetry_Int_Tables_number   1
_chemical_formula_structural   ZrNi3
_chemical_formula_sum   'Zr2 Ni6'
_cell_volume   102.46839177
_cell_formula_units_Z   2
loop_
 _symmetry_equiv_pos_site_id
 _symmetry_equiv_pos_as_xyz
  1  'x, y, z'
loop_
 _atom_site_type_symbol
 _atom_site_label
 _atom_site_symmetry_multiplicity
 _atom_site_fract_x
 _atom_site_fract_y
 _atom_site_fract_z
 _atom_site_occupancy
  Zr  Zr0  1  0.66666700  0.33333300  0.75000000  1
  Zr  Zr1  1  0.33333300  0.66666700  0.25000000  1
  Ni  Ni0  1  0.15586772  0.31173745  0.75000000  1
  Ni  Ni1  1  0.84413228  0.15586772  0.25000000  1
  Ni  Ni2  1  0.84413228  0.68826255  0.25000000  1
  Ni  Ni3  1  0.15586772  0.84413228  0.75000000  1
  Ni  Ni4  1  0.68826255  0.84413228  0.75000000  1
  Ni  Ni5  1  0.31173745  0.15586772  0.25000000  1
loop_
_geom_bond_atom_site_label_1
_geom_bond_atom_site_label_2
_geom_bond_distance
_geom_bond_site_symmetry_2
Ni0 Ni3 2.461768 1_545
Ni0 Ni4 2.461769 1_445
Ni0 Ni1 2.564394 1_456
Ni0 Ni1 2.564394 1_455
Ni0 Ni5 2.564404 1_556
Ni0 Ni5 2.564404 1_555
Ni0 Zr0 2.634149 1_455
Ni0 Zr0 2.634164 1_555
Ni0 Zr1 2.678564 1_556
Ni0 Zr1 2.678564 1_555
Ni0 Ni3 2.802862 1_555
Ni0 Ni4 2.802862 1_555
Ni1 Ni2 2.461768 1_545
Ni1 Ni5 2.461769 1_655
Ni1 Ni4 2.564394 1_544
Ni1 Ni4 2.564394 1_545
Ni1 Zr1 2.634157 1_655
Ni1 Zr1 2.634157 1_545
Ni1 Zr0 2.678567 1_555
Ni1 Zr0 2.678567 1_554
Ni1 Ni2 2.802862 1_555
Ni1 Ni5 2.802863 1_555
Ni2 Ni5 2.461769 1_665
Ni2 Ni3 2.564394 1_654
Ni2 Ni3 2.564394 1_655
Ni2 Ni4 2.564404 1_554
Ni2 Ni4 2.564404 1_555
Ni2 Zr1 2.634149 1_655
Ni2 Zr1 2.634164 1_555
Ni2 Zr0 2.678564 1_555
Ni2 Zr0 2.678564 1_554
Ni2 Ni5 2.802862 1_555
Ni3 Ni4 2.461769 1_455
Ni3 Ni5 2.564394 1_565
Ni3 Ni5 2.564394 1_566
Ni3 Zr0 2.634157 1_455
Ni3 Zr0 2.634157 1_565
Ni3 Zr1 2.678567 1_555
Ni3 Zr1 2.678567 1_556
Ni3 Ni4 2.802863 1_555
Ni4 Zr0 2.634148 1_565
Ni4 Zr0 2.634164 1_555
Ni4 Zr1 2.678564 1_555
Ni4 Zr1 2.678564 1_556
Ni5 Zr1 2.634148 1_545
Ni5 Zr1 2.634164 1_555
Ni5 Zr0 2.678564 1_555
Ni5 Zr0 2.678564 1_554
