# generated using pymatgen
data_Rb2Pt3S4
_symmetry_space_group_name_H-M   'P 1'
_cell_length_a   6.33368444
_cell_length_b   6.33368486
_cell_length_c   7.26034838
_cell_angle_alpha   102.93191097
_cell_angle_beta   102.93191218
_cell_angle_gamma   119.13892903
_symmetry_Int_Tables_number   1
_chemical_formula_structural   Rb2Pt3S4
_chemical_formula_sum   'Rb2 Pt3 S4'
_cell_volume   228.21291840
_cell_formula_units_Z   1
loop_
 _symmetry_equiv_pos_site_id
 _symmetry_equiv_pos_as_xyz
  1  'x, y, z'
loop_
 _atom_site_type_symbol
 _atom_site_label
 _atom_site_symmetry_multiplicity
 _atom_site_fract_x
 _atom_site_fract_y
 _atom_site_fract_z
 _atom_site_occupancy
  Rb  Rb0  1  0.34850648  0.34850648  0.69701297  1
  Rb  Rb1  1  0.65149352  0.65149352  0.30298703  1
  Pt  Pt0  1  -0.00000000  0.50000000  -0.00000000  1
  Pt  Pt1  1  0.50000000  -0.00000000  -0.00000000  1
  Pt  Pt2  1  -0.00000000  -0.00000000  -0.00000000  1
  S  S0  1  0.71861158  0.05393114  0.77254272  1
  S  S1  1  0.28138842  0.94606886  0.22745728  1
  S  S2  1  0.94606886  0.28138842  0.22745728  1
  S  S3  1  0.05393114  0.71861158  0.77254272  1
loop_
_geom_bond_atom_site_label_1
_geom_bond_atom_site_label_2
_geom_bond_distance
_geom_bond_site_symmetry_2
Rb0 S2 3.564641 1_455
Rb0 S1 3.564641 1_545
Rb0 S0 3.663123 1_555
Rb0 S3 3.663123 1_555
Rb0 S0 3.726461 1_455
Rb0 S3 3.726461 1_655
Rb0 S3 3.726461 1_545
Rb0 S0 3.726461 1_565
Rb1 S3 3.564641 1_655
Rb1 S0 3.564641 1_565
Rb1 S1 3.663123 1_555
Rb1 S2 3.663123 1_555
Rb1 S1 3.726461 1_655
Rb1 S2 3.726461 1_455
Rb1 S2 3.726461 1_565
Rb1 S1 3.726461 1_545
Pt0 S2 2.361431 1_455
Pt0 S3 2.361431 1_554
Pt0 S1 2.361431 1_555
Pt0 S0 2.361431 1_454
Pt0 Rb1 3.731386 1_555
Pt0 Rb0 3.731386 1_454
Pt0 Rb0 3.731386 1_554
Pt0 Rb1 3.731386 1_455
Pt1 S1 2.361431 1_545
Pt1 S0 2.361431 1_554
Pt1 S2 2.361431 1_555
Pt1 S3 2.361431 1_544
Pt1 Rb1 3.731386 1_545
Pt1 Rb0 3.731386 1_554
Pt1 Rb1 3.731386 1_555
Pt1 Rb0 3.731386 1_544
Pt2 S0 2.355462 1_454
Pt2 S1 2.355462 1_545
Pt2 S3 2.355462 1_544
Pt2 S2 2.355462 1_455
Pt2 Rb1 3.766353 1_445
Pt2 Rb0 3.766353 1_554
Pt2 Rb1 3.766353 1_555
Pt2 Rb0 3.766353 1_444
