# generated using pymatgen
data_YbPt2
_symmetry_space_group_name_H-M   'P 1'
_cell_length_a   5.35982269
_cell_length_b   5.35982269
_cell_length_c   5.35982269
_cell_angle_alpha   60.00000000
_cell_angle_beta   60.00000000
_cell_angle_gamma   60.00000000
_symmetry_Int_Tables_number   1
_chemical_formula_structural   YbPt2
_chemical_formula_sum   'Yb2 Pt4'
_cell_volume   108.87703139
_cell_formula_units_Z   2
loop_
 _symmetry_equiv_pos_site_id
 _symmetry_equiv_pos_as_xyz
  1  'x, y, z'
loop_
 _atom_site_type_symbol
 _atom_site_label
 _atom_site_symmetry_multiplicity
 _atom_site_fract_x
 _atom_site_fract_y
 _atom_site_fract_z
 _atom_site_occupancy
  Yb  Yb0  1  0.75000000  0.75000000  0.75000000  1
  Yb  Yb1  1  0.50000000  0.50000000  0.50000000  1
  Pt  Pt0  1  0.12500000  0.62500000  0.12500000  1
  Pt  Pt1  1  0.12500000  0.12500000  0.62500000  1
  Pt  Pt2  1  0.62500000  0.12500000  0.12500000  1
  Pt  Pt3  1  0.12500000  0.12500000  0.12500000  1
loop_
_geom_bond_atom_site_label_1
_geom_bond_atom_site_label_2
_geom_bond_distance
_geom_bond_site_symmetry_2
Yb0 Yb1 3.282208 1_565
Yb0 Yb1 3.282208 1_655
Yb0 Yb1 3.282208 1_556
Yb0 Yb1 3.282208 1_555
Pt0 Pt3 2.679911 1_555
Pt0 Pt2 2.679911 1_465
Pt0 Pt3 2.679911 1_565
Pt0 Pt2 2.679911 1_555
Pt0 Pt1 2.679911 1_555
Pt0 Pt1 2.679911 1_564
Pt0 Yb1 3.142475 1_554
Pt0 Yb0 3.142475 1_554
Pt0 Yb1 3.142475 1_555
Pt0 Yb0 3.142475 1_455
Pt0 Yb0 3.142475 1_454
Pt0 Yb1 3.142475 1_455
Pt1 Pt3 2.679911 1_555
Pt1 Pt3 2.679911 1_556
Pt1 Pt2 2.679911 1_456
Pt1 Pt2 2.679911 1_555
Pt1 Yb0 3.142475 1_445
Pt1 Yb1 3.142475 1_545
Pt1 Yb1 3.142475 1_555
Pt1 Yb0 3.142475 1_455
Pt1 Yb0 3.142475 1_545
Pt1 Yb1 3.142475 1_455
Pt2 Pt3 2.679911 1_555
Pt2 Pt3 2.679911 1_655
Pt2 Yb1 3.142475 1_554
Pt2 Yb0 3.142475 1_554
Pt2 Yb1 3.142475 1_545
Pt2 Yb1 3.142475 1_555
Pt2 Yb0 3.142475 1_544
Pt2 Yb0 3.142475 1_545
Pt3 Yb1 3.142475 1_554
Pt3 Yb0 3.142475 1_445
Pt3 Yb1 3.142475 1_545
Pt3 Yb0 3.142475 1_544
Pt3 Yb0 3.142475 1_454
Pt3 Yb1 3.142475 1_455
