# generated using pymatgen
data_NaLiLa2Ti4O12
_symmetry_space_group_name_H-M   'P 1'
_cell_length_a   7.83376900
_cell_length_b   7.83376900
_cell_length_c   3.90746900
_cell_angle_alpha   90.00000000
_cell_angle_beta   90.00000000
_cell_angle_gamma   90.00000000
_symmetry_Int_Tables_number   1
_chemical_formula_structural   NaLiLa2Ti4O12
_chemical_formula_sum   'Na1 Li1 La2 Ti4 O12'
_cell_volume   239.79331043
_cell_formula_units_Z   1
loop_
 _symmetry_equiv_pos_site_id
 _symmetry_equiv_pos_as_xyz
  1  'x, y, z'
loop_
 _atom_site_type_symbol
 _atom_site_label
 _atom_site_symmetry_multiplicity
 _atom_site_fract_x
 _atom_site_fract_y
 _atom_site_fract_z
 _atom_site_occupancy
  Na  Na0  1  0.00000000  0.00000000  0.50000000  1
  Li  Li0  1  0.50000000  0.50000000  0.00000000  1
  La  La0  1  0.50000000  0.00000000  0.50000000  1
  La  La1  1  0.00000000  0.50000000  0.50000000  1
  Ti  Ti0  1  0.75173700  0.75173700  0.00000000  1
  Ti  Ti1  1  0.24826300  0.75173700  0.00000000  1
  Ti  Ti2  1  0.75173700  0.24826300  0.00000000  1
  Ti  Ti3  1  0.24826300  0.24826300  0.00000000  1
  O  O0  1  0.00000000  0.73219900  0.00000000  1
  O  O1  1  0.73219900  0.00000000  0.00000000  1
  O  O2  1  0.50000000  0.75503300  0.00000000  1
  O  O3  1  0.26780100  0.00000000  0.00000000  1
  O  O4  1  0.00000000  0.26780100  0.00000000  1
  O  O5  1  0.75503300  0.50000000  0.00000000  1
  O  O6  1  0.50000000  0.24496700  0.00000000  1
  O  O7  1  0.24496700  0.50000000  0.00000000  1
  O  O8  1  0.75863200  0.75863200  0.50000000  1
  O  O9  1  0.24136800  0.75863200  0.50000000  1
  O  O10  1  0.75863200  0.24136800  0.50000000  1
  O  O11  1  0.24136800  0.24136800  0.50000000  1
loop_
_geom_bond_atom_site_label_1
_geom_bond_atom_site_label_2
_geom_bond_distance
_geom_bond_site_symmetry_2
Na0 O11 2.674025 1_555
Na0 O9 2.674025 1_545
Na0 O10 2.674025 1_455
Na0 O8 2.674025 1_445
Na0 O0 2.866745 1_546
Na0 O4 2.866745 1_555
Na0 O4 2.866745 1_556
Na0 O0 2.866745 1_545
Na0 O3 2.866745 1_555
Na0 O1 2.866745 1_455
Na0 O3 2.866745 1_556
Na0 O1 2.866745 1_456
Li0 O2 1.997870 1_555
Li0 O5 1.997870 1_555
Li0 O7 1.997870 1_555
Li0 O6 1.997870 1_555
La0 O3 2.669422 1_556
La0 O3 2.669422 1_555
La0 O1 2.669422 1_555
La0 O1 2.669422 1_556
La0 O2 2.738557 1_545
La0 O6 2.738557 1_556
La0 O6 2.738557 1_555
La0 O2 2.738557 1_546
La0 O10 2.771306 1_555
La0 O11 2.771306 1_555
La0 O8 2.771306 1_545
La0 O9 2.771306 1_545
La1 O4 2.669422 1_555
La1 O4 2.669422 1_556
La1 O0 2.669422 1_555
La1 O0 2.669422 1_556
La1 O5 2.738557 1_456
La1 O5 2.738557 1_455
La1 O7 2.738557 1_555
La1 O7 2.738557 1_556
La1 O9 2.771306 1_555
La1 O11 2.771306 1_555
La1 O10 2.771306 1_455
La1 O8 2.771306 1_455
O0 Ti1 1.950848 1_555
O0 Ti0 1.950848 1_455
O1 Ti0 1.950848 1_545
O1 Ti2 1.950848 1_555
O2 Ti1 1.972219 1_555
O2 Ti0 1.972219 1_555
O3 Ti3 1.950848 1_555
O3 Ti1 1.950848 1_545
O4 Ti3 1.950848 1_555
O4 Ti2 1.950848 1_455
O5 Ti0 1.972219 1_555
O5 Ti2 1.972219 1_555
O6 Ti3 1.972219 1_555
O6 Ti2 1.972219 1_555
O7 Ti1 1.972219 1_555
O7 Ti3 1.972219 1_555
O8 Ti0 1.955227 1_556
O8 Ti0 1.955227 1_555
O9 Ti1 1.955227 1_555
O9 Ti1 1.955227 1_556
O10 Ti2 1.955227 1_555
O10 Ti2 1.955227 1_556
O11 Ti3 1.955227 1_555
O11 Ti3 1.955227 1_556
