# generated using pymatgen
data_Sr(NiAs)2
_symmetry_space_group_name_H-M   'P 1'
_cell_length_a   4.07325550
_cell_length_b   4.07325543
_cell_length_c   6.20462126
_cell_angle_alpha   109.16220757
_cell_angle_beta   109.16221600
_cell_angle_gamma   89.99997999
_symmetry_Int_Tables_number   1
_chemical_formula_structural   Sr(NiAs)2
_chemical_formula_sum   'Sr1 Ni2 As2'
_cell_volume   91.17975472
_cell_formula_units_Z   1
loop_
 _symmetry_equiv_pos_site_id
 _symmetry_equiv_pos_as_xyz
  1  'x, y, z'
loop_
 _atom_site_type_symbol
 _atom_site_label
 _atom_site_symmetry_multiplicity
 _atom_site_fract_x
 _atom_site_fract_y
 _atom_site_fract_z
 _atom_site_occupancy
  Sr  Sr0  1  -0.00000000  0.00000000  -0.00000000  1
  Ni  Ni0  1  0.25000000  0.75000000  0.50000000  1
  Ni  Ni1  1  0.75000000  0.25000000  0.50000000  1
  As  As0  1  0.64527373  0.64527373  0.29054646  1
  As  As1  1  0.35472527  0.35472527  0.70945354  1
loop_
_geom_bond_atom_site_label_1
_geom_bond_atom_site_label_2
_geom_bond_distance
_geom_bond_site_symmetry_2
Ni0 Sr0 3.420271 1_565
Ni0 Sr0 3.420272 1_666
Ni0 Sr0 3.420272 1_566
Ni0 Sr0 3.420272 1_555
Ni1 Sr0 3.420271 1_656
Ni1 Sr0 3.420272 1_555
Ni1 Sr0 3.420272 1_655
Ni1 Sr0 3.420272 1_666
As0 Ni0 2.339404 1_655
As0 Ni1 2.339405 1_565
As0 Ni1 2.339408 1_555
As0 Ni0 2.339408 1_555
As0 Sr0 3.293209 1_665
As0 Sr0 3.293211 1_565
As0 Sr0 3.293211 1_655
As0 Sr0 3.293215 1_555
As1 Ni1 2.339401 1_455
As1 Ni0 2.339401 1_545
As1 Ni0 2.339411 1_555
As1 Ni1 2.339412 1_555
As1 Sr0 3.293204 1_556
As1 Sr0 3.293211 1_656
As1 Sr0 3.293211 1_566
As1 Sr0 3.293220 1_666
