# generated using pymatgen
data_CaSiO3
_symmetry_space_group_name_H-M   'P 1'
_cell_length_a   6.74048100
_cell_length_b   6.78603902
_cell_length_c   9.41212948
_cell_angle_alpha   69.27390832
_cell_angle_beta   83.66219587
_cell_angle_gamma   75.81084709
_symmetry_Int_Tables_number   1
_chemical_formula_structural   CaSiO3
_chemical_formula_sum   'Ca6 Si6 O18'
_cell_volume   390.24256159
_cell_formula_units_Z   6
loop_
 _symmetry_equiv_pos_site_id
 _symmetry_equiv_pos_as_xyz
  1  'x, y, z'
loop_
 _atom_site_type_symbol
 _atom_site_label
 _atom_site_symmetry_multiplicity
 _atom_site_fract_x
 _atom_site_fract_y
 _atom_site_fract_z
 _atom_site_occupancy
  Ca  Ca0  1  0.92222200  0.58398600  0.66291300  1
  Ca  Ca1  1  0.07777800  0.41601400  0.33708700  1
  Ca  Ca2  1  0.58845100  0.23825600  0.65080900  1
  Ca  Ca3  1  0.41154900  0.76174400  0.34919100  1
  Ca  Ca4  1  0.76349000  0.74315000  0.00041100  1
  Ca  Ca5  1  0.23651000  0.25685000  0.99958900  1
  Si  Si0  1  0.03861700  0.02401500  0.70039800  1
  Si  Si1  1  0.96138300  0.97598500  0.29960200  1
  Si  Si2  1  0.27003900  0.77207900  0.98404300  1
  Si  Si3  1  0.72996100  0.22792100  0.01595700  1
  Si  Si4  1  0.38710300  0.66512900  0.70545500  1
  Si  Si5  1  0.61289700  0.33487100  0.29454500  1
  O  O0  1  0.23789000  0.90549900  0.61386300  1
  O  O1  1  0.76211000  0.09450100  0.38613700  1
  O  O2  1  0.95303900  0.27315900  0.59832600  1
  O  O3  1  0.04696100  0.72684100  0.40167400  1
  O  O4  1  0.85594400  0.89257500  0.73732300  1
  O  O5  1  0.14405600  0.10742500  0.26267700  1
  O  O6  1  0.13423800  0.00428200  0.86350000  1
  O  O7  1  0.86576200  0.99571800  0.13650000  1
  O  O8  1  0.61210700  0.15943700  0.90730800  1
  O  O9  1  0.38789300  0.84056300  0.09269200  1
  O  O10  1  0.87105700  0.40168300  0.93877800  1
  O  O11  1  0.12894300  0.59831700  0.06122200  1
  O  O12  1  0.73600600  0.52590000  0.25765700  1
  O  O13  1  0.26399400  0.47410000  0.74234300  1
  O  O14  1  0.41866300  0.37781000  0.40620600  1
  O  O15  1  0.58133700  0.62219000  0.59379400  1
  O  O16  1  0.54979000  0.30991600  0.13621100  1
  O  O17  1  0.45021000  0.69008400  0.86378900  1
loop_
_geom_bond_atom_site_label_1
_geom_bond_atom_site_label_2
_geom_bond_distance
_geom_bond_site_symmetry_2
Ca0 O2 2.350886 1_555
Ca0 O13 2.359135 1_655
Ca0 O4 2.363404 1_555
Ca0 O15 2.385079 1_555
Ca0 O3 2.438959 1_655
Ca0 O10 2.475680 1_555
Ca1 O3 2.350886 1_555
Ca1 O12 2.359135 1_455
Ca1 O5 2.363404 1_555
Ca1 O14 2.385079 1_555
Ca1 O2 2.438959 1_455
Ca1 O11 2.475680 1_555
Ca2 O8 2.295449 1_555
Ca2 O14 2.452363 1_555
Ca2 O15 2.456250 1_555
Ca2 O2 2.504783 1_555
Ca2 O4 2.513043 1_545
Ca2 O13 2.632607 1_555
Ca2 O1 3.007327 1_555
Ca3 O9 2.295449 1_555
Ca3 O15 2.452363 1_555
Ca3 O14 2.456250 1_555
Ca3 O3 2.504783 1_555
Ca3 O5 2.513043 1_565
Ca3 O12 2.632607 1_555
Ca3 O0 3.007327 1_555
Ca4 O12 2.361882 1_555
Ca4 O4 2.395851 1_554
Ca4 O11 2.467338 1_655
Ca4 O10 2.503313 1_554
Ca4 O9 2.588697 1_555
Ca4 O8 2.611797 1_564
Ca4 O7 2.716898 1_555
Ca4 O17 2.746340 1_554
Ca5 O13 2.361882 1_555
Ca5 O5 2.395851 1_556
Ca5 O10 2.467338 1_455
Ca5 O11 2.503313 1_556
Ca5 O8 2.588697 1_555
Ca5 O9 2.611797 1_546
Ca5 O6 2.716898 1_555
Ca5 O16 2.746340 1_556
O0 Si0 1.675376 1_565
O0 Si4 1.675491 1_555
O1 Si1 1.675376 1_545
O1 Si5 1.675491 1_555
O2 Si0 1.615162 1_655
O3 Si1 1.615162 1_455
O4 Si0 1.630035 1_665
O5 Si1 1.630035 1_445
O6 Si0 1.679474 1_555
O6 Si2 1.692590 1_545
O7 Si1 1.679474 1_555
O7 Si3 1.692590 1_565
O8 Si3 1.609196 1_556
O9 Si2 1.609196 1_554
O10 Si3 1.616656 1_556
O11 Si2 1.616656 1_554
O12 Si5 1.623206 1_555
O13 Si4 1.623206 1_555
O14 Si5 1.621564 1_555
O15 Si4 1.621564 1_555
O16 Si5 1.668650 1_555
O16 Si3 1.696039 1_555
O17 Si4 1.668650 1_555
O17 Si2 1.696039 1_555
