# generated using pymatgen
data_Eu(SiNi)2
_symmetry_space_group_name_H-M   'P 1'
_cell_length_a   4.01146356
_cell_length_b   4.01146234
_cell_length_c   5.62916638
_cell_angle_alpha   110.87378536
_cell_angle_beta   110.87378588
_cell_angle_gamma   89.99999586
_symmetry_Int_Tables_number   1
_chemical_formula_structural   Eu(SiNi)2
_chemical_formula_sum   'Eu1 Si2 Ni2'
_cell_volume   78.24272926
_cell_formula_units_Z   1
loop_
 _symmetry_equiv_pos_site_id
 _symmetry_equiv_pos_as_xyz
  1  'x, y, z'
loop_
 _atom_site_type_symbol
 _atom_site_label
 _atom_site_symmetry_multiplicity
 _atom_site_fract_x
 _atom_site_fract_y
 _atom_site_fract_z
 _atom_site_occupancy
  Eu  Eu0  1  0.00000000  -0.00000000  -0.00000000  1
  Si  Si0  1  0.63324581  0.63324581  0.26649161  1
  Si  Si1  1  0.36675419  0.36675419  0.73350839  1
  Ni  Ni0  1  0.75000000  0.25000000  0.50000000  1
  Ni  Ni1  1  0.25000000  0.75000000  0.50000000  1
loop_
_geom_bond_atom_site_label_1
_geom_bond_atom_site_label_2
_geom_bond_distance
_geom_bond_site_symmetry_2
Eu0 Si0 3.118476 1_455
Eu0 Si1 3.118476 1_544
Eu0 Si0 3.118476 1_445
Eu0 Si1 3.118476 1_554
Eu0 Si0 3.118476 1_545
Eu0 Si1 3.118476 1_454
Eu0 Si1 3.118476 1_444
Eu0 Si0 3.118476 1_555
Eu0 Ni1 3.151723 1_545
Eu0 Ni0 3.151723 1_454
Eu0 Ni0 3.151723 1_444
Eu0 Ni1 3.151723 1_555
Eu0 Ni0 3.151723 1_455
Eu0 Ni1 3.151723 1_544
Eu0 Ni1 3.151723 1_444
Eu0 Ni0 3.151723 1_555
Si0 Si1 2.591504 1_554
Ni0 Si0 2.304787 1_545
Ni0 Si0 2.304787 1_555
Ni0 Si1 2.304787 1_555
Ni0 Si1 2.304788 1_655
Ni1 Si1 2.304787 1_565
Ni1 Si1 2.304787 1_555
Ni1 Si0 2.304787 1_555
Ni1 Si0 2.304788 1_455
