# generated using pymatgen
data_TaBO4
_symmetry_space_group_name_H-M   'P 1'
_cell_length_a   5.18791133
_cell_length_b   5.18791130
_cell_length_c   5.18791296
_cell_angle_alpha   106.31644768
_cell_angle_beta   106.31642881
_cell_angle_gamma   115.98372700
_symmetry_Int_Tables_number   1
_chemical_formula_structural   TaBO4
_chemical_formula_sum   'Ta2 B2 O8'
_cell_volume   106.43391474
_cell_formula_units_Z   2
loop_
 _symmetry_equiv_pos_site_id
 _symmetry_equiv_pos_as_xyz
  1  'x, y, z'
loop_
 _atom_site_type_symbol
 _atom_site_label
 _atom_site_symmetry_multiplicity
 _atom_site_fract_x
 _atom_site_fract_y
 _atom_site_fract_z
 _atom_site_occupancy
  Ta  Ta0  1  0.12500000  0.87500000  0.25000000  1
  Ta  Ta1  1  0.87500000  0.12500000  0.75000000  1
  B  B0  1  0.62500000  0.37500000  0.25000000  1
  B  B1  1  0.37500000  0.62500000  0.75000000  1
  O  O0  1  0.80016720  0.37157764  0.07141045  1
  O  O1  1  0.72875675  0.80016720  0.92858955  1
  O  O2  1  0.27124325  0.19983280  0.07141045  1
  O  O3  1  0.19983280  0.62842236  0.92858955  1
  O  O4  1  0.19983280  0.27124325  0.57141045  1
  O  O5  1  0.62842236  0.19983280  0.42858955  1
  O  O6  1  0.80016720  0.72875675  0.42858955  1
  O  O7  1  0.37157764  0.80016720  0.57141045  1
loop_
_geom_bond_atom_site_label_1
_geom_bond_atom_site_label_2
_geom_bond_distance
_geom_bond_site_symmetry_2
B0 O6 1.470558 1_555
B0 O2 1.470558 1_555
B0 O0 1.470558 1_555
B0 O5 1.470559 1_555
B1 O4 1.470558 1_555
B1 O1 1.470558 1_555
B1 O3 1.470558 1_555
B1 O7 1.470559 1_555
O0 Ta1 2.041541 1_554
O0 Ta0 2.103783 1_655
O1 Ta0 2.041542 1_656
O1 Ta1 2.103783 1_565
O2 Ta1 2.041542 1_454
O2 Ta0 2.103783 1_545
O3 Ta0 2.041541 1_556
O3 Ta1 2.103783 1_455
O4 Ta0 2.041541 1_545
O4 Ta1 2.103783 1_455
O5 Ta1 2.041542 1_555
O5 Ta0 2.103783 1_545
O6 Ta1 2.041541 1_565
O6 Ta0 2.103783 1_655
O7 Ta0 2.041542 1_555
O7 Ta1 2.103783 1_565
