# generated using pymatgen
data_Si2Ni6B
_symmetry_space_group_name_H-M   'P 1'
_cell_length_a   6.07193095
_cell_length_b   6.07193027
_cell_length_c   2.81541495
_cell_angle_alpha   90.00000000
_cell_angle_beta   90.00000000
_cell_angle_gamma   119.99999833
_symmetry_Int_Tables_number   1
_chemical_formula_structural   Si2Ni6B
_chemical_formula_sum   'Si2 Ni6 B1'
_cell_volume   89.89316071
_cell_formula_units_Z   1
loop_
 _symmetry_equiv_pos_site_id
 _symmetry_equiv_pos_as_xyz
  1  'x, y, z'
loop_
 _atom_site_type_symbol
 _atom_site_label
 _atom_site_symmetry_multiplicity
 _atom_site_fract_x
 _atom_site_fract_y
 _atom_site_fract_z
 _atom_site_occupancy
  Si  Si0  1  0.33333300  0.66666700  -0.00000000  1
  Si  Si1  1  0.66666700  0.33333300  -0.00000000  1
  Ni  Ni0  1  0.75492389  0.75492389  0.00000000  1
  Ni  Ni1  1  -0.00000000  0.24507611  -0.00000000  1
  Ni  Ni2  1  0.38960787  0.38960787  0.50000000  1
  Ni  Ni3  1  0.00000000  0.61039213  0.50000000  1
  Ni  Ni4  1  0.24507611  0.00000000  -0.00000000  1
  Ni  Ni5  1  0.61039213  -0.00000000  0.50000000  1
  B  B0  1  -0.00000000  0.00000000  0.50000000  1
loop_
_geom_bond_atom_site_label_1
_geom_bond_atom_site_label_2
_geom_bond_distance
_geom_bond_site_symmetry_2
Ni0 Si1 2.338441 1_555
Ni0 Si0 2.338441 1_555
Ni1 Si1 2.338435 1_455
Ni1 Si0 2.338439 1_555
Ni2 Si0 2.345913 1_555
Ni2 Si0 2.345913 1_556
Ni2 Si1 2.345913 1_556
Ni2 Si1 2.345913 1_555
Ni3 Si0 2.345908 1_555
Ni3 Si0 2.345908 1_556
Ni3 Si1 2.345910 1_455
Ni3 Si1 2.345910 1_456
Ni4 Si0 2.338435 1_545
Ni4 Si1 2.338439 1_555
Ni5 Si1 2.345908 1_555
Ni5 Si1 2.345908 1_556
Ni5 Si0 2.345910 1_545
Ni5 Si0 2.345910 1_546
B0 Ni1 2.048423 1_556
B0 Ni1 2.048423 1_555
B0 Ni0 2.048423 1_446
B0 Ni0 2.048423 1_445
B0 Ni4 2.048423 1_556
B0 Ni4 2.048423 1_555
B0 Ni3 2.365672 1_545
B0 Ni2 2.365672 1_555
B0 Ni5 2.365672 1_455
