# generated using pymatgen
data_Ba2Ce3Si3O12F
_symmetry_space_group_name_H-M   'P 1'
_cell_length_a   9.94105014
_cell_length_b   9.94105014
_cell_length_c   7.44973900
_cell_angle_alpha   90.00000000
_cell_angle_beta   90.00000000
_cell_angle_gamma   120.00000092
_symmetry_Int_Tables_number   1
_chemical_formula_structural   Ba2Ce3Si3O12F
_chemical_formula_sum   'Ba4 Ce6 Si6 O24 F2'
_cell_volume   637.58224363
_cell_formula_units_Z   2
loop_
 _symmetry_equiv_pos_site_id
 _symmetry_equiv_pos_as_xyz
  1  'x, y, z'
loop_
 _atom_site_type_symbol
 _atom_site_label
 _atom_site_symmetry_multiplicity
 _atom_site_fract_x
 _atom_site_fract_y
 _atom_site_fract_z
 _atom_site_occupancy
  Ba  Ba0  1  0.33333300  0.66666700  0.50531900  1
  Ba  Ba1  1  0.33333300  0.66666700  0.00103600  1
  Ba  Ba2  1  0.66666700  0.33333300  0.00531900  1
  Ba  Ba3  1  0.66666700  0.33333300  0.50103600  1
  Ce  Ce0  1  0.25117500  0.99711700  0.25359100  1
  Ce  Ce1  1  0.00288300  0.25405800  0.25359100  1
  Ce  Ce2  1  0.25405800  0.25117500  0.75359100  1
  Ce  Ce3  1  0.74594200  0.74882500  0.25359100  1
  Ce  Ce4  1  0.99711700  0.74594200  0.75359100  1
  Ce  Ce5  1  0.74882500  0.00288300  0.75359100  1
  Si  Si0  1  0.01826400  0.37880900  0.75333000  1
  Si  Si1  1  0.36054500  0.98173600  0.75333000  1
  Si  Si2  1  0.37880900  0.36054500  0.25333000  1
  Si  Si3  1  0.62119100  0.63945500  0.75333000  1
  Si  Si4  1  0.63945500  0.01826400  0.25333000  1
  Si  Si5  1  0.98173600  0.62119100  0.25333000  1
  O  O0  1  0.24222900  0.90995500  0.92846000  1
  O  O1  1  0.24135600  0.91151600  0.57856400  1
  O  O2  1  0.17130500  0.71847600  0.25385500  1
  O  O3  1  0.08577700  0.56831500  0.75214300  1
  O  O4  1  0.08848400  0.32983900  0.57856400  1
  O  O5  1  0.09004500  0.33227500  0.92846000  1
  O  O6  1  0.48253900  0.91422300  0.75214300  1
  O  O7  1  0.54717100  0.82869500  0.25385500  1
  O  O8  1  0.28152400  0.45282900  0.25385500  1
  O  O9  1  0.43168500  0.51746100  0.75214300  1
  O  O10  1  0.33227500  0.24222900  0.42846000  1
  O  O11  1  0.32983900  0.24135600  0.07856400  1
  O  O12  1  0.67016100  0.75864400  0.57856400  1
  O  O13  1  0.66772500  0.75777100  0.92846000  1
  O  O14  1  0.56831500  0.48253900  0.25214300  1
  O  O15  1  0.71847600  0.54717100  0.75385500  1
  O  O16  1  0.45282900  0.17130500  0.75385500  1
  O  O17  1  0.51746100  0.08577700  0.25214300  1
  O  O18  1  0.91151600  0.67016100  0.07856400  1
  O  O19  1  0.90995500  0.66772500  0.42846000  1
  O  O20  1  0.91422300  0.43168500  0.25214300  1
  O  O21  1  0.82869500  0.28152400  0.75385500  1
  O  O22  1  0.75777100  0.09004500  0.42846000  1
  O  O23  1  0.75864400  0.08848400  0.07856400  1
  F  F0  1  0.00000000  0.00000000  0.76181800  1
  F  F1  1  0.00000000  0.00000000  0.26181800  1
loop_
_geom_bond_atom_site_label_1
_geom_bond_atom_site_label_2
_geom_bond_distance
_geom_bond_site_symmetry_2
Ba0 O2 2.683039 1_555
Ba0 O7 2.683044 1_555
Ba0 O8 2.683046 1_555
Ba0 O3 2.826172 1_555
Ba0 O6 2.826174 1_555
Ba0 O9 2.826186 1_555
Ba0 O1 3.046962 1_555
Ba0 O4 3.046976 1_555
Ba0 O12 3.046981 1_555
Ba1 O2 2.690097 1_555
Ba1 O7 2.690102 1_555
Ba1 O8 2.690104 1_555
Ba1 O3 2.836224 1_554
Ba1 O6 2.836226 1_554
Ba1 O9 2.836238 1_554
Ba1 O5 3.025275 1_554
Ba1 O13 3.025275 1_554
Ba1 O0 3.025275 1_554
Ba2 O21 2.683039 1_554
Ba2 O16 2.683044 1_554
Ba2 O15 2.683046 1_554
Ba2 O20 2.826172 1_555
Ba2 O17 2.826174 1_555
Ba2 O14 2.826186 1_555
Ba2 O23 3.046962 1_555
Ba2 O18 3.046976 1_555
Ba2 O11 3.046981 1_555
Ba3 O21 2.690097 1_555
Ba3 O16 2.690102 1_555
Ba3 O15 2.690104 1_555
Ba3 O20 2.836224 1_555
Ba3 O17 2.836226 1_555
Ba3 O14 2.836238 1_555
Ba3 O19 3.025275 1_555
Ba3 O10 3.025275 1_555
Ba3 O22 3.025275 1_555
Ce0 O17 2.334795 1_565
Ce0 O2 2.470606 1_555
Ce0 O11 2.511602 1_565
Ce0 F1 2.512144 1_565
Ce0 O10 2.513954 1_565
Ce0 O1 2.551798 1_555
Ce0 O0 2.558986 1_554
Ce1 O20 2.334804 1_455
Ce1 O8 2.470606 1_555
Ce1 O23 2.511601 1_455
Ce1 F1 2.512144 1_555
Ce1 O22 2.513955 1_455
Ce1 O4 2.551796 1_555
Ce1 O5 2.558987 1_554
Ce2 O9 2.334796 1_555
Ce2 O16 2.470606 1_555
Ce2 O4 2.511594 1_555
Ce2 F0 2.512144 1_555
Ce2 O5 2.513962 1_555
Ce2 O11 2.551794 1_556
Ce2 O10 2.558989 1_555
Ce3 O14 2.334796 1_555
Ce3 O7 2.470606 1_555
Ce3 O18 2.511594 1_555
Ce3 F1 2.512144 1_665
Ce3 O19 2.513962 1_555
Ce3 O12 2.551794 1_555
Ce3 O13 2.558989 1_554
Ce4 O3 2.334804 1_655
Ce4 O15 2.470606 1_555
Ce4 O1 2.511601 1_655
Ce4 F0 2.512144 1_665
Ce4 O0 2.513955 1_655
Ce4 O18 2.551796 1_556
Ce4 O19 2.558987 1_555
Ce5 O6 2.334795 1_545
Ce5 O21 2.470606 1_555
Ce5 O12 2.511602 1_545
Ce5 F0 2.512144 1_655
Ce5 O13 2.513954 1_545
Ce5 O23 2.551798 1_556
Ce5 O22 2.558986 1_555
O0 Si1 1.659963 1_555
O1 Si1 1.661080 1_555
O2 Si5 1.632232 1_455
O3 Si0 1.653839 1_555
O4 Si0 1.661085 1_555
O5 Si0 1.659958 1_555
O6 Si1 1.653849 1_555
O7 Si4 1.632232 1_565
O8 Si2 1.632232 1_555
O9 Si3 1.653841 1_555
O10 Si2 1.659964 1_555
O11 Si2 1.661079 1_555
O12 Si3 1.661079 1_555
O13 Si3 1.659964 1_555
O14 Si2 1.653841 1_555
O15 Si3 1.632232 1_555
O16 Si1 1.632232 1_545
O17 Si4 1.653849 1_555
O18 Si5 1.661085 1_555
O19 Si5 1.659958 1_555
O20 Si5 1.653839 1_555
O21 Si0 1.632232 1_655
O22 Si4 1.659963 1_555
O23 Si4 1.661080 1_555
