# generated using pymatgen
data_Na5Al3F14
_symmetry_space_group_name_H-M   'P 1'
_cell_length_a   6.92063395
_cell_length_b   6.92063395
_cell_length_c   10.34104415
_cell_angle_alpha   90.00000000
_cell_angle_beta   90.00000000
_cell_angle_gamma   90.00000000
_symmetry_Int_Tables_number   1
_chemical_formula_structural   Na5Al3F14
_chemical_formula_sum   'Na10 Al6 F28'
_cell_volume   495.28611170
_cell_formula_units_Z   2
loop_
 _symmetry_equiv_pos_site_id
 _symmetry_equiv_pos_as_xyz
  1  'x, y, z'
loop_
 _atom_site_type_symbol
 _atom_site_label
 _atom_site_symmetry_multiplicity
 _atom_site_fract_x
 _atom_site_fract_y
 _atom_site_fract_z
 _atom_site_occupancy
  Na  Na0  1  0.00000000  -0.00000000  0.50000000  1
  Na  Na1  1  0.50000000  0.50000000  -0.00000000  1
  Na  Na2  1  0.28161157  0.78161157  0.25000000  1
  Na  Na3  1  0.21838843  0.28161157  0.25000000  1
  Na  Na4  1  0.78161157  0.71838843  0.25000000  1
  Na  Na5  1  0.71838843  0.21838843  0.25000000  1
  Na  Na6  1  0.28161157  0.78161157  0.75000000  1
  Na  Na7  1  0.21838843  0.28161157  0.75000000  1
  Na  Na8  1  0.78161157  0.71838843  0.75000000  1
  Na  Na9  1  0.71838843  0.21838843  0.75000000  1
  Al  Al0  1  0.00000000  -0.00000000  -0.00000000  1
  Al  Al1  1  0.50000000  0.50000000  0.50000000  1
  Al  Al2  1  0.00000000  0.50000000  -0.00000000  1
  Al  Al3  1  0.50000000  -0.00000000  -0.00000000  1
  Al  Al4  1  0.50000000  -0.00000000  0.50000000  1
  Al  Al5  1  0.00000000  0.50000000  0.50000000  1
  F  F0  1  0.04261419  0.68066679  0.62115261  1
  F  F1  1  0.95738581  0.31933321  0.62115261  1
  F  F2  1  0.18066679  0.54261419  0.87884739  1
  F  F3  1  0.68066679  0.95738581  0.62115261  1
  F  F4  1  0.31933321  0.04261419  0.62115261  1
  F  F5  1  0.45738581  0.18066679  0.87884739  1
  F  F6  1  0.54261419  0.81933321  0.87884739  1
  F  F7  1  0.81933321  0.45738581  0.87884739  1
  F  F8  1  0.95738581  0.31933321  0.37884739  1
  F  F9  1  0.04261419  0.68066679  0.37884739  1
  F  F10  1  0.81933321  0.45738581  0.12115261  1
  F  F11  1  0.31933321  0.04261419  0.37884739  1
  F  F12  1  0.68066679  0.95738581  0.37884739  1
  F  F13  1  0.54261419  0.81933321  0.12115261  1
  F  F14  1  0.45738581  0.18066679  0.12115261  1
  F  F15  1  0.18066679  0.54261419  0.12115261  1
  F  F16  1  0.00000000  -0.00000000  0.17360263  1
  F  F17  1  0.50000000  0.50000000  0.32639737  1
  F  F18  1  0.00000000  -0.00000000  0.82639737  1
  F  F19  1  0.50000000  0.50000000  0.67360263  1
  F  F20  1  0.07510194  0.24794752  -0.00000000  1
  F  F21  1  0.75205248  0.07510194  -0.00000000  1
  F  F22  1  0.24794752  0.92489806  -0.00000000  1
  F  F23  1  0.57510194  0.25205248  0.50000000  1
  F  F24  1  0.42489806  0.74794752  0.50000000  1
  F  F25  1  0.92489806  0.75205248  -0.00000000  1
  F  F26  1  0.74794752  0.57510194  0.50000000  1
  F  F27  1  0.25205248  0.42489806  0.50000000  1
loop_
_geom_bond_atom_site_label_1
_geom_bond_atom_site_label_2
_geom_bond_distance
_geom_bond_site_symmetry_2
Al0 F25 1.792942 1_445
Al0 F21 1.792942 1_455
Al0 F20 1.792942 1_555
Al0 F22 1.792942 1_545
Al0 F18 1.795232 1_554
Al0 F16 1.795232 1_555
Al1 F24 1.792942 1_555
Al1 F23 1.792942 1_555
Al1 F26 1.792942 1_555
Al1 F27 1.792942 1_555
Al1 F19 1.795232 1_555
Al1 F17 1.795232 1_555
Al2 F2 1.794413 1_554
Al2 F10 1.794413 1_455
Al2 F7 1.794413 1_454
Al2 F15 1.794413 1_555
Al2 F20 1.820150 1_555
Al2 F25 1.820150 1_455
Al3 F5 1.794413 1_554
Al3 F13 1.794413 1_545
Al3 F6 1.794413 1_544
Al3 F14 1.794413 1_555
Al3 F22 1.820150 1_545
Al3 F21 1.820150 1_555
Al4 F3 1.794413 1_545
Al4 F11 1.794413 1_555
Al4 F4 1.794413 1_555
Al4 F12 1.794413 1_545
Al4 F24 1.820150 1_545
Al4 F23 1.820150 1_555
Al5 F0 1.794413 1_555
Al5 F1 1.794413 1_455
Al5 F8 1.794413 1_455
Al5 F9 1.794413 1_555
Al5 F27 1.820150 1_555
Al5 F26 1.820150 1_455
F0 Na6 2.235875 1_555
F0 Na8 2.259694 1_455
F0 Na0 2.557468 1_565
F1 Na9 2.235875 1_555
F1 Na7 2.259694 1_655
F1 Na0 2.557468 1_655
F2 Na6 2.235875 1_555
F2 Na7 2.259694 1_555
F2 Na1 2.557468 1_556
F3 Na8 2.235875 1_555
F3 Na9 2.259694 1_565
F3 Na0 2.557468 1_665
F4 Na7 2.235875 1_555
F4 Na6 2.259694 1_545
F4 Na0 2.557468 1_555
F5 Na7 2.235875 1_555
F5 Na9 2.259694 1_555
F5 Na1 2.557468 1_556
F6 Na8 2.235875 1_555
F6 Na6 2.259694 1_555
F6 Na1 2.557468 1_556
F7 Na9 2.235875 1_555
F7 Na8 2.259694 1_555
F7 Na1 2.557468 1_556
F8 Na5 2.235875 1_555
F8 Na3 2.259694 1_655
F8 Na0 2.557468 1_655
F9 Na2 2.235875 1_555
F9 Na4 2.259694 1_455
F9 Na0 2.557468 1_565
F10 Na5 2.235875 1_555
F10 Na4 2.259694 1_555
F10 Na1 2.557468 1_555
F11 Na3 2.235875 1_555
F11 Na2 2.259694 1_545
F11 Na0 2.557468 1_555
F12 Na4 2.235875 1_555
F12 Na5 2.259694 1_565
F12 Na0 2.557468 1_665
F13 Na4 2.235875 1_555
F13 Na2 2.259694 1_555
F13 Na1 2.557468 1_555
F14 Na3 2.235875 1_555
F14 Na5 2.259694 1_555
F14 Na1 2.557468 1_555
F15 Na2 2.235875 1_555
F15 Na3 2.259694 1_555
F15 Na1 2.557468 1_555
F16 Na2 2.589742 1_545
F16 Na3 2.589742 1_555
F16 Na5 2.589742 1_455
F16 Na4 2.589742 1_445
F17 Na5 2.589742 1_555
F17 Na2 2.589742 1_555
F17 Na3 2.589742 1_555
F17 Na4 2.589742 1_555
F18 Na8 2.589742 1_445
F18 Na6 2.589742 1_545
F18 Na7 2.589742 1_555
F18 Na9 2.589742 1_455
F19 Na6 2.589742 1_555
F19 Na8 2.589742 1_555
F19 Na9 2.589742 1_555
F19 Na7 2.589742 1_555
F20 Na7 2.778703 1_554
F20 Na3 2.778703 1_555
F21 Na5 2.778703 1_555
F21 Na9 2.778703 1_554
F22 Na6 2.778703 1_554
F22 Na2 2.778703 1_555
F23 Na9 2.778703 1_555
F23 Na5 2.778703 1_555
F24 Na2 2.778703 1_555
F24 Na6 2.778703 1_555
F25 Na4 2.778703 1_555
F25 Na8 2.778703 1_554
F26 Na8 2.778703 1_555
F26 Na4 2.778703 1_555
F27 Na7 2.778703 1_555
F27 Na3 2.778703 1_555
