# generated using pymatgen
data_KBa4Ti5O14F
_symmetry_space_group_name_H-M   'P 1'
_cell_length_a   4.00890400
_cell_length_b   4.00890400
_cell_length_c   20.33079200
_cell_angle_alpha   90.00000000
_cell_angle_beta   90.00000000
_cell_angle_gamma   90.00000000
_symmetry_Int_Tables_number   1
_chemical_formula_structural   KBa4Ti5O14F
_chemical_formula_sum   'K1 Ba4 Ti5 O14 F1'
_cell_volume   326.74248683
_cell_formula_units_Z   1
loop_
 _symmetry_equiv_pos_site_id
 _symmetry_equiv_pos_as_xyz
  1  'x, y, z'
loop_
 _atom_site_type_symbol
 _atom_site_label
 _atom_site_symmetry_multiplicity
 _atom_site_fract_x
 _atom_site_fract_y
 _atom_site_fract_z
 _atom_site_occupancy
  K  K0  1  0.00000000  0.00000000  0.50000000  1
  Ba  Ba0  1  0.00000000  0.00000000  0.69772900  1
  Ba  Ba1  1  0.00000000  0.00000000  0.89960100  1
  Ba  Ba2  1  0.00000000  0.00000000  0.10039900  1
  Ba  Ba3  1  0.00000000  0.00000000  0.30227100  1
  Ti  Ti0  1  0.50000000  0.50000000  0.80075100  1
  Ti  Ti1  1  0.50000000  0.50000000  0.19924900  1
  Ti  Ti2  1  0.50000000  0.50000000  0.00000000  1
  Ti  Ti3  1  0.50000000  0.50000000  0.60441200  1
  Ti  Ti4  1  0.50000000  0.50000000  0.39558800  1
  O  O0  1  0.00000000  0.50000000  0.80020300  1
  O  O1  1  0.00000000  0.50000000  0.00000000  1
  O  O2  1  0.00000000  0.50000000  0.19979700  1
  O  O3  1  0.00000000  0.50000000  0.39850300  1
  O  O4  1  0.00000000  0.50000000  0.60149700  1
  O  O5  1  0.50000000  0.00000000  0.80020300  1
  O  O6  1  0.50000000  0.50000000  0.70005700  1
  O  O7  1  0.50000000  0.00000000  0.00000000  1
  O  O8  1  0.50000000  0.00000000  0.19979700  1
  O  O9  1  0.50000000  0.50000000  0.10004500  1
  O  O10  1  0.50000000  0.50000000  0.89995500  1
  O  O11  1  0.50000000  0.00000000  0.39850300  1
  O  O12  1  0.50000000  0.00000000  0.60149700  1
  O  O13  1  0.50000000  0.50000000  0.29994300  1
  F  F0  1  0.50000000  0.50000000  0.50000000  1
loop_
_geom_bond_atom_site_label_1
_geom_bond_atom_site_label_2
_geom_bond_distance
_geom_bond_site_symmetry_2
K0 O12 2.876790 1_555
K0 O12 2.876790 1_455
K0 O4 2.876790 1_545
K0 O4 2.876790 1_555
K0 O3 2.876790 1_545
K0 O11 2.876790 1_555
K0 O11 2.876790 1_455
K0 O3 2.876790 1_555
Ba0 O4 2.801002 1_555
Ba0 O12 2.801002 1_455
Ba0 O12 2.801002 1_555
Ba0 O4 2.801002 1_545
Ba0 O6 2.835118 1_545
Ba0 O6 2.835118 1_455
Ba0 O6 2.835118 1_555
Ba0 O6 2.835118 1_445
Ba0 O0 2.891071 1_545
Ba0 O5 2.891071 1_455
Ba0 O0 2.891071 1_555
Ba0 O5 2.891071 1_555
Ba1 O10 2.834732 1_455
Ba1 O10 2.834732 1_545
Ba1 O10 2.834732 1_555
Ba1 O10 2.834732 1_445
Ba1 O5 2.846335 1_555
Ba1 O0 2.846335 1_555
Ba1 O0 2.846335 1_545
Ba1 O5 2.846335 1_455
Ba1 O7 2.860820 1_456
Ba1 O1 2.860820 1_546
Ba1 O7 2.860820 1_556
Ba1 O1 2.860820 1_556
Ba2 O9 2.834732 1_555
Ba2 O9 2.834732 1_445
Ba2 O9 2.834732 1_545
Ba2 O9 2.834732 1_455
Ba2 O2 2.846335 1_555
Ba2 O8 2.846335 1_555
Ba2 O2 2.846335 1_545
Ba2 O8 2.846335 1_455
Ba2 O7 2.860820 1_455
Ba2 O1 2.860820 1_545
Ba2 O1 2.860820 1_555
Ba2 O7 2.860820 1_555
Ba3 O3 2.801002 1_555
Ba3 O11 2.801002 1_455
Ba3 O11 2.801002 1_555
Ba3 O3 2.801002 1_545
Ba3 O13 2.835118 1_455
Ba3 O13 2.835118 1_445
Ba3 O13 2.835118 1_555
Ba3 O13 2.835118 1_545
Ba3 O8 2.891071 1_455
Ba3 O2 2.891071 1_555
Ba3 O8 2.891071 1_555
Ba3 O2 2.891071 1_545
O0 Ti0 2.004483 1_555
O0 Ti0 2.004483 1_455
O1 Ti2 2.004452 1_455
O1 Ti2 2.004452 1_555
O2 Ti1 2.004483 1_455
O2 Ti1 2.004483 1_555
O3 Ti4 2.005328 1_555
O3 Ti4 2.005328 1_455
O4 Ti3 2.005328 1_455
O4 Ti3 2.005328 1_555
O5 Ti0 2.004483 1_555
O5 Ti0 2.004483 1_545
O6 Ti3 1.944539 1_555
O6 Ti0 2.047189 1_555
O7 Ti2 2.004452 1_545
O7 Ti2 2.004452 1_555
O8 Ti1 2.004483 1_545
O8 Ti1 2.004483 1_555
O9 Ti1 2.016896 1_555
O9 Ti2 2.033994 1_555
O10 Ti0 2.016896 1_555
O10 Ti2 2.033994 1_556
O11 Ti4 2.005328 1_555
O11 Ti4 2.005328 1_545
O12 Ti3 2.005328 1_545
O12 Ti3 2.005328 1_555
O13 Ti4 1.944539 1_555
O13 Ti1 2.047189 1_555
F0 Ti3 2.122779 1_555
F0 Ti4 2.122779 1_555
F0 K0 2.834723 1_565
F0 K0 2.834723 1_655
F0 K0 2.834723 1_665
F0 K0 2.834723 1_555
