# generated using pymatgen
data_Sr4PtO6
_symmetry_space_group_name_H-M   'P 1'
_cell_length_a   6.90109135
_cell_length_b   6.90109135
_cell_length_c   6.90109084
_cell_angle_alpha   90.04547315
_cell_angle_beta   90.04547315
_cell_angle_gamma   90.04547170
_symmetry_Int_Tables_number   1
_chemical_formula_structural   Sr4PtO6
_chemical_formula_sum   'Sr8 Pt2 O12'
_cell_volume   328.66456732
_cell_formula_units_Z   2
loop_
 _symmetry_equiv_pos_site_id
 _symmetry_equiv_pos_as_xyz
  1  'x, y, z'
loop_
 _atom_site_type_symbol
 _atom_site_label
 _atom_site_symmetry_multiplicity
 _atom_site_fract_x
 _atom_site_fract_y
 _atom_site_fract_z
 _atom_site_occupancy
  Sr  Sr0  1  0.75000000  0.11808859  0.38191141  1
  Sr  Sr1  1  0.38191141  0.75000000  0.11808859  1
  Sr  Sr2  1  0.11808859  0.38191141  0.75000000  1
  Sr  Sr3  1  0.25000000  0.88191141  0.61808859  1
  Sr  Sr4  1  0.61808859  0.25000000  0.88191141  1
  Sr  Sr5  1  0.88191141  0.61808859  0.25000000  1
  Sr  Sr6  1  0.75000000  0.75000000  0.75000000  1
  Sr  Sr7  1  0.25000000  0.25000000  0.25000000  1
  Pt  Pt0  1  0.50000000  0.50000000  0.50000000  1
  Pt  Pt1  1  -0.00000000  -0.00000000  0.00000000  1
  O  O0  1  0.57233458  0.78559148  0.44207344  1
  O  O1  1  0.44207344  0.57233458  0.78559148  1
  O  O2  1  0.78559148  0.44207344  0.57233458  1
  O  O3  1  0.92766542  0.05792656  0.71440852  1
  O  O4  1  0.71440852  0.92766542  0.05792656  1
  O  O5  1  0.05792656  0.71440852  0.92766542  1
  O  O6  1  0.42766542  0.21440852  0.55792656  1
  O  O7  1  0.55792656  0.42766542  0.21440852  1
  O  O8  1  0.21440852  0.55792656  0.42766542  1
  O  O9  1  0.07233458  0.94207344  0.28559148  1
  O  O10  1  0.94207344  0.28559148  0.07233458  1
  O  O11  1  0.28559148  0.07233458  0.94207344  1
loop_
_geom_bond_atom_site_label_1
_geom_bond_atom_site_label_2
_geom_bond_distance
_geom_bond_site_symmetry_2
O0 Pt0 2.072056 1_555
O0 Sr6 2.465063 1_555
O0 Sr1 2.603888 1_555
O0 Sr3 2.621242 1_555
O0 Sr0 2.634136 1_565
O0 Sr5 2.768300 1_555
O1 Pt0 2.072056 1_555
O1 Sr6 2.465063 1_555
O1 Sr2 2.603888 1_555
O1 Sr4 2.621242 1_555
O1 Sr1 2.634136 1_556
O1 Sr3 2.768300 1_555
O2 Pt0 2.072056 1_555
O2 Sr6 2.465063 1_555
O2 Sr0 2.603888 1_555
O2 Sr5 2.621242 1_555
O2 Sr2 2.634136 1_655
O2 Sr4 2.768300 1_555
O3 Pt1 2.072056 1_656
O3 Sr6 2.465063 1_545
O3 Sr2 2.603888 1_655
O3 Sr3 2.621242 1_645
O3 Sr0 2.634136 1_555
O3 Sr4 2.768300 1_555
O4 Pt1 2.072056 1_665
O4 Sr6 2.465063 1_554
O4 Sr0 2.603888 1_565
O4 Sr4 2.621242 1_564
O4 Sr1 2.634136 1_555
O4 Sr5 2.768300 1_555
O5 Pt1 2.072056 1_566
O5 Sr6 2.465063 1_455
O5 Sr1 2.603888 1_556
O5 Sr5 2.621242 1_456
O5 Sr2 2.634136 1_555
O5 Sr3 2.768300 1_555
O6 Pt0 2.072056 1_555
O6 Sr7 2.465063 1_555
O6 Sr4 2.603888 1_555
O6 Sr0 2.621242 1_555
O6 Sr3 2.634136 1_545
O6 Sr2 2.768300 1_555
O7 Pt0 2.072056 1_555
O7 Sr7 2.465063 1_555
O7 Sr5 2.603888 1_555
O7 Sr1 2.621242 1_555
O7 Sr4 2.634136 1_554
O7 Sr0 2.768300 1_555
O8 Pt0 2.072056 1_555
O8 Sr7 2.465063 1_555
O8 Sr3 2.603888 1_555
O8 Sr2 2.621242 1_555
O8 Sr5 2.634136 1_455
O8 Sr1 2.768300 1_555
O9 Pt1 2.072056 1_565
O9 Sr7 2.465063 1_565
O9 Sr5 2.603888 1_455
O9 Sr0 2.621242 1_465
O9 Sr3 2.634136 1_555
O9 Sr1 2.768300 1_555
O10 Pt1 2.072056 1_655
O10 Sr7 2.465063 1_655
O10 Sr4 2.603888 1_554
O10 Sr2 2.621242 1_654
O10 Sr5 2.634136 1_555
O10 Sr0 2.768300 1_555
O11 Pt1 2.072056 1_556
O11 Sr7 2.465063 1_556
O11 Sr3 2.603888 1_545
O11 Sr1 2.621242 1_546
O11 Sr4 2.634136 1_555
O11 Sr2 2.768300 1_555
