# generated using pymatgen
data_Ga2Pd5
_symmetry_space_group_name_H-M   'P 1'
_cell_length_a   4.07776418
_cell_length_b   5.46635589
_cell_length_c   18.48300457
_cell_angle_alpha   90.00000000
_cell_angle_beta   90.00000000
_cell_angle_gamma   90.00000000
_symmetry_Int_Tables_number   1
_chemical_formula_structural   Ga2Pd5
_chemical_formula_sum   'Ga8 Pd20'
_cell_volume   411.99560270
_cell_formula_units_Z   4
loop_
 _symmetry_equiv_pos_site_id
 _symmetry_equiv_pos_as_xyz
  1  'x, y, z'
loop_
 _atom_site_type_symbol
 _atom_site_label
 _atom_site_symmetry_multiplicity
 _atom_site_fract_x
 _atom_site_fract_y
 _atom_site_fract_z
 _atom_site_occupancy
  Ga  Ga0  1  0.75000000  0.20236373  0.95618400  1
  Ga  Ga1  1  0.25000000  0.79763627  0.04381600  1
  Ga  Ga2  1  0.75000000  0.70236373  0.54381600  1
  Ga  Ga3  1  0.25000000  0.29763627  0.45618400  1
  Ga  Ga4  1  0.75000000  0.66726200  0.82396544  1
  Ga  Ga5  1  0.25000000  0.33273800  0.17603456  1
  Ga  Ga6  1  0.75000000  0.16726200  0.67603456  1
  Ga  Ga7  1  0.25000000  0.83273800  0.32396544  1
  Pd  Pd0  1  0.75000000  0.14095088  0.23322360  1
  Pd  Pd1  1  0.25000000  0.85904912  0.76677640  1
  Pd  Pd2  1  0.75000000  0.64095088  0.26677640  1
  Pd  Pd3  1  0.25000000  0.35904912  0.73322360  1
  Pd  Pd4  1  0.75000000  0.66793099  0.96946967  1
  Pd  Pd5  1  0.25000000  0.33206901  0.03053033  1
  Pd  Pd6  1  0.75000000  0.16793099  0.53053033  1
  Pd  Pd7  1  0.25000000  0.83206901  0.46946967  1
  Pd  Pd8  1  0.75000000  0.03366317  0.08742410  1
  Pd  Pd9  1  0.25000000  0.96633683  0.91257590  1
  Pd  Pd10  1  0.75000000  0.53366317  0.41257590  1
  Pd  Pd11  1  0.25000000  0.46633683  0.58742410  1
  Pd  Pd12  1  0.75000000  0.16409781  0.81994119  1
  Pd  Pd13  1  0.25000000  0.83590219  0.18005881  1
  Pd  Pd14  1  0.75000000  0.66409781  0.68005881  1
  Pd  Pd15  1  0.25000000  0.33590219  0.31994119  1
  Pd  Pd16  1  0.75000000  0.03533784  0.38140207  1
  Pd  Pd17  1  0.25000000  0.96466216  0.61859793  1
  Pd  Pd18  1  0.75000000  0.53533784  0.11859793  1
  Pd  Pd19  1  0.25000000  0.46466216  0.88140207  1
loop_
_geom_bond_atom_site_label_1
_geom_bond_atom_site_label_2
_geom_bond_distance
_geom_bond_site_symmetry_2
Ga0 Pd12 2.526849 1_555
Ga0 Pd9 2.543880 1_645
Ga0 Pd9 2.543880 1_545
Ga0 Pd4 2.556776 1_555
Ga0 Pd5 2.558909 1_656
Ga0 Pd5 2.558909 1_556
Ga0 Pd8 2.595089 1_556
Ga0 Pd19 2.850146 1_655
Ga0 Pd19 2.850146 1_555
Ga0 Pd4 2.931702 1_545
Ga1 Pd13 2.526849 1_555
Ga1 Pd8 2.543880 1_465
Ga1 Pd8 2.543880 1_565
Ga1 Pd5 2.556776 1_555
Ga1 Pd4 2.558909 1_554
Ga1 Pd4 2.558909 1_454
Ga1 Pd9 2.595089 1_554
Ga1 Pd18 2.850146 1_555
Ga1 Pd18 2.850146 1_455
Ga1 Pd5 2.931702 1_565
Ga2 Pd14 2.526849 1_555
Ga2 Pd11 2.543880 1_655
Ga2 Pd11 2.543880 1_555
Ga2 Pd6 2.556776 1_565
Ga2 Pd7 2.558909 1_555
Ga2 Pd7 2.558909 1_655
Ga2 Pd10 2.595089 1_555
Ga2 Pd17 2.850146 1_655
Ga2 Pd17 2.850146 1_555
Ga2 Pd6 2.931702 1_555
Ga3 Pd15 2.526849 1_555
Ga3 Pd10 2.543880 1_455
Ga3 Pd10 2.543880 1_555
Ga3 Pd7 2.556776 1_545
Ga3 Pd6 2.558909 1_455
Ga3 Pd6 2.558909 1_555
Ga3 Pd11 2.595089 1_555
Ga3 Pd16 2.850146 1_455
Ga3 Pd16 2.850146 1_555
Ga3 Pd7 2.931702 1_555
Ga4 Pd1 2.524567 1_555
Ga4 Pd1 2.524567 1_655
Ga4 Pd19 2.551579 1_655
Ga4 Pd19 2.551579 1_555
Ga4 Pd14 2.659883 1_555
Ga4 Pd4 2.689358 1_555
Ga4 Pd12 2.716900 1_565
Ga4 Pd12 2.751480 1_555
Ga5 Pd0 2.524567 1_555
Ga5 Pd0 2.524567 1_455
Ga5 Pd18 2.551579 1_455
Ga5 Pd18 2.551579 1_555
Ga5 Pd15 2.659883 1_555
Ga5 Pd5 2.689358 1_555
Ga5 Pd13 2.716900 1_545
Ga5 Pd13 2.751480 1_555
Ga6 Pd3 2.524567 1_555
Ga6 Pd3 2.524567 1_655
Ga6 Pd17 2.551579 1_545
Ga6 Pd17 2.551579 1_645
Ga6 Pd12 2.659883 1_555
Ga6 Pd6 2.689358 1_555
Ga6 Pd14 2.716900 1_555
Ga6 Pd14 2.751480 1_545
Ga7 Pd2 2.524567 1_555
Ga7 Pd2 2.524567 1_455
Ga7 Pd16 2.551579 1_565
Ga7 Pd16 2.551579 1_465
Ga7 Pd13 2.659883 1_555
Ga7 Pd7 2.689358 1_555
Ga7 Pd15 2.716900 1_555
Ga7 Pd15 2.751480 1_565
