# generated using pymatgen
data_Sr(GaO2)2
_symmetry_space_group_name_H-M   'P 1'
_cell_length_a   9.01162540
_cell_length_b   8.39619059
_cell_length_c   10.70995031
_cell_angle_alpha   86.00464488
_cell_angle_beta   90.00000000
_cell_angle_gamma   90.00000000
_symmetry_Int_Tables_number   1
_chemical_formula_structural   Sr(GaO2)2
_chemical_formula_sum   'Sr8 Ga16 O32'
_cell_volume   808.38105126
_cell_formula_units_Z   8
loop_
 _symmetry_equiv_pos_site_id
 _symmetry_equiv_pos_as_xyz
  1  'x, y, z'
loop_
 _atom_site_type_symbol
 _atom_site_label
 _atom_site_symmetry_multiplicity
 _atom_site_fract_x
 _atom_site_fract_y
 _atom_site_fract_z
 _atom_site_occupancy
  Sr  Sr0  1  0.71190177  0.50444806  0.13154983  1
  Sr  Sr1  1  0.21190177  0.49555194  0.36845017  1
  Sr  Sr2  1  0.28809823  0.49555194  0.86845017  1
  Sr  Sr3  1  0.78809823  0.50444806  0.63154983  1
  Sr  Sr4  1  0.73750073  0.03590514  0.15083621  1
  Sr  Sr5  1  0.23750073  0.96409486  0.34916379  1
  Sr  Sr6  1  0.26249927  0.96409486  0.84916379  1
  Sr  Sr7  1  0.76249927  0.03590514  0.65083621  1
  Ga  Ga0  1  0.55603363  0.67765255  0.36029323  1
  Ga  Ga1  1  0.05603363  0.32234745  0.13970677  1
  Ga  Ga2  1  0.44396637  0.32234745  0.63970677  1
  Ga  Ga3  1  0.94396637  0.67765255  0.86029323  1
  Ga  Ga4  1  0.90548638  0.19558912  0.38990125  1
  Ga  Ga5  1  0.40548638  0.80441088  0.11009875  1
  Ga  Ga6  1  0.09451362  0.80441088  0.61009875  1
  Ga  Ga7  1  0.59451362  0.19558912  0.88990125  1
  Ga  Ga8  1  0.89247487  0.79384328  0.37979130  1
  Ga  Ga9  1  0.39247487  0.20615672  0.12020870  1
  Ga  Ga10  1  0.10752513  0.20615672  0.62020870  1
  Ga  Ga11  1  0.60752513  0.79384328  0.87979130  1
  Ga  Ga12  1  0.06468179  0.72067604  0.13034414  1
  Ga  Ga13  1  0.56468179  0.27932396  0.36965586  1
  Ga  Ga14  1  0.93531821  0.27932396  0.86965586  1
  Ga  Ga15  1  0.43531821  0.72067604  0.63034414  1
  O  O0  1  0.74402227  0.65140504  0.42456292  1
  O  O1  1  0.24402227  0.34859496  0.07543708  1
  O  O2  1  0.25597773  0.34859496  0.57543708  1
  O  O3  1  0.75597773  0.65140504  0.92456292  1
  O  O4  1  0.57963355  0.78280421  0.20186488  1
  O  O5  1  0.07963355  0.21719579  0.29813512  1
  O  O6  1  0.42036645  0.21719579  0.79813512  1
  O  O7  1  0.92036645  0.78280421  0.70186488  1
  O  O8  1  0.06522666  0.71650323  0.45817432  1
  O  O9  1  0.56522666  0.28349677  0.04182568  1
  O  O10  1  0.93477334  0.28349677  0.54182568  1
  O  O11  1  0.43477334  0.71650323  0.95817432  1
  O  O12  1  0.74961318  0.27351006  0.29218231  1
  O  O13  1  0.24961318  0.72648994  0.20781769  1
  O  O14  1  0.25038682  0.72648994  0.70781769  1
  O  O15  1  0.75038682  0.27351006  0.79218231  1
  O  O16  1  0.94121510  0.85188030  0.21433899  1
  O  O17  1  0.44121510  0.14811970  0.28566101  1
  O  O18  1  0.05878490  0.14811970  0.78566101  1
  O  O19  1  0.55878490  0.85188030  0.71433899  1
  O  O20  1  0.48864058  0.47864448  0.32016775  1
  O  O21  1  0.98864058  0.52135552  0.17983225  1
  O  O22  1  0.51135942  0.52135552  0.67983225  1
  O  O23  1  0.01135942  0.47864448  0.82016775  1
  O  O24  1  0.66085076  0.98996490  0.93365395  1
  O  O25  1  0.16085076  0.01003510  0.56634605  1
  O  O26  1  0.33914924  0.01003510  0.06634605  1
  O  O27  1  0.83914924  0.98996490  0.43365395  1
  O  O28  1  0.41420779  0.76071155  0.46037582  1
  O  O29  1  0.91420779  0.23928845  0.03962418  1
  O  O30  1  0.58579221  0.23928845  0.53962418  1
  O  O31  1  0.08579221  0.76071155  0.96037582  1
loop_
_geom_bond_atom_site_label_1
_geom_bond_atom_site_label_2
_geom_bond_distance
_geom_bond_site_symmetry_2
Ga0 O0 1.836066 1_555
Ga0 O28 1.836551 1_555
Ga0 O20 1.856211 1_555
Ga0 O4 1.869475 1_555
Ga1 O1 1.836066 1_555
Ga1 O29 1.836551 1_455
Ga1 O21 1.856211 1_455
Ga1 O5 1.869475 1_555
Ga2 O2 1.836066 1_555
Ga2 O30 1.836551 1_555
Ga2 O22 1.856211 1_555
Ga2 O6 1.869475 1_555
Ga3 O3 1.836066 1_555
Ga3 O31 1.836551 1_655
Ga3 O23 1.856211 1_655
Ga3 O7 1.869475 1_555
Ga4 O12 1.844184 1_555
Ga4 O10 1.851823 1_555
Ga4 O5 1.853871 1_655
Ga4 O27 1.856038 1_545
Ga5 O13 1.844184 1_555
Ga5 O11 1.851823 1_554
Ga5 O4 1.853871 1_555
Ga5 O26 1.856038 1_565
Ga6 O14 1.844184 1_555
Ga6 O8 1.851823 1_555
Ga6 O7 1.853871 1_455
Ga6 O25 1.856038 1_565
Ga7 O15 1.844184 1_555
Ga7 O9 1.851823 1_556
Ga7 O6 1.853871 1_555
Ga7 O24 1.856038 1_545
Ga8 O0 1.835752 1_555
Ga8 O27 1.845972 1_555
Ga8 O16 1.857413 1_555
Ga8 O8 1.863861 1_655
Ga9 O1 1.835752 1_555
Ga9 O26 1.845972 1_555
Ga9 O17 1.857413 1_555
Ga9 O9 1.863861 1_555
Ga10 O2 1.835752 1_555
Ga10 O25 1.845972 1_555
Ga10 O18 1.857413 1_555
Ga10 O10 1.863861 1_455
Ga11 O3 1.835752 1_555
Ga11 O24 1.845972 1_555
Ga11 O19 1.857413 1_555
Ga11 O11 1.863861 1_555
Ga12 O31 1.837824 1_554
Ga12 O16 1.843599 1_455
Ga12 O21 1.851378 1_455
Ga12 O13 1.863819 1_555
Ga13 O30 1.837824 1_555
Ga13 O17 1.843599 1_555
Ga13 O20 1.851378 1_555
Ga13 O12 1.863819 1_555
Ga14 O29 1.837824 1_556
Ga14 O18 1.843599 1_655
Ga14 O23 1.851378 1_655
Ga14 O15 1.863819 1_555
Ga15 O28 1.837824 1_555
Ga15 O19 1.843599 1_555
Ga15 O22 1.851378 1_555
Ga15 O14 1.863819 1_555
O0 Sr3 2.492658 1_555
O1 Sr2 2.492658 1_554
O2 Sr1 2.492658 1_555
O3 Sr0 2.492658 1_556
O4 Sr4 2.583935 1_565
O4 Sr0 2.774042 1_555
O5 Sr5 2.583935 1_545
O5 Sr1 2.774042 1_555
O6 Sr6 2.583935 1_545
O6 Sr2 2.774042 1_555
O7 Sr7 2.583935 1_565
O7 Sr3 2.774042 1_555
O8 Sr1 2.522005 1_555
O8 Sr5 2.785053 1_555
O9 Sr0 2.522005 1_555
O9 Sr4 2.785053 1_555
O10 Sr3 2.522005 1_555
O10 Sr7 2.785053 1_555
O11 Sr2 2.522005 1_555
O11 Sr6 2.785053 1_555
O12 Sr0 2.523891 1_555
O12 Sr4 2.589268 1_555
O13 Sr1 2.523891 1_555
O13 Sr5 2.589268 1_555
O14 Sr2 2.523891 1_555
O14 Sr6 2.589268 1_555
O15 Sr3 2.523891 1_555
O15 Sr7 2.589268 1_555
O16 Sr4 2.464473 1_565
O17 Sr5 2.464473 1_545
O18 Sr6 2.464473 1_545
O19 Sr7 2.464473 1_565
O20 Sr1 2.552870 1_555
O20 Sr0 2.848620 1_555
O21 Sr0 2.552870 1_555
O21 Sr1 2.848620 1_655
O22 Sr3 2.552870 1_555
O22 Sr2 2.848620 1_555
O23 Sr2 2.552870 1_555
O23 Sr3 2.848620 1_455
O24 Sr4 2.482188 1_566
O25 Sr5 2.482188 1_545
O26 Sr6 2.482188 1_544
O27 Sr7 2.482188 1_565
O28 Sr5 2.566530 1_555
O28 Sr1 3.091113 1_555
O29 Sr4 2.566530 1_555
O29 Sr0 3.091113 1_555
O30 Sr7 2.566530 1_555
O30 Sr3 3.091113 1_555
O31 Sr6 2.566530 1_555
O31 Sr2 3.091113 1_555
