# generated using pymatgen
data_Er2(NiB2)3
_symmetry_space_group_name_H-M   'P 1'
_cell_length_a   3.43400638
_cell_length_b   5.74862829
_cell_length_c   5.74862808
_cell_angle_alpha   96.59922796
_cell_angle_beta   90.00000100
_cell_angle_gamma   89.99999921
_symmetry_Int_Tables_number   1
_chemical_formula_structural   Er2(NiB2)3
_chemical_formula_sum   'Er2 Ni3 B6'
_cell_volume   112.73076753
_cell_formula_units_Z   1
loop_
 _symmetry_equiv_pos_site_id
 _symmetry_equiv_pos_as_xyz
  1  'x, y, z'
loop_
 _atom_site_type_symbol
 _atom_site_label
 _atom_site_symmetry_multiplicity
 _atom_site_fract_x
 _atom_site_fract_y
 _atom_site_fract_z
 _atom_site_occupancy
  Er  Er0  1  -0.00000001  0.72466666  0.27533431  1
  Er  Er1  1  0.00000001  0.27533367  0.72466601  1
  Ni  Ni0  1  -0.00000004  0.77321822  0.77321806  1
  Ni  Ni1  1  0.00000000  0.22678195  0.22678214  1
  Ni  Ni2  1  0.49999985  -0.00000001  0.00000010  1
  B  B0  1  0.50000006  0.38716251  0.38716228  1
  B  B1  1  0.50000003  0.61283765  0.61283780  1
  B  B2  1  0.50000006  0.38353987  0.08401813  1
  B  B3  1  0.50000004  0.61646030  0.91598202  1
  B  B4  1  0.50000001  0.08401783  0.38353932  1
  B  B5  1  0.49999999  0.91598236  0.61646084  1
loop_
_geom_bond_atom_site_label_1
_geom_bond_atom_site_label_2
_geom_bond_distance
_geom_bond_site_symmetry_2
Er0 Ni0 2.843621 1_555
Er0 Ni1 2.843627 1_555
Er0 Ni2 2.921366 1_565
Er0 Ni2 2.921366 1_465
Er0 Ni1 2.931690 1_565
Er0 Ni0 2.931695 1_554
Er1 Ni1 2.843622 1_555
Er1 Ni0 2.843626 1_555
Er1 Ni2 2.921366 1_556
Er1 Ni2 2.921367 1_456
Er1 Ni0 2.931691 1_545
Er1 Ni1 2.931695 1_556
Ni0 Ni2 2.440623 1_566
Ni0 Ni2 2.440623 1_466
Ni1 Ni2 2.440623 1_555
Ni1 Ni2 2.440624 1_455
B0 B1 1.726051 1_555
B0 B2 1.740393 1_555
B0 B4 1.740396 1_555
B0 Ni1 2.110159 1_655
B0 Ni1 2.110159 1_555
B0 Er1 2.722566 1_655
B0 Er0 2.722566 1_655
B0 Er1 2.722566 1_555
B0 Er0 2.722566 1_555
B1 B3 1.740393 1_555
B1 B5 1.740396 1_555
B1 Ni0 2.110159 1_655
B1 Ni0 2.110159 1_555
B1 Er0 2.722565 1_655
B1 Er0 2.722565 1_555
B1 Er1 2.722566 1_655
B1 Er1 2.722566 1_555
B2 B3 1.738749 1_554
B2 Ni1 2.145621 1_655
B2 Ni1 2.145621 1_555
B2 Ni2 2.202221 1_555
B2 Er1 2.703171 1_654
B2 Er1 2.703171 1_554
B2 Er0 2.739985 1_655
B2 Er0 2.739985 1_555
B3 Ni0 2.145621 1_655
B3 Ni0 2.145621 1_555
B3 Ni2 2.202220 1_566
B3 Er0 2.703171 1_656
B3 Er0 2.703172 1_556
B3 Er1 2.739984 1_655
B3 Er1 2.739984 1_555
B4 B5 1.738752 1_545
B4 Ni1 2.145619 1_655
B4 Ni1 2.145619 1_555
B4 Ni2 2.202218 1_555
B4 Er0 2.703166 1_645
B4 Er0 2.703166 1_545
B4 Er1 2.739984 1_655
B4 Er1 2.739984 1_555
B5 Ni0 2.145619 1_655
B5 Ni0 2.145620 1_555
B5 Ni2 2.202218 1_566
B5 Er1 2.703166 1_565
B5 Er1 2.703167 1_665
B5 Er0 2.739983 1_555
B5 Er0 2.739983 1_655
