# generated using pymatgen
data_BaVS3
_symmetry_space_group_name_H-M   'P 1'
_cell_length_a   6.72863953
_cell_length_b   6.72825004
_cell_length_c   5.77939096
_cell_angle_alpha   90.05318513
_cell_angle_beta   90.31876557
_cell_angle_gamma   119.99338589
_symmetry_Int_Tables_number   1
_chemical_formula_structural   BaVS3
_chemical_formula_sum   'Ba2 V2 S6'
_cell_volume   226.60022022
_cell_formula_units_Z   2
loop_
 _symmetry_equiv_pos_site_id
 _symmetry_equiv_pos_as_xyz
  1  'x, y, z'
loop_
 _atom_site_type_symbol
 _atom_site_label
 _atom_site_symmetry_multiplicity
 _atom_site_fract_x
 _atom_site_fract_y
 _atom_site_fract_z
 _atom_site_occupancy
  Ba  Ba0  1  0.66667494  0.33333529  0.24999553  1
  Ba  Ba1  1  0.33332481  0.66666469  0.75000424  1
  V  V0  1  -0.00000001  -0.00000071  0.50000050  1
  V  V1  1  0.00000008  0.00000097  0.00000016  1
  S  S0  1  0.83779292  0.67563113  0.75083186  1
  S  S1  1  0.16219554  0.83782767  0.24946517  1
  S  S2  1  0.67564001  0.83781409  0.25128742  1
  S  S3  1  0.32436026  0.16218676  0.74871228  1
  S  S4  1  0.16220761  0.32436852  0.24916836  1
  S  S5  1  0.83780384  0.16217161  0.75053447  1
loop_
_geom_bond_atom_site_label_1
_geom_bond_atom_site_label_2
_geom_bond_distance
_geom_bond_site_symmetry_2
Ba0 S2 3.364510 1_555
Ba0 S2 3.364566 1_545
Ba0 S4 3.364602 1_555
Ba0 S4 3.364855 1_655
Ba0 S1 3.364906 1_545
Ba0 S1 3.365026 1_655
Ba0 S3 3.506035 1_554
Ba0 S0 3.508191 1_555
Ba0 S5 3.509330 1_555
Ba0 S5 3.512988 1_554
Ba0 S0 3.514298 1_554
Ba0 S3 3.516679 1_555
Ba1 S3 3.364506 1_555
Ba1 S3 3.364570 1_565
Ba1 S0 3.364608 1_555
Ba1 S0 3.364849 1_455
Ba1 S5 3.364902 1_565
Ba1 S5 3.365030 1_455
Ba1 S2 3.506036 1_556
Ba1 S4 3.508190 1_555
Ba1 S1 3.509330 1_555
Ba1 S1 3.512987 1_556
Ba1 S4 3.514301 1_556
Ba1 S2 3.516681 1_555
S0 V1 2.371320 1_666
S0 V0 2.386985 1_665
S1 V1 2.374090 1_565
S1 V0 2.383985 1_565
S2 V0 2.366704 1_665
S2 V1 2.391717 1_665
S3 V0 2.366701 1_555
S3 V1 2.391720 1_556
S4 V1 2.371309 1_555
S4 V0 2.386993 1_555
S5 V1 2.374084 1_656
S5 V0 2.383986 1_655
