# generated using pymatgen
data_Ca(CuGe)2
_symmetry_space_group_name_H-M   'P 1'
_cell_length_a   4.11783587
_cell_length_b   4.11783634
_cell_length_c   5.85505315
_cell_angle_alpha   110.58814469
_cell_angle_beta   110.58814578
_cell_angle_gamma   89.99999938
_symmetry_Int_Tables_number   1
_chemical_formula_structural   Ca(CuGe)2
_chemical_formula_sum   'Ca1 Cu2 Ge2'
_cell_volume   86.13433077
_cell_formula_units_Z   1
loop_
 _symmetry_equiv_pos_site_id
 _symmetry_equiv_pos_as_xyz
  1  'x, y, z'
loop_
 _atom_site_type_symbol
 _atom_site_label
 _atom_site_symmetry_multiplicity
 _atom_site_fract_x
 _atom_site_fract_y
 _atom_site_fract_z
 _atom_site_occupancy
  Ca  Ca0  1  -0.00000000  -0.00000000  -0.00000000  1
  Cu  Cu0  1  0.75000000  0.25000000  0.50000000  1
  Cu  Cu1  1  0.25000000  0.75000000  0.50000000  1
  Ge  Ge0  1  0.37740360  0.37740360  0.75480819  1
  Ge  Ge1  1  0.62259640  0.62259640  0.24519181  1
loop_
_geom_bond_atom_site_label_1
_geom_bond_atom_site_label_2
_geom_bond_distance
_geom_bond_site_symmetry_2
Ca0 Ge0 3.166945 1_554
Ca0 Ge1 3.166945 1_445
Ca0 Ge0 3.166948 1_454
Ca0 Ge1 3.166948 1_545
Ca0 Ge0 3.166948 1_544
Ca0 Ge1 3.166948 1_455
Ca0 Ge1 3.166951 1_555
Ca0 Ge0 3.166951 1_444
Ca0 Cu0 3.269554 1_455
Ca0 Cu1 3.269554 1_544
Ca0 Cu1 3.269554 1_545
Ca0 Cu0 3.269554 1_454
Ca0 Cu1 3.269554 1_444
Ca0 Cu0 3.269554 1_555
Ca0 Cu0 3.269555 1_444
Ca0 Cu1 3.269555 1_555
Cu0 Ge0 2.431969 1_655
Cu0 Ge1 2.431970 1_545
Cu0 Ge0 2.431973 1_555
Cu0 Ge1 2.431973 1_555
Cu1 Ge1 2.431969 1_455
Cu1 Ge0 2.431970 1_565
Cu1 Ge1 2.431973 1_555
Cu1 Ge0 2.431973 1_555
Ge0 Ge1 2.491002 1_556
