# generated using pymatgen
data_NaCoP2HO7
_symmetry_space_group_name_H-M   'P 1'
_cell_length_a   6.68402963
_cell_length_b   9.40112451
_cell_length_c   9.21426996
_cell_angle_alpha   89.51104913
_cell_angle_beta   101.25760917
_cell_angle_gamma   70.52886371
_symmetry_Int_Tables_number   1
_chemical_formula_structural   NaCoP2HO7
_chemical_formula_sum   'Na4 Co4 P8 H4 O28'
_cell_volume   533.68518909
_cell_formula_units_Z   4
loop_
 _symmetry_equiv_pos_site_id
 _symmetry_equiv_pos_as_xyz
  1  'x, y, z'
loop_
 _atom_site_type_symbol
 _atom_site_label
 _atom_site_symmetry_multiplicity
 _atom_site_fract_x
 _atom_site_fract_y
 _atom_site_fract_z
 _atom_site_occupancy
  Na  Na0  1  0.75253800  0.17773400  0.94444000  1
  Na  Na1  1  0.75254200  0.67956500  0.44337400  1
  Na  Na2  1  0.24687400  0.81983700  0.05698300  1
  Na  Na3  1  0.24814300  0.31999000  0.55620300  1
  Co  Co0  1  0.11106900  0.96548400  0.68174100  1
  Co  Co1  1  0.88877000  0.03456900  0.32029500  1
  Co  Co2  1  0.10809400  0.46527300  0.17862800  1
  Co  Co3  1  0.88740500  0.53464800  0.81938300  1
  P  P0  1  0.21767700  0.19949600  0.94603800  1
  P  P1  1  0.21734600  0.69933400  0.44576700  1
  P  P2  1  0.78260500  0.80138900  0.05331000  1
  P  P3  1  0.78395100  0.30054500  0.55409200  1
  P  P4  1  0.63736300  0.39355400  0.22668400  1
  P  P5  1  0.63787000  0.89353000  0.72621000  1
  P  P6  1  0.36206200  0.60637500  0.77330900  1
  P  P7  1  0.36394800  0.10557200  0.27367200  1
  H  H0  1  0.30907100  0.37393200  0.82500800  1
  H  H1  1  0.31054000  0.87252100  0.32576900  1
  H  H2  1  0.68804700  0.63118200  0.17283800  1
  H  H3  1  0.68963800  0.13034000  0.67403500  1
  O  O0  1  0.37708200  0.11502600  0.09891800  1
  O  O1  1  0.37682600  0.61520100  0.59917800  1
  O  O2  1  0.62175600  0.88455000  0.90062400  1
  O  O3  1  0.62408600  0.38431600  0.40160400  1
  O  O4  1  0.11059000  0.58930600  0.37541100  1
  O  O5  1  0.10961300  0.09009900  0.87588400  1
  O  O6  1  0.88994600  0.41071100  0.62455400  1
  O  O7  1  0.88796000  0.91212800  0.12326400  1
  O  O8  1  0.75673700  0.23445200  0.18876400  1
  O  O9  1  0.75788200  0.73422300  0.68889300  1
  O  O10  1  0.24124600  0.76501400  0.81121400  1
  O  O11  1  0.24562900  0.26415100  0.31191400  1
  O  O12  1  0.04992300  0.34680500  0.98179900  1
  O  O13  1  0.05018600  0.84627800  0.48123300  1
  O  O14  1  0.95013300  0.65490700  0.01815600  1
  O  O15  1  0.95160500  0.15348500  0.51922600  1
  O  O16  1  0.40484700  0.46957800  0.14551300  1
  O  O17  1  0.40631700  0.96918000  0.64334200  1
  O  O18  1  0.59318900  0.53076000  0.85717300  1
  O  O19  1  0.59573500  0.02845200  0.35618800  1
  O  O20  1  0.36936000  0.23723100  0.85643000  1
  O  O21  1  0.37015800  0.73662700  0.35658200  1
  O  O22  1  0.63072000  0.76283200  0.14354600  1
  O  O23  1  0.63164600  0.26220000  0.64392900  1
  O  O24  1  0.77762700  0.49616500  0.21711800  1
  O  O25  1  0.77901700  0.99577900  0.71842000  1
  O  O26  1  0.22155000  0.50312300  0.78153300  1
  O  O27  1  0.22308100  0.00255200  0.28181100  1
loop_
_geom_bond_atom_site_label_1
_geom_bond_atom_site_label_2
_geom_bond_distance
_geom_bond_site_symmetry_2
Na0 O8 2.314974 1_556
Na0 O20 2.399247 1_555
Na0 O5 2.461867 1_655
Na0 O25 2.701399 1_545
Na0 O7 2.758621 1_546
Na0 O23 2.758968 1_555
Na0 O12 2.905923 1_655
Na1 O9 2.320292 1_555
Na1 O21 2.395903 1_555
Na1 O4 2.465768 1_655
Na1 O24 2.711511 1_555
Na1 O22 2.751023 1_555
Na1 O6 2.792979 1_555
Na1 O13 2.890174 1_655
Na2 O10 2.322707 1_554
Na2 O22 2.404780 1_555
Na2 O7 2.464632 1_455
Na2 O27 2.697177 1_565
Na2 O21 2.749005 1_555
Na2 O5 2.803147 1_564
Na2 O14 2.872063 1_455
Na3 O11 2.313847 1_555
Na3 O23 2.402993 1_555
Na3 O6 2.468370 1_455
Na3 O26 2.703258 1_555
Na3 O20 2.753633 1_555
Na3 O4 2.794448 1_555
Na3 O15 2.882495 1_455
Co0 O10 2.048249 1_555
Co0 O17 2.083029 1_555
Co0 O15 2.139624 1_465
Co0 O5 2.146540 1_565
Co0 O13 2.209233 1_555
Co0 O25 2.234812 1_455
Co1 O8 2.053474 1_555
Co1 O19 2.068019 1_555
Co1 O13 2.133972 1_645
Co1 O7 2.158016 1_545
Co1 O15 2.198524 1_555
Co1 O27 2.252185 1_655
Co2 O11 2.071040 1_555
Co2 O16 2.078136 1_555
Co2 O14 2.137755 1_455
Co2 O4 2.164470 1_555
Co2 O12 2.174555 1_554
Co2 O24 2.229151 1_455
Co3 O9 2.046369 1_555
Co3 O18 2.074840 1_555
Co3 O12 2.139972 1_655
Co3 O6 2.148263 1_555
Co3 O14 2.204557 1_556
Co3 O26 2.249958 1_655
H0 O26 1.185046 1_555
H0 O20 1.225011 1_555
H0 Na3 2.514567 1_555
H1 O27 1.192829 1_565
H1 O21 1.217290 1_555
H1 Na2 2.512016 1_555
H2 O22 1.178656 1_555
H2 O24 1.235005 1_555
H2 Na1 2.517388 1_555
H3 O23 1.181398 1_555
H3 O25 1.231422 1_545
H3 Na0 2.513584 1_555
O0 P0 1.606561 1_554
O0 P7 1.632911 1_555
O1 P1 1.609527 1_555
O1 P6 1.629730 1_555
O2 P2 1.605224 1_556
O2 P5 1.634876 1_555
O3 P3 1.603159 1_555
O3 P4 1.634559 1_555
O4 P1 1.523905 1_555
O5 P0 1.523673 1_555
O6 P3 1.522222 1_555
O7 P2 1.522554 1_555
O8 P4 1.522531 1_555
O9 P5 1.523243 1_555
O10 P6 1.521332 1_555
O11 P7 1.517867 1_555
O12 P0 1.549366 1_555
O13 P1 1.544284 1_555
O14 P2 1.541559 1_555
O15 P3 1.544557 1_555
O16 P4 1.510662 1_555
O17 P5 1.509880 1_555
O18 P6 1.510449 1_555
O19 P7 1.511895 1_555
O20 P0 1.548258 1_555
O21 P1 1.550169 1_555
O22 P2 1.556633 1_555
O23 P3 1.555667 1_555
O24 P4 1.565579 1_555
O25 P5 1.564951 1_555
O26 P6 1.569822 1_555
O27 P7 1.569848 1_555
