# generated using pymatgen
data_MgSO4
_symmetry_space_group_name_H-M   'P 1'
_cell_length_a   4.74587934
_cell_length_b   6.63883985
_cell_length_c   8.59634162
_cell_angle_alpha   90.00000000
_cell_angle_beta   90.00000000
_cell_angle_gamma   90.00000000
_symmetry_Int_Tables_number   1
_chemical_formula_structural   MgSO4
_chemical_formula_sum   'Mg4 S4 O16'
_cell_volume   270.84607775
_cell_formula_units_Z   4
loop_
 _symmetry_equiv_pos_site_id
 _symmetry_equiv_pos_as_xyz
  1  'x, y, z'
loop_
 _atom_site_type_symbol
 _atom_site_label
 _atom_site_symmetry_multiplicity
 _atom_site_fract_x
 _atom_site_fract_y
 _atom_site_fract_z
 _atom_site_occupancy
  Mg  Mg0  1  0.00000000  0.00000000  0.00000000  1
  Mg  Mg1  1  0.50000000  0.00000000  0.50000000  1
  Mg  Mg2  1  0.00000000  0.50000000  0.00000000  1
  Mg  Mg3  1  0.50000000  0.50000000  0.50000000  1
  S  S0  1  0.97598255  0.75000000  0.32112269  1
  S  S1  1  0.47598255  0.25000000  0.17887731  1
  S  S2  1  0.02401745  0.25000000  0.67887731  1
  S  S3  1  0.52401745  0.75000000  0.82112269  1
  O  O0  1  0.22777318  0.75000000  0.87581625  1
  O  O1  1  0.72777318  0.25000000  0.62418375  1
  O  O2  1  0.77222682  0.25000000  0.12418375  1
  O  O3  1  0.27222682  0.75000000  0.37581625  1
  O  O4  1  0.53794270  0.75000000  0.64738576  1
  O  O5  1  0.03794270  0.25000000  0.85261424  1
  O  O6  1  0.46205730  0.25000000  0.35261424  1
  O  O7  1  0.96205730  0.75000000  0.14738576  1
  O  O8  1  0.83664857  0.93246519  0.37476188  1
  O  O9  1  0.33664857  0.06753481  0.12523812  1
  O  O10  1  0.16335143  0.43246519  0.62523812  1
  O  O11  1  0.66335143  0.56753481  0.87476188  1
  O  O12  1  0.16335143  0.06753481  0.62523812  1
  O  O13  1  0.66335143  0.93246519  0.87476188  1
  O  O14  1  0.83664857  0.56753481  0.37476188  1
  O  O15  1  0.33664857  0.43246519  0.12523812  1
loop_
_geom_bond_atom_site_label_1
_geom_bond_atom_site_label_2
_geom_bond_distance
_geom_bond_site_symmetry_2
Mg0 O13 1.978052 1_444
Mg0 O9 1.978052 1_555
Mg0 O5 2.095781 1_554
Mg0 O7 2.095781 1_445
Mg0 O0 2.250061 1_544
Mg0 O2 2.250061 1_455
Mg1 O8 1.978052 1_545
Mg1 O12 1.978052 1_555
Mg1 O6 2.095781 1_555
Mg1 O4 2.095781 1_545
Mg1 O1 2.250061 1_555
Mg1 O3 2.250061 1_545
Mg2 O15 1.978052 1_555
Mg2 O11 1.978052 1_454
Mg2 O5 2.095781 1_554
Mg2 O7 2.095781 1_455
Mg2 O0 2.250061 1_554
Mg2 O2 2.250061 1_455
Mg3 O10 1.978052 1_555
Mg3 O14 1.978052 1_555
Mg3 O6 2.095781 1_555
Mg3 O4 2.095781 1_555
Mg3 O1 2.250061 1_555
Mg3 O3 2.250061 1_555
O0 S3 1.482471 1_555
O1 S2 1.482471 1_655
O2 S1 1.482471 1_555
O3 S0 1.482471 1_455
O4 S3 1.494963 1_555
O5 S2 1.494963 1_555
O6 S1 1.494963 1_555
O7 S0 1.494963 1_555
O8 S0 1.455083 1_555
O9 S1 1.455083 1_555
O10 S2 1.455083 1_555
O11 S3 1.455083 1_555
O12 S2 1.455083 1_555
O13 S3 1.455083 1_555
O14 S0 1.455083 1_555
O15 S1 1.455083 1_555
