# generated using pymatgen
data_CaZrO3
_symmetry_space_group_name_H-M   'P 1'
_cell_length_a   5.58500572
_cell_length_b   5.77809678
_cell_length_c   8.01738023
_cell_angle_alpha   90.00000000
_cell_angle_beta   90.00000000
_cell_angle_gamma   90.00000000
_symmetry_Int_Tables_number   1
_chemical_formula_structural   CaZrO3
_chemical_formula_sum   'Ca4 Zr4 O12'
_cell_volume   258.72650079
_cell_formula_units_Z   4
loop_
 _symmetry_equiv_pos_site_id
 _symmetry_equiv_pos_as_xyz
  1  'x, y, z'
loop_
 _atom_site_type_symbol
 _atom_site_label
 _atom_site_symmetry_multiplicity
 _atom_site_fract_x
 _atom_site_fract_y
 _atom_site_fract_z
 _atom_site_occupancy
  Ca  Ca0  1  0.01354358  0.94804190  0.25000000  1
  Ca  Ca1  1  0.51354358  0.55195810  0.75000000  1
  Ca  Ca2  1  0.48645642  0.44804190  0.25000000  1
  Ca  Ca3  1  0.98645642  0.05195810  0.75000000  1
  Zr  Zr0  1  -0.00000000  0.50000000  0.00000000  1
  Zr  Zr1  1  0.50000000  0.00000000  0.00000000  1
  Zr  Zr2  1  0.50000000  0.00000000  0.50000000  1
  Zr  Zr3  1  -0.00000000  0.50000000  0.50000000  1
  O  O0  1  0.30237482  0.70030789  0.44341551  1
  O  O1  1  0.80237482  0.79969211  0.55658449  1
  O  O2  1  0.19762518  0.20030789  0.05658449  1
  O  O3  1  0.69762518  0.29969211  0.94341551  1
  O  O4  1  0.69762518  0.29969211  0.55658449  1
  O  O5  1  0.19762518  0.20030789  0.44341551  1
  O  O6  1  0.80237482  0.79969211  0.94341551  1
  O  O7  1  0.30237482  0.70030789  0.05658449  1
  O  O8  1  0.60684618  0.04155889  0.25000000  1
  O  O9  1  0.10684618  0.45844111  0.75000000  1
  O  O10  1  0.89315382  0.54155889  0.25000000  1
  O  O11  1  0.39315382  0.95844111  0.75000000  1
loop_
_geom_bond_atom_site_label_1
_geom_bond_atom_site_label_2
_geom_bond_distance
_geom_bond_site_symmetry_2
Ca0 O8 2.334795 1_465
Ca0 O5 2.363526 1_565
Ca0 O2 2.363526 1_565
Ca0 O10 2.443046 1_455
Ca0 O7 2.656274 1_555
Ca0 O0 2.656274 1_555
Ca0 O1 2.857880 1_455
Ca0 O6 2.857880 1_454
Ca1 O9 2.334795 1_555
Ca1 O4 2.363526 1_555
Ca1 O3 2.363526 1_555
Ca1 O11 2.443046 1_555
Ca1 O6 2.656274 1_555
Ca1 O1 2.656274 1_555
Ca1 O0 2.857880 1_555
Ca1 O7 2.857880 1_556
Ca2 O10 2.334795 1_555
Ca2 O0 2.363526 1_555
Ca2 O7 2.363526 1_555
Ca2 O8 2.443046 1_555
Ca2 O5 2.656274 1_555
Ca2 O2 2.656274 1_555
Ca2 O3 2.857880 1_554
Ca2 O4 2.857880 1_555
Ca3 O11 2.334795 1_645
Ca3 O6 2.363526 1_545
Ca3 O1 2.363526 1_545
Ca3 O9 2.443046 1_655
Ca3 O4 2.656274 1_555
Ca3 O3 2.656274 1_555
Ca3 O5 2.857880 1_655
Ca3 O2 2.857880 1_656
O0 Zr3 2.096975 1_555
O0 Zr2 2.103011 1_565
O1 Zr2 2.096975 1_565
O1 Zr3 2.103011 1_655
O2 Zr1 2.096975 1_555
O2 Zr0 2.103011 1_555
O3 Zr0 2.096975 1_656
O3 Zr1 2.103011 1_556
O4 Zr3 2.096975 1_655
O4 Zr2 2.103011 1_555
O5 Zr2 2.096975 1_555
O5 Zr3 2.103011 1_555
O6 Zr1 2.096975 1_566
O6 Zr0 2.103011 1_656
O7 Zr0 2.096975 1_555
O7 Zr1 2.103011 1_565
O8 Zr1 2.105031 1_555
O8 Zr2 2.105031 1_555
O9 Zr0 2.105031 1_556
O9 Zr3 2.105031 1_555
O10 Zr0 2.105031 1_655
O10 Zr3 2.105031 1_655
O11 Zr1 2.105031 1_566
O11 Zr2 2.105031 1_565
