# generated using pymatgen
data_Te2SO7
_symmetry_space_group_name_H-M   'P 1'
_cell_length_a   4.67322431
_cell_length_b   6.99880178
_cell_length_c   8.88753347
_cell_angle_alpha   90.00000000
_cell_angle_beta   90.00000000
_cell_angle_gamma   90.00000000
_symmetry_Int_Tables_number   1
_chemical_formula_structural   Te2SO7
_chemical_formula_sum   'Te4 S2 O14'
_cell_volume   290.68429608
_cell_formula_units_Z   2
loop_
 _symmetry_equiv_pos_site_id
 _symmetry_equiv_pos_as_xyz
  1  'x, y, z'
loop_
 _atom_site_type_symbol
 _atom_site_label
 _atom_site_symmetry_multiplicity
 _atom_site_fract_x
 _atom_site_fract_y
 _atom_site_fract_z
 _atom_site_occupancy
  Te  Te0  1  0.74973256  0.32210394  0.30052922  1
  Te  Te1  1  0.24973256  0.67789606  0.19947178  1
  Te  Te2  1  0.24973256  0.67789606  0.80052922  1
  Te  Te3  1  0.74973256  0.32210394  0.69947078  1
  S  S0  1  0.17318643  0.02418849  0.50000000  1
  S  S1  1  0.67318643  0.97581151  -0.00000000  1
  O  O0  1  0.27741920  0.82843366  0.50000000  1
  O  O1  1  0.77741920  0.17156634  -0.00000000  1
  O  O2  1  0.11467444  0.40878165  0.23620385  1
  O  O3  1  0.61467444  0.59121835  0.26379615  1
  O  O4  1  0.61467444  0.59121835  0.73620385  1
  O  O5  1  0.11467444  0.40878165  0.76379615  1
  O  O6  1  0.99347718  0.05422948  0.63714655  1
  O  O7  1  0.49347718  0.94577052  0.86285345  1
  O  O8  1  0.49347718  0.94577052  0.13714655  1
  O  O9  1  0.99347718  0.05422948  0.36285345  1
  O  O10  1  0.90538273  0.83389747  -0.00000000  1
  O  O11  1  0.40538273  0.16610253  0.50000000  1
  O  O12  1  0.33954129  0.58913264  -0.00000000  1
  O  O13  1  0.83954129  0.41086736  0.50000000  1
loop_
_geom_bond_atom_site_label_1
_geom_bond_atom_site_label_2
_geom_bond_distance
_geom_bond_site_symmetry_2
O0 S0 1.454065 1_565
O1 S1 1.454065 1_545
O2 Te0 1.898269 1_455
O2 Te1 2.013063 1_555
O3 Te1 1.898266 1_555
O3 Te0 2.013065 1_555
O4 Te2 1.898269 1_555
O4 Te3 2.013065 1_555
O5 Te3 1.898269 1_455
O5 Te2 2.013065 1_555
O6 S0 1.495062 1_655
O6 Te3 2.262560 1_555
O7 S1 1.495062 1_556
O7 Te2 2.262560 1_555
O8 S1 1.495062 1_555
O8 Te1 2.262562 1_555
O9 S0 1.495062 1_655
O9 Te0 2.262560 1_555
O10 S1 1.471039 1_555
O10 Te2 2.631446 1_654
O10 Te1 2.631452 1_655
O11 S0 1.471039 1_555
O11 Te0 2.631446 1_555
O11 Te3 2.631446 1_555
O12 Te2 1.924815 1_554
O12 Te1 1.924823 1_555
O13 Te3 1.924815 1_555
O13 Te0 1.924815 1_555
