# generated using pymatgen
data_La2(SeO3)3
_symmetry_space_group_name_H-M   'P 1'
_cell_length_a   7.09207981
_cell_length_b   8.47619536
_cell_length_c   14.29668380
_cell_angle_alpha   90.00000000
_cell_angle_beta   90.00000000
_cell_angle_gamma   90.00000000
_symmetry_Int_Tables_number   1
_chemical_formula_structural   La2(SeO3)3
_chemical_formula_sum   'La8 Se12 O36'
_cell_volume   859.42876233
_cell_formula_units_Z   4
loop_
 _symmetry_equiv_pos_site_id
 _symmetry_equiv_pos_as_xyz
  1  'x, y, z'
loop_
 _atom_site_type_symbol
 _atom_site_label
 _atom_site_symmetry_multiplicity
 _atom_site_fract_x
 _atom_site_fract_y
 _atom_site_fract_z
 _atom_site_occupancy
  La  La0  1  0.18007346  0.30124841  0.06380523  1
  La  La1  1  0.68007346  0.19875159  0.93619477  1
  La  La2  1  0.31992654  0.80124841  0.43619477  1
  La  La3  1  0.81992654  0.69875159  0.56380523  1
  La  La4  1  0.81992654  0.69875159  0.93619477  1
  La  La5  1  0.31992654  0.80124841  0.06380523  1
  La  La6  1  0.68007346  0.19875159  0.56380523  1
  La  La7  1  0.18007346  0.30124841  0.43619477  1
  Se  Se0  1  0.18053726  0.04794371  0.87479925  1
  Se  Se1  1  0.68053726  0.45205629  0.12520075  1
  Se  Se2  1  0.31946274  0.54794371  0.62520075  1
  Se  Se3  1  0.81946274  0.95205629  0.37479925  1
  Se  Se4  1  0.59208060  0.95610559  0.75000000  1
  Se  Se5  1  0.09208060  0.54389441  0.25000000  1
  Se  Se6  1  0.90791940  0.45610559  0.75000000  1
  Se  Se7  1  0.40791940  0.04389441  0.25000000  1
  Se  Se8  1  0.81946274  0.95205629  0.12520075  1
  Se  Se9  1  0.31946274  0.54794371  0.87479925  1
  Se  Se10  1  0.68053726  0.45205629  0.37479925  1
  Se  Se11  1  0.18053726  0.04794371  0.62520075  1
  O  O0  1  0.73903602  0.94258744  0.84466676  1
  O  O1  1  0.23903602  0.55741256  0.15533324  1
  O  O2  1  0.76096398  0.44258744  0.65533324  1
  O  O3  1  0.26096398  0.05741256  0.34466676  1
  O  O4  1  0.26096398  0.05741256  0.15533324  1
  O  O5  1  0.76096398  0.44258744  0.84466676  1
  O  O6  1  0.23903602  0.55741256  0.34466676  1
  O  O7  1  0.73903602  0.94258744  0.65533324  1
  O  O8  1  0.43255405  0.84383371  0.25000000  1
  O  O9  1  0.93255405  0.65616629  0.75000000  1
  O  O10  1  0.06744595  0.34383371  0.25000000  1
  O  O11  1  0.56744595  0.15616629  0.75000000  1
  O  O12  1  0.08926593  0.88283170  0.92332363  1
  O  O13  1  0.58926593  0.61716830  0.07667637  1
  O  O14  1  0.41073407  0.38283170  0.57667637  1
  O  O15  1  0.91073407  0.11716830  0.42332363  1
  O  O16  1  0.03197449  0.19930785  0.59694893  1
  O  O17  1  0.53197449  0.30069215  0.40305107  1
  O  O18  1  0.46802551  0.69930785  0.90305107  1
  O  O19  1  0.96802551  0.80069215  0.09694893  1
  O  O20  1  0.96802551  0.80069215  0.40305107  1
  O  O21  1  0.46802551  0.69930785  0.59694893  1
  O  O22  1  0.53197449  0.30069215  0.09694893  1
  O  O23  1  0.03197449  0.19930785  0.90305107  1
  O  O24  1  0.35081348  0.07416269  0.53995282  1
  O  O25  1  0.85081348  0.42583731  0.46004718  1
  O  O26  1  0.14918652  0.57416269  0.96004718  1
  O  O27  1  0.64918652  0.92583731  0.03995282  1
  O  O28  1  0.64918652  0.92583731  0.46004718  1
  O  O29  1  0.14918652  0.57416269  0.53995282  1
  O  O30  1  0.85081348  0.42583731  0.03995282  1
  O  O31  1  0.35081348  0.07416269  0.96004718  1
  O  O32  1  0.08926593  0.88283170  0.57667637  1
  O  O33  1  0.58926593  0.61716830  0.42332363  1
  O  O34  1  0.41073407  0.38283170  0.92332363  1
  O  O35  1  0.91073407  0.11716830  0.07667637  1
loop_
_geom_bond_atom_site_label_1
_geom_bond_atom_site_label_2
_geom_bond_distance
_geom_bond_site_symmetry_2
La0 O35 2.473291 1_455
La0 O4 2.512582 1_555
La0 O22 2.540299 1_555
La0 O1 2.569376 1_555
La0 O30 2.585416 1_455
La0 O23 2.670537 1_554
La0 O34 2.681044 1_554
La0 O31 2.715086 1_554
La0 O26 2.756753 1_554
La0 O10 2.802568 1_555
La1 O34 2.473291 1_555
La1 O5 2.512582 1_555
La1 O23 2.540299 1_655
La1 O0 2.569376 1_545
La1 O31 2.585416 1_555
La1 O22 2.670537 1_556
La1 O35 2.681044 1_556
La1 O30 2.715086 1_556
La1 O27 2.756753 1_546
La1 O11 2.802568 1_555
La2 O33 2.473291 1_555
La2 O6 2.512582 1_555
La2 O20 2.540299 1_455
La2 O3 2.569376 1_565
La2 O28 2.585416 1_555
La2 O21 2.670537 1_555
La2 O32 2.681044 1_555
La2 O29 2.715086 1_555
La2 O24 2.756753 1_565
La2 O8 2.802568 1_555
La3 O32 2.473291 1_655
La3 O7 2.512582 1_555
La3 O21 2.540299 1_555
La3 O2 2.569376 1_555
La3 O29 2.585416 1_655
La3 O20 2.670537 1_555
La3 O33 2.681044 1_555
La3 O28 2.715086 1_555
La3 O25 2.756753 1_555
La3 O9 2.802568 1_555
La4 O12 2.473291 1_655
La4 O0 2.512582 1_555
La4 O18 2.540299 1_555
La4 O5 2.569376 1_555
La4 O26 2.585416 1_655
La4 O19 2.670537 1_556
La4 O13 2.681044 1_556
La4 O27 2.715086 1_556
La4 O30 2.756753 1_556
La4 O9 2.802568 1_555
La5 O13 2.473291 1_555
La5 O1 2.512582 1_555
La5 O19 2.540299 1_455
La5 O4 2.569376 1_565
La5 O27 2.585416 1_555
La5 O18 2.670537 1_554
La5 O12 2.681044 1_554
La5 O26 2.715086 1_554
La5 O31 2.756753 1_564
La5 O8 2.802568 1_555
La6 O14 2.473291 1_555
La6 O2 2.512582 1_555
La6 O16 2.540299 1_655
La6 O7 2.569376 1_545
La6 O24 2.585416 1_555
La6 O17 2.670537 1_555
La6 O15 2.681044 1_555
La6 O25 2.715086 1_555
La6 O28 2.756753 1_545
La6 O11 2.802568 1_555
La7 O15 2.473291 1_455
La7 O3 2.512582 1_555
La7 O17 2.540299 1_555
La7 O6 2.569376 1_555
La7 O25 2.585416 1_455
La7 O16 2.670537 1_555
La7 O14 2.681044 1_555
La7 O24 2.715086 1_555
La7 O29 2.756753 1_555
La7 O10 2.802568 1_555
O0 Se4 1.712045 1_555
O1 Se5 1.712045 1_555
O2 Se6 1.712045 1_555
O3 Se7 1.712045 1_555
O4 Se7 1.712045 1_555
O5 Se6 1.712045 1_555
O6 Se5 1.712045 1_555
O7 Se4 1.712045 1_555
O8 Se7 1.704730 1_565
O9 Se6 1.704730 1_555
O10 Se5 1.704730 1_555
O11 Se4 1.704730 1_545
O12 Se0 1.690838 1_565
O13 Se1 1.690838 1_555
O14 Se2 1.690838 1_555
O15 Se3 1.690838 1_545
O16 Se11 1.708603 1_555
O17 Se10 1.708603 1_555
O18 Se9 1.708603 1_555
O19 Se8 1.708603 1_555
O20 Se3 1.708603 1_555
O21 Se2 1.708603 1_555
O22 Se1 1.708603 1_555
O23 Se0 1.708603 1_555
O24 Se11 1.730058 1_555
O25 Se10 1.730058 1_555
O26 Se9 1.730058 1_555
O27 Se8 1.730058 1_555
O28 Se3 1.730058 1_555
O29 Se2 1.730058 1_555
O30 Se1 1.730058 1_555
O31 Se0 1.730058 1_555
O32 Se11 1.690838 1_565
O33 Se10 1.690838 1_555
O34 Se9 1.690838 1_555
O35 Se8 1.690838 1_545
