# generated using pymatgen
data_TbCoSi2
_symmetry_space_group_name_H-M   'P 1'
_cell_length_a   3.95930328
_cell_length_b   4.03068144
_cell_length_c   8.33989471
_cell_angle_alpha   104.03959340
_cell_angle_beta   89.99999972
_cell_angle_gamma   90.00000032
_symmetry_Int_Tables_number   1
_chemical_formula_structural   TbCoSi2
_chemical_formula_sum   'Tb2 Co2 Si4'
_cell_volume   129.11806088
_cell_formula_units_Z   2
loop_
 _symmetry_equiv_pos_site_id
 _symmetry_equiv_pos_as_xyz
  1  'x, y, z'
loop_
 _atom_site_type_symbol
 _atom_site_label
 _atom_site_symmetry_multiplicity
 _atom_site_fract_x
 _atom_site_fract_y
 _atom_site_fract_z
 _atom_site_occupancy
  Tb  Tb0  1  0.25000003  0.89161249  0.78345773  1
  Tb  Tb1  1  0.75000004  0.10839247  0.21655816  1
  Co  Co0  1  0.74999996  0.32027967  0.64067798  1
  Co  Co1  1  0.25000002  0.67970064  0.35926747  1
  Si  Si0  1  0.24999998  0.25030730  0.50033853  1
  Si  Si1  1  0.75000001  0.74969763  0.49967918  1
  Si  Si2  1  0.74999997  0.45695061  0.91350516  1
  Si  Si3  1  0.24999998  0.54305819  0.08651579  1
loop_
_geom_bond_atom_site_label_1
_geom_bond_atom_site_label_2
_geom_bond_distance
_geom_bond_site_symmetry_2
Co0 Si2 2.207382 1_555
Co0 Si0 2.282166 1_555
Co0 Si0 2.282166 1_655
Co0 Si1 2.315141 1_545
Co0 Si1 2.316488 1_555
Co0 Tb0 3.051173 1_555
Co0 Tb0 3.051173 1_655
Co0 Tb0 3.052957 1_545
Co0 Tb0 3.052958 1_645
Co1 Si3 2.206771 1_555
Co1 Si1 2.282457 1_555
Co1 Si1 2.282457 1_455
Co1 Si0 2.315388 1_565
Co1 Si0 2.316817 1_555
Co1 Tb1 3.050986 1_455
Co1 Tb1 3.050986 1_555
Co1 Tb1 3.052713 1_465
Co1 Tb1 3.052713 1_565
Si0 Tb1 3.031608 1_455
Si0 Tb1 3.031608 1_555
Si0 Tb0 3.048868 1_555
Si0 Tb0 3.053161 1_545
Si1 Tb0 3.031597 1_555
Si1 Tb0 3.031597 1_655
Si1 Tb1 3.048877 1_555
Si1 Tb1 3.053174 1_565
Si2 Si3 2.424549 1_556
Si2 Si3 2.424549 1_656
Si2 Tb0 3.014418 1_555
Si2 Tb0 3.014419 1_655
Si2 Tb0 3.014747 1_545
Si2 Tb0 3.014747 1_645
Si2 Tb1 3.172161 1_566
Si2 Tb1 3.175617 1_556
Si3 Tb1 3.014407 1_455
Si3 Tb1 3.014408 1_555
Si3 Tb1 3.014729 1_465
Si3 Tb1 3.014729 1_565
Si3 Tb0 3.172196 1_544
Si3 Tb0 3.175645 1_554
