# generated using pymatgen
data_Sr2IrO4
_symmetry_space_group_name_H-M   'P 1'
_cell_length_a   5.46508284
_cell_length_b   5.46508176
_cell_length_c   13.54221959
_cell_angle_alpha   101.64103508
_cell_angle_beta   101.64103358
_cell_angle_gamma   89.99999362
_symmetry_Int_Tables_number   1
_chemical_formula_structural   Sr2IrO4
_chemical_formula_sum   'Sr8 Ir4 O16'
_cell_volume   387.64967608
_cell_formula_units_Z   4
loop_
 _symmetry_equiv_pos_site_id
 _symmetry_equiv_pos_as_xyz
  1  'x, y, z'
loop_
 _atom_site_type_symbol
 _atom_site_label
 _atom_site_symmetry_multiplicity
 _atom_site_fract_x
 _atom_site_fract_y
 _atom_site_fract_z
 _atom_site_occupancy
  Sr  Sr0  1  0.80032621  0.05032621  0.10065041  1
  Sr  Sr1  1  0.55032621  0.30032621  0.60065041  1
  Sr  Sr2  1  0.69967379  0.44967379  0.89934959  1
  Sr  Sr3  1  0.94967379  0.19967379  0.39934959  1
  Sr  Sr4  1  0.05032621  0.80032621  0.60065041  1
  Sr  Sr5  1  0.30032621  0.55032621  0.10065041  1
  Sr  Sr6  1  0.44967379  0.69967379  0.39934959  1
  Sr  Sr7  1  0.19967379  0.94967379  0.89934959  1
  Ir  Ir0  1  0.12500000  0.37500000  0.75000000  1
  Ir  Ir1  1  0.87500000  0.62500000  0.25000000  1
  Ir  Ir2  1  0.37500000  0.12500000  0.25000000  1
  Ir  Ir3  1  0.62500000  0.87500000  0.75000000  1
  O  O0  1  0.95460325  0.70460325  0.40920451  1
  O  O1  1  0.20460225  0.45460325  0.90920451  1
  O  O2  1  0.54539675  0.79539675  0.59079549  1
  O  O3  1  0.29539675  0.04539675  0.09079549  1
  O  O4  1  0.04539675  0.29539675  0.59079549  1
  O  O5  1  0.79539675  0.54539675  0.09079549  1
  O  O6  1  0.45460325  0.20460225  0.40920451  1
  O  O7  1  0.70460325  0.95460325  0.90920451  1
  O  O8  1  0.93247853  0.06752147  0.75000000  1
  O  O9  1  0.18247853  0.43247853  0.25000000  1
  O  O10  1  0.56752147  0.81752147  0.25000000  1
  O  O11  1  0.31752147  0.68247853  0.75000000  1
  O  O12  1  0.68247853  0.31752147  0.25000000  1
  O  O13  1  0.43247853  0.18247853  0.75000000  1
  O  O14  1  0.81752147  0.56752147  0.75000000  1
  O  O15  1  0.06752147  0.93247853  0.25000000  1
loop_
_geom_bond_atom_site_label_1
_geom_bond_atom_site_label_2
_geom_bond_distance
_geom_bond_site_symmetry_2
Ir0 O14 1.982609 1_455
Ir0 O13 1.982609 1_555
Ir0 O8 1.982609 1_455
Ir0 O11 1.982609 1_555
Ir0 O1 2.066338 1_555
Ir0 O4 2.066338 1_555
Ir1 O10 1.982609 1_555
Ir1 O9 1.982609 1_655
Ir1 O12 1.982609 1_555
Ir1 O15 1.982609 1_655
Ir1 O5 2.066338 1_555
Ir1 O0 2.066338 1_555
Ir2 O10 1.982609 1_545
Ir2 O9 1.982609 1_555
Ir2 O15 1.982609 1_545
Ir2 O12 1.982609 1_555
Ir2 O6 2.066338 1_555
Ir2 O3 2.066338 1_555
Ir3 O14 1.982609 1_555
Ir3 O13 1.982609 1_565
Ir3 O11 1.982609 1_555
Ir3 O8 1.982609 1_565
Ir3 O2 2.066338 1_555
Ir3 O7 2.066338 1_555
O0 Sr4 2.484804 1_655
O0 Sr3 2.735522 1_565
O0 Sr6 2.735523 1_655
O0 Sr3 2.735544 1_555
O0 Sr6 2.735544 1_555
O1 Sr5 2.484804 1_556
O1 Sr7 2.735522 1_555
O1 Sr2 2.735528 1_555
O1 Sr2 2.735539 1_455
O1 Sr7 2.735544 1_545
O2 Sr6 2.484804 1_555
O2 Sr1 2.735522 1_555
O2 Sr4 2.735523 1_555
O2 Sr1 2.735544 1_565
O2 Sr4 2.735544 1_655
O3 Sr7 2.484804 1_544
O3 Sr5 2.735522 1_545
O3 Sr0 2.735523 1_455
O3 Sr5 2.735544 1_555
O3 Sr0 2.735544 1_555
O4 Sr3 2.484804 1_455
O4 Sr4 2.735522 1_545
O4 Sr1 2.735523 1_455
O4 Sr4 2.735544 1_555
O4 Sr1 2.735544 1_555
O5 Sr2 2.484804 1_554
O5 Sr0 2.735522 1_555
O5 Sr5 2.735523 1_555
O5 Sr0 2.735544 1_565
O5 Sr5 2.735544 1_655
O6 Sr1 2.484804 1_555
O6 Sr3 2.735523 1_555
O6 Sr6 2.735527 1_555
O6 Sr6 2.735538 1_545
O6 Sr3 2.735544 1_455
O7 Sr0 2.484804 1_566
O7 Sr2 2.735522 1_565
O7 Sr7 2.735523 1_655
O7 Sr2 2.735544 1_555
O7 Sr7 2.735544 1_555
O8 Sr4 2.443671 1_645
O8 Sr7 2.443672 1_645
O9 Sr6 2.443667 1_555
O9 Sr5 2.443676 1_555
O10 Sr5 2.443667 1_555
O10 Sr6 2.443676 1_555
O11 Sr7 2.443671 1_555
O11 Sr4 2.443672 1_555
O12 Sr0 2.443671 1_555
O12 Sr3 2.443672 1_555
O13 Sr2 2.443667 1_555
O13 Sr1 2.443676 1_555
O14 Sr1 2.443667 1_555
O14 Sr2 2.443676 1_555
O15 Sr3 2.443671 1_465
O15 Sr0 2.443672 1_465
