# generated using pymatgen
data_KTeF5
_symmetry_space_group_name_H-M   'P 1'
_cell_length_a   4.63947877
_cell_length_b   9.10032908
_cell_length_c   11.28542960
_cell_angle_alpha   90.00000000
_cell_angle_beta   90.00000000
_cell_angle_gamma   90.00000000
_symmetry_Int_Tables_number   1
_chemical_formula_structural   KTeF5
_chemical_formula_sum   'K4 Te4 F20'
_cell_volume   476.47968060
_cell_formula_units_Z   4
loop_
 _symmetry_equiv_pos_site_id
 _symmetry_equiv_pos_as_xyz
  1  'x, y, z'
loop_
 _atom_site_type_symbol
 _atom_site_label
 _atom_site_symmetry_multiplicity
 _atom_site_fract_x
 _atom_site_fract_y
 _atom_site_fract_z
 _atom_site_occupancy
  K  K0  1  0.48872999  0.25000000  -0.00000000  1
  K  K1  1  0.51127001  0.75000000  0.50000000  1
  K  K2  1  0.51127001  0.75000000  -0.00000000  1
  K  K3  1  0.48872999  0.25000000  0.50000000  1
  Te  Te0  1  0.11769564  0.05965827  0.25000000  1
  Te  Te1  1  0.11769564  0.44034173  0.75000000  1
  Te  Te2  1  0.88230436  0.55965827  0.25000000  1
  Te  Te3  1  0.88230436  0.94034173  0.75000000  1
  F  F0  1  0.59972216  0.78958642  0.75000000  1
  F  F1  1  0.59972216  0.71041358  0.25000000  1
  F  F2  1  0.40027784  0.28958642  0.75000000  1
  F  F3  1  0.40027784  0.21041358  0.25000000  1
  F  F4  1  0.96896090  0.19254712  0.37451822  1
  F  F5  1  0.96896090  0.30745288  0.62548178  1
  F  F6  1  0.03103910  0.69254712  0.12548178  1
  F  F7  1  0.03103910  0.80745288  0.87451822  1
  F  F8  1  0.38611195  0.98811982  0.12679230  1
  F  F9  1  0.38611195  0.51188018  0.87320770  1
  F  F10  1  0.61388805  0.48811982  0.37320770  1
  F  F11  1  0.61388805  0.01188018  0.62679230  1
  F  F12  1  0.61388805  0.01188018  0.87320770  1
  F  F13  1  0.61388805  0.48811982  0.12679230  1
  F  F14  1  0.38611195  0.51188018  0.62679230  1
  F  F15  1  0.38611195  0.98811982  0.37320770  1
  F  F16  1  0.96896090  0.19254712  0.12548178  1
  F  F17  1  0.96896090  0.30745288  0.87451822  1
  F  F18  1  0.03103910  0.69254712  0.37451822  1
  F  F19  1  0.03103910  0.80745288  0.62548178  1
loop_
_geom_bond_atom_site_label_1
_geom_bond_atom_site_label_2
_geom_bond_distance
_geom_bond_site_symmetry_2
F0 Te3 1.897626 1_555
F0 K1 2.873716 1_555
F0 K2 2.873716 1_556
F1 Te2 1.897626 1_555
F1 K1 2.873716 1_555
F1 K2 2.873716 1_555
F2 Te1 1.897626 1_555
F2 K0 2.873716 1_556
F2 K3 2.873716 1_555
F3 Te0 1.897626 1_555
F3 K3 2.873716 1_555
F3 K0 2.873716 1_555
F4 Te0 1.978221 1_655
F4 K3 2.691249 1_555
F4 K3 2.844973 1_655
F5 Te1 1.978221 1_655
F5 K3 2.691249 1_555
F5 K3 2.844973 1_655
F6 Te2 1.978221 1_455
F6 K2 2.691249 1_555
F6 K2 2.844973 1_455
F7 Te3 1.978221 1_455
F7 K2 2.691249 1_556
F7 K2 2.844973 1_456
F8 Te0 1.976863 1_565
F8 K2 2.660906 1_555
F8 K0 2.820244 1_565
F9 Te1 1.976863 1_555
F9 K2 2.660906 1_556
F9 K0 2.820244 1_556
F10 Te2 1.976863 1_555
F10 K3 2.660906 1_555
F10 K1 2.820244 1_555
F11 Te3 1.976863 1_545
F11 K3 2.660906 1_555
F11 K1 2.820244 1_545
F12 Te3 1.976863 1_545
F12 K0 2.660906 1_556
F12 K2 2.820244 1_546
F13 Te2 1.976863 1_555
F13 K0 2.660906 1_555
F13 K2 2.820244 1_555
F14 Te1 1.976863 1_555
F14 K1 2.660906 1_555
F14 K3 2.820244 1_555
F15 Te0 1.976863 1_565
F15 K1 2.660906 1_555
F15 K3 2.820244 1_565
F16 Te0 1.978221 1_655
F16 K0 2.691249 1_555
F16 K0 2.844973 1_655
F17 Te1 1.978221 1_655
F17 K0 2.691249 1_556
F17 K0 2.844973 1_656
F18 Te2 1.978221 1_455
F18 K1 2.691249 1_555
F18 K1 2.844973 1_455
F19 Te3 1.978221 1_455
F19 K1 2.691249 1_555
F19 K1 2.844973 1_455
