# generated using pymatgen
data_LaPPd
_symmetry_space_group_name_H-M   'P 1'
_cell_length_a   4.28034816
_cell_length_b   4.28034863
_cell_length_c   7.97700451
_cell_angle_alpha   90.00000000
_cell_angle_beta   90.00000000
_cell_angle_gamma   120.00000440
_symmetry_Int_Tables_number   1
_chemical_formula_structural   LaPPd
_chemical_formula_sum   'La2 P2 Pd2'
_cell_volume   126.56939051
_cell_formula_units_Z   2
loop_
 _symmetry_equiv_pos_site_id
 _symmetry_equiv_pos_as_xyz
  1  'x, y, z'
loop_
 _atom_site_type_symbol
 _atom_site_label
 _atom_site_symmetry_multiplicity
 _atom_site_fract_x
 _atom_site_fract_y
 _atom_site_fract_z
 _atom_site_occupancy
  La  La0  1  -0.00000000  0.00000000  0.50000000  1
  La  La1  1  -0.00000000  0.00000000  0.00000000  1
  P  P0  1  0.66666700  0.33333300  0.75000000  1
  P  P1  1  0.33333300  0.66666700  0.25000000  1
  Pd  Pd0  1  0.33333300  0.66666700  0.75000000  1
  Pd  Pd1  1  0.66666700  0.33333300  0.25000000  1
loop_
_geom_bond_atom_site_label_1
_geom_bond_atom_site_label_2
_geom_bond_distance
_geom_bond_site_symmetry_2
La0 Pd0 3.175556 1_545
La0 P0 3.175556 1_455
La0 P1 3.175556 1_545
La0 Pd1 3.175556 1_455
La0 Pd1 3.175558 1_555
La0 P0 3.175558 1_555
La0 P1 3.175558 1_445
La0 Pd0 3.175558 1_445
La0 P0 3.175558 1_445
La0 Pd1 3.175558 1_445
La0 P1 3.175558 1_555
La0 Pd0 3.175558 1_555
La1 P0 3.175556 1_454
La1 Pd0 3.175556 1_544
La1 P1 3.175556 1_545
La1 Pd1 3.175556 1_455
La1 Pd1 3.175558 1_555
La1 P0 3.175558 1_554
La1 P1 3.175558 1_445
La1 Pd0 3.175558 1_444
La1 P0 3.175558 1_444
La1 Pd1 3.175558 1_445
La1 P1 3.175558 1_555
La1 Pd0 3.175558 1_554
P0 Pd0 2.471258 1_655
P0 Pd0 2.471258 1_545
P0 Pd0 2.471265 1_555
P1 Pd1 2.471258 1_455
P1 Pd1 2.471258 1_565
P1 Pd1 2.471265 1_555
