# generated using pymatgen
data_HoInPd
_symmetry_space_group_name_H-M   'P 1'
_cell_length_a   7.67397321
_cell_length_b   7.67397236
_cell_length_c   3.78518869
_cell_angle_alpha   90.00000000
_cell_angle_beta   90.00000000
_cell_angle_gamma   119.99999924
_symmetry_Int_Tables_number   1
_chemical_formula_structural   HoInPd
_chemical_formula_sum   'Ho3 In3 Pd3'
_cell_volume   193.04505352
_cell_formula_units_Z   3
loop_
 _symmetry_equiv_pos_site_id
 _symmetry_equiv_pos_as_xyz
  1  'x, y, z'
loop_
 _atom_site_type_symbol
 _atom_site_label
 _atom_site_symmetry_multiplicity
 _atom_site_fract_x
 _atom_site_fract_y
 _atom_site_fract_z
 _atom_site_occupancy
  Ho  Ho0  1  0.00000000  0.59280270  0.00000000  1
  Ho  Ho1  1  0.40719730  0.40719730  -0.00000000  1
  Ho  Ho2  1  0.59280270  -0.00000000  0.00000000  1
  In  In0  1  0.73905195  0.73905195  0.50000000  1
  In  In1  1  0.00000000  0.26094805  0.50000000  1
  In  In2  1  0.26094805  -0.00000000  0.50000000  1
  Pd  Pd0  1  0.33333300  0.66666700  0.50000000  1
  Pd  Pd1  1  0.00000000  0.00000000  -0.00000000  1
  Pd  Pd2  1  0.66666700  0.33333300  0.50000000  1
loop_
_geom_bond_atom_site_label_1
_geom_bond_atom_site_label_2
_geom_bond_distance
_geom_bond_site_symmetry_2
Ho0 Pd0 2.999428 1_555
Ho0 Pd0 2.999428 1_554
Ho0 Pd2 2.999429 1_454
Ho0 Pd2 2.999429 1_455
Ho0 Pd1 3.124821 1_565
Ho0 In1 3.172902 1_554
Ho0 In1 3.172902 1_555
Ho0 In2 3.331513 1_564
Ho0 In2 3.331513 1_565
Ho0 In0 3.331513 1_455
Ho0 In0 3.331513 1_454
Ho1 Pd0 2.999433 1_555
Ho1 Pd0 2.999433 1_554
Ho1 Pd2 2.999433 1_555
Ho1 Pd2 2.999433 1_554
Ho1 Pd1 3.124821 1_555
Ho1 In0 3.172902 1_555
Ho1 In0 3.172902 1_554
Ho1 In2 3.331513 1_555
Ho1 In2 3.331513 1_554
Ho1 In1 3.331513 1_554
Ho1 In1 3.331513 1_555
Ho2 Pd2 2.999427 1_555
Ho2 Pd2 2.999427 1_554
Ho2 Pd0 2.999429 1_544
Ho2 Pd0 2.999429 1_545
Ho2 Pd1 3.124821 1_655
Ho2 In2 3.172902 1_555
Ho2 In2 3.172902 1_554
Ho2 In0 3.331513 1_544
Ho2 In0 3.331513 1_545
Ho2 In1 3.331513 1_655
Ho2 In1 3.331513 1_654
In0 Pd1 2.755350 1_666
In0 Pd1 2.755350 1_665
In0 Pd2 2.876250 1_555
In0 Pd0 2.876251 1_555
In1 Pd1 2.755350 1_555
In1 Pd1 2.755350 1_556
In1 Pd2 2.876243 1_455
In1 Pd0 2.876248 1_555
In2 Pd1 2.755350 1_555
In2 Pd1 2.755350 1_556
In2 Pd0 2.876243 1_545
In2 Pd2 2.876248 1_555
