# generated using pymatgen
data_Sc3TlC
_symmetry_space_group_name_H-M   'P 1'
_cell_length_a   4.54420828
_cell_length_b   4.54420828
_cell_length_c   4.54420828
_cell_angle_alpha   90.00000000
_cell_angle_beta   90.00000000
_cell_angle_gamma   90.00000000
_symmetry_Int_Tables_number   1
_chemical_formula_structural   Sc3TlC
_chemical_formula_sum   'Sc3 Tl1 C1'
_cell_volume   93.83712343
_cell_formula_units_Z   1
loop_
 _symmetry_equiv_pos_site_id
 _symmetry_equiv_pos_as_xyz
  1  'x, y, z'
loop_
 _atom_site_type_symbol
 _atom_site_label
 _atom_site_symmetry_multiplicity
 _atom_site_fract_x
 _atom_site_fract_y
 _atom_site_fract_z
 _atom_site_occupancy
  Sc  Sc0  1  -0.00000000  0.50000000  0.50000000  1
  Sc  Sc1  1  0.50000000  0.50000000  -0.00000000  1
  Sc  Sc2  1  0.50000000  -0.00000000  0.50000000  1
  Tl  Tl0  1  -0.00000000  0.00000000  -0.00000000  1
  C  C0  1  0.50000000  0.50000000  0.50000000  1
loop_
_geom_bond_atom_site_label_1
_geom_bond_atom_site_label_2
_geom_bond_distance
_geom_bond_site_symmetry_2
Sc0 Tl0 3.213240 1_566
Sc0 Tl0 3.213240 1_555
Sc0 Tl0 3.213240 1_556
Sc0 Tl0 3.213240 1_565
Sc1 Tl0 3.213240 1_655
Sc1 Tl0 3.213240 1_665
Sc1 Tl0 3.213240 1_555
Sc1 Tl0 3.213240 1_565
Sc2 Tl0 3.213240 1_655
Sc2 Tl0 3.213240 1_555
Sc2 Tl0 3.213240 1_556
Sc2 Tl0 3.213240 1_656
C0 Sc2 2.272104 1_565
C0 Sc0 2.272104 1_555
C0 Sc2 2.272104 1_555
C0 Sc1 2.272104 1_555
C0 Sc1 2.272104 1_556
C0 Sc0 2.272104 1_655
