# generated using pymatgen
data_Na2PdC2
_symmetry_space_group_name_H-M   'P 1'
_cell_length_a   4.51209844
_cell_length_b   4.51209844
_cell_length_c   5.28300100
_cell_angle_alpha   90.00000000
_cell_angle_beta   90.00000000
_cell_angle_gamma   120.00000645
_symmetry_Int_Tables_number   1
_chemical_formula_structural   Na2PdC2
_chemical_formula_sum   'Na2 Pd1 C2'
_cell_volume   93.14690484
_cell_formula_units_Z   1
loop_
 _symmetry_equiv_pos_site_id
 _symmetry_equiv_pos_as_xyz
  1  'x, y, z'
loop_
 _atom_site_type_symbol
 _atom_site_label
 _atom_site_symmetry_multiplicity
 _atom_site_fract_x
 _atom_site_fract_y
 _atom_site_fract_z
 _atom_site_occupancy
  Na  Na0  1  0.66666700  0.33333300  0.27989900  1
  Na  Na1  1  0.33333300  0.66666700  0.72010100  1
  Pd  Pd0  1  0.00000000  0.00000000  0.00000000  1
  C  C0  1  0.00000000  0.00000000  0.37992000  1
  C  C1  1  0.00000000  0.00000000  0.62008000  1
loop_
_geom_bond_atom_site_label_1
_geom_bond_atom_site_label_2
_geom_bond_distance
_geom_bond_site_symmetry_2
Na0 Pd0 2.995481 1_655
Na0 Pd0 2.995484 1_555
Na0 Pd0 2.995484 1_665
Na1 Pd0 2.995481 1_566
Na1 Pd0 2.995484 1_556
Na1 Pd0 2.995484 1_666
C0 C1 1.268766 1_555
C0 Pd0 2.007118 1_555
C0 Na0 2.658110 1_455
C0 Na0 2.658114 1_555
C0 Na0 2.658114 1_445
C1 Pd0 2.007118 1_556
C1 Na1 2.658110 1_545
C1 Na1 2.658114 1_555
C1 Na1 2.658114 1_445
