# generated using pymatgen
data_CdP2
_symmetry_space_group_name_H-M   'P 1'
_cell_length_a   5.19751104
_cell_length_b   5.43038422
_cell_length_c   9.94128287
_cell_angle_alpha   90.00000000
_cell_angle_beta   90.00000000
_cell_angle_gamma   90.00000000
_symmetry_Int_Tables_number   1
_chemical_formula_structural   CdP2
_chemical_formula_sum   'Cd4 P8'
_cell_volume   280.58755877
_cell_formula_units_Z   4
loop_
 _symmetry_equiv_pos_site_id
 _symmetry_equiv_pos_as_xyz
  1  'x, y, z'
loop_
 _atom_site_type_symbol
 _atom_site_label
 _atom_site_symmetry_multiplicity
 _atom_site_fract_x
 _atom_site_fract_y
 _atom_site_fract_z
 _atom_site_occupancy
  Cd  Cd0  1  0.24773788  0.39992846  0.65291870  1
  Cd  Cd1  1  0.74773788  0.60007154  0.34708130  1
  Cd  Cd2  1  0.24773788  0.10007154  0.15291870  1
  Cd  Cd3  1  0.74773788  0.89992846  0.84708130  1
  P  P0  1  0.59812108  0.22549387  0.49352929  1
  P  P1  1  0.09812108  0.77450613  0.50647071  1
  P  P2  1  0.59812108  0.27450613  0.99352929  1
  P  P3  1  0.09812108  0.72549387  0.00647071  1
  P  P4  1  0.40144204  0.55935128  0.88082732  1
  P  P5  1  0.90144204  0.44064872  0.11917268  1
  P  P6  1  0.40144204  0.94064872  0.38082732  1
  P  P7  1  0.90144204  0.05935028  0.61917268  1
loop_
_geom_bond_atom_site_label_1
_geom_bond_atom_site_label_2
_geom_bond_distance
_geom_bond_site_symmetry_2
Cd0 P4 2.553646 1_555
Cd0 P0 2.593166 1_555
Cd0 P7 2.602430 1_455
Cd0 P1 2.619517 1_555
Cd1 P5 2.553646 1_555
Cd1 P1 2.593166 1_655
Cd1 P6 2.602426 1_555
Cd1 P0 2.619517 1_555
Cd2 P6 2.553646 1_545
Cd2 P2 2.593166 1_554
Cd2 P5 2.602426 1_455
Cd2 P3 2.619517 1_545
Cd3 P7 2.553644 1_565
Cd3 P3 2.593166 1_656
Cd3 P4 2.602426 1_555
Cd3 P2 2.619517 1_565
P0 P6 2.166316 1_545
P0 P7 2.204438 1_555
P1 P7 2.166312 1_465
P1 P6 2.204436 1_555
P2 P4 2.166316 1_555
P2 P5 2.204436 1_556
P3 P5 2.166316 1_455
P3 P4 2.204436 1_554
