# generated using pymatgen
data_Ba(CuS)2
_symmetry_space_group_name_H-M   'P 1'
_cell_length_a   3.90192973
_cell_length_b   3.90192956
_cell_length_c   6.90063732
_cell_angle_alpha   106.42275087
_cell_angle_beta   106.42275116
_cell_angle_gamma   90.00000162
_symmetry_Int_Tables_number   1
_chemical_formula_structural   Ba(CuS)2
_chemical_formula_sum   'Ba1 Cu2 S2'
_cell_volume   96.29924950
_cell_formula_units_Z   1
loop_
 _symmetry_equiv_pos_site_id
 _symmetry_equiv_pos_as_xyz
  1  'x, y, z'
loop_
 _atom_site_type_symbol
 _atom_site_label
 _atom_site_symmetry_multiplicity
 _atom_site_fract_x
 _atom_site_fract_y
 _atom_site_fract_z
 _atom_site_occupancy
  Ba  Ba0  1  -0.00000000  -0.00000000  -0.00000000  1
  Cu  Cu0  1  0.25000000  0.75000000  0.50000000  1
  Cu  Cu1  1  0.75000000  0.25000000  0.50000000  1
  S  S0  1  0.64101111  0.64101111  0.28202223  1
  S  S1  1  0.35898889  0.35898889  0.71797777  1
loop_
_geom_bond_atom_site_label_1
_geom_bond_atom_site_label_2
_geom_bond_distance
_geom_bond_site_symmetry_2
Ba0 S0 3.285496 1_445
Ba0 S1 3.285496 1_554
Ba0 S0 3.285497 1_455
Ba0 S1 3.285497 1_544
Ba0 S0 3.285497 1_545
Ba0 S1 3.285497 1_454
Ba0 S1 3.285497 1_444
Ba0 S0 3.285497 1_555
Cu0 S1 2.388961 1_555
Cu0 S0 2.388961 1_555
Cu0 S1 2.388961 1_565
Cu0 S0 2.388961 1_455
Cu1 S0 2.388961 1_555
Cu1 S1 2.388961 1_555
Cu1 S0 2.388961 1_545
Cu1 S1 2.388961 1_655
