# generated using pymatgen
data_PrPO4
_symmetry_space_group_name_H-M   'P 1'
_cell_length_a   7.01711242
_cell_length_b   6.44414245
_cell_length_c   8.19754171
_cell_angle_alpha   53.65782875
_cell_angle_beta   90.00000000
_cell_angle_gamma   90.00000000
_symmetry_Int_Tables_number   1
_chemical_formula_structural   PrPO4
_chemical_formula_sum   'Pr4 P4 O16'
_cell_volume   298.58542810
_cell_formula_units_Z   4
loop_
 _symmetry_equiv_pos_site_id
 _symmetry_equiv_pos_as_xyz
  1  'x, y, z'
loop_
 _atom_site_type_symbol
 _atom_site_label
 _atom_site_symmetry_multiplicity
 _atom_site_fract_x
 _atom_site_fract_y
 _atom_site_fract_z
 _atom_site_occupancy
  Pr  Pr0  1  0.65823421  0.18162990  0.21819848  1
  Pr  Pr1  1  0.15823421  0.81837010  0.28180152  1
  Pr  Pr2  1  0.34176579  0.81837010  0.78180152  1
  Pr  Pr3  1  0.84176579  0.18162990  0.71819848  1
  P  P0  1  0.66260746  0.69058021  0.19664178  1
  P  P1  1  0.16260746  0.30941979  0.30335822  1
  P  P2  1  0.33739254  0.30941979  0.80335822  1
  P  P3  1  0.83739254  0.69058021  0.69664178  1
  O  O0  1  0.71301162  0.41501531  0.37401452  1
  O  O1  1  0.21301162  0.58498469  0.12598548  1
  O  O2  1  0.28698838  0.58498469  0.62598548  1
  O  O3  1  0.78698838  0.41501531  0.87401452  1
  O  O4  1  0.60581955  0.66664826  0.02726116  1
  O  O5  1  0.10581955  0.33335174  0.47273884  1
  O  O6  1  0.39418045  0.33335174  0.97273884  1
  O  O7  1  0.89418045  0.66664826  0.52726116  1
  O  O8  1  0.99414391  0.80636810  0.75059311  1
  O  O9  1  0.49414391  0.19363190  0.74940689  1
  O  O10  1  0.00585609  0.19363190  0.24940689  1
  O  O11  1  0.50585609  0.80636810  0.25059311  1
  O  O12  1  0.66843728  0.88198808  0.61927191  1
  O  O13  1  0.16843728  0.11801192  0.88072809  1
  O  O14  1  0.33156272  0.11801192  0.38072809  1
  O  O15  1  0.83156272  0.88198808  0.11927191  1
loop_
_geom_bond_atom_site_label_1
_geom_bond_atom_site_label_2
_geom_bond_distance
_geom_bond_site_symmetry_2
O0 P0 1.527228 1_555
O0 Pr3 2.451435 1_555
O0 Pr0 2.513567 1_555
O1 P1 1.527228 1_555
O1 Pr2 2.451435 1_554
O1 Pr1 2.513567 1_555
O2 P2 1.527228 1_555
O2 Pr1 2.451435 1_555
O2 Pr2 2.513567 1_555
O3 P3 1.527228 1_555
O3 Pr0 2.451435 1_556
O3 Pr3 2.513567 1_555
O4 P0 1.537634 1_555
O4 Pr2 2.471084 1_554
O4 Pr0 2.560447 1_555
O5 P1 1.537634 1_555
O5 Pr3 2.471084 1_455
O5 Pr1 2.560447 1_555
O6 P2 1.537634 1_555
O6 Pr0 2.471084 1_556
O6 Pr2 2.560447 1_555
O7 P3 1.537634 1_555
O7 Pr1 2.471084 1_655
O7 Pr3 2.560447 1_555
O8 P3 1.534060 1_555
O8 Pr2 2.458674 1_655
O8 Pr3 2.510098 1_565
O9 P2 1.534060 1_555
O9 Pr3 2.458674 1_555
O9 Pr2 2.510098 1_545
O10 P1 1.534060 1_555
O10 Pr0 2.458674 1_455
O10 Pr1 2.510098 1_545
O11 P0 1.534060 1_555
O11 Pr1 2.458674 1_555
O11 Pr0 2.510098 1_565
O12 P3 1.549863 1_555
O12 Pr2 2.559380 1_555
O12 Pr0 2.649336 1_565
O12 Pr3 2.778738 1_565
O13 P2 1.549863 1_555
O13 Pr3 2.559380 1_455
O13 Pr1 2.649336 1_546
O13 Pr2 2.778738 1_545
O14 P1 1.549863 1_555
O14 Pr0 2.559380 1_555
O14 Pr2 2.649336 1_545
O14 Pr1 2.778738 1_545
O15 P0 1.549863 1_555
O15 Pr1 2.559380 1_655
O15 Pr3 2.649336 1_564
O15 Pr0 2.778738 1_565
