# generated using pymatgen
data_K2Ge8O17
_symmetry_space_group_name_H-M   'P 1'
_cell_length_a   8.92518700
_cell_length_b   13.65934900
_cell_length_c   13.76841900
_cell_angle_alpha   90.00000000
_cell_angle_beta   90.00000000
_cell_angle_gamma   90.00000000
_symmetry_Int_Tables_number   1
_chemical_formula_structural   K2Ge8O17
_chemical_formula_sum   'K8 Ge32 O68'
_cell_volume   1678.53885832
_cell_formula_units_Z   4
loop_
 _symmetry_equiv_pos_site_id
 _symmetry_equiv_pos_as_xyz
  1  'x, y, z'
loop_
 _atom_site_type_symbol
 _atom_site_label
 _atom_site_symmetry_multiplicity
 _atom_site_fract_x
 _atom_site_fract_y
 _atom_site_fract_z
 _atom_site_occupancy
  K  K0  1  0.25000000  0.50754000  0.90649200  1
  K  K1  1  0.75000000  0.49246000  0.09350800  1
  K  K2  1  0.25000000  0.00754000  0.59350800  1
  K  K3  1  0.75000000  0.99246000  0.40649200  1
  K  K4  1  0.25000000  0.59217300  0.51823600  1
  K  K5  1  0.75000000  0.40782700  0.48176400  1
  K  K6  1  0.25000000  0.09217300  0.98176400  1
  K  K7  1  0.75000000  0.90782700  0.01823600  1
  Ge  Ge0  1  0.07034500  0.87619200  0.81914300  1
  Ge  Ge1  1  0.57034500  0.12380800  0.18085700  1
  Ge  Ge2  1  0.42965500  0.37619200  0.68085700  1
  Ge  Ge3  1  0.92965500  0.62380800  0.31914300  1
  Ge  Ge4  1  0.92965500  0.12380800  0.18085700  1
  Ge  Ge5  1  0.42965500  0.87619200  0.81914300  1
  Ge  Ge6  1  0.57034500  0.62380800  0.31914300  1
  Ge  Ge7  1  0.07034500  0.37619200  0.68085700  1
  Ge  Ge8  1  0.92527600  0.67342600  0.89714900  1
  Ge  Ge9  1  0.42527600  0.32657400  0.10285100  1
  Ge  Ge10  1  0.57472400  0.17342600  0.60285100  1
  Ge  Ge11  1  0.07472400  0.82657400  0.39714900  1
  Ge  Ge12  1  0.07472400  0.32657400  0.10285100  1
  Ge  Ge13  1  0.57472400  0.67342600  0.89714900  1
  Ge  Ge14  1  0.42527600  0.82657400  0.39714900  1
  Ge  Ge15  1  0.92527600  0.17342600  0.60285100  1
  Ge  Ge16  1  0.92893300  0.80596600  0.61302700  1
  Ge  Ge17  1  0.42893300  0.19403400  0.38697300  1
  Ge  Ge18  1  0.57106700  0.30596600  0.88697300  1
  Ge  Ge19  1  0.07106700  0.69403400  0.11302700  1
  Ge  Ge20  1  0.07106700  0.19403400  0.38697300  1
  Ge  Ge21  1  0.57106700  0.80596600  0.61302700  1
  Ge  Ge22  1  0.42893300  0.69403400  0.11302700  1
  Ge  Ge23  1  0.92893300  0.30596600  0.88697300  1
  Ge  Ge24  1  0.90703600  0.58762600  0.69352200  1
  Ge  Ge25  1  0.40703600  0.41237400  0.30647800  1
  Ge  Ge26  1  0.59296400  0.08762600  0.80647800  1
  Ge  Ge27  1  0.09296400  0.91237400  0.19352200  1
  Ge  Ge28  1  0.09296400  0.41237400  0.30647800  1
  Ge  Ge29  1  0.59296400  0.58762600  0.69352200  1
  Ge  Ge30  1  0.40703600  0.91237400  0.19352200  1
  Ge  Ge31  1  0.90703600  0.08762600  0.80647800  1
  O  O0  1  0.52941400  0.68000800  0.60684900  1
  O  O1  1  0.02941400  0.31999200  0.39315100  1
  O  O2  1  0.97058600  0.18000800  0.89315100  1
  O  O3  1  0.47058600  0.81999200  0.10684900  1
  O  O4  1  0.47058600  0.31999200  0.39315100  1
  O  O5  1  0.97058600  0.68000800  0.60684900  1
  O  O6  1  0.02941400  0.81999200  0.10684900  1
  O  O7  1  0.52941400  0.18000800  0.89315100  1
  O  O8  1  0.49046600  0.59671000  0.80950900  1
  O  O9  1  0.99046600  0.40329000  0.19049100  1
  O  O10  1  0.00953400  0.09671000  0.69049100  1
  O  O11  1  0.50953400  0.90329000  0.30950900  1
  O  O12  1  0.50953400  0.40329000  0.19049100  1
  O  O13  1  0.00953400  0.59671000  0.80950900  1
  O  O14  1  0.99046600  0.90329000  0.30950900  1
  O  O15  1  0.49046600  0.09671000  0.69049100  1
  O  O16  1  0.54666100  0.85882100  0.49665900  1
  O  O17  1  0.04666100  0.14117900  0.50334100  1
  O  O18  1  0.95333900  0.35882100  0.00334100  1
  O  O19  1  0.45333900  0.64117900  0.99665900  1
  O  O20  1  0.45333900  0.14117900  0.50334100  1
  O  O21  1  0.95333900  0.85882100  0.49665900  1
  O  O22  1  0.04666100  0.64117900  0.99665900  1
  O  O23  1  0.54666100  0.35882100  0.00334100  1
  O  O24  1  0.45048200  0.49821400  0.64508700  1
  O  O25  1  0.95048200  0.50178600  0.35491300  1
  O  O26  1  0.93573100  0.80207600  0.87874400  1
  O  O27  1  0.04951800  0.99821400  0.85491300  1
  O  O28  1  0.54951800  0.50178600  0.35491300  1
  O  O29  1  0.04951800  0.49821400  0.64508700  1
  O  O30  1  0.95048200  0.00178600  0.14508700  1
  O  O31  1  0.45048200  0.99821400  0.85491300  1
  O  O32  1  0.43971000  0.86543900  0.69026300  1
  O  O33  1  0.93971000  0.13456100  0.30973700  1
  O  O34  1  0.06029000  0.36543900  0.80973700  1
  O  O35  1  0.56029000  0.63456100  0.19026300  1
  O  O36  1  0.56029000  0.13456100  0.30973700  1
  O  O37  1  0.06029000  0.86543900  0.69026300  1
  O  O38  1  0.93971000  0.63456100  0.19026300  1
  O  O39  1  0.43971000  0.36543900  0.80973700  1
  O  O40  1  0.75000000  0.01315200  0.84922600  1
  O  O41  1  0.25000000  0.98684800  0.15077400  1
  O  O42  1  0.75000000  0.51315200  0.65077400  1
  O  O43  1  0.25000000  0.48684800  0.34922600  1
  O  O44  1  0.75000000  0.14853900  0.54519600  1
  O  O45  1  0.25000000  0.85146100  0.45480400  1
  O  O46  1  0.75000000  0.64853900  0.95480400  1
  O  O47  1  0.25000000  0.35146100  0.04519600  1
  O  O48  1  0.75000000  0.34873400  0.85169700  1
  O  O49  1  0.25000000  0.65126600  0.14830300  1
  O  O50  1  0.75000000  0.84873400  0.64830300  1
  O  O51  1  0.25000000  0.15126600  0.35169700  1
  O  O52  1  0.75000000  0.16357500  0.74777300  1
  O  O53  1  0.25000000  0.83642500  0.25222700  1
  O  O54  1  0.75000000  0.66357500  0.75222700  1
  O  O55  1  0.25000000  0.33642500  0.24777300  1
  O  O56  1  0.75000000  0.66587600  0.35628000  1
  O  O57  1  0.25000000  0.33412400  0.64372000  1
  O  O58  1  0.75000000  0.16587600  0.14372000  1
  O  O59  1  0.25000000  0.83412400  0.85628000  1
  O  O60  1  0.93573100  0.30207600  0.62125600  1
  O  O61  1  0.43573100  0.69792400  0.37874400  1
  O  O62  1  0.56426900  0.80207600  0.87874400  1
  O  O63  1  0.06426900  0.19792400  0.12125600  1
  O  O64  1  0.06426900  0.69792400  0.37874400  1
  O  O65  1  0.56426900  0.30207600  0.62125600  1
  O  O66  1  0.43573100  0.19792400  0.12125600  1
  O  O67  1  0.54951800  0.00178600  0.14508700  1
loop_
_geom_bond_atom_site_label_1
_geom_bond_atom_site_label_2
_geom_bond_distance
_geom_bond_site_symmetry_2
K0 O13 2.805844 1_555
K0 O8 2.805844 1_555
K0 O22 2.857800 1_555
K0 O19 2.857800 1_555
K0 O47 2.862210 1_556
K0 O34 2.899842 1_555
K0 O39 2.899842 1_555
K1 O12 2.805844 1_555
K1 O9 2.805844 1_555
K1 O23 2.857800 1_555
K1 O18 2.857800 1_555
K1 O46 2.862210 1_554
K1 O38 2.899842 1_555
K1 O35 2.899842 1_555
K2 O10 2.805844 1_555
K2 O15 2.805844 1_555
K2 O17 2.857800 1_555
K2 O20 2.857800 1_555
K2 O45 2.862210 1_545
K2 O37 2.899842 1_545
K2 O32 2.899842 1_545
K3 O14 2.805844 1_555
K3 O11 2.805844 1_555
K3 O21 2.857800 1_555
K3 O16 2.857800 1_555
K3 O44 2.862210 1_565
K3 O33 2.899842 1_565
K3 O36 2.899842 1_565
K4 O43 2.735819 1_555
K4 O29 2.810568 1_555
K4 O24 2.810568 1_555
K4 O64 2.919437 1_555
K4 O61 2.919437 1_555
K4 O5 3.024424 1_455
K4 O0 3.024424 1_555
K5 O42 2.735819 1_555
K5 O25 2.810568 1_555
K5 O28 2.810568 1_555
K5 O65 2.919437 1_555
K5 O60 2.919437 1_555
K5 O1 3.024424 1_655
K5 O4 3.024424 1_555
K6 O41 2.735819 1_546
K6 O27 2.810568 1_545
K6 O31 2.810568 1_545
K6 O63 2.919437 1_556
K6 O66 2.919437 1_556
K6 O7 3.024424 1_555
K6 O2 3.024424 1_455
K7 O40 2.735819 1_564
K7 O67 2.810568 1_565
K7 O30 2.810568 1_565
K7 O26 2.919437 1_554
K7 O62 2.919437 1_554
K7 O3 3.024424 1_555
K7 O6 3.024424 1_655
Ge0 O27 1.747893 1_555
Ge0 O26 1.772513 1_455
Ge0 O59 1.778399 1_555
Ge0 O37 1.782802 1_555
Ge1 O67 1.747893 1_555
Ge1 O66 1.772513 1_555
Ge1 O58 1.778399 1_555
Ge1 O36 1.782802 1_555
Ge2 O24 1.747893 1_555
Ge2 O65 1.772513 1_555
Ge2 O57 1.778399 1_555
Ge2 O39 1.782802 1_555
Ge3 O25 1.747893 1_555
Ge3 O64 1.772513 1_655
Ge3 O56 1.778399 1_555
Ge3 O38 1.782802 1_555
Ge4 O30 1.747893 1_555
Ge4 O63 1.772513 1_655
Ge4 O58 1.778399 1_555
Ge4 O33 1.782802 1_555
Ge5 O31 1.747893 1_555
Ge5 O62 1.772513 1_555
Ge5 O59 1.778399 1_555
Ge5 O32 1.782802 1_555
Ge6 O28 1.747893 1_555
Ge6 O61 1.772513 1_555
Ge6 O56 1.778399 1_555
Ge6 O35 1.782802 1_555
Ge7 O29 1.747893 1_555
Ge7 O60 1.772513 1_455
Ge7 O57 1.778399 1_555
Ge7 O34 1.782802 1_555
Ge8 O13 1.766252 1_655
Ge8 O26 1.777903 1_555
Ge8 O46 1.786887 1_555
Ge8 O22 1.801360 1_655
Ge9 O12 1.766252 1_555
Ge9 O66 1.777903 1_555
Ge9 O47 1.786887 1_555
Ge9 O23 1.801360 1_555
Ge10 O15 1.766252 1_555
Ge10 O65 1.777903 1_555
Ge10 O44 1.786887 1_555
Ge10 O20 1.801360 1_555
Ge11 O14 1.766252 1_455
Ge11 O64 1.777903 1_555
Ge11 O45 1.786887 1_555
Ge11 O21 1.801360 1_455
Ge12 O9 1.766252 1_455
Ge12 O63 1.777903 1_555
Ge12 O47 1.786887 1_555
Ge12 O18 1.801360 1_455
Ge13 O8 1.766252 1_555
Ge13 O62 1.777903 1_555
Ge13 O46 1.786887 1_555
Ge13 O19 1.801360 1_555
Ge14 O11 1.766252 1_555
Ge14 O61 1.777903 1_555
Ge14 O45 1.786887 1_555
Ge14 O16 1.801360 1_555
Ge15 O10 1.766252 1_655
Ge15 O60 1.777903 1_555
Ge15 O44 1.786887 1_555
Ge15 O17 1.801360 1_655
Ge16 O5 1.762265 1_555
Ge16 O50 1.768505 1_555
Ge16 O21 1.770802 1_555
Ge16 O37 1.779123 1_655
Ge17 O4 1.762265 1_555
Ge17 O51 1.768505 1_555
Ge17 O20 1.770802 1_555
Ge17 O36 1.779123 1_555
Ge18 O7 1.762265 1_555
Ge18 O48 1.768505 1_555
Ge18 O23 1.770802 1_556
Ge18 O39 1.779123 1_555
Ge19 O6 1.762265 1_555
Ge19 O49 1.768505 1_555
Ge19 O22 1.770802 1_554
Ge19 O38 1.779123 1_455
Ge20 O1 1.762265 1_555
Ge20 O51 1.768505 1_555
Ge20 O17 1.770802 1_555
Ge20 O33 1.779123 1_455
Ge21 O0 1.762265 1_555
Ge21 O50 1.768505 1_555
Ge21 O16 1.770802 1_555
Ge21 O32 1.779123 1_555
Ge22 O3 1.762265 1_555
Ge22 O49 1.768505 1_555
Ge22 O19 1.770802 1_554
Ge22 O35 1.779123 1_555
Ge23 O2 1.762265 1_555
Ge23 O48 1.768505 1_555
Ge23 O18 1.770802 1_556
Ge23 O34 1.779123 1_655
Ge24 O5 1.827055 1_555
Ge24 O42 1.829115 1_555
Ge24 O13 1.844601 1_655
Ge24 O29 1.885069 1_655
Ge24 O54 1.921965 1_555
Ge25 O4 1.827055 1_555
Ge25 O43 1.829115 1_555
Ge25 O12 1.844601 1_555
Ge25 O28 1.885069 1_555
Ge25 O55 1.921965 1_555
Ge26 O7 1.827055 1_555
Ge26 O40 1.829115 1_555
Ge26 O15 1.844601 1_555
Ge26 O31 1.885069 1_545
Ge26 O52 1.921965 1_555
Ge27 O6 1.827055 1_555
Ge27 O41 1.829115 1_555
Ge27 O14 1.844601 1_455
Ge27 O30 1.885069 1_465
Ge27 O53 1.921965 1_555
Ge28 O1 1.827055 1_555
Ge28 O43 1.829115 1_555
Ge28 O9 1.844601 1_455
Ge28 O25 1.885069 1_455
Ge28 O55 1.921965 1_555
Ge29 O0 1.827055 1_555
Ge29 O42 1.829115 1_555
Ge29 O8 1.844601 1_555
Ge29 O24 1.885069 1_555
Ge29 O54 1.921965 1_555
Ge30 O3 1.827055 1_555
Ge30 O41 1.829115 1_555
Ge30 O11 1.844601 1_555
Ge30 O67 1.885069 1_565
Ge30 O53 1.921965 1_555
Ge31 O2 1.827055 1_555
Ge31 O40 1.829115 1_555
Ge31 O10 1.844601 1_655
Ge31 O27 1.885069 1_645
Ge31 O52 1.921965 1_555
