# generated using pymatgen
data_KMnSb
_symmetry_space_group_name_H-M   'P 1'
_cell_length_a   4.66928900
_cell_length_b   4.66928900
_cell_length_c   8.29806000
_cell_angle_alpha   90.00000000
_cell_angle_beta   90.00000000
_cell_angle_gamma   90.00000000
_symmetry_Int_Tables_number   1
_chemical_formula_structural   KMnSb
_chemical_formula_sum   'K2 Mn2 Sb2'
_cell_volume   180.91645967
_cell_formula_units_Z   2
loop_
 _symmetry_equiv_pos_site_id
 _symmetry_equiv_pos_as_xyz
  1  'x, y, z'
loop_
 _atom_site_type_symbol
 _atom_site_label
 _atom_site_symmetry_multiplicity
 _atom_site_fract_x
 _atom_site_fract_y
 _atom_site_fract_z
 _atom_site_occupancy
  K  K0  1  0.50000000  0.00000000  0.65436500  1
  K  K1  1  0.00000000  0.50000000  0.34563500  1
  Mn  Mn0  1  0.50000000  0.50000000  0.00000000  1
  Mn  Mn1  1  0.00000000  0.00000000  0.00000000  1
  Sb  Sb0  1  0.50000000  0.00000000  0.18631000  1
  Sb  Sb1  1  0.00000000  0.50000000  0.81369000  1
loop_
_geom_bond_atom_site_label_1
_geom_bond_atom_site_label_2
_geom_bond_distance
_geom_bond_site_symmetry_2
K0 Sb1 3.556550 1_545
K0 Sb1 3.556550 1_645
K0 Sb1 3.556550 1_655
K0 Sb1 3.556550 1_555
K0 Mn1 3.698184 1_656
K0 Mn0 3.698184 1_556
K0 Mn1 3.698184 1_556
K0 Mn0 3.698184 1_546
K0 Sb0 3.883948 1_555
K1 Sb0 3.556550 1_565
K1 Sb0 3.556550 1_455
K1 Sb0 3.556550 1_465
K1 Sb0 3.556550 1_555
K1 Mn0 3.698184 1_555
K1 Mn1 3.698184 1_555
K1 Mn0 3.698184 1_455
K1 Mn1 3.698184 1_565
K1 Sb1 3.883948 1_555
Mn0 Sb1 2.800128 1_554
Mn0 Sb1 2.800128 1_654
Mn0 Sb0 2.800128 1_555
Mn0 Sb0 2.800128 1_565
Mn1 Sb1 2.800128 1_554
Mn1 Sb1 2.800128 1_544
Mn1 Sb0 2.800128 1_455
Mn1 Sb0 2.800128 1_555
