# generated using pymatgen
data_Sr2Sb2O7
_symmetry_space_group_name_H-M   'P 1'
_cell_length_a   7.47837755
_cell_length_b   7.47837806
_cell_length_c   7.47837807
_cell_angle_alpha   119.96914218
_cell_angle_beta   117.85153218
_cell_angle_gamma   91.90742880
_symmetry_Int_Tables_number   1
_chemical_formula_structural   Sr2Sb2O7
_chemical_formula_sum   'Sr4 Sb4 O14'
_cell_volume   300.30559622
_cell_formula_units_Z   2
loop_
 _symmetry_equiv_pos_site_id
 _symmetry_equiv_pos_as_xyz
  1  'x, y, z'
loop_
 _atom_site_type_symbol
 _atom_site_label
 _atom_site_symmetry_multiplicity
 _atom_site_fract_x
 _atom_site_fract_y
 _atom_site_fract_z
 _atom_site_occupancy
  Sr  Sr0  1  0.49999989  0.49999995  0.49999990  1
  Sr  Sr1  1  0.50000001  -0.00000005  -0.00000000  1
  Sr  Sr2  1  0.50000000  0.50000001  -0.00000003  1
  Sr  Sr3  1  -0.00000003  0.00000002  0.00000008  1
  Sb  Sb0  1  0.00000000  0.49999998  0.00000002  1
  Sb  Sb1  1  0.00000005  0.00000004  0.50000004  1
  Sb  Sb2  1  0.00000018  0.50000007  0.50000012  1
  Sb  Sb3  1  0.50000003  -0.00000000  0.50000009  1
  O  O0  1  0.95048967  0.58397940  0.77227876  1
  O  O1  1  0.04951032  0.82178915  0.63348980  1
  O  O2  1  0.68829951  0.91602057  0.36651046  1
  O  O3  1  0.31170060  0.67821082  0.22772119  1
  O  O4  1  0.04951032  0.41602056  0.22772117  1
  O  O5  1  0.95048974  0.17821087  0.36651026  1
  O  O6  1  0.31170048  0.08397945  0.63348952  1
  O  O7  1  0.68829940  0.32178921  0.77227886  1
  O  O8  1  0.09661817  0.25000010  0.84661814  1
  O  O9  1  0.90338187  0.74999994  0.15338191  1
  O  O10  1  0.69075673  0.40880370  0.28195268  1
  O  O11  1  0.30924312  0.59119622  0.71804708  1
  O  O12  1  0.37314892  0.09119589  0.28195261  1
  O  O13  1  0.62685101  0.90880410  0.71804733  1
loop_
_geom_bond_atom_site_label_1
_geom_bond_atom_site_label_2
_geom_bond_distance
_geom_bond_site_symmetry_2
O0 Sb0 1.981546 1_656
O0 Sb2 2.029765 1_655
O0 Sr3 2.599501 1_666
O0 Sr0 2.839405 1_555
O1 Sb1 1.981546 1_565
O1 Sb2 2.029765 1_555
O1 Sr3 2.599502 1_566
O1 Sr1 2.839404 1_566
O2 Sb1 1.981545 1_665
O2 Sb3 2.029766 1_565
O2 Sr2 2.599501 1_555
O2 Sr1 2.839406 1_565
O3 Sb0 1.981544 1_555
O3 Sb3 2.029765 1_565
O3 Sr2 2.599502 1_555
O3 Sr0 2.839405 1_555
O4 Sb0 1.981545 1_555
O4 Sb2 2.029765 1_555
O4 Sr3 2.599501 1_555
O4 Sr0 2.839404 1_555
O5 Sb1 1.981545 1_655
O5 Sb2 2.029766 1_655
O5 Sr3 2.599500 1_655
O5 Sr1 2.839405 1_555
O6 Sb1 1.981544 1_555
O6 Sb3 2.029765 1_555
O6 Sr2 2.599501 1_556
O6 Sr1 2.839407 1_556
O7 Sb0 1.981544 1_656
O7 Sb3 2.029765 1_555
O7 Sr2 2.599501 1_556
O7 Sr0 2.839405 1_555
O8 Sb1 2.013699 1_555
O8 Sb0 2.013699 1_556
O8 Sr2 2.856598 1_556
O8 Sr3 2.856600 1_556
O9 Sb1 2.013699 1_665
O9 Sb0 2.013700 1_655
O9 Sr2 2.856598 1_555
O9 Sr3 2.856599 1_665
O10 Sb2 1.932044 1_655
O10 Sr2 2.374254 1_555
O10 Sr1 2.507262 1_555
O10 Sr0 2.507265 1_555
O11 Sb2 1.932041 1_555
O11 Sr2 2.374255 1_556
O11 Sr1 2.507262 1_566
O11 Sr0 2.507264 1_555
O12 Sb3 1.932044 1_555
O12 Sr3 2.374253 1_555
O12 Sr1 2.507263 1_555
O12 Sr0 2.507264 1_555
O13 Sb3 1.932043 1_565
O13 Sr3 2.374254 1_666
O13 Sr1 2.507263 1_566
O13 Sr0 2.507265 1_555
