# generated using pymatgen
data_Ca3TiAl2Si3O13F2
_symmetry_space_group_name_H-M   'P 1'
_cell_length_a   5.42294800
_cell_length_b   7.07817943
_cell_length_c   14.81945450
_cell_angle_alpha   84.00444135
_cell_angle_beta   87.21268069
_cell_angle_gamma   75.34761453
_symmetry_Int_Tables_number   1
_chemical_formula_structural   Ca3TiAl2Si3O13F2
_chemical_formula_sum   'Ca6 Ti2 Al4 Si6 O26 F4'
_cell_volume   547.18305699
_cell_formula_units_Z   2
loop_
 _symmetry_equiv_pos_site_id
 _symmetry_equiv_pos_as_xyz
  1  'x, y, z'
loop_
 _atom_site_type_symbol
 _atom_site_label
 _atom_site_symmetry_multiplicity
 _atom_site_fract_x
 _atom_site_fract_y
 _atom_site_fract_z
 _atom_site_occupancy
  Ca  Ca0  1  0.61341100  0.47416000  0.77498800  1
  Ca  Ca1  1  0.28141400  0.80264000  0.44609800  1
  Ca  Ca2  1  0.94054700  0.14093300  0.11231900  1
  Ca  Ca3  1  0.71858600  0.19736000  0.55390200  1
  Ca  Ca4  1  0.38658900  0.52584000  0.22501200  1
  Ca  Ca5  1  0.05945300  0.85906700  0.88768100  1
  Ti  Ti0  1  0.50000000  0.00000000  0.00000000  1
  Ti  Ti1  1  0.50000000  0.50000000  0.00000000  1
  Al  Al0  1  0.16647700  0.33199700  0.66429400  1
  Al  Al1  1  0.16670400  0.83267900  0.66506100  1
  Al  Al2  1  0.83352300  0.66800300  0.33570600  1
  Al  Al3  1  0.83329600  0.16732100  0.33493900  1
  Si  Si0  1  0.58821600  0.97687900  0.76691000  1
  Si  Si1  1  0.25205700  0.31260400  0.43866800  1
  Si  Si2  1  0.92209900  0.64494400  0.11067700  1
  Si  Si3  1  0.74794300  0.68739600  0.56133200  1
  Si  Si4  1  0.41178400  0.02312100  0.23309000  1
  Si  Si5  1  0.07790100  0.35505600  0.88932300  1
  O  O0  1  0.45688900  0.81487000  0.58627100  1
  O  O1  1  0.50361200  0.18461300  0.69986400  1
  O  O2  1  0.12109400  0.15078800  0.25662300  1
  O  O3  1  0.28332000  0.36139400  0.54333100  1
  O  O4  1  0.37764800  0.84292300  0.76439300  1
  O  O5  1  0.17080900  0.52043700  0.37122000  1
  O  O6  1  0.95784000  0.82120700  0.56505600  1
  O  O7  1  0.04671100  0.30187900  0.78580300  1
  O  O8  1  0.79619800  0.49605500  0.91434200  1
  O  O9  1  0.95328900  0.69812100  0.21419700  1
  O  O10  1  0.04216000  0.17879300  0.43494400  1
  O  O11  1  0.85309800  0.84559000  0.03973300  1
  O  O12  1  0.82919100  0.47956300  0.62878000  1
  O  O13  1  0.62235200  0.15707700  0.23560700  1
  O  O14  1  0.71668000  0.63860600  0.45666900  1
  O  O15  1  0.59673500  0.22692800  0.02197700  1
  O  O16  1  0.87890600  0.84921200  0.74337700  1
  O  O17  1  0.61907100  0.03080400  0.87106500  1
  O  O18  1  0.71261300  0.51239300  0.10754300  1
  O  O19  1  0.49638800  0.81538700  0.30013600  1
  O  O20  1  0.28738700  0.48760700  0.89245700  1
  O  O21  1  0.38092900  0.96919600  0.12893500  1
  O  O22  1  0.54311100  0.18513000  0.41372900  1
  O  O23  1  0.40326500  0.77307200  0.97802300  1
  O  O24  1  0.14690200  0.15441000  0.96026700  1
  O  O25  1  0.20380200  0.50394500  0.08565800  1
  F  F0  1  0.25532800  0.55965000  0.68771000  1
  F  F1  1  0.92180300  0.89495400  0.35924400  1
  F  F2  1  0.07819700  0.10504600  0.64075600  1
  F  F3  1  0.74467200  0.44035000  0.31229000  1
loop_
_geom_bond_atom_site_label_1
_geom_bond_atom_site_label_2
_geom_bond_distance
_geom_bond_site_symmetry_2
Ca0 F0 2.301353 1_555
Ca0 O7 2.362261 1_655
Ca0 O8 2.369620 1_555
Ca0 O20 2.411543 1_555
Ca0 O12 2.413333 1_555
Ca0 O4 2.591888 1_555
Ca0 O1 2.636810 1_555
Ca1 F1 2.304456 1_455
Ca1 O0 2.345130 1_555
Ca1 O14 2.357051 1_555
Ca1 O19 2.411080 1_555
Ca1 O6 2.415574 1_455
Ca1 O5 2.591318 1_555
Ca1 O10 2.642121 1_565
Ca2 O15 2.266625 1_555
Ca2 O21 2.401590 1_645
Ca2 O2 2.409577 1_655
Ca2 O13 2.442537 1_555
Ca2 O24 2.470369 1_654
Ca2 O18 2.602182 1_555
Ca2 O11 2.602511 1_545
Ca3 F2 2.304456 1_655
Ca3 O22 2.345130 1_555
Ca3 O3 2.357051 1_555
Ca3 O1 2.411080 1_555
Ca3 O10 2.415574 1_655
Ca3 O12 2.591318 1_555
Ca3 O6 2.642121 1_545
Ca4 F3 2.301353 1_555
Ca4 O9 2.362261 1_455
Ca4 O25 2.369620 1_555
Ca4 O18 2.411543 1_555
Ca4 O5 2.413333 1_555
Ca4 O13 2.591888 1_555
Ca4 O19 2.636810 1_555
Ca5 O23 2.266625 1_555
Ca5 O17 2.401590 1_465
Ca5 O16 2.409577 1_455
Ca5 O4 2.442537 1_555
Ca5 O11 2.470369 1_456
Ca5 O20 2.602182 1_555
Ca5 O24 2.602511 1_565
Al0 F2 1.858427 1_555
Al0 F0 1.864124 1_555
Al0 O3 1.880567 1_555
Al0 O7 1.893646 1_555
Al0 O1 1.929419 1_555
Al0 O12 1.930228 1_455
Al1 F2 1.865580 1_565
Al1 F0 1.867801 1_555
Al1 O16 1.885821 1_455
Al1 O0 1.899296 1_555
Al1 O4 1.925826 1_555
Al1 O6 1.928942 1_455
Al2 F1 1.858427 1_555
Al2 F3 1.864124 1_555
Al2 O14 1.880567 1_555
Al2 O9 1.893646 1_555
Al2 O19 1.929419 1_555
Al2 O5 1.930228 1_655
Al3 F1 1.865580 1_545
Al3 F3 1.867801 1_555
Al3 O2 1.885821 1_655
Al3 O22 1.899296 1_555
Al3 O13 1.925826 1_555
Al3 O10 1.928942 1_655
O0 Si3 1.653604 1_555
O1 Si0 1.660594 1_545
O2 Si4 1.647704 1_555
O3 Si1 1.649500 1_555
O4 Si0 1.662415 1_555
O5 Si1 1.662841 1_555
O6 Si3 1.660782 1_555
O7 Si5 1.643730 1_555
O8 Si5 1.648679 1_655
O8 Ti1 1.994659 1_556
O9 Si2 1.643730 1_555
O10 Si1 1.660782 1_555
O11 Si2 1.649193 1_555
O11 Ti0 2.030829 1_565
O12 Si3 1.662841 1_555
O13 Si4 1.662415 1_555
O14 Si3 1.649500 1_555
O15 Ti1 1.867975 1_555
O15 Ti0 1.874420 1_555
O16 Si0 1.647704 1_555
O17 Si0 1.654281 1_545
O17 Ti0 1.994903 1_556
O18 Si2 1.651192 1_555
O18 Ti1 2.033750 1_555
O19 Si4 1.660594 1_565
O20 Si5 1.651192 1_555
O20 Ti1 2.033750 1_556
O21 Si4 1.654281 1_565
O21 Ti0 1.994903 1_565
O22 Si1 1.653604 1_555
O23 Ti1 1.867975 1_556
O23 Ti0 1.874420 1_566
O24 Si5 1.649193 1_555
O24 Ti0 2.030829 1_556
O25 Si2 1.648679 1_455
O25 Ti1 1.994659 1_555
