# generated using pymatgen
data_Nd(NiGe)2
_symmetry_space_group_name_H-M   'P 1'
_cell_length_a   4.12637870
_cell_length_b   4.12637804
_cell_length_c   5.69549774
_cell_angle_alpha   111.23840206
_cell_angle_beta   111.23838957
_cell_angle_gamma   90.00000740
_symmetry_Int_Tables_number   1
_chemical_formula_structural   Nd(NiGe)2
_chemical_formula_sum   'Nd1 Ni2 Ge2'
_cell_volume   83.28480595
_cell_formula_units_Z   1
loop_
 _symmetry_equiv_pos_site_id
 _symmetry_equiv_pos_as_xyz
  1  'x, y, z'
loop_
 _atom_site_type_symbol
 _atom_site_label
 _atom_site_symmetry_multiplicity
 _atom_site_fract_x
 _atom_site_fract_y
 _atom_site_fract_z
 _atom_site_occupancy
  Nd  Nd0  1  0.00000000  0.00000000  0.00000000  1
  Ni  Ni0  1  0.75000000  0.25000000  0.50000000  1
  Ni  Ni1  1  0.25000000  0.75000000  0.50000000  1
  Ge  Ge0  1  0.63337400  0.63337400  0.26674899  1
  Ge  Ge1  1  0.36662600  0.36662600  0.73325101  1
loop_
_geom_bond_atom_site_label_1
_geom_bond_atom_site_label_2
_geom_bond_distance
_geom_bond_site_symmetry_2
Nd0 Ni0 3.199694 1_444
Nd0 Ni1 3.199694 1_555
Nd0 Ni1 3.199695 1_444
Nd0 Ni0 3.199695 1_555
Nd0 Ni1 3.199695 1_544
Nd0 Ni0 3.199695 1_455
Nd0 Ni1 3.199695 1_545
Nd0 Ni0 3.199695 1_454
Ge0 Ni1 2.357629 1_555
Ge0 Ni0 2.357629 1_555
Ge0 Ni0 2.357632 1_565
Ge0 Ni1 2.357633 1_655
Ge0 Ge1 2.609519 1_554
Ge0 Nd0 3.196228 1_555
Ge0 Nd0 3.196232 1_655
Ge0 Nd0 3.196232 1_565
Ge0 Nd0 3.196234 1_665
Ge1 Ni0 2.357629 1_555
Ge1 Ni1 2.357629 1_555
Ge1 Ni1 2.357632 1_545
Ge1 Ni0 2.357633 1_455
Ge1 Nd0 3.196228 1_666
Ge1 Nd0 3.196232 1_566
Ge1 Nd0 3.196232 1_656
Ge1 Nd0 3.196234 1_556
