# generated using pymatgen
data_Si3N4
_symmetry_space_group_name_H-M   'P 1'
_cell_length_a   6.20614952
_cell_length_b   6.20614952
_cell_length_c   3.97691200
_cell_angle_alpha   90.00000000
_cell_angle_beta   90.00000000
_cell_angle_gamma   119.99999483
_symmetry_Int_Tables_number   1
_chemical_formula_structural   Si3N4
_chemical_formula_sum   'Si6 N8'
_cell_volume   132.65423022
_cell_formula_units_Z   2
loop_
 _symmetry_equiv_pos_site_id
 _symmetry_equiv_pos_as_xyz
  1  'x, y, z'
loop_
 _atom_site_type_symbol
 _atom_site_label
 _atom_site_symmetry_multiplicity
 _atom_site_fract_x
 _atom_site_fract_y
 _atom_site_fract_z
 _atom_site_occupancy
  Si  Si0  1  0.17082200  0.82917800  0.25000000  1
  Si  Si1  1  0.17082200  0.34164300  0.25000000  1
  Si  Si2  1  0.65835700  0.82917800  0.25000000  1
  Si  Si3  1  0.34164300  0.17082200  0.75000000  1
  Si  Si4  1  0.82917800  0.65835700  0.75000000  1
  Si  Si5  1  0.82917800  0.17082200  0.75000000  1
  N  N0  1  0.15702500  0.84297500  0.75000000  1
  N  N1  1  0.33333300  0.66666700  0.25000000  1
  N  N2  1  0.15702500  0.31405000  0.75000000  1
  N  N3  1  0.68595000  0.84297500  0.75000000  1
  N  N4  1  0.31405000  0.15702500  0.25000000  1
  N  N5  1  0.84297500  0.68595000  0.25000000  1
  N  N6  1  0.66666700  0.33333300  0.75000000  1
  N  N7  1  0.84297500  0.15702500  0.25000000  1
loop_
_geom_bond_atom_site_label_1
_geom_bond_atom_site_label_2
_geom_bond_distance
_geom_bond_site_symmetry_2
N0 Si4 1.766748 1_455
N0 Si3 1.766748 1_565
N0 Si0 1.993979 1_555
N0 Si0 1.993979 1_556
N1 Si0 1.746890 1_555
N1 Si2 1.746901 1_555
N1 Si1 1.746901 1_555
N2 Si3 1.766743 1_555
N2 Si5 1.766749 1_455
N2 Si1 1.993979 1_555
N2 Si1 1.993979 1_556
N3 Si4 1.766743 1_555
N3 Si5 1.766749 1_565
N3 Si2 1.993979 1_555
N3 Si2 1.993979 1_556
N4 Si1 1.766743 1_555
N4 Si0 1.766749 1_545
N4 Si3 1.993979 1_555
N4 Si3 1.993979 1_554
N5 Si2 1.766743 1_555
N5 Si0 1.766749 1_655
N5 Si4 1.993979 1_554
N5 Si4 1.993979 1_555
N6 Si5 1.746890 1_555
N6 Si4 1.746901 1_555
N6 Si3 1.746901 1_555
N7 Si2 1.766748 1_545
N7 Si1 1.766748 1_655
N7 Si5 1.993979 1_554
N7 Si5 1.993979 1_555
