# generated using pymatgen
data_Ho6FeSb2
_symmetry_space_group_name_H-M   'P 1'
_cell_length_a   8.16644324
_cell_length_b   8.16645058
_cell_length_c   4.14777353
_cell_angle_alpha   90.00000000
_cell_angle_beta   90.00000000
_cell_angle_gamma   120.00002910
_symmetry_Int_Tables_number   1
_chemical_formula_structural   Ho6FeSb2
_chemical_formula_sum   'Ho6 Fe1 Sb2'
_cell_volume   239.55863293
_cell_formula_units_Z   1
loop_
 _symmetry_equiv_pos_site_id
 _symmetry_equiv_pos_as_xyz
  1  'x, y, z'
loop_
 _atom_site_type_symbol
 _atom_site_label
 _atom_site_symmetry_multiplicity
 _atom_site_fract_x
 _atom_site_fract_y
 _atom_site_fract_z
 _atom_site_occupancy
  Ho  Ho0  1  0.23656182  -0.00000000  0.00000000  1
  Ho  Ho1  1  0.76343818  0.76343818  -0.00000000  1
  Ho  Ho2  1  0.00000000  0.23656182  0.00000000  1
  Ho  Ho3  1  0.60080251  0.00000000  0.50000000  1
  Ho  Ho4  1  0.39919749  0.39919749  0.50000000  1
  Ho  Ho5  1  -0.00000000  0.60080251  0.50000000  1
  Fe  Fe0  1  0.00000000  -0.00000000  0.50000000  1
  Sb  Sb0  1  0.33333300  0.66666700  0.00000000  1
  Sb  Sb1  1  0.66666700  0.33333300  0.00000000  1
loop_
_geom_bond_atom_site_label_1
_geom_bond_atom_site_label_2
_geom_bond_distance
_geom_bond_site_symmetry_2
Ho0 Sb0 3.191532 1_545
Ho0 Sb1 3.191534 1_555
Ho1 Sb0 3.191536 1_555
Ho1 Sb1 3.191540 1_555
Ho2 Sb1 3.191530 1_455
Ho2 Sb0 3.191535 1_555
Ho3 Sb1 3.245954 1_555
Ho3 Sb1 3.245954 1_556
Ho3 Sb0 3.245955 1_546
Ho3 Sb0 3.245955 1_545
Ho4 Sb1 3.245959 1_555
Ho4 Sb1 3.245959 1_556
Ho4 Sb0 3.245961 1_555
Ho4 Sb0 3.245961 1_556
Ho5 Sb0 3.245952 1_556
Ho5 Sb0 3.245952 1_555
Ho5 Sb1 3.245955 1_456
Ho5 Sb1 3.245955 1_455
Fe0 Ho0 2.834276 1_556
Fe0 Ho0 2.834276 1_555
Fe0 Ho1 2.834276 1_445
Fe0 Ho1 2.834276 1_446
Fe0 Ho2 2.834278 1_555
Fe0 Ho2 2.834278 1_556
Fe0 Ho3 3.260024 1_455
Fe0 Ho4 3.260024 1_555
Fe0 Ho5 3.260027 1_545
