# generated using pymatgen
data_Yb2Si2O7
_symmetry_space_group_name_H-M   'P 1'
_cell_length_a   5.77562432
_cell_length_b   5.77562432
_cell_length_c   4.91147762
_cell_angle_alpha   82.76815452
_cell_angle_beta   82.76815452
_cell_angle_gamma   107.12880847
_symmetry_Int_Tables_number   1
_chemical_formula_structural   Yb2Si2O7
_chemical_formula_sum   'Yb2 Si2 O7'
_cell_volume   153.01193949
_cell_formula_units_Z   1
loop_
 _symmetry_equiv_pos_site_id
 _symmetry_equiv_pos_as_xyz
  1  'x, y, z'
loop_
 _atom_site_type_symbol
 _atom_site_label
 _atom_site_symmetry_multiplicity
 _atom_site_fract_x
 _atom_site_fract_y
 _atom_site_fract_z
 _atom_site_occupancy
  Yb  Yb0  1  0.30995000  0.69005000  0.00000000  1
  Yb  Yb1  1  0.69005000  0.30995000  0.00000000  1
  Si  Si0  1  0.77931600  0.77931600  0.39858200  1
  Si  Si1  1  0.22068400  0.22068400  0.60141800  1
  O  O0  1  0.90771100  0.62077900  0.21358300  1
  O  O1  1  0.37922100  0.09228900  0.78641700  1
  O  O2  1  0.62077900  0.90771100  0.21358300  1
  O  O3  1  0.09228900  0.37922100  0.78641700  1
  O  O4  1  0.00000000  0.00000000  0.50000000  1
  O  O5  1  0.36953500  0.36953500  0.30169900  1
  O  O6  1  0.63046500  0.63046500  0.69830100  1
loop_
_geom_bond_atom_site_label_1
_geom_bond_atom_site_label_2
_geom_bond_distance
_geom_bond_site_symmetry_2
O0 Si0 1.629020 1_555
O0 Yb1 2.319575 1_555
O0 Yb0 2.321837 1_655
O1 Si1 1.629020 1_555
O1 Yb1 2.319575 1_556
O1 Yb0 2.321837 1_546
O2 Si0 1.629020 1_555
O2 Yb0 2.319575 1_555
O2 Yb1 2.321837 1_565
O3 Si1 1.629020 1_555
O3 Yb0 2.319575 1_556
O3 Yb1 2.321837 1_456
O4 Si0 1.691157 1_445
O4 Si1 1.691157 1_555
O5 Si1 1.603919 1_555
O5 Yb0 2.356694 1_555
O5 Yb1 2.356694 1_555
O6 Si0 1.603919 1_555
O6 Yb1 2.356694 1_556
O6 Yb0 2.356694 1_556
