# generated using pymatgen
data_LuInCu2
_symmetry_space_group_name_H-M   'P 1'
_cell_length_a   4.58427500
_cell_length_b   4.58427500
_cell_length_c   4.58427427
_cell_angle_alpha   59.99999047
_cell_angle_beta   59.99999048
_cell_angle_gamma   59.99999797
_symmetry_Int_Tables_number   1
_chemical_formula_structural   LuInCu2
_chemical_formula_sum   'Lu1 In1 Cu2'
_cell_volume   68.12348386
_cell_formula_units_Z   1
loop_
 _symmetry_equiv_pos_site_id
 _symmetry_equiv_pos_as_xyz
  1  'x, y, z'
loop_
 _atom_site_type_symbol
 _atom_site_label
 _atom_site_symmetry_multiplicity
 _atom_site_fract_x
 _atom_site_fract_y
 _atom_site_fract_z
 _atom_site_occupancy
  Lu  Lu0  1  0.50000000  0.50000000  0.50000000  1
  In  In0  1  -0.00000000  0.00000000  0.00000000  1
  Cu  Cu0  1  0.25000000  0.25000000  0.25000000  1
  Cu  Cu1  1  0.75000000  0.75000000  0.75000000  1
loop_
_geom_bond_atom_site_label_1
_geom_bond_atom_site_label_2
_geom_bond_distance
_geom_bond_site_symmetry_2
Cu0 In0 2.807283 1_556
Cu0 Lu0 2.807283 1_554
Cu0 Lu0 2.807283 1_455
Cu0 In0 2.807283 1_655
Cu0 Lu0 2.807283 1_545
Cu0 In0 2.807283 1_565
Cu0 Lu0 2.807284 1_555
Cu0 In0 2.807284 1_555
Cu1 In0 2.807283 1_665
Cu1 Lu0 2.807283 1_556
Cu1 In0 2.807283 1_566
Cu1 Lu0 2.807283 1_655
Cu1 Lu0 2.807283 1_565
Cu1 In0 2.807283 1_656
Cu1 In0 2.807284 1_666
Cu1 Lu0 2.807284 1_555
