# generated using pymatgen
data_LaGaS3
_symmetry_space_group_name_H-M   'P 1'
_cell_length_a   10.57888155
_cell_length_b   10.38992345
_cell_length_c   12.88081913
_cell_angle_alpha   81.27400840
_cell_angle_beta   90.00000000
_cell_angle_gamma   90.00000000
_symmetry_Int_Tables_number   1
_chemical_formula_structural   LaGaS3
_chemical_formula_sum   'La12 Ga12 S36'
_cell_volume   1399.39197510
_cell_formula_units_Z   12
loop_
 _symmetry_equiv_pos_site_id
 _symmetry_equiv_pos_as_xyz
  1  'x, y, z'
loop_
 _atom_site_type_symbol
 _atom_site_label
 _atom_site_symmetry_multiplicity
 _atom_site_fract_x
 _atom_site_fract_y
 _atom_site_fract_z
 _atom_site_occupancy
  La  La0  1  0.03011759  0.05663273  0.67263277  1
  La  La1  1  0.53011759  0.94336727  0.82736723  1
  La  La2  1  0.96988241  0.94336727  0.32736723  1
  La  La3  1  0.46988241  0.05663273  0.17263277  1
  La  La4  1  0.05327799  0.48545987  0.67504421  1
  La  La5  1  0.55327799  0.51454013  0.82495579  1
  La  La6  1  0.94672201  0.51454013  0.32495579  1
  La  La7  1  0.44672201  0.48545987  0.17504421  1
  La  La8  1  0.14474040  0.81189132  0.05726551  1
  La  La9  1  0.64474040  0.18810868  0.44273449  1
  La  La10  1  0.85525960  0.18810868  0.94273449  1
  La  La11  1  0.35525960  0.81189132  0.55726551  1
  Ga  Ga0  1  0.08228747  0.25325221  0.14635519  1
  Ga  Ga1  1  0.58228747  0.74674779  0.35364481  1
  Ga  Ga2  1  0.91771253  0.74674779  0.85364481  1
  Ga  Ga3  1  0.41771253  0.25325221  0.64635519  1
  Ga  Ga4  1  0.22995010  0.19845809  0.42423672  1
  Ga  Ga5  1  0.72995010  0.80154191  0.07576328  1
  Ga  Ga6  1  0.77004990  0.80154191  0.57576328  1
  Ga  Ga7  1  0.27004990  0.19845809  0.92423672  1
  Ga  Ga8  1  0.25279166  0.68512933  0.83105556  1
  Ga  Ga9  1  0.75279166  0.31487067  0.66894444  1
  Ga  Ga10  1  0.74720834  0.31487067  0.16894444  1
  Ga  Ga11  1  0.24720834  0.68512933  0.33105556  1
  S  S0  1  0.23468013  0.89255582  0.24989849  1
  S  S1  1  0.73468013  0.10744418  0.25010151  1
  S  S2  1  0.76531987  0.10744418  0.75010151  1
  S  S3  1  0.26531987  0.89255582  0.74989849  1
  S  S4  1  0.27680664  0.29585303  0.07456086  1
  S  S5  1  0.77680664  0.70414697  0.42543914  1
  S  S6  1  0.72319336  0.70414697  0.92543914  1
  S  S7  1  0.22319336  0.29585303  0.57456086  1
  S  S8  1  0.31054471  0.56340176  0.70630505  1
  S  S9  1  0.81054471  0.43659824  0.79369495  1
  S  S10  1  0.68945529  0.43659824  0.29369495  1
  S  S11  1  0.18945529  0.56340176  0.20630505  1
  S  S12  1  0.33674696  0.99475858  0.98621615  1
  S  S13  1  0.83674696  0.00524142  0.51378385  1
  S  S14  1  0.44859639  0.24853833  0.82293199  1
  S  S15  1  0.66325304  0.00524142  0.01378385  1
  S  S16  1  0.40862626  0.66768490  0.95583300  1
  S  S17  1  0.90862626  0.33231510  0.54416700  1
  S  S18  1  0.59137374  0.33231510  0.04416700  1
  S  S19  1  0.09137374  0.66768490  0.45583300  1
  S  S20  1  0.40600621  0.24700872  0.32682280  1
  S  S21  1  0.90600621  0.75299128  0.17317720  1
  S  S22  1  0.59399379  0.75299128  0.67317720  1
  S  S23  1  0.09399379  0.24700872  0.82682280  1
  S  S24  1  0.01614804  0.06119045  0.10780415  1
  S  S25  1  0.51614804  0.93880955  0.39219585  1
  S  S26  1  0.98385196  0.93880955  0.89219585  1
  S  S27  1  0.48385196  0.06119045  0.60780415  1
  S  S28  1  0.07534390  0.60295968  0.91463183  1
  S  S29  1  0.57534390  0.39704032  0.58536817  1
  S  S30  1  0.92465610  0.39704032  0.08536817  1
  S  S31  1  0.42465610  0.60295968  0.41463183  1
  S  S32  1  0.05140361  0.24853833  0.32293199  1
  S  S33  1  0.55140361  0.75146167  0.17706801  1
  S  S34  1  0.94859639  0.75146167  0.67706801  1
  S  S35  1  0.16325304  0.99475858  0.48621615  1
loop_
_geom_bond_atom_site_label_1
_geom_bond_atom_site_label_2
_geom_bond_distance
_geom_bond_site_symmetry_2
La0 S35 2.937868 1_545
La0 S26 2.947222 1_445
La0 S13 2.997966 1_455
La0 S2 3.046531 1_455
La0 S23 3.083118 1_555
La0 S3 3.094012 1_545
La0 S34 3.278018 1_445
La0 S7 3.315517 1_555
La0 S17 3.340095 1_455
La1 S15 2.937868 1_566
La1 S27 2.947222 1_565
La1 S12 2.997966 1_555
La1 S3 3.046531 1_555
La1 S22 3.083118 1_555
La1 S2 3.094012 1_565
La1 S14 3.278018 1_565
La1 S6 3.315517 1_555
La1 S16 3.340095 1_555
La2 S13 2.937868 1_565
La2 S24 2.947222 1_665
La2 S35 2.997966 1_655
La2 S0 3.046531 1_655
La2 S21 3.083118 1_555
La2 S1 3.094012 1_565
La2 S32 3.278018 1_665
La2 S5 3.315517 1_555
La2 S19 3.340095 1_655
La3 S12 2.937868 1_544
La3 S25 2.947222 1_545
La3 S15 2.997966 1_555
La3 S1 3.046531 1_555
La3 S20 3.083118 1_555
La3 S0 3.094012 1_545
La3 S33 3.278018 1_545
La3 S4 3.315517 1_555
La3 S18 3.340095 1_555
La4 S8 2.885125 1_555
La4 S17 2.920497 1_455
La4 S23 2.945505 1_555
La4 S34 2.981133 1_455
La4 S9 2.991974 1_455
La4 S7 3.092062 1_555
La4 S19 3.177701 1_555
La4 S28 3.494558 1_555
La5 S9 2.885125 1_555
La5 S16 2.920497 1_555
La5 S22 2.945505 1_555
La5 S14 2.981133 1_555
La5 S8 2.991974 1_555
La5 S6 3.092062 1_555
La5 S18 3.177701 1_556
La5 S29 3.494558 1_555
La6 S10 2.885125 1_555
La6 S19 2.920497 1_655
La6 S21 2.945505 1_555
La6 S32 2.981133 1_655
La6 S11 2.991974 1_655
La6 S5 3.092062 1_555
La6 S17 3.177701 1_555
La6 S30 3.494558 1_555
La7 S11 2.885125 1_555
La7 S18 2.920497 1_555
La7 S20 2.945505 1_555
La7 S33 2.981133 1_555
La7 S10 2.991974 1_555
La7 S4 3.092062 1_555
La7 S16 3.177701 1_554
La7 S31 3.494558 1_555
La8 S12 2.836495 1_554
La8 S26 2.881996 1_454
La8 S0 2.897476 1_555
La8 S21 2.950388 1_455
La8 S11 3.011806 1_555
La8 S24 3.081413 1_565
La8 S28 3.136369 1_554
La8 S16 3.512692 1_554
La9 S13 2.836495 1_555
La9 S27 2.881996 1_555
La9 S1 2.897476 1_555
La9 S20 2.950388 1_555
La9 S10 3.011806 1_555
La9 S25 3.081413 1_545
La9 S29 3.136369 1_555
La9 S17 3.512692 1_555
La10 S15 2.836495 1_556
La10 S24 2.881996 1_656
La10 S2 2.897476 1_555
La10 S23 2.950388 1_655
La10 S9 3.011806 1_555
La10 S26 3.081413 1_545
La10 S30 3.136369 1_556
La10 S18 3.512692 1_556
La11 S35 2.836495 1_555
La11 S25 2.881996 1_555
La11 S3 2.897476 1_555
La11 S22 2.950388 1_555
La11 S8 3.011806 1_555
La11 S27 3.081413 1_565
La11 S31 3.136369 1_555
La11 S19 3.512692 1_555
Ga0 S24 2.240277 1_555
Ga0 S4 2.271880 1_555
Ga0 S32 2.290957 1_555
Ga0 S30 2.296447 1_455
Ga1 S25 2.240277 1_555
Ga1 S5 2.271880 1_555
Ga1 S33 2.290957 1_555
Ga1 S31 2.296447 1_555
Ga2 S26 2.240277 1_555
Ga2 S6 2.271880 1_555
Ga2 S34 2.290957 1_555
Ga2 S28 2.296447 1_655
Ga3 S27 2.240277 1_555
Ga3 S7 2.271880 1_555
Ga3 S14 2.290957 1_555
Ga3 S29 2.296447 1_555
Ga4 S35 2.258711 1_545
Ga4 S20 2.259575 1_555
Ga4 S32 2.309786 1_555
Ga4 S7 2.317945 1_555
Ga5 S15 2.258711 1_565
Ga5 S21 2.259575 1_555
Ga5 S33 2.309786 1_555
Ga5 S6 2.317945 1_554
Ga6 S13 2.258711 1_565
Ga6 S22 2.259575 1_555
Ga6 S34 2.309786 1_555
Ga6 S5 2.317945 1_555
Ga7 S12 2.258711 1_545
Ga7 S23 2.259575 1_555
Ga7 S14 2.309786 1_555
Ga7 S4 2.317945 1_556
Ga8 S3 2.251985 1_555
Ga8 S28 2.265567 1_555
Ga8 S8 2.274109 1_555
Ga8 S16 2.290285 1_555
Ga9 S2 2.251985 1_555
Ga9 S29 2.265567 1_555
Ga9 S9 2.274109 1_555
Ga9 S17 2.290285 1_555
Ga10 S1 2.251985 1_555
Ga10 S30 2.265567 1_555
Ga10 S10 2.274109 1_555
Ga10 S18 2.290285 1_555
Ga11 S0 2.251985 1_555
Ga11 S31 2.265567 1_555
Ga11 S11 2.274109 1_555
Ga11 S19 2.290285 1_555
