# generated using pymatgen
data_Sr3(GaO3)2
_symmetry_space_group_name_H-M   'P 1'
_cell_length_a   16.30477455
_cell_length_b   16.30477455
_cell_length_c   16.30477455
_cell_angle_alpha   90.00000000
_cell_angle_beta   90.00000000
_cell_angle_gamma   90.00000000
_symmetry_Int_Tables_number   1
_chemical_formula_structural   Sr3(GaO3)2
_chemical_formula_sum   'Sr72 Ga48 O144'
_cell_volume   4334.55376542
_cell_formula_units_Z   24
loop_
 _symmetry_equiv_pos_site_id
 _symmetry_equiv_pos_as_xyz
  1  'x, y, z'
loop_
 _atom_site_type_symbol
 _atom_site_label
 _atom_site_symmetry_multiplicity
 _atom_site_fract_x
 _atom_site_fract_y
 _atom_site_fract_z
 _atom_site_occupancy
  O  O0  1  0.27972466  0.12320523  0.00529954  1
  O  O1  1  0.00529954  0.27972466  0.12320523  1
  O  O2  1  0.12320523  0.00529954  0.27972466  1
  O  O3  1  0.37679477  0.99470046  0.77972466  1
  O  O4  1  0.50529954  0.22027534  0.87679477  1
  O  O5  1  0.87679477  0.50529954  0.22027534  1
  O  O6  1  0.49470046  0.72027534  0.62320523  1
  O  O7  1  0.99470046  0.77972466  0.37679477  1
  O  O8  1  0.62320523  0.49470046  0.72027534  1
  O  O9  1  0.77972466  0.37679477  0.99470046  1
  O  O10  1  0.72027534  0.62320523  0.49470046  1
  O  O11  1  0.22027534  0.87679477  0.50529954  1
  O  O12  1  0.72027534  0.87679477  0.99470046  1
  O  O13  1  0.99470046  0.72027534  0.87679477  1
  O  O14  1  0.87679477  0.99470046  0.72027534  1
  O  O15  1  0.62320523  0.00529954  0.22027534  1
  O  O16  1  0.49470046  0.77972466  0.12320523  1
  O  O17  1  0.12320523  0.49470046  0.77972466  1
  O  O18  1  0.50529954  0.27972466  0.37679477  1
  O  O19  1  0.00529954  0.22027534  0.62320523  1
  O  O20  1  0.37679477  0.50529954  0.27972466  1
  O  O21  1  0.22027534  0.62320523  0.00529954  1
  O  O22  1  0.27972466  0.37679477  0.50529954  1
  O  O23  1  0.77972466  0.12320523  0.49470046  1
  O  O24  1  0.48189061  0.13042122  0.25160535  1
  O  O25  1  0.25160535  0.48189061  0.13042122  1
  O  O26  1  0.13042122  0.25160535  0.48189061  1
  O  O27  1  0.36957878  0.74839465  0.98189061  1
  O  O28  1  0.75160535  0.01810939  0.86957878  1
  O  O29  1  0.86957878  0.75160535  0.01810939  1
  O  O30  1  0.24839465  0.51810939  0.63042122  1
  O  O31  1  0.74839465  0.98189061  0.36957878  1
  O  O32  1  0.63042122  0.24839465  0.51810939  1
  O  O33  1  0.98189061  0.36957878  0.74839465  1
  O  O34  1  0.51810939  0.63042122  0.24839465  1
  O  O35  1  0.01810939  0.86957878  0.75160535  1
  O  O36  1  0.51810939  0.86957878  0.74839465  1
  O  O37  1  0.74839465  0.51810939  0.86957878  1
  O  O38  1  0.86957878  0.74839465  0.51810939  1
  O  O39  1  0.63042122  0.25160535  0.01810939  1
  O  O40  1  0.24839465  0.98189061  0.13042122  1
  O  O41  1  0.13042122  0.24839465  0.98189061  1
  O  O42  1  0.75160535  0.48189061  0.36957878  1
  O  O43  1  0.25160535  0.01810939  0.63042122  1
  O  O44  1  0.36957878  0.75160535  0.48189061  1
  O  O45  1  0.01810939  0.63042122  0.25160535  1
  O  O46  1  0.48189061  0.36957878  0.75160535  1
  O  O47  1  0.98189061  0.13042122  0.24839465  1
  O  O48  1  0.26607769  0.28048467  0.10312568  1
  O  O49  1  0.10312568  0.26607769  0.28048467  1
  O  O50  1  0.28048467  0.10312568  0.26607769  1
  O  O51  1  0.21951533  0.89687432  0.76607769  1
  O  O52  1  0.60312568  0.23392231  0.71951533  1
  O  O53  1  0.71951533  0.60312568  0.23392231  1
  O  O54  1  0.39687432  0.73392231  0.78048467  1
  O  O55  1  0.89687432  0.76607769  0.21951533  1
  O  O56  1  0.78048467  0.39687432  0.73392231  1
  O  O57  1  0.76607769  0.21951533  0.89687432  1
  O  O58  1  0.73392231  0.78048467  0.39687432  1
  O  O59  1  0.23392231  0.71951533  0.60312568  1
  O  O60  1  0.73392231  0.71951533  0.89687432  1
  O  O61  1  0.89687432  0.73392231  0.71951533  1
  O  O62  1  0.71951533  0.89687432  0.73392231  1
  O  O63  1  0.78048467  0.10312568  0.23392231  1
  O  O64  1  0.39687432  0.76607769  0.28048467  1
  O  O65  1  0.28048467  0.39687432  0.76607769  1
  O  O66  1  0.60312568  0.26607769  0.21951533  1
  O  O67  1  0.10312568  0.23392231  0.78048467  1
  O  O68  1  0.21951533  0.60312568  0.26607769  1
  O  O69  1  0.23392231  0.78048467  0.10312568  1
  O  O70  1  0.26607769  0.21951533  0.60312568  1
  O  O71  1  0.76607769  0.28048467  0.39687432  1
  O  O72  1  0.23683567  0.40237485  0.28769523  1
  O  O73  1  0.28769523  0.23683567  0.40237485  1
  O  O74  1  0.40237485  0.28769523  0.23683567  1
  O  O75  1  0.09762515  0.71230477  0.73683567  1
  O  O76  1  0.78769523  0.26316433  0.59762515  1
  O  O77  1  0.59762515  0.78769523  0.26316433  1
  O  O78  1  0.21230477  0.76316433  0.90237485  1
  O  O79  1  0.71230477  0.73683567  0.09762515  1
  O  O80  1  0.90237485  0.21230477  0.76316433  1
  O  O81  1  0.73683567  0.09762515  0.71230477  1
  O  O82  1  0.76316433  0.90237485  0.21230477  1
  O  O83  1  0.26316433  0.59762515  0.78769523  1
  O  O84  1  0.76316433  0.59762515  0.71230477  1
  O  O85  1  0.71230477  0.76316433  0.59762515  1
  O  O86  1  0.59762515  0.71230477  0.76316433  1
  O  O87  1  0.90237485  0.28769523  0.26316433  1
  O  O88  1  0.21230477  0.73683567  0.40237485  1
  O  O89  1  0.40237485  0.21230477  0.73683567  1
  O  O90  1  0.78769523  0.23683567  0.09762515  1
  O  O91  1  0.28769523  0.26316433  0.90237485  1
  O  O92  1  0.09762515  0.78769523  0.23683567  1
  O  O93  1  0.26316433  0.90237485  0.28769523  1
  O  O94  1  0.23683567  0.09762515  0.78769523  1
  O  O95  1  0.73683567  0.40237485  0.21230477  1
  O  O96  1  0.34964249  0.96203810  0.98601981  1
  O  O97  1  0.98601981  0.34964249  0.96203810  1
  O  O98  1  0.96203810  0.98601981  0.34964249  1
  O  O99  1  0.53796190  0.01398019  0.84964249  1
  O  O100  1  0.48601981  0.15035751  0.03796190  1
  O  O101  1  0.03796190  0.48601981  0.15035751  1
  O  O102  1  0.51398019  0.65035751  0.46203810  1
  O  O103  1  0.01398019  0.84964249  0.53796190  1
  O  O104  1  0.46203810  0.51398019  0.65035751  1
  O  O105  1  0.84964249  0.53796190  0.01398019  1
  O  O106  1  0.65035751  0.46203810  0.51398019  1
  O  O107  1  0.15035751  0.03796190  0.48601981  1
  O  O108  1  0.65035751  0.03796190  0.01398019  1
  O  O109  1  0.01398019  0.65035751  0.03796190  1
  O  O110  1  0.03796190  0.01398019  0.65035751  1
  O  O111  1  0.46203810  0.98601981  0.15035751  1
  O  O112  1  0.51398019  0.84964249  0.96203810  1
  O  O113  1  0.96203810  0.51398019  0.84964249  1
  O  O114  1  0.48601981  0.34964249  0.53796190  1
  O  O115  1  0.98601981  0.15035751  0.46203810  1
  O  O116  1  0.53796190  0.48601981  0.34964249  1
  O  O117  1  0.15035751  0.46203810  0.98601981  1
  O  O118  1  0.34964249  0.53796190  0.48601981  1
  O  O119  1  0.84964249  0.96203810  0.51398019  1
  O  O120  1  0.15064304  0.98885291  0.97516549  1
  O  O121  1  0.97516549  0.15064304  0.98885291  1
  O  O122  1  0.98885291  0.97516549  0.15064304  1
  O  O123  1  0.51114709  0.02483451  0.65064304  1
  O  O124  1  0.47516549  0.34935696  0.01114709  1
  O  O125  1  0.01114709  0.47516549  0.34935696  1
  O  O126  1  0.52483451  0.84935696  0.48885291  1
  O  O127  1  0.02483451  0.65064304  0.51114709  1
  O  O128  1  0.48885291  0.52483451  0.84935696  1
  O  O129  1  0.65064304  0.51114709  0.02483451  1
  O  O130  1  0.84935696  0.48885291  0.52483451  1
  O  O131  1  0.34935696  0.01114709  0.47516549  1
  O  O132  1  0.84935696  0.01114709  0.02483451  1
  O  O133  1  0.02483451  0.84935696  0.01114709  1
  O  O134  1  0.01114709  0.02483451  0.84935696  1
  O  O135  1  0.48885291  0.97516549  0.34935696  1
  O  O136  1  0.52483451  0.65064304  0.98885291  1
  O  O137  1  0.98885291  0.52483451  0.65064304  1
  O  O138  1  0.47516549  0.15064304  0.51114709  1
  O  O139  1  0.97516549  0.34935696  0.48885291  1
  O  O140  1  0.51114709  0.47516549  0.15064304  1
  O  O141  1  0.34935696  0.48885291  0.97516549  1
  O  O142  1  0.15064304  0.51114709  0.47516549  1
  O  O143  1  0.65064304  0.98885291  0.52483451  1
  Ga  Ga0  1  0.25181868  0.01215040  0.01781731  1
  Ga  Ga1  1  0.01781731  0.25181868  0.01215040  1
  Ga  Ga2  1  0.01215040  0.01781731  0.25181868  1
  Ga  Ga3  1  0.48784960  0.98218269  0.75181868  1
  Ga  Ga4  1  0.51781731  0.24818132  0.98784960  1
  Ga  Ga5  1  0.98784960  0.51781731  0.24818132  1
  Ga  Ga6  1  0.48218269  0.74818132  0.51215040  1
  Ga  Ga7  1  0.98218269  0.75181868  0.48784960  1
  Ga  Ga8  1  0.51215040  0.48218269  0.74818132  1
  Ga  Ga9  1  0.75181868  0.48784960  0.98218269  1
  Ga  Ga10  1  0.74818132  0.51215040  0.48218269  1
  Ga  Ga11  1  0.24818132  0.98784960  0.51781731  1
  Ga  Ga12  1  0.74818132  0.98784960  0.98218269  1
  Ga  Ga13  1  0.98218269  0.74818132  0.98784960  1
  Ga  Ga14  1  0.98784960  0.98218269  0.74818132  1
  Ga  Ga15  1  0.51215040  0.01781731  0.24818132  1
  Ga  Ga16  1  0.48218269  0.75181868  0.01215040  1
  Ga  Ga17  1  0.01215040  0.48218269  0.75181868  1
  Ga  Ga18  1  0.51781731  0.25181868  0.48784960  1
  Ga  Ga19  1  0.01781731  0.24818132  0.51215040  1
  Ga  Ga20  1  0.48784960  0.51781731  0.25181868  1
  Ga  Ga21  1  0.24818132  0.51215040  0.01781731  1
  Ga  Ga22  1  0.25181868  0.48784960  0.51781731  1
  Ga  Ga23  1  0.75181868  0.01215040  0.48218269  1
  Ga  Ga24  1  0.24363499  0.23352228  0.00328848  1
  Ga  Ga25  1  0.00328848  0.24363499  0.23352228  1
  Ga  Ga26  1  0.23352228  0.00328848  0.24363499  1
  Ga  Ga27  1  0.26647772  0.99671152  0.74363499  1
  Ga  Ga28  1  0.50328848  0.25636501  0.76647772  1
  Ga  Ga29  1  0.76647772  0.50328848  0.25636501  1
  Ga  Ga30  1  0.49671152  0.75636501  0.73352228  1
  Ga  Ga31  1  0.99671152  0.74363499  0.26647772  1
  Ga  Ga32  1  0.73352228  0.49671152  0.75636501  1
  Ga  Ga33  1  0.74363499  0.26647772  0.99671152  1
  Ga  Ga34  1  0.75636501  0.73352228  0.49671152  1
  Ga  Ga35  1  0.25636501  0.76647772  0.50328848  1
  Ga  Ga36  1  0.75636501  0.76647772  0.99671152  1
  Ga  Ga37  1  0.99671152  0.75636501  0.76647772  1
  Ga  Ga38  1  0.76647772  0.99671152  0.75636501  1
  Ga  Ga39  1  0.73352228  0.00328848  0.25636501  1
  Ga  Ga40  1  0.49671152  0.74363499  0.23352228  1
  Ga  Ga41  1  0.23352228  0.49671152  0.74363499  1
  Ga  Ga42  1  0.50328848  0.24363499  0.26647772  1
  Ga  Ga43  1  0.00328848  0.25636501  0.73352228  1
  Ga  Ga44  1  0.26647772  0.50328848  0.24363499  1
  Ga  Ga45  1  0.25636501  0.73352228  0.00328848  1
  Ga  Ga46  1  0.24363499  0.26647772  0.50328848  1
  Ga  Ga47  1  0.74363499  0.23352228  0.49671152  1
  Sr  Sr0  1  0.00000000  0.00000000  0.00000000  1
  Sr  Sr1  1  0.50000000  0.00000000  0.50000000  1
  Sr  Sr2  1  0.50000000  0.50000000  0.00000000  1
  Sr  Sr3  1  0.00000000  0.50000000  0.50000000  1
  Sr  Sr4  1  0.50000000  0.00000000  0.00000000  1
  Sr  Sr5  1  0.00000000  0.50000000  0.00000000  1
  Sr  Sr6  1  0.00000000  0.00000000  0.50000000  1
  Sr  Sr7  1  0.50000000  0.50000000  0.50000000  1
  Sr  Sr8  1  0.25207826  0.25207826  0.25207826  1
  Sr  Sr9  1  0.24792174  0.74792174  0.75207826  1
  Sr  Sr10  1  0.75207826  0.24792174  0.74792174  1
  Sr  Sr11  1  0.74792174  0.75207826  0.24792174  1
  Sr  Sr12  1  0.74792174  0.74792174  0.74792174  1
  Sr  Sr13  1  0.75207826  0.25207826  0.24792174  1
  Sr  Sr14  1  0.24792174  0.75207826  0.25207826  1
  Sr  Sr15  1  0.25207826  0.24792174  0.75207826  1
  Sr  Sr16  1  0.37323512  0.37323512  0.37323512  1
  Sr  Sr17  1  0.12676488  0.62676488  0.87323512  1
  Sr  Sr18  1  0.87323512  0.12676488  0.62676488  1
  Sr  Sr19  1  0.62676488  0.87323512  0.12676488  1
  Sr  Sr20  1  0.62676488  0.62676488  0.62676488  1
  Sr  Sr21  1  0.87323512  0.37323512  0.12676488  1
  Sr  Sr22  1  0.12676488  0.87323512  0.37323512  1
  Sr  Sr23  1  0.37323512  0.12676488  0.87323512  1
  Sr  Sr24  1  0.13662568  0.37516385  0.12159699  1
  Sr  Sr25  1  0.12159699  0.13662568  0.37516385  1
  Sr  Sr26  1  0.37516385  0.12159699  0.13662568  1
  Sr  Sr27  1  0.12483615  0.87840301  0.63662568  1
  Sr  Sr28  1  0.62159699  0.36337432  0.62483615  1
  Sr  Sr29  1  0.62483615  0.62159699  0.36337432  1
  Sr  Sr30  1  0.37840301  0.86337432  0.87516385  1
  Sr  Sr31  1  0.87840301  0.63662568  0.12483615  1
  Sr  Sr32  1  0.87516385  0.37840301  0.86337432  1
  Sr  Sr33  1  0.63662568  0.12483615  0.87840301  1
  Sr  Sr34  1  0.86337432  0.87516385  0.37840301  1
  Sr  Sr35  1  0.36337432  0.62483615  0.62159699  1
  Sr  Sr36  1  0.86337432  0.62483615  0.87840301  1
  Sr  Sr37  1  0.87840301  0.86337432  0.62483615  1
  Sr  Sr38  1  0.62483615  0.87840301  0.86337432  1
  Sr  Sr39  1  0.87516385  0.12159699  0.36337432  1
  Sr  Sr40  1  0.37840301  0.63662568  0.37516385  1
  Sr  Sr41  1  0.37516385  0.37840301  0.63662568  1
  Sr  Sr42  1  0.62159699  0.13662568  0.12483615  1
  Sr  Sr43  1  0.12159699  0.36337432  0.87516385  1
  Sr  Sr44  1  0.12483615  0.62159699  0.13662568  1
  Sr  Sr45  1  0.36337432  0.87516385  0.12159699  1
  Sr  Sr46  1  0.13662568  0.12483615  0.62159699  1
  Sr  Sr47  1  0.63662568  0.37516385  0.37840301  1
  Sr  Sr48  1  0.37883888  0.38274677  0.12392414  1
  Sr  Sr49  1  0.12392414  0.37883888  0.38274677  1
  Sr  Sr50  1  0.38274677  0.12392414  0.37883888  1
  Sr  Sr51  1  0.11725323  0.87607586  0.87883888  1
  Sr  Sr52  1  0.62392414  0.12116112  0.61725323  1
  Sr  Sr53  1  0.61725323  0.62392414  0.12116112  1
  Sr  Sr54  1  0.37607586  0.62116112  0.88274677  1
  Sr  Sr55  1  0.87607586  0.87883888  0.11725323  1
  Sr  Sr56  1  0.88274677  0.37607586  0.62116112  1
  Sr  Sr57  1  0.87883888  0.11725323  0.87607586  1
  Sr  Sr58  1  0.62116112  0.88274677  0.37607586  1
  Sr  Sr59  1  0.12116112  0.61725323  0.62392414  1
  Sr  Sr60  1  0.62116112  0.61725323  0.87607586  1
  Sr  Sr61  1  0.87607586  0.62116112  0.61725323  1
  Sr  Sr62  1  0.61725323  0.87607586  0.62116112  1
  Sr  Sr63  1  0.88274677  0.12392414  0.12116112  1
  Sr  Sr64  1  0.37607586  0.87883888  0.38274677  1
  Sr  Sr65  1  0.38274677  0.37607586  0.87883888  1
  Sr  Sr66  1  0.62392414  0.37883888  0.11725323  1
  Sr  Sr67  1  0.12392414  0.12116112  0.88274677  1
  Sr  Sr68  1  0.11725323  0.62392414  0.37883888  1
  Sr  Sr69  1  0.12116112  0.88274677  0.12392414  1
  Sr  Sr70  1  0.37883888  0.11725323  0.62392414  1
  Sr  Sr71  1  0.87883888  0.38274677  0.37607586  1
loop_
_geom_bond_atom_site_label_1
_geom_bond_atom_site_label_2
_geom_bond_distance
_geom_bond_site_symmetry_2
O0 Sr23 2.639052 1_554
O0 Sr26 2.647093 1_555
O1 Sr21 2.639052 1_455
O1 Sr24 2.647093 1_555
O2 Sr22 2.639052 1_545
O2 Sr25 2.647093 1_555
O3 Sr23 2.639052 1_565
O3 Sr30 2.647093 1_555
O4 Sr23 2.639052 1_555
O4 Sr33 2.647093 1_555
O5 Sr21 2.639052 1_555
O5 Sr31 2.647093 1_555
O6 Sr20 2.639052 1_555
O6 Sr35 2.647093 1_555
O7 Sr22 2.639052 1_655
O7 Sr34 2.647093 1_555
O8 Sr20 2.639052 1_555
O8 Sr28 2.647093 1_555
O9 Sr21 2.639052 1_556
O9 Sr32 2.647093 1_555
O10 Sr20 2.639052 1_555
O10 Sr29 2.647093 1_555
O11 Sr22 2.639052 1_555
O11 Sr27 2.647093 1_555
O12 Sr19 2.639052 1_556
O12 Sr38 2.647093 1_555
O13 Sr17 2.639052 1_655
O13 Sr36 2.647093 1_555
O14 Sr18 2.639052 1_565
O14 Sr37 2.647093 1_555
O15 Sr19 2.639052 1_545
O15 Sr42 2.647093 1_555
O16 Sr19 2.639052 1_555
O16 Sr45 2.647093 1_555
O17 Sr17 2.639052 1_555
O17 Sr43 2.647093 1_555
O18 Sr16 2.639052 1_555
O18 Sr47 2.647093 1_555
O19 Sr18 2.639052 1_455
O19 Sr46 2.647093 1_555
O20 Sr16 2.639052 1_555
O20 Sr40 2.647093 1_555
O21 Sr17 2.639052 1_554
O21 Sr44 2.647093 1_555
O22 Sr16 2.639052 1_555
O22 Sr41 2.647093 1_555
O23 Sr18 2.639052 1_555
O23 Sr39 2.647093 1_555
O24 Sr26 2.561915 1_555
O24 Sr50 2.632102 1_555
O24 Sr42 3.077536 1_555
O25 Sr24 2.561915 1_555
O25 Sr48 2.632102 1_555
O25 Sr44 3.077536 1_555
O26 Sr25 2.561915 1_555
O26 Sr49 2.632102 1_555
O26 Sr46 3.077536 1_555
O27 Sr30 2.561915 1_555
O27 Sr54 2.632102 1_555
O27 Sr45 3.077536 1_556
O28 Sr33 2.561915 1_555
O28 Sr57 2.632102 1_555
O28 Sr38 3.077536 1_545
O29 Sr31 2.561915 1_555
O29 Sr55 2.632102 1_555
O29 Sr36 3.077536 1_554
O30 Sr35 2.561915 1_555
O30 Sr59 2.632102 1_555
O30 Sr41 3.077536 1_555
O31 Sr34 2.561915 1_555
O31 Sr58 2.632102 1_555
O31 Sr39 3.077536 1_565
O32 Sr28 2.561915 1_555
O32 Sr52 2.632102 1_555
O32 Sr47 3.077536 1_555
O33 Sr32 2.561915 1_555
O33 Sr56 2.632102 1_555
O33 Sr43 3.077536 1_655
O34 Sr29 2.561915 1_555
O34 Sr53 2.632102 1_555
O34 Sr40 3.077536 1_555
O35 Sr27 2.561915 1_555
O35 Sr51 2.632102 1_555
O35 Sr37 3.077536 1_455
O36 Sr38 2.561915 1_555
O36 Sr62 2.632102 1_555
O36 Sr30 3.077536 1_555
O37 Sr36 2.561915 1_555
O37 Sr60 2.632102 1_555
O37 Sr32 3.077536 1_555
O38 Sr37 2.561915 1_555
O38 Sr61 2.632102 1_555
O38 Sr34 3.077536 1_555
O39 Sr42 2.561915 1_555
O39 Sr66 2.632102 1_555
O39 Sr33 3.077536 1_554
O40 Sr45 2.561915 1_555
O40 Sr69 2.632102 1_555
O40 Sr26 3.077536 1_565
O41 Sr43 2.561915 1_555
O41 Sr67 2.632102 1_555
O41 Sr24 3.077536 1_556
O42 Sr47 2.561915 1_555
O42 Sr71 2.632102 1_555
O42 Sr29 3.077536 1_555
O43 Sr46 2.561915 1_555
O43 Sr70 2.632102 1_555
O43 Sr27 3.077536 1_545
O44 Sr40 2.561915 1_555
O44 Sr64 2.632102 1_555
O44 Sr35 3.077536 1_555
O45 Sr44 2.561915 1_555
O45 Sr68 2.632102 1_555
O45 Sr31 3.077536 1_455
O46 Sr41 2.561915 1_555
O46 Sr65 2.632102 1_555
O46 Sr28 3.077536 1_555
O47 Sr39 2.561915 1_555
O47 Sr63 2.632102 1_555
O47 Sr25 3.077536 1_655
O48 Sr8 2.482922 1_555
O48 Sr48 2.505063 1_555
O48 Sr24 2.632257 1_555
O49 Sr8 2.482922 1_555
O49 Sr49 2.505063 1_555
O49 Sr25 2.632257 1_555
O50 Sr8 2.482922 1_555
O50 Sr50 2.505063 1_555
O50 Sr26 2.632257 1_555
O51 Sr9 2.482922 1_555
O51 Sr51 2.505063 1_555
O51 Sr27 2.632257 1_555
O52 Sr10 2.482922 1_555
O52 Sr52 2.505063 1_555
O52 Sr28 2.632257 1_555
O53 Sr11 2.482922 1_555
O53 Sr53 2.505063 1_555
O53 Sr29 2.632257 1_555
O54 Sr9 2.482922 1_555
O54 Sr54 2.505063 1_555
O54 Sr30 2.632257 1_555
O55 Sr11 2.482922 1_555
O55 Sr55 2.505063 1_555
O55 Sr31 2.632257 1_555
O56 Sr10 2.482922 1_555
O56 Sr56 2.505063 1_555
O56 Sr32 2.632257 1_555
O57 Sr10 2.482922 1_555
O57 Sr57 2.505063 1_555
O57 Sr33 2.632257 1_555
O58 Sr11 2.482922 1_555
O58 Sr58 2.505063 1_555
O58 Sr34 2.632257 1_555
O59 Sr9 2.482922 1_555
O59 Sr59 2.505063 1_555
O59 Sr35 2.632257 1_555
O60 Sr12 2.482922 1_555
O60 Sr60 2.505063 1_555
O60 Sr36 2.632257 1_555
O61 Sr12 2.482922 1_555
O61 Sr61 2.505063 1_555
O61 Sr37 2.632257 1_555
O62 Sr12 2.482922 1_555
O62 Sr62 2.505063 1_555
O62 Sr38 2.632257 1_555
O63 Sr13 2.482922 1_555
O63 Sr63 2.505063 1_555
O63 Sr39 2.632257 1_555
O64 Sr14 2.482922 1_555
O64 Sr64 2.505063 1_555
O64 Sr40 2.632257 1_555
O65 Sr15 2.482922 1_555
O65 Sr65 2.505063 1_555
O65 Sr41 2.632257 1_555
O66 Sr13 2.482922 1_555
O66 Sr66 2.505063 1_555
O66 Sr42 2.632257 1_555
O67 Sr15 2.482922 1_555
O67 Sr67 2.505063 1_555
O67 Sr43 2.632257 1_555
O68 Sr14 2.482922 1_555
O68 Sr68 2.505063 1_555
O68 Sr44 2.632257 1_555
O69 Sr14 2.482922 1_555
O69 Sr69 2.505063 1_555
O69 Sr45 2.632257 1_555
O70 Sr15 2.482922 1_555
O70 Sr70 2.505063 1_555
O70 Sr46 2.632257 1_555
O71 Sr13 2.482922 1_555
O71 Sr71 2.505063 1_555
O71 Sr47 2.632257 1_555
O72 Sr49 2.436882 1_555
O72 Sr8 2.530655 1_555
O72 Sr16 2.667762 1_555
O73 Sr50 2.436882 1_555
O73 Sr8 2.530655 1_555
O73 Sr16 2.667762 1_555
O74 Sr48 2.436882 1_555
O74 Sr8 2.530655 1_555
O74 Sr16 2.667762 1_555
O75 Sr59 2.436882 1_555
O75 Sr9 2.530655 1_555
O75 Sr17 2.667762 1_555
O76 Sr56 2.436882 1_555
O76 Sr10 2.530655 1_555
O76 Sr18 2.667762 1_555
O77 Sr58 2.436882 1_555
O77 Sr11 2.530655 1_555
O77 Sr19 2.667762 1_555
O78 Sr51 2.436882 1_555
O78 Sr9 2.530655 1_555
O78 Sr17 2.667762 1_555
O79 Sr53 2.436882 1_555
O79 Sr11 2.530655 1_555
O79 Sr19 2.667762 1_555
O80 Sr57 2.436882 1_555
O80 Sr10 2.530655 1_555
O80 Sr18 2.667762 1_555
O81 Sr52 2.436882 1_555
O81 Sr10 2.530655 1_555
O81 Sr18 2.667762 1_555
O82 Sr55 2.436882 1_555
O82 Sr11 2.530655 1_555
O82 Sr19 2.667762 1_555
O83 Sr54 2.436882 1_555
O83 Sr9 2.530655 1_555
O83 Sr17 2.667762 1_555
O84 Sr61 2.436882 1_555
O84 Sr12 2.530655 1_555
O84 Sr20 2.667762 1_555
O85 Sr62 2.436882 1_555
O85 Sr12 2.530655 1_555
O85 Sr20 2.667762 1_555
O86 Sr60 2.436882 1_555
O86 Sr12 2.530655 1_555
O86 Sr20 2.667762 1_555
O87 Sr71 2.436882 1_555
O87 Sr13 2.530655 1_555
O87 Sr21 2.667762 1_555
O88 Sr68 2.436882 1_555
O88 Sr14 2.530655 1_555
O88 Sr22 2.667762 1_555
O89 Sr70 2.436882 1_555
O89 Sr15 2.530655 1_555
O89 Sr23 2.667762 1_555
O90 Sr63 2.436882 1_555
O90 Sr13 2.530655 1_555
O90 Sr21 2.667762 1_555
O91 Sr65 2.436882 1_555
O91 Sr15 2.530655 1_555
O91 Sr23 2.667762 1_555
O92 Sr69 2.436882 1_555
O92 Sr14 2.530655 1_555
O92 Sr22 2.667762 1_555
O93 Sr64 2.436882 1_555
O93 Sr14 2.530655 1_555
O93 Sr22 2.667762 1_555
O94 Sr67 2.436882 1_555
O94 Sr15 2.530655 1_555
O94 Sr23 2.667762 1_555
O95 Sr66 2.436882 1_555
O95 Sr13 2.530655 1_555
O95 Sr21 2.667762 1_555
O96 Sr30 2.464706 1_555
O96 Sr4 2.538729 1_566
O96 Sr45 2.634968 1_556
O97 Sr32 2.464706 1_555
O97 Sr5 2.538729 1_656
O97 Sr43 2.634968 1_655
O98 Sr34 2.464706 1_555
O98 Sr6 2.538729 1_665
O98 Sr39 2.634968 1_565
O99 Sr33 2.464706 1_555
O99 Sr4 2.538729 1_556
O99 Sr38 2.634968 1_545
O100 Sr26 2.464706 1_555
O100 Sr4 2.538729 1_555
O100 Sr42 2.634968 1_555
O101 Sr24 2.464706 1_555
O101 Sr5 2.538729 1_555
O101 Sr44 2.634968 1_555
O102 Sr29 2.464706 1_555
O102 Sr7 2.538729 1_555
O102 Sr40 2.634968 1_555
O103 Sr27 2.464706 1_555
O103 Sr6 2.538729 1_565
O103 Sr37 2.634968 1_455
O104 Sr35 2.464706 1_555
O104 Sr7 2.538729 1_555
O104 Sr41 2.634968 1_555
O105 Sr31 2.464706 1_555
O105 Sr5 2.538729 1_655
O105 Sr36 2.634968 1_554
O106 Sr28 2.464706 1_555
O106 Sr7 2.538729 1_555
O106 Sr47 2.634968 1_555
O107 Sr25 2.464706 1_555
O107 Sr6 2.538729 1_555
O107 Sr46 2.634968 1_555
O108 Sr42 2.464706 1_555
O108 Sr4 2.538729 1_555
O108 Sr33 2.634968 1_554
O109 Sr44 2.464706 1_555
O109 Sr5 2.538729 1_555
O109 Sr31 2.634968 1_455
O110 Sr46 2.464706 1_555
O110 Sr6 2.538729 1_555
O110 Sr27 2.634968 1_545
O111 Sr45 2.464706 1_555
O111 Sr4 2.538729 1_565
O111 Sr26 2.634968 1_565
O112 Sr38 2.464706 1_555
O112 Sr4 2.538729 1_566
O112 Sr30 2.634968 1_555
O113 Sr36 2.464706 1_555
O113 Sr5 2.538729 1_656
O113 Sr32 2.634968 1_555
O114 Sr41 2.464706 1_555
O114 Sr7 2.538729 1_555
O114 Sr28 2.634968 1_555
O115 Sr39 2.464706 1_555
O115 Sr6 2.538729 1_655
O115 Sr25 2.634968 1_655
O116 Sr47 2.464706 1_555
O116 Sr7 2.538729 1_555
O116 Sr29 2.634968 1_555
O117 Sr43 2.464706 1_555
O117 Sr5 2.538729 1_556
O117 Sr24 2.634968 1_556
O118 Sr40 2.464706 1_555
O118 Sr7 2.538729 1_555
O118 Sr35 2.634968 1_555
O119 Sr37 2.464706 1_555
O119 Sr6 2.538729 1_665
O119 Sr34 2.634968 1_555
O120 Sr51 2.478774 1_555
O120 Sr0 2.495980 1_566
O120 Sr67 2.667243 1_565
O120 Sr69 3.017786 1_556
O121 Sr57 2.478774 1_555
O121 Sr0 2.495980 1_656
O121 Sr63 2.667243 1_556
O121 Sr67 3.017786 1_655
O122 Sr55 2.478774 1_555
O122 Sr0 2.495980 1_665
O122 Sr69 2.667243 1_655
O122 Sr63 3.017786 1_565
O123 Sr52 2.478774 1_555
O123 Sr1 2.495980 1_555
O123 Sr70 2.667243 1_555
O123 Sr62 3.017786 1_545
O124 Sr48 2.478774 1_555
O124 Sr2 2.495980 1_555
O124 Sr65 2.667243 1_554
O124 Sr66 3.017786 1_555
O125 Sr49 2.478774 1_555
O125 Sr3 2.495980 1_555
O125 Sr71 2.667243 1_455
O125 Sr68 3.017786 1_555
O126 Sr58 2.478774 1_555
O126 Sr1 2.495980 1_565
O126 Sr62 2.667243 1_555
O126 Sr64 3.017786 1_555
O127 Sr59 2.478774 1_555
O127 Sr3 2.495980 1_555
O127 Sr68 2.667243 1_555
O127 Sr61 3.017786 1_455
O128 Sr54 2.478774 1_555
O128 Sr2 2.495980 1_556
O128 Sr60 2.667243 1_555
O128 Sr65 3.017786 1_555
O129 Sr53 2.478774 1_555
O129 Sr2 2.495980 1_555
O129 Sr66 2.667243 1_555
O129 Sr60 3.017786 1_554
O130 Sr56 2.478774 1_555
O130 Sr3 2.495980 1_655
O130 Sr61 2.667243 1_555
O130 Sr71 3.017786 1_555
O131 Sr50 2.478774 1_555
O131 Sr1 2.495980 1_555
O131 Sr64 2.667243 1_545
O131 Sr70 3.017786 1_555
O132 Sr63 2.478774 1_555
O132 Sr0 2.495980 1_655
O132 Sr55 2.667243 1_545
O132 Sr57 3.017786 1_554
O133 Sr69 2.478774 1_555
O133 Sr0 2.495980 1_565
O133 Sr51 2.667243 1_554
O133 Sr55 3.017786 1_455
O134 Sr67 2.478774 1_555
O134 Sr0 2.495980 1_556
O134 Sr57 2.667243 1_455
O134 Sr51 3.017786 1_545
O135 Sr64 2.478774 1_555
O135 Sr1 2.495980 1_565
O135 Sr58 2.667243 1_555
O135 Sr50 3.017786 1_565
O136 Sr60 2.478774 1_555
O136 Sr2 2.495980 1_556
O136 Sr53 2.667243 1_556
O136 Sr54 3.017786 1_555
O137 Sr61 2.478774 1_555
O137 Sr3 2.495980 1_655
O137 Sr59 2.667243 1_655
O137 Sr56 3.017786 1_555
O138 Sr70 2.478774 1_555
O138 Sr1 2.495980 1_555
O138 Sr50 2.667243 1_555
O138 Sr52 3.017786 1_555
O139 Sr71 2.478774 1_555
O139 Sr3 2.495980 1_655
O139 Sr56 2.667243 1_555
O139 Sr49 3.017786 1_655
O140 Sr66 2.478774 1_555
O140 Sr2 2.495980 1_555
O140 Sr48 2.667243 1_555
O140 Sr53 3.017786 1_555
O141 Sr65 2.478774 1_555
O141 Sr2 2.495980 1_556
O141 Sr54 2.667243 1_555
O141 Sr48 3.017786 1_556
O142 Sr68 2.478774 1_555
O142 Sr3 2.495980 1_555
O142 Sr49 2.667243 1_555
O142 Sr59 3.017786 1_555
O143 Sr62 2.478774 1_555
O143 Sr1 2.495980 1_565
O143 Sr52 2.667243 1_565
O143 Sr58 3.017786 1_555
Ga0 O120 1.830095 1_544
Ga0 O96 1.865584 1_544
Ga0 O0 1.878138 1_555
Ga0 O40 1.901938 1_545
Ga1 O121 1.830095 1_454
Ga1 O97 1.865584 1_454
Ga1 O1 1.878138 1_555
Ga1 O41 1.901938 1_554
Ga2 O122 1.830095 1_445
Ga2 O98 1.865584 1_445
Ga2 O2 1.878138 1_555
Ga2 O47 1.901938 1_455
Ga3 O123 1.830095 1_565
Ga3 O99 1.865584 1_565
Ga3 O3 1.878138 1_555
Ga3 O36 1.901938 1_555
Ga4 O124 1.830095 1_556
Ga4 O100 1.865584 1_556
Ga4 O4 1.878138 1_555
Ga4 O39 1.901938 1_556
Ga5 O125 1.830095 1_655
Ga5 O101 1.865584 1_655
Ga5 O5 1.878138 1_555
Ga5 O45 1.901938 1_655
Ga6 O126 1.830095 1_555
Ga6 O102 1.865584 1_555
Ga6 O6 1.878138 1_555
Ga6 O44 1.901938 1_555
Ga7 O127 1.830095 1_655
Ga7 O103 1.865584 1_655
Ga7 O7 1.878138 1_555
Ga7 O38 1.901938 1_555
Ga8 O128 1.830095 1_555
Ga8 O104 1.865584 1_555
Ga8 O8 1.878138 1_555
Ga8 O46 1.901938 1_555
Ga9 O129 1.830095 1_556
Ga9 O105 1.865584 1_556
Ga9 O9 1.878138 1_555
Ga9 O37 1.901938 1_555
Ga10 O130 1.830095 1_555
Ga10 O106 1.865584 1_555
Ga10 O10 1.878138 1_555
Ga10 O42 1.901938 1_555
Ga11 O131 1.830095 1_565
Ga11 O107 1.865584 1_565
Ga11 O11 1.878138 1_555
Ga11 O43 1.901938 1_565
Ga12 O132 1.830095 1_566
Ga12 O108 1.865584 1_566
Ga12 O12 1.878138 1_555
Ga12 O28 1.901938 1_565
Ga13 O133 1.830095 1_656
Ga13 O109 1.865584 1_656
Ga13 O13 1.878138 1_555
Ga13 O29 1.901938 1_556
Ga14 O134 1.830095 1_665
Ga14 O110 1.865584 1_665
Ga14 O14 1.878138 1_555
Ga14 O35 1.901938 1_655
Ga15 O135 1.830095 1_545
Ga15 O111 1.865584 1_545
Ga15 O15 1.878138 1_555
Ga15 O24 1.901938 1_555
Ga16 O136 1.830095 1_554
Ga16 O112 1.865584 1_554
Ga16 O16 1.878138 1_555
Ga16 O27 1.901938 1_554
Ga17 O137 1.830095 1_455
Ga17 O113 1.865584 1_455
Ga17 O17 1.878138 1_555
Ga17 O33 1.901938 1_455
Ga18 O138 1.830095 1_555
Ga18 O114 1.865584 1_555
Ga18 O18 1.878138 1_555
Ga18 O32 1.901938 1_555
Ga19 O139 1.830095 1_455
Ga19 O115 1.865584 1_455
Ga19 O19 1.878138 1_555
Ga19 O26 1.901938 1_555
Ga20 O140 1.830095 1_555
Ga20 O116 1.865584 1_555
Ga20 O20 1.878138 1_555
Ga20 O34 1.901938 1_555
Ga21 O141 1.830095 1_554
Ga21 O117 1.865584 1_554
Ga21 O21 1.878138 1_555
Ga21 O25 1.901938 1_555
Ga22 O142 1.830095 1_555
Ga22 O118 1.865584 1_555
Ga22 O22 1.878138 1_555
Ga22 O30 1.901938 1_555
Ga23 O143 1.830095 1_545
Ga23 O119 1.865584 1_545
Ga23 O23 1.878138 1_555
Ga23 O31 1.901938 1_545
Ga24 O48 1.835762 1_555
Ga24 O91 1.859282 1_554
Ga24 O0 1.892784 1_555
Ga24 O41 1.894192 1_554
Ga25 O49 1.835762 1_555
Ga25 O87 1.859282 1_455
Ga25 O1 1.892784 1_555
Ga25 O47 1.894192 1_455
Ga26 O50 1.835762 1_555
Ga26 O93 1.859282 1_545
Ga26 O2 1.892784 1_555
Ga26 O40 1.894192 1_545
Ga27 O51 1.835762 1_555
Ga27 O94 1.859282 1_565
Ga27 O3 1.892784 1_555
Ga27 O43 1.894192 1_565
Ga28 O52 1.835762 1_555
Ga28 O89 1.859282 1_555
Ga28 O4 1.892784 1_555
Ga28 O46 1.894192 1_555
Ga29 O53 1.835762 1_555
Ga29 O95 1.859282 1_555
Ga29 O5 1.892784 1_555
Ga29 O42 1.894192 1_555
Ga30 O54 1.835762 1_555
Ga30 O86 1.859282 1_555
Ga30 O6 1.892784 1_555
Ga30 O36 1.894192 1_555
Ga31 O55 1.835762 1_555
Ga31 O92 1.859282 1_655
Ga31 O7 1.892784 1_555
Ga31 O45 1.894192 1_655
Ga32 O56 1.835762 1_555
Ga32 O84 1.859282 1_555
Ga32 O8 1.892784 1_555
Ga32 O37 1.894192 1_555
Ga33 O57 1.835762 1_555
Ga33 O90 1.859282 1_556
Ga33 O9 1.892784 1_555
Ga33 O39 1.894192 1_556
Ga34 O58 1.835762 1_555
Ga34 O85 1.859282 1_555
Ga34 O10 1.892784 1_555
Ga34 O38 1.894192 1_555
Ga35 O59 1.835762 1_555
Ga35 O88 1.859282 1_555
Ga35 O11 1.892784 1_555
Ga35 O44 1.894192 1_555
Ga36 O60 1.835762 1_555
Ga36 O79 1.859282 1_556
Ga36 O12 1.892784 1_555
Ga36 O29 1.894192 1_556
Ga37 O61 1.835762 1_555
Ga37 O75 1.859282 1_655
Ga37 O13 1.892784 1_555
Ga37 O35 1.894192 1_655
Ga38 O62 1.835762 1_555
Ga38 O81 1.859282 1_565
Ga38 O14 1.892784 1_555
Ga38 O28 1.894192 1_565
Ga39 O63 1.835762 1_555
Ga39 O82 1.859282 1_545
Ga39 O15 1.892784 1_555
Ga39 O31 1.894192 1_545
Ga40 O64 1.835762 1_555
Ga40 O77 1.859282 1_555
Ga40 O16 1.892784 1_555
Ga40 O34 1.894192 1_555
Ga41 O65 1.835762 1_555
Ga41 O83 1.859282 1_555
Ga41 O17 1.892784 1_555
Ga41 O30 1.894192 1_555
Ga42 O66 1.835762 1_555
Ga42 O74 1.859282 1_555
Ga42 O18 1.892784 1_555
Ga42 O24 1.894192 1_555
Ga43 O67 1.835762 1_555
Ga43 O80 1.859282 1_455
Ga43 O19 1.892784 1_555
Ga43 O33 1.894192 1_455
Ga44 O68 1.835762 1_555
Ga44 O72 1.859282 1_555
Ga44 O20 1.892784 1_555
Ga44 O25 1.894192 1_555
Ga45 O69 1.835762 1_555
Ga45 O78 1.859282 1_554
Ga45 O21 1.892784 1_555
Ga45 O27 1.894192 1_554
Ga46 O70 1.835762 1_555
Ga46 O73 1.859282 1_555
Ga46 O22 1.892784 1_555
Ga46 O26 1.894192 1_555
Ga47 O71 1.835762 1_555
Ga47 O76 1.859282 1_555
Ga47 O23 1.892784 1_555
Ga47 O32 1.894192 1_555
