# generated using pymatgen
data_Li(PrGe3)2
_symmetry_space_group_name_H-M   'P 1'
_cell_length_a   11.01981538
_cell_length_b   11.01981538
_cell_length_c   4.29788100
_cell_angle_alpha   90.00000000
_cell_angle_beta   90.00000000
_cell_angle_gamma   158.30209611
_symmetry_Int_Tables_number   1
_chemical_formula_structural   Li(PrGe3)2
_chemical_formula_sum   'Li1 Pr2 Ge6'
_cell_volume   192.96007981
_cell_formula_units_Z   1
loop_
 _symmetry_equiv_pos_site_id
 _symmetry_equiv_pos_as_xyz
  1  'x, y, z'
loop_
 _atom_site_type_symbol
 _atom_site_label
 _atom_site_symmetry_multiplicity
 _atom_site_fract_x
 _atom_site_fract_y
 _atom_site_fract_z
 _atom_site_occupancy
  Li  Li0  1  0.00000000  0.00000000  0.00000000  1
  Pr  Pr0  1  0.16635600  0.83364400  0.00000000  1
  Pr  Pr1  1  0.83364400  0.16635600  0.00000000  1
  Ge  Ge0  1  0.71281500  0.28718500  0.50000000  1
  Ge  Ge1  1  0.28718500  0.71281500  0.50000000  1
  Ge  Ge2  1  0.56118400  0.43881600  0.00000000  1
  Ge  Ge3  1  0.06129600  0.93870400  0.50000000  1
  Ge  Ge4  1  0.93870400  0.06129600  0.50000000  1
  Ge  Ge5  1  0.43881600  0.56118400  0.00000000  1
loop_
_geom_bond_atom_site_label_1
_geom_bond_atom_site_label_2
_geom_bond_distance
_geom_bond_site_symmetry_2
Ge0 Ge1 2.625557 1_545
Ge0 Ge1 2.625557 1_655
Ge0 Pr0 3.151408 1_656
Ge0 Pr0 3.151408 1_545
Ge0 Pr0 3.151408 1_546
Ge0 Pr0 3.151408 1_655
Ge0 Pr1 3.385029 1_556
Ge0 Pr1 3.385029 1_555
Ge1 Pr1 3.151408 1_565
Ge1 Pr1 3.151408 1_455
Ge1 Pr1 3.151408 1_566
Ge1 Pr1 3.151408 1_456
Ge1 Pr0 3.385029 1_556
Ge1 Pr0 3.385029 1_555
Ge2 Li0 2.460910 1_665
Ge2 Li0 2.460910 1_555
Ge2 Pr0 3.079720 1_655
Ge2 Pr0 3.079720 1_545
Ge3 Li0 2.525536 1_566
Ge3 Li0 2.525536 1_565
Ge3 Pr0 3.128813 1_555
Ge3 Pr0 3.128813 1_556
Ge4 Li0 2.525536 1_656
Ge4 Li0 2.525536 1_655
Ge4 Pr1 3.128813 1_556
Ge4 Pr1 3.128813 1_555
Ge5 Li0 2.460910 1_665
Ge5 Li0 2.460910 1_555
Ge5 Pr1 3.079720 1_565
Ge5 Pr1 3.079720 1_455
