# generated using pymatgen
data_Sc2S3
_symmetry_space_group_name_H-M   'P 1'
_cell_length_a   6.40031047
_cell_length_b   6.40031089
_cell_length_c   11.67889711
_cell_angle_alpha   100.62259485
_cell_angle_beta   100.62259240
_cell_angle_gamma   109.10249021
_symmetry_Int_Tables_number   1
_chemical_formula_structural   Sc2S3
_chemical_formula_sum   'Sc8 S12'
_cell_volume   428.62771744
_cell_formula_units_Z   4
loop_
 _symmetry_equiv_pos_site_id
 _symmetry_equiv_pos_as_xyz
  1  'x, y, z'
loop_
 _atom_site_type_symbol
 _atom_site_label
 _atom_site_symmetry_multiplicity
 _atom_site_fract_x
 _atom_site_fract_y
 _atom_site_fract_z
 _atom_site_occupancy
  Sc  Sc0  1  0.04141919  0.79141919  0.58283638  1
  Sc  Sc1  1  0.20858081  0.95858081  0.91716362  1
  Sc  Sc2  1  0.95858081  0.20858081  0.41716362  1
  Sc  Sc3  1  0.79141919  0.04141919  0.08283638  1
  Sc  Sc4  1  0.37722378  0.12722378  0.25444855  1
  Sc  Sc5  1  0.87277622  0.62277622  0.24555145  1
  Sc  Sc6  1  0.62277622  0.87277622  0.74555145  1
  Sc  Sc7  1  0.12722378  0.37722378  0.75444855  1
  S  S0  1  0.88467294  0.63467294  0.75000000  1
  S  S1  1  0.36532706  0.11532706  0.75000000  1
  S  S2  1  0.11532706  0.36532706  0.25000000  1
  S  S3  1  0.63467294  0.88467294  0.25000000  1
  S  S4  1  0.95205870  0.19278107  0.91124649  1
  S  S5  1  0.28153358  0.54081321  0.58875351  1
  S  S6  1  0.80721893  0.04794130  0.58875351  1
  S  S7  1  0.45918679  0.71846642  0.91124649  1
  S  S8  1  0.04794130  0.80721893  0.08875351  1
  S  S9  1  0.71846642  0.45918679  0.41124649  1
  S  S10  1  0.19278107  0.95205870  0.41124649  1
  S  S11  1  0.54081321  0.28153358  0.08875351  1
loop_
_geom_bond_atom_site_label_1
_geom_bond_atom_site_label_2
_geom_bond_distance
_geom_bond_site_symmetry_2
S0 Sc1 2.570937 1_655
S0 Sc0 2.570947 1_655
S0 Sc6 2.608411 1_555
S0 Sc7 2.608411 1_655
S1 Sc0 2.570937 1_545
S1 Sc1 2.570947 1_545
S1 Sc7 2.608411 1_555
S1 Sc6 2.608411 1_545
S2 Sc3 2.570937 1_455
S2 Sc2 2.570947 1_455
S2 Sc4 2.608411 1_555
S2 Sc5 2.608411 1_455
S3 Sc2 2.570937 1_565
S3 Sc3 2.570947 1_565
S3 Sc5 2.608411 1_555
S3 Sc4 2.608411 1_565
S4 Sc1 2.560148 1_645
S4 Sc6 2.567330 1_545
S4 Sc7 2.586793 1_655
S4 Sc3 2.614376 1_556
S5 Sc0 2.560137 1_555
S5 Sc7 2.567335 1_555
S5 Sc6 2.586799 1_555
S5 Sc2 2.614386 1_455
S6 Sc0 2.560148 1_645
S6 Sc7 2.567330 1_655
S6 Sc6 2.586793 1_545
S6 Sc2 2.614376 1_555
S7 Sc1 2.560137 1_555
S7 Sc6 2.567335 1_555
S7 Sc7 2.586799 1_555
S7 Sc3 2.614386 1_566
S8 Sc3 2.560148 1_465
S8 Sc4 2.567330 1_565
S8 Sc5 2.586793 1_455
S8 Sc1 2.614376 1_554
S9 Sc2 2.560137 1_555
S9 Sc5 2.567335 1_555
S9 Sc4 2.586799 1_555
S9 Sc0 2.614386 1_655
S10 Sc2 2.560148 1_465
S10 Sc5 2.567330 1_455
S10 Sc4 2.586793 1_565
S10 Sc0 2.614376 1_555
S11 Sc3 2.560137 1_555
S11 Sc4 2.567335 1_555
S11 Sc5 2.586799 1_555
S11 Sc1 2.614386 1_544
