# generated using pymatgen
data_TlCrTe2
_symmetry_space_group_name_H-M   'P 1'
_cell_length_a   4.10983290
_cell_length_b   4.10983308
_cell_length_c   7.94888338
_cell_angle_alpha   90.00000000
_cell_angle_beta   90.00000000
_cell_angle_gamma   119.99999851
_symmetry_Int_Tables_number   1
_chemical_formula_structural   TlCrTe2
_chemical_formula_sum   'Tl1 Cr1 Te2'
_cell_volume   116.27466903
_cell_formula_units_Z   1
loop_
 _symmetry_equiv_pos_site_id
 _symmetry_equiv_pos_as_xyz
  1  'x, y, z'
loop_
 _atom_site_type_symbol
 _atom_site_label
 _atom_site_symmetry_multiplicity
 _atom_site_fract_x
 _atom_site_fract_y
 _atom_site_fract_z
 _atom_site_occupancy
  Tl  Tl0  1  0.00000000  0.00000000  -0.00000000  1
  Cr  Cr0  1  0.00000000  0.00000000  0.50000000  1
  Te  Te0  1  0.66666700  0.33333300  0.68330262  1
  Te  Te1  1  0.33333300  0.66666700  0.31669838  1
loop_
_geom_bond_atom_site_label_1
_geom_bond_atom_site_label_2
_geom_bond_distance
_geom_bond_site_symmetry_2
Cr0 Te1 2.784458 1_545
Cr0 Te1 2.784461 1_445
Cr0 Te1 2.784461 1_555
Cr0 Te0 2.784462 1_455
Cr0 Te0 2.784465 1_555
Cr0 Te0 2.784465 1_445
Te0 Tl0 3.459405 1_656
Te0 Tl0 3.459408 1_556
Te0 Tl0 3.459408 1_666
Te1 Tl0 3.459411 1_565
Te1 Tl0 3.459414 1_665
Te1 Tl0 3.459414 1_555
