# generated using pymatgen
data_Ni(RhSe2)2
_symmetry_space_group_name_H-M   'P 1'
_cell_length_a   6.43002395
_cell_length_b   6.43002395
_cell_length_c   6.39801737
_cell_angle_alpha   62.07173912
_cell_angle_beta   62.07173912
_cell_angle_gamma   33.70799899
_symmetry_Int_Tables_number   1
_chemical_formula_structural   Ni(RhSe2)2
_chemical_formula_sum   'Ni1 Rh2 Se4'
_cell_volume   128.02140536
_cell_formula_units_Z   1
loop_
 _symmetry_equiv_pos_site_id
 _symmetry_equiv_pos_as_xyz
  1  'x, y, z'
loop_
 _atom_site_type_symbol
 _atom_site_label
 _atom_site_symmetry_multiplicity
 _atom_site_fract_x
 _atom_site_fract_y
 _atom_site_fract_z
 _atom_site_occupancy
  Ni  Ni0  1  0.00000000  0.00000000  0.00000000  1
  Rh  Rh0  1  0.26397600  0.26397600  0.71713900  1
  Rh  Rh1  1  0.73602400  0.73602400  0.28286100  1
  Se  Se0  1  0.36834700  0.36834700  0.97821800  1
  Se  Se1  1  0.63165300  0.63165300  0.02178200  1
  Se  Se2  1  0.11572800  0.11572800  0.55157600  1
  Se  Se3  1  0.88427200  0.88427200  0.44842400  1
loop_
_geom_bond_atom_site_label_1
_geom_bond_atom_site_label_2
_geom_bond_distance
_geom_bond_site_symmetry_2
Ni0 Se3 2.502064 1_445
Ni0 Se2 2.502064 1_554
Ni0 Se1 2.518232 1_455
Ni0 Se1 2.518232 1_545
Ni0 Se0 2.518232 1_544
Ni0 Se0 2.518232 1_454
Ni0 Rh1 2.841794 1_445
Ni0 Rh0 2.841794 1_554
Rh0 Se3 2.476287 1_455
Rh0 Se3 2.476287 1_545
Rh0 Se2 2.518510 1_555
Rh0 Se0 2.557434 1_555
Rh0 Se1 2.611506 1_456
Rh0 Se1 2.611506 1_546
Rh1 Se2 2.476287 1_655
Rh1 Se2 2.476287 1_565
Rh1 Se3 2.518510 1_555
Rh1 Se1 2.557434 1_555
Rh1 Se0 2.611506 1_654
Rh1 Se0 2.611506 1_564
