# generated using pymatgen
data_SrTeO4
_symmetry_space_group_name_H-M   'P 1'
_cell_length_a   5.02393487
_cell_length_b   5.59786546
_cell_length_c   13.14693366
_cell_angle_alpha   90.00000000
_cell_angle_beta   90.00000000
_cell_angle_gamma   90.00000000
_symmetry_Int_Tables_number   1
_chemical_formula_structural   SrTeO4
_chemical_formula_sum   'Sr4 Te4 O16'
_cell_volume   369.73531035
_cell_formula_units_Z   4
loop_
 _symmetry_equiv_pos_site_id
 _symmetry_equiv_pos_as_xyz
  1  'x, y, z'
loop_
 _atom_site_type_symbol
 _atom_site_label
 _atom_site_symmetry_multiplicity
 _atom_site_fract_x
 _atom_site_fract_y
 _atom_site_fract_z
 _atom_site_occupancy
  Sr  Sr0  1  0.75000000  -0.00000000  0.66624826  1
  Sr  Sr1  1  0.25000000  0.50000000  0.83375174  1
  Sr  Sr2  1  0.25000000  -0.00000000  0.33375174  1
  Sr  Sr3  1  0.75000000  0.50000000  0.16624826  1
  Te  Te0  1  0.75000000  0.50000000  0.43020161  1
  Te  Te1  1  0.25000000  -0.00000000  0.06979839  1
  Te  Te2  1  0.25000000  0.50000000  0.56979839  1
  Te  Te3  1  0.75000000  -0.00000000  0.93020161  1
  O  O0  1  0.13151059  0.28576507  0.66678392  1
  O  O1  1  0.63151059  0.21423493  0.83321608  1
  O  O2  1  0.86848941  0.78576507  0.83321608  1
  O  O3  1  0.36848941  0.71423493  0.66678392  1
  O  O4  1  0.86848941  0.71423493  0.33321608  1
  O  O5  1  0.36848941  0.78576507  0.16678392  1
  O  O6  1  0.13151059  0.21423493  0.16678392  1
  O  O7  1  0.63151059  0.28576507  0.33321608  1
  O  O8  1  0.57203401  0.31265468  0.54199062  1
  O  O9  1  0.07203401  0.18734532  0.95800938  1
  O  O10  1  0.42796599  0.81265468  0.95800938  1
  O  O11  1  0.92796599  0.68734532  0.54199062  1
  O  O12  1  0.42796599  0.68734532  0.45800938  1
  O  O13  1  0.92796599  0.81265468  0.04199062  1
  O  O14  1  0.57203401  0.18734532  0.04199062  1
  O  O15  1  0.07203401  0.31265468  0.45800938  1
loop_
_geom_bond_atom_site_label_1
_geom_bond_atom_site_label_2
_geom_bond_distance
_geom_bond_site_symmetry_2
O0 Te2 1.848882 1_555
O0 Sr0 2.496535 1_455
O0 Sr1 2.571208 1_555
O1 Te3 1.848882 1_555
O1 Sr1 2.496535 1_555
O1 Sr0 2.571208 1_555
O2 Te3 1.848882 1_565
O2 Sr1 2.496535 1_655
O2 Sr0 2.571208 1_565
O3 Te2 1.848882 1_555
O3 Sr0 2.496535 1_565
O3 Sr1 2.571208 1_555
O4 Te0 1.848882 1_555
O4 Sr2 2.496535 1_665
O4 Sr3 2.571208 1_555
O5 Te1 1.848882 1_565
O5 Sr3 2.496535 1_555
O5 Sr2 2.571208 1_565
O6 Te1 1.848882 1_555
O6 Sr3 2.496535 1_455
O6 Sr2 2.571208 1_555
O7 Te0 1.848882 1_555
O7 Sr2 2.496535 1_555
O7 Sr3 2.571208 1_555
O8 Te2 1.962403 1_555
O8 Te0 2.014747 1_555
O8 Sr0 2.555634 1_555
O9 Te3 1.962403 1_455
O9 Te1 2.014747 1_556
O9 Sr1 2.555634 1_555
O10 Te3 1.962403 1_565
O10 Te1 2.014747 1_566
O10 Sr1 2.555634 1_555
O11 Te2 1.962403 1_655
O11 Te0 2.014747 1_555
O11 Sr0 2.555634 1_565
O12 Te0 1.962403 1_555
O12 Te2 2.014747 1_555
O12 Sr2 2.555634 1_565
O13 Te1 1.962403 1_665
O13 Te3 2.014747 1_564
O13 Sr3 2.555634 1_555
O14 Te1 1.962403 1_555
O14 Te3 2.014747 1_554
O14 Sr3 2.555634 1_555
O15 Te0 1.962403 1_455
O15 Te2 2.014747 1_555
O15 Sr2 2.555634 1_555
