# generated using pymatgen
data_Cu2GeSe3
_symmetry_space_group_name_H-M   'P 1'
_cell_length_a   3.98587371
_cell_length_b   5.53631094
_cell_length_c   6.78254633
_cell_angle_alpha   114.08736712
_cell_angle_beta   107.08757275
_cell_angle_gamma   89.99999949
_symmetry_Int_Tables_number   1
_chemical_formula_structural   Cu2GeSe3
_chemical_formula_sum   'Cu2 Ge1 Se3'
_cell_volume   129.36715667
_cell_formula_units_Z   1
loop_
 _symmetry_equiv_pos_site_id
 _symmetry_equiv_pos_as_xyz
  1  'x, y, z'
loop_
 _atom_site_type_symbol
 _atom_site_label
 _atom_site_symmetry_multiplicity
 _atom_site_fract_x
 _atom_site_fract_y
 _atom_site_fract_z
 _atom_site_occupancy
  Cu  Cu0  1  0.83309587  0.57150426  0.66619074  1
  Cu  Cu1  1  0.16690413  0.90531353  0.33380926  1
  Ge  Ge0  1  0.50000000  0.26676799  -0.00000000  1
  Se  Se0  1  0.66999489  0.67071366  0.33999177  1
  Se  Se1  1  0.33000511  0.33072389  0.66000823  1
  Se  Se2  1  0.00000000  0.99297466  -0.00000000  1
loop_
_geom_bond_atom_site_label_1
_geom_bond_atom_site_label_2
_geom_bond_distance
_geom_bond_site_symmetry_2
Cu0 Se1 2.388462 1_555
Cu0 Se1 2.388465 1_655
Cu0 Se0 2.401240 1_555
Cu0 Se2 2.411620 1_656
Cu1 Se0 2.388468 1_555
Cu1 Se0 2.388471 1_455
Cu1 Se1 2.401247 1_565
Cu1 Se2 2.411620 1_555
Ge0 Se0 2.377056 1_555
Ge0 Se1 2.377062 1_554
Ge0 Se2 2.503889 1_645
Ge0 Se2 2.503889 1_545
