# generated using pymatgen
data_La2SO6
_symmetry_space_group_name_H-M   'P 1'
_cell_length_a   4.28002676
_cell_length_b   7.49758369
_cell_length_c   8.37337062
_cell_angle_alpha   106.34022088
_cell_angle_beta   90.00000000
_cell_angle_gamma   106.58438662
_symmetry_Int_Tables_number   1
_chemical_formula_structural   La2SO6
_chemical_formula_sum   'La4 S2 O12'
_cell_volume   246.17681023
_cell_formula_units_Z   2
loop_
 _symmetry_equiv_pos_site_id
 _symmetry_equiv_pos_as_xyz
  1  'x, y, z'
loop_
 _atom_site_type_symbol
 _atom_site_label
 _atom_site_symmetry_multiplicity
 _atom_site_fract_x
 _atom_site_fract_y
 _atom_site_fract_z
 _atom_site_occupancy
  La  La0  1  0.32688790  0.66549044  0.91643599  1
  La  La1  1  0.66139747  0.33450956  0.58356401  1
  La  La2  1  0.33860253  0.66549044  0.41643599  1
  La  La3  1  0.67311210  0.33450956  0.08356401  1
  S  S0  1  0.94196845  0.00000000  0.25000000  1
  S  S1  1  0.05803155  -0.00000000  0.75000000  1
  O  O0  1  0.95480569  0.17749131  0.79324716  1
  O  O1  1  0.77731537  0.82250869  0.70675284  1
  O  O2  1  0.04519431  0.82250869  0.20675284  1
  O  O3  1  0.22268463  0.17749131  0.29324716  1
  O  O4  1  0.26047063  0.49459395  0.12362377  1
  O  O5  1  0.76587768  0.50540605  0.37637623  1
  O  O6  1  0.73958965  0.00177665  0.39388957  1
  O  O7  1  0.23412232  0.49459395  0.62362377  1
  O  O8  1  0.26218701  0.00177665  0.89388957  1
  O  O9  1  0.73952937  0.50540605  0.87637623  1
  O  O10  1  0.73781299  0.99822335  0.10611043  1
  O  O11  1  0.26041035  0.99822335  0.60611043  1
loop_
_geom_bond_atom_site_label_1
_geom_bond_atom_site_label_2
_geom_bond_distance
_geom_bond_site_symmetry_2
La0 O9 2.378197 1_555
La0 O7 2.398488 1_555
La0 O4 2.403156 1_556
La0 O9 2.433900 1_455
La0 O10 2.665542 1_556
La0 O8 2.671304 1_565
La0 O2 2.819383 1_556
La0 O1 2.837717 1_555
La1 O7 2.378193 1_655
La1 O9 2.398488 1_555
La1 O5 2.403156 1_555
La1 O7 2.433904 1_555
La1 O6 2.665542 1_555
La1 O11 2.671304 1_545
La1 O3 2.819385 1_555
La1 O0 2.837715 1_555
La2 O5 2.378193 1_455
La2 O4 2.398488 1_555
La2 O7 2.403156 1_555
La2 O5 2.433904 1_555
La2 O11 2.665542 1_555
La2 O6 2.671304 1_565
La2 O1 2.819385 1_555
La2 O2 2.837715 1_555
La3 O4 2.378197 1_555
La3 O5 2.398488 1_555
La3 O9 2.403156 1_554
La3 O4 2.433900 1_655
La3 O8 2.665542 1_554
La3 O10 2.671304 1_545
La3 O0 2.819383 1_554
La3 O3 2.837717 1_555
O0 S1 1.470277 1_655
O1 S1 1.470274 1_665
O2 S0 1.470277 1_465
O3 S0 1.470274 1_455
O6 S0 1.483123 1_555
O8 S1 1.483123 1_555
O10 S0 1.483123 1_565
O11 S1 1.483123 1_565
