# generated using pymatgen
data_Nd(SiPd)2
_symmetry_space_group_name_H-M   'P 1'
_cell_length_a   4.22093686
_cell_length_b   4.22093766
_cell_length_c   5.79601428
_cell_angle_alpha   111.35367352
_cell_angle_beta   111.35367928
_cell_angle_gamma   90.00000247
_symmetry_Int_Tables_number   1
_chemical_formula_structural   Nd(SiPd)2
_chemical_formula_sum   'Nd1 Si2 Pd2'
_cell_volume   88.51970440
_cell_formula_units_Z   1
loop_
 _symmetry_equiv_pos_site_id
 _symmetry_equiv_pos_as_xyz
  1  'x, y, z'
loop_
 _atom_site_type_symbol
 _atom_site_label
 _atom_site_symmetry_multiplicity
 _atom_site_fract_x
 _atom_site_fract_y
 _atom_site_fract_z
 _atom_site_occupancy
  Nd  Nd0  1  0.00000000  0.00000000  -0.00000000  1
  Si  Si0  1  0.61937405  0.61937405  0.23875010  1
  Si  Si1  1  0.38062595  0.38062595  0.76124990  1
  Pd  Pd0  1  0.75000000  0.25000000  0.50000000  1
  Pd  Pd1  1  0.25000000  0.75000000  0.50000000  1
loop_
_geom_bond_atom_site_label_1
_geom_bond_atom_site_label_2
_geom_bond_distance
_geom_bond_site_symmetry_2
Nd0 Si0 3.211735 1_555
Nd0 Si1 3.211735 1_444
Nd0 Si0 3.211740 1_545
Nd0 Si1 3.211740 1_454
Nd0 Si0 3.211741 1_455
Nd0 Si1 3.211741 1_544
Nd0 Si1 3.211746 1_554
Nd0 Si0 3.211746 1_445
Nd0 Pd1 3.259675 1_545
Nd0 Pd0 3.259675 1_454
Nd0 Pd0 3.259676 1_455
Nd0 Pd1 3.259676 1_544
Nd0 Pd1 3.259676 1_444
Nd0 Pd0 3.259676 1_555
Nd0 Pd0 3.259677 1_444
Nd0 Pd1 3.259677 1_555
Si0 Si1 2.372443 1_554
Pd0 Si1 2.477678 1_555
Pd0 Si0 2.477679 1_555
Pd0 Si1 2.477686 1_655
Pd0 Si0 2.477686 1_545
Pd1 Si0 2.477678 1_555
Pd1 Si1 2.477679 1_555
Pd1 Si0 2.477686 1_455
Pd1 Si1 2.477686 1_565
