# generated using pymatgen
data_Sr2RuO4
_symmetry_space_group_name_H-M   'P 1'
_cell_length_a   3.90106627
_cell_length_b   3.90106130
_cell_length_c   6.91448816
_cell_angle_alpha   106.38517513
_cell_angle_beta   106.38520553
_cell_angle_gamma   89.99998360
_symmetry_Int_Tables_number   1
_chemical_formula_structural   Sr2RuO4
_chemical_formula_sum   'Sr2 Ru1 O4'
_cell_volume   96.49049195
_cell_formula_units_Z   1
loop_
 _symmetry_equiv_pos_site_id
 _symmetry_equiv_pos_as_xyz
  1  'x, y, z'
loop_
 _atom_site_type_symbol
 _atom_site_label
 _atom_site_symmetry_multiplicity
 _atom_site_fract_x
 _atom_site_fract_y
 _atom_site_fract_z
 _atom_site_occupancy
  Sr  Sr0  1  0.35436093  0.35436093  0.70872185  1
  Sr  Sr1  1  0.64563907  0.64563907  0.29127815  1
  Ru  Ru0  1  0.00000000  -0.00000000  0.00000000  1
  O  O0  1  0.83836539  0.83836539  0.67672978  1
  O  O1  1  0.16163461  0.16163461  0.32327022  1
  O  O2  1  0.00000000  0.50000000  0.00000000  1
  O  O3  1  0.50000000  -0.00000000  0.00000000  1
loop_
_geom_bond_atom_site_label_1
_geom_bond_atom_site_label_2
_geom_bond_distance
_geom_bond_site_symmetry_2
O0 Ru0 2.049671 1_666
O0 Sr1 2.443927 1_555
O0 Sr0 2.765914 1_665
O0 Sr0 2.765916 1_655
O0 Sr0 2.765916 1_565
O0 Sr0 2.765920 1_555
O1 Ru0 2.049671 1_555
O1 Sr0 2.443927 1_555
O1 Sr1 2.765914 1_445
O1 Sr1 2.765916 1_455
O1 Sr1 2.765916 1_545
O1 Sr1 2.765920 1_555
O2 Ru0 1.950531 1_565
O2 Ru0 1.950531 1_555
O2 Sr1 2.686141 1_555
O2 Sr0 2.686141 1_454
O2 Sr0 2.686141 1_554
O2 Sr1 2.686141 1_455
O3 Ru0 1.950533 1_555
O3 Ru0 1.950533 1_655
O3 Sr1 2.686139 1_545
O3 Sr0 2.686139 1_554
O3 Sr0 2.686139 1_544
O3 Sr1 2.686139 1_555
