# generated using pymatgen
data_CaLaMnFeO6
_symmetry_space_group_name_H-M   'P 1'
_cell_length_a   5.47599104
_cell_length_b   5.51825426
_cell_length_c   7.71711529
_cell_angle_alpha   90.23856161
_cell_angle_beta   90.00000000
_cell_angle_gamma   90.00000000
_symmetry_Int_Tables_number   1
_chemical_formula_structural   CaLaMnFeO6
_chemical_formula_sum   'Ca2 La2 Mn2 Fe2 O12'
_cell_volume   233.19308075
_cell_formula_units_Z   2
loop_
 _symmetry_equiv_pos_site_id
 _symmetry_equiv_pos_as_xyz
  1  'x, y, z'
loop_
 _atom_site_type_symbol
 _atom_site_label
 _atom_site_symmetry_multiplicity
 _atom_site_fract_x
 _atom_site_fract_y
 _atom_site_fract_z
 _atom_site_occupancy
  Ca  Ca0  1  0.51097123  0.51176880  0.24939305  1
  Ca  Ca1  1  0.98902877  0.01176880  0.74939305  1
  Fe  Fe0  1  0.49990351  0.00025787  0.00058309  1
  Fe  Fe1  1  0.00009649  0.50025787  0.50058309  1
  La  La0  1  0.00794752  0.99329991  0.25039232  1
  La  La1  1  0.49205248  0.49329991  0.75039232  1
  Mn  Mn0  1  0.50001457  -0.00013029  0.49953587  1
  Mn  Mn1  1  0.99998543  0.49986971  0.99953587  1
  O  O0  1  0.99508904  0.42481981  0.24562521  1
  O  O1  1  0.25798763  0.73328902  0.04345711  1
  O  O2  1  0.26514067  0.74279442  0.45600165  1
  O  O3  1  0.24201237  0.23328902  0.54345711  1
  O  O4  1  0.23485933  0.24279442  0.95600165  1
  O  O5  1  0.50491096  0.92481981  0.74562521  1
  O  O6  1  0.49603601  0.08299062  0.25461944  1
  O  O7  1  0.75305725  0.76026709  0.45724434  1
  O  O8  1  0.75927995  0.75064274  0.04314792  1
  O  O9  1  0.74072005  0.25064274  0.54314792  1
  O  O10  1  0.74694275  0.26026709  0.95724434  1
  O  O11  1  0.00396399  0.58299062  0.75461944  1
loop_
_geom_bond_atom_site_label_1
_geom_bond_atom_site_label_2
_geom_bond_distance
_geom_bond_site_symmetry_2
Ca0 O6 2.368031 1_555
Ca0 O1 2.440341 1_555
Ca0 O2 2.441860 1_555
Ca0 O8 2.477330 1_555
Ca0 O7 2.488436 1_555
Ca1 O11 2.368031 1_645
Ca1 O3 2.440341 1_655
Ca1 O4 2.441860 1_655
Ca1 O9 2.477330 1_555
Ca1 O10 2.488436 1_555
Fe0 O10 2.001130 1_554
Fe0 O4 2.004983 1_554
Fe0 O8 2.006584 1_545
Fe0 O5 2.009586 1_544
Fe0 O1 2.009667 1_545
Fe0 O6 2.011144 1_555
Fe1 O7 2.001130 1_455
Fe1 O2 2.004983 1_555
Fe1 O9 2.006584 1_455
Fe1 O0 2.009586 1_455
Fe1 O3 2.009667 1_555
Fe1 O11 2.011144 1_555
La0 O0 2.382714 1_465
La0 O7 2.483363 1_455
La0 O8 2.487426 1_455
La0 O2 2.535818 1_555
La0 O1 2.542552 1_555
La0 O6 2.718378 1_565
La0 O6 2.846744 1_465
La0 O3 2.913183 1_565
La0 O4 2.937144 1_564
La0 O9 3.038977 1_465
La0 O10 3.059189 1_464
La0 O0 3.137870 1_455
La1 O5 2.382714 1_555
La1 O10 2.483363 1_555
La1 O9 2.487426 1_555
La1 O4 2.535818 1_555
La1 O3 2.542552 1_555
La1 O11 2.718378 1_555
La1 O11 2.846744 1_655
La1 O1 2.913183 1_556
La1 O2 2.937144 1_555
La1 O8 3.038977 1_556
La1 O7 3.059189 1_555
La1 O5 3.137870 1_545
Mn0 O9 1.939528 1_555
Mn0 O3 1.940726 1_555
Mn0 O7 1.941947 1_545
Mn0 O2 1.943083 1_545
Mn0 O5 1.945601 1_545
Mn0 O6 1.946886 1_555
Mn1 O8 1.939528 1_556
Mn1 O1 1.940726 1_656
Mn1 O10 1.941947 1_555
Mn1 O4 1.943083 1_655
Mn1 O0 1.945601 1_556
Mn1 O11 1.946886 1_655
