# generated using pymatgen
data_CaCO3
_symmetry_space_group_name_H-M   'P 1'
_cell_length_a   5.01605500
_cell_length_b   5.81207100
_cell_length_c   8.03479800
_cell_angle_alpha   90.00000000
_cell_angle_beta   90.00000000
_cell_angle_gamma   90.00000000
_symmetry_Int_Tables_number   1
_chemical_formula_structural   CaCO3
_chemical_formula_sum   'Ca4 C4 O12'
_cell_volume   234.24383173
_cell_formula_units_Z   4
loop_
 _symmetry_equiv_pos_site_id
 _symmetry_equiv_pos_as_xyz
  1  'x, y, z'
loop_
 _atom_site_type_symbol
 _atom_site_label
 _atom_site_symmetry_multiplicity
 _atom_site_fract_x
 _atom_site_fract_y
 _atom_site_fract_z
 _atom_site_occupancy
  Ca  Ca0  1  0.25000000  0.25935600  0.41493900  1
  Ca  Ca1  1  0.75000000  0.74064400  0.58506100  1
  Ca  Ca2  1  0.25000000  0.75935600  0.08506100  1
  Ca  Ca3  1  0.75000000  0.24064400  0.91493900  1
  C  C0  1  0.25000000  0.41647100  0.76220800  1
  C  C1  1  0.75000000  0.58352900  0.23779200  1
  C  C2  1  0.25000000  0.91647100  0.73779200  1
  C  C3  1  0.75000000  0.08352900  0.26220800  1
  O  O0  1  0.02608700  0.91381500  0.81956800  1
  O  O1  1  0.52608700  0.08618500  0.18043200  1
  O  O2  1  0.47391300  0.41381500  0.68043200  1
  O  O3  1  0.97391300  0.58618500  0.31956800  1
  O  O4  1  0.75000000  0.09274400  0.42282200  1
  O  O5  1  0.25000000  0.90725600  0.57717800  1
  O  O6  1  0.75000000  0.59274400  0.07717800  1
  O  O7  1  0.25000000  0.40725600  0.92282200  1
  O  O8  1  0.97391300  0.08618500  0.18043200  1
  O  O9  1  0.47391300  0.91381500  0.81956800  1
  O  O10  1  0.52608700  0.58618500  0.31956800  1
  O  O11  1  0.02608700  0.41381500  0.68043200  1
loop_
_geom_bond_atom_site_label_1
_geom_bond_atom_site_label_2
_geom_bond_distance
_geom_bond_site_symmetry_2
Ca0 O5 2.426343 1_545
Ca0 O10 2.472520 1_555
Ca0 O3 2.472520 1_455
Ca0 O1 2.545808 1_555
Ca0 O8 2.545808 1_455
Ca0 O2 2.572522 1_555
Ca0 O11 2.572522 1_555
Ca0 O4 2.689226 1_455
Ca0 O4 2.689226 1_555
Ca1 O4 2.426343 1_565
Ca1 O11 2.472520 1_655
Ca1 O2 2.472520 1_555
Ca1 O9 2.545808 1_555
Ca1 O0 2.545808 1_655
Ca1 O10 2.572522 1_555
Ca1 O3 2.572522 1_555
Ca1 O5 2.689226 1_655
Ca1 O5 2.689226 1_555
Ca2 O7 2.426343 1_554
Ca2 O8 2.472520 1_465
Ca2 O1 2.472520 1_565
Ca2 O3 2.545808 1_455
Ca2 O10 2.545808 1_555
Ca2 O9 2.572522 1_554
Ca2 O0 2.572522 1_554
Ca2 O6 2.689226 1_455
Ca2 O6 2.689226 1_555
Ca3 O6 2.426343 1_556
Ca3 O0 2.472520 1_645
Ca3 O9 2.472520 1_545
Ca3 O11 2.545808 1_655
Ca3 O2 2.545808 1_555
Ca3 O8 2.572522 1_556
Ca3 O1 2.572522 1_556
Ca3 O7 2.689226 1_555
Ca3 O7 2.689226 1_655
C0 O7 1.291612 1_555
C0 O2 1.301325 1_555
C0 O11 1.301325 1_555
C1 O6 1.291612 1_555
C1 O10 1.301325 1_555
C1 O3 1.301325 1_555
C2 O5 1.291612 1_555
C2 O9 1.301325 1_555
C2 O0 1.301325 1_555
C3 O4 1.291612 1_555
C3 O1 1.301325 1_555
C3 O8 1.301325 1_555
