# generated using pymatgen
data_Nd(GePd)2
_symmetry_space_group_name_H-M   'P 1'
_cell_length_a   4.32315708
_cell_length_b   4.32315803
_cell_length_c   5.91118275
_cell_angle_alpha   111.44920149
_cell_angle_beta   111.44919662
_cell_angle_gamma   90.00000454
_symmetry_Int_Tables_number   1
_chemical_formula_structural   Nd(GePd)2
_chemical_formula_sum   'Nd1 Ge2 Pd2'
_cell_volume   94.55808751
_cell_formula_units_Z   1
loop_
 _symmetry_equiv_pos_site_id
 _symmetry_equiv_pos_as_xyz
  1  'x, y, z'
loop_
 _atom_site_type_symbol
 _atom_site_label
 _atom_site_symmetry_multiplicity
 _atom_site_fract_x
 _atom_site_fract_y
 _atom_site_fract_z
 _atom_site_occupancy
  Nd  Nd0  1  0.00000000  0.00000000  -0.00000000  1
  Ge  Ge0  1  0.37768594  0.37768594  0.75536988  1
  Ge  Ge1  1  0.62231406  0.62231406  0.24463012  1
  Pd  Pd0  1  0.75000000  0.25000000  0.50000000  1
  Pd  Pd1  1  0.25000000  0.75000000  0.50000000  1
loop_
_geom_bond_atom_site_label_1
_geom_bond_atom_site_label_2
_geom_bond_distance
_geom_bond_site_symmetry_2
Nd0 Pd1 3.327421 1_544
Nd0 Pd0 3.327421 1_455
Nd0 Pd0 3.327421 1_555
Nd0 Pd1 3.327421 1_444
Nd0 Pd1 3.327421 1_545
Nd0 Pd0 3.327421 1_454
Nd0 Pd0 3.327421 1_444
Nd0 Pd1 3.327421 1_555
Ge0 Ge1 2.475349 1_556
Ge0 Pd0 2.518272 1_555
Ge0 Pd1 2.518273 1_555
Ge0 Pd0 2.518280 1_455
Ge0 Pd1 2.518280 1_545
Ge0 Nd0 3.297976 1_666
Ge0 Nd0 3.297982 1_656
Ge0 Nd0 3.297982 1_566
Ge0 Nd0 3.297987 1_556
Ge1 Pd1 2.518272 1_555
Ge1 Pd0 2.518273 1_555
Ge1 Pd1 2.518280 1_655
Ge1 Pd0 2.518280 1_565
Ge1 Nd0 3.297976 1_555
Ge1 Nd0 3.297982 1_565
Ge1 Nd0 3.297982 1_655
Ge1 Nd0 3.297987 1_665
