# generated using pymatgen
data_Sc3Fe2Si3
_symmetry_space_group_name_H-M   'P 1'
_cell_length_a   3.93839372
_cell_length_b   5.31864334
_cell_length_c   12.84780074
_cell_angle_alpha   90.00000000
_cell_angle_beta   90.00000000
_cell_angle_gamma   111.73067864
_symmetry_Int_Tables_number   1
_chemical_formula_structural   Sc3Fe2Si3
_chemical_formula_sum   'Sc6 Fe4 Si6'
_cell_volume   249.99646333
_cell_formula_units_Z   2
loop_
 _symmetry_equiv_pos_site_id
 _symmetry_equiv_pos_as_xyz
  1  'x, y, z'
loop_
 _atom_site_type_symbol
 _atom_site_label
 _atom_site_symmetry_multiplicity
 _atom_site_fract_x
 _atom_site_fract_y
 _atom_site_fract_z
 _atom_site_occupancy
  Sc  Sc0  1  0.36294739  0.72589479  0.75000000  1
  Sc  Sc1  1  0.08240219  0.16480438  0.61204596  1
  Sc  Sc2  1  0.08240219  0.16480438  0.88795404  1
  Sc  Sc3  1  0.91759781  0.83519562  0.11204596  1
  Sc  Sc4  1  0.63705261  0.27410521  0.25000000  1
  Sc  Sc5  1  0.91759781  0.83519562  0.38795404  1
  Fe  Fe0  1  0.21395772  0.42791545  0.08157245  1
  Fe  Fe1  1  0.78604228  0.57208455  0.58157245  1
  Fe  Fe2  1  0.21395772  0.42791545  0.41842755  1
  Fe  Fe3  1  0.78604228  0.57208455  0.91842755  1
  Si  Si0  1  0.32685372  0.65370743  0.25000000  1
  Si  Si1  1  0.61809618  0.23619237  0.45956628  1
  Si  Si2  1  0.61809618  0.23619237  0.04043372  1
  Si  Si3  1  0.38190382  0.76380763  0.54043372  1
  Si  Si4  1  0.67314628  0.34629257  0.75000000  1
  Si  Si5  1  0.38190382  0.76380763  0.95956628  1
loop_
_geom_bond_atom_site_label_1
_geom_bond_atom_site_label_2
_geom_bond_distance
_geom_bond_site_symmetry_2
Sc0 Si3 2.698974 1_555
Sc0 Si5 2.698974 1_555
Sc0 Si4 2.719411 1_455
Sc0 Si4 2.719411 1_555
Sc0 Si4 3.065181 1_565
Sc1 Si4 2.796995 1_555
Sc1 Si4 2.796995 1_455
Sc1 Si1 2.799987 1_555
Sc1 Si1 2.799987 1_455
Sc1 Si3 2.940981 1_445
Sc1 Si3 2.940982 1_545
Sc1 Si3 3.099197 1_555
Sc2 Si4 2.796995 1_555
Sc2 Si4 2.796995 1_455
Sc2 Si2 2.799987 1_556
Sc2 Si2 2.799987 1_456
Sc2 Si5 2.940981 1_445
Sc2 Si5 2.940982 1_545
Sc2 Si5 3.099197 1_555
Sc3 Si0 2.796995 1_555
Sc3 Si0 2.796995 1_655
Sc3 Si5 2.799987 1_554
Sc3 Si5 2.799987 1_654
Sc3 Si2 2.940981 1_665
Sc3 Si2 2.940982 1_565
Sc3 Si2 3.099197 1_555
Sc4 Si1 2.698974 1_555
Sc4 Si2 2.698974 1_555
Sc4 Si0 2.719411 1_655
Sc4 Si0 2.719411 1_555
Sc4 Si0 3.065181 1_545
Sc5 Si0 2.796995 1_555
Sc5 Si0 2.796995 1_655
Sc5 Si3 2.799987 1_555
Sc5 Si3 2.799987 1_655
Sc5 Si1 2.940981 1_665
Sc5 Si1 2.940982 1_565
Sc5 Si1 3.099197 1_555
Fe0 Si2 2.248190 1_555
Fe0 Si2 2.248190 1_455
Fe0 Si5 2.282792 1_554
Fe0 Si0 2.434553 1_555
Fe0 Sc2 2.806754 1_554
Fe0 Sc3 2.842555 1_455
Fe0 Sc3 2.842555 1_555
Fe0 Sc3 2.954490 1_445
Fe0 Sc4 3.022878 1_455
Fe0 Sc4 3.022878 1_555
Fe1 Si3 2.248190 1_555
Fe1 Si3 2.248190 1_655
Fe1 Si1 2.282792 1_555
Fe1 Si4 2.434553 1_555
Fe1 Sc5 2.806754 1_555
Fe1 Sc1 2.842555 1_655
Fe1 Sc1 2.842555 1_555
Fe1 Sc1 2.954490 1_665
Fe1 Sc0 3.022878 1_655
Fe1 Sc0 3.022878 1_555
Fe2 Si1 2.248190 1_555
Fe2 Si1 2.248190 1_455
Fe2 Si3 2.282792 1_555
Fe2 Si0 2.434553 1_555
Fe2 Sc1 2.806754 1_555
Fe2 Sc5 2.842555 1_455
Fe2 Sc5 2.842555 1_555
Fe2 Sc5 2.954490 1_445
Fe2 Sc4 3.022878 1_455
Fe2 Sc4 3.022878 1_555
Fe3 Si5 2.248190 1_555
Fe3 Si5 2.248190 1_655
Fe3 Si2 2.282792 1_556
Fe3 Si4 2.434553 1_555
Fe3 Sc3 2.806754 1_556
Fe3 Sc2 2.842555 1_655
Fe3 Sc2 2.842555 1_555
Fe3 Sc2 2.954490 1_665
Fe3 Sc0 3.022878 1_655
Fe3 Sc0 3.022878 1_555
Si1 Si3 2.554708 1_545
Si2 Si5 2.554708 1_544
