# generated using pymatgen
data_LaSi2Pt
_symmetry_space_group_name_H-M   'P 1'
_cell_length_a   4.27334817
_cell_length_b   4.34966006
_cell_length_c   8.73289947
_cell_angle_alpha   104.42061904
_cell_angle_beta   90.00000000
_cell_angle_gamma   90.00000000
_symmetry_Int_Tables_number   1
_chemical_formula_structural   LaSi2Pt
_chemical_formula_sum   'La2 Si4 Pt2'
_cell_volume   157.20950939
_cell_formula_units_Z   2
loop_
 _symmetry_equiv_pos_site_id
 _symmetry_equiv_pos_as_xyz
  1  'x, y, z'
loop_
 _atom_site_type_symbol
 _atom_site_label
 _atom_site_symmetry_multiplicity
 _atom_site_fract_x
 _atom_site_fract_y
 _atom_site_fract_z
 _atom_site_occupancy
  La  La0  1  0.25000000  0.89464635  0.78929369  1
  La  La1  1  0.75000000  0.10535365  0.21070631  1
  Si  Si0  1  0.25000000  0.24956706  0.49913513  1
  Si  Si1  1  0.75000000  0.75043294  0.50086487  1
  Si  Si2  1  0.75000000  0.46398823  0.92797546  1
  Si  Si3  1  0.25000000  0.53601177  0.07202454  1
  Pt  Pt0  1  0.75000000  0.31951502  0.63903004  1
  Pt  Pt1  1  0.25000000  0.68048498  0.36096996  1
loop_
_geom_bond_atom_site_label_1
_geom_bond_atom_site_label_2
_geom_bond_distance
_geom_bond_site_symmetry_2
La0 Si3 3.232344 1_556
La0 Si3 3.232345 1_566
La0 Si1 3.242892 1_555
La0 Si1 3.242892 1_455
La0 Si2 3.266653 1_455
La0 Si2 3.266653 1_555
La0 Si2 3.266659 1_565
La0 Si2 3.266659 1_465
La0 Si0 3.279092 1_565
La0 Si0 3.279093 1_555
La0 Pt0 3.303093 1_555
La0 Pt0 3.303093 1_455
La0 Pt0 3.303095 1_465
La0 Pt0 3.303095 1_565
La1 Si2 3.232344 1_554
La1 Si2 3.232345 1_544
La1 Si0 3.242892 1_555
La1 Si0 3.242892 1_655
La1 Si3 3.266653 1_555
La1 Si3 3.266653 1_655
La1 Si3 3.266659 1_545
La1 Si3 3.266659 1_645
La1 Si1 3.279092 1_545
La1 Si1 3.279093 1_555
La1 Pt1 3.303093 1_655
La1 Pt1 3.303093 1_555
La1 Pt1 3.303095 1_545
La1 Pt1 3.303095 1_645
Si2 Si3 2.459616 1_556
Si2 Si3 2.459616 1_656
Pt0 Si0 2.442403 1_555
Pt0 Si0 2.442403 1_655
Pt0 Si2 2.443830 1_555
Pt0 Si1 2.468892 1_545
Pt0 Si1 2.468895 1_555
Pt1 Si1 2.442403 1_455
Pt1 Si1 2.442403 1_555
Pt1 Si3 2.443830 1_555
Pt1 Si0 2.468892 1_565
Pt1 Si0 2.468895 1_555
