# generated using pymatgen
data_YbSnPd
_symmetry_space_group_name_H-M   'P 1'
_cell_length_a   7.79174379
_cell_length_b   7.79174379
_cell_length_c   3.76748600
_cell_angle_alpha   90.00000000
_cell_angle_beta   90.00000000
_cell_angle_gamma   119.99999821
_symmetry_Int_Tables_number   1
_chemical_formula_structural   YbSnPd
_chemical_formula_sum   'Yb3 Sn3 Pd3'
_cell_volume   198.08501086
_cell_formula_units_Z   3
loop_
 _symmetry_equiv_pos_site_id
 _symmetry_equiv_pos_as_xyz
  1  'x, y, z'
loop_
 _atom_site_type_symbol
 _atom_site_label
 _atom_site_symmetry_multiplicity
 _atom_site_fract_x
 _atom_site_fract_y
 _atom_site_fract_z
 _atom_site_occupancy
  Yb  Yb0  1  0.00000000  0.59889500  0.00000000  1
  Yb  Yb1  1  0.40110500  0.40110500  0.00000000  1
  Yb  Yb2  1  0.59889500  0.00000000  0.00000000  1
  Sn  Sn0  1  0.73064700  0.73064700  0.50000000  1
  Sn  Sn1  1  0.00000000  0.26935300  0.50000000  1
  Sn  Sn2  1  0.26935300  0.00000000  0.50000000  1
  Pd  Pd0  1  0.33333300  0.66666700  0.50000000  1
  Pd  Pd1  1  0.00000000  0.00000000  0.00000000  1
  Pd  Pd2  1  0.66666700  0.33333300  0.50000000  1
loop_
_geom_bond_atom_site_label_1
_geom_bond_atom_site_label_2
_geom_bond_distance
_geom_bond_site_symmetry_2
Sn0 Yb1 3.184589 1_556
Sn0 Yb1 3.184589 1_555
Sn0 Yb0 3.340887 1_656
Sn0 Yb2 3.340887 1_566
Sn0 Yb2 3.340887 1_565
Sn0 Yb0 3.340887 1_655
Sn1 Yb0 3.184589 1_555
Sn1 Yb0 3.184589 1_556
Sn1 Yb1 3.340887 1_556
Sn1 Yb1 3.340887 1_555
Sn1 Yb2 3.340887 1_455
Sn1 Yb2 3.340887 1_456
Sn2 Yb2 3.184589 1_556
Sn2 Yb2 3.184589 1_555
Sn2 Yb1 3.340887 1_556
Sn2 Yb1 3.340887 1_555
Sn2 Yb0 3.340887 1_545
Sn2 Yb0 3.340887 1_546
Pd0 Sn2 2.879057 1_565
Pd0 Sn1 2.879062 1_555
Pd0 Sn0 2.879065 1_555
Pd0 Yb0 3.033400 1_555
Pd0 Yb0 3.033400 1_556
Pd0 Yb2 3.033402 1_566
Pd0 Yb2 3.033402 1_565
Pd0 Yb1 3.033406 1_556
Pd0 Yb1 3.033406 1_555
Pd1 Sn1 2.820134 1_555
Pd1 Sn2 2.820134 1_555
Pd1 Sn1 2.820134 1_554
Pd1 Sn2 2.820134 1_554
Pd1 Sn0 2.820134 1_444
Pd1 Sn0 2.820134 1_445
Pd1 Yb0 3.125307 1_545
Pd1 Yb2 3.125307 1_455
Pd1 Yb1 3.125307 1_555
Pd2 Sn1 2.879057 1_655
Pd2 Sn2 2.879062 1_555
Pd2 Sn0 2.879065 1_555
Pd2 Yb2 3.033400 1_556
Pd2 Yb2 3.033400 1_555
Pd2 Yb0 3.033402 1_655
Pd2 Yb0 3.033402 1_656
Pd2 Yb1 3.033406 1_556
Pd2 Yb1 3.033406 1_555
