# generated using pymatgen
data_TbAlO3
_symmetry_space_group_name_H-M   'P 1'
_cell_length_a   5.19165377
_cell_length_b   5.30555533
_cell_length_c   7.39404835
_cell_angle_alpha   90.00000000
_cell_angle_beta   90.00000000
_cell_angle_gamma   90.00000000
_symmetry_Int_Tables_number   1
_chemical_formula_structural   TbAlO3
_chemical_formula_sum   'Tb4 Al4 O12'
_cell_volume   203.66615099
_cell_formula_units_Z   4
loop_
 _symmetry_equiv_pos_site_id
 _symmetry_equiv_pos_as_xyz
  1  'x, y, z'
loop_
 _atom_site_type_symbol
 _atom_site_label
 _atom_site_symmetry_multiplicity
 _atom_site_fract_x
 _atom_site_fract_y
 _atom_site_fract_z
 _atom_site_occupancy
  Tb  Tb0  1  0.01117385  0.04845325  0.25000000  1
  Tb  Tb1  1  0.51117385  0.45154675  0.75000000  1
  Tb  Tb2  1  0.48882615  0.54845325  0.25000000  1
  Tb  Tb3  1  0.98882615  0.95154675  0.75000000  1
  Al  Al0  1  0.50000000  -0.00000000  0.00000000  1
  Al  Al1  1  -0.00000000  0.50000000  0.00000000  1
  Al  Al2  1  -0.00000000  0.50000000  0.50000000  1
  Al  Al3  1  0.50000000  -0.00000000  0.50000000  1
  O  O0  1  0.29044193  0.29067158  0.45741062  1
  O  O1  1  0.79044193  0.20932842  0.54258938  1
  O  O2  1  0.20955807  0.79067158  0.04258938  1
  O  O3  1  0.70955807  0.70932842  0.95741062  1
  O  O4  1  0.70955807  0.70932842  0.54258938  1
  O  O5  1  0.20955807  0.79067158  0.45741062  1
  O  O6  1  0.79044193  0.20932842  0.95741062  1
  O  O7  1  0.29044193  0.29067158  0.04258938  1
  O  O8  1  0.91979419  0.48105611  0.25000000  1
  O  O9  1  0.41979419  0.01894389  0.75000000  1
  O  O10  1  0.58020581  0.98105611  0.25000000  1
  O  O11  1  0.08020581  0.51894389  0.75000000  1
loop_
_geom_bond_atom_site_label_1
_geom_bond_atom_site_label_2
_geom_bond_distance
_geom_bond_site_symmetry_2
Al0 O9 1.897495 1_554
Al0 O10 1.897495 1_545
Al0 O2 1.899024 1_545
Al0 O6 1.899024 1_554
Al0 O7 1.913403 1_555
Al0 O3 1.913403 1_544
Al1 O11 1.897495 1_554
Al1 O8 1.897495 1_455
Al1 O3 1.899024 1_454
Al1 O7 1.899024 1_555
Al1 O6 1.913403 1_454
Al1 O2 1.913403 1_555
Al2 O8 1.897495 1_455
Al2 O11 1.897495 1_555
Al2 O4 1.899024 1_455
Al2 O0 1.899024 1_555
Al2 O1 1.913403 1_455
Al2 O5 1.913403 1_555
Al3 O9 1.897495 1_555
Al3 O10 1.897495 1_545
Al3 O5 1.899024 1_545
Al3 O1 1.899024 1_555
Al3 O0 1.913403 1_555
Al3 O4 1.913403 1_545
O0 Tb2 2.298534 1_555
O0 Tb0 2.470938 1_555
O0 Tb1 2.592708 1_555
O1 Tb3 2.298534 1_545
O1 Tb1 2.470938 1_555
O1 Tb0 2.592708 1_655
O2 Tb0 2.298534 1_565
O2 Tb2 2.470938 1_555
O2 Tb3 2.592708 1_454
O3 Tb1 2.298534 1_555
O3 Tb3 2.470938 1_555
O3 Tb2 2.592708 1_556
O4 Tb1 2.298534 1_555
O4 Tb3 2.470938 1_555
O4 Tb2 2.592708 1_555
O5 Tb0 2.298534 1_565
O5 Tb2 2.470938 1_555
O5 Tb3 2.592708 1_455
O6 Tb3 2.298534 1_545
O6 Tb1 2.470938 1_555
O6 Tb0 2.592708 1_656
O7 Tb2 2.298534 1_555
O7 Tb0 2.470938 1_555
O7 Tb1 2.592708 1_554
O8 Tb2 2.265830 1_555
O8 Tb0 2.343715 1_655
O9 Tb3 2.265830 1_445
O9 Tb1 2.343715 1_555
O10 Tb0 2.265830 1_665
O10 Tb2 2.343715 1_555
O11 Tb1 2.265830 1_555
O11 Tb3 2.343715 1_455
