# generated using pymatgen
data_Na5GeP3
_symmetry_space_group_name_H-M   'P 1'
_cell_length_a   7.32421424
_cell_length_b   8.02030305
_cell_length_c   15.33973517
_cell_angle_alpha   58.53972455
_cell_angle_beta   90.00000000
_cell_angle_gamma   90.00000000
_symmetry_Int_Tables_number   1
_chemical_formula_structural   Na5GeP3
_chemical_formula_sum   'Na20 Ge4 P12'
_cell_volume   768.63444262
_cell_formula_units_Z   4
loop_
 _symmetry_equiv_pos_site_id
 _symmetry_equiv_pos_as_xyz
  1  'x, y, z'
loop_
 _atom_site_type_symbol
 _atom_site_label
 _atom_site_symmetry_multiplicity
 _atom_site_fract_x
 _atom_site_fract_y
 _atom_site_fract_z
 _atom_site_occupancy
  Na  Na0  1  0.85164687  0.16701038  0.75798173  1
  Na  Na1  1  0.16304798  0.15915328  0.91886865  1
  Na  Na2  1  0.66304798  0.84084672  0.58113135  1
  Na  Na3  1  0.83695202  0.84084672  0.08113135  1
  Na  Na4  1  0.50630306  0.56159069  0.25804894  1
  Na  Na5  1  0.00630306  0.43840931  0.24195106  1
  Na  Na6  1  0.49369694  0.43840931  0.74195106  1
  Na  Na7  1  0.99369694  0.56159069  0.75804894  1
  Na  Na8  1  0.98296532  0.91366265  0.41242296  1
  Na  Na9  1  0.48296532  0.08633735  0.08757704  1
  Na  Na10  1  0.01703468  0.08633735  0.58757704  1
  Na  Na11  1  0.51703468  0.91366265  0.91242296  1
  Na  Na12  1  0.53270484  0.24813337  0.58426452  1
  Na  Na13  1  0.03270484  0.75186663  0.91573548  1
  Na  Na14  1  0.46729516  0.75186663  0.41573548  1
  Na  Na15  1  0.35164687  0.83298962  0.74201827  1
  Na  Na16  1  0.14835313  0.83298962  0.24201827  1
  Na  Na17  1  0.64835313  0.16701038  0.25798173  1
  Na  Na18  1  0.96729516  0.24813337  0.08426452  1
  Na  Na19  1  0.33695202  0.15915328  0.41886865  1
  Ge  Ge0  1  0.64297959  0.51469264  0.91335070  1
  Ge  Ge1  1  0.14297959  0.48530736  0.58664930  1
  Ge  Ge2  1  0.35702041  0.48530736  0.08664930  1
  Ge  Ge3  1  0.85702041  0.51469264  0.41335070  1
  P  P0  1  0.76262271  0.23723650  0.91889902  1
  P  P1  1  0.76373591  0.81271728  0.27273918  1
  P  P2  1  0.26373591  0.18728272  0.22726082  1
  P  P3  1  0.23626409  0.18728272  0.72726082  1
  P  P4  1  0.18669022  0.47898774  0.43351342  1
  P  P5  1  0.68669022  0.52101226  0.06648658  1
  P  P6  1  0.81330978  0.52101226  0.56648658  1
  P  P7  1  0.31330978  0.47898774  0.93351342  1
  P  P8  1  0.73626409  0.81271728  0.77273918  1
  P  P9  1  0.23737729  0.76276350  0.08110098  1
  P  P10  1  0.26262271  0.76276350  0.58110098  1
  P  P11  1  0.73737729  0.23723650  0.41889902  1
loop_
_geom_bond_atom_site_label_1
_geom_bond_atom_site_label_2
_geom_bond_distance
_geom_bond_site_symmetry_2
Na0 P6 2.839577 1_555
Na0 P3 2.846775 1_655
Na0 P8 2.858027 1_545
Na0 P0 2.878670 1_555
Na1 P3 2.878416 1_555
Na1 P9 2.887609 1_546
Na1 P7 2.905731 1_555
Na1 P0 2.998969 1_455
Na2 P8 2.878416 1_555
Na2 P11 2.887609 1_565
Na2 P6 2.905731 1_555
Na2 P10 2.998969 1_555
Na3 P1 2.878416 1_555
Na3 P0 2.887609 1_564
Na3 P5 2.905731 1_555
Na3 P9 2.998969 1_655
Na4 P1 2.852414 1_555
Na4 P11 3.003299 1_555
Na4 P9 3.046164 1_555
Na4 P4 3.361856 1_555
Na4 P5 3.388893 1_555
Na5 P2 2.852414 1_555
Na5 P9 3.003299 1_555
Na5 P11 3.046164 1_455
Na5 P5 3.361856 1_455
Na5 P4 3.388893 1_555
Na6 P3 2.852414 1_555
Na6 P10 3.003299 1_555
Na6 P0 3.046164 1_555
Na6 P6 3.361856 1_555
Na6 P7 3.388893 1_555
Na7 P8 2.852414 1_555
Na7 P0 3.003299 1_555
Na7 P10 3.046164 1_655
Na7 P7 3.361856 1_655
Na7 P6 3.388893 1_555
Na8 P10 3.014374 1_655
Na8 P6 3.045979 1_555
Na8 P1 3.104139 1_555
Na8 P11 3.201451 1_565
Na8 P2 3.256690 1_665
Na9 P0 3.014374 1_554
Na9 P7 3.045979 1_554
Na9 P2 3.104139 1_555
Na9 P9 3.201451 1_545
Na9 P1 3.256690 1_545
Na10 P11 3.014374 1_455
Na10 P4 3.045979 1_555
Na10 P3 3.104139 1_555
Na10 P10 3.201451 1_545
Na10 P8 3.256690 1_445
Na11 P9 3.014374 1_556
Na11 P5 3.045979 1_556
Na11 P8 3.104139 1_555
Na11 P0 3.201451 1_565
Na11 P3 3.256690 1_565
Na12 P6 2.909487 1_555
Na12 P3 2.940475 1_555
Na12 P11 2.986788 1_555
Na12 P4 3.275530 1_555
Na13 P7 2.909487 1_555
Na13 P8 2.940475 1_455
Na13 P9 2.986788 1_556
Na13 P5 3.275530 1_456
Na14 P4 2.909487 1_555
Na14 P1 2.940475 1_555
Na14 P10 2.986788 1_555
Na14 P6 3.275530 1_555
Na15 P7 2.839577 1_555
Na15 P8 2.846775 1_555
Na15 P3 2.858027 1_565
Na15 P10 2.878670 1_555
Na16 P4 2.839577 1_555
Na16 P1 2.846775 1_455
Na16 P2 2.858027 1_565
Na16 P9 2.878670 1_555
Na17 P5 2.839577 1_555
Na17 P2 2.846775 1_555
Na17 P1 2.858027 1_545
Na17 P11 2.878670 1_555
Na18 P5 2.909487 1_555
Na18 P2 2.940475 1_655
Na18 P0 2.986788 1_554
Na18 P7 3.275530 1_654
Na19 P2 2.878416 1_555
Na19 P10 2.887609 1_545
Na19 P4 2.905731 1_555
Na19 P11 2.998969 1_555
Ge0 P8 2.334733 1_555
Ge0 P0 2.351451 1_555
Ge0 P5 2.397383 1_556
Ge0 P7 2.432154 1_555
Ge1 P3 2.334733 1_555
Ge1 P10 2.351451 1_555
Ge1 P4 2.397383 1_555
Ge1 P6 2.432154 1_455
Ge2 P2 2.334733 1_555
Ge2 P9 2.351451 1_555
Ge2 P7 2.397383 1_554
Ge2 P5 2.432154 1_555
Ge3 P1 2.334733 1_555
Ge3 P11 2.351451 1_555
Ge3 P6 2.397383 1_555
Ge3 P4 2.432154 1_655
