# generated using pymatgen
data_Zn(CrSe2)2
_symmetry_space_group_name_H-M   'P 1'
_cell_length_a   7.45409649
_cell_length_b   7.45411345
_cell_length_c   7.45411528
_cell_angle_alpha   60.00023503
_cell_angle_beta   60.00015618
_cell_angle_gamma   60.00016331
_symmetry_Int_Tables_number   1
_chemical_formula_structural   Zn(CrSe2)2
_chemical_formula_sum   'Zn2 Cr4 Se8'
_cell_volume   292.86935808
_cell_formula_units_Z   2
loop_
 _symmetry_equiv_pos_site_id
 _symmetry_equiv_pos_as_xyz
  1  'x, y, z'
loop_
 _atom_site_type_symbol
 _atom_site_label
 _atom_site_symmetry_multiplicity
 _atom_site_fract_x
 _atom_site_fract_y
 _atom_site_fract_z
 _atom_site_occupancy
  Zn  Zn0  1  0.12500205  0.12500012  0.12499941  1
  Zn  Zn1  1  0.87499789  0.87499893  0.87500069  1
  Cr  Cr0  1  0.49999999  -0.00000015  0.50000006  1
  Cr  Cr1  1  -0.00000005  0.49999991  0.49999997  1
  Cr  Cr2  1  0.50000004  0.49999983  0.49999990  1
  Cr  Cr3  1  0.50000009  0.49999982  0.00000022  1
  Se  Se0  1  0.25958968  0.25958867  0.25958804  1
  Se  Se1  1  0.74041013  0.74041128  0.27876537  1
  Se  Se2  1  0.27876386  0.74041163  0.74041200  1
  Se  Se3  1  0.74040940  0.27876610  0.74041199  1
  Se  Se4  1  0.72123603  0.25958864  0.25958795  1
  Se  Se5  1  0.25959073  0.72123391  0.25958795  1
  Se  Se6  1  0.25958988  0.25958887  0.72123459  1
  Se  Se7  1  0.74041028  0.74041145  0.74041185  1
loop_
_geom_bond_atom_site_label_1
_geom_bond_atom_site_label_2
_geom_bond_distance
_geom_bond_site_symmetry_2
Cr0 Se7 2.538374 1_545
Cr0 Se0 2.538376 1_555
Cr0 Se1 2.538379 1_545
Cr0 Se6 2.538381 1_555
Cr0 Se2 2.538385 1_545
Cr0 Se4 2.538387 1_555
Cr1 Se0 2.538380 1_555
Cr1 Se7 2.538381 1_455
Cr1 Se3 2.538385 1_455
Cr1 Se1 2.538385 1_455
Cr1 Se6 2.538386 1_555
Cr1 Se5 2.538387 1_555
Cr2 Se6 2.538366 1_555
Cr2 Se5 2.538368 1_555
Cr2 Se1 2.538369 1_555
Cr2 Se3 2.538369 1_555
Cr2 Se4 2.538378 1_555
Cr2 Se2 2.538382 1_555
Cr3 Se0 2.538371 1_555
Cr3 Se5 2.538372 1_555
Cr3 Se7 2.538372 1_554
Cr3 Se3 2.538373 1_554
Cr3 Se4 2.538382 1_555
Cr3 Se2 2.538386 1_554
Se0 Zn0 2.457412 1_555
Se1 Zn1 2.457423 1_554
Se2 Zn1 2.457423 1_455
Se3 Zn1 2.457438 1_545
Se4 Zn0 2.457423 1_655
Se5 Zn0 2.457432 1_565
Se6 Zn0 2.457424 1_556
Se7 Zn1 2.457406 1_555
