# generated using pymatgen
data_RbPO3
_symmetry_space_group_name_H-M   'P 1'
_cell_length_a   4.23479786
_cell_length_b   6.48179428
_cell_length_c   13.12275816
_cell_angle_alpha   66.49759589
_cell_angle_beta   90.00000000
_cell_angle_gamma   90.00000000
_symmetry_Int_Tables_number   1
_chemical_formula_structural   RbPO3
_chemical_formula_sum   'Rb4 P4 O12'
_cell_volume   330.32611955
_cell_formula_units_Z   4
loop_
 _symmetry_equiv_pos_site_id
 _symmetry_equiv_pos_as_xyz
  1  'x, y, z'
loop_
 _atom_site_type_symbol
 _atom_site_label
 _atom_site_symmetry_multiplicity
 _atom_site_fract_x
 _atom_site_fract_y
 _atom_site_fract_z
 _atom_site_occupancy
  Rb  Rb0  1  0.13506406  0.68648034  0.09184856  1
  Rb  Rb1  1  0.63506406  0.31351966  0.40815144  1
  Rb  Rb2  1  0.86493594  0.31351966  0.90815144  1
  Rb  Rb3  1  0.36493594  0.68648034  0.59184856  1
  P  P0  1  0.49026232  0.13956369  0.17876597  1
  P  P1  1  0.99026232  0.86043631  0.32123403  1
  P  P2  1  0.50973768  0.86043631  0.82123403  1
  P  P3  1  0.00973768  0.13956369  0.67876597  1
  O  O0  1  0.63855288  0.34907853  0.17625318  1
  O  O1  1  0.13855288  0.65092147  0.32374682  1
  O  O2  1  0.36144712  0.65092147  0.82374682  1
  O  O3  1  0.86144712  0.34907853  0.67625318  1
  O  O4  1  0.33918031  0.13544968  0.07769042  1
  O  O5  1  0.83918031  0.86455032  0.42230958  1
  O  O6  1  0.66081969  0.86455032  0.92230958  1
  O  O7  1  0.16081969  0.13544968  0.57769042  1
  O  O8  1  0.75773263  0.93592083  0.71928215  1
  O  O9  1  0.25773263  0.06407917  0.78071785  1
  O  O10  1  0.24226737  0.06407917  0.28071785  1
  O  O11  1  0.74226737  0.93592083  0.21928215  1
loop_
_geom_bond_atom_site_label_1
_geom_bond_atom_site_label_2
_geom_bond_distance
_geom_bond_site_symmetry_2
O0 P0 1.484581 1_555
O0 Rb0 2.915252 1_655
O0 Rb0 2.936636 1_555
O0 Rb1 2.958826 1_555
O1 P1 1.484581 1_455
O1 Rb1 2.915252 1_555
O1 Rb1 2.936636 1_455
O1 Rb0 2.958826 1_555
O2 P2 1.484581 1_555
O2 Rb2 2.915252 1_455
O2 Rb2 2.936636 1_555
O2 Rb3 2.958826 1_555
O3 P3 1.484581 1_655
O3 Rb3 2.915252 1_555
O3 Rb3 2.936636 1_655
O3 Rb2 2.958826 1_555
O4 P0 1.482423 1_555
O4 Rb2 2.875293 1_454
O4 Rb0 2.969730 1_545
O4 Rb2 3.031680 1_554
O5 P1 1.482423 1_555
O5 Rb3 2.875293 1_555
O5 Rb1 2.969730 1_565
O5 Rb3 3.031680 1_655
O6 P2 1.482423 1_555
O6 Rb0 2.875293 1_656
O6 Rb2 2.969730 1_565
O6 Rb0 3.031680 1_556
O7 P3 1.482423 1_555
O7 Rb1 2.875293 1_555
O7 Rb3 2.969730 1_545
O7 Rb1 3.031680 1_455
O8 P3 1.613742 1_665
O8 P2 1.615608 1_555
O8 Rb3 3.214662 1_555
O9 P2 1.613742 1_545
O9 P3 1.615608 1_555
O9 Rb2 3.214662 1_455
O10 P1 1.613742 1_445
O10 P0 1.615608 1_555
O10 Rb1 3.214662 1_555
O11 P0 1.613742 1_565
O11 P1 1.615608 1_555
O11 Rb0 3.214662 1_655
