# generated using pymatgen
data_U
_symmetry_space_group_name_H-M   'P 1'
_cell_length_a   5.54150412
_cell_length_b   6.47227490
_cell_length_c   9.70021272
_cell_angle_alpha   90.00000000
_cell_angle_beta   90.00000000
_cell_angle_gamma   115.34673871
_symmetry_Int_Tables_number   1
_chemical_formula_structural   U
_chemical_formula_sum   U16
_cell_volume   314.41721719
_cell_formula_units_Z   16
loop_
 _symmetry_equiv_pos_site_id
 _symmetry_equiv_pos_as_xyz
  1  'x, y, z'
loop_
 _atom_site_type_symbol
 _atom_site_label
 _atom_site_symmetry_multiplicity
 _atom_site_fract_x
 _atom_site_fract_y
 _atom_site_fract_z
 _atom_site_occupancy
  U  U0_0  1  0.04813345  0.09626688  0.37500000  1
  U  U0_1  1  0.04813345  0.09626688  0.87500000  1
  U  U0_2  1  0.04813345  0.59626689  0.37500000  1
  U  U0_3  1  0.04813345  0.59626689  0.87500000  1
  U  U0_4  1  0.54813344  0.09626688  0.37500000  1
  U  U0_5  1  0.54813344  0.09626688  0.87500000  1
  U  U0_6  1  0.54813345  0.59626689  0.37500000  1
  U  U0_7  1  0.54813345  0.59626689  0.87500000  1
  U  U1_0  1  0.45186656  0.40373262  0.12500000  1
  U  U1_1  1  0.45186656  0.40373262  0.62500000  1
  U  U1_2  1  0.45186656  0.90373262  0.12500000  1
  U  U1_3  1  0.45186656  0.90373262  0.62500000  1
  U  U1_4  1  0.95186655  0.40373262  0.12500000  1
  U  U1_5  1  0.95186655  0.40373262  0.62500000  1
  U  U1_6  1  0.95186656  0.90373262  0.12500000  1
  U  U1_7  1  0.95186656  0.90373262  0.62500000  1
loop_
_geom_bond_atom_site_label_1
_geom_bond_atom_site_label_2
_geom_bond_distance
_geom_bond_site_symmetry_2
U0_0 U1_7 2.673790 1_445
U0_0 U1_6 2.673790 1_445
U0_0 U0_4 2.770752 1_555
U0_0 U0_4 2.770752 1_455
U0_1 U1_6 2.673790 1_446
U0_1 U1_7 2.673790 1_445
U0_1 U0_5 2.770752 1_555
U0_1 U0_5 2.770752 1_455
U0_2 U1_4 2.673790 1_455
U0_2 U1_5 2.673790 1_455
U0_2 U0_6 2.770752 1_455
U0_2 U0_6 2.770752 1_555
U0_3 U1_4 2.673790 1_456
U0_3 U1_5 2.673790 1_455
U0_3 U0_7 2.770752 1_555
U0_3 U0_7 2.770752 1_455
U0_4 U1_2 2.673790 1_545
U0_4 U1_3 2.673790 1_545
U0_5 U1_2 2.673790 1_546
U0_5 U1_3 2.673790 1_545
U0_6 U1_1 2.673790 1_555
U0_6 U1_0 2.673790 1_555
U0_7 U1_0 2.673790 1_556
U0_7 U1_1 2.673790 1_555
U1_0 U1_4 2.770752 1_555
U1_0 U1_4 2.770752 1_455
U1_1 U1_5 2.770752 1_555
U1_1 U1_5 2.770752 1_455
U1_2 U1_6 2.770752 1_455
U1_2 U1_6 2.770752 1_555
U1_3 U1_7 2.770752 1_455
U1_3 U1_7 2.770752 1_555
