# generated using pymatgen
data_BaZnO2
_symmetry_space_group_name_H-M   'P 1'
_cell_length_a   5.90980663
_cell_length_b   5.90980643
_cell_length_c   6.75263671
_cell_angle_alpha   90.00000000
_cell_angle_beta   90.00000000
_cell_angle_gamma   120.00000104
_symmetry_Int_Tables_number   1
_chemical_formula_structural   BaZnO2
_chemical_formula_sum   'Ba3 Zn3 O6'
_cell_volume   204.24457975
_cell_formula_units_Z   3
loop_
 _symmetry_equiv_pos_site_id
 _symmetry_equiv_pos_as_xyz
  1  'x, y, z'
loop_
 _atom_site_type_symbol
 _atom_site_label
 _atom_site_symmetry_multiplicity
 _atom_site_fract_x
 _atom_site_fract_y
 _atom_site_fract_z
 _atom_site_occupancy
  Ba  Ba0  1  0.65403572  0.00000000  0.83333300  1
  Ba  Ba1  1  -0.00000000  0.65403572  0.16666700  1
  Ba  Ba2  1  0.34596428  0.34596428  0.50000000  1
  Zn  Zn0  1  0.41623821  0.41623821  0.00000000  1
  Zn  Zn1  1  -0.00000000  0.58376179  0.66666700  1
  Zn  Zn2  1  0.58376179  0.00000000  0.33333300  1
  O  O0  1  0.12940896  0.42522116  0.87324555  1
  O  O1  1  0.57477884  0.70418881  0.20657855  1
  O  O2  1  0.29581119  0.87059104  0.53991255  1
  O  O3  1  0.70418881  0.57477884  0.79342145  1
  O  O4  1  0.42522116  0.12940896  0.12675445  1
  O  O5  1  0.87059104  0.29581119  0.46008745  1
loop_
_geom_bond_atom_site_label_1
_geom_bond_atom_site_label_2
_geom_bond_distance
_geom_bond_site_symmetry_2
Ba0 O0 2.687070 1_655
Ba0 O3 2.687073 1_545
Ba0 O2 2.715412 1_545
Ba0 O4 2.715413 1_556
Ba0 O1 2.968010 1_546
Ba0 O5 2.968011 1_555
Ba0 O3 3.269885 1_555
Ba0 O0 3.269888 1_545
Ba1 O4 2.687070 1_565
Ba1 O1 2.687073 1_455
Ba1 O5 2.715412 1_455
Ba1 O0 2.715413 1_554
Ba1 O3 2.968010 1_454
Ba1 O2 2.968011 1_555
Ba1 O1 3.269885 1_555
Ba1 O4 3.269888 1_455
Ba2 O2 2.687068 1_545
Ba2 O5 2.687068 1_455
Ba2 O1 2.715416 1_555
Ba2 O3 2.715416 1_555
Ba2 O4 2.968013 1_555
Ba2 O0 2.968013 1_555
Ba2 O2 3.269891 1_555
Ba2 O5 3.269891 1_555
O0 Zn0 1.923226 1_556
O0 Zn1 2.031059 1_555
O1 Zn2 1.923221 1_565
O1 Zn0 2.031062 1_555
O2 Zn1 1.923224 1_555
O2 Zn2 2.031067 1_565
O3 Zn1 1.923221 1_655
O3 Zn0 2.031062 1_556
O4 Zn0 1.923226 1_555
O4 Zn2 2.031059 1_555
O5 Zn2 1.923224 1_555
O5 Zn1 2.031067 1_655
