# generated using pymatgen
data_U2P2O9
_symmetry_space_group_name_H-M   'P 1'
_cell_length_a   5.73490574
_cell_length_b   5.73490574
_cell_length_c   12.72554422
_cell_angle_alpha   90.00000000
_cell_angle_beta   90.00000000
_cell_angle_gamma   103.73813999
_symmetry_Int_Tables_number   1
_chemical_formula_structural   U2P2O9
_chemical_formula_sum   'U4 P4 O18'
_cell_volume   406.55856935
_cell_formula_units_Z   2
loop_
 _symmetry_equiv_pos_site_id
 _symmetry_equiv_pos_as_xyz
  1  'x, y, z'
loop_
 _atom_site_type_symbol
 _atom_site_label
 _atom_site_symmetry_multiplicity
 _atom_site_fract_x
 _atom_site_fract_y
 _atom_site_fract_z
 _atom_site_occupancy
  U  U0  1  0.20853893  0.79146107  0.43032113  1
  U  U1  1  0.29146107  0.70853893  0.93032113  1
  U  U2  1  0.79146107  0.20853893  0.56967887  1
  U  U3  1  0.70853893  0.29146107  0.06967887  1
  P  P0  1  0.10927388  0.89072612  0.14321764  1
  P  P1  1  0.39072612  0.60927388  0.64321764  1
  P  P2  1  0.89072612  0.10927388  0.85678236  1
  P  P3  1  0.60927388  0.39072612  0.35678236  1
  O  O0  1  0.94233578  0.05766422  0.12304923  1
  O  O1  1  0.55766422  0.44233578  0.62304923  1
  O  O2  1  0.05766422  0.94233578  0.87695077  1
  O  O3  1  0.44233578  0.55766422  0.37695077  1
  O  O4  1  0.50000000  0.50000000  -0.00000000  1
  O  O5  1  0.00000000  -0.00000000  0.50000000  1
  O  O6  1  0.63958836  0.36041164  0.24039022  1
  O  O7  1  0.86041164  0.13958836  0.74039022  1
  O  O8  1  0.85256765  0.48625647  0.41362051  1
  O  O9  1  0.64743235  0.01374353  0.91362051  1
  O  O10  1  0.48625647  0.85256765  0.58637949  1
  O  O11  1  0.01374353  0.64743235  0.08637949  1
  O  O12  1  0.14743235  0.51374353  0.58637949  1
  O  O13  1  0.35256765  0.98625647  0.08637949  1
  O  O14  1  0.51374353  0.14743235  0.41362051  1
  O  O15  1  0.98625647  0.35256765  0.91362051  1
  O  O16  1  0.13958836  0.86041164  0.25960978  1
  O  O17  1  0.36041164  0.63958836  0.75960978  1
loop_
_geom_bond_atom_site_label_1
_geom_bond_atom_site_label_2
_geom_bond_distance
_geom_bond_site_symmetry_2
O0 P0 1.527856 1_645
O0 U3 2.215999 1_555
O1 P1 1.527856 1_555
O1 U2 2.215999 1_555
O2 P2 1.527856 1_465
O2 U1 2.215999 1_555
O3 P3 1.527856 1_555
O3 U0 2.215999 1_555
O4 U1 2.079949 1_554
O4 U3 2.079949 1_555
O5 U0 2.079949 1_545
O5 U2 2.079949 1_455
O6 P3 1.506193 1_555
O6 U3 2.259710 1_555
O7 P2 1.506193 1_555
O7 U2 2.259710 1_555
O8 P3 1.551452 1_555
O8 U0 2.362030 1_655
O8 U2 2.517590 1_555
O9 P2 1.551452 1_555
O9 U1 2.362030 1_545
O9 U3 2.517590 1_556
O10 P1 1.551452 1_555
O10 U2 2.362030 1_565
O10 U0 2.517590 1_555
O11 P0 1.551452 1_555
O11 U3 2.362030 1_455
O11 U1 2.517590 1_554
O12 P1 1.551452 1_555
O12 U2 2.362030 1_455
O12 U0 2.517590 1_555
O13 P0 1.551452 1_555
O13 U3 2.362030 1_565
O13 U1 2.517590 1_554
O14 P3 1.551452 1_555
O14 U0 2.362030 1_545
O14 U2 2.517590 1_555
O15 P2 1.551452 1_555
O15 U1 2.362030 1_655
O15 U3 2.517590 1_556
O16 P0 1.506193 1_555
O16 U0 2.259710 1_555
O17 P1 1.506193 1_555
O17 U1 2.259710 1_555
