# generated using pymatgen
data_Pr(P3Ru)4
_symmetry_space_group_name_H-M   'P 1'
_cell_length_a   6.99066680
_cell_length_b   6.99066680
_cell_length_c   6.99066680
_cell_angle_alpha   109.47122063
_cell_angle_beta   109.47122063
_cell_angle_gamma   109.47122063
_symmetry_Int_Tables_number   1
_chemical_formula_structural   Pr(P3Ru)4
_chemical_formula_sum   'Pr1 P12 Ru4'
_cell_volume   262.98677990
_cell_formula_units_Z   1
loop_
 _symmetry_equiv_pos_site_id
 _symmetry_equiv_pos_as_xyz
  1  'x, y, z'
loop_
 _atom_site_type_symbol
 _atom_site_label
 _atom_site_symmetry_multiplicity
 _atom_site_fract_x
 _atom_site_fract_y
 _atom_site_fract_z
 _atom_site_occupancy
  Pr  Pr0  1  -0.00000000  0.00000000  0.00000000  1
  P  P0  1  0.78502510  0.14340293  0.64162218  1
  P  P1  1  0.21497490  0.85659707  0.35837782  1
  P  P2  1  0.49821925  0.85659707  0.64162218  1
  P  P3  1  0.85659707  0.35837782  0.21497490  1
  P  P4  1  0.64162218  0.49821925  0.85659707  1
  P  P5  1  0.35837782  0.21497490  0.85659707  1
  P  P6  1  0.14340293  0.64162218  0.78502510  1
  P  P7  1  0.64162218  0.78502510  0.14340293  1
  P  P8  1  0.85659707  0.64162218  0.49821925  1
  P  P9  1  0.14340293  0.35837782  0.50178075  1
  P  P10  1  0.50178075  0.14340293  0.35837782  1
  P  P11  1  0.35837782  0.50178075  0.14340293  1
  Ru  Ru0  1  -0.00000000  0.50000000  0.00000000  1
  Ru  Ru1  1  0.50000000  0.00000000  0.00000000  1
  Ru  Ru2  1  -0.00000000  0.00000000  0.50000000  1
  Ru  Ru3  1  0.50000000  0.50000000  0.50000000  1
loop_
_geom_bond_atom_site_label_1
_geom_bond_atom_site_label_2
_geom_bond_distance
_geom_bond_site_symmetry_2
P0 P10 2.286384 1_555
P0 P2 2.315133 1_545
P0 Ru0 2.361821 1_656
P0 Ru2 2.361821 1_655
P0 Pr0 3.115873 1_656
P1 P2 2.286384 1_555
P1 P10 2.315133 1_565
P1 Ru0 2.361821 1_555
P1 Ru2 2.361821 1_565
P1 Pr0 3.115873 1_565
P2 Ru3 2.361821 1_555
P2 Ru1 2.361821 1_566
P2 Pr0 3.115873 1_666
P3 P8 2.286384 1_555
P3 P9 2.315133 1_655
P3 Ru1 2.361821 1_555
P3 Ru0 2.361821 1_655
P3 Pr0 3.115873 1_655
P4 P5 2.286384 1_555
P4 P7 2.315133 1_556
P4 Ru3 2.361821 1_555
P4 Ru0 2.361821 1_656
P4 Pr0 3.115873 1_666
P5 Ru2 2.361821 1_555
P5 Ru1 2.361821 1_556
P5 Pr0 3.115873 1_556
P6 P9 2.286384 1_555
P6 P8 2.315133 1_455
P6 Ru1 2.361821 1_566
P6 Ru0 2.361821 1_556
P6 Pr0 3.115873 1_566
P7 Ru2 2.361821 1_665
P7 Ru1 2.361821 1_565
P7 Pr0 3.115873 1_665
P8 Ru3 2.361821 1_555
P8 Ru2 2.361821 1_665
P8 Pr0 3.115873 1_666
P9 Ru3 2.361821 1_555
P9 Ru2 2.361821 1_555
P9 Pr0 3.115873 1_555
P10 Ru3 2.361821 1_555
P10 Ru1 2.361821 1_555
P10 Pr0 3.115873 1_555
P11 P7 2.286384 1_555
P11 P5 2.315133 1_554
P11 Ru3 2.361821 1_555
P11 Ru0 2.361821 1_555
P11 Pr0 3.115873 1_555
