# generated using pymatgen
data_Sr5V3O12F
_symmetry_space_group_name_H-M   'P 1'
_cell_length_a   10.14117014
_cell_length_b   10.14117014
_cell_length_c   7.51826600
_cell_angle_alpha   90.00000000
_cell_angle_beta   90.00000000
_cell_angle_gamma   120.00000088
_symmetry_Int_Tables_number   1
_chemical_formula_structural   Sr5V3O12F
_chemical_formula_sum   'Sr10 V6 O24 F2'
_cell_volume   669.61388822
_cell_formula_units_Z   2
loop_
 _symmetry_equiv_pos_site_id
 _symmetry_equiv_pos_as_xyz
  1  'x, y, z'
loop_
 _atom_site_type_symbol
 _atom_site_label
 _atom_site_symmetry_multiplicity
 _atom_site_fract_x
 _atom_site_fract_y
 _atom_site_fract_z
 _atom_site_occupancy
  Sr  Sr0  1  0.76095000  0.75097400  0.75000000  1
  Sr  Sr1  1  0.24902600  0.00997600  0.75000000  1
  Sr  Sr2  1  0.99002400  0.23905000  0.75000000  1
  Sr  Sr3  1  0.23905000  0.24902600  0.25000000  1
  Sr  Sr4  1  0.75097400  0.99002400  0.25000000  1
  Sr  Sr5  1  0.00997600  0.76095000  0.25000000  1
  Sr  Sr6  1  0.66666700  0.33333300  0.50055000  1
  Sr  Sr7  1  0.33333300  0.66666700  0.00055000  1
  Sr  Sr8  1  0.33333300  0.66666700  0.49945000  1
  Sr  Sr9  1  0.66666700  0.33333300  0.99945000  1
  V  V0  1  0.60154500  0.97000200  0.75000000  1
  V  V1  1  0.02999800  0.63154300  0.75000000  1
  V  V2  1  0.36845700  0.39845500  0.75000000  1
  V  V3  1  0.39845500  0.02999800  0.25000000  1
  V  V4  1  0.97000200  0.36845700  0.25000000  1
  V  V5  1  0.63154300  0.60154500  0.25000000  1
  O  O0  1  0.40205100  0.87358500  0.75000000  1
  O  O1  1  0.12641500  0.52846600  0.75000000  1
  O  O2  1  0.47153400  0.59794900  0.75000000  1
  O  O3  1  0.59794900  0.12641500  0.25000000  1
  O  O4  1  0.87358500  0.47153400  0.25000000  1
  O  O5  1  0.52846600  0.40205100  0.25000000  1
  O  O6  1  0.68422000  0.16844900  0.75000000  1
  O  O7  1  0.83155100  0.51577100  0.75000000  1
  O  O8  1  0.48422900  0.31578000  0.75000000  1
  O  O9  1  0.31578000  0.83155100  0.25000000  1
  O  O10  1  0.16844900  0.48422900  0.25000000  1
  O  O11  1  0.51577100  0.68422000  0.25000000  1
  O  O12  1  0.65990200  0.90899100  0.56665300  1
  O  O13  1  0.09100900  0.75091000  0.56665300  1
  O  O14  1  0.24909000  0.34009800  0.56665300  1
  O  O15  1  0.34009800  0.09100900  0.06665300  1
  O  O16  1  0.90899100  0.24909000  0.06665300  1
  O  O17  1  0.75091000  0.65990200  0.06665300  1
  O  O18  1  0.34009800  0.09100900  0.43334700  1
  O  O19  1  0.90899100  0.24909000  0.43334700  1
  O  O20  1  0.75091000  0.65990200  0.43334700  1
  O  O21  1  0.65990200  0.90899100  0.93334700  1
  O  O22  1  0.09100900  0.75091000  0.93334700  1
  O  O23  1  0.24909000  0.34009800  0.93334700  1
  F  F0  1  0.00000000  0.00000000  0.75000000  1
  F  F1  1  0.00000000  0.00000000  0.25000000  1
loop_
_geom_bond_atom_site_label_1
_geom_bond_atom_site_label_2
_geom_bond_distance
_geom_bond_site_symmetry_2
O0 V0 1.752384 1_555
O0 Sr1 2.543198 1_565
O0 Sr8 2.641002 1_555
O0 Sr7 2.641002 1_556
O1 V1 1.752384 1_555
O1 Sr2 2.543198 1_455
O1 Sr8 2.641003 1_555
O1 Sr7 2.641003 1_556
O2 V2 1.752384 1_555
O2 Sr0 2.543198 1_555
O2 Sr7 2.641008 1_556
O2 Sr8 2.641008 1_555
O3 V3 1.752384 1_555
O3 Sr4 2.543198 1_545
O3 Sr9 2.641002 1_554
O3 Sr6 2.641002 1_555
O4 V4 1.752384 1_555
O4 Sr5 2.543198 1_655
O4 Sr9 2.641003 1_554
O4 Sr6 2.641003 1_555
O5 V5 1.752384 1_555
O5 Sr3 2.543198 1_555
O5 Sr6 2.641008 1_555
O5 Sr9 2.641008 1_554
O6 V0 1.750924 1_545
O6 Sr9 2.577315 1_555
O6 Sr6 2.577315 1_555
O6 Sr2 2.812425 1_555
O7 V1 1.750924 1_655
O7 Sr9 2.577319 1_555
O7 Sr6 2.577319 1_555
O7 Sr0 2.812425 1_555
O8 V2 1.750924 1_555
O8 Sr9 2.577322 1_555
O8 Sr6 2.577322 1_555
O8 Sr1 2.812425 1_555
O9 V3 1.750924 1_565
O9 Sr8 2.577315 1_555
O9 Sr7 2.577315 1_555
O9 Sr5 2.812425 1_555
O10 V4 1.750924 1_455
O10 Sr7 2.577319 1_555
O10 Sr8 2.577319 1_555
O10 Sr3 2.812425 1_555
O11 V5 1.750924 1_555
O11 Sr8 2.577322 1_555
O11 Sr7 2.577322 1_555
O11 Sr4 2.812425 1_555
O12 V0 1.731863 1_555
O12 Sr4 2.537120 1_555
O12 Sr0 2.675873 1_555
O12 Sr8 3.020553 1_555
O13 V1 1.731858 1_555
O13 Sr5 2.537122 1_555
O13 Sr1 2.675880 1_565
O13 Sr8 3.020539 1_555
O14 V2 1.731858 1_555
O14 Sr3 2.537118 1_555
O14 Sr2 2.675881 1_455
O14 Sr8 3.020558 1_555
O15 V3 1.731863 1_555
O15 Sr1 2.537120 1_554
O15 Sr3 2.675873 1_555
O15 Sr9 3.020553 1_554
O16 V4 1.731858 1_555
O16 Sr2 2.537122 1_554
O16 Sr4 2.675880 1_545
O16 Sr9 3.020539 1_554
O17 V5 1.731858 1_555
O17 Sr0 2.537118 1_554
O17 Sr5 2.675881 1_655
O17 Sr9 3.020558 1_554
O18 V3 1.731863 1_555
O18 Sr1 2.537120 1_555
O18 Sr3 2.675873 1_555
O18 Sr6 3.020553 1_555
O19 V4 1.731858 1_555
O19 Sr2 2.537122 1_555
O19 Sr4 2.675880 1_545
O19 Sr6 3.020539 1_555
O20 V5 1.731858 1_555
O20 Sr0 2.537118 1_555
O20 Sr5 2.675881 1_655
O20 Sr6 3.020558 1_555
O21 V0 1.731863 1_555
O21 Sr4 2.537120 1_556
O21 Sr0 2.675873 1_555
O21 Sr7 3.020553 1_556
O22 V1 1.731858 1_555
O22 Sr5 2.537122 1_556
O22 Sr1 2.675880 1_565
O22 Sr7 3.020539 1_556
O23 V2 1.731858 1_555
O23 Sr3 2.537118 1_556
O23 Sr2 2.675881 1_455
O23 Sr7 3.020558 1_556
F0 Sr0 2.476381 1_445
F0 Sr1 2.476381 1_555
F0 Sr2 2.476381 1_455
F1 Sr3 2.476381 1_555
F1 Sr4 2.476381 1_445
F1 Sr5 2.476381 1_545
