# generated using pymatgen
data_CuTeO3
_symmetry_space_group_name_H-M   'P 1'
_cell_length_a   6.01691400
_cell_length_b   7.67781900
_cell_length_c   12.88292400
_cell_angle_alpha   90.00000000
_cell_angle_beta   90.00000000
_cell_angle_gamma   90.00000000
_symmetry_Int_Tables_number   1
_chemical_formula_structural   CuTeO3
_chemical_formula_sum   'Cu8 Te8 O24'
_cell_volume   595.14956238
_cell_formula_units_Z   8
loop_
 _symmetry_equiv_pos_site_id
 _symmetry_equiv_pos_as_xyz
  1  'x, y, z'
loop_
 _atom_site_type_symbol
 _atom_site_label
 _atom_site_symmetry_multiplicity
 _atom_site_fract_x
 _atom_site_fract_y
 _atom_site_fract_z
 _atom_site_occupancy
  Cu  Cu0  1  0.35001300  0.95537500  0.09526800  1
  Cu  Cu1  1  0.85001300  0.04462500  0.40473200  1
  Cu  Cu2  1  0.64998700  0.45537500  0.90473200  1
  Cu  Cu3  1  0.14998700  0.54462500  0.59526800  1
  Cu  Cu4  1  0.64998700  0.04462500  0.90473200  1
  Cu  Cu5  1  0.14998700  0.95537500  0.59526800  1
  Cu  Cu6  1  0.35001300  0.54462500  0.09526800  1
  Cu  Cu7  1  0.85001300  0.45537500  0.40473200  1
  Te  Te0  1  0.58600400  0.25000000  0.65597300  1
  Te  Te1  1  0.08600400  0.75000000  0.84402700  1
  Te  Te2  1  0.41399600  0.75000000  0.34402700  1
  Te  Te3  1  0.91399600  0.25000000  0.15597300  1
  Te  Te4  1  0.67918300  0.75000000  0.61122500  1
  Te  Te5  1  0.17918300  0.25000000  0.88877500  1
  Te  Te6  1  0.32081700  0.25000000  0.38877500  1
  Te  Te7  1  0.82081700  0.75000000  0.11122500  1
  O  O0  1  0.94339900  0.25000000  0.98994700  1
  O  O1  1  0.44339900  0.75000000  0.51005300  1
  O  O2  1  0.05660100  0.75000000  0.01005300  1
  O  O3  1  0.55660100  0.25000000  0.48994700  1
  O  O4  1  0.57578900  0.25000000  0.81900600  1
  O  O5  1  0.07578900  0.75000000  0.68099400  1
  O  O6  1  0.42421100  0.75000000  0.18099400  1
  O  O7  1  0.92421100  0.25000000  0.31900600  1
  O  O8  1  0.09722900  0.04696000  0.16803300  1
  O  O9  1  0.59722900  0.95304000  0.33196700  1
  O  O10  1  0.90277100  0.54696000  0.83196700  1
  O  O11  1  0.40277100  0.45304000  0.66803300  1
  O  O12  1  0.90277100  0.95304000  0.83196700  1
  O  O13  1  0.40277100  0.04696000  0.66803300  1
  O  O14  1  0.09722900  0.45304000  0.16803300  1
  O  O15  1  0.59722900  0.54696000  0.33196700  1
  O  O16  1  0.65404200  0.56877100  0.04160500  1
  O  O17  1  0.15404200  0.43122900  0.45839500  1
  O  O18  1  0.34595800  0.06877100  0.95839500  1
  O  O19  1  0.84595800  0.93122900  0.54160500  1
  O  O20  1  0.34595800  0.43122900  0.95839500  1
  O  O21  1  0.84595800  0.56877100  0.54160500  1
  O  O22  1  0.65404200  0.93122900  0.04160500  1
  O  O23  1  0.15404200  0.06877100  0.45839500  1
loop_
_geom_bond_atom_site_label_1
_geom_bond_atom_site_label_2
_geom_bond_distance
_geom_bond_site_symmetry_2
Cu0 O8 1.920052 1_565
Cu0 O22 1.964361 1_555
Cu0 O18 1.966701 1_564
Cu0 O6 1.976212 1_555
Cu0 O2 2.609284 1_555
Cu1 O9 1.920052 1_545
Cu1 O23 1.964361 1_655
Cu1 O19 1.966701 1_545
Cu1 O7 1.976212 1_555
Cu1 O3 2.609284 1_555
Cu2 O10 1.920052 1_555
Cu2 O20 1.964361 1_555
Cu2 O16 1.966701 1_556
Cu2 O4 1.976212 1_555
Cu2 O0 2.609284 1_555
Cu3 O11 1.920052 1_555
Cu3 O21 1.964361 1_455
Cu3 O17 1.966701 1_555
Cu3 O5 1.976212 1_555
Cu3 O1 2.609284 1_555
Cu4 O12 1.920052 1_545
Cu4 O18 1.964361 1_555
Cu4 O22 1.966701 1_546
Cu4 O4 1.976212 1_555
Cu4 O0 2.609284 1_555
Cu5 O13 1.920052 1_565
Cu5 O19 1.964361 1_455
Cu5 O23 1.966701 1_565
Cu5 O5 1.976212 1_555
Cu5 O1 2.609284 1_555
Cu6 O14 1.920052 1_555
Cu6 O16 1.964361 1_555
Cu6 O20 1.966701 1_554
Cu6 O6 1.976212 1_555
Cu6 O2 2.609284 1_555
Cu7 O15 1.920052 1_555
Cu7 O17 1.964361 1_655
Cu7 O21 1.966701 1_555
Cu7 O7 1.976212 1_555
Cu7 O3 2.609284 1_555
O0 Te5 1.926529 1_655
O0 Te3 2.146204 1_556
O1 Te4 1.926529 1_555
O1 Te2 2.146204 1_555
O2 Te7 1.926529 1_455
O2 Te1 2.146204 1_554
O3 Te6 1.926529 1_555
O3 Te0 2.146204 1_555
O4 Te0 2.101241 1_555
O4 Te5 2.550006 1_555
O5 Te1 2.101241 1_555
O5 Te4 2.550006 1_455
O6 Te2 2.101241 1_555
O6 Te7 2.550006 1_555
O7 Te3 2.101241 1_555
O7 Te6 2.550006 1_655
O8 Te3 1.915678 1_455
O9 Te2 1.915678 1_555
O10 Te1 1.915678 1_655
O11 Te0 1.915678 1_555
O12 Te1 1.915678 1_655
O13 Te0 1.915678 1_555
O14 Te3 1.915678 1_455
O15 Te2 1.915678 1_555
O16 Te7 1.935850 1_555
O17 Te6 1.935850 1_555
O18 Te5 1.935850 1_555
O19 Te4 1.935850 1_555
O20 Te5 1.935850 1_555
O21 Te4 1.935850 1_555
O22 Te7 1.935850 1_555
O23 Te6 1.935850 1_555
