# generated using pymatgen
data_Na4BeAlSi4ClO12
_symmetry_space_group_name_H-M   'P 1'
_cell_length_a   7.71393646
_cell_length_b   7.71393646
_cell_length_c   12.61334228
_cell_angle_alpha   89.95046724
_cell_angle_beta   89.95046724
_cell_angle_gamma   109.88090522
_symmetry_Int_Tables_number   1
_chemical_formula_structural   Na4BeAlSi4ClO12
_chemical_formula_sum   'Na8 Be2 Al2 Si8 Cl2 O24'
_cell_volume   705.82188868
_cell_formula_units_Z   2
loop_
 _symmetry_equiv_pos_site_id
 _symmetry_equiv_pos_as_xyz
  1  'x, y, z'
loop_
 _atom_site_type_symbol
 _atom_site_label
 _atom_site_symmetry_multiplicity
 _atom_site_fract_x
 _atom_site_fract_y
 _atom_site_fract_z
 _atom_site_occupancy
  Na  Na0  1  0.18901700  0.70726500  0.82156700  1
  Na  Na1  1  0.13638100  0.02358300  0.48948600  1
  Na  Na2  1  0.66265000  0.17882800  0.69052000  1
  Na  Na3  1  0.70726500  0.18901700  0.32156700  1
  Na  Na4  1  0.17882800  0.66265000  0.19052000  1
  Na  Na5  1  0.48294400  0.62458400  0.49675000  1
  Na  Na6  1  0.02358300  0.13638100  0.98948600  1
  Na  Na7  1  0.62458400  0.48294400  0.99675000  1
  Be  Be0  1  0.37118500  0.12439600  0.87882600  1
  Be  Be1  1  0.12439600  0.37118500  0.37882600  1
  Al  Al0  1  0.87748400  0.63153800  0.62233300  1
  Al  Al1  1  0.63153800  0.87748400  0.12233300  1
  Si  Si0  1  0.00490400  0.00852500  0.74924900  1
  Si  Si1  1  0.61544800  0.87574800  0.87059000  1
  Si  Si2  1  0.48942500  0.49675200  0.25483000  1
  Si  Si3  1  0.12504100  0.37925800  0.62463800  1
  Si  Si4  1  0.87574800  0.61544800  0.37059000  1
  Si  Si5  1  0.49675200  0.48942500  0.75483000  1
  Si  Si6  1  0.00852500  0.00490400  0.24924900  1
  Si  Si7  1  0.37925800  0.12504100  0.12463800  1
  Cl  Cl0  1  0.49933600  0.99978000  0.50025500  1
  Cl  Cl1  1  0.99978000  0.49933600  0.00025500  1
  O  O0  1  0.50267900  0.69605500  0.79547200  1
  O  O1  1  0.83620500  0.95065100  0.83800000  1
  O  O2  1  0.53018500  0.03455700  0.84908800  1
  O  O3  1  0.00397600  0.21046000  0.70470300  1
  O  O4  1  0.01184600  0.18755900  0.30974000  1
  O  O5  1  0.18755900  0.01184600  0.80974000  1
  O  O6  1  0.10393500  0.31161300  0.50429600  1
  O  O7  1  0.34558000  0.44696200  0.35078400  1
  O  O8  1  0.03455700  0.53018500  0.34908800  1
  O  O9  1  0.44696200  0.34558000  0.85078400  1
  O  O10  1  0.50048400  0.69156100  0.20047900  1
  O  O11  1  0.06062800  0.55419800  0.65257500  1
  O  O12  1  0.69605500  0.50267900  0.29547200  1
  O  O13  1  0.60511800  0.79803600  0.99121500  1
  O  O14  1  0.69156100  0.50048400  0.70047900  1
  O  O15  1  0.34636600  0.44138500  0.65629700  1
  O  O16  1  0.79803600  0.60511800  0.49121500  1
  O  O17  1  0.86907500  0.95681400  0.14830600  1
  O  O18  1  0.95681400  0.86907500  0.64830600  1
  O  O19  1  0.55419800  0.06062800  0.15257500  1
  O  O20  1  0.95065100  0.83620500  0.33800000  1
  O  O21  1  0.21046000  0.00397600  0.20470300  1
  O  O22  1  0.31161300  0.10393500  0.00429600  1
  O  O23  1  0.44138500  0.34636600  0.15629700  1
loop_
_geom_bond_atom_site_label_1
_geom_bond_atom_site_label_2
_geom_bond_distance
_geom_bond_site_symmetry_2
Na0 O5 2.357962 1_565
Na0 O0 2.472064 1_555
Na0 O11 2.476128 1_555
Na1 O6 2.326584 1_555
Na1 O18 2.494087 1_445
Na1 O20 2.528614 1_445
Na2 O2 2.345664 1_555
Na2 O14 2.417906 1_555
Na2 O3 2.566708 1_655
Na3 O4 2.357962 1_655
Na3 O12 2.472064 1_555
Na3 O19 2.476128 1_555
Na4 O8 2.345664 1_555
Na4 O10 2.417906 1_555
Na4 O21 2.566708 1_565
Na5 O7 2.325972 1_555
Na5 O15 2.477034 1_555
Na5 O16 2.486603 1_555
Na6 O22 2.326584 1_556
Na6 O17 2.494087 1_446
Na6 O1 2.528614 1_445
Na7 O9 2.325972 1_555
Na7 O23 2.477034 1_556
Na7 O13 2.486603 1_555
Be0 O5 1.639073 1_555
Be0 O22 1.640023 1_556
Be0 O9 1.642615 1_555
Be0 O2 1.644100 1_555
Be1 O4 1.639073 1_555
Be1 O6 1.640023 1_555
Be1 O7 1.642615 1_555
Be1 O8 1.644100 1_555
Al0 O14 1.749346 1_555
Al0 O16 1.752053 1_555
Al0 O11 1.752459 1_655
Al0 O18 1.754437 1_555
Al1 O10 1.749346 1_555
Al1 O13 1.752053 1_554
Al1 O19 1.752459 1_565
Al1 O17 1.754437 1_555
Cl0 Na2 2.842824 1_565
Cl0 Na5 2.854099 1_555
Cl0 Na3 2.859900 1_565
Cl0 Na1 2.870779 1_565
Cl1 Na4 2.842824 1_655
Cl1 Na7 2.854099 1_554
Cl1 Na0 2.859900 1_654
Cl1 Na6 2.870779 1_654
O0 Si5 1.660538 1_555
O0 Si1 1.661153 1_555
O1 Si1 1.652842 1_555
O1 Si0 1.657535 1_665
O2 Si1 1.598314 1_545
O3 Si0 1.657801 1_555
O3 Si3 1.660278 1_555
O4 Si6 1.595434 1_555
O5 Si0 1.595434 1_555
O6 Si3 1.595893 1_555
O7 Si2 1.597059 1_555
O8 Si4 1.598314 1_455
O9 Si5 1.597059 1_555
O10 Si2 1.626782 1_555
O11 Si3 1.627485 1_555
O12 Si2 1.660538 1_555
O12 Si4 1.661153 1_555
O13 Si1 1.626760 1_555
O14 Si5 1.626782 1_555
O15 Si5 1.654877 1_555
O15 Si3 1.658006 1_555
O16 Si4 1.626760 1_555
O17 Si6 1.627161 1_665
O18 Si0 1.627161 1_665
O19 Si7 1.627485 1_555
O20 Si4 1.652842 1_555
O20 Si6 1.657535 1_665
O21 Si6 1.657801 1_555
O21 Si7 1.660278 1_555
O22 Si7 1.595893 1_555
O23 Si2 1.654877 1_555
O23 Si7 1.658006 1_555
