# generated using pymatgen
data_Y(SiPd)2
_symmetry_space_group_name_H-M   'P 1'
_cell_length_a   4.13834624
_cell_length_b   4.13834558
_cell_length_c   5.76029411
_cell_angle_alpha   111.05188457
_cell_angle_beta   111.05188464
_cell_angle_gamma   90.00000789
_symmetry_Int_Tables_number   1
_chemical_formula_structural   Y(SiPd)2
_chemical_formula_sum   'Y1 Si2 Pd2'
_cell_volume   84.97285301
_cell_formula_units_Z   1
loop_
 _symmetry_equiv_pos_site_id
 _symmetry_equiv_pos_as_xyz
  1  'x, y, z'
loop_
 _atom_site_type_symbol
 _atom_site_label
 _atom_site_symmetry_multiplicity
 _atom_site_fract_x
 _atom_site_fract_y
 _atom_site_fract_z
 _atom_site_occupancy
  Y  Y0  1  -0.00000000  -0.00000000  0.00000000  1
  Si  Si0  1  0.61677416  0.61677416  0.23354732  1
  Si  Si1  1  0.38322584  0.38322584  0.76645268  1
  Pd  Pd0  1  0.25000000  0.75000000  0.50000000  1
  Pd  Pd1  1  0.75000000  0.25000000  0.50000000  1
loop_
_geom_bond_atom_site_label_1
_geom_bond_atom_site_label_2
_geom_bond_distance
_geom_bond_site_symmetry_2
Si0 Si1 2.317563 1_554
Si0 Y0 3.147334 1_665
Si0 Y0 3.147337 1_655
Si0 Y0 3.147337 1_565
Si0 Y0 3.147339 1_555
Si1 Y0 3.147334 1_556
Si1 Y0 3.147337 1_566
Si1 Y0 3.147337 1_656
Si1 Y0 3.147339 1_666
Pd0 Si1 2.455458 1_565
Pd0 Si0 2.455458 1_455
Pd0 Si1 2.455462 1_555
Pd0 Si0 2.455462 1_555
Pd0 Y0 3.230477 1_555
Pd0 Y0 3.230477 1_666
Pd0 Y0 3.230478 1_565
Pd0 Y0 3.230478 1_566
Pd1 Si0 2.455458 1_545
Pd1 Si1 2.455458 1_655
Pd1 Si0 2.455462 1_555
Pd1 Si1 2.455462 1_555
Pd1 Y0 3.230477 1_666
Pd1 Y0 3.230477 1_555
Pd1 Y0 3.230478 1_656
Pd1 Y0 3.230478 1_655
