# generated using pymatgen
data_BMo2C
_symmetry_space_group_name_H-M   'P 1'
_cell_length_a   8.90755537
_cell_length_b   8.90755537
_cell_length_c   3.07699800
_cell_angle_alpha   90.00000000
_cell_angle_beta   90.00000000
_cell_angle_gamma   159.85747700
_symmetry_Int_Tables_number   1
_chemical_formula_structural   BMo2C
_chemical_formula_sum   'B2 Mo4 C2'
_cell_volume   84.07224434
_cell_formula_units_Z   2
loop_
 _symmetry_equiv_pos_site_id
 _symmetry_equiv_pos_as_xyz
  1  'x, y, z'
loop_
 _atom_site_type_symbol
 _atom_site_label
 _atom_site_symmetry_multiplicity
 _atom_site_fract_x
 _atom_site_fract_y
 _atom_site_fract_z
 _atom_site_occupancy
  B  B0  1  0.52794700  0.47205300  0.75000000  1
  B  B1  1  0.47205300  0.52794700  0.25000000  1
  Mo  Mo0  1  0.31454000  0.68546100  0.25000000  1
  Mo  Mo1  1  0.68546100  0.31453900  0.75000000  1
  Mo  Mo2  1  0.07188800  0.92811200  0.25000000  1
  Mo  Mo3  1  0.92811200  0.07188800  0.75000000  1
  C  C0  1  0.80877800  0.19122200  0.75000000  1
  C  C1  1  0.19122200  0.80877800  0.25000000  1
loop_
_geom_bond_atom_site_label_1
_geom_bond_atom_site_label_2
_geom_bond_distance
_geom_bond_site_symmetry_2
B0 B1 1.824333 1_556
B0 B1 1.824333 1_555
B0 Mo2 2.321085 1_656
B0 Mo2 2.321085 1_655
B0 Mo2 2.321085 1_545
B0 Mo2 2.321085 1_546
B0 Mo3 2.343711 1_565
B0 Mo3 2.343711 1_455
B0 Mo1 2.762890 1_555
B1 Mo3 2.321085 1_565
B1 Mo3 2.321085 1_564
B1 Mo3 2.321085 1_454
B1 Mo3 2.321085 1_455
B1 Mo2 2.343711 1_655
B1 Mo2 2.343711 1_545
B1 Mo0 2.762881 1_555
C0 Mo3 2.093190 1_555
C0 Mo1 2.163054 1_555
C0 Mo0 2.191708 1_546
C0 Mo0 2.191708 1_545
C0 Mo0 2.191711 1_655
C0 Mo0 2.191711 1_656
C1 Mo2 2.093190 1_555
C1 Mo0 2.163063 1_555
C1 Mo1 2.191709 1_455
C1 Mo1 2.191709 1_565
C1 Mo1 2.191709 1_454
C1 Mo1 2.191709 1_564
