# generated using pymatgen
data_ZnSiH12(OF)6
_symmetry_space_group_name_H-M   'P 1'
_cell_length_a   6.42232200
_cell_length_b   6.42232200
_cell_length_c   6.42232241
_cell_angle_alpha   96.23886619
_cell_angle_beta   96.23886619
_cell_angle_gamma   96.23886991
_symmetry_Int_Tables_number   1
_chemical_formula_structural   ZnSiH12(OF)6
_chemical_formula_sum   'Zn1 Si1 H12 O6 F6'
_cell_volume   259.81517504
_cell_formula_units_Z   1
loop_
 _symmetry_equiv_pos_site_id
 _symmetry_equiv_pos_as_xyz
  1  'x, y, z'
loop_
 _atom_site_type_symbol
 _atom_site_label
 _atom_site_symmetry_multiplicity
 _atom_site_fract_x
 _atom_site_fract_y
 _atom_site_fract_z
 _atom_site_occupancy
  Zn  Zn0  1  0.00000000  0.00000000  0.00000000  1
  Si  Si0  1  0.50000000  0.50000000  0.50000000  1
  H  H0  1  0.94477200  0.60061200  0.79265200  1
  H  H1  1  0.81162900  0.31713800  0.19600400  1
  H  H2  1  0.80399600  0.18837100  0.68286200  1
  H  H3  1  0.79265200  0.94477200  0.60061200  1
  H  H4  1  0.68286200  0.80399600  0.18837100  1
  H  H5  1  0.60061200  0.79265200  0.94477200  1
  H  H6  1  0.39938800  0.20734800  0.05522800  1
  H  H7  1  0.31713800  0.19600400  0.81162900  1
  H  H8  1  0.20734800  0.05522800  0.39938800  1
  H  H9  1  0.19600400  0.81162900  0.31713800  1
  H  H10  1  0.18837100  0.68286200  0.80399600  1
  H  H11  1  0.05522800  0.39938800  0.20734800  1
  O  O0  1  0.93889500  0.30201300  0.12596800  1
  O  O1  1  0.87403200  0.06110500  0.69798700  1
  O  O2  1  0.69798700  0.87403200  0.06110500  1
  O  O3  1  0.30201300  0.12596800  0.93889500  1
  O  O4  1  0.12596800  0.93889500  0.30201300  1
  O  O5  1  0.06110500  0.69798700  0.87403200  1
  F  F0  1  0.72807200  0.44007000  0.63443800  1
  F  F1  1  0.63443800  0.72807200  0.44007000  1
  F  F2  1  0.55993000  0.36556200  0.27192800  1
  F  F3  1  0.44007000  0.63443800  0.72807200  1
  F  F4  1  0.36556200  0.27192800  0.55993000  1
  F  F5  1  0.27192800  0.55993000  0.36556200  1
loop_
_geom_bond_atom_site_label_1
_geom_bond_atom_site_label_2
_geom_bond_distance
_geom_bond_site_symmetry_2
H0 O5 0.982339 1_655
H1 O0 0.983598 1_555
H2 O1 0.983598 1_555
H3 O1 0.982339 1_565
H4 O2 0.983598 1_555
H5 O2 0.982339 1_556
H6 O3 0.982339 1_554
H7 O3 0.983598 1_555
H8 O4 0.982339 1_545
H9 O4 0.983598 1_555
H10 O5 0.983598 1_555
H11 O0 0.982339 1_455
O0 Zn0 2.112826 1_655
O1 Zn0 2.112826 1_656
O2 Zn0 2.112826 1_665
O3 Zn0 2.112826 1_556
O4 Zn0 2.112826 1_565
O5 Zn0 2.112826 1_566
F0 Si0 1.720172 1_555
F1 Si0 1.720172 1_555
F2 Si0 1.720172 1_555
F3 Si0 1.720172 1_555
F4 Si0 1.720172 1_555
F5 Si0 1.720172 1_555
