# generated using pymatgen
data_HfSiO4
_symmetry_space_group_name_H-M   'P 1'
_cell_length_a   5.51065825
_cell_length_b   5.51065727
_cell_length_c   5.51065683
_cell_angle_alpha   107.03008734
_cell_angle_beta   107.03006910
_cell_angle_gamma   114.47226176
_symmetry_Int_Tables_number   1
_chemical_formula_structural   HfSiO4
_chemical_formula_sum   'Hf2 Si2 O8'
_cell_volume   128.07884535
_cell_formula_units_Z   2
loop_
 _symmetry_equiv_pos_site_id
 _symmetry_equiv_pos_as_xyz
  1  'x, y, z'
loop_
 _atom_site_type_symbol
 _atom_site_label
 _atom_site_symmetry_multiplicity
 _atom_site_fract_x
 _atom_site_fract_y
 _atom_site_fract_z
 _atom_site_occupancy
  Hf  Hf0  1  0.12500000  0.87500000  0.25000000  1
  Hf  Hf1  1  0.87500000  0.12500000  0.75000000  1
  Si  Si0  1  0.37500000  0.62500000  0.75000000  1
  Si  Si1  1  0.62500000  0.37500000  0.25000000  1
  O  O0  1  0.80579923  0.37068602  0.06488678  1
  O  O1  1  0.74091245  0.80579923  0.93511322  1
  O  O2  1  0.37068602  0.80579923  0.56488678  1
  O  O3  1  0.80579923  0.74091245  0.43511322  1
  O  O4  1  0.25908755  0.19420177  0.06488678  1
  O  O5  1  0.19420177  0.62931398  0.93511322  1
  O  O6  1  0.19420177  0.25908755  0.56488678  1
  O  O7  1  0.62931398  0.19420177  0.43511322  1
loop_
_geom_bond_atom_site_label_1
_geom_bond_atom_site_label_2
_geom_bond_distance
_geom_bond_site_symmetry_2
Hf0 O6 2.104450 1_565
Hf0 O2 2.104453 1_555
Hf0 O1 2.104454 1_454
Hf0 O5 2.104457 1_554
Hf0 O0 2.257518 1_455
Hf0 O3 2.257518 1_455
Hf0 O7 2.257519 1_565
Hf0 O4 2.257523 1_565
Hf1 O4 2.104451 1_656
Hf1 O3 2.104453 1_545
Hf1 O0 2.104453 1_556
Hf1 O7 2.104457 1_555
Hf1 O1 2.257518 1_545
Hf1 O2 2.257519 1_545
Hf1 O5 2.257519 1_655
Hf1 O6 2.257523 1_655
O0 Si1 1.623132 1_555
O1 Si0 1.623133 1_555
O2 Si0 1.623132 1_555
O3 Si1 1.623132 1_555
O4 Si1 1.623133 1_555
O5 Si0 1.623128 1_555
O6 Si0 1.623133 1_555
O7 Si1 1.623128 1_555
