# generated using pymatgen
data_AlVCo2
_symmetry_space_group_name_H-M   'P 1'
_cell_length_a   4.04475724
_cell_length_b   4.04475742
_cell_length_c   4.04475763
_cell_angle_alpha   59.99999823
_cell_angle_beta   59.99999675
_cell_angle_gamma   60.00000403
_symmetry_Int_Tables_number   1
_chemical_formula_structural   AlVCo2
_chemical_formula_sum   'Al1 V1 Co2'
_cell_volume   46.79101261
_cell_formula_units_Z   1
loop_
 _symmetry_equiv_pos_site_id
 _symmetry_equiv_pos_as_xyz
  1  'x, y, z'
loop_
 _atom_site_type_symbol
 _atom_site_label
 _atom_site_symmetry_multiplicity
 _atom_site_fract_x
 _atom_site_fract_y
 _atom_site_fract_z
 _atom_site_occupancy
  Al  Al0  1  0.00000000  -0.00000000  -0.00000000  1
  V  V0  1  0.50000000  0.50000000  0.50000000  1
  Co  Co0  1  0.25000000  0.25000000  0.25000000  1
  Co  Co1  1  0.75000000  0.75000000  0.75000000  1
loop_
_geom_bond_atom_site_label_1
_geom_bond_atom_site_label_2
_geom_bond_distance
_geom_bond_site_symmetry_2
Al0 Co0 2.476898 1_455
Al0 Co1 2.476898 1_544
Al0 Co0 2.476898 1_554
Al0 Co1 2.476898 1_445
Al0 Co1 2.476898 1_444
Al0 Co0 2.476898 1_555
Al0 Co1 2.476898 1_454
Al0 Co0 2.476898 1_545
Co0 V0 2.476898 1_455
Co0 V0 2.476898 1_554
Co0 V0 2.476898 1_555
Co0 V0 2.476898 1_545
Co1 V0 2.476898 1_655
Co1 V0 2.476898 1_556
Co1 V0 2.476898 1_555
Co1 V0 2.476898 1_565
