# generated using pymatgen
data_Ba4Nb14O23
_symmetry_space_group_name_H-M   'P 1'
_cell_length_a   12.23653460
_cell_length_b   12.23654046
_cell_length_c   4.18568029
_cell_angle_alpha   90.00003885
_cell_angle_beta   89.99997496
_cell_angle_gamma   118.22919810
_symmetry_Int_Tables_number   1
_chemical_formula_structural   Ba4Nb14O23
_chemical_formula_sum   'Ba4 Nb14 O23'
_cell_volume   552.19170097
_cell_formula_units_Z   1
loop_
 _symmetry_equiv_pos_site_id
 _symmetry_equiv_pos_as_xyz
  1  'x, y, z'
loop_
 _atom_site_type_symbol
 _atom_site_label
 _atom_site_symmetry_multiplicity
 _atom_site_fract_x
 _atom_site_fract_y
 _atom_site_fract_z
 _atom_site_occupancy
  Ba  Ba0  1  0.22874706  0.43268054  0.00000028  1
  Ba  Ba1  1  0.77124781  0.56731485  -0.00000033  1
  Ba  Ba2  1  0.43268475  0.22875234  0.00000050  1
  Ba  Ba3  1  0.56731922  0.77125332  -0.00000026  1
  Nb  Nb0  1  0.49998919  0.50000989  0.49999881  1
  Nb  Nb1  1  0.95788996  0.36015825  0.49999870  1
  Nb  Nb2  1  0.04213705  0.63984645  0.50000149  1
  Nb  Nb3  1  0.36015282  0.95786303  0.49999830  1
  Nb  Nb4  1  0.63984166  0.04211030  0.49999946  1
  Nb  Nb5  1  0.16315841  0.16314973  0.50000425  1
  Nb  Nb6  1  0.83685015  0.83684134  0.49999973  1
  Nb  Nb7  1  0.29744560  0.70255414  0.49999929  1
  Nb  Nb8  1  0.70254559  0.29745397  0.49999931  1
  Nb  Nb9  1  0.20349875  0.79650133  -0.00000015  1
  Nb  Nb10  1  0.79650219  0.20349791  -0.00000091  1
  Nb  Nb11  1  0.09903177  0.90096833  0.49999987  1
  Nb  Nb12  1  0.90096921  0.09903099  0.49999981  1
  Nb  Nb13  1  0.00000650  -0.00000602  0.00000063  1
  O  O0  1  0.66140500  0.66141422  0.49999933  1
  O  O1  1  0.33858566  0.33859463  0.50000076  1
  O  O2  1  0.50000902  0.49998970  -0.00000077  1
  O  O3  1  0.40428251  0.59571711  0.49999927  1
  O  O4  1  0.59571879  0.40428014  0.49999918  1
  O  O5  1  0.86520809  0.46819637  0.49999942  1
  O  O6  1  0.13480320  0.53182239  0.49999945  1
  O  O7  1  0.46817780  0.86519742  0.49999922  1
  O  O8  1  0.53180350  0.13479251  0.49999912  1
  O  O9  1  0.97077920  0.36304560  -0.00000085  1
  O  O10  1  0.02925847  0.63696660  0.00000205  1
  O  O11  1  0.36303276  0.97074176  -0.00000108  1
  O  O12  1  0.63695372  0.02922137  -0.00000029  1
  O  O13  1  0.07045775  0.26961067  0.49999915  1
  O  O14  1  0.92956906  0.73039064  0.49999946  1
  O  O15  1  0.26960926  0.07043066  0.49999897  1
  O  O16  1  0.73039006  0.92954313  0.49999957  1
  O  O17  1  0.17083813  0.17089894  0.00001059  1
  O  O18  1  0.89980579  0.10019779  -0.00000009  1
  O  O19  1  0.10020865  0.89979169  0.00000001  1
  O  O20  1  0.69592475  0.30407513  -0.00000056  1
  O  O21  1  0.30406255  0.69593755  -0.00000048  1
  O  O22  1  0.82910156  0.82916329  -0.00000021  1
loop_
_geom_bond_atom_site_label_1
_geom_bond_atom_site_label_2
_geom_bond_distance
_geom_bond_site_symmetry_2
Ba0 O9 2.854102 1_455
Ba0 O21 2.901377 1_555
Ba0 O13 2.908097 1_555
Ba0 O13 2.908103 1_554
Ba0 O6 2.914177 1_555
Ba0 O6 2.914184 1_554
Ba0 O17 2.935295 1_555
Ba0 O3 2.986622 1_555
Ba0 O3 2.986629 1_554
Ba0 O1 2.995947 1_554
Ba0 O1 2.995952 1_555
Ba0 O2 3.018263 1_555
Ba1 O10 2.854561 1_655
Ba1 O20 2.901155 1_555
Ba1 O14 2.908260 1_555
Ba1 O14 2.908262 1_554
Ba1 O5 2.914127 1_554
Ba1 O5 2.914127 1_555
Ba1 O22 2.936280 1_555
Ba1 O4 2.986585 1_555
Ba1 O4 2.986587 1_554
Ba1 O0 2.996078 1_555
Ba1 O0 2.996082 1_554
Ba1 O2 3.017939 1_555
Ba2 O11 2.854561 1_545
Ba2 O20 2.901157 1_555
Ba2 O15 2.908257 1_555
Ba2 O15 2.908265 1_554
Ba2 O8 2.914123 1_555
Ba2 O8 2.914129 1_554
Ba2 O17 2.936258 1_555
Ba2 O4 2.986573 1_555
Ba2 O4 2.986582 1_554
Ba2 O1 2.996074 1_555
Ba2 O1 2.996074 1_554
Ba2 O2 3.017926 1_555
Ba3 O12 2.854107 1_565
Ba3 O21 2.901371 1_555
Ba3 O16 2.908106 1_555
Ba3 O16 2.908107 1_554
Ba3 O7 2.914177 1_555
Ba3 O7 2.914182 1_554
Ba3 O22 2.935299 1_555
Ba3 O3 2.986629 1_555
Ba3 O3 2.986631 1_554
Ba3 O0 2.995952 1_555
Ba3 O0 2.995953 1_554
Ba3 O2 3.018281 1_555
Nb0 O3 2.010103 1_555
Nb0 O4 2.010581 1_555
Nb0 O1 2.027719 1_555
Nb0 O0 2.027727 1_555
Nb0 O2 2.092838 1_555
Nb0 O2 2.092842 1_556
Nb1 O9 2.097814 1_555
Nb1 O9 2.097818 1_556
Nb1 O5 2.110036 1_555
Nb1 O13 2.137464 1_655
Nb1 O6 2.190210 1_655
Nb2 O10 2.097807 1_555
Nb2 O10 2.097811 1_556
Nb2 O6 2.109724 1_555
Nb2 O14 2.137432 1_455
Nb2 O5 2.190228 1_455
Nb3 O11 2.097807 1_555
Nb3 O11 2.097812 1_556
Nb3 O7 2.109728 1_555
Nb3 O15 2.137422 1_565
Nb3 O8 2.190235 1_565
Nb4 O12 2.097815 1_555
Nb4 O12 2.097817 1_556
Nb4 O8 2.110039 1_555
Nb4 O16 2.137466 1_545
Nb4 O7 2.190206 1_545
Nb5 O13 2.093250 1_555
Nb5 O15 2.093330 1_555
Nb5 O17 2.095056 1_555
Nb5 O17 2.095109 1_556
Nb5 O1 2.203930 1_555
Nb6 O16 2.093252 1_555
Nb6 O14 2.093326 1_555
Nb6 O22 2.095082 1_555
Nb6 O22 2.095083 1_556
Nb6 O0 2.203931 1_555
Nb7 O6 2.095743 1_555
Nb7 O7 2.095751 1_555
Nb7 O21 2.097448 1_555
Nb7 O21 2.097450 1_556
Nb7 O3 2.243864 1_555
Nb8 O8 2.095923 1_555
Nb8 O5 2.095932 1_555
Nb8 O20 2.097454 1_555
Nb8 O20 2.097455 1_556
Nb8 O4 2.243643 1_555
Nb9 O11 2.102215 1_555
Nb9 O10 2.102218 1_555
Nb9 O21 2.112110 1_555
Nb9 O19 2.169373 1_555
Nb10 O9 2.102547 1_555
Nb10 O12 2.102549 1_555
Nb10 O20 2.112394 1_555
Nb10 O18 2.169617 1_555
Nb11 O19 2.092985 1_555
Nb11 O19 2.092987 1_556
Nb11 O15 2.135921 1_565
Nb11 O14 2.135925 1_455
Nb12 O18 2.092983 1_555
Nb12 O18 2.092984 1_556
Nb12 O16 2.136091 1_545
Nb12 O13 2.136098 1_655
Nb13 O19 2.104516 1_545
Nb13 O18 2.104517 1_455
Nb13 O22 2.146541 1_445
Nb13 O17 2.146547 1_555
