# generated using pymatgen
data_LaTaO4
_symmetry_space_group_name_H-M   'P 1'
_cell_length_a   5.57182852
_cell_length_b   7.67076445
_cell_length_c   7.81529125
_cell_angle_alpha   78.78727106
_cell_angle_beta   90.00000000
_cell_angle_gamma   90.00000000
_symmetry_Int_Tables_number   1
_chemical_formula_structural   LaTaO4
_chemical_formula_sum   'La4 Ta4 O16'
_cell_volume   327.65107310
_cell_formula_units_Z   4
loop_
 _symmetry_equiv_pos_site_id
 _symmetry_equiv_pos_as_xyz
  1  'x, y, z'
loop_
 _atom_site_type_symbol
 _atom_site_label
 _atom_site_symmetry_multiplicity
 _atom_site_fract_x
 _atom_site_fract_y
 _atom_site_fract_z
 _atom_site_occupancy
  La  La0  1  0.22752824  0.34555938  0.90208069  1
  La  La1  1  0.72752824  0.65444062  0.59791931  1
  La  La2  1  0.77247176  0.65444062  0.09791931  1
  La  La3  1  0.27247176  0.34555938  0.40208069  1
  Ta  Ta0  1  0.73389210  0.16672965  0.69641623  1
  Ta  Ta1  1  0.23389210  0.83327035  0.80358377  1
  Ta  Ta2  1  0.26610790  0.83327035  0.30358377  1
  Ta  Ta3  1  0.76610790  0.16672965  0.19641623  1
  O  O0  1  0.51004135  0.33522337  0.13588836  1
  O  O1  1  0.01004135  0.66477663  0.36411164  1
  O  O2  1  0.48995865  0.66477663  0.86411164  1
  O  O3  1  0.98995865  0.33522337  0.63588836  1
  O  O4  1  0.98370769  0.38183547  0.16848013  1
  O  O5  1  0.48370769  0.61816453  0.33151987  1
  O  O6  1  0.01629231  0.61816453  0.83151987  1
  O  O7  1  0.51629231  0.38183547  0.66848013  1
  O  O8  1  0.83657498  0.16735190  0.94742634  1
  O  O9  1  0.33657498  0.83264810  0.55257366  1
  O  O10  1  0.16342502  0.83264810  0.05257366  1
  O  O11  1  0.66342502  0.16735190  0.44742634  1
  O  O12  1  0.41667820  0.05318811  0.79130618  1
  O  O13  1  0.91667820  0.94681189  0.70869382  1
  O  O14  1  0.58332180  0.94681189  0.20869382  1
  O  O15  1  0.08332180  0.05318811  0.29130618  1
loop_
_geom_bond_atom_site_label_1
_geom_bond_atom_site_label_2
_geom_bond_distance
_geom_bond_site_symmetry_2
La0 O6 2.369294 1_555
La0 O0 2.401398 1_556
La0 O7 2.408648 1_555
La0 O3 2.480030 1_455
La0 O4 2.546176 1_456
La0 O8 2.559481 1_455
La0 O12 2.764973 1_555
La0 O2 2.817693 1_555
La1 O7 2.369294 1_555
La1 O1 2.401398 1_655
La1 O6 2.408648 1_655
La1 O2 2.480030 1_555
La1 O5 2.546176 1_555
La1 O9 2.559481 1_555
La1 O13 2.764973 1_555
La1 O3 2.817693 1_555
La2 O4 2.369294 1_555
La2 O2 2.401398 1_554
La2 O5 2.408648 1_555
La2 O1 2.480030 1_655
La2 O6 2.546176 1_654
La2 O10 2.559481 1_655
La2 O14 2.764973 1_555
La2 O0 2.817693 1_555
La3 O5 2.369294 1_555
La3 O3 2.401398 1_455
La3 O4 2.408648 1_455
La3 O0 2.480030 1_555
La3 O7 2.546176 1_555
La3 O11 2.559481 1_555
La3 O15 2.764973 1_555
La3 O1 2.817693 1_555
O0 Ta3 1.921491 1_555
O1 Ta2 1.921491 1_555
O2 Ta1 1.921491 1_555
O3 Ta0 1.921491 1_555
O4 Ta3 2.024879 1_555
O5 Ta2 2.024879 1_555
O6 Ta1 2.024879 1_555
O7 Ta0 2.024879 1_555
O8 Ta3 1.984240 1_556
O8 Ta0 2.044342 1_555
O9 Ta2 1.984240 1_555
O9 Ta1 2.044342 1_555
O10 Ta1 1.984240 1_554
O10 Ta2 2.044342 1_555
O11 Ta0 1.984240 1_555
O11 Ta3 2.044342 1_555
O12 Ta1 1.956850 1_545
O12 Ta0 2.044809 1_555
O13 Ta0 1.956850 1_565
O13 Ta1 2.044809 1_655
O14 Ta3 1.956850 1_565
O14 Ta2 2.044809 1_555
O15 Ta2 1.956850 1_545
O15 Ta3 2.044809 1_455
