# generated using pymatgen
data_La3Se4
_symmetry_space_group_name_H-M   'P 1'
_cell_length_a   7.87691417
_cell_length_b   7.87691387
_cell_length_c   7.87691267
_cell_angle_alpha   109.47121758
_cell_angle_beta   109.47121679
_cell_angle_gamma   109.47122142
_symmetry_Int_Tables_number   1
_chemical_formula_structural   La3Se4
_chemical_formula_sum   'La6 Se8'
_cell_volume   376.22390143
_cell_formula_units_Z   2
loop_
 _symmetry_equiv_pos_site_id
 _symmetry_equiv_pos_as_xyz
  1  'x, y, z'
loop_
 _atom_site_type_symbol
 _atom_site_label
 _atom_site_symmetry_multiplicity
 _atom_site_fract_x
 _atom_site_fract_y
 _atom_site_fract_z
 _atom_site_occupancy
  La  La0  1  0.75000000  0.87500000  0.12500000  1
  La  La1  1  0.62500000  0.37500000  0.25000000  1
  La  La2  1  0.87500000  0.12500000  0.75000000  1
  La  La3  1  0.12500000  0.75000000  0.87500000  1
  La  La4  1  0.37500000  0.25000000  0.62500000  1
  La  La5  1  0.25000000  0.62500000  0.37500000  1
  Se  Se0  1  0.64924492  0.64924492  0.64924492  1
  Se  Se1  1  0.35075508  0.50000000  0.00000000  1
  Se  Se2  1  0.50000000  -0.00000000  0.35075508  1
  Se  Se3  1  0.00000000  0.35075508  0.50000000  1
  Se  Se4  1  0.50000000  -0.00000000  0.85075508  1
  Se  Se5  1  0.00000000  0.85075508  0.50000000  1
  Se  Se6  1  0.14924492  0.14924492  0.14924492  1
  Se  Se7  1  0.85075508  0.50000000  0.00000000  1
loop_
_geom_bond_atom_site_label_1
_geom_bond_atom_site_label_2
_geom_bond_distance
_geom_bond_site_symmetry_2
La0 Se5 3.064057 1_655
La0 Se4 3.064057 1_564
La0 Se6 3.064057 1_665
La0 Se1 3.064058 1_555
La0 Se0 3.235644 1_554
La0 Se2 3.235644 1_565
La0 Se7 3.235644 1_555
La0 Se3 3.235644 1_665
La1 Se0 3.064057 1_555
La1 Se4 3.064057 1_554
La1 Se1 3.064057 1_555
La1 Se3 3.064057 1_655
La1 Se7 3.235644 1_555
La1 Se2 3.235644 1_555
La1 Se6 3.235644 1_555
La1 Se5 3.235644 1_655
La2 Se6 3.064057 1_656
La2 Se5 3.064057 1_645
La2 Se7 3.064057 1_556
La2 Se2 3.064057 1_555
La2 Se3 3.235644 1_655
La2 Se4 3.235644 1_555
La2 Se0 3.235644 1_545
La2 Se1 3.235645 1_656
La3 Se7 3.064057 1_456
La3 Se3 3.064057 1_555
La3 Se6 3.064057 1_566
La3 Se4 3.064057 1_565
La3 Se5 3.235644 1_555
La3 Se2 3.235644 1_566
La3 Se1 3.235644 1_556
La3 Se0 3.235644 1_455
La4 Se1 3.064057 1_556
La4 Se2 3.064057 1_555
La4 Se0 3.064057 1_555
La4 Se5 3.064058 1_545
La4 Se6 3.235644 1_555
La4 Se4 3.235644 1_555
La4 Se3 3.235644 1_555
La4 Se7 3.235644 1_556
La5 Se3 3.064057 1_555
La5 Se2 3.064057 1_565
La5 Se7 3.064057 1_455
La5 Se0 3.064058 1_555
La5 Se1 3.235644 1_555
La5 Se4 3.235644 1_565
La5 Se5 3.235644 1_555
La5 Se6 3.235644 1_555
