# generated using pymatgen
data_Na3Sr3AlP4
_symmetry_space_group_name_H-M   'P 1'
_cell_length_a   9.43700966
_cell_length_b   9.43700966
_cell_length_c   7.39839100
_cell_angle_alpha   90.00000000
_cell_angle_beta   90.00000000
_cell_angle_gamma   119.99999760
_symmetry_Int_Tables_number   1
_chemical_formula_structural   Na3Sr3AlP4
_chemical_formula_sum   'Na6 Sr6 Al2 P8'
_cell_volume   570.60650836
_cell_formula_units_Z   2
loop_
 _symmetry_equiv_pos_site_id
 _symmetry_equiv_pos_as_xyz
  1  'x, y, z'
loop_
 _atom_site_type_symbol
 _atom_site_label
 _atom_site_symmetry_multiplicity
 _atom_site_fract_x
 _atom_site_fract_y
 _atom_site_fract_z
 _atom_site_occupancy
  Na  Na0  1  0.72813800  0.86406900  0.17051200  1
  Na  Na1  1  0.86406900  0.13593100  0.67051200  1
  Na  Na2  1  0.86406900  0.72813800  0.67051200  1
  Na  Na3  1  0.13593100  0.27186200  0.17051200  1
  Na  Na4  1  0.13593100  0.86406900  0.17051200  1
  Na  Na5  1  0.27186200  0.13593100  0.67051200  1
  Sr  Sr0  1  0.04818700  0.52409400  0.49892600  1
  Sr  Sr1  1  0.47590600  0.95181300  0.49892600  1
  Sr  Sr2  1  0.47590600  0.52409400  0.49892600  1
  Sr  Sr3  1  0.52409400  0.47590600  0.99892600  1
  Sr  Sr4  1  0.52409400  0.04818700  0.99892600  1
  Sr  Sr5  1  0.95181300  0.47590600  0.99892600  1
  Al  Al0  1  0.33333300  0.66666700  0.87398200  1
  Al  Al1  1  0.66666700  0.33333300  0.37398200  1
  P  P0  1  0.66666700  0.33333300  0.70997500  1
  P  P1  1  0.61630700  0.80815400  0.77897600  1
  P  P2  1  0.80815400  0.19184600  0.27897600  1
  P  P3  1  0.80815400  0.61630700  0.27897600  1
  P  P4  1  0.33333300  0.66666700  0.20997500  1
  P  P5  1  0.19184600  0.38369300  0.77897600  1
  P  P6  1  0.19184600  0.80815400  0.77897600  1
  P  P7  1  0.38369300  0.19184600  0.27897600  1
loop_
_geom_bond_atom_site_label_1
_geom_bond_atom_site_label_2
_geom_bond_distance
_geom_bond_site_symmetry_2
Na0 P2 2.906286 1_565
Na0 P3 2.906295 1_555
Na0 P1 3.037500 1_554
Na0 P4 3.239801 1_555
Na1 P5 2.906289 1_655
Na1 P1 2.906289 1_545
Na1 P2 3.037497 1_555
Na1 P0 3.239793 1_555
Na2 P6 2.906286 1_655
Na2 P1 2.906295 1_555
Na2 P3 3.037500 1_555
Na2 P0 3.239801 1_555
Na3 P2 2.906286 1_455
Na3 P7 2.906295 1_555
Na3 P5 3.037500 1_554
Na3 P4 3.239801 1_555
Na4 P7 2.906289 1_565
Na4 P3 2.906289 1_455
Na4 P6 3.037497 1_554
Na4 P4 3.239793 1_555
Na5 P6 2.906286 1_545
Na5 P5 2.906295 1_555
Na5 P7 3.037500 1_555
Na5 P0 3.239801 1_555
Al0 P6 2.417115 1_555
Al0 P1 2.417116 1_555
Al0 P5 2.417116 1_555
Al0 P4 2.485808 1_556
Al0 Sr4 3.252182 1_565
Al0 Sr5 3.252182 1_455
Al0 Sr3 3.252198 1_555
Al1 P2 2.417115 1_555
Al1 P3 2.417116 1_555
Al1 P7 2.417116 1_555
Al1 P0 2.485808 1_555
Al1 Sr0 3.252182 1_655
Al1 Sr1 3.252182 1_545
Al1 Sr2 3.252198 1_555
P0 Sr3 3.162417 1_555
P0 Sr5 3.162417 1_555
P0 Sr4 3.162417 1_555
P0 Sr0 3.487154 1_655
P0 Sr1 3.487154 1_545
P0 Sr2 3.487169 1_555
P1 Sr1 3.111689 1_555
P1 Sr2 3.111689 1_555
P1 Sr4 3.241544 1_565
P1 Sr3 3.241560 1_555
P2 Sr4 3.111689 1_554
P2 Sr5 3.111689 1_554
P2 Sr1 3.241556 1_545
P2 Sr0 3.241556 1_655
P3 Sr5 3.111689 1_554
P3 Sr3 3.111689 1_554
P3 Sr0 3.241544 1_655
P3 Sr2 3.241560 1_555
P4 Sr2 3.162417 1_555
P4 Sr1 3.162417 1_555
P4 Sr0 3.162417 1_555
P4 Sr4 3.487154 1_564
P4 Sr5 3.487154 1_454
P4 Sr3 3.487169 1_554
P5 Sr0 3.111689 1_555
P5 Sr2 3.111689 1_555
P5 Sr5 3.241544 1_455
P5 Sr3 3.241560 1_555
P6 Sr0 3.111689 1_555
P6 Sr1 3.111689 1_555
P6 Sr5 3.241556 1_455
P6 Sr4 3.241556 1_565
P7 Sr4 3.111689 1_554
P7 Sr3 3.111689 1_554
P7 Sr1 3.241544 1_545
P7 Sr2 3.241560 1_555
