# generated using pymatgen
data_DyNi2
_symmetry_space_group_name_H-M   'P 1'
_cell_length_a   5.01098297
_cell_length_b   5.01098390
_cell_length_c   5.01098358
_cell_angle_alpha   59.99995353
_cell_angle_beta   59.99995068
_cell_angle_gamma   59.99994672
_symmetry_Int_Tables_number   1
_chemical_formula_structural   DyNi2
_chemical_formula_sum   'Dy2 Ni4'
_cell_volume   88.97201505
_cell_formula_units_Z   2
loop_
 _symmetry_equiv_pos_site_id
 _symmetry_equiv_pos_as_xyz
  1  'x, y, z'
loop_
 _atom_site_type_symbol
 _atom_site_label
 _atom_site_symmetry_multiplicity
 _atom_site_fract_x
 _atom_site_fract_y
 _atom_site_fract_z
 _atom_site_occupancy
  Dy  Dy0  1  0.12499900  0.12500000  0.12500000  1
  Dy  Dy1  1  0.87500100  0.87500000  0.87500000  1
  Ni  Ni0  1  0.50000000  -0.00000000  0.50000000  1
  Ni  Ni1  1  0.00000000  0.50000000  0.50000000  1
  Ni  Ni2  1  0.50000000  0.50000000  0.50000000  1
  Ni  Ni3  1  0.50000000  0.50000000  0.00000000  1
loop_
_geom_bond_atom_site_label_1
_geom_bond_atom_site_label_2
_geom_bond_distance
_geom_bond_site_symmetry_2
Dy0 Ni3 2.937944 1_455
Dy0 Ni0 2.937944 1_455
Dy0 Ni2 2.937945 1_455
Dy0 Ni1 2.937946 1_554
Dy0 Ni1 2.937946 1_545
Dy0 Ni0 2.937948 1_554
Dy0 Ni3 2.937948 1_545
Dy0 Ni2 2.937950 1_545
Dy0 Ni2 2.937950 1_554
Dy0 Ni1 2.937952 1_555
Dy0 Ni0 2.937954 1_555
Dy0 Ni3 2.937954 1_555
Dy1 Ni3 2.937944 1_656
Dy1 Ni0 2.937944 1_665
Dy1 Ni2 2.937945 1_655
Dy1 Ni1 2.937946 1_656
Dy1 Ni1 2.937946 1_665
Dy1 Ni0 2.937948 1_566
Dy1 Ni3 2.937948 1_566
Dy1 Ni2 2.937950 1_565
Dy1 Ni2 2.937950 1_556
Dy1 Ni1 2.937952 1_655
Dy1 Ni0 2.937954 1_565
Dy1 Ni3 2.937954 1_556
Ni0 Ni1 2.505490 1_645
Ni0 Ni1 2.505490 1_555
Ni0 Ni3 2.505490 1_555
Ni0 Ni3 2.505490 1_546
Ni0 Ni2 2.505492 1_555
Ni0 Ni2 2.505492 1_545
Ni1 Ni3 2.505490 1_555
Ni1 Ni3 2.505490 1_456
Ni1 Ni2 2.505491 1_455
Ni1 Ni2 2.505491 1_555
Ni2 Ni3 2.505492 1_555
Ni2 Ni3 2.505492 1_556
