# generated using pymatgen
data_K2MnH4(Cl2O)2
_symmetry_space_group_name_H-M   'P 1'
_cell_length_a   6.71163200
_cell_length_b   6.71166168
_cell_length_c   21.05724920
_cell_angle_alpha   90.00009378
_cell_angle_beta   89.99952124
_cell_angle_gamma   76.58747674
_symmetry_Int_Tables_number   1
_chemical_formula_structural   K2MnH4(Cl2O)2
_chemical_formula_sum   'K8 Mn4 H16 Cl16 O8'
_cell_volume   922.67764248
_cell_formula_units_Z   4
loop_
 _symmetry_equiv_pos_site_id
 _symmetry_equiv_pos_as_xyz
  1  'x, y, z'
loop_
 _atom_site_type_symbol
 _atom_site_label
 _atom_site_symmetry_multiplicity
 _atom_site_fract_x
 _atom_site_fract_y
 _atom_site_fract_z
 _atom_site_occupancy
  K  K0  1  0.99991400  0.50004700  0.62500800  1
  K  K1  1  0.99993200  0.50009200  0.12501900  1
  K  K2  1  0.49990900  0.00010600  0.87503200  1
  K  K3  1  0.49985500  0.00001100  0.37499100  1
  K  K4  1  0.00007400  0.50009600  0.37498400  1
  K  K5  1  0.99987700  0.50001400  0.87503000  1
  K  K6  1  0.49993400  0.00005700  0.62500500  1
  K  K7  1  0.49982800  0.00011200  0.12500700  1
  Mn  Mn0  1  0.00019200  0.99981500  0.49983800  1
  Mn  Mn1  1  0.50000400  0.49998100  0.75000400  1
  Mn  Mn2  1  0.99991900  0.00005000  0.99999000  1
  Mn  Mn3  1  0.50052800  0.49979100  0.25000800  1
  H  H0  1  0.73811300  0.41182600  0.49999700  1
  H  H1  1  0.73819900  0.41172300  0.00000400  1
  H  H2  1  0.23805300  0.91189400  0.75001000  1
  H  H3  1  0.23826300  0.91165300  0.25000900  1
  H  H4  1  0.33675500  0.66323100  0.53752100  1
  H  H5  1  0.33672600  0.66325500  0.03751000  1
  H  H6  1  0.83670400  0.16327400  0.78751200  1
  H  H7  1  0.83698100  0.16302100  0.28754700  1
  H  H8  1  0.33678900  0.66320000  0.46249200  1
  H  H9  1  0.33689900  0.66307700  0.96247400  1
  H  H10  1  0.83670200  0.16327900  0.71249400  1
  H  H11  1  0.83692700  0.16307400  0.21248900  1
  H  H12  1  0.58818600  0.26187100  0.49999700  1
  H  H13  1  0.58824900  0.26179900  0.00000300  1
  H  H14  1  0.08809100  0.76193000  0.75001100  1
  H  H15  1  0.08843900  0.76166900  0.25000900  1
  Cl  Cl0  1  0.49170700  0.50831800  0.37180900  1
  Cl  Cl1  1  0.49157300  0.50840800  0.87178900  1
  Cl  Cl2  1  0.99162800  0.00835500  0.62180300  1
  Cl  Cl3  1  0.99158700  0.00837700  0.12174000  1
  Cl  Cl4  1  0.76484400  0.74816600  0.50000700  1
  Cl  Cl5  1  0.76483400  0.74813100  0.99996800  1
  Cl  Cl6  1  0.26480400  0.24818100  0.75002100  1
  Cl  Cl7  1  0.26497900  0.24820700  0.25002100  1
  Cl  Cl8  1  0.25182300  0.23514200  0.50000600  1
  Cl  Cl9  1  0.25182200  0.23511800  0.99996900  1
  Cl  Cl10  1  0.75180700  0.73517300  0.75002100  1
  Cl  Cl11  1  0.75191500  0.73517400  0.25002100  1
  Cl  Cl12  1  0.49159500  0.50839200  0.62822200  1
  Cl  Cl13  1  0.49170500  0.50833700  0.12820900  1
  Cl  Cl14  1  0.99164600  0.00832200  0.87815000  1
  Cl  Cl15  1  0.99157100  0.00840200  0.37821800  1
  O  O0  1  0.26613500  0.73385100  0.49999700  1
  O  O1  1  0.26620200  0.73379200  0.99997500  1
  O  O2  1  0.76604400  0.23393700  0.75000900  1
  O  O3  1  0.76637000  0.23362600  0.25002100  1
  O  O4  1  0.73378100  0.26621500  0.50001700  1
  O  O5  1  0.73385900  0.26611100  0.99997800  1
  O  O6  1  0.23368600  0.76629900  0.75001300  1
  O  O7  1  0.23403700  0.76601900  0.25002200  1
loop_
_geom_bond_atom_site_label_1
_geom_bond_atom_site_label_2
_geom_bond_distance
_geom_bond_site_symmetry_2
Mn0 O0 2.212290 1_555
Mn0 O4 2.216051 1_465
Mn1 O2 2.213024 1_555
Mn1 O6 2.215320 1_555
Mn2 O5 2.213178 1_555
Mn2 O1 2.214924 1_645
Mn3 O3 2.212704 1_555
Mn3 O7 2.215665 1_555
H0 O4 0.984442 1_555
H1 O5 0.984463 1_554
H2 O6 0.984396 1_555
H3 O7 0.984412 1_555
H4 O0 0.984598 1_555
H5 O1 0.984340 1_554
H6 O2 0.984450 1_555
H7 O3 0.984573 1_555
H8 O0 0.984431 1_555
H9 O1 0.984629 1_555
H10 O2 0.984627 1_555
H11 O3 0.984401 1_555
H12 O4 0.984352 1_555
H13 O5 0.984397 1_554
H14 O6 0.984395 1_555
H15 O7 0.984382 1_555
Cl0 Mn3 2.565809 1_555
Cl0 K4 3.313569 1_555
Cl0 K3 3.313867 1_565
Cl0 K3 3.399976 1_555
Cl0 K4 3.400254 1_655
Cl1 Mn1 2.565415 1_555
Cl1 K2 3.314239 1_565
Cl1 K5 3.314306 1_455
Cl1 K5 3.399609 1_555
Cl1 K2 3.399695 1_555
Cl2 Mn0 2.569232 1_645
Cl2 K0 3.314099 1_555
Cl2 K6 3.314116 1_555
Cl2 K6 3.399745 1_655
Cl2 K0 3.399792 1_545
Cl3 Mn2 2.564656 1_554
Cl3 K1 3.314384 1_555
Cl3 K7 3.314525 1_555
Cl3 K7 3.399384 1_655
Cl3 K1 3.399583 1_545
Cl4 Mn0 2.566202 1_655
Cl4 K0 3.312387 1_555
Cl4 K4 3.312987 1_655
Cl4 K6 3.398942 1_565
Cl4 K3 3.399363 1_565
Cl5 Mn2 2.566296 1_565
Cl5 K5 3.311237 1_555
Cl5 K1 3.313081 1_556
Cl5 K2 3.398212 1_565
Cl5 K7 3.400101 1_566
Cl6 Mn1 2.566249 1_555
Cl6 K2 3.312523 1_555
Cl6 K6 3.312770 1_555
Cl6 K5 3.399022 1_455
Cl6 K0 3.399096 1_455
Cl7 Mn3 2.566887 1_555
Cl7 K3 3.311603 1_555
Cl7 K7 3.311983 1_555
Cl7 K4 3.398353 1_555
Cl7 K1 3.399395 1_455
Cl8 Mn0 2.565997 1_545
Cl8 K6 3.312369 1_555
Cl8 K3 3.312513 1_555
Cl8 K0 3.399040 1_455
Cl8 K4 3.399123 1_555
Cl9 Mn2 2.566122 1_455
Cl9 K2 3.311065 1_555
Cl9 K7 3.312554 1_556
Cl9 K5 3.398106 1_455
Cl9 K1 3.399964 1_456
Cl10 Mn1 2.566223 1_555
Cl10 K5 3.312607 1_555
Cl10 K0 3.312665 1_555
Cl10 K6 3.399146 1_565
Cl10 K2 3.399236 1_565
Cl11 Mn3 2.564971 1_555
Cl11 K4 3.311876 1_655
Cl11 K1 3.312138 1_555
Cl11 K3 3.398714 1_565
Cl11 K7 3.399802 1_565
Cl12 Mn1 2.565349 1_555
Cl12 K6 3.314011 1_565
Cl12 K0 3.314113 1_455
Cl12 K0 3.399768 1_555
Cl12 K6 3.399901 1_555
Cl13 Mn3 2.565770 1_555
Cl13 K7 3.314384 1_565
Cl13 K1 3.314554 1_455
Cl13 K1 3.399286 1_555
Cl13 K7 3.399470 1_555
Cl14 Mn2 2.566538 1_555
Cl14 K5 3.313972 1_555
Cl14 K2 3.314234 1_555
Cl14 K2 3.399540 1_655
Cl14 K5 3.399837 1_545
Cl15 Mn0 2.561983 1_645
Cl15 K3 3.314430 1_555
Cl15 K4 3.314486 1_655
Cl15 K3 3.399472 1_655
Cl15 K4 3.399476 1_645
