# generated using pymatgen
data_Cu(RhO2)2
_symmetry_space_group_name_H-M   'P 1'
_cell_length_a   6.09813979
_cell_length_b   6.09813979
_cell_length_c   6.09813979
_cell_angle_alpha   60.00000000
_cell_angle_beta   60.00000000
_cell_angle_gamma   60.00000000
_symmetry_Int_Tables_number   1
_chemical_formula_structural   Cu(RhO2)2
_chemical_formula_sum   'Cu2 Rh4 O8'
_cell_volume   160.35301485
_cell_formula_units_Z   2
loop_
 _symmetry_equiv_pos_site_id
 _symmetry_equiv_pos_as_xyz
  1  'x, y, z'
loop_
 _atom_site_type_symbol
 _atom_site_label
 _atom_site_symmetry_multiplicity
 _atom_site_fract_x
 _atom_site_fract_y
 _atom_site_fract_z
 _atom_site_occupancy
  Cu  Cu0  1  0.75000000  0.75000000  0.75000000  1
  Cu  Cu1  1  0.50000000  0.50000000  0.50000000  1
  Rh  Rh0  1  0.12500000  0.12500000  0.12500000  1
  Rh  Rh1  1  0.62500000  0.12500000  0.12500000  1
  Rh  Rh2  1  0.12500000  0.62500000  0.12500000  1
  Rh  Rh3  1  0.12500000  0.12500000  0.62500000  1
  O  O0  1  0.90790300  0.36403200  0.36403200  1
  O  O1  1  0.36403200  0.36403200  0.90790300  1
  O  O2  1  0.88596800  0.34209700  0.88596800  1
  O  O3  1  0.36403200  0.90790300  0.36403200  1
  O  O4  1  0.36403200  0.36403200  0.36403200  1
  O  O5  1  0.34209700  0.88596800  0.88596800  1
  O  O6  1  0.88596800  0.88596800  0.88596800  1
  O  O7  1  0.88596800  0.88596800  0.34209700  1
loop_
_geom_bond_atom_site_label_1
_geom_bond_atom_site_label_2
_geom_bond_distance
_geom_bond_site_symmetry_2
Cu0 O5 2.030994 1_555
Cu0 O7 2.030994 1_555
Cu0 O2 2.030994 1_555
Cu0 O6 2.030999 1_555
Cu1 O1 2.030994 1_555
Cu1 O3 2.030994 1_555
Cu1 O0 2.030994 1_555
Cu1 O4 2.030999 1_555
O0 Rh0 2.065764 1_655
O0 Rh3 2.065769 1_655
O0 Rh2 2.065769 1_655
O1 Rh0 2.065764 1_556
O1 Rh1 2.065769 1_556
O1 Rh2 2.065769 1_556
O2 Rh0 2.065764 1_656
O2 Rh1 2.065769 1_556
O2 Rh3 2.065769 1_655
O3 Rh0 2.065764 1_565
O3 Rh3 2.065769 1_565
O3 Rh1 2.065769 1_565
O4 Rh2 2.065765 1_555
O4 Rh3 2.065765 1_555
O4 Rh1 2.065765 1_555
O5 Rh0 2.065764 1_566
O5 Rh2 2.065769 1_556
O5 Rh3 2.065769 1_565
O6 Rh3 2.065765 1_665
O6 Rh2 2.065765 1_656
O6 Rh1 2.065765 1_566
O7 Rh0 2.065764 1_665
O7 Rh1 2.065769 1_565
O7 Rh2 2.065769 1_655
