# generated using pymatgen
data_LiCo2P4H3O14
_symmetry_space_group_name_H-M   'P 1'
_cell_length_a   8.59402705
_cell_length_b   8.59402705
_cell_length_c   8.97774803
_cell_angle_alpha   69.45051132
_cell_angle_beta   69.45051132
_cell_angle_gamma   99.65724508
_symmetry_Int_Tables_number   1
_chemical_formula_structural   LiCo2P4H3O14
_chemical_formula_sum   'Li2 Co4 P8 H6 O28'
_cell_volume   548.42731956
_cell_formula_units_Z   2
loop_
 _symmetry_equiv_pos_site_id
 _symmetry_equiv_pos_as_xyz
  1  'x, y, z'
loop_
 _atom_site_type_symbol
 _atom_site_label
 _atom_site_symmetry_multiplicity
 _atom_site_fract_x
 _atom_site_fract_y
 _atom_site_fract_z
 _atom_site_occupancy
  Li  Li0  1  0.86311600  0.14678500  0.24190600  1
  Li  Li1  1  0.14678500  0.86311600  0.74190600  1
  Co  Co0  1  0.90781000  0.09283100  0.75193200  1
  Co  Co1  1  0.50160700  0.00384800  0.00361500  1
  Co  Co2  1  0.00384800  0.50160700  0.50361500  1
  Co  Co3  1  0.09283100  0.90781000  0.25193200  1
  P  P0  1  0.78657400  0.35464100  0.93550900  1
  P  P1  1  0.82294600  0.72857300  0.68870900  1
  P  P2  1  0.64476300  0.21828300  0.57158200  1
  P  P3  1  0.72857300  0.82294600  0.18870900  1
  P  P4  1  0.27001000  0.17792900  0.81310300  1
  P  P5  1  0.35464100  0.78657400  0.43550900  1
  P  P6  1  0.17792900  0.27001000  0.31310300  1
  P  P7  1  0.21828300  0.64476300  0.07158200  1
  H  H0  1  0.76474000  0.56262500  0.29559500  1
  H  H1  1  0.56262500  0.76474000  0.79559500  1
  H  H2  1  0.52810700  0.02172900  0.49442200  1
  H  H3  1  0.44026900  0.23539300  0.20232700  1
  H  H4  1  0.23539300  0.44026900  0.70232700  1
  H  H5  1  0.02172900  0.52810700  0.99442200  1
  O  O0  1  0.89629600  0.32957500  0.77302700  1
  O  O1  1  0.93201700  0.87058100  0.70865900  1
  O  O2  1  0.92107200  0.71060500  0.51990000  1
  O  O3  1  0.76599300  0.54707500  0.85767300  1
  O  O4  1  0.66807400  0.10262700  0.73031800  1
  O  O5  1  0.77885700  0.40204100  0.46194700  1
  O  O6  1  0.87793400  0.36077500  0.05202400  1
  O  O7  1  0.87058100  0.93201700  0.20865900  1
  O  O8  1  0.64320500  0.12624900  0.44809000  1
  O  O9  1  0.64619200  0.75326800  0.69161000  1
  O  O10  1  0.75326800  0.64619200  0.19161000  1
  O  O11  1  0.45250500  0.23414100  0.64182200  1
  O  O12  1  0.28956600  0.07961600  0.98042200  1
  O  O13  1  0.40204100  0.77885700  0.96194700  1
  O  O14  1  0.59809800  0.22343100  0.03828200  1
  O  O15  1  0.71060500  0.92107200  0.01990000  1
  O  O16  1  0.54707500  0.76599300  0.35767300  1
  O  O17  1  0.24817000  0.35596600  0.80638800  1
  O  O18  1  0.35596600  0.24817000  0.30638800  1
  O  O19  1  0.36077500  0.87793400  0.55202400  1
  O  O20  1  0.13007300  0.06841500  0.79143700  1
  O  O21  1  0.12624900  0.64320500  0.94809000  1
  O  O22  1  0.22343100  0.59809800  0.53828200  1
  O  O23  1  0.32957500  0.89629600  0.27302700  1
  O  O24  1  0.23414100  0.45250500  0.14182200  1
  O  O25  1  0.07961600  0.28956600  0.48042200  1
  O  O26  1  0.06841500  0.13007300  0.29143700  1
  O  O27  1  0.10262700  0.66807400  0.23031800  1
loop_
_geom_bond_atom_site_label_1
_geom_bond_atom_site_label_2
_geom_bond_distance
_geom_bond_site_symmetry_2
Li0 O6 1.967853 1_555
Li0 O7 1.978116 1_545
Li0 O26 1.980467 1_655
Li0 O8 2.057225 1_555
Li1 O19 1.967853 1_555
Li1 O1 1.978116 1_455
Li1 O20 1.980467 1_565
Li1 O21 2.057225 1_555
Co0 O20 2.091951 1_655
Co0 O1 2.107107 1_545
Co0 O0 2.123697 1_555
Co0 O4 2.148711 1_555
Co0 O15 2.155021 1_546
Co0 O25 2.173212 1_655
Co1 O15 2.072091 1_545
Co1 O23 2.086127 1_545
Co1 O12 2.087435 1_554
Co1 O14 2.100988 1_555
Co1 O4 2.110327 1_554
Co1 O13 2.188208 1_544
Co2 O2 2.072091 1_455
Co2 O0 2.086127 1_455
Co2 O25 2.087435 1_555
Co2 O22 2.100988 1_555
Co2 O27 2.110327 1_555
Co2 O5 2.188208 1_455
Co3 O26 2.091951 1_565
Co3 O7 2.107107 1_455
Co3 O23 2.123697 1_555
Co3 O27 2.148711 1_555
Co3 O2 2.155021 1_455
Co3 O12 2.173212 1_564
H0 O10 1.007326 1_555
H0 O5 1.698872 1_555
H1 O9 1.007326 1_555
H1 O13 1.698872 1_555
H2 O8 1.053113 1_555
H2 O19 1.515130 1_545
H3 O18 1.016508 1_555
H3 O14 1.664342 1_555
H4 O17 1.016508 1_555
H4 O22 1.664342 1_555
H5 O21 1.053113 1_555
H5 O6 1.515130 1_456
O0 P0 1.544843 1_555
O1 P1 1.512498 1_555
O2 P1 1.530545 1_555
O3 P1 1.592209 1_555
O3 P0 1.621172 1_555
O4 P2 1.527018 1_555
O5 P2 1.514150 1_555
O6 P0 1.521463 1_554
O7 P3 1.512498 1_555
O8 P2 1.573983 1_555
O9 P1 1.561229 1_555
O10 P3 1.561229 1_555
O11 P2 1.597074 1_555
O11 P4 1.609013 1_555
O12 P4 1.527231 1_555
O13 P7 1.514150 1_556
O14 P0 1.534305 1_554
O15 P3 1.530545 1_555
O16 P3 1.592209 1_555
O16 P5 1.621172 1_555
O17 P4 1.555465 1_555
O18 P6 1.555465 1_555
O19 P5 1.521463 1_555
O20 P4 1.510934 1_555
O21 P7 1.573983 1_556
O22 P5 1.534305 1_555
O23 P5 1.544843 1_555
O24 P7 1.597074 1_555
O24 P6 1.609013 1_555
O25 P6 1.527231 1_555
O26 P6 1.510934 1_555
O27 P7 1.527018 1_555
