# generated using pymatgen
data_CoAs3
_symmetry_space_group_name_H-M   'P 1'
_cell_length_a   7.09983323
_cell_length_b   7.09983323
_cell_length_c   7.09983367
_cell_angle_alpha   109.47121613
_cell_angle_beta   109.47121612
_cell_angle_gamma   109.47122107
_symmetry_Int_Tables_number   1
_chemical_formula_structural   CoAs3
_chemical_formula_sum   'Co4 As12'
_cell_volume   275.50064815
_cell_formula_units_Z   4
loop_
 _symmetry_equiv_pos_site_id
 _symmetry_equiv_pos_as_xyz
  1  'x, y, z'
loop_
 _atom_site_type_symbol
 _atom_site_label
 _atom_site_symmetry_multiplicity
 _atom_site_fract_x
 _atom_site_fract_y
 _atom_site_fract_z
 _atom_site_occupancy
  Co  Co0  1  0.50000000  0.00000000  -0.00000000  1
  Co  Co1  1  -0.00000000  0.00000000  0.50000000  1
  Co  Co2  1  -0.00000000  0.50000000  -0.00000000  1
  Co  Co3  1  0.50000000  0.50000000  0.50000000  1
  As  As0  1  0.65854771  0.80936263  0.15081592  1
  As  As1  1  0.84918408  0.34145229  0.19063737  1
  As  As2  1  0.65854771  0.50773278  0.84918408  1
  As  As3  1  0.34145229  0.49226722  0.15081592  1
  As  As4  1  0.15081592  0.34145229  0.49226722  1
  As  As5  1  0.80936263  0.15081592  0.65854771  1
  As  As6  1  0.19063737  0.84918408  0.34145229  1
  As  As7  1  0.50773278  0.84918408  0.65854771  1
  As  As8  1  0.84918408  0.65854771  0.50773278  1
  As  As9  1  0.34145229  0.19063737  0.84918408  1
  As  As10  1  0.15081592  0.65854771  0.80936263  1
  As  As11  1  0.49226722  0.15081592  0.34145229  1
loop_
_geom_bond_atom_site_label_1
_geom_bond_atom_site_label_2
_geom_bond_distance
_geom_bond_site_symmetry_2
As0 Co1 2.328932 1_665
As0 Co0 2.328939 1_565
As0 As2 2.472825 1_554
As0 As3 2.599606 1_555
As1 Co0 2.328932 1_555
As1 Co2 2.328939 1_655
As1 As4 2.472825 1_655
As1 As8 2.599606 1_555
As2 Co3 2.328930 1_555
As2 Co2 2.328937 1_656
As2 As9 2.599606 1_555
As3 Co3 2.328930 1_555
As3 Co2 2.328937 1_555
As3 As9 2.472825 1_554
As4 Co3 2.328929 1_555
As4 Co1 2.328937 1_555
As5 Co2 2.328932 1_656
As5 Co1 2.328939 1_655
As5 As7 2.472824 1_545
As6 Co2 2.328932 1_555
As6 Co1 2.328939 1_565
As6 As7 2.599606 1_555
As7 Co3 2.328930 1_555
As7 Co0 2.328937 1_566
As8 Co3 2.328929 1_555
As8 Co1 2.328937 1_665
As9 Co1 2.328932 1_555
As9 Co0 2.328939 1_556
As10 Co0 2.328932 1_566
As10 Co2 2.328939 1_556
As10 As8 2.472825 1_455
As10 As4 2.599606 1_555
As11 Co3 2.328930 1_555
As11 Co0 2.328937 1_555
As11 As6 2.472824 1_545
As11 As5 2.599606 1_555
