# generated using pymatgen
data_TbCo9Si4
_symmetry_space_group_name_H-M   'P 1'
_cell_length_a   7.89143729
_cell_length_b   7.89143729
_cell_length_c   7.89143729
_cell_angle_alpha   121.54088603
_cell_angle_beta   121.54088603
_cell_angle_gamma   87.35120408
_symmetry_Int_Tables_number   1
_chemical_formula_structural   TbCo9Si4
_chemical_formula_sum   'Tb2 Co18 Si8'
_cell_volume   339.01163399
_cell_formula_units_Z   2
loop_
 _symmetry_equiv_pos_site_id
 _symmetry_equiv_pos_as_xyz
  1  'x, y, z'
loop_
 _atom_site_type_symbol
 _atom_site_label
 _atom_site_symmetry_multiplicity
 _atom_site_fract_x
 _atom_site_fract_y
 _atom_site_fract_z
 _atom_site_occupancy
  Tb  Tb0  1  0.25000000  0.25000000  0.00000000  1
  Tb  Tb1  1  0.75000000  0.75000000  0.00000000  1
  Co  Co0  1  0.30138200  0.42936100  0.73074200  1
  Co  Co1  1  0.92936100  0.80138200  0.73074200  1
  Co  Co2  1  0.81190000  0.31190000  0.76244900  1
  Co  Co3  1  0.31190000  0.54945100  0.50000000  1
  Co  Co4  1  0.04945100  0.81190000  0.50000000  1
  Co  Co5  1  0.68810000  0.45054900  0.50000000  1
  Co  Co6  1  0.95054900  0.18810000  0.50000000  1
  Co  Co7  1  0.45054900  0.95054900  0.76244900  1
  Co  Co8  1  0.18810000  0.68810000  0.23755100  1
  Co  Co9  1  0.54945100  0.04945100  0.23755100  1
  Co  Co10  1  0.57063900  0.30138200  0.87202100  1
  Co  Co11  1  0.42936100  0.69861800  0.12797900  1
  Co  Co12  1  0.80138200  0.07063900  0.87202100  1
  Co  Co13  1  0.19861800  0.92936100  0.12797900  1
  Co  Co14  1  0.07063900  0.19861800  0.26925800  1
  Co  Co15  1  0.00000000  0.50000000  0.50000000  1
  Co  Co16  1  0.50000000  0.00000000  0.50000000  1
  Co  Co17  1  0.69861800  0.57063900  0.26925800  1
  Si  Si0  1  0.04678400  0.54678400  0.83689300  1
  Si  Si1  1  0.70989100  0.20989100  0.16310700  1
  Si  Si2  1  0.20989100  0.04678400  0.50000000  1
  Si  Si3  1  0.54678400  0.70989100  0.50000000  1
  Si  Si4  1  0.79010900  0.95321600  0.50000000  1
  Si  Si5  1  0.45321600  0.29010900  0.50000000  1
  Si  Si6  1  0.95321600  0.45321600  0.16310700  1
  Si  Si7  1  0.29010900  0.79010900  0.83689300  1
loop_
_geom_bond_atom_site_label_1
_geom_bond_atom_site_label_2
_geom_bond_distance
_geom_bond_site_symmetry_2
Co0 Co10 2.297624 1_555
Co0 Co11 2.297628 1_556
Co0 Co15 2.385676 1_555
Co0 Si5 2.454855 1_555
Co0 Si2 2.454861 1_555
Co0 Co3 2.488248 1_555
Co0 Co6 2.488258 1_455
Co0 Co14 2.514915 1_555
Co0 Si7 2.524604 1_555
Co0 Si0 2.524611 1_555
Co0 Tb1 3.283841 1_556
Co0 Tb0 3.283851 1_556
Co1 Co12 2.297624 1_565
Co1 Co13 2.297628 1_656
Co1 Co15 2.385676 1_655
Co1 Si4 2.454855 1_555
Co1 Si3 2.454861 1_555
Co1 Co4 2.488248 1_655
Co1 Co5 2.488258 1_555
Co1 Co17 2.514915 1_555
Co1 Si7 2.524604 1_655
Co1 Si0 2.524611 1_655
Co1 Tb0 3.283841 1_666
Co1 Tb1 3.283851 1_556
Co2 Si6 2.284991 1_556
Co2 Si0 2.292522 1_655
Co2 Si4 2.422825 1_545
Co2 Si5 2.422825 1_555
Co2 Co6 2.568298 1_555
Co2 Co5 2.568298 1_555
Co2 Tb0 3.118771 1_656
Co2 Tb1 3.118771 1_556
Co3 Si5 2.284991 1_555
Co3 Si3 2.292522 1_555
Co3 Si6 2.422825 1_455
Co3 Si7 2.422825 1_555
Co3 Co7 2.568298 1_555
Co3 Co8 2.568298 1_555
Co3 Tb0 3.118771 1_555
Co3 Tb1 3.118771 1_556
Co4 Si4 2.284991 1_455
Co4 Si2 2.292522 1_565
Co4 Si7 2.422825 1_555
Co4 Si6 2.422825 1_455
Co4 Co7 2.568298 1_555
Co4 Co8 2.568298 1_555
Co4 Tb0 3.118771 1_566
Co4 Tb1 3.118771 1_455
Co5 Si3 2.284991 1_555
Co5 Si5 2.292522 1_555
Co5 Si1 2.422825 1_555
Co5 Si0 2.422825 1_655
Co5 Co9 2.568298 1_555
Co5 Tb0 3.118771 1_555
Co5 Tb1 3.118771 1_556
Co6 Si2 2.284991 1_655
Co6 Si4 2.292522 1_545
Co6 Si0 2.422825 1_655
Co6 Si1 2.422825 1_555
Co6 Co9 2.568298 1_555
Co6 Tb1 3.118771 1_545
Co6 Tb0 3.118771 1_656
Co7 Si1 2.284991 1_566
Co7 Si7 2.292522 1_555
Co7 Si3 2.422825 1_555
Co7 Si2 2.422825 1_565
Co7 Tb1 3.118771 1_556
Co7 Tb0 3.118771 1_566
Co8 Si0 2.284991 1_554
Co8 Si6 2.292522 1_455
Co8 Si3 2.422825 1_555
Co8 Si2 2.422825 1_565
Co8 Tb0 3.118771 1_555
Co8 Tb1 3.118771 1_455
Co9 Si7 2.284991 1_544
Co9 Si1 2.292522 1_555
Co9 Si4 2.422825 1_545
Co9 Si5 2.422825 1_555
Co9 Tb1 3.118771 1_545
Co9 Tb0 3.118771 1_555
Co10 Co17 2.297628 1_556
Co10 Co16 2.385679 1_555
Co10 Si6 2.454861 1_556
Co10 Si1 2.454861 1_556
Co10 Co7 2.488256 1_545
Co10 Co2 2.488256 1_555
Co10 Co12 2.514926 1_555
Co10 Si5 2.524606 1_555
Co10 Si2 2.524606 1_555
Co10 Tb1 3.283843 1_556
Co10 Tb0 3.283843 1_556
Co11 Co17 2.297624 1_555
Co11 Co16 2.385679 1_565
Co11 Si7 2.454861 1_554
Co11 Si0 2.454861 1_554
Co11 Co9 2.488256 1_565
Co11 Co8 2.488256 1_555
Co11 Co13 2.514926 1_555
Co11 Si4 2.524606 1_555
Co11 Si3 2.524606 1_555
Co11 Tb1 3.283843 1_555
Co11 Tb0 3.283843 1_555
Co12 Co14 2.297628 1_656
Co12 Co16 2.385679 1_555
Co12 Si6 2.454861 1_556
Co12 Si1 2.454861 1_556
Co12 Co7 2.488256 1_545
Co12 Co2 2.488256 1_555
Co12 Si4 2.524606 1_545
Co12 Si3 2.524606 1_545
Co12 Tb1 3.283843 1_546
Co12 Tb0 3.283843 1_656
Co13 Co14 2.297624 1_565
Co13 Co16 2.385679 1_565
Co13 Si7 2.454861 1_554
Co13 Si0 2.454861 1_554
Co13 Co9 2.488256 1_565
Co13 Co8 2.488256 1_555
Co13 Si5 2.524606 1_565
Co13 Si2 2.524606 1_565
Co13 Tb0 3.283843 1_565
Co13 Tb1 3.283843 1_455
Co14 Co15 2.385676 1_555
Co14 Si2 2.454855 1_555
Co14 Si5 2.454861 1_555
Co14 Co6 2.488248 1_455
Co14 Co3 2.488258 1_555
Co14 Si1 2.524604 1_455
Co14 Si6 2.524611 1_455
Co14 Tb1 3.283841 1_445
Co14 Tb0 3.283851 1_555
Co15 Si6 2.302049 1_455
Co15 Si7 2.302049 1_555
Co15 Si0 2.302049 1_555
Co15 Si1 2.302049 1_455
Co15 Co17 2.385676 1_455
Co15 Co4 2.509832 1_555
Co15 Co6 2.509832 1_455
Co15 Co5 2.509832 1_455
Co15 Co3 2.509832 1_555
Co16 Si4 2.302049 1_545
Co16 Si2 2.302049 1_555
Co16 Si5 2.302049 1_555
Co16 Si3 2.302049 1_545
Co16 Co7 2.509832 1_545
Co16 Co8 2.509832 1_545
Co16 Co2 2.509832 1_555
Co16 Co9 2.509832 1_555
Co17 Si3 2.454855 1_555
Co17 Si4 2.454861 1_555
Co17 Co5 2.488248 1_555
Co17 Co4 2.488258 1_655
Co17 Si1 2.524604 1_555
Co17 Si6 2.524611 1_555
Co17 Tb0 3.283841 1_555
Co17 Tb1 3.283851 1_555
Si0 Si7 2.777589 1_555
Si0 Tb0 3.218834 1_556
Si0 Tb1 3.218834 1_456
Si1 Si6 2.777589 1_555
Si1 Tb0 3.218834 1_555
Si1 Tb1 3.218834 1_545
Si2 Si5 2.777589 1_555
Si2 Tb0 3.218834 1_556
Si2 Tb1 3.218834 1_445
Si3 Si4 2.777589 1_555
Si3 Tb1 3.218834 1_556
Si3 Tb0 3.218834 1_555
Si4 Tb1 3.218834 1_555
Si4 Tb0 3.218834 1_666
Si5 Tb1 3.218834 1_556
Si5 Tb0 3.218834 1_555
Si6 Tb0 3.218834 1_655
Si6 Tb1 3.218834 1_555
Si7 Tb1 3.218834 1_556
Si7 Tb0 3.218834 1_566
