# generated using pymatgen
data_Ni2Mo3N
_symmetry_space_group_name_H-M   'P 1'
_cell_length_a   6.61380398
_cell_length_b   6.61380398
_cell_length_c   6.61380398
_cell_angle_alpha   90.00000000
_cell_angle_beta   90.00000000
_cell_angle_gamma   90.00000000
_symmetry_Int_Tables_number   1
_chemical_formula_structural   Ni2Mo3N
_chemical_formula_sum   'Ni8 Mo12 N4'
_cell_volume   289.30367962
_cell_formula_units_Z   4
loop_
 _symmetry_equiv_pos_site_id
 _symmetry_equiv_pos_as_xyz
  1  'x, y, z'
loop_
 _atom_site_type_symbol
 _atom_site_label
 _atom_site_symmetry_multiplicity
 _atom_site_fract_x
 _atom_site_fract_y
 _atom_site_fract_z
 _atom_site_occupancy
  Ni  Ni0  1  0.93326453  0.56673547  0.43326453  1
  Ni  Ni1  1  0.18326453  0.81673547  0.31673547  1
  Ni  Ni2  1  0.43326453  0.93326453  0.56673547  1
  Ni  Ni3  1  0.68326453  0.68326453  0.68326453  1
  Ni  Ni4  1  0.81673547  0.31673547  0.18326453  1
  Ni  Ni5  1  0.31673547  0.18326453  0.81673547  1
  Ni  Ni6  1  0.56673547  0.43326453  0.93326453  1
  Ni  Ni7  1  0.06673547  0.06673547  0.06673547  1
  Mo  Mo0  1  0.20021539  0.45021539  0.12500000  1
  Mo  Mo1  1  0.04978461  0.87500000  0.70021539  1
  Mo  Mo2  1  0.45021539  0.12500000  0.20021539  1
  Mo  Mo3  1  0.29978461  0.54978461  0.62500000  1
  Mo  Mo4  1  0.95021539  0.37500000  0.79978461  1
  Mo  Mo5  1  0.54978461  0.62500000  0.29978461  1
  Mo  Mo6  1  0.70021539  0.04978461  0.87500000  1
  Mo  Mo7  1  0.62500000  0.29978461  0.54978461  1
  Mo  Mo8  1  0.87500000  0.70021539  0.04978461  1
  Mo  Mo9  1  0.37500000  0.79978461  0.95021539  1
  Mo  Mo10  1  0.12500000  0.20021539  0.45021539  1
  Mo  Mo11  1  0.79978461  0.95021539  0.37500000  1
  N  N0  1  0.87500000  0.12500000  0.62500000  1
  N  N1  1  0.62500000  0.87500000  0.12500000  1
  N  N2  1  0.12500000  0.62500000  0.87500000  1
  N  N3  1  0.37500000  0.37500000  0.37500000  1
loop_
_geom_bond_atom_site_label_1
_geom_bond_atom_site_label_2
_geom_bond_distance
_geom_bond_site_symmetry_2
Ni0 Ni1 2.462068 1_655
Ni0 Ni3 2.462068 1_555
Ni0 Ni4 2.462068 1_555
Ni1 Ni2 2.462068 1_555
Ni1 Ni7 2.462068 1_565
Ni2 Ni3 2.462068 1_555
Ni2 Ni5 2.462068 1_565
Ni3 Ni6 2.462068 1_555
Ni4 Ni7 2.462068 1_655
Ni4 Ni6 2.462068 1_554
Ni5 Ni6 2.462068 1_555
Ni5 Ni7 2.462068 1_556
Mo0 N3 2.077903 1_555
Mo0 N2 2.077903 1_554
Mo0 Ni7 2.713018 1_555
Mo0 Ni4 2.713018 1_455
Mo0 Ni6 2.738041 1_554
Mo0 Ni1 2.738041 1_555
Mo0 Ni5 2.804960 1_554
Mo0 Ni0 2.804960 1_455
Mo1 N2 2.077903 1_555
Mo1 N0 2.077903 1_465
Mo1 Ni2 2.713018 1_555
Mo1 Ni1 2.713018 1_555
Mo1 Ni7 2.738041 1_566
Mo1 Ni3 2.738041 1_455
Mo1 Ni5 2.804960 1_565
Mo1 Ni0 2.804960 1_455
Mo2 N3 2.077903 1_555
Mo2 N1 2.077903 1_545
Mo2 Ni7 2.713018 1_555
Mo2 Ni5 2.713018 1_554
Mo2 Ni2 2.738041 1_545
Mo2 Ni4 2.738041 1_555
Mo2 Ni6 2.804960 1_554
Mo2 Ni1 2.804960 1_545
Mo3 N2 2.077903 1_555
Mo3 N3 2.077903 1_555
Mo3 Ni2 2.713018 1_555
Mo3 Ni3 2.713018 1_555
Mo3 Ni5 2.738041 1_555
Mo3 Ni0 2.738041 1_455
Mo3 Ni6 2.804960 1_555
Mo3 Ni1 2.804960 1_555
Mo4 N0 2.077903 1_555
Mo4 N2 2.077903 1_655
Mo4 Ni4 2.713018 1_556
Mo4 Ni6 2.713018 1_555
Mo4 Ni0 2.738041 1_555
Mo4 Ni5 2.738041 1_655
Mo4 Ni3 2.804960 1_555
Mo4 Ni7 2.804960 1_656
Mo5 N1 2.077903 1_555
Mo5 N3 2.077903 1_555
Mo5 Ni0 2.713018 1_555
Mo5 Ni3 2.713018 1_555
Mo5 Ni6 2.738041 1_554
Mo5 Ni1 2.738041 1_555
Mo5 Ni4 2.804960 1_555
Mo5 Ni2 2.804960 1_555
Mo6 N0 2.077903 1_555
Mo6 N1 2.077903 1_546
Mo6 Ni6 2.713018 1_555
Mo6 Ni5 2.713018 1_555
Mo6 Ni7 2.738041 1_656
Mo6 Ni3 2.738041 1_545
Mo6 Ni2 2.804960 1_545
Mo6 Ni4 2.804960 1_556
Mo7 N0 2.077903 1_555
Mo7 N3 2.077903 1_555
Mo7 Ni6 2.713018 1_555
Mo7 Ni3 2.713018 1_555
Mo7 Ni2 2.738041 1_545
Mo7 Ni4 2.738041 1_555
Mo7 Ni0 2.804960 1_555
Mo7 Ni5 2.804960 1_555
Mo8 N2 2.077903 1_654
Mo8 N1 2.077903 1_555
Mo8 Ni0 2.713018 1_555
Mo8 Ni4 2.713018 1_555
Mo8 Ni3 2.738041 1_554
Mo8 Ni7 2.738041 1_665
Mo8 Ni6 2.804960 1_554
Mo8 Ni1 2.804960 1_655
Mo9 N2 2.077903 1_555
Mo9 N1 2.077903 1_556
Mo9 Ni5 2.713018 1_565
Mo9 Ni2 2.713018 1_555
Mo9 Ni1 2.738041 1_556
Mo9 Ni6 2.738041 1_555
Mo9 Ni3 2.804960 1_555
Mo9 Ni7 2.804960 1_566
Mo10 N3 2.077903 1_555
Mo10 N0 2.077903 1_455
Mo10 Ni7 2.713018 1_555
Mo10 Ni1 2.713018 1_545
Mo10 Ni5 2.738041 1_555
Mo10 Ni0 2.738041 1_455
Mo10 Ni2 2.804960 1_545
Mo10 Ni4 2.804960 1_455
Mo11 N1 2.077903 1_555
Mo11 N0 2.077903 1_565
Mo11 Ni1 2.713018 1_655
Mo11 Ni0 2.713018 1_555
Mo11 Ni2 2.738041 1_555
Mo11 Ni4 2.738041 1_565
Mo11 Ni7 2.804960 1_665
Mo11 Ni3 2.804960 1_555
