# generated using pymatgen
data_PrRhO3
_symmetry_space_group_name_H-M   'P 1'
_cell_length_a   5.40540234
_cell_length_b   5.82736449
_cell_length_c   7.84373387
_cell_angle_alpha   90.00000000
_cell_angle_beta   90.00000000
_cell_angle_gamma   90.00000000
_symmetry_Int_Tables_number   1
_chemical_formula_structural   PrRhO3
_chemical_formula_sum   'Pr4 Rh4 O12'
_cell_volume   247.07173136
_cell_formula_units_Z   4
loop_
 _symmetry_equiv_pos_site_id
 _symmetry_equiv_pos_as_xyz
  1  'x, y, z'
loop_
 _atom_site_type_symbol
 _atom_site_label
 _atom_site_symmetry_multiplicity
 _atom_site_fract_x
 _atom_site_fract_y
 _atom_site_fract_z
 _atom_site_occupancy
  Pr  Pr0  1  0.47774623  0.57276281  0.75000000  1
  Pr  Pr1  1  0.97774623  0.92723719  0.25000000  1
  Pr  Pr2  1  0.02225377  0.07276281  0.75000000  1
  Pr  Pr3  1  0.52225377  0.42723719  0.25000000  1
  Rh  Rh0  1  0.50000000  -0.00000000  0.50000000  1
  Rh  Rh1  1  0.00000000  0.50000000  0.50000000  1
  Rh  Rh2  1  0.00000000  0.50000000  0.00000000  1
  Rh  Rh3  1  0.50000000  -0.00000000  0.00000000  1
  O  O0  1  0.81194674  0.19765115  0.44915213  1
  O  O1  1  0.31194674  0.30234885  0.55084787  1
  O  O2  1  0.68805326  0.69765115  0.05084787  1
  O  O3  1  0.18805326  0.80234885  0.94915213  1
  O  O4  1  0.18805326  0.80234885  0.55084787  1
  O  O5  1  0.68805326  0.69765115  0.44915213  1
  O  O6  1  0.31194674  0.30234885  0.94915213  1
  O  O7  1  0.81194674  0.19765115  0.05084787  1
  O  O8  1  0.39629993  0.03004231  0.25000000  1
  O  O9  1  0.89629993  0.46995769  0.75000000  1
  O  O10  1  0.10370007  0.53004231  0.25000000  1
  O  O11  1  0.60370007  0.96995769  0.75000000  1
loop_
_geom_bond_atom_site_label_1
_geom_bond_atom_site_label_2
_geom_bond_distance
_geom_bond_site_symmetry_2
O0 Rh1 2.072832 1_655
O0 Rh0 2.080611 1_555
O0 Pr1 2.393009 1_545
O0 Pr3 2.584983 1_555
O0 Pr2 2.718541 1_655
O1 Rh0 2.072832 1_555
O1 Rh1 2.080611 1_555
O1 Pr0 2.393009 1_555
O1 Pr2 2.584983 1_555
O1 Pr3 2.718541 1_555
O2 Rh3 2.072832 1_565
O2 Rh2 2.080611 1_655
O2 Pr3 2.393009 1_555
O2 Pr1 2.584983 1_555
O2 Pr0 2.718541 1_554
O3 Rh2 2.072832 1_556
O3 Rh3 2.080611 1_566
O3 Pr2 2.393009 1_565
O3 Pr0 2.584983 1_555
O3 Pr1 2.718541 1_456
O4 Rh1 2.072832 1_555
O4 Rh0 2.080611 1_565
O4 Pr2 2.393009 1_565
O4 Pr0 2.584983 1_555
O4 Pr1 2.718541 1_455
O5 Rh0 2.072832 1_565
O5 Rh1 2.080611 1_655
O5 Pr3 2.393009 1_555
O5 Pr1 2.584983 1_555
O5 Pr0 2.718541 1_555
O6 Rh3 2.072832 1_556
O6 Rh2 2.080611 1_556
O6 Pr0 2.393009 1_555
O6 Pr2 2.584983 1_555
O6 Pr3 2.718541 1_556
O7 Rh2 2.072832 1_655
O7 Rh3 2.080611 1_555
O7 Pr1 2.393009 1_545
O7 Pr3 2.584983 1_555
O7 Pr2 2.718541 1_654
O8 Rh3 2.046977 1_555
O8 Rh0 2.046977 1_555
O8 Pr1 2.340424 1_445
O8 Pr3 2.412654 1_555
O9 Rh1 2.046977 1_655
O9 Rh2 2.046977 1_656
O9 Pr0 2.340424 1_555
O9 Pr2 2.412654 1_655
O10 Rh1 2.046977 1_555
O10 Rh2 2.046977 1_555
O10 Pr3 2.340424 1_555
O10 Pr1 2.412654 1_455
O11 Rh3 2.046977 1_566
O11 Rh0 2.046977 1_565
O11 Pr2 2.340424 1_665
O11 Pr0 2.412654 1_555
