# generated using pymatgen
data_Ba(CuSe)2
_symmetry_space_group_name_H-M   'P 1'
_cell_length_a   4.20938168
_cell_length_b   9.57861590
_cell_length_c   10.82417378
_cell_angle_alpha   90.00000000
_cell_angle_beta   90.00000000
_cell_angle_gamma   90.00000000
_symmetry_Int_Tables_number   1
_chemical_formula_structural   Ba(CuSe)2
_chemical_formula_sum   'Ba4 Cu8 Se8'
_cell_volume   436.43123115
_cell_formula_units_Z   4
loop_
 _symmetry_equiv_pos_site_id
 _symmetry_equiv_pos_as_xyz
  1  'x, y, z'
loop_
 _atom_site_type_symbol
 _atom_site_label
 _atom_site_symmetry_multiplicity
 _atom_site_fract_x
 _atom_site_fract_y
 _atom_site_fract_z
 _atom_site_occupancy
  Ba  Ba0  1  0.75000000  0.25888676  0.67639784  1
  Ba  Ba1  1  0.25000000  0.74111324  0.32360216  1
  Ba  Ba2  1  0.75000000  0.75888676  0.82360216  1
  Ba  Ba3  1  0.25000000  0.24111324  0.17639784  1
  Cu  Cu0  1  0.25000000  0.58062948  0.04174975  1
  Cu  Cu1  1  0.75000000  0.41937052  0.95825025  1
  Cu  Cu2  1  0.75000000  0.91937052  0.54174975  1
  Cu  Cu3  1  0.25000000  0.08062948  0.45825025  1
  Cu  Cu4  1  0.75000000  0.44551451  0.38681871  1
  Cu  Cu5  1  0.25000000  0.55448549  0.61318129  1
  Cu  Cu6  1  0.75000000  0.94551451  0.11318129  1
  Cu  Cu7  1  0.25000000  0.05448549  0.88681871  1
  Se  Se0  1  0.25000000  0.34234218  0.45982976  1
  Se  Se1  1  0.75000000  0.65765782  0.54017024  1
  Se  Se2  1  0.75000000  0.15765782  0.95982976  1
  Se  Se3  1  0.25000000  0.84234218  0.04017024  1
  Se  Se4  1  0.75000000  0.02103049  0.33194324  1
  Se  Se5  1  0.25000000  0.97896951  0.66805676  1
  Se  Se6  1  0.75000000  0.52103049  0.16805676  1
  Se  Se7  1  0.25000000  0.47896951  0.83194324  1
loop_
_geom_bond_atom_site_label_1
_geom_bond_atom_site_label_2
_geom_bond_distance
_geom_bond_site_symmetry_2
Ba0 Se2 3.217499 1_555
Ba0 Se0 3.250212 1_555
Ba0 Se0 3.250212 1_655
Ba0 Se5 3.409812 1_545
Ba0 Se5 3.409812 1_645
Ba0 Cu1 3.416214 1_555
Ba0 Se7 3.421759 1_555
Ba0 Se7 3.421759 1_655
Ba0 Cu2 3.563748 1_545
Ba0 Cu5 3.593734 1_655
Ba0 Cu5 3.593734 1_555
Ba0 Cu3 3.594540 1_555
Ba0 Cu3 3.594540 1_655
Ba0 Cu4 3.608386 1_555
Ba0 Cu7 3.667510 1_655
Ba0 Cu7 3.667510 1_555
Ba1 Se3 3.217499 1_555
Ba1 Se1 3.250212 1_455
Ba1 Se1 3.250212 1_555
Ba1 Se4 3.409812 1_565
Ba1 Se4 3.409812 1_465
Ba1 Cu0 3.416214 1_555
Ba1 Se6 3.421759 1_555
Ba1 Se6 3.421759 1_455
Ba1 Cu3 3.563748 1_565
Ba1 Cu4 3.593734 1_555
Ba1 Cu4 3.593734 1_455
Ba1 Cu2 3.594540 1_455
Ba1 Cu2 3.594540 1_555
Ba1 Cu5 3.608386 1_555
Ba1 Cu6 3.667510 1_555
Ba1 Cu6 3.667510 1_455
Ba2 Se1 3.217499 1_555
Ba2 Se3 3.250212 1_656
Ba2 Se3 3.250212 1_556
Ba2 Se7 3.409812 1_655
Ba2 Se7 3.409812 1_555
Ba2 Cu2 3.416214 1_555
Ba2 Se5 3.421759 1_655
Ba2 Se5 3.421759 1_555
Ba2 Cu1 3.563748 1_555
Ba2 Cu7 3.593734 1_565
Ba2 Cu7 3.593734 1_665
Ba2 Cu0 3.594540 1_556
Ba2 Cu0 3.594540 1_656
Ba2 Cu6 3.608386 1_556
Ba2 Cu5 3.667510 1_555
Ba2 Cu5 3.667510 1_655
Ba3 Se0 3.217499 1_555
Ba3 Se2 3.250212 1_554
Ba3 Se2 3.250212 1_454
Ba3 Se6 3.409812 1_555
Ba3 Se6 3.409812 1_455
Ba3 Cu3 3.416214 1_555
Ba3 Se4 3.421759 1_455
Ba3 Se4 3.421759 1_555
Ba3 Cu0 3.563748 1_555
Ba3 Cu6 3.593734 1_545
Ba3 Cu6 3.593734 1_445
Ba3 Cu1 3.594540 1_454
Ba3 Cu1 3.594540 1_554
Ba3 Cu7 3.608386 1_554
Ba3 Cu4 3.667510 1_555
Ba3 Cu4 3.667510 1_455
Cu0 Se7 2.470946 1_554
Cu0 Se3 2.506904 1_555
Cu0 Se6 2.573864 1_555
Cu0 Se6 2.573864 1_455
Cu1 Se6 2.470946 1_556
Cu1 Se2 2.506904 1_555
Cu1 Se7 2.573864 1_655
Cu1 Se7 2.573864 1_555
Cu2 Se4 2.470946 1_565
Cu2 Se1 2.506904 1_555
Cu2 Se5 2.573864 1_555
Cu2 Se5 2.573864 1_655
Cu3 Se5 2.470946 1_545
Cu3 Se0 2.506904 1_555
Cu3 Se4 2.573864 1_555
Cu3 Se4 2.573864 1_455
Cu4 Se0 2.455791 1_655
Cu4 Se0 2.455791 1_555
Cu4 Se6 2.475934 1_555
Cu4 Se1 2.623826 1_555
Cu5 Se1 2.455791 1_555
Cu5 Se1 2.455791 1_455
Cu5 Se7 2.475934 1_555
Cu5 Se0 2.623826 1_555
Cu6 Se3 2.455791 1_655
Cu6 Se3 2.455791 1_555
Cu6 Se4 2.475934 1_565
Cu6 Se2 2.623826 1_564
Cu7 Se2 2.455791 1_555
Cu7 Se2 2.455791 1_455
Cu7 Se5 2.475934 1_545
Cu7 Se3 2.623826 1_546
