# generated using pymatgen
data_Cr3Os
_symmetry_space_group_name_H-M   'P 1'
_cell_length_a   4.61735076
_cell_length_b   4.61735563
_cell_length_c   4.61733355
_cell_angle_alpha   90.00000000
_cell_angle_beta   90.00000000
_cell_angle_gamma   90.00000000
_symmetry_Int_Tables_number   1
_chemical_formula_structural   Cr3Os
_chemical_formula_sum   'Cr6 Os2'
_cell_volume   98.44132285
_cell_formula_units_Z   2
loop_
 _symmetry_equiv_pos_site_id
 _symmetry_equiv_pos_as_xyz
  1  'x, y, z'
loop_
 _atom_site_type_symbol
 _atom_site_label
 _atom_site_symmetry_multiplicity
 _atom_site_fract_x
 _atom_site_fract_y
 _atom_site_fract_z
 _atom_site_occupancy
  Cr  Cr0  1  0.25002041  0.99999779  0.50000000  1
  Cr  Cr1  1  0.74997959  0.99999779  0.50000000  1
  Cr  Cr2  1  0.99999900  0.50000221  0.24999707  1
  Cr  Cr3  1  0.99999900  0.50000221  0.75000293  1
  Cr  Cr4  1  0.50000100  0.75000895  -0.00000000  1
  Cr  Cr5  1  0.50000100  0.24999101  0.00000000  1
  Os  Os0  1  0.99999800  0.99999656  0.99999900  1
  Os  Os1  1  0.50000200  0.50000349  0.50000100  1
loop_
_geom_bond_atom_site_label_1
_geom_bond_atom_site_label_2
_geom_bond_distance
_geom_bond_site_symmetry_2
Cr0 Cr1 2.308487 1_555
Cr0 Cr1 2.308864 1_455
Cr0 Os1 2.581118 1_555
Cr0 Os1 2.581165 1_565
Cr0 Os0 2.581212 1_455
Cr0 Os0 2.581220 1_454
Cr1 Os1 2.581110 1_555
Cr1 Os1 2.581157 1_565
Cr1 Os0 2.581204 1_555
Cr1 Os0 2.581212 1_554
Cr2 Cr3 2.308640 1_554
Cr2 Cr3 2.308694 1_555
Cr2 Os0 2.581150 1_554
Cr2 Os1 2.581171 1_555
Cr2 Os1 2.581196 1_655
Cr2 Os0 2.581197 1_544
Cr3 Os0 2.581146 1_555
Cr3 Os1 2.581167 1_555
Cr3 Os1 2.581192 1_655
Cr3 Os0 2.581193 1_545
Cr4 Cr5 2.308595 1_565
Cr4 Cr5 2.308761 1_555
Cr4 Os0 2.581140 1_554
Cr4 Os0 2.581165 1_454
Cr4 Os1 2.581178 1_554
Cr4 Os1 2.581186 1_555
Cr5 Os0 2.581154 1_544
Cr5 Os0 2.581179 1_444
Cr5 Os1 2.581192 1_554
Cr5 Os1 2.581200 1_555
