# generated using pymatgen
data_CaGe2O5
_symmetry_space_group_name_H-M   'P 1'
_cell_length_a   5.73313539
_cell_length_b   7.32176262
_cell_length_c   8.30649173
_cell_angle_alpha   90.00000000
_cell_angle_beta   90.00000000
_cell_angle_gamma   90.00000000
_symmetry_Int_Tables_number   1
_chemical_formula_structural   CaGe2O5
_chemical_formula_sum   'Ca4 Ge8 O20'
_cell_volume   348.67874919
_cell_formula_units_Z   4
loop_
 _symmetry_equiv_pos_site_id
 _symmetry_equiv_pos_as_xyz
  1  'x, y, z'
loop_
 _atom_site_type_symbol
 _atom_site_label
 _atom_site_symmetry_multiplicity
 _atom_site_fract_x
 _atom_site_fract_y
 _atom_site_fract_z
 _atom_site_occupancy
  Ca  Ca0  1  0.50000000  0.36491093  0.16618790  1
  Ca  Ca1  1  0.50000000  0.63508907  0.83381210  1
  Ca  Ca2  1  0.50000000  0.86491093  0.33381210  1
  Ca  Ca3  1  0.50000000  0.13508907  0.66618790  1
  Ge  Ge0  1  -0.00000000  0.60866451  0.14585716  1
  Ge  Ge1  1  -0.00000000  0.39133549  0.85414284  1
  Ge  Ge2  1  -0.00000000  0.10866451  0.35414284  1
  Ge  Ge3  1  -0.00000000  0.89133549  0.64585716  1
  Ge  Ge4  1  0.25316579  0.50000000  0.50000000  1
  Ge  Ge5  1  0.74683421  -0.00000000  -0.00000000  1
  Ge  Ge6  1  0.74683421  0.50000000  0.50000000  1
  Ge  Ge7  1  0.25316579  -0.00000000  -0.00000000  1
  O  O0  1  -0.00000000  0.84354566  0.07207269  1
  O  O1  1  -0.00000000  0.15645434  0.92792731  1
  O  O2  1  -0.00000000  0.34354566  0.42792731  1
  O  O3  1  -0.00000000  0.65645434  0.57207269  1
  O  O4  1  0.50000000  0.34259667  0.44485278  1
  O  O5  1  0.50000000  0.65740333  0.55514722  1
  O  O6  1  0.50000000  0.84259667  0.05514722  1
  O  O7  1  0.50000000  0.15740333  0.94485278  1
  O  O8  1  0.20809732  0.50000000  -0.00000000  1
  O  O9  1  0.79190268  -0.00000000  0.50000000  1
  O  O10  1  0.79190268  0.50000000  -0.00000000  1
  O  O11  1  0.20809732  -0.00000000  0.50000000  1
  O  O12  1  0.23969106  0.10593316  0.20733360  1
  O  O13  1  0.23969106  0.89406684  0.79266640  1
  O  O14  1  0.76030894  0.60593316  0.29266640  1
  O  O15  1  0.76030894  0.39406684  0.70733360  1
  O  O16  1  0.76030894  0.89406684  0.79266640  1
  O  O17  1  0.76030894  0.10593316  0.20733360  1
  O  O18  1  0.23969106  0.39406684  0.70733360  1
  O  O19  1  0.23969106  0.60593316  0.29266640  1
loop_
_geom_bond_atom_site_label_1
_geom_bond_atom_site_label_2
_geom_bond_distance
_geom_bond_site_symmetry_2
Ca0 O4 2.320486 1_555
Ca0 O8 2.384234 1_555
Ca0 O10 2.384234 1_555
Ca0 O7 2.385055 1_554
Ca0 O12 2.437110 1_555
Ca0 O17 2.437110 1_555
Ca0 O19 2.538731 1_555
Ca0 O14 2.538731 1_555
Ca1 O5 2.320486 1_555
Ca1 O8 2.384234 1_556
Ca1 O10 2.384234 1_556
Ca1 O6 2.385055 1_556
Ca1 O16 2.437110 1_555
Ca1 O13 2.437110 1_555
Ca1 O15 2.538731 1_555
Ca1 O18 2.538731 1_555
Ca2 O6 2.320486 1_555
Ca2 O9 2.384234 1_565
Ca2 O11 2.384234 1_565
Ca2 O5 2.385055 1_555
Ca2 O19 2.437110 1_555
Ca2 O14 2.437110 1_555
Ca2 O17 2.538731 1_565
Ca2 O12 2.538731 1_565
Ca3 O7 2.320486 1_555
Ca3 O9 2.384234 1_555
Ca3 O11 2.384234 1_555
Ca3 O4 2.385055 1_555
Ca3 O15 2.437110 1_555
Ca3 O18 2.437110 1_555
Ca3 O16 2.538731 1_545
Ca3 O13 2.538731 1_545
Ge0 O0 1.825693 1_555
Ge0 O19 1.837357 1_555
Ge0 O14 1.837357 1_455
Ge0 O8 1.877300 1_555
Ge0 O10 1.877300 1_455
Ge1 O1 1.825693 1_555
Ge1 O15 1.837357 1_455
Ge1 O18 1.837357 1_555
Ge1 O8 1.877300 1_556
Ge1 O10 1.877300 1_456
Ge2 O2 1.825693 1_555
Ge2 O17 1.837357 1_455
Ge2 O12 1.837357 1_555
Ge2 O11 1.877300 1_555
Ge2 O9 1.877300 1_455
Ge3 O3 1.825693 1_555
Ge3 O16 1.837357 1_455
Ge3 O13 1.837357 1_555
Ge3 O11 1.877300 1_565
Ge3 O9 1.877300 1_465
Ge4 O5 1.881656 1_555
Ge4 O4 1.881656 1_555
Ge4 O18 1.890390 1_555
Ge4 O19 1.890390 1_555
Ge4 O2 1.943524 1_555
Ge4 O3 1.943524 1_555
Ge5 O6 1.881656 1_545
Ge5 O7 1.881656 1_554
Ge5 O17 1.890390 1_555
Ge5 O16 1.890390 1_544
Ge5 O0 1.943524 1_645
Ge5 O1 1.943524 1_654
Ge6 O5 1.881656 1_555
Ge6 O4 1.881656 1_555
Ge6 O15 1.890390 1_555
Ge6 O14 1.890390 1_555
Ge6 O2 1.943524 1_655
Ge6 O3 1.943524 1_655
Ge7 O6 1.881656 1_545
Ge7 O7 1.881656 1_554
Ge7 O13 1.890390 1_544
Ge7 O12 1.890390 1_555
Ge7 O1 1.943524 1_554
Ge7 O0 1.943524 1_545
