# generated using pymatgen
data_La(GeRh)2
_symmetry_space_group_name_H-M   'P 1'
_cell_length_a   4.19426216
_cell_length_b   4.19426169
_cell_length_c   6.07651231
_cell_angle_alpha   110.18917807
_cell_angle_beta   110.18917685
_cell_angle_gamma   90.00000012
_symmetry_Int_Tables_number   1
_chemical_formula_structural   La(GeRh)2
_chemical_formula_sum   'La1 Ge2 Rh2'
_cell_volume   93.29989257
_cell_formula_units_Z   1
loop_
 _symmetry_equiv_pos_site_id
 _symmetry_equiv_pos_as_xyz
  1  'x, y, z'
loop_
 _atom_site_type_symbol
 _atom_site_label
 _atom_site_symmetry_multiplicity
 _atom_site_fract_x
 _atom_site_fract_y
 _atom_site_fract_z
 _atom_site_occupancy
  La  La0  1  0.00000000  0.00000000  0.00000000  1
  Ge  Ge0  1  0.62789119  0.62789119  0.25578237  1
  Ge  Ge1  1  0.37210881  0.37210881  0.74421763  1
  Rh  Rh0  1  0.25000000  0.75000000  0.50000000  1
  Rh  Rh1  1  0.75000000  0.25000000  0.50000000  1
loop_
_geom_bond_atom_site_label_1
_geom_bond_atom_site_label_2
_geom_bond_distance
_geom_bond_site_symmetry_2
La0 Rh1 3.380825 1_444
La0 Rh0 3.380825 1_555
La0 Rh0 3.380825 1_444
La0 Rh1 3.380825 1_555
La0 Rh0 3.380825 1_545
La0 Rh1 3.380825 1_454
La0 Rh1 3.380825 1_455
La0 Rh0 3.380825 1_544
Ge0 Rh1 2.464869 1_565
Ge0 Rh0 2.464869 1_655
Ge0 Rh1 2.464869 1_555
Ge0 Rh0 2.464869 1_555
Ge0 Ge1 2.713130 1_554
Ge0 La0 3.261316 1_555
Ge0 La0 3.261316 1_655
Ge0 La0 3.261317 1_565
Ge0 La0 3.261317 1_665
Ge1 Rh0 2.464869 1_545
Ge1 Rh1 2.464869 1_455
Ge1 Rh0 2.464869 1_555
Ge1 Rh1 2.464869 1_555
Ge1 La0 3.261316 1_666
Ge1 La0 3.261316 1_566
Ge1 La0 3.261317 1_656
Ge1 La0 3.261317 1_556
