# generated using pymatgen
data_Ca3Er3Ge2BO13
_symmetry_space_group_name_H-M   'P 1'
_cell_length_a   7.33760017
_cell_length_b   7.34663183
_cell_length_c   10.39205278
_cell_angle_alpha   90.00000000
_cell_angle_beta   90.00000000
_cell_angle_gamma   90.00000000
_symmetry_Int_Tables_number   1
_chemical_formula_structural   Ca3Er3Ge2BO13
_chemical_formula_sum   'Ca6 Er6 Ge4 B2 O26'
_cell_volume   560.20072045
_cell_formula_units_Z   2
loop_
 _symmetry_equiv_pos_site_id
 _symmetry_equiv_pos_as_xyz
  1  'x, y, z'
loop_
 _atom_site_type_symbol
 _atom_site_label
 _atom_site_symmetry_multiplicity
 _atom_site_fract_x
 _atom_site_fract_y
 _atom_site_fract_z
 _atom_site_occupancy
  Ca  Ca0  1  0.72882270  0.77037625  0.50196888  1
  Ca  Ca1  1  -0.00000000  0.50000000  0.23054787  1
  Ca  Ca2  1  0.77117730  0.27037625  0.00196888  1
  Ca  Ca3  1  0.50000000  0.00000000  0.73054787  1
  Ca  Ca4  1  0.22882270  0.72962375  0.00196888  1
  Ca  Ca5  1  0.27117730  0.22962375  0.50196888  1
  Er  Er0  1  0.22751424  0.27286485  0.00176837  1
  Er  Er1  1  0.72751424  0.22713515  0.50176837  1
  Er  Er2  1  0.50000000  0.00000000  0.27457409  1
  Er  Er3  1  0.27248576  0.77286485  0.50176837  1
  Er  Er4  1  0.77248576  0.72713515  0.00176837  1
  Er  Er5  1  -0.00000000  0.50000000  0.77457409  1
  Ge  Ge0  1  0.50000000  0.50000000  0.24741176  1
  Ge  Ge1  1  -0.00000000  0.00000000  0.74741176  1
  Ge  Ge2  1  0.50000000  0.50000000  0.74560528  1
  Ge  Ge3  1  -0.00000000  0.00000000  0.24560528  1
  B  B0  1  0.50000000  0.00000000  0.00429535  1
  B  B1  1  -0.00000000  0.50000000  0.50429535  1
  O  O0  1  -0.00000000  0.50000000  0.99134897  1
  O  O1  1  0.00888898  0.19922749  0.84635808  1
  O  O2  1  0.50000000  0.00000000  0.49134897  1
  O  O3  1  0.80410155  0.00912162  0.64795523  1
  O  O4  1  0.99111102  0.80077251  0.84635808  1
  O  O5  1  0.49111102  0.69922749  0.34635808  1
  O  O6  1  0.83474660  0.49298586  0.42482529  1
  O  O7  1  0.30410155  0.49087838  0.14795523  1
  O  O8  1  0.69589845  0.50912162  0.14795523  1
  O  O9  1  0.50888898  0.30077251  0.34635808  1
  O  O10  1  0.49441112  0.16321703  0.08929351  1
  O  O11  1  0.66525340  0.99298586  0.92482529  1
  O  O12  1  0.33474660  0.00701414  0.92482529  1
  O  O13  1  0.19589845  0.99087838  0.64795523  1
  O  O14  1  0.80352671  0.01468068  0.34283112  1
  O  O15  1  0.50558888  0.83678297  0.08929351  1
  O  O16  1  0.48435687  0.69310695  0.64813736  1
  O  O17  1  0.00558888  0.66321703  0.58929351  1
  O  O18  1  0.69647329  0.51468068  0.84283112  1
  O  O19  1  0.16525340  0.50701414  0.42482529  1
  O  O20  1  0.30352671  0.48531932  0.84283112  1
  O  O21  1  0.99441112  0.33678297  0.58929351  1
  O  O22  1  0.51564313  0.30689305  0.64813736  1
  O  O23  1  0.01564313  0.19310695  0.14813736  1
  O  O24  1  0.19647329  0.98531932  0.34283112  1
  O  O25  1  0.98435687  0.80689305  0.14813736  1
loop_
_geom_bond_atom_site_label_1
_geom_bond_atom_site_label_2
_geom_bond_distance
_geom_bond_site_symmetry_2
Ca0 O6 2.323736 1_555
Ca0 O17 2.359544 1_655
Ca0 O2 2.382665 1_565
Ca0 O3 2.383930 1_565
Ca0 O16 2.418113 1_555
Ca0 O5 2.435289 1_555
Ca0 O14 2.501355 1_565
Ca1 O6 2.355650 1_455
Ca1 O19 2.355650 1_555
Ca1 O8 2.391698 1_455
Ca1 O7 2.391698 1_555
Ca1 O23 2.414535 1_555
Ca1 O25 2.414535 1_455
Ca1 O0 2.485768 1_554
Ca2 O11 2.323736 1_544
Ca2 O10 2.359544 1_555
Ca2 O0 2.382665 1_654
Ca2 O8 2.383930 1_555
Ca2 O23 2.418113 1_655
Ca2 O1 2.435289 1_654
Ca2 O18 2.501355 1_554
Ca3 O12 2.355650 1_555
Ca3 O11 2.355650 1_545
Ca3 O3 2.391698 1_555
Ca3 O13 2.391698 1_545
Ca3 O16 2.414535 1_545
Ca3 O22 2.414535 1_555
Ca3 O2 2.485768 1_555
Ca4 O12 2.323736 1_564
Ca4 O15 2.359544 1_555
Ca4 O0 2.382665 1_554
Ca4 O7 2.383930 1_555
Ca4 O25 2.418113 1_455
Ca4 O4 2.435289 1_454
Ca4 O20 2.501355 1_554
Ca5 O19 2.323736 1_555
Ca5 O21 2.359544 1_455
Ca5 O2 2.382665 1_555
Ca5 O13 2.383930 1_545
Ca5 O22 2.418113 1_555
Ca5 O9 2.435289 1_555
Ca5 O24 2.501355 1_545
Er0 O12 2.252350 1_554
Er0 O23 2.252525 1_555
Er0 O7 2.277949 1_555
Er0 O10 2.304663 1_555
Er0 O1 2.339744 1_554
Er0 O20 2.339940 1_554
Er0 O0 2.362866 1_554
Er1 O6 2.252350 1_555
Er1 O22 2.252525 1_555
Er1 O3 2.277949 1_555
Er1 O21 2.304663 1_555
Er1 O9 2.339744 1_555
Er1 O14 2.339940 1_555
Er1 O2 2.362866 1_555
Er2 O2 2.252736 1_555
Er2 O15 2.268667 1_545
Er2 O10 2.268667 1_555
Er2 O9 2.333102 1_555
Er2 O5 2.333102 1_545
Er2 O24 2.339875 1_545
Er2 O14 2.339875 1_555
Er3 O19 2.252350 1_555
Er3 O16 2.252525 1_555
Er3 O13 2.277949 1_555
Er3 O17 2.304663 1_555
Er3 O5 2.339744 1_555
Er3 O24 2.339940 1_555
Er3 O2 2.362866 1_565
Er4 O11 2.252350 1_554
Er4 O25 2.252525 1_555
Er4 O8 2.277949 1_555
Er4 O15 2.304663 1_555
Er4 O4 2.339744 1_554
Er4 O18 2.339940 1_554
Er4 O0 2.362866 1_654
Er5 O0 2.252736 1_555
Er5 O17 2.268667 1_555
Er5 O21 2.268667 1_455
Er5 O1 2.333102 1_555
Er5 O4 2.333102 1_455
Er5 O20 2.339875 1_555
Er5 O18 2.339875 1_455
Ge0 O8 1.771700 1_555
Ge0 O7 1.771700 1_555
Ge0 O5 1.789927 1_555
Ge0 O9 1.789927 1_555
Ge1 O3 1.771700 1_455
Ge1 O13 1.771700 1_545
Ge1 O4 1.789927 1_445
Ge1 O1 1.789927 1_555
Ge2 O16 1.746938 1_555
Ge2 O22 1.746938 1_555
Ge2 O18 1.763753 1_555
Ge2 O20 1.763753 1_555
Ge3 O25 1.746938 1_445
Ge3 O23 1.746938 1_555
Ge3 O24 1.763753 1_545
Ge3 O14 1.763753 1_455
B0 O11 1.467994 1_544
B0 O12 1.467994 1_554
B0 O15 1.489879 1_545
B0 O10 1.489879 1_555
B1 O6 1.467994 1_455
B1 O19 1.467994 1_555
B1 O21 1.489879 1_455
B1 O17 1.489879 1_555
