# generated using pymatgen
data_ZrSnRh
_symmetry_space_group_name_H-M   'P 1'
_cell_length_a   7.36145189
_cell_length_b   7.36145027
_cell_length_c   7.29566416
_cell_angle_alpha   90.00000000
_cell_angle_beta   90.00000000
_cell_angle_gamma   120.00000273
_symmetry_Int_Tables_number   1
_chemical_formula_structural   ZrSnRh
_chemical_formula_sum   'Zr6 Sn6 Rh6'
_cell_volume   342.39097969
_cell_formula_units_Z   6
loop_
 _symmetry_equiv_pos_site_id
 _symmetry_equiv_pos_as_xyz
  1  'x, y, z'
loop_
 _atom_site_type_symbol
 _atom_site_label
 _atom_site_symmetry_multiplicity
 _atom_site_fract_x
 _atom_site_fract_y
 _atom_site_fract_z
 _atom_site_occupancy
  Zr  Zr0  1  0.59425743  0.98314469  0.75000000  1
  Zr  Zr1  1  0.38888726  0.40574257  0.75000000  1
  Zr  Zr2  1  0.01685531  0.61111274  0.75000000  1
  Zr  Zr3  1  0.61111274  0.01685531  0.25000000  1
  Zr  Zr4  1  0.40574257  0.38888726  0.25000000  1
  Zr  Zr5  1  0.98314469  0.59425743  0.25000000  1
  Sn  Sn0  1  0.26967626  0.00000000  0.00000000  1
  Sn  Sn1  1  0.73032374  0.73032374  0.50000000  1
  Sn  Sn2  1  -0.00000000  0.26967626  0.50000000  1
  Sn  Sn3  1  -0.00000000  0.26967626  0.00000000  1
  Sn  Sn4  1  0.73032374  0.73032374  0.00000000  1
  Sn  Sn5  1  0.26967626  0.00000000  0.50000000  1
  Rh  Rh0  1  0.66666700  0.33333300  0.96436708  1
  Rh  Rh1  1  0.66666700  0.33333300  0.53563292  1
  Rh  Rh2  1  0.33333300  0.66666700  0.03563292  1
  Rh  Rh3  1  0.33333300  0.66666700  0.46436708  1
  Rh  Rh4  1  -0.00000000  -0.00000000  0.75000000  1
  Rh  Rh5  1  -0.00000000  -0.00000000  0.25000000  1
loop_
_geom_bond_atom_site_label_1
_geom_bond_atom_site_label_2
_geom_bond_distance
_geom_bond_site_symmetry_2
Sn0 Zr0 3.057404 1_544
Sn0 Zr3 3.057404 1_555
Sn0 Zr4 3.107725 1_555
Sn0 Zr2 3.107725 1_544
Sn0 Zr1 3.224426 1_554
Sn0 Zr5 3.224426 1_445
Sn1 Zr4 3.057403 1_555
Sn1 Zr1 3.057404 1_555
Sn1 Zr0 3.107725 1_555
Sn1 Zr5 3.107725 1_555
Sn1 Zr3 3.224427 1_565
Sn1 Zr2 3.224427 1_655
Sn2 Zr2 3.057403 1_555
Sn2 Zr5 3.057403 1_455
Sn2 Zr3 3.107725 1_455
Sn2 Zr1 3.107725 1_555
Sn2 Zr0 3.224427 1_445
Sn2 Zr4 3.224427 1_555
Sn3 Zr2 3.057403 1_554
Sn3 Zr5 3.057403 1_455
Sn3 Zr3 3.107725 1_455
Sn3 Zr1 3.107725 1_554
Sn3 Zr0 3.224427 1_444
Sn3 Zr4 3.224427 1_555
Sn4 Zr4 3.057403 1_555
Sn4 Zr1 3.057404 1_554
Sn4 Zr0 3.107725 1_554
Sn4 Zr5 3.107725 1_555
Sn4 Zr3 3.224427 1_565
Sn4 Zr2 3.224427 1_654
Sn5 Zr0 3.057404 1_545
Sn5 Zr3 3.057404 1_555
Sn5 Zr4 3.107725 1_555
Sn5 Zr2 3.107725 1_545
Sn5 Zr1 3.224426 1_555
Sn5 Zr5 3.224426 1_445
Rh0 Sn3 2.730980 1_656
Rh0 Sn0 2.730985 1_556
Rh0 Sn4 2.730987 1_556
Rh0 Zr0 2.828690 1_545
Rh0 Zr2 2.828693 1_655
Rh0 Zr1 2.828697 1_555
Rh0 Zr3 2.997450 1_556
Rh0 Zr5 2.997452 1_556
Rh0 Zr4 2.997456 1_556
Rh0 Rh1 3.127900 1_555
Rh1 Sn2 2.730980 1_655
Rh1 Sn5 2.730985 1_555
Rh1 Sn1 2.730987 1_555
Rh1 Zr0 2.828690 1_545
Rh1 Zr2 2.828693 1_655
Rh1 Zr1 2.828697 1_555
Rh1 Zr3 2.997450 1_555
Rh1 Zr5 2.997452 1_555
Rh1 Zr4 2.997456 1_555
Rh2 Sn0 2.730980 1_565
Rh2 Sn3 2.730984 1_555
Rh2 Sn4 2.730988 1_555
Rh2 Zr5 2.828691 1_455
Rh2 Zr3 2.828692 1_565
Rh2 Zr4 2.828696 1_555
Rh2 Zr2 2.997451 1_554
Rh2 Zr0 2.997452 1_554
Rh2 Zr1 2.997455 1_554
Rh2 Rh3 3.127900 1_555
Rh3 Sn5 2.730980 1_565
Rh3 Sn2 2.730984 1_555
Rh3 Sn1 2.730988 1_555
Rh3 Zr5 2.828691 1_455
Rh3 Zr3 2.828692 1_565
Rh3 Zr4 2.828696 1_555
Rh3 Zr2 2.997451 1_555
Rh3 Zr0 2.997452 1_555
Rh3 Zr1 2.997455 1_555
Rh4 Sn2 2.695871 1_555
Rh4 Sn3 2.695871 1_556
Rh4 Sn1 2.695871 1_445
Rh4 Sn4 2.695871 1_446
Rh4 Sn5 2.695872 1_555
Rh4 Sn0 2.695872 1_556
Rh4 Zr2 2.926787 1_545
Rh4 Zr1 2.926787 1_555
Rh4 Zr0 2.926788 1_445
Rh5 Sn2 2.695871 1_555
Rh5 Sn3 2.695871 1_555
Rh5 Sn4 2.695871 1_445
Rh5 Sn1 2.695871 1_445
Rh5 Sn5 2.695872 1_555
Rh5 Sn0 2.695872 1_555
Rh5 Zr5 2.926787 1_445
Rh5 Zr4 2.926787 1_555
Rh5 Zr3 2.926788 1_455
