# generated using pymatgen
data_Nd2Fe17N3
_symmetry_space_group_name_H-M   'P 1'
_cell_length_a   6.55316786
_cell_length_b   6.55316786
_cell_length_c   6.55316748
_cell_angle_alpha   83.61919053
_cell_angle_beta   83.61919053
_cell_angle_gamma   83.61918533
_symmetry_Int_Tables_number   1
_chemical_formula_structural   Nd2Fe17N3
_chemical_formula_sum   'Nd2 Fe17 N3'
_cell_volume   276.54963295
_cell_formula_units_Z   1
loop_
 _symmetry_equiv_pos_site_id
 _symmetry_equiv_pos_as_xyz
  1  'x, y, z'
loop_
 _atom_site_type_symbol
 _atom_site_label
 _atom_site_symmetry_multiplicity
 _atom_site_fract_x
 _atom_site_fract_y
 _atom_site_fract_z
 _atom_site_occupancy
  Nd  Nd0  1  0.65556800  0.65556800  0.65556800  1
  Nd  Nd1  1  0.34443200  0.34443200  0.34443200  1
  Fe  Fe0  1  0.90618400  0.90618400  0.90618400  1
  Fe  Fe1  1  0.00000000  0.00000000  0.50000000  1
  Fe  Fe2  1  0.00000000  0.50000000  0.00000000  1
  Fe  Fe3  1  0.50000000  0.00000000  0.00000000  1
  Fe  Fe4  1  0.71739000  0.28261000  0.00000000  1
  Fe  Fe5  1  0.28261000  0.00000000  0.71739000  1
  Fe  Fe6  1  0.00000000  0.71739000  0.28261000  1
  Fe  Fe7  1  0.28261000  0.71739000  0.00000000  1
  Fe  Fe8  1  0.71739000  0.00000000  0.28261000  1
  Fe  Fe9  1  0.00000000  0.28261000  0.71739000  1
  Fe  Fe10  1  0.14046900  0.65928500  0.65928500  1
  Fe  Fe11  1  0.65928500  0.65928500  0.14046900  1
  Fe  Fe12  1  0.65928500  0.14046900  0.65928500  1
  Fe  Fe13  1  0.34071500  0.85953100  0.34071500  1
  Fe  Fe14  1  0.85953100  0.34071500  0.34071500  1
  Fe  Fe15  1  0.34071500  0.34071500  0.85953100  1
  Fe  Fe16  1  0.09381600  0.09381600  0.09381600  1
  N  N0  1  0.00000000  0.50000000  0.50000000  1
  N  N1  1  0.50000000  0.00000000  0.50000000  1
  N  N2  1  0.50000000  0.50000000  0.00000000  1
loop_
_geom_bond_atom_site_label_1
_geom_bond_atom_site_label_2
_geom_bond_distance
_geom_bond_site_symmetry_2
Fe0 Fe16 2.354522 1_666
Fe0 Fe10 2.659025 1_655
Fe0 Fe12 2.659025 1_565
Fe0 Fe11 2.659025 1_556
Fe0 Fe1 2.682837 1_665
Fe0 Fe2 2.682837 1_656
Fe0 Fe3 2.682837 1_566
Fe0 Fe8 2.735565 1_566
Fe0 Fe6 2.735565 1_656
Fe0 Fe7 2.735565 1_656
Fe0 Fe4 2.735565 1_566
Fe0 Fe9 2.735566 1_665
Fe0 Fe5 2.735566 1_665
Fe0 Nd0 3.144884 1_555
Fe1 Fe5 2.458813 1_555
Fe1 Fe9 2.458813 1_555
Fe1 Fe6 2.458813 1_545
Fe1 Fe8 2.458813 1_455
Fe1 Fe13 2.482106 1_545
Fe1 Fe12 2.482106 1_455
Fe1 Fe10 2.482106 1_545
Fe1 Fe14 2.482106 1_455
Fe1 Fe16 2.682837 1_555
Fe1 Nd0 3.367189 1_445
Fe1 Nd1 3.367189 1_555
Fe2 Fe6 2.458813 1_555
Fe2 Fe9 2.458813 1_554
Fe2 Fe7 2.458814 1_555
Fe2 Fe4 2.458814 1_455
Fe2 Nd1 3.367189 1_555
Fe2 Nd0 3.367189 1_454
Fe3 Fe8 2.458813 1_555
Fe3 Fe5 2.458813 1_554
Fe3 Fe4 2.458814 1_555
Fe3 Fe7 2.458814 1_545
Fe3 Nd1 3.367189 1_555
Fe3 Nd0 3.367189 1_544
Fe4 N2 1.899431 1_555
Fe5 N1 1.899431 1_555
Fe6 N0 1.899431 1_555
Fe7 N2 1.899431 1_555
Fe8 N1 1.899431 1_555
Fe9 N0 1.899431 1_555
Fe10 N0 1.922446 1_555
Fe10 Fe2 2.482106 1_556
Fe11 N2 1.922446 1_555
Fe11 Fe2 2.482106 1_655
Fe11 Fe3 2.482106 1_565
Fe12 N1 1.922446 1_555
Fe12 Fe3 2.482106 1_556
Fe13 N1 1.922446 1_565
Fe13 Fe3 2.482106 1_565
Fe13 Fe16 2.659025 1_565
Fe14 N0 1.922446 1_655
Fe14 Fe2 2.482106 1_655
Fe14 Fe16 2.659025 1_655
Fe15 N2 1.922446 1_556
Fe15 Fe2 2.482106 1_556
Fe15 Fe3 2.482106 1_556
Fe15 Fe16 2.659025 1_556
Fe16 Fe3 2.682837 1_555
Fe16 Fe2 2.682837 1_555
Fe16 Fe5 2.735565 1_554
Fe16 Fe9 2.735565 1_554
Fe16 Fe7 2.735565 1_545
Fe16 Fe4 2.735565 1_455
Fe16 Fe6 2.735566 1_545
Fe16 Fe8 2.735566 1_455
Fe16 Nd1 3.144884 1_555
N0 Nd1 2.526122 1_555
N0 Nd0 2.526122 1_455
N1 Nd1 2.526122 1_555
N1 Nd0 2.526122 1_545
N2 Nd1 2.526122 1_555
N2 Nd0 2.526122 1_554
