# generated using pymatgen
data_Mo3H24C8S13N2
_symmetry_space_group_name_H-M   'P 1'
_cell_length_a   11.16711947
_cell_length_b   11.16711947
_cell_length_c   6.97231300
_cell_angle_alpha   90.00000000
_cell_angle_beta   90.00000000
_cell_angle_gamma   119.99999689
_symmetry_Int_Tables_number   1
_chemical_formula_structural   Mo3H24C8S13N2
_chemical_formula_sum   'Mo3 H24 C8 S13 N2'
_cell_volume   752.99110442
_cell_formula_units_Z   1
loop_
 _symmetry_equiv_pos_site_id
 _symmetry_equiv_pos_as_xyz
  1  'x, y, z'
loop_
 _atom_site_type_symbol
 _atom_site_label
 _atom_site_symmetry_multiplicity
 _atom_site_fract_x
 _atom_site_fract_y
 _atom_site_fract_z
 _atom_site_occupancy
  Mo  Mo0  1  0.00000000  0.14214200  0.01516200  1
  Mo  Mo1  1  0.85785800  0.85785800  0.01516200  1
  Mo  Mo2  1  0.14214200  0.00000000  0.01516200  1
  H  H0  1  0.44952800  0.24626600  0.48735700  1
  H  H1  1  0.20326100  0.75373400  0.48735700  1
  H  H2  1  0.54807300  0.43238600  0.47840400  1
  H  H3  1  0.11568700  0.56761400  0.47840400  1
  H  H4  1  0.20607600  0.65655900  0.69286800  1
  H  H5  1  0.54951700  0.34344100  0.69286800  1
  H  H6  1  0.32771800  0.75741300  0.19770000  1
  H  H7  1  0.24258700  0.57030500  0.19770000  1
  H  H8  1  0.45192700  0.88431300  0.47840400  1
  H  H9  1  0.56761400  0.11568700  0.47840400  1
  H  H10  1  0.45048300  0.79392400  0.69286800  1
  H  H11  1  0.65655900  0.20607600  0.69286800  1
  H  H12  1  0.42969500  0.67228200  0.19770000  1
  H  H13  1  0.55047200  0.79673900  0.48735700  1
  H  H14  1  0.75373400  0.20326100  0.48735700  1
  H  H15  1  0.57030500  0.24258700  0.19770000  1
  H  H16  1  0.67228200  0.42969500  0.19770000  1
  H  H17  1  0.79673900  0.55047200  0.48735700  1
  H  H18  1  0.24626600  0.44952800  0.48735700  1
  H  H19  1  0.79392400  0.45048300  0.69286800  1
  H  H20  1  0.34344100  0.54951700  0.69286800  1
  H  H21  1  0.75741300  0.32771800  0.19770000  1
  H  H22  1  0.88431300  0.45192700  0.47840400  1
  H  H23  1  0.43238600  0.54807300  0.47840400  1
  C  C0  1  0.54338600  0.33880700  0.53569300  1
  C  C1  1  0.20457900  0.66119300  0.53569300  1
  C  C2  1  0.33333300  0.66666700  0.24588300  1
  C  C3  1  0.45661400  0.79542100  0.53569300  1
  C  C4  1  0.66119300  0.20457900  0.53569300  1
  C  C5  1  0.66666700  0.33333300  0.24588300  1
  C  C6  1  0.79542100  0.45661400  0.53569300  1
  C  C7  1  0.33880700  0.54338600  0.53569300  1
  S  S0  1  0.00000000  0.82612600  0.77541600  1
  S  S1  1  0.17387400  0.17387400  0.77541600  1
  S  S2  1  0.00000000  0.74213200  0.03389900  1
  S  S3  1  0.25786800  0.25786800  0.03389900  1
  S  S4  1  0.00000000  0.36284100  0.95144100  1
  S  S5  1  0.63715900  0.63715900  0.95144100  1
  S  S6  1  0.00000000  0.30923000  0.23535000  1
  S  S7  1  0.69077000  0.69077000  0.23535000  1
  S  S8  1  0.00000000  0.00000000  0.26984100  1
  S  S9  1  0.30923000  0.00000000  0.23535000  1
  S  S10  1  0.36284100  0.00000000  0.95144100  1
  S  S11  1  0.74213200  0.00000000  0.03389900  1
  S  S12  1  0.82612600  0.00000000  0.77541600  1
  N  N0  1  0.33333300  0.66666700  0.46198200  1
  N  N1  1  0.66666700  0.33333300  0.46198200  1
loop_
_geom_bond_atom_site_label_1
_geom_bond_atom_site_label_2
_geom_bond_distance
_geom_bond_site_symmetry_2
Mo0 S8 2.381741 1_555
Mo0 S6 2.416289 1_555
Mo0 S1 2.449859 1_554
Mo0 S12 2.449859 1_454
Mo0 S3 2.501615 1_555
Mo0 S11 2.501615 1_455
Mo0 S4 2.504297 1_554
Mo1 S8 2.381741 1_665
Mo1 S7 2.416289 1_555
Mo1 S12 2.449859 1_564
Mo1 S0 2.449859 1_654
Mo1 S11 2.501615 1_565
Mo1 S2 2.501615 1_655
Mo1 S5 2.504297 1_554
Mo2 S8 2.381741 1_555
Mo2 S9 2.416289 1_555
Mo2 S1 2.449859 1_554
Mo2 S0 2.449859 1_544
Mo2 S3 2.501615 1_555
Mo2 S2 2.501615 1_545
Mo2 S10 2.504297 1_554
C0 H0 1.094049 1_555
C0 H2 1.095278 1_555
C0 H5 1.097616 1_555
C0 N1 1.499102 1_555
C1 H1 1.094054 1_555
C1 H3 1.095278 1_555
C1 H4 1.097616 1_555
C1 N0 1.499092 1_555
C2 H6 1.098752 1_555
C2 H7 1.098758 1_555
C2 H12 1.098762 1_555
C2 N0 1.506710 1_555
C3 H13 1.094044 1_555
C3 H8 1.095278 1_555
C3 H10 1.097616 1_555
C3 N0 1.499097 1_555
C4 H14 1.094054 1_555
C4 H9 1.095278 1_555
C4 H11 1.097616 1_555
C4 N1 1.499092 1_555
C5 H21 1.098752 1_555
C5 H15 1.098758 1_555
C5 H16 1.098762 1_555
C5 N1 1.506710 1_555
C6 H17 1.094044 1_555
C6 H22 1.095278 1_555
C6 H19 1.097616 1_555
C6 N1 1.499097 1_555
C7 H18 1.094049 1_555
C7 H23 1.095278 1_555
C7 H20 1.097616 1_555
C7 N0 1.499102 1_555
S0 S2 2.031699 1_556
S1 S3 2.031699 1_556
S4 S6 2.068054 1_556
S5 S7 2.068054 1_556
S10 S9 2.068054 1_556
S11 S12 2.031699 1_554
