# generated using pymatgen
data_Ho2Ga8Co
_symmetry_space_group_name_H-M   'P 1'
_cell_length_a   4.17770732
_cell_length_b   4.17770732
_cell_length_c   10.99857009
_cell_angle_alpha   90.00000000
_cell_angle_beta   90.00000000
_cell_angle_gamma   90.00000000
_symmetry_Int_Tables_number   1
_chemical_formula_structural   Ho2Ga8Co
_chemical_formula_sum   'Ho2 Ga8 Co1'
_cell_volume   191.96066641
_cell_formula_units_Z   1
loop_
 _symmetry_equiv_pos_site_id
 _symmetry_equiv_pos_as_xyz
  1  'x, y, z'
loop_
 _atom_site_type_symbol
 _atom_site_label
 _atom_site_symmetry_multiplicity
 _atom_site_fract_x
 _atom_site_fract_y
 _atom_site_fract_z
 _atom_site_occupancy
  Ho  Ho0  1  -0.00000000  -0.00000000  0.69448583  1
  Ho  Ho1  1  0.00000000  0.00000000  0.30551417  1
  Ga  Ga0  1  0.50000000  -0.00000000  0.50000000  1
  Ga  Ga1  1  0.50000000  -0.00000000  0.88436709  1
  Ga  Ga2  1  -0.00000000  0.50000000  0.50000000  1
  Ga  Ga3  1  0.00000000  0.50000000  0.88436709  1
  Ga  Ga4  1  0.50000000  0.50000000  0.30576745  1
  Ga  Ga5  1  0.50000000  0.50000000  0.69423255  1
  Ga  Ga6  1  -0.00000000  0.50000000  0.11563291  1
  Ga  Ga7  1  0.50000000  0.00000000  0.11563291  1
  Co  Co0  1  -0.00000000  -0.00000000  -0.00000000  1
loop_
_geom_bond_atom_site_label_1
_geom_bond_atom_site_label_2
_geom_bond_distance
_geom_bond_site_symmetry_2
Ga0 Ga2 2.954085 1_645
Ga0 Ga2 2.954085 1_655
Ga0 Ga2 2.954085 1_545
Ga0 Ga2 2.954085 1_555
Ga0 Ga5 2.987809 1_545
Ga0 Ga5 2.987809 1_555
Ga0 Ga4 2.987809 1_555
Ga0 Ga4 2.987809 1_545
Ga0 Ho0 2.989802 1_555
Ga0 Ho0 2.989802 1_655
Ga0 Ho1 2.989802 1_655
Ga0 Ho1 2.989802 1_555
Ga1 Ga7 2.543593 1_556
Ga1 Ho0 2.953780 1_555
Ga1 Ho0 2.953780 1_655
Ga1 Ga3 2.954085 1_645
Ga1 Ga3 2.954085 1_655
Ga1 Ga3 2.954085 1_545
Ga1 Ga3 2.954085 1_555
Ga1 Ga5 2.955750 1_545
Ga1 Ga5 2.955750 1_555
Ga2 Ga5 2.987809 1_455
Ga2 Ga5 2.987809 1_555
Ga2 Ga4 2.987809 1_555
Ga2 Ga4 2.987809 1_455
Ga2 Ho0 2.989802 1_555
Ga2 Ho0 2.989802 1_565
Ga2 Ho1 2.989802 1_565
Ga2 Ho1 2.989802 1_555
Ga3 Ga6 2.543593 1_556
Ga3 Ho0 2.953780 1_555
Ga3 Ho0 2.953780 1_565
Ga3 Ga5 2.955750 1_455
Ga3 Ga5 2.955750 1_555
Ga4 Ho1 2.954086 1_555
Ga4 Ho1 2.954086 1_655
Ga4 Ho1 2.954086 1_565
Ga4 Ho1 2.954086 1_665
Ga4 Ga7 2.955750 1_565
Ga4 Ga7 2.955750 1_555
Ga4 Ga6 2.955750 1_555
Ga4 Ga6 2.955750 1_655
Ga5 Ho0 2.954086 1_565
Ga5 Ho0 2.954086 1_655
Ga5 Ho0 2.954086 1_665
Ga5 Ho0 2.954086 1_555
Ga6 Ho1 2.953780 1_565
Ga6 Ho1 2.953780 1_555
Ga6 Ga7 2.954085 1_555
Ga6 Ga7 2.954085 1_565
Ga6 Ga7 2.954085 1_455
Ga6 Ga7 2.954085 1_465
Ga7 Ho1 2.953780 1_655
Ga7 Ho1 2.953780 1_555
Co0 Ga3 2.445563 1_554
Co0 Ga7 2.445563 1_455
Co0 Ga1 2.445563 1_554
Co0 Ga6 2.445563 1_555
Co0 Ga3 2.445563 1_544
Co0 Ga6 2.445563 1_545
Co0 Ga1 2.445563 1_454
Co0 Ga7 2.445563 1_555
