# generated using pymatgen
data_TlGaS2
_symmetry_space_group_name_H-M   'P 1'
_cell_length_a   7.33028807
_cell_length_b   7.33028807
_cell_length_c   15.23748108
_cell_angle_alpha   83.04825979
_cell_angle_beta   83.04825979
_cell_angle_gamma   90.01583198
_symmetry_Int_Tables_number   1
_chemical_formula_structural   TlGaS2
_chemical_formula_sum   'Tl8 Ga8 S16'
_cell_volume   806.67086763
_cell_formula_units_Z   8
loop_
 _symmetry_equiv_pos_site_id
 _symmetry_equiv_pos_as_xyz
  1  'x, y, z'
loop_
 _atom_site_type_symbol
 _atom_site_label
 _atom_site_symmetry_multiplicity
 _atom_site_fract_x
 _atom_site_fract_y
 _atom_site_fract_z
 _atom_site_occupancy
  Tl  Tl0  1  0.27714042  0.15452775  0.88436739  1
  Tl  Tl1  1  0.84547225  0.72285958  0.61563261  1
  Tl  Tl2  1  0.72285958  0.84547225  0.11563261  1
  Tl  Tl3  1  0.15452775  0.27714042  0.38436739  1
  Tl  Tl4  1  0.65172786  0.27522374  0.39047933  1
  Tl  Tl5  1  0.72477626  0.34827214  0.10952067  1
  Tl  Tl6  1  0.34827214  0.72477626  0.60952067  1
  Tl  Tl7  1  0.27522374  0.65172786  0.89047933  1
  Ga  Ga0  1  0.20917915  0.58681908  0.16360589  1
  Ga  Ga1  1  0.91934930  0.79050484  0.33753347  1
  Ga  Ga2  1  0.79050484  0.91934930  0.83753347  1
  Ga  Ga3  1  0.08065070  0.20949516  0.66246653  1
  Ga  Ga4  1  0.58681908  0.20917915  0.66360589  1
  Ga  Ga5  1  0.79082085  0.41318092  0.83639411  1
  Ga  Ga6  1  0.41318092  0.79082085  0.33639411  1
  Ga  Ga7  1  0.20949516  0.08065070  0.16246653  1
  S  S0  1  0.76936812  0.14394580  0.92921605  1
  S  S1  1  0.85605420  0.23063188  0.57078395  1
  S  S2  1  0.23063188  0.85605420  0.07078395  1
  S  S3  1  0.14394580  0.76936812  0.42921605  1
  S  S4  1  0.44408411  0.06764284  0.24871304  1
  S  S5  1  0.93235716  0.55591589  0.25128696  1
  S  S6  1  0.55591589  0.93235716  0.75128696  1
  S  S7  1  0.06764284  0.44408411  0.74871304  1
  S  S8  1  0.64305897  0.77054498  0.42572130  1
  S  S9  1  0.22945502  0.35694103  0.07427870  1
  S  S10  1  0.35694103  0.22945502  0.57427870  1
  S  S11  1  0.06751261  0.93248739  0.75000000  1
  S  S12  1  0.44349230  0.55650770  0.25000000  1
  S  S13  1  0.55650770  0.44349230  0.75000000  1
  S  S14  1  0.93248739  0.06751261  0.25000000  1
  S  S15  1  0.77054498  0.64305897  0.92572130  1
loop_
_geom_bond_atom_site_label_1
_geom_bond_atom_site_label_2
_geom_bond_distance
_geom_bond_site_symmetry_2
Ga0 S2 2.278257 1_555
Ga0 S12 2.282363 1_555
Ga0 S9 2.284859 1_555
Ga0 S5 2.285636 1_455
Ga1 S3 2.278296 1_655
Ga1 S5 2.282542 1_555
Ga1 S8 2.285246 1_555
Ga1 S14 2.285737 1_565
Ga2 S0 2.278296 1_565
Ga2 S6 2.282542 1_555
Ga2 S15 2.285246 1_555
Ga2 S11 2.285737 1_655
Ga3 S1 2.278296 1_455
Ga3 S7 2.282542 1_555
Ga3 S10 2.285246 1_555
Ga3 S11 2.285737 1_545
Ga4 S1 2.278257 1_555
Ga4 S13 2.282363 1_555
Ga4 S10 2.284859 1_555
Ga4 S6 2.285636 1_545
Ga5 S0 2.278257 1_555
Ga5 S13 2.282363 1_555
Ga5 S15 2.284859 1_555
Ga5 S7 2.285636 1_655
Ga6 S3 2.278257 1_555
Ga6 S12 2.282363 1_555
Ga6 S8 2.284859 1_555
Ga6 S4 2.285636 1_565
Ga7 S2 2.278296 1_545
Ga7 S4 2.282542 1_555
Ga7 S9 2.285246 1_555
Ga7 S14 2.285737 1_455
