# generated using pymatgen
data_Al2SiO5
_symmetry_space_group_name_H-M   'P 1'
_cell_length_a   5.76742386
_cell_length_b   7.49185802
_cell_length_c   7.66267377
_cell_angle_alpha   90.00000000
_cell_angle_beta   90.00000000
_cell_angle_gamma   90.00000000
_symmetry_Int_Tables_number   1
_chemical_formula_structural   Al2SiO5
_chemical_formula_sum   'Al8 Si4 O20'
_cell_volume   331.09433075
_cell_formula_units_Z   4
loop_
 _symmetry_equiv_pos_site_id
 _symmetry_equiv_pos_as_xyz
  1  'x, y, z'
loop_
 _atom_site_type_symbol
 _atom_site_label
 _atom_site_symmetry_multiplicity
 _atom_site_fract_x
 _atom_site_fract_y
 _atom_site_fract_z
 _atom_site_occupancy
  Al  Al0  1  -0.00000000  0.00000000  0.00000000  1
  Al  Al1  1  0.50000000  0.00000000  0.00000000  1
  Al  Al2  1  -0.00000000  0.50000000  0.50000000  1
  Al  Al3  1  0.50000000  0.50000000  0.50000000  1
  Al  Al4  1  0.25000000  0.35750815  0.84442356  1
  Al  Al5  1  0.75000000  0.64249185  0.15557644  1
  Al  Al6  1  0.75000000  0.85750815  0.65557644  1
  Al  Al7  1  0.25000000  0.14249185  0.34442356  1
  Si  Si0  1  0.75000000  0.15367686  0.33989614  1
  Si  Si1  1  0.25000000  0.84632314  0.66010386  1
  Si  Si2  1  0.25000000  0.65367686  0.16010386  1
  Si  Si3  1  0.75000000  0.34632314  0.83989614  1
  O  O0  1  0.01418241  0.62583642  0.27792947  1
  O  O1  1  0.51418241  0.37416358  0.72207053  1
  O  O2  1  0.98581759  0.12583642  0.22207053  1
  O  O3  1  0.48581759  0.87416358  0.77792947  1
  O  O4  1  0.98581759  0.37416358  0.72207053  1
  O  O5  1  0.48581759  0.62583642  0.27792947  1
  O  O6  1  0.01418241  0.87416358  0.77792947  1
  O  O7  1  0.51418241  0.12583642  0.22207053  1
  O  O8  1  0.75000000  0.02277548  0.50160614  1
  O  O9  1  0.25000000  0.97722452  0.49839386  1
  O  O10  1  0.25000000  0.52277548  0.99839386  1
  O  O11  1  0.75000000  0.47722452  0.00160614  1
  O  O12  1  0.75000000  0.36049044  0.40882984  1
  O  O13  1  0.25000000  0.63950956  0.59117016  1
  O  O14  1  0.25000000  0.86049044  0.09117016  1
  O  O15  1  0.75000000  0.13950956  0.90882984  1
  O  O16  1  0.25000000  0.35705954  0.43281497  1
  O  O17  1  0.75000000  0.64294046  0.56718503  1
  O  O18  1  0.75000000  0.85705954  0.06718503  1
  O  O19  1  0.25000000  0.14294046  0.93281497  1
loop_
_geom_bond_atom_site_label_1
_geom_bond_atom_site_label_2
_geom_bond_distance
_geom_bond_site_symmetry_2
Al0 O19 1.868366 1_554
Al0 O18 1.868366 1_445
Al0 O15 1.912959 1_454
Al0 O14 1.912959 1_545
Al0 O6 1.947073 1_544
Al0 O2 1.947073 1_455
Al1 O19 1.868366 1_554
Al1 O18 1.868366 1_545
Al1 O15 1.912959 1_554
Al1 O14 1.912959 1_545
Al1 O3 1.947073 1_544
Al1 O7 1.947073 1_555
Al2 O16 1.868366 1_555
Al2 O17 1.868366 1_455
Al2 O12 1.912959 1_455
Al2 O13 1.912959 1_555
Al2 O0 1.947073 1_555
Al2 O4 1.947073 1_455
Al3 O16 1.868366 1_555
Al3 O17 1.868366 1_555
Al3 O12 1.912959 1_555
Al3 O13 1.912959 1_555
Al3 O5 1.947073 1_555
Al3 O1 1.947073 1_555
Al4 O10 1.710270 1_555
Al4 O19 1.744375 1_555
Al4 O1 1.793345 1_555
Al4 O4 1.793345 1_455
Al5 O11 1.710270 1_555
Al5 O18 1.744375 1_555
Al5 O5 1.793345 1_555
Al5 O0 1.793345 1_655
Al6 O8 1.710270 1_565
Al6 O17 1.744375 1_555
Al6 O3 1.793345 1_555
Al6 O6 1.793345 1_655
Al7 O9 1.710270 1_545
Al7 O16 1.744375 1_555
Al7 O7 1.793345 1_555
Al7 O2 1.793345 1_455
O0 Si2 1.645728 1_555
O1 Si3 1.645728 1_555
O2 Si0 1.645728 1_555
O3 Si1 1.645728 1_555
O4 Si3 1.645728 1_555
O5 Si2 1.645728 1_555
O6 Si1 1.645728 1_555
O7 Si0 1.645728 1_555
O8 Si0 1.580255 1_555
O9 Si1 1.580255 1_555
O10 Si2 1.580255 1_556
O11 Si3 1.580255 1_554
O12 Si0 1.636982 1_555
O13 Si1 1.636982 1_555
O14 Si2 1.636982 1_555
O15 Si3 1.636982 1_555
