# generated using pymatgen
data_Y3Fe5O12
_symmetry_space_group_name_H-M   'P 1'
_cell_length_a   10.87724270
_cell_length_b   10.87724270
_cell_length_c   10.87724270
_cell_angle_alpha   109.47122063
_cell_angle_beta   109.47122063
_cell_angle_gamma   109.47122063
_symmetry_Int_Tables_number   1
_chemical_formula_structural   Y3Fe5O12
_chemical_formula_sum   'Y12 Fe20 O48'
_cell_volume   990.68266956
_cell_formula_units_Z   4
loop_
 _symmetry_equiv_pos_site_id
 _symmetry_equiv_pos_as_xyz
  1  'x, y, z'
loop_
 _atom_site_type_symbol
 _atom_site_label
 _atom_site_symmetry_multiplicity
 _atom_site_fract_x
 _atom_site_fract_y
 _atom_site_fract_z
 _atom_site_occupancy
  Y  Y0  1  0.37500000  0.12500000  0.25000000  1
  Y  Y1  1  0.25000000  0.87500000  0.62500000  1
  Y  Y2  1  0.62500000  0.87500000  0.75000000  1
  Y  Y3  1  0.12500000  0.37500000  0.75000000  1
  Y  Y4  1  0.75000000  0.62500000  0.87500000  1
  Y  Y5  1  0.87500000  0.62500000  0.25000000  1
  Y  Y6  1  0.87500000  0.75000000  0.62500000  1
  Y  Y7  1  0.37500000  0.75000000  0.12500000  1
  Y  Y8  1  0.75000000  0.12500000  0.37500000  1
  Y  Y9  1  0.12500000  0.25000000  0.37500000  1
  Y  Y10  1  0.62500000  0.25000000  0.87500000  1
  Y  Y11  1  0.25000000  0.37500000  0.12500000  1
  Fe  Fe0  1  0.25000000  0.12500000  0.87500000  1
  Fe  Fe1  1  0.62500000  0.37500000  0.25000000  1
  Fe  Fe2  1  0.50000000  0.50000000  0.00000000  1
  Fe  Fe3  1  0.12500000  0.87500000  0.25000000  1
  Fe  Fe4  1  0.00000000  0.00000000  0.50000000  1
  Fe  Fe5  1  0.37500000  0.25000000  0.62500000  1
  Fe  Fe6  1  0.00000000  0.50000000  0.50000000  1
  Fe  Fe7  1  0.62500000  0.75000000  0.37500000  1
  Fe  Fe8  1  0.75000000  0.37500000  0.62500000  1
  Fe  Fe9  1  0.12500000  0.75000000  0.87500000  1
  Fe  Fe10  1  0.50000000  0.00000000  0.00000000  1
  Fe  Fe11  1  0.87500000  0.25000000  0.12500000  1
  Fe  Fe12  1  0.00000000  0.00000000  0.00000000  1
  Fe  Fe13  1  0.87500000  0.12500000  0.75000000  1
  Fe  Fe14  1  0.25000000  0.62500000  0.37500000  1
  Fe  Fe15  1  0.00000000  0.50000000  0.00000000  1
  Fe  Fe16  1  0.75000000  0.87500000  0.12500000  1
  Fe  Fe17  1  0.37500000  0.62500000  0.75000000  1
  Fe  Fe18  1  0.50000000  0.50000000  0.50000000  1
  Fe  Fe19  1  0.50000000  0.00000000  0.50000000  1
  O  O0  1  0.41694900  0.09412700  0.62510400  1
  O  O1  1  0.59412700  0.17717900  0.46902400  1
  O  O2  1  0.03097600  0.32282100  0.90587300  1
  O  O3  1  0.17717900  0.46902400  0.59412700  1
  O  O4  1  0.62510400  0.70815500  0.53097600  1
  O  O5  1  0.87489600  0.40587300  0.08305100  1
  O  O6  1  0.79184500  0.87489600  0.96902400  1
  O  O7  1  0.12510400  0.59412700  0.91694900  1
  O  O8  1  0.90587300  0.37489600  0.58305100  1
  O  O9  1  0.09412700  0.96902400  0.67717900  1
  O  O10  1  0.03097600  0.20815500  0.12510400  1
  O  O11  1  0.67717900  0.09412700  0.96902400  1
  O  O12  1  0.37489600  0.58305100  0.90587300  1
  O  O13  1  0.08305100  0.70815500  0.67717900  1
  O  O14  1  0.62510400  0.41694900  0.09412700  1
  O  O15  1  0.53097600  0.40587300  0.82282100  1
  O  O16  1  0.79184500  0.41694900  0.82282100  1
  O  O17  1  0.67717900  0.08305100  0.70815500  1
  O  O18  1  0.70815500  0.53097600  0.62510400  1
  O  O19  1  0.91694900  0.29184500  0.32282100  1
  O  O20  1  0.96902400  0.67717900  0.09412700  1
  O  O21  1  0.59412700  0.91694900  0.12510400  1
  O  O22  1  0.40587300  0.08305100  0.87489600  1
  O  O23  1  0.82282100  0.53097600  0.40587300  1
  O  O24  1  0.96902400  0.79184500  0.87489600  1
  O  O25  1  0.46902400  0.37489600  0.29184500  1
  O  O26  1  0.32282100  0.91694900  0.29184500  1
  O  O27  1  0.87489600  0.96902400  0.79184500  1
  O  O28  1  0.20815500  0.58305100  0.17717900  1
  O  O29  1  0.32282100  0.90587300  0.03097600  1
  O  O30  1  0.17717900  0.20815500  0.58305100  1
  O  O31  1  0.90587300  0.03097600  0.32282100  1
  O  O32  1  0.40587300  0.82282100  0.53097600  1
  O  O33  1  0.29184500  0.46902400  0.37489600  1
  O  O34  1  0.20815500  0.12510400  0.03097600  1
  O  O35  1  0.12510400  0.03097600  0.20815500  1
  O  O36  1  0.09412700  0.62510400  0.41694900  1
  O  O37  1  0.41694900  0.82282100  0.79184500  1
  O  O38  1  0.58305100  0.17717900  0.20815500  1
  O  O39  1  0.46902400  0.59412700  0.17717900  1
  O  O40  1  0.37489600  0.29184500  0.46902400  1
  O  O41  1  0.08305100  0.87489600  0.40587300  1
  O  O42  1  0.58305100  0.90587300  0.37489600  1
  O  O43  1  0.29184500  0.32282100  0.91694900  1
  O  O44  1  0.82282100  0.79184500  0.41694900  1
  O  O45  1  0.70815500  0.67717900  0.08305100  1
  O  O46  1  0.53097600  0.62510400  0.70815500  1
  O  O47  1  0.91694900  0.12510400  0.59412700  1
loop_
_geom_bond_atom_site_label_1
_geom_bond_atom_site_label_2
_geom_bond_distance
_geom_bond_site_symmetry_2
Fe0 O43 1.897224 1_555
Fe0 O34 1.897224 1_556
Fe0 O9 1.897226 1_545
Fe0 O22 1.897234 1_555
Fe1 O25 1.897224 1_555
Fe1 O38 1.897224 1_555
Fe1 O23 1.897226 1_555
Fe1 O14 1.897234 1_555
Fe2 O12 2.055084 1_554
Fe2 O14 2.055084 1_555
Fe2 O39 2.055086 1_555
Fe2 O15 2.055086 1_554
Fe2 O45 2.055089 1_555
Fe2 O43 2.055089 1_554
Fe3 O26 1.897224 1_555
Fe3 O35 1.897224 1_565
Fe3 O20 1.897226 1_455
Fe3 O41 1.897234 1_555
Fe4 O41 2.055084 1_545
Fe4 O47 2.055084 1_455
Fe4 O9 2.055086 1_545
Fe4 O31 2.055086 1_455
Fe4 O30 2.055089 1_555
Fe4 O44 2.055089 1_445
Fe5 O40 1.897224 1_555
Fe5 O30 1.897224 1_555
Fe5 O15 1.897226 1_555
Fe5 O0 1.897234 1_555
Fe6 O8 2.055084 1_455
Fe6 O36 2.055084 1_555
Fe6 O3 2.055086 1_555
Fe6 O23 2.055086 1_455
Fe6 O13 2.055089 1_555
Fe6 O19 2.055089 1_455
Fe7 O44 1.897224 1_555
Fe7 O4 1.897224 1_555
Fe7 O39 1.897226 1_555
Fe7 O42 1.897234 1_555
Fe8 O16 1.897224 1_555
Fe8 O18 1.897224 1_555
Fe8 O1 1.897226 1_555
Fe8 O8 1.897234 1_555
Fe9 O24 1.897224 1_455
Fe9 O13 1.897224 1_555
Fe9 O29 1.897226 1_556
Fe9 O7 1.897234 1_555
Fe10 O22 2.055084 1_554
Fe10 O21 2.055084 1_545
Fe10 O11 2.055086 1_554
Fe10 O29 2.055086 1_545
Fe10 O38 2.055089 1_555
Fe10 O37 2.055089 1_544
Fe11 O19 1.897224 1_555
Fe11 O10 1.897224 1_655
Fe11 O11 1.897226 1_554
Fe11 O5 1.897234 1_555
Fe12 O35 2.055089 1_555
Fe12 O10 2.055089 1_555
Fe12 O34 2.055089 1_555
Fe12 O27 2.055089 1_444
Fe12 O24 2.055089 1_444
Fe12 O6 2.055089 1_444
Fe13 O27 1.897224 1_545
Fe13 O17 1.897224 1_555
Fe13 O2 1.897226 1_655
Fe13 O47 1.897234 1_555
Fe14 O33 1.897224 1_555
Fe14 O28 1.897224 1_555
Fe14 O32 1.897226 1_555
Fe14 O36 1.897234 1_555
Fe15 O5 2.055084 1_455
Fe15 O7 2.055084 1_554
Fe15 O20 2.055086 1_455
Fe15 O2 2.055086 1_554
Fe15 O28 2.055089 1_555
Fe15 O16 2.055089 1_454
Fe16 O6 1.897224 1_554
Fe16 O45 1.897224 1_555
Fe16 O31 1.897226 1_565
Fe16 O21 1.897234 1_555
Fe17 O37 1.897224 1_555
Fe17 O46 1.897224 1_555
Fe17 O3 1.897226 1_555
Fe17 O12 1.897234 1_555
Fe18 O46 2.055089 1_555
Fe18 O18 2.055089 1_555
Fe18 O4 2.055089 1_555
Fe18 O25 2.055089 1_555
Fe18 O33 2.055089 1_555
Fe18 O40 2.055089 1_555
Fe19 O42 2.055084 1_545
Fe19 O0 2.055084 1_555
Fe19 O1 2.055086 1_555
Fe19 O32 2.055086 1_545
Fe19 O17 2.055089 1_555
Fe19 O26 2.055089 1_545
O0 Y10 2.377646 1_555
O0 Y1 2.467796 1_545
O1 Y8 2.377656 1_555
O1 Y0 2.467798 1_555
O2 Y3 2.377656 1_555
O2 Y11 2.467798 1_556
O3 Y3 2.377656 1_555
O3 Y9 2.467798 1_555
O4 Y6 2.377646 1_555
O4 Y2 2.467804 1_555
O5 Y10 2.377646 1_554
O5 Y5 2.467796 1_555
O6 Y4 2.377646 1_555
O6 Y2 2.467804 1_555
O7 Y7 2.377646 1_556
O7 Y3 2.467796 1_555
O8 Y8 2.377646 1_555
O8 Y3 2.467796 1_655
O9 Y1 2.377656 1_555
O9 Y6 2.467798 1_455
O10 Y9 2.377646 1_555
O10 Y11 2.467804 1_555
O11 Y10 2.377656 1_555
O11 Y2 2.467798 1_545
O12 Y3 2.377646 1_555
O12 Y7 2.467796 1_556
O13 Y6 2.377646 1_455
O13 Y1 2.467804 1_555
O14 Y5 2.377646 1_555
O14 Y10 2.467796 1_554
O15 Y10 2.377656 1_555
O15 Y4 2.467798 1_555
O16 Y4 2.377646 1_555
O16 Y10 2.467804 1_555
O17 Y2 2.377646 1_545
O17 Y10 2.467804 1_555
O18 Y4 2.377646 1_555
O18 Y6 2.467804 1_555
O19 Y9 2.377646 1_655
O19 Y8 2.467804 1_555
O20 Y5 2.377656 1_555
O20 Y4 2.467798 1_554
O21 Y8 2.377646 1_565
O21 Y7 2.467796 1_555
O22 Y1 2.377646 1_545
O22 Y10 2.467796 1_555
O23 Y5 2.377656 1_555
O23 Y6 2.467798 1_555
O24 Y6 2.377646 1_555
O24 Y4 2.467804 1_555
O25 Y0 2.377646 1_555
O25 Y11 2.467804 1_555
O26 Y0 2.377646 1_565
O26 Y7 2.467804 1_555
O27 Y2 2.377646 1_555
O27 Y6 2.467804 1_555
O28 Y11 2.377646 1_555
O28 Y7 2.467804 1_555
O29 Y7 2.377656 1_555
O29 Y0 2.467798 1_565
O30 Y9 2.377646 1_555
O30 Y3 2.467804 1_555
O31 Y8 2.377656 1_555
O31 Y9 2.467798 1_655
O32 Y1 2.377656 1_555
O32 Y2 2.467798 1_555
O33 Y11 2.377646 1_555
O33 Y9 2.467804 1_555
O34 Y11 2.377646 1_555
O34 Y0 2.467804 1_555
O35 Y0 2.377646 1_555
O35 Y9 2.467804 1_555
O36 Y1 2.377646 1_555
O36 Y5 2.467796 1_455
O37 Y2 2.377646 1_555
O37 Y1 2.467804 1_555
O38 Y0 2.377646 1_555
O38 Y8 2.467804 1_555
O39 Y7 2.377656 1_555
O39 Y11 2.467798 1_555
O40 Y9 2.377646 1_555
O40 Y0 2.467804 1_555
O41 Y5 2.377646 1_455
O41 Y1 2.467796 1_555
O42 Y7 2.377646 1_555
O42 Y8 2.467796 1_565
O43 Y11 2.377646 1_556
O43 Y3 2.467804 1_555
O44 Y6 2.377646 1_555
O44 Y5 2.467804 1_555
O45 Y4 2.377646 1_554
O45 Y5 2.467804 1_555
O46 Y2 2.377646 1_555
O46 Y4 2.467804 1_555
O47 Y3 2.377646 1_655
O47 Y8 2.467796 1_555
