# generated using pymatgen
data_K3Sn2S3ClO12
_symmetry_space_group_name_H-M   'P 1'
_cell_length_a   7.67659500
_cell_length_b   10.28750700
_cell_length_c   10.40440316
_cell_angle_alpha   60.78365689
_cell_angle_beta   90.00000000
_cell_angle_gamma   90.00000000
_symmetry_Int_Tables_number   1
_chemical_formula_structural   K3Sn2S3ClO12
_chemical_formula_sum   'K6 Sn4 S6 Cl2 O24'
_cell_volume   717.13705900
_cell_formula_units_Z   2
loop_
 _symmetry_equiv_pos_site_id
 _symmetry_equiv_pos_as_xyz
  1  'x, y, z'
loop_
 _atom_site_type_symbol
 _atom_site_label
 _atom_site_symmetry_multiplicity
 _atom_site_fract_x
 _atom_site_fract_y
 _atom_site_fract_z
 _atom_site_occupancy
  K  K0  1  0.97566900  0.32132000  0.33157900  1
  K  K1  1  0.49108300  0.32839300  0.33814300  1
  K  K2  1  0.71948700  0.00784600  0.74943900  1
  K  K3  1  0.21948700  0.99215400  0.25056100  1
  K  K4  1  0.47566900  0.67868000  0.66842100  1
  K  K5  1  0.99108300  0.67160700  0.66185700  1
  Sn  Sn0  1  0.18567500  0.72953800  0.01333300  1
  Sn  Sn1  1  0.18497200  0.23341300  0.74476900  1
  Sn  Sn2  1  0.68497200  0.76658700  0.25523100  1
  Sn  Sn3  1  0.68567500  0.27046200  0.98666700  1
  S  S0  1  0.24446400  0.59326200  0.37309900  1
  S  S1  1  0.24559700  0.38956400  0.02241400  1
  S  S2  1  0.23031100  0.04302500  0.59630800  1
  S  S3  1  0.73031100  0.95697500  0.40369200  1
  S  S4  1  0.74559700  0.61043600  0.97758600  1
  S  S5  1  0.74446400  0.40673800  0.62690100  1
  Cl  Cl0  1  0.00256900  0.00322900  0.97925100  1
  Cl  Cl1  1  0.50256900  0.99677100  0.02074900  1
  O  O0  1  0.10329300  0.64556700  0.25507800  1
  O  O1  1  0.41677300  0.62960600  0.29290000  1
  O  O2  1  0.22859900  0.42856200  0.46557300  1
  O  O3  1  0.72679300  0.32986800  0.54015300  1
  O  O4  1  0.74025300  0.50582900  0.13693400  1
  O  O5  1  0.23774600  0.47491500  0.10787600  1
  O  O6  1  0.07043000  0.10838200  0.63523700  1
  O  O7  1  0.38290400  0.09571400  0.64826400  1
  O  O8  1  0.41839600  0.30608900  0.06446900  1
  O  O9  1  0.23426800  0.10627700  0.43485300  1
  O  O10  1  0.10255700  0.28082700  0.07319800  1
  O  O11  1  0.71846300  0.12088800  0.32711800  1
  O  O12  1  0.21846300  0.87911200  0.67288200  1
  O  O13  1  0.60255700  0.71917300  0.92680200  1
  O  O14  1  0.73426800  0.89372300  0.56514700  1
  O  O15  1  0.91839600  0.69391100  0.93553100  1
  O  O16  1  0.88290400  0.90428600  0.35173600  1
  O  O17  1  0.57043000  0.89161800  0.36476300  1
  O  O18  1  0.73774600  0.52508500  0.89212400  1
  O  O19  1  0.24025300  0.49417100  0.86306600  1
  O  O20  1  0.22679300  0.67013200  0.45984700  1
  O  O21  1  0.72859900  0.57143800  0.53442700  1
  O  O22  1  0.91677300  0.37039400  0.70710000  1
  O  O23  1  0.60329300  0.35443300  0.74492200  1
loop_
_geom_bond_atom_site_label_1
_geom_bond_atom_site_label_2
_geom_bond_distance
_geom_bond_site_symmetry_2
K0 O4 2.686549 1_555
K0 O9 2.769287 1_655
K0 O11 2.871536 1_555
K0 O5 2.893325 1_655
K0 O2 2.903829 1_655
K0 O6 2.924593 1_655
K0 O3 2.924619 1_555
K0 O10 3.072871 1_655
K0 O0 3.182505 1_655
K1 O4 2.764564 1_555
K1 O3 2.779030 1_555
K1 O11 2.802851 1_555
K1 O9 2.806407 1_555
K1 O2 2.865949 1_555
K1 O5 2.875521 1_555
K1 O1 2.953839 1_555
K1 O8 3.018208 1_555
K1 O7 3.048055 1_555
K2 O14 2.695455 1_545
K2 O7 2.769906 1_555
K2 O13 2.771366 1_545
K2 O6 2.922282 1_655
K2 O3 2.945716 1_555
K2 O15 3.225885 1_545
K3 O9 2.695455 1_565
K3 O16 2.769906 1_455
K3 O10 2.771366 1_565
K3 O17 2.922282 1_555
K3 O20 2.945716 1_555
K3 O8 3.225885 1_565
K4 O19 2.686549 1_555
K4 O14 2.769287 1_555
K4 O12 2.871536 1_555
K4 O18 2.893325 1_555
K4 O21 2.903829 1_555
K4 O17 2.924593 1_555
K4 O20 2.924619 1_555
K4 O13 3.072871 1_555
K4 O23 3.182505 1_555
K5 O19 2.764564 1_655
K5 O20 2.779030 1_655
K5 O12 2.802851 1_655
K5 O14 2.806407 1_555
K5 O21 2.865949 1_555
K5 O18 2.875521 1_555
K5 O22 2.953839 1_555
K5 O15 3.018208 1_555
K5 O16 3.048055 1_555
Cl0 Sn1 2.807189 1_555
Cl0 Sn0 3.009063 1_546
Cl0 K2 3.214176 1_455
Cl0 K3 3.231127 1_546
Cl1 Sn2 2.807189 1_555
Cl1 Sn3 3.009063 1_564
Cl1 K3 3.214176 1_555
Cl1 K2 3.231127 1_564
O0 S0 1.525378 1_555
O0 Sn0 2.313306 1_555
O1 S0 1.510348 1_555
O1 Sn2 2.416434 1_555
O2 S0 1.489947 1_555
O2 Sn1 2.624454 1_555
O3 S5 1.468045 1_555
O4 S4 1.471986 1_554
O5 S1 1.525589 1_555
O5 Sn0 2.339542 1_555
O6 S2 1.545425 1_555
O6 Sn1 2.270972 1_555
O7 S2 1.498075 1_555
O7 Sn1 2.590773 1_555
O8 S1 1.523717 1_555
O8 Sn3 2.299800 1_554
O9 S2 1.476186 1_555
O10 S1 1.469440 1_555
O11 S3 1.474779 1_545
O12 S2 1.474779 1_565
O13 S4 1.469440 1_555
O14 S3 1.476186 1_555
O15 S4 1.523717 1_555
O15 Sn0 2.299800 1_656
O16 S3 1.498075 1_555
O16 Sn2 2.590773 1_555
O17 S3 1.545425 1_555
O17 Sn2 2.270972 1_555
O18 S4 1.525589 1_555
O18 Sn3 2.339542 1_555
O19 S1 1.471986 1_556
O20 S0 1.468045 1_555
O21 S5 1.489947 1_555
O21 Sn2 2.624454 1_555
O22 S5 1.510348 1_555
O22 Sn1 2.416434 1_655
O23 S5 1.525378 1_555
O23 Sn3 2.313306 1_555
