# generated using pymatgen
data_MgAlSi
_symmetry_space_group_name_H-M   'P 1'
_cell_length_a   3.97334600
_cell_length_b   6.66838500
_cell_length_c   8.12039800
_cell_angle_alpha   90.00000000
_cell_angle_beta   90.00000000
_cell_angle_gamma   90.00000000
_symmetry_Int_Tables_number   1
_chemical_formula_structural   MgAlSi
_chemical_formula_sum   'Mg4 Al4 Si4'
_cell_volume   215.15644836
_cell_formula_units_Z   4
loop_
 _symmetry_equiv_pos_site_id
 _symmetry_equiv_pos_as_xyz
  1  'x, y, z'
loop_
 _atom_site_type_symbol
 _atom_site_label
 _atom_site_symmetry_multiplicity
 _atom_site_fract_x
 _atom_site_fract_y
 _atom_site_fract_z
 _atom_site_occupancy
  Mg  Mg0  1  0.75000000  0.46383200  0.82837900  1
  Mg  Mg1  1  0.25000000  0.53616800  0.17162100  1
  Mg  Mg2  1  0.75000000  0.96383200  0.67162100  1
  Mg  Mg3  1  0.25000000  0.03616800  0.32837900  1
  Al  Al0  1  0.75000000  0.35918400  0.42966200  1
  Al  Al1  1  0.25000000  0.64081600  0.57033800  1
  Al  Al2  1  0.75000000  0.85918400  0.07033800  1
  Al  Al3  1  0.25000000  0.14081600  0.92966200  1
  Si  Si0  1  0.75000000  0.23909800  0.12137500  1
  Si  Si1  1  0.25000000  0.76090200  0.87862500  1
  Si  Si2  1  0.75000000  0.73909800  0.37862500  1
  Si  Si3  1  0.25000000  0.26090200  0.62137500  1
loop_
_geom_bond_atom_site_label_1
_geom_bond_atom_site_label_2
_geom_bond_distance
_geom_bond_site_symmetry_2
Mg0 Si0 2.811875 1_556
Mg0 Si1 2.835069 1_555
Mg0 Si1 2.835069 1_655
Mg0 Si3 2.933201 1_655
Mg0 Si3 2.933201 1_555
Mg1 Si1 2.811875 1_554
Mg1 Si0 2.835069 1_455
Mg1 Si0 2.835069 1_555
Mg1 Si2 2.933201 1_555
Mg1 Si2 2.933201 1_455
Mg2 Si2 2.811875 1_555
Mg2 Si3 2.835069 1_665
Mg2 Si3 2.835069 1_565
Mg2 Si1 2.933201 1_555
Mg2 Si1 2.933201 1_655
Mg3 Si3 2.811875 1_555
Mg3 Si2 2.835069 1_445
Mg3 Si2 2.835069 1_545
Mg3 Si0 2.933201 1_455
Mg3 Si0 2.933201 1_555
Al0 Si2 2.567088 1_555
Al0 Si3 2.607677 1_655
Al0 Si3 2.607677 1_555
Al0 Si0 2.628369 1_555
Al0 Mg3 3.043518 1_555
Al0 Mg3 3.043518 1_655
Al0 Mg1 3.119362 1_655
Al0 Mg1 3.119362 1_555
Al1 Si3 2.567088 1_555
Al1 Si2 2.607677 1_455
Al1 Si2 2.607677 1_555
Al1 Si1 2.628369 1_555
Al1 Mg2 3.043518 1_455
Al1 Mg2 3.043518 1_555
Al1 Mg0 3.119362 1_555
Al1 Mg0 3.119362 1_455
Al2 Si0 2.567088 1_565
Al2 Si1 2.607677 1_654
Al2 Si1 2.607677 1_554
Al2 Si2 2.628369 1_555
Al2 Mg1 3.043518 1_655
Al2 Mg1 3.043518 1_555
Al2 Mg3 3.119362 1_565
Al2 Mg3 3.119362 1_665
Al3 Si1 2.567088 1_545
Al3 Si0 2.607677 1_556
Al3 Si0 2.607677 1_456
Al3 Si3 2.628369 1_555
Al3 Mg0 3.043518 1_455
Al3 Mg0 3.043518 1_555
Al3 Mg2 3.119362 1_545
Al3 Mg2 3.119362 1_445
