# generated using pymatgen
data_CuSbS2
_symmetry_space_group_name_H-M   'P 1'
_cell_length_a   3.80157474
_cell_length_b   6.07432056
_cell_length_c   14.49176048
_cell_angle_alpha   90.00000000
_cell_angle_beta   90.00000000
_cell_angle_gamma   90.00000000
_symmetry_Int_Tables_number   1
_chemical_formula_structural   CuSbS2
_chemical_formula_sum   'Cu4 Sb4 S8'
_cell_volume   334.64349539
_cell_formula_units_Z   4
loop_
 _symmetry_equiv_pos_site_id
 _symmetry_equiv_pos_as_xyz
  1  'x, y, z'
loop_
 _atom_site_type_symbol
 _atom_site_label
 _atom_site_symmetry_multiplicity
 _atom_site_fract_x
 _atom_site_fract_y
 _atom_site_fract_z
 _atom_site_occupancy
  Cu  Cu0  1  0.25000000  0.25010162  0.82821842  1
  Cu  Cu1  1  0.25000000  0.75010162  0.67178158  1
  Cu  Cu2  1  0.75000000  0.74989838  0.17178158  1
  Cu  Cu3  1  0.75000000  0.24989838  0.32821842  1
  Sb  Sb0  1  0.25000000  0.72881200  0.43458741  1
  Sb  Sb1  1  0.75000000  0.27118800  0.56541259  1
  Sb  Sb2  1  0.25000000  0.22881200  0.06541259  1
  Sb  Sb3  1  0.75000000  0.77118800  0.93458741  1
  S  S0  1  0.25000000  0.12368586  0.40104516  1
  S  S1  1  0.75000000  0.87631414  0.59895484  1
  S  S2  1  0.25000000  0.62368586  0.09895484  1
  S  S3  1  0.75000000  0.37631414  0.90104516  1
  S  S4  1  0.75000000  0.62427265  0.32157721  1
  S  S5  1  0.25000000  0.87572735  0.82157721  1
  S  S6  1  0.75000000  0.12427265  0.17842279  1
  S  S7  1  0.25000000  0.37572735  0.67842279  1
loop_
_geom_bond_atom_site_label_1
_geom_bond_atom_site_label_2
_geom_bond_distance
_geom_bond_site_symmetry_2
Cu0 S5 2.276105 1_545
Cu0 S7 2.301020 1_555
Cu0 S3 2.305341 1_555
Cu0 S3 2.305341 1_455
Cu1 S7 2.276105 1_555
Cu1 S5 2.301020 1_555
Cu1 S1 2.305341 1_555
Cu1 S1 2.305341 1_455
Cu2 S6 2.276105 1_565
Cu2 S4 2.301020 1_555
Cu2 S2 2.305341 1_655
Cu2 S2 2.305341 1_555
Cu3 S4 2.276105 1_555
Cu3 S6 2.301020 1_555
Cu3 S0 2.305341 1_655
Cu3 S0 2.305341 1_555
S0 Sb0 2.447349 1_545
S1 Sb1 2.447349 1_565
S2 Sb2 2.447349 1_555
S3 Sb3 2.447349 1_555
S4 Sb0 2.588115 1_555
S4 Sb0 2.588115 1_655
S5 Sb3 2.588115 1_555
S5 Sb3 2.588115 1_455
S6 Sb2 2.588115 1_655
S6 Sb2 2.588115 1_555
S7 Sb1 2.588115 1_455
S7 Sb1 2.588115 1_555
