# generated using pymatgen
data_NbGaCo2
_symmetry_space_group_name_H-M   'P 1'
_cell_length_a   4.19979365
_cell_length_b   4.19979368
_cell_length_c   4.19979274
_cell_angle_alpha   59.99999940
_cell_angle_beta   59.99999913
_cell_angle_gamma   59.99999038
_symmetry_Int_Tables_number   1
_chemical_formula_structural   NbGaCo2
_chemical_formula_sum   'Nb1 Ga1 Co2'
_cell_volume   52.38039064
_cell_formula_units_Z   1
loop_
 _symmetry_equiv_pos_site_id
 _symmetry_equiv_pos_as_xyz
  1  'x, y, z'
loop_
 _atom_site_type_symbol
 _atom_site_label
 _atom_site_symmetry_multiplicity
 _atom_site_fract_x
 _atom_site_fract_y
 _atom_site_fract_z
 _atom_site_occupancy
  Nb  Nb0  1  0.50000000  0.50000000  0.50000000  1
  Ga  Ga0  1  0.00000000  -0.00000000  -0.00000000  1
  Co  Co0  1  0.25000000  0.25000000  0.25000000  1
  Co  Co1  1  0.75000000  0.75000000  0.75000000  1
loop_
_geom_bond_atom_site_label_1
_geom_bond_atom_site_label_2
_geom_bond_distance
_geom_bond_site_symmetry_2
Ga0 Nb0 2.969702 1_544
Ga0 Nb0 2.969702 1_455
Ga0 Nb0 2.969702 1_454
Ga0 Nb0 2.969702 1_545
Ga0 Nb0 2.969703 1_445
Ga0 Nb0 2.969703 1_554
Co0 Nb0 2.571837 1_554
Co0 Ga0 2.571837 1_556
Co0 Ga0 2.571838 1_655
Co0 Nb0 2.571838 1_455
Co0 Nb0 2.571838 1_545
Co0 Ga0 2.571838 1_565
Co0 Ga0 2.571838 1_555
Co0 Nb0 2.571838 1_555
Co1 Ga0 2.571837 1_665
Co1 Nb0 2.571837 1_556
Co1 Nb0 2.571838 1_655
Co1 Ga0 2.571838 1_566
Co1 Nb0 2.571838 1_565
Co1 Ga0 2.571838 1_656
Co1 Ga0 2.571838 1_666
Co1 Nb0 2.571838 1_555
