# generated using pymatgen
data_LaAsO4
_symmetry_space_group_name_H-M   'P 1'
_cell_length_a   7.22861075
_cell_length_b   6.78661193
_cell_length_c   8.44050881
_cell_angle_alpha   53.66040357
_cell_angle_beta   90.00000000
_cell_angle_gamma   90.00000000
_symmetry_Int_Tables_number   1
_chemical_formula_structural   LaAsO4
_chemical_formula_sum   'La4 As4 O16'
_cell_volume   333.54332093
_cell_formula_units_Z   4
loop_
 _symmetry_equiv_pos_site_id
 _symmetry_equiv_pos_as_xyz
  1  'x, y, z'
loop_
 _atom_site_type_symbol
 _atom_site_label
 _atom_site_symmetry_multiplicity
 _atom_site_fract_x
 _atom_site_fract_y
 _atom_site_fract_z
 _atom_site_occupancy
  La  La0  1  0.65367677  0.81668722  0.28197199  1
  La  La1  1  0.15367677  0.18331278  0.21802801  1
  La  La2  1  0.34632323  0.18331278  0.71802801  1
  La  La3  1  0.84632323  0.81668722  0.78197199  1
  As  As0  1  0.66288350  0.30907388  0.30434149  1
  As  As1  1  0.16288350  0.69092612  0.19565851  1
  As  As2  1  0.33711650  0.69092612  0.69565851  1
  As  As3  1  0.83711650  0.30907388  0.80434149  1
  O  O0  1  0.60852573  0.34241068  0.48328213  1
  O  O1  1  0.10852573  0.65758932  0.01671787  1
  O  O2  1  0.39147427  0.65758932  0.51671787  1
  O  O3  1  0.89147427  0.34241068  0.98328213  1
  O  O4  1  0.84099632  0.10587995  0.39069594  1
  O  O5  1  0.34099632  0.89412005  0.10930406  1
  O  O6  1  0.15900368  0.89412005  0.60930406  1
  O  O7  1  0.65900368  0.10587995  0.89069594  1
  O  O8  1  0.78611972  0.60234485  0.61844293  1
  O  O9  1  0.28611972  0.39765515  0.88155707  1
  O  O10  1  0.21388028  0.39765515  0.38155707  1
  O  O11  1  0.71388028  0.60234485  0.11844293  1
  O  O12  1  0.00310059  0.17691541  0.75396727  1
  O  O13  1  0.50310059  0.82308459  0.74603273  1
  O  O14  1  0.99689941  0.82308459  0.24603273  1
  O  O15  1  0.49689941  0.17691541  0.25396727  1
loop_
_geom_bond_atom_site_label_1
_geom_bond_atom_site_label_2
_geom_bond_distance
_geom_bond_site_symmetry_2
La0 O2 2.479641 1_555
La0 O8 2.490394 1_555
La0 O14 2.496752 1_555
La0 O11 2.567120 1_555
La0 O5 2.569285 1_555
La0 O15 2.575276 1_565
La0 O0 2.621488 1_555
La0 O7 2.660567 1_564
La0 O4 2.943147 1_565
La1 O3 2.479641 1_454
La1 O9 2.490394 1_554
La1 O15 2.496752 1_555
La1 O10 2.567120 1_555
La1 O4 2.569285 1_455
La1 O14 2.575276 1_445
La1 O1 2.621488 1_555
La1 O6 2.660567 1_545
La1 O5 2.943147 1_545
La2 O0 2.479641 1_555
La2 O10 2.490394 1_555
La2 O12 2.496752 1_555
La2 O9 2.567120 1_555
La2 O7 2.569285 1_555
La2 O13 2.575276 1_545
La2 O2 2.621488 1_555
La2 O5 2.660567 1_546
La2 O6 2.943147 1_545
La3 O1 2.479641 1_656
La3 O11 2.490394 1_556
La3 O13 2.496752 1_555
La3 O8 2.567120 1_555
La3 O6 2.569285 1_655
La3 O12 2.575276 1_665
La3 O3 2.621488 1_555
La3 O4 2.660567 1_565
La3 O7 2.943147 1_565
As0 O11 1.690595 1_555
As0 O15 1.696108 1_555
As0 O0 1.700503 1_555
As0 O4 1.702753 1_555
As1 O10 1.690595 1_555
As1 O14 1.696108 1_455
As1 O1 1.700503 1_555
As1 O5 1.702753 1_555
As2 O9 1.690595 1_555
As2 O13 1.696108 1_555
As2 O2 1.700503 1_555
As2 O6 1.702753 1_555
As3 O8 1.690595 1_555
As3 O12 1.696108 1_655
As3 O3 1.700503 1_555
As3 O7 1.702753 1_555
