# generated using pymatgen
data_Tb(SiAg)2
_symmetry_space_group_name_H-M   'P 1'
_cell_length_a   4.14152822
_cell_length_b   4.14152731
_cell_length_c   6.10698449
_cell_angle_alpha   109.82089861
_cell_angle_beta   109.82089657
_cell_angle_gamma   90.00000610
_symmetry_Int_Tables_number   1
_chemical_formula_structural   Tb(SiAg)2
_chemical_formula_sum   'Tb1 Si2 Ag2'
_cell_volume   91.91933646
_cell_formula_units_Z   1
loop_
 _symmetry_equiv_pos_site_id
 _symmetry_equiv_pos_as_xyz
  1  'x, y, z'
loop_
 _atom_site_type_symbol
 _atom_site_label
 _atom_site_symmetry_multiplicity
 _atom_site_fract_x
 _atom_site_fract_y
 _atom_site_fract_z
 _atom_site_occupancy
  Tb  Tb0  1  0.00000000  -0.00000000  -0.00000000  1
  Si  Si0  1  0.60646868  0.60646868  0.21293835  1
  Si  Si1  1  0.39353132  0.39353132  0.78706165  1
  Ag  Ag0  1  0.25000000  0.75000000  0.50000000  1
  Ag  Ag1  1  0.75000000  0.25000000  0.50000000  1
loop_
_geom_bond_atom_site_label_1
_geom_bond_atom_site_label_2
_geom_bond_distance
_geom_bond_site_symmetry_2
Si0 Si1 2.282284 1_554
Si0 Tb0 3.142979 1_555
Si0 Tb0 3.142981 1_655
Si0 Tb0 3.142981 1_565
Si0 Tb0 3.142984 1_665
Si1 Tb0 3.142979 1_666
Si1 Tb0 3.142981 1_566
Si1 Tb0 3.142981 1_656
Si1 Tb0 3.142984 1_556
Ag0 Si1 2.579658 1_555
Ag0 Si0 2.579658 1_555
Ag0 Si1 2.579662 1_565
Ag0 Si0 2.579662 1_455
Ag0 Ag1 2.928502 1_565
Ag0 Ag1 2.928502 1_455
Ag0 Ag1 2.928503 1_465
Ag0 Ag1 2.928503 1_555
Ag0 Tb0 3.386421 1_565
Ag0 Tb0 3.386421 1_566
Ag0 Tb0 3.386421 1_555
Ag0 Tb0 3.386422 1_666
Ag1 Si0 2.579658 1_555
Ag1 Si1 2.579658 1_555
Ag1 Si0 2.579662 1_545
Ag1 Si1 2.579662 1_655
Ag1 Tb0 3.386421 1_656
Ag1 Tb0 3.386421 1_655
Ag1 Tb0 3.386421 1_666
Ag1 Tb0 3.386422 1_555
