# generated using pymatgen
data_RhPb
_symmetry_space_group_name_H-M   'P 1'
_cell_length_a   5.71489530
_cell_length_b   5.71489632
_cell_length_c   4.46479801
_cell_angle_alpha   90.00000000
_cell_angle_beta   90.00000000
_cell_angle_gamma   119.99998820
_symmetry_Int_Tables_number   1
_chemical_formula_structural   RhPb
_chemical_formula_sum   'Rh3 Pb3'
_cell_volume   126.28423369
_cell_formula_units_Z   3
loop_
 _symmetry_equiv_pos_site_id
 _symmetry_equiv_pos_as_xyz
  1  'x, y, z'
loop_
 _atom_site_type_symbol
 _atom_site_label
 _atom_site_symmetry_multiplicity
 _atom_site_fract_x
 _atom_site_fract_y
 _atom_site_fract_z
 _atom_site_occupancy
  Rh  Rh0  1  -0.00000000  0.50000000  0.00000000  1
  Rh  Rh1  1  0.50000000  0.50000000  0.00000000  1
  Rh  Rh2  1  0.50000000  -0.00000000  0.00000000  1
  Pb  Pb0  1  0.66666700  0.33333300  0.50000000  1
  Pb  Pb1  1  0.33333300  0.66666700  0.50000000  1
  Pb  Pb2  1  -0.00000000  -0.00000000  -0.00000000  1
loop_
_geom_bond_atom_site_label_1
_geom_bond_atom_site_label_2
_geom_bond_distance
_geom_bond_site_symmetry_2
Rh0 Rh1 2.857448 1_455
Rh0 Rh1 2.857448 1_555
Rh0 Rh2 2.857448 1_455
Rh0 Rh2 2.857448 1_565
Rh1 Rh2 2.857448 1_555
Rh1 Rh2 2.857448 1_565
Pb0 Rh0 2.775837 1_655
Pb0 Rh0 2.775837 1_656
Pb0 Rh2 2.775837 1_556
Pb0 Rh2 2.775837 1_555
Pb0 Rh1 2.775840 1_556
Pb0 Rh1 2.775840 1_555
Pb1 Rh0 2.775837 1_556
Pb1 Rh0 2.775837 1_555
Pb1 Rh2 2.775837 1_566
Pb1 Rh2 2.775837 1_565
Pb1 Rh1 2.775840 1_556
Pb1 Rh1 2.775840 1_555
Pb2 Rh2 2.857448 1_455
Pb2 Rh2 2.857448 1_555
Pb2 Rh0 2.857448 1_555
Pb2 Rh0 2.857448 1_545
Pb2 Rh1 2.857448 1_555
Pb2 Rh1 2.857448 1_445
