# generated using pymatgen
data_Nb2F5
_symmetry_space_group_name_H-M   'P 1'
_cell_length_a   7.14155380
_cell_length_b   7.14155074
_cell_length_c   7.14154988
_cell_angle_alpha   109.47119306
_cell_angle_beta   109.47122037
_cell_angle_gamma   109.47122431
_symmetry_Int_Tables_number   1
_chemical_formula_structural   Nb2F5
_chemical_formula_sum   'Nb6 F15'
_cell_volume   280.38575859
_cell_formula_units_Z   3
loop_
 _symmetry_equiv_pos_site_id
 _symmetry_equiv_pos_as_xyz
  1  'x, y, z'
loop_
 _atom_site_type_symbol
 _atom_site_label
 _atom_site_symmetry_multiplicity
 _atom_site_fract_x
 _atom_site_fract_y
 _atom_site_fract_z
 _atom_site_occupancy
  Nb  Nb0  1  0.75896367  0.75896367  -0.00000000  1
  Nb  Nb1  1  0.24103633  0.00000000  0.24103633  1
  Nb  Nb2  1  0.75896367  -0.00000000  0.75896367  1
  Nb  Nb3  1  -0.00000000  0.75896367  0.75896367  1
  Nb  Nb4  1  0.00000000  0.24103633  0.24103633  1
  Nb  Nb5  1  0.24103633  0.24103633  0.00000000  1
  F  F0  1  0.50000000  -0.00000000  0.50000000  1
  F  F1  1  -0.00000000  0.50000000  0.50000000  1
  F  F2  1  0.50000000  0.50000000  -0.00000000  1
  F  F3  1  0.49463457  0.74731678  0.74731678  1
  F  F4  1  0.74731778  0.49463557  0.74731678  1
  F  F5  1  0.74731778  0.25268322  0.00000000  1
  F  F6  1  0.50536543  0.25268322  0.25268322  1
  F  F7  1  0.25268322  -0.00000000  0.74731678  1
  F  F8  1  0.25268222  0.50536443  0.25268322  1
  F  F9  1  0.25268322  0.25268322  0.50536443  1
  F  F10  1  0.25268222  0.74731678  -0.00000000  1
  F  F11  1  0.00000000  0.25268222  0.74731678  1
  F  F12  1  -0.00000000  0.74731778  0.25268322  1
  F  F13  1  0.74731678  0.74731678  0.49463557  1
  F  F14  1  0.74731678  0.00000000  0.25268322  1
loop_
_geom_bond_atom_site_label_1
_geom_bond_atom_site_label_2
_geom_bond_distance
_geom_bond_site_symmetry_2
F0 Nb1 2.135506 1_555
F0 Nb2 2.135506 1_555
F1 Nb3 2.135506 1_555
F1 Nb4 2.135506 1_555
F2 Nb5 2.135506 1_555
F2 Nb0 2.135506 1_555
F3 Nb0 2.085923 1_556
F3 Nb2 2.085923 1_565
F4 Nb3 2.085915 1_655
F4 Nb0 2.085923 1_556
F5 Nb4 2.085923 1_655
F5 Nb2 2.085923 1_554
F6 Nb5 2.085923 1_555
F6 Nb1 2.085923 1_555
F7 Nb3 2.085928 1_545
F7 Nb5 2.085928 1_556
F8 Nb4 2.085915 1_555
F8 Nb5 2.085923 1_555
F9 Nb4 2.085919 1_555
F9 Nb1 2.085919 1_555
F10 Nb3 2.085923 1_554
F10 Nb1 2.085923 1_565
F11 Nb5 2.085923 1_556
F11 Nb2 2.085923 1_455
F12 Nb0 2.085923 1_455
F12 Nb1 2.085923 1_565
F13 Nb3 2.085919 1_655
F13 Nb2 2.085919 1_565
F14 Nb4 2.085928 1_655
F14 Nb0 2.085928 1_545
