# generated using pymatgen
data_SrAu2
_symmetry_space_group_name_H-M   'P 1'
_cell_length_a   4.70266266
_cell_length_b   6.10945526
_cell_length_c   6.10945513
_cell_angle_alpha   76.58131967
_cell_angle_beta   67.36446856
_cell_angle_gamma   67.36448181
_symmetry_Int_Tables_number   1
_chemical_formula_structural   SrAu2
_chemical_formula_sum   'Sr2 Au4'
_cell_volume   148.80135918
_cell_formula_units_Z   2
loop_
 _symmetry_equiv_pos_site_id
 _symmetry_equiv_pos_as_xyz
  1  'x, y, z'
loop_
 _atom_site_type_symbol
 _atom_site_label
 _atom_site_symmetry_multiplicity
 _atom_site_fract_x
 _atom_site_fract_y
 _atom_site_fract_z
 _atom_site_occupancy
  Sr  Sr0  1  0.53751062  0.71248938  0.21248938  1
  Sr  Sr1  1  0.46248938  0.28751062  0.78751062  1
  Au  Au0  1  0.16185064  0.29656223  0.37973649  1
  Au  Au1  1  0.83814936  0.70343777  0.62026351  1
  Au  Au2  1  0.16185064  0.87973649  0.79656223  1
  Au  Au3  1  0.83814936  0.12026351  0.20343777  1
loop_
_geom_bond_atom_site_label_1
_geom_bond_atom_site_label_2
_geom_bond_distance
_geom_bond_site_symmetry_2
Sr0 Sr1 3.837309 1_555
Sr0 Sr1 3.837309 1_564
Au0 Au3 2.774903 1_555
Au0 Au3 2.774903 1_455
Au0 Au1 2.777888 1_455
Au0 Au2 3.155980 1_545
Au0 Sr1 3.285632 1_455
Au0 Sr1 3.285632 1_555
Au0 Sr1 3.344891 1_554
Au0 Sr0 3.388649 1_555
Au0 Sr0 3.388649 1_455
Au0 Sr0 3.514069 1_545
Au1 Au2 2.774903 1_555
Au1 Au2 2.774903 1_655
Au1 Au3 3.155980 1_565
Au1 Sr0 3.285632 1_655
Au1 Sr0 3.285632 1_555
Au1 Sr0 3.344891 1_556
Au1 Sr1 3.388649 1_555
Au1 Sr1 3.388649 1_655
Au1 Sr1 3.514069 1_565
Au2 Au3 2.777888 1_466
Au2 Sr1 3.285632 1_565
Au2 Sr1 3.285632 1_465
Au2 Sr1 3.344891 1_555
Au2 Sr0 3.388648 1_456
Au2 Sr0 3.388649 1_556
Au2 Sr0 3.514069 1_555
Au3 Sr0 3.285632 1_545
Au3 Sr0 3.285632 1_645
Au3 Sr0 3.344891 1_555
Au3 Sr1 3.388648 1_654
Au3 Sr1 3.388649 1_554
Au3 Sr1 3.514069 1_555
