# generated using pymatgen
data_Tm(FeGe)2
_symmetry_space_group_name_H-M   'P 1'
_cell_length_a   6.07575175
_cell_length_b   6.07575175
_cell_length_c   6.07575175
_cell_angle_alpha   142.82641650
_cell_angle_beta   142.82641650
_cell_angle_gamma   53.58588381
_symmetry_Int_Tables_number   1
_chemical_formula_structural   Tm(FeGe)2
_chemical_formula_sum   'Tm1 Fe2 Ge2'
_cell_volume   81.36027573
_cell_formula_units_Z   1
loop_
 _symmetry_equiv_pos_site_id
 _symmetry_equiv_pos_as_xyz
  1  'x, y, z'
loop_
 _atom_site_type_symbol
 _atom_site_label
 _atom_site_symmetry_multiplicity
 _atom_site_fract_x
 _atom_site_fract_y
 _atom_site_fract_z
 _atom_site_occupancy
  Tm  Tm0  1  -0.00000000  -0.00000000  -0.00000000  1
  Fe  Fe0  1  0.75000000  0.25000000  0.50000000  1
  Fe  Fe1  1  0.25000000  0.75000000  0.50000000  1
  Ge  Ge0  1  0.61297523  0.61297523  -0.00000000  1
  Ge  Ge1  1  0.38702477  0.38702477  0.00000000  1
loop_
_geom_bond_atom_site_label_1
_geom_bond_atom_site_label_2
_geom_bond_distance
_geom_bond_site_symmetry_2
Fe0 Ge0 2.441202 1_545
Fe0 Ge0 2.441202 1_556
Fe0 Ge1 2.441202 1_656
Fe0 Ge1 2.441202 1_555
Fe1 Ge1 2.441202 1_555
Fe1 Ge0 2.441202 1_455
Fe1 Ge1 2.441202 1_566
Fe1 Ge0 2.441202 1_556
Ge0 Ge1 2.450870 1_555
Ge0 Tm0 3.000409 1_666
Ge0 Tm0 3.000409 1_554
Ge0 Tm0 3.000409 1_565
Ge0 Tm0 3.000409 1_655
Ge1 Tm0 3.000409 1_666
Ge1 Tm0 3.000409 1_554
Ge1 Tm0 3.000409 1_565
Ge1 Tm0 3.000409 1_655
