# generated using pymatgen
data_NdFeSi2
_symmetry_space_group_name_H-M   'P 1'
_cell_length_a   4.00567211
_cell_length_b   4.09258389
_cell_length_c   8.66497109
_cell_angle_alpha   103.65982373
_cell_angle_beta   90.00000000
_cell_angle_gamma   90.00000000
_symmetry_Int_Tables_number   1
_chemical_formula_structural   NdFeSi2
_chemical_formula_sum   'Nd2 Fe2 Si4'
_cell_volume   138.03174910
_cell_formula_units_Z   2
loop_
 _symmetry_equiv_pos_site_id
 _symmetry_equiv_pos_as_xyz
  1  'x, y, z'
loop_
 _atom_site_type_symbol
 _atom_site_label
 _atom_site_symmetry_multiplicity
 _atom_site_fract_x
 _atom_site_fract_y
 _atom_site_fract_z
 _atom_site_occupancy
  Nd  Nd0  1  0.25000000  0.89188835  0.78377771  1
  Nd  Nd1  1  0.75000000  0.10811165  0.21622229  1
  Fe  Fe0  1  0.75000000  0.74929980  0.49859960  1
  Fe  Fe1  1  0.25000000  0.25070020  0.50140040  1
  Si  Si0  1  0.25000000  0.68998224  0.37996448  1
  Si  Si1  1  0.75000000  0.31001776  0.62003552  1
  Si  Si2  1  0.75000000  0.46210708  0.92421317  1
  Si  Si3  1  0.25000000  0.53789292  0.07578683  1
loop_
_geom_bond_atom_site_label_1
_geom_bond_atom_site_label_2
_geom_bond_distance
_geom_bond_site_symmetry_2
Nd0 Si2 3.097876 1_555
Nd0 Si2 3.097876 1_455
Nd0 Si2 3.097881 1_565
Nd0 Si2 3.097881 1_465
Nd0 Si1 3.177962 1_555
Nd0 Si1 3.177962 1_455
Nd0 Si1 3.177964 1_565
Nd0 Si1 3.177964 1_465
Nd0 Si3 3.198817 1_566
Nd0 Si3 3.198817 1_556
Nd1 Si3 3.097876 1_655
Nd1 Si3 3.097876 1_555
Nd1 Si3 3.097881 1_645
Nd1 Si3 3.097881 1_545
Nd1 Si0 3.177962 1_655
Nd1 Si0 3.177962 1_555
Nd1 Si0 3.177964 1_645
Nd1 Si0 3.177964 1_545
Nd1 Si2 3.198817 1_544
Nd1 Si2 3.198817 1_554
Fe0 Si0 2.238111 1_555
Fe0 Si0 2.238111 1_655
Fe0 Si1 2.287524 1_565
Fe0 Si1 2.287524 1_555
Fe0 Nd0 3.126812 1_555
Fe0 Nd0 3.126812 1_655
Fe0 Nd1 3.136910 1_555
Fe0 Nd1 3.136913 1_565
Fe1 Si1 2.238111 1_455
Fe1 Si1 2.238111 1_555
Fe1 Si0 2.287524 1_545
Fe1 Si0 2.287524 1_555
Fe1 Nd1 3.126812 1_455
Fe1 Nd1 3.126812 1_555
Fe1 Nd0 3.136910 1_555
Fe1 Nd0 3.136913 1_545
Si0 Si3 2.561140 1_555
Si1 Si2 2.561140 1_555
Si2 Si3 2.374894 1_556
Si2 Si3 2.374894 1_656
