# generated using pymatgen
data_AlPO4
_symmetry_space_group_name_H-M   'P 1'
_cell_length_a   4.99704215
_cell_length_b   4.99704153
_cell_length_c   6.94665346
_cell_angle_alpha   90.00000000
_cell_angle_beta   90.00000000
_cell_angle_gamma   90.20042164
_symmetry_Int_Tables_number   1
_chemical_formula_structural   AlPO4
_chemical_formula_sum   'Al2 P2 O8'
_cell_volume   173.45984300
_cell_formula_units_Z   2
loop_
 _symmetry_equiv_pos_site_id
 _symmetry_equiv_pos_as_xyz
  1  'x, y, z'
loop_
 _atom_site_type_symbol
 _atom_site_label
 _atom_site_symmetry_multiplicity
 _atom_site_fract_x
 _atom_site_fract_y
 _atom_site_fract_z
 _atom_site_occupancy
  Al  Al0  1  0.19448302  0.19448302  0.25000000  1
  Al  Al1  1  0.80551698  0.80551698  0.75000000  1
  P  P0  1  0.30717876  0.69282124  0.00000000  1
  P  P1  1  0.69282124  0.30717876  0.50000000  1
  O  O0  1  0.26409037  0.40086657  0.05486973  1
  O  O1  1  0.73590963  0.59913343  0.55486973  1
  O  O2  1  0.40086657  0.26409037  0.44513027  1
  O  O3  1  0.59913343  0.73590963  0.94513027  1
  O  O4  1  0.23676780  0.86682708  0.17290648  1
  O  O5  1  0.76323220  0.13317292  0.67290648  1
  O  O6  1  0.86682708  0.23676780  0.32709352  1
  O  O7  1  0.13317292  0.76323220  0.82709352  1
loop_
_geom_bond_atom_site_label_1
_geom_bond_atom_site_label_2
_geom_bond_distance
_geom_bond_site_symmetry_2
Al0 O4 1.736277 1_545
Al0 O6 1.736277 1_455
Al0 O0 1.737659 1_555
Al0 O2 1.737659 1_555
Al1 O5 1.736277 1_565
Al1 O7 1.736277 1_655
Al1 O1 1.737659 1_555
Al1 O3 1.737659 1_555
O0 P0 1.522453 1_555
O1 P1 1.522453 1_555
O2 P1 1.522453 1_555
O3 P0 1.522453 1_556
O4 P0 1.524692 1_555
O5 P1 1.524692 1_555
O6 P1 1.524692 1_555
O7 P0 1.524692 1_556
