# generated using pymatgen
data_Ca2SnO4
_symmetry_space_group_name_H-M   'P 1'
_cell_length_a   3.27437889
_cell_length_b   5.75895943
_cell_length_c   9.73023626
_cell_angle_alpha   90.00000000
_cell_angle_beta   90.00000000
_cell_angle_gamma   90.00000000
_symmetry_Int_Tables_number   1
_chemical_formula_structural   Ca2SnO4
_chemical_formula_sum   'Ca4 Sn2 O8'
_cell_volume   183.48321292
_cell_formula_units_Z   2
loop_
 _symmetry_equiv_pos_site_id
 _symmetry_equiv_pos_as_xyz
  1  'x, y, z'
loop_
 _atom_site_type_symbol
 _atom_site_label
 _atom_site_symmetry_multiplicity
 _atom_site_fract_x
 _atom_site_fract_y
 _atom_site_fract_z
 _atom_site_occupancy
  Ca  Ca0  1  0.50000000  0.07036214  0.31849329  1
  Ca  Ca1  1  0.50000000  0.92963786  0.68150671  1
  Ca  Ca2  1  0.50000000  0.42963786  0.81849329  1
  Ca  Ca3  1  0.50000000  0.57036214  0.18150671  1
  Sn  Sn0  1  -0.00000000  -0.00000000  -0.00000000  1
  Sn  Sn1  1  0.00000000  0.50000000  0.50000000  1
  O  O0  1  -0.00000000  0.13547632  0.80717784  1
  O  O1  1  0.00000000  0.86452368  0.19282216  1
  O  O2  1  0.00000000  0.63547632  0.69282216  1
  O  O3  1  0.00000000  0.36452368  0.30717784  1
  O  O4  1  0.50000000  0.27265835  0.54808630  1
  O  O5  1  0.50000000  0.72734165  0.45191370  1
  O  O6  1  0.50000000  0.22734165  0.04808630  1
  O  O7  1  0.50000000  0.77265835  0.95191370  1
loop_
_geom_bond_atom_site_label_1
_geom_bond_atom_site_label_2
_geom_bond_distance
_geom_bond_site_symmetry_2
Ca0 O3 2.358467 1_555
Ca0 O3 2.358467 1_655
Ca0 O1 2.362385 1_645
Ca0 O1 2.362385 1_545
Ca0 O5 2.363836 1_545
Ca0 O4 2.519522 1_555
Ca0 O6 2.782103 1_555
Ca1 O2 2.358467 1_555
Ca1 O2 2.358467 1_655
Ca1 O0 2.362385 1_665
Ca1 O0 2.362385 1_565
Ca1 O4 2.363836 1_565
Ca1 O5 2.519522 1_555
Ca1 O7 2.782103 1_555
Ca2 O0 2.358467 1_555
Ca2 O0 2.358467 1_655
Ca2 O2 2.362385 1_555
Ca2 O2 2.362385 1_655
Ca2 O7 2.363836 1_555
Ca2 O6 2.519522 1_556
Ca2 O4 2.782103 1_555
Ca3 O1 2.358467 1_555
Ca3 O1 2.358467 1_655
Ca3 O3 2.362385 1_555
Ca3 O3 2.362385 1_655
Ca3 O6 2.363836 1_555
Ca3 O7 2.519522 1_554
Ca3 O5 2.782103 1_555
O0 Sn0 2.031960 1_556
O1 Sn0 2.031960 1_565
O2 Sn1 2.031960 1_555
O3 Sn1 2.031960 1_555
O4 Sn1 2.147894 1_655
O4 Sn1 2.147894 1_555
O5 Sn1 2.147894 1_655
O5 Sn1 2.147894 1_555
O6 Sn0 2.147894 1_555
O6 Sn0 2.147894 1_655
O7 Sn0 2.147894 1_666
O7 Sn0 2.147894 1_566
