# generated using pymatgen
data_ZnGeP2
_symmetry_space_group_name_H-M   'P 1'
_cell_length_a   5.44247752
_cell_length_b   5.44247687
_cell_length_c   6.60234836
_cell_angle_alpha   114.34073209
_cell_angle_beta   114.34073706
_cell_angle_gamma   90.00000606
_symmetry_Int_Tables_number   1
_chemical_formula_structural   ZnGeP2
_chemical_formula_sum   'Zn2 Ge2 P4'
_cell_volume   158.90738909
_cell_formula_units_Z   2
loop_
 _symmetry_equiv_pos_site_id
 _symmetry_equiv_pos_as_xyz
  1  'x, y, z'
loop_
 _atom_site_type_symbol
 _atom_site_label
 _atom_site_symmetry_multiplicity
 _atom_site_fract_x
 _atom_site_fract_y
 _atom_site_fract_z
 _atom_site_occupancy
  Zn  Zn0  1  0.25000000  0.75000000  0.50000000  1
  Zn  Zn1  1  -0.00000000  0.00000000  -0.00000000  1
  Ge  Ge0  1  0.75000000  0.25000000  0.50000000  1
  Ge  Ge1  1  0.50000000  0.50000000  -0.00000000  1
  P  P0  1  0.62500000  0.12956250  0.75000000  1
  P  P1  1  0.87043750  0.87500000  0.25000000  1
  P  P2  1  0.37956250  0.37500000  0.25000000  1
  P  P3  1  0.12500000  0.62043750  0.75000000  1
loop_
_geom_bond_atom_site_label_1
_geom_bond_atom_site_label_2
_geom_bond_distance
_geom_bond_site_symmetry_2
Ge0 P3 2.331182 1_655
Ge0 P0 2.331182 1_555
Ge0 P2 2.331182 1_555
Ge0 P1 2.331182 1_545
Ge1 P1 2.331182 1_555
Ge1 P2 2.331182 1_555
Ge1 P3 2.331182 1_554
Ge1 P0 2.331182 1_554
P0 Zn0 2.359990 1_545
P0 Zn1 2.359990 1_656
P1 Zn1 2.359990 1_665
P1 Zn0 2.359990 1_655
P2 Zn1 2.359990 1_555
P2 Zn0 2.359990 1_555
P3 Zn0 2.359990 1_555
P3 Zn1 2.359990 1_566
