# generated using pymatgen
data_NaNbO3
_symmetry_space_group_name_H-M   'P 1'
_cell_length_a   5.58105351
_cell_length_b   5.58105351
_cell_length_c   7.94425600
_cell_angle_alpha   90.00000000
_cell_angle_beta   90.00000000
_cell_angle_gamma   90.60105371
_symmetry_Int_Tables_number   1
_chemical_formula_structural   NaNbO3
_chemical_formula_sum   'Na4 Nb4 O12'
_cell_volume   247.43532826
_cell_formula_units_Z   4
loop_
 _symmetry_equiv_pos_site_id
 _symmetry_equiv_pos_as_xyz
  1  'x, y, z'
loop_
 _atom_site_type_symbol
 _atom_site_label
 _atom_site_symmetry_multiplicity
 _atom_site_fract_x
 _atom_site_fract_y
 _atom_site_fract_z
 _atom_site_occupancy
  Na  Na0  1  0.48910400  0.51089600  0.75000000  1
  Na  Na1  1  0.51089600  0.48910400  0.25000000  1
  Na  Na2  1  0.99650500  0.00349500  0.75000000  1
  Na  Na3  1  0.00349500  0.99650500  0.25000000  1
  Nb  Nb0  1  0.00000000  0.50000000  0.00000000  1
  Nb  Nb1  1  0.00000000  0.50000000  0.50000000  1
  Nb  Nb2  1  0.50000000  0.00000000  0.00000000  1
  Nb  Nb3  1  0.50000000  0.00000000  0.50000000  1
  O  O0  1  0.95332500  0.46635800  0.25000000  1
  O  O1  1  0.04667500  0.53364200  0.75000000  1
  O  O2  1  0.46635800  0.95332500  0.75000000  1
  O  O3  1  0.53364200  0.04667500  0.25000000  1
  O  O4  1  0.29113500  0.70886500  0.03923300  1
  O  O5  1  0.70886500  0.29113500  0.53923300  1
  O  O6  1  0.70886500  0.29113500  0.96076700  1
  O  O7  1  0.29113500  0.70886500  0.46076700  1
  O  O8  1  0.20703400  0.20703400  0.50000000  1
  O  O9  1  0.79296600  0.79296600  0.00000000  1
  O  O10  1  0.79296600  0.79296600  0.50000000  1
  O  O11  1  0.20703400  0.20703400  0.00000000  1
loop_
_geom_bond_atom_site_label_1
_geom_bond_atom_site_label_2
_geom_bond_distance
_geom_bond_site_symmetry_2
Na0 O6 2.417380 1_555
Na0 O5 2.417380 1_555
Na0 O2 2.473811 1_555
Na0 O1 2.473811 1_555
Na0 O4 2.783294 1_556
Na0 O7 2.783294 1_555
Na1 O7 2.417380 1_555
Na1 O4 2.417380 1_555
Na1 O3 2.473811 1_555
Na1 O0 2.473811 1_555
Na1 O5 2.783294 1_555
Na1 O6 2.783294 1_554
Na2 O10 2.566597 1_545
Na2 O8 2.566597 1_655
Na2 O11 2.566597 1_656
Na2 O9 2.566597 1_546
Na2 O1 2.640100 1_645
Na2 O2 2.640100 1_645
Na2 O6 2.830519 1_555
Na2 O5 2.830519 1_555
Na2 O1 2.969072 1_655
Na2 O2 2.969072 1_545
Na3 O11 2.566597 1_565
Na3 O8 2.566597 1_565
Na3 O9 2.566597 1_455
Na3 O10 2.566597 1_455
Na3 O0 2.640100 1_465
Na3 O3 2.640100 1_465
Na3 O7 2.830519 1_555
Na3 O4 2.830519 1_555
Na3 O3 2.969072 1_565
Na3 O0 2.969072 1_455
Nb0 O0 2.011600 1_455
Nb0 O1 2.011600 1_554
Nb0 O9 2.012004 1_455
Nb0 O11 2.012004 1_555
Nb0 O4 2.014035 1_555
Nb0 O6 2.014035 1_454
Nb1 O0 2.011600 1_455
Nb1 O1 2.011600 1_555
Nb1 O8 2.012004 1_555
Nb1 O10 2.012004 1_455
Nb1 O7 2.014035 1_555
Nb1 O5 2.014035 1_455
Nb2 O3 2.011600 1_555
Nb2 O2 2.011600 1_544
Nb2 O9 2.012004 1_545
Nb2 O11 2.012004 1_555
Nb2 O4 2.014035 1_545
Nb2 O6 2.014035 1_554
Nb3 O3 2.011600 1_555
Nb3 O2 2.011600 1_545
Nb3 O8 2.012004 1_555
Nb3 O10 2.012004 1_545
Nb3 O5 2.014035 1_555
Nb3 O7 2.014035 1_545
