# generated using pymatgen
data_Nd(SiRu)2
_symmetry_space_group_name_H-M   'P 1'
_cell_length_a   4.20380124
_cell_length_b   4.20380163
_cell_length_c   5.72730038
_cell_angle_alpha   111.53050470
_cell_angle_beta   111.53051405
_cell_angle_gamma   89.99999575
_symmetry_Int_Tables_number   1
_chemical_formula_structural   Nd(SiRu)2
_chemical_formula_sum   'Nd1 Si2 Ru2'
_cell_volume   86.51316629
_cell_formula_units_Z   1
loop_
 _symmetry_equiv_pos_site_id
 _symmetry_equiv_pos_as_xyz
  1  'x, y, z'
loop_
 _atom_site_type_symbol
 _atom_site_label
 _atom_site_symmetry_multiplicity
 _atom_site_fract_x
 _atom_site_fract_y
 _atom_site_fract_z
 _atom_site_occupancy
  Nd  Nd0  1  0.00000000  0.00000000  0.00000000  1
  Si  Si0  1  0.63699470  0.63699470  0.27399040  1
  Si  Si1  1  0.36300530  0.36300530  0.72600960  1
  Ru  Ru0  1  0.75000000  0.25000000  0.50000000  1
  Ru  Ru1  1  0.25000000  0.75000000  0.50000000  1
loop_
_geom_bond_atom_site_label_1
_geom_bond_atom_site_label_2
_geom_bond_distance
_geom_bond_site_symmetry_2
Nd0 Ru0 3.226373 1_454
Nd0 Ru1 3.226373 1_545
Nd0 Ru1 3.226374 1_544
Nd0 Ru0 3.226374 1_455
Nd0 Ru0 3.226374 1_555
Nd0 Ru1 3.226374 1_444
Nd0 Ru1 3.226374 1_555
Nd0 Ru0 3.226374 1_444
Nd0 Si1 3.261151 1_444
Nd0 Si0 3.261151 1_555
Nd0 Si1 3.261153 1_454
Nd0 Si0 3.261153 1_545
Nd0 Si1 3.261153 1_544
Nd0 Si0 3.261153 1_455
Nd0 Si1 3.261155 1_554
Nd0 Si0 3.261155 1_445
Ru0 Si0 2.375325 1_555
Ru0 Si1 2.375325 1_555
Ru0 Si1 2.375329 1_655
Ru0 Si0 2.375329 1_545
Ru1 Si1 2.375325 1_555
Ru1 Si0 2.375325 1_555
Ru1 Si0 2.375329 1_455
Ru1 Si1 2.375329 1_565
