# generated using pymatgen
data_CaSiO3
_symmetry_space_group_name_H-M   'P 1'
_cell_length_a   6.24919230
_cell_length_b   6.24919230
_cell_length_c   6.24919230
_cell_angle_alpha   109.40349189
_cell_angle_beta   109.40349189
_cell_angle_gamma   109.60676321
_symmetry_Int_Tables_number   1
_chemical_formula_structural   CaSiO3
_chemical_formula_sum   'Ca4 Si4 O12'
_cell_volume   187.86589811
_cell_formula_units_Z   4
loop_
 _symmetry_equiv_pos_site_id
 _symmetry_equiv_pos_as_xyz
  1  'x, y, z'
loop_
 _atom_site_type_symbol
 _atom_site_label
 _atom_site_symmetry_multiplicity
 _atom_site_fract_x
 _atom_site_fract_y
 _atom_site_fract_z
 _atom_site_occupancy
  Ca  Ca0  1  0.00000000  0.00000000  0.00000000  1
  Ca  Ca1  1  0.50000000  0.50000000  0.00000000  1
  Ca  Ca2  1  0.50000000  0.00000000  0.50000000  1
  Ca  Ca3  1  0.00000000  0.50000000  0.50000000  1
  Si  Si0  1  0.00000000  0.00000000  0.50000000  1
  Si  Si1  1  0.00000000  0.50000000  0.00000000  1
  Si  Si2  1  0.50000000  0.00000000  0.00000000  1
  Si  Si3  1  0.50000000  0.50000000  0.50000000  1
  O  O0  1  0.23917300  0.23917300  0.47834700  1
  O  O1  1  0.23917300  0.76082600  0.00000000  1
  O  O2  1  0.76082600  0.23917300  0.00000000  1
  O  O3  1  0.76082600  0.76082600  0.52165300  1
  O  O4  1  0.98926500  0.73906400  0.25020100  1
  O  O5  1  0.73906400  0.48886300  0.74979900  1
  O  O6  1  0.73906400  0.98926500  0.25020100  1
  O  O7  1  0.48886300  0.73906400  0.74979900  1
  O  O8  1  0.26093600  0.01073500  0.74979900  1
  O  O9  1  0.51113700  0.26093600  0.25020100  1
  O  O10  1  0.01073500  0.26093600  0.74979900  1
  O  O11  1  0.26093600  0.51113700  0.25020100  1
loop_
_geom_bond_atom_site_label_1
_geom_bond_atom_site_label_2
_geom_bond_distance
_geom_bond_site_symmetry_2
Ca0 O0 2.442779 1_555
Ca0 O1 2.442779 1_545
Ca0 O2 2.442779 1_455
Ca0 O3 2.442779 1_444
Ca0 O5 2.607395 1_444
Ca0 O11 2.607395 1_555
Ca0 O9 2.607395 1_555
Ca0 O10 2.607395 1_554
Ca0 O7 2.607395 1_444
Ca0 O8 2.607395 1_554
Ca0 O4 2.607395 1_445
Ca0 O6 2.607395 1_445
Ca1 O5 2.496193 1_554
Ca1 O7 2.496193 1_554
Ca1 O9 2.496193 1_555
Ca1 O10 2.496193 1_554
Ca1 O4 2.496193 1_555
Ca1 O11 2.496193 1_555
Ca1 O6 2.496193 1_555
Ca1 O8 2.496193 1_554
Ca1 O3 2.663930 1_555
Ca1 O1 2.663930 1_555
Ca1 O2 2.663930 1_555
Ca1 O0 2.663930 1_554
Ca2 O6 2.494092 1_545
Ca2 O8 2.494092 1_555
Ca2 O5 2.494092 1_555
Ca2 O11 2.494092 1_545
Ca2 O3 2.555747 1_545
Ca2 O2 2.555747 1_556
Ca2 O1 2.555747 1_545
Ca2 O0 2.555747 1_555
Ca2 O10 2.605384 1_655
Ca2 O4 2.605384 1_445
Ca2 O9 2.605384 1_555
Ca2 O7 2.605384 1_545
Ca3 O4 2.494092 1_455
Ca3 O10 2.494092 1_555
Ca3 O7 2.494092 1_555
Ca3 O9 2.494092 1_455
Ca3 O2 2.555747 1_455
Ca3 O1 2.555747 1_556
Ca3 O3 2.555747 1_455
Ca3 O0 2.555747 1_555
Ca3 O8 2.605384 1_565
Ca3 O6 2.605384 1_445
Ca3 O11 2.605384 1_555
Ca3 O5 2.605384 1_455
O0 Si0 1.804355 1_555
O0 Si3 1.804362 1_555
O1 Si1 1.804355 1_555
O1 Si2 1.804362 1_565
O2 Si2 1.804355 1_555
O2 Si1 1.804362 1_655
O3 Si3 1.804355 1_555
O3 Si0 1.804362 1_665
O4 Si1 1.807213 1_655
O4 Si0 1.807213 1_665
O5 Si3 1.807213 1_555
O5 Si1 1.807213 1_656
O6 Si2 1.807213 1_565
O6 Si0 1.807213 1_665
O7 Si3 1.807213 1_555
O7 Si2 1.807213 1_566
O8 Si2 1.807213 1_556
O8 Si0 1.807213 1_555
O9 Si3 1.807213 1_555
O9 Si2 1.807213 1_555
O10 Si1 1.807213 1_556
O10 Si0 1.807213 1_555
O11 Si3 1.807213 1_555
O11 Si1 1.807213 1_555
