# generated using pymatgen
data_Cd2SiO4
_symmetry_space_group_name_H-M   'P 1'
_cell_length_a   5.76563583
_cell_length_b   5.76563678
_cell_length_c   6.67764827
_cell_angle_alpha   103.60063583
_cell_angle_beta   103.60065205
_cell_angle_gamma   117.08429627
_symmetry_Int_Tables_number   1
_chemical_formula_structural   Cd2SiO4
_chemical_formula_sum   'Cd4 Si2 O8'
_cell_volume   176.43791618
_cell_formula_units_Z   2
loop_
 _symmetry_equiv_pos_site_id
 _symmetry_equiv_pos_as_xyz
  1  'x, y, z'
loop_
 _atom_site_type_symbol
 _atom_site_label
 _atom_site_symmetry_multiplicity
 _atom_site_fract_x
 _atom_site_fract_y
 _atom_site_fract_z
 _atom_site_occupancy
  Cd  Cd0  1  0.80921851  0.19078149  0.75000000  1
  Cd  Cd1  1  0.44078149  0.55921851  0.75000000  1
  Cd  Cd2  1  0.19078149  0.80921851  0.25000000  1
  Cd  Cd3  1  0.55921851  0.44078149  0.25000000  1
  Si  Si0  1  0.12500000  0.87500000  0.75000000  1
  Si  Si1  1  0.87500000  0.12500000  0.25000000  1
  O  O0  1  0.25053894  0.20815028  0.89731714  1
  O  O1  1  0.31083314  0.85322279  0.60268286  1
  O  O2  1  0.79184972  0.74946106  0.60268286  1
  O  O3  1  0.14677721  0.68916686  0.89731714  1
  O  O4  1  0.74946106  0.79184972  0.10268286  1
  O  O5  1  0.68916686  0.14677721  0.39731714  1
  O  O6  1  0.85322279  0.31083314  0.10268286  1
  O  O7  1  0.20815028  0.25053894  0.39731714  1
loop_
_geom_bond_atom_site_label_1
_geom_bond_atom_site_label_2
_geom_bond_distance
_geom_bond_site_symmetry_2
Cd0 O5 2.209602 1_555
Cd0 O6 2.209602 1_556
Cd0 O1 2.385409 1_545
Cd0 O3 2.385409 1_655
Cd0 O0 2.448799 1_655
Cd0 O2 2.448799 1_545
Cd1 O4 2.209604 1_556
Cd1 O7 2.209604 1_555
Cd1 O2 2.385410 1_555
Cd1 O0 2.385410 1_555
Cd1 O1 2.448804 1_555
Cd1 O3 2.448805 1_555
Cd2 O1 2.209602 1_555
Cd2 O3 2.209602 1_554
Cd2 O5 2.385409 1_565
Cd2 O6 2.385409 1_455
Cd2 O4 2.448799 1_455
Cd2 O7 2.448799 1_565
Cd3 O0 2.209604 1_554
Cd3 O2 2.209604 1_555
Cd3 O7 2.385410 1_555
Cd3 O4 2.385410 1_555
Cd3 O5 2.448804 1_555
Cd3 O6 2.448805 1_555
O0 Si0 1.640615 1_545
O1 Si0 1.640614 1_555
O2 Si0 1.640615 1_655
O3 Si0 1.640614 1_555
O4 Si1 1.640615 1_565
O5 Si1 1.640614 1_555
O6 Si1 1.640614 1_555
O7 Si1 1.640615 1_455
