# generated using pymatgen
data_SrRuO3
_symmetry_space_group_name_H-M   'P 1'
_cell_length_a   5.58551593
_cell_length_b   5.58551593
_cell_length_c   5.58551593
_cell_angle_alpha   120.78613372
_cell_angle_beta   120.78613372
_cell_angle_gamma   88.64368554
_symmetry_Int_Tables_number   1
_chemical_formula_structural   SrRuO3
_chemical_formula_sum   'Sr2 Ru2 O6'
_cell_volume   121.71707921
_cell_formula_units_Z   2
loop_
 _symmetry_equiv_pos_site_id
 _symmetry_equiv_pos_as_xyz
  1  'x, y, z'
loop_
 _atom_site_type_symbol
 _atom_site_label
 _atom_site_symmetry_multiplicity
 _atom_site_fract_x
 _atom_site_fract_y
 _atom_site_fract_z
 _atom_site_occupancy
  Sr  Sr0  1  0.75000000  0.25000000  0.50000000  1
  Sr  Sr1  1  0.25000000  0.75000000  0.50000000  1
  Ru  Ru0  1  0.00000000  -0.00000000  0.00000000  1
  Ru  Ru1  1  0.50000000  0.50000000  0.00000000  1
  O  O0  1  0.29481064  0.79481064  0.08962128  1
  O  O1  1  0.79481064  0.70518936  0.50000000  1
  O  O2  1  0.20518936  0.29481064  0.50000000  1
  O  O3  1  0.70518936  0.20518936  0.91037872  1
  O  O4  1  0.25000000  0.25000000  0.00000000  1
  O  O5  1  0.75000000  0.75000000  0.00000000  1
loop_
_geom_bond_atom_site_label_1
_geom_bond_atom_site_label_2
_geom_bond_distance
_geom_bond_site_symmetry_2
O0 Ru0 1.982364 1_565
O0 Ru1 1.982364 1_555
O0 Sr1 2.560647 1_555
O0 Sr0 2.560647 1_565
O0 Sr1 3.047414 1_554
O0 Sr0 3.047414 1_454
O1 Ru1 1.982364 1_555
O1 Ru0 1.982364 1_666
O1 Sr1 2.560647 1_655
O1 Sr0 2.560647 1_555
O1 Sr0 3.047414 1_565
O1 Sr1 3.047414 1_555
O2 Ru0 1.982364 1_555
O2 Ru1 1.982364 1_556
O2 Sr1 2.560647 1_555
O2 Sr0 2.560647 1_455
O2 Sr1 3.047414 1_545
O2 Sr0 3.047414 1_555
O3 Ru0 1.982364 1_656
O3 Ru1 1.982364 1_556
O3 Sr1 2.560647 1_545
O3 Sr0 2.560647 1_555
O3 Sr0 3.047414 1_556
O3 Sr1 3.047414 1_656
O4 Ru1 1.998013 1_555
O4 Ru0 1.998013 1_555
O4 Sr1 2.759508 1_544
O4 Sr0 2.759508 1_454
O4 Sr0 2.759508 1_555
O4 Sr1 2.759508 1_555
O5 Ru0 1.998013 1_665
O5 Ru1 1.998013 1_555
O5 Sr0 2.759508 1_554
O5 Sr1 2.759508 1_554
O5 Sr0 2.759508 1_565
O5 Sr1 2.759508 1_655
