# generated using pymatgen
data_Nd6Al7Si5N3O25
_symmetry_space_group_name_H-M   'P 1'
_cell_length_a   8.01854000
_cell_length_b   8.02283521
_cell_length_c   9.92885876
_cell_angle_alpha   89.13376553
_cell_angle_beta   89.41244714
_cell_angle_gamma   60.67263414
_symmetry_Int_Tables_number   1
_chemical_formula_structural   Nd6Al7Si5N3O25
_chemical_formula_sum   'Nd6 Al7 Si5 N3 O25'
_cell_volume   556.80748299
_cell_formula_units_Z   1
loop_
 _symmetry_equiv_pos_site_id
 _symmetry_equiv_pos_as_xyz
  1  'x, y, z'
loop_
 _atom_site_type_symbol
 _atom_site_label
 _atom_site_symmetry_multiplicity
 _atom_site_fract_x
 _atom_site_fract_y
 _atom_site_fract_z
 _atom_site_occupancy
  Nd  Nd0  1  0.59437100  0.40559700  0.99985200  1
  Nd  Nd1  1  0.58887100  0.41158300  0.50181600  1
  Nd  Nd2  1  0.41550300  0.98556900  0.99049900  1
  Nd  Nd3  1  0.41516300  0.99889200  0.49921100  1
  Nd  Nd4  1  0.00090500  0.58779500  0.99220600  1
  Nd  Nd5  1  0.00940600  0.58945000  0.50591300  1
  Al  Al0  1  0.24726800  0.75326300  0.24937300  1
  Al  Al1  1  0.99842000  0.00679300  0.00399800  1
  Al  Al2  1  0.99229700  0.00144000  0.50005100  1
  Al  Al3  1  0.76414500  0.00082200  0.74672200  1
  Al  Al4  1  0.76726300  0.03442300  0.23032500  1
  Al  Al5  1  0.99714500  0.23592500  0.75331500  1
  Al  Al6  1  0.98867200  0.24649500  0.25689400  1
  Si  Si0  1  0.33151400  0.33581700  0.73076700  1
  Si  Si1  1  0.32993600  0.32939900  0.22894200  1
  Si  Si2  1  0.67240100  0.67303400  0.26958200  1
  Si  Si3  1  0.66266300  0.66900400  0.76822200  1
  Si  Si4  1  0.26131700  0.73965000  0.74911900  1
  N  N0  1  0.30497500  0.53856800  0.65816600  1
  N  N1  1  0.45915300  0.70216800  0.84078900  1
  N  N2  1  0.84802300  0.20293300  0.13642600  1
  O  O0  1  0.09215200  0.78590000  0.86596100  1
  O  O1  1  0.09473500  0.77997000  0.38366400  1
  O  O2  1  0.31630400  0.52709900  0.16480100  1
  O  O3  1  0.78436900  0.13371800  0.87738600  1
  O  O4  1  0.76984700  0.13141100  0.39222800  1
  O  O5  1  0.33184100  0.32889900  0.89625300  1
  O  O6  1  0.33647300  0.32556600  0.39318600  1
  O  O7  1  0.52846600  0.15129400  0.66724400  1
  O  O8  1  0.51977700  0.15444300  0.15752700  1
  O  O9  1  0.16196000  0.29847800  0.66379600  1
  O  O10  1  0.14366900  0.32291600  0.16706400  1
  O  O11  1  0.89801000  0.87185500  0.60832000  1
  O  O12  1  0.91591300  0.85240000  0.10949300  1
  O  O13  1  0.70782900  0.83271300  0.83651000  1
  O  O14  1  0.68464100  0.85541300  0.33012600  1
  O  O15  1  0.12353100  0.10750800  0.89575900  1
  O  O16  1  0.13006700  0.09442800  0.39138300  1
  O  O17  1  0.21388800  0.90994200  0.63128400  1
  O  O18  1  0.22832400  0.90319500  0.11525900  1
  O  O19  1  0.66850200  0.67081300  0.60266600  1
  O  O20  1  0.67736000  0.65842300  0.10560300  1
  O  O21  1  0.47227500  0.69046700  0.33641000  1
  O  O22  1  0.84383500  0.46941800  0.83194000  1
  O  O23  1  0.84221000  0.47690300  0.34422700  1
  O  O24  1  0.86461100  0.21820900  0.61972600  1
loop_
_geom_bond_atom_site_label_1
_geom_bond_atom_site_label_2
_geom_bond_distance
_geom_bond_site_symmetry_2
Nd0 O3 2.311769 1_555
Nd0 O2 2.539335 1_556
Nd0 O20 2.657179 1_556
Nd0 O5 2.683401 1_555
Nd0 O8 2.816878 1_556
Nd0 O22 2.819948 1_555
Nd1 O4 2.277832 1_555
Nd1 O24 2.303050 1_555
Nd1 O21 2.539404 1_555
Nd1 O19 2.666970 1_555
Nd1 O6 2.677877 1_555
Nd1 O23 2.793266 1_555
Nd1 O7 2.857283 1_555
Nd2 O15 2.257602 1_565
Nd2 O18 2.265543 1_556
Nd2 O8 2.547761 1_566
Nd2 O13 2.550153 1_555
Nd2 O5 2.652855 1_565
Nd2 O20 2.676489 1_556
Nd3 O16 2.295357 1_565
Nd3 O17 2.426972 1_555
Nd3 O7 2.506957 1_565
Nd3 O14 2.521919 1_555
Nd3 O6 2.585620 1_565
Nd3 O19 2.614007 1_555
Nd3 O9 2.799983 1_565
Nd3 O21 2.818000 1_555
Nd4 O12 2.228997 1_456
Nd4 O0 2.385941 1_555
Nd4 O22 2.505769 1_455
Nd4 O10 2.527204 1_556
Nd4 O20 2.615100 1_456
Nd4 O5 2.621502 1_555
Nd4 O13 2.689353 1_455
Nd4 O2 2.902945 1_556
Nd5 O11 2.243567 1_455
Nd5 O1 2.286733 1_555
Nd5 O23 2.542380 1_455
Nd5 O9 2.556284 1_555
Nd5 O19 2.652998 1_455
Nd5 O6 2.680537 1_555
Nd5 O14 2.986331 1_455
Al0 O18 1.737779 1_555
Al0 O1 1.743036 1_555
Al0 O2 1.832063 1_555
Al0 O21 1.839631 1_555
Al1 O15 1.886792 1_654
Al1 O12 1.954089 1_545
Al1 O18 1.955167 1_645
Al1 N2 1.957159 1_555
Al1 O3 1.963831 1_554
Al1 O0 2.081219 1_644
Al2 O11 1.878182 1_545
Al2 O4 1.896964 1_555
Al2 O16 1.923443 1_655
Al2 O24 1.943690 1_555
Al2 O1 1.944243 1_645
Al2 O17 2.033384 1_645
Al3 O11 1.742378 1_545
Al3 O3 1.749772 1_555
Al3 O13 1.835674 1_545
Al3 O7 1.848882 1_555
Al4 O4 1.801191 1_555
Al4 O12 1.819667 1_545
Al4 O8 1.877304 1_555
Al4 N2 1.980755 1_555
Al4 O14 2.087813 1_545
Al5 O15 1.746795 1_655
Al5 O24 1.758258 1_555
Al5 O22 1.843496 1_555
Al5 O9 1.844058 1_655
Al6 O16 1.784308 1_655
Al6 N2 1.803101 1_555
Al6 O10 1.850210 1_655
Al6 O23 1.857181 1_555
N0 Si0 1.685068 1_555
N0 Si4 1.739244 1_555
N0 Nd1 2.516625 1_555
N0 Nd5 2.678805 1_555
N1 Si3 1.676074 1_555
N1 Si4 1.728991 1_555
N1 Nd0 2.593342 1_555
N1 Nd2 2.610288 1_555
N2 Nd0 2.317250 1_554
O0 Si4 1.676662 1_555
O2 Si1 1.653581 1_555
O5 Si0 1.643171 1_555
O6 Si1 1.631476 1_555
O7 Si0 1.673624 1_555
O8 Si1 1.644715 1_555
O9 Si0 1.674477 1_555
O10 Si1 1.645254 1_555
O13 Si3 1.677454 1_555
O14 Si2 1.637199 1_555
O17 Si4 1.682806 1_555
O19 Si3 1.644016 1_555
O20 Si2 1.632785 1_555
O21 Si2 1.672141 1_555
O22 Si3 1.668581 1_555
O23 Si2 1.663095 1_555
