# generated using pymatgen
data_Li7VN4
_symmetry_space_group_name_H-M   'P 1'
_cell_length_a   9.49942669
_cell_length_b   9.49942669
_cell_length_c   9.49942669
_cell_angle_alpha   90.00000000
_cell_angle_beta   90.00000000
_cell_angle_gamma   90.00000000
_symmetry_Int_Tables_number   1
_chemical_formula_structural   Li7VN4
_chemical_formula_sum   'Li56 V8 N32'
_cell_volume   857.21978568
_cell_formula_units_Z   8
loop_
 _symmetry_equiv_pos_site_id
 _symmetry_equiv_pos_as_xyz
  1  'x, y, z'
loop_
 _atom_site_type_symbol
 _atom_site_label
 _atom_site_symmetry_multiplicity
 _atom_site_fract_x
 _atom_site_fract_y
 _atom_site_fract_z
 _atom_site_occupancy
  Li  Li0  1  0.86395789  0.38047651  0.39602203  1
  Li  Li1  1  0.36395789  0.11952349  0.60397797  1
  Li  Li2  1  0.13604211  0.88047651  0.10397797  1
  Li  Li3  1  0.11952349  0.60397797  0.36395789  1
  Li  Li4  1  0.10397797  0.13604211  0.88047651  1
  Li  Li5  1  0.60397797  0.36395789  0.11952349  1
  Li  Li6  1  0.38047651  0.39602203  0.86395789  1
  Li  Li7  1  0.39602203  0.86395789  0.38047651  1
  Li  Li8  1  0.88047651  0.10397797  0.13604211  1
  Li  Li9  1  0.61952349  0.89602203  0.63604211  1
  Li  Li10  1  0.89602203  0.63604211  0.61952349  1
  Li  Li11  1  0.63604211  0.61952349  0.89602203  1
  Li  Li12  1  0.13604211  0.61952349  0.60397797  1
  Li  Li13  1  0.63604211  0.88047651  0.39602203  1
  Li  Li14  1  0.86395789  0.11952349  0.89602203  1
  Li  Li15  1  0.88047651  0.39602203  0.63604211  1
  Li  Li16  1  0.89602203  0.86395789  0.11952349  1
  Li  Li17  1  0.39602203  0.63604211  0.88047651  1
  Li  Li18  1  0.61952349  0.60397797  0.13604211  1
  Li  Li19  1  0.60397797  0.13604211  0.61952349  1
  Li  Li20  1  0.11952349  0.89602203  0.86395789  1
  Li  Li21  1  0.38047651  0.10397797  0.36395789  1
  Li  Li22  1  0.10397797  0.36395789  0.38047651  1
  Li  Li23  1  0.86897710  0.63031664  0.11607938  1
  Li  Li24  1  0.36395789  0.38047651  0.10397797  1
  Li  Li25  1  0.13031664  0.11607938  0.63102290  1
  Li  Li26  1  0.36968336  0.88392062  0.13102290  1
  Li  Li27  1  0.11607938  0.63102290  0.13031664  1
  Li  Li28  1  0.13102290  0.36968336  0.88392062  1
  Li  Li29  1  0.63102290  0.13031664  0.11607938  1
  Li  Li30  1  0.38392062  0.36897710  0.63031664  1
  Li  Li31  1  0.36897710  0.63031664  0.38392062  1
  Li  Li32  1  0.88392062  0.13102290  0.36968336  1
  Li  Li33  1  0.61607938  0.86897710  0.86968336  1
  Li  Li34  1  0.86897710  0.86968336  0.61607938  1
  Li  Li35  1  0.86968336  0.61607938  0.86897710  1
  Li  Li36  1  0.36968336  0.61607938  0.63102290  1
  Li  Li37  1  0.86968336  0.88392062  0.36897710  1
  Li  Li38  1  0.63031664  0.11607938  0.86897710  1
  Li  Li39  1  0.88392062  0.36897710  0.86968336  1
  Li  Li40  1  0.13259564  0.13259564  0.13259564  1
  Li  Li41  1  0.36740436  0.86740436  0.63259564  1
  Li  Li42  1  0.63259564  0.36740436  0.86740436  1
  Li  Li43  1  0.86740436  0.63259564  0.36740436  1
  Li  Li44  1  0.86740436  0.86740436  0.86740436  1
  Li  Li45  1  0.63259564  0.13259564  0.36740436  1
  Li  Li46  1  0.36740436  0.63259564  0.13259564  1
  Li  Li47  1  0.13259564  0.36740436  0.63259564  1
  Li  Li48  1  0.13031664  0.38392062  0.13102290  1
  Li  Li49  1  0.13102290  0.13031664  0.38392062  1
  Li  Li50  1  0.38392062  0.13102290  0.13031664  1
  Li  Li51  1  0.11607938  0.86897710  0.63031664  1
  Li  Li52  1  0.63102290  0.36968336  0.61607938  1
  Li  Li53  1  0.61607938  0.63102290  0.36968336  1
  Li  Li54  1  0.36897710  0.86968336  0.88392062  1
  Li  Li55  1  0.63031664  0.38392062  0.36897710  1
  V  V0  1  0.37028406  0.12971594  0.87028406  1
  V  V1  1  0.12971594  0.87028406  0.37028406  1
  V  V2  1  0.87028406  0.37028406  0.12971594  1
  V  V3  1  0.62971594  0.62971594  0.62971594  1
  V  V4  1  0.62971594  0.87028406  0.12971594  1
  V  V5  1  0.87028406  0.12971594  0.62971594  1
  V  V6  1  0.12971594  0.62971594  0.87028406  1
  V  V7  1  0.37028406  0.37028406  0.37028406  1
  N  N0  1  0.98571309  0.25910306  0.02163065  1
  N  N1  1  0.48571309  0.24089694  0.97836935  1
  N  N2  1  0.01428691  0.75910306  0.47836935  1
  N  N3  1  0.24089694  0.97836935  0.48571309  1
  N  N4  1  0.47836935  0.01428691  0.75910306  1
  N  N5  1  0.97836935  0.48571309  0.24089694  1
  N  N6  1  0.25910306  0.02163065  0.98571309  1
  N  N7  1  0.02163065  0.98571309  0.25910306  1
  N  N8  1  0.75910306  0.47836935  0.01428691  1
  N  N9  1  0.74089694  0.52163065  0.51428691  1
  N  N10  1  0.52163065  0.51428691  0.74089694  1
  N  N11  1  0.51428691  0.74089694  0.52163065  1
  N  N12  1  0.01428691  0.74089694  0.97836935  1
  N  N13  1  0.51428691  0.75910306  0.02163065  1
  N  N14  1  0.98571309  0.24089694  0.52163065  1
  N  N15  1  0.75910306  0.02163065  0.51428691  1
  N  N16  1  0.52163065  0.98571309  0.24089694  1
  N  N17  1  0.02163065  0.51428691  0.75910306  1
  N  N18  1  0.74089694  0.97836935  0.01428691  1
  N  N19  1  0.97836935  0.01428691  0.74089694  1
  N  N20  1  0.24089694  0.52163065  0.98571309  1
  N  N21  1  0.25910306  0.47836935  0.48571309  1
  N  N22  1  0.47836935  0.48571309  0.25910306  1
  N  N23  1  0.48571309  0.25910306  0.47836935  1
  N  N24  1  0.26008511  0.23991489  0.76008511  1
  N  N25  1  0.23991489  0.76008511  0.26008511  1
  N  N26  1  0.76008511  0.26008511  0.23991489  1
  N  N27  1  0.73991489  0.73991489  0.73991489  1
  N  N28  1  0.73991489  0.76008511  0.23991489  1
  N  N29  1  0.76008511  0.23991489  0.73991489  1
  N  N30  1  0.23991489  0.73991489  0.76008511  1
  N  N31  1  0.26008511  0.26008511  0.26008511  1
loop_
_geom_bond_atom_site_label_1
_geom_bond_atom_site_label_2
_geom_bond_distance
_geom_bond_site_symmetry_2
Li0 N5 2.086168 1_555
Li0 N9 2.103969 1_555
Li0 N26 2.116755 1_555
Li0 N14 2.125926 1_555
Li1 N4 2.086168 1_555
Li1 N3 2.103969 1_545
Li1 N24 2.116755 1_555
Li1 N23 2.125926 1_555
Li2 N7 2.086168 1_555
Li2 N6 2.103969 1_564
Li2 N25 2.116755 1_555
Li2 N12 2.125926 1_554
Li3 N2 2.086168 1_555
Li3 N5 2.103969 1_455
Li3 N25 2.116755 1_555
Li3 N21 2.125926 1_555
Li4 N6 2.086168 1_555
Li4 N0 2.103969 1_456
Li4 N24 2.116755 1_555
Li4 N19 2.125926 1_455
Li5 N8 2.086168 1_555
Li5 N1 2.103969 1_554
Li5 N26 2.116755 1_555
Li5 N22 2.125926 1_555
Li6 N1 2.086168 1_555
Li6 N10 2.103969 1_555
Li6 N24 2.116755 1_555
Li6 N20 2.125926 1_555
Li7 N3 2.086168 1_555
Li7 N11 2.103969 1_555
Li7 N25 2.116755 1_555
Li7 N16 2.125926 1_555
Li8 N0 2.086168 1_555
Li8 N7 2.103969 1_645
Li8 N26 2.116755 1_555
Li8 N18 2.125926 1_545
Li9 N11 2.086168 1_555
Li9 N4 2.103969 1_565
Li9 N27 2.116755 1_555
Li9 N15 2.125926 1_565
Li10 N9 2.086168 1_555
Li10 N2 2.103969 1_655
Li10 N27 2.116755 1_555
Li10 N17 2.125926 1_655
Li11 N10 2.086168 1_555
Li11 N8 2.103969 1_556
Li11 N27 2.116755 1_555
Li11 N13 2.125926 1_556
Li12 N17 2.086168 1_555
Li12 N21 2.103969 1_555
Li12 N30 2.116755 1_555
Li12 N2 2.125926 1_555
Li13 N16 2.086168 1_555
Li13 N15 2.103969 1_565
Li13 N28 2.116755 1_555
Li13 N11 2.125926 1_555
Li14 N19 2.086168 1_555
Li14 N18 2.103969 1_546
Li14 N29 2.116755 1_555
Li14 N0 2.125926 1_556
Li15 N14 2.086168 1_555
Li15 N17 2.103969 1_655
Li15 N29 2.116755 1_555
Li15 N9 2.125926 1_555
Li16 N18 2.086168 1_555
Li16 N12 2.103969 1_654
Li16 N28 2.116755 1_555
Li16 N7 2.125926 1_655
Li17 N20 2.086168 1_555
Li17 N13 2.103969 1_556
Li17 N30 2.116755 1_555
Li17 N10 2.125926 1_555
Li18 N13 2.086168 1_555
Li18 N22 2.103969 1_555
Li18 N28 2.116755 1_555
Li18 N8 2.125926 1_555
Li19 N15 2.086168 1_555
Li19 N23 2.103969 1_555
Li19 N29 2.116755 1_555
Li19 N4 2.125926 1_555
Li20 N12 2.086168 1_555
Li20 N19 2.103969 1_465
Li20 N30 2.116755 1_555
Li20 N6 2.125926 1_565
Li21 N23 2.086168 1_555
Li21 N16 2.103969 1_545
Li21 N31 2.116755 1_555
Li21 N3 2.125926 1_545
Li22 N21 2.086168 1_555
Li22 N14 2.103969 1_455
Li22 N31 2.116755 1_555
Li22 N5 2.125926 1_455
Li23 N8 2.026787 1_555
Li23 N5 2.091088 1_555
Li23 N28 2.099183 1_555
Li23 N12 2.172588 1_654
Li24 N22 2.086168 1_555
Li24 N20 2.103969 1_554
Li24 N31 2.116755 1_555
Li24 N1 2.125926 1_554
Li25 N19 2.026787 1_455
Li25 N14 2.091088 1_455
Li25 N24 2.099183 1_555
Li25 N3 2.172588 1_545
Li26 N16 2.026787 1_555
Li26 N13 2.091088 1_555
Li26 N25 2.099183 1_555
Li26 N6 2.172588 1_564
Li27 N12 2.026787 1_554
Li27 N20 2.091088 1_554
Li27 N25 2.099183 1_555
Li27 N5 2.172588 1_455
Li28 N20 2.026787 1_555
Li28 N17 2.091088 1_555
Li28 N24 2.099183 1_555
Li28 N0 2.172588 1_456
Li29 N18 2.026787 1_545
Li29 N16 2.091088 1_545
Li29 N26 2.099183 1_555
Li29 N1 2.172588 1_554
Li30 N23 2.026787 1_555
Li30 N21 2.091088 1_555
Li30 N24 2.099183 1_555
Li30 N10 2.172588 1_555
Li31 N21 2.026787 1_555
Li31 N22 2.091088 1_555
Li31 N25 2.099183 1_555
Li31 N11 2.172588 1_555
Li32 N14 2.026787 1_555
Li32 N15 2.091088 1_555
Li32 N26 2.099183 1_555
Li32 N7 2.172588 1_645
Li33 N13 2.026787 1_556
Li33 N18 2.091088 1_556
Li33 N27 2.099183 1_555
Li33 N4 2.172588 1_565
Li34 N15 2.026787 1_565
Li34 N19 2.091088 1_565
Li34 N27 2.099183 1_555
Li34 N2 2.172588 1_655
Li35 N17 2.026787 1_655
Li35 N12 2.091088 1_655
Li35 N27 2.099183 1_555
Li35 N8 2.172588 1_556
Li36 N10 2.026787 1_555
Li36 N11 2.091088 1_555
Li36 N30 2.099183 1_555
Li36 N21 2.172588 1_555
Li37 N7 2.026787 1_655
Li37 N2 2.091088 1_655
Li37 N28 2.099183 1_555
Li37 N15 2.172588 1_565
Li38 N4 2.026787 1_555
Li38 N1 2.091088 1_555
Li38 N29 2.099183 1_555
Li38 N18 2.172588 1_546
Li39 N0 2.026787 1_556
Li39 N8 2.091088 1_556
Li39 N29 2.099183 1_555
Li39 N17 2.172588 1_655
Li40 N31 2.097647 1_555
Li40 N7 2.121838 1_545
Li40 N6 2.121838 1_554
Li40 N0 2.121838 1_455
Li41 N30 2.097647 1_555
Li41 N3 2.121838 1_555
Li41 N11 2.121838 1_555
Li41 N4 2.121838 1_565
Li42 N29 2.097647 1_555
Li42 N1 2.121838 1_555
Li42 N10 2.121838 1_555
Li42 N8 2.121838 1_556
Li43 N28 2.097647 1_555
Li43 N5 2.121838 1_555
Li43 N9 2.121838 1_555
Li43 N2 2.121838 1_655
Li44 N27 2.097647 1_555
Li44 N18 2.121838 1_556
Li44 N12 2.121838 1_655
Li44 N19 2.121838 1_565
Li45 N26 2.097647 1_555
Li45 N15 2.121838 1_555
Li45 N23 2.121838 1_555
Li45 N16 2.121838 1_545
Li46 N25 2.097647 1_555
Li46 N13 2.121838 1_555
Li46 N20 2.121838 1_554
Li46 N22 2.121838 1_555
Li47 N24 2.097647 1_555
Li47 N21 2.121838 1_555
Li47 N14 2.121838 1_455
Li47 N17 2.121838 1_555
Li48 N5 2.026787 1_455
Li48 N0 2.091088 1_455
Li48 N31 2.099183 1_555
Li48 N20 2.172588 1_554
Li49 N3 2.026787 1_545
Li49 N7 2.091088 1_545
Li49 N31 2.099183 1_555
Li49 N14 2.172588 1_455
Li50 N1 2.026787 1_554
Li50 N6 2.091088 1_554
Li50 N31 2.099183 1_555
Li50 N16 2.172588 1_545
Li51 N2 2.026787 1_555
Li51 N3 2.091088 1_555
Li51 N30 2.099183 1_555
Li51 N19 2.172588 1_465
Li52 N9 2.026787 1_555
Li52 N10 2.091088 1_555
Li52 N29 2.099183 1_555
Li52 N23 2.172588 1_555
Li53 N11 2.026787 1_555
Li53 N9 2.091088 1_555
Li53 N28 2.099183 1_555
Li53 N22 2.172588 1_555
Li54 N6 2.026787 1_565
Li54 N4 2.091088 1_565
Li54 N30 2.099183 1_555
Li54 N13 2.172588 1_556
Li55 N22 2.026787 1_555
Li55 N23 2.091088 1_555
Li55 N26 2.099183 1_555
Li55 N9 2.172588 1_555
N0 V2 1.836303 1_555
N1 V0 1.836303 1_555
N2 V1 1.836303 1_555
N3 V1 1.836303 1_555
N4 V0 1.836303 1_555
N5 V2 1.836303 1_555
N6 V0 1.836303 1_555
N7 V1 1.836303 1_555
N8 V2 1.836303 1_555
N9 V3 1.836303 1_555
N10 V3 1.836303 1_555
N11 V3 1.836303 1_555
N12 V6 1.836303 1_555
N13 V4 1.836303 1_555
N14 V5 1.836303 1_555
N15 V5 1.836303 1_555
N16 V4 1.836303 1_555
N17 V6 1.836303 1_555
N18 V4 1.836303 1_555
N19 V5 1.836303 1_555
N20 V6 1.836303 1_555
N21 V7 1.836303 1_555
N22 V7 1.836303 1_555
N23 V7 1.836303 1_555
N24 V0 1.813157 1_555
N25 V1 1.813157 1_555
N26 V2 1.813157 1_555
N27 V3 1.813157 1_555
N28 V4 1.813157 1_555
N29 V5 1.813157 1_555
N30 V6 1.813157 1_555
N31 V7 1.813157 1_555
