# generated using pymatgen
data_CeGeAu
_symmetry_space_group_name_H-M   'P 1'
_cell_length_a   4.37270946
_cell_length_b   4.37270996
_cell_length_c   8.10798612
_cell_angle_alpha   90.00000000
_cell_angle_beta   90.00000000
_cell_angle_gamma   120.00000332
_symmetry_Int_Tables_number   1
_chemical_formula_structural   CeGeAu
_chemical_formula_sum   'Ce2 Ge2 Au2'
_cell_volume   134.25946364
_cell_formula_units_Z   2
loop_
 _symmetry_equiv_pos_site_id
 _symmetry_equiv_pos_as_xyz
  1  'x, y, z'
loop_
 _atom_site_type_symbol
 _atom_site_label
 _atom_site_symmetry_multiplicity
 _atom_site_fract_x
 _atom_site_fract_y
 _atom_site_fract_z
 _atom_site_occupancy
  Ce  Ce0  1  0.00000000  0.00000000  0.50304681  1
  Ce  Ce1  1  0.00000000  0.00000000  0.00304681  1
  Ge  Ge0  1  0.33333300  0.66666700  0.72918972  1
  Ge  Ge1  1  0.66666700  0.33333300  0.22918972  1
  Au  Au0  1  0.66666700  0.33333300  0.77096347  1
  Au  Au1  1  0.33333300  0.66666700  0.27096347  1
loop_
_geom_bond_atom_site_label_1
_geom_bond_atom_site_label_2
_geom_bond_distance
_geom_bond_site_symmetry_2
Ce0 Ge0 3.120172 1_545
Ce0 Ge0 3.120175 1_445
Ce0 Ge0 3.120175 1_555
Ce0 Ge1 3.362116 1_455
Ce0 Ge1 3.362119 1_555
Ce0 Ge1 3.362119 1_445
Ce1 Ge1 3.120172 1_455
Ce1 Ge1 3.120175 1_555
Ce1 Ge1 3.120175 1_445
Ce1 Ge0 3.362116 1_544
Ce1 Ge0 3.362119 1_444
Ce1 Ge0 3.362119 1_554
Au0 Ge0 2.547201 1_655
Au0 Ge0 2.547202 1_545
Au0 Ge0 2.547209 1_555
Au0 Ce1 3.148717 1_656
Au0 Ce1 3.148720 1_556
Au0 Ce1 3.148720 1_666
Au0 Ce0 3.330503 1_655
Au0 Ce0 3.330506 1_555
Au0 Ce0 3.330506 1_665
Au1 Ge1 2.547201 1_455
Au1 Ge1 2.547202 1_565
Au1 Ge1 2.547209 1_555
Au1 Ce0 3.148717 1_565
Au1 Ce0 3.148720 1_665
Au1 Ce0 3.148720 1_555
Au1 Ce1 3.330503 1_565
Au1 Ce1 3.330506 1_665
Au1 Ce1 3.330506 1_555
