# generated using pymatgen
data_NaDy3Ti2(SbO7)2
_symmetry_space_group_name_H-M   'P 1'
_cell_length_a   7.29054000
_cell_length_b   7.30736600
_cell_length_c   12.60025845
_cell_angle_alpha   54.95194304
_cell_angle_beta   90.00000000
_cell_angle_gamma   90.00000000
_symmetry_Int_Tables_number   1
_chemical_formula_structural   NaDy3Ti2(SbO7)2
_chemical_formula_sum   'Na2 Dy6 Ti4 Sb4 O28'
_cell_volume   549.55256696
_cell_formula_units_Z   2
loop_
 _symmetry_equiv_pos_site_id
 _symmetry_equiv_pos_as_xyz
  1  'x, y, z'
loop_
 _atom_site_type_symbol
 _atom_site_label
 _atom_site_symmetry_multiplicity
 _atom_site_fract_x
 _atom_site_fract_y
 _atom_site_fract_z
 _atom_site_occupancy
  Na  Na0  1  0.00000000  0.50000000  0.50000000  1
  Na  Na1  1  0.00000000  0.50000000  0.00000000  1
  Dy  Dy0  1  0.22669200  0.00000000  0.75000000  1
  Dy  Dy1  1  0.24582300  0.50000000  0.75000000  1
  Dy  Dy2  1  0.77330800  0.00000000  0.25000000  1
  Dy  Dy3  1  0.50000000  0.50000000  0.50000000  1
  Dy  Dy4  1  0.75417700  0.50000000  0.25000000  1
  Dy  Dy5  1  0.50000000  0.50000000  0.00000000  1
  Ti  Ti0  1  0.26301100  0.00000000  0.25000000  1
  Ti  Ti1  1  0.50000000  0.00000000  0.00000000  1
  Ti  Ti2  1  0.73698900  0.00000000  0.75000000  1
  Ti  Ti3  1  0.50000000  0.00000000  0.50000000  1
  Sb  Sb0  1  0.25461200  0.50000000  0.25000000  1
  Sb  Sb1  1  0.00000000  0.00000000  0.50000000  1
  Sb  Sb2  1  0.74538800  0.50000000  0.75000000  1
  Sb  Sb3  1  0.00000000  0.00000000  0.00000000  1
  O  O0  1  0.26355800  0.63480400  0.86726200  1
  O  O1  1  0.04844500  0.05680300  0.13320400  1
  O  O2  1  0.26976900  0.67635500  0.32414000  1
  O  O3  1  0.73644200  0.63480400  0.36726200  1
  O  O4  1  0.04270200  0.66892900  0.12938300  1
  O  O5  1  0.55352500  0.07591200  0.62122200  1
  O  O6  1  0.04270200  0.33107100  0.37061700  1
  O  O7  1  0.95155500  0.05680300  0.63320400  1
  O  O8  1  0.74937700  0.07800000  0.42111700  1
  O  O9  1  0.73023100  0.67635500  0.82414000  1
  O  O10  1  0.25062300  0.92200000  0.57888300  1
  O  O11  1  0.54316100  0.67443900  0.62265500  1
  O  O12  1  0.04844500  0.94319700  0.36679600  1
  O  O13  1  0.95729800  0.66892900  0.62938300  1
  O  O14  1  0.95729800  0.33107100  0.87061700  1
  O  O15  1  0.44647500  0.07591200  0.12122200  1
  O  O16  1  0.54316100  0.32556100  0.87734500  1
  O  O17  1  0.25062300  0.07800000  0.92111700  1
  O  O18  1  0.73023100  0.32364500  0.67586000  1
  O  O19  1  0.26355800  0.36519600  0.63273800  1
  O  O20  1  0.74937700  0.92200000  0.07888300  1
  O  O21  1  0.95155500  0.94319700  0.86679600  1
  O  O22  1  0.55352500  0.92408800  0.87877800  1
  O  O23  1  0.45683900  0.67443900  0.12265500  1
  O  O24  1  0.45683900  0.32556100  0.37734500  1
  O  O25  1  0.73644200  0.36519600  0.13273800  1
  O  O26  1  0.26976900  0.32364500  0.17586000  1
  O  O27  1  0.44647500  0.92408800  0.37877800  1
loop_
_geom_bond_atom_site_label_1
_geom_bond_atom_site_label_2
_geom_bond_distance
_geom_bond_site_symmetry_2
Na0 O19 2.359565 1_555
Na0 O3 2.359565 1_455
Na0 O6 2.567062 1_555
Na0 O13 2.567062 1_455
Na0 O2 2.675685 1_555
Na0 O18 2.675685 1_455
Na0 O12 2.680915 1_555
Na0 O7 2.680915 1_455
Na1 O0 2.359565 1_554
Na1 O25 2.359565 1_455
Na1 O4 2.567062 1_555
Na1 O14 2.567062 1_454
Na1 O9 2.675685 1_454
Na1 O26 2.675685 1_555
Na1 O1 2.680915 1_555
Na1 O21 2.680915 1_454
Dy0 O19 2.201878 1_555
Dy0 O0 2.201878 1_545
Dy0 O7 2.379099 1_455
Dy0 O21 2.379099 1_445
Dy0 O17 2.532907 1_555
Dy0 O10 2.532907 1_545
Dy0 O22 2.754006 1_545
Dy0 O5 2.754006 1_555
Dy1 O0 2.200409 1_555
Dy1 O19 2.200409 1_555
Dy1 O13 2.470547 1_455
Dy1 O14 2.470547 1_455
Dy1 O17 2.554008 1_555
Dy1 O10 2.554008 1_555
Dy1 O16 2.559207 1_555
Dy1 O11 2.559207 1_555
Dy2 O25 2.201878 1_555
Dy2 O3 2.201878 1_545
Dy2 O1 2.379099 1_655
Dy2 O12 2.379099 1_645
Dy2 O8 2.532907 1_555
Dy2 O20 2.532907 1_545
Dy2 O27 2.754006 1_545
Dy2 O15 2.754006 1_555
Dy3 O3 2.201570 1_555
Dy3 O19 2.201570 1_555
Dy3 O2 2.471544 1_555
Dy3 O18 2.471544 1_555
Dy3 O11 2.524873 1_555
Dy3 O24 2.524873 1_555
Dy3 O27 2.579227 1_555
Dy3 O5 2.579227 1_555
Dy4 O3 2.200409 1_555
Dy4 O25 2.200409 1_555
Dy4 O6 2.470547 1_655
Dy4 O4 2.470547 1_655
Dy4 O8 2.554008 1_555
Dy4 O20 2.554008 1_555
Dy4 O24 2.559207 1_555
Dy4 O23 2.559207 1_555
Dy5 O25 2.201570 1_555
Dy5 O0 2.201570 1_554
Dy5 O9 2.471544 1_554
Dy5 O26 2.471544 1_555
Dy5 O23 2.524873 1_555
Dy5 O16 2.524873 1_554
Dy5 O22 2.579227 1_554
Dy5 O15 2.579227 1_555
O1 Sb3 1.978440 1_555
O1 Ti0 2.020774 1_555
O2 Sb0 1.981997 1_555
O2 Ti0 1.982633 1_565
O4 Sb0 2.016362 1_555
O4 Sb3 2.019322 1_565
O5 Ti2 1.922475 1_555
O5 Ti3 1.940660 1_555
O6 Sb0 2.016362 1_555
O6 Sb1 2.019322 1_555
O7 Sb1 1.978440 1_655
O7 Ti2 2.020774 1_555
O8 Ti3 1.991882 1_555
O8 Sb1 2.000177 1_655
O9 Sb2 1.981997 1_555
O9 Ti2 1.982633 1_565
O10 Ti3 1.991882 1_565
O10 Sb1 2.000177 1_565
O11 Ti3 1.981000 1_565
O11 Sb2 2.006009 1_555
O12 Sb1 1.978440 1_565
O12 Ti0 2.020774 1_565
O13 Sb2 2.016362 1_555
O13 Sb1 2.019322 1_665
O14 Sb2 2.016362 1_555
O14 Sb3 2.019322 1_656
O15 Ti0 1.922475 1_555
O15 Ti1 1.940660 1_555
O16 Ti1 1.981000 1_556
O16 Sb2 2.006009 1_555
O17 Ti1 1.991882 1_556
O17 Sb3 2.000177 1_556
O18 Sb2 1.981997 1_555
O18 Ti2 1.982633 1_555
O20 Ti1 1.991882 1_565
O20 Sb3 2.000177 1_665
O21 Sb3 1.978440 1_666
O21 Ti2 2.020774 1_565
O22 Ti2 1.922475 1_565
O22 Ti1 1.940660 1_566
O23 Ti1 1.981000 1_565
O23 Sb0 2.006009 1_555
O24 Ti3 1.981000 1_555
O24 Sb0 2.006009 1_555
O26 Sb0 1.981997 1_555
O26 Ti0 1.982633 1_555
O27 Ti0 1.922475 1_565
O27 Ti3 1.940660 1_565
