# generated using pymatgen
data_CeAl5Ni2
_symmetry_space_group_name_H-M   'P 1'
_cell_length_a   7.95252204
_cell_length_b   12.47229882
_cell_length_c   12.47229992
_cell_angle_alpha   68.31905395
_cell_angle_beta   71.40918187
_cell_angle_gamma   71.40919179
_symmetry_Int_Tables_number   1
_chemical_formula_structural   CeAl5Ni2
_chemical_formula_sum   'Ce8 Al40 Ni16'
_cell_volume   1060.81895133
_cell_formula_units_Z   8
loop_
 _symmetry_equiv_pos_site_id
 _symmetry_equiv_pos_as_xyz
  1  'x, y, z'
loop_
 _atom_site_type_symbol
 _atom_site_label
 _atom_site_symmetry_multiplicity
 _atom_site_fract_x
 _atom_site_fract_y
 _atom_site_fract_z
 _atom_site_occupancy
  Ce  Ce0_0  1  0.00000000  0.00000000  0.00000000  1
  Ce  Ce0_1  1  0.00000000  0.00000000  0.50000000  1
  Ce  Ce0_2  1  0.00000000  0.50000000  0.00000000  1
  Ce  Ce0_3  1  0.00000000  0.50000000  0.50000000  1
  Ce  Ce0_4  1  0.50000000  0.00000000  0.00000000  1
  Ce  Ce0_5  1  0.50000000  0.00000000  0.50000000  1
  Ce  Ce0_6  1  0.50000000  0.50000000  0.00000000  1
  Ce  Ce0_7  1  0.50000000  0.50000000  0.50000000  1
  Al  Al0_0  1  0.00000000  0.25000000  0.25000000  1
  Al  Al0_1  1  0.00000000  0.25000000  0.75000000  1
  Al  Al0_2  1  0.00000000  0.75000000  0.25000000  1
  Al  Al0_3  1  0.00000000  0.75000000  0.75000000  1
  Al  Al0_4  1  0.50000000  0.25000000  0.25000000  1
  Al  Al0_5  1  0.50000000  0.25000000  0.75000000  1
  Al  Al0_6  1  0.50000000  0.75000000  0.25000000  1
  Al  Al0_7  1  0.50000000  0.75000000  0.75000000  1
  Al  Al1_0  1  0.32948999  0.07587858  0.26514195  1
  Al  Al1_1  1  0.32948999  0.07587857  0.76514195  1
  Al  Al1_2  1  0.32948999  0.57587857  0.26514195  1
  Al  Al1_3  1  0.32948999  0.57587857  0.76514195  1
  Al  Al1_4  1  0.82948999  0.07587857  0.26514195  1
  Al  Al1_5  1  0.82948999  0.07587857  0.76514195  1
  Al  Al1_6  1  0.82948999  0.57587857  0.26514195  1
  Al  Al1_7  1  0.82948999  0.57587857  0.76514195  1
  Al  Al2_0  1  0.17051001  0.42412142  0.23485805  1
  Al  Al2_1  1  0.17051001  0.42412142  0.73485805  1
  Al  Al2_2  1  0.17051001  0.92412143  0.23485805  1
  Al  Al2_3  1  0.17051001  0.92412142  0.73485805  1
  Al  Al2_4  1  0.67051001  0.42412143  0.23485805  1
  Al  Al2_5  1  0.67051001  0.42412142  0.73485805  1
  Al  Al2_6  1  0.67051001  0.92412143  0.23485805  1
  Al  Al2_7  1  0.67051001  0.92412143  0.73485805  1
  Al  Al3_0  1  0.17051001  0.23485805  0.42412143  1
  Al  Al3_1  1  0.17051001  0.23485805  0.92412143  1
  Al  Al3_2  1  0.17051001  0.73485805  0.42412143  1
  Al  Al3_3  1  0.17051001  0.73485805  0.92412143  1
  Al  Al3_4  1  0.67051001  0.23485805  0.42412143  1
  Al  Al3_5  1  0.67051001  0.23485805  0.92412143  1
  Al  Al3_6  1  0.67051001  0.73485805  0.42412143  1
  Al  Al3_7  1  0.67051001  0.73485805  0.92412143  1
  Al  Al4_0  1  0.32948999  0.26514195  0.07587858  1
  Al  Al4_1  1  0.32948999  0.26514195  0.57587857  1
  Al  Al4_2  1  0.32948999  0.76514195  0.07587857  1
  Al  Al4_3  1  0.32948999  0.76514195  0.57587857  1
  Al  Al4_4  1  0.82948999  0.26514195  0.07587858  1
  Al  Al4_5  1  0.82948999  0.26514195  0.57587857  1
  Al  Al4_6  1  0.82948999  0.76514195  0.07587858  1
  Al  Al4_7  1  0.82948999  0.76514195  0.57587857  1
  Ni  Ni0_0  1  0.38058418  0.36941582  0.36941583  1
  Ni  Ni0_1  1  0.38058418  0.36941582  0.86941583  1
  Ni  Ni0_2  1  0.38058418  0.86941583  0.36941582  1
  Ni  Ni0_3  1  0.38058418  0.86941582  0.86941583  1
  Ni  Ni0_4  1  0.88058418  0.36941583  0.36941583  1
  Ni  Ni0_5  1  0.88058418  0.36941583  0.86941583  1
  Ni  Ni0_6  1  0.88058418  0.86941582  0.36941583  1
  Ni  Ni0_7  1  0.88058418  0.86941582  0.86941583  1
  Ni  Ni1_0  1  0.11941583  0.13058418  0.13058417  1
  Ni  Ni1_1  1  0.11941583  0.13058417  0.63058417  1
  Ni  Ni1_2  1  0.11941583  0.63058417  0.13058417  1
  Ni  Ni1_3  1  0.11941583  0.63058417  0.63058417  1
  Ni  Ni1_4  1  0.61941583  0.13058418  0.13058417  1
  Ni  Ni1_5  1  0.61941583  0.13058418  0.63058417  1
  Ni  Ni1_6  1  0.61941583  0.63058417  0.13058417  1
  Ni  Ni1_7  1  0.61941583  0.63058417  0.63058417  1
loop_
_geom_bond_atom_site_label_1
_geom_bond_atom_site_label_2
_geom_bond_distance
_geom_bond_site_symmetry_2
Ce0_0 Ni0_7 3.184245 1_444
Ce0_0 Ni1_0 3.184245 1_555
Ce0_0 Ni1_4 3.184245 1_455
Ce0_0 Ni0_3 3.184245 1_544
Ce0_0 Ce0_4 3.976261 1_455
Ce0_0 Ce0_4 3.976261 1_555
Ce0_1 Ni0_6 3.184245 1_445
Ce0_1 Ni1_1 3.184245 1_555
Ce0_1 Ni1_5 3.184245 1_455
Ce0_1 Ni0_2 3.184245 1_545
Ce0_1 Ce0_5 3.976261 1_455
Ce0_1 Ce0_5 3.976261 1_555
Ce0_2 Ni0_5 3.184245 1_454
Ce0_2 Ni1_2 3.184245 1_555
Ce0_2 Ni1_6 3.184245 1_455
Ce0_2 Ni0_1 3.184245 1_554
Ce0_2 Ce0_6 3.976261 1_455
Ce0_2 Ce0_6 3.976261 1_555
Ce0_3 Ni0_4 3.184245 1_455
Ce0_3 Ni1_3 3.184245 1_555
Ce0_3 Ni1_7 3.184245 1_455
Ce0_3 Ni0_0 3.184245 1_555
Ce0_3 Ce0_7 3.976261 1_455
Ce0_3 Ce0_7 3.976261 1_555
Ce0_4 Ni1_4 3.184245 1_555
Ce0_4 Ni0_3 3.184245 1_544
Ce0_4 Ni0_7 3.184245 1_544
Ce0_4 Ni1_0 3.184245 1_555
Ce0_5 Ni0_2 3.184245 1_545
Ce0_5 Ni1_5 3.184245 1_555
Ce0_5 Ni1_1 3.184245 1_555
Ce0_5 Ni0_6 3.184245 1_545
Ce0_6 Ni1_6 3.184245 1_555
Ce0_6 Ni0_1 3.184245 1_554
Ce0_6 Ni1_2 3.184245 1_555
Ce0_6 Ni0_5 3.184245 1_554
Ce0_7 Ni0_0 3.184245 1_555
Ce0_7 Ni1_7 3.184245 1_555
Ce0_7 Ni0_4 3.184245 1_555
Ce0_7 Ni1_3 3.184245 1_555
Al0_0 Ni1_0 2.274588 1_555
Al0_0 Ni0_4 2.274588 1_455
Al0_0 Al2_0 2.828769 1_555
Al0_0 Al1_4 2.828769 1_455
Al0_0 Al4_4 2.828769 1_455
Al0_0 Al3_0 2.828769 1_555
Al0_0 Al3_4 2.828772 1_455
Al0_0 Al4_0 2.828772 1_555
Al0_0 Al1_0 2.828772 1_555
Al0_0 Al2_4 2.828772 1_455
Al0_0 Ce0_2 3.501592 1_555
Al0_0 Ce0_1 3.501592 1_555
Al0_1 Ni0_5 2.274588 1_455
Al0_1 Ni1_1 2.274588 1_555
Al0_1 Al2_1 2.828769 1_555
Al0_1 Al1_5 2.828769 1_455
Al0_1 Al3_1 2.828769 1_555
Al0_1 Al4_5 2.828769 1_455
Al0_1 Al3_5 2.828772 1_455
Al0_1 Al4_1 2.828772 1_555
Al0_1 Al2_5 2.828772 1_455
Al0_1 Al1_1 2.828772 1_555
Al0_1 Ce0_0 3.501592 1_556
Al0_1 Ce0_3 3.501592 1_555
Al0_2 Ni1_2 2.274588 1_555
Al0_2 Ni0_6 2.274588 1_455
Al0_2 Al1_6 2.828769 1_455
Al0_2 Al2_2 2.828769 1_555
Al0_2 Al4_6 2.828769 1_455
Al0_2 Al3_2 2.828769 1_555
Al0_2 Al3_6 2.828772 1_455
Al0_2 Al4_2 2.828772 1_555
Al0_2 Al1_2 2.828772 1_555
Al0_2 Al2_6 2.828772 1_455
Al0_2 Ce0_3 3.501592 1_555
Al0_2 Ce0_0 3.501592 1_565
Al0_3 Ni1_3 2.274588 1_555
Al0_3 Ni0_7 2.274588 1_455
Al0_3 Al1_7 2.828769 1_455
Al0_3 Al2_3 2.828769 1_555
Al0_3 Al3_3 2.828769 1_555
Al0_3 Al4_7 2.828769 1_455
Al0_3 Al4_3 2.828772 1_555
Al0_3 Al3_7 2.828772 1_455
Al0_3 Al1_3 2.828772 1_555
Al0_3 Al2_7 2.828772 1_455
Al0_3 Ce0_2 3.501592 1_556
Al0_3 Ce0_1 3.501592 1_565
Al0_4 Ni0_0 2.274588 1_555
Al0_4 Ni1_4 2.274588 1_555
Al0_4 Al2_4 2.828769 1_555
Al0_4 Al1_0 2.828769 1_555
Al0_4 Al3_4 2.828769 1_555
Al0_4 Al4_0 2.828769 1_555
Al0_4 Al3_0 2.828772 1_555
Al0_4 Al4_4 2.828772 1_555
Al0_4 Al1_4 2.828772 1_555
Al0_4 Al2_0 2.828772 1_555
Al0_4 Ce0_5 3.501592 1_555
Al0_4 Ce0_6 3.501592 1_555
Al0_5 Ni1_5 2.274588 1_555
Al0_5 Ni0_1 2.274588 1_555
Al0_5 Al2_5 2.828769 1_555
Al0_5 Al1_1 2.828769 1_555
Al0_5 Al4_1 2.828769 1_555
Al0_5 Al3_5 2.828769 1_555
Al0_5 Al4_5 2.828772 1_555
Al0_5 Al3_1 2.828772 1_555
Al0_5 Al2_1 2.828772 1_555
Al0_5 Al1_5 2.828772 1_555
Al0_5 Ce0_7 3.501592 1_555
Al0_5 Ce0_4 3.501592 1_556
Al0_6 Ni1_6 2.274588 1_555
Al0_6 Ni0_2 2.274588 1_555
Al0_6 Al2_6 2.828769 1_555
Al0_6 Al1_2 2.828769 1_555
Al0_6 Al3_6 2.828769 1_555
Al0_6 Al4_2 2.828769 1_555
Al0_6 Al4_6 2.828772 1_555
Al0_6 Al3_2 2.828772 1_555
Al0_6 Al1_6 2.828772 1_555
Al0_6 Al2_2 2.828772 1_555
Al0_6 Ce0_7 3.501592 1_555
Al0_6 Ce0_4 3.501592 1_565
Al0_7 Ni0_3 2.274588 1_555
Al0_7 Ni1_7 2.274588 1_555
Al0_7 Al2_7 2.828769 1_555
Al0_7 Al1_3 2.828769 1_555
Al0_7 Al3_7 2.828769 1_555
Al0_7 Al4_3 2.828769 1_555
Al0_7 Al4_7 2.828772 1_555
Al0_7 Al3_3 2.828772 1_555
Al0_7 Al1_7 2.828772 1_555
Al0_7 Al2_3 2.828772 1_555
Al0_7 Ce0_6 3.501592 1_556
Al0_7 Ce0_5 3.501592 1_565
Al1_0 Ni0_2 2.383859 1_545
Al1_0 Ni1_4 2.507552 1_555
Al1_0 Ni1_0 2.507556 1_555
Al1_0 Al4_0 2.650892 1_555
Al1_0 Al2_6 2.771667 1_545
Al1_0 Al2_2 2.771673 1_545
Al1_0 Al3_0 3.028182 1_555
Al1_0 Ce0_5 3.313720 1_555
Al1_0 Ce0_1 3.313722 1_555
Al1_0 Ce0_4 3.507865 1_555
Al1_1 Ni0_3 2.383859 1_545
Al1_1 Ni1_5 2.507552 1_555
Al1_1 Ni1_1 2.507556 1_555
Al1_1 Al4_1 2.650892 1_555
Al1_1 Al2_7 2.771667 1_545
Al1_1 Al2_3 2.771673 1_545
Al1_1 Al3_1 3.028182 1_555
Al1_1 Ce0_4 3.313720 1_556
Al1_1 Ce0_0 3.313722 1_556
Al1_1 Ce0_5 3.507865 1_555
Al1_2 Ni0_0 2.383859 1_555
Al1_2 Ni1_6 2.507552 1_555
Al1_2 Ni1_2 2.507556 1_555
Al1_2 Al4_2 2.650892 1_555
Al1_2 Al2_4 2.771667 1_555
Al1_2 Al2_0 2.771673 1_555
Al1_2 Al3_2 3.028182 1_555
Al1_2 Ce0_7 3.313720 1_555
Al1_2 Ce0_3 3.313722 1_555
Al1_2 Ce0_6 3.507865 1_555
Al1_3 Ni0_1 2.383859 1_555
Al1_3 Ni1_7 2.507552 1_555
Al1_3 Ni1_3 2.507556 1_555
Al1_3 Al4_3 2.650892 1_555
Al1_3 Al2_5 2.771667 1_555
Al1_3 Al2_1 2.771673 1_555
Al1_3 Al3_3 3.028182 1_555
Al1_3 Ce0_6 3.313720 1_556
Al1_3 Ce0_2 3.313722 1_556
Al1_3 Ce0_7 3.507865 1_555
Al1_4 Ni0_6 2.383859 1_545
Al1_4 Ni1_0 2.507552 1_655
Al1_4 Ni1_4 2.507556 1_555
Al1_4 Al4_4 2.650892 1_555
Al1_4 Al2_2 2.771667 1_645
Al1_4 Al2_6 2.771673 1_545
Al1_4 Al3_4 3.028182 1_555
Al1_4 Ce0_1 3.313720 1_655
Al1_4 Ce0_5 3.313722 1_555
Al1_4 Ce0_0 3.507865 1_655
Al1_5 Ni0_7 2.383859 1_545
Al1_5 Ni1_1 2.507552 1_655
Al1_5 Ni1_5 2.507556 1_555
Al1_5 Al4_5 2.650892 1_555
Al1_5 Al2_3 2.771667 1_645
Al1_5 Al2_7 2.771673 1_545
Al1_5 Al3_5 3.028182 1_555
Al1_5 Ce0_0 3.313720 1_656
Al1_5 Ce0_4 3.313722 1_556
Al1_5 Ce0_1 3.507865 1_655
Al1_6 Ni0_4 2.383859 1_555
Al1_6 Ni1_2 2.507552 1_655
Al1_6 Ni1_6 2.507556 1_555
Al1_6 Al4_6 2.650892 1_555
Al1_6 Al2_0 2.771667 1_655
Al1_6 Al2_4 2.771673 1_555
Al1_6 Al3_6 3.028182 1_555
Al1_6 Ce0_3 3.313720 1_655
Al1_6 Ce0_7 3.313722 1_555
Al1_6 Ce0_2 3.507865 1_655
Al1_7 Ni0_5 2.383859 1_555
Al1_7 Ni1_3 2.507552 1_655
Al1_7 Ni1_7 2.507556 1_555
Al1_7 Al4_7 2.650892 1_555
Al1_7 Al2_1 2.771667 1_655
Al1_7 Al2_5 2.771673 1_555
Al1_7 Al3_7 3.028182 1_555
Al1_7 Ce0_2 3.313720 1_656
Al1_7 Ce0_6 3.313722 1_556
Al1_7 Ce0_3 3.507865 1_655
Al2_0 Ni1_2 2.383859 1_555
Al2_0 Ni0_4 2.507552 1_455
Al2_0 Ni0_0 2.507556 1_555
Al2_0 Al3_0 2.650892 1_555
Al2_0 Al4_0 3.028182 1_555
Al2_0 Ce0_2 3.313720 1_555
Al2_0 Ce0_6 3.313722 1_555
Al2_0 Ce0_3 3.507865 1_555
Al2_1 Ni1_3 2.383859 1_555
Al2_1 Ni0_5 2.507552 1_455
Al2_1 Ni0_1 2.507556 1_555
Al2_1 Al3_1 2.650892 1_555
Al2_1 Al4_1 3.028182 1_555
Al2_1 Ce0_3 3.313720 1_555
Al2_1 Ce0_7 3.313722 1_555
Al2_1 Ce0_2 3.507865 1_556
Al2_2 Ni1_0 2.383859 1_565
Al2_2 Ni0_6 2.507552 1_455
Al2_2 Ni0_2 2.507556 1_555
Al2_2 Al3_2 2.650892 1_555
Al2_2 Al4_2 3.028182 1_555
Al2_2 Ce0_0 3.313720 1_565
Al2_2 Ce0_4 3.313722 1_565
Al2_2 Ce0_1 3.507865 1_565
Al2_3 Ni1_1 2.383859 1_565
Al2_3 Ni0_7 2.507552 1_455
Al2_3 Ni0_3 2.507556 1_555
Al2_3 Al3_3 2.650892 1_555
Al2_3 Al4_3 3.028182 1_555
Al2_3 Ce0_1 3.313720 1_565
Al2_3 Ce0_5 3.313722 1_565
Al2_3 Ce0_0 3.507865 1_566
Al2_4 Ni1_6 2.383859 1_555
Al2_4 Ni0_0 2.507552 1_555
Al2_4 Ni0_4 2.507556 1_555
Al2_4 Al3_4 2.650892 1_555
Al2_4 Al4_4 3.028182 1_555
Al2_4 Ce0_6 3.313720 1_555
Al2_4 Ce0_2 3.313722 1_655
Al2_4 Ce0_7 3.507865 1_555
Al2_5 Ni1_7 2.383859 1_555
Al2_5 Ni0_1 2.507552 1_555
Al2_5 Ni0_5 2.507556 1_555
Al2_5 Al3_5 2.650892 1_555
Al2_5 Al4_5 3.028182 1_555
Al2_5 Ce0_7 3.313720 1_555
Al2_5 Ce0_3 3.313722 1_655
Al2_5 Ce0_6 3.507865 1_556
Al2_6 Ni1_4 2.383859 1_565
Al2_6 Ni0_2 2.507552 1_555
Al2_6 Ni0_6 2.507556 1_555
Al2_6 Al3_6 2.650892 1_555
Al2_6 Al4_6 3.028182 1_555
Al2_6 Ce0_4 3.313720 1_565
Al2_6 Ce0_0 3.313722 1_665
Al2_6 Ce0_5 3.507865 1_565
Al2_7 Ni1_5 2.383859 1_565
Al2_7 Ni0_3 2.507552 1_555
Al2_7 Ni0_7 2.507556 1_555
Al2_7 Al3_7 2.650892 1_555
Al2_7 Al4_7 3.028182 1_555
Al2_7 Ce0_5 3.313720 1_565
Al2_7 Ce0_1 3.313722 1_665
Al2_7 Ce0_4 3.507865 1_566
Al3_0 Ni1_1 2.383859 1_555
Al3_0 Ni0_4 2.507552 1_455
Al3_0 Ni0_0 2.507555 1_555
Al3_0 Al4_5 2.771667 1_455
Al3_0 Al4_1 2.771673 1_555
Al3_0 Ce0_1 3.313719 1_555
Al3_0 Ce0_5 3.313722 1_555
Al3_0 Ce0_3 3.507865 1_555
Al3_1 Ni1_0 2.383859 1_556
Al3_1 Ni0_5 2.507552 1_455
Al3_1 Ni0_1 2.507555 1_555
Al3_1 Al4_4 2.771667 1_456
Al3_1 Al4_0 2.771673 1_556
Al3_1 Ce0_0 3.313719 1_556
Al3_1 Ce0_4 3.313722 1_556
Al3_1 Ce0_2 3.507865 1_556
Al3_2 Ni1_3 2.383859 1_555
Al3_2 Ni0_6 2.507552 1_455
Al3_2 Ni0_2 2.507555 1_555
Al3_2 Al4_7 2.771667 1_455
Al3_2 Al4_3 2.771673 1_555
Al3_2 Ce0_3 3.313719 1_555
Al3_2 Ce0_7 3.313722 1_555
Al3_2 Ce0_1 3.507865 1_565
Al3_3 Ni1_2 2.383859 1_556
Al3_3 Ni0_7 2.507552 1_455
Al3_3 Ni0_3 2.507555 1_555
Al3_3 Al4_6 2.771667 1_456
Al3_3 Al4_2 2.771673 1_556
Al3_3 Ce0_2 3.313719 1_556
Al3_3 Ce0_6 3.313722 1_556
Al3_3 Ce0_0 3.507865 1_566
Al3_4 Ni1_5 2.383859 1_555
Al3_4 Ni0_0 2.507552 1_555
Al3_4 Ni0_4 2.507555 1_555
Al3_4 Al4_1 2.771667 1_555
Al3_4 Al4_5 2.771673 1_555
Al3_4 Ce0_5 3.313719 1_555
Al3_4 Ce0_1 3.313722 1_655
Al3_4 Ce0_7 3.507865 1_555
Al3_5 Ni1_4 2.383859 1_556
Al3_5 Ni0_1 2.507552 1_555
Al3_5 Ni0_5 2.507555 1_555
Al3_5 Al4_0 2.771667 1_556
Al3_5 Al4_4 2.771673 1_556
Al3_5 Ce0_4 3.313719 1_556
Al3_5 Ce0_0 3.313722 1_656
Al3_5 Ce0_6 3.507865 1_556
Al3_6 Ni1_7 2.383859 1_555
Al3_6 Ni0_2 2.507552 1_555
Al3_6 Ni0_6 2.507555 1_555
Al3_6 Al4_3 2.771667 1_555
Al3_6 Al4_7 2.771673 1_555
Al3_6 Ce0_7 3.313719 1_555
Al3_6 Ce0_3 3.313722 1_655
Al3_6 Ce0_5 3.507865 1_565
Al3_7 Ni1_6 2.383859 1_556
Al3_7 Ni0_3 2.507552 1_555
Al3_7 Ni0_7 2.507555 1_555
Al3_7 Al4_2 2.771667 1_556
Al3_7 Al4_6 2.771673 1_556
Al3_7 Ce0_6 3.313719 1_556
Al3_7 Ce0_2 3.313722 1_656
Al3_7 Ce0_4 3.507865 1_566
Al4_0 Ni0_1 2.383859 1_554
Al4_0 Ni1_4 2.507552 1_555
Al4_0 Ni1_0 2.507555 1_555
Al4_0 Ce0_6 3.313719 1_555
Al4_0 Ce0_2 3.313722 1_555
Al4_0 Ce0_4 3.507865 1_555
Al4_1 Ni0_0 2.383859 1_555
Al4_1 Ni1_5 2.507552 1_555
Al4_1 Ni1_1 2.507555 1_555
Al4_1 Ce0_7 3.313719 1_555
Al4_1 Ce0_3 3.313722 1_555
Al4_1 Ce0_5 3.507865 1_555
Al4_2 Ni0_3 2.383859 1_554
Al4_2 Ni1_6 2.507552 1_555
Al4_2 Ni1_2 2.507555 1_555
Al4_2 Ce0_4 3.313719 1_565
Al4_2 Ce0_0 3.313722 1_565
Al4_2 Ce0_6 3.507865 1_555
Al4_3 Ni0_2 2.383859 1_555
Al4_3 Ni1_7 2.507552 1_555
Al4_3 Ni1_3 2.507555 1_555
Al4_3 Ce0_5 3.313719 1_565
Al4_3 Ce0_1 3.313722 1_565
Al4_3 Ce0_7 3.507865 1_555
Al4_4 Ni0_5 2.383859 1_554
Al4_4 Ni1_0 2.507552 1_655
Al4_4 Ni1_4 2.507555 1_555
Al4_4 Ce0_2 3.313719 1_655
Al4_4 Ce0_6 3.313722 1_555
Al4_4 Ce0_0 3.507865 1_655
Al4_5 Ni0_4 2.383859 1_555
Al4_5 Ni1_1 2.507552 1_655
Al4_5 Ni1_5 2.507555 1_555
Al4_5 Ce0_3 3.313719 1_655
Al4_5 Ce0_7 3.313722 1_555
Al4_5 Ce0_1 3.507865 1_655
Al4_6 Ni0_7 2.383859 1_554
Al4_6 Ni1_2 2.507552 1_655
Al4_6 Ni1_6 2.507555 1_555
Al4_6 Ce0_0 3.313719 1_665
Al4_6 Ce0_4 3.313722 1_565
Al4_6 Ce0_2 3.507865 1_655
Al4_7 Ni0_6 2.383859 1_555
Al4_7 Ni1_3 2.507552 1_655
Al4_7 Ni1_7 2.507555 1_555
Al4_7 Ce0_1 3.313719 1_665
Al4_7 Ce0_5 3.313722 1_565
Al4_7 Ce0_3 3.507865 1_655
