# generated using pymatgen
data_LaNi4B
_symmetry_space_group_name_H-M   'P 1'
_cell_length_a   5.07482875
_cell_length_b   5.07483014
_cell_length_c   6.93005547
_cell_angle_alpha   90.00000000
_cell_angle_beta   90.00000000
_cell_angle_gamma   119.99999764
_symmetry_Int_Tables_number   1
_chemical_formula_structural   LaNi4B
_chemical_formula_sum   'La2 Ni8 B2'
_cell_volume   154.56467851
_cell_formula_units_Z   2
loop_
 _symmetry_equiv_pos_site_id
 _symmetry_equiv_pos_as_xyz
  1  'x, y, z'
loop_
 _atom_site_type_symbol
 _atom_site_label
 _atom_site_symmetry_multiplicity
 _atom_site_fract_x
 _atom_site_fract_y
 _atom_site_fract_z
 _atom_site_occupancy
  La  La0  1  0.00000000  -0.00000000  0.50000000  1
  La  La1  1  0.00000000  -0.00000000  0.00000000  1
  Ni  Ni0  1  0.33333300  0.66666700  0.00000000  1
  Ni  Ni1  1  0.66666700  0.33333300  0.00000000  1
  Ni  Ni2  1  0.50000000  -0.00000000  0.29410525  1
  Ni  Ni3  1  0.50000000  0.50000000  0.29410525  1
  Ni  Ni4  1  0.00000000  0.50000000  0.29410525  1
  Ni  Ni5  1  0.50000000  -0.00000000  0.70589475  1
  Ni  Ni6  1  0.50000000  0.50000000  0.70589475  1
  Ni  Ni7  1  0.00000000  0.50000000  0.70589475  1
  B  B0  1  0.66666700  0.33333300  0.50000000  1
  B  B1  1  0.33333300  0.66666700  0.50000000  1
loop_
_geom_bond_atom_site_label_1
_geom_bond_atom_site_label_2
_geom_bond_distance
_geom_bond_site_symmetry_2
La0 Ni5 2.911083 1_455
La0 Ni2 2.911083 1_455
La0 Ni5 2.911083 1_555
La0 Ni2 2.911083 1_555
La0 Ni3 2.911084 1_445
La0 Ni3 2.911084 1_555
La0 Ni6 2.911084 1_445
La0 Ni6 2.911084 1_555
La0 Ni4 2.911084 1_545
La0 Ni7 2.911084 1_545
La0 Ni7 2.911084 1_555
La0 Ni4 2.911084 1_555
La1 Ni1 2.929951 1_455
La1 Ni0 2.929951 1_545
La1 Ni0 2.929955 1_445
La1 Ni1 2.929955 1_555
La1 Ni1 2.929956 1_445
La1 Ni0 2.929956 1_555
Ni0 Ni7 2.510034 1_554
Ni0 Ni4 2.510034 1_555
Ni0 Ni2 2.510035 1_565
Ni0 Ni5 2.510035 1_564
Ni0 Ni6 2.510037 1_554
Ni0 Ni3 2.510037 1_555
Ni1 Ni7 2.510034 1_654
Ni1 Ni4 2.510034 1_655
Ni1 Ni2 2.510035 1_555
Ni1 Ni5 2.510035 1_554
Ni1 Ni6 2.510037 1_554
Ni1 Ni3 2.510037 1_555
B0 Ni4 2.045015 1_655
B0 Ni7 2.045015 1_655
B0 Ni2 2.045016 1_555
B0 Ni5 2.045016 1_555
B0 Ni3 2.045019 1_555
B0 Ni6 2.045019 1_555
B0 La0 2.929951 1_655
B0 La0 2.929955 1_555
B0 La0 2.929956 1_665
B1 Ni7 2.045015 1_555
B1 Ni4 2.045015 1_555
B1 Ni5 2.045016 1_565
B1 Ni2 2.045016 1_565
B1 Ni3 2.045019 1_555
B1 Ni6 2.045019 1_555
B1 La0 2.929951 1_565
B1 La0 2.929955 1_665
B1 La0 2.929956 1_555
