# generated using pymatgen
data_Ca4IrO6
_symmetry_space_group_name_H-M   'P 1'
_cell_length_a   6.61041680
_cell_length_b   6.61041680
_cell_length_c   6.61041733
_cell_angle_alpha   90.97744589
_cell_angle_beta   90.97744589
_cell_angle_gamma   90.97745266
_symmetry_Int_Tables_number   1
_chemical_formula_structural   Ca4IrO6
_chemical_formula_sum   'Ca8 Ir2 O12'
_cell_volume   288.73188891
_cell_formula_units_Z   2
loop_
 _symmetry_equiv_pos_site_id
 _symmetry_equiv_pos_as_xyz
  1  'x, y, z'
loop_
 _atom_site_type_symbol
 _atom_site_label
 _atom_site_symmetry_multiplicity
 _atom_site_fract_x
 _atom_site_fract_y
 _atom_site_fract_z
 _atom_site_occupancy
  Ca  Ca0  1  0.61032500  0.88967500  0.25000000  1
  Ca  Ca1  1  0.88967500  0.25000000  0.61032500  1
  Ca  Ca2  1  0.75000000  0.75000000  0.75000000  1
  Ca  Ca3  1  0.25000000  0.25000000  0.25000000  1
  Ca  Ca4  1  0.75000000  0.38967500  0.11032500  1
  Ca  Ca5  1  0.11032500  0.75000000  0.38967500  1
  Ca  Ca6  1  0.38967500  0.11032500  0.75000000  1
  Ca  Ca7  1  0.25000000  0.61032500  0.88967500  1
  Ir  Ir0  1  0.00000000  0.00000000  0.00000000  1
  Ir  Ir1  1  0.50000000  0.50000000  0.50000000  1
  O  O0  1  0.57129200  0.44502800  0.79656900  1
  O  O1  1  0.79656900  0.57129200  0.44502800  1
  O  O2  1  0.44502800  0.79656900  0.57129200  1
  O  O3  1  0.92870800  0.70343100  0.05497200  1
  O  O4  1  0.05497200  0.92870800  0.70343100  1
  O  O5  1  0.70343100  0.05497200  0.92870800  1
  O  O6  1  0.42870800  0.55497200  0.20343100  1
  O  O7  1  0.20343100  0.42870800  0.55497200  1
  O  O8  1  0.55497200  0.20343100  0.42870800  1
  O  O9  1  0.07129200  0.29656900  0.94502800  1
  O  O10  1  0.29656900  0.94502800  0.07129200  1
  O  O11  1  0.94502800  0.07129200  0.29656900  1
loop_
_geom_bond_atom_site_label_1
_geom_bond_atom_site_label_2
_geom_bond_distance
_geom_bond_site_symmetry_2
Ca0 O8 2.405868 1_565
Ca0 O10 2.405868 1_555
Ca0 O5 2.486851 1_564
Ca0 O2 2.486851 1_555
Ca0 O11 2.510960 1_565
Ca0 O6 2.510960 1_555
Ca0 O1 2.781036 1_555
Ca0 O3 2.781036 1_555
Ca1 O7 2.405868 1_655
Ca1 O11 2.405868 1_555
Ca1 O1 2.486851 1_555
Ca1 O4 2.486851 1_645
Ca1 O8 2.510960 1_555
Ca1 O9 2.510960 1_655
Ca1 O5 2.781036 1_555
Ca1 O0 2.781036 1_555
Ca2 O0 2.346672 1_555
Ca2 O4 2.346672 1_655
Ca2 O2 2.346672 1_555
Ca2 O5 2.346672 1_565
Ca2 O1 2.346672 1_555
Ca2 O3 2.346672 1_556
Ca3 O11 2.346672 1_455
Ca3 O6 2.346672 1_555
Ca3 O10 2.346672 1_545
Ca3 O8 2.346672 1_555
Ca3 O9 2.346672 1_554
Ca3 O7 2.346672 1_555
Ca4 O3 2.405868 1_555
Ca4 O0 2.405868 1_554
Ca4 O9 2.486851 1_654
Ca4 O6 2.486851 1_555
Ca4 O5 2.510960 1_554
Ca4 O1 2.510960 1_555
Ca4 O8 2.781036 1_555
Ca4 O11 2.781036 1_555
Ca5 O1 2.405868 1_455
Ca5 O4 2.405868 1_555
Ca5 O7 2.486851 1_555
Ca5 O11 2.486851 1_465
Ca5 O2 2.510960 1_555
Ca5 O3 2.510960 1_455
Ca5 O10 2.781036 1_555
Ca5 O6 2.781036 1_555
Ca6 O5 2.405868 1_555
Ca6 O2 2.405868 1_545
Ca6 O10 2.486851 1_546
Ca6 O8 2.486851 1_555
Ca6 O4 2.510960 1_545
Ca6 O0 2.510960 1_555
Ca6 O9 2.781036 1_555
Ca6 O7 2.781036 1_555
Ca7 O9 2.405868 1_555
Ca7 O6 2.405868 1_556
Ca7 O3 2.486851 1_456
Ca7 O0 2.486851 1_555
Ca7 O10 2.510960 1_556
Ca7 O7 2.510960 1_555
Ca7 O2 2.781036 1_555
Ca7 O4 2.781036 1_555
Ir0 O9 2.048442 1_554
Ir0 O3 2.048442 1_445
Ir0 O10 2.048442 1_545
Ir0 O5 2.048442 1_454
Ir0 O11 2.048443 1_455
Ir0 O4 2.048443 1_544
Ir1 O1 2.048442 1_555
Ir1 O7 2.048442 1_555
Ir1 O8 2.048442 1_555
Ir1 O2 2.048442 1_555
Ir1 O6 2.048443 1_555
Ir1 O0 2.048443 1_555
