# generated using pymatgen
data_RbZnF3
_symmetry_space_group_name_H-M   'P 1'
_cell_length_a   5.88797113
_cell_length_b   5.88797071
_cell_length_c   14.41410263
_cell_angle_alpha   90.00000098
_cell_angle_beta   89.99998830
_cell_angle_gamma   119.99944311
_symmetry_Int_Tables_number   1
_chemical_formula_structural   RbZnF3
_chemical_formula_sum   'Rb6 Zn6 F18'
_cell_volume   432.76486199
_cell_formula_units_Z   6
loop_
 _symmetry_equiv_pos_site_id
 _symmetry_equiv_pos_as_xyz
  1  'x, y, z'
loop_
 _atom_site_type_symbol
 _atom_site_label
 _atom_site_symmetry_multiplicity
 _atom_site_fract_x
 _atom_site_fract_y
 _atom_site_fract_z
 _atom_site_occupancy
  Rb  Rb0  1  0.33333310  0.66666697  0.40380587  1
  Rb  Rb1  1  0.66666697  0.33333316  0.90381810  1
  Rb  Rb2  1  0.66666685  0.33333306  0.59619327  1
  Rb  Rb3  1  0.33333316  0.66666686  0.09618182  1
  Rb  Rb4  1  -0.00000008  -0.00000009  0.75000642  1
  Rb  Rb5  1  0.00000020  -0.00000009  0.24999355  1
  Zn  Zn0  1  0.33333321  0.66666701  0.65349887  1
  Zn  Zn1  1  0.66666678  0.33333302  0.15353732  1
  Zn  Zn2  1  0.66666683  0.33333298  0.34650114  1
  Zn  Zn3  1  0.33333318  0.66666692  0.84646268  1
  Zn  Zn4  1  0.00000001  -0.00000003  0.50000007  1
  Zn  Zn5  1  -0.00000016  0.00000003  -0.00000000  1
  F  F0  1  0.83451019  0.16548993  0.42000396  1
  F  F1  1  0.83450989  0.66902032  0.42000386  1
  F  F2  1  0.33097992  0.16548992  0.42000386  1
  F  F3  1  0.66900019  0.83449964  0.91998871  1
  F  F4  1  0.16548990  0.33097980  0.57999605  1
  F  F5  1  0.16549958  0.83450038  0.91998861  1
  F  F6  1  0.16550050  0.33099996  0.91998871  1
  F  F7  1  0.83450050  0.16549926  0.08001128  1
  F  F8  1  0.33099974  0.16550049  0.08001135  1
  F  F9  1  0.66902000  0.83450986  0.57999605  1
  F  F10  1  0.16548988  0.83451046  0.57999601  1
  F  F11  1  0.83449968  0.66900022  0.08001135  1
  F  F12  1  0.51621746  0.03243394  0.25001847  1
  F  F13  1  0.48378203  0.51621804  0.74998155  1
  F  F14  1  0.03243447  0.51621718  0.74998158  1
  F  F15  1  0.96756546  0.48378270  0.25001848  1
  F  F16  1  0.51621776  0.48378186  0.25001847  1
  F  F17  1  0.48378280  0.96756623  0.74998154  1
loop_
_geom_bond_atom_site_label_1
_geom_bond_atom_site_label_2
_geom_bond_distance
_geom_bond_site_symmetry_2
F0 Zn2 2.013064 1_555
F0 Zn4 2.043997 1_655
F0 Rb0 2.953278 1_655
F0 Rb0 2.953279 1_545
F0 Rb5 2.975489 1_655
F0 Rb2 3.062606 1_555
F1 Zn2 2.013079 1_555
F1 Zn4 2.044009 1_665
F1 Rb0 2.953253 1_655
F1 Rb0 2.953255 1_555
F1 Rb5 2.975495 1_665
F1 Rb2 3.062618 1_555
F2 Zn2 2.013077 1_555
F2 Zn4 2.044010 1_555
F2 Rb0 2.953251 1_545
F2 Rb0 2.953256 1_555
F2 Rb5 2.975495 1_555
F2 Rb2 3.062617 1_555
F3 Zn3 2.013168 1_555
F3 Zn5 2.044216 1_666
F3 Rb1 2.953221 1_555
F3 Rb1 2.953223 1_565
F3 Rb4 2.975220 1_665
F3 Rb3 3.062604 1_556
F4 Zn0 2.013079 1_555
F4 Zn4 2.044008 1_555
F4 Rb2 2.953251 1_455
F4 Rb2 2.953255 1_555
F4 Rb4 2.975496 1_555
F4 Rb0 3.062626 1_555
F5 Zn3 2.013155 1_555
F5 Zn5 2.044204 1_566
F5 Rb1 2.953246 1_455
F5 Rb1 2.953247 1_565
F5 Rb4 2.975210 1_565
F5 Rb3 3.062598 1_556
F6 Zn3 2.013167 1_555
F6 Zn5 2.044217 1_556
F6 Rb1 2.953221 1_555
F6 Rb1 2.953223 1_455
F6 Rb4 2.975221 1_555
F6 Rb3 3.062604 1_556
F7 Zn1 2.013158 1_555
F7 Zn5 2.044199 1_655
F7 Rb3 2.953246 1_545
F7 Rb3 2.953248 1_655
F7 Rb5 2.975210 1_655
F7 Rb1 3.062598 1_554
F8 Zn1 2.013168 1_555
F8 Zn5 2.044218 1_555
F8 Rb3 2.953220 1_555
F8 Rb3 2.953224 1_545
F8 Rb5 2.975218 1_555
F8 Rb1 3.062606 1_554
F9 Zn0 2.013077 1_555
F9 Zn4 2.044008 1_665
F9 Rb2 2.953251 1_565
F9 Rb2 2.953254 1_555
F9 Rb4 2.975497 1_665
F9 Rb0 3.062626 1_555
F10 Zn0 2.013066 1_555
F10 Zn4 2.043994 1_565
F10 Rb2 2.953276 1_565
F10 Rb2 2.953279 1_455
F10 Rb4 2.975487 1_565
F10 Rb0 3.062617 1_555
F11 Zn1 2.013168 1_555
F11 Zn5 2.044217 1_665
F11 Rb3 2.953221 1_555
F11 Rb3 2.953223 1_655
F11 Rb5 2.975219 1_665
F11 Rb1 3.062606 1_554
F12 Zn1 2.070795 1_555
F12 Zn2 2.070810 1_555
F12 Rb0 2.896965 1_545
F12 Rb3 2.897509 1_545
F12 Rb5 2.948624 1_655
F12 Rb5 2.948630 1_555
F13 Zn3 2.070780 1_555
F13 Zn0 2.070796 1_555
F13 Rb2 2.896974 1_555
F13 Rb1 2.897507 1_555
F13 Rb4 2.948652 1_665
F13 Rb4 2.948653 1_555
F14 Zn3 2.070794 1_555
F14 Zn0 2.070809 1_555
F14 Rb2 2.896978 1_455
F14 Rb1 2.897508 1_455
F14 Rb4 2.948626 1_565
F14 Rb4 2.948629 1_555
F15 Zn1 2.070794 1_555
F15 Zn2 2.070808 1_555
F15 Rb0 2.896968 1_655
F15 Rb3 2.897511 1_655
F15 Rb5 2.948627 1_655
F15 Rb5 2.948628 1_665
F16 Zn1 2.070781 1_555
F16 Zn2 2.070796 1_555
F16 Rb0 2.896964 1_555
F16 Rb3 2.897507 1_555
F16 Rb5 2.948651 1_555
F16 Rb5 2.948654 1_665
F17 Zn3 2.070796 1_555
F17 Zn0 2.070811 1_555
F17 Rb2 2.896974 1_565
F17 Rb1 2.897507 1_565
F17 Rb4 2.948624 1_565
F17 Rb4 2.948631 1_665
