# generated using pymatgen
data_Ce(TeO3)2
_symmetry_space_group_name_H-M   'P 1'
_cell_length_a   11.16971293
_cell_length_b   7.06429296
_cell_length_c   8.48403901
_cell_angle_alpha   55.24738081
_cell_angle_beta   90.00000000
_cell_angle_gamma   90.00000000
_symmetry_Int_Tables_number   1
_chemical_formula_structural   Ce(TeO3)2
_chemical_formula_sum   'Ce4 Te8 O24'
_cell_volume   550.02804914
_cell_formula_units_Z   4
loop_
 _symmetry_equiv_pos_site_id
 _symmetry_equiv_pos_as_xyz
  1  'x, y, z'
loop_
 _atom_site_type_symbol
 _atom_site_label
 _atom_site_symmetry_multiplicity
 _atom_site_fract_x
 _atom_site_fract_y
 _atom_site_fract_z
 _atom_site_occupancy
  Ce  Ce0  1  0.40811254  0.25609327  0.50362834  1
  Ce  Ce1  1  0.90811254  0.74390673  0.99637166  1
  Ce  Ce2  1  0.59188746  0.74390673  0.49637166  1
  Ce  Ce3  1  0.09188746  0.25609327  0.00362834  1
  Te  Te0  1  0.07764612  0.27064930  0.46346501  1
  Te  Te1  1  0.57764612  0.72935070  0.03653499  1
  Te  Te2  1  0.92235388  0.72935070  0.53653499  1
  Te  Te3  1  0.42235388  0.27064930  0.96346501  1
  Te  Te4  1  0.22455119  0.80274497  0.93814828  1
  Te  Te5  1  0.72455119  0.19725503  0.56185172  1
  Te  Te6  1  0.77544881  0.19725503  0.06185172  1
  Te  Te7  1  0.27544881  0.80274497  0.43814828  1
  O  O0  1  0.22137317  0.43824606  0.38255491  1
  O  O1  1  0.72137317  0.56175394  0.11744509  1
  O  O2  1  0.77862683  0.56175394  0.61744509  1
  O  O3  1  0.27862683  0.43824606  0.88255491  1
  O  O4  1  0.40398199  0.14216827  0.82052449  1
  O  O5  1  0.90398199  0.85783173  0.67947551  1
  O  O6  1  0.59601801  0.85783173  0.17947551  1
  O  O7  1  0.09601801  0.14216827  0.32052449  1
  O  O8  1  0.47690881  0.47355950  0.20364369  1
  O  O9  1  0.97690881  0.52644050  0.29635631  1
  O  O10  1  0.52309119  0.52644050  0.79635631  1
  O  O11  1  0.02309119  0.47355950  0.70364369  1
  O  O12  1  0.25155551  0.97171183  0.17184692  1
  O  O13  1  0.75155551  0.02828817  0.32815308  1
  O  O14  1  0.74844449  0.02828817  0.82815308  1
  O  O15  1  0.24844449  0.97171183  0.67184692  1
  O  O16  1  0.40035904  0.99799662  0.41639821  1
  O  O17  1  0.90035904  0.00200338  0.08360179  1
  O  O18  1  0.59964096  0.00200338  0.58360179  1
  O  O19  1  0.09964096  0.99799662  0.91639821  1
  O  O20  1  0.40205098  0.61102478  0.45993463  1
  O  O21  1  0.90205098  0.38897522  0.04006537  1
  O  O22  1  0.59794902  0.38897522  0.54006537  1
  O  O23  1  0.09794902  0.61102478  0.95993463  1
loop_
_geom_bond_atom_site_label_1
_geom_bond_atom_site_label_2
_geom_bond_distance
_geom_bond_site_symmetry_2
Ce0 O8 2.229453 1_555
Ce0 O20 2.317131 1_555
Ce0 O4 2.326232 1_555
Ce0 O16 2.327627 1_545
Ce0 O0 2.356838 1_555
Ce0 O22 2.409100 1_555
Ce0 O15 2.446361 1_545
Ce0 O18 2.621159 1_555
Ce1 O9 2.229453 1_556
Ce1 O21 2.317131 1_556
Ce1 O5 2.326232 1_555
Ce1 O17 2.327627 1_566
Ce1 O1 2.356838 1_556
Ce1 O23 2.409100 1_655
Ce1 O14 2.446361 1_565
Ce1 O19 2.621159 1_655
Ce2 O10 2.229453 1_555
Ce2 O22 2.317131 1_555
Ce2 O6 2.326232 1_555
Ce2 O18 2.327627 1_565
Ce2 O2 2.356838 1_555
Ce2 O20 2.409100 1_555
Ce2 O13 2.446361 1_565
Ce2 O16 2.621159 1_555
Ce3 O11 2.229453 1_554
Ce3 O23 2.317131 1_554
Ce3 O7 2.326232 1_555
Ce3 O19 2.327627 1_544
Ce3 O3 2.356838 1_554
Ce3 O21 2.409100 1_455
Ce3 O12 2.446361 1_545
Ce3 O17 2.621159 1_455
O0 Te0 1.877145 1_555
O1 Te1 1.877145 1_555
O2 Te2 1.877145 1_555
O3 Te3 1.877145 1_555
O4 Te3 1.895108 1_555
O5 Te2 1.895108 1_555
O6 Te1 1.895108 1_555
O7 Te0 1.895108 1_555
O8 Te1 1.902791 1_555
O9 Te0 1.902791 1_655
O10 Te3 1.902791 1_555
O11 Te2 1.902791 1_455
O12 Te7 1.877751 1_555
O12 Te3 2.639762 1_564
O13 Te6 1.877751 1_555
O13 Te2 2.639762 1_545
O14 Te5 1.877751 1_555
O14 Te1 2.639762 1_546
O15 Te4 1.877751 1_555
O15 Te0 2.639762 1_565
O16 Te7 1.895521 1_555
O17 Te6 1.895521 1_555
O18 Te5 1.895521 1_555
O19 Te4 1.895521 1_555
O20 Te7 1.892824 1_555
O21 Te6 1.892824 1_555
O22 Te5 1.892824 1_555
O23 Te4 1.892824 1_555
