# generated using pymatgen
data_ErP5O14
_symmetry_space_group_name_H-M   'P 1'
_cell_length_a   9.01020879
_cell_length_b   9.01020931
_cell_length_c   12.31671509
_cell_angle_alpha   89.14717700
_cell_angle_beta   89.14717959
_cell_angle_gamma   89.55261702
_symmetry_Int_Tables_number   1
_chemical_formula_structural   ErP5O14
_chemical_formula_sum   'Er4 P20 O56'
_cell_volume   999.66826206
_cell_formula_units_Z   4
loop_
 _symmetry_equiv_pos_site_id
 _symmetry_equiv_pos_as_xyz
  1  'x, y, z'
loop_
 _atom_site_type_symbol
 _atom_site_label
 _atom_site_symmetry_multiplicity
 _atom_site_fract_x
 _atom_site_fract_y
 _atom_site_fract_z
 _atom_site_occupancy
  Er  Er0  1  0.48043388  0.51956612  0.25000000  1
  Er  Er1  1  0.51956612  0.48043388  0.75000000  1
  Er  Er2  1  0.03145742  0.96854258  0.25000000  1
  Er  Er3  1  0.96854258  0.03145742  0.75000000  1
  P  P0  1  0.32047516  0.38886927  -0.00174343  1
  P  P1  1  0.61113073  0.67952484  0.50174343  1
  P  P2  1  0.67952484  0.61113073  0.00174343  1
  P  P3  1  0.38886927  0.32047516  0.49825657  1
  P  P4  1  0.04681831  0.31825411  0.10901886  1
  P  P5  1  0.68174589  0.95318169  0.39098114  1
  P  P6  1  0.95318169  0.68174589  0.89098114  1
  P  P7  1  0.31825411  0.04681831  0.60901886  1
  P  P8  1  0.87564292  0.17475929  0.46645011  1
  P  P9  1  0.82524071  0.12435708  0.03354989  1
  P  P10  1  0.12435708  0.82524071  0.53354989  1
  P  P11  1  0.17475929  0.87564292  0.96645011  1
  P  P12  1  0.81807461  0.48148621  0.39735406  1
  P  P13  1  0.51851379  0.18192539  0.10264594  1
  P  P14  1  0.18192539  0.51851379  0.60264594  1
  P  P15  1  0.48148621  0.81807461  0.89735406  1
  P  P16  1  0.07694290  0.57320194  0.26006703  1
  P  P17  1  0.42679806  0.92305710  0.23993297  1
  P  P18  1  0.92305710  0.42679806  0.73993297  1
  P  P19  1  0.57320194  0.07694290  0.76006703  1
  O  O0  1  0.96517422  0.15584607  0.36604816  1
  O  O1  1  0.84415393  0.03482578  0.13395184  1
  O  O2  1  0.03482578  0.84415393  0.63395184  1
  O  O3  1  0.15584607  0.96517422  0.86604816  1
  O  O4  1  0.07342262  0.87472501  0.42670800  1
  O  O5  1  0.12527499  0.92657738  0.07329200  1
  O  O6  1  0.92657738  0.12527499  0.57329200  1
  O  O7  1  0.87472501  0.07342262  0.92670800  1
  O  O8  1  0.35790461  0.48839333  0.08776310  1
  O  O9  1  0.51160667  0.64209539  0.41223690  1
  O  O10  1  0.64209539  0.51160667  0.91223690  1
  O  O11  1  0.48839333  0.35790461  0.58776310  1
  O  O12  1  0.65004036  0.57228299  0.11542249  1
  O  O13  1  0.42771701  0.34995964  0.38457751  1
  O  O14  1  0.34995964  0.42771701  0.88457751  1
  O  O15  1  0.57228299  0.65004036  0.61542249  1
  O  O16  1  0.14639947  0.35243231  0.00660465  1
  O  O17  1  0.64756769  0.85360053  0.49339535  1
  O  O18  1  0.85360053  0.64756769  0.99339535  1
  O  O19  1  0.89382473  0.28805268  0.05603451  1
  O  O20  1  0.35243231  0.14639947  0.50660465  1
  O  O21  1  0.80001515  0.89371520  0.32191657  1
  O  O22  1  0.89371520  0.80001515  0.82191657  1
  O  O23  1  0.19998485  0.10628480  0.67808343  1
  O  O24  1  0.54106444  0.23240786  0.78548398  1
  O  O25  1  0.76759214  0.45893556  0.71451602  1
  O  O26  1  0.45893556  0.76759214  0.21451602  1
  O  O27  1  0.23240786  0.54106444  0.28548398  1
  O  O28  1  0.72318301  0.02609470  0.73021300  1
  O  O29  1  0.97390530  0.27681699  0.76978700  1
  O  O30  1  0.27681699  0.97390530  0.26978700  1
  O  O31  1  0.02609470  0.72318301  0.23021300  1
  O  O32  1  0.46914643  0.01780039  0.66491536  1
  O  O33  1  0.98219961  0.53085357  0.83508464  1
  O  O34  1  0.53085357  0.98219961  0.33508464  1
  O  O35  1  0.01780039  0.46914643  0.16491536  1
  O  O36  1  0.51071885  0.98235040  0.86359150  1
  O  O37  1  0.01764960  0.48928115  0.63640850  1
  O  O38  1  0.48928115  0.01764960  0.13640850  1
  O  O39  1  0.98235040  0.51071885  0.36359150  1
  O  O40  1  0.61092763  0.77575561  0.97511821  1
  O  O41  1  0.22424439  0.38907237  0.52488179  1
  O  O42  1  0.38907237  0.22424439  0.02488179  1
  O  O43  1  0.77575561  0.61092763  0.47511821  1
  O  O44  1  0.46171263  0.71776747  0.80730224  1
  O  O45  1  0.28223253  0.53828737  0.69269776  1
  O  O46  1  0.53828737  0.28223253  0.19269776  1
  O  O47  1  0.71776747  0.46171263  0.30730224  1
  O  O48  1  0.34601449  0.82878107  0.97749470  1
  O  O49  1  0.17121893  0.65398551  0.52250530  1
  O  O50  1  0.65398551  0.17121893  0.02250530  1
  O  O51  1  0.82878107  0.34601449  0.47749470  1
  O  O52  1  0.28805268  0.89382473  0.55603451  1
  O  O53  1  0.10617527  0.71194732  0.94396549  1
  O  O54  1  0.71194732  0.10617527  0.44396549  1
  O  O55  1  0.10628480  0.19998485  0.17808343  1
loop_
_geom_bond_atom_site_label_1
_geom_bond_atom_site_label_2
_geom_bond_distance
_geom_bond_site_symmetry_2
Er0 O27 2.278025 1_555
Er0 O26 2.278025 1_555
Er0 O12 2.284941 1_555
Er0 O13 2.284941 1_555
Er0 O47 2.315010 1_555
Er0 O46 2.315011 1_555
Er0 O8 2.319022 1_555
Er0 O9 2.319022 1_555
Er1 O25 2.278025 1_555
Er1 O24 2.278025 1_555
Er1 O14 2.284941 1_555
Er1 O15 2.284941 1_555
Er1 O45 2.315010 1_555
Er1 O44 2.315011 1_555
Er1 O10 2.319022 1_555
Er1 O11 2.319022 1_555
Er2 O30 2.228713 1_555
Er2 O31 2.228713 1_555
Er2 O1 2.297491 1_465
Er2 O0 2.297491 1_465
Er2 O21 2.353085 1_455
Er2 O55 2.353085 1_565
Er2 O4 2.357808 1_555
Er2 O5 2.357808 1_555
Er3 O28 2.228713 1_555
Er3 O29 2.228713 1_555
Er3 O3 2.297491 1_645
Er3 O2 2.297491 1_645
Er3 O23 2.353085 1_655
Er3 O22 2.353085 1_545
Er3 O6 2.357808 1_555
Er3 O7 2.357808 1_555
O0 P8 1.477655 1_555
O1 P9 1.477655 1_555
O2 P10 1.477655 1_555
O3 P11 1.477655 1_555
O4 P10 1.462337 1_555
O5 P11 1.462337 1_554
O6 P8 1.462337 1_555
O7 P9 1.462337 1_556
O8 P0 1.475950 1_555
O9 P1 1.475950 1_555
O10 P2 1.475950 1_556
O11 P3 1.475950 1_555
O12 P2 1.459216 1_555
O13 P3 1.459216 1_555
O14 P0 1.459216 1_556
O15 P1 1.459216 1_555
O16 P4 1.565278 1_555
O16 P0 1.606441 1_555
O17 P5 1.565278 1_555
O17 P1 1.606441 1_555
O18 P6 1.565278 1_555
O18 P2 1.606441 1_556
O19 P4 1.561450 1_655
O19 P9 1.632628 1_555
O20 P7 1.565278 1_555
O20 P3 1.606441 1_555
O21 P5 1.457370 1_555
O22 P6 1.457370 1_555
O23 P7 1.457370 1_555
O24 P19 1.465617 1_555
O25 P18 1.465617 1_555
O26 P17 1.465617 1_555
O27 P16 1.465617 1_555
O28 P19 1.466915 1_555
O29 P18 1.466915 1_555
O30 P17 1.466915 1_555
O31 P16 1.466915 1_555
O32 P7 1.551685 1_555
O32 P19 1.611078 1_555
O33 P6 1.551685 1_555
O33 P18 1.611078 1_555
O34 P5 1.551685 1_555
O34 P17 1.611078 1_555
O35 P4 1.551685 1_555
O35 P16 1.611078 1_555
O36 P15 1.554888 1_555
O36 P19 1.619559 1_565
O37 P14 1.554888 1_555
O37 P18 1.619559 1_455
O38 P13 1.554888 1_555
O38 P17 1.619559 1_545
O39 P12 1.554888 1_555
O39 P16 1.619559 1_655
O40 P15 1.561554 1_555
O40 P2 1.633091 1_556
O41 P14 1.561554 1_555
O41 P3 1.633091 1_555
O42 P13 1.561554 1_555
O42 P0 1.633091 1_555
O43 P12 1.561554 1_555
O43 P1 1.633091 1_555
O44 P15 1.454995 1_555
O45 P14 1.454995 1_555
O46 P13 1.454995 1_555
O47 P12 1.454995 1_555
O48 P15 1.561626 1_555
O48 P11 1.603789 1_555
O49 P14 1.561626 1_555
O49 P10 1.603789 1_555
O50 P13 1.561626 1_555
O50 P9 1.603789 1_555
O51 P12 1.561626 1_555
O51 P8 1.603789 1_555
O52 P7 1.561450 1_565
O52 P10 1.632628 1_555
O53 P6 1.561450 1_455
O53 P11 1.632628 1_555
O54 P5 1.561450 1_545
O54 P8 1.632628 1_555
O55 P4 1.457370 1_555
