# generated using pymatgen
data_Al7FeCu2
_symmetry_space_group_name_H-M   'P 1'
_cell_length_a   6.25899564
_cell_length_b   6.25899710
_cell_length_c   14.64083926
_cell_angle_alpha   89.99998916
_cell_angle_beta   89.99999578
_cell_angle_gamma   90.00003213
_symmetry_Int_Tables_number   1
_chemical_formula_structural   Al7FeCu2
_chemical_formula_sum   'Al28 Fe4 Cu8'
_cell_volume   573.55539863
_cell_formula_units_Z   4
loop_
 _symmetry_equiv_pos_site_id
 _symmetry_equiv_pos_as_xyz
  1  'x, y, z'
loop_
 _atom_site_type_symbol
 _atom_site_label
 _atom_site_symmetry_multiplicity
 _atom_site_fract_x
 _atom_site_fract_y
 _atom_site_fract_z
 _atom_site_occupancy
  Al  Al0  1  -0.00000008  -0.00000002  0.13334820  1
  Al  Al1  1  0.50000002  0.50000007  0.36662047  1
  Al  Al2  1  0.00000005  0.00000014  0.86671851  1
  Al  Al3  1  0.50000006  0.49999981  0.63330671  1
  Al  Al4  1  0.91424923  0.70588772  0.60030248  1
  Al  Al5  1  0.08575086  0.29411221  0.60030248  1
  Al  Al6  1  0.20587996  0.41423716  0.89971359  1
  Al  Al7  1  0.70588746  0.08575047  0.60030247  1
  Al  Al8  1  0.29411246  0.91424981  0.60030249  1
  Al  Al9  1  0.58576232  0.20587981  0.89971356  1
  Al  Al10  1  0.41423755  0.79412025  0.89971357  1
  Al  Al11  1  0.79411993  0.58576260  0.89971348  1
  Al  Al12  1  0.08571877  0.29402349  0.39963939  1
  Al  Al13  1  0.91428133  0.70597651  0.39963946  1
  Al  Al14  1  0.79403788  0.58572534  0.10034431  1
  Al  Al15  1  0.29402370  0.91428164  0.39963944  1
  Al  Al16  1  0.16374948  0.66378117  0.24999819  1
  Al  Al17  1  0.33621882  0.16374948  0.24999818  1
  Al  Al18  1  0.66378128  0.83625057  0.24999817  1
  Al  Al19  1  0.83625062  0.33621874  0.24999817  1
  Al  Al20  1  0.83623912  0.33622992  0.75000603  1
  Al  Al21  1  0.66376987  0.83623928  0.75000602  1
  Al  Al22  1  0.33623020  0.16376074  0.75000602  1
  Al  Al23  1  0.16376085  0.66377001  0.75000602  1
  Al  Al24  1  0.20596209  0.41427488  0.10034429  1
  Al  Al25  1  0.58572493  0.20596182  0.10034427  1
  Al  Al26  1  0.41427527  0.79403800  0.10034422  1
  Al  Al27  1  0.70597651  0.08571817  0.39963942  1
  Fe  Fe0  1  -0.00000002  0.00000005  0.29943705  1
  Fe  Fe1  1  0.50000003  0.49999994  0.20064457  1
  Fe  Fe2  1  0.00000007  -0.00000006  0.70054945  1
  Fe  Fe3  1  0.50000000  0.49999996  0.79938160  1
  Cu  Cu0  1  0.77251375  0.41356693  0.49987832  1
  Cu  Cu1  1  0.08643150  0.72750856  0.00011599  1
  Cu  Cu2  1  0.91356785  0.27249154  0.00011615  1
  Cu  Cu3  1  0.27248989  0.08643134  0.00011647  1
  Cu  Cu4  1  0.22748612  0.58643299  0.49987867  1
  Cu  Cu5  1  0.72750990  0.91356885  0.00011553  1
  Cu  Cu6  1  0.58643238  0.77251193  0.49987873  1
  Cu  Cu7  1  0.41356798  0.22748819  0.49987784  1
loop_
_geom_bond_atom_site_label_1
_geom_bond_atom_site_label_2
_geom_bond_distance
_geom_bond_site_symmetry_2
Al0 Fe0 2.431680 1_555
Al0 Cu3 2.646953 1_555
Al0 Cu5 2.646964 1_445
Al0 Cu2 2.646965 1_455
Al0 Cu1 2.646966 1_545
Al1 Fe1 2.430026 1_555
Al1 Cu7 2.647319 1_555
Al1 Cu6 2.647330 1_555
Al1 Cu0 2.647334 1_555
Al1 Cu4 2.647338 1_555
Al2 Fe2 2.432854 1_555
Al2 Cu5 2.648738 1_446
Al2 Cu3 2.648747 1_556
Al2 Cu1 2.648749 1_546
Al2 Cu2 2.648752 1_456
Al3 Fe3 2.431476 1_555
Al3 Cu6 2.649162 1_555
Al3 Cu7 2.649170 1_555
Al3 Cu4 2.649172 1_555
Al3 Cu0 2.649174 1_555
Al4 Fe2 2.414731 1_665
Al4 Cu0 2.509245 1_555
Al4 Cu6 2.558425 1_555
Al4 Cu4 2.562129 1_655
Al5 Fe2 2.414730 1_555
Al5 Cu4 2.509241 1_555
Al5 Cu7 2.558434 1_555
Al5 Cu0 2.562133 1_455
Al6 Fe3 2.415541 1_555
Al6 Cu2 2.509042 1_456
Al6 Cu3 2.558180 1_556
Al6 Cu1 2.562104 1_556
Al7 Fe2 2.414732 1_655
Al7 Cu7 2.509249 1_555
Al7 Cu0 2.558428 1_555
Al7 Cu6 2.562137 1_545
Al8 Fe2 2.414730 1_565
Al8 Cu6 2.509244 1_555
Al8 Cu4 2.558428 1_555
Al8 Cu7 2.562144 1_565
Al9 Fe3 2.415541 1_555
Al9 Cu5 2.509037 1_546
Al9 Cu2 2.558177 1_556
Al9 Cu3 2.562112 1_556
Al10 Fe3 2.415542 1_555
Al10 Cu3 2.509046 1_566
Al10 Cu1 2.558178 1_556
Al10 Cu5 2.562104 1_556
Al11 Fe3 2.415539 1_555
Al11 Cu1 2.509041 1_656
Al11 Cu5 2.558175 1_556
Al11 Cu2 2.562103 1_556
Al12 Fe0 2.413865 1_555
Al12 Cu4 2.508136 1_555
Al12 Cu7 2.556939 1_555
Al12 Cu0 2.560586 1_455
Al13 Fe0 2.413866 1_665
Al13 Cu0 2.508133 1_555
Al13 Cu6 2.556944 1_555
Al13 Cu4 2.560588 1_655
Al14 Fe1 2.414814 1_555
Al14 Cu1 2.508004 1_655
Al14 Cu5 2.556821 1_555
Al14 Cu2 2.560610 1_555
Al15 Fe0 2.413867 1_565
Al15 Cu6 2.508138 1_555
Al15 Cu4 2.556944 1_555
Al15 Cu7 2.560591 1_565
Al16 Fe1 2.449952 1_555
Al16 Fe0 2.450068 1_565
Al17 Fe1 2.449951 1_555
Al17 Fe0 2.450066 1_555
Al18 Fe1 2.449952 1_555
Al18 Fe0 2.450066 1_665
Al19 Fe1 2.449952 1_555
Al19 Fe0 2.450066 1_655
Al20 Fe3 2.449956 1_555
Al20 Fe2 2.450234 1_655
Al21 Fe3 2.449956 1_555
Al21 Fe2 2.450233 1_665
Al22 Fe3 2.449956 1_555
Al22 Fe2 2.450233 1_555
Al23 Fe3 2.449957 1_555
Al23 Fe2 2.450233 1_565
Al24 Fe1 2.414815 1_555
Al24 Cu2 2.508006 1_455
Al24 Cu3 2.556814 1_555
Al24 Cu1 2.560611 1_555
Al25 Fe1 2.414816 1_555
Al25 Cu5 2.508010 1_545
Al25 Cu2 2.556814 1_555
Al25 Cu3 2.560613 1_555
Al26 Fe1 2.414816 1_555
Al26 Cu3 2.508004 1_565
Al26 Cu1 2.556819 1_555
Al26 Cu5 2.560619 1_555
Al27 Fe0 2.413865 1_655
Al27 Cu7 2.508130 1_555
Al27 Cu0 2.556942 1_555
Al27 Cu6 2.560596 1_545
Cu0 Cu7 2.530580 1_555
Cu0 Cu6 2.530585 1_555
Cu1 Cu5 2.530394 1_455
Cu1 Cu3 2.530394 1_565
Cu2 Cu5 2.530392 1_545
Cu2 Cu3 2.530396 1_655
Cu4 Cu6 2.530583 1_555
Cu4 Cu7 2.530585 1_555
