# generated using pymatgen
data_TlAsS2
_symmetry_space_group_name_H-M   'P 1'
_cell_length_a   11.49627486
_cell_length_b   6.19649386
_cell_length_c   12.58644904
_cell_angle_alpha   75.15407311
_cell_angle_beta   90.00000000
_cell_angle_gamma   90.00000000
_symmetry_Int_Tables_number   1
_chemical_formula_structural   TlAsS2
_chemical_formula_sum   'Tl8 As8 S16'
_cell_volume   866.68525007
_cell_formula_units_Z   8
loop_
 _symmetry_equiv_pos_site_id
 _symmetry_equiv_pos_as_xyz
  1  'x, y, z'
loop_
 _atom_site_type_symbol
 _atom_site_label
 _atom_site_symmetry_multiplicity
 _atom_site_fract_x
 _atom_site_fract_y
 _atom_site_fract_z
 _atom_site_occupancy
  Tl  Tl0  1  0.31742822  0.84207563  0.05464298  1
  Tl  Tl1  1  0.81742822  0.15792437  0.44535702  1
  Tl  Tl2  1  0.68257178  0.15792437  0.94535702  1
  Tl  Tl3  1  0.18257178  0.84207563  0.55464298  1
  Tl  Tl4  1  0.05727508  0.26732644  0.10559379  1
  Tl  Tl5  1  0.55727508  0.73267356  0.39440621  1
  Tl  Tl6  1  0.94272492  0.73267356  0.89440621  1
  Tl  Tl7  1  0.44272492  0.26732644  0.60559379  1
  As  As0  1  0.33434488  0.23079474  0.30247653  1
  As  As1  1  0.91050944  0.46277907  0.63937292  1
  As  As2  1  0.41050944  0.53722093  0.86062708  1
  As  As3  1  0.08949056  0.53722093  0.36062708  1
  As  As4  1  0.58949056  0.46277907  0.13937292  1
  As  As5  1  0.66565512  0.76920526  0.69752347  1
  As  As6  1  0.16565512  0.23079474  0.80247653  1
  As  As7  1  0.83434488  0.76920526  0.19752347  1
  S  S0  1  0.78696699  0.42073336  0.17195677  1
  S  S1  1  0.46469325  0.72917211  0.68287640  1
  S  S2  1  0.96469325  0.27082789  0.81712360  1
  S  S3  1  0.53530675  0.27082789  0.31712360  1
  S  S4  1  0.03530675  0.72917211  0.18287640  1
  S  S5  1  0.71303301  0.42073336  0.67195677  1
  S  S6  1  0.21303301  0.57926664  0.82804323  1
  S  S7  1  0.28696699  0.57926664  0.32804323  1
  S  S8  1  0.31402310  0.28406754  0.12531799  1
  S  S9  1  0.81402310  0.71593246  0.37468201  1
  S  S10  1  0.68597690  0.71593246  0.87468201  1
  S  S11  1  0.94124540  0.80754845  0.64942940  1
  S  S12  1  0.55875460  0.80754845  0.14942940  1
  S  S13  1  0.05875460  0.19245155  0.35057060  1
  S  S14  1  0.44124540  0.19245155  0.85057060  1
  S  S15  1  0.18597690  0.28406754  0.62531799  1
loop_
_geom_bond_atom_site_label_1
_geom_bond_atom_site_label_2
_geom_bond_distance
_geom_bond_site_symmetry_2
As0 S8 2.181365 1_555
As0 S7 2.327849 1_555
As0 S3 2.335916 1_555
As1 S11 2.200792 1_555
As1 S5 2.309832 1_555
As1 S2 2.333326 1_555
As2 S14 2.200792 1_555
As2 S6 2.309832 1_555
As2 S1 2.333326 1_555
As3 S13 2.200792 1_555
As3 S7 2.309832 1_555
As3 S4 2.333326 1_555
As4 S12 2.200792 1_555
As4 S0 2.309832 1_555
As4 S3 2.333326 1_555
As5 S10 2.181365 1_555
As5 S5 2.327849 1_555
As5 S1 2.335916 1_555
As6 S15 2.181365 1_555
As6 S6 2.327849 1_555
As6 S2 2.335916 1_455
As7 S9 2.181365 1_555
As7 S0 2.327849 1_555
As7 S4 2.335916 1_655
S8 Tl4 2.966109 1_555
S8 Tl0 3.089063 1_545
S9 Tl5 2.966109 1_555
S9 Tl1 3.089063 1_565
S10 Tl6 2.966109 1_555
S10 Tl2 3.089063 1_565
S11 Tl6 2.998291 1_555
S11 Tl3 3.005882 1_655
S12 Tl5 2.998291 1_555
S12 Tl0 3.005882 1_555
S13 Tl4 2.998291 1_555
S13 Tl1 3.005882 1_455
S14 Tl7 2.998291 1_555
S14 Tl2 3.005882 1_555
S15 Tl7 2.966109 1_555
S15 Tl3 3.089063 1_545
