# generated using pymatgen
data_YCoC2
_symmetry_space_group_name_H-M   'P 1'
_cell_length_a   3.57475750
_cell_length_b   3.72887675
_cell_length_c   3.72887599
_cell_angle_alpha   106.20159237
_cell_angle_beta   90.00000000
_cell_angle_gamma   90.00000000
_symmetry_Int_Tables_number   1
_chemical_formula_structural   YCoC2
_chemical_formula_sum   'Y1 Co1 C2'
_cell_volume   47.73128449
_cell_formula_units_Z   1
loop_
 _symmetry_equiv_pos_site_id
 _symmetry_equiv_pos_as_xyz
  1  'x, y, z'
loop_
 _atom_site_type_symbol
 _atom_site_label
 _atom_site_symmetry_multiplicity
 _atom_site_fract_x
 _atom_site_fract_y
 _atom_site_fract_z
 _atom_site_occupancy
  Y  Y0  1  -0.00000000  0.99770372  0.00229628  1
  Co  Co0  1  0.50000000  0.61349426  0.38650574  1
  C  C0  1  0.50000000  0.15064837  0.54184735  1
  C  C1  1  0.50000000  0.45815265  0.84935163  1
loop_
_geom_bond_atom_site_label_1
_geom_bond_atom_site_label_2
_geom_bond_distance
_geom_bond_site_symmetry_2
C0 C1 1.376913 1_555
C0 Co0 1.923543 1_545
C0 Co0 1.967772 1_555
C0 Y0 2.632013 1_645
C0 Y0 2.632013 1_545
C0 Y0 2.648462 1_546
C0 Y0 2.648462 1_646
C1 Co0 1.923543 1_556
C1 Co0 1.967772 1_555
C1 Y0 2.632014 1_656
C1 Y0 2.632014 1_556
C1 Y0 2.648462 1_546
C1 Y0 2.648462 1_646
