# generated using pymatgen
data_La2TeO2
_symmetry_space_group_name_H-M   'P 1'
_cell_length_a   4.12821824
_cell_length_b   4.12821883
_cell_length_c   7.18373516
_cell_angle_alpha   106.69822240
_cell_angle_beta   106.69822090
_cell_angle_gamma   90.00000193
_symmetry_Int_Tables_number   1
_chemical_formula_structural   La2TeO2
_chemical_formula_sum   'La2 Te1 O2'
_cell_volume   111.86345500
_cell_formula_units_Z   1
loop_
 _symmetry_equiv_pos_site_id
 _symmetry_equiv_pos_as_xyz
  1  'x, y, z'
loop_
 _atom_site_type_symbol
 _atom_site_label
 _atom_site_symmetry_multiplicity
 _atom_site_fract_x
 _atom_site_fract_y
 _atom_site_fract_z
 _atom_site_occupancy
  La  La0  1  0.65909733  0.65909733  0.31819365  1
  La  La1  1  0.34090267  0.34090267  0.68180635  1
  Te  Te0  1  0.00000000  0.00000000  -0.00000000  1
  O  O0  1  0.25000000  0.75000000  0.50000000  1
  O  O1  1  0.75000000  0.25000000  0.50000000  1
loop_
_geom_bond_atom_site_label_1
_geom_bond_atom_site_label_2
_geom_bond_distance
_geom_bond_site_symmetry_2
La0 O0 2.384250 1_655
La0 O1 2.384251 1_565
La0 O0 2.384254 1_555
La0 O1 2.384254 1_555
La0 Te0 3.589332 1_665
La0 Te0 3.589335 1_565
La0 Te0 3.589335 1_655
La0 Te0 3.589338 1_555
La1 O1 2.384250 1_455
La1 O0 2.384251 1_545
La1 O1 2.384254 1_555
La1 O0 2.384254 1_555
La1 Te0 3.589332 1_556
La1 Te0 3.589335 1_656
La1 Te0 3.589335 1_566
La1 Te0 3.589338 1_666
