# generated using pymatgen
data_SrHfO3
_symmetry_space_group_name_H-M   'P 1'
_cell_length_a   5.76721910
_cell_length_b   5.76721910
_cell_length_c   8.15933204
_cell_angle_alpha   90.00000000
_cell_angle_beta   90.00000000
_cell_angle_gamma   90.62594694
_symmetry_Int_Tables_number   1
_chemical_formula_structural   SrHfO3
_chemical_formula_sum   'Sr4 Hf4 O12'
_cell_volume   271.36984792
_cell_formula_units_Z   4
loop_
 _symmetry_equiv_pos_site_id
 _symmetry_equiv_pos_as_xyz
  1  'x, y, z'
loop_
 _atom_site_type_symbol
 _atom_site_label
 _atom_site_symmetry_multiplicity
 _atom_site_fract_x
 _atom_site_fract_y
 _atom_site_fract_z
 _atom_site_occupancy
  Sr  Sr0  1  0.99050607  0.00949393  0.75000000  1
  Sr  Sr1  1  0.00949393  0.99050607  0.25000000  1
  Sr  Sr2  1  0.49338039  0.50661961  0.75000000  1
  Sr  Sr3  1  0.50661961  0.49338039  0.25000000  1
  Hf  Hf0  1  0.50000000  -0.00000000  0.00000000  1
  Hf  Hf1  1  0.50000000  -0.00000000  0.50000000  1
  Hf  Hf2  1  0.00000000  0.50000000  0.00000000  1
  Hf  Hf3  1  0.00000000  0.50000000  0.50000000  1
  O  O0  1  0.96051522  0.45363510  0.75000000  1
  O  O1  1  0.03948478  0.54636490  0.25000000  1
  O  O2  1  0.45363510  0.96051522  0.25000000  1
  O  O3  1  0.54636490  0.03948478  0.75000000  1
  O  O4  1  0.21901137  0.78098863  0.54185166  1
  O  O5  1  0.78098863  0.21901137  0.04185166  1
  O  O6  1  0.78098863  0.21901137  0.45814834  1
  O  O7  1  0.21901137  0.78098863  0.95814834  1
  O  O8  1  0.28302046  0.28302046  0.00000000  1
  O  O9  1  0.71697954  0.71697954  0.50000000  1
  O  O10  1  0.71697954  0.71697954  0.00000000  1
  O  O11  1  0.28302046  0.28302046  0.50000000  1
loop_
_geom_bond_atom_site_label_1
_geom_bond_atom_site_label_2
_geom_bond_distance
_geom_bond_site_symmetry_2
Hf0 O8 2.067550 1_555
Hf0 O10 2.067550 1_545
Hf0 O3 2.069528 1_554
Hf0 O2 2.069528 1_545
Hf0 O5 2.072045 1_555
Hf0 O7 2.072045 1_544
Hf1 O11 2.067550 1_555
Hf1 O9 2.067550 1_545
Hf1 O3 2.069528 1_555
Hf1 O2 2.069528 1_545
Hf1 O4 2.072045 1_545
Hf1 O6 2.072045 1_555
Hf2 O8 2.067550 1_555
Hf2 O10 2.067550 1_455
Hf2 O1 2.069528 1_555
Hf2 O0 2.069528 1_454
Hf2 O5 2.072045 1_455
Hf2 O7 2.072045 1_554
Hf3 O9 2.067550 1_455
Hf3 O11 2.067550 1_555
Hf3 O1 2.069528 1_555
Hf3 O0 2.069528 1_455
Hf3 O6 2.072045 1_455
Hf3 O4 2.072045 1_555
O0 Sr0 2.569177 1_555
O0 Sr2 2.714658 1_555
O0 Sr2 3.084981 1_655
O1 Sr1 2.569177 1_555
O1 Sr3 2.714658 1_555
O1 Sr3 3.084981 1_455
O2 Sr1 2.569177 1_555
O2 Sr3 2.714658 1_555
O2 Sr3 3.084981 1_565
O3 Sr0 2.569177 1_555
O3 Sr2 2.714658 1_555
O3 Sr2 3.084981 1_545
O4 Sr0 2.528982 1_465
O4 Sr2 2.818997 1_555
O4 Sr1 2.936443 1_555
O5 Sr1 2.528982 1_645
O5 Sr3 2.818997 1_555
O5 Sr0 2.936443 1_554
O6 Sr1 2.528982 1_645
O6 Sr3 2.818997 1_555
O6 Sr0 2.936443 1_555
O7 Sr0 2.528982 1_465
O7 Sr2 2.818997 1_555
O7 Sr1 2.936443 1_556
O8 Sr3 2.694717 1_555
O8 Sr2 2.694717 1_554
O9 Sr3 2.694717 1_555
O9 Sr2 2.694717 1_555
O10 Sr3 2.694717 1_555
O10 Sr2 2.694717 1_554
O11 Sr3 2.694717 1_555
O11 Sr2 2.694717 1_555
