# generated using pymatgen
data_TlAg3S2
_symmetry_space_group_name_H-M   'P 1'
_cell_length_a   6.94929400
_cell_length_b   8.87065400
_cell_length_c   8.95624900
_cell_angle_alpha   90.00000000
_cell_angle_beta   90.00000000
_cell_angle_gamma   90.00000000
_symmetry_Int_Tables_number   1
_chemical_formula_structural   TlAg3S2
_chemical_formula_sum   'Tl4 Ag12 S8'
_cell_volume   552.10602268
_cell_formula_units_Z   4
loop_
 _symmetry_equiv_pos_site_id
 _symmetry_equiv_pos_as_xyz
  1  'x, y, z'
loop_
 _atom_site_type_symbol
 _atom_site_label
 _atom_site_symmetry_multiplicity
 _atom_site_fract_x
 _atom_site_fract_y
 _atom_site_fract_z
 _atom_site_occupancy
  Tl  Tl0  1  0.25000000  0.00000000  0.89961800  1
  Tl  Tl1  1  0.75000000  0.50000000  0.60038200  1
  Tl  Tl2  1  0.75000000  0.00000000  0.10038200  1
  Tl  Tl3  1  0.25000000  0.50000000  0.39961800  1
  Ag  Ag0  1  0.25000000  0.00000000  0.33910900  1
  Ag  Ag1  1  0.38719300  0.69440900  0.09683300  1
  Ag  Ag2  1  0.61280700  0.19440900  0.40316700  1
  Ag  Ag3  1  0.11280700  0.30559100  0.09683300  1
  Ag  Ag4  1  0.61280700  0.30559100  0.90316700  1
  Ag  Ag5  1  0.11280700  0.19440900  0.59683300  1
  Ag  Ag6  1  0.38719300  0.80559100  0.59683300  1
  Ag  Ag7  1  0.88719300  0.69440900  0.90316700  1
  Ag  Ag8  1  0.75000000  0.00000000  0.66089100  1
  Ag  Ag9  1  0.25000000  0.50000000  0.83910900  1
  Ag  Ag10  1  0.88719300  0.80559100  0.40316700  1
  Ag  Ag11  1  0.75000000  0.50000000  0.16089100  1
  S  S0  1  0.98759200  0.31973500  0.83137200  1
  S  S1  1  0.48759200  0.18026500  0.66862800  1
  S  S2  1  0.01240800  0.81973500  0.66862800  1
  S  S3  1  0.51240800  0.68026500  0.83137200  1
  S  S4  1  0.98759200  0.18026500  0.33137200  1
  S  S5  1  0.48759200  0.31973500  0.16862800  1
  S  S6  1  0.01240800  0.68026500  0.16862800  1
  S  S7  1  0.51240800  0.81973500  0.33137200  1
loop_
_geom_bond_atom_site_label_1
_geom_bond_atom_site_label_2
_geom_bond_distance
_geom_bond_site_symmetry_2
Ag0 S4 2.426347 1_455
Ag0 S7 2.426347 1_545
Ag1 S7 2.530924 1_555
Ag1 S3 2.534874 1_554
Ag1 S6 2.685625 1_555
Ag1 Tl3 3.352154 1_555
Ag1 Tl0 3.373010 1_564
Ag2 S5 2.530924 1_555
Ag2 S1 2.534874 1_555
Ag2 S4 2.685625 1_555
Ag2 Tl2 3.352154 1_555
Ag2 Tl1 3.373010 1_555
Ag3 S4 2.530924 1_455
Ag3 S0 2.534874 1_454
Ag3 S5 2.685625 1_555
Ag3 Tl3 3.352154 1_555
Ag3 Tl0 3.373010 1_554
Ag4 S1 2.530924 1_555
Ag4 S5 2.534874 1_556
Ag4 S0 2.685625 1_555
Ag4 Tl1 3.352154 1_555
Ag4 Tl2 3.373010 1_556
Ag5 S0 2.530924 1_455
Ag5 S4 2.534874 1_455
Ag5 S1 2.685625 1_555
Ag5 Tl0 3.352154 1_555
Ag5 Tl3 3.373010 1_555
Ag6 S3 2.530924 1_555
Ag6 S7 2.534874 1_555
Ag6 S2 2.685625 1_555
Ag6 Tl0 3.352154 1_565
Ag6 Tl3 3.373010 1_555
Ag7 S2 2.530924 1_655
Ag7 S6 2.534874 1_656
Ag7 S3 2.685625 1_555
Ag7 Tl1 3.352154 1_555
Ag7 Tl2 3.373010 1_566
Ag8 S2 2.426347 1_645
Ag8 S1 2.426347 1_555
Ag9 S3 2.426347 1_555
Ag9 S0 2.426347 1_455
Ag10 S6 2.530924 1_655
Ag10 S2 2.534874 1_655
Ag10 S7 2.685625 1_555
Ag10 Tl2 3.352154 1_565
Ag10 Tl1 3.373010 1_555
Ag11 S6 2.426347 1_655
Ag11 S5 2.426347 1_555
S0 Tl1 3.092425 1_555
S1 Tl0 3.092425 1_555
S2 Tl0 3.092425 1_565
S3 Tl1 3.092425 1_555
S4 Tl2 3.092425 1_555
S5 Tl3 3.092425 1_555
S6 Tl3 3.092425 1_555
S7 Tl2 3.092425 1_565
