# generated using pymatgen
data_Pr2CuO4
_symmetry_space_group_name_H-M   'P 1'
_cell_length_a   3.96844737
_cell_length_b   3.96844744
_cell_length_c   6.80397745
_cell_angle_alpha   106.95538961
_cell_angle_beta   106.95539166
_cell_angle_gamma   90.00000844
_symmetry_Int_Tables_number   1
_chemical_formula_structural   Pr2CuO4
_chemical_formula_sum   'Pr2 Cu1 O4'
_cell_volume   97.61552944
_cell_formula_units_Z   1
loop_
 _symmetry_equiv_pos_site_id
 _symmetry_equiv_pos_as_xyz
  1  'x, y, z'
loop_
 _atom_site_type_symbol
 _atom_site_label
 _atom_site_symmetry_multiplicity
 _atom_site_fract_x
 _atom_site_fract_y
 _atom_site_fract_z
 _atom_site_occupancy
  Pr  Pr0  1  0.64871929  0.64871929  0.29743758  1
  Pr  Pr1  1  0.35128071  0.35128071  0.70256242  1
  Cu  Cu0  1  -0.00000000  -0.00000000  -0.00000000  1
  O  O0  1  0.25000000  0.75000000  0.50000000  1
  O  O1  1  0.75000000  0.25000000  0.50000000  1
  O  O2  1  -0.00000000  0.50000000  -0.00000000  1
  O  O3  1  0.50000000  -0.00000000  -0.00000000  1
loop_
_geom_bond_atom_site_label_1
_geom_bond_atom_site_label_2
_geom_bond_distance
_geom_bond_site_symmetry_2
Cu0 O3 1.984224 1_555
Cu0 O3 1.984224 1_455
Cu0 O2 1.984224 1_555
Cu0 O2 1.984224 1_545
O0 Pr0 2.348097 1_455
O0 Pr1 2.348097 1_565
O0 Pr1 2.348101 1_555
O0 Pr0 2.348101 1_555
O1 Pr1 2.348097 1_655
O1 Pr0 2.348097 1_545
O1 Pr0 2.348101 1_555
O1 Pr1 2.348101 1_555
O2 Pr1 2.708524 1_554
O2 Pr0 2.708524 1_455
O2 Pr0 2.708527 1_555
O2 Pr1 2.708527 1_454
O3 Pr0 2.708524 1_545
O3 Pr1 2.708524 1_554
O3 Pr0 2.708527 1_555
O3 Pr1 2.708527 1_544
