# generated using pymatgen
data_U(Al2Fe)4
_symmetry_space_group_name_H-M   'P 1'
_cell_length_a   6.64953606
_cell_length_b   6.64953606
_cell_length_c   6.64953606
_cell_angle_alpha   98.11674295
_cell_angle_beta   98.11674295
_cell_angle_gamma   135.85824396
_symmetry_Int_Tables_number   1
_chemical_formula_structural   U(Al2Fe)4
_chemical_formula_sum   'U1 Al8 Fe4'
_cell_volume   189.75954981
_cell_formula_units_Z   1
loop_
 _symmetry_equiv_pos_site_id
 _symmetry_equiv_pos_as_xyz
  1  'x, y, z'
loop_
 _atom_site_type_symbol
 _atom_site_label
 _atom_site_symmetry_multiplicity
 _atom_site_fract_x
 _atom_site_fract_y
 _atom_site_fract_z
 _atom_site_occupancy
  U  U0  1  -0.00000000  -0.00000000  -0.00000000  1
  Al  Al0  1  0.27934050  0.50000000  0.77934050  1
  Al  Al1  1  0.50000000  0.72065950  0.22065950  1
  Al  Al2  1  0.50000000  0.27934050  0.77934050  1
  Al  Al3  1  0.72065950  0.50000000  0.22065950  1
  Al  Al4  1  0.34399704  -0.00000000  0.34399704  1
  Al  Al5  1  0.65600296  0.00000000  0.65600296  1
  Al  Al6  1  0.00000000  0.34399704  0.34399704  1
  Al  Al7  1  -0.00000000  0.65600296  0.65600296  1
  Fe  Fe0  1  -0.00000000  0.50000000  -0.00000000  1
  Fe  Fe1  1  0.50000000  0.50000000  0.50000000  1
  Fe  Fe2  1  -0.00000000  -0.00000000  0.50000000  1
  Fe  Fe3  1  0.50000000  -0.00000000  -0.00000000  1
loop_
_geom_bond_atom_site_label_1
_geom_bond_atom_site_label_2
_geom_bond_distance
_geom_bond_site_symmetry_2
Al0 Fe3 2.524438 1_566
Al0 Fe2 2.524438 1_555
Al0 Fe0 2.524438 1_556
Al0 Fe1 2.524438 1_555
Al0 Al1 2.719521 1_556
Al0 Al2 2.719521 1_555
Al0 Al5 2.719971 1_455
Al0 Al5 2.719971 1_565
Al0 Al7 2.788284 1_555
Al0 Al6 2.788284 1_555
Al0 U0 3.152907 1_666
Al0 U0 3.152907 1_556
Al1 Fe3 2.524438 1_565
Al1 Fe0 2.524438 1_555
Al1 Fe2 2.524438 1_665
Al1 Fe1 2.524438 1_555
Al1 Al3 2.719521 1_555
Al1 Al6 2.719971 1_665
Al1 Al6 2.719971 1_555
Al1 Al4 2.788284 1_565
Al1 Al5 2.788284 1_565
Al1 U0 3.152907 1_665
Al1 U0 3.152907 1_555
Al2 Fe3 2.524438 1_556
Al2 Fe2 2.524438 1_555
Al2 Fe1 2.524438 1_555
Al2 Fe0 2.524438 1_656
Al2 Al3 2.719521 1_556
Al2 Al7 2.719971 1_655
Al2 Al7 2.719971 1_545
Al2 Al4 2.788284 1_555
Al2 Al5 2.788284 1_555
Al2 U0 3.152907 1_556
Al2 U0 3.152907 1_666
Al3 Fe0 2.524438 1_655
Al3 Fe3 2.524438 1_555
Al3 Fe2 2.524438 1_665
Al3 Fe1 2.524438 1_555
Al3 Al4 2.719971 1_665
Al3 Al4 2.719971 1_555
Al3 Al6 2.788284 1_655
Al3 Al7 2.788284 1_655
Al3 U0 3.152907 1_665
Al3 U0 3.152907 1_555
Al4 Fe2 2.641672 1_555
Al4 Fe3 2.641672 1_555
Al4 Fe1 2.641672 1_555
Al4 Fe0 2.641672 1_545
Al4 Al5 2.719052 1_555
Al4 U0 2.997847 1_555
Al5 Fe3 2.641672 1_556
Al5 Fe1 2.641672 1_545
Al5 Fe2 2.641672 1_655
Al5 Fe0 2.641672 1_656
Al5 U0 2.997847 1_656
Al6 Fe3 2.641672 1_455
Al6 Fe2 2.641672 1_555
Al6 Fe1 2.641672 1_555
Al6 Fe0 2.641672 1_555
Al6 Al7 2.719052 1_555
Al6 U0 2.997847 1_555
Al7 Fe1 2.641672 1_455
Al7 Fe2 2.641672 1_565
Al7 Fe3 2.641672 1_566
Al7 Fe0 2.641672 1_556
Al7 U0 2.997847 1_566
Fe0 Fe3 2.498585 1_565
Fe0 Fe3 2.498585 1_455
Fe0 U0 3.324768 1_555
Fe0 U0 3.324768 1_565
Fe1 Fe2 2.498585 1_665
Fe1 Fe2 2.498585 1_555
Fe1 U0 3.324768 1_666
Fe1 U0 3.324768 1_555
Fe2 U0 3.324768 1_556
Fe2 U0 3.324768 1_555
Fe3 U0 3.324768 1_655
Fe3 U0 3.324768 1_555
