# generated using pymatgen
data_Si2N2O
_symmetry_space_group_name_H-M   'P 1'
_cell_length_a   12.31211592
_cell_length_b   12.31211592
_cell_length_c   12.31211592
_cell_angle_alpha   154.21363758
_cell_angle_beta   154.21363758
_cell_angle_gamma   36.78916079
_symmetry_Int_Tables_number   1
_chemical_formula_structural   Si2N2O
_chemical_formula_sum   'Si16 N16 O8'
_cell_volume   352.70622961
_cell_formula_units_Z   8
loop_
 _symmetry_equiv_pos_site_id
 _symmetry_equiv_pos_as_xyz
  1  'x, y, z'
loop_
 _atom_site_type_symbol
 _atom_site_label
 _atom_site_symmetry_multiplicity
 _atom_site_fract_x
 _atom_site_fract_y
 _atom_site_fract_z
 _atom_site_occupancy
  Si  Si0  1  0.70692300  0.95719000  0.25026600  1
  Si  Si1  1  0.54334300  0.29307700  0.25026600  1
  Si  Si2  1  0.04281000  0.29307700  0.74973400  1
  Si  Si3  1  0.04307700  0.79334300  0.75026600  1
  Si  Si4  1  0.04307700  0.29281000  0.24973400  1
  Si  Si5  1  0.70719000  0.95692300  0.75026600  1
  Si  Si6  1  0.20665700  0.95692300  0.24973400  1
  Si  Si7  1  0.70692300  0.45665700  0.74973400  1
  Si  Si8  1  0.91886700  0.41886700  0.50000000  1
  Si  Si9  1  0.16886700  0.16886700  0.00000000  1
  Si  Si10  1  0.83113300  0.83113300  0.00000000  1
  Si  Si11  1  0.58113300  0.08113300  0.50000000  1
  Si  Si12  1  0.37500000  0.62500000  0.25000000  1
  Si  Si13  1  0.37500000  0.62500000  0.75000000  1
  Si  Si14  1  0.87500000  0.62500000  0.25000000  1
  Si  Si15  1  0.37500000  0.12500000  0.75000000  1
  N  N0  1  0.12450900  0.38738200  0.26287300  1
  N  N1  1  0.13738200  0.37450900  0.76287300  1
  N  N2  1  0.61163600  0.37450900  0.23712700  1
  N  N3  1  0.62549100  0.38836400  0.76287300  1
  N  N4  1  0.12450900  0.86163600  0.73712700  1
  N  N5  1  0.13836400  0.87549100  0.26287300  1
  N  N6  1  0.61261800  0.87549100  0.73712700  1
  N  N7  1  0.62549100  0.86261800  0.23712700  1
  N  N8  1  0.78775000  0.05092100  0.26317100  1
  N  N9  1  0.47542100  0.21225000  0.26317100  1
  N  N10  1  0.94907900  0.21225000  0.73682900  1
  N  N11  1  0.96225000  0.72542100  0.76317100  1
  N  N12  1  0.96225000  0.19907900  0.23682900  1
  N  N13  1  0.80092100  0.03775000  0.76317100  1
  N  N14  1  0.27457900  0.03775000  0.23682900  1
  N  N15  1  0.78775000  0.52457900  0.73682900  1
  O  O0  1  0.45145000  0.16658600  0.71513600  1
  O  O1  1  0.91658600  0.70145000  0.21513600  1
  O  O2  1  0.48631400  0.70145000  0.78486400  1
  O  O3  1  0.29855000  0.51368600  0.21513600  1
  O  O4  1  0.45145000  0.73631400  0.28486400  1
  O  O5  1  0.26368600  0.54855000  0.71513600  1
  O  O6  1  0.83341400  0.54855000  0.28486400  1
  O  O7  1  0.29855000  0.08341400  0.78486400  1
loop_
_geom_bond_atom_site_label_1
_geom_bond_atom_site_label_2
_geom_bond_distance
_geom_bond_site_symmetry_2
N0 Si9 1.777764 1_555
N0 Si14 1.893283 1_455
N0 Si13 1.893283 1_555
N0 Si4 1.904127 1_555
N1 Si8 1.777764 1_455
N1 Si15 1.893283 1_555
N1 Si12 1.893283 1_556
N1 Si2 1.904127 1_555
N2 Si8 1.777764 1_555
N2 Si15 1.893283 1_554
N2 Si12 1.893283 1_555
N2 Si1 1.904115 1_555
N3 Si11 1.777764 1_555
N3 Si14 1.893283 1_556
N3 Si13 1.893283 1_555
N3 Si7 1.904115 1_555
N4 Si9 1.777764 1_566
N4 Si13 1.893283 1_555
N4 Si14 1.893283 1_455
N4 Si3 1.904115 1_555
N5 Si10 1.777764 1_455
N5 Si15 1.893283 1_565
N5 Si12 1.893283 1_555
N5 Si6 1.904115 1_555
N6 Si10 1.777764 1_556
N6 Si15 1.893283 1_565
N6 Si12 1.893283 1_555
N6 Si5 1.904127 1_555
N7 Si11 1.777764 1_565
N7 Si14 1.893283 1_555
N7 Si13 1.893283 1_554
N7 Si0 1.904127 1_555
N8 Si10 1.765919 1_545
N8 Si0 1.889929 1_545
N8 Si2 1.895152 1_655
N8 Si1 1.895153 1_555
N9 Si9 1.765919 1_555
N9 Si1 1.889941 1_555
N9 Si0 1.895148 1_545
N9 Si7 1.895153 1_555
N10 Si9 1.765919 1_656
N10 Si2 1.889929 1_655
N10 Si0 1.895152 1_545
N10 Si7 1.895153 1_555
N11 Si8 1.765919 1_555
N11 Si3 1.889941 1_655
N11 Si5 1.895148 1_555
N11 Si6 1.895153 1_656
N12 Si8 1.765919 1_555
N12 Si4 1.889929 1_655
N12 Si5 1.895152 1_544
N12 Si6 1.895153 1_645
N13 Si11 1.765919 1_555
N13 Si5 1.889929 1_545
N13 Si4 1.895152 1_656
N13 Si3 1.895153 1_645
N14 Si11 1.765919 1_555
N14 Si6 1.889941 1_545
N14 Si4 1.895148 1_555
N14 Si3 1.895153 1_544
N15 Si10 1.765919 1_556
N15 Si7 1.889941 1_555
N15 Si2 1.895148 1_655
N15 Si1 1.895153 1_555
O0 Si15 1.796578 1_555
O0 Si6 1.817829 1_545
O0 Si5 1.817833 1_545
O1 Si14 1.796578 1_555
O1 Si7 1.817829 1_554
O1 Si0 1.817833 1_555
O2 Si13 1.796578 1_555
O2 Si7 1.817829 1_555
O2 Si0 1.817830 1_556
O3 Si12 1.796578 1_555
O3 Si1 1.817829 1_555
O3 Si2 1.817830 1_554
O4 Si12 1.796578 1_555
O4 Si6 1.817829 1_555
O4 Si5 1.817830 1_555
O5 Si13 1.796578 1_555
O5 Si3 1.817829 1_555
O5 Si4 1.817830 1_555
O6 Si14 1.796578 1_555
O6 Si3 1.817829 1_655
O6 Si4 1.817833 1_655
O7 Si15 1.796578 1_555
O7 Si1 1.817829 1_556
O7 Si2 1.817833 1_555
