# generated using pymatgen
data_Mg2Ge
_symmetry_space_group_name_H-M   'P 1'
_cell_length_a   4.50327379
_cell_length_b   4.50327473
_cell_length_c   4.50327413
_cell_angle_alpha   60.00001185
_cell_angle_beta   60.00000495
_cell_angle_gamma   60.00000591
_symmetry_Int_Tables_number   1
_chemical_formula_structural   Mg2Ge
_chemical_formula_sum   'Mg2 Ge1'
_cell_volume   64.57586864
_cell_formula_units_Z   1
loop_
 _symmetry_equiv_pos_site_id
 _symmetry_equiv_pos_as_xyz
  1  'x, y, z'
loop_
 _atom_site_type_symbol
 _atom_site_label
 _atom_site_symmetry_multiplicity
 _atom_site_fract_x
 _atom_site_fract_y
 _atom_site_fract_z
 _atom_site_occupancy
  Mg  Mg0  1  0.75000000  0.75000000  0.75000000  1
  Mg  Mg1  1  0.25000000  0.25000000  0.25000000  1
  Ge  Ge0  1  -0.00000000  -0.00000000  -0.00000000  1
loop_
_geom_bond_atom_site_label_1
_geom_bond_atom_site_label_2
_geom_bond_distance
_geom_bond_site_symmetry_2
Ge0 Mg1 2.757681 1_555
Ge0 Mg0 2.757681 1_444
Ge0 Mg1 2.757681 1_455
Ge0 Mg0 2.757681 1_544
Ge0 Mg1 2.757681 1_554
Ge0 Mg0 2.757681 1_445
Ge0 Mg1 2.757682 1_545
Ge0 Mg0 2.757682 1_454
