# generated using pymatgen
data_ErFe2
_symmetry_space_group_name_H-M   'P 1'
_cell_length_a   5.13200874
_cell_length_b   5.13200874
_cell_length_c   5.13200874
_cell_angle_alpha   60.00000000
_cell_angle_beta   60.00000000
_cell_angle_gamma   60.00000000
_symmetry_Int_Tables_number   1
_chemical_formula_structural   ErFe2
_chemical_formula_sum   'Er2 Fe4'
_cell_volume   95.57562875
_cell_formula_units_Z   2
loop_
 _symmetry_equiv_pos_site_id
 _symmetry_equiv_pos_as_xyz
  1  'x, y, z'
loop_
 _atom_site_type_symbol
 _atom_site_label
 _atom_site_symmetry_multiplicity
 _atom_site_fract_x
 _atom_site_fract_y
 _atom_site_fract_z
 _atom_site_occupancy
  Er  Er0  1  0.50000000  0.50000000  0.50000000  1
  Er  Er1  1  0.75000000  0.75000000  0.75000000  1
  Fe  Fe0  1  0.62500000  0.12500000  0.12500000  1
  Fe  Fe1  1  0.12500000  0.12500000  0.62500000  1
  Fe  Fe2  1  0.12500000  0.62500000  0.12500000  1
  Fe  Fe3  1  0.12500000  0.12500000  0.12500000  1
loop_
_geom_bond_atom_site_label_1
_geom_bond_atom_site_label_2
_geom_bond_distance
_geom_bond_site_symmetry_2
Er0 Fe1 3.008907 1_555
Er0 Fe0 3.008907 1_565
Er0 Fe3 3.008907 1_556
Er0 Fe2 3.008907 1_556
Er0 Fe0 3.008907 1_555
Er0 Fe2 3.008907 1_555
Er0 Fe3 3.008907 1_655
Er0 Fe0 3.008907 1_556
Er0 Fe3 3.008907 1_565
Er0 Fe2 3.008907 1_655
Er0 Fe1 3.008907 1_655
Er0 Fe1 3.008907 1_565
Er0 Er1 3.142701 1_455
Er0 Er1 3.142701 1_554
Er0 Er1 3.142701 1_555
Er0 Er1 3.142701 1_545
Er1 Fe1 3.008907 1_665
Er1 Fe0 3.008907 1_565
Er1 Fe0 3.008907 1_566
Er1 Fe3 3.008907 1_665
Er1 Fe3 3.008907 1_566
Er1 Fe2 3.008907 1_656
Er1 Fe2 3.008907 1_655
Er1 Fe3 3.008907 1_656
Er1 Fe0 3.008907 1_556
Er1 Fe1 3.008907 1_565
Er1 Fe1 3.008907 1_655
Er1 Fe2 3.008907 1_556
Fe0 Fe3 2.566004 1_555
Fe0 Fe1 2.566004 1_654
Fe0 Fe3 2.566004 1_655
Fe0 Fe2 2.566004 1_555
Fe0 Fe2 2.566004 1_645
Fe0 Fe1 2.566004 1_555
Fe1 Fe3 2.566004 1_555
Fe1 Fe3 2.566004 1_556
Fe1 Fe2 2.566004 1_546
Fe1 Fe2 2.566004 1_555
Fe2 Fe3 2.566004 1_555
Fe2 Fe3 2.566004 1_565
