# generated using pymatgen
data_HfNi2Sn
_symmetry_space_group_name_H-M   'P 1'
_cell_length_a   4.43521698
_cell_length_b   4.43521698
_cell_length_c   4.43521698
_cell_angle_alpha   60.00000000
_cell_angle_beta   60.00000000
_cell_angle_gamma   60.00000000
_symmetry_Int_Tables_number   1
_chemical_formula_structural   HfNi2Sn
_chemical_formula_sum   'Hf1 Ni2 Sn1'
_cell_volume   61.69210867
_cell_formula_units_Z   1
loop_
 _symmetry_equiv_pos_site_id
 _symmetry_equiv_pos_as_xyz
  1  'x, y, z'
loop_
 _atom_site_type_symbol
 _atom_site_label
 _atom_site_symmetry_multiplicity
 _atom_site_fract_x
 _atom_site_fract_y
 _atom_site_fract_z
 _atom_site_occupancy
  Hf  Hf0  1  0.50000000  0.50000000  0.50000000  1
  Ni  Ni0  1  0.75000000  0.75000000  0.75000000  1
  Ni  Ni1  1  0.25000000  0.25000000  0.25000000  1
  Sn  Sn0  1  0.00000000  0.00000000  0.00000000  1
loop_
_geom_bond_atom_site_label_1
_geom_bond_atom_site_label_2
_geom_bond_distance
_geom_bond_site_symmetry_2
Hf0 Ni0 2.716005 1_455
Hf0 Ni1 2.716005 1_555
Hf0 Ni1 2.716005 1_565
Hf0 Ni0 2.716005 1_545
Hf0 Ni0 2.716005 1_555
Hf0 Ni0 2.716005 1_554
Hf0 Ni1 2.716005 1_556
Hf0 Ni1 2.716005 1_655
Hf0 Sn0 3.136172 1_655
Hf0 Sn0 3.136172 1_566
Hf0 Sn0 3.136172 1_665
Hf0 Sn0 3.136172 1_556
Hf0 Sn0 3.136172 1_565
Hf0 Sn0 3.136172 1_656
Ni0 Sn0 2.716005 1_666
Ni0 Sn0 2.716005 1_656
Ni0 Sn0 2.716005 1_566
Ni0 Sn0 2.716005 1_665
Ni1 Sn0 2.716005 1_565
Ni1 Sn0 2.716005 1_655
Ni1 Sn0 2.716005 1_555
Ni1 Sn0 2.716005 1_556
