# generated using pymatgen
data_Ca2AlH10ClO8
_symmetry_space_group_name_H-M   'P 1'
_cell_length_a   5.82105979
_cell_length_b   5.82105979
_cell_length_c   16.16035152
_cell_angle_alpha   80.66875306
_cell_angle_beta   80.66875306
_cell_angle_gamma   58.50174946
_symmetry_Int_Tables_number   1
_chemical_formula_structural   Ca2AlH10ClO8
_chemical_formula_sum   'Ca4 Al2 H20 Cl2 O16'
_cell_volume   458.77198259
_cell_formula_units_Z   2
loop_
 _symmetry_equiv_pos_site_id
 _symmetry_equiv_pos_as_xyz
  1  'x, y, z'
loop_
 _atom_site_type_symbol
 _atom_site_label
 _atom_site_symmetry_multiplicity
 _atom_site_fract_x
 _atom_site_fract_y
 _atom_site_fract_z
 _atom_site_occupancy
  Ca  Ca0  1  0.15750300  0.65404400  0.53826000  1
  Ca  Ca1  1  0.34595600  0.84249700  0.96174000  1
  Ca  Ca2  1  0.65404400  0.15750300  0.03826000  1
  Ca  Ca3  1  0.84249700  0.34595600  0.46174000  1
  Al  Al0  1  0.00000000  0.50000000  0.00000000  1
  Al  Al1  1  0.50000000  0.00000000  0.50000000  1
  H  H0  1  0.09736800  0.66707400  0.12031700  1
  H  H1  1  0.18277500  0.11444400  0.11900000  1
  H  H2  1  0.61212400  0.61119600  0.11769000  1
  H  H3  1  0.21645400  0.00074700  0.77744800  1
  H  H4  1  0.49355400  0.72129800  0.77655700  1
  H  H5  1  0.27870200  0.50644600  0.72344300  1
  H  H6  1  0.99925300  0.78354600  0.72255200  1
  H  H7  1  0.11444400  0.18277500  0.61900000  1
  H  H8  1  0.61119600  0.61212400  0.61769000  1
  H  H9  1  0.66707400  0.09736800  0.62031700  1
  H  H10  1  0.33292600  0.90263200  0.37968300  1
  H  H11  1  0.38880400  0.38787600  0.38231000  1
  H  H12  1  0.88555600  0.81722500  0.38100000  1
  H  H13  1  0.00074700  0.21645400  0.27744800  1
  H  H14  1  0.72129800  0.49355400  0.27655700  1
  H  H15  1  0.50644600  0.27870200  0.22344300  1
  H  H16  1  0.78354600  0.99925300  0.22255200  1
  H  H17  1  0.38787600  0.38880400  0.88231000  1
  H  H18  1  0.81722500  0.88555600  0.88100000  1
  H  H19  1  0.90263200  0.33292600  0.87968300  1
  Cl  Cl0  1  0.25159800  0.74840200  0.25000000  1
  Cl  Cl1  1  0.74840200  0.25159800  0.75000000  1
  O  O0  1  0.10938700  0.61277700  0.69607100  1
  O  O1  1  0.03708200  0.72959200  0.06396300  1
  O  O2  1  0.23792900  0.16817900  0.06273900  1
  O  O3  1  0.67341800  0.53723600  0.06325300  1
  O  O4  1  0.38722300  0.89061300  0.80392900  1
  O  O5  1  0.16817900  0.23792900  0.56273900  1
  O  O6  1  0.53723600  0.67341800  0.56325300  1
  O  O7  1  0.72959200  0.03708200  0.56396300  1
  O  O8  1  0.27040800  0.96291800  0.43603700  1
  O  O9  1  0.46276400  0.32658200  0.43674700  1
  O  O10  1  0.83182100  0.76207100  0.43726100  1
  O  O11  1  0.61277700  0.10938700  0.19607100  1
  O  O12  1  0.32658200  0.46276400  0.93674700  1
  O  O13  1  0.76207100  0.83182100  0.93726100  1
  O  O14  1  0.96291800  0.27040800  0.93603700  1
  O  O15  1  0.89061300  0.38722300  0.30392900  1
loop_
_geom_bond_atom_site_label_1
_geom_bond_atom_site_label_2
_geom_bond_distance
_geom_bond_site_symmetry_2
Ca0 O7 2.347312 1_465
Ca0 O5 2.359554 1_555
Ca0 O6 2.372070 1_555
Ca0 O9 2.451851 1_555
Ca0 O10 2.465446 1_455
Ca0 O0 2.506011 1_555
Ca0 O8 2.512599 1_555
Ca1 O14 2.347312 1_465
Ca1 O13 2.359554 1_555
Ca1 O12 2.372070 1_555
Ca1 O3 2.451851 1_556
Ca1 O2 2.465446 1_566
Ca1 O4 2.506011 1_555
Ca1 O1 2.512599 1_556
Ca2 O1 2.347312 1_645
Ca2 O2 2.359554 1_555
Ca2 O3 2.372070 1_555
Ca2 O12 2.451851 1_554
Ca2 O13 2.465446 1_544
Ca2 O11 2.506011 1_555
Ca2 O14 2.512599 1_554
Ca3 O8 2.347312 1_645
Ca3 O10 2.359554 1_555
Ca3 O9 2.372070 1_555
Ca3 O6 2.451851 1_555
Ca3 O5 2.465446 1_655
Ca3 O15 2.506011 1_555
Ca3 O7 2.512599 1_555
Al0 O13 1.924042 1_454
Al0 O2 1.924042 1_555
Al0 O12 1.927944 1_554
Al0 O3 1.927944 1_455
Al0 O1 1.929507 1_555
Al0 O14 1.929507 1_454
Al1 O5 1.924042 1_555
Al1 O10 1.924042 1_545
Al1 O9 1.927944 1_555
Al1 O6 1.927944 1_545
Al1 O7 1.929507 1_555
Al1 O8 1.929507 1_545
H0 O1 0.973487 1_555
H1 O2 0.972426 1_555
H2 O3 0.973183 1_555
H3 O4 0.982518 1_545
H4 O4 0.982497 1_555
H5 O0 0.982497 1_555
H6 O0 0.982518 1_655
H7 O5 0.972426 1_555
H8 O6 0.973183 1_555
H9 O7 0.973487 1_555
H10 O8 0.973487 1_555
H11 O9 0.973183 1_555
H12 O10 0.972426 1_555
H13 O15 0.982518 1_455
H14 O15 0.982497 1_555
H15 O11 0.982497 1_555
H16 O11 0.982518 1_565
H17 O12 0.973183 1_555
H18 O13 0.972426 1_555
H19 O14 0.973487 1_555
