# generated using pymatgen
data_Na6Al4Fe(Si4O13)2
_symmetry_space_group_name_H-M   'P 1'
_cell_length_a   8.09312657
_cell_length_b   8.60342902
_cell_length_c   10.60134688
_cell_angle_alpha   110.80118024
_cell_angle_beta   89.87638228
_cell_angle_gamma   117.86027337
_symmetry_Int_Tables_number   1
_chemical_formula_structural   Na6Al4Fe(Si4O13)2
_chemical_formula_sum   'Na6 Al4 Fe1 Si8 O26'
_cell_volume   597.95836526
_cell_formula_units_Z   1
loop_
 _symmetry_equiv_pos_site_id
 _symmetry_equiv_pos_as_xyz
  1  'x, y, z'
loop_
 _atom_site_type_symbol
 _atom_site_label
 _atom_site_symmetry_multiplicity
 _atom_site_fract_x
 _atom_site_fract_y
 _atom_site_fract_z
 _atom_site_occupancy
  Na  Na0  1  0.15714400  0.31698800  0.89127700  1
  Na  Na1  1  0.27812600  0.53989000  0.55748000  1
  Na  Na2  1  0.48084500  0.93207700  0.16529900  1
  Na  Na3  1  0.53931200  0.06700500  0.83411400  1
  Na  Na4  1  0.73696700  0.46012200  0.44268200  1
  Na  Na5  1  0.83735000  0.68347700  0.10877700  1
  Al  Al0  1  0.16021500  0.71210100  0.34766600  1
  Al  Al1  1  0.44698600  0.28807200  0.65122000  1
  Al  Al2  1  0.74874000  0.88101500  0.65736900  1
  Al  Al3  1  0.86933600  0.11929500  0.34476400  1
  Fe  Fe0  1  0.98959600  0.99987900  0.99912900  1
  Si  Si0  1  0.13720700  0.87937400  0.65755700  1
  Si  Si1  1  0.14913300  0.69739300  0.86682600  1
  Si  Si2  1  0.25911100  0.11994800  0.34051700  1
  Si  Si3  1  0.53273600  0.69609800  0.86894800  1
  Si  Si4  1  0.55449700  0.70695300  0.34940800  1
  Si  Si5  1  0.45485400  0.30178800  0.13099700  1
  Si  Si6  1  0.84070200  0.30520300  0.13326200  1
  Si  Si7  1  0.84604100  0.29267400  0.65187900  1
  O  O0  1  0.06281400  0.79675500  0.98170800  1
  O  O1  1  0.06057900  0.72479500  0.49744300  1
  O  O2  1  0.01563700  0.46103200  0.78988800  1
  O  O3  1  0.26084400  0.92469600  0.32045500  1
  O  O4  1  0.19853600  0.77903800  0.74318400  1
  O  O5  1  0.05033800  0.07628000  0.27810600  1
  O  O6  1  0.33543400  0.65026500  0.36581000  1
  O  O7  1  0.35632600  0.73398600  0.93395800  1
  O  O8  1  0.27541300  0.20300100  0.01235700  1
  O  O9  1  0.33774500  0.27551500  0.50055500  1
  O  O10  1  0.57501900  0.78190700  0.74860800  1
  O  O11  1  0.43275100  0.46201900  0.79334100  1
  O  O12  1  0.66419200  0.90301500  0.32343600  1
  O  O13  1  0.33299200  0.07437000  0.67723100  1
  O  O14  1  0.55692400  0.53827700  0.21135300  1
  O  O15  1  0.41870900  0.21774300  0.25332600  1
  O  O16  1  0.66297800  0.71506200  0.48370900  1
  O  O17  1  0.70616900  0.80186800  0.99622200  1
  O  O18  1  0.62838100  0.26614300  0.06616700  1
  O  O19  1  0.68419900  0.34987900  0.63434300  1
  O  O20  1  0.97283700  0.92344200  0.72240800  1
  O  O21  1  0.79678700  0.22156400  0.25479000  1
  O  O22  1  0.75898400  0.09755100  0.67909800  1
  O  O23  1  0.97342600  0.53912400  0.20559300  1
  O  O24  1  0.94891700  0.28422000  0.51849400  1
  O  O25  1  0.91416900  0.19910300  0.00924600  1
loop_
_geom_bond_atom_site_label_1
_geom_bond_atom_site_label_2
_geom_bond_distance
_geom_bond_site_symmetry_2
Na0 O8 2.302661 1_556
Na0 O25 2.342180 1_456
Na0 O11 2.432902 1_555
Na0 O2 2.506106 1_555
Na0 O20 2.807118 1_445
Na1 O9 2.412478 1_555
Na1 O24 2.447336 1_455
Na1 O6 2.490078 1_555
Na1 O10 2.561817 1_555
Na1 O4 2.623023 1_555
Na2 O7 2.317701 1_554
Na2 O12 2.393758 1_555
Na2 O3 2.415708 1_555
Na2 O21 2.453833 1_565
Na2 O15 2.586153 1_565
Na2 O17 2.874417 1_554
Na3 O18 2.316614 1_556
Na3 O13 2.396668 1_555
Na3 O22 2.405807 1_555
Na3 O10 2.450245 1_545
Na3 O4 2.569544 1_545
Na4 O1 2.423884 1_655
Na4 O16 2.430515 1_555
Na4 O19 2.489356 1_555
Na4 O21 2.536799 1_555
Na4 O15 2.653600 1_555
Na5 O0 2.313833 1_654
Na5 O17 2.338336 1_554
Na5 O23 2.448920 1_555
Na5 O14 2.489619 1_555
Na5 O5 2.806154 1_665
Al0 O3 1.753112 1_555
Al0 O23 1.756039 1_455
Al0 O6 1.763492 1_555
Al0 O1 1.771158 1_555
Al1 O13 1.755326 1_555
Al1 O11 1.755531 1_555
Al1 O19 1.764185 1_555
Al1 O9 1.771662 1_555
Al2 O22 1.755408 1_565
Al2 O10 1.760335 1_555
Al2 O20 1.762345 1_555
Al2 O16 1.766924 1_555
Al3 O12 1.756524 1_545
Al3 O5 1.760298 1_655
Al3 O21 1.763538 1_555
Al3 O24 1.764974 1_555
Fe0 O25 2.041819 1_566
Fe0 O0 2.043859 1_655
Fe0 O8 2.115063 1_666
Fe0 O17 2.115526 1_555
O0 Si1 1.586542 1_555
O1 Si0 1.632441 1_555
O2 Si1 1.655320 1_555
O2 Si7 1.663703 1_455
O3 Si2 1.623433 1_565
O4 Si1 1.661499 1_555
O4 Si0 1.665689 1_555
O5 Si2 1.633626 1_555
O6 Si4 1.631578 1_555
O7 Si1 1.664336 1_555
O7 Si3 1.700221 1_555
O8 Si5 1.583767 1_555
O9 Si2 1.634200 1_555
O10 Si3 1.649435 1_555
O11 Si3 1.638959 1_555
O12 Si4 1.624336 1_555
O13 Si0 1.623906 1_545
O14 Si5 1.657974 1_555
O14 Si4 1.663243 1_555
O15 Si5 1.660399 1_555
O15 Si2 1.661978 1_555
O16 Si4 1.637189 1_555
O17 Si3 1.600339 1_555
O18 Si5 1.669533 1_555
O18 Si6 1.693330 1_555
O19 Si7 1.631230 1_555
O20 Si0 1.633501 1_655
O21 Si6 1.649680 1_555
O22 Si7 1.623428 1_555
O23 Si6 1.636788 1_555
O24 Si7 1.636011 1_555
O25 Si6 1.602126 1_555
