# generated using pymatgen
data_ErInPd
_symmetry_space_group_name_H-M   'P 1'
_cell_length_a   7.66277066
_cell_length_b   7.66277130
_cell_length_c   3.75659274
_cell_angle_alpha   90.00000000
_cell_angle_beta   90.00000000
_cell_angle_gamma   119.99999725
_symmetry_Int_Tables_number   1
_chemical_formula_structural   ErInPd
_chemical_formula_sum   'Er3 In3 Pd3'
_cell_volume   191.02774544
_cell_formula_units_Z   3
loop_
 _symmetry_equiv_pos_site_id
 _symmetry_equiv_pos_as_xyz
  1  'x, y, z'
loop_
 _atom_site_type_symbol
 _atom_site_label
 _atom_site_symmetry_multiplicity
 _atom_site_fract_x
 _atom_site_fract_y
 _atom_site_fract_z
 _atom_site_occupancy
  Er  Er0  1  0.40655558  -0.00000000  0.50000000  1
  Er  Er1  1  0.59344442  0.59344442  0.50000000  1
  Er  Er2  1  0.00000000  0.40655558  0.50000000  1
  In  In0  1  0.26195724  0.26195724  0.00000000  1
  In  In1  1  0.73804276  -0.00000000  -0.00000000  1
  In  In2  1  0.00000000  0.73804276  0.00000000  1
  Pd  Pd0  1  -0.00000000  -0.00000000  0.50000000  1
  Pd  Pd1  1  0.66666700  0.33333300  0.00000000  1
  Pd  Pd2  1  0.33333300  0.66666700  -0.00000000  1
loop_
_geom_bond_atom_site_label_1
_geom_bond_atom_site_label_2
_geom_bond_distance
_geom_bond_site_symmetry_2
Er0 Pd2 2.988958 1_546
Er0 Pd2 2.988958 1_545
Er0 Pd1 2.988960 1_555
Er0 Pd1 2.988960 1_556
Er0 Pd0 3.115342 1_555
Er0 In1 3.159139 1_556
Er0 In1 3.159139 1_555
Er0 In0 3.318011 1_555
Er0 In0 3.318011 1_556
Er0 In2 3.318011 1_546
Er0 In2 3.318011 1_545
Er1 Pd2 2.988964 1_555
Er1 Pd2 2.988964 1_556
Er1 Pd1 2.988964 1_555
Er1 Pd1 2.988964 1_556
Er1 Pd0 3.115342 1_665
Er1 In0 3.159139 1_555
Er1 In0 3.159139 1_556
Er1 In2 3.318011 1_656
Er1 In2 3.318011 1_655
Er1 In1 3.318011 1_566
Er1 In1 3.318011 1_565
Er2 Pd1 2.988958 1_456
Er2 Pd1 2.988958 1_455
Er2 Pd2 2.988960 1_556
Er2 Pd2 2.988960 1_555
Er2 Pd0 3.115342 1_555
Er2 In2 3.159139 1_556
Er2 In2 3.159139 1_555
Er2 In0 3.318011 1_555
Er2 In0 3.318011 1_556
Er2 In1 3.318011 1_456
Er2 In1 3.318011 1_455
In0 Pd0 2.749059 1_555
In0 Pd0 2.749059 1_554
In0 Pd1 2.867126 1_555
In0 Pd2 2.867126 1_555
In1 Pd0 2.749059 1_655
In1 Pd0 2.749059 1_654
In1 Pd1 2.867119 1_555
In1 Pd2 2.867123 1_545
In2 Pd0 2.749059 1_565
In2 Pd0 2.749059 1_564
In2 Pd2 2.867118 1_555
In2 Pd1 2.867124 1_455
