# generated using pymatgen
data_AgAsSe2
_symmetry_space_group_name_H-M   'P 1'
_cell_length_a   3.92537372
_cell_length_b   3.92537372
_cell_length_c   6.95631192
_cell_angle_alpha   73.61175159
_cell_angle_beta   73.61175159
_cell_angle_gamma   60.00000477
_symmetry_Int_Tables_number   1
_chemical_formula_structural   AgAsSe2
_chemical_formula_sum   'Ag1 As1 Se2'
_cell_volume   87.76195069
_cell_formula_units_Z   1
loop_
 _symmetry_equiv_pos_site_id
 _symmetry_equiv_pos_as_xyz
  1  'x, y, z'
loop_
 _atom_site_type_symbol
 _atom_site_label
 _atom_site_symmetry_multiplicity
 _atom_site_fract_x
 _atom_site_fract_y
 _atom_site_fract_z
 _atom_site_occupancy
  Ag  Ag0  1  0.50000000  0.50000000  0.50000000  1
  As  As0  1  0.00000000  0.00000000  0.00000000  1
  Se  Se0  1  0.74533600  0.74533600  0.76399200  1
  Se  Se1  1  0.25466400  0.25466400  0.23600800  1
loop_
_geom_bond_atom_site_label_1
_geom_bond_atom_site_label_2
_geom_bond_distance
_geom_bond_site_symmetry_2
Ag0 Se0 2.854933 1_555
Ag0 Se1 2.854933 1_555
Ag0 Se1 2.854933 1_655
Ag0 Se0 2.854933 1_455
Ag0 Se0 2.854933 1_545
Ag0 Se1 2.854933 1_565
As0 Se0 2.746894 1_444
As0 Se1 2.746894 1_555
As0 Se0 2.746895 1_454
As0 Se1 2.746895 1_455
As0 Se1 2.746895 1_545
As0 Se0 2.746895 1_544
