# generated using pymatgen
data_LaSiRu
_symmetry_space_group_name_H-M   'P 1'
_cell_length_a   4.24687700
_cell_length_b   4.24687700
_cell_length_c   7.18989348
_cell_angle_alpha   90.00000000
_cell_angle_beta   90.00000000
_cell_angle_gamma   90.00000000
_symmetry_Int_Tables_number   1
_chemical_formula_structural   LaSiRu
_chemical_formula_sum   'La2 Si2 Ru2'
_cell_volume   129.67666179
_cell_formula_units_Z   2
loop_
 _symmetry_equiv_pos_site_id
 _symmetry_equiv_pos_as_xyz
  1  'x, y, z'
loop_
 _atom_site_type_symbol
 _atom_site_label
 _atom_site_symmetry_multiplicity
 _atom_site_fract_x
 _atom_site_fract_y
 _atom_site_fract_z
 _atom_site_occupancy
  La  La0  1  0.75000000  0.75000000  0.31342031  1
  La  La1  1  0.25000000  0.25000000  0.68657969  1
  Si  Si0  1  0.75000000  0.75000000  0.83727397  1
  Si  Si1  1  0.25000000  0.25000000  0.16272603  1
  Ru  Ru0  1  0.75000000  0.25000000  0.00000000  1
  Ru  Ru1  1  0.25000000  0.75000000  0.00000000  1
loop_
_geom_bond_atom_site_label_1
_geom_bond_atom_site_label_2
_geom_bond_distance
_geom_bond_site_symmetry_2
La0 Ru1 3.096299 1_555
La0 Ru0 3.096299 1_565
La0 Ru0 3.096299 1_555
La0 Ru1 3.096299 1_655
La0 Si1 3.192476 1_565
La0 Si1 3.192476 1_555
La0 Si1 3.192476 1_655
La0 Si1 3.192476 1_665
La0 Si0 3.766452 1_555
La1 Ru0 3.096299 1_556
La1 Ru1 3.096299 1_556
La1 Ru0 3.096299 1_456
La1 Ru1 3.096299 1_546
La1 Si0 3.192476 1_455
La1 Si0 3.192476 1_445
La1 Si0 3.192476 1_555
La1 Si0 3.192476 1_545
La1 Si1 3.766452 1_555
Ru0 Si0 2.424428 1_544
Ru0 Si0 2.424428 1_554
Ru0 Si1 2.424428 1_555
Ru0 Si1 2.424428 1_655
Ru1 Si0 2.424428 1_554
Ru1 Si1 2.424428 1_555
Ru1 Si1 2.424428 1_565
Ru1 Si0 2.424428 1_454
