# generated using pymatgen
data_LaCuSi
_symmetry_space_group_name_H-M   'P 1'
_cell_length_a   4.23738297
_cell_length_b   4.23738218
_cell_length_c   8.28947151
_cell_angle_alpha   90.00000000
_cell_angle_beta   90.00000000
_cell_angle_gamma   119.99999801
_symmetry_Int_Tables_number   1
_chemical_formula_structural   LaCuSi
_chemical_formula_sum   'La2 Cu2 Si2'
_cell_volume   128.89997589
_cell_formula_units_Z   2
loop_
 _symmetry_equiv_pos_site_id
 _symmetry_equiv_pos_as_xyz
  1  'x, y, z'
loop_
 _atom_site_type_symbol
 _atom_site_label
 _atom_site_symmetry_multiplicity
 _atom_site_fract_x
 _atom_site_fract_y
 _atom_site_fract_z
 _atom_site_occupancy
  La  La0  1  0.00000000  -0.00000000  0.50000000  1
  La  La1  1  0.00000000  -0.00000000  0.00000000  1
  Cu  Cu0  1  0.33333300  0.66666700  0.75000000  1
  Cu  Cu1  1  0.66666700  0.33333300  0.25000000  1
  Si  Si0  1  0.66666700  0.33333300  0.75000000  1
  Si  Si1  1  0.33333300  0.66666700  0.25000000  1
loop_
_geom_bond_atom_site_label_1
_geom_bond_atom_site_label_2
_geom_bond_distance
_geom_bond_site_symmetry_2
La0 Si1 3.206218 1_545
La0 Si0 3.206218 1_455
La0 Si1 3.206221 1_555
La0 Si0 3.206221 1_445
La0 Si1 3.206221 1_445
La0 Si0 3.206221 1_555
La1 Si1 3.206218 1_545
La1 Si0 3.206218 1_454
La1 Si1 3.206221 1_555
La1 Si0 3.206221 1_444
La1 Si1 3.206221 1_445
La1 Si0 3.206221 1_554
Cu0 Si0 2.446451 1_565
Cu0 Si0 2.446452 1_455
Cu0 Si0 2.446459 1_555
Cu0 La0 3.206218 1_565
Cu0 La1 3.206218 1_566
Cu0 La1 3.206221 1_556
Cu0 La0 3.206221 1_555
Cu0 La0 3.206221 1_665
Cu0 La1 3.206221 1_666
Cu1 Si1 2.446451 1_545
Cu1 Si1 2.446452 1_655
Cu1 Si1 2.446459 1_555
Cu1 La0 3.206218 1_655
Cu1 La1 3.206218 1_655
Cu1 La0 3.206221 1_665
Cu1 La1 3.206221 1_665
Cu1 La1 3.206221 1_555
Cu1 La0 3.206221 1_555
