# generated using pymatgen
data_SmGa2
_symmetry_space_group_name_H-M   'P 1'
_cell_length_a   4.20996960
_cell_length_b   4.20997051
_cell_length_c   4.25094170
_cell_angle_alpha   90.00000000
_cell_angle_beta   90.00000000
_cell_angle_gamma   119.99999287
_symmetry_Int_Tables_number   1
_chemical_formula_structural   SmGa2
_chemical_formula_sum   'Sm1 Ga2'
_cell_volume   65.24899471
_cell_formula_units_Z   1
loop_
 _symmetry_equiv_pos_site_id
 _symmetry_equiv_pos_as_xyz
  1  'x, y, z'
loop_
 _atom_site_type_symbol
 _atom_site_label
 _atom_site_symmetry_multiplicity
 _atom_site_fract_x
 _atom_site_fract_y
 _atom_site_fract_z
 _atom_site_occupancy
  Sm  Sm0  1  0.00000000  0.00000000  -0.00000000  1
  Ga  Ga0  1  0.33333300  0.66666700  0.50000000  1
  Ga  Ga1  1  0.66666700  0.33333300  0.50000000  1
loop_
_geom_bond_atom_site_label_1
_geom_bond_atom_site_label_2
_geom_bond_distance
_geom_bond_site_symmetry_2
Ga0 Ga1 2.430625 1_455
Ga0 Ga1 2.430625 1_565
Ga0 Ga1 2.430632 1_555
Ga0 Sm0 3.228864 1_565
Ga0 Sm0 3.228864 1_566
Ga0 Sm0 3.228867 1_666
Ga0 Sm0 3.228867 1_665
Ga0 Sm0 3.228867 1_556
Ga0 Sm0 3.228867 1_555
Ga1 Sm0 3.228864 1_656
Ga1 Sm0 3.228864 1_655
Ga1 Sm0 3.228867 1_556
Ga1 Sm0 3.228867 1_555
Ga1 Sm0 3.228867 1_666
Ga1 Sm0 3.228867 1_665
