# generated using pymatgen
data_K2SnH2OF6
_symmetry_space_group_name_H-M   'P 1'
_cell_length_a   9.27133310
_cell_length_b   9.27133310
_cell_length_c   10.61499103
_cell_angle_alpha   68.53906144
_cell_angle_beta   68.53906144
_cell_angle_gamma   94.27708162
_symmetry_Int_Tables_number   1
_chemical_formula_structural   K2SnH2OF6
_chemical_formula_sum   'K8 Sn4 H8 O4 F24'
_cell_volume   767.07580577
_cell_formula_units_Z   4
loop_
 _symmetry_equiv_pos_site_id
 _symmetry_equiv_pos_as_xyz
  1  'x, y, z'
loop_
 _atom_site_type_symbol
 _atom_site_label
 _atom_site_symmetry_multiplicity
 _atom_site_fract_x
 _atom_site_fract_y
 _atom_site_fract_z
 _atom_site_occupancy
  K  K0  1  0.59784000  0.85320000  0.73335300  1
  K  K1  1  0.00438100  0.25530000  0.49850900  1
  K  K2  1  0.74470000  0.99561900  0.00149100  1
  K  K3  1  0.85320000  0.59784000  0.23335300  1
  K  K4  1  0.14680000  0.40216000  0.76664700  1
  K  K5  1  0.25530000  0.00438100  0.99850900  1
  K  K6  1  0.99561900  0.74470000  0.50149100  1
  K  K7  1  0.40216000  0.14680000  0.26664700  1
  Sn  Sn0  1  0.09431000  0.90569000  0.75000000  1
  Sn  Sn1  1  0.34720000  0.65280000  0.25000000  1
  Sn  Sn2  1  0.65280000  0.34720000  0.75000000  1
  Sn  Sn3  1  0.90569000  0.09431000  0.25000000  1
  H  H0  1  0.37609200  0.74152500  0.59782600  1
  H  H1  1  0.25847500  0.62390800  0.90217400  1
  H  H2  1  0.62723200  0.49011700  0.09464400  1
  H  H3  1  0.49011700  0.62723200  0.59464400  1
  H  H4  1  0.50988300  0.37276800  0.40535600  1
  H  H5  1  0.37276800  0.50988300  0.90535600  1
  H  H6  1  0.74152500  0.37609200  0.09782600  1
  H  H7  1  0.62390800  0.25847500  0.40217400  1
  O  O0  1  0.48808800  0.73903900  0.56976500  1
  O  O1  1  0.26096100  0.51191200  0.93023500  1
  O  O2  1  0.73903900  0.48808800  0.06976500  1
  O  O3  1  0.51191200  0.26096100  0.43023500  1
  F  F0  1  0.00245300  0.83461800  0.97211900  1
  F  F1  1  0.30414800  0.90204600  0.76406200  1
  F  F2  1  0.47020500  0.79126800  0.02854500  1
  F  F3  1  0.55299800  0.64790200  0.27007500  1
  F  F4  1  0.13108200  0.10844200  0.22830300  1
  F  F5  1  0.20873200  0.52979500  0.47145500  1
  F  F6  1  0.10844200  0.13108200  0.72830300  1
  F  F7  1  0.35209800  0.44700200  0.22992500  1
  F  F8  1  0.16538200  0.99754700  0.52788100  1
  F  F9  1  0.85639100  0.33552200  0.77532100  1
  F  F10  1  0.09795400  0.69585200  0.73593800  1
  F  F11  1  0.33552200  0.85639100  0.27532100  1
  F  F12  1  0.66447800  0.14360900  0.72467900  1
  F  F13  1  0.90204600  0.30414800  0.26406200  1
  F  F14  1  0.14360900  0.66447800  0.22467900  1
  F  F15  1  0.83461800  0.00245300  0.47211900  1
  F  F16  1  0.64790200  0.55299800  0.77007500  1
  F  F17  1  0.89155800  0.86891800  0.27169700  1
  F  F18  1  0.79126800  0.47020500  0.52854500  1
  F  F19  1  0.86891800  0.89155800  0.77169700  1
  F  F20  1  0.44700200  0.35209800  0.72992500  1
  F  F21  1  0.52979500  0.20873200  0.97145500  1
  F  F22  1  0.69585200  0.09795400  0.23593800  1
  F  F23  1  0.99754700  0.16538200  0.02788100  1
loop_
_geom_bond_atom_site_label_1
_geom_bond_atom_site_label_2
_geom_bond_distance
_geom_bond_site_symmetry_2
K0 O0 2.765542 1_555
K3 O2 2.765542 1_555
K4 O1 2.765542 1_555
K7 O3 2.765542 1_555
H0 O0 0.974529 1_555
H1 O1 0.974529 1_555
H2 O2 0.975123 1_555
H3 O0 0.975123 1_555
H4 O3 0.975123 1_555
H5 O1 0.975123 1_555
H6 O2 0.974529 1_555
H7 O3 0.974529 1_555
F0 Sn0 2.007188 1_555
F0 K3 2.590014 1_456
F0 K5 2.881654 1_565
F0 K2 2.891971 1_456
F1 Sn0 2.006717 1_555
F1 K0 2.714422 1_555
F1 K5 2.875034 1_565
F2 Sn1 2.021474 1_555
F2 K0 2.723498 1_554
F2 K2 2.914890 1_555
F2 K5 2.926870 1_564
F3 Sn1 1.997844 1_555
F3 K3 2.764992 1_555
F3 K2 3.223687 1_555
F4 Sn3 2.005468 1_455
F4 K7 2.707344 1_555
F4 K5 2.835367 1_554
F5 Sn1 2.021474 1_555
F5 K4 2.723498 1_555
F5 K1 2.914890 1_555
F5 K6 2.926870 1_455
F6 Sn0 2.005468 1_545
F6 K4 2.707344 1_555
F6 K1 2.835367 1_555
F7 Sn1 1.997844 1_555
F7 K7 2.764992 1_555
F7 K1 3.223687 1_555
F8 Sn0 2.007188 1_555
F8 K7 2.590014 1_565
F8 K6 2.881654 1_455
F8 K1 2.891971 1_565
F9 Sn2 2.006808 1_555
F9 K4 2.677400 1_655
F9 K2 2.987496 1_546
F9 K1 3.141815 1_655
F10 Sn0 2.006717 1_555
F10 K4 2.714422 1_555
F10 K6 2.875034 1_455
F11 Sn1 2.006808 1_555
F11 K7 2.677400 1_565
F11 K6 2.987496 1_455
F11 K5 3.141815 1_564
F12 Sn2 2.006808 1_555
F12 K0 2.677400 1_545
F12 K1 2.987496 1_655
F12 K2 3.141815 1_546
F13 Sn3 2.006717 1_555
F13 K3 2.714422 1_555
F13 K1 2.875034 1_655
F14 Sn1 2.006808 1_555
F14 K3 2.677400 1_455
F14 K5 2.987496 1_564
F14 K6 3.141815 1_455
F15 Sn3 2.007188 1_555
F15 K0 2.590014 1_545
F15 K1 2.881654 1_655
F15 K6 2.891971 1_545
F16 Sn2 1.997844 1_555
F16 K0 2.764992 1_555
F16 K6 3.223687 1_555
F17 Sn3 2.005468 1_565
F17 K3 2.707344 1_555
F17 K6 2.835367 1_555
F18 Sn2 2.021474 1_555
F18 K3 2.723498 1_555
F18 K6 2.914890 1_555
F18 K1 2.926870 1_655
F19 Sn0 2.005468 1_655
F19 K0 2.707344 1_555
F19 K2 2.835367 1_556
F20 Sn2 1.997844 1_555
F20 K4 2.764992 1_555
F20 K5 3.223687 1_555
F21 Sn2 2.021474 1_555
F21 K7 2.723498 1_556
F21 K5 2.914890 1_555
F21 K2 2.926870 1_546
F22 Sn3 2.006717 1_555
F22 K7 2.714422 1_555
F22 K2 2.875034 1_545
F23 Sn3 2.007188 1_555
F23 K4 2.590014 1_654
F23 K2 2.881654 1_545
F23 K5 2.891971 1_654
