# generated using pymatgen
data_ZnSeO3
_symmetry_space_group_name_H-M   'P 1'
_cell_length_a   5.13579700
_cell_length_b   6.00400900
_cell_length_c   7.81048900
_cell_angle_alpha   90.00000000
_cell_angle_beta   90.00000000
_cell_angle_gamma   90.00000000
_symmetry_Int_Tables_number   1
_chemical_formula_structural   ZnSeO3
_chemical_formula_sum   'Zn4 Se4 O12'
_cell_volume   240.83932921
_cell_formula_units_Z   4
loop_
 _symmetry_equiv_pos_site_id
 _symmetry_equiv_pos_as_xyz
  1  'x, y, z'
loop_
 _atom_site_type_symbol
 _atom_site_label
 _atom_site_symmetry_multiplicity
 _atom_site_fract_x
 _atom_site_fract_y
 _atom_site_fract_z
 _atom_site_occupancy
  Zn  Zn0  1  0.50000000  0.00000000  0.50000000  1
  Zn  Zn1  1  0.00000000  0.50000000  0.50000000  1
  Zn  Zn2  1  0.00000000  0.50000000  0.00000000  1
  Zn  Zn3  1  0.50000000  0.00000000  0.00000000  1
  Se  Se0  1  0.01533400  0.97164300  0.75000000  1
  Se  Se1  1  0.51533400  0.52835700  0.25000000  1
  Se  Se2  1  0.48466600  0.47164300  0.75000000  1
  Se  Se3  1  0.98466600  0.02835700  0.25000000  1
  O  O0  1  0.86635900  0.18886300  0.42188700  1
  O  O1  1  0.36635900  0.31113700  0.57811300  1
  O  O2  1  0.63364100  0.68886300  0.07811300  1
  O  O3  1  0.13364100  0.81113700  0.92188700  1
  O  O4  1  0.13364100  0.81113700  0.57811300  1
  O  O5  1  0.63364100  0.68886300  0.42188700  1
  O  O6  1  0.36635900  0.31113700  0.92188700  1
  O  O7  1  0.86635900  0.18886300  0.07811300  1
  O  O8  1  0.31991800  0.07826200  0.25000000  1
  O  O9  1  0.81991800  0.42173800  0.75000000  1
  O  O10  1  0.18008200  0.57826200  0.25000000  1
  O  O11  1  0.68008200  0.92173800  0.75000000  1
loop_
_geom_bond_atom_site_label_1
_geom_bond_atom_site_label_2
_geom_bond_distance
_geom_bond_site_symmetry_2
O0 Se3 1.760744 1_555
O0 Zn1 2.081583 1_655
O0 Zn0 2.279966 1_555
O1 Se2 1.760744 1_555
O1 Zn0 2.081583 1_555
O1 Zn1 2.279966 1_555
O2 Se1 1.760744 1_555
O2 Zn3 2.081583 1_565
O2 Zn2 2.279966 1_655
O3 Se0 1.760744 1_555
O3 Zn2 2.081583 1_556
O3 Zn3 2.279966 1_566
O4 Se0 1.760744 1_555
O4 Zn1 2.081583 1_555
O4 Zn0 2.279966 1_565
O5 Se1 1.760744 1_555
O5 Zn0 2.081583 1_565
O5 Zn1 2.279966 1_655
O6 Se2 1.760744 1_555
O6 Zn3 2.081583 1_556
O6 Zn2 2.279966 1_556
O7 Se3 1.760744 1_555
O7 Zn2 2.081583 1_655
O7 Zn3 2.279966 1_555
O8 Se3 1.747663 1_455
O8 Zn3 2.211086 1_555
O8 Zn0 2.211086 1_555
O9 Se2 1.747663 1_555
O9 Zn1 2.211086 1_655
O9 Zn2 2.211086 1_656
O10 Se1 1.747663 1_555
O10 Zn1 2.211086 1_555
O10 Zn2 2.211086 1_555
O11 Se0 1.747663 1_655
O11 Zn0 2.211086 1_565
O11 Zn3 2.211086 1_566
