# generated using pymatgen
data_Ga2HgSe4
_symmetry_space_group_name_H-M   'P 1'
_cell_length_a   5.80255655
_cell_length_b   5.80255767
_cell_length_c   6.81112617
_cell_angle_alpha   115.21155299
_cell_angle_beta   115.21156644
_cell_angle_gamma   89.99999890
_symmetry_Int_Tables_number   1
_chemical_formula_structural   Ga2HgSe4
_chemical_formula_sum   'Ga2 Hg1 Se4'
_cell_volume   183.04843408
_cell_formula_units_Z   1
loop_
 _symmetry_equiv_pos_site_id
 _symmetry_equiv_pos_as_xyz
  1  'x, y, z'
loop_
 _atom_site_type_symbol
 _atom_site_label
 _atom_site_symmetry_multiplicity
 _atom_site_fract_x
 _atom_site_fract_y
 _atom_site_fract_z
 _atom_site_occupancy
  Ga  Ga0  1  0.50000000  0.50000000  -0.00000000  1
  Ga  Ga1  1  0.25000000  0.75000000  0.50000000  1
  Hg  Hg0  1  -0.00000000  -0.00000000  -0.00000000  1
  Se  Se0  1  0.86382875  0.87578839  0.27764123  1
  Se  Se1  1  0.41381148  0.40185184  0.27764123  1
  Se  Se2  1  0.12421161  0.58618852  0.72235877  1
  Se  Se3  1  0.59814816  0.13617125  0.72235877  1
loop_
_geom_bond_atom_site_label_1
_geom_bond_atom_site_label_2
_geom_bond_distance
_geom_bond_site_symmetry_2
Ga0 Se0 2.423569 1_555
Ga0 Se2 2.423572 1_554
Ga0 Se3 2.423573 1_554
Ga0 Se1 2.423576 1_555
Ga1 Se2 2.428612 1_555
Ga1 Se0 2.428615 1_455
Ga1 Se1 2.428615 1_555
Ga1 Se3 2.428619 1_565
Hg0 Se1 2.674679 1_555
Hg0 Se3 2.674682 1_454
Hg0 Se2 2.674683 1_544
Hg0 Se0 2.674686 1_445
