# generated using pymatgen
data_BaAl2O4
_symmetry_space_group_name_H-M   'P 1'
_cell_length_a   10.48041768
_cell_length_b   10.48040345
_cell_length_c   8.80613536
_cell_angle_alpha   90.00005046
_cell_angle_beta   90.00012441
_cell_angle_gamma   120.00004017
_symmetry_Int_Tables_number   1
_chemical_formula_structural   BaAl2O4
_chemical_formula_sum   'Ba8 Al16 O32'
_cell_volume   837.66892581
_cell_formula_units_Z   8
loop_
 _symmetry_equiv_pos_site_id
 _symmetry_equiv_pos_as_xyz
  1  'x, y, z'
loop_
 _atom_site_type_symbol
 _atom_site_label
 _atom_site_symmetry_multiplicity
 _atom_site_fract_x
 _atom_site_fract_y
 _atom_site_fract_z
 _atom_site_occupancy
  Ba  Ba0  1  0.49329168  0.99272681  0.75852495  1
  Ba  Ba1  1  0.50056661  0.49329662  0.25852462  1
  Ba  Ba2  1  0.99273497  0.49943581  0.25852565  1
  Ba  Ba3  1  0.00726557  0.50056311  0.75852282  1
  Ba  Ba4  1  0.49943542  0.50670687  0.75852458  1
  Ba  Ba5  1  0.50670296  0.00727125  0.25852586  1
  Ba  Ba6  1  0.00000353  0.00000019  0.74511863  1
  Ba  Ba7  1  -0.00000382  -0.00000051  0.24512364  1
  Al  Al0  1  0.66665627  0.33333116  0.04808133  1
  Al  Al1  1  0.33334512  0.66667059  0.54807838  1
  Al  Al2  1  0.66665794  0.33332721  0.44814862  1
  Al  Al3  1  0.33333969  0.66667106  0.94815178  1
  Al  Al4  1  0.84592663  0.67185949  0.95080245  1
  Al  Al5  1  0.17406517  0.84592379  0.45080637  1
  Al  Al6  1  0.67185738  0.82593288  0.45080422  1
  Al  Al7  1  0.32814562  0.17406729  0.95080416  1
  Al  Al8  1  0.82593100  0.15407484  0.95080653  1
  Al  Al9  1  0.15407157  0.32813791  0.45080091  1
  Al  Al10  1  0.84447044  0.66881579  0.56405660  1
  Al  Al11  1  0.17565120  0.84447365  0.06405997  1
  Al  Al12  1  0.66882096  0.82434503  0.06406347  1
  Al  Al13  1  0.33117977  0.17565401  0.56406001  1
  Al  Al14  1  0.82434853  0.15552574  0.56406175  1
  Al  Al15  1  0.15553046  0.33118312  0.06405726  1
  O  O0  1  0.66666583  0.33332991  0.24805754  1
  O  O1  1  0.33333548  0.66667188  0.74805780  1
  O  O2  1  0.88685009  0.67846011  0.75739227  1
  O  O3  1  0.20839146  0.88684945  0.25738689  1
  O  O4  1  0.67845336  0.79160554  0.25738909  1
  O  O5  1  0.32155158  0.20839967  0.75738779  1
  O  O6  1  0.79160105  0.11315093  0.75738771  1
  O  O7  1  0.11315092  0.32153536  0.25739159  1
  O  O8  1  0.81964266  0.49910900  0.50302283  1
  O  O9  1  0.32054969  0.81965893  0.00303614  1
  O  O10  1  0.49911097  0.67946545  0.00303107  1
  O  O11  1  0.50088943  0.32053695  0.50302782  1
  O  O12  1  0.67944942  0.18033885  0.50303202  1
  O  O13  1  0.18036012  0.50089142  0.00302511  1
  O  O14  1  0.50276025  0.81700097  0.49086980  1
  O  O15  1  0.68576054  0.50276298  0.99087508  1
  O  O16  1  0.81699826  0.31424369  0.99088517  1
  O  O17  1  0.18300394  0.68576045  0.49087927  1
  O  O18  1  0.31423527  0.49723497  0.49087273  1
  O  O19  1  0.49724260  0.18300072  0.99087371  1
  O  O20  1  0.31365842  0.00054863  0.54506604  1
  O  O21  1  0.31310439  0.31364801  0.04506094  1
  O  O22  1  0.00054965  0.68689315  0.04506053  1
  O  O23  1  0.99945183  0.31310830  0.54505922  1
  O  O24  1  0.17830168  0.99698715  0.98077797  1
  O  O25  1  0.18130633  0.17829021  0.48078455  1
  O  O26  1  0.99697972  0.81869787  0.48078731  1
  O  O27  1  0.00301887  0.18130093  0.98078454  1
  O  O28  1  0.81869430  0.82171011  0.98078314  1
  O  O29  1  0.82170094  0.00301068  0.48078591  1
  O  O30  1  0.68634108  0.99945206  0.04507161  1
  O  O31  1  0.68689620  0.68635097  0.54506324  1
loop_
_geom_bond_atom_site_label_1
_geom_bond_atom_site_label_2
_geom_bond_distance
_geom_bond_site_symmetry_2
Ba0 O20 2.690500 1_565
Ba0 O6 2.724257 1_565
Ba0 O9 2.814259 1_556
Ba0 O19 2.842932 1_565
Ba0 O1 2.960980 1_555
Ba0 O12 2.983036 1_565
Ba0 O14 3.023220 1_555
Ba0 O30 3.212977 1_556
Ba1 O21 2.690609 1_555
Ba1 O4 2.724251 1_555
Ba1 O11 2.814311 1_555
Ba1 O18 2.842948 1_555
Ba1 O0 2.961083 1_555
Ba1 O10 2.983118 1_555
Ba1 O15 3.023191 1_554
Ba1 O31 3.212952 1_555
Ba2 O22 2.690582 1_655
Ba2 O7 2.724333 1_655
Ba2 O8 2.814326 1_555
Ba2 O17 2.842947 1_655
Ba2 O0 2.961113 1_555
Ba2 O13 2.983173 1_655
Ba2 O16 3.023141 1_554
Ba2 O23 3.212883 1_555
Ba3 O23 2.690555 1_455
Ba3 O2 2.724296 1_455
Ba3 O13 2.814365 1_556
Ba3 O16 2.842987 1_455
Ba3 O1 2.961120 1_555
Ba3 O8 2.983152 1_455
Ba3 O17 3.023194 1_555
Ba3 O22 3.212922 1_556
Ba4 O31 2.690581 1_555
Ba4 O5 2.724233 1_555
Ba4 O10 2.814329 1_556
Ba4 O15 2.842932 1_555
Ba4 O1 2.961074 1_555
Ba4 O11 2.983138 1_555
Ba4 O18 3.023224 1_555
Ba4 O21 3.212966 1_556
Ba5 O30 2.690503 1_545
Ba5 O3 2.724280 1_545
Ba5 O12 2.814231 1_555
Ba5 O14 2.842906 1_545
Ba5 O0 2.961014 1_555
Ba5 O9 2.982991 1_545
Ba5 O19 3.023197 1_554
Ba5 O20 3.212916 1_555
Ba6 O27 2.803255 1_555
Ba6 O24 2.803294 1_545
Ba6 O28 2.803298 1_445
Ba6 O2 2.962724 1_445
Ba6 O5 2.962812 1_555
Ba6 O6 2.962861 1_455
Ba6 O26 2.994929 1_445
Ba6 O25 2.994993 1_555
Ba6 O29 2.995053 1_455
Ba7 O26 2.803245 1_445
Ba7 O25 2.803272 1_555
Ba7 O29 2.803291 1_455
Ba7 O7 2.962678 1_555
Ba7 O4 2.962760 1_445
Ba7 O3 2.962783 1_545
Ba7 O27 2.994983 1_554
Ba7 O28 2.995023 1_444
Ba7 O24 2.995173 1_544
Al0 O19 1.758172 1_554
Al0 O15 1.758265 1_554
Al0 O16 1.758287 1_554
Al0 O0 1.761018 1_555
Al1 O14 1.758186 1_555
Al1 O18 1.758277 1_555
Al1 O17 1.758299 1_555
Al1 O1 1.761046 1_555
Al2 O11 1.742680 1_555
Al2 O8 1.742767 1_555
Al2 O12 1.742796 1_555
Al2 O0 1.762029 1_555
Al3 O10 1.742688 1_556
Al3 O13 1.742732 1_556
Al3 O9 1.742785 1_556
Al3 O1 1.762055 1_555
Al4 O2 1.749271 1_555
Al4 O28 1.750955 1_555
Al4 O22 1.756286 1_656
Al4 O15 1.762985 1_555
Al5 O3 1.749357 1_555
Al5 O26 1.751008 1_455
Al5 O20 1.756315 1_565
Al5 O17 1.763003 1_555
Al6 O4 1.749315 1_555
Al6 O29 1.750895 1_565
Al6 O31 1.756249 1_555
Al6 O14 1.762974 1_555
Al7 O5 1.749335 1_555
Al7 O24 1.750902 1_545
Al7 O21 1.756241 1_556
Al7 O19 1.762970 1_555
Al8 O6 1.749349 1_555
Al8 O27 1.751027 1_655
Al8 O30 1.756318 1_546
Al8 O16 1.763035 1_555
Al9 O7 1.749253 1_555
Al9 O25 1.750945 1_555
Al9 O23 1.756276 1_455
Al9 O18 1.762973 1_555
Al10 O26 1.746198 1_555
Al10 O8 1.748480 1_555
Al10 O2 1.749639 1_555
Al10 O31 1.758553 1_555
Al11 O24 1.746176 1_554
Al11 O9 1.748570 1_555
Al11 O3 1.749561 1_555
Al11 O22 1.758536 1_555
Al12 O28 1.746195 1_554
Al12 O10 1.748498 1_555
Al12 O4 1.749544 1_555
Al12 O30 1.758591 1_555
Al13 O25 1.746181 1_555
Al13 O11 1.748511 1_555
Al13 O5 1.749570 1_555
Al13 O20 1.758570 1_555
Al14 O29 1.746180 1_555
Al14 O12 1.748580 1_555
Al14 O6 1.749559 1_555
Al14 O23 1.758560 1_555
Al15 O27 1.746218 1_554
Al15 O13 1.748485 1_555
Al15 O7 1.749627 1_555
Al15 O21 1.758553 1_555
