# generated using pymatgen
data_Os
_symmetry_space_group_name_H-M   'P 1'
_cell_length_a   5.49226786
_cell_length_b   5.49226907
_cell_length_c   8.65262844
_cell_angle_alpha   90.00000000
_cell_angle_beta   90.00000000
_cell_angle_gamma   119.99999285
_symmetry_Int_Tables_number   1
_chemical_formula_structural   Os
_chemical_formula_sum   Os16
_cell_volume   226.03840431
_cell_formula_units_Z   16
loop_
 _symmetry_equiv_pos_site_id
 _symmetry_equiv_pos_as_xyz
  1  'x, y, z'
loop_
 _atom_site_type_symbol
 _atom_site_label
 _atom_site_symmetry_multiplicity
 _atom_site_fract_x
 _atom_site_fract_y
 _atom_site_fract_z
 _atom_site_occupancy
  Os  Os0_0  1  0.16666650  0.33333350  0.12500000  1
  Os  Os0_1  1  0.16666650  0.33333350  0.62500000  1
  Os  Os0_2  1  0.16666650  0.83333350  0.12500000  1
  Os  Os0_3  1  0.16666650  0.83333350  0.62500000  1
  Os  Os0_4  1  0.66666650  0.33333350  0.12500000  1
  Os  Os0_5  1  0.66666650  0.33333350  0.62500000  1
  Os  Os0_6  1  0.66666650  0.83333350  0.12500000  1
  Os  Os0_7  1  0.66666650  0.83333350  0.62500000  1
  Os  Os1_0  1  0.33333350  0.16666650  0.37500000  1
  Os  Os1_1  1  0.33333350  0.16666650  0.87500000  1
  Os  Os1_2  1  0.33333350  0.66666650  0.37500000  1
  Os  Os1_3  1  0.33333350  0.66666650  0.87500000  1
  Os  Os1_4  1  0.83333350  0.16666650  0.37500000  1
  Os  Os1_5  1  0.83333350  0.16666650  0.87500000  1
  Os  Os1_6  1  0.83333350  0.66666650  0.37500000  1
  Os  Os1_7  1  0.83333350  0.66666650  0.87500000  1
loop_
_geom_bond_atom_site_label_1
_geom_bond_atom_site_label_2
_geom_bond_distance
_geom_bond_site_symmetry_2
Os0_0 Os1_4 2.681976 1_455
Os0_0 Os1_5 2.681976 1_454
Os0_0 Os1_3 2.681976 1_554
Os0_0 Os1_2 2.681976 1_555
Os0_0 Os1_0 2.681979 1_555
Os0_0 Os1_1 2.681979 1_554
Os0_0 Os0_4 2.746134 1_555
Os0_0 Os0_4 2.746134 1_455
Os0_0 Os0_6 2.746135 1_555
Os0_0 Os0_6 2.746135 1_445
Os0_0 Os0_2 2.746135 1_545
Os0_0 Os0_2 2.746135 1_555
Os0_1 Os1_4 2.681976 1_455
Os0_1 Os1_5 2.681976 1_455
Os0_1 Os1_3 2.681976 1_555
Os0_1 Os1_2 2.681976 1_555
Os0_1 Os1_0 2.681979 1_555
Os0_1 Os1_1 2.681979 1_555
Os0_1 Os0_5 2.746134 1_555
Os0_1 Os0_5 2.746134 1_455
Os0_1 Os0_7 2.746135 1_555
Os0_1 Os0_7 2.746135 1_445
Os0_1 Os0_3 2.746135 1_555
Os0_1 Os0_3 2.746135 1_545
Os0_2 Os1_6 2.681976 1_455
Os0_2 Os1_7 2.681976 1_454
Os0_2 Os1_0 2.681976 1_565
Os0_2 Os1_1 2.681976 1_564
Os0_2 Os1_3 2.681979 1_554
Os0_2 Os1_2 2.681979 1_555
Os0_2 Os0_6 2.746134 1_555
Os0_2 Os0_6 2.746134 1_455
Os0_2 Os0_4 2.746135 1_565
Os0_2 Os0_4 2.746135 1_455
Os0_3 Os1_6 2.681976 1_455
Os0_3 Os1_7 2.681976 1_455
Os0_3 Os1_0 2.681976 1_565
Os0_3 Os1_1 2.681976 1_565
Os0_3 Os1_2 2.681979 1_555
Os0_3 Os1_3 2.681979 1_555
Os0_3 Os0_7 2.746134 1_555
Os0_3 Os0_7 2.746134 1_455
Os0_3 Os0_5 2.746135 1_455
Os0_3 Os0_5 2.746135 1_565
Os0_4 Os1_1 2.681976 1_554
Os0_4 Os1_0 2.681976 1_555
Os0_4 Os1_6 2.681976 1_555
Os0_4 Os1_7 2.681976 1_554
Os0_4 Os1_5 2.681979 1_554
Os0_4 Os1_4 2.681979 1_555
Os0_4 Os0_6 2.746135 1_555
Os0_4 Os0_6 2.746135 1_545
Os0_5 Os1_0 2.681976 1_555
Os0_5 Os1_1 2.681976 1_555
Os0_5 Os1_6 2.681976 1_555
Os0_5 Os1_7 2.681976 1_555
Os0_5 Os1_5 2.681979 1_555
Os0_5 Os1_4 2.681979 1_555
Os0_5 Os0_7 2.746135 1_555
Os0_5 Os0_7 2.746135 1_545
Os0_6 Os1_3 2.681976 1_554
Os0_6 Os1_2 2.681976 1_555
Os0_6 Os1_5 2.681976 1_564
Os0_6 Os1_4 2.681976 1_565
Os0_6 Os1_6 2.681979 1_555
Os0_6 Os1_7 2.681979 1_554
Os0_7 Os1_3 2.681976 1_555
Os0_7 Os1_2 2.681976 1_555
Os0_7 Os1_5 2.681976 1_565
Os0_7 Os1_4 2.681976 1_565
Os0_7 Os1_6 2.681979 1_555
Os0_7 Os1_7 2.681979 1_555
Os1_0 Os1_4 2.746134 1_455
Os1_0 Os1_4 2.746134 1_555
Os1_0 Os1_6 2.746135 1_445
Os1_0 Os1_6 2.746135 1_555
Os1_0 Os1_2 2.746135 1_545
Os1_0 Os1_2 2.746135 1_555
Os1_1 Os1_5 2.746134 1_455
Os1_1 Os1_5 2.746134 1_555
Os1_1 Os1_7 2.746135 1_445
Os1_1 Os1_7 2.746135 1_555
Os1_1 Os1_3 2.746135 1_555
Os1_1 Os1_3 2.746135 1_545
Os1_2 Os1_6 2.746134 1_455
Os1_2 Os1_6 2.746134 1_555
Os1_2 Os1_4 2.746135 1_455
Os1_2 Os1_4 2.746135 1_565
Os1_3 Os1_7 2.746134 1_555
Os1_3 Os1_7 2.746134 1_455
Os1_3 Os1_5 2.746135 1_455
Os1_3 Os1_5 2.746135 1_565
Os1_4 Os1_6 2.746135 1_545
Os1_4 Os1_6 2.746135 1_555
Os1_5 Os1_7 2.746135 1_545
Os1_5 Os1_7 2.746135 1_555
