# generated using pymatgen
data_BaYMnCoO5
_symmetry_space_group_name_H-M   'P 1'
_cell_length_a   5.55967000
_cell_length_b   5.55967000
_cell_length_c   7.78633100
_cell_angle_alpha   90.00000000
_cell_angle_beta   90.00000000
_cell_angle_gamma   90.00000000
_symmetry_Int_Tables_number   1
_chemical_formula_structural   BaYMnCoO5
_chemical_formula_sum   'Ba2 Y2 Mn2 Co2 O10'
_cell_volume   240.67495013
_cell_formula_units_Z   2
loop_
 _symmetry_equiv_pos_site_id
 _symmetry_equiv_pos_as_xyz
  1  'x, y, z'
loop_
 _atom_site_type_symbol
 _atom_site_label
 _atom_site_symmetry_multiplicity
 _atom_site_fract_x
 _atom_site_fract_y
 _atom_site_fract_z
 _atom_site_occupancy
  Ba  Ba0  1  0.50000000  0.50000000  0.00000000  1
  Ba  Ba1  1  0.00000000  0.00000000  0.00000000  1
  Y  Y0  1  0.50000000  0.50000000  0.50000000  1
  Y  Y1  1  0.00000000  0.00000000  0.50000000  1
  Mn  Mn0  1  0.50000000  0.00000000  0.73316000  1
  Mn  Mn1  1  0.00000000  0.50000000  0.26684000  1
  Co  Co0  1  0.50000000  0.00000000  0.26546700  1
  Co  Co1  1  0.00000000  0.50000000  0.73453300  1
  O  O0  1  0.50000000  0.00000000  0.99744000  1
  O  O1  1  0.75399200  0.74600800  0.31698200  1
  O  O2  1  0.74600800  0.75399200  0.68301800  1
  O  O3  1  0.75399200  0.25399200  0.31698200  1
  O  O4  1  0.74600800  0.24600800  0.68301800  1
  O  O5  1  0.00000000  0.50000000  0.00256000  1
  O  O6  1  0.24600800  0.74600800  0.31698200  1
  O  O7  1  0.25399200  0.75399200  0.68301800  1
  O  O8  1  0.24600800  0.25399200  0.31698200  1
  O  O9  1  0.25399200  0.24600800  0.68301800  1
loop_
_geom_bond_atom_site_label_1
_geom_bond_atom_site_label_2
_geom_bond_distance
_geom_bond_site_symmetry_2
Ba0 O0 2.779906 1_564
Ba0 O5 2.779906 1_655
Ba0 O5 2.779906 1_555
Ba0 O0 2.779906 1_554
Ba0 O7 3.155373 1_554
Ba0 O4 3.155373 1_554
Ba0 O1 3.155373 1_555
Ba0 O2 3.155373 1_554
Ba0 O9 3.155373 1_554
Ba0 O8 3.155373 1_555
Ba0 O3 3.155373 1_555
Ba0 O6 3.155373 1_555
Ba1 O5 2.779906 1_555
Ba1 O0 2.779906 1_554
Ba1 O0 2.779906 1_454
Ba1 O5 2.779906 1_545
Ba1 O6 3.155373 1_545
Ba1 O9 3.155373 1_554
Ba1 O7 3.155373 1_544
Ba1 O1 3.155373 1_445
Ba1 O3 3.155373 1_455
Ba1 O4 3.155373 1_454
Ba1 O8 3.155373 1_555
Ba1 O2 3.155373 1_444
Mn0 O9 1.973262 1_555
Mn0 O4 1.973262 1_555
Mn0 O7 1.973262 1_545
Mn0 O2 1.973262 1_545
Mn0 O0 2.057772 1_555
Mn1 O1 1.973262 1_455
Mn1 O8 1.973262 1_555
Mn1 O3 1.973262 1_455
Mn1 O6 1.973262 1_555
Mn1 O5 2.057772 1_555
Co0 O3 2.036912 1_555
Co0 O1 2.036912 1_545
Co0 O8 2.036912 1_555
Co0 O6 2.036912 1_545
Co0 O0 2.086947 1_554
Co1 O9 2.036912 1_555
Co1 O4 2.036912 1_455
Co1 O7 2.036912 1_555
Co1 O2 2.036912 1_455
Co1 O5 2.086947 1_556
O1 Y0 2.428057 1_555
O1 Y1 2.428057 1_665
O2 Y0 2.428057 1_555
O2 Y1 2.428057 1_665
O3 Y0 2.428057 1_555
O3 Y1 2.428057 1_655
O4 Y0 2.428057 1_555
O4 Y1 2.428057 1_655
O6 Y1 2.428057 1_565
O6 Y0 2.428057 1_555
O7 Y1 2.428057 1_565
O7 Y0 2.428057 1_555
O8 Y0 2.428057 1_555
O8 Y1 2.428057 1_555
O9 Y0 2.428057 1_555
O9 Y1 2.428057 1_555
