# generated using pymatgen
data_Er(MnSi)2
_symmetry_space_group_name_H-M   'P 1'
_cell_length_a   3.85399109
_cell_length_b   3.85398989
_cell_length_c   5.88331591
_cell_angle_alpha   109.09972804
_cell_angle_beta   109.09976611
_cell_angle_gamma   89.95555703
_symmetry_Int_Tables_number   1
_chemical_formula_structural   Er(MnSi)2
_chemical_formula_sum   'Er1 Mn2 Si2'
_cell_volume   77.47514776
_cell_formula_units_Z   1
loop_
 _symmetry_equiv_pos_site_id
 _symmetry_equiv_pos_as_xyz
  1  'x, y, z'
loop_
 _atom_site_type_symbol
 _atom_site_label
 _atom_site_symmetry_multiplicity
 _atom_site_fract_x
 _atom_site_fract_y
 _atom_site_fract_z
 _atom_site_occupancy
  Er  Er0  1  0.00000002  -0.00000002  -0.00000001  1
  Mn  Mn0  1  0.24975154  0.75024718  0.49999999  1
  Mn  Mn1  1  0.75024967  0.24975191  0.50000020  1
  Si  Si0  1  0.61665125  0.61665224  0.23310323  1
  Si  Si1  1  0.38334752  0.38334868  0.76689659  1
loop_
_geom_bond_atom_site_label_1
_geom_bond_atom_site_label_2
_geom_bond_distance
_geom_bond_site_symmetry_2
Er0 Si0 2.983153 1_545
Er0 Si1 2.983154 1_544
Er0 Si1 2.983159 1_454
Er0 Si0 2.983159 1_455
Er0 Si1 2.983568 1_554
Er0 Si0 2.983568 1_445
Er0 Si0 2.986604 1_555
Er0 Si1 2.986605 1_444
Mn0 Si0 2.376909 1_455
Mn0 Si1 2.376913 1_565
Mn0 Si1 2.377612 1_555
Mn0 Si0 2.377618 1_555
Mn1 Si1 2.376901 1_655
Mn1 Si0 2.376908 1_545
Mn1 Si0 2.377620 1_555
Mn1 Si1 2.377624 1_555
Si0 Si1 2.431757 1_554
