# generated using pymatgen
data_BaTaS3
_symmetry_space_group_name_H-M   'P 1'
_cell_length_a   6.94578854
_cell_length_b   6.94578884
_cell_length_c   5.70673887
_cell_angle_alpha   90.00000000
_cell_angle_beta   90.00000000
_cell_angle_gamma   119.99999354
_symmetry_Int_Tables_number   1
_chemical_formula_structural   BaTaS3
_chemical_formula_sum   'Ba2 Ta2 S6'
_cell_volume   238.43049139
_cell_formula_units_Z   2
loop_
 _symmetry_equiv_pos_site_id
 _symmetry_equiv_pos_as_xyz
  1  'x, y, z'
loop_
 _atom_site_type_symbol
 _atom_site_label
 _atom_site_symmetry_multiplicity
 _atom_site_fract_x
 _atom_site_fract_y
 _atom_site_fract_z
 _atom_site_occupancy
  Ba  Ba0  1  0.33333300  0.66666700  0.75000000  1
  Ba  Ba1  1  0.66666700  0.33333300  0.25000000  1
  Ta  Ta0  1  0.00000000  0.00000000  0.00000000  1
  Ta  Ta1  1  0.00000000  0.00000000  0.50000000  1
  S  S0  1  0.66175770  0.83087885  0.25000000  1
  S  S1  1  0.83087885  0.66175770  0.75000000  1
  S  S2  1  0.16912115  0.33824230  0.25000000  1
  S  S3  1  0.83087885  0.16912115  0.75000000  1
  S  S4  1  0.33824230  0.16912115  0.75000000  1
  S  S5  1  0.16912115  0.83087885  0.25000000  1
loop_
_geom_bond_atom_site_label_1
_geom_bond_atom_site_label_2
_geom_bond_distance
_geom_bond_site_symmetry_2
Ba0 S5 3.470517 1_556
Ba0 S5 3.470517 1_555
Ba0 S0 3.470521 1_555
Ba0 S0 3.470521 1_556
Ba0 S2 3.470521 1_555
Ba0 S2 3.470521 1_556
Ba0 S1 3.473016 1_455
Ba0 S4 3.473016 1_565
Ba0 S3 3.473020 1_455
Ba0 S3 3.473020 1_565
Ba0 S1 3.473023 1_555
Ba0 S4 3.473023 1_555
Ba1 S3 3.470517 1_555
Ba1 S3 3.470517 1_554
Ba1 S4 3.470521 1_555
Ba1 S4 3.470521 1_554
Ba1 S1 3.470521 1_554
Ba1 S1 3.470521 1_555
Ba1 S2 3.473016 1_655
Ba1 S0 3.473016 1_545
Ba1 S5 3.473020 1_655
Ba1 S5 3.473020 1_545
Ba1 S2 3.473023 1_555
Ba1 S0 3.473023 1_555
S0 Ta0 2.484964 1_665
S0 Ta1 2.484964 1_665
S1 Ta0 2.484964 1_666
S1 Ta1 2.484964 1_665
S2 Ta1 2.484964 1_555
S2 Ta0 2.484964 1_555
S3 Ta0 2.484964 1_656
S3 Ta1 2.484964 1_655
S4 Ta0 2.484964 1_556
S4 Ta1 2.484964 1_555
S5 Ta0 2.484964 1_565
S5 Ta1 2.484964 1_565
