# generated using pymatgen
data_Li2BeF4
_symmetry_space_group_name_H-M   'P 1'
_cell_length_a   8.18411882
_cell_length_b   8.18411848
_cell_length_c   8.18411843
_cell_angle_alpha   107.79954797
_cell_angle_beta   107.79954824
_cell_angle_gamma   107.79954848
_symmetry_Int_Tables_number   1
_chemical_formula_structural   Li2BeF4
_chemical_formula_sum   'Li12 Be6 F24'
_cell_volume   446.19029504
_cell_formula_units_Z   6
loop_
 _symmetry_equiv_pos_site_id
 _symmetry_equiv_pos_as_xyz
  1  'x, y, z'
loop_
 _atom_site_type_symbol
 _atom_site_label
 _atom_site_symmetry_multiplicity
 _atom_site_fract_x
 _atom_site_fract_y
 _atom_site_fract_z
 _atom_site_occupancy
  Li  Li0  1  0.27693690  0.10170791  0.87671488  1
  Li  Li1  1  0.10170791  0.87671488  0.27693690  1
  Li  Li2  1  0.87671488  0.27693690  0.10170791  1
  Li  Li3  1  0.72306310  0.89829209  0.12328512  1
  Li  Li4  1  0.89829209  0.12328512  0.72306310  1
  Li  Li5  1  0.12328512  0.72306310  0.89829209  1
  Li  Li6  1  0.61263874  0.43858915  0.20487438  1
  Li  Li7  1  0.43858915  0.20487438  0.61263874  1
  Li  Li8  1  0.20487438  0.61263874  0.43858915  1
  Li  Li9  1  0.38736126  0.56141085  0.79512562  1
  Li  Li10  1  0.56141085  0.79512562  0.38736126  1
  Li  Li11  1  0.79512562  0.38736126  0.56141085  1
  Be  Be0  1  0.94757163  0.76603530  0.53914108  1
  Be  Be1  1  0.76603530  0.53914108  0.94757163  1
  Be  Be2  1  0.53914108  0.94757163  0.76603530  1
  Be  Be3  1  0.05242837  0.23396470  0.46085892  1
  Be  Be4  1  0.23396470  0.46085892  0.05242837  1
  Be  Be5  1  0.46085892  0.05242837  0.23396470  1
  F  F0  1  0.60294128  0.26627305  0.31148150  1
  F  F1  1  0.31148150  0.60294128  0.26627305  1
  F  F2  1  0.26627305  0.31148150  0.60294128  1
  F  F3  1  0.39705872  0.73372695  0.68851850  1
  F  F4  1  0.68851850  0.39705872  0.73372695  1
  F  F5  1  0.73372695  0.68851850  0.39705872  1
  F  F6  1  0.02523764  0.97356371  0.69223916  1
  F  F7  1  0.97356371  0.69223916  0.02523764  1
  F  F8  1  0.69223916  0.02523764  0.97356371  1
  F  F9  1  0.97476236  0.02643629  0.30776084  1
  F  F10  1  0.02643629  0.30776084  0.97476236  1
  F  F11  1  0.30776084  0.97476236  0.02643629  1
  F  F12  1  0.07059571  0.75677658  0.42811302  1
  F  F13  1  0.75677658  0.42811302  0.07059571  1
  F  F14  1  0.42811302  0.07059571  0.75677658  1
  F  F15  1  0.92940429  0.24322342  0.57188698  1
  F  F16  1  0.24322342  0.57188698  0.92940429  1
  F  F17  1  0.57188698  0.92940429  0.24322342  1
  F  F18  1  0.96420614  0.63681126  0.64342031  1
  F  F19  1  0.63681126  0.64342031  0.96420614  1
  F  F20  1  0.64342031  0.96420614  0.63681126  1
  F  F21  1  0.03579386  0.36318874  0.35657969  1
  F  F22  1  0.36318874  0.35657969  0.03579386  1
  F  F23  1  0.35657969  0.03579386  0.36318874  1
loop_
_geom_bond_atom_site_label_1
_geom_bond_atom_site_label_2
_geom_bond_distance
_geom_bond_site_symmetry_2
Be0 F12 1.552108 1_655
Be0 F6 1.552626 1_655
Be0 F18 1.560184 1_555
Be0 F5 1.563188 1_555
Be1 F13 1.552108 1_556
Be1 F7 1.552626 1_556
Be1 F19 1.560184 1_555
Be1 F4 1.563188 1_555
Be2 F14 1.552108 1_565
Be2 F8 1.552626 1_565
Be2 F20 1.560184 1_555
Be2 F3 1.563188 1_555
Be3 F15 1.552108 1_455
Be3 F9 1.552626 1_455
Be3 F21 1.560184 1_555
Be3 F2 1.563188 1_555
Be4 F16 1.552108 1_554
Be4 F10 1.552626 1_554
Be4 F22 1.560184 1_555
Be4 F1 1.563188 1_555
Be5 F17 1.552108 1_545
Be5 F11 1.552626 1_545
Be5 F23 1.560184 1_555
Be5 F0 1.563188 1_555
F0 Li11 1.865658 1_555
F0 Li6 1.866148 1_555
F1 Li10 1.865658 1_555
F1 Li8 1.866148 1_555
F2 Li9 1.865658 1_555
F2 Li7 1.866148 1_555
F3 Li8 1.865658 1_555
F3 Li9 1.866148 1_555
F4 Li7 1.865658 1_555
F4 Li11 1.866148 1_555
F5 Li6 1.865658 1_555
F5 Li10 1.866148 1_555
F6 Li4 1.842293 1_465
F6 Li0 1.852674 1_565
F7 Li5 1.842293 1_654
F7 Li1 1.852674 1_655
F8 Li3 1.842293 1_546
F8 Li2 1.852674 1_556
F9 Li1 1.842293 1_645
F9 Li3 1.852674 1_545
F10 Li2 1.842293 1_456
F10 Li4 1.852674 1_455
F11 Li0 1.842293 1_564
F11 Li5 1.852674 1_554
F12 Li1 1.827954 1_555
F12 Li8 1.844830 1_555
F13 Li2 1.827954 1_555
F13 Li6 1.844830 1_555
F14 Li0 1.827954 1_555
F14 Li7 1.844830 1_555
F15 Li4 1.827954 1_555
F15 Li11 1.844830 1_555
F16 Li5 1.827954 1_555
F16 Li9 1.844830 1_555
F17 Li3 1.827954 1_555
F17 Li10 1.844830 1_555
F18 Li11 1.844034 1_555
F18 Li5 1.849837 1_655
F19 Li9 1.844034 1_555
F19 Li3 1.849837 1_556
F20 Li10 1.844034 1_555
F20 Li4 1.849837 1_565
F21 Li8 1.844034 1_555
F21 Li2 1.849837 1_455
F22 Li6 1.844034 1_555
F22 Li0 1.849837 1_554
F23 Li7 1.844034 1_555
F23 Li1 1.849837 1_545
