# generated using pymatgen
data_Ta2Pt3Se8
_symmetry_space_group_name_H-M   'P 1'
_cell_length_a   3.58893521
_cell_length_b   11.10481046
_cell_length_c   15.32830064
_cell_angle_alpha   90.00000000
_cell_angle_beta   90.00000000
_cell_angle_gamma   90.00000000
_symmetry_Int_Tables_number   1
_chemical_formula_structural   Ta2Pt3Se8
_chemical_formula_sum   'Ta4 Pt6 Se16'
_cell_volume   610.90091879
_cell_formula_units_Z   2
loop_
 _symmetry_equiv_pos_site_id
 _symmetry_equiv_pos_as_xyz
  1  'x, y, z'
loop_
 _atom_site_type_symbol
 _atom_site_label
 _atom_site_symmetry_multiplicity
 _atom_site_fract_x
 _atom_site_fract_y
 _atom_site_fract_z
 _atom_site_occupancy
  Ta  Ta0  1  0.50000000  0.69747647  0.37347221  1
  Ta  Ta1  1  0.50000000  0.30252353  0.62652779  1
  Ta  Ta2  1  0.50000000  0.19747647  0.12652779  1
  Ta  Ta3  1  0.50000000  0.80252353  0.87347221  1
  Pt  Pt0  1  -0.00000000  0.85190964  0.27565262  1
  Pt  Pt1  1  -0.00000000  0.14809036  0.72434738  1
  Pt  Pt2  1  0.00000000  0.35190964  0.22434738  1
  Pt  Pt3  1  -0.00000000  0.64809036  0.77565262  1
  Pt  Pt4  1  -0.00000000  0.50000000  0.50000000  1
  Pt  Pt5  1  -0.00000000  -0.00000000  0.00000000  1
  Se  Se0  1  0.50000000  0.92943195  0.37220699  1
  Se  Se1  1  0.50000000  0.07056805  0.62779301  1
  Se  Se2  1  0.50000000  0.42943195  0.12779301  1
  Se  Se3  1  0.50000000  0.57056805  0.87220699  1
  Se  Se4  1  0.50000000  0.73023628  0.20719366  1
  Se  Se5  1  0.50000000  0.26976372  0.79280634  1
  Se  Se6  1  0.50000000  0.23023628  0.29280634  1
  Se  Se7  1  0.50000000  0.76976372  0.70719366  1
  Se  Se8  1  0.00000000  0.52763603  0.34180004  1
  Se  Se9  1  -0.00000000  0.47236397  0.65819996  1
  Se  Se10  1  0.00000000  0.77901237  0.99770902  1
  Se  Se11  1  -0.00000000  0.22098763  0.00229098  1
  Se  Se12  1  -0.00000000  0.27901237  0.50229098  1
  Se  Se13  1  -0.00000000  0.72098763  0.49770902  1
  Se  Se14  1  0.00000000  0.97236397  0.84180004  1
  Se  Se15  1  0.00000000  0.02763603  0.15819996  1
loop_
_geom_bond_atom_site_label_1
_geom_bond_atom_site_label_2
_geom_bond_distance
_geom_bond_site_symmetry_2
Pt0 Se4 2.479295 1_555
Pt0 Se4 2.479295 1_455
Pt0 Se0 2.480253 1_455
Pt0 Se0 2.480253 1_555
Pt0 Se15 2.655043 1_565
Pt0 Ta0 2.899896 1_455
Pt0 Ta0 2.899896 1_555
Pt1 Se5 2.479295 1_555
Pt1 Se5 2.479295 1_455
Pt1 Se1 2.480253 1_555
Pt1 Se1 2.480253 1_455
Pt1 Se14 2.655043 1_545
Pt1 Ta1 2.899896 1_455
Pt1 Ta1 2.899896 1_555
Pt2 Se6 2.479295 1_555
Pt2 Se6 2.479295 1_455
Pt2 Se2 2.480253 1_455
Pt2 Se2 2.480253 1_555
Pt2 Se8 2.655043 1_555
Pt2 Ta2 2.899896 1_455
Pt2 Ta2 2.899896 1_555
Pt3 Se7 2.479295 1_555
Pt3 Se7 2.479295 1_455
Pt3 Se3 2.480253 1_455
Pt3 Se3 2.480253 1_555
Pt3 Se9 2.655043 1_555
Pt3 Ta3 2.899896 1_455
Pt3 Ta3 2.899896 1_555
Pt4 Se8 2.444279 1_555
Pt4 Se9 2.444279 1_555
Pt4 Se12 2.454277 1_555
Pt4 Se13 2.454277 1_555
Pt5 Se15 2.444279 1_555
Pt5 Se14 2.444279 1_544
Pt5 Se10 2.454277 1_544
Pt5 Se11 2.454277 1_555
Se0 Ta0 2.575895 1_555
Se1 Ta1 2.575895 1_555
Se2 Ta2 2.575895 1_555
Se3 Ta3 2.575895 1_555
Se4 Ta0 2.574599 1_555
Se5 Ta1 2.574599 1_555
Se6 Ta2 2.574599 1_555
Se7 Ta3 2.574599 1_555
Se8 Ta0 2.648202 1_555
Se8 Ta0 2.648202 1_455
Se9 Ta1 2.648202 1_555
Se9 Ta1 2.648202 1_455
Se10 Ta3 2.629598 1_455
Se10 Ta3 2.629598 1_555
Se11 Ta2 2.629598 1_455
Se11 Ta2 2.629598 1_555
Se12 Ta1 2.629598 1_455
Se12 Ta1 2.629598 1_555
Se13 Ta0 2.629598 1_455
Se13 Ta0 2.629598 1_555
Se14 Ta3 2.648202 1_555
Se14 Ta3 2.648202 1_455
Se15 Ta2 2.648202 1_555
Se15 Ta2 2.648202 1_455
