# generated using pymatgen
data_Er(NiGe)2
_symmetry_space_group_name_H-M   'P 1'
_cell_length_a   4.01422586
_cell_length_b   4.01422552
_cell_length_c   5.61537459
_cell_angle_alpha   110.94256051
_cell_angle_beta   110.94255615
_cell_angle_gamma   90.00000485
_symmetry_Int_Tables_number   1
_chemical_formula_structural   Er(NiGe)2
_chemical_formula_sum   'Er1 Ni2 Ge2'
_cell_volume   78.07469077
_cell_formula_units_Z   1
loop_
 _symmetry_equiv_pos_site_id
 _symmetry_equiv_pos_as_xyz
  1  'x, y, z'
loop_
 _atom_site_type_symbol
 _atom_site_label
 _atom_site_symmetry_multiplicity
 _atom_site_fract_x
 _atom_site_fract_y
 _atom_site_fract_z
 _atom_site_occupancy
  Er  Er0  1  -0.00000000  0.00000000  0.00000000  1
  Ni  Ni0  1  0.75000000  0.25000000  0.50000000  1
  Ni  Ni1  1  0.25000000  0.75000000  0.50000000  1
  Ge  Ge0  1  0.62819809  0.62819809  0.25639718  1
  Ge  Ge1  1  0.37180191  0.37180191  0.74360282  1
loop_
_geom_bond_atom_site_label_1
_geom_bond_atom_site_label_2
_geom_bond_distance
_geom_bond_site_symmetry_2
Er0 Ge1 3.098427 1_444
Er0 Ge0 3.098427 1_555
Er0 Ge1 3.098430 1_544
Er0 Ge0 3.098430 1_455
Er0 Ge1 3.098430 1_454
Er0 Ge0 3.098430 1_545
Er0 Ge0 3.098432 1_445
Er0 Ge1 3.098432 1_554
Er0 Ni0 3.146006 1_444
Er0 Ni1 3.146006 1_555
Er0 Ni0 3.146006 1_555
Er0 Ni1 3.146006 1_444
Er0 Ni1 3.146007 1_544
Er0 Ni0 3.146007 1_455
Er0 Ni1 3.146007 1_545
Er0 Ni0 3.146007 1_454
Ge0 Ni0 2.328429 1_555
Ge0 Ni1 2.328429 1_555
Ge0 Ni0 2.328432 1_565
Ge0 Ni1 2.328432 1_655
Ge0 Ge1 2.484563 1_554
Ge1 Ni1 2.328429 1_555
Ge1 Ni0 2.328429 1_555
Ge1 Ni1 2.328432 1_545
Ge1 Ni0 2.328432 1_455
