# generated using pymatgen
data_BaLiPrTeO6
_symmetry_space_group_name_H-M   'P 1'
_cell_length_a   5.70468154
_cell_length_b   5.70468154
_cell_length_c   5.70468154
_cell_angle_alpha   60.00000000
_cell_angle_beta   60.00000000
_cell_angle_gamma   60.00000000
_symmetry_Int_Tables_number   1
_chemical_formula_structural   BaLiPrTeO6
_chemical_formula_sum   'Ba1 Li1 Pr1 Te1 O6'
_cell_volume   131.27415075
_cell_formula_units_Z   1
loop_
 _symmetry_equiv_pos_site_id
 _symmetry_equiv_pos_as_xyz
  1  'x, y, z'
loop_
 _atom_site_type_symbol
 _atom_site_label
 _atom_site_symmetry_multiplicity
 _atom_site_fract_x
 _atom_site_fract_y
 _atom_site_fract_z
 _atom_site_occupancy
  Ba  Ba0  1  0.75000000  0.75000000  0.75000000  1
  Li  Li0  1  0.00000000  0.00000000  0.00000000  1
  Pr  Pr0  1  0.25000000  0.25000000  0.25000000  1
  Te  Te0  1  0.50000000  0.50000000  0.50000000  1
  O  O0  1  0.74057800  0.25942200  0.25942200  1
  O  O1  1  0.25942200  0.25942200  0.74057800  1
  O  O2  1  0.25942200  0.74057800  0.25942200  1
  O  O3  1  0.74057800  0.25942200  0.74057800  1
  O  O4  1  0.74057800  0.74057800  0.25942200  1
  O  O5  1  0.25942200  0.74057800  0.74057800  1
loop_
_geom_bond_atom_site_label_1
_geom_bond_atom_site_label_2
_geom_bond_distance
_geom_bond_site_symmetry_2
Ba0 O3 2.853353 1_565
Ba0 O4 2.853353 1_556
Ba0 O0 2.853353 1_565
Ba0 O2 2.853353 1_556
Ba0 O1 2.853353 1_655
Ba0 O5 2.853353 1_655
Ba0 O2 2.853353 1_655
Ba0 O1 2.853353 1_565
Ba0 O0 2.853353 1_556
Ba0 O5 2.853353 1_555
Ba0 O3 2.853353 1_555
Ba0 O4 2.853353 1_555
Li0 O0 2.092923 1_455
Li0 O2 2.092923 1_545
Li0 O1 2.092923 1_554
Li0 O5 2.092923 1_544
Li0 O3 2.092923 1_454
Li0 O4 2.092923 1_445
O0 Te0 1.940896 1_555
O0 Pr0 2.853353 1_555
O0 Pr0 2.853353 1_655
O1 Te0 1.940896 1_555
O1 Pr0 2.853353 1_555
O1 Pr0 2.853353 1_556
O2 Te0 1.940896 1_555
O2 Pr0 2.853353 1_555
O2 Pr0 2.853353 1_565
O3 Te0 1.940896 1_555
O3 Pr0 2.853353 1_655
O3 Pr0 2.853353 1_556
O4 Te0 1.940896 1_555
O4 Pr0 2.853353 1_655
O4 Pr0 2.853353 1_565
O5 Te0 1.940896 1_555
O5 Pr0 2.853353 1_556
O5 Pr0 2.853353 1_565
