# generated using pymatgen
data_Tm2CdS4
_symmetry_space_group_name_H-M   'P 1'
_cell_length_a   7.85950258
_cell_length_b   7.85950200
_cell_length_c   7.85950225
_cell_angle_alpha   59.99999891
_cell_angle_beta   60.00000135
_cell_angle_gamma   59.99999843
_symmetry_Int_Tables_number   1
_chemical_formula_structural   Tm2CdS4
_chemical_formula_sum   'Tm4 Cd2 S8'
_cell_volume   343.29709646
_cell_formula_units_Z   2
loop_
 _symmetry_equiv_pos_site_id
 _symmetry_equiv_pos_as_xyz
  1  'x, y, z'
loop_
 _atom_site_type_symbol
 _atom_site_label
 _atom_site_symmetry_multiplicity
 _atom_site_fract_x
 _atom_site_fract_y
 _atom_site_fract_z
 _atom_site_occupancy
  Tm  Tm0  1  0.50000000  0.50000000  -0.00000000  1
  Tm  Tm1  1  0.50000000  0.50000000  0.50000000  1
  Tm  Tm2  1  0.00000000  0.50000000  0.50000000  1
  Tm  Tm3  1  0.50000000  -0.00000000  0.50000000  1
  Cd  Cd0  1  0.12500000  0.12500000  0.12500000  1
  Cd  Cd1  1  0.87500000  0.87500000  0.87500000  1
  S  S0  1  0.74203915  0.74203915  0.74203915  1
  S  S1  1  0.25796085  0.25796085  0.72611444  1
  S  S2  1  0.25796085  0.72611444  0.25796085  1
  S  S3  1  0.72611444  0.25796085  0.25796085  1
  S  S4  1  0.74203915  0.27388556  0.74203915  1
  S  S5  1  0.27388556  0.74203915  0.74203915  1
  S  S6  1  0.25796085  0.25796085  0.25796085  1
  S  S7  1  0.74203915  0.74203915  0.27388556  1
loop_
_geom_bond_atom_site_label_1
_geom_bond_atom_site_label_2
_geom_bond_distance
_geom_bond_site_symmetry_2
Cd0 S6 2.559732 1_555
Cd0 S2 2.559751 1_545
Cd0 S1 2.559751 1_554
Cd0 S3 2.559751 1_455
Cd1 S0 2.559732 1_555
Cd1 S4 2.559751 1_565
Cd1 S7 2.559751 1_556
Cd1 S5 2.559751 1_655
S0 Tm3 2.693177 1_565
S0 Tm2 2.693177 1_655
S0 Tm0 2.693178 1_556
S1 Tm3 2.693161 1_555
S1 Tm2 2.693161 1_555
S1 Tm1 2.693179 1_555
S2 Tm0 2.693161 1_555
S2 Tm2 2.693161 1_555
S2 Tm1 2.693179 1_555
S3 Tm0 2.693161 1_555
S3 Tm3 2.693161 1_555
S3 Tm1 2.693179 1_555
S4 Tm0 2.693161 1_556
S4 Tm2 2.693161 1_655
S4 Tm1 2.693179 1_555
S5 Tm0 2.693161 1_556
S5 Tm3 2.693161 1_565
S5 Tm1 2.693179 1_555
S6 Tm3 2.693177 1_555
S6 Tm2 2.693177 1_555
S6 Tm0 2.693178 1_555
S7 Tm3 2.693161 1_565
S7 Tm2 2.693161 1_655
S7 Tm1 2.693179 1_555
