# generated using pymatgen
data_La2SO2
_symmetry_space_group_name_H-M   'P 1'
_cell_length_a   4.05373495
_cell_length_b   4.05373431
_cell_length_c   6.95082140
_cell_angle_alpha   90.00000000
_cell_angle_beta   90.00000000
_cell_angle_gamma   119.99999684
_symmetry_Int_Tables_number   1
_chemical_formula_structural   La2SO2
_chemical_formula_sum   'La2 S1 O2'
_cell_volume   98.91847337
_cell_formula_units_Z   1
loop_
 _symmetry_equiv_pos_site_id
 _symmetry_equiv_pos_as_xyz
  1  'x, y, z'
loop_
 _atom_site_type_symbol
 _atom_site_label
 _atom_site_symmetry_multiplicity
 _atom_site_fract_x
 _atom_site_fract_y
 _atom_site_fract_z
 _atom_site_occupancy
  La  La0  1  0.66666700  0.33333300  0.78038364  1
  La  La1  1  0.33333300  0.66666700  0.21961636  1
  S  S0  1  0.00000000  0.00000000  0.50000000  1
  O  O0  1  0.66666700  0.33333300  0.12817464  1
  O  O1  1  0.33333300  0.66666700  0.87182536  1
loop_
_geom_bond_atom_site_label_1
_geom_bond_atom_site_label_2
_geom_bond_distance
_geom_bond_site_symmetry_2
La0 O0 2.417433 1_556
La0 O1 2.425192 1_545
La0 O1 2.425193 1_655
La0 O1 2.425199 1_555
La0 S0 3.045616 1_655
La0 S0 3.045618 1_665
La0 S0 3.045619 1_555
La1 O1 2.417433 1_554
La1 O0 2.425192 1_565
La1 O0 2.425193 1_455
La1 O0 2.425199 1_555
La1 S0 3.045616 1_565
La1 S0 3.045618 1_555
La1 S0 3.045619 1_665
