# generated using pymatgen
data_RbReO4
_symmetry_space_group_name_H-M   'P 1'
_cell_length_a   7.72638194
_cell_length_b   7.72756883
_cell_length_c   7.72768107
_cell_angle_alpha   135.28287434
_cell_angle_beta   135.28727694
_cell_angle_gamma   65.09194771
_symmetry_Int_Tables_number   1
_chemical_formula_structural   RbReO4
_chemical_formula_sum   'Rb2 Re2 O8'
_cell_volume   225.10202228
_cell_formula_units_Z   2
loop_
 _symmetry_equiv_pos_site_id
 _symmetry_equiv_pos_as_xyz
  1  'x, y, z'
loop_
 _atom_site_type_symbol
 _atom_site_label
 _atom_site_symmetry_multiplicity
 _atom_site_fract_x
 _atom_site_fract_y
 _atom_site_fract_z
 _atom_site_occupancy
  Rb  Rb0  1  0.75001955  0.24998443  0.50003319  1
  Rb  Rb1  1  -0.00001509  0.00001543  0.99997793  1
  Re  Re0  1  0.24995753  0.74980501  0.49985300  1
  Re  Re1  1  0.50003981  0.50019930  1.00014770  1
  O  O0  1  0.21028402  0.54096042  0.90421725  1
  O  O1  1  0.29098849  0.88645149  0.83043148  1
  O  O2  1  0.05594462  0.46025559  0.16926500  1
  O  O3  1  0.63671391  0.30628163  0.09585395  1
  O  O4  1  0.11333707  0.94382805  0.40431306  1
  O  O5  1  0.69395031  0.78980307  0.33067530  1
  O  O6  1  0.45912175  0.36348299  0.66961086  1
  O  O7  1  0.53965802  0.70893259  0.59562129  1
loop_
_geom_bond_atom_site_label_1
_geom_bond_atom_site_label_2
_geom_bond_distance
_geom_bond_site_symmetry_2
O0 Re1 1.743523 1_555
O0 Rb0 2.902680 1_455
O0 Rb1 2.982407 1_565
O1 Re0 1.743214 1_555
O1 Rb1 2.903946 1_565
O1 Rb0 2.982598 1_566
O2 Re0 1.743176 1_555
O2 Rb1 2.902825 1_554
O2 Rb0 2.981862 1_454
O3 Re1 1.743496 1_554
O3 Rb0 2.904325 1_555
O3 Rb1 2.982676 1_654
O4 Re0 1.743480 1_555
O4 Rb1 2.904634 1_564
O4 Rb0 2.982345 1_465
O5 Re1 1.743172 1_554
O5 Rb0 2.902389 1_565
O5 Rb1 2.982273 1_665
O6 Re1 1.743256 1_555
O6 Rb0 2.903519 1_555
O6 Rb1 2.982833 1_554
O7 Re0 1.743536 1_555
O7 Rb1 2.903034 1_665
O7 Rb0 2.982146 1_555
