# generated using pymatgen
data_KGaO2
_symmetry_space_group_name_H-M   'P 1'
_cell_length_a   5.52205541
_cell_length_b   11.07295361
_cell_length_c   15.81147739
_cell_angle_alpha   90.00000000
_cell_angle_beta   90.00000000
_cell_angle_gamma   90.00000000
_symmetry_Int_Tables_number   1
_chemical_formula_structural   KGaO2
_chemical_formula_sum   'K16 Ga16 O32'
_cell_volume   966.80011184
_cell_formula_units_Z   16
loop_
 _symmetry_equiv_pos_site_id
 _symmetry_equiv_pos_as_xyz
  1  'x, y, z'
loop_
 _atom_site_type_symbol
 _atom_site_label
 _atom_site_symmetry_multiplicity
 _atom_site_fract_x
 _atom_site_fract_y
 _atom_site_fract_z
 _atom_site_occupancy
  K  K0  1  0.29977491  0.26600470  0.31678763  1
  K  K1  1  0.79977491  0.23399530  0.68321237  1
  K  K2  1  0.70022509  0.76600470  0.18321237  1
  K  K3  1  0.20022509  0.73399530  0.81678763  1
  K  K4  1  0.70022509  0.73399530  0.68321237  1
  K  K5  1  0.20022509  0.76600470  0.31678763  1
  K  K6  1  0.29977491  0.23399530  0.81678763  1
  K  K7  1  0.79977491  0.26600470  0.18321237  1
  K  K8  1  0.25713590  0.01686387  0.43898257  1
  K  K9  1  0.75713590  0.48313613  0.56101743  1
  K  K10  1  0.74286410  0.51686387  0.06101743  1
  K  K11  1  0.24286410  0.98313613  0.93898257  1
  K  K12  1  0.74286410  0.98313613  0.56101743  1
  K  K13  1  0.24286410  0.51686387  0.43898257  1
  K  K14  1  0.25713590  0.48313613  0.93898257  1
  K  K15  1  0.75713590  0.01686387  0.06101743  1
  Ga  Ga0  1  0.78369023  0.26309418  0.43537521  1
  Ga  Ga1  1  0.28369023  0.23690582  0.56462479  1
  Ga  Ga2  1  0.21630977  0.76309418  0.06462479  1
  Ga  Ga3  1  0.71630977  0.73690582  0.93537521  1
  Ga  Ga4  1  0.21630977  0.73690582  0.56462479  1
  Ga  Ga5  1  0.71630977  0.76309418  0.43537521  1
  Ga  Ga6  1  0.78369023  0.23690582  0.93537521  1
  Ga  Ga7  1  0.28369023  0.26309418  0.06462479  1
  Ga  Ga8  1  0.76580735  0.00910971  0.31092827  1
  Ga  Ga9  1  0.26580735  0.49089029  0.68907173  1
  Ga  Ga10  1  0.23419265  0.50910971  0.18907173  1
  Ga  Ga11  1  0.73419265  0.99089029  0.81092827  1
  Ga  Ga12  1  0.23419265  0.99089029  0.68907173  1
  Ga  Ga13  1  0.73419265  0.50910971  0.31092827  1
  Ga  Ga14  1  0.76580735  0.49089029  0.81092827  1
  Ga  Ga15  1  0.26580735  0.00910971  0.18907173  1
  O  O0  1  0.44335882  0.97928449  0.28636828  1
  O  O1  1  0.94335882  0.52071551  0.71363172  1
  O  O2  1  0.55664118  0.47928449  0.21363172  1
  O  O3  1  0.05664118  0.02071551  0.78636828  1
  O  O4  1  0.55664118  0.02071551  0.71363172  1
  O  O5  1  0.05664118  0.47928449  0.28636828  1
  O  O6  1  0.44335882  0.52071551  0.78636828  1
  O  O7  1  0.94335882  0.97928449  0.21363172  1
  O  O8  1  0.83771516  0.16648743  0.34223391  1
  O  O9  1  0.33771516  0.33351257  0.65776609  1
  O  O10  1  0.16228484  0.66648743  0.15776609  1
  O  O11  1  0.66228484  0.83351257  0.84223391  1
  O  O12  1  0.16228484  0.83351257  0.65776609  1
  O  O13  1  0.66228484  0.66648743  0.34223391  1
  O  O14  1  0.83771516  0.33351257  0.84223391  1
  O  O15  1  0.57145272  0.30467501  0.01210716  1
  O  O16  1  0.64735772  0.40715767  0.39873166  1
  O  O17  1  0.14735772  0.09284233  0.60126834  1
  O  O18  1  0.35264228  0.90715767  0.10126834  1
  O  O19  1  0.85264228  0.59284233  0.89873166  1
  O  O20  1  0.35264228  0.59284233  0.60126834  1
  O  O21  1  0.85264228  0.90715767  0.39873166  1
  O  O22  1  0.64735772  0.09284233  0.89873166  1
  O  O23  1  0.14735772  0.40715767  0.10126834  1
  O  O24  1  0.07145272  0.30467501  0.48789284  1
  O  O25  1  0.57145272  0.19532499  0.51210716  1
  O  O26  1  0.92854728  0.80467501  0.01210716  1
  O  O27  1  0.42854728  0.69532499  0.98789284  1
  O  O28  1  0.92854728  0.69532499  0.51210716  1
  O  O29  1  0.42854728  0.80467501  0.48789284  1
  O  O30  1  0.07145272  0.19532499  0.98789284  1
  O  O31  1  0.33771516  0.16648743  0.15776609  1
loop_
_geom_bond_atom_site_label_1
_geom_bond_atom_site_label_2
_geom_bond_distance
_geom_bond_site_symmetry_2
K0 O31 2.753220 1_555
K0 O5 2.758847 1_555
K0 O16 2.793854 1_555
K0 O8 2.808278 1_455
K0 O24 3.015347 1_555
K0 O8 3.193784 1_555
K0 O2 3.201498 1_555
K0 O0 3.307506 1_545
K1 O14 2.753220 1_555
K1 O4 2.758847 1_555
K1 O17 2.793854 1_655
K1 O9 2.808278 1_555
K1 O25 3.015347 1_555
K1 O9 3.193784 1_655
K1 O3 3.201498 1_655
K1 O1 3.307506 1_555
K2 O13 2.753220 1_555
K2 O7 2.758847 1_555
K2 O18 2.793854 1_555
K2 O10 2.808278 1_655
K2 O26 3.015347 1_555
K2 O10 3.193784 1_555
K2 O0 3.201498 1_555
K2 O2 3.307506 1_555
K3 O12 2.753220 1_555
K3 O6 2.758847 1_555
K3 O19 2.793854 1_455
K3 O11 2.808278 1_555
K3 O27 3.015347 1_555
K3 O11 3.193784 1_455
K3 O1 3.201498 1_455
K3 O3 3.307506 1_565
K4 O11 2.753220 1_555
K4 O1 2.758847 1_555
K4 O20 2.793854 1_555
K4 O12 2.808278 1_655
K4 O28 3.015347 1_555
K4 O12 3.193784 1_555
K4 O6 3.201498 1_555
K4 O4 3.307506 1_565
K5 O10 2.753220 1_555
K5 O0 2.758847 1_555
K5 O21 2.793854 1_455
K5 O13 2.808278 1_555
K5 O29 3.015347 1_555
K5 O13 3.193784 1_455
K5 O7 3.201498 1_455
K5 O5 3.307506 1_555
K6 O9 2.753220 1_555
K6 O3 2.758847 1_555
K6 O22 2.793854 1_555
K6 O14 2.808278 1_455
K6 O30 3.015347 1_555
K6 O14 3.193784 1_555
K6 O4 3.201498 1_555
K6 O6 3.307506 1_555
K7 O8 2.753220 1_555
K7 O2 2.758847 1_555
K7 O23 2.793854 1_655
K7 O31 2.808278 1_555
K7 O15 3.015347 1_555
K7 O31 3.193784 1_655
K7 O5 3.201498 1_655
K7 O7 3.307506 1_545
K8 O21 2.621038 1_445
K8 O29 2.648476 1_545
K8 O0 2.655836 1_545
K8 O17 2.767583 1_555
K8 O25 2.873034 1_555
K8 O8 3.232516 1_455
K9 O20 2.621038 1_555
K9 O28 2.648476 1_555
K9 O1 2.655836 1_555
K9 O16 2.767583 1_555
K9 O24 2.873034 1_655
K9 O9 3.232516 1_555
K10 O23 2.621038 1_655
K10 O15 2.648476 1_555
K10 O2 2.655836 1_555
K10 O19 2.767583 1_554
K10 O27 2.873034 1_554
K10 O10 3.232516 1_655
K11 O22 2.621038 1_565
K11 O30 2.648476 1_565
K11 O3 2.655836 1_565
K11 O18 2.767583 1_556
K11 O26 2.873034 1_456
K11 O11 3.232516 1_555
K12 O17 2.621038 1_665
K12 O25 2.648476 1_565
K12 O4 2.655836 1_565
K12 O21 2.767583 1_555
K12 O29 2.873034 1_555
K12 O12 3.232516 1_655
K13 O16 2.621038 1_555
K13 O24 2.648476 1_555
K13 O5 2.655836 1_555
K13 O20 2.767583 1_555
K13 O28 2.873034 1_455
K13 O13 3.232516 1_555
K14 O19 2.621038 1_455
K14 O27 2.648476 1_555
K14 O6 2.655836 1_555
K14 O23 2.767583 1_556
K14 O15 2.873034 1_556
K14 O14 3.232516 1_455
K15 O18 2.621038 1_545
K15 O26 2.648476 1_545
K15 O7 2.655836 1_545
K15 O22 2.767583 1_554
K15 O30 2.873034 1_654
K15 O31 3.232516 1_555
Ga0 O8 1.844493 1_555
Ga0 O25 1.846247 1_555
Ga0 O24 1.851100 1_655
Ga0 O16 1.856648 1_555
Ga1 O9 1.844493 1_555
Ga1 O24 1.846247 1_555
Ga1 O25 1.851100 1_555
Ga1 O17 1.856648 1_555
Ga2 O10 1.844493 1_555
Ga2 O27 1.846247 1_554
Ga2 O26 1.851100 1_455
Ga2 O18 1.856648 1_555
Ga3 O11 1.844493 1_555
Ga3 O26 1.846247 1_556
Ga3 O27 1.851100 1_555
Ga3 O19 1.856648 1_555
Ga4 O12 1.844493 1_555
Ga4 O29 1.846247 1_555
Ga4 O28 1.851100 1_455
Ga4 O20 1.856648 1_555
Ga5 O13 1.844493 1_555
Ga5 O28 1.846247 1_555
Ga5 O29 1.851100 1_555
Ga5 O21 1.856648 1_555
Ga6 O14 1.844493 1_555
Ga6 O15 1.846247 1_556
Ga6 O30 1.851100 1_655
Ga6 O22 1.856648 1_555
Ga7 O31 1.844493 1_555
Ga7 O30 1.846247 1_554
Ga7 O15 1.851100 1_555
Ga7 O23 1.856648 1_555
Ga8 O0 1.852114 1_545
Ga8 O21 1.852497 1_545
Ga8 O7 1.853923 1_545
Ga8 O8 1.854580 1_555
Ga9 O1 1.852114 1_455
Ga9 O20 1.852497 1_555
Ga9 O6 1.853923 1_555
Ga9 O9 1.854580 1_555
Ga10 O2 1.852114 1_555
Ga10 O23 1.852497 1_555
Ga10 O5 1.853923 1_555
Ga10 O10 1.854580 1_555
Ga11 O3 1.852114 1_665
Ga11 O22 1.852497 1_565
Ga11 O4 1.853923 1_565
Ga11 O11 1.854580 1_555
Ga12 O4 1.852114 1_565
Ga12 O17 1.852497 1_565
Ga12 O3 1.853923 1_565
Ga12 O12 1.854580 1_555
Ga13 O5 1.852114 1_655
Ga13 O16 1.852497 1_555
Ga13 O2 1.853923 1_555
Ga13 O13 1.854580 1_555
Ga14 O6 1.852114 1_555
Ga14 O19 1.852497 1_555
Ga14 O1 1.853923 1_555
Ga14 O14 1.854580 1_555
Ga15 O7 1.852114 1_445
Ga15 O18 1.852497 1_545
Ga15 O0 1.853923 1_545
Ga15 O31 1.854580 1_555
