# generated using pymatgen
data_U(SiPd)2
_symmetry_space_group_name_H-M   'P 1'
_cell_length_a   4.08756674
_cell_length_b   4.08756787
_cell_length_c   5.90655967
_cell_angle_alpha   110.24402832
_cell_angle_beta   110.24404005
_cell_angle_gamma   89.99999186
_symmetry_Int_Tables_number   1
_chemical_formula_structural   U(SiPd)2
_chemical_formula_sum   'U1 Si2 Pd2'
_cell_volume   86.06484891
_cell_formula_units_Z   1
loop_
 _symmetry_equiv_pos_site_id
 _symmetry_equiv_pos_as_xyz
  1  'x, y, z'
loop_
 _atom_site_type_symbol
 _atom_site_label
 _atom_site_symmetry_multiplicity
 _atom_site_fract_x
 _atom_site_fract_y
 _atom_site_fract_z
 _atom_site_occupancy
  U  U0  1  -0.00000000  -0.00000000  -0.00000000  1
  Si  Si0  1  0.61386379  0.61386379  0.22772559  1
  Si  Si1  1  0.38613621  0.38613621  0.77227441  1
  Pd  Pd0  1  0.75000000  0.25000000  0.50000000  1
  Pd  Pd1  1  0.25000000  0.75000000  0.50000000  1
loop_
_geom_bond_atom_site_label_1
_geom_bond_atom_site_label_2
_geom_bond_distance
_geom_bond_site_symmetry_2
Si0 Si1 2.346053 1_554
Si0 U0 3.119305 1_665
Si0 U0 3.119309 1_565
Si0 U0 3.119310 1_655
Si0 U0 3.119315 1_555
Si1 U0 3.119305 1_556
Si1 U0 3.119309 1_656
Si1 U0 3.119310 1_566
Si1 U0 3.119315 1_666
Pd0 Si1 2.478717 1_655
Pd0 Si0 2.478718 1_545
Pd0 Si1 2.478724 1_555
Pd0 Si0 2.478724 1_555
Pd0 U0 3.287915 1_555
Pd0 U0 3.287915 1_656
Pd0 U0 3.287915 1_655
Pd0 U0 3.287916 1_666
Pd1 Si0 2.478717 1_455
Pd1 Si1 2.478718 1_565
Pd1 Si0 2.478724 1_555
Pd1 Si1 2.478724 1_555
Pd1 U0 3.287915 1_666
Pd1 U0 3.287915 1_565
Pd1 U0 3.287915 1_566
Pd1 U0 3.287916 1_555
