# generated using pymatgen
data_BaGa4S7
_symmetry_space_group_name_H-M   'P 1'
_cell_length_a   5.97088255
_cell_length_b   6.26526937
_cell_length_c   14.87053230
_cell_angle_alpha   90.00000000
_cell_angle_beta   90.00000000
_cell_angle_gamma   90.00000000
_symmetry_Int_Tables_number   1
_chemical_formula_structural   BaGa4S7
_chemical_formula_sum   'Ba2 Ga8 S14'
_cell_volume   556.29453181
_cell_formula_units_Z   2
loop_
 _symmetry_equiv_pos_site_id
 _symmetry_equiv_pos_as_xyz
  1  'x, y, z'
loop_
 _atom_site_type_symbol
 _atom_site_label
 _atom_site_symmetry_multiplicity
 _atom_site_fract_x
 _atom_site_fract_y
 _atom_site_fract_z
 _atom_site_occupancy
  Ba  Ba0  1  0.45238661  0.65961856  0.50000000  1
  Ba  Ba1  1  0.95238661  0.34038144  -0.00000000  1
  Ga  Ga0  1  0.33960464  0.82953115  0.87987865  1
  Ga  Ga1  1  0.83960464  0.17046885  0.62012135  1
  Ga  Ga2  1  0.83960464  0.17046885  0.37987865  1
  Ga  Ga3  1  0.33960464  0.82953115  0.12012135  1
  Ga  Ga4  1  0.35616238  0.31376418  0.75183100  1
  Ga  Ga5  1  0.85616238  0.68623582  0.74816900  1
  Ga  Ga6  1  0.85616238  0.68623582  0.25183100  1
  Ga  Ga7  1  0.35616238  0.31376418  0.24816900  1
  S  S0  1  0.96470355  0.32941833  0.75230760  1
  S  S1  1  0.46470355  0.67058167  0.74769240  1
  S  S2  1  0.46470355  0.67058167  0.25230760  1
  S  S3  1  0.96470355  0.32941833  0.24769240  1
  S  S4  1  0.95968632  0.80649898  0.88315761  1
  S  S5  1  0.45968632  0.19350102  0.61684239  1
  S  S6  1  0.45968632  0.19350102  0.38315761  1
  S  S7  1  0.95968632  0.80649898  0.11684239  1
  S  S8  1  0.44579525  0.17503798  0.88548458  1
  S  S9  1  0.94579525  0.82496202  0.61451542  1
  S  S10  1  0.45611709  0.63973645  -0.00000000  1
  S  S11  1  0.95611709  0.36026355  0.50000000  1
  S  S12  1  0.44579525  0.17503798  0.11451542  1
  S  S13  1  0.94579525  0.82496202  0.38548458  1
loop_
_geom_bond_atom_site_label_1
_geom_bond_atom_site_label_2
_geom_bond_distance
_geom_bond_site_symmetry_2
Ba0 S5 3.398425 1_555
Ba0 S6 3.398425 1_555
Ba0 S11 3.506852 1_455
Ba0 S11 3.544574 1_555
Ba0 S13 3.557026 1_555
Ba0 S9 3.557026 1_555
Ba0 S13 3.622488 1_455
Ba0 S9 3.622488 1_455
Ba0 S1 3.684692 1_555
Ba0 S2 3.684692 1_555
Ba0 S5 3.769524 1_565
Ba0 S6 3.769524 1_565
Ba1 S4 3.398425 1_554
Ba1 S7 3.398425 1_555
Ba1 S10 3.506852 1_555
Ba1 S10 3.544574 1_655
Ba1 S12 3.557026 1_655
Ba1 S8 3.557026 1_654
Ba1 S12 3.622488 1_555
Ba1 S8 3.622488 1_554
Ba1 S3 3.684692 1_555
Ba1 S0 3.684692 1_554
Ba1 S7 3.769524 1_545
Ba1 S4 3.769524 1_544
Ga0 S10 2.255820 1_556
Ga0 S8 2.257181 1_565
Ga0 S4 2.273556 1_455
Ga0 S1 2.326709 1_555
Ga1 S11 2.255820 1_555
Ga1 S9 2.257181 1_545
Ga1 S5 2.273556 1_555
Ga1 S0 2.326709 1_555
Ga2 S11 2.255820 1_555
Ga2 S13 2.257181 1_545
Ga2 S6 2.273556 1_555
Ga2 S3 2.326709 1_555
Ga3 S10 2.255820 1_555
Ga3 S12 2.257181 1_565
Ga3 S7 2.273556 1_455
Ga3 S2 2.326709 1_555
Ga4 S5 2.231430 1_555
Ga4 S8 2.234282 1_555
Ga4 S1 2.328416 1_555
Ga4 S0 2.339422 1_455
Ga5 S4 2.231430 1_555
Ga5 S9 2.234282 1_555
Ga5 S0 2.328416 1_555
Ga5 S1 2.339422 1_555
Ga6 S7 2.231430 1_555
Ga6 S13 2.234282 1_555
Ga6 S3 2.328416 1_555
Ga6 S2 2.339422 1_555
Ga7 S6 2.231430 1_555
Ga7 S12 2.234282 1_555
Ga7 S2 2.328416 1_555
Ga7 S3 2.339422 1_455
