# generated using pymatgen
data_Ca11(CN5)2
_symmetry_space_group_name_H-M   'P 1'
_cell_length_a   14.57016200
_cell_length_b   14.57016200
_cell_length_c   3.61379900
_cell_angle_alpha   90.00000000
_cell_angle_beta   90.00000000
_cell_angle_gamma   90.00000000
_symmetry_Int_Tables_number   1
_chemical_formula_structural   Ca11(CN5)2
_chemical_formula_sum   'Ca22 C4 N20'
_cell_volume   767.17201902
_cell_formula_units_Z   2
loop_
 _symmetry_equiv_pos_site_id
 _symmetry_equiv_pos_as_xyz
  1  'x, y, z'
loop_
 _atom_site_type_symbol
 _atom_site_label
 _atom_site_symmetry_multiplicity
 _atom_site_fract_x
 _atom_site_fract_y
 _atom_site_fract_z
 _atom_site_occupancy
  Ca  Ca0  1  0.60633900  0.88172500  0.00000000  1
  Ca  Ca1  1  0.39366100  0.11827500  0.00000000  1
  Ca  Ca2  1  0.61827500  0.10633900  0.50000000  1
  Ca  Ca3  1  0.38172500  0.89366100  0.50000000  1
  Ca  Ca4  1  0.88172500  0.60633900  0.00000000  1
  Ca  Ca5  1  0.10633900  0.61827500  0.50000000  1
  Ca  Ca6  1  0.89366100  0.38172500  0.50000000  1
  Ca  Ca7  1  0.11827500  0.39366100  0.00000000  1
  Ca  Ca8  1  0.16725200  0.83274800  0.00000000  1
  Ca  Ca9  1  0.33274800  0.33274800  0.50000000  1
  Ca  Ca10  1  0.66725200  0.66725200  0.50000000  1
  Ca  Ca11  1  0.83274800  0.16725200  0.00000000  1
  Ca  Ca12  1  0.70478800  0.48042800  0.00000000  1
  Ca  Ca13  1  0.29521200  0.51957200  0.00000000  1
  Ca  Ca14  1  0.01957200  0.20478800  0.50000000  1
  Ca  Ca15  1  0.98042800  0.79521200  0.50000000  1
  Ca  Ca16  1  0.48042800  0.70478800  0.00000000  1
  Ca  Ca17  1  0.20478800  0.01957200  0.50000000  1
  Ca  Ca18  1  0.79521200  0.98042800  0.50000000  1
  Ca  Ca19  1  0.51957200  0.29521200  0.00000000  1
  Ca  Ca20  1  0.50000000  0.50000000  0.50000000  1
  Ca  Ca21  1  0.00000000  0.00000000  0.00000000  1
  C  C0  1  0.81579800  0.81579800  0.00000000  1
  C  C1  1  0.31579800  0.68420200  0.50000000  1
  C  C2  1  0.68420200  0.31579800  0.50000000  1
  C  C3  1  0.18420200  0.18420200  0.00000000  1
  N  N0  1  0.87626500  0.87626500  0.00000000  1
  N  N1  1  0.37626500  0.62373500  0.50000000  1
  N  N2  1  0.62373500  0.37626500  0.50000000  1
  N  N3  1  0.12373500  0.12373500  0.00000000  1
  N  N4  1  0.75584100  0.75584100  0.00000000  1
  N  N5  1  0.25584100  0.74415900  0.50000000  1
  N  N6  1  0.74415900  0.25584100  0.50000000  1
  N  N7  1  0.24415900  0.24415900  0.00000000  1
  N  N8  1  0.31123000  0.97201100  0.00000000  1
  N  N9  1  0.68877000  0.02798900  0.00000000  1
  N  N10  1  0.52798900  0.81123000  0.50000000  1
  N  N11  1  0.47201100  0.18877000  0.50000000  1
  N  N12  1  0.97201100  0.31123000  0.00000000  1
  N  N13  1  0.81123000  0.52798900  0.50000000  1
  N  N14  1  0.18877000  0.47201100  0.50000000  1
  N  N15  1  0.02798900  0.68877000  0.00000000  1
  N  N16  1  0.58976900  0.58976900  0.00000000  1
  N  N17  1  0.08976900  0.91023100  0.50000000  1
  N  N18  1  0.41023100  0.41023100  0.00000000  1
  N  N19  1  0.91023100  0.08976900  0.50000000  1
loop_
_geom_bond_atom_site_label_1
_geom_bond_atom_site_label_2
_geom_bond_distance
_geom_bond_site_symmetry_2
Ca0 N10 2.371298 1_554
Ca0 N10 2.371298 1_555
Ca0 N9 2.446227 1_565
Ca0 N4 2.847624 1_555
Ca1 N11 2.371298 1_554
Ca1 N11 2.371298 1_555
Ca1 N8 2.446227 1_545
Ca1 N7 2.847624 1_555
Ca2 N9 2.371298 1_555
Ca2 N9 2.371298 1_556
Ca2 N11 2.446227 1_555
Ca2 N6 2.847624 1_555
Ca3 N8 2.371298 1_556
Ca3 N8 2.371298 1_555
Ca3 N10 2.446227 1_555
Ca3 N5 2.847624 1_555
Ca4 N13 2.371298 1_554
Ca4 N13 2.371298 1_555
Ca4 N15 2.446227 1_655
Ca4 N4 2.847624 1_555
Ca5 N15 2.371298 1_555
Ca5 N15 2.371298 1_556
Ca5 N14 2.446227 1_555
Ca5 N5 2.847624 1_555
Ca6 N12 2.371298 1_556
Ca6 N12 2.371298 1_555
Ca6 N13 2.446227 1_555
Ca6 N6 2.847624 1_555
Ca7 N14 2.371298 1_554
Ca7 N14 2.371298 1_555
Ca7 N12 2.446227 1_455
Ca7 N7 2.847624 1_555
Ca8 N17 2.411202 1_554
Ca8 N17 2.411202 1_555
Ca8 N5 2.568460 1_555
Ca8 N5 2.568460 1_554
Ca8 N8 2.918540 1_555
Ca8 N15 2.918540 1_555
Ca9 N18 2.411202 1_556
Ca9 N18 2.411202 1_555
Ca9 N7 2.568460 1_556
Ca9 N7 2.568460 1_555
Ca9 N11 2.918540 1_555
Ca9 N14 2.918540 1_555
Ca10 N16 2.411202 1_555
Ca10 N16 2.411202 1_556
Ca10 N4 2.568460 1_555
Ca10 N4 2.568460 1_556
Ca10 N13 2.918540 1_555
Ca10 N10 2.918540 1_555
Ca11 N19 2.411202 1_555
Ca11 N19 2.411202 1_554
Ca11 N6 2.568460 1_555
Ca11 N6 2.568460 1_554
Ca11 N12 2.918540 1_555
Ca11 N9 2.918540 1_555
Ca12 N16 2.312245 1_555
Ca12 N13 2.479983 1_554
Ca12 N13 2.479983 1_555
Ca12 N2 2.638725 1_555
Ca12 N2 2.638725 1_554
Ca13 N18 2.312245 1_555
Ca13 N14 2.479983 1_555
Ca13 N14 2.479983 1_554
Ca13 N1 2.638725 1_555
Ca13 N1 2.638725 1_554
Ca14 N19 2.312245 1_455
Ca14 N12 2.479983 1_456
Ca14 N12 2.479983 1_455
Ca14 N3 2.638725 1_556
Ca14 N3 2.638725 1_555
Ca15 N17 2.312245 1_655
Ca15 N15 2.479983 1_655
Ca15 N15 2.479983 1_656
Ca15 N0 2.638725 1_556
Ca15 N0 2.638725 1_555
Ca16 N16 2.312245 1_555
Ca16 N10 2.479983 1_554
Ca16 N10 2.479983 1_555
Ca16 N1 2.638725 1_555
Ca16 N1 2.638725 1_554
Ca17 N17 2.312245 1_545
Ca17 N8 2.479983 1_545
Ca17 N8 2.479983 1_546
Ca17 N3 2.638725 1_556
Ca17 N3 2.638725 1_555
Ca18 N19 2.312245 1_565
Ca18 N9 2.479983 1_565
Ca18 N9 2.479983 1_566
Ca18 N0 2.638725 1_556
Ca18 N0 2.638725 1_555
Ca19 N18 2.312245 1_555
Ca19 N11 2.479983 1_555
Ca19 N11 2.479983 1_554
Ca19 N2 2.638725 1_554
Ca19 N2 2.638725 1_555
Ca20 N2 2.549599 1_555
Ca20 N1 2.549599 1_555
Ca20 N16 2.585797 1_556
Ca20 N18 2.585797 1_555
Ca20 N18 2.585797 1_556
Ca20 N16 2.585797 1_555
Ca21 N3 2.549599 1_555
Ca21 N0 2.549599 1_445
Ca21 N19 2.585797 1_454
Ca21 N19 2.585797 1_455
Ca21 N17 2.585797 1_544
Ca21 N17 2.585797 1_545
C0 N4 1.235433 1_555
C0 N0 1.245942 1_555
C1 N5 1.235433 1_555
C1 N1 1.245942 1_555
C2 N6 1.235433 1_555
C2 N2 1.245942 1_555
C3 N7 1.235433 1_555
C3 N3 1.245942 1_555
