# generated using pymatgen
data_MgSiO3
_symmetry_space_group_name_H-M   'P 1'
_cell_length_a   2.71635800
_cell_length_b   4.80212762
_cell_length_c   6.72953800
_cell_angle_alpha   90.00000000
_cell_angle_beta   90.00000000
_cell_angle_gamma   106.42909678
_symmetry_Int_Tables_number   1
_chemical_formula_structural   MgSiO3
_chemical_formula_sum   'Mg2 Si2 O6'
_cell_volume   84.19799568
_cell_formula_units_Z   2
loop_
 _symmetry_equiv_pos_site_id
 _symmetry_equiv_pos_as_xyz
  1  'x, y, z'
loop_
 _atom_site_type_symbol
 _atom_site_label
 _atom_site_symmetry_multiplicity
 _atom_site_fract_x
 _atom_site_fract_y
 _atom_site_fract_z
 _atom_site_occupancy
  Mg  Mg0  1  0.26067000  0.52134000  0.75000000  1
  Mg  Mg1  1  0.73933000  0.47866000  0.25000000  1
  Si  Si0  1  0.00000000  0.00000000  0.00000000  1
  Si  Si1  1  0.00000000  0.00000000  0.50000000  1
  O  O0  1  0.62609500  0.25219000  0.94470700  1
  O  O1  1  0.37390500  0.74781000  0.05529300  1
  O  O2  1  0.37390500  0.74781000  0.44470700  1
  O  O3  1  0.62609500  0.25219000  0.55529300  1
  O  O4  1  0.92720500  0.85441000  0.75000000  1
  O  O5  1  0.07279500  0.14559000  0.25000000  1
loop_
_geom_bond_atom_site_label_1
_geom_bond_atom_site_label_2
_geom_bond_distance
_geom_bond_site_symmetry_2
Mg0 O4 2.048960 1_555
Mg0 O4 2.048960 1_455
Mg0 O3 2.257967 1_455
Mg0 O0 2.257967 1_455
Mg0 O3 2.257967 1_555
Mg0 O0 2.257967 1_555
Mg0 O2 2.304131 1_555
Mg0 O1 2.304131 1_556
Mg1 O5 2.048960 1_555
Mg1 O5 2.048960 1_655
Mg1 O2 2.257967 1_655
Mg1 O1 2.257967 1_655
Mg1 O1 2.257967 1_555
Mg1 O2 2.257967 1_555
Mg1 O3 2.304131 1_555
Mg1 O0 2.304131 1_554
O0 Si0 1.825493 1_556
O0 Si0 1.825493 1_656
O1 Si0 1.825493 1_565
O1 Si0 1.825493 1_665
O2 Si1 1.825493 1_565
O2 Si1 1.825493 1_665
O3 Si1 1.825493 1_555
O3 Si1 1.825493 1_655
O4 Si1 1.811109 1_665
O4 Si0 1.811109 1_666
O5 Si1 1.811109 1_555
O5 Si0 1.811109 1_555
