# generated using pymatgen
data_U(GePd)2
_symmetry_space_group_name_H-M   'P 1'
_cell_length_a   6.06520770
_cell_length_b   6.06520770
_cell_length_c   6.06520770
_cell_angle_alpha   139.76246500
_cell_angle_beta   139.76246500
_cell_angle_gamma   58.21413973
_symmetry_Int_Tables_number   1
_chemical_formula_structural   U(GePd)2
_chemical_formula_sum   'U1 Ge2 Pd2'
_cell_volume   92.25707762
_cell_formula_units_Z   1
loop_
 _symmetry_equiv_pos_site_id
 _symmetry_equiv_pos_as_xyz
  1  'x, y, z'
loop_
 _atom_site_type_symbol
 _atom_site_label
 _atom_site_symmetry_multiplicity
 _atom_site_fract_x
 _atom_site_fract_y
 _atom_site_fract_z
 _atom_site_occupancy
  U  U0  1  0.00000000  0.00000000  0.00000000  1
  Ge  Ge0  1  0.61449800  0.61449800  0.00000000  1
  Ge  Ge1  1  0.38550200  0.38550200  0.00000000  1
  Pd  Pd0  1  0.75000000  0.25000000  0.50000000  1
  Pd  Pd1  1  0.25000000  0.75000000  0.50000000  1
loop_
_geom_bond_atom_site_label_1
_geom_bond_atom_site_label_2
_geom_bond_distance
_geom_bond_site_symmetry_2
Ge0 Ge1 2.427012 1_555
Ge0 Pd0 2.532746 1_565
Ge0 Pd1 2.532746 1_554
Ge0 Pd1 2.532746 1_655
Ge0 Pd0 2.532746 1_554
Ge0 U0 3.190193 1_655
Ge0 U0 3.190193 1_565
Ge0 U0 3.190193 1_554
Ge0 U0 3.190193 1_666
Ge1 Pd1 2.532746 1_555
Ge1 Pd1 2.532746 1_544
Ge1 Pd0 2.532746 1_454
Ge1 Pd0 2.532746 1_555
Ge1 U0 3.190193 1_655
Ge1 U0 3.190193 1_565
Ge1 U0 3.190193 1_554
Ge1 U0 3.190193 1_666
Pd0 U0 3.372369 1_555
Pd0 U0 3.372369 1_655
Pd0 U0 3.372369 1_656
Pd0 U0 3.372369 1_666
Pd1 U0 3.372369 1_555
Pd1 U0 3.372369 1_566
Pd1 U0 3.372369 1_565
Pd1 U0 3.372369 1_666
