# generated using pymatgen
data_ErAgSe2
_symmetry_space_group_name_H-M   'P 1'
_cell_length_a   4.19417584
_cell_length_b   6.79976908
_cell_length_c   13.66657677
_cell_angle_alpha   90.00000000
_cell_angle_beta   90.00000000
_cell_angle_gamma   90.00000000
_symmetry_Int_Tables_number   1
_chemical_formula_structural   ErAgSe2
_chemical_formula_sum   'Er4 Ag4 Se8'
_cell_volume   389.76294117
_cell_formula_units_Z   4
loop_
 _symmetry_equiv_pos_site_id
 _symmetry_equiv_pos_as_xyz
  1  'x, y, z'
loop_
 _atom_site_type_symbol
 _atom_site_label
 _atom_site_symmetry_multiplicity
 _atom_site_fract_x
 _atom_site_fract_y
 _atom_site_fract_z
 _atom_site_occupancy
  Er  Er0  1  0.22507821  0.29236652  0.12806504  1
  Er  Er1  1  0.72507821  0.20763348  0.87193496  1
  Er  Er2  1  0.77492179  0.79236652  0.37193496  1
  Er  Er3  1  0.27492179  0.70763348  0.62806504  1
  Ag  Ag0  1  0.50737644  0.70823359  0.87432104  1
  Ag  Ag1  1  0.49262356  0.20823459  0.62567896  1
  Ag  Ag2  1  0.00737644  0.79176641  0.12567896  1
  Ag  Ag3  1  0.99262356  0.29176641  0.37432104  1
  Se  Se0  1  0.76942094  0.51275585  0.52675382  1
  Se  Se1  1  0.26942094  0.98724415  0.47324618  1
  Se  Se2  1  0.23057906  0.01275585  0.97324618  1
  Se  Se3  1  0.73057906  0.48724415  0.02675382  1
  Se  Se4  1  0.77449355  0.91295532  0.72583238  1
  Se  Se5  1  0.72550645  0.08704468  0.22583238  1
  Se  Se6  1  0.22550645  0.41295532  0.77416762  1
  Se  Se7  1  0.27449355  0.58704468  0.27416762  1
loop_
_geom_bond_atom_site_label_1
_geom_bond_atom_site_label_2
_geom_bond_distance
_geom_bond_site_symmetry_2
Er0 Se3 2.823925 1_455
Er0 Se7 2.836343 1_555
Er0 Se2 2.844683 1_554
Er0 Se5 2.850393 1_455
Er0 Se5 2.853035 1_555
Er0 Se3 2.857986 1_555
Er1 Se2 2.823925 1_555
Er1 Se4 2.836343 1_545
Er1 Se3 2.844683 1_556
Er1 Se6 2.850393 1_555
Er1 Se6 2.853035 1_655
Er1 Se2 2.857986 1_655
Er2 Se1 2.823925 1_655
Er2 Se5 2.836343 1_565
Er2 Se0 2.844683 1_555
Er2 Se7 2.850393 1_655
Er2 Se7 2.853035 1_555
Er2 Se1 2.857986 1_555
Er3 Se0 2.823925 1_555
Er3 Se6 2.836343 1_555
Er3 Se1 2.844683 1_555
Er3 Se4 2.850393 1_555
Er3 Se4 2.853035 1_455
Er3 Se0 2.857986 1_455
Ag0 Se6 2.702309 1_555
Ag0 Se4 2.703918 1_555
Ag0 Se2 2.731906 1_565
Ag0 Se3 2.733913 1_556
Ag1 Se4 2.702314 1_545
Ag1 Se6 2.703914 1_555
Ag1 Se0 2.731901 1_555
Ag1 Se1 2.733917 1_545
Ag2 Se5 2.702309 1_465
Ag2 Se7 2.703918 1_555
Ag2 Se3 2.731906 1_455
Ag2 Se2 2.733913 1_564
Ag3 Se7 2.702309 1_655
Ag3 Se5 2.703918 1_555
Ag3 Se1 2.731906 1_645
Ag3 Se0 2.733913 1_555
