# generated using pymatgen
data_CrNiAs
_symmetry_space_group_name_H-M   'P 1'
_cell_length_a   6.20529595
_cell_length_b   6.20528499
_cell_length_c   3.64362671
_cell_angle_alpha   90.00000000
_cell_angle_beta   90.00000000
_cell_angle_gamma   120.00323395
_symmetry_Int_Tables_number   1
_chemical_formula_structural   CrNiAs
_chemical_formula_sum   'Cr3 Ni3 As3'
_cell_volume   121.49952679
_cell_formula_units_Z   3
loop_
 _symmetry_equiv_pos_site_id
 _symmetry_equiv_pos_as_xyz
  1  'x, y, z'
loop_
 _atom_site_type_symbol
 _atom_site_label
 _atom_site_symmetry_multiplicity
 _atom_site_fract_x
 _atom_site_fract_y
 _atom_site_fract_z
 _atom_site_occupancy
  Cr  Cr0  1  0.40687641  0.40687602  0.50000000  1
  Cr  Cr1  1  0.59329782  0.99997869  0.50000000  1
  Cr  Cr2  1  0.99997908  0.59330172  0.50000000  1
  Ni  Ni0  1  0.74633677  0.74633488  -0.00000000  1
  Ni  Ni1  1  -0.00005468  0.25364041  0.00000000  1
  Ni  Ni2  1  0.25364206  -0.00005667  -0.00000000  1
  As  As0  1  0.66665312  0.33329983  -0.00000000  1
  As  As1  1  0.33329767  0.66665197  -0.00000000  1
  As  As2  1  -0.00002824  -0.00002685  0.50000000  1
loop_
_geom_bond_atom_site_label_1
_geom_bond_atom_site_label_2
_geom_bond_distance
_geom_bond_site_symmetry_2
Cr0 Ni0 2.784903 1_555
Cr0 Ni0 2.784903 1_556
Cr0 Ni1 2.863237 1_555
Cr0 Ni1 2.863237 1_556
Cr0 Ni2 2.863241 1_555
Cr0 Ni2 2.863241 1_556
Cr1 Ni2 2.785820 1_565
Cr1 Ni2 2.785820 1_566
Cr1 Ni1 2.862119 1_665
Cr1 Ni1 2.862119 1_666
Cr1 Ni0 2.862331 1_556
Cr1 Ni0 2.862331 1_555
Cr2 Ni1 2.785847 1_655
Cr2 Ni1 2.785847 1_656
Cr2 Ni2 2.862095 1_665
Cr2 Ni2 2.862095 1_666
Cr2 Ni0 2.862304 1_556
Cr2 Ni0 2.862304 1_555
As0 Ni1 2.354595 1_655
As0 Ni2 2.354836 1_555
As0 Ni0 2.355002 1_555
As0 Cr0 2.619544 1_554
As0 Cr0 2.619544 1_555
As0 Cr1 2.619675 1_544
As0 Cr1 2.619675 1_545
As0 Cr2 2.619696 1_554
As0 Cr2 2.619696 1_555
As1 Ni2 2.354571 1_565
As1 Ni1 2.354827 1_555
As1 Ni0 2.355033 1_555
As1 Cr0 2.619547 1_554
As1 Cr0 2.619547 1_555
As1 Cr2 2.619674 1_455
As1 Cr2 2.619674 1_454
As1 Cr1 2.619695 1_555
As1 Cr1 2.619695 1_554
As2 Ni0 2.407465 1_446
As2 Ni0 2.407465 1_445
As2 Ni1 2.407692 1_555
As2 Ni1 2.407692 1_556
As2 Ni2 2.407713 1_555
As2 Ni2 2.407713 1_556
As2 Cr2 2.523535 1_445
As2 Cr1 2.523549 1_445
As2 Cr0 2.524833 1_555
