# generated using pymatgen
data_Ge4Ir
_symmetry_space_group_name_H-M   'P 1'
_cell_length_a   6.23472776
_cell_length_b   6.23472831
_cell_length_c   7.79996278
_cell_angle_alpha   90.00000000
_cell_angle_beta   90.00000000
_cell_angle_gamma   119.99999633
_symmetry_Int_Tables_number   1
_chemical_formula_structural   Ge4Ir
_chemical_formula_sum   'Ge12 Ir3'
_cell_volume   262.57792140
_cell_formula_units_Z   3
loop_
 _symmetry_equiv_pos_site_id
 _symmetry_equiv_pos_as_xyz
  1  'x, y, z'
loop_
 _atom_site_type_symbol
 _atom_site_label
 _atom_site_symmetry_multiplicity
 _atom_site_fract_x
 _atom_site_fract_y
 _atom_site_fract_z
 _atom_site_occupancy
  Ge  Ge0  1  0.00005112  0.61600383  0.15786725  1
  Ge  Ge1  1  0.00006998  0.07455269  0.15781732  1
  Ge  Ge2  1  0.78048375  0.26154590  0.37400569  1
  Ge  Ge3  1  0.38399617  0.38404828  0.49120125  1
  Ge  Ge4  1  0.21950925  0.48095275  0.94175257  1
  Ge  Ge5  1  0.48106116  0.21951625  0.04067269  1
  Ge  Ge6  1  0.51904725  0.73855650  0.27508557  1
  Ge  Ge7  1  0.61595172  0.99994888  0.82453425  1
  Ge  Ge8  1  0.92544731  0.92551729  0.49115132  1
  Ge  Ge9  1  0.07448271  0.99993002  0.82448432  1
  Ge  Ge10  1  0.26144350  0.78049075  0.60841957  1
  Ge  Ge11  1  0.73845410  0.51893884  0.70733969  1
  Ir  Ir0  1  0.68304683  0.68302185  0.99122416  1
  Ir  Ir1  1  0.99997402  0.31695317  0.65789016  1
  Ir  Ir2  1  0.31697815  0.00002598  0.32455716  1
loop_
_geom_bond_atom_site_label_1
_geom_bond_atom_site_label_2
_geom_bond_distance
_geom_bond_site_symmetry_2
Ge0 Ge4 2.564126 1_554
Ge0 Ge2 2.564127 1_455
Ge0 Ir0 2.568312 1_454
Ge0 Ir2 2.568350 1_565
Ge0 Ge1 2.858869 1_565
Ge1 Ir0 2.594076 1_444
Ge1 Ir2 2.594105 1_555
Ge1 Ge9 2.721668 1_544
Ge1 Ge8 2.721675 1_445
Ge1 Ge4 2.768675 1_554
Ge1 Ge2 2.770042 1_455
Ge1 Ge5 2.816819 1_555
Ge1 Ge6 2.817227 1_445
Ge2 Ir1 2.534238 1_555
Ge2 Ir2 2.539006 1_555
Ge2 Ge8 2.816828 1_545
Ge3 Ge6 2.564127 1_555
Ge3 Ir2 2.568316 1_555
Ge3 Ir1 2.568346 1_455
Ge3 Ge8 2.858872 1_445
Ge4 Ir1 2.534113 1_455
Ge4 Ir0 2.539172 1_555
Ge4 Ge9 2.817227 1_545
Ge5 Ir2 2.534238 1_555
Ge5 Ir0 2.539006 1_554
Ge5 Ge7 2.564127 1_544
Ge5 Ge9 2.770038 1_544
Ge6 Ir0 2.534104 1_554
Ge6 Ir2 2.539178 1_565
Ge6 Ge8 2.768680 1_555
Ge7 Ir1 2.568316 1_565
Ge7 Ir0 2.568350 1_555
Ge7 Ge9 2.858875 1_655
Ge8 Ir2 2.594077 1_665
Ge8 Ir1 2.594106 1_565
Ge8 Ge9 2.721668 1_655
Ge9 Ir1 2.594083 1_465
Ge9 Ir0 2.594108 1_455
Ge10 Ir2 2.534114 1_565
Ge10 Ir1 2.539172 1_455
Ge10 Ge7 2.564122 1_555
Ge10 Ge9 2.768675 1_555
Ge10 Ge8 2.817227 1_455
Ge11 Ir0 2.534238 1_555
Ge11 Ir1 2.539007 1_555
Ge11 Ge3 2.564127 1_555
Ge11 Ge8 2.770038 1_555
Ge11 Ge9 2.816821 1_655
