# generated using pymatgen
data_NaEuTiNbO6F
_symmetry_space_group_name_H-M   'P 1'
_cell_length_a   7.36969200
_cell_length_b   7.36969200
_cell_length_c   10.45683900
_cell_angle_alpha   90.00000000
_cell_angle_beta   90.00000000
_cell_angle_gamma   90.00000000
_symmetry_Int_Tables_number   1
_chemical_formula_structural   NaEuTiNbO6F
_chemical_formula_sum   'Na4 Eu4 Ti4 Nb4 O24 F4'
_cell_volume   567.93560606
_cell_formula_units_Z   4
loop_
 _symmetry_equiv_pos_site_id
 _symmetry_equiv_pos_as_xyz
  1  'x, y, z'
loop_
 _atom_site_type_symbol
 _atom_site_label
 _atom_site_symmetry_multiplicity
 _atom_site_fract_x
 _atom_site_fract_y
 _atom_site_fract_z
 _atom_site_occupancy
  Na  Na0  1  0.00000000  0.76427800  0.00000000  1
  Na  Na1  1  0.00000000  0.23572200  0.50000000  1
  Na  Na2  1  0.76427800  0.00000000  0.25000000  1
  Na  Na3  1  0.23572200  0.00000000  0.75000000  1
  Eu  Eu0  1  0.50000000  0.76263400  0.00000000  1
  Eu  Eu1  1  0.50000000  0.23736600  0.50000000  1
  Eu  Eu2  1  0.23736600  0.50000000  0.75000000  1
  Eu  Eu3  1  0.76263400  0.50000000  0.25000000  1
  Ti  Ti0  1  0.50000000  0.74098500  0.50000000  1
  Ti  Ti1  1  0.50000000  0.25901500  0.00000000  1
  Ti  Ti2  1  0.25901500  0.50000000  0.25000000  1
  Ti  Ti3  1  0.74098500  0.50000000  0.75000000  1
  Nb  Nb0  1  0.74342700  0.00000000  0.75000000  1
  Nb  Nb1  1  0.00000000  0.25657300  0.00000000  1
  Nb  Nb2  1  0.00000000  0.74342700  0.50000000  1
  Nb  Nb3  1  0.25657300  0.00000000  0.25000000  1
  O  O0  1  0.06262000  0.93738000  0.37500000  1
  O  O1  1  0.44857500  0.94245700  0.38167000  1
  O  O2  1  0.55142500  0.05754300  0.88167000  1
  O  O3  1  0.55142500  0.94245700  0.61833000  1
  O  O4  1  0.54164200  0.45835800  0.87500000  1
  O  O5  1  0.74784900  0.27172600  0.07074900  1
  O  O6  1  0.72827400  0.25215100  0.67925100  1
  O  O7  1  0.74784900  0.72827400  0.42925100  1
  O  O8  1  0.94245700  0.44857500  0.86833000  1
  O  O9  1  0.93738000  0.06262000  0.87500000  1
  O  O10  1  0.93738000  0.93738000  0.62500000  1
  O  O11  1  0.05754300  0.55142500  0.36833000  1
  O  O12  1  0.05754300  0.44857500  0.13167000  1
  O  O13  1  0.06262000  0.06262000  0.12500000  1
  O  O14  1  0.25215100  0.72827400  0.57074900  1
  O  O15  1  0.27172600  0.74784900  0.17925100  1
  O  O16  1  0.25215100  0.27172600  0.92925100  1
  O  O17  1  0.27172600  0.25215100  0.32074900  1
  O  O18  1  0.45835800  0.54164200  0.37500000  1
  O  O19  1  0.44857500  0.05754300  0.11833000  1
  O  O20  1  0.45835800  0.45835800  0.12500000  1
  O  O21  1  0.54164200  0.54164200  0.62500000  1
  O  O22  1  0.72827400  0.74784900  0.82074900  1
  O  O23  1  0.94245700  0.55142500  0.63167000  1
  F  F0  1  0.75806600  0.75806600  0.12500000  1
  F  F1  1  0.24193400  0.24193400  0.62500000  1
  F  F2  1  0.24193400  0.75806600  0.87500000  1
  F  F3  1  0.75806600  0.24193400  0.37500000  1
loop_
_geom_bond_atom_site_label_1
_geom_bond_atom_site_label_2
_geom_bond_distance
_geom_bond_site_symmetry_2
Na0 O9 2.599178 1_464
Na0 O13 2.599178 1_565
Na0 O8 2.736565 1_454
Na0 O12 2.736565 1_555
Na0 O22 2.745575 1_454
Na0 O15 2.745575 1_555
Na1 O10 2.599178 1_445
Na1 O0 2.599178 1_545
Na1 O23 2.736565 1_455
Na1 O11 2.736565 1_555
Na1 O17 2.745575 1_555
Na1 O6 2.745575 1_455
Na2 O13 2.599178 1_655
Na2 O0 2.599178 1_645
Na2 O1 2.736565 1_545
Na2 O19 2.736565 1_555
Na2 O5 2.745575 1_555
Na2 O7 2.745575 1_545
Na3 O10 2.599178 1_445
Na3 O9 2.599178 1_455
Na3 O2 2.736565 1_555
Na3 O3 2.736565 1_545
Na3 O14 2.745575 1_545
Na3 O16 2.745575 1_555
Eu0 F0 2.307976 1_555
Eu0 F2 2.307976 1_554
Eu0 O15 2.520993 1_555
Eu0 O22 2.520993 1_554
Eu0 O19 2.529487 1_565
Eu0 O2 2.529487 1_564
Eu0 O4 2.613647 1_554
Eu0 O20 2.613647 1_555
Eu1 F3 2.307976 1_555
Eu1 F1 2.307976 1_555
Eu1 O17 2.520993 1_555
Eu1 O6 2.520993 1_555
Eu1 O1 2.529487 1_545
Eu1 O3 2.529487 1_545
Eu1 O21 2.613647 1_555
Eu1 O18 2.613647 1_555
Eu2 F2 2.307976 1_555
Eu2 F1 2.307976 1_555
Eu2 O14 2.520993 1_555
Eu2 O16 2.520993 1_555
Eu2 O23 2.529487 1_455
Eu2 O8 2.529487 1_455
Eu2 O21 2.613647 1_555
Eu2 O4 2.613647 1_555
Eu3 F3 2.307976 1_555
Eu3 F0 2.307976 1_555
Eu3 O7 2.520993 1_555
Eu3 O5 2.520993 1_555
Eu3 O11 2.529487 1_655
Eu3 O12 2.529487 1_655
Eu3 O18 2.613647 1_555
Eu3 O20 2.613647 1_555
Nb0 O10 1.991132 1_545
Nb0 O9 1.991132 1_555
Nb0 O22 2.003242 1_545
Nb0 O6 2.003242 1_555
Nb0 O2 2.019350 1_555
Nb0 O3 2.019350 1_545
Nb1 O13 1.991132 1_555
Nb1 O9 1.991132 1_454
Nb1 O5 2.003242 1_455
Nb1 O16 2.003242 1_554
Nb1 O8 2.019350 1_454
Nb1 O12 2.019350 1_555
Nb2 O0 1.991132 1_555
Nb2 O10 1.991132 1_455
Nb2 O14 2.003242 1_555
Nb2 O7 2.003242 1_455
Nb2 O23 2.019350 1_455
Nb2 O11 2.019350 1_555
Nb3 O13 1.991132 1_555
Nb3 O0 1.991132 1_545
Nb3 O17 2.003242 1_555
Nb3 O15 2.003242 1_545
Nb3 O1 2.019350 1_545
Nb3 O19 2.019350 1_555
O1 Ti0 1.969588 1_555
O2 Ti1 1.969588 1_556
O3 Ti0 1.969588 1_555
O4 Ti1 1.990213 1_556
O4 Ti3 1.990213 1_555
O5 Ti1 1.972931 1_555
O6 Ti3 1.972931 1_555
O7 Ti0 1.972931 1_555
O8 Ti3 1.969588 1_555
O11 Ti2 1.969588 1_555
O12 Ti2 1.969588 1_555
O14 Ti0 1.972931 1_555
O15 Ti2 1.972931 1_555
O16 Ti1 1.972931 1_556
O17 Ti2 1.972931 1_555
O18 Ti2 1.990213 1_555
O18 Ti0 1.990213 1_555
O19 Ti1 1.969588 1_555
O20 Ti1 1.990213 1_555
O20 Ti2 1.990213 1_555
O21 Ti3 1.990213 1_555
O21 Ti0 1.990213 1_555
O22 Ti3 1.972931 1_555
O23 Ti3 1.969588 1_555
F0 Na2 2.211252 1_565
F0 Na0 2.211252 1_655
F1 Na1 2.211252 1_555
F1 Na3 2.211252 1_555
F2 Na3 2.211252 1_565
F2 Na0 2.211252 1_556
F3 Na1 2.211252 1_655
F3 Na2 2.211252 1_555
