# generated using pymatgen
data_Sr2SnO4
_symmetry_space_group_name_H-M   'P 1'
_cell_length_a   5.77743647
_cell_length_b   5.77743647
_cell_length_c   12.53448174
_cell_angle_alpha   90.00000000
_cell_angle_beta   90.00000000
_cell_angle_gamma   90.00000000
_symmetry_Int_Tables_number   1
_chemical_formula_structural   Sr2SnO4
_chemical_formula_sum   'Sr8 Sn4 O16'
_cell_volume   418.38561020
_cell_formula_units_Z   4
loop_
 _symmetry_equiv_pos_site_id
 _symmetry_equiv_pos_as_xyz
  1  'x, y, z'
loop_
 _atom_site_type_symbol
 _atom_site_label
 _atom_site_symmetry_multiplicity
 _atom_site_fract_x
 _atom_site_fract_y
 _atom_site_fract_z
 _atom_site_occupancy
  Sr  Sr0  1  0.76126293  0.26126293  0.39684806  1
  Sr  Sr1  1  0.26126293  0.23873707  0.60315194  1
  Sr  Sr2  1  0.73873707  0.76126293  0.60315194  1
  Sr  Sr3  1  0.23873707  0.73873707  0.39684806  1
  Sr  Sr4  1  0.73873707  0.23873707  0.10315194  1
  Sr  Sr5  1  0.23873707  0.26126293  0.89684806  1
  Sr  Sr6  1  0.76126293  0.73873707  0.89684806  1
  Sr  Sr7  1  0.26126293  0.76126293  0.10315194  1
  Sn  Sn0  1  0.75000000  0.25000000  0.75000000  1
  Sn  Sn1  1  0.25000000  0.25000000  0.25000000  1
  Sn  Sn2  1  0.75000000  0.75000000  0.25000000  1
  Sn  Sn3  1  0.25000000  0.75000000  0.75000000  1
  O  O0  1  0.71390971  0.21390971  0.58724185  1
  O  O1  1  0.21390971  0.28609029  0.41275815  1
  O  O2  1  0.78609029  0.71390971  0.41275815  1
  O  O3  1  0.28609029  0.78609029  0.58724185  1
  O  O4  1  0.78609029  0.28609029  0.91275815  1
  O  O5  1  0.28609029  0.21390971  0.08724185  1
  O  O6  1  0.71390971  0.78609029  0.08724185  1
  O  O7  1  0.21390971  0.71390971  0.91275815  1
  O  O8  1  0.00000000  0.00000000  0.25000000  1
  O  O9  1  0.50000000  0.50000000  0.75000000  1
  O  O10  1  0.50000000  0.50000000  0.25000000  1
  O  O11  1  0.00000000  0.00000000  0.75000000  1
  O  O12  1  0.50000000  0.00000000  0.77472560  1
  O  O13  1  0.00000000  0.50000000  0.22527440  1
  O  O14  1  0.00000000  0.50000000  0.72527440  1
  O  O15  1  0.50000000  0.00000000  0.27472560  1
loop_
_geom_bond_atom_site_label_1
_geom_bond_atom_site_label_2
_geom_bond_distance
_geom_bond_site_symmetry_2
O0 Sn0 2.061290 1_555
O0 Sr0 2.417647 1_555
O0 Sr1 2.626650 1_555
O0 Sr2 2.626650 1_545
O0 Sr1 3.171825 1_655
O0 Sr2 3.171825 1_555
O1 Sn1 2.061290 1_555
O1 Sr1 2.417647 1_555
O1 Sr3 2.626650 1_555
O1 Sr0 2.626650 1_455
O1 Sr0 3.171825 1_555
O1 Sr3 3.171825 1_545
O2 Sn2 2.061290 1_555
O2 Sr2 2.417647 1_555
O2 Sr3 2.626650 1_655
O2 Sr0 2.626650 1_555
O2 Sr3 3.171825 1_555
O2 Sr0 3.171825 1_565
O3 Sn3 2.061290 1_555
O3 Sr3 2.417647 1_555
O3 Sr1 2.626650 1_565
O3 Sr2 2.626650 1_555
O3 Sr2 3.171825 1_455
O3 Sr1 3.171825 1_555
O4 Sn0 2.061290 1_555
O4 Sr4 2.417647 1_556
O4 Sr6 2.626650 1_555
O4 Sr5 2.626650 1_655
O4 Sr5 3.171825 1_555
O4 Sr6 3.171825 1_545
O5 Sn1 2.061290 1_555
O5 Sr5 2.417647 1_554
O5 Sr4 2.626650 1_555
O5 Sr7 2.626650 1_545
O5 Sr4 3.171825 1_455
O5 Sr7 3.171825 1_555
O6 Sn2 2.061290 1_555
O6 Sr6 2.417647 1_554
O6 Sr7 2.626650 1_555
O6 Sr4 2.626650 1_565
O6 Sr7 3.171825 1_655
O6 Sr4 3.171825 1_555
O7 Sn3 2.061290 1_555
O7 Sr7 2.417647 1_556
O7 Sr6 2.626650 1_455
O7 Sr5 2.626650 1_555
O7 Sr6 3.171825 1_555
O7 Sr5 3.171825 1_565
O8 Sn1 2.042632 1_555
O8 Sn2 2.042632 1_445
O8 Sr0 2.751156 1_455
O8 Sr4 2.751156 1_455
O8 Sr3 2.751156 1_545
O8 Sr7 2.751156 1_545
O9 Sn3 2.042632 1_555
O9 Sn0 2.042632 1_555
O9 Sr1 2.751156 1_555
O9 Sr2 2.751156 1_555
O9 Sr6 2.751156 1_555
O9 Sr5 2.751156 1_555
O10 Sn1 2.042632 1_555
O10 Sn2 2.042632 1_555
O10 Sr0 2.751156 1_555
O10 Sr3 2.751156 1_555
O10 Sr4 2.751156 1_555
O10 Sr7 2.751156 1_555
O11 Sn0 2.042632 1_455
O11 Sn3 2.042632 1_545
O11 Sr1 2.751156 1_555
O11 Sr2 2.751156 1_445
O11 Sr6 2.751156 1_445
O11 Sr5 2.751156 1_555
O12 Sn3 2.066010 1_545
O12 Sn0 2.066010 1_555
O12 Sr6 2.626771 1_545
O12 Sr5 2.626771 1_555
O12 Sr1 2.903428 1_555
O12 Sr2 2.903428 1_545
O13 Sn1 2.066010 1_555
O13 Sn2 2.066010 1_455
O13 Sr7 2.626771 1_555
O13 Sr4 2.626771 1_455
O13 Sr3 2.903428 1_555
O13 Sr0 2.903428 1_455
O14 Sn3 2.066010 1_555
O14 Sn0 2.066010 1_455
O14 Sr2 2.626771 1_455
O14 Sr1 2.626771 1_555
O14 Sr5 2.903428 1_555
O14 Sr6 2.903428 1_455
O15 Sn1 2.066010 1_555
O15 Sn2 2.066010 1_545
O15 Sr3 2.626771 1_545
O15 Sr0 2.626771 1_555
O15 Sr4 2.903428 1_555
O15 Sr7 2.903428 1_545
