# generated using pymatgen
data_Na3PO4
_symmetry_space_group_name_H-M   'P 1'
_cell_length_a   10.94302900
_cell_length_b   10.94302900
_cell_length_c   6.87761400
_cell_angle_alpha   90.00000000
_cell_angle_beta   90.00000000
_cell_angle_gamma   90.00000000
_symmetry_Int_Tables_number   1
_chemical_formula_structural   Na3PO4
_chemical_formula_sum   'Na24 P8 O32'
_cell_volume   823.59347660
_cell_formula_units_Z   8
loop_
 _symmetry_equiv_pos_site_id
 _symmetry_equiv_pos_as_xyz
  1  'x, y, z'
loop_
 _atom_site_type_symbol
 _atom_site_label
 _atom_site_symmetry_multiplicity
 _atom_site_fract_x
 _atom_site_fract_y
 _atom_site_fract_z
 _atom_site_occupancy
  Na  Na0  1  0.74120400  0.28337400  0.53820700  1
  Na  Na1  1  0.00000000  0.00000000  0.00000000  1
  Na  Na2  1  0.50000000  0.50000000  0.50000000  1
  Na  Na3  1  0.00000000  0.00000000  0.50000000  1
  Na  Na4  1  0.50000000  0.50000000  0.00000000  1
  Na  Na5  1  0.00000000  0.50000000  0.05079100  1
  Na  Na6  1  0.50000000  0.00000000  0.94920900  1
  Na  Na7  1  0.50000000  0.00000000  0.44920900  1
  Na  Na8  1  0.25798400  0.96453400  0.69558400  1
  Na  Na9  1  0.03546600  0.25798400  0.30441600  1
  Na  Na10  1  0.96453400  0.74201600  0.30441600  1
  Na  Na11  1  0.74201600  0.03546600  0.69558400  1
  Na  Na12  1  0.75798400  0.53546600  0.80441600  1
  Na  Na13  1  0.24201600  0.46453400  0.80441600  1
  Na  Na14  1  0.46453400  0.75798400  0.19558400  1
  Na  Na15  1  0.53546600  0.24201600  0.19558400  1
  Na  Na16  1  0.21662600  0.75879600  0.03820700  1
  Na  Na17  1  0.24120400  0.21662600  0.96179300  1
  Na  Na18  1  0.75879600  0.78337400  0.96179300  1
  Na  Na19  1  0.78337400  0.24120400  0.03820700  1
  Na  Na20  1  0.71662600  0.74120400  0.46179300  1
  Na  Na21  1  0.28337400  0.25879600  0.46179300  1
  Na  Na22  1  0.25879600  0.71662600  0.53820700  1
  Na  Na23  1  0.00000000  0.50000000  0.55079100  1
  P  P0  1  0.48521700  0.23631500  0.73015700  1
  P  P1  1  0.51478300  0.76368500  0.73015700  1
  P  P2  1  0.23631500  0.51478300  0.26984300  1
  P  P3  1  0.76368500  0.48521700  0.26984300  1
  P  P4  1  0.73631500  0.98521700  0.23015700  1
  P  P5  1  0.01478300  0.73631500  0.76984300  1
  P  P6  1  0.98521700  0.26368500  0.76984300  1
  P  P7  1  0.26368500  0.01478300  0.23015700  1
  O  O0  1  0.37506700  0.10346300  0.20377100  1
  O  O1  1  0.60479500  0.19182900  0.83222700  1
  O  O2  1  0.39520500  0.80817100  0.83222700  1
  O  O3  1  0.19182900  0.39520500  0.16777300  1
  O  O4  1  0.80817100  0.60479500  0.16777300  1
  O  O5  1  0.69182900  0.10479500  0.33222700  1
  O  O6  1  0.89520500  0.69182900  0.66777300  1
  O  O7  1  0.10479500  0.30817100  0.66777300  1
  O  O8  1  0.16617800  0.08140200  0.35839100  1
  O  O9  1  0.91859800  0.16617800  0.64160900  1
  O  O10  1  0.08140200  0.83382200  0.64160900  1
  O  O11  1  0.83382200  0.91859800  0.35839100  1
  O  O12  1  0.66617800  0.41859800  0.14160900  1
  O  O13  1  0.33382200  0.58140200  0.14160900  1
  O  O14  1  0.58140200  0.66617800  0.85839100  1
  O  O15  1  0.41859800  0.33382200  0.85839100  1
  O  O16  1  0.30817100  0.89520500  0.33222700  1
  O  O17  1  0.89653700  0.37506700  0.79622900  1
  O  O18  1  0.10346300  0.62493300  0.79622900  1
  O  O19  1  0.62493300  0.89653700  0.20377100  1
  O  O20  1  0.87506700  0.39653700  0.29622900  1
  O  O21  1  0.12493300  0.60346300  0.29622900  1
  O  O22  1  0.60346300  0.87506700  0.70377100  1
  O  O23  1  0.39653700  0.12493300  0.70377100  1
  O  O24  1  0.20902300  0.98507300  0.02714200  1
  O  O25  1  0.01492700  0.20902300  0.97285800  1
  O  O26  1  0.98507300  0.79097700  0.97285800  1
  O  O27  1  0.51492700  0.29097700  0.52714200  1
  O  O28  1  0.70902300  0.51492700  0.47285800  1
  O  O29  1  0.29097700  0.48507300  0.47285800  1
  O  O30  1  0.48507300  0.70902300  0.52714200  1
  O  O31  1  0.79097700  0.01492700  0.02714200  1
loop_
_geom_bond_atom_site_label_1
_geom_bond_atom_site_label_2
_geom_bond_distance
_geom_bond_site_symmetry_2
Na0 O9 2.432872 1_555
Na0 O5 2.473402 1_555
Na0 O27 2.478722 1_555
Na0 O20 2.539488 1_555
Na0 O28 2.597426 1_555
Na0 O17 2.654297 1_555
Na0 O1 2.705719 1_555
Na1 O25 2.300755 1_554
Na1 O31 2.300755 1_455
Na1 O26 2.300755 1_444
Na1 O24 2.300755 1_545
Na2 O30 2.300755 1_555
Na2 O28 2.300755 1_555
Na2 O29 2.300755 1_555
Na2 O27 2.300755 1_555
Na3 O8 2.246987 1_555
Na3 O9 2.246987 1_455
Na3 O11 2.246987 1_445
Na3 O10 2.246987 1_545
Na4 O13 2.246987 1_555
Na4 O15 2.246987 1_554
Na4 O14 2.246987 1_554
Na4 O12 2.246987 1_555
Na5 O20 2.449571 1_455
Na5 O21 2.449571 1_555
Na5 O18 2.493228 1_554
Na5 O17 2.493228 1_454
Na5 O3 2.523689 1_555
Na5 O4 2.523689 1_455
Na6 O22 2.449571 1_545
Na6 O23 2.449571 1_555
Na6 O19 2.493228 1_546
Na6 O0 2.493228 1_556
Na6 O1 2.523689 1_555
Na6 O2 2.523689 1_545
Na7 O19 2.449571 1_545
Na7 O0 2.449571 1_555
Na7 O22 2.493228 1_545
Na7 O23 2.493228 1_555
Na7 O5 2.523689 1_555
Na7 O16 2.523689 1_545
Na8 O23 2.320109 1_565
Na8 O24 2.353184 1_556
Na8 O10 2.432643 1_555
Na8 O2 2.462892 1_555
Na8 O16 2.668772 1_555
Na8 O8 2.832490 1_565
Na9 O20 2.320109 1_455
Na9 O25 2.353184 1_554
Na9 O8 2.432643 1_555
Na9 O3 2.462892 1_555
Na9 O7 2.668772 1_555
Na9 O9 2.832490 1_455
Na10 O21 2.320109 1_655
Na10 O26 2.353184 1_554
Na10 O11 2.432643 1_555
Na10 O4 2.462892 1_555
Na10 O6 2.668772 1_555
Na10 O10 2.832490 1_655
Na11 O22 2.320109 1_545
Na11 O31 2.353184 1_556
Na11 O9 2.432643 1_555
Na11 O1 2.462892 1_555
Na11 O5 2.668772 1_555
Na11 O11 2.832490 1_545
Na12 O17 2.320109 1_555
Na12 O28 2.353184 1_555
Na12 O14 2.432643 1_555
Na12 O6 2.462892 1_555
Na12 O4 2.668772 1_556
Na12 O12 2.832490 1_556
Na13 O18 2.320109 1_555
Na13 O29 2.353184 1_555
Na13 O15 2.432643 1_555
Na13 O7 2.462892 1_555
Na13 O3 2.668772 1_556
Na13 O13 2.832490 1_556
Na14 O19 2.320109 1_555
Na14 O30 2.353184 1_555
Na14 O13 2.432643 1_555
Na14 O16 2.462892 1_555
Na14 O2 2.668772 1_554
Na14 O14 2.832490 1_554
Na15 O0 2.320109 1_555
Na15 O27 2.353184 1_555
Na15 O12 2.432643 1_555
Na15 O5 2.462892 1_555
Na15 O1 2.668772 1_554
Na15 O15 2.832490 1_554
Na16 O13 2.432872 1_555
Na16 O2 2.473402 1_554
Na16 O24 2.478722 1_555
Na16 O18 2.539488 1_554
Na16 O26 2.597426 1_454
Na16 O21 2.654297 1_555
Na16 O16 2.705719 1_555
Na17 O15 2.432872 1_555
Na17 O3 2.473402 1_556
Na17 O25 2.478722 1_555
Na17 O0 2.539488 1_556
Na17 O24 2.597426 1_546
Na17 O23 2.654297 1_555
Na17 O7 2.705719 1_555
Na18 O14 2.432872 1_555
Na18 O4 2.473402 1_556
Na18 O26 2.478722 1_555
Na18 O19 2.539488 1_556
Na18 O31 2.597426 1_566
Na18 O22 2.654297 1_555
Na18 O6 2.705719 1_555
Na19 O12 2.432872 1_555
Na19 O1 2.473402 1_554
Na19 O31 2.478722 1_555
Na19 O17 2.539488 1_554
Na19 O25 2.597426 1_654
Na19 O20 2.654297 1_555
Na19 O5 2.705719 1_555
Na20 O11 2.432872 1_555
Na20 O6 2.473402 1_555
Na20 O28 2.478722 1_555
Na20 O22 2.539488 1_555
Na20 O30 2.597426 1_555
Na20 O19 2.654297 1_555
Na20 O4 2.705719 1_555
Na21 O8 2.432872 1_555
Na21 O7 2.473402 1_555
Na21 O29 2.478722 1_555
Na21 O23 2.539488 1_555
Na21 O27 2.597426 1_555
Na21 O0 2.654297 1_555
Na21 O3 2.705719 1_555
Na22 O10 2.432872 1_555
Na22 O16 2.473402 1_555
Na22 O30 2.478722 1_555
Na22 O21 2.539488 1_555
Na22 O29 2.597426 1_555
Na22 O18 2.654297 1_555
Na22 O2 2.705719 1_555
Na23 O18 2.449571 1_555
Na23 O17 2.449571 1_455
Na23 O20 2.493228 1_455
Na23 O21 2.493228 1_555
Na23 O6 2.523689 1_455
Na23 O7 2.523689 1_555
O0 P7 1.568526 1_555
O1 P0 1.562715 1_555
O2 P1 1.562715 1_555
O3 P2 1.562715 1_555
O4 P3 1.562715 1_555
O5 P4 1.562715 1_545
O6 P5 1.562715 1_655
O7 P6 1.562715 1_455
O8 P7 1.564552 1_555
O9 P6 1.564552 1_555
O10 P5 1.564552 1_555
O11 P4 1.564552 1_555
O12 P3 1.564552 1_555
O13 P2 1.564552 1_555
O14 P1 1.564552 1_555
O15 P0 1.564552 1_555
O16 P7 1.562715 1_565
O17 P6 1.568526 1_555
O18 P5 1.568526 1_555
O19 P4 1.568526 1_555
O20 P3 1.568526 1_555
O21 P2 1.568526 1_555
O22 P1 1.568526 1_555
O23 P0 1.568526 1_555
O24 P7 1.553398 1_565
O25 P6 1.553398 1_455
O26 P5 1.553398 1_655
O27 P0 1.553398 1_555
O28 P3 1.553398 1_555
O29 P2 1.553398 1_555
O30 P1 1.553398 1_555
O31 P4 1.553398 1_545
