# generated using pymatgen
data_Y(GeRh)2
_symmetry_space_group_name_H-M   'P 1'
_cell_length_a   4.11099651
_cell_length_b   4.11099597
_cell_length_c   5.91508850
_cell_angle_alpha   110.33454319
_cell_angle_beta   110.33454473
_cell_angle_gamma   89.99998932
_symmetry_Int_Tables_number   1
_chemical_formula_structural   Y(GeRh)2
_chemical_formula_sum   'Y1 Ge2 Rh2'
_cell_volume   87.06211561
_cell_formula_units_Z   1
loop_
 _symmetry_equiv_pos_site_id
 _symmetry_equiv_pos_as_xyz
  1  'x, y, z'
loop_
 _atom_site_type_symbol
 _atom_site_label
 _atom_site_symmetry_multiplicity
 _atom_site_fract_x
 _atom_site_fract_y
 _atom_site_fract_z
 _atom_site_occupancy
  Y  Y0  1  0.00000000  0.00000000  0.00000000  1
  Ge  Ge0  1  0.62198546  0.62198546  0.24396991  1
  Ge  Ge1  1  0.37801454  0.37801454  0.75603009  1
  Rh  Rh0  1  0.75000000  0.25000000  0.50000000  1
  Rh  Rh1  1  0.25000000  0.75000000  0.50000000  1
loop_
_geom_bond_atom_site_label_1
_geom_bond_atom_site_label_2
_geom_bond_distance
_geom_bond_site_symmetry_2
Ge0 Rh0 2.442268 1_565
Ge0 Rh1 2.442268 1_655
Ge0 Rh0 2.442272 1_555
Ge0 Rh1 2.442272 1_555
Ge0 Ge1 2.513630 1_554
Ge0 Y0 3.166973 1_665
Ge0 Y0 3.166974 1_655
Ge0 Y0 3.166974 1_565
Ge0 Y0 3.166977 1_555
Ge1 Rh1 2.442268 1_545
Ge1 Rh0 2.442268 1_455
Ge1 Rh1 2.442272 1_555
Ge1 Rh0 2.442272 1_555
Ge1 Y0 3.166973 1_556
Ge1 Y0 3.166974 1_566
Ge1 Y0 3.166974 1_656
Ge1 Y0 3.166977 1_666
Rh0 Y0 3.295391 1_666
Rh0 Y0 3.295391 1_555
Rh0 Y0 3.295391 1_656
Rh0 Y0 3.295391 1_655
Rh1 Y0 3.295391 1_555
Rh1 Y0 3.295391 1_666
Rh1 Y0 3.295391 1_565
Rh1 Y0 3.295391 1_566
