# generated using pymatgen
data_Na3Sr7Ta3Ti7O30
_symmetry_space_group_name_H-M   'P 1'
_cell_length_a   3.95631700
_cell_length_b   7.94250700
_cell_length_c   19.81127548
_cell_angle_alpha   89.94700264
_cell_angle_beta   90.00000000
_cell_angle_gamma   90.00000000
_symmetry_Int_Tables_number   1
_chemical_formula_structural   Na3Sr7Ta3Ti7O30
_chemical_formula_sum   'Na3 Sr7 Ta3 Ti7 O30'
_cell_volume   622.53093803
_cell_formula_units_Z   1
loop_
 _symmetry_equiv_pos_site_id
 _symmetry_equiv_pos_as_xyz
  1  'x, y, z'
loop_
 _atom_site_type_symbol
 _atom_site_label
 _atom_site_symmetry_multiplicity
 _atom_site_fract_x
 _atom_site_fract_y
 _atom_site_fract_z
 _atom_site_occupancy
  Na  Na0  1  0.00000000  0.49389500  0.00895700  1
  Na  Na1  1  0.00000000  0.52035500  0.79140100  1
  Na  Na2  1  0.00000000  0.98029700  0.79326500  1
  Sr  Sr0  1  0.00000000  0.99505400  0.00572800  1
  Sr  Sr1  1  0.00000000  0.49389200  0.19836600  1
  Sr  Sr2  1  0.00000000  0.49532000  0.39779200  1
  Sr  Sr3  1  0.00000000  0.99214800  0.19882400  1
  Sr  Sr4  1  0.00000000  0.99581000  0.39788000  1
  Sr  Sr5  1  0.00000000  0.50538600  0.59630800  1
  Sr  Sr6  1  0.00000000  0.99195800  0.59644700  1
  Ta  Ta0  1  0.50000000  0.24978300  0.70088500  1
  Ta  Ta1  1  0.50000000  0.74783600  0.89738100  1
  Ta  Ta2  1  0.50000000  0.25247800  0.90092800  1
  Ti  Ti0  1  0.50000000  0.73638700  0.09793400  1
  Ti  Ti1  1  0.50000000  0.24201100  0.29828700  1
  Ti  Ti2  1  0.50000000  0.74174500  0.29729100  1
  Ti  Ti3  1  0.50000000  0.24322100  0.10039600  1
  Ti  Ti4  1  0.50000000  0.74423300  0.49646200  1
  Ti  Ti5  1  0.50000000  0.74961900  0.69729300  1
  Ti  Ti6  1  0.50000000  0.24410100  0.49715900  1
  O  O0  1  0.00000000  0.75622400  0.10303500  1
  O  O1  1  0.00000000  0.75583800  0.90273300  1
  O  O2  1  0.00000000  0.24634900  0.90321800  1
  O  O3  1  0.50000000  0.75359200  0.20182000  1
  O  O4  1  0.50000000  0.50361800  0.10328400  1
  O  O5  1  0.50000000  0.24474400  0.00174300  1
  O  O6  1  0.50000000  0.00576700  0.10284400  1
  O  O7  1  0.50000000  0.76069800  0.00193200  1
  O  O8  1  0.50000000  0.50458700  0.30151300  1
  O  O9  1  0.50000000  0.25538200  0.20173400  1
  O  O10  1  0.50000000  0.75194200  0.59998100  1
  O  O11  1  0.50000000  0.50402500  0.50015200  1
  O  O12  1  0.50000000  0.25354700  0.40080400  1
  O  O13  1  0.50000000  0.00491600  0.30114200  1
  O  O14  1  0.50000000  0.75420300  0.40093500  1
  O  O15  1  0.50000000  0.50083800  0.69774700  1
  O  O16  1  0.50000000  0.25229700  0.59990900  1
  O  O17  1  0.50000000  0.50087000  0.90269500  1
  O  O18  1  0.50000000  0.25169500  0.80082900  1
  O  O19  1  0.50000000  0.00099300  0.69778000  1
  O  O20  1  0.50000000  0.75032100  0.80035600  1
  O  O21  1  0.50000000  0.00360200  0.50030300  1
  O  O22  1  0.50000000  0.00091300  0.90305300  1
  O  O23  1  0.00000000  0.75440800  0.30154700  1
  O  O24  1  0.00000000  0.75305500  0.50036400  1
  O  O25  1  0.00000000  0.25114100  0.10285100  1
  O  O26  1  0.00000000  0.75048300  0.69734700  1
  O  O27  1  0.00000000  0.25442300  0.30134000  1
  O  O28  1  0.00000000  0.25312900  0.50021800  1
  O  O29  1  0.00000000  0.25087100  0.69780500  1
loop_
_geom_bond_atom_site_label_1
_geom_bond_atom_site_label_2
_geom_bond_distance
_geom_bond_site_symmetry_2
Na0 O25 2.677879 1_555
Na0 O4 2.722411 1_555
Na0 O4 2.722411 1_455
Na0 O0 2.796808 1_555
Na0 O5 2.801792 1_555
Na0 O5 2.801792 1_455
Na0 O2 2.874300 1_554
Na0 O17 2.889251 1_554
Na0 O17 2.889251 1_454
Na0 O7 2.902147 1_555
Na0 O7 2.902147 1_455
Na0 O1 2.957863 1_554
Na1 O26 2.608932 1_555
Na1 O20 2.698390 1_455
Na1 O20 2.698390 1_555
Na1 O15 2.716653 1_555
Na1 O15 2.716653 1_455
Na1 O29 2.833166 1_555
Na1 O1 2.893190 1_555
Na1 O18 2.915563 1_555
Na1 O18 2.915563 1_455
Na1 O17 2.966127 1_555
Na1 O17 2.966127 1_455
Na2 O26 2.636117 1_555
Na2 O20 2.696069 1_455
Na2 O20 2.696069 1_555
Na2 O19 2.741899 1_465
Na2 O19 2.741899 1_565
Na2 O1 2.806131 1_555
Na2 O29 2.861366 1_565
Na2 O18 2.929623 1_465
Na2 O18 2.929623 1_565
Na2 O22 2.944721 1_565
Na2 O22 2.944721 1_465
Na2 O2 3.036251 1_565
O0 Ti0 1.987002 1_455
O0 Ti0 1.987002 1_555
O0 Sr3 2.668161 1_555
O0 Sr0 2.703298 1_555
O0 Sr1 2.810857 1_555
O1 Ta1 1.982020 1_455
O1 Ta1 1.982020 1_555
O1 Sr0 2.789366 1_556
O2 Ta2 1.979276 1_455
O2 Ta2 1.979276 1_555
O2 Sr0 2.846144 1_546
O3 Ti2 1.893654 1_555
O3 Ti0 2.062772 1_555
O3 Sr3 2.739788 1_655
O3 Sr3 2.739788 1_555
O3 Sr1 2.858786 1_555
O3 Sr1 2.858786 1_655
O4 Ti0 1.851707 1_555
O4 Ti3 2.069049 1_555
O4 Sr1 2.732603 1_555
O4 Sr1 2.732603 1_655
O5 Ti3 1.954468 1_555
O5 Ta2 1.998161 1_554
O5 Sr0 2.802141 1_545
O5 Sr0 2.802141 1_645
O6 Ti3 1.886559 1_555
O6 Ti0 2.141853 1_545
O6 Sr3 2.745921 1_645
O6 Sr3 2.745921 1_545
O6 Sr0 2.760869 1_645
O6 Sr0 2.760869 1_545
O7 Ti0 1.911521 1_555
O7 Ta1 2.073901 1_554
O7 Sr0 2.717304 1_555
O7 Sr0 2.717304 1_655
O8 Ti2 1.885408 1_555
O8 Ti1 2.086550 1_555
O8 Sr2 2.748905 1_655
O8 Sr2 2.748905 1_555
O8 Sr1 2.845423 1_555
O8 Sr1 2.845423 1_655
O9 Ti1 1.915686 1_555
O9 Ti3 2.010046 1_555
O9 Sr1 2.739700 1_555
O9 Sr1 2.739700 1_655
O9 Sr3 2.878861 1_545
O9 Sr3 2.878861 1_645
O10 Ti5 1.927946 1_555
O10 Ti4 2.051814 1_555
O10 Sr6 2.748064 1_555
O10 Sr6 2.748064 1_655
O10 Sr5 2.784511 1_555
O10 Sr5 2.784511 1_655
O11 Ti4 1.909186 1_555
O11 Ti6 2.065354 1_555
O11 Sr5 2.746304 1_555
O11 Sr5 2.746304 1_655
O11 Sr2 2.833806 1_655
O11 Sr2 2.833806 1_555
O12 Ti6 1.910320 1_555
O12 Ti1 2.033143 1_555
O12 Sr2 2.757526 1_655
O12 Sr2 2.757526 1_555
O12 Sr4 2.847317 1_545
O12 Sr4 2.847317 1_645
O13 Ti1 1.883926 1_555
O13 Ti2 2.091700 1_545
O13 Sr4 2.755190 1_645
O13 Sr4 2.755190 1_545
O13 Sr3 2.834203 1_545
O13 Sr3 2.834203 1_645
O14 Ti4 1.894094 1_555
O14 Ti2 2.055794 1_555
O14 Sr4 2.756626 1_655
O14 Sr4 2.756626 1_555
O14 Sr2 2.853962 1_655
O14 Sr2 2.853962 1_555
O15 Ti5 1.975957 1_555
O15 Ta0 1.994917 1_555
O15 Sr5 2.820092 1_555
O15 Sr5 2.820092 1_655
O16 Ta0 2.000545 1_555
O16 Ti6 2.036709 1_555
O16 Sr5 2.821114 1_555
O16 Sr5 2.821114 1_655
O16 Sr6 2.862454 1_545
O16 Sr6 2.862454 1_645
O17 Ta1 1.964255 1_555
O17 Ta2 1.973198 1_555
O18 Ta0 1.980090 1_555
O18 Ta2 1.983104 1_555
O19 Ta0 1.977030 1_555
O19 Ti5 1.996572 1_545
O19 Sr6 2.819349 1_545
O19 Sr6 2.819349 1_645
O20 Ta1 1.922272 1_555
O20 Ti5 2.041822 1_555
O21 Ti6 1.911123 1_555
O21 Ti4 2.061515 1_545
O21 Sr6 2.747609 1_545
O21 Sr6 2.747609 1_645
O21 Sr4 2.834527 1_545
O21 Sr4 2.834527 1_645
O22 Ta2 1.998461 1_555
O22 Ta1 2.013308 1_545
O22 Sr0 2.837738 1_546
O22 Sr0 2.837738 1_646
O23 Ti2 1.982511 1_455
O23 Ti2 1.982511 1_555
O23 Sr4 2.706519 1_555
O23 Sr3 2.774871 1_555
O23 Sr2 2.804097 1_555
O23 Sr1 2.909939 1_555
O24 Ti4 1.980911 1_555
O24 Ti4 1.980911 1_455
O24 Sr6 2.688970 1_555
O24 Sr5 2.734146 1_555
O24 Sr4 2.798667 1_555
O24 Sr2 2.885744 1_555
O25 Ti3 1.979757 1_455
O25 Ti3 1.979757 1_555
O25 Sr1 2.702745 1_555
O25 Sr3 2.799885 1_545
O25 Sr0 2.801172 1_545
O26 Ti5 1.978171 1_455
O26 Ti5 1.978171 1_555
O26 Sr6 2.768961 1_555
O26 Sr5 2.793499 1_555
O27 Ti1 1.981540 1_455
O27 Ti1 1.981540 1_555
O27 Sr2 2.705343 1_555
O27 Sr1 2.787858 1_555
O27 Sr4 2.805309 1_545
O27 Sr3 2.910682 1_545
O28 Ti6 1.980387 1_555
O28 Ti6 1.980387 1_455
O28 Sr5 2.765000 1_555
O28 Sr2 2.794752 1_555
O28 Sr6 2.816036 1_545
O28 Sr4 2.880130 1_545
O29 Ta0 1.979118 1_455
O29 Ta0 1.979118 1_555
O29 Sr5 2.849938 1_555
O29 Sr6 2.875532 1_545
