# generated using pymatgen
data_Dy(FeSi)2
_symmetry_space_group_name_H-M   'P 1'
_cell_length_a   3.87698122
_cell_length_b   3.87698180
_cell_length_c   5.62983206
_cell_angle_alpha   110.14058655
_cell_angle_beta   110.14059037
_cell_angle_gamma   90.00001476
_symmetry_Int_Tables_number   1
_chemical_formula_structural   Dy(FeSi)2
_chemical_formula_sum   'Dy1 Fe2 Si2'
_cell_volume   73.91136399
_cell_formula_units_Z   1
loop_
 _symmetry_equiv_pos_site_id
 _symmetry_equiv_pos_as_xyz
  1  'x, y, z'
loop_
 _atom_site_type_symbol
 _atom_site_label
 _atom_site_symmetry_multiplicity
 _atom_site_fract_x
 _atom_site_fract_y
 _atom_site_fract_z
 _atom_site_occupancy
  Dy  Dy0  1  0.00000000  -0.00000000  0.00000000  1
  Fe  Fe0  1  0.25000000  0.75000000  0.50000000  1
  Fe  Fe1  1  0.75000000  0.25000000  0.50000000  1
  Si  Si0  1  0.62841538  0.62841538  0.25683075  1
  Si  Si1  1  0.37158462  0.37158462  0.74316925  1
loop_
_geom_bond_atom_site_label_1
_geom_bond_atom_site_label_2
_geom_bond_distance
_geom_bond_site_symmetry_2
Dy0 Si1 3.018347 1_444
Dy0 Si0 3.018347 1_555
Dy0 Si0 3.018348 1_445
Dy0 Si1 3.018348 1_554
Dy0 Si0 3.018348 1_545
Dy0 Si1 3.018348 1_454
Dy0 Si0 3.018348 1_455
Dy0 Si1 3.018348 1_544
Dy0 Fe1 3.130914 1_555
Dy0 Fe0 3.130914 1_444
Dy0 Fe1 3.130914 1_444
Dy0 Fe0 3.130914 1_555
Dy0 Fe1 3.130915 1_454
Dy0 Fe0 3.130915 1_545
Dy0 Fe1 3.130915 1_455
Dy0 Fe0 3.130915 1_544
Fe0 Si0 2.277611 1_455
Fe0 Si1 2.277611 1_565
Fe0 Si0 2.277611 1_555
Fe0 Si1 2.277611 1_555
Fe1 Si1 2.277611 1_655
Fe1 Si0 2.277611 1_545
Fe1 Si1 2.277611 1_555
Fe1 Si0 2.277611 1_555
Si0 Si1 2.525811 1_554
