# generated using pymatgen
data_La4Se3O4
_symmetry_space_group_name_H-M   'P 1'
_cell_length_a   4.10704675
_cell_length_b   6.92635323
_cell_length_c   8.53985278
_cell_angle_alpha   90.00000000
_cell_angle_beta   90.00000000
_cell_angle_gamma   107.24629441
_symmetry_Int_Tables_number   1
_chemical_formula_structural   La4Se3O4
_chemical_formula_sum   'La4 Se3 O4'
_cell_volume   232.00953198
_cell_formula_units_Z   1
loop_
 _symmetry_equiv_pos_site_id
 _symmetry_equiv_pos_as_xyz
  1  'x, y, z'
loop_
 _atom_site_type_symbol
 _atom_site_label
 _atom_site_symmetry_multiplicity
 _atom_site_fract_x
 _atom_site_fract_y
 _atom_site_fract_z
 _atom_site_occupancy
  La  La0  1  0.68514541  0.37028982  0.76259655  1
  La  La1  1  0.68514541  0.37028982  0.23740345  1
  La  La2  1  0.01742226  0.03484452  0.50000000  1
  La  La3  1  0.00099941  0.00200082  0.00000000  1
  Se  Se0  1  0.35700201  0.71400501  0.35259858  1
  Se  Se1  1  0.35700201  0.71400501  0.64740142  1
  Se  Se2  1  0.31328927  0.62657854  0.00000000  1
  O  O0  1  0.61492906  0.22985912  0.50000000  1
  O  O1  1  0.58763663  0.17527226  0.00000000  1
  O  O2  1  0.09010777  0.18021854  0.75591487  1
  O  O3  1  0.09010777  0.18021854  0.24408513  1
loop_
_geom_bond_atom_site_label_1
_geom_bond_atom_site_label_2
_geom_bond_distance
_geom_bond_site_symmetry_2
La0 O1 2.403016 1_556
La0 O2 2.408528 1_655
La0 O2 2.408542 1_555
La0 O0 2.427323 1_555
La0 Se1 3.217796 1_655
La0 Se1 3.217801 1_555
La0 Se2 3.346852 1_656
La0 Se2 3.346855 1_556
La1 O1 2.403016 1_555
La1 O3 2.408528 1_655
La1 O3 2.408542 1_555
La1 O0 2.427323 1_555
La1 Se0 3.217796 1_655
La1 Se0 3.217801 1_555
La1 Se2 3.346852 1_655
La1 Se2 3.346855 1_555
La2 O3 2.387688 1_555
La2 O2 2.387688 1_555
La2 O0 2.425093 1_555
La2 O0 2.425096 1_455
La2 Se1 3.210264 1_545
La2 Se0 3.210264 1_545
La2 Se0 3.210266 1_445
La2 Se1 3.210266 1_445
La3 O1 2.351736 1_455
La3 O1 2.351746 1_555
La3 O2 2.394732 1_554
La3 O3 2.394732 1_555
La3 Se2 3.222451 1_445
La3 Se2 3.222457 1_545
Se0 Se1 2.517573 1_555
