# generated using pymatgen
data_MnAlNi2
_symmetry_space_group_name_H-M   'P 1'
_cell_length_a   4.07668234
_cell_length_b   4.07668171
_cell_length_c   4.07668172
_cell_angle_alpha   59.99999991
_cell_angle_beta   60.00000504
_cell_angle_gamma   60.00000797
_symmetry_Int_Tables_number   1
_chemical_formula_structural   MnAlNi2
_chemical_formula_sum   'Mn1 Al1 Ni2'
_cell_volume   47.90772275
_cell_formula_units_Z   1
loop_
 _symmetry_equiv_pos_site_id
 _symmetry_equiv_pos_as_xyz
  1  'x, y, z'
loop_
 _atom_site_type_symbol
 _atom_site_label
 _atom_site_symmetry_multiplicity
 _atom_site_fract_x
 _atom_site_fract_y
 _atom_site_fract_z
 _atom_site_occupancy
  Mn  Mn0  1  0.50000000  0.50000000  0.50000000  1
  Al  Al0  1  0.00000000  0.00000000  -0.00000000  1
  Ni  Ni0  1  0.25000000  0.25000000  0.25000000  1
  Ni  Ni1  1  0.75000000  0.75000000  0.75000000  1
loop_
_geom_bond_atom_site_label_1
_geom_bond_atom_site_label_2
_geom_bond_distance
_geom_bond_site_symmetry_2
Mn0 Ni0 2.496448 1_556
Mn0 Ni1 2.496448 1_554
Mn0 Ni0 2.496448 1_555
Mn0 Ni1 2.496448 1_555
Mn0 Ni1 2.496448 1_545
Mn0 Ni0 2.496448 1_565
Mn0 Ni1 2.496448 1_455
Mn0 Ni0 2.496448 1_655
Al0 Ni1 2.496448 1_444
Al0 Ni1 2.496448 1_445
Al0 Ni0 2.496448 1_554
Al0 Ni0 2.496448 1_555
Al0 Ni0 2.496448 1_545
Al0 Ni1 2.496448 1_454
Al0 Ni0 2.496448 1_455
Al0 Ni1 2.496448 1_544
