# generated using pymatgen
data_K2S2O5
_symmetry_space_group_name_H-M   'P 1'
_cell_length_a   6.22908200
_cell_length_b   7.16886300
_cell_length_c   7.73122472
_cell_angle_alpha   78.43660390
_cell_angle_beta   90.00000000
_cell_angle_gamma   90.00000000
_symmetry_Int_Tables_number   1
_chemical_formula_structural   K2S2O5
_chemical_formula_sum   'K4 S4 O10'
_cell_volume   338.23402215
_cell_formula_units_Z   2
loop_
 _symmetry_equiv_pos_site_id
 _symmetry_equiv_pos_as_xyz
  1  'x, y, z'
loop_
 _atom_site_type_symbol
 _atom_site_label
 _atom_site_symmetry_multiplicity
 _atom_site_fract_x
 _atom_site_fract_y
 _atom_site_fract_z
 _atom_site_occupancy
  K  K0  1  0.25000000  0.35579900  0.67412000  1
  K  K1  1  0.75000000  0.64420100  0.32588000  1
  K  K2  1  0.25000000  0.78428100  0.92917900  1
  K  K3  1  0.75000000  0.21571900  0.07082100  1
  S  S0  1  0.25000000  0.97228000  0.31909800  1
  S  S1  1  0.75000000  0.02772000  0.68090200  1
  S  S2  1  0.25000000  0.30400300  0.23935600  1
  S  S3  1  0.75000000  0.69599700  0.76064400  1
  O  O0  1  0.25000000  0.35907400  0.04316600  1
  O  O1  1  0.75000000  0.64092600  0.95683400  1
  O  O2  1  0.55194000  0.63267900  0.68108500  1
  O  O3  1  0.05194000  0.36732100  0.31891500  1
  O  O4  1  0.44806000  0.36732100  0.31891500  1
  O  O5  1  0.94806000  0.63267900  0.68108500  1
  O  O6  1  0.55140700  0.07233000  0.77629200  1
  O  O7  1  0.05140700  0.92767000  0.22370800  1
  O  O8  1  0.94859300  0.07233000  0.77629200  1
  O  O9  1  0.44859300  0.92767000  0.22370800  1
loop_
_geom_bond_atom_site_label_1
_geom_bond_atom_site_label_2
_geom_bond_distance
_geom_bond_site_symmetry_2
K0 O5 2.742823 1_455
K0 O2 2.742823 1_555
K0 O6 2.763155 1_555
K0 O8 2.763155 1_455
K0 O0 2.857976 1_556
K0 O4 2.996569 1_555
K0 O3 2.996569 1_555
K1 O4 2.742823 1_555
K1 O3 2.742823 1_655
K1 O7 2.763155 1_655
K1 O9 2.763155 1_555
K1 O1 2.857976 1_554
K1 O2 2.996569 1_555
K1 O5 2.996569 1_555
K2 O6 2.864912 1_565
K2 O8 2.864912 1_465
K2 O9 2.951336 1_556
K2 O7 2.951336 1_556
K2 O0 2.998583 1_556
K2 O5 3.038638 1_455
K2 O2 3.038638 1_555
K2 O1 3.273246 1_455
K2 O1 3.273246 1_555
K3 O7 2.864912 1_645
K3 O9 2.864912 1_545
K3 O8 2.951336 1_554
K3 O6 2.951336 1_554
K3 O1 2.998583 1_554
K3 O3 3.038638 1_655
K3 O4 3.038638 1_555
K3 O0 3.273246 1_555
K3 O0 3.273246 1_655
O0 S2 1.488772 1_555
O1 S3 1.488772 1_555
O2 S3 1.489430 1_555
O3 S2 1.489430 1_555
O4 S2 1.489430 1_555
O5 S3 1.489430 1_555
O6 S1 1.506985 1_555
O7 S0 1.506985 1_555
O8 S1 1.506985 1_555
O9 S0 1.506985 1_555
