# generated using pymatgen
data_Ca3Ti2AlSi3O14F
_symmetry_space_group_name_H-M   'P 1'
_cell_length_a   5.46422200
_cell_length_b   7.10454159
_cell_length_c   14.95858769
_cell_angle_alpha   83.73673831
_cell_angle_beta   87.22298049
_cell_angle_gamma   75.57209403
_symmetry_Int_Tables_number   1
_chemical_formula_structural   Ca3Ti2AlSi3O14F
_chemical_formula_sum   'Ca6 Ti4 Al2 Si6 O28 F2'
_cell_volume   558.89666929
_cell_formula_units_Z   2
loop_
 _symmetry_equiv_pos_site_id
 _symmetry_equiv_pos_as_xyz
  1  'x, y, z'
loop_
 _atom_site_type_symbol
 _atom_site_label
 _atom_site_symmetry_multiplicity
 _atom_site_fract_x
 _atom_site_fract_y
 _atom_site_fract_z
 _atom_site_occupancy
  Ca  Ca0  1  0.44729500  0.63814800  0.60961200  1
  Ca  Ca1  1  0.10670300  0.97349000  0.27981100  1
  Ca  Ca2  1  0.77286500  0.30782800  0.94196900  1
  Ca  Ca3  1  0.55270500  0.36185200  0.39038800  1
  Ca  Ca4  1  0.22713500  0.69217200  0.05803100  1
  Ca  Ca5  1  0.89329700  0.02651000  0.72018900  1
  Ti  Ti0  1  0.66593800  0.83387800  0.16928100  1
  Ti  Ti1  1  0.66716300  0.33320800  0.16768600  1
  Ti  Ti2  1  0.33406200  0.16612200  0.83071900  1
  Ti  Ti3  1  0.33283700  0.66679200  0.83231400  1
  Al  Al0  1  0.00000000  0.50000000  0.50000000  1
  Al  Al1  1  0.00000000  0.00000000  0.50000000  1
  Si  Si0  1  0.42173400  0.14397200  0.60065300  1
  Si  Si1  1  0.08817700  0.47884100  0.27763400  1
  Si  Si2  1  0.75840300  0.81031900  0.93942200  1
  Si  Si3  1  0.57826600  0.85602800  0.39934700  1
  Si  Si4  1  0.24159700  0.18968100  0.06057800  1
  Si  Si5  1  0.91182300  0.52115900  0.72236600  1
  O  O0  1  0.28905300  0.98188900  0.42245100  1
  O  O1  1  0.33633900  0.35241700  0.53464300  1
  O  O2  1  0.96145200  0.32896700  0.08405400  1
  O  O3  1  0.11965300  0.53134100  0.38022700  1
  O  O4  1  0.21108500  0.01153900  0.59816500  1
  O  O5  1  0.01854900  0.68034000  0.20761900  1
  O  O6  1  0.78891500  0.98846100  0.40183500  1
  O  O7  1  0.88034700  0.46865900  0.61977300  1
  O  O8  1  0.76202900  0.06176900  0.19107500  1
  O  O9  1  0.63080800  0.65863200  0.74706000  1
  O  O10  1  0.79080600  0.86848300  0.04099000  1
  O  O11  1  0.87934800  0.34676100  0.27482000  1
  O  O12  1  0.68505700  0.01122000  0.86930400  1
  O  O13  1  0.66366100  0.64758300  0.46535700  1
  O  O14  1  0.45103600  0.32164100  0.06258000  1
  O  O15  1  0.54729600  0.80202900  0.29613000  1
  O  O16  1  0.42737800  0.39199900  0.85426800  1
  O  O17  1  0.71094700  0.01811100  0.57754900  1
  O  O18  1  0.57262200  0.60800100  0.14573200  1
  O  O19  1  0.45270400  0.19797100  0.70387000  1
  O  O20  1  0.54896400  0.67835900  0.93742000  1
  O  O21  1  0.31494300  0.98878000  0.13069600  1
  O  O22  1  0.12065200  0.65323900  0.72518000  1
  O  O23  1  0.20919400  0.13151700  0.95901000  1
  O  O24  1  0.36919200  0.34136800  0.25294000  1
  O  O25  1  0.23797100  0.93823100  0.80892500  1
  O  O26  1  0.98145100  0.31966000  0.79238100  1
  O  O27  1  0.03854800  0.67103300  0.91594600  1
  F  F0  1  0.08782800  0.72738800  0.52387800  1
  F  F1  1  0.91217200  0.27261200  0.47612200  1
loop_
_geom_bond_atom_site_label_1
_geom_bond_atom_site_label_2
_geom_bond_distance
_geom_bond_site_symmetry_2
Ca0 F0 2.313198 1_555
Ca0 O9 2.364684 1_555
Ca0 O7 2.376429 1_555
Ca0 O13 2.412324 1_555
Ca0 O22 2.414913 1_555
Ca0 O1 2.630961 1_555
Ca0 O4 2.636002 1_565
Ca1 O8 2.274714 1_465
Ca1 O0 2.410900 1_555
Ca1 O15 2.422842 1_555
Ca1 O6 2.449809 1_455
Ca1 O21 2.458595 1_555
Ca1 O5 2.603245 1_555
Ca1 O11 2.627861 1_465
Ca2 O16 2.269083 1_555
Ca2 O23 2.412344 1_655
Ca2 O2 2.441460 1_556
Ca2 O14 2.449968 1_556
Ca2 O26 2.464277 1_555
Ca2 O20 2.606781 1_555
Ca2 O12 2.628007 1_555
Ca3 F1 2.313198 1_555
Ca3 O24 2.364684 1_555
Ca3 O3 2.376429 1_555
Ca3 O1 2.412324 1_555
Ca3 O11 2.414913 1_555
Ca3 O13 2.630961 1_555
Ca3 O6 2.636002 1_545
Ca4 O18 2.269083 1_555
Ca4 O10 2.412344 1_455
Ca4 O27 2.441460 1_554
Ca4 O20 2.449968 1_554
Ca4 O5 2.464277 1_555
Ca4 O14 2.606781 1_555
Ca4 O21 2.628007 1_555
Ca5 O25 2.274714 1_645
Ca5 O17 2.410900 1_555
Ca5 O19 2.422842 1_555
Ca5 O4 2.449809 1_655
Ca5 O12 2.458595 1_555
Ca5 O26 2.603245 1_555
Ca5 O22 2.627861 1_645
Al0 F1 1.869907 1_455
Al0 F0 1.869907 1_555
Al0 O3 1.886531 1_555
Al0 O7 1.886531 1_455
Al0 O1 1.938815 1_555
Al0 O13 1.938815 1_455
Al1 F0 1.873901 1_545
Al1 F1 1.873901 1_455
Al1 O17 1.900166 1_455
Al1 O0 1.900166 1_545
Al1 O4 1.931532 1_555
Al1 O6 1.931532 1_445
O0 Si3 1.651290 1_555
O1 Si0 1.663443 1_555
O2 Si4 1.647635 1_655
O2 Ti1 1.985184 1_555
O3 Si1 1.645078 1_555
O4 Si0 1.662220 1_555
O5 Si1 1.652591 1_555
O5 Ti0 2.038221 1_455
O6 Si3 1.662220 1_555
O7 Si5 1.645078 1_555
O8 Ti1 1.866076 1_555
O8 Ti0 1.886455 1_545
O9 Si5 1.650640 1_555
O9 Ti3 2.012104 1_555
O10 Si2 1.646188 1_554
O10 Ti0 2.015569 1_555
O11 Si1 1.652648 1_655
O11 Ti1 2.047224 1_555
O12 Si2 1.651358 1_545
O12 Ti2 2.034580 1_555
O13 Si3 1.663443 1_555
O14 Si4 1.653371 1_555
O14 Ti1 2.032199 1_555
O15 Si3 1.657288 1_555
O15 Ti0 1.982961 1_555
O16 Ti2 1.872918 1_555
O16 Ti3 1.886817 1_555
O17 Si0 1.651290 1_555
O18 Ti0 1.872918 1_555
O18 Ti1 1.886817 1_555
O19 Si0 1.657288 1_555
O19 Ti2 1.982961 1_555
O20 Si2 1.653371 1_555
O20 Ti3 2.032199 1_555
O21 Si4 1.651358 1_565
O21 Ti0 2.034580 1_555
O22 Si5 1.652648 1_455
O22 Ti3 2.047224 1_555
O23 Si4 1.646188 1_556
O23 Ti2 2.015569 1_555
O24 Si1 1.650640 1_555
O24 Ti1 2.012104 1_555
O25 Ti3 1.866076 1_555
O25 Ti2 1.886455 1_565
O26 Si5 1.652591 1_555
O26 Ti2 2.038221 1_655
O27 Si2 1.647635 1_455
O27 Ti3 1.985184 1_555
