# generated using pymatgen
data_NaCdF3
_symmetry_space_group_name_H-M   'P 1'
_cell_length_a   5.98761605
_cell_length_b   5.98761666
_cell_length_c   5.98761697
_cell_angle_alpha   57.13239183
_cell_angle_beta   57.13238765
_cell_angle_gamma   57.13238630
_symmetry_Int_Tables_number   1
_chemical_formula_structural   NaCdF3
_chemical_formula_sum   'Na2 Cd2 F6'
_cell_volume   141.76141002
_cell_formula_units_Z   2
loop_
 _symmetry_equiv_pos_site_id
 _symmetry_equiv_pos_as_xyz
  1  'x, y, z'
loop_
 _atom_site_type_symbol
 _atom_site_label
 _atom_site_symmetry_multiplicity
 _atom_site_fract_x
 _atom_site_fract_y
 _atom_site_fract_z
 _atom_site_occupancy
  Na  Na0  1  0.29160340  0.29160340  0.29160340  1
  Na  Na1  1  0.79160340  0.79160340  0.79160340  1
  Cd  Cd0  1  0.00258627  0.00258627  0.00258627  1
  Cd  Cd1  1  0.50258627  0.50258627  0.50258627  1
  F  F0  1  0.10957593  0.39076832  0.70146508  1
  F  F1  1  0.39076832  0.70146508  0.10957593  1
  F  F2  1  0.70146508  0.10957593  0.39076832  1
  F  F3  1  0.20146508  0.89076832  0.60957593  1
  F  F4  1  0.60957593  0.20146508  0.89076832  1
  F  F5  1  0.89076832  0.60957593  0.20146508  1
loop_
_geom_bond_atom_site_label_1
_geom_bond_atom_site_label_2
_geom_bond_distance
_geom_bond_site_symmetry_2
Cd0 F1 2.208481 1_545
Cd0 F2 2.208481 1_455
Cd0 F0 2.208481 1_554
Cd0 F4 2.281887 1_454
Cd0 F5 2.281887 1_445
Cd0 F3 2.281887 1_544
Cd1 F5 2.208481 1_555
Cd1 F3 2.208481 1_555
Cd1 F4 2.208481 1_555
Cd1 F0 2.281887 1_555
Cd1 F2 2.281887 1_555
Cd1 F1 2.281887 1_555
F0 Na1 2.237703 1_455
F0 Na0 2.353518 1_555
F1 Na1 2.237703 1_554
F1 Na0 2.353518 1_555
F2 Na1 2.237704 1_545
F2 Na0 2.353518 1_555
F3 Na0 2.237704 1_565
F3 Na1 2.353518 1_455
F4 Na0 2.237703 1_556
F4 Na1 2.353518 1_545
F5 Na0 2.237703 1_655
F5 Na1 2.353518 1_554
