# generated using pymatgen
data_Zr2CoSi2
_symmetry_space_group_name_H-M   'P 1'
_cell_length_a   3.89316476
_cell_length_b   5.31129783
_cell_length_c   8.54222553
_cell_angle_alpha   82.56127590
_cell_angle_beta   76.82784204
_cell_angle_gamma   68.50017800
_symmetry_Int_Tables_number   1
_chemical_formula_structural   Zr2CoSi2
_chemical_formula_sum   'Zr4 Co2 Si4'
_cell_volume   159.81376215
_cell_formula_units_Z   2
loop_
 _symmetry_equiv_pos_site_id
 _symmetry_equiv_pos_as_xyz
  1  'x, y, z'
loop_
 _atom_site_type_symbol
 _atom_site_label
 _atom_site_symmetry_multiplicity
 _atom_site_fract_x
 _atom_site_fract_y
 _atom_site_fract_z
 _atom_site_occupancy
  Zr  Zr0  1  0.81167936  0.27610479  0.10053648  1
  Zr  Zr1  1  0.18832064  0.72389521  0.89946352  1
  Zr  Zr2  1  0.99919648  0.32726552  0.67434352  1
  Zr  Zr3  1  0.00080352  0.67273448  0.32565648  1
  Co  Co0  1  0.27665170  0.07246297  0.37423464  1
  Co  Co1  1  0.72334830  0.92753703  0.62576536  1
  Si  Si0  1  0.64534057  0.28008772  0.42923015  1
  Si  Si1  1  0.35465943  0.71991228  0.57076985  1
  Si  Si2  1  0.51113989  0.85472217  0.12299804  1
  Si  Si3  1  0.48886011  0.14527783  0.87700196  1
loop_
_geom_bond_atom_site_label_1
_geom_bond_atom_site_label_2
_geom_bond_distance
_geom_bond_site_symmetry_2
Co0 Si0 2.258039 1_555
Co0 Si0 2.258046 1_455
Co0 Si1 2.327783 1_545
Co0 Si2 2.398449 1_545
Co0 Zr3 2.816982 1_645
Co0 Zr3 2.816990 1_545
Co0 Zr2 2.852208 1_455
Co0 Zr3 2.973396 1_555
Co0 Zr0 3.122798 1_555
Co0 Zr0 3.122800 1_455
Co1 Si1 2.258039 1_555
Co1 Si1 2.258046 1_655
Co1 Si0 2.327783 1_565
Co1 Si3 2.398449 1_565
Co1 Zr2 2.816982 1_465
Co1 Zr2 2.816990 1_565
Co1 Zr3 2.852208 1_655
Co1 Zr2 2.973396 1_555
Co1 Zr1 3.122798 1_555
Co1 Zr1 3.122800 1_655
Si0 Si1 2.523799 1_555
Si0 Zr0 2.734971 1_555
Si0 Zr2 2.836922 1_455
Si0 Zr2 2.836931 1_555
Si0 Zr3 2.850741 1_655
Si0 Zr3 2.850744 1_555
Si1 Zr1 2.734971 1_555
Si1 Zr3 2.836922 1_655
Si1 Zr3 2.836931 1_555
Si1 Zr2 2.850741 1_455
Si1 Zr2 2.850744 1_555
Si2 Si3 2.439270 1_564
Si2 Zr3 2.699160 1_655
Si2 Zr3 2.699166 1_555
Si2 Zr1 2.790319 1_654
Si2 Zr1 2.790319 1_554
Si2 Zr0 2.849709 1_565
Si2 Zr0 2.849710 1_465
Si2 Zr0 2.874908 1_555
Si3 Zr2 2.699160 1_455
Si3 Zr2 2.699166 1_555
Si3 Zr0 2.790319 1_456
Si3 Zr0 2.790319 1_556
Si3 Zr1 2.849709 1_545
Si3 Zr1 2.849710 1_645
Si3 Zr1 2.874908 1_555
