# generated using pymatgen
data_Ca2Nd2Nb3FeO14
_symmetry_space_group_name_H-M   'P 1'
_cell_length_a   7.40522500
_cell_length_b   7.50017700
_cell_length_c   12.88358198
_cell_angle_alpha   54.98137655
_cell_angle_beta   90.00000000
_cell_angle_gamma   90.00000000
_symmetry_Int_Tables_number   1
_chemical_formula_structural   Ca2Nd2Nb3FeO14
_chemical_formula_sum   'Ca4 Nd4 Nb6 Fe2 O28'
_cell_volume   586.01946027
_cell_formula_units_Z   2
loop_
 _symmetry_equiv_pos_site_id
 _symmetry_equiv_pos_as_xyz
  1  'x, y, z'
loop_
 _atom_site_type_symbol
 _atom_site_label
 _atom_site_symmetry_multiplicity
 _atom_site_fract_x
 _atom_site_fract_y
 _atom_site_fract_z
 _atom_site_occupancy
  Ca  Ca0  1  0.50000000  0.50000000  0.50000000  1
  Ca  Ca1  1  0.74254000  0.50000000  0.25000000  1
  Ca  Ca2  1  0.25746000  0.50000000  0.75000000  1
  Ca  Ca3  1  0.50000000  0.50000000  0.00000000  1
  Nd  Nd0  1  0.25757800  0.00000000  0.75000000  1
  Nd  Nd1  1  0.74242200  0.00000000  0.25000000  1
  Nd  Nd2  1  0.00000000  0.50000000  0.50000000  1
  Nd  Nd3  1  0.00000000  0.50000000  0.00000000  1
  Nb  Nb0  1  0.50000000  0.00000000  0.00000000  1
  Nb  Nb1  1  0.50000000  0.00000000  0.50000000  1
  Nb  Nb2  1  0.76186600  0.50000000  0.75000000  1
  Nb  Nb3  1  0.76287600  0.00000000  0.75000000  1
  Nb  Nb4  1  0.23813400  0.50000000  0.25000000  1
  Nb  Nb5  1  0.23712400  0.00000000  0.25000000  1
  Fe  Fe0  1  0.00000000  0.00000000  0.00000000  1
  Fe  Fe1  1  0.00000000  0.00000000  0.50000000  1
  O  O0  1  0.44457500  0.32140700  0.37250200  1
  O  O1  1  0.75500700  0.32356400  0.67551100  1
  O  O2  1  0.74706200  0.62597900  0.37367400  1
  O  O3  1  0.74809000  0.93289000  0.07269800  1
  O  O4  1  0.95294000  0.92351100  0.87392300  1
  O  O5  1  0.94817200  0.32746300  0.87631200  1
  O  O6  1  0.95294000  0.07648900  0.62607700  1
  O  O7  1  0.05182800  0.32746300  0.37631200  1
  O  O8  1  0.24499300  0.32356400  0.17551100  1
  O  O9  1  0.25191000  0.06711000  0.92730200  1
  O  O10  1  0.25293800  0.62597900  0.87367400  1
  O  O11  1  0.24499300  0.67643600  0.32448900  1
  O  O12  1  0.25191000  0.93289000  0.57269800  1
  O  O13  1  0.44695300  0.93420400  0.37050500  1
  O  O14  1  0.44457500  0.67859300  0.12749800  1
  O  O15  1  0.44695300  0.06579600  0.12949500  1
  O  O16  1  0.55304700  0.06579600  0.62949500  1
  O  O17  1  0.55304700  0.93420400  0.87050500  1
  O  O18  1  0.55542500  0.32140700  0.87250200  1
  O  O19  1  0.74809000  0.06711000  0.42730200  1
  O  O20  1  0.75500700  0.67643600  0.82448900  1
  O  O21  1  0.74706200  0.37402100  0.12632600  1
  O  O22  1  0.94817200  0.67253700  0.62368800  1
  O  O23  1  0.04706000  0.92351100  0.37392300  1
  O  O24  1  0.05182800  0.67253700  0.12368800  1
  O  O25  1  0.04706000  0.07648900  0.12607700  1
  O  O26  1  0.25293800  0.37402100  0.62632600  1
  O  O27  1  0.55542500  0.67859300  0.62749800  1
loop_
_geom_bond_atom_site_label_1
_geom_bond_atom_site_label_2
_geom_bond_distance
_geom_bond_site_symmetry_2
Ca0 O26 2.263619 1_555
Ca0 O2 2.263619 1_555
Ca0 O1 2.644999 1_555
Ca0 O11 2.644999 1_555
Ca0 O27 2.680693 1_555
Ca0 O0 2.680693 1_555
Ca0 O13 2.703263 1_555
Ca0 O16 2.703263 1_555
Ca1 O2 2.271686 1_555
Ca1 O21 2.271686 1_555
Ca1 O14 2.593740 1_555
Ca1 O0 2.593740 1_555
Ca1 O7 2.674257 1_655
Ca1 O24 2.674257 1_655
Ca1 O19 2.692439 1_555
Ca1 O3 2.692439 1_555
Ca2 O10 2.271686 1_555
Ca2 O26 2.271686 1_555
Ca2 O18 2.593740 1_555
Ca2 O27 2.593740 1_555
Ca2 O22 2.674257 1_455
Ca2 O5 2.674257 1_455
Ca2 O9 2.692439 1_555
Ca2 O12 2.692439 1_555
Ca3 O21 2.263619 1_555
Ca3 O10 2.263619 1_554
Ca3 O8 2.644999 1_555
Ca3 O20 2.644999 1_554
Ca3 O18 2.680693 1_554
Ca3 O14 2.680693 1_555
Ca3 O17 2.703263 1_554
Ca3 O15 2.703263 1_555
Nd0 O26 2.297697 1_555
Nd0 O10 2.297697 1_545
Nd0 O17 2.561641 1_545
Nd0 O16 2.561641 1_555
Nd0 O9 2.606268 1_555
Nd0 O12 2.606268 1_545
Nd0 O4 2.629849 1_445
Nd0 O6 2.629849 1_455
Nd1 O2 2.297697 1_545
Nd1 O21 2.297697 1_555
Nd1 O13 2.561641 1_545
Nd1 O15 2.561641 1_555
Nd1 O19 2.606268 1_555
Nd1 O3 2.606268 1_545
Nd1 O25 2.629849 1_655
Nd1 O23 2.629849 1_645
Nd2 O26 2.298931 1_555
Nd2 O2 2.298931 1_455
Nd2 O1 2.592575 1_455
Nd2 O11 2.592575 1_555
Nd2 O22 2.593831 1_455
Nd2 O7 2.593831 1_555
Nd2 O23 2.632098 1_555
Nd2 O6 2.632098 1_455
Nd3 O21 2.298931 1_455
Nd3 O10 2.298931 1_554
Nd3 O8 2.592575 1_555
Nd3 O20 2.592575 1_454
Nd3 O24 2.593831 1_555
Nd3 O5 2.593831 1_454
Nd3 O4 2.632098 1_454
Nd3 O25 2.632098 1_555
Nb0 O3 1.991155 1_545
Nb0 O9 1.991155 1_554
Nb0 O15 2.031294 1_555
Nb0 O17 2.031294 1_544
Nb0 O18 2.033026 1_554
Nb0 O14 2.033026 1_545
Nb1 O12 1.991155 1_545
Nb1 O19 1.991155 1_555
Nb1 O16 2.031294 1_555
Nb1 O13 2.031294 1_545
Nb1 O0 2.033026 1_555
Nb1 O27 2.033026 1_545
Nb2 O22 1.951759 1_555
Nb2 O5 1.951759 1_555
Nb2 O20 2.032783 1_555
Nb2 O1 2.032783 1_555
Nb2 O18 2.048392 1_555
Nb2 O27 2.048392 1_555
Nb3 O6 1.951390 1_555
Nb3 O4 1.951390 1_545
Nb3 O1 2.034892 1_555
Nb3 O20 2.034892 1_545
Nb3 O17 2.046701 1_545
Nb3 O16 2.046701 1_555
Nb4 O7 1.951759 1_555
Nb4 O24 1.951759 1_555
Nb4 O11 2.032783 1_555
Nb4 O8 2.032783 1_555
Nb4 O0 2.048392 1_555
Nb4 O14 2.048392 1_555
Nb5 O23 1.951390 1_545
Nb5 O25 1.951390 1_555
Nb5 O8 2.034892 1_555
Nb5 O11 2.034892 1_545
Nb5 O13 2.046701 1_545
Nb5 O15 2.046701 1_555
Fe0 O3 2.017285 1_445
Fe0 O9 2.017285 1_554
Fe0 O25 2.039226 1_555
Fe0 O4 2.039226 1_444
Fe0 O5 2.055959 1_454
Fe0 O24 2.055959 1_545
Fe1 O12 2.017285 1_545
Fe1 O19 2.017285 1_455
Fe1 O23 2.039226 1_545
Fe1 O6 2.039226 1_455
Fe1 O7 2.055959 1_555
Fe1 O22 2.055959 1_445
