# generated using pymatgen
data_SrSiN2
_symmetry_space_group_name_H-M   'P 1'
_cell_length_a   5.51387146
_cell_length_b   6.00496759
_cell_length_c   7.28292443
_cell_angle_alpha   90.00000000
_cell_angle_beta   90.00000000
_cell_angle_gamma   113.57888582
_symmetry_Int_Tables_number   1
_chemical_formula_structural   SrSiN2
_chemical_formula_sum   'Sr4 Si4 N8'
_cell_volume   221.00923041
_cell_formula_units_Z   4
loop_
 _symmetry_equiv_pos_site_id
 _symmetry_equiv_pos_as_xyz
  1  'x, y, z'
loop_
 _atom_site_type_symbol
 _atom_site_label
 _atom_site_symmetry_multiplicity
 _atom_site_fract_x
 _atom_site_fract_y
 _atom_site_fract_z
 _atom_site_occupancy
  Sr  Sr0  1  0.67591057  0.33816148  0.92995563  1
  Sr  Sr1  1  0.82408943  0.66183852  0.42995563  1
  Sr  Sr2  1  0.32408943  0.66183852  0.07004437  1
  Sr  Sr3  1  0.17591057  0.33816148  0.57004437  1
  Si  Si0  1  0.06469763  0.10717946  0.14131287  1
  Si  Si1  1  0.93530237  0.89282054  0.85868713  1
  Si  Si2  1  0.43530237  0.89282054  0.64131287  1
  Si  Si3  1  0.56469763  0.10717946  0.35868713  1
  N  N0  1  0.87920662  0.21752300  0.27126326  1
  N  N1  1  0.62079338  0.78247700  0.77126326  1
  N  N2  1  0.12079338  0.78247700  0.72873674  1
  N  N3  1  0.37920662  0.21752300  0.22873674  1
  N  N4  1  0.08455382  0.20676117  0.91029857  1
  N  N5  1  0.58455382  0.20676117  0.58970143  1
  N  N6  1  0.91544618  0.79323983  0.08970143  1
  N  N7  1  0.41544618  0.79323983  0.41029857  1
loop_
_geom_bond_atom_site_label_1
_geom_bond_atom_site_label_2
_geom_bond_distance
_geom_bond_site_symmetry_2
N0 Si0 1.709678 1_655
N0 Si3 1.712447 1_555
N0 Sr3 2.643497 1_655
N0 Sr0 2.934242 1_554
N0 Sr1 3.032420 1_555
N0 Sr2 3.169794 1_655
N1 Si2 1.709678 1_555
N1 Si1 1.712447 1_555
N1 Sr2 2.643497 1_556
N1 Sr1 2.934242 1_555
N1 Sr0 3.032420 1_555
N1 Sr3 3.169794 1_555
N2 Si1 1.709678 1_455
N2 Si2 1.712447 1_555
N2 Sr1 2.643497 1_455
N2 Sr2 2.934242 1_556
N2 Sr3 3.032420 1_555
N2 Sr0 3.169794 1_455
N3 Si3 1.709678 1_555
N3 Si0 1.712447 1_555
N3 Sr0 2.643497 1_554
N3 Sr3 2.934242 1_555
N3 Sr2 3.032420 1_555
N3 Sr1 3.169794 1_555
N4 Si1 1.769562 1_445
N4 Si0 1.774223 1_556
N4 Sr3 2.588257 1_555
N4 Sr0 2.672528 1_455
N4 Sr2 2.770962 1_556
N4 Sr0 3.035903 1_555
N5 Si2 1.769562 1_545
N5 Si3 1.774223 1_555
N5 Sr0 2.588257 1_555
N5 Sr3 2.672528 1_555
N5 Sr1 2.770962 1_555
N5 Sr3 3.035903 1_655
N6 Si0 1.769556 1_665
N6 Si1 1.774221 1_554
N6 Sr1 2.588259 1_555
N6 Sr2 2.672531 1_655
N6 Sr0 2.770967 1_554
N6 Sr2 3.035902 1_555
N7 Si3 1.769556 1_565
N7 Si2 1.774221 1_555
N7 Sr2 2.588259 1_555
N7 Sr1 2.672531 1_555
N7 Sr3 2.770967 1_555
N7 Sr1 3.035902 1_455
