# generated using pymatgen
data_K2SO4
_symmetry_space_group_name_H-M   'P 1'
_cell_length_a   5.73672509
_cell_length_b   7.42958663
_cell_length_c   10.01581510
_cell_angle_alpha   90.00000000
_cell_angle_beta   90.00000000
_cell_angle_gamma   90.00000000
_symmetry_Int_Tables_number   1
_chemical_formula_structural   K2SO4
_chemical_formula_sum   'K8 S4 O16'
_cell_volume   426.88902351
_cell_formula_units_Z   4
loop_
 _symmetry_equiv_pos_site_id
 _symmetry_equiv_pos_as_xyz
  1  'x, y, z'
loop_
 _atom_site_type_symbol
 _atom_site_label
 _atom_site_symmetry_multiplicity
 _atom_site_fract_x
 _atom_site_fract_y
 _atom_site_fract_z
 _atom_site_occupancy
  K  K0  1  0.75000000  0.00867307  0.70286422  1
  K  K1  1  0.25000000  0.99132693  0.29713578  1
  K  K2  1  0.75000000  0.50867307  0.79713578  1
  K  K3  1  0.25000000  0.49132693  0.20286422  1
  K  K4  1  0.25000000  0.67020316  0.58769921  1
  K  K5  1  0.75000000  0.32979684  0.41230079  1
  K  K6  1  0.25000000  0.17020316  0.91230079  1
  K  K7  1  0.75000000  0.82979684  0.08769921  1
  S  S0  1  0.25000000  0.23164415  0.58080124  1
  S  S1  1  0.75000000  0.76835585  0.41919876  1
  S  S2  1  0.25000000  0.73164415  0.91919876  1
  S  S3  1  0.75000000  0.26835585  0.08080124  1
  O  O0  1  0.53946990  0.70054276  0.34989735  1
  O  O1  1  0.03946990  0.29945724  0.65010265  1
  O  O2  1  0.96053010  0.20054276  0.15010265  1
  O  O3  1  0.46053010  0.79945724  0.84989735  1
  O  O4  1  0.46053010  0.29945724  0.65010265  1
  O  O5  1  0.96053010  0.70054276  0.34989735  1
  O  O6  1  0.03946990  0.79945724  0.84989735  1
  O  O7  1  0.53946990  0.20054276  0.15010265  1
  O  O8  1  0.25000000  0.30168668  0.44191320  1
  O  O9  1  0.75000000  0.69831332  0.55808680  1
  O  O10  1  0.25000000  0.80168668  0.05808680  1
  O  O11  1  0.75000000  0.19831332  0.94191320  1
  O  O12  1  0.75000000  0.46651090  0.08108044  1
  O  O13  1  0.25000000  0.53348910  0.91891956  1
  O  O14  1  0.75000000  0.96651090  0.41891956  1
  O  O15  1  0.25000000  0.03348910  0.58108044  1
loop_
_geom_bond_atom_site_label_1
_geom_bond_atom_site_label_2
_geom_bond_distance
_geom_bond_site_symmetry_2
K0 O6 2.709697 1_645
K0 O3 2.709697 1_545
K0 O9 2.723895 1_545
K0 O1 2.775651 1_655
K0 O4 2.775651 1_555
K0 O11 2.778069 1_555
K0 O14 2.861137 1_545
K0 O15 3.122390 1_655
K0 O15 3.122390 1_555
K1 O7 2.709697 1_565
K1 O2 2.709697 1_465
K1 O8 2.723895 1_565
K1 O0 2.775651 1_555
K1 O5 2.775651 1_455
K1 O10 2.778069 1_555
K1 O15 2.861137 1_565
K1 O14 3.122390 1_455
K1 O14 3.122390 1_555
K2 O1 2.709697 1_655
K2 O4 2.709697 1_555
K2 O11 2.723895 1_555
K2 O6 2.775651 1_655
K2 O3 2.775651 1_555
K2 O9 2.778069 1_555
K2 O12 2.861137 1_556
K2 O13 3.122390 1_555
K2 O13 3.122390 1_655
K3 O0 2.709697 1_555
K3 O5 2.709697 1_455
K3 O10 2.723895 1_555
K3 O7 2.775651 1_555
K3 O2 2.775651 1_455
K3 O8 2.778069 1_555
K3 O13 2.861137 1_554
K3 O12 3.122390 1_455
K3 O12 3.122390 1_555
K4 O15 2.699878 1_565
K4 O9 2.891209 1_455
K4 O9 2.891209 1_555
K4 O0 2.912268 1_555
K4 O5 2.912268 1_455
K4 O3 3.045883 1_555
K4 O6 3.045883 1_555
K4 O4 3.071893 1_555
K4 O1 3.071893 1_555
K4 O8 3.102953 1_555
K5 O14 2.699878 1_545
K5 O8 2.891209 1_655
K5 O8 2.891209 1_555
K5 O1 2.912268 1_655
K5 O4 2.912268 1_555
K5 O2 3.045883 1_555
K5 O7 3.045883 1_555
K5 O5 3.071893 1_555
K5 O0 3.071893 1_555
K5 O9 3.102953 1_555
K6 O13 2.699878 1_555
K6 O11 2.891209 1_555
K6 O11 2.891209 1_455
K6 O7 2.912268 1_556
K6 O2 2.912268 1_456
K6 O4 3.045883 1_555
K6 O1 3.045883 1_555
K6 O3 3.071893 1_545
K6 O6 3.071893 1_545
K6 O10 3.102953 1_546
K7 O12 2.699878 1_555
K7 O10 2.891209 1_555
K7 O10 2.891209 1_655
K7 O6 2.912268 1_654
K7 O3 2.912268 1_554
K7 O5 3.045883 1_555
K7 O0 3.045883 1_555
K7 O2 3.071893 1_565
K7 O7 3.071893 1_565
K7 O11 3.102953 1_564
O0 S1 1.481315 1_555
O1 S0 1.481315 1_555
O2 S3 1.481315 1_555
O3 S2 1.481315 1_555
O4 S0 1.481315 1_555
O5 S1 1.481315 1_555
O6 S2 1.481315 1_555
O7 S3 1.481315 1_555
O8 S0 1.485226 1_555
O9 S1 1.485226 1_555
O10 S2 1.485226 1_554
O11 S3 1.485226 1_556
O12 S3 1.472213 1_555
O13 S2 1.472213 1_555
O14 S1 1.472213 1_555
O15 S0 1.472213 1_555
