# generated using pymatgen
data_Cs2SiF6
_symmetry_space_group_name_H-M   'P 1'
_cell_length_a   6.24248263
_cell_length_b   6.24248278
_cell_length_c   6.24248158
_cell_angle_alpha   60.00000107
_cell_angle_beta   60.00000029
_cell_angle_gamma   59.99999492
_symmetry_Int_Tables_number   1
_chemical_formula_structural   Cs2SiF6
_chemical_formula_sum   'Cs2 Si1 F6'
_cell_volume   172.01129107
_cell_formula_units_Z   1
loop_
 _symmetry_equiv_pos_site_id
 _symmetry_equiv_pos_as_xyz
  1  'x, y, z'
loop_
 _atom_site_type_symbol
 _atom_site_label
 _atom_site_symmetry_multiplicity
 _atom_site_fract_x
 _atom_site_fract_y
 _atom_site_fract_z
 _atom_site_occupancy
  Cs  Cs0  1  0.75000000  0.75000000  0.75000000  1
  Cs  Cs1  1  0.25000000  0.25000000  0.25000000  1
  Si  Si0  1  -0.00000000  0.00000000  0.00000000  1
  F  F0  1  0.19300850  0.80699150  0.80699150  1
  F  F1  1  0.19300850  0.80699150  0.19300850  1
  F  F2  1  0.80699150  0.19300850  0.80699150  1
  F  F3  1  0.80699150  0.19300850  0.19300850  1
  F  F4  1  0.80699150  0.80699150  0.19300850  1
  F  F5  1  0.19300850  0.19300850  0.80699150  1
loop_
_geom_bond_atom_site_label_1
_geom_bond_atom_site_label_2
_geom_bond_distance
_geom_bond_site_symmetry_2
Cs0 F4 3.161532 1_555
Cs0 F4 3.161532 1_556
Cs0 F1 3.161533 1_655
Cs0 F3 3.161533 1_565
Cs0 F5 3.161533 1_565
Cs0 F1 3.161533 1_556
Cs0 F5 3.161533 1_655
Cs0 F3 3.161533 1_556
Cs0 F0 3.161533 1_655
Cs0 F0 3.161533 1_555
Cs0 F2 3.161533 1_565
Cs0 F2 3.161533 1_555
Cs1 F5 3.161532 1_555
Cs1 F5 3.161532 1_554
Cs1 F2 3.161533 1_455
Cs1 F0 3.161533 1_545
Cs1 F4 3.161533 1_545
Cs1 F2 3.161533 1_554
Cs1 F4 3.161533 1_455
Cs1 F0 3.161533 1_554
Cs1 F3 3.161533 1_455
Cs1 F3 3.161533 1_555
Cs1 F1 3.161533 1_545
Cs1 F1 3.161533 1_555
F0 Si0 1.703918 1_566
F1 Si0 1.703918 1_565
F2 Si0 1.703918 1_656
F3 Si0 1.703918 1_655
F4 Si0 1.703918 1_665
F5 Si0 1.703918 1_556
