# generated using pymatgen
data_Zr2SnC
_symmetry_space_group_name_H-M   'P 1'
_cell_length_a   3.37713758
_cell_length_b   3.37713768
_cell_length_c   14.65499582
_cell_angle_alpha   90.00000000
_cell_angle_beta   90.00000000
_cell_angle_gamma   120.00001920
_symmetry_Int_Tables_number   1
_chemical_formula_structural   Zr2SnC
_chemical_formula_sum   'Zr4 Sn2 C2'
_cell_volume   144.74839812
_cell_formula_units_Z   2
loop_
 _symmetry_equiv_pos_site_id
 _symmetry_equiv_pos_as_xyz
  1  'x, y, z'
loop_
 _atom_site_type_symbol
 _atom_site_label
 _atom_site_symmetry_multiplicity
 _atom_site_fract_x
 _atom_site_fract_y
 _atom_site_fract_z
 _atom_site_occupancy
  Zr  Zr0  1  0.33333300  0.66666700  0.08489749  1
  Zr  Zr1  1  0.33333300  0.66666700  0.41510251  1
  Zr  Zr2  1  0.66666700  0.33333300  0.58489749  1
  Zr  Zr3  1  0.66666700  0.33333300  0.91510251  1
  Sn  Sn0  1  0.33333300  0.66666700  0.75000000  1
  Sn  Sn1  1  0.66666700  0.33333300  0.25000000  1
  C  C0  1  -0.00000000  -0.00000000  -0.00000000  1
  C  C1  1  -0.00000000  -0.00000000  0.50000000  1
loop_
_geom_bond_atom_site_label_1
_geom_bond_atom_site_label_2
_geom_bond_distance
_geom_bond_site_symmetry_2
Sn0 Zr2 3.107415 1_455
Sn0 Zr3 3.107415 1_455
Sn0 Zr2 3.107415 1_565
Sn0 Zr3 3.107415 1_565
Sn0 Zr2 3.107419 1_555
Sn0 Zr3 3.107419 1_555
Sn1 Zr0 3.107415 1_655
Sn1 Zr1 3.107415 1_655
Sn1 Zr1 3.107415 1_545
Sn1 Zr0 3.107415 1_545
Sn1 Zr0 3.107419 1_555
Sn1 Zr1 3.107419 1_555
C0 Zr0 2.312930 1_545
C0 Zr3 2.312930 1_454
C0 Zr0 2.312932 1_445
C0 Zr3 2.312932 1_554
C0 Zr0 2.312932 1_555
C0 Zr3 2.312932 1_444
C1 Zr1 2.312930 1_545
C1 Zr2 2.312930 1_455
C1 Zr1 2.312932 1_445
C1 Zr2 2.312932 1_555
C1 Zr1 2.312932 1_555
C1 Zr2 2.312932 1_445
