# generated using pymatgen
data_ZrGeS
_symmetry_space_group_name_H-M   'P 1'
_cell_length_a   3.63868592
_cell_length_b   3.63868592
_cell_length_c   8.07255336
_cell_angle_alpha   90.00000000
_cell_angle_beta   90.00000000
_cell_angle_gamma   90.00000000
_symmetry_Int_Tables_number   1
_chemical_formula_structural   ZrGeS
_chemical_formula_sum   'Zr2 Ge2 S2'
_cell_volume   106.88089084
_cell_formula_units_Z   2
loop_
 _symmetry_equiv_pos_site_id
 _symmetry_equiv_pos_as_xyz
  1  'x, y, z'
loop_
 _atom_site_type_symbol
 _atom_site_label
 _atom_site_symmetry_multiplicity
 _atom_site_fract_x
 _atom_site_fract_y
 _atom_site_fract_z
 _atom_site_occupancy
  Zr  Zr0  1  0.75000000  0.75000000  0.72519379  1
  Zr  Zr1  1  0.25000000  0.25000000  0.27480621  1
  Ge  Ge0  1  0.25000000  0.75000000  -0.00000000  1
  Ge  Ge1  1  0.75000000  0.25000000  -0.00000000  1
  S  S0  1  0.75000000  0.75000000  0.37856185  1
  S  S1  1  0.25000000  0.25000000  0.62143815  1
loop_
_geom_bond_atom_site_label_1
_geom_bond_atom_site_label_2
_geom_bond_distance
_geom_bond_site_symmetry_2
Ge0 Ge1 2.572939 1_465
Ge0 Ge1 2.572939 1_455
Ge0 Ge1 2.572939 1_555
Ge0 Ge1 2.572939 1_565
Ge0 Zr1 2.869016 1_565
Ge0 Zr1 2.869016 1_555
Ge0 Zr0 2.869016 1_554
Ge0 Zr0 2.869016 1_454
Ge1 Zr1 2.869016 1_655
Ge1 Zr1 2.869016 1_555
Ge1 Zr0 2.869016 1_554
Ge1 Zr0 2.869016 1_544
S0 Zr1 2.705836 1_665
S0 Zr1 2.705836 1_555
S0 Zr1 2.705836 1_565
S0 Zr1 2.705836 1_655
S0 Zr0 2.798205 1_555
S1 Zr0 2.705836 1_455
S1 Zr0 2.705836 1_445
S1 Zr0 2.705836 1_545
S1 Zr0 2.705836 1_555
S1 Zr1 2.798205 1_555
