# generated using pymatgen
data_Sm(SiPd)2
_symmetry_space_group_name_H-M   'P 1'
_cell_length_a   4.19011672
_cell_length_b   4.19011725
_cell_length_c   5.77545049
_cell_angle_alpha   111.26932278
_cell_angle_beta   111.26932769
_cell_angle_gamma   90.00000447
_symmetry_Int_Tables_number   1
_chemical_formula_structural   Sm(SiPd)2
_chemical_formula_sum   'Sm1 Si2 Pd2'
_cell_volume   87.04007988
_cell_formula_units_Z   1
loop_
 _symmetry_equiv_pos_site_id
 _symmetry_equiv_pos_as_xyz
  1  'x, y, z'
loop_
 _atom_site_type_symbol
 _atom_site_label
 _atom_site_symmetry_multiplicity
 _atom_site_fract_x
 _atom_site_fract_y
 _atom_site_fract_z
 _atom_site_occupancy
  Sm  Sm0  1  -0.00000000  0.00000000  0.00000000  1
  Si  Si0  1  0.61846448  0.61846448  0.23692896  1
  Si  Si1  1  0.38153552  0.38153552  0.76307104  1
  Pd  Pd0  1  0.75000000  0.25000000  0.50000000  1
  Pd  Pd1  1  0.25000000  0.75000000  0.50000000  1
loop_
_geom_bond_atom_site_label_1
_geom_bond_atom_site_label_2
_geom_bond_distance
_geom_bond_site_symmetry_2
Si0 Si1 2.349174 1_554
Si0 Sm0 3.187192 1_555
Si0 Sm0 3.187192 1_665
Si0 Sm0 3.187192 1_565
Si0 Sm0 3.187192 1_655
Si1 Sm0 3.187192 1_666
Si1 Sm0 3.187192 1_556
Si1 Sm0 3.187192 1_656
Si1 Sm0 3.187192 1_566
Pd0 Si1 2.467828 1_655
Pd0 Si1 2.467828 1_555
Pd0 Si0 2.467828 1_555
Pd0 Si0 2.467828 1_545
Pd0 Sm0 3.245549 1_555
Pd0 Sm0 3.245550 1_656
Pd0 Sm0 3.245550 1_655
Pd0 Sm0 3.245550 1_666
Pd1 Si0 2.467828 1_455
Pd1 Si0 2.467828 1_555
Pd1 Si1 2.467828 1_555
Pd1 Si1 2.467828 1_565
Pd1 Sm0 3.245549 1_666
Pd1 Sm0 3.245550 1_565
Pd1 Sm0 3.245550 1_566
Pd1 Sm0 3.245550 1_555
