# generated using pymatgen
data_Fe5Si3
_symmetry_space_group_name_H-M   'P 1'
_cell_length_a   6.69840038
_cell_length_b   6.69840038
_cell_length_c   4.68631100
_cell_angle_alpha   90.00000000
_cell_angle_beta   90.00000000
_cell_angle_gamma   120.00000372
_symmetry_Int_Tables_number   1
_chemical_formula_structural   Fe5Si3
_chemical_formula_sum   'Fe10 Si6'
_cell_volume   182.09747642
_cell_formula_units_Z   2
loop_
 _symmetry_equiv_pos_site_id
 _symmetry_equiv_pos_as_xyz
  1  'x, y, z'
loop_
 _atom_site_type_symbol
 _atom_site_label
 _atom_site_symmetry_multiplicity
 _atom_site_fract_x
 _atom_site_fract_y
 _atom_site_fract_z
 _atom_site_occupancy
  Fe  Fe0  1  0.00000000  0.76143800  0.75000000  1
  Fe  Fe1  1  0.00000000  0.23856200  0.25000000  1
  Fe  Fe2  1  0.76143800  0.76143800  0.25000000  1
  Fe  Fe3  1  0.76143800  0.00000000  0.75000000  1
  Fe  Fe4  1  0.23856200  0.23856200  0.75000000  1
  Fe  Fe5  1  0.23856200  0.00000000  0.25000000  1
  Fe  Fe6  1  0.33333300  0.66666700  0.50000000  1
  Fe  Fe7  1  0.66666700  0.33333300  0.00000000  1
  Fe  Fe8  1  0.66666700  0.33333300  0.50000000  1
  Fe  Fe9  1  0.33333300  0.66666700  0.00000000  1
  Si  Si0  1  0.39540100  0.00000000  0.75000000  1
  Si  Si1  1  0.39540100  0.39540100  0.25000000  1
  Si  Si2  1  0.00000000  0.60459900  0.25000000  1
  Si  Si3  1  0.00000000  0.39540100  0.75000000  1
  Si  Si4  1  0.60459900  0.60459900  0.75000000  1
  Si  Si5  1  0.60459900  0.00000000  0.25000000  1
loop_
_geom_bond_atom_site_label_1
_geom_bond_atom_site_label_2
_geom_bond_distance
_geom_bond_site_symmetry_2
Fe0 Si0 2.309988 1_565
Fe0 Si4 2.309988 1_455
Fe0 Si3 2.451862 1_555
Fe0 Si2 2.567893 1_555
Fe0 Si2 2.567893 1_556
Fe1 Si5 2.309988 1_455
Fe1 Si1 2.309988 1_555
Fe1 Si2 2.451862 1_555
Fe1 Si3 2.567893 1_554
Fe1 Si3 2.567893 1_555
Fe2 Si2 2.309988 1_655
Fe2 Si5 2.309988 1_565
Fe2 Si1 2.451862 1_555
Fe2 Si4 2.567893 1_555
Fe2 Si4 2.567893 1_554
Fe3 Si3 2.309988 1_655
Fe3 Si4 2.309988 1_545
Fe3 Si0 2.451862 1_555
Fe3 Si5 2.567893 1_555
Fe3 Si5 2.567893 1_556
Fe4 Si3 2.309988 1_555
Fe4 Si0 2.309988 1_555
Fe4 Si4 2.451862 1_555
Fe4 Si1 2.567893 1_555
Fe4 Si1 2.567893 1_556
Fe5 Si2 2.309988 1_545
Fe5 Si1 2.309988 1_555
Fe5 Si5 2.451862 1_555
Fe5 Si0 2.567893 1_555
Fe5 Si0 2.567893 1_554
Fe6 Fe9 2.343155 1_555
Fe6 Fe9 2.343155 1_556
Fe6 Si0 2.366967 1_565
Fe6 Si2 2.366967 1_555
Fe6 Si3 2.366969 1_555
Fe6 Si5 2.366969 1_565
Fe6 Si4 2.366973 1_555
Fe6 Si1 2.366973 1_555
Fe7 Fe8 2.343155 1_555
Fe7 Fe8 2.343155 1_554
Fe7 Si5 2.366967 1_555
Fe7 Si3 2.366967 1_654
Fe7 Si0 2.366969 1_554
Fe7 Si2 2.366969 1_655
Fe7 Si4 2.366973 1_554
Fe7 Si1 2.366973 1_555
Fe8 Si3 2.366967 1_655
Fe8 Si5 2.366967 1_555
Fe8 Si2 2.366969 1_655
Fe8 Si0 2.366969 1_555
Fe8 Si4 2.366973 1_555
Fe8 Si1 2.366973 1_555
Fe9 Si0 2.366967 1_564
Fe9 Si2 2.366967 1_555
Fe9 Si5 2.366969 1_565
Fe9 Si3 2.366969 1_554
Fe9 Si4 2.366973 1_554
Fe9 Si1 2.366973 1_555
