# generated using pymatgen
data_Ba(SbSe2)2
_symmetry_space_group_name_H-M   'P 1'
_cell_length_a   21.30377400
_cell_length_b   8.78131600
_cell_length_c   12.68212174
_cell_angle_alpha   47.15177116
_cell_angle_beta   90.00000000
_cell_angle_gamma   90.00000000
_symmetry_Int_Tables_number   1
_chemical_formula_structural   Ba(SbSe2)2
_chemical_formula_sum   'Ba8 Sb16 Se32'
_cell_volume   1739.42400911
_cell_formula_units_Z   8
loop_
 _symmetry_equiv_pos_site_id
 _symmetry_equiv_pos_as_xyz
  1  'x, y, z'
loop_
 _atom_site_type_symbol
 _atom_site_label
 _atom_site_symmetry_multiplicity
 _atom_site_fract_x
 _atom_site_fract_y
 _atom_site_fract_z
 _atom_site_occupancy
  Ba  Ba0  1  0.20463300  0.15602700  0.89835700  1
  Ba  Ba1  1  0.70463300  0.84397300  0.60164300  1
  Ba  Ba2  1  0.79536700  0.84397300  0.10164300  1
  Ba  Ba3  1  0.29536700  0.15602700  0.39835700  1
  Ba  Ba4  1  0.80548500  0.34460300  0.60049400  1
  Ba  Ba5  1  0.30548500  0.65539700  0.89950600  1
  Ba  Ba6  1  0.19451500  0.65539700  0.39950600  1
  Ba  Ba7  1  0.69451500  0.34460300  0.10049400  1
  Sb  Sb0  1  0.03401100  0.89570800  0.90945200  1
  Sb  Sb1  1  0.53401000  0.10429200  0.59054800  1
  Sb  Sb2  1  0.96598900  0.10429200  0.09054800  1
  Sb  Sb3  1  0.46598900  0.89570800  0.40945200  1
  Sb  Sb4  1  0.00532000  0.48653600  0.35479100  1
  Sb  Sb5  1  0.50532000  0.51346400  0.14520900  1
  Sb  Sb6  1  0.99468000  0.51346400  0.64520900  1
  Sb  Sb7  1  0.49468000  0.48653600  0.85479100  1
  Sb  Sb8  1  0.38785300  0.87027600  0.11989100  1
  Sb  Sb9  1  0.88785300  0.12972400  0.38010900  1
  Sb  Sb10  1  0.61214700  0.12972400  0.88010900  1
  Sb  Sb11  1  0.11214700  0.87027600  0.61989100  1
  Sb  Sb12  1  0.37853200  0.33758700  0.64732300  1
  Sb  Sb13  1  0.87853200  0.66241300  0.85267700  1
  Sb  Sb14  1  0.62146800  0.66241300  0.35267700  1
  Sb  Sb15  1  0.12146800  0.33758700  0.14732300  1
  Se  Se0  1  0.14579000  0.30423200  0.36594600  1
  Se  Se1  1  0.64579000  0.69576800  0.13405400  1
  Se  Se2  1  0.85421000  0.69576800  0.63405400  1
  Se  Se3  1  0.35421000  0.30423200  0.86594600  1
  Se  Se4  1  0.07514200  0.89393600  0.10696100  1
  Se  Se5  1  0.57514200  0.10606400  0.39303900  1
  Se  Se6  1  0.92485800  0.10606400  0.89303900  1
  Se  Se7  1  0.42485800  0.89393600  0.60696100  1
  Se  Se8  1  0.65298800  0.26724200  0.57175600  1
  Se  Se9  1  0.15298800  0.73275800  0.92824400  1
  Se  Se10  1  0.34701200  0.73275800  0.42824400  1
  Se  Se11  1  0.84701200  0.26724200  0.07175600  1
  Se  Se12  1  0.46668700  0.51944800  0.33684500  1
  Se  Se13  1  0.96668700  0.48055200  0.16315500  1
  Se  Se14  1  0.53331300  0.48055200  0.66315500  1
  Se  Se15  1  0.03331300  0.51944800  0.83684500  1
  Se  Se16  1  0.08664100  0.26895300  0.67987600  1
  Se  Se17  1  0.58664100  0.73104700  0.82012400  1
  Se  Se18  1  0.91335900  0.73104700  0.32012400  1
  Se  Se19  1  0.41335900  0.26895300  0.17987600  1
  Se  Se20  1  0.93777400  0.13995100  0.56955400  1
  Se  Se21  1  0.43777400  0.86004900  0.93044600  1
  Se  Se22  1  0.06222600  0.86004900  0.43044600  1
  Se  Se23  1  0.56222600  0.13995100  0.06955400  1
  Se  Se24  1  0.72820200  0.81567200  0.35262300  1
  Se  Se25  1  0.22820200  0.18432800  0.14737700  1
  Se  Se26  1  0.27179800  0.18432800  0.64737700  1
  Se  Se27  1  0.77179800  0.81567200  0.85262300  1
  Se  Se28  1  0.21831900  0.69595300  0.64861000  1
  Se  Se29  1  0.71831900  0.30404700  0.85139000  1
  Se  Se30  1  0.78168100  0.30404700  0.35139000  1
  Se  Se31  1  0.28168100  0.69595300  0.14861000  1
loop_
_geom_bond_atom_site_label_1
_geom_bond_atom_site_label_2
_geom_bond_distance
_geom_bond_site_symmetry_2
Ba0 Se26 3.341329 1_555
Ba0 Se16 3.352931 1_555
Ba0 Se3 3.359945 1_555
Ba0 Se25 3.369714 1_556
Ba0 Se4 3.409481 1_546
Ba0 Se31 3.413117 1_546
Ba0 Se28 3.488764 1_555
Ba0 Se9 3.640478 1_545
Ba1 Se27 3.341329 1_555
Ba1 Se17 3.352931 1_555
Ba1 Se2 3.359945 1_555
Ba1 Se24 3.369714 1_555
Ba1 Se5 3.409481 1_565
Ba1 Se30 3.413117 1_565
Ba1 Se29 3.488764 1_555
Ba1 Se8 3.640478 1_565
Ba2 Se24 3.341329 1_555
Ba2 Se18 3.352931 1_555
Ba2 Se1 3.359945 1_555
Ba2 Se27 3.369714 1_554
Ba2 Se6 3.409481 1_564
Ba2 Se29 3.413117 1_564
Ba2 Se30 3.488764 1_555
Ba2 Se11 3.640478 1_565
Ba3 Se25 3.341329 1_555
Ba3 Se19 3.352931 1_555
Ba3 Se0 3.359945 1_555
Ba3 Se26 3.369714 1_555
Ba3 Se7 3.409481 1_545
Ba3 Se28 3.413117 1_545
Ba3 Se31 3.488764 1_555
Ba3 Se10 3.640478 1_545
Ba4 Se8 3.389030 1_555
Ba4 Se30 3.448853 1_555
Ba4 Se24 3.466647 1_555
Ba4 Se27 3.480323 1_545
Ba4 Se29 3.486880 1_555
Ba4 Se20 3.505032 1_555
Ba4 Se2 3.543005 1_555
Ba4 Se18 3.609517 1_555
Ba4 Se6 3.748293 1_555
Ba5 Se9 3.389030 1_555
Ba5 Se31 3.448853 1_556
Ba5 Se25 3.466647 1_556
Ba5 Se26 3.480323 1_565
Ba5 Se28 3.486880 1_555
Ba5 Se21 3.505032 1_555
Ba5 Se3 3.543005 1_555
Ba5 Se19 3.609517 1_556
Ba5 Se7 3.748293 1_555
Ba6 Se10 3.389030 1_555
Ba6 Se28 3.448853 1_555
Ba6 Se26 3.466647 1_555
Ba6 Se25 3.480323 1_565
Ba6 Se31 3.486880 1_555
Ba6 Se22 3.505032 1_555
Ba6 Se0 3.543005 1_555
Ba6 Se16 3.609517 1_555
Ba6 Se4 3.748293 1_555
Ba7 Se11 3.389030 1_555
Ba7 Se29 3.448853 1_554
Ba7 Se27 3.466647 1_554
Ba7 Se24 3.480323 1_545
Ba7 Se30 3.486880 1_555
Ba7 Se23 3.505032 1_555
Ba7 Se1 3.543005 1_555
Ba7 Se17 3.609517 1_554
Ba7 Se5 3.748293 1_555
Sb0 Se4 2.643714 1_556
Sb0 Se16 2.738130 1_565
Sb0 Se9 2.839892 1_555
Sb0 Se6 2.887883 1_465
Sb0 Se13 3.121864 1_456
Sb1 Se5 2.643721 1_555
Sb1 Se17 2.738139 1_545
Sb1 Se8 2.839911 1_555
Sb1 Se7 2.887866 1_545
Sb1 Se12 3.121854 1_555
Sb2 Se6 2.643714 1_554
Sb2 Se18 2.738130 1_545
Sb2 Se11 2.839892 1_555
Sb2 Se4 2.887883 1_645
Sb2 Se15 3.121864 1_654
Sb3 Se7 2.643714 1_555
Sb3 Se19 2.738130 1_565
Sb3 Se10 2.839892 1_555
Sb3 Se5 2.887883 1_565
Sb3 Se14 3.121864 1_555
Sb4 Se13 2.600085 1_455
Sb4 Se18 2.712500 1_455
Sb4 Se20 2.734443 1_455
Sb4 Se4 3.097789 1_555
Sb5 Se12 2.600085 1_555
Sb5 Se19 2.712500 1_555
Sb5 Se21 2.734443 1_554
Sb5 Se5 3.097789 1_555
Sb6 Se15 2.600085 1_655
Sb6 Se16 2.712500 1_655
Sb6 Se22 2.734443 1_655
Sb6 Se6 3.097789 1_555
Sb7 Se14 2.600085 1_555
Sb7 Se17 2.712500 1_555
Sb7 Se23 2.734443 1_556
Sb7 Se7 3.097789 1_555
Sb8 Se31 2.614129 1_555
Sb8 Se21 2.684193 1_554
Sb8 Se12 2.890147 1_555
Sb8 Se3 2.952116 1_564
Sb8 Se10 3.329397 1_555
Sb9 Se30 2.614129 1_555
Sb9 Se20 2.684193 1_555
Sb9 Se13 2.890147 1_555
Sb9 Se2 2.952116 1_545
Sb9 Se11 3.329397 1_555
Sb10 Se29 2.614129 1_555
Sb10 Se23 2.684193 1_556
Sb10 Se14 2.890147 1_555
Sb10 Se1 2.952116 1_546
Sb10 Se8 3.329397 1_555
Sb11 Se28 2.614129 1_555
Sb11 Se22 2.684193 1_555
Sb11 Se15 2.890147 1_555
Sb11 Se0 2.952116 1_565
Sb11 Se9 3.329397 1_555
Sb12 Se3 2.633829 1_555
Sb12 Se26 2.642026 1_555
Sb12 Se10 2.664344 1_555
Sb13 Se2 2.633829 1_555
Sb13 Se27 2.642026 1_555
Sb13 Se11 2.664344 1_556
Sb14 Se1 2.633829 1_555
Sb14 Se24 2.642026 1_555
Sb14 Se8 2.664344 1_555
Sb15 Se0 2.633829 1_555
Sb15 Se25 2.642026 1_555
Sb15 Se9 2.664344 1_554
