# generated using pymatgen
data_Ca3Sn13Rh4
_symmetry_space_group_name_H-M   'P 1'
_cell_length_a   9.75969022
_cell_length_b   9.75969151
_cell_length_c   9.75968621
_cell_angle_alpha   89.99994916
_cell_angle_beta   89.99996994
_cell_angle_gamma   90.00002865
_symmetry_Int_Tables_number   1
_chemical_formula_structural   Ca3Sn13Rh4
_chemical_formula_sum   'Ca6 Sn26 Rh8'
_cell_volume   929.62539303
_cell_formula_units_Z   2
loop_
 _symmetry_equiv_pos_site_id
 _symmetry_equiv_pos_as_xyz
  1  'x, y, z'
loop_
 _atom_site_type_symbol
 _atom_site_label
 _atom_site_symmetry_multiplicity
 _atom_site_fract_x
 _atom_site_fract_y
 _atom_site_fract_z
 _atom_site_occupancy
  Ca  Ca0  1  0.24999914  0.49999767  0.99999772  1
  Ca  Ca1  1  0.75000094  0.50000221  0.00000116  1
  Ca  Ca2  1  0.50000122  -0.00000065  0.24999997  1
  Ca  Ca3  1  0.49999641  0.00000062  0.74999984  1
  Ca  Ca4  1  0.99999856  0.74999904  0.50000000  1
  Ca  Ca5  1  0.00000317  0.25000105  0.50000107  1
  Sn  Sn0  1  0.00000058  0.00000017  0.00000026  1
  Sn  Sn1  1  0.49999945  0.49999981  0.49999986  1
  Sn  Sn2  1  0.00000069  0.30392961  0.15353289  1
  Sn  Sn3  1  0.49999598  0.34646666  0.80392709  1
  Sn  Sn4  1  0.50000295  0.65353317  0.19607148  1
  Sn  Sn5  1  0.65353476  0.80392760  0.49999858  1
  Sn  Sn6  1  0.34646632  0.80392873  0.50000089  1
  Sn  Sn7  1  0.19607193  0.49999758  0.65353403  1
  Sn  Sn8  1  0.80392941  0.50000120  0.65353228  1
  Sn  Sn9  1  0.15353247  0.00000159  0.30392943  1
  Sn  Sn10  1  0.30392649  0.15353577  0.99999706  1
  Sn  Sn11  1  0.69607234  0.84646501  0.00000134  1
  Sn  Sn12  1  0.15353365  0.00000251  0.69607206  1
  Sn  Sn13  1  0.69607154  0.15353353  0.00000118  1
  Sn  Sn14  1  0.84646692  0.99999863  0.30392858  1
  Sn  Sn15  1  0.84646825  -0.00000039  0.69607061  1
  Sn  Sn16  1  0.30392799  0.84646697  0.99999863  1
  Sn  Sn17  1  -0.00000015  0.69607015  0.84646649  1
  Sn  Sn18  1  0.00000411  0.30392818  0.84646621  1
  Sn  Sn19  1  0.99999704  0.69607128  0.15353372  1
  Sn  Sn20  1  0.80392848  0.50000139  0.34646640  1
  Sn  Sn21  1  0.19607049  0.49999835  0.34646792  1
  Sn  Sn22  1  0.65353298  0.19607246  0.49999888  1
  Sn  Sn23  1  0.34646456  0.19607386  0.50000237  1
  Sn  Sn24  1  0.50000013  0.65353213  0.80392878  1
  Sn  Sn25  1  0.50000012  0.34646766  0.19607152  1
  Rh  Rh0  1  0.24999900  0.25000116  0.25000011  1
  Rh  Rh1  1  0.75000148  0.25000185  0.74999950  1
  Rh  Rh2  1  0.75000112  0.74999877  0.25000066  1
  Rh  Rh3  1  0.24999854  0.74999847  0.74999989  1
  Rh  Rh4  1  0.75000117  0.74999838  0.74999949  1
  Rh  Rh5  1  0.24999889  0.74999882  0.25000076  1
  Rh  Rh6  1  0.24999856  0.25000127  0.74999957  1
  Rh  Rh7  1  0.75000135  0.25000170  0.25000069  1
loop_
_geom_bond_atom_site_label_1
_geom_bond_atom_site_label_2
_geom_bond_distance
_geom_bond_site_symmetry_2
Ca0 Sn10 3.422077 1_555
Ca0 Sn7 3.422092 1_555
Ca0 Sn16 3.422150 1_555
Ca0 Sn21 3.422157 1_556
Ca0 Sn18 3.443839 1_555
Ca0 Sn3 3.443856 1_555
Ca0 Sn2 3.443868 1_556
Ca0 Sn17 3.443884 1_555
Ca0 Sn24 3.443887 1_555
Ca0 Sn25 3.443897 1_556
Ca0 Sn19 3.443930 1_456
Ca0 Sn4 3.443940 1_556
Ca0 Rh6 3.450535 1_555
Ca0 Rh3 3.450560 1_555
Ca0 Rh0 3.450562 1_556
Ca0 Rh5 3.450602 1_556
Ca1 Sn11 3.422088 1_555
Ca1 Sn20 3.422108 1_555
Ca1 Sn8 3.422144 1_554
Ca1 Sn13 3.422145 1_555
Ca1 Sn19 3.443849 1_555
Ca1 Sn4 3.443862 1_555
Ca1 Sn17 3.443869 1_654
Ca1 Sn24 3.443888 1_554
Ca1 Sn2 3.443890 1_655
Ca1 Sn25 3.443894 1_555
Ca1 Sn18 3.443935 1_654
Ca1 Sn3 3.443950 1_554
Ca1 Rh2 3.450545 1_555
Ca1 Rh4 3.450555 1_554
Ca1 Rh7 3.450570 1_555
Ca1 Rh1 3.450587 1_554
Ca2 Sn14 3.422115 1_545
Ca2 Sn4 3.422120 1_545
Ca2 Sn25 3.422140 1_555
Ca2 Sn9 3.422145 1_555
Ca2 Sn13 3.443878 1_555
Ca2 Sn5 3.443884 1_545
Ca2 Sn11 3.443885 1_545
Ca2 Sn22 3.443887 1_555
Ca2 Sn6 3.443897 1_545
Ca2 Sn16 3.443907 1_544
Ca2 Sn23 3.443939 1_555
Ca2 Sn10 3.443942 1_554
Ca2 Rh2 3.450576 1_545
Ca2 Rh7 3.450588 1_555
Ca2 Rh5 3.450591 1_545
Ca2 Rh0 3.450600 1_555
Ca3 Sn12 3.422086 1_555
Ca3 Sn3 3.422117 1_555
Ca3 Sn24 3.422142 1_545
Ca3 Sn15 3.422175 1_555
Ca3 Sn16 3.443866 1_545
Ca3 Sn10 3.443872 1_555
Ca3 Sn6 3.443874 1_545
Ca3 Sn23 3.443877 1_555
Ca3 Sn22 3.443911 1_555
Ca3 Sn13 3.443920 1_556
Ca3 Sn5 3.443931 1_545
Ca3 Sn11 3.443936 1_546
Ca3 Rh6 3.450562 1_555
Ca3 Rh3 3.450571 1_545
Ca3 Rh1 3.450614 1_555
Ca3 Rh4 3.450621 1_545
Ca4 Sn5 3.422097 1_555
Ca4 Sn19 3.422118 1_555
Ca4 Sn17 3.422121 1_655
Ca4 Sn6 3.422136 1_655
Ca4 Sn8 3.443858 1_555
Ca4 Sn20 3.443870 1_555
Ca4 Sn15 3.443879 1_565
Ca4 Sn14 3.443881 1_555
Ca4 Sn21 3.443895 1_655
Ca4 Sn9 3.443905 1_665
Ca4 Sn7 3.443915 1_655
Ca4 Sn12 3.443927 1_665
Ca4 Rh4 3.450548 1_555
Ca4 Rh2 3.450550 1_555
Ca4 Rh5 3.450567 1_655
Ca4 Rh3 3.450571 1_655
Ca5 Sn23 3.422072 1_555
Ca5 Sn18 3.422107 1_555
Ca5 Sn2 3.422137 1_555
Ca5 Sn22 3.422158 1_455
Ca5 Sn21 3.443848 1_555
Ca5 Sn7 3.443852 1_555
Ca5 Sn12 3.443867 1_555
Ca5 Sn9 3.443873 1_555
Ca5 Sn15 3.443896 1_455
Ca5 Sn8 3.443897 1_455
Ca5 Sn20 3.443917 1_455
Ca5 Sn14 3.443927 1_445
Ca5 Rh6 3.450530 1_555
Ca5 Rh0 3.450548 1_555
Ca5 Rh1 3.450571 1_455
Ca5 Rh7 3.450587 1_455
Sn0 Sn10 3.323230 1_554
Sn0 Sn16 3.323234 1_544
Sn0 Sn12 3.323237 1_554
Sn0 Sn18 3.323241 1_554
Sn0 Sn14 3.323241 1_445
Sn0 Sn9 3.323242 1_555
Sn0 Sn19 3.323246 1_445
Sn0 Sn11 3.323248 1_445
Sn0 Sn15 3.323248 1_454
Sn0 Sn13 3.323248 1_455
Sn0 Sn2 3.323249 1_555
Sn0 Sn17 3.323259 1_544
Sn1 Sn23 3.323227 1_555
Sn1 Sn3 3.323229 1_555
Sn1 Sn22 3.323235 1_555
Sn1 Sn25 3.323236 1_555
Sn1 Sn7 3.323237 1_555
Sn1 Sn4 3.323240 1_555
Sn1 Sn21 3.323241 1_555
Sn1 Sn24 3.323242 1_555
Sn1 Sn5 3.323245 1_555
Sn1 Sn6 3.323247 1_555
Sn1 Sn20 3.323247 1_555
Sn1 Sn8 3.323252 1_555
Rh0 Sn21 2.667682 1_555
Rh0 Sn2 2.667689 1_555
Rh0 Sn9 2.667699 1_555
Rh0 Sn25 2.667711 1_555
Rh0 Sn23 2.667715 1_555
Rh0 Sn10 2.667723 1_554
Rh1 Sn8 2.667696 1_555
Rh1 Sn22 2.667715 1_555
Rh1 Sn18 2.667722 1_655
Rh1 Sn13 2.667724 1_556
Rh1 Sn15 2.667724 1_555
Rh1 Sn3 2.667743 1_555
Rh2 Sn19 2.667664 1_555
Rh2 Sn20 2.667673 1_555
Rh2 Sn5 2.667682 1_555
Rh2 Sn4 2.667683 1_555
Rh2 Sn11 2.667694 1_555
Rh2 Sn14 2.667697 1_555
Rh3 Sn17 2.667689 1_555
Rh3 Sn6 2.667698 1_555
Rh3 Sn16 2.667699 1_555
Rh3 Sn7 2.667704 1_555
Rh3 Sn24 2.667716 1_555
Rh3 Sn12 2.667731 1_565
Rh4 Sn8 2.667679 1_555
Rh4 Sn17 2.667691 1_655
Rh4 Sn5 2.667710 1_555
Rh4 Sn24 2.667711 1_555
Rh4 Sn15 2.667714 1_565
Rh4 Sn11 2.667719 1_556
Rh5 Sn21 2.667707 1_555
Rh5 Sn6 2.667708 1_555
Rh5 Sn19 2.667718 1_455
Rh5 Sn16 2.667725 1_554
Rh5 Sn9 2.667727 1_565
Rh5 Sn4 2.667737 1_555
Rh6 Sn18 2.667649 1_555
Rh6 Sn7 2.667661 1_555
Rh6 Sn23 2.667672 1_555
Rh6 Sn3 2.667673 1_555
Rh6 Sn10 2.667673 1_555
Rh6 Sn12 2.667683 1_555
Rh7 Sn22 2.667691 1_555
Rh7 Sn20 2.667694 1_555
Rh7 Sn2 2.667698 1_655
Rh7 Sn13 2.667705 1_555
Rh7 Sn25 2.667712 1_555
Rh7 Sn14 2.667725 1_545
