# generated using pymatgen
data_Cu(BO2)2
_symmetry_space_group_name_H-M   'P 1'
_cell_length_a   8.59859970
_cell_length_b   8.59859779
_cell_length_c   8.59864898
_cell_angle_alpha   96.14374268
_cell_angle_beta   96.14365435
_cell_angle_gamma   141.80855855
_symmetry_Int_Tables_number   1
_chemical_formula_structural   Cu(BO2)2
_chemical_formula_sum   'Cu6 B12 O24'
_cell_volume   371.44927448
_cell_formula_units_Z   6
loop_
 _symmetry_equiv_pos_site_id
 _symmetry_equiv_pos_as_xyz
  1  'x, y, z'
loop_
 _atom_site_type_symbol
 _atom_site_label
 _atom_site_symmetry_multiplicity
 _atom_site_fract_x
 _atom_site_fract_y
 _atom_site_fract_z
 _atom_site_occupancy
  Cu  Cu0  1  0.75000517  0.25000016  0.50000458  1
  Cu  Cu1  1  0.49999607  0.50000031  -0.00000428  1
  Cu  Cu2  1  0.12499756  0.79307248  0.16807290  1
  Cu  Cu3  1  0.62499901  0.95692774  0.83192929  1
  Cu  Cu4  1  0.20692686  0.37499888  0.33192694  1
  Cu  Cu5  1  0.04307130  0.87499744  0.66807090  1
  B  B0  1  0.79983627  0.26253187  0.16740936  1
  B  B1  1  0.45016362  0.11757285  0.96269587  1
  B  B2  1  0.09512313  0.63242750  0.83259158  1
  B  B3  1  0.15487700  0.48746821  0.03730423  1
  B  B4  1  0.73746722  0.90487572  0.53730357  1
  B  B5  1  0.51253246  0.54983633  0.66740810  1
  B  B6  1  0.36757317  0.20016412  0.46269495  1
  B  B7  1  0.88242616  0.84512113  0.33259070  1
  B  B8  1  0.62499957  0.37574100  0.25074114  1
  B  B9  1  0.12499995  0.37425960  0.74925996  1
  B  B10  1  0.62426049  0.87500082  0.24925949  1
  B  B11  1  0.62573939  0.37499855  0.75074010  1
  O  O0  1  0.67470332  0.08598874  0.27163202  1
  O  O1  1  0.57529596  0.34692784  0.91128465  1
  O  O2  1  0.81435797  0.40307162  0.72836769  1
  O  O3  1  0.43564273  0.66401004  0.08871433  1
  O  O4  1  0.91401108  0.18564326  0.58871504  1
  O  O5  1  0.33599045  0.42470442  0.77163299  1
  O  O6  1  0.59692679  0.32529553  0.41128492  1
  O  O7  1  0.65307309  0.56435908  0.22836954  1
  O  O8  1  0.62500094  0.12230099  0.99730078  1
  O  O9  1  0.12499988  0.62769884  0.00269872  1
  O  O10  1  0.87770028  0.87500124  0.50269959  1
  O  O11  1  0.37230068  0.37500083  0.49730166  1
  O  O12  1  0.04140624  0.37500021  0.16640488  1
  O  O13  1  0.20859466  0.87500007  0.83359480  1
  O  O14  1  0.62499986  0.79140549  0.66640523  1
  O  O15  1  0.12500148  0.95859572  0.33359479  1
  O  O16  1  0.86025562  0.47438780  0.23822280  1
  O  O17  1  0.38974427  0.12796748  0.11413218  1
  O  O18  1  0.23616567  0.62203318  0.76177703  1
  O  O19  1  0.01383486  0.27561188  0.88586813  1
  O  O20  1  0.52561229  0.76383478  0.38586809  1
  O  O21  1  0.72438813  0.61025569  0.73822255  1
  O  O22  1  0.37796709  0.13974424  0.61413214  1
  O  O23  1  0.87203325  0.98616529  0.26177704  1
loop_
_geom_bond_atom_site_label_1
_geom_bond_atom_site_label_2
_geom_bond_distance
_geom_bond_site_symmetry_2
Cu0 O4 1.990878 1_555
Cu0 O2 1.990916 1_555
Cu0 O0 1.990961 1_555
Cu0 O6 1.990987 1_555
Cu1 O5 1.990889 1_554
Cu1 O3 1.990902 1_555
Cu1 O1 1.990950 1_554
Cu1 O7 1.990997 1_555
Cu2 O9 1.900352 1_555
Cu2 O15 1.902024 1_555
Cu2 O16 1.974119 1_455
Cu2 O17 1.974127 1_565
Cu3 O8 1.900310 1_565
Cu3 O14 1.902059 1_555
Cu3 O18 1.974124 1_555
Cu3 O19 1.974135 1_665
Cu4 O11 1.900333 1_555
Cu4 O12 1.902042 1_555
Cu4 O23 1.974124 1_445
Cu4 O20 1.974133 1_555
Cu5 O10 1.900331 1_455
Cu5 O13 1.902046 1_555
Cu5 O21 1.974121 1_455
Cu5 O22 1.974123 1_565
B0 O12 1.448435 1_655
B0 O8 1.468291 1_554
B0 O16 1.471854 1_555
B0 O0 1.481675 1_555
B1 O13 1.448440 1_545
B1 O8 1.468285 1_555
B1 O17 1.471855 1_556
B1 O1 1.481676 1_555
B2 O13 1.448427 1_555
B2 O9 1.468277 1_556
B2 O18 1.471857 1_555
B2 O2 1.481686 1_455
B3 O12 1.448424 1_555
B3 O9 1.468272 1_555
B3 O19 1.471863 1_554
B3 O3 1.481683 1_555
B4 O14 1.448430 1_555
B4 O10 1.468271 1_555
B4 O20 1.471857 1_555
B4 O4 1.481689 1_565
B5 O14 1.448429 1_555
B5 O11 1.468275 1_555
B5 O21 1.471855 1_555
B5 O5 1.481685 1_555
B6 O15 1.448433 1_545
B6 O11 1.468285 1_555
B6 O22 1.471864 1_555
B6 O6 1.481664 1_555
B7 O15 1.448436 1_655
B7 O10 1.468287 1_555
B7 O23 1.471859 1_555
B7 O7 1.481665 1_555
B8 O7 1.478848 1_555
B8 O6 1.478849 1_555
B8 O16 1.480572 1_555
B8 O17 1.480581 1_555
B9 O5 1.478858 1_555
B9 O4 1.478863 1_455
B9 O18 1.480565 1_555
B9 O19 1.480567 1_555
B10 O0 1.478847 1_565
B10 O3 1.478869 1_555
B10 O23 1.480564 1_555
B10 O20 1.480573 1_555
B11 O1 1.478850 1_555
B11 O2 1.478857 1_555
B11 O21 1.480570 1_555
B11 O22 1.480573 1_555
