# generated using pymatgen
data_Th(SiPt)2
_symmetry_space_group_name_H-M   'P 1'
_cell_length_a   5.83713817
_cell_length_b   5.83713817
_cell_length_c   5.83713817
_cell_angle_alpha   137.20426347
_cell_angle_beta   137.20426347
_cell_angle_gamma   62.12391838
_symmetry_Int_Tables_number   1
_chemical_formula_structural   Th(SiPt)2
_chemical_formula_sum   'Th1 Si2 Pt2'
_cell_volume   90.70954068
_cell_formula_units_Z   1
loop_
 _symmetry_equiv_pos_site_id
 _symmetry_equiv_pos_as_xyz
  1  'x, y, z'
loop_
 _atom_site_type_symbol
 _atom_site_label
 _atom_site_symmetry_multiplicity
 _atom_site_fract_x
 _atom_site_fract_y
 _atom_site_fract_z
 _atom_site_occupancy
  Th  Th0  1  0.00000000  0.00000000  0.00000000  1
  Si  Si0  1  0.61918000  0.61918000  0.00000000  1
  Si  Si1  1  0.38082000  0.38082000  0.00000000  1
  Pt  Pt0  1  0.25000000  0.75000000  0.50000000  1
  Pt  Pt1  1  0.75000000  0.25000000  0.50000000  1
loop_
_geom_bond_atom_site_label_1
_geom_bond_atom_site_label_2
_geom_bond_distance
_geom_bond_site_symmetry_2
Si0 Si1 2.383672 1_555
Si0 Th0 3.239005 1_655
Si0 Th0 3.239005 1_554
Si0 Th0 3.239005 1_565
Si0 Th0 3.239005 1_666
Si1 Th0 3.239005 1_554
Si1 Th0 3.239005 1_565
Si1 Th0 3.239005 1_666
Si1 Th0 3.239005 1_655
Pt0 Si0 2.499366 1_556
Pt0 Si1 2.499366 1_566
Pt0 Si0 2.499366 1_455
Pt0 Si1 2.499366 1_555
Pt0 Th0 3.284161 1_565
Pt0 Th0 3.284161 1_555
Pt0 Th0 3.284161 1_566
Pt0 Th0 3.284161 1_666
Pt1 Si0 2.499366 1_545
Pt1 Si0 2.499366 1_556
Pt1 Si1 2.499366 1_656
Pt1 Si1 2.499366 1_555
Pt1 Th0 3.284161 1_655
Pt1 Th0 3.284161 1_666
Pt1 Th0 3.284161 1_656
Pt1 Th0 3.284161 1_555
