# generated using pymatgen
data_Er(CuSi)2
_symmetry_space_group_name_H-M   'P 1'
_cell_length_a   3.91891657
_cell_length_b   3.91891721
_cell_length_c   5.68851562
_cell_angle_alpha   110.14875995
_cell_angle_beta   110.14874835
_cell_angle_gamma   89.99998984
_symmetry_Int_Tables_number   1
_chemical_formula_structural   Er(CuSi)2
_chemical_formula_sum   'Er1 Cu2 Si2'
_cell_volume   76.29690810
_cell_formula_units_Z   1
loop_
 _symmetry_equiv_pos_site_id
 _symmetry_equiv_pos_as_xyz
  1  'x, y, z'
loop_
 _atom_site_type_symbol
 _atom_site_label
 _atom_site_symmetry_multiplicity
 _atom_site_fract_x
 _atom_site_fract_y
 _atom_site_fract_z
 _atom_site_occupancy
  Er  Er0  1  0.00000000  -0.00000000  -0.00000000  1
  Cu  Cu0  1  0.25000000  0.75000000  0.50000000  1
  Cu  Cu1  1  0.75000000  0.25000000  0.50000000  1
  Si  Si0  1  0.61712927  0.61712927  0.23425954  1
  Si  Si1  1  0.38287073  0.38287073  0.76574046  1
loop_
_geom_bond_atom_site_label_1
_geom_bond_atom_site_label_2
_geom_bond_distance
_geom_bond_site_symmetry_2
Er0 Si1 3.005550 1_444
Er0 Si0 3.005550 1_555
Er0 Si0 3.005552 1_455
Er0 Si1 3.005552 1_544
Er0 Si0 3.005552 1_545
Er0 Si1 3.005552 1_454
Er0 Si1 3.005555 1_554
Er0 Si0 3.005555 1_445
Cu0 Si0 2.362697 1_555
Cu0 Si1 2.362698 1_555
Cu0 Si0 2.362701 1_455
Cu0 Si1 2.362701 1_565
Cu0 Cu1 2.771092 1_555
Cu0 Cu1 2.771092 1_465
Cu0 Cu1 2.771093 1_565
Cu0 Cu1 2.771093 1_455
Cu0 Er0 3.163786 1_566
Cu0 Er0 3.163786 1_555
Cu0 Er0 3.163786 1_666
Cu0 Er0 3.163786 1_565
Cu1 Si1 2.362697 1_555
Cu1 Si0 2.362698 1_555
Cu1 Si1 2.362701 1_655
Cu1 Si0 2.362701 1_545
Cu1 Er0 3.163786 1_655
Cu1 Er0 3.163786 1_666
Cu1 Er0 3.163786 1_555
Cu1 Er0 3.163786 1_656
Si0 Si1 2.327567 1_554
