# generated using pymatgen
data_AsSClOF8
_symmetry_space_group_name_H-M   'P 1'
_cell_length_a   9.09052800
_cell_length_b   8.49197700
_cell_length_c   12.34647272
_cell_angle_alpha   52.68813453
_cell_angle_beta   90.00000000
_cell_angle_gamma   90.00000000
_symmetry_Int_Tables_number   1
_chemical_formula_structural   AsSClOF8
_chemical_formula_sum   'As4 S4 Cl4 O4 F32'
_cell_volume   758.05025038
_cell_formula_units_Z   4
loop_
 _symmetry_equiv_pos_site_id
 _symmetry_equiv_pos_as_xyz
  1  'x, y, z'
loop_
 _atom_site_type_symbol
 _atom_site_label
 _atom_site_symmetry_multiplicity
 _atom_site_fract_x
 _atom_site_fract_y
 _atom_site_fract_z
 _atom_site_occupancy
  As  As0  1  0.18641300  0.19479000  0.55938700  1
  As  As1  1  0.68641300  0.80521000  0.94061300  1
  As  As2  1  0.31358700  0.19479000  0.05938700  1
  As  As3  1  0.81358700  0.80521000  0.44061300  1
  S  S0  1  0.17842000  0.62929200  0.12232600  1
  S  S1  1  0.67842000  0.37070800  0.37767400  1
  S  S2  1  0.32158000  0.62929200  0.62232600  1
  S  S3  1  0.82158000  0.37070800  0.87767400  1
  Cl  Cl0  1  0.20418000  0.85193400  0.93608000  1
  Cl  Cl1  1  0.70418000  0.14806600  0.56392000  1
  Cl  Cl2  1  0.29582000  0.85193400  0.43608000  1
  Cl  Cl3  1  0.79582000  0.14806600  0.06392000  1
  O  O0  1  0.80308800  0.48075600  0.30351700  1
  O  O1  1  0.30308800  0.51924400  0.19648300  1
  O  O2  1  0.69691200  0.48075600  0.80351700  1
  O  O3  1  0.19691200  0.51924400  0.69648300  1
  F  F0  1  0.09188600  0.70578200  0.18844600  1
  F  F1  1  0.23192200  0.44849000  0.47296500  1
  F  F2  1  0.55578700  0.49522100  0.37745300  1
  F  F3  1  0.85182200  0.83606600  0.00328700  1
  F  F4  1  0.64936400  0.06109600  0.85103500  1
  F  F5  1  0.58921400  0.74670900  0.08426600  1
  F  F6  1  0.02569500  0.22281400  0.62623400  1
  F  F7  1  0.28672600  0.13748300  0.70490600  1
  F  F8  1  0.08921400  0.25329100  0.41573400  1
  F  F9  1  0.35182200  0.16393400  0.49671300  1
  F  F10  1  0.05578700  0.50477900  0.12254700  1
  F  F11  1  0.78672600  0.86251700  0.79509400  1
  F  F12  1  0.73192200  0.55151000  0.02703500  1
  F  F13  1  0.52569500  0.77718600  0.87376600  1
  F  F14  1  0.59188600  0.29421800  0.31155400  1
  F  F15  1  0.14936400  0.93890400  0.64896500  1
  F  F16  1  0.85063600  0.06109600  0.35103500  1
  F  F17  1  0.40811400  0.70578200  0.68844600  1
  F  F18  1  0.47430500  0.22281400  0.12623400  1
  F  F19  1  0.26807800  0.44849000  0.97296500  1
  F  F20  1  0.21327400  0.13748300  0.20490600  1
  F  F21  1  0.94421300  0.49522100  0.87745300  1
  F  F22  1  0.64817800  0.83606600  0.50328700  1
  F  F23  1  0.91078600  0.74670900  0.58426600  1
  F  F24  1  0.71327400  0.86251700  0.29509400  1
  F  F25  1  0.97430500  0.77718600  0.37376600  1
  F  F26  1  0.41078600  0.25329100  0.91573400  1
  F  F27  1  0.35063600  0.93890400  0.14896500  1
  F  F28  1  0.14817800  0.16393400  0.99671300  1
  F  F29  1  0.44421300  0.50477900  0.62254700  1
  F  F30  1  0.76807800  0.55151000  0.52703500  1
  F  F31  1  0.90811400  0.29421800  0.81155400  1
loop_
_geom_bond_atom_site_label_1
_geom_bond_atom_site_label_2
_geom_bond_distance
_geom_bond_site_symmetry_2
As0 F8 1.762113 1_555
As0 F6 1.763649 1_555
As0 F15 1.773403 1_545
As0 F1 1.778858 1_555
As0 F9 1.781632 1_555
As0 F7 1.798988 1_555
As1 F5 1.762113 1_556
As1 F13 1.763649 1_555
As1 F4 1.773403 1_565
As1 F12 1.778858 1_556
As1 F3 1.781632 1_556
As1 F11 1.798988 1_555
As2 F26 1.762113 1_554
As2 F18 1.763649 1_555
As2 F27 1.773403 1_545
As2 F19 1.778858 1_554
As2 F28 1.781632 1_554
As2 F20 1.798988 1_555
As3 F23 1.762113 1_555
As3 F25 1.763649 1_555
As3 F16 1.773403 1_565
As3 F30 1.778858 1_555
As3 F22 1.781632 1_555
As3 F24 1.798988 1_555
Cl0 S0 1.909584 1_556
Cl1 S1 1.909584 1_555
Cl2 S2 1.909584 1_555
Cl3 S3 1.909584 1_554
O0 S1 1.399535 1_555
O1 S0 1.399535 1_555
O2 S3 1.399535 1_555
O3 S2 1.399535 1_555
F0 S0 1.532965 1_555
F2 S1 1.535350 1_555
F10 S0 1.535350 1_555
F14 S1 1.532965 1_555
F17 S2 1.532965 1_555
F21 S3 1.535350 1_555
F29 S2 1.535350 1_555
F31 S3 1.532965 1_555
