# generated using pymatgen
data_Li2SO4
_symmetry_space_group_name_H-M   'P 1'
_cell_length_a   4.92078882
_cell_length_b   8.20029857
_cell_length_c   8.38784496
_cell_angle_alpha   72.19538381
_cell_angle_beta   90.00000000
_cell_angle_gamma   90.00000000
_symmetry_Int_Tables_number   1
_chemical_formula_structural   Li2SO4
_chemical_formula_sum   'Li8 S4 O16'
_cell_volume   322.25489529
_cell_formula_units_Z   4
loop_
 _symmetry_equiv_pos_site_id
 _symmetry_equiv_pos_as_xyz
  1  'x, y, z'
loop_
 _atom_site_type_symbol
 _atom_site_label
 _atom_site_symmetry_multiplicity
 _atom_site_fract_x
 _atom_site_fract_y
 _atom_site_fract_z
 _atom_site_occupancy
  Li  Li0  1  0.92529938  0.06148153  0.12892390  1
  Li  Li1  1  0.42529938  0.43851847  0.87107610  1
  Li  Li2  1  0.07470062  0.93851847  0.87107610  1
  Li  Li3  1  0.57470062  0.56148153  0.12892390  1
  Li  Li4  1  0.92978445  0.30165907  0.37873345  1
  Li  Li5  1  0.42978445  0.19834093  0.62126655  1
  Li  Li6  1  0.07021555  0.69834093  0.62126655  1
  Li  Li7  1  0.57021555  0.80165907  0.37873345  1
  S  S0  1  0.43553592  0.18685304  0.25148713  1
  S  S1  1  0.56446408  0.81314696  0.74851287  1
  S  S2  1  0.06446408  0.68685304  0.25148713  1
  S  S3  1  0.93553592  0.31314696  0.74851287  1
  O  O0  1  0.55281201  0.22200962  0.39990754  1
  O  O1  1  0.44718799  0.77799038  0.60009246  1
  O  O2  1  0.05281201  0.27799038  0.60009246  1
  O  O3  1  0.64048820  0.34142813  0.72537403  1
  O  O4  1  0.35951180  0.65857187  0.27462597  1
  O  O5  1  0.85951180  0.84142813  0.72537403  1
  O  O6  1  0.93552070  0.53405362  0.22735609  1
  O  O7  1  0.14048820  0.15857187  0.27462597  1
  O  O8  1  0.43552070  0.96594638  0.77264391  1
  O  O9  1  0.06447930  0.46594638  0.77264391  1
  O  O10  1  0.00778211  0.83601386  0.10462019  1
  O  O11  1  0.56447930  0.03405362  0.22735609  1
  O  O12  1  0.49221789  0.33601386  0.10462019  1
  O  O13  1  0.99221789  0.16398614  0.89537981  1
  O  O14  1  0.50778211  0.66398614  0.89537981  1
  O  O15  1  0.94718799  0.72200962  0.39990754  1
loop_
_geom_bond_atom_site_label_1
_geom_bond_atom_site_label_2
_geom_bond_distance
_geom_bond_site_symmetry_2
Li0 O13 1.909299 1_554
Li0 O11 1.941949 1_555
Li0 O7 1.960559 1_655
Li0 O10 1.963474 1_645
Li1 O12 1.909299 1_556
Li1 O9 1.941949 1_555
Li1 O3 1.960559 1_555
Li1 O14 1.963474 1_555
Li2 O10 1.909299 1_556
Li2 O8 1.941949 1_555
Li2 O5 1.960559 1_455
Li2 O13 1.963474 1_465
Li3 O14 1.909299 1_554
Li3 O6 1.941949 1_555
Li3 O4 1.960559 1_555
Li3 O12 1.963474 1_555
Li4 O2 1.905575 1_655
Li4 O6 1.940348 1_555
Li4 O0 1.956588 1_555
Li4 O7 1.959828 1_655
Li5 O0 1.905575 1_555
Li5 O8 1.940348 1_545
Li5 O2 1.956588 1_555
Li5 O3 1.959828 1_555
Li6 O15 1.905575 1_455
Li6 O9 1.940348 1_555
Li6 O1 1.956588 1_555
Li6 O5 1.959828 1_455
Li7 O1 1.905575 1_555
Li7 O11 1.940348 1_565
Li7 O15 1.956588 1_555
Li7 O4 1.959828 1_555
O0 S0 1.478336 1_555
O1 S1 1.478336 1_555
O2 S3 1.478336 1_455
O3 S3 1.473718 1_555
O4 S2 1.473718 1_555
O5 S1 1.473718 1_555
O6 S2 1.472641 1_655
O7 S0 1.473718 1_555
O8 S1 1.472641 1_555
O9 S3 1.472641 1_455
O10 S2 1.473097 1_555
O11 S0 1.472641 1_555
O12 S0 1.473097 1_555
O13 S3 1.473097 1_555
O14 S1 1.473097 1_555
O15 S2 1.478336 1_655
