# generated using pymatgen
data_Dy(GeRh)2
_symmetry_space_group_name_H-M   'P 1'
_cell_length_a   5.90875902
_cell_length_b   5.90875902
_cell_length_c   5.90875902
_cell_angle_alpha   139.36459193
_cell_angle_beta   139.36459193
_cell_angle_gamma   58.81935810
_symmetry_Int_Tables_number   1
_chemical_formula_structural   Dy(GeRh)2
_chemical_formula_sum   'Dy1 Ge2 Rh2'
_cell_volume   86.66730556
_cell_formula_units_Z   1
loop_
 _symmetry_equiv_pos_site_id
 _symmetry_equiv_pos_as_xyz
  1  'x, y, z'
loop_
 _atom_site_type_symbol
 _atom_site_label
 _atom_site_symmetry_multiplicity
 _atom_site_fract_x
 _atom_site_fract_y
 _atom_site_fract_z
 _atom_site_occupancy
  Dy  Dy0  1  0.00000000  0.00000000  0.00000000  1
  Ge  Ge0  1  0.62143708  0.62143708  -0.00000000  1
  Ge  Ge1  1  0.37856292  0.37856292  0.00000000  1
  Rh  Rh0  1  0.75000000  0.25000000  0.50000000  1
  Rh  Rh1  1  0.25000000  0.75000000  0.50000000  1
loop_
_geom_bond_atom_site_label_1
_geom_bond_atom_site_label_2
_geom_bond_distance
_geom_bond_site_symmetry_2
Dy0 Ge1 3.159364 1_545
Dy0 Ge1 3.159364 1_455
Dy0 Ge0 3.159364 1_545
Dy0 Ge1 3.159364 1_556
Dy0 Ge0 3.159364 1_444
Dy0 Ge0 3.159364 1_455
Dy0 Ge1 3.159364 1_444
Dy0 Ge0 3.159364 1_556
Dy0 Rh0 3.291358 1_455
Dy0 Rh0 3.291358 1_444
Dy0 Rh1 3.291358 1_555
Dy0 Rh0 3.291358 1_454
Dy0 Rh1 3.291358 1_444
Dy0 Rh1 3.291358 1_544
Dy0 Rh0 3.291358 1_555
Dy0 Rh1 3.291358 1_545
Ge0 Rh1 2.441520 1_655
Ge0 Rh0 2.441520 1_565
Ge0 Rh0 2.441520 1_554
Ge0 Rh1 2.441520 1_554
Ge0 Ge1 2.500293 1_555
Ge1 Rh0 2.441520 1_454
Ge1 Rh1 2.441520 1_555
Ge1 Rh1 2.441520 1_544
Ge1 Rh0 2.441520 1_555
