# generated using pymatgen
data_Ca(NiAs)2
_symmetry_space_group_name_H-M   'P 1'
_cell_length_a   4.05688716
_cell_length_b   4.05688731
_cell_length_c   5.74117435
_cell_angle_alpha   110.69022709
_cell_angle_beta   110.69022273
_cell_angle_gamma   89.99999845
_symmetry_Int_Tables_number   1
_chemical_formula_structural   Ca(NiAs)2
_chemical_formula_sum   'Ca1 Ni2 As2'
_cell_volume   81.84924872
_cell_formula_units_Z   1
loop_
 _symmetry_equiv_pos_site_id
 _symmetry_equiv_pos_as_xyz
  1  'x, y, z'
loop_
 _atom_site_type_symbol
 _atom_site_label
 _atom_site_symmetry_multiplicity
 _atom_site_fract_x
 _atom_site_fract_y
 _atom_site_fract_z
 _atom_site_occupancy
  Ca  Ca0  1  0.00000000  0.00000000  0.00000000  1
  Ni  Ni0  1  0.25000000  0.75000000  0.50000000  1
  Ni  Ni1  1  0.75000000  0.25000000  0.50000000  1
  As  As0  1  0.36780129  0.36780129  0.73560359  1
  As  As1  1  0.63219871  0.63219871  0.26439641  1
loop_
_geom_bond_atom_site_label_1
_geom_bond_atom_site_label_2
_geom_bond_distance
_geom_bond_site_symmetry_2
Ca0 Ni0 3.208981 1_555
Ca0 Ni1 3.208981 1_444
Ca0 Ni0 3.208981 1_444
Ca0 Ni1 3.208981 1_555
Ca0 Ni1 3.208981 1_455
Ca0 Ni0 3.208981 1_544
Ca0 Ni1 3.208982 1_454
Ca0 Ni0 3.208982 1_545
As0 Ni0 2.342524 1_545
As0 Ni1 2.342524 1_455
As0 Ni1 2.342528 1_555
As0 Ni0 2.342528 1_555
As0 As1 2.629749 1_556
As0 Ca0 3.155637 1_556
As0 Ca0 3.155640 1_566
As0 Ca0 3.155640 1_656
As0 Ca0 3.155642 1_666
As1 Ni1 2.342524 1_565
As1 Ni0 2.342524 1_655
As1 Ni0 2.342528 1_555
As1 Ni1 2.342528 1_555
As1 Ca0 3.155637 1_665
As1 Ca0 3.155640 1_655
As1 Ca0 3.155640 1_565
As1 Ca0 3.155642 1_555
