# generated using pymatgen
data_Dy(SiIr)2
_symmetry_space_group_name_H-M   'P 1'
_cell_length_a   4.06461818
_cell_length_b   4.06461893
_cell_length_c   5.72746433
_cell_angle_alpha   110.78339216
_cell_angle_beta   110.78339135
_cell_angle_gamma   89.99998037
_symmetry_Int_Tables_number   1
_chemical_formula_structural   Dy(SiIr)2
_chemical_formula_sum   'Dy1 Si2 Ir2'
_cell_volume   81.84758861
_cell_formula_units_Z   1
loop_
 _symmetry_equiv_pos_site_id
 _symmetry_equiv_pos_as_xyz
  1  'x, y, z'
loop_
 _atom_site_type_symbol
 _atom_site_label
 _atom_site_symmetry_multiplicity
 _atom_site_fract_x
 _atom_site_fract_y
 _atom_site_fract_z
 _atom_site_occupancy
  Dy  Dy0  1  0.00000000  0.00000000  0.00000000  1
  Si  Si0  1  0.62165048  0.62165048  0.24330295  1
  Si  Si1  1  0.37834952  0.37834952  0.75669705  1
  Ir  Ir0  1  0.25000000  0.75000000  0.50000000  1
  Ir  Ir1  1  0.75000000  0.25000000  0.50000000  1
loop_
_geom_bond_atom_site_label_1
_geom_bond_atom_site_label_2
_geom_bond_distance
_geom_bond_site_symmetry_2
Dy0 Si1 3.116633 1_444
Dy0 Si0 3.116633 1_555
Dy0 Si0 3.116638 1_545
Dy0 Si1 3.116638 1_454
Dy0 Si1 3.116638 1_544
Dy0 Si0 3.116638 1_455
Dy0 Si1 3.116644 1_554
Dy0 Si0 3.116644 1_445
Dy0 Ir0 3.204075 1_444
Dy0 Ir1 3.204075 1_555
Dy0 Ir1 3.204076 1_444
Dy0 Ir0 3.204076 1_555
Dy0 Ir0 3.204076 1_544
Dy0 Ir1 3.204076 1_455
Dy0 Ir1 3.204076 1_454
Dy0 Ir0 3.204076 1_545
Si0 Si1 2.410703 1_554
Ir0 Si0 2.397395 1_555
Ir0 Si1 2.397395 1_555
Ir0 Si0 2.397402 1_455
Ir0 Si1 2.397402 1_565
Ir1 Si1 2.397395 1_555
Ir1 Si0 2.397395 1_555
Ir1 Si1 2.397402 1_655
Ir1 Si0 2.397402 1_545
