# generated using pymatgen
data_Zr
_symmetry_space_group_name_H-M   'P 1'
_cell_length_a   6.20367738
_cell_length_b   6.20367676
_cell_length_c   6.20367442
_cell_angle_alpha   109.47119932
_cell_angle_beta   109.47119733
_cell_angle_gamma   109.47123637
_symmetry_Int_Tables_number   1
_chemical_formula_structural   Zr
_chemical_formula_sum   Zr8
_cell_volume   183.79158649
_cell_formula_units_Z   8
loop_
 _symmetry_equiv_pos_site_id
 _symmetry_equiv_pos_as_xyz
  1  'x, y, z'
loop_
 _atom_site_type_symbol
 _atom_site_label
 _atom_site_symmetry_multiplicity
 _atom_site_fract_x
 _atom_site_fract_y
 _atom_site_fract_z
 _atom_site_occupancy
  Zr  Zr0_0  1  0.00000000  0.00000000  0.00000000  1
  Zr  Zr0_1  1  0.00000000  0.00000000  0.50000000  1
  Zr  Zr0_2  1  0.00000000  0.50000000  0.00000000  1
  Zr  Zr0_3  1  0.00000000  0.50000000  0.50000000  1
  Zr  Zr0_4  1  0.50000000  0.00000000  0.00000000  1
  Zr  Zr0_5  1  0.50000000  0.00000000  0.50000000  1
  Zr  Zr0_6  1  0.50000000  0.50000000  0.00000000  1
  Zr  Zr0_7  1  0.50000000  0.50000000  0.50000000  1
loop_
_geom_bond_atom_site_label_1
_geom_bond_atom_site_label_2
_geom_bond_distance
_geom_bond_site_symmetry_2
Zr0_0 Zr0_1 3.101837 1_554
Zr0_0 Zr0_1 3.101837 1_555
Zr0_0 Zr0_2 3.101838 1_555
Zr0_0 Zr0_2 3.101838 1_545
Zr0_0 Zr0_4 3.101839 1_455
Zr0_0 Zr0_4 3.101839 1_555
Zr0_0 Zr0_7 3.101840 1_444
Zr0_0 Zr0_7 3.101840 1_555
Zr0_1 Zr0_3 3.101838 1_545
Zr0_1 Zr0_3 3.101838 1_555
Zr0_1 Zr0_5 3.101839 1_455
Zr0_1 Zr0_5 3.101839 1_555
Zr0_1 Zr0_6 3.101840 1_556
Zr0_1 Zr0_6 3.101840 1_445
Zr0_2 Zr0_3 3.101837 1_554
Zr0_2 Zr0_3 3.101837 1_555
Zr0_2 Zr0_6 3.101839 1_555
Zr0_2 Zr0_6 3.101839 1_455
Zr0_2 Zr0_5 3.101840 1_454
Zr0_2 Zr0_5 3.101840 1_565
Zr0_3 Zr0_7 3.101839 1_555
Zr0_3 Zr0_7 3.101839 1_455
Zr0_3 Zr0_4 3.101840 1_455
Zr0_3 Zr0_4 3.101840 1_566
Zr0_4 Zr0_5 3.101837 1_555
Zr0_4 Zr0_5 3.101837 1_554
Zr0_4 Zr0_6 3.101838 1_545
Zr0_4 Zr0_6 3.101838 1_555
Zr0_5 Zr0_7 3.101838 1_555
Zr0_5 Zr0_7 3.101838 1_545
Zr0_6 Zr0_7 3.101837 1_554
Zr0_6 Zr0_7 3.101837 1_555
