# generated using pymatgen
data_Na2ZnP2O7
_symmetry_space_group_name_H-M   'P 1'
_cell_length_a   7.83145500
_cell_length_b   7.81767300
_cell_length_c   12.84527043
_cell_angle_alpha   53.99545414
_cell_angle_beta   90.00000000
_cell_angle_gamma   90.00000000
_symmetry_Int_Tables_number   1
_chemical_formula_structural   Na2ZnP2O7
_chemical_formula_sum   'Na8 Zn4 P8 O28'
_cell_volume   636.20315310
_cell_formula_units_Z   4
loop_
 _symmetry_equiv_pos_site_id
 _symmetry_equiv_pos_as_xyz
  1  'x, y, z'
loop_
 _atom_site_type_symbol
 _atom_site_label
 _atom_site_symmetry_multiplicity
 _atom_site_fract_x
 _atom_site_fract_y
 _atom_site_fract_z
 _atom_site_occupancy
  Na  Na0  1  0.85702100  0.35729400  0.50368100  1
  Na  Na1  1  0.79962500  0.79670000  0.00941000  1
  Na  Na2  1  0.70037500  0.79670000  0.50941000  1
  Na  Na3  1  0.64297900  0.35729400  0.00368100  1
  Na  Na4  1  0.35702100  0.64270600  0.99631900  1
  Na  Na5  1  0.29962500  0.20330000  0.49059000  1
  Na  Na6  1  0.20037500  0.20330000  0.99059000  1
  Na  Na7  1  0.14297900  0.64270600  0.49631900  1
  Zn  Zn0  1  0.99778900  0.26311700  0.24916900  1
  Zn  Zn1  1  0.00221100  0.73688300  0.75083100  1
  Zn  Zn2  1  0.49778900  0.73688300  0.25083100  1
  Zn  Zn3  1  0.50221100  0.26311700  0.74916900  1
  P  P0  1  0.86301100  0.33976200  0.79373700  1
  P  P1  1  0.86474600  0.92165900  0.21797900  1
  P  P2  1  0.63525400  0.92165900  0.71797900  1
  P  P3  1  0.63698900  0.33976200  0.29373700  1
  P  P4  1  0.36301100  0.66023800  0.70626300  1
  P  P5  1  0.36474600  0.07834100  0.28202100  1
  P  P6  1  0.13525400  0.07834100  0.78202100  1
  P  P7  1  0.13698900  0.66023800  0.20626300  1
  O  O0  1  0.97112900  0.12393600  0.84234700  1
  O  O1  1  0.88909400  0.15839100  0.15759900  1
  O  O2  1  0.95099800  0.42901800  0.86030800  1
  O  O3  1  0.86314300  0.48594000  0.64815800  1
  O  O4  1  0.86950300  0.77477500  0.36384700  1
  O  O5  1  0.81135600  0.24675900  0.35919100  1
  O  O6  1  0.79245700  0.89272200  0.65691400  1
  O  O7  1  0.70754300  0.89272200  0.15691400  1
  O  O8  1  0.68864400  0.24675900  0.85919100  1
  O  O9  1  0.63049700  0.77477500  0.86384700  1
  O  O10  1  0.63685700  0.48594000  0.14815800  1
  O  O11  1  0.54900200  0.42901800  0.36030800  1
  O  O12  1  0.61090600  0.15839100  0.65759900  1
  O  O13  1  0.52887100  0.12393600  0.34234700  1
  O  O14  1  0.47112900  0.87606400  0.65765300  1
  O  O15  1  0.45099800  0.57098200  0.63969200  1
  O  O16  1  0.38909400  0.84160900  0.34240100  1
  O  O17  1  0.36314300  0.51406000  0.85184200  1
  O  O18  1  0.36950300  0.22522500  0.13615300  1
  O  O19  1  0.31135600  0.75324100  0.14080900  1
  O  O20  1  0.29245700  0.10727800  0.84308600  1
  O  O21  1  0.20754300  0.10727800  0.34308600  1
  O  O22  1  0.18864400  0.75324100  0.64080900  1
  O  O23  1  0.13049700  0.22522500  0.63615300  1
  O  O24  1  0.13685700  0.51406000  0.35184200  1
  O  O25  1  0.04900200  0.57098200  0.13969200  1
  O  O26  1  0.11090600  0.84160900  0.84240100  1
  O  O27  1  0.02887100  0.87606400  0.15765300  1
loop_
_geom_bond_atom_site_label_1
_geom_bond_atom_site_label_2
_geom_bond_distance
_geom_bond_site_symmetry_2
Na0 O5 2.490987 1_555
Na0 O12 2.535235 1_555
Na0 O23 2.546161 1_655
Na0 O3 2.579205 1_555
Na0 O4 2.644902 1_555
Na0 O24 2.701583 1_655
Na0 O11 2.882869 1_555
Na0 O6 2.985923 1_545
Na1 O10 2.369136 1_555
Na1 O9 2.378374 1_554
Na1 O25 2.501330 1_655
Na1 O7 2.519077 1_555
Na1 O0 2.549362 1_564
Na2 O3 2.369136 1_555
Na2 O4 2.378374 1_555
Na2 O15 2.501330 1_555
Na2 O6 2.519077 1_555
Na2 O13 2.549362 1_565
Na3 O8 2.490987 1_554
Na3 O1 2.535235 1_555
Na3 O18 2.546161 1_555
Na3 O10 2.579205 1_555
Na3 O9 2.644902 1_554
Na3 O17 2.701583 1_554
Na3 O2 2.882869 1_554
Na3 O7 2.985923 1_545
Na4 O19 2.490987 1_556
Na4 O26 2.535235 1_555
Na4 O9 2.546161 1_555
Na4 O17 2.579205 1_555
Na4 O18 2.644902 1_556
Na4 O10 2.701583 1_556
Na4 O25 2.882869 1_556
Na4 O20 2.985923 1_565
Na5 O24 2.369136 1_555
Na5 O23 2.378374 1_555
Na5 O11 2.501330 1_555
Na5 O21 2.519077 1_555
Na5 O14 2.549362 1_545
Na6 O17 2.369136 1_555
Na6 O18 2.378374 1_556
Na6 O2 2.501330 1_455
Na6 O20 2.519077 1_555
Na6 O27 2.549362 1_546
Na7 O22 2.490987 1_555
Na7 O16 2.535235 1_555
Na7 O4 2.546161 1_455
Na7 O24 2.579205 1_555
Na7 O23 2.644902 1_555
Na7 O3 2.701583 1_455
Na7 O15 2.882869 1_555
Na7 O21 2.985923 1_565
O0 P6 1.644495 1_655
O0 P0 1.647731 1_555
O1 P1 1.541229 1_545
O1 Zn0 1.977536 1_555
O2 P0 1.547402 1_555
O2 Zn1 1.987918 1_655
O3 P0 1.513401 1_555
O4 P1 1.516960 1_555
O5 P3 1.543225 1_555
O5 Zn0 1.983154 1_555
O6 P2 1.546206 1_555
O6 Zn1 1.977384 1_655
O7 P1 1.546206 1_555
O7 Zn2 1.977384 1_555
O8 P0 1.543225 1_555
O8 Zn3 1.983154 1_555
O9 P2 1.516960 1_555
O10 P3 1.513401 1_555
O11 P3 1.547402 1_555
O11 Zn2 1.987918 1_555
O12 P2 1.541229 1_545
O12 Zn3 1.977536 1_555
O13 P5 1.644495 1_555
O13 P3 1.647731 1_555
O14 P2 1.644495 1_555
O14 P4 1.647731 1_555
O15 P4 1.547402 1_555
O15 Zn3 1.987918 1_555
O16 P5 1.541229 1_565
O16 Zn2 1.977536 1_555
O17 P4 1.513401 1_555
O18 P5 1.516960 1_555
O19 P7 1.543225 1_555
O19 Zn2 1.983154 1_555
O20 P6 1.546206 1_555
O20 Zn3 1.977384 1_555
O21 P5 1.546206 1_555
O21 Zn0 1.977384 1_455
O22 P4 1.543225 1_555
O22 Zn1 1.983154 1_555
O23 P6 1.516960 1_555
O24 P7 1.513401 1_555
O25 P7 1.547402 1_555
O25 Zn0 1.987918 1_455
O26 P6 1.541229 1_565
O26 Zn1 1.977536 1_555
O27 P1 1.644495 1_455
O27 P7 1.647731 1_555
