# generated using pymatgen
data_Zn4B6O13
_symmetry_space_group_name_H-M   'P 1'
_cell_length_a   6.46969138
_cell_length_b   6.46969138
_cell_length_c   6.46969138
_cell_angle_alpha   109.47122063
_cell_angle_beta   109.47122063
_cell_angle_gamma   109.47122063
_symmetry_Int_Tables_number   1
_chemical_formula_structural   Zn4B6O13
_chemical_formula_sum   'Zn4 B6 O13'
_cell_volume   208.46291296
_cell_formula_units_Z   1
loop_
 _symmetry_equiv_pos_site_id
 _symmetry_equiv_pos_as_xyz
  1  'x, y, z'
loop_
 _atom_site_type_symbol
 _atom_site_label
 _atom_site_symmetry_multiplicity
 _atom_site_fract_x
 _atom_site_fract_y
 _atom_site_fract_z
 _atom_site_occupancy
  Zn  Zn0  1  0.69472797  0.69472797  0.69472797  1
  Zn  Zn1  1  -0.00000000  0.30527203  -0.00000000  1
  Zn  Zn2  1  0.30527203  -0.00000000  -0.00000000  1
  Zn  Zn3  1  0.00000000  -0.00000000  0.30527203  1
  B  B0  1  0.25000000  0.50000000  0.75000000  1
  B  B1  1  0.75000000  0.25000000  0.50000000  1
  B  B2  1  0.25000000  0.75000000  0.50000000  1
  B  B3  1  0.50000000  0.75000000  0.25000000  1
  B  B4  1  0.50000000  0.25000000  0.75000000  1
  B  B5  1  0.75000000  0.50000000  0.25000000  1
  O  O0  1  0.72472392  0.72472392  0.28009891  1
  O  O1  1  0.27527608  0.55537499  -0.00000000  1
  O  O2  1  0.44462501  0.71990109  0.44462501  1
  O  O3  1  0.55537499  0.27527608  0.00000000  1
  O  O4  1  0.00000000  0.55537499  0.27527608  1
  O  O5  1  0.71990109  0.44462501  0.44462501  1
  O  O6  1  0.28009891  0.72472392  0.72472392  1
  O  O7  1  0.72472392  0.28009891  0.72472392  1
  O  O8  1  0.27527608  0.00000000  0.55537499  1
  O  O9  1  0.00000000  0.27527608  0.55537499  1
  O  O10  1  0.44462501  0.44462501  0.71990109  1
  O  O11  1  0.55537499  -0.00000000  0.27527608  1
  O  O12  1  0.00000000  0.00000000  -0.00000000  1
loop_
_geom_bond_atom_site_label_1
_geom_bond_atom_site_label_2
_geom_bond_distance
_geom_bond_site_symmetry_2
B0 O10 1.472908 1_555
B0 O6 1.472908 1_555
B0 O9 1.472908 1_555
B0 O1 1.472908 1_556
B1 O9 1.472908 1_655
B1 O7 1.472908 1_555
B1 O5 1.472908 1_555
B1 O11 1.472908 1_555
B2 O2 1.472908 1_555
B2 O4 1.472908 1_555
B2 O6 1.472908 1_555
B2 O8 1.472908 1_565
B3 O11 1.472908 1_565
B3 O2 1.472908 1_555
B3 O0 1.472908 1_555
B3 O1 1.472908 1_555
B4 O8 1.472908 1_555
B4 O10 1.472908 1_555
B4 O7 1.472908 1_555
B4 O3 1.472908 1_556
B5 O3 1.472908 1_555
B5 O4 1.472908 1_655
B5 O5 1.472908 1_555
B5 O0 1.472908 1_555
O0 Zn3 1.966937 1_665
O1 Zn1 1.966937 1_555
O2 Zn0 1.966937 1_555
O3 Zn2 1.966937 1_555
O4 Zn1 1.966937 1_555
O5 Zn0 1.966937 1_555
O6 Zn2 1.966937 1_566
O7 Zn1 1.966937 1_656
O8 Zn3 1.966937 1_555
O9 Zn3 1.966937 1_555
O10 Zn0 1.966937 1_555
O11 Zn2 1.966937 1_555
O12 Zn0 1.975016 1_444
O12 Zn1 1.975016 1_555
O12 Zn2 1.975016 1_555
O12 Zn3 1.975016 1_555
