# generated using pymatgen
data_NaYTiNbO6F
_symmetry_space_group_name_H-M   'P 1'
_cell_length_a   7.33522000
_cell_length_b   7.33522000
_cell_length_c   10.36882500
_cell_angle_alpha   90.00000000
_cell_angle_beta   90.00000000
_cell_angle_gamma   90.00000000
_symmetry_Int_Tables_number   1
_chemical_formula_structural   NaYTiNbO6F
_chemical_formula_sum   'Na4 Y4 Ti4 Nb4 O24 F4'
_cell_volume   557.89932048
_cell_formula_units_Z   4
loop_
 _symmetry_equiv_pos_site_id
 _symmetry_equiv_pos_as_xyz
  1  'x, y, z'
loop_
 _atom_site_type_symbol
 _atom_site_label
 _atom_site_symmetry_multiplicity
 _atom_site_fract_x
 _atom_site_fract_y
 _atom_site_fract_z
 _atom_site_occupancy
  Na  Na0  1  0.00000000  0.23397400  0.50000000  1
  Na  Na1  1  0.00000000  0.76602600  0.00000000  1
  Na  Na2  1  0.23397400  0.00000000  0.25000000  1
  Na  Na3  1  0.76602600  0.00000000  0.75000000  1
  Y  Y0  1  0.50000000  0.21629600  0.50000000  1
  Y  Y1  1  0.50000000  0.78370400  0.00000000  1
  Y  Y2  1  0.78370400  0.50000000  0.75000000  1
  Y  Y3  1  0.21629600  0.50000000  0.25000000  1
  Ti  Ti0  1  0.26678400  0.50000000  0.75000000  1
  Ti  Ti1  1  0.50000000  0.26678400  0.00000000  1
  Ti  Ti2  1  0.73321600  0.50000000  0.25000000  1
  Ti  Ti3  1  0.50000000  0.73321600  0.50000000  1
  Nb  Nb0  1  0.73915100  0.00000000  0.25000000  1
  Nb  Nb1  1  0.00000000  0.26084900  0.00000000  1
  Nb  Nb2  1  0.00000000  0.73915100  0.50000000  1
  Nb  Nb3  1  0.26084900  0.00000000  0.75000000  1
  O  O0  1  0.05091400  0.45389600  0.86671400  1
  O  O1  1  0.25099100  0.27822800  0.07562500  1
  O  O2  1  0.45395000  0.45395000  0.87500000  1
  O  O3  1  0.54610400  0.94908600  0.38328600  1
  O  O4  1  0.54605000  0.45395000  0.12500000  1
  O  O5  1  0.54605000  0.54605000  0.37500000  1
  O  O6  1  0.72177200  0.74900900  0.17437500  1
  O  O7  1  0.72177200  0.25099100  0.32562500  1
  O  O8  1  0.74900900  0.72177200  0.57562500  1
  O  O9  1  0.94908600  0.54610400  0.36671400  1
  O  O10  1  0.94908600  0.45389600  0.13328600  1
  O  O11  1  0.93558600  0.93558600  0.37500000  1
  O  O12  1  0.05091400  0.54610400  0.63328600  1
  O  O13  1  0.06441400  0.93558600  0.62500000  1
  O  O14  1  0.06441400  0.06441400  0.87500000  1
  O  O15  1  0.27822800  0.25099100  0.67437500  1
  O  O16  1  0.25099100  0.72177200  0.42437500  1
  O  O17  1  0.27822800  0.74900900  0.82562500  1
  O  O18  1  0.45389600  0.05091400  0.88328600  1
  O  O19  1  0.45395000  0.54605000  0.62500000  1
  O  O20  1  0.45389600  0.94908600  0.61671400  1
  O  O21  1  0.54610400  0.05091400  0.11671400  1
  O  O22  1  0.74900900  0.27822800  0.92437500  1
  O  O23  1  0.93558600  0.06441400  0.12500000  1
  F  F0  1  0.74727900  0.25272100  0.62500000  1
  F  F1  1  0.25272100  0.74727900  0.12500000  1
  F  F2  1  0.25272100  0.25272100  0.37500000  1
  F  F3  1  0.74727900  0.74727900  0.87500000  1
loop_
_geom_bond_atom_site_label_1
_geom_bond_atom_site_label_2
_geom_bond_distance
_geom_bond_site_symmetry_2
Na0 O13 2.587223 1_545
Na0 O11 2.587223 1_445
Na0 O12 2.700270 1_555
Na0 O9 2.700270 1_455
Na0 O15 2.729432 1_555
Na0 O7 2.729432 1_455
Na1 O14 2.587223 1_564
Na1 O23 2.587223 1_465
Na1 O10 2.700270 1_455
Na1 O0 2.700270 1_554
Na1 O6 2.729432 1_455
Na1 O17 2.729432 1_554
Na2 O23 2.587223 1_455
Na2 O11 2.587223 1_445
Na2 O3 2.700270 1_545
Na2 O21 2.700270 1_555
Na2 O1 2.729432 1_555
Na2 O16 2.729432 1_545
Na3 O14 2.587223 1_655
Na3 O13 2.587223 1_645
Na3 O18 2.700270 1_555
Na3 O20 2.700270 1_545
Na3 O22 2.729432 1_555
Na3 O8 2.729432 1_545
Nb0 O23 1.994820 1_555
Nb0 O11 1.994820 1_545
Nb0 O7 2.005164 1_555
Nb0 O6 2.005164 1_545
Nb0 O3 2.013611 1_545
Nb0 O21 2.013611 1_555
Nb1 O14 1.994820 1_554
Nb1 O23 1.994820 1_455
Nb1 O1 2.005164 1_555
Nb1 O22 2.005164 1_454
Nb1 O10 2.013611 1_455
Nb1 O0 2.013611 1_554
Nb2 O13 1.994820 1_555
Nb2 O11 1.994820 1_455
Nb2 O16 2.005164 1_555
Nb2 O8 2.005164 1_455
Nb2 O12 2.013611 1_555
Nb2 O9 2.013611 1_455
Nb3 O14 1.994820 1_555
Nb3 O13 1.994820 1_545
Nb3 O15 2.005164 1_555
Nb3 O17 2.005164 1_545
Nb3 O18 2.013611 1_555
Nb3 O20 2.013611 1_545
O0 Ti0 2.021447 1_555
O0 Y2 2.328238 1_455
O1 Ti1 1.989512 1_555
O1 Y3 2.445438 1_555
O2 Ti1 1.918032 1_556
O2 Ti0 1.918032 1_555
O2 Y1 2.764899 1_556
O2 Y2 2.764899 1_555
O3 Ti3 2.021447 1_555
O3 Y0 2.328238 1_565
O4 Ti2 1.918032 1_555
O4 Ti1 1.918032 1_555
O4 Y1 2.764899 1_555
O4 Y3 2.764899 1_555
O5 Ti3 1.918032 1_555
O5 Ti2 1.918032 1_555
O5 Y3 2.764899 1_555
O5 Y0 2.764899 1_555
O6 Ti2 1.989512 1_555
O6 Y1 2.445438 1_555
O7 Ti2 1.989512 1_555
O7 Y0 2.445438 1_555
O8 Ti3 1.989512 1_555
O8 Y2 2.445438 1_555
O9 Ti2 2.021447 1_555
O9 Y3 2.328238 1_655
O10 Ti2 2.021447 1_555
O10 Y3 2.328238 1_655
O12 Ti0 2.021447 1_555
O12 Y2 2.328238 1_455
O15 Ti0 1.989512 1_555
O15 Y0 2.445438 1_555
O16 Ti3 1.989512 1_555
O16 Y3 2.445438 1_555
O17 Ti0 1.989512 1_555
O17 Y1 2.445438 1_556
O18 Ti1 2.021447 1_556
O18 Y1 2.328238 1_546
O19 Ti3 1.918032 1_555
O19 Ti0 1.918032 1_555
O19 Y2 2.764899 1_555
O19 Y0 2.764899 1_555
O20 Ti3 2.021447 1_555
O20 Y0 2.328238 1_565
O21 Ti1 2.021447 1_555
O21 Y1 2.328238 1_545
O22 Ti1 1.989512 1_556
O22 Y2 2.445438 1_555
F0 Y0 2.245286 1_555
F0 Y2 2.245286 1_555
F0 Na3 2.266106 1_555
F0 Na0 2.266106 1_655
F1 Y3 2.245286 1_555
F1 Y1 2.245286 1_555
F1 Na1 2.266106 1_555
F1 Na2 2.266106 1_565
F2 Y0 2.245286 1_555
F2 Y3 2.245286 1_555
F2 Na0 2.266106 1_555
F2 Na2 2.266106 1_555
F3 Y2 2.245286 1_555
F3 Y1 2.245286 1_556
F3 Na3 2.266106 1_565
F3 Na1 2.266106 1_656
