# generated using pymatgen
data_Nd2Co14B
_symmetry_space_group_name_H-M   'P 1'
_cell_length_a   8.57694836
_cell_length_b   8.57694836
_cell_length_c   11.81680560
_cell_angle_alpha   90.00000000
_cell_angle_beta   90.00000000
_cell_angle_gamma   90.00000000
_symmetry_Int_Tables_number   1
_chemical_formula_structural   Nd2Co14B
_chemical_formula_sum   'Nd8 Co56 B4'
_cell_volume   869.29199729
_cell_formula_units_Z   4
loop_
 _symmetry_equiv_pos_site_id
 _symmetry_equiv_pos_as_xyz
  1  'x, y, z'
loop_
 _atom_site_type_symbol
 _atom_site_label
 _atom_site_symmetry_multiplicity
 _atom_site_fract_x
 _atom_site_fract_y
 _atom_site_fract_z
 _atom_site_occupancy
  Nd  Nd0  1  0.27028489  0.27028489  0.00000000  1
  Nd  Nd1  1  0.22971511  0.77028489  0.50000000  1
  Nd  Nd2  1  0.77028489  0.22971511  0.50000000  1
  Nd  Nd3  1  0.72971511  0.72971511  0.00000000  1
  Nd  Nd4  1  0.14293308  0.85706692  0.00000000  1
  Nd  Nd5  1  0.64293308  0.64293308  0.50000000  1
  Nd  Nd6  1  0.35706692  0.35706692  0.50000000  1
  Nd  Nd7  1  0.85706692  0.14293308  0.00000000  1
  Co  Co0  1  0.00000000  0.50000000  0.00000000  1
  Co  Co1  1  0.00000000  0.50000000  0.50000000  1
  Co  Co2  1  0.50000000  0.00000000  0.50000000  1
  Co  Co3  1  0.50000000  0.00000000  0.00000000  1
  Co  Co4  1  0.00000000  0.00000000  0.61541034  1
  Co  Co5  1  0.50000000  0.50000000  0.11541034  1
  Co  Co6  1  0.50000000  0.50000000  0.88458966  1
  Co  Co7  1  0.00000000  0.00000000  0.38458966  1
  Co  Co8  1  0.31625312  0.31625312  0.24745300  1
  Co  Co9  1  0.18374688  0.81625312  0.74745300  1
  Co  Co10  1  0.81625312  0.18374688  0.74745300  1
  Co  Co11  1  0.81625312  0.18374688  0.25254700  1
  Co  Co12  1  0.18374688  0.81625312  0.25254700  1
  Co  Co13  1  0.68374688  0.68374688  0.24745300  1
  Co  Co14  1  0.31625312  0.31625312  0.75254700  1
  Co  Co15  1  0.68374688  0.68374688  0.75254700  1
  Co  Co16  1  0.10000325  0.10000325  0.21037861  1
  Co  Co17  1  0.39999675  0.60000325  0.71037861  1
  Co  Co18  1  0.60000325  0.39999675  0.71037861  1
  Co  Co19  1  0.60000325  0.39999675  0.28962139  1
  Co  Co20  1  0.39999675  0.60000325  0.28962139  1
  Co  Co21  1  0.89999675  0.89999675  0.21037861  1
  Co  Co22  1  0.10000325  0.10000325  0.78962139  1
  Co  Co23  1  0.89999675  0.89999675  0.78962139  1
  Co  Co24  1  0.03288829  0.35847511  0.18041910  1
  Co  Co25  1  0.14152489  0.53288829  0.68041910  1
  Co  Co26  1  0.85847511  0.46711171  0.68041910  1
  Co  Co27  1  0.53288829  0.14152489  0.31958090  1
  Co  Co28  1  0.46711171  0.85847511  0.31958090  1
  Co  Co29  1  0.96711171  0.64152489  0.18041910  1
  Co  Co30  1  0.35847511  0.03288829  0.81958090  1
  Co  Co31  1  0.64152489  0.96711171  0.81958090  1
  Co  Co32  1  0.96711171  0.64152489  0.81958090  1
  Co  Co33  1  0.85847511  0.46711171  0.31958090  1
  Co  Co34  1  0.14152489  0.53288829  0.31958090  1
  Co  Co35  1  0.46711171  0.85847511  0.68041910  1
  Co  Co36  1  0.53288829  0.14152489  0.68041910  1
  Co  Co37  1  0.03288829  0.35847511  0.81958090  1
  Co  Co38  1  0.64152489  0.96711171  0.18041910  1
  Co  Co39  1  0.35847511  0.03288829  0.18041910  1
  Co  Co40  1  0.22174547  0.56656759  0.12472735  1
  Co  Co41  1  0.93343241  0.72174547  0.62472735  1
  Co  Co42  1  0.06656759  0.27825453  0.62472735  1
  Co  Co43  1  0.72174547  0.93343241  0.37527265  1
  Co  Co44  1  0.27825453  0.06656759  0.37527265  1
  Co  Co45  1  0.77825453  0.43343241  0.12472735  1
  Co  Co46  1  0.56656759  0.22174547  0.87527265  1
  Co  Co47  1  0.43343241  0.77825453  0.87527265  1
  Co  Co48  1  0.77825453  0.43343241  0.87527265  1
  Co  Co49  1  0.06656759  0.27825453  0.37527265  1
  Co  Co50  1  0.93343241  0.72174547  0.37527265  1
  Co  Co51  1  0.27825453  0.06656759  0.62472735  1
  Co  Co52  1  0.72174547  0.93343241  0.62472735  1
  Co  Co53  1  0.22174547  0.56656759  0.87527265  1
  Co  Co54  1  0.43343241  0.77825453  0.12472735  1
  Co  Co55  1  0.56656759  0.22174547  0.12472735  1
  B  B0  1  0.37496001  0.62503999  0.00000000  1
  B  B1  1  0.87496001  0.87496001  0.50000000  1
  B  B2  1  0.12503999  0.12503999  0.50000000  1
  B  B3  1  0.62503999  0.37496001  0.00000000  1
loop_
_geom_bond_atom_site_label_1
_geom_bond_atom_site_label_2
_geom_bond_distance
_geom_bond_site_symmetry_2
Co0 Co24 2.469480 1_555
Co0 Co29 2.469480 1_455
Co0 Co37 2.469480 1_554
Co0 Co32 2.469480 1_454
Co0 Co45 2.472958 1_455
Co0 Co53 2.472958 1_554
Co0 Co40 2.472958 1_555
Co0 Co48 2.472958 1_454
Co0 Nd0 3.042375 1_555
Co0 Nd3 3.042375 1_455
Co0 Nd7 3.298800 1_455
Co0 Nd4 3.298800 1_555
Co1 Co26 2.469480 1_455
Co1 Co25 2.469480 1_555
Co1 Co33 2.469480 1_455
Co1 Co34 2.469480 1_555
Co1 Co50 2.472958 1_455
Co1 Co49 2.472958 1_555
Co1 Co42 2.472958 1_555
Co1 Co41 2.472958 1_455
Co1 Nd2 3.042375 1_455
Co1 Nd1 3.042375 1_555
Co1 Nd5 3.298800 1_455
Co1 Nd6 3.298800 1_555
Co2 Co35 2.469480 1_545
Co2 Co36 2.469480 1_555
Co2 Co27 2.469480 1_555
Co2 Co28 2.469480 1_545
Co2 Co44 2.472958 1_555
Co2 Co51 2.472958 1_555
Co2 Co52 2.472958 1_545
Co2 Co43 2.472958 1_545
Co2 Nd1 3.042375 1_545
Co2 Nd2 3.042375 1_555
Co2 Nd5 3.298800 1_545
Co2 Nd6 3.298800 1_555
Co3 Co39 2.469480 1_555
Co3 Co38 2.469480 1_545
Co3 Co30 2.469480 1_554
Co3 Co31 2.469480 1_544
Co3 Co54 2.472958 1_545
Co3 Co55 2.472958 1_555
Co3 Co46 2.472958 1_554
Co3 Co47 2.472958 1_544
Co3 Nd0 3.042375 1_555
Co3 Nd3 3.042375 1_545
Co3 Nd4 3.298800 1_545
Co3 Nd7 3.298800 1_555
Co4 Co9 2.720676 1_545
Co4 Nd2 3.102210 1_455
Co4 Nd1 3.102210 1_545
Co5 Co8 2.720676 1_555
Co5 Nd0 3.102210 1_555
Co5 Nd3 3.102210 1_555
Co6 Nd3 3.102210 1_556
Co6 Nd0 3.102210 1_556
Co7 Nd1 3.102210 1_545
Co7 Nd2 3.102210 1_455
Co8 Nd0 2.976790 1_555
Co8 Nd6 3.025082 1_555
Co9 Nd1 2.976790 1_555
Co9 Nd4 3.025082 1_556
Co10 Co31 2.534715 1_545
Co10 Co37 2.534715 1_655
Co10 Co26 2.581759 1_555
Co10 Co36 2.581759 1_555
Co10 Co23 2.585952 1_545
Co10 Co22 2.585952 1_655
Co10 Co48 2.640792 1_555
Co10 Co46 2.640792 1_555
Co10 Co18 2.659367 1_555
Co10 Co42 2.714688 1_655
Co10 Co52 2.714688 1_545
Co10 Co4 2.720676 1_655
Co10 Nd2 2.976790 1_555
Co10 Nd7 3.025082 1_556
Co11 Co38 2.534715 1_545
Co11 Co24 2.534715 1_655
Co11 Co27 2.581759 1_555
Co11 Co33 2.581759 1_555
Co11 Co21 2.585952 1_545
Co11 Co16 2.585952 1_655
Co11 Co55 2.640792 1_555
Co11 Co45 2.640792 1_555
Co11 Co19 2.659367 1_555
Co11 Co49 2.714688 1_655
Co11 Co43 2.714688 1_545
Co11 Co7 2.720676 1_655
Co11 Nd2 2.976790 1_555
Co11 Nd7 3.025082 1_555
Co12 Co29 2.534715 1_455
Co12 Co39 2.534715 1_565
Co12 Co34 2.581759 1_555
Co12 Co28 2.581759 1_555
Co12 Co21 2.585952 1_455
Co12 Co16 2.585952 1_565
Co12 Co54 2.640792 1_555
Co12 Co40 2.640792 1_555
Co12 Co20 2.659367 1_555
Co12 Co44 2.714688 1_565
Co12 Co50 2.714688 1_455
Co12 Co7 2.720676 1_565
Co12 Nd1 2.976790 1_555
Co12 Nd4 3.025082 1_555
Co13 Co28 2.534715 1_555
Co13 Co33 2.534715 1_555
Co13 Co38 2.581759 1_555
Co13 Co29 2.581759 1_555
Co13 Co19 2.585952 1_555
Co13 Co20 2.585952 1_555
Co13 Co43 2.640792 1_555
Co13 Co50 2.640792 1_555
Co13 Co21 2.659367 1_555
Co13 Co54 2.714688 1_555
Co13 Co45 2.714688 1_555
Co13 Co5 2.720676 1_555
Co13 Nd3 2.976790 1_555
Co13 Nd5 3.025082 1_555
Co14 Co25 2.534715 1_555
Co14 Co36 2.534715 1_555
Co14 Co30 2.581759 1_555
Co14 Co37 2.581759 1_555
Co14 Co17 2.585952 1_555
Co14 Co18 2.585952 1_555
Co14 Co42 2.640792 1_555
Co14 Co51 2.640792 1_555
Co14 Co22 2.659367 1_555
Co14 Co53 2.714688 1_555
Co14 Co46 2.714688 1_555
Co14 Co6 2.720676 1_555
Co14 Nd0 2.976790 1_556
Co14 Nd6 3.025082 1_555
Co15 Co26 2.534715 1_555
Co15 Co35 2.534715 1_555
Co15 Co31 2.581759 1_555
Co15 Co32 2.581759 1_555
Co15 Co17 2.585952 1_555
Co15 Co18 2.585952 1_555
Co15 Co52 2.640792 1_555
Co15 Co41 2.640792 1_555
Co15 Co23 2.659367 1_555
Co15 Co48 2.714688 1_555
Co15 Co47 2.714688 1_555
Co15 Co6 2.720676 1_555
Co15 Nd3 2.976790 1_556
Co15 Nd5 3.025082 1_555
Co16 Co24 2.317616 1_555
Co16 Co39 2.317616 1_555
Co16 Co7 2.389411 1_555
Co16 Co21 2.426006 1_445
Co16 Co44 2.493263 1_555
Co16 Co49 2.493263 1_555
Co16 Co8 2.659367 1_555
Co16 Nd0 3.232076 1_555
Co16 Nd7 3.264567 1_455
Co16 Nd4 3.264567 1_545
Co17 Co35 2.317616 1_555
Co17 Co25 2.317616 1_555
Co17 Co6 2.389411 1_555
Co17 Co18 2.426006 1_555
Co17 Co47 2.493263 1_555
Co17 Co53 2.493263 1_555
Co17 Co9 2.659367 1_555
Co17 Nd1 3.232076 1_555
Co17 Nd6 3.264567 1_555
Co17 Nd5 3.264567 1_555
Co18 Co36 2.317616 1_555
Co18 Co26 2.317616 1_555
Co18 Co6 2.389411 1_555
Co18 Co48 2.493263 1_555
Co18 Co46 2.493263 1_555
Co18 Nd2 3.232076 1_555
Co18 Nd6 3.264567 1_555
Co18 Nd5 3.264567 1_555
Co19 Co27 2.317616 1_555
Co19 Co33 2.317616 1_555
Co19 Co5 2.389411 1_555
Co19 Co20 2.426006 1_555
Co19 Co55 2.493263 1_555
Co19 Co45 2.493263 1_555
Co19 Co8 2.585952 1_555
Co19 Nd2 3.232076 1_555
Co19 Nd6 3.264567 1_555
Co19 Nd5 3.264567 1_555
Co20 Co34 2.317616 1_555
Co20 Co28 2.317616 1_555
Co20 Co5 2.389411 1_555
Co20 Co54 2.493263 1_555
Co20 Co40 2.493263 1_555
Co20 Co8 2.585952 1_555
Co20 Nd1 3.232076 1_555
Co20 Nd6 3.264567 1_555
Co20 Nd5 3.264567 1_555
Co21 Co29 2.317616 1_555
Co21 Co38 2.317616 1_555
Co21 Co7 2.389411 1_665
Co21 Co43 2.493263 1_555
Co21 Co50 2.493263 1_555
Co21 Nd3 3.232076 1_555
Co21 Nd7 3.264567 1_565
Co21 Nd4 3.264567 1_655
Co22 Co30 2.317616 1_555
Co22 Co37 2.317616 1_555
Co22 Co4 2.389411 1_555
Co22 Co23 2.426006 1_445
Co22 Co51 2.493263 1_555
Co22 Co42 2.493263 1_555
Co22 Co9 2.585952 1_545
Co22 Nd0 3.232076 1_556
Co22 Nd7 3.264567 1_456
Co22 Nd4 3.264567 1_546
Co23 Co31 2.317616 1_555
Co23 Co32 2.317616 1_555
Co23 Co4 2.389411 1_665
Co23 Co41 2.493263 1_555
Co23 Co52 2.493263 1_555
Co23 Co9 2.585952 1_655
Co23 Nd3 3.232076 1_556
Co23 Nd7 3.264567 1_566
Co23 Nd4 3.264567 1_656
Co24 Co45 2.369851 1_455
Co24 Co33 2.410440 1_455
Co24 Co34 2.410440 1_555
Co24 Co49 2.420449 1_555
Co24 Co29 2.492393 1_455
Co24 Co40 2.498482 1_555
Co24 Co8 2.581759 1_555
Co24 Nd0 3.043572 1_555
Co24 Nd7 3.199545 1_455
Co25 Co42 2.369851 1_555
Co25 Co32 2.410440 1_455
Co25 Co37 2.410440 1_555
Co25 Co53 2.420449 1_555
Co25 Co26 2.492393 1_455
Co25 Co41 2.498482 1_455
Co25 Co9 2.581759 1_555
Co25 Nd1 3.043572 1_555
Co25 Nd6 3.199545 1_555
Co26 Co41 2.369851 1_555
Co26 Co32 2.410440 1_555
Co26 Co37 2.410440 1_655
Co26 Co48 2.420449 1_555
Co26 Co42 2.498482 1_655
Co26 Nd2 3.043572 1_555
Co26 Nd5 3.199545 1_555
Co27 Co44 2.369851 1_555
Co27 Co38 2.410440 1_545
Co27 Co39 2.410440 1_555
Co27 Co55 2.420449 1_555
Co27 Co28 2.492393 1_545
Co27 Co43 2.498482 1_545
Co27 Co8 2.534715 1_555
Co27 Nd2 3.043572 1_555
Co27 Nd6 3.199545 1_555
Co28 Co43 2.369851 1_555
Co28 Co38 2.410440 1_555
Co28 Co39 2.410440 1_565
Co28 Co54 2.420449 1_555
Co28 Co44 2.498482 1_565
Co28 Nd1 3.043572 1_555
Co28 Nd5 3.199545 1_555
Co29 Co40 2.369851 1_655
Co29 Co34 2.410440 1_655
Co29 Co33 2.410440 1_555
Co29 Co50 2.420449 1_555
Co29 Co45 2.498482 1_555
Co29 Nd3 3.043572 1_555
Co29 Nd4 3.199545 1_655
Co30 Co47 2.369851 1_545
Co30 Co36 2.410440 1_555
Co30 Co35 2.410440 1_545
Co30 Co51 2.420449 1_555
Co30 Co31 2.492393 1_545
Co30 Co46 2.498482 1_555
Co30 Co9 2.534715 1_545
Co30 Nd0 3.043572 1_556
Co30 Nd4 3.199545 1_546
Co31 Co46 2.369851 1_565
Co31 Co36 2.410440 1_565
Co31 Co35 2.410440 1_555
Co31 Co52 2.420449 1_555
Co31 Co47 2.498482 1_555
Co31 Nd3 3.043572 1_556
Co31 Nd7 3.199545 1_566
Co32 Co53 2.369851 1_655
Co32 Co41 2.420449 1_555
Co32 Co37 2.492393 1_655
Co32 Co48 2.498482 1_555
Co32 Co9 2.534715 1_655
Co32 Nd3 3.043572 1_556
Co32 Nd4 3.199545 1_656
Co33 Co50 2.369851 1_555
Co33 Co45 2.420449 1_555
Co33 Co34 2.492393 1_655
Co33 Co49 2.498482 1_655
Co33 Nd2 3.043572 1_555
Co33 Nd5 3.199545 1_555
Co34 Co49 2.369851 1_555
Co34 Co40 2.420449 1_555
Co34 Co50 2.498482 1_455
Co34 Co8 2.534715 1_555
Co34 Nd1 3.043572 1_555
Co34 Nd6 3.199545 1_555
Co35 Co52 2.369851 1_555
Co35 Co47 2.420449 1_555
Co35 Co36 2.492393 1_565
Co35 Co51 2.498482 1_565
Co35 Co9 2.581759 1_555
Co35 Nd1 3.043572 1_555
Co35 Nd5 3.199545 1_555
Co36 Co51 2.369851 1_555
Co36 Co46 2.420449 1_555
Co36 Co52 2.498482 1_545
Co36 Nd2 3.043572 1_555
Co36 Nd6 3.199545 1_555
Co37 Co48 2.369851 1_455
Co37 Co42 2.420449 1_555
Co37 Co53 2.498482 1_555
Co37 Nd0 3.043572 1_556
Co37 Nd7 3.199545 1_456
Co38 Co55 2.369851 1_565
Co38 Co43 2.420449 1_555
Co38 Co39 2.492393 1_565
Co38 Co54 2.498482 1_555
Co38 Nd3 3.043572 1_555
Co38 Nd7 3.199545 1_565
Co39 Co54 2.369851 1_545
Co39 Co44 2.420449 1_555
Co39 Co55 2.498482 1_555
Co39 Co8 2.581759 1_555
Co39 Nd0 3.043572 1_555
Co39 Nd4 3.199545 1_545
Co40 Co8 2.714688 1_555
Co40 Nd0 2.967043 1_555
Co40 Nd4 2.972762 1_555
Co41 Co9 2.714688 1_655
Co41 Nd1 2.967043 1_655
Co41 Nd5 2.972762 1_555
Co42 Nd2 2.967043 1_455
Co42 Nd6 2.972762 1_555
Co43 Nd2 2.967043 1_565
Co43 Nd5 2.972762 1_555
Co44 Co8 2.640792 1_555
Co44 Nd1 2.967043 1_545
Co44 Nd6 2.972762 1_555
Co45 Nd3 2.967043 1_555
Co45 Nd7 2.972762 1_555
Co46 Nd0 2.967043 1_556
Co46 Nd7 2.972762 1_556
Co47 Co9 2.640792 1_555
Co47 Nd3 2.967043 1_556
Co47 Nd4 2.972762 1_556
Co48 Nd3 2.967043 1_556
Co48 Nd7 2.972762 1_556
Co49 Co8 2.640792 1_555
Co49 Nd2 2.967043 1_455
Co49 Nd6 2.972762 1_555
Co50 Nd1 2.967043 1_655
Co50 Nd5 2.972762 1_555
Co51 Co9 2.714688 1_545
Co51 Nd1 2.967043 1_545
Co51 Nd6 2.972762 1_555
Co52 Nd2 2.967043 1_565
Co52 Nd5 2.972762 1_555
Co53 Co9 2.640792 1_555
Co53 Nd0 2.967043 1_556
Co53 Nd4 2.972762 1_556
Co54 Nd3 2.967043 1_555
Co54 Nd4 2.972762 1_555
Co55 Co8 2.714688 1_555
Co55 Nd0 2.967043 1_555
Co55 Nd7 2.972762 1_555
B0 Co53 2.037334 1_554
B0 Co40 2.037334 1_555
B0 Co54 2.037334 1_555
B0 Co47 2.037334 1_554
B0 Co6 2.039669 1_554
B0 Co5 2.039669 1_555
B0 Nd4 2.814402 1_555
B0 Nd0 3.172405 1_555
B0 Nd3 3.172405 1_555
B1 Co52 2.037334 1_555
B1 Co43 2.037334 1_555
B1 Co41 2.037334 1_555
B1 Co50 2.037334 1_555
B1 Co7 2.039669 1_665
B1 Co4 2.039669 1_665
B1 Nd5 2.814402 1_555
B1 Nd1 3.172405 1_655
B1 Nd2 3.172405 1_565
B2 Co49 2.037334 1_555
B2 Co42 2.037334 1_555
B2 Co51 2.037334 1_555
B2 Co44 2.037334 1_555
B2 Co7 2.039669 1_555
B2 Co4 2.039669 1_555
B2 Nd6 2.814402 1_555
B2 Nd2 3.172405 1_455
B2 Nd1 3.172405 1_545
B3 Co55 2.037334 1_555
B3 Co45 2.037334 1_555
B3 Co46 2.037334 1_554
B3 Co48 2.037334 1_554
B3 Co6 2.039669 1_554
B3 Co5 2.039669 1_555
B3 Nd7 2.814402 1_555
B3 Nd0 3.172405 1_555
B3 Nd3 3.172405 1_555
