# generated using pymatgen
data_Sm(CoGe)2
_symmetry_space_group_name_H-M   'P 1'
_cell_length_a   3.96174888
_cell_length_b   3.96174909
_cell_length_c   5.80473850
_cell_angle_alpha   109.95313218
_cell_angle_beta   109.95313211
_cell_angle_gamma   90.00000146
_symmetry_Int_Tables_number   1
_chemical_formula_structural   Sm(CoGe)2
_chemical_formula_sum   'Sm1 Co2 Ge2'
_cell_volume   79.79600513
_cell_formula_units_Z   1
loop_
 _symmetry_equiv_pos_site_id
 _symmetry_equiv_pos_as_xyz
  1  'x, y, z'
loop_
 _atom_site_type_symbol
 _atom_site_label
 _atom_site_symmetry_multiplicity
 _atom_site_fract_x
 _atom_site_fract_y
 _atom_site_fract_z
 _atom_site_occupancy
  Sm  Sm0  1  0.00000000  0.00000000  0.00000000  1
  Co  Co0  1  0.25000000  0.75000000  0.50000000  1
  Co  Co1  1  0.75000000  0.25000000  0.50000000  1
  Ge  Ge0  1  0.63087427  0.63087427  0.26174855  1
  Ge  Ge1  1  0.36912573  0.36912573  0.73825145  1
loop_
_geom_bond_atom_site_label_1
_geom_bond_atom_site_label_2
_geom_bond_distance
_geom_bond_site_symmetry_2
Co0 Ge0 2.321864 1_455
Co0 Ge1 2.321864 1_565
Co0 Ge0 2.321864 1_555
Co0 Ge1 2.321864 1_555
Co0 Sm0 3.222682 1_666
Co0 Sm0 3.222682 1_555
Co0 Sm0 3.222682 1_566
Co0 Sm0 3.222682 1_565
Co1 Ge1 2.321864 1_655
Co1 Ge0 2.321864 1_545
Co1 Ge1 2.321864 1_555
Co1 Ge0 2.321864 1_555
Co1 Sm0 3.222682 1_555
Co1 Sm0 3.222682 1_666
Co1 Sm0 3.222682 1_655
Co1 Sm0 3.222682 1_656
Ge0 Ge1 2.661470 1_554
Ge0 Sm0 3.101384 1_555
Ge0 Sm0 3.101384 1_565
Ge0 Sm0 3.101384 1_655
Ge0 Sm0 3.101384 1_665
Ge1 Sm0 3.101384 1_666
Ge1 Sm0 3.101384 1_656
Ge1 Sm0 3.101384 1_566
Ge1 Sm0 3.101384 1_556
