# generated using pymatgen
data_CaLaMnFeO6
_symmetry_space_group_name_H-M   'P 1'
_cell_length_a   5.48885255
_cell_length_b   7.71662253
_cell_length_c   5.50655500
_cell_angle_alpha   89.99984249
_cell_angle_beta   90.00008341
_cell_angle_gamma   90.04679671
_symmetry_Int_Tables_number   1
_chemical_formula_structural   CaLaMnFeO6
_chemical_formula_sum   'Ca2 La2 Mn2 Fe2 O12'
_cell_volume   233.23227961
_cell_formula_units_Z   2
loop_
 _symmetry_equiv_pos_site_id
 _symmetry_equiv_pos_as_xyz
  1  'x, y, z'
loop_
 _atom_site_type_symbol
 _atom_site_label
 _atom_site_symmetry_multiplicity
 _atom_site_fract_x
 _atom_site_fract_y
 _atom_site_fract_z
 _atom_site_occupancy
  Ca  Ca0  1  0.50974600  0.24988300  0.53625000  1
  Ca  Ca1  1  0.00974300  0.74987800  0.96375100  1
  La  La0  1  0.99374900  0.24996900  0.02647400  1
  La  La1  1  0.49374200  0.74996500  0.47352100  1
  Mn  Mn0  1  0.49958100  0.99940700  0.00000700  1
  Mn  Mn1  1  0.99957800  0.49940800  0.49998900  1
  Fe  Fe0  1  0.99960700  0.00071500  0.50003100  1
  Fe  Fe1  1  0.49960600  0.50071300  0.99996900  1
  O  O0  1  0.57965900  0.75639500  0.01320900  1
  O  O1  1  0.07966100  0.25639600  0.48679100  1
  O  O2  1  0.22289500  0.95879100  0.21398200  1
  O  O3  1  0.72289300  0.45879100  0.28601800  1
  O  O4  1  0.21231600  0.54165600  0.22261500  1
  O  O5  1  0.71231600  0.04165700  0.27738600  1
  O  O6  1  0.92864600  0.74377600  0.51682300  1
  O  O7  1  0.42864200  0.24377600  0.98318500  1
  O  O8  1  0.27185400  0.53795900  0.71880400  1
  O  O9  1  0.77185500  0.03796200  0.78120000  1
  O  O10  1  0.28195600  0.96145200  0.72675900  1
  O  O11  1  0.78195200  0.46145000  0.77323400  1
loop_
_geom_bond_atom_site_label_1
_geom_bond_atom_site_label_2
_geom_bond_distance
_geom_bond_site_symmetry_2
Ca0 O1 2.376903 1_555
Ca0 O5 2.419281 1_555
Ca0 O3 2.421375 1_555
Ca0 O7 2.501448 1_555
Ca0 O9 2.562658 1_555
Ca0 O11 2.568387 1_555
Ca0 O10 2.759169 1_545
Ca0 O8 2.768010 1_555
Ca1 O0 2.376899 1_456
Ca1 O4 2.419261 1_556
Ca1 O2 2.421414 1_556
Ca1 O6 2.501401 1_455
Ca1 O8 2.562653 1_555
Ca1 O10 2.568464 1_555
Ca1 O11 2.759172 1_455
Ca1 O9 2.768037 1_465
La0 O7 2.399451 1_654
La0 O11 2.441777 1_554
La0 O9 2.445552 1_554
La0 O1 2.578720 1_655
La0 O3 2.617896 1_555
La0 O5 2.622042 1_555
La0 O4 2.769051 1_655
La0 O2 2.775111 1_645
La0 O1 3.009377 1_654
La0 O7 3.111263 1_554
La0 O8 3.183325 1_654
La0 O10 3.191995 1_644
La1 O6 2.399517 1_555
La1 O10 2.441780 1_555
La1 O8 2.445555 1_555
La1 O0 2.578700 1_555
La1 O2 2.617865 1_555
La1 O4 2.621990 1_555
La1 O5 2.769082 1_565
La1 O3 2.775095 1_555
La1 O0 3.009408 1_556
La1 O6 3.111208 1_455
La1 O9 3.183415 1_565
La1 O11 3.191978 1_555
Mn0 O0 1.927775 1_555
Mn0 O7 1.928022 1_564
Mn0 O9 1.942410 1_564
Mn0 O10 1.943207 1_554
Mn0 O2 1.947352 1_555
Mn0 O5 1.949893 1_565
Mn1 O1 1.927781 1_655
Mn1 O6 1.928010 1_555
Mn1 O8 1.942439 1_655
Mn1 O11 1.943202 1_555
Mn1 O3 1.947334 1_555
Mn1 O4 1.949880 1_655
Fe0 O9 2.010745 1_555
Fe0 O10 2.013225 1_645
Fe0 O2 2.021999 1_645
Fe0 O1 2.022296 1_655
Fe0 O6 2.022399 1_545
Fe0 O5 2.022454 1_555
Fe1 O8 2.010723 1_555
Fe1 O11 2.013240 1_555
Fe1 O3 2.021989 1_556
Fe1 O0 2.022302 1_556
Fe1 O7 2.022386 1_555
Fe1 O4 2.022458 1_556
