# generated using pymatgen
data_CaSO4
_symmetry_space_group_name_H-M   'P 1'
_cell_length_a   4.67136498
_cell_length_b   4.67136581
_cell_length_c   7.00520065
_cell_angle_alpha   90.00000000
_cell_angle_beta   90.00000000
_cell_angle_gamma   96.80537999
_symmetry_Int_Tables_number   1
_chemical_formula_structural   CaSO4
_chemical_formula_sum   'Ca2 S2 O8'
_cell_volume   151.78804115
_cell_formula_units_Z   2
loop_
 _symmetry_equiv_pos_site_id
 _symmetry_equiv_pos_as_xyz
  1  'x, y, z'
loop_
 _atom_site_type_symbol
 _atom_site_label
 _atom_site_symmetry_multiplicity
 _atom_site_fract_x
 _atom_site_fract_y
 _atom_site_fract_z
 _atom_site_occupancy
  Ca  Ca0  1  0.35095202  0.35095202  0.75000000  1
  Ca  Ca1  1  0.64904798  0.64904798  0.25000000  1
  S  S0  1  0.84766311  0.84766311  0.75000000  1
  S  S1  1  0.15233689  0.15233689  0.25000000  1
  O  O0  1  0.15852505  0.81840855  0.75000000  1
  O  O1  1  0.84147495  0.18159145  0.25000000  1
  O  O2  1  0.81840855  0.15852505  0.75000000  1
  O  O3  1  0.18159145  0.84147495  0.25000000  1
  O  O4  1  0.29483199  0.29483199  0.08153031  1
  O  O5  1  0.70516801  0.70516801  0.58153031  1
  O  O6  1  0.29483199  0.29483199  0.41846969  1
  O  O7  1  0.70516801  0.70516801  0.91846969  1
loop_
_geom_bond_atom_site_label_1
_geom_bond_atom_site_label_2
_geom_bond_distance
_geom_bond_site_symmetry_2
Ca0 O6 2.348377 1_555
Ca0 O4 2.348377 1_556
Ca0 O2 2.457962 1_555
Ca0 O0 2.457963 1_555
Ca0 O5 2.493951 1_555
Ca0 O7 2.493951 1_555
Ca0 O2 2.542976 1_455
Ca0 O0 2.542976 1_545
Ca1 O5 2.348377 1_555
Ca1 O7 2.348377 1_554
Ca1 O3 2.457962 1_555
Ca1 O1 2.457963 1_555
Ca1 O6 2.493951 1_555
Ca1 O4 2.493951 1_555
Ca1 O3 2.542976 1_655
Ca1 O1 2.542976 1_565
O0 S0 1.474600 1_455
O1 S1 1.474600 1_655
O2 S0 1.474600 1_545
O3 S1 1.474600 1_565
O4 S1 1.474432 1_555
O5 S0 1.474432 1_555
O6 S1 1.474432 1_555
O7 S0 1.474432 1_555
