# generated using pymatgen
data_Eu(AsRu)2
_symmetry_space_group_name_H-M   'P 1'
_cell_length_a   4.17706845
_cell_length_b   4.17706839
_cell_length_c   6.18025090
_cell_angle_alpha   109.75122954
_cell_angle_beta   109.75122245
_cell_angle_gamma   90.00000018
_symmetry_Int_Tables_number   1
_chemical_formula_structural   Eu(AsRu)2
_chemical_formula_sum   'Eu1 As2 Ru2'
_cell_volume   94.72064586
_cell_formula_units_Z   1
loop_
 _symmetry_equiv_pos_site_id
 _symmetry_equiv_pos_as_xyz
  1  'x, y, z'
loop_
 _atom_site_type_symbol
 _atom_site_label
 _atom_site_symmetry_multiplicity
 _atom_site_fract_x
 _atom_site_fract_y
 _atom_site_fract_z
 _atom_site_occupancy
  Eu  Eu0  1  -0.00000000  -0.00000000  0.00000000  1
  As  As0  1  0.63801235  0.63801235  0.27602470  1
  As  As1  1  0.36198765  0.36198765  0.72397530  1
  Ru  Ru0  1  0.25000000  0.75000000  0.50000000  1
  Ru  Ru1  1  0.75000000  0.25000000  0.50000000  1
loop_
_geom_bond_atom_site_label_1
_geom_bond_atom_site_label_2
_geom_bond_distance
_geom_bond_site_symmetry_2
Eu0 Ru0 3.424888 1_555
Eu0 Ru1 3.424888 1_444
Eu0 Ru0 3.424889 1_544
Eu0 Ru1 3.424889 1_455
Eu0 Ru0 3.424889 1_444
Eu0 Ru1 3.424889 1_555
Eu0 Ru0 3.424889 1_545
Eu0 Ru1 3.424889 1_454
As0 Ru1 2.416695 1_565
As0 Ru0 2.416695 1_555
As0 Ru0 2.416695 1_655
As0 Ru1 2.416695 1_555
As0 As1 2.996949 1_554
As0 Eu0 3.312005 1_555
As0 Eu0 3.312005 1_655
As0 Eu0 3.312005 1_665
As0 Eu0 3.312005 1_565
As1 Ru0 2.416695 1_545
As1 Ru1 2.416695 1_555
As1 Ru1 2.416695 1_455
As1 Ru0 2.416695 1_555
As1 Eu0 3.312005 1_666
As1 Eu0 3.312005 1_566
As1 Eu0 3.312005 1_556
As1 Eu0 3.312005 1_656
