# generated using pymatgen
data_ZrGeSe
_symmetry_space_group_name_H-M   'P 1'
_cell_length_a   3.71896668
_cell_length_b   3.71896668
_cell_length_c   8.36780360
_cell_angle_alpha   90.00000000
_cell_angle_beta   90.00000000
_cell_angle_gamma   90.00000000
_symmetry_Int_Tables_number   1
_chemical_formula_structural   ZrGeSe
_chemical_formula_sum   'Zr2 Ge2 Se2'
_cell_volume   115.73269143
_cell_formula_units_Z   2
loop_
 _symmetry_equiv_pos_site_id
 _symmetry_equiv_pos_as_xyz
  1  'x, y, z'
loop_
 _atom_site_type_symbol
 _atom_site_label
 _atom_site_symmetry_multiplicity
 _atom_site_fract_x
 _atom_site_fract_y
 _atom_site_fract_z
 _atom_site_occupancy
  Zr  Zr0  1  0.75000000  0.75000000  0.73901142  1
  Zr  Zr1  1  0.25000000  0.25000000  0.26098858  1
  Ge  Ge0  1  0.75000000  0.25000000  -0.00000000  1
  Ge  Ge1  1  0.25000000  0.75000000  -0.00000000  1
  Se  Se0  1  0.25000000  0.25000000  0.62245240  1
  Se  Se1  1  0.75000000  0.75000000  0.37754760  1
loop_
_geom_bond_atom_site_label_1
_geom_bond_atom_site_label_2
_geom_bond_distance
_geom_bond_site_symmetry_2
Ge0 Ge1 2.629707 1_655
Ge0 Ge1 2.629707 1_545
Ge0 Ge1 2.629707 1_645
Ge0 Ge1 2.629707 1_555
Ge0 Zr1 2.868293 1_655
Ge0 Zr0 2.868293 1_554
Ge0 Zr1 2.868293 1_555
Ge0 Zr0 2.868293 1_544
Ge1 Zr1 2.868293 1_565
Ge1 Zr0 2.868293 1_554
Ge1 Zr1 2.868293 1_555
Ge1 Zr0 2.868293 1_454
Se0 Zr0 2.804755 1_545
Se0 Zr0 2.804755 1_555
Se0 Zr0 2.804755 1_455
Se0 Zr0 2.804755 1_445
Se0 Zr1 3.024658 1_555
Se1 Zr1 2.804755 1_655
Se1 Zr1 2.804755 1_665
Se1 Zr1 2.804755 1_555
Se1 Zr1 2.804755 1_565
Se1 Zr0 3.024658 1_555
