# generated using pymatgen
data_FeCu2H21(O5F4)2
_symmetry_space_group_name_H-M   'P 1'
_cell_length_a   6.95765200
_cell_length_b   7.36274242
_cell_length_c   8.17879838
_cell_angle_alpha   106.99670116
_cell_angle_beta   107.40037919
_cell_angle_gamma   95.19719210
_symmetry_Int_Tables_number   1
_chemical_formula_structural   FeCu2H21(O5F4)2
_chemical_formula_sum   'Fe1 Cu2 H21 O10 F8'
_cell_volume   374.99854670
_cell_formula_units_Z   1
loop_
 _symmetry_equiv_pos_site_id
 _symmetry_equiv_pos_as_xyz
  1  'x, y, z'
loop_
 _atom_site_type_symbol
 _atom_site_label
 _atom_site_symmetry_multiplicity
 _atom_site_fract_x
 _atom_site_fract_y
 _atom_site_fract_z
 _atom_site_occupancy
  Fe  Fe0  1  0.00006100  0.00048400  0.00140000  1
  Cu  Cu0  1  0.38536700  0.44177300  0.76715000  1
  Cu  Cu1  1  0.61694700  0.55788400  0.23546000  1
  H  H0  1  0.14278200  0.38161800  0.94648700  1
  H  H1  1  0.19345200  0.60677700  0.98748100  1
  H  H2  1  0.03307900  0.74933700  0.47319700  1
  H  H3  1  0.09033500  0.30736700  0.40719200  1
  H  H4  1  0.22020000  0.91786100  0.34427100  1
  H  H5  1  0.35400100  0.80994800  0.83661800  1
  H  H6  1  0.33945300  0.12392800  0.83186700  1
  H  H7  1  0.32924500  0.77603600  0.43698100  1
  H  H8  1  0.35824600  0.07570900  0.63770900  1
  H  H9  1  0.56588600  0.77715000  0.78869700  1
  H  H10  1  0.43323100  0.22336300  0.21436000  1
  H  H11  1  0.51801400  0.50494200  0.51226300  1
  H  H12  1  0.64153100  0.92299900  0.36084000  1
  H  H13  1  0.68279600  0.22296000  0.56807600  1
  H  H14  1  0.65759000  0.87490200  0.16626000  1
  H  H15  1  0.64409100  0.18885000  0.16486900  1
  H  H16  1  0.78377500  0.07330600  0.65382500  1
  H  H17  1  0.91536300  0.69463000  0.59514800  1
  H  H18  1  0.97442400  0.24878500  0.52844500  1
  H  H19  1  0.80605200  0.39270600  0.01417400  1
  H  H20  1  0.85563900  0.61816700  0.05516200  1
  O  O0  1  0.09187900  0.33751100  0.53213900  1
  O  O1  1  0.25350800  0.48849900  0.95958000  1
  O  O2  1  0.25102200  0.88187100  0.45419600  1
  O  O3  1  0.43292700  0.71395100  0.78979600  1
  O  O4  1  0.41206200  0.17837400  0.76304600  1
  O  O5  1  0.58570000  0.82049800  0.23545400  1
  O  O6  1  0.56656000  0.28556100  0.21300900  1
  O  O7  1  0.75545600  0.11376700  0.54600300  1
  O  O8  1  0.74563600  0.51090500  0.04254500  1
  O  O9  1  0.91212000  0.66555800  0.46973500  1
  F  F0  1  0.20901600  0.96592200  0.88302700  1
  F  F1  1  0.03610800  0.75687000  0.05221300  1
  F  F2  1  0.21981500  0.13671600  0.23230100  1
  F  F3  1  0.45642400  0.58447500  0.40810400  1
  F  F4  1  0.57353900  0.42626500  0.61336500  1
  F  F5  1  0.78046900  0.86505500  0.77054400  1
  F  F6  1  0.96331400  0.24386100  0.95051500  1
  F  F7  1  0.79098300  0.03496000  0.11899500  1
loop_
_geom_bond_atom_site_label_1
_geom_bond_atom_site_label_2
_geom_bond_distance
_geom_bond_site_symmetry_2
Cu0 O3 1.945747 1_555
Cu0 O4 1.956422 1_555
Cu0 O1 2.010283 1_555
Cu0 F4 2.058435 1_555
Cu0 O0 2.226973 1_555
Cu1 O6 1.948263 1_555
Cu1 O5 1.965228 1_555
Cu1 O8 1.998204 1_555
Cu1 F3 2.025024 1_555
Cu1 O9 2.231820 1_555
H0 O1 1.007870 1_555
H1 O1 0.995903 1_555
H2 O9 0.985423 1_455
H3 O0 0.976775 1_555
H4 O2 0.979166 1_555
H5 O3 0.992784 1_555
H6 O4 0.999019 1_555
H7 O2 0.990838 1_555
H8 O4 1.014179 1_555
H9 O3 1.000906 1_555
H10 O6 1.001255 1_555
H12 O5 1.014039 1_555
H13 O7 0.988879 1_555
H14 O5 0.998217 1_555
H15 O6 0.992848 1_555
H16 O7 0.982617 1_555
H17 O9 0.977428 1_555
H18 O0 0.986144 1_655
H19 O8 0.997226 1_555
H20 O8 1.007837 1_555
F0 H5 1.632334 1_555
F0 H6 1.634789 1_565
F0 Fe0 1.969907 1_566
F1 H20 1.555743 1_455
F1 Fe0 1.976821 1_565
F2 H10 1.626899 1_555
F2 Fe0 1.948848 1_555
F3 H11 1.170911 1_555
F4 H11 1.139335 1_555
F5 H9 1.638189 1_555
F5 Fe0 1.947187 1_666
F6 H0 1.550390 1_655
F6 Fe0 1.976086 1_656
F7 H15 1.630862 1_555
F7 H14 1.637792 1_545
F7 Fe0 1.966356 1_655
