# generated using pymatgen
data_YbPO4
_symmetry_space_group_name_H-M   'P 1'
_cell_length_a   5.62707414
_cell_length_b   5.62707414
_cell_length_c   5.62707414
_cell_angle_alpha   106.12076828
_cell_angle_beta   106.12076828
_cell_angle_gamma   116.40249692
_symmetry_Int_Tables_number   1
_chemical_formula_structural   YbPO4
_chemical_formula_sum   'Yb2 P2 O8'
_cell_volume   135.63655606
_cell_formula_units_Z   2
loop_
 _symmetry_equiv_pos_site_id
 _symmetry_equiv_pos_as_xyz
  1  'x, y, z'
loop_
 _atom_site_type_symbol
 _atom_site_label
 _atom_site_symmetry_multiplicity
 _atom_site_fract_x
 _atom_site_fract_y
 _atom_site_fract_z
 _atom_site_occupancy
  Yb  Yb0  1  0.00000000  0.00000000  0.00000000  1
  Yb  Yb1  1  0.25000000  0.75000000  0.50000000  1
  P  P0  1  0.75000000  0.25000000  0.50000000  1
  P  P1  1  0.50000000  0.50000000  0.00000000  1
  O  O0  1  0.91231268  0.58933903  0.67702636  1
  O  O1  1  0.48528632  0.66231268  0.82297364  1
  O  O2  1  0.83933903  0.66231268  0.17702636  1
  O  O3  1  0.91231268  0.23528632  0.32297364  1
  O  O4  1  0.76471368  0.08768732  0.67702636  1
  O  O5  1  0.33768732  0.16066097  0.82297364  1
  O  O6  1  0.33768732  0.51471368  0.17702636  1
  O  O7  1  0.41065997  0.08768732  0.32297364  1
loop_
_geom_bond_atom_site_label_1
_geom_bond_atom_site_label_2
_geom_bond_distance
_geom_bond_site_symmetry_2
O0 P0 1.536245 1_555
O0 Yb0 2.245454 1_666
O0 Yb1 2.333196 1_655
O1 P1 1.536245 1_556
O1 Yb1 2.245454 1_555
O1 Yb0 2.333196 1_666
O2 P1 1.536245 1_555
O2 Yb1 2.245454 1_655
O2 Yb0 2.333196 1_665
O3 P0 1.536245 1_555
O3 Yb0 2.245454 1_655
O3 Yb1 2.333196 1_655
O4 P0 1.536245 1_555
O4 Yb0 2.245454 1_656
O4 Yb1 2.333196 1_545
O5 P1 1.536245 1_556
O5 Yb1 2.245454 1_545
O5 Yb0 2.333196 1_556
O6 P1 1.536245 1_555
O6 Yb1 2.245454 1_555
O6 Yb0 2.333196 1_555
O7 P0 1.536250 1_555
O7 Yb0 2.245450 1_555
O7 Yb1 2.333195 1_545
