# generated using pymatgen
data_LiCaPrTeO6
_symmetry_space_group_name_H-M   'P 1'
_cell_length_a   5.84494300
_cell_length_b   5.56712500
_cell_length_c   9.52306468
_cell_angle_alpha   54.89942791
_cell_angle_beta   90.00000000
_cell_angle_gamma   90.00000000
_symmetry_Int_Tables_number   1
_chemical_formula_structural   LiCaPrTeO6
_chemical_formula_sum   'Li2 Ca2 Pr2 Te2 O12'
_cell_volume   253.52320938
_cell_formula_units_Z   2
loop_
 _symmetry_equiv_pos_site_id
 _symmetry_equiv_pos_as_xyz
  1  'x, y, z'
loop_
 _atom_site_type_symbol
 _atom_site_label
 _atom_site_symmetry_multiplicity
 _atom_site_fract_x
 _atom_site_fract_y
 _atom_site_fract_z
 _atom_site_occupancy
  Li  Li0  1  0.28000600  0.50249900  0.99708000  1
  Li  Li1  1  0.71999400  0.50249900  0.49708000  1
  Ca  Ca0  1  0.69358600  0.25776300  0.25238200  1
  Ca  Ca1  1  0.30641400  0.25776300  0.75238200  1
  Pr  Pr0  1  0.18149600  0.73283200  0.25274200  1
  Pr  Pr1  1  0.81850400  0.73283200  0.75274200  1
  Te  Te0  1  0.73999700  0.99951900  0.00064300  1
  Te  Te1  1  0.26000300  0.99951900  0.50064300  1
  O  O0  1  0.70898900  0.14355700  0.76018700  1
  O  O1  1  0.45819700  0.77659500  0.04990400  1
  O  O2  1  0.43514000  0.33559700  0.45347700  1
  O  O3  1  0.92251300  0.66791100  0.04575900  1
  O  O4  1  0.97674200  0.22958500  0.44724500  1
  O  O5  1  0.22277700  0.85414300  0.74058100  1
  O  O6  1  0.29101100  0.14355700  0.26018700  1
  O  O7  1  0.54180300  0.77659500  0.54990400  1
  O  O8  1  0.56486000  0.33559700  0.95347700  1
  O  O9  1  0.07748700  0.66791100  0.54575900  1
  O  O10  1  0.02325800  0.22958500  0.94724500  1
  O  O11  1  0.77722300  0.85414300  0.24058100  1
loop_
_geom_bond_atom_site_label_1
_geom_bond_atom_site_label_2
_geom_bond_distance
_geom_bond_site_symmetry_2
Li0 O8 2.061928 1_555
Li0 O5 2.100375 1_555
Li0 O6 2.125368 1_556
Li0 O1 2.132847 1_556
Li0 O10 2.369579 1_555
Li0 O3 2.433096 1_456
Li1 O2 2.061928 1_555
Li1 O11 2.100375 1_555
Li1 O0 2.125368 1_555
Li1 O7 2.132847 1_555
Li1 O4 2.369579 1_555
Li1 O9 2.433096 1_655
Ca0 O11 2.364537 1_545
Ca0 O3 2.389332 1_555
Ca0 O4 2.423335 1_555
Ca0 O6 2.427377 1_555
Ca0 O2 2.662961 1_555
Ca0 O7 2.694807 1_545
Ca0 O8 2.727253 1_554
Ca0 O1 2.747503 1_555
Ca1 O5 2.364537 1_545
Ca1 O9 2.389332 1_555
Ca1 O10 2.423335 1_555
Ca1 O0 2.427377 1_555
Ca1 O8 2.662961 1_555
Ca1 O1 2.694807 1_546
Ca1 O2 2.727253 1_555
Ca1 O7 2.747503 1_555
O0 Te0 1.951337 1_546
O0 Pr1 2.414446 1_545
O1 Te0 1.950303 1_555
O1 Pr0 2.421783 1_555
O2 Te1 1.945193 1_545
O2 Pr0 2.425084 1_555
O3 Te0 1.954119 1_555
O3 Pr0 2.669571 1_655
O3 Pr1 2.669610 1_554
O4 Te1 1.972610 1_645
O4 Pr0 2.597001 1_655
O4 Pr1 2.777515 1_545
O5 Te1 1.948492 1_555
O5 Pr1 2.441949 1_455
O6 Te1 1.951337 1_545
O6 Pr0 2.414446 1_545
O7 Te1 1.950303 1_555
O7 Pr1 2.421783 1_555
O8 Te0 1.945193 1_546
O8 Pr1 2.425084 1_555
O9 Te1 1.954119 1_555
O9 Pr1 2.669571 1_455
O9 Pr0 2.669610 1_555
O10 Te0 1.972610 1_446
O10 Pr1 2.597001 1_455
O10 Pr0 2.777515 1_546
O11 Te0 1.948492 1_555
O11 Pr0 2.441949 1_655
