# generated using pymatgen
data_Ce(SiRh)2
_symmetry_space_group_name_H-M   'P 1'
_cell_length_a   4.09818229
_cell_length_b   4.09818286
_cell_length_c   5.81487803
_cell_angle_alpha   110.63342422
_cell_angle_beta   110.63343084
_cell_angle_gamma   89.99999765
_symmetry_Int_Tables_number   1
_chemical_formula_structural   Ce(SiRh)2
_chemical_formula_sum   'Ce1 Si2 Rh2'
_cell_volume   84.67005419
_cell_formula_units_Z   1
loop_
 _symmetry_equiv_pos_site_id
 _symmetry_equiv_pos_as_xyz
  1  'x, y, z'
loop_
 _atom_site_type_symbol
 _atom_site_label
 _atom_site_symmetry_multiplicity
 _atom_site_fract_x
 _atom_site_fract_y
 _atom_site_fract_z
 _atom_site_occupancy
  Ce  Ce0  1  0.00000000  0.00000000  0.00000000  1
  Si  Si0  1  0.62437792  0.62437792  0.24875483  1
  Si  Si1  1  0.37562208  0.37562208  0.75124517  1
  Rh  Rh0  1  0.25000000  0.75000000  0.50000000  1
  Rh  Rh1  1  0.75000000  0.25000000  0.50000000  1
loop_
_geom_bond_atom_site_label_1
_geom_bond_atom_site_label_2
_geom_bond_distance
_geom_bond_site_symmetry_2
Ce0 Si0 3.157563 1_445
Ce0 Si1 3.157563 1_554
Ce0 Si0 3.157565 1_545
Ce0 Si1 3.157565 1_454
Ce0 Si1 3.157566 1_544
Ce0 Si0 3.157566 1_455
Ce0 Si1 3.157568 1_444
Ce0 Si0 3.157568 1_555
Ce0 Rh1 3.248475 1_555
Ce0 Rh0 3.248475 1_444
Ce0 Rh1 3.248475 1_454
Ce0 Rh0 3.248475 1_545
Ce0 Rh0 3.248475 1_544
Ce0 Rh1 3.248475 1_455
Ce0 Rh1 3.248475 1_444
Ce0 Rh0 3.248475 1_555
Si0 Si1 2.508123 1_554
Rh0 Si0 2.408959 1_455
Rh0 Si1 2.408959 1_565
Rh0 Si0 2.408962 1_555
Rh0 Si1 2.408962 1_555
Rh1 Si1 2.408959 1_655
Rh1 Si0 2.408959 1_545
Rh1 Si1 2.408962 1_555
Rh1 Si0 2.408962 1_555
