# generated using pymatgen
data_ErTiGe
_symmetry_space_group_name_H-M   'P 1'
_cell_length_a   4.01017527
_cell_length_b   4.01017527
_cell_length_c   7.62699386
_cell_angle_alpha   90.00000000
_cell_angle_beta   90.00000000
_cell_angle_gamma   90.00000000
_symmetry_Int_Tables_number   1
_chemical_formula_structural   ErTiGe
_chemical_formula_sum   'Er2 Ti2 Ge2'
_cell_volume   122.65354520
_cell_formula_units_Z   2
loop_
 _symmetry_equiv_pos_site_id
 _symmetry_equiv_pos_as_xyz
  1  'x, y, z'
loop_
 _atom_site_type_symbol
 _atom_site_label
 _atom_site_symmetry_multiplicity
 _atom_site_fract_x
 _atom_site_fract_y
 _atom_site_fract_z
 _atom_site_occupancy
  Er  Er0  1  0.75000000  0.75000000  0.34862490  1
  Er  Er1  1  0.25000000  0.25000000  0.65137510  1
  Ti  Ti0  1  0.25000000  0.75000000  -0.00000000  1
  Ti  Ti1  1  0.75000000  0.25000000  -0.00000000  1
  Ge  Ge0  1  0.25000000  0.25000000  0.24616446  1
  Ge  Ge1  1  0.75000000  0.75000000  0.75383554  1
loop_
_geom_bond_atom_site_label_1
_geom_bond_atom_site_label_2
_geom_bond_distance
_geom_bond_site_symmetry_2
Er0 Ge0 2.941333 1_665
Er0 Ge0 2.941333 1_655
Er0 Ge0 2.941333 1_555
Er0 Ge0 2.941333 1_565
Er0 Ge1 3.090539 1_555
Er1 Ge1 2.941333 1_555
Er1 Ge1 2.941333 1_545
Er1 Ge1 2.941333 1_445
Er1 Ge1 2.941333 1_455
Er1 Ge0 3.090539 1_555
Ge0 Ti1 2.746882 1_455
Ge0 Ti0 2.746882 1_545
Ge0 Ti1 2.746882 1_555
Ge0 Ti0 2.746882 1_555
Ge1 Ti0 2.746882 1_556
Ge1 Ti0 2.746882 1_656
Ge1 Ti1 2.746882 1_556
Ge1 Ti1 2.746882 1_566
