# generated using pymatgen
data_CaTiO3
_symmetry_space_group_name_H-M   'P 1'
_cell_length_a   5.37204886
_cell_length_b   5.46279649
_cell_length_c   7.63635962
_cell_angle_alpha   90.00000000
_cell_angle_beta   90.00000000
_cell_angle_gamma   90.00000000
_symmetry_Int_Tables_number   1
_chemical_formula_structural   CaTiO3
_chemical_formula_sum   'Ca4 Ti4 O12'
_cell_volume   224.09973769
_cell_formula_units_Z   4
loop_
 _symmetry_equiv_pos_site_id
 _symmetry_equiv_pos_as_xyz
  1  'x, y, z'
loop_
 _atom_site_type_symbol
 _atom_site_label
 _atom_site_symmetry_multiplicity
 _atom_site_fract_x
 _atom_site_fract_y
 _atom_site_fract_z
 _atom_site_occupancy
  Ca  Ca0  1  0.50906691  0.54239755  0.75000000  1
  Ca  Ca1  1  0.49093309  0.45760245  0.25000000  1
  Ca  Ca2  1  0.99093309  0.04239755  0.75000000  1
  Ca  Ca3  1  0.00906691  0.95760245  0.25000000  1
  Ti  Ti0  1  0.00000000  0.50000000  0.50000000  1
  Ti  Ti1  1  0.00000000  0.50000000  -0.00000000  1
  Ti  Ti2  1  0.50000000  0.00000000  0.50000000  1
  Ti  Ti3  1  0.50000000  0.00000000  -0.00000000  1
  O  O0  1  0.07678111  0.48132762  0.75000000  1
  O  O1  1  0.92321889  0.51867238  0.25000000  1
  O  O2  1  0.42321889  0.98132762  0.75000000  1
  O  O3  1  0.57678111  0.01867238  0.25000000  1
  O  O4  1  0.79029372  0.78961378  0.95984128  1
  O  O5  1  0.20970628  0.21038622  0.45984128  1
  O  O6  1  0.20970628  0.21038622  0.04015872  1
  O  O7  1  0.79029372  0.78961378  0.54015872  1
  O  O8  1  0.70970628  0.28961378  0.95984128  1
  O  O9  1  0.29029372  0.71038622  0.45984128  1
  O  O10  1  0.29029372  0.71038622  0.04015872  1
  O  O11  1  0.70970628  0.28961378  0.54015872  1
loop_
_geom_bond_atom_site_label_1
_geom_bond_atom_site_label_2
_geom_bond_distance
_geom_bond_site_symmetry_2
Ca0 O0 2.346101 1_555
Ca0 O8 2.374113 1_555
Ca0 O11 2.374113 1_555
Ca0 O2 2.441734 1_555
Ca0 O7 2.583408 1_555
Ca0 O4 2.583408 1_555
Ca0 O10 2.670761 1_556
Ca0 O9 2.670761 1_555
Ca1 O1 2.346101 1_555
Ca1 O9 2.374113 1_555
Ca1 O10 2.374113 1_555
Ca1 O3 2.441734 1_555
Ca1 O6 2.583408 1_555
Ca1 O5 2.583408 1_555
Ca1 O8 2.670761 1_554
Ca1 O11 2.670761 1_555
Ca2 O2 2.346101 1_645
Ca2 O7 2.374113 1_545
Ca2 O4 2.374113 1_545
Ca2 O0 2.441734 1_655
Ca2 O8 2.583408 1_555
Ca2 O11 2.583408 1_555
Ca2 O5 2.670761 1_655
Ca2 O6 2.670761 1_656
Ca3 O3 2.346101 1_465
Ca3 O6 2.374113 1_565
Ca3 O5 2.374113 1_565
Ca3 O1 2.441734 1_455
Ca3 O10 2.583408 1_555
Ca3 O9 2.583408 1_555
Ca3 O7 2.670761 1_455
Ca3 O4 2.670761 1_454
O0 Ti1 1.955802 1_556
O0 Ti0 1.955802 1_555
O1 Ti0 1.955802 1_655
O1 Ti1 1.955802 1_655
O2 Ti3 1.955802 1_566
O2 Ti2 1.955802 1_565
O3 Ti2 1.955802 1_555
O3 Ti3 1.955802 1_555
O4 Ti3 1.961347 1_566
O4 Ti1 1.966268 1_656
O5 Ti2 1.961347 1_555
O5 Ti0 1.966268 1_555
O6 Ti3 1.961347 1_555
O6 Ti1 1.966268 1_555
O7 Ti2 1.961347 1_565
O7 Ti0 1.966268 1_655
O8 Ti1 1.961347 1_656
O8 Ti3 1.966268 1_556
O9 Ti0 1.961347 1_555
O9 Ti2 1.966268 1_565
O10 Ti1 1.961347 1_555
O10 Ti3 1.966268 1_565
O11 Ti0 1.961347 1_655
O11 Ti2 1.966268 1_555
