# generated using pymatgen
data_Pr(Sb3Os)4
_symmetry_space_group_name_H-M   'P 1'
_cell_length_a   8.11192699
_cell_length_b   8.11192665
_cell_length_c   8.11192799
_cell_angle_alpha   109.47122152
_cell_angle_beta   109.47123284
_cell_angle_gamma   109.47121891
_symmetry_Int_Tables_number   1
_chemical_formula_structural   Pr(Sb3Os)4
_chemical_formula_sum   'Pr1 Sb12 Os4'
_cell_volume   410.91328581
_cell_formula_units_Z   1
loop_
 _symmetry_equiv_pos_site_id
 _symmetry_equiv_pos_as_xyz
  1  'x, y, z'
loop_
 _atom_site_type_symbol
 _atom_site_label
 _atom_site_symmetry_multiplicity
 _atom_site_fract_x
 _atom_site_fract_y
 _atom_site_fract_z
 _atom_site_occupancy
  Pr  Pr0  1  0.00000000  -0.00000000  0.00000000  1
  Sb  Sb0  1  0.50303178  0.84295161  0.66007917  1
  Sb  Sb1  1  0.18287345  0.84295161  0.33992083  1
  Sb  Sb2  1  0.81712655  0.15704839  0.66007917  1
  Sb  Sb3  1  0.15704839  0.33992083  0.49696822  1
  Sb  Sb4  1  0.33992083  0.49696922  0.15704739  1
  Sb  Sb5  1  0.49696822  0.15704839  0.33992083  1
  Sb  Sb6  1  0.15704739  0.66007917  0.81712655  1
  Sb  Sb7  1  0.33992083  0.18287245  0.84295261  1
  Sb  Sb8  1  0.84295161  0.66007917  0.50303178  1
  Sb  Sb9  1  0.66007917  0.81712755  0.15704739  1
  Sb  Sb10  1  0.84295261  0.33992083  0.18287345  1
  Sb  Sb11  1  0.66007917  0.50303078  0.84295261  1
  Os  Os0  1  0.00000000  -0.00000000  0.50000000  1
  Os  Os1  1  0.00000000  0.50000000  0.00000000  1
  Os  Os2  1  0.50000000  0.50000000  0.50000000  1
  Os  Os3  1  0.50000000  -0.00000000  0.00000000  1
loop_
_geom_bond_atom_site_label_1
_geom_bond_atom_site_label_2
_geom_bond_distance
_geom_bond_site_symmetry_2
Pr0 Sb0 3.507378 1_444
Pr0 Sb5 3.507378 1_555
Pr0 Sb8 3.507379 1_444
Pr0 Sb3 3.507379 1_555
Pr0 Sb7 3.507379 1_554
Pr0 Sb9 3.507379 1_445
Pr0 Sb6 3.507381 1_544
Pr0 Sb10 3.507381 1_455
Pr0 Sb11 3.507387 1_444
Pr0 Sb4 3.507387 1_555
Pr0 Sb2 3.507387 1_454
Pr0 Sb1 3.507387 1_545
Sb0 Sb2 2.942087 1_565
Sb0 Sb1 2.998874 1_555
Sb1 Sb5 2.942087 1_565
Sb2 Sb5 2.998874 1_555
Sb3 Sb6 2.998879 1_555
Sb4 Sb7 2.942087 1_554
Sb4 Sb9 2.998874 1_555
Sb6 Sb8 2.942082 1_455
Sb10 Sb3 2.942082 1_655
Sb10 Sb8 2.998879 1_555
Sb11 Sb9 2.942087 1_556
Sb11 Sb7 2.998874 1_555
Os0 Sb9 2.636497 1_445
Os0 Sb7 2.636497 1_555
Os0 Sb8 2.636497 1_445
Os0 Sb3 2.636497 1_555
Os0 Sb2 2.636500 1_455
Os0 Sb1 2.636500 1_545
Os1 Sb11 2.636492 1_454
Os1 Sb4 2.636492 1_555
Os1 Sb2 2.636492 1_454
Os1 Sb1 2.636492 1_555
Os1 Sb10 2.636496 1_455
Os1 Sb6 2.636496 1_554
Os2 Sb0 2.636489 1_555
Os2 Sb5 2.636489 1_555
Os2 Sb3 2.636489 1_555
Os2 Sb8 2.636489 1_555
Os2 Sb11 2.636500 1_555
Os2 Sb4 2.636500 1_555
Os3 Sb7 2.636489 1_554
Os3 Sb9 2.636489 1_545
Os3 Sb6 2.636496 1_544
Os3 Sb10 2.636496 1_555
Os3 Sb0 2.636497 1_544
Os3 Sb5 2.636497 1_555
