# generated using pymatgen
data_ScAlO3
_symmetry_space_group_name_H-M   'P 1'
_cell_length_a   4.97364000
_cell_length_b   5.26420300
_cell_length_c   7.29769500
_cell_angle_alpha   90.00000000
_cell_angle_beta   90.00000000
_cell_angle_gamma   90.00000000
_symmetry_Int_Tables_number   1
_chemical_formula_structural   ScAlO3
_chemical_formula_sum   'Sc4 Al4 O12'
_cell_volume   191.07007936
_cell_formula_units_Z   4
loop_
 _symmetry_equiv_pos_site_id
 _symmetry_equiv_pos_as_xyz
  1  'x, y, z'
loop_
 _atom_site_type_symbol
 _atom_site_label
 _atom_site_symmetry_multiplicity
 _atom_site_fract_x
 _atom_site_fract_y
 _atom_site_fract_z
 _atom_site_occupancy
  Sc  Sc0  1  0.47804100  0.43169400  0.75000000  1
  Sc  Sc1  1  0.97804100  0.06830600  0.25000000  1
  Sc  Sc2  1  0.02195900  0.93169400  0.75000000  1
  Sc  Sc3  1  0.52195900  0.56830600  0.25000000  1
  Al  Al0  1  0.50000000  0.00000000  0.00000000  1
  Al  Al1  1  0.00000000  0.50000000  0.00000000  1
  Al  Al2  1  0.00000000  0.50000000  0.50000000  1
  Al  Al3  1  0.50000000  0.00000000  0.50000000  1
  O  O0  1  0.19226600  0.19509600  0.93755800  1
  O  O1  1  0.69226600  0.30490400  0.06244200  1
  O  O2  1  0.30773400  0.69509600  0.56244200  1
  O  O3  1  0.80773400  0.80490400  0.43755800  1
  O  O4  1  0.80773400  0.80490400  0.06244200  1
  O  O5  1  0.30773400  0.69509600  0.93755800  1
  O  O6  1  0.69226600  0.30490400  0.43755800  1
  O  O7  1  0.19226600  0.19509600  0.56244200  1
  O  O8  1  0.12205800  0.45447700  0.25000000  1
  O  O9  1  0.62205800  0.04552300  0.75000000  1
  O  O10  1  0.37794200  0.95447700  0.25000000  1
  O  O11  1  0.87794200  0.54552300  0.75000000  1
loop_
_geom_bond_atom_site_label_1
_geom_bond_atom_site_label_2
_geom_bond_distance
_geom_bond_site_symmetry_2
Al0 O4 1.898693 1_545
Al0 O0 1.898693 1_554
Al0 O1 1.923111 1_555
Al0 O5 1.923111 1_544
Al0 O9 1.937650 1_554
Al0 O10 1.937650 1_545
Al1 O5 1.898693 1_554
Al1 O1 1.898693 1_455
Al1 O4 1.923111 1_455
Al1 O0 1.923111 1_554
Al1 O11 1.937650 1_454
Al1 O8 1.937650 1_555
Al2 O2 1.898693 1_555
Al2 O6 1.898693 1_455
Al2 O3 1.923111 1_455
Al2 O7 1.923111 1_555
Al2 O11 1.937650 1_455
Al2 O8 1.937650 1_555
Al3 O7 1.898693 1_555
Al3 O3 1.898693 1_545
Al3 O6 1.923111 1_555
Al3 O2 1.923111 1_545
Al3 O9 1.937650 1_555
Al3 O10 1.937650 1_545
O0 Sc2 2.124524 1_545
O0 Sc0 2.333438 1_555
O0 Sc1 2.603770 1_456
O1 Sc3 2.124524 1_555
O1 Sc1 2.333438 1_555
O1 Sc0 2.603770 1_554
O2 Sc0 2.124524 1_555
O2 Sc2 2.333438 1_555
O2 Sc3 2.603770 1_555
O3 Sc1 2.124524 1_565
O3 Sc3 2.333438 1_555
O3 Sc2 2.603770 1_655
O4 Sc1 2.124524 1_565
O4 Sc3 2.333438 1_555
O4 Sc2 2.603770 1_654
O5 Sc0 2.124524 1_555
O5 Sc2 2.333438 1_555
O5 Sc3 2.603770 1_556
O6 Sc3 2.124524 1_555
O6 Sc1 2.333438 1_555
O6 Sc0 2.603770 1_555
O7 Sc2 2.124524 1_545
O7 Sc0 2.333438 1_555
O7 Sc1 2.603770 1_455
O8 Sc3 2.077267 1_555
O8 Sc1 2.155384 1_455
O9 Sc2 2.077267 1_645
O9 Sc0 2.155384 1_555
O10 Sc1 2.077267 1_465
O10 Sc3 2.155384 1_555
O11 Sc0 2.077267 1_555
O11 Sc2 2.155384 1_655
