# generated using pymatgen
data_PrGaO3
_symmetry_space_group_name_H-M   'P 1'
_cell_length_a   5.50864100
_cell_length_b   5.60953700
_cell_length_c   7.83722100
_cell_angle_alpha   90.00000000
_cell_angle_beta   90.00000000
_cell_angle_gamma   90.00000000
_symmetry_Int_Tables_number   1
_chemical_formula_structural   PrGaO3
_chemical_formula_sum   'Pr4 Ga4 O12'
_cell_volume   242.17738232
_cell_formula_units_Z   4
loop_
 _symmetry_equiv_pos_site_id
 _symmetry_equiv_pos_as_xyz
  1  'x, y, z'
loop_
 _atom_site_type_symbol
 _atom_site_label
 _atom_site_symmetry_multiplicity
 _atom_site_fract_x
 _atom_site_fract_y
 _atom_site_fract_z
 _atom_site_occupancy
  Pr  Pr0  1  0.01158900  0.95365400  0.75000000  1
  Pr  Pr1  1  0.51158900  0.54634600  0.25000000  1
  Pr  Pr2  1  0.48841100  0.45365400  0.75000000  1
  Pr  Pr3  1  0.98841100  0.04634600  0.25000000  1
  Ga  Ga0  1  0.50000000  0.00000000  0.50000000  1
  Ga  Ga1  1  0.00000000  0.50000000  0.50000000  1
  Ga  Ga2  1  0.00000000  0.50000000  0.00000000  1
  Ga  Ga3  1  0.50000000  0.00000000  0.00000000  1
  O  O0  1  0.71195600  0.28944600  0.45562900  1
  O  O1  1  0.21195600  0.21055400  0.54437100  1
  O  O2  1  0.78804400  0.78944600  0.04437100  1
  O  O3  1  0.28804400  0.71055400  0.95562900  1
  O  O4  1  0.28804400  0.71055400  0.54437100  1
  O  O5  1  0.78804400  0.78944600  0.45562900  1
  O  O6  1  0.21195600  0.21055400  0.95562900  1
  O  O7  1  0.71195600  0.28944600  0.04437100  1
  O  O8  1  0.08243100  0.48047700  0.25000000  1
  O  O9  1  0.58243100  0.01952300  0.75000000  1
  O  O10  1  0.41756900  0.98047700  0.25000000  1
  O  O11  1  0.91756900  0.51952300  0.75000000  1
loop_
_geom_bond_atom_site_label_1
_geom_bond_atom_site_label_2
_geom_bond_distance
_geom_bond_site_symmetry_2
Ga0 O5 2.008398 1_545
Ga0 O1 2.008398 1_555
Ga0 O9 2.014215 1_555
Ga0 O10 2.014215 1_545
Ga0 O0 2.029891 1_555
Ga0 O4 2.029891 1_545
Ga1 O4 2.008398 1_555
Ga1 O0 2.008398 1_455
Ga1 O8 2.014215 1_555
Ga1 O11 2.014215 1_455
Ga1 O1 2.029891 1_555
Ga1 O5 2.029891 1_455
Ga2 O3 2.008398 1_554
Ga2 O7 2.008398 1_455
Ga2 O8 2.014215 1_555
Ga2 O11 2.014215 1_454
Ga2 O6 2.029891 1_554
Ga2 O2 2.029891 1_455
Ga3 O2 2.008398 1_545
Ga3 O6 2.008398 1_554
Ga3 O9 2.014215 1_554
Ga3 O10 2.014215 1_545
Ga3 O7 2.029891 1_555
Ga3 O3 2.029891 1_544
O0 Pr1 2.427371 1_555
O0 Pr3 2.603064 1_555
O0 Pr2 2.772613 1_555
O1 Pr0 2.427371 1_545
O1 Pr2 2.603064 1_555
O1 Pr3 2.772613 1_455
O2 Pr3 2.427371 1_565
O2 Pr1 2.603064 1_555
O2 Pr0 2.772613 1_654
O3 Pr2 2.427371 1_555
O3 Pr0 2.603064 1_555
O3 Pr1 2.772613 1_556
O4 Pr2 2.427371 1_555
O4 Pr0 2.603064 1_555
O4 Pr1 2.772613 1_555
O5 Pr3 2.427371 1_565
O5 Pr1 2.603064 1_555
O5 Pr0 2.772613 1_655
O6 Pr0 2.427371 1_545
O6 Pr2 2.603064 1_555
O6 Pr3 2.772613 1_456
O7 Pr1 2.427371 1_555
O7 Pr3 2.603064 1_555
O7 Pr2 2.772613 1_554
O8 Pr1 2.392778 1_555
O8 Pr3 2.489739 1_455
O9 Pr0 2.392778 1_645
O9 Pr2 2.489739 1_555
O10 Pr3 2.392778 1_465
O10 Pr1 2.489739 1_555
O11 Pr2 2.392778 1_555
O11 Pr0 2.489739 1_655
