# generated using pymatgen
data_Y2MgCu2
_symmetry_space_group_name_H-M   'P 1'
_cell_length_a   3.69752416
_cell_length_b   7.63251971
_cell_length_c   7.63251971
_cell_angle_alpha   89.99997553
_cell_angle_beta   90.00000000
_cell_angle_gamma   90.00000000
_symmetry_Int_Tables_number   1
_chemical_formula_structural   Y2MgCu2
_chemical_formula_sum   'Y4 Mg2 Cu4'
_cell_volume   215.40059041
_cell_formula_units_Z   2
loop_
 _symmetry_equiv_pos_site_id
 _symmetry_equiv_pos_as_xyz
  1  'x, y, z'
loop_
 _atom_site_type_symbol
 _atom_site_label
 _atom_site_symmetry_multiplicity
 _atom_site_fract_x
 _atom_site_fract_y
 _atom_site_fract_z
 _atom_site_occupancy
  Y  Y0  1  0.50000000  0.32936837  0.82936837  1
  Y  Y1  1  0.50000000  0.17062491  0.32937509  1
  Y  Y2  1  0.50000000  0.82937509  0.67062491  1
  Y  Y3  1  0.50000000  0.67063163  0.17063163  1
  Mg  Mg0  1  0.00000000  0.50000000  0.50000000  1
  Mg  Mg1  1  0.00000000  -0.00000000  0.00000000  1
  Cu  Cu0  1  -0.00000000  0.87815077  0.37815077  1
  Cu  Cu1  1  0.00000000  0.62185084  0.87814916  1
  Cu  Cu2  1  0.00000000  0.12184923  0.62184923  1
  Cu  Cu3  1  0.00000000  0.37814916  0.12185084  1
loop_
_geom_bond_atom_site_label_1
_geom_bond_atom_site_label_2
_geom_bond_distance
_geom_bond_site_symmetry_2
Mg0 Y0 3.381387 1_455
Mg0 Y3 3.381387 1_555
Mg0 Y0 3.381387 1_555
Mg0 Y3 3.381387 1_455
Mg0 Y1 3.381406 1_455
Mg0 Y2 3.381406 1_455
Mg0 Y1 3.381406 1_555
Mg0 Y2 3.381406 1_555
Mg1 Y3 3.381387 1_545
Mg1 Y3 3.381387 1_445
Mg1 Y0 3.381387 1_454
Mg1 Y0 3.381387 1_554
Mg1 Y1 3.381406 1_555
Mg1 Y1 3.381406 1_455
Mg1 Y2 3.381406 1_544
Mg1 Y2 3.381406 1_444
Cu0 Cu2 2.630485 1_565
Cu0 Y3 2.904370 1_455
Cu0 Y3 2.904370 1_555
Cu0 Y1 2.922284 1_565
Cu0 Y1 2.922284 1_465
Cu0 Y2 2.922284 1_455
Cu0 Y2 2.922284 1_555
Cu0 Mg0 3.032380 1_555
Cu0 Mg1 3.032380 1_565
Cu1 Cu3 2.630519 1_556
Cu1 Y2 2.904411 1_455
Cu1 Y2 2.904411 1_555
Cu1 Y3 2.922338 1_456
Cu1 Y3 2.922338 1_556
Cu1 Y0 2.922338 1_455
Cu1 Y0 2.922338 1_555
Cu1 Mg1 3.032373 1_566
Cu1 Mg0 3.032373 1_555
Cu2 Y0 2.904370 1_455
Cu2 Y0 2.904370 1_555
Cu2 Y1 2.922284 1_455
Cu2 Y1 2.922284 1_555
Cu2 Y2 2.922284 1_545
Cu2 Y2 2.922284 1_445
Cu2 Mg0 3.032380 1_555
Cu2 Mg1 3.032380 1_556
Cu3 Y1 2.904411 1_555
Cu3 Y1 2.904411 1_455
Cu3 Y3 2.922338 1_555
Cu3 Y0 2.922338 1_454
Cu3 Y3 2.922338 1_455
Cu3 Y0 2.922338 1_554
Cu3 Mg0 3.032373 1_555
Cu3 Mg1 3.032373 1_555
