# generated using pymatgen
data_Fe3H10S2NO14
_symmetry_space_group_name_H-M   'P 1'
_cell_length_a   7.29690697
_cell_length_b   7.29690697
_cell_length_c   7.29690671
_cell_angle_alpha   61.32429384
_cell_angle_beta   61.32429384
_cell_angle_gamma   61.32429012
_symmetry_Int_Tables_number   1
_chemical_formula_structural   Fe3H10S2NO14
_chemical_formula_sum   'Fe3 H10 S2 N1 O14'
_cell_volume   282.90384925
_cell_formula_units_Z   1
loop_
 _symmetry_equiv_pos_site_id
 _symmetry_equiv_pos_as_xyz
  1  'x, y, z'
loop_
 _atom_site_type_symbol
 _atom_site_label
 _atom_site_symmetry_multiplicity
 _atom_site_fract_x
 _atom_site_fract_y
 _atom_site_fract_z
 _atom_site_occupancy
  Fe  Fe0  1  0.99934400  0.49870200  0.99934400  1
  Fe  Fe1  1  0.99934400  0.99934400  0.49870200  1
  Fe  Fe2  1  0.49870200  0.99934400  0.99934400  1
  H  H0  1  0.09569300  0.09569300  0.87185100  1
  H  H1  1  0.87185100  0.09569300  0.09569300  1
  H  H2  1  0.31370700  0.31370700  0.71574400  1
  H  H3  1  0.71574400  0.31370700  0.31370700  1
  H  H4  1  0.69645200  0.27800900  0.69645200  1
  H  H5  1  0.09569300  0.87185100  0.09569300  1
  H  H6  1  0.31370700  0.71574400  0.31370700  1
  H  H7  1  0.27800900  0.69645200  0.69645200  1
  H  H8  1  0.69645200  0.69645200  0.27800900  1
  H  H9  1  0.94265500  0.94265500  0.94265500  1
  S  S0  1  0.30527700  0.30527700  0.30527700  1
  S  S1  1  0.69402000  0.69402000  0.69402000  1
  N  N0  1  0.00068400  0.00068400  0.00068400  1
  O  O0  1  0.16710400  0.16710400  0.49550400  1
  O  O1  1  0.49550400  0.16710400  0.16710400  1
  O  O2  1  0.16710400  0.49550400  0.16710400  1
  O  O3  1  0.38853400  0.38853400  0.38853400  1
  O  O4  1  0.26420100  0.26420100  0.87800400  1
  O  O5  1  0.87800400  0.26420100  0.26420100  1
  O  O6  1  0.73399100  0.11828200  0.73399100  1
  O  O7  1  0.26420100  0.87800400  0.26420100  1
  O  O8  1  0.73399100  0.73399100  0.11828200  1
  O  O9  1  0.11828200  0.73399100  0.73399100  1
  O  O10  1  0.61078400  0.61078400  0.61078400  1
  O  O11  1  0.83205600  0.50385400  0.83205600  1
  O  O12  1  0.50385400  0.83205600  0.83205600  1
  O  O13  1  0.83205600  0.83205600  0.50385400  1
loop_
_geom_bond_atom_site_label_1
_geom_bond_atom_site_label_2
_geom_bond_distance
_geom_bond_site_symmetry_2
Fe0 O8 2.019135 1_556
Fe0 O9 2.019135 1_655
Fe0 O4 2.021150 1_655
Fe0 O5 2.021150 1_556
Fe0 O11 2.079303 1_555
Fe0 O2 2.093038 1_656
Fe1 O9 2.019135 1_655
Fe1 O6 2.019135 1_565
Fe1 O7 2.021150 1_655
Fe1 O5 2.021150 1_565
Fe1 O13 2.079303 1_555
Fe1 O0 2.093038 1_665
Fe2 O8 2.019135 1_556
Fe2 O6 2.019135 1_565
Fe2 O4 2.021150 1_565
Fe2 O7 2.021150 1_556
Fe2 O12 2.079303 1_555
Fe2 O1 2.093038 1_566
H0 N0 1.027290 1_556
H1 N0 1.027290 1_655
H2 O4 0.983427 1_555
H3 O5 0.983427 1_555
H4 O6 0.983723 1_555
H5 N0 1.027290 1_565
H6 O7 0.983427 1_555
H7 O9 0.983723 1_555
H8 O8 0.983722 1_555
H9 N0 1.026691 1_666
O0 S0 1.499726 1_555
O1 S0 1.499726 1_555
O2 S0 1.499726 1_555
O3 S0 1.473043 1_555
O10 S1 1.472671 1_555
O11 S1 1.498500 1_555
O12 S1 1.498500 1_555
O13 S1 1.498501 1_555
