# generated using pymatgen
data_SiNiH12(OF)6
_symmetry_space_group_name_H-M   'P 1'
_cell_length_a   6.39486786
_cell_length_b   6.39323440
_cell_length_c   25.59656808
_cell_angle_alpha   83.55938526
_cell_angle_beta   83.54609617
_cell_angle_gamma   96.34719733
_symmetry_Int_Tables_number   1
_chemical_formula_structural   SiNiH12(OF)6
_chemical_formula_sum   'Si4 Ni4 H48 O24 F24'
_cell_volume   1025.22251344
_cell_formula_units_Z   4
loop_
 _symmetry_equiv_pos_site_id
 _symmetry_equiv_pos_as_xyz
  1  'x, y, z'
loop_
 _atom_site_type_symbol
 _atom_site_label
 _atom_site_symmetry_multiplicity
 _atom_site_fract_x
 _atom_site_fract_y
 _atom_site_fract_z
 _atom_site_occupancy
  Si  Si0  1  0.37499100  0.37499600  0.12500700  1
  Si  Si1  1  0.12504200  0.12506800  0.37477300  1
  Si  Si2  1  0.87500000  0.87500000  0.62500000  1
  Si  Si3  1  0.62497000  0.62493900  0.87522300  1
  Ni  Ni0  1  0.50001000  0.50011500  0.50005100  1
  Ni  Ni1  1  0.24996700  0.24987000  0.74995700  1
  Ni  Ni2  1  0.99999700  0.00000400  0.99995400  1
  Ni  Ni3  1  0.74998900  0.74996400  0.25004400  1
  H  H0  1  0.00718400  0.34785500  0.05037800  1
  H  H1  1  0.75720900  0.09780600  0.30040100  1
  H  H2  1  0.50713400  0.84803100  0.55040800  1
  H  H3  1  0.25710200  0.59812000  0.80038500  1
  H  H4  1  0.10194900  0.95802200  0.09958600  1
  H  H5  1  0.85188400  0.70807000  0.34962500  1
  H  H6  1  0.60206600  0.45797600  0.59964600  1
  H  H7  1  0.35217100  0.20792900  0.84960400  1
  H  H8  1  0.38391300  0.18723700  0.01441200  1
  H  H9  1  0.13393000  0.93722300  0.26442000  1
  H  H10  1  0.88415200  0.68725100  0.51440600  1
  H  H11  1  0.63418600  0.43726500  0.76438700  1
  H  H12  1  0.36604200  0.56276700  0.23558900  1
  H  H13  1  0.11582800  0.31274100  0.48560900  1
  H  H14  1  0.86584200  0.06274800  0.73559000  1
  H  H15  1  0.61610200  0.81277100  0.98558100  1
  H  H16  1  0.64803600  0.79199500  0.15041900  1
  H  H17  1  0.39784400  0.54207500  0.40039400  1
  H  H18  1  0.14793600  0.29203200  0.65035200  1
  H  H19  1  0.89811900  0.04191400  0.90037000  1
  H  H20  1  0.74281400  0.40207900  0.19961800  1
  H  H21  1  0.49289800  0.15189300  0.44961200  1
  H  H22  1  0.24287100  0.90196300  0.69958900  1
  H  H23  1  0.99279600  0.65224200  0.94960200  1
  H  H24  1  0.98477900  0.48607600  0.20128600  1
  H  H25  1  0.73480000  0.23600400  0.45124600  1
  H  H26  1  0.48481700  0.98601300  0.70126600  1
  H  H27  1  0.23483600  0.73607800  0.95130000  1
  H  H28  1  0.11668900  0.73589500  0.07814500  1
  H  H29  1  0.86668800  0.48563400  0.32816500  1
  H  H30  1  0.61682100  0.23570700  0.57819600  1
  H  H31  1  0.36686600  0.98590500  0.82818300  1
  H  H32  1  0.10910000  0.99134500  0.20352000  1
  H  H33  1  0.85918500  0.74154600  0.45351700  1
  H  H34  1  0.60932000  0.49145900  0.70348700  1
  H  H35  1  0.35929300  0.24132200  0.95347500  1
  H  H36  1  0.64089800  0.75864900  0.04648900  1
  H  H37  1  0.39071200  0.50869600  0.29652000  1
  H  H38  1  0.14068300  0.25854000  0.54651300  1
  H  H39  1  0.89080600  0.00844200  0.79648100  1
  H  H40  1  0.63329400  0.01411900  0.17185500  1
  H  H41  1  0.38314300  0.76409500  0.42181500  1
  H  H42  1  0.13318200  0.51429700  0.67180200  1
  H  H43  1  0.88332700  0.26434900  0.92183800  1
  H  H44  1  0.76520000  0.26391400  0.04871600  1
  H  H45  1  0.51519500  0.01392800  0.29869800  1
  H  H46  1  0.26518300  0.76398800  0.54873200  1
  H  H47  1  0.01520000  0.51401100  0.79875300  1
  O  O0  1  0.84019500  0.48263500  0.21928700  1
  O  O1  1  0.59026100  0.23242800  0.46929300  1
  O  O2  1  0.34027600  0.98191700  0.71938100  1
  O  O3  1  0.09025100  0.73232200  0.96935000  1
  O  O4  1  0.04817900  0.86602000  0.07454400  1
  O  O5  1  0.79861800  0.61609800  0.32451600  1
  O  O6  1  0.54814600  0.36579700  0.57465400  1
  O  O7  1  0.29764100  0.11559800  0.82471300  1
  O  O8  1  0.06318000  0.88754600  0.23517100  1
  O  O9  1  0.81362100  0.63746200  0.48513400  1
  O  O10  1  0.56329200  0.38771300  0.73511500  1
  O  O11  1  0.31278800  0.13794900  0.98514800  1
  O  O12  1  0.68693300  0.86235600  0.01482700  1
  O  O13  1  0.43710200  0.61214800  0.26485600  1
  O  O14  1  0.18671400  0.36228000  0.51488300  1
  O  O15  1  0.93635100  0.11254100  0.76486600  1
  O  O16  1  0.70189200  0.88404400  0.17544200  1
  O  O17  1  0.45234700  0.63439100  0.42529100  1
  O  O18  1  0.20185500  0.38420400  0.67534500  1
  O  O19  1  0.95133100  0.13385200  0.92549400  1
  O  O20  1  0.90978100  0.26728800  0.03072000  1
  O  O21  1  0.65977700  0.01776000  0.28064000  1
  O  O22  1  0.40972400  0.76805900  0.53062100  1
  O  O23  1  0.15973600  0.51758200  0.78070500  1
  F  F0  1  0.19026200  0.47459000  0.08841600  1
  F  F1  1  0.94027800  0.22467000  0.33822100  1
  F  F2  1  0.69033700  0.97457100  0.58839600  1
  F  F3  1  0.44032000  0.72445900  0.83857800  1
  F  F4  1  0.21270000  0.13782400  0.14071900  1
  F  F5  1  0.96270000  0.88793100  0.39050600  1
  F  F6  1  0.71270200  0.63789600  0.64073000  1
  F  F7  1  0.46269700  0.38779400  0.89094600  1
  F  F8  1  0.25660400  0.46617200  0.18032400  1
  F  F9  1  0.00677100  0.21622200  0.43012900  1
  F  F10  1  0.75672000  0.96618500  0.68032800  1
  F  F11  1  0.50657200  0.71618100  0.93050600  1
  F  F12  1  0.49337800  0.28381700  0.06969100  1
  F  F13  1  0.24344200  0.03383300  0.31948600  1
  F  F14  1  0.99328400  0.78381700  0.56967200  1
  F  F15  1  0.74323900  0.53379200  0.81986400  1
  F  F16  1  0.53729200  0.61216300  0.10929600  1
  F  F17  1  0.28731600  0.36221400  0.35905100  1
  F  F18  1  0.03729800  0.11210700  0.60926900  1
  F  F19  1  0.78730800  0.86207800  0.85949000  1
  F  F20  1  0.55971800  0.27539900  0.16160200  1
  F  F21  1  0.30968800  0.02554800  0.41141500  1
  F  F22  1  0.05966200  0.77543400  0.66160400  1
  F  F23  1  0.80974000  0.52534200  0.91177100  1
loop_
_geom_bond_atom_site_label_1
_geom_bond_atom_site_label_2
_geom_bond_distance
_geom_bond_site_symmetry_2
Ni0 O22 2.073149 1_555
Ni0 O14 2.073214 1_555
Ni0 O1 2.073715 1_555
Ni0 O6 2.073975 1_555
Ni0 O9 2.074158 1_555
Ni0 O17 2.076571 1_555
Ni1 O2 2.073316 1_545
Ni1 O10 2.073402 1_555
Ni1 O23 2.073704 1_555
Ni1 O15 2.074147 1_455
Ni1 O18 2.074168 1_555
Ni1 O7 2.076492 1_555
Ni2 O11 2.070503 1_655
Ni2 O19 2.070743 1_555
Ni2 O20 2.071417 1_556
Ni2 O12 2.071553 1_546
Ni2 O3 2.071958 1_645
Ni2 O4 2.073068 1_646
Ni3 O13 2.070813 1_555
Ni3 O5 2.070984 1_555
Ni3 O0 2.071553 1_555
Ni3 O8 2.072158 1_655
Ni3 O21 2.072435 1_565
Ni3 O16 2.073380 1_555
H0 O20 0.981908 1_455
H1 O21 0.982023 1_555
H2 O22 0.982122 1_555
H3 O23 0.982025 1_555
H4 O4 0.982081 1_555
H5 O5 0.982116 1_555
H6 O6 0.982171 1_555
H7 O7 0.982233 1_555
H8 O11 0.982401 1_554
H9 O8 0.981734 1_555
H10 O9 0.981777 1_555
H11 O10 0.982420 1_555
H12 O13 0.982465 1_555
H13 O14 0.982407 1_555
H14 O15 0.981802 1_555
H15 O12 0.981723 1_556
H16 O16 0.982099 1_555
H17 O17 0.982226 1_555
H18 O18 0.982159 1_555
H19 O19 0.982148 1_555
H20 O0 0.981964 1_555
H21 O1 0.982020 1_555
H22 O2 0.982126 1_555
H23 O3 0.982012 1_655
H24 O0 0.982405 1_555
H25 O1 0.982460 1_555
H26 O2 0.982664 1_555
H27 O3 0.982596 1_555
H28 O4 0.982340 1_555
H29 O5 0.982777 1_555
H30 O6 0.982650 1_555
H31 O7 0.982261 1_565
H32 O8 0.982741 1_555
H33 O9 0.982827 1_555
H34 O10 0.982225 1_555
H35 O11 0.982151 1_555
H36 O12 0.982717 1_555
H37 O13 0.982163 1_555
H38 O14 0.982243 1_555
H39 O15 0.982827 1_555
H40 O16 0.982349 1_545
H41 O17 0.982256 1_555
H42 O18 0.982661 1_555
H43 O19 0.982742 1_555
H44 O20 0.982400 1_555
H45 O21 0.982588 1_555
H46 O22 0.982648 1_555
H47 O23 0.982457 1_555
F0 Si0 1.720294 1_555
F1 Si1 1.719912 1_655
F2 Si2 1.720098 1_555
F3 Si3 1.720516 1_555
F4 Si0 1.720291 1_555
F5 Si1 1.720307 1_665
F6 Si2 1.720001 1_555
F7 Si3 1.720119 1_555
F8 Si0 1.720331 1_555
F9 Si1 1.720789 1_555
F10 Si2 1.720324 1_555
F11 Si3 1.719855 1_555
F12 Si0 1.720320 1_555
F13 Si1 1.719921 1_555
F14 Si2 1.720328 1_555
F15 Si3 1.720825 1_555
F16 Si0 1.720295 1_555
F17 Si1 1.720125 1_555
F18 Si2 1.720017 1_445
F19 Si3 1.720305 1_555
F20 Si0 1.720351 1_555
F21 Si1 1.720452 1_555
F22 Si2 1.720081 1_455
F23 Si3 1.719870 1_555
