# generated using pymatgen
data_DyNiSb
_symmetry_space_group_name_H-M   'P 1'
_cell_length_a   4.46271132
_cell_length_b   4.46271148
_cell_length_c   4.46271347
_cell_angle_alpha   60.00000804
_cell_angle_beta   60.00000678
_cell_angle_gamma   59.99999701
_symmetry_Int_Tables_number   1
_chemical_formula_structural   DyNiSb
_chemical_formula_sum   'Dy1 Ni1 Sb1'
_cell_volume   62.84658001
_cell_formula_units_Z   1
loop_
 _symmetry_equiv_pos_site_id
 _symmetry_equiv_pos_as_xyz
  1  'x, y, z'
loop_
 _atom_site_type_symbol
 _atom_site_label
 _atom_site_symmetry_multiplicity
 _atom_site_fract_x
 _atom_site_fract_y
 _atom_site_fract_z
 _atom_site_occupancy
  Dy  Dy0  1  0.50000000  0.50000000  0.50000000  1
  Ni  Ni0  1  0.25000000  0.25000000  0.25000000  1
  Sb  Sb0  1  -0.00000000  0.00000000  0.00000000  1
loop_
_geom_bond_atom_site_label_1
_geom_bond_atom_site_label_2
_geom_bond_distance
_geom_bond_site_symmetry_2
Dy0 Ni0 2.732841 1_655
Dy0 Ni0 2.732842 1_565
Dy0 Ni0 2.732842 1_555
Dy0 Ni0 2.732843 1_556
Dy0 Sb0 3.155614 1_665
Dy0 Sb0 3.155614 1_556
Dy0 Sb0 3.155614 1_566
Dy0 Sb0 3.155614 1_655
Dy0 Sb0 3.155614 1_565
Dy0 Sb0 3.155614 1_656
Ni0 Sb0 2.732841 1_655
Ni0 Sb0 2.732842 1_565
Ni0 Sb0 2.732842 1_555
Ni0 Sb0 2.732843 1_556
