# generated using pymatgen
data_Ce(SiNi)2
_symmetry_space_group_name_H-M   'P 1'
_cell_length_a   4.03282642
_cell_length_b   4.03282664
_cell_length_c   5.51923963
_cell_angle_alpha   111.42867949
_cell_angle_beta   111.42867174
_cell_angle_gamma   89.99999244
_symmetry_Int_Tables_number   1
_chemical_formula_structural   Ce(SiNi)2
_chemical_formula_sum   'Ce1 Si2 Ni2'
_cell_volume   76.85373251
_cell_formula_units_Z   1
loop_
 _symmetry_equiv_pos_site_id
 _symmetry_equiv_pos_as_xyz
  1  'x, y, z'
loop_
 _atom_site_type_symbol
 _atom_site_label
 _atom_site_symmetry_multiplicity
 _atom_site_fract_x
 _atom_site_fract_y
 _atom_site_fract_z
 _atom_site_occupancy
  Ce  Ce0  1  -0.00000000  -0.00000000  -0.00000000  1
  Si  Si0  1  0.62963544  0.62963544  0.25927189  1
  Si  Si1  1  0.37036456  0.37036456  0.74072811  1
  Ni  Ni0  1  0.75000000  0.25000000  0.50000000  1
  Ni  Ni1  1  0.25000000  0.75000000  0.50000000  1
loop_
_geom_bond_atom_site_label_1
_geom_bond_atom_site_label_2
_geom_bond_distance
_geom_bond_site_symmetry_2
Ce0 Si1 3.103692 1_444
Ce0 Si0 3.103692 1_555
Ce0 Si1 3.103694 1_544
Ce0 Si0 3.103694 1_455
Ce0 Si1 3.103695 1_454
Ce0 Si0 3.103695 1_545
Ce0 Si0 3.103698 1_445
Ce0 Si1 3.103698 1_554
Ce0 Ni1 3.106197 1_555
Ce0 Ni0 3.106197 1_444
Ce0 Ni0 3.106197 1_555
Ce0 Ni1 3.106197 1_444
Ce0 Ni1 3.106197 1_544
Ce0 Ni0 3.106197 1_455
Ce0 Ni1 3.106198 1_545
Ce0 Ni0 3.106198 1_454
Si0 Si1 2.450368 1_554
Ni0 Si1 2.315156 1_555
Ni0 Si0 2.315156 1_555
Ni0 Si0 2.315159 1_545
Ni0 Si1 2.315159 1_655
Ni1 Si0 2.315156 1_555
Ni1 Si1 2.315156 1_555
Ni1 Si1 2.315159 1_565
Ni1 Si0 2.315159 1_455
