# generated using pymatgen
data_Sr2GeS4
_symmetry_space_group_name_H-M   'P 1'
_cell_length_a   6.74104975
_cell_length_b   6.73273977
_cell_length_c   8.24996218
_cell_angle_alpha   90.00000000
_cell_angle_beta   108.08388855
_cell_angle_gamma   90.00000000
_symmetry_Int_Tables_number   1
_chemical_formula_structural   Sr2GeS4
_chemical_formula_sum   'Sr4 Ge2 S8'
_cell_volume   355.93485987
_cell_formula_units_Z   2
loop_
 _symmetry_equiv_pos_site_id
 _symmetry_equiv_pos_as_xyz
  1  'x, y, z'
loop_
 _atom_site_type_symbol
 _atom_site_label
 _atom_site_symmetry_multiplicity
 _atom_site_fract_x
 _atom_site_fract_y
 _atom_site_fract_z
 _atom_site_occupancy
  Sr  Sr0  1  0.76458604  0.25000000  0.56666034  1
  Sr  Sr1  1  0.23541396  0.75000000  0.43333966  1
  Sr  Sr2  1  0.72180408  0.25000000  0.05333267  1
  Sr  Sr3  1  0.27819592  0.75000000  0.94666733  1
  Ge  Ge0  1  0.27225622  0.25000000  0.19915316  1
  Ge  Ge1  1  0.72774378  0.75000000  0.80084684  1
  S  S0  1  0.50843218  0.49743857  0.74108443  1
  S  S1  1  0.49156782  0.99743857  0.25891557  1
  S  S2  1  0.49156782  0.50256143  0.25891557  1
  S  S3  1  0.50843218  0.00256143  0.74108443  1
  S  S4  1  0.08081378  0.25000000  0.37369812  1
  S  S5  1  0.91918622  0.75000000  0.62630188  1
  S  S6  1  0.90239008  0.75000000  0.07542662  1
  S  S7  1  0.09760992  0.25000000  0.92457338  1
loop_
_geom_bond_atom_site_label_1
_geom_bond_atom_site_label_2
_geom_bond_distance
_geom_bond_site_symmetry_2
Ge0 S7 2.204956 1_554
Ge0 S1 2.206280 1_545
Ge0 S2 2.206280 1_555
Ge0 S4 2.211947 1_555
Ge1 S6 2.204956 1_556
Ge1 S0 2.206280 1_555
Ge1 S3 2.206280 1_565
Ge1 S5 2.211947 1_555
S0 Sr2 3.029833 1_556
S0 Sr0 3.061094 1_555
S0 Sr3 3.132261 1_555
S0 Sr1 3.134280 1_555
S1 Sr3 3.029833 1_554
S1 Sr1 3.061094 1_555
S1 Sr2 3.132261 1_565
S1 Sr0 3.134280 1_565
S2 Sr3 3.029833 1_554
S2 Sr1 3.061094 1_555
S2 Sr2 3.132261 1_555
S2 Sr0 3.134280 1_555
S3 Sr2 3.029833 1_556
S3 Sr0 3.061094 1_555
S3 Sr3 3.132261 1_545
S3 Sr1 3.134280 1_545
S4 Sr2 2.978489 1_455
S4 Sr0 3.030707 1_455
S4 Sr1 3.513163 1_545
S4 Sr1 3.513163 1_555
S5 Sr3 2.978489 1_655
S5 Sr1 3.030707 1_655
S5 Sr0 3.513163 1_555
S5 Sr0 3.513163 1_565
S6 Sr3 3.035916 1_654
S6 Sr1 3.105367 1_655
S6 Sr2 3.565085 1_565
S6 Sr2 3.565085 1_555
S7 Sr2 3.035916 1_456
S7 Sr0 3.105367 1_455
S7 Sr3 3.565085 1_545
S7 Sr3 3.565085 1_555
