# generated using pymatgen
data_PdSe2O5
_symmetry_space_group_name_H-M   'P 1'
_cell_length_a   5.68739002
_cell_length_b   6.76420351
_cell_length_c   7.14669435
_cell_angle_alpha   105.28534566
_cell_angle_beta   90.00000000
_cell_angle_gamma   114.86006156
_symmetry_Int_Tables_number   1
_chemical_formula_structural   PdSe2O5
_chemical_formula_sum   'Pd2 Se4 O10'
_cell_volume   238.69978717
_cell_formula_units_Z   2
loop_
 _symmetry_equiv_pos_site_id
 _symmetry_equiv_pos_as_xyz
  1  'x, y, z'
loop_
 _atom_site_type_symbol
 _atom_site_label
 _atom_site_symmetry_multiplicity
 _atom_site_fract_x
 _atom_site_fract_y
 _atom_site_fract_z
 _atom_site_occupancy
  Pd  Pd0  1  0.00000000  0.00000000  0.50000000  1
  Pd  Pd1  1  0.00000000  0.00000000  0.00000000  1
  Se  Se0  1  0.26682895  0.72411033  0.68314977  1
  Se  Se1  1  0.54271862  0.27588967  0.81685023  1
  Se  Se2  1  0.45728138  0.72411033  0.18314977  1
  Se  Se3  1  0.73317105  0.27588967  0.31685023  1
  O  O0  1  0.64540156  0.74452699  0.37650758  1
  O  O1  1  0.90087456  0.25547301  0.12349242  1
  O  O2  1  0.35459844  0.25547301  0.62349242  1
  O  O3  1  0.09912544  0.74452699  0.87650758  1
  O  O4  1  0.45621999  0.00000000  0.25000000  1
  O  O5  1  0.54378001  -0.00000000  0.75000000  1
  O  O6  1  0.10055812  0.74482408  0.49727761  1
  O  O7  1  0.35573404  0.25517592  0.00272239  1
  O  O8  1  0.89944188  0.25517592  0.50272239  1
  O  O9  1  0.64426596  0.74482408  0.99727761  1
loop_
_geom_bond_atom_site_label_1
_geom_bond_atom_site_label_2
_geom_bond_distance
_geom_bond_site_symmetry_2
O0 Se2 1.687748 1_555
O0 Pd0 2.024348 1_665
O1 Se3 1.687748 1_555
O1 Pd1 2.024348 1_655
O2 Se1 1.687748 1_555
O2 Pd0 2.024348 1_555
O3 Se0 1.687748 1_555
O3 Pd1 2.024348 1_566
O4 Se2 1.802853 1_545
O4 Se3 1.802853 1_555
O5 Se1 1.802853 1_555
O5 Se0 1.802853 1_545
O6 Se0 1.699408 1_555
O6 Pd0 2.029546 1_565
O7 Se1 1.699408 1_554
O7 Pd1 2.029546 1_555
O8 Se3 1.699408 1_555
O8 Pd0 2.029546 1_655
O9 Se2 1.699408 1_556
O9 Pd1 2.029546 1_666
