# generated using pymatgen
data_Ho(CuSi)2
_symmetry_space_group_name_H-M   'P 1'
_cell_length_a   3.93239318
_cell_length_b   3.93239315
_cell_length_c   5.69433830
_cell_angle_alpha   110.19947501
_cell_angle_beta   110.19947457
_cell_angle_gamma   90.00000938
_symmetry_Int_Tables_number   1
_chemical_formula_structural   Ho(CuSi)2
_chemical_formula_sum   'Ho1 Cu2 Si2'
_cell_volume   76.84336674
_cell_formula_units_Z   1
loop_
 _symmetry_equiv_pos_site_id
 _symmetry_equiv_pos_as_xyz
  1  'x, y, z'
loop_
 _atom_site_type_symbol
 _atom_site_label
 _atom_site_symmetry_multiplicity
 _atom_site_fract_x
 _atom_site_fract_y
 _atom_site_fract_z
 _atom_site_occupancy
  Ho  Ho0  1  0.00000000  -0.00000000  -0.00000000  1
  Cu  Cu0  1  0.25000000  0.75000000  0.50000000  1
  Cu  Cu1  1  0.75000000  0.25000000  0.50000000  1
  Si  Si0  1  0.61750639  0.61750639  0.23501378  1
  Si  Si1  1  0.38249361  0.38249361  0.76498622  1
loop_
_geom_bond_atom_site_label_1
_geom_bond_atom_site_label_2
_geom_bond_distance
_geom_bond_site_symmetry_2
Ho0 Si0 3.015909 1_555
Ho0 Si1 3.015909 1_444
Ho0 Si0 3.015912 1_455
Ho0 Si1 3.015912 1_544
Ho0 Si1 3.015912 1_454
Ho0 Si0 3.015912 1_545
Ho0 Si1 3.015914 1_554
Ho0 Si0 3.015914 1_445
Cu0 Si0 2.366400 1_555
Cu0 Si1 2.366400 1_555
Cu0 Si1 2.366404 1_565
Cu0 Si0 2.366404 1_455
Cu0 Cu1 2.780622 1_455
Cu0 Cu1 2.780622 1_565
Cu0 Cu1 2.780622 1_465
Cu0 Cu1 2.780622 1_555
Cu0 Ho0 3.168491 1_566
Cu0 Ho0 3.168491 1_565
Cu0 Ho0 3.168492 1_555
Cu0 Ho0 3.168492 1_666
Cu1 Si1 2.366400 1_555
Cu1 Si0 2.366400 1_555
Cu1 Si0 2.366404 1_545
Cu1 Si1 2.366404 1_655
Cu1 Ho0 3.168491 1_655
Cu1 Ho0 3.168491 1_656
Cu1 Ho0 3.168492 1_666
Cu1 Ho0 3.168492 1_555
Si0 Si1 2.335693 1_554
