# generated using pymatgen
data_PrNbO4
_symmetry_space_group_name_H-M   'P 1'
_cell_length_a   5.22914676
_cell_length_b   5.51902924
_cell_length_c   6.80212035
_cell_angle_alpha   112.33363174
_cell_angle_beta   110.94252298
_cell_angle_gamma   93.83210583
_symmetry_Int_Tables_number   1
_chemical_formula_structural   PrNbO4
_chemical_formula_sum   'Pr2 Nb2 O8'
_cell_volume   164.85447073
_cell_formula_units_Z   2
loop_
 _symmetry_equiv_pos_site_id
 _symmetry_equiv_pos_as_xyz
  1  'x, y, z'
loop_
 _atom_site_type_symbol
 _atom_site_label
 _atom_site_symmetry_multiplicity
 _atom_site_fract_x
 _atom_site_fract_y
 _atom_site_fract_z
 _atom_site_occupancy
  Pr  Pr0  1  0.87895259  0.12890569  0.75784106  1
  Pr  Pr1  1  0.12104741  0.87109431  0.24215894  1
  Nb  Nb0  1  0.35616391  0.60618488  0.71246249  1
  Nb  Nb1  1  0.64383609  0.39381512  0.28753751  1
  O  O0  1  0.30016458  0.14075849  0.08542520  1
  O  O1  1  0.78513691  0.44460079  0.08528689  1
  O  O2  1  0.69983542  0.85924151  0.91457480  1
  O  O3  1  0.21486309  0.55539921  0.91471311  1
  O  O4  1  0.52029746  0.70917107  0.43479735  1
  O  O5  1  0.91456444  0.22582295  0.43488560  1
  O  O6  1  0.47970254  0.29082893  0.56520265  1
  O  O7  1  0.08543556  0.77417705  0.56511440  1
loop_
_geom_bond_atom_site_label_1
_geom_bond_atom_site_label_2
_geom_bond_distance
_geom_bond_site_symmetry_2
Nb0 O3 1.873282 1_555
Nb0 O2 1.873314 1_555
Nb0 O7 1.932792 1_555
Nb0 O6 1.933332 1_555
Nb0 O5 2.554802 1_455
Nb0 O4 2.556642 1_555
Nb1 O1 1.873282 1_555
Nb1 O0 1.873314 1_555
Nb1 O5 1.932792 1_555
Nb1 O4 1.933332 1_555
Nb1 O7 2.554802 1_655
Nb1 O6 2.556642 1_555
O0 Pr1 2.441777 1_545
O0 Pr0 2.486417 1_454
O1 Pr1 2.441948 1_655
O1 Pr0 2.486638 1_554
O2 Pr0 2.441777 1_565
O2 Pr1 2.486417 1_656
O3 Pr0 2.441948 1_455
O3 Pr1 2.486638 1_556
O4 Pr1 2.461303 1_555
O4 Pr0 2.513321 1_565
O5 Pr1 2.461927 1_645
O5 Pr0 2.513719 1_555
O6 Pr0 2.461303 1_555
O6 Pr1 2.513321 1_545
O7 Pr0 2.461927 1_465
O7 Pr1 2.513719 1_555
