# generated using pymatgen
data_Nd(SiNi)2
_symmetry_space_group_name_H-M   'P 1'
_cell_length_a   4.04208441
_cell_length_b   4.04208433
_cell_length_c   5.56889847
_cell_angle_alpha   111.27939310
_cell_angle_beta   111.27937893
_cell_angle_gamma   89.99999498
_symmetry_Int_Tables_number   1
_chemical_formula_structural   Nd(SiNi)2
_chemical_formula_sum   'Nd1 Si2 Ni2'
_cell_volume   78.08923736
_cell_formula_units_Z   1
loop_
 _symmetry_equiv_pos_site_id
 _symmetry_equiv_pos_as_xyz
  1  'x, y, z'
loop_
 _atom_site_type_symbol
 _atom_site_label
 _atom_site_symmetry_multiplicity
 _atom_site_fract_x
 _atom_site_fract_y
 _atom_site_fract_z
 _atom_site_occupancy
  Nd  Nd0  1  0.00000000  0.00000000  0.00000000  1
  Si  Si0  1  0.63190952  0.63190952  0.26381904  1
  Si  Si1  1  0.36809048  0.36809048  0.73618096  1
  Ni  Ni0  1  0.75000000  0.25000000  0.50000000  1
  Ni  Ni1  1  0.25000000  0.75000000  0.50000000  1
loop_
_geom_bond_atom_site_label_1
_geom_bond_atom_site_label_2
_geom_bond_distance
_geom_bond_site_symmetry_2
Nd0 Si0 3.123961 1_455
Nd0 Si1 3.123961 1_544
Nd0 Si0 3.123962 1_545
Nd0 Si1 3.123962 1_454
Nd0 Si1 3.123962 1_444
Nd0 Si0 3.123962 1_555
Nd0 Si1 3.123962 1_554
Nd0 Si0 3.123962 1_445
Nd0 Ni0 3.129770 1_444
Nd0 Ni1 3.129770 1_555
Nd0 Ni0 3.129770 1_455
Nd0 Ni1 3.129770 1_544
Nd0 Ni0 3.129771 1_454
Nd0 Ni1 3.129771 1_545
Nd0 Ni0 3.129771 1_555
Nd0 Ni1 3.129771 1_444
Si0 Si1 2.521834 1_554
Ni0 Si0 2.314919 1_545
Ni0 Si1 2.314919 1_555
Ni0 Si0 2.314919 1_555
Ni0 Si1 2.314919 1_655
Ni1 Si1 2.314919 1_565
Ni1 Si0 2.314919 1_555
Ni1 Si1 2.314919 1_555
Ni1 Si0 2.314919 1_455
