# generated using pymatgen
data_SrTiO3
_symmetry_space_group_name_H-M   'P 1'
_cell_length_a   5.52232970
_cell_length_b   5.52232956
_cell_length_c   5.53489848
_cell_angle_alpha   119.92490713
_cell_angle_beta   119.92490461
_cell_angle_gamma   89.99999866
_symmetry_Int_Tables_number   1
_chemical_formula_structural   SrTiO3
_chemical_formula_sum   'Sr2 Ti2 O6'
_cell_volume   119.62507795
_cell_formula_units_Z   2
loop_
 _symmetry_equiv_pos_site_id
 _symmetry_equiv_pos_as_xyz
  1  'x, y, z'
loop_
 _atom_site_type_symbol
 _atom_site_label
 _atom_site_symmetry_multiplicity
 _atom_site_fract_x
 _atom_site_fract_y
 _atom_site_fract_z
 _atom_site_occupancy
  Sr  Sr0  1  0.75000000  0.25000000  0.50000000  1
  Sr  Sr1  1  0.25000000  0.75000000  0.50000000  1
  Ti  Ti0  1  0.50000000  0.50000000  -0.00000000  1
  Ti  Ti1  1  -0.00000000  0.00000000  -0.00000000  1
  O  O0  1  0.77095745  0.27095745  -0.00000000  1
  O  O1  1  0.72904255  0.77095745  0.00000000  1
  O  O2  1  0.27095745  0.22904255  -0.00000000  1
  O  O3  1  0.22904255  0.72904255  0.00000000  1
  O  O4  1  0.25000000  0.25000000  0.50000000  1
  O  O5  1  0.75000000  0.75000000  0.50000000  1
loop_
_geom_bond_atom_site_label_1
_geom_bond_atom_site_label_2
_geom_bond_distance
_geom_bond_site_symmetry_2
O0 Ti1 1.959287 1_655
O0 Ti0 1.959287 1_555
O0 Sr0 2.654514 1_554
O0 Sr1 2.654514 1_655
O0 Sr0 2.885253 1_555
O0 Sr1 2.885253 1_544
O1 Ti0 1.959287 1_555
O1 Ti1 1.959287 1_665
O1 Sr0 2.654514 1_565
O1 Sr1 2.654514 1_554
O1 Sr0 2.885253 1_554
O1 Sr1 2.885253 1_655
O2 Ti0 1.959287 1_555
O2 Ti1 1.959287 1_555
O2 Sr1 2.654514 1_544
O2 Sr0 2.654514 1_555
O2 Sr1 2.885253 1_555
O2 Sr0 2.885253 1_454
O3 Ti1 1.959287 1_565
O3 Ti0 1.959287 1_555
O3 Sr1 2.654514 1_555
O3 Sr0 2.654514 1_454
O3 Sr1 2.885253 1_554
O3 Sr0 2.885253 1_565
O4 Ti0 1.961316 1_556
O4 Ti1 1.961316 1_555
O4 Sr1 2.761165 1_545
O4 Sr1 2.761165 1_555
O4 Sr0 2.761165 1_455
O4 Sr0 2.761165 1_555
O5 Ti0 1.961316 1_555
O5 Ti1 1.961316 1_666
O5 Sr0 2.761165 1_555
O5 Sr0 2.761165 1_565
O5 Sr1 2.761165 1_655
O5 Sr1 2.761165 1_555
