# generated using pymatgen
data_Na8BeAl4Si7(ClO12)2
_symmetry_space_group_name_H-M   'P 1'
_cell_length_a   8.98611400
_cell_length_b   8.98611400
_cell_length_c   9.03606000
_cell_angle_alpha   90.00000000
_cell_angle_beta   90.00000000
_cell_angle_gamma   90.00000000
_symmetry_Int_Tables_number   1
_chemical_formula_structural   Na8BeAl4Si7(ClO12)2
_chemical_formula_sum   'Na8 Be1 Al4 Si7 Cl2 O24'
_cell_volume   729.66405722
_cell_formula_units_Z   1
loop_
 _symmetry_equiv_pos_site_id
 _symmetry_equiv_pos_as_xyz
  1  'x, y, z'
loop_
 _atom_site_type_symbol
 _atom_site_label
 _atom_site_symmetry_multiplicity
 _atom_site_fract_x
 _atom_site_fract_y
 _atom_site_fract_z
 _atom_site_occupancy
  Na  Na0  1  0.18654100  0.32146000  0.06627900  1
  Na  Na1  1  0.67854000  0.18654100  0.93372100  1
  Na  Na2  1  0.32146000  0.81345900  0.93372100  1
  Na  Na3  1  0.81345900  0.67854000  0.06627900  1
  Na  Na4  1  0.70238500  0.82032400  0.56094000  1
  Na  Na5  1  0.17967600  0.70238500  0.43906000  1
  Na  Na6  1  0.82032400  0.29761500  0.43906000  1
  Na  Na7  1  0.29761500  0.17967600  0.56094000  1
  Be  Be0  1  0.00000000  0.00000000  0.50000000  1
  Al  Al0  1  0.75209400  0.49987400  0.75033600  1
  Al  Al1  1  0.50012600  0.75209400  0.24966400  1
  Al  Al2  1  0.49987400  0.24790600  0.24966400  1
  Al  Al3  1  0.24790600  0.50012600  0.75033600  1
  Si  Si0  1  0.00000000  0.00000000  0.00000000  1
  Si  Si1  1  0.50000000  0.50000000  0.00000000  1
  Si  Si2  1  0.75903500  0.99601100  0.25481400  1
  Si  Si3  1  0.24096500  0.00398900  0.25481400  1
  Si  Si4  1  0.50000000  0.50000000  0.50000000  1
  Si  Si5  1  0.99601100  0.24096500  0.74518600  1
  Si  Si6  1  0.00398900  0.75903500  0.74518600  1
  Cl  Cl0  1  0.50000000  0.00000000  0.75384100  1
  Cl  Cl1  1  0.00000000  0.50000000  0.24615900  1
  O  O0  1  0.35500000  0.45028500  0.90369500  1
  O  O1  1  0.04382400  0.14371200  0.89835400  1
  O  O2  1  0.85491200  0.34140100  0.80082100  1
  O  O3  1  0.14508800  0.65859900  0.80082100  1
  O  O4  1  0.64500000  0.54971500  0.90369500  1
  O  O5  1  0.95617600  0.85628800  0.89835400  1
  O  O6  1  0.54971500  0.35500000  0.09630500  1
  O  O7  1  0.14371200  0.95617600  0.10164600  1
  O  O8  1  0.85628800  0.04382400  0.10164600  1
  O  O9  1  0.45028500  0.64500000  0.09630500  1
  O  O10  1  0.65859900  0.85491200  0.19917900  1
  O  O11  1  0.85785200  0.95292300  0.39568500  1
  O  O12  1  0.54905300  0.64617500  0.40385700  1
  O  O13  1  0.34113200  0.85690200  0.29012400  1
  O  O14  1  0.65886800  0.14309800  0.29012400  1
  O  O15  1  0.34140100  0.14508800  0.19917900  1
  O  O16  1  0.14214800  0.04707700  0.39568500  1
  O  O17  1  0.45094700  0.35382500  0.40385700  1
  O  O18  1  0.04707700  0.85785200  0.60431500  1
  O  O19  1  0.64617500  0.45094700  0.59614300  1
  O  O20  1  0.95292300  0.14214800  0.60431500  1
  O  O21  1  0.35382500  0.54905300  0.59614300  1
  O  O22  1  0.14309800  0.34113200  0.70987600  1
  O  O23  1  0.85690200  0.65886800  0.70987600  1
loop_
_geom_bond_atom_site_label_1
_geom_bond_atom_site_label_2
_geom_bond_distance
_geom_bond_site_symmetry_2
Na0 O0 2.406241 1_554
Na0 O15 2.427049 1_555
Na0 O1 2.549201 1_554
Na1 O6 2.406241 1_556
Na1 O2 2.427049 1_555
Na1 O8 2.549201 1_556
Na2 O9 2.406241 1_556
Na2 O3 2.427049 1_555
Na2 O7 2.549201 1_556
Na3 O4 2.406241 1_554
Na3 O10 2.427049 1_555
Na3 O5 2.549201 1_554
Na4 O11 2.366713 1_555
Na4 O23 2.417461 1_555
Na4 O12 2.522342 1_555
Na5 O18 2.366713 1_555
Na5 O13 2.417461 1_555
Na5 O21 2.522342 1_555
Na6 O20 2.366713 1_555
Na6 O14 2.417461 1_555
Na6 O19 2.522342 1_555
Na7 O16 2.366713 1_555
Na7 O22 2.417461 1_555
Na7 O17 2.522342 1_555
Be0 O16 1.642892 1_555
Be0 O20 1.642892 1_455
Be0 O11 1.642892 1_445
Be0 O18 1.642892 1_545
Al0 O19 1.743704 1_555
Al0 O4 1.745584 1_555
Al0 O23 1.749850 1_555
Al0 O2 1.757753 1_555
Al1 O12 1.743704 1_555
Al1 O9 1.745584 1_555
Al1 O13 1.749850 1_555
Al1 O10 1.757753 1_555
Al2 O17 1.743704 1_555
Al2 O6 1.745584 1_555
Al2 O14 1.749850 1_555
Al2 O15 1.757753 1_555
Al3 O21 1.743704 1_555
Al3 O0 1.745584 1_555
Al3 O22 1.749850 1_555
Al3 O3 1.757753 1_555
Cl0 Na2 2.833001 1_545
Cl0 Na1 2.833001 1_555
Cl0 Na7 2.992103 1_555
Cl0 Na4 2.992103 1_545
Cl1 Na0 2.833001 1_555
Cl1 Na3 2.833001 1_455
Cl1 Na6 2.992103 1_455
Cl1 Na5 2.992103 1_555
O0 Si1 1.629305 1_556
O1 Si0 1.632922 1_556
O1 Si5 1.692307 1_455
O2 Si5 1.635524 1_555
O3 Si6 1.635524 1_555
O4 Si1 1.629305 1_556
O5 Si0 1.632922 1_666
O5 Si6 1.692307 1_655
O6 Si1 1.629305 1_555
O7 Si0 1.632922 1_565
O7 Si3 1.692307 1_565
O8 Si0 1.632922 1_655
O8 Si2 1.692307 1_545
O9 Si1 1.629305 1_555
O10 Si2 1.635524 1_555
O11 Si2 1.599610 1_555
O12 Si4 1.635370 1_555
O13 Si3 1.630644 1_565
O14 Si2 1.630644 1_545
O15 Si3 1.635524 1_555
O16 Si3 1.599610 1_555
O17 Si4 1.635370 1_555
O18 Si6 1.599610 1_555
O19 Si4 1.635370 1_555
O20 Si5 1.599610 1_555
O21 Si4 1.635370 1_555
O22 Si5 1.630644 1_455
O23 Si6 1.630644 1_655
