# generated using pymatgen
data_Ho(CuGe)2
_symmetry_space_group_name_H-M   'P 1'
_cell_length_a   4.00386482
_cell_length_b   4.00386413
_cell_length_c   5.86610808
_cell_angle_alpha   109.95433109
_cell_angle_beta   109.95433207
_cell_angle_gamma   89.99999254
_symmetry_Int_Tables_number   1
_chemical_formula_structural   Ho(CuGe)2
_chemical_formula_sum   'Ho1 Cu2 Ge2'
_cell_volume   82.36179117
_cell_formula_units_Z   1
loop_
 _symmetry_equiv_pos_site_id
 _symmetry_equiv_pos_as_xyz
  1  'x, y, z'
loop_
 _atom_site_type_symbol
 _atom_site_label
 _atom_site_symmetry_multiplicity
 _atom_site_fract_x
 _atom_site_fract_y
 _atom_site_fract_z
 _atom_site_occupancy
  Ho  Ho0  1  0.00000000  -0.00000000  0.00000000  1
  Cu  Cu0  1  0.25000000  0.75000000  0.50000000  1
  Cu  Cu1  1  0.75000000  0.25000000  0.50000000  1
  Ge  Ge0  1  0.61865050  0.61865050  0.23730299  1
  Ge  Ge1  1  0.38134950  0.38134950  0.76269701  1
loop_
_geom_bond_atom_site_label_1
_geom_bond_atom_site_label_2
_geom_bond_distance
_geom_bond_site_symmetry_2
Cu0 Ge1 2.414390 1_555
Cu0 Ge0 2.414390 1_555
Cu0 Ge1 2.414397 1_565
Cu0 Ge0 2.414397 1_455
Cu0 Ho0 3.256788 1_555
Cu0 Ho0 3.256789 1_565
Cu0 Ho0 3.256789 1_666
Cu0 Ho0 3.256789 1_566
Cu1 Ge0 2.414390 1_555
Cu1 Ge1 2.414390 1_555
Cu1 Ge0 2.414397 1_545
Cu1 Ge1 2.414397 1_655
Cu1 Ho0 3.256788 1_666
Cu1 Ho0 3.256789 1_656
Cu1 Ho0 3.256789 1_555
Cu1 Ho0 3.256789 1_655
Ge0 Ge1 2.438374 1_554
Ge0 Ho0 3.082507 1_555
Ge0 Ho0 3.082512 1_655
Ge0 Ho0 3.082512 1_565
Ge0 Ho0 3.082518 1_665
Ge1 Ho0 3.082507 1_666
Ge1 Ho0 3.082512 1_566
Ge1 Ho0 3.082512 1_656
Ge1 Ho0 3.082518 1_556
