# generated using pymatgen
data_LaTe2Se
_symmetry_space_group_name_H-M   'P 1'
_cell_length_a   4.33602025
_cell_length_b   4.33742322
_cell_length_c   13.25551704
_cell_angle_alpha   90.00000000
_cell_angle_beta   99.41330629
_cell_angle_gamma   90.00000000
_symmetry_Int_Tables_number   1
_chemical_formula_structural   LaTe2Se
_chemical_formula_sum   'La2 Te4 Se2'
_cell_volume   245.94155920
_cell_formula_units_Z   2
loop_
 _symmetry_equiv_pos_site_id
 _symmetry_equiv_pos_as_xyz
  1  'x, y, z'
loop_
 _atom_site_type_symbol
 _atom_site_label
 _atom_site_symmetry_multiplicity
 _atom_site_fract_x
 _atom_site_fract_y
 _atom_site_fract_z
 _atom_site_occupancy
  La  La0  1  0.17845445  0.75000000  0.35690890  1
  La  La1  1  0.82154500  0.25000000  0.64309099  1
  Te  Te0  1  0.57505997  0.75000000  0.15011894  1
  Te  Te1  1  0.42494425  0.25000000  0.84988851  1
  Te  Te2  1  0.07502133  0.25000000  0.15004266  1
  Te  Te3  1  0.92497138  0.75000000  0.84994276  1
  Se  Se0  1  0.70452315  0.25000000  0.40904530  1
  Se  Se1  1  0.29548046  0.75000000  0.59096193  1
loop_
_geom_bond_atom_site_label_1
_geom_bond_atom_site_label_2
_geom_bond_distance
_geom_bond_site_symmetry_2
La0 Se1 3.060716 1_555
La0 Se0 3.141402 1_455
La0 Se0 3.141402 1_465
La0 Se0 3.141405 1_565
La0 Se0 3.141405 1_555
La0 Te0 3.465969 1_455
La0 Te0 3.465971 1_555
La0 Te2 3.467187 1_565
La0 Te2 3.467187 1_555
La1 Se0 3.060620 1_555
La1 Se1 3.141382 1_645
La1 Se1 3.141382 1_655
La1 Se1 3.141382 1_555
La1 Se1 3.141382 1_545
La1 Te1 3.466045 1_555
La1 Te1 3.466049 1_655
La1 Te3 3.467039 1_555
La1 Te3 3.467039 1_545
Te0 Te2 3.066524 1_655
Te0 Te2 3.066524 1_665
Te0 Te2 3.066527 1_555
Te0 Te2 3.066527 1_565
Te1 Te3 3.066525 1_455
Te1 Te3 3.066525 1_445
Te1 Te3 3.066525 1_545
Te1 Te3 3.066525 1_555
