# generated using pymatgen
data_K4Sn3Se8
_symmetry_space_group_name_H-M   'P 1'
_cell_length_a   14.59914803
_cell_length_b   14.59914803
_cell_length_c   8.28397833
_cell_angle_alpha   90.00000000
_cell_angle_beta   90.00000000
_cell_angle_gamma   146.91549732
_symmetry_Int_Tables_number   1
_chemical_formula_structural   K4Sn3Se8
_chemical_formula_sum   'K8 Sn6 Se16'
_cell_volume   963.80120760
_cell_formula_units_Z   2
loop_
 _symmetry_equiv_pos_site_id
 _symmetry_equiv_pos_as_xyz
  1  'x, y, z'
loop_
 _atom_site_type_symbol
 _atom_site_label
 _atom_site_symmetry_multiplicity
 _atom_site_fract_x
 _atom_site_fract_y
 _atom_site_fract_z
 _atom_site_occupancy
  K  K0  1  0.10465255  0.89534745  -0.00000000  1
  K  K1  1  0.89534745  0.10465255  -0.00000000  1
  K  K2  1  0.39534745  0.60465255  0.50000000  1
  K  K3  1  0.60465255  0.39534745  0.50000000  1
  K  K4  1  0.76703960  0.23296040  -0.00000000  1
  K  K5  1  0.23296040  0.76703960  -0.00000000  1
  K  K6  1  0.73296040  0.26703960  0.50000000  1
  K  K7  1  0.26703960  0.73296040  0.50000000  1
  Sn  Sn0  1  0.62640846  0.37359154  -0.00000000  1
  Sn  Sn1  1  0.37359154  0.62640846  -0.00000000  1
  Sn  Sn2  1  0.87359154  0.12640846  0.50000000  1
  Sn  Sn3  1  0.12640846  0.87359154  0.50000000  1
  Sn  Sn4  1  0.50000000  0.50000000  -0.00000000  1
  Sn  Sn5  1  -0.00000000  -0.00000000  0.50000000  1
  Se  Se0  1  0.77717308  0.89882828  0.66195832  1
  Se  Se1  1  0.89882828  0.77717308  0.33804168  1
  Se  Se2  1  0.27717308  0.39882828  0.83804168  1
  Se  Se3  1  0.10117172  0.22282692  0.33804168  1
  Se  Se4  1  0.39882828  0.27717308  0.16195832  1
  Se  Se5  1  0.60117172  0.72282692  0.16195832  1
  Se  Se6  1  0.99249581  0.64618965  0.68039193  1
  Se  Se7  1  0.00750419  0.35381035  0.68039193  1
  Se  Se8  1  0.64618965  0.99249581  0.31960807  1
  Se  Se9  1  0.35381035  0.00750419  0.31960807  1
  Se  Se10  1  0.50750419  0.85381035  0.81960807  1
  Se  Se11  1  0.49249581  0.14618965  0.81960807  1
  Se  Se12  1  0.85381035  0.50750419  0.18039193  1
  Se  Se13  1  0.14618965  0.49249581  0.18039193  1
  Se  Se14  1  0.72282692  0.60117172  0.83804168  1
  Se  Se15  1  0.22282692  0.10117172  0.66195832  1
loop_
_geom_bond_atom_site_label_1
_geom_bond_atom_site_label_2
_geom_bond_distance
_geom_bond_site_symmetry_2
K0 Se15 3.340703 1_564
K0 Se1 3.340703 1_455
K0 Se14 3.346710 1_454
K0 Se4 3.346710 1_565
K0 Se6 3.597451 1_454
K0 Se9 3.597451 1_565
K0 Se11 3.599627 1_564
K0 Se12 3.599627 1_455
K1 Se3 3.340703 1_655
K1 Se0 3.340703 1_544
K1 Se5 3.346710 1_545
K1 Se2 3.346710 1_654
K1 Se8 3.597451 1_545
K1 Se7 3.597451 1_654
K1 Se10 3.599627 1_544
K1 Se13 3.599627 1_655
K2 Se5 3.340703 1_555
K2 Se2 3.340703 1_555
K2 Se3 3.346710 1_555
K2 Se0 3.346710 1_555
K2 Se13 3.597451 1_555
K2 Se10 3.597451 1_555
K2 Se7 3.599627 1_555
K2 Se8 3.599627 1_555
K3 Se14 3.340703 1_555
K3 Se4 3.340703 1_555
K3 Se15 3.346710 1_555
K3 Se1 3.346710 1_555
K3 Se11 3.597451 1_555
K3 Se12 3.597451 1_555
K3 Se9 3.599627 1_555
K3 Se6 3.599627 1_555
K4 Se12 3.375562 1_555
K4 Se11 3.375562 1_554
K4 Se7 3.473876 1_654
K4 Se8 3.473876 1_545
K4 Se13 3.476130 1_655
K4 Se10 3.476130 1_544
K5 Se10 3.375562 1_554
K5 Se13 3.375562 1_555
K5 Se9 3.473876 1_565
K5 Se6 3.473876 1_454
K5 Se11 3.476130 1_564
K5 Se12 3.476130 1_455
K6 Se7 3.375562 1_655
K6 Se8 3.375562 1_545
K6 Se11 3.473876 1_555
K6 Se12 3.473876 1_555
K6 Se9 3.476130 1_555
K6 Se6 3.476130 1_555
K7 Se9 3.375562 1_565
K7 Se6 3.375562 1_455
K7 Se10 3.473876 1_555
K7 Se13 3.473876 1_555
K7 Se8 3.476130 1_555
K7 Se7 3.476130 1_555
Se0 Sn5 2.551962 1_665
Se0 Sn2 2.642581 1_565
Se1 Sn5 2.551962 1_665
Se1 Sn3 2.642581 1_655
Se2 Sn4 2.551962 1_556
Se2 Sn1 2.642581 1_556
Se3 Sn5 2.551962 1_555
Se3 Sn2 2.642581 1_455
Se4 Sn4 2.551962 1_555
Se4 Sn0 2.642581 1_555
Se5 Sn4 2.551962 1_555
Se5 Sn1 2.642581 1_555
Se6 Sn3 2.490099 1_655
Se7 Sn2 2.490099 1_455
Se8 Sn2 2.490099 1_565
Se9 Sn3 2.490099 1_545
Se10 Sn1 2.490099 1_556
Se11 Sn0 2.490099 1_556
Se12 Sn0 2.490099 1_555
Se13 Sn1 2.490099 1_555
Se14 Sn4 2.551962 1_556
Se14 Sn0 2.642581 1_556
Se15 Sn5 2.551962 1_555
Se15 Sn3 2.642581 1_545
