# generated using pymatgen
data_TaNO
_symmetry_space_group_name_H-M   'P 1'
_cell_length_a   4.97914292
_cell_length_b   5.04121064
_cell_length_c   5.19528015
_cell_angle_alpha   90.00000000
_cell_angle_beta   99.55842850
_cell_angle_gamma   90.00000000
_symmetry_Int_Tables_number   1
_chemical_formula_structural   TaNO
_chemical_formula_sum   'Ta4 N4 O4'
_cell_volume   128.59579155
_cell_formula_units_Z   4
loop_
 _symmetry_equiv_pos_site_id
 _symmetry_equiv_pos_as_xyz
  1  'x, y, z'
loop_
 _atom_site_type_symbol
 _atom_site_label
 _atom_site_symmetry_multiplicity
 _atom_site_fract_x
 _atom_site_fract_y
 _atom_site_fract_z
 _atom_site_occupancy
  Ta  Ta0  1  0.29298799  0.45519386  0.71587136  1
  Ta  Ta1  1  0.70701201  0.95519386  0.78412864  1
  Ta  Ta2  1  0.70701201  0.54480614  0.28412864  1
  Ta  Ta3  1  0.29298799  0.04480614  0.21587136  1
  N  N0  1  0.44403208  0.74396804  0.97935105  1
  N  N1  1  0.55596792  0.24396804  0.52064895  1
  N  N2  1  0.55596792  0.25603196  0.02064895  1
  N  N3  1  0.44403208  0.75603196  0.47935105  1
  O  O0  1  0.06248885  0.32574909  0.34711804  1
  O  O1  1  0.93751115  0.82574909  0.15288196  1
  O  O2  1  0.93751115  0.67425091  0.65288196  1
  O  O3  1  0.06248885  0.17425091  0.84711804  1
loop_
_geom_bond_atom_site_label_1
_geom_bond_atom_site_label_2
_geom_bond_distance
_geom_bond_site_symmetry_2
N0 Ta0 2.053470 1_555
N0 Ta1 2.078020 1_555
N0 Ta2 2.131014 1_556
N0 Ta3 2.163905 1_566
N1 Ta1 2.053470 1_545
N1 Ta0 2.078020 1_555
N1 Ta3 2.131014 1_555
N1 Ta2 2.163905 1_555
N2 Ta2 2.053470 1_555
N2 Ta3 2.078020 1_555
N2 Ta0 2.131014 1_554
N2 Ta1 2.163905 1_544
N3 Ta3 2.053470 1_565
N3 Ta2 2.078020 1_555
N3 Ta1 2.131014 1_555
N3 Ta0 2.163905 1_555
O0 Ta3 2.011941 1_555
O0 Ta2 2.065679 1_455
O0 Ta0 2.164027 1_555
O1 Ta2 2.011941 1_555
O1 Ta3 2.065679 1_665
O1 Ta1 2.164027 1_554
O2 Ta1 2.011941 1_555
O2 Ta0 2.065679 1_655
O2 Ta2 2.164027 1_555
O3 Ta0 2.011941 1_555
O3 Ta1 2.065679 1_445
O3 Ta3 2.164027 1_556
