# generated using pymatgen
data_MgGeO3
_symmetry_space_group_name_H-M   'P 1'
_cell_length_a   5.33724565
_cell_length_b   8.92147031
_cell_length_c   18.81824604
_cell_angle_alpha   90.00000000
_cell_angle_beta   90.00000000
_cell_angle_gamma   90.00000000
_symmetry_Int_Tables_number   1
_chemical_formula_structural   MgGeO3
_chemical_formula_sum   'Mg16 Ge16 O48'
_cell_volume   896.05108262
_cell_formula_units_Z   16
loop_
 _symmetry_equiv_pos_site_id
 _symmetry_equiv_pos_as_xyz
  1  'x, y, z'
loop_
 _atom_site_type_symbol
 _atom_site_label
 _atom_site_symmetry_multiplicity
 _atom_site_fract_x
 _atom_site_fract_y
 _atom_site_fract_z
 _atom_site_occupancy
  Mg  Mg0  1  0.65132437  0.65739386  0.87683026  1
  Mg  Mg1  1  0.15132437  0.34260614  0.62316974  1
  Mg  Mg2  1  0.84867563  0.15739386  0.12316974  1
  Mg  Mg3  1  0.34867563  0.84260614  0.37683026  1
  Mg  Mg4  1  0.34867563  0.34260614  0.12316974  1
  Mg  Mg5  1  0.84867563  0.65739386  0.37683026  1
  Mg  Mg6  1  0.15132437  0.84260614  0.87683026  1
  Mg  Mg7  1  0.65132437  0.15739386  0.62316974  1
  Mg  Mg8  1  0.65881385  0.51064076  0.62271414  1
  Mg  Mg9  1  0.15881385  0.48935924  0.87728586  1
  Mg  Mg10  1  0.84118615  0.01064076  0.37728586  1
  Mg  Mg11  1  0.34118615  0.98935924  0.12271414  1
  Mg  Mg12  1  0.34118615  0.48935924  0.37728586  1
  Mg  Mg13  1  0.84118615  0.51064076  0.12271414  1
  Mg  Mg14  1  0.15881385  0.98935924  0.62271414  1
  Mg  Mg15  1  0.65881385  0.01064076  0.87728586  1
  Ge  Ge0  1  0.96126041  0.65449197  0.72916951  1
  Ge  Ge1  1  0.46126041  0.34550803  0.77083049  1
  Ge  Ge2  1  0.53873959  0.15449197  0.27083049  1
  Ge  Ge3  1  0.03873959  0.84550803  0.22916951  1
  Ge  Ge4  1  0.03873959  0.34550803  0.27083049  1
  Ge  Ge5  1  0.53873959  0.65449197  0.22916951  1
  Ge  Ge6  1  0.46126041  0.84550803  0.72916951  1
  Ge  Ge7  1  0.96126041  0.15449197  0.77083049  1
  Ge  Ge8  1  0.19440879  0.65997802  0.52789514  1
  Ge  Ge9  1  0.69440879  0.34002198  0.97210486  1
  Ge  Ge10  1  0.30559121  0.15997802  0.47210486  1
  Ge  Ge11  1  0.80559121  0.84002198  0.02789514  1
  Ge  Ge12  1  0.80559121  0.34002198  0.47210486  1
  Ge  Ge13  1  0.30559121  0.65997802  0.02789514  1
  Ge  Ge14  1  0.69440879  0.84002198  0.52789514  1
  Ge  Ge15  1  0.19440879  0.15997802  0.97210486  1
  O  O0  1  0.37127902  0.32284556  0.94411734  1
  O  O1  1  0.87127902  0.67715444  0.55588266  1
  O  O2  1  0.12872098  0.82284556  0.05588266  1
  O  O3  1  0.62872098  0.17715444  0.44411734  1
  O  O4  1  0.62872098  0.67715444  0.05588266  1
  O  O5  1  0.12872098  0.32284556  0.44411734  1
  O  O6  1  0.87127902  0.17715444  0.94411734  1
  O  O7  1  0.37127902  0.82284556  0.55588266  1
  O  O8  1  0.33159342  0.01129613  0.93009303  1
  O  O9  1  0.83159342  0.98870387  0.56990697  1
  O  O10  1  0.16840658  0.51129613  0.06990697  1
  O  O11  1  0.66840658  0.48870387  0.43009303  1
  O  O12  1  0.66840658  0.98870387  0.06990697  1
  O  O13  1  0.16840658  0.01129613  0.43009303  1
  O  O14  1  0.83159342  0.48870387  0.93009303  1
  O  O15  1  0.33159342  0.51129613  0.56990697  1
  O  O16  1  0.18352104  0.16213230  0.06479698  1
  O  O17  1  0.68352104  0.83786770  0.43520302  1
  O  O18  1  0.31647896  0.66213230  0.93520302  1
  O  O19  1  0.96754367  0.98402703  0.81273946  1
  O  O20  1  0.81647896  0.33786770  0.56479698  1
  O  O21  1  0.31647896  0.16213230  0.56479698  1
  O  O22  1  0.68352104  0.33786770  0.06479698  1
  O  O23  1  0.18352104  0.66213230  0.43520302  1
  O  O24  1  0.16254009  0.29215867  0.80719197  1
  O  O25  1  0.66254009  0.70784133  0.69280803  1
  O  O26  1  0.33745991  0.79215867  0.19280803  1
  O  O27  1  0.83745991  0.20784133  0.30719197  1
  O  O28  1  0.83745991  0.70784133  0.19280803  1
  O  O29  1  0.33745991  0.29215867  0.30719197  1
  O  O30  1  0.66254009  0.20784133  0.80719197  1
  O  O31  1  0.16254009  0.79215867  0.69280803  1
  O  O32  1  0.98133499  0.65996331  0.82106799  1
  O  O33  1  0.48133499  0.34003669  0.67893201  1
  O  O34  1  0.51866501  0.15996331  0.17893201  1
  O  O35  1  0.01866501  0.84003669  0.32106799  1
  O  O36  1  0.01866501  0.34003669  0.17893201  1
  O  O37  1  0.51866501  0.65996331  0.32106799  1
  O  O38  1  0.48133499  0.84003669  0.82106799  1
  O  O39  1  0.98133499  0.15996331  0.67893201  1
  O  O40  1  0.96754367  0.48402703  0.68726054  1
  O  O41  1  0.46754367  0.51597297  0.81273946  1
  O  O42  1  0.53245633  0.98402703  0.31273946  1
  O  O43  1  0.03245633  0.01597297  0.18726054  1
  O  O44  1  0.03245633  0.51597297  0.31273946  1
  O  O45  1  0.53245633  0.48402703  0.18726054  1
  O  O46  1  0.46754367  0.01597297  0.68726054  1
  O  O47  1  0.81647896  0.83786770  0.93520302  1
loop_
_geom_bond_atom_site_label_1
_geom_bond_atom_site_label_2
_geom_bond_distance
_geom_bond_site_symmetry_2
Mg0 O41 2.002147 1_555
Mg0 O14 2.048232 1_555
Mg0 O32 2.050367 1_555
Mg0 O18 2.098176 1_555
Mg0 O47 2.139166 1_555
Mg0 O38 2.139945 1_555
Mg1 O40 2.002147 1_455
Mg1 O15 2.048232 1_555
Mg1 O33 2.050367 1_555
Mg1 O20 2.098176 1_455
Mg1 O21 2.139166 1_555
Mg1 O39 2.139945 1_455
Mg2 O43 2.002147 1_655
Mg2 O12 2.048232 1_545
Mg2 O34 2.050367 1_555
Mg2 O16 2.098176 1_655
Mg2 O22 2.139166 1_555
Mg2 O36 2.139945 1_655
Mg3 O42 2.002147 1_555
Mg3 O13 2.048232 1_565
Mg3 O35 2.050367 1_555
Mg3 O17 2.098176 1_555
Mg3 O23 2.139166 1_555
Mg3 O37 2.139945 1_555
Mg4 O45 2.002147 1_555
Mg4 O10 2.048232 1_555
Mg4 O36 2.050367 1_555
Mg4 O22 2.098176 1_555
Mg4 O16 2.139166 1_555
Mg4 O34 2.139945 1_555
Mg5 O44 2.002147 1_655
Mg5 O11 2.048232 1_555
Mg5 O37 2.050367 1_555
Mg5 O23 2.098176 1_655
Mg5 O17 2.139166 1_555
Mg5 O35 2.139945 1_655
Mg6 O19 2.002147 1_455
Mg6 O8 2.048232 1_565
Mg6 O38 2.050367 1_555
Mg6 O47 2.098176 1_455
Mg6 O18 2.139166 1_555
Mg6 O32 2.139945 1_455
Mg7 O46 2.002147 1_555
Mg7 O9 2.048232 1_545
Mg7 O39 2.050367 1_555
Mg7 O21 2.098176 1_555
Mg7 O20 2.139166 1_555
Mg7 O33 2.139945 1_555
Mg8 O15 2.009392 1_555
Mg8 O40 2.060797 1_555
Mg8 O20 2.066853 1_555
Mg8 O33 2.081605 1_555
Mg8 O25 2.198972 1_555
Mg8 O1 2.252653 1_555
Mg9 O14 2.009392 1_455
Mg9 O41 2.060797 1_555
Mg9 O18 2.066853 1_555
Mg9 O32 2.081605 1_455
Mg9 O24 2.198972 1_555
Mg9 O0 2.252653 1_555
Mg10 O13 2.009392 1_655
Mg10 O42 2.060797 1_545
Mg10 O17 2.066853 1_545
Mg10 O35 2.081605 1_645
Mg10 O27 2.198972 1_555
Mg10 O3 2.252653 1_555
Mg11 O12 2.009392 1_555
Mg11 O43 2.060797 1_565
Mg11 O16 2.066853 1_565
Mg11 O34 2.081605 1_565
Mg11 O26 2.198972 1_555
Mg11 O2 2.252653 1_555
Mg12 O11 2.009392 1_555
Mg12 O44 2.060797 1_555
Mg12 O23 2.066853 1_555
Mg12 O37 2.081605 1_555
Mg12 O29 2.198972 1_555
Mg12 O5 2.252653 1_555
Mg13 O10 2.009392 1_655
Mg13 O45 2.060797 1_555
Mg13 O22 2.066853 1_555
Mg13 O36 2.081605 1_655
Mg13 O28 2.198972 1_555
Mg13 O4 2.252653 1_555
Mg14 O9 2.009392 1_455
Mg14 O46 2.060797 1_565
Mg14 O21 2.066853 1_565
Mg14 O39 2.081605 1_465
Mg14 O31 2.198972 1_555
Mg14 O7 2.252653 1_555
Mg15 O8 2.009392 1_555
Mg15 O19 2.060797 1_545
Mg15 O47 2.066853 1_545
Mg15 O38 2.081605 1_545
Mg15 O30 2.198972 1_555
Mg15 O6 2.252653 1_555
Ge0 O40 1.713454 1_555
Ge0 O32 1.733371 1_555
Ge0 O31 1.769388 1_655
Ge0 O25 1.799076 1_555
Ge1 O41 1.713454 1_555
Ge1 O33 1.733371 1_555
Ge1 O30 1.769388 1_555
Ge1 O24 1.799076 1_555
Ge2 O42 1.713454 1_545
Ge2 O34 1.733371 1_555
Ge2 O29 1.769388 1_555
Ge2 O27 1.799076 1_555
Ge3 O43 1.713454 1_565
Ge3 O35 1.733371 1_555
Ge3 O28 1.769388 1_455
Ge3 O26 1.799076 1_555
Ge4 O44 1.713454 1_555
Ge4 O36 1.733371 1_555
Ge4 O27 1.769388 1_455
Ge4 O29 1.799076 1_555
Ge5 O45 1.713454 1_555
Ge5 O37 1.733371 1_555
Ge5 O26 1.769388 1_555
Ge5 O28 1.799076 1_555
Ge6 O46 1.713454 1_565
Ge6 O38 1.733371 1_555
Ge6 O25 1.769388 1_555
Ge6 O31 1.799076 1_555
Ge7 O19 1.713454 1_545
Ge7 O39 1.733371 1_555
Ge7 O24 1.769388 1_655
Ge7 O30 1.799076 1_555
Ge8 O15 1.708985 1_555
Ge8 O23 1.745377 1_555
Ge8 O1 1.809750 1_455
Ge8 O7 1.811018 1_555
Ge9 O14 1.708985 1_555
Ge9 O22 1.745377 1_556
Ge9 O0 1.809750 1_555
Ge9 O6 1.811018 1_555
Ge10 O13 1.708985 1_555
Ge10 O21 1.745377 1_555
Ge10 O3 1.809750 1_555
Ge10 O5 1.811018 1_555
Ge11 O12 1.708985 1_555
Ge11 O47 1.745377 1_554
Ge11 O2 1.809750 1_655
Ge11 O4 1.811018 1_555
Ge12 O11 1.708985 1_555
Ge12 O20 1.745377 1_555
Ge12 O5 1.809750 1_655
Ge12 O3 1.811018 1_555
Ge13 O10 1.708985 1_555
Ge13 O18 1.745377 1_554
Ge13 O4 1.809750 1_555
Ge13 O2 1.811018 1_555
Ge14 O9 1.708985 1_555
Ge14 O17 1.745377 1_555
Ge14 O7 1.809750 1_555
Ge14 O1 1.811018 1_555
Ge15 O8 1.708985 1_555
Ge15 O16 1.745377 1_556
Ge15 O6 1.809750 1_455
Ge15 O0 1.811018 1_555
