# generated using pymatgen
data_Lu2Fe14B
_symmetry_space_group_name_H-M   'P 1'
_cell_length_a   8.70044700
_cell_length_b   8.70044700
_cell_length_c   11.77481800
_cell_angle_alpha   90.00000000
_cell_angle_beta   90.00000000
_cell_angle_gamma   90.00000000
_symmetry_Int_Tables_number   1
_chemical_formula_structural   Lu2Fe14B
_chemical_formula_sum   'Lu8 Fe56 B4'
_cell_volume   891.32755895
_cell_formula_units_Z   4
loop_
 _symmetry_equiv_pos_site_id
 _symmetry_equiv_pos_as_xyz
  1  'x, y, z'
loop_
 _atom_site_type_symbol
 _atom_site_label
 _atom_site_symmetry_multiplicity
 _atom_site_fract_x
 _atom_site_fract_y
 _atom_site_fract_z
 _atom_site_occupancy
  Lu  Lu0  1  0.85654000  0.14346000  0.00000000  1
  Lu  Lu1  1  0.35654000  0.35654000  0.50000000  1
  Lu  Lu2  1  0.64346000  0.64346000  0.50000000  1
  Lu  Lu3  1  0.14346000  0.85654000  0.00000000  1
  Lu  Lu4  1  0.73400000  0.73400000  0.00000000  1
  Lu  Lu5  1  0.76600000  0.23400000  0.50000000  1
  Lu  Lu6  1  0.23400000  0.76600000  0.50000000  1
  Lu  Lu7  1  0.26600000  0.26600000  0.00000000  1
  Fe  Fe0  1  0.35798500  0.03728100  0.17379500  1
  Fe  Fe1  1  0.64201500  0.96271900  0.17379500  1
  Fe  Fe2  1  0.03728100  0.35798500  0.82620500  1
  Fe  Fe3  1  0.53728100  0.14201500  0.67379500  1
  Fe  Fe4  1  0.46271900  0.85798500  0.67379500  1
  Fe  Fe5  1  0.14201500  0.53728100  0.32620500  1
  Fe  Fe6  1  0.85798500  0.46271900  0.32620500  1
  Fe  Fe7  1  0.96271900  0.64201500  0.82620500  1
  Fe  Fe8  1  0.64201500  0.96271900  0.82620500  1
  Fe  Fe9  1  0.35798500  0.03728100  0.82620500  1
  Fe  Fe10  1  0.96271900  0.64201500  0.17379500  1
  Fe  Fe11  1  0.46271900  0.85798500  0.32620500  1
  Fe  Fe12  1  0.53728100  0.14201500  0.32620500  1
  Fe  Fe13  1  0.85798500  0.46271900  0.67379500  1
  Fe  Fe14  1  0.14201500  0.53728100  0.67379500  1
  Fe  Fe15  1  0.03728100  0.35798500  0.17379500  1
  Fe  Fe16  1  0.56564600  0.22427000  0.12559600  1
  Fe  Fe17  1  0.43435400  0.77573000  0.12559600  1
  Fe  Fe18  1  0.22427000  0.56564600  0.87440400  1
  Fe  Fe19  1  0.72427000  0.93435400  0.62559600  1
  Fe  Fe20  1  0.27573000  0.06564600  0.62559600  1
  Fe  Fe21  1  0.93435400  0.72427000  0.37440400  1
  Fe  Fe22  1  0.06564600  0.27573000  0.37440400  1
  Fe  Fe23  1  0.77573000  0.43435400  0.87440400  1
  Fe  Fe24  1  0.43435400  0.77573000  0.87440400  1
  Fe  Fe25  1  0.56564600  0.22427000  0.87440400  1
  Fe  Fe26  1  0.77573000  0.43435400  0.12559600  1
  Fe  Fe27  1  0.27573000  0.06564600  0.37440400  1
  Fe  Fe28  1  0.72427000  0.93435400  0.37440400  1
  Fe  Fe29  1  0.06564600  0.27573000  0.62559600  1
  Fe  Fe30  1  0.93435400  0.72427000  0.62559600  1
  Fe  Fe31  1  0.22427000  0.56564600  0.12559600  1
  Fe  Fe32  1  0.68321500  0.68321500  0.75401200  1
  Fe  Fe33  1  0.31678500  0.31678500  0.75401200  1
  Fe  Fe34  1  0.68321500  0.68321500  0.24598800  1
  Fe  Fe35  1  0.18321500  0.81678500  0.25401200  1
  Fe  Fe36  1  0.81678500  0.18321500  0.25401200  1
  Fe  Fe37  1  0.81678500  0.18321500  0.74598800  1
  Fe  Fe38  1  0.18321500  0.81678500  0.74598800  1
  Fe  Fe39  1  0.31678500  0.31678500  0.24598800  1
  Fe  Fe40  1  0.90313000  0.90313000  0.80191600  1
  Fe  Fe41  1  0.09687000  0.09687000  0.80191600  1
  Fe  Fe42  1  0.90313000  0.90313000  0.19808400  1
  Fe  Fe43  1  0.40313000  0.59687000  0.30191600  1
  Fe  Fe44  1  0.59687000  0.40313000  0.30191600  1
  Fe  Fe45  1  0.59687000  0.40313000  0.69808400  1
  Fe  Fe46  1  0.40313000  0.59687000  0.69808400  1
  Fe  Fe47  1  0.09687000  0.09687000  0.19808400  1
  Fe  Fe48  1  0.00000000  0.00000000  0.38383100  1
  Fe  Fe49  1  0.50000000  0.50000000  0.88383100  1
  Fe  Fe50  1  0.50000000  0.50000000  0.11616900  1
  Fe  Fe51  1  0.00000000  0.00000000  0.61616900  1
  Fe  Fe52  1  0.50000000  0.00000000  0.00000000  1
  Fe  Fe53  1  0.50000000  0.00000000  0.50000000  1
  Fe  Fe54  1  0.00000000  0.50000000  0.50000000  1
  Fe  Fe55  1  0.00000000  0.50000000  0.00000000  1
  B  B0  1  0.62540200  0.37459800  0.00000000  1
  B  B1  1  0.12540200  0.12540200  0.50000000  1
  B  B2  1  0.87459800  0.87459800  0.50000000  1
  B  B3  1  0.37459800  0.62540200  0.00000000  1
loop_
_geom_bond_atom_site_label_1
_geom_bond_atom_site_label_2
_geom_bond_distance
_geom_bond_site_symmetry_2
Fe0 Fe47 2.347710 1_555
Fe0 Fe52 2.412400 1_555
Fe0 Fe17 2.437619 1_545
Fe0 Fe27 2.480473 1_555
Fe0 Fe16 2.496634 1_555
Fe0 Fe12 2.546447 1_555
Fe0 Fe11 2.546447 1_545
Fe0 Fe1 2.554919 1_545
Fe0 Fe39 2.600921 1_555
Fe0 Fe35 2.623857 1_545
Fe0 Lu7 2.964490 1_555
Fe0 Lu3 3.185012 1_545
Fe1 Fe42 2.347710 1_555
Fe1 Fe52 2.412400 1_565
Fe1 Fe16 2.437619 1_565
Fe1 Fe28 2.480473 1_555
Fe1 Fe17 2.496634 1_555
Fe1 Fe12 2.546447 1_565
Fe1 Fe11 2.546447 1_555
Fe1 Fe34 2.600921 1_555
Fe1 Fe36 2.623857 1_565
Fe1 Lu4 2.964490 1_555
Fe1 Lu0 3.185012 1_565
Fe2 Fe41 2.347710 1_555
Fe2 Fe55 2.412400 1_556
Fe2 Fe23 2.437619 1_455
Fe2 Fe29 2.480473 1_555
Fe2 Fe7 2.554919 1_455
Fe2 Fe33 2.600921 1_555
Fe2 Fe37 2.623857 1_455
Fe2 Lu7 2.964490 1_556
Fe2 Lu0 3.185012 1_456
Fe3 Fe45 2.347710 1_555
Fe3 Fe53 2.412400 1_555
Fe3 Fe9 2.546447 1_555
Fe3 Fe8 2.546447 1_545
Fe3 Fe4 2.554919 1_545
Fe3 Fe37 2.600921 1_555
Fe3 Fe33 2.623857 1_555
Fe3 Lu5 2.964490 1_555
Fe3 Lu1 3.185012 1_555
Fe4 Fe46 2.347710 1_555
Fe4 Fe53 2.412400 1_565
Fe4 Fe9 2.546447 1_565
Fe4 Fe8 2.546447 1_555
Fe4 Lu6 2.964490 1_555
Fe4 Lu2 3.185012 1_555
Fe5 Fe54 2.412400 1_555
Fe5 Fe6 2.554919 1_455
Fe5 Lu6 2.964490 1_555
Fe5 Lu1 3.185012 1_555
Fe6 Lu5 2.964490 1_555
Fe6 Lu2 3.185012 1_555
Fe7 Lu4 2.964490 1_556
Fe7 Lu3 3.185012 1_656
Fe8 Fe9 2.554919 1_565
Fe8 Lu4 2.964490 1_556
Fe8 Lu0 3.185012 1_566
Fe9 Lu7 2.964490 1_556
Fe9 Lu3 3.185012 1_546
Fe10 Fe42 2.347710 1_555
Fe10 Fe55 2.412400 1_655
Fe10 Fe31 2.437619 1_655
Fe10 Fe21 2.480473 1_555
Fe10 Fe26 2.496634 1_555
Fe10 Fe5 2.546447 1_655
Fe10 Fe6 2.546447 1_555
Fe10 Fe15 2.554919 1_655
Fe10 Fe34 2.600921 1_555
Fe10 Fe35 2.623857 1_655
Fe10 Lu4 2.964490 1_555
Fe10 Lu3 3.185012 1_655
Fe11 Fe43 2.347710 1_555
Fe11 Fe53 2.412400 1_565
Fe11 Fe28 2.437619 1_555
Fe11 Fe17 2.480473 1_555
Fe11 Fe27 2.496634 1_565
Fe11 Fe12 2.554919 1_565
Fe11 Fe35 2.600921 1_555
Fe11 Fe34 2.623857 1_555
Fe11 Lu6 2.964490 1_555
Fe11 Lu2 3.185012 1_555
Fe12 Fe44 2.347710 1_555
Fe12 Fe53 2.412400 1_555
Fe12 Fe27 2.437619 1_555
Fe12 Fe16 2.480473 1_555
Fe12 Fe28 2.496634 1_545
Fe12 Fe36 2.600921 1_555
Fe12 Fe39 2.623857 1_555
Fe12 Lu5 2.964490 1_555
Fe12 Lu1 3.185012 1_555
Fe13 Fe45 2.347710 1_555
Fe13 Fe54 2.412400 1_655
Fe13 Fe30 2.437619 1_555
Fe13 Fe23 2.480473 1_555
Fe13 Fe29 2.496634 1_655
Fe13 Fe2 2.546447 1_655
Fe13 Fe7 2.546447 1_555
Fe13 Fe14 2.554919 1_655
Fe13 Fe37 2.600921 1_555
Fe13 Fe32 2.623857 1_555
Fe13 Lu5 2.964490 1_555
Fe13 Lu2 3.185012 1_555
Fe14 Fe46 2.347710 1_555
Fe14 Fe54 2.412400 1_555
Fe14 Fe29 2.437619 1_555
Fe14 Fe18 2.480473 1_555
Fe14 Fe30 2.496634 1_455
Fe14 Fe7 2.546447 1_455
Fe14 Fe2 2.546447 1_555
Fe14 Fe38 2.600921 1_555
Fe14 Fe33 2.623857 1_555
Fe14 Lu6 2.964490 1_555
Fe14 Lu1 3.185012 1_555
Fe15 Fe47 2.347710 1_555
Fe15 Fe55 2.412400 1_555
Fe15 Fe26 2.437619 1_455
Fe15 Fe22 2.480473 1_555
Fe15 Fe31 2.496634 1_555
Fe15 Fe5 2.546447 1_555
Fe15 Fe6 2.546447 1_455
Fe15 Fe39 2.600921 1_555
Fe15 Fe36 2.623857 1_455
Fe15 Lu7 2.964490 1_555
Fe15 Lu0 3.185012 1_455
Fe16 Fe52 2.514089 1_555
Fe16 Fe44 2.608789 1_555
Fe16 Fe36 2.681097 1_555
Fe16 Fe39 2.710271 1_555
Fe16 Lu0 3.014445 1_555
Fe16 Lu7 3.019206 1_555
Fe17 Fe52 2.514089 1_565
Fe17 Fe43 2.608789 1_555
Fe17 Fe35 2.681097 1_555
Fe17 Fe34 2.710271 1_555
Fe17 Lu3 3.014445 1_555
Fe17 Lu4 3.019206 1_555
Fe18 Fe7 2.437619 1_455
Fe18 Fe2 2.496634 1_555
Fe18 Fe55 2.514089 1_556
Fe18 Fe46 2.608789 1_555
Fe18 Fe38 2.681097 1_555
Fe18 Fe33 2.710271 1_555
Fe18 Lu3 3.014445 1_556
Fe18 Lu7 3.019206 1_556
Fe19 Fe4 2.437619 1_555
Fe19 Fe8 2.480473 1_555
Fe19 Fe3 2.496634 1_565
Fe19 Fe53 2.514089 1_565
Fe19 Fe40 2.608789 1_555
Fe19 Fe32 2.681097 1_555
Fe19 Fe37 2.710271 1_565
Fe19 Lu2 3.014445 1_555
Fe19 Lu5 3.019206 1_565
Fe20 Fe3 2.437619 1_555
Fe20 Fe9 2.480473 1_555
Fe20 Fe4 2.496634 1_545
Fe20 Fe53 2.514089 1_555
Fe20 Fe41 2.608789 1_555
Fe20 Fe33 2.681097 1_555
Fe20 Fe38 2.710271 1_545
Fe20 Lu1 3.014445 1_555
Fe20 Lu6 3.019206 1_545
Fe21 Fe6 2.437619 1_555
Fe21 Fe5 2.496634 1_655
Fe21 Fe54 2.514089 1_655
Fe21 Fe42 2.608789 1_555
Fe21 Fe34 2.681097 1_555
Fe21 Fe35 2.710271 1_655
Fe21 Lu2 3.014445 1_555
Fe21 Lu6 3.019206 1_655
Fe22 Fe5 2.437619 1_555
Fe22 Fe6 2.496634 1_455
Fe22 Fe54 2.514089 1_555
Fe22 Fe47 2.608789 1_555
Fe22 Fe39 2.681097 1_555
Fe22 Fe36 2.710271 1_455
Fe22 Lu1 3.014445 1_555
Fe22 Lu5 3.019206 1_455
Fe23 Fe7 2.496634 1_555
Fe23 Fe55 2.514089 1_656
Fe23 Fe45 2.608789 1_555
Fe23 Fe37 2.681097 1_555
Fe23 Fe32 2.710271 1_555
Fe23 Lu0 3.014445 1_556
Fe23 Lu4 3.019206 1_556
Fe24 Fe9 2.437619 1_565
Fe24 Fe4 2.480473 1_555
Fe24 Fe8 2.496634 1_555
Fe24 Fe52 2.514089 1_566
Fe24 Fe46 2.608789 1_555
Fe24 Fe38 2.681097 1_555
Fe24 Fe32 2.710271 1_555
Fe24 Lu3 3.014445 1_556
Fe24 Lu4 3.019206 1_556
Fe25 Fe8 2.437619 1_545
Fe25 Fe3 2.480473 1_555
Fe25 Fe9 2.496634 1_555
Fe25 Fe52 2.514089 1_556
Fe25 Fe45 2.608789 1_555
Fe25 Fe37 2.681097 1_555
Fe25 Fe33 2.710271 1_555
Fe25 Lu0 3.014445 1_556
Fe25 Lu7 3.019206 1_556
Fe26 Fe6 2.480473 1_555
Fe26 Fe55 2.514089 1_655
Fe26 Fe44 2.608789 1_555
Fe26 Fe36 2.681097 1_555
Fe26 Fe34 2.710271 1_555
Fe26 Lu0 3.014445 1_555
Fe26 Lu4 3.019206 1_555
Fe27 Fe53 2.514089 1_555
Fe27 Fe47 2.608789 1_555
Fe27 Fe39 2.681097 1_555
Fe27 Fe35 2.710271 1_545
Fe27 Lu1 3.014445 1_555
Fe27 Lu6 3.019206 1_545
Fe28 Fe53 2.514089 1_565
Fe28 Fe42 2.608789 1_555
Fe28 Fe34 2.681097 1_555
Fe28 Fe36 2.710271 1_565
Fe28 Lu2 3.014445 1_555
Fe28 Lu5 3.019206 1_565
Fe29 Fe54 2.514089 1_555
Fe29 Fe41 2.608789 1_555
Fe29 Fe33 2.681097 1_555
Fe29 Fe37 2.710271 1_455
Fe29 Lu1 3.014445 1_555
Fe29 Lu5 3.019206 1_455
Fe30 Fe7 2.480473 1_555
Fe30 Fe54 2.514089 1_655
Fe30 Fe40 2.608789 1_555
Fe30 Fe32 2.681097 1_555
Fe30 Fe38 2.710271 1_655
Fe30 Lu2 3.014445 1_555
Fe30 Lu6 3.019206 1_655
Fe31 Fe5 2.480473 1_555
Fe31 Fe55 2.514089 1_555
Fe31 Fe43 2.608789 1_555
Fe31 Fe35 2.681097 1_555
Fe31 Fe39 2.710271 1_555
Fe31 Lu3 3.014445 1_555
Fe31 Lu7 3.019206 1_555
Fe32 Fe7 2.600921 1_555
Fe32 Fe8 2.600921 1_555
Fe32 Fe4 2.623857 1_555
Fe32 Fe46 2.633695 1_555
Fe32 Fe45 2.633695 1_555
Fe32 Fe49 2.723712 1_555
Fe32 Fe40 2.764064 1_555
Fe32 Lu4 2.963101 1_556
Fe32 Lu2 3.030681 1_555
Fe33 Fe9 2.600921 1_555
Fe33 Fe46 2.633695 1_555
Fe33 Fe45 2.633695 1_555
Fe33 Fe49 2.723712 1_555
Fe33 Fe41 2.764064 1_555
Fe33 Lu7 2.963101 1_556
Fe33 Lu1 3.030681 1_555
Fe34 Fe6 2.623857 1_555
Fe34 Fe43 2.633695 1_555
Fe34 Fe44 2.633695 1_555
Fe34 Fe50 2.723712 1_555
Fe34 Fe42 2.764064 1_555
Fe34 Lu4 2.963101 1_555
Fe34 Lu2 3.030681 1_555
Fe35 Fe5 2.600921 1_555
Fe35 Fe42 2.633695 1_455
Fe35 Fe47 2.633695 1_565
Fe35 Fe48 2.723712 1_565
Fe35 Fe43 2.764064 1_555
Fe35 Lu6 2.963101 1_555
Fe35 Lu3 3.030681 1_555
Fe36 Fe6 2.600921 1_555
Fe36 Fe47 2.633695 1_655
Fe36 Fe42 2.633695 1_545
Fe36 Fe48 2.723712 1_655
Fe36 Fe44 2.764064 1_555
Fe36 Lu5 2.963101 1_555
Fe36 Lu0 3.030681 1_555
Fe37 Fe8 2.623857 1_545
Fe37 Fe41 2.633695 1_655
Fe37 Fe40 2.633695 1_545
Fe37 Fe51 2.723712 1_655
Fe37 Fe45 2.764064 1_555
Fe37 Lu5 2.963101 1_555
Fe37 Lu0 3.030681 1_556
Fe38 Fe4 2.600921 1_555
Fe38 Fe9 2.623857 1_565
Fe38 Fe7 2.623857 1_455
Fe38 Fe40 2.633695 1_455
Fe38 Fe41 2.633695 1_565
Fe38 Fe51 2.723712 1_565
Fe38 Fe46 2.764064 1_555
Fe38 Lu6 2.963101 1_555
Fe38 Lu3 3.030681 1_556
Fe39 Fe5 2.623857 1_555
Fe39 Fe43 2.633695 1_555
Fe39 Fe44 2.633695 1_555
Fe39 Fe50 2.723712 1_555
Fe39 Fe47 2.764064 1_555
Fe39 Lu7 2.963101 1_555
Fe39 Lu1 3.030681 1_555
Fe40 Fe8 2.347710 1_555
Fe40 Fe7 2.347710 1_555
Fe40 Fe41 2.383833 1_665
Fe40 Fe51 2.490830 1_665
Fe40 Lu4 3.125823 1_556
Fe40 Lu0 3.158577 1_566
Fe40 Lu3 3.158577 1_656
Fe41 Fe9 2.347710 1_555
Fe41 Fe51 2.490830 1_555
Fe41 Lu7 3.125823 1_556
Fe41 Lu3 3.158577 1_546
Fe41 Lu0 3.158577 1_456
Fe42 Fe47 2.383833 1_665
Fe42 Fe48 2.490830 1_665
Fe42 Lu4 3.125823 1_555
Fe42 Lu0 3.158577 1_565
Fe42 Lu3 3.158577 1_655
Fe43 Fe5 2.347710 1_555
Fe43 Fe44 2.383833 1_555
Fe43 Fe50 2.490830 1_555
Fe43 Lu6 3.125823 1_555
Fe43 Lu1 3.158577 1_555
Fe43 Lu2 3.158577 1_555
Fe44 Fe6 2.347710 1_555
Fe44 Fe50 2.490830 1_555
Fe44 Lu5 3.125823 1_555
Fe44 Lu1 3.158577 1_555
Fe44 Lu2 3.158577 1_555
Fe45 Fe46 2.383833 1_555
Fe45 Fe49 2.490830 1_555
Fe45 Lu5 3.125823 1_555
Fe45 Lu1 3.158577 1_555
Fe45 Lu2 3.158577 1_555
Fe46 Fe49 2.490830 1_555
Fe46 Lu6 3.125823 1_555
Fe46 Lu1 3.158577 1_555
Fe46 Lu2 3.158577 1_555
Fe47 Fe48 2.490830 1_555
Fe47 Lu7 3.125823 1_555
Fe47 Lu3 3.158577 1_545
Fe47 Lu0 3.158577 1_455
Fe48 Lu6 3.187614 1_545
Fe48 Lu5 3.187614 1_455
Fe49 Lu7 3.187614 1_556
Fe49 Lu4 3.187614 1_556
Fe50 Lu4 3.187614 1_555
Fe50 Lu7 3.187614 1_555
Fe51 Lu5 3.187614 1_455
Fe51 Lu6 3.187614 1_545
Fe52 Fe8 2.412400 1_544
Fe52 Fe9 2.412400 1_554
Fe52 Lu4 3.082366 1_545
Fe52 Lu7 3.082366 1_555
Fe52 Lu0 3.343752 1_555
Fe52 Lu3 3.343752 1_545
Fe53 Lu6 3.082366 1_545
Fe53 Lu5 3.082366 1_555
Fe53 Lu2 3.343752 1_545
Fe53 Lu1 3.343752 1_555
Fe54 Fe6 2.412400 1_455
Fe54 Lu6 3.082366 1_555
Fe54 Lu5 3.082366 1_455
Fe54 Lu2 3.343752 1_455
Fe54 Lu1 3.343752 1_555
Fe55 Fe7 2.412400 1_454
Fe55 Lu4 3.082366 1_455
Fe55 Lu7 3.082366 1_555
Fe55 Lu0 3.343752 1_455
Fe55 Lu3 3.343752 1_555
B0 Fe16 2.041571 1_555
B0 Fe26 2.041571 1_555
B0 Fe25 2.041571 1_554
B0 Fe23 2.041571 1_554
B0 Fe49 2.062004 1_554
B0 Fe50 2.062004 1_555
B0 Lu0 2.843989 1_555
B1 Fe27 2.041571 1_555
B1 Fe22 2.041571 1_555
B1 Fe29 2.041571 1_555
B1 Fe20 2.041571 1_555
B1 Fe51 2.062004 1_555
B1 Fe48 2.062004 1_555
B1 Lu1 2.843989 1_555
B2 Fe28 2.041571 1_555
B2 Fe21 2.041571 1_555
B2 Fe30 2.041571 1_555
B2 Fe19 2.041571 1_555
B2 Fe51 2.062004 1_665
B2 Fe48 2.062004 1_665
B2 Lu2 2.843989 1_555
B3 Fe18 2.041571 1_554
B3 Fe17 2.041571 1_555
B3 Fe31 2.041571 1_555
B3 Fe24 2.041571 1_554
B3 Fe49 2.062004 1_554
B3 Fe50 2.062004 1_555
B3 Lu3 2.843989 1_555
