# generated using pymatgen
data_Th(MnSi)2
_symmetry_space_group_name_H-M   'P 1'
_cell_length_a   3.97541716
_cell_length_b   3.97541776
_cell_length_c   5.98208273
_cell_angle_alpha   109.40702677
_cell_angle_beta   109.40702816
_cell_angle_gamma   90.00001107
_symmetry_Int_Tables_number   1
_chemical_formula_structural   Th(MnSi)2
_chemical_formula_sum   'Th1 Mn2 Si2'
_cell_volume   83.45223301
_cell_formula_units_Z   1
loop_
 _symmetry_equiv_pos_site_id
 _symmetry_equiv_pos_as_xyz
  1  'x, y, z'
loop_
 _atom_site_type_symbol
 _atom_site_label
 _atom_site_symmetry_multiplicity
 _atom_site_fract_x
 _atom_site_fract_y
 _atom_site_fract_z
 _atom_site_occupancy
  Th  Th0  1  0.00000000  0.00000000  0.00000000  1
  Mn  Mn0  1  0.25000000  0.75000000  0.50000000  1
  Mn  Mn1  1  0.75000000  0.25000000  0.50000000  1
  Si  Si0  1  0.37949323  0.37949323  0.75898746  1
  Si  Si1  1  0.62050677  0.62050677  0.24101254  1
loop_
_geom_bond_atom_site_label_1
_geom_bond_atom_site_label_2
_geom_bond_distance
_geom_bond_site_symmetry_2
Mn0 Si1 2.412725 1_455
Mn0 Si0 2.412725 1_565
Mn0 Si1 2.412728 1_555
Mn0 Si0 2.412728 1_555
Mn0 Th0 3.304818 1_566
Mn0 Th0 3.304818 1_565
Mn0 Th0 3.304818 1_666
Mn0 Th0 3.304819 1_555
Mn1 Si0 2.412725 1_655
Mn1 Si1 2.412725 1_545
Mn1 Si0 2.412728 1_555
Mn1 Si1 2.412728 1_555
Mn1 Th0 3.304818 1_655
Mn1 Th0 3.304818 1_656
Mn1 Th0 3.304818 1_555
Mn1 Th0 3.304819 1_666
Si0 Si1 2.545318 1_556
Si0 Th0 3.085711 1_556
Si0 Th0 3.085715 1_656
Si0 Th0 3.085715 1_566
Si0 Th0 3.085717 1_666
Si1 Th0 3.085711 1_665
Si1 Th0 3.085715 1_565
Si1 Th0 3.085715 1_655
Si1 Th0 3.085717 1_555
