# generated using pymatgen
data_Ca(CoGe)2
_symmetry_space_group_name_H-M   'P 1'
_cell_length_a   3.94059298
_cell_length_b   3.94059377
_cell_length_c   5.84549446
_cell_angle_alpha   109.69800425
_cell_angle_beta   109.69801250
_cell_angle_gamma   89.99999953
_symmetry_Int_Tables_number   1
_chemical_formula_structural   Ca(CoGe)2
_chemical_formula_sum   'Ca1 Co2 Ge2'
_cell_volume   79.79428534
_cell_formula_units_Z   1
loop_
 _symmetry_equiv_pos_site_id
 _symmetry_equiv_pos_as_xyz
  1  'x, y, z'
loop_
 _atom_site_type_symbol
 _atom_site_label
 _atom_site_symmetry_multiplicity
 _atom_site_fract_x
 _atom_site_fract_y
 _atom_site_fract_z
 _atom_site_occupancy
  Ca  Ca0  1  -0.00000000  -0.00000000  0.00000000  1
  Co  Co0  1  0.75000000  0.25000000  0.50000000  1
  Co  Co1  1  0.25000000  0.75000000  0.50000000  1
  Ge  Ge0  1  0.36710003  0.36710003  0.73420006  1
  Ge  Ge1  1  0.63289997  0.63289997  0.26579994  1
loop_
_geom_bond_atom_site_label_1
_geom_bond_atom_site_label_2
_geom_bond_distance
_geom_bond_site_symmetry_2
Ca0 Ge0 3.103174 1_454
Ca0 Ge1 3.103174 1_545
Ca0 Ge0 3.103174 1_444
Ca0 Ge1 3.103174 1_555
Ca0 Ge0 3.103174 1_554
Ca0 Ge1 3.103174 1_445
Ca0 Ge1 3.103174 1_455
Ca0 Ge0 3.103174 1_544
Ca0 Co0 3.237821 1_555
Ca0 Co1 3.237821 1_444
Ca0 Co1 3.237821 1_545
Ca0 Co0 3.237821 1_454
Ca0 Co0 3.237821 1_444
Ca0 Co1 3.237821 1_555
Ca0 Co0 3.237821 1_455
Ca0 Co1 3.237821 1_544
Co0 Ge0 2.308768 1_655
Co0 Ge0 2.308768 1_555
Co0 Ge1 2.308768 1_555
Co0 Ge1 2.308768 1_545
Co1 Ge1 2.308768 1_455
Co1 Ge1 2.308768 1_555
Co1 Ge0 2.308768 1_555
Co1 Ge0 2.308768 1_565
Ge0 Ge1 2.731703 1_556
