# generated using pymatgen
data_Ag3PO4
_symmetry_space_group_name_H-M   'P 1'
_cell_length_a   6.01414227
_cell_length_b   6.01414227
_cell_length_c   6.01414227
_cell_angle_alpha   90.00000000
_cell_angle_beta   90.00000000
_cell_angle_gamma   90.00000000
_symmetry_Int_Tables_number   1
_chemical_formula_structural   Ag3PO4
_chemical_formula_sum   'Ag6 P2 O8'
_cell_volume   217.53096806
_cell_formula_units_Z   2
loop_
 _symmetry_equiv_pos_site_id
 _symmetry_equiv_pos_as_xyz
  1  'x, y, z'
loop_
 _atom_site_type_symbol
 _atom_site_label
 _atom_site_symmetry_multiplicity
 _atom_site_fract_x
 _atom_site_fract_y
 _atom_site_fract_z
 _atom_site_occupancy
  Ag  Ag0  1  0.00000000  0.50000000  0.25000000  1
  Ag  Ag1  1  0.00000000  0.50000000  0.75000000  1
  Ag  Ag2  1  0.75000000  0.00000000  0.50000000  1
  Ag  Ag3  1  0.50000000  0.25000000  0.00000000  1
  Ag  Ag4  1  0.25000000  0.00000000  0.50000000  1
  Ag  Ag5  1  0.50000000  0.75000000  0.00000000  1
  P  P0  1  0.50000000  0.50000000  0.50000000  1
  P  P1  1  0.00000000  0.00000000  0.00000000  1
  O  O0  1  0.85133944  0.85133944  0.85133944  1
  O  O1  1  0.64866056  0.35133944  0.64866056  1
  O  O2  1  0.35133944  0.64866056  0.64866056  1
  O  O3  1  0.64866056  0.64866056  0.35133944  1
  O  O4  1  0.35133944  0.35133944  0.35133944  1
  O  O5  1  0.14866056  0.14866056  0.85133944  1
  O  O6  1  0.14866056  0.85133944  0.14866056  1
  O  O7  1  0.85133944  0.14866056  0.14866056  1
loop_
_geom_bond_atom_site_label_1
_geom_bond_atom_site_label_2
_geom_bond_distance
_geom_bond_site_symmetry_2
Ag0 O3 2.373942 1_455
Ag0 O6 2.373942 1_555
Ag0 O4 2.373942 1_555
Ag0 O7 2.373942 1_455
Ag1 O1 2.373942 1_455
Ag1 O5 2.373942 1_555
Ag1 O2 2.373942 1_555
Ag1 O0 2.373942 1_455
Ag2 O3 2.373942 1_545
Ag2 O0 2.373942 1_545
Ag2 O1 2.373942 1_555
Ag2 O7 2.373942 1_555
Ag3 O1 2.373942 1_554
Ag3 O5 2.373942 1_554
Ag3 O7 2.373942 1_555
Ag3 O4 2.373942 1_555
Ag4 O2 2.373942 1_545
Ag4 O5 2.373942 1_555
Ag4 O6 2.373942 1_545
Ag4 O4 2.373942 1_555
Ag5 O2 2.373942 1_554
Ag5 O6 2.373942 1_555
Ag5 O0 2.373942 1_554
Ag5 O3 2.373942 1_555
O0 P1 1.548567 1_666
O1 P0 1.548567 1_555
O2 P0 1.548567 1_555
O3 P0 1.548567 1_555
O4 P0 1.548567 1_555
O5 P1 1.548567 1_556
O6 P1 1.548567 1_565
O7 P1 1.548567 1_655
