# generated using pymatgen
data_Sm(SiPt)2
_symmetry_space_group_name_H-M   'P 1'
_cell_length_a   5.79544576
_cell_length_b   5.79544576
_cell_length_c   5.79544576
_cell_angle_alpha   137.18527430
_cell_angle_beta   137.18527430
_cell_angle_gamma   62.15310873
_symmetry_Int_Tables_number   1
_chemical_formula_structural   Sm(SiPt)2
_chemical_formula_sum   'Sm1 Si2 Pt2'
_cell_volume   88.84114787
_cell_formula_units_Z   1
loop_
 _symmetry_equiv_pos_site_id
 _symmetry_equiv_pos_as_xyz
  1  'x, y, z'
loop_
 _atom_site_type_symbol
 _atom_site_label
 _atom_site_symmetry_multiplicity
 _atom_site_fract_x
 _atom_site_fract_y
 _atom_site_fract_z
 _atom_site_occupancy
  Sm  Sm0  1  0.00000000  0.00000000  0.00000000  1
  Si  Si0  1  0.61943300  0.61943300  0.00000000  1
  Si  Si1  1  0.38056700  0.38056700  0.00000000  1
  Pt  Pt0  1  0.75000000  0.25000000  0.50000000  1
  Pt  Pt1  1  0.25000000  0.75000000  0.50000000  1
loop_
_geom_bond_atom_site_label_1
_geom_bond_atom_site_label_2
_geom_bond_distance
_geom_bond_site_symmetry_2
Si0 Si1 2.371306 1_555
Si0 Sm0 3.217904 1_565
Si0 Sm0 3.217904 1_655
Si0 Sm0 3.217904 1_666
Si0 Sm0 3.217904 1_554
Si1 Sm0 3.217904 1_565
Si1 Sm0 3.217904 1_655
Si1 Sm0 3.217904 1_666
Si1 Sm0 3.217904 1_554
Pt0 Si0 2.480859 1_545
Pt0 Si1 2.480859 1_555
Pt0 Si0 2.480859 1_556
Pt0 Si1 2.480859 1_656
Pt0 Sm0 3.260994 1_666
Pt0 Sm0 3.260994 1_555
Pt0 Sm0 3.260994 1_656
Pt0 Sm0 3.260994 1_655
Pt1 Si0 2.480859 1_556
Pt1 Si0 2.480859 1_455
Pt1 Si1 2.480859 1_555
Pt1 Si1 2.480859 1_566
Pt1 Sm0 3.260994 1_666
Pt1 Sm0 3.260994 1_555
Pt1 Sm0 3.260994 1_565
Pt1 Sm0 3.260994 1_566
