# generated using pymatgen
data_TmNiC2
_symmetry_space_group_name_H-M   'P 1'
_cell_length_a   3.49369950
_cell_length_b   3.71402490
_cell_length_c   3.71402477
_cell_angle_alpha   106.06545028
_cell_angle_beta   90.00000000
_cell_angle_gamma   90.00000000
_symmetry_Int_Tables_number   1
_chemical_formula_structural   TmNiC2
_chemical_formula_sum   'Tm1 Ni1 C2'
_cell_volume   46.30994118
_cell_formula_units_Z   1
loop_
 _symmetry_equiv_pos_site_id
 _symmetry_equiv_pos_as_xyz
  1  'x, y, z'
loop_
 _atom_site_type_symbol
 _atom_site_label
 _atom_site_symmetry_multiplicity
 _atom_site_fract_x
 _atom_site_fract_y
 _atom_site_fract_z
 _atom_site_occupancy
  Tm  Tm0  1  0.00000000  0.00329965  0.99670035  1
  Ni  Ni0  1  0.50000000  0.61303828  0.38696172  1
  C  C0  1  0.50000000  0.45645571  0.85079564  1
  C  C1  1  0.50000000  0.14920436  0.54354429  1
loop_
_geom_bond_atom_site_label_1
_geom_bond_atom_site_label_2
_geom_bond_distance
_geom_bond_site_symmetry_2
C0 C1 1.372468 1_555
C0 Ni0 1.913808 1_556
C0 Ni0 1.964777 1_555
C0 Tm0 2.585055 1_555
C0 Tm0 2.585055 1_655
C0 Tm0 2.619336 1_565
C0 Tm0 2.619336 1_665
C1 Ni0 1.913808 1_545
C1 Ni0 1.964778 1_555
C1 Tm0 2.585055 1_555
C1 Tm0 2.585055 1_655
C1 Tm0 2.619336 1_554
C1 Tm0 2.619336 1_654
