# generated using pymatgen
data_TbSi2Ni
_symmetry_space_group_name_H-M   'P 1'
_cell_length_a   3.95877710
_cell_length_b   4.00922977
_cell_length_c   8.39420621
_cell_angle_alpha   103.81628181
_cell_angle_beta   90.00000000
_cell_angle_gamma   90.00000000
_symmetry_Int_Tables_number   1
_chemical_formula_structural   TbSi2Ni
_chemical_formula_sum   'Tb2 Si4 Ni2'
_cell_volume   129.37506542
_cell_formula_units_Z   2
loop_
 _symmetry_equiv_pos_site_id
 _symmetry_equiv_pos_as_xyz
  1  'x, y, z'
loop_
 _atom_site_type_symbol
 _atom_site_label
 _atom_site_symmetry_multiplicity
 _atom_site_fract_x
 _atom_site_fract_y
 _atom_site_fract_z
 _atom_site_occupancy
  Tb  Tb0  1  0.25000000  0.89382333  0.78764666  1
  Tb  Tb1  1  0.75000000  0.10617667  0.21235334  1
  Si  Si0  1  0.25000000  0.24992328  0.49984656  1
  Si  Si1  1  0.75000000  0.75007672  0.50015344  1
  Si  Si2  1  0.25000000  0.54041646  0.08083093  1
  Si  Si3  1  0.75000000  0.45958354  0.91916907  1
  Ni  Ni0  1  0.25000000  0.67863599  0.35727198  1
  Ni  Ni1  1  0.75000000  0.32136401  0.64272802  1
loop_
_geom_bond_atom_site_label_1
_geom_bond_atom_site_label_2
_geom_bond_distance
_geom_bond_site_symmetry_2
Si0 Tb1 3.067532 1_555
Si0 Tb1 3.067532 1_455
Si0 Tb0 3.085771 1_555
Si0 Tb0 3.085771 1_545
Si1 Tb0 3.067532 1_655
Si1 Tb0 3.067532 1_555
Si1 Tb1 3.085771 1_555
Si1 Tb1 3.085771 1_565
Si2 Si3 2.377913 1_454
Si2 Si3 2.377913 1_554
Si2 Tb1 3.014267 1_465
Si2 Tb1 3.014267 1_565
Si2 Tb1 3.014272 1_455
Si2 Tb1 3.014272 1_555
Si2 Tb0 3.119265 1_554
Si2 Tb0 3.119270 1_544
Si3 Tb0 3.014267 1_545
Si3 Tb0 3.014267 1_645
Si3 Tb0 3.014272 1_555
Si3 Tb0 3.014272 1_655
Si3 Tb1 3.119265 1_556
Si3 Tb1 3.119270 1_566
Ni0 Si2 2.253363 1_555
Ni0 Si1 2.296616 1_555
Ni0 Si1 2.296616 1_455
Ni0 Si0 2.317137 1_565
Ni0 Si0 2.317138 1_555
Ni0 Tb1 3.054813 1_555
Ni0 Tb1 3.054813 1_455
Ni0 Tb1 3.054813 1_565
Ni0 Tb1 3.054813 1_465
Ni1 Si3 2.253363 1_555
Ni1 Si0 2.296616 1_555
Ni1 Si0 2.296616 1_655
Ni1 Si1 2.317137 1_545
Ni1 Si1 2.317138 1_555
Ni1 Tb0 3.054813 1_555
Ni1 Tb0 3.054813 1_655
Ni1 Tb0 3.054813 1_645
Ni1 Tb0 3.054813 1_545
