# generated using pymatgen
data_La2Zr2O7
_symmetry_space_group_name_H-M   'P 1'
_cell_length_a   7.64171650
_cell_length_b   7.64171650
_cell_length_c   7.64171650
_cell_angle_alpha   60.00000000
_cell_angle_beta   60.00000000
_cell_angle_gamma   60.00000000
_symmetry_Int_Tables_number   1
_chemical_formula_structural   La2Zr2O7
_chemical_formula_sum   'La4 Zr4 O14'
_cell_volume   315.54243178
_cell_formula_units_Z   2
loop_
 _symmetry_equiv_pos_site_id
 _symmetry_equiv_pos_as_xyz
  1  'x, y, z'
loop_
 _atom_site_type_symbol
 _atom_site_label
 _atom_site_symmetry_multiplicity
 _atom_site_fract_x
 _atom_site_fract_y
 _atom_site_fract_z
 _atom_site_occupancy
  La  La0  1  0.62500000  0.62500000  0.12500000  1
  La  La1  1  0.62500000  0.12500000  0.62500000  1
  La  La2  1  0.12500000  0.62500000  0.62500000  1
  La  La3  1  0.62500000  0.62500000  0.62500000  1
  Zr  Zr0  1  0.12500000  0.12500000  0.62500000  1
  Zr  Zr1  1  0.12500000  0.62500000  0.12500000  1
  Zr  Zr2  1  0.62500000  0.12500000  0.12500000  1
  Zr  Zr3  1  0.12500000  0.12500000  0.12500000  1
  O  O0  1  0.75000000  0.75000000  0.75000000  1
  O  O1  1  0.50000000  0.50000000  0.50000000  1
  O  O2  1  0.04309247  0.45690753  0.04309247  1
  O  O3  1  0.79309247  0.20690753  0.79309247  1
  O  O4  1  0.04309247  0.04309247  0.45690753  1
  O  O5  1  0.45690753  0.04309247  0.04309247  1
  O  O6  1  0.04309247  0.45690753  0.45690753  1
  O  O7  1  0.45690753  0.45690753  0.04309247  1
  O  O8  1  0.45690753  0.04309247  0.45690753  1
  O  O9  1  0.20690753  0.79309247  0.79309247  1
  O  O10  1  0.79309247  0.20690753  0.20690753  1
  O  O11  1  0.20690753  0.79309247  0.20690753  1
  O  O12  1  0.79309247  0.79309247  0.20690753  1
  O  O13  1  0.20690753  0.20690753  0.79309247  1
loop_
_geom_bond_atom_site_label_1
_geom_bond_atom_site_label_2
_geom_bond_distance
_geom_bond_site_symmetry_2
La0 O1 2.339788 1_555
La0 O0 2.339788 1_554
La0 O5 2.636228 1_565
La0 O2 2.636228 1_655
La0 O7 2.636228 1_555
La0 O10 2.636228 1_555
La0 O11 2.636228 1_555
La0 O12 2.636228 1_555
La1 O1 2.339788 1_555
La1 O0 2.339788 1_545
La1 O4 2.636228 1_655
La1 O5 2.636228 1_556
La1 O8 2.636228 1_555
La1 O10 2.636228 1_555
La1 O13 2.636228 1_555
La1 O3 2.636228 1_555
La2 O1 2.339788 1_555
La2 O0 2.339788 1_455
La2 O4 2.636228 1_565
La2 O2 2.636228 1_556
La2 O11 2.636228 1_555
La2 O6 2.636228 1_555
La2 O13 2.636228 1_555
La2 O9 2.636228 1_555
La3 O1 2.339788 1_555
La3 O0 2.339788 1_555
La3 O6 2.636228 1_655
La3 O8 2.636228 1_565
La3 O12 2.636228 1_555
La3 O7 2.636228 1_556
La3 O9 2.636228 1_555
La3 O3 2.636228 1_555
O2 Zr3 2.105535 1_555
O2 Zr1 2.105535 1_555
O3 Zr0 2.105535 1_655
O3 Zr2 2.105535 1_556
O4 Zr0 2.105535 1_555
O4 Zr3 2.105535 1_555
O5 Zr2 2.105535 1_555
O5 Zr3 2.105535 1_555
O6 Zr0 2.105535 1_555
O6 Zr1 2.105535 1_555
O7 Zr2 2.105535 1_555
O7 Zr1 2.105535 1_555
O8 Zr2 2.105535 1_555
O8 Zr0 2.105535 1_555
O9 Zr0 2.105535 1_565
O9 Zr1 2.105535 1_556
O10 Zr3 2.105535 1_655
O10 Zr2 2.105535 1_555
O11 Zr3 2.105535 1_565
O11 Zr1 2.105535 1_555
O12 Zr1 2.105535 1_655
O12 Zr2 2.105535 1_565
O13 Zr3 2.105535 1_556
O13 Zr0 2.105535 1_555
