# generated using pymatgen
data_BeAlB
_symmetry_space_group_name_H-M   'P 1'
_cell_length_a   3.49827473
_cell_length_b   3.49827481
_cell_length_c   3.49827600
_cell_angle_alpha   60.00000761
_cell_angle_beta   60.00000693
_cell_angle_gamma   60.00002168
_symmetry_Int_Tables_number   1
_chemical_formula_structural   BeAlB
_chemical_formula_sum   'Be1 Al1 B1'
_cell_volume   30.27241213
_cell_formula_units_Z   1
loop_
 _symmetry_equiv_pos_site_id
 _symmetry_equiv_pos_as_xyz
  1  'x, y, z'
loop_
 _atom_site_type_symbol
 _atom_site_label
 _atom_site_symmetry_multiplicity
 _atom_site_fract_x
 _atom_site_fract_y
 _atom_site_fract_z
 _atom_site_occupancy
  Be  Be0  1  0.50000000  0.50000000  0.50000000  1
  Al  Al0  1  0.00000000  0.00000000  0.00000000  1
  B  B0  1  0.25000000  0.25000000  0.25000000  1
loop_
_geom_bond_atom_site_label_1
_geom_bond_atom_site_label_2
_geom_bond_distance
_geom_bond_site_symmetry_2
Al0 B0 2.142247 1_555
Al0 B0 2.142247 1_455
Al0 B0 2.142248 1_545
Al0 B0 2.142248 1_554
B0 Be0 2.142247 1_555
B0 Be0 2.142247 1_455
B0 Be0 2.142248 1_545
B0 Be0 2.142248 1_554
