# generated using pymatgen
data_Nd
_symmetry_space_group_name_H-M   'P 1'
_cell_length_a   7.18963675
_cell_length_b   7.18964062
_cell_length_c   7.18963962
_cell_angle_alpha   109.47121183
_cell_angle_beta   109.47122265
_cell_angle_gamma   109.47122468
_symmetry_Int_Tables_number   1
_chemical_formula_structural   Nd
_chemical_formula_sum   Nd8
_cell_volume   286.08782566
_cell_formula_units_Z   8
loop_
 _symmetry_equiv_pos_site_id
 _symmetry_equiv_pos_as_xyz
  1  'x, y, z'
loop_
 _atom_site_type_symbol
 _atom_site_label
 _atom_site_symmetry_multiplicity
 _atom_site_fract_x
 _atom_site_fract_y
 _atom_site_fract_z
 _atom_site_occupancy
  Nd  Nd0_0  1  0.00000000  0.00000000  0.00000000  1
  Nd  Nd0_1  1  0.00000000  0.00000000  0.50000000  1
  Nd  Nd0_2  1  0.00000000  0.50000000  0.00000000  1
  Nd  Nd0_3  1  0.00000000  0.50000000  0.50000000  1
  Nd  Nd0_4  1  0.50000000  0.00000000  0.00000000  1
  Nd  Nd0_5  1  0.50000000  0.00000000  0.50000000  1
  Nd  Nd0_6  1  0.50000000  0.50000000  0.00000000  1
  Nd  Nd0_7  1  0.50000000  0.50000000  0.50000000  1
loop_
_geom_bond_atom_site_label_1
_geom_bond_atom_site_label_2
_geom_bond_distance
_geom_bond_site_symmetry_2
Nd0_0 Nd0_4 3.594818 1_455
Nd0_0 Nd0_4 3.594818 1_555
Nd0_0 Nd0_7 3.594820 1_444
Nd0_0 Nd0_7 3.594820 1_555
Nd0_0 Nd0_1 3.594820 1_554
Nd0_0 Nd0_1 3.594820 1_555
Nd0_0 Nd0_2 3.594820 1_555
Nd0_0 Nd0_2 3.594820 1_545
Nd0_1 Nd0_5 3.594818 1_455
Nd0_1 Nd0_5 3.594818 1_555
Nd0_1 Nd0_6 3.594820 1_556
Nd0_1 Nd0_6 3.594820 1_445
Nd0_1 Nd0_3 3.594820 1_555
Nd0_1 Nd0_3 3.594820 1_545
Nd0_2 Nd0_6 3.594818 1_555
Nd0_2 Nd0_6 3.594818 1_455
Nd0_2 Nd0_5 3.594820 1_454
Nd0_2 Nd0_5 3.594820 1_565
Nd0_2 Nd0_3 3.594820 1_554
Nd0_2 Nd0_3 3.594820 1_555
Nd0_3 Nd0_7 3.594818 1_555
Nd0_3 Nd0_7 3.594818 1_455
Nd0_3 Nd0_4 3.594820 1_455
Nd0_3 Nd0_4 3.594820 1_566
Nd0_4 Nd0_5 3.594820 1_555
Nd0_4 Nd0_5 3.594820 1_554
Nd0_4 Nd0_6 3.594820 1_555
Nd0_4 Nd0_6 3.594820 1_545
Nd0_5 Nd0_7 3.594820 1_545
Nd0_5 Nd0_7 3.594820 1_555
Nd0_6 Nd0_7 3.594820 1_555
Nd0_6 Nd0_7 3.594820 1_554
