# generated using pymatgen
data_Y(CoGe)2
_symmetry_space_group_name_H-M   'P 1'
_cell_length_a   3.93077012
_cell_length_b   3.93077031
_cell_length_c   5.74292231
_cell_angle_alpha   110.01263930
_cell_angle_beta   110.01263792
_cell_angle_gamma   89.99998382
_symmetry_Int_Tables_number   1
_chemical_formula_structural   Y(CoGe)2
_chemical_formula_sum   'Y1 Co2 Ge2'
_cell_volume   77.64881560
_cell_formula_units_Z   1
loop_
 _symmetry_equiv_pos_site_id
 _symmetry_equiv_pos_as_xyz
  1  'x, y, z'
loop_
 _atom_site_type_symbol
 _atom_site_label
 _atom_site_symmetry_multiplicity
 _atom_site_fract_x
 _atom_site_fract_y
 _atom_site_fract_z
 _atom_site_occupancy
  Y  Y0  1  0.00000000  0.00000000  0.00000000  1
  Co  Co0  1  0.25000000  0.75000000  0.50000000  1
  Co  Co1  1  0.75000000  0.25000000  0.50000000  1
  Ge  Ge0  1  0.62888104  0.62888104  0.25776107  1
  Ge  Ge1  1  0.37111896  0.37111896  0.74223893  1
loop_
_geom_bond_atom_site_label_1
_geom_bond_atom_site_label_2
_geom_bond_distance
_geom_bond_site_symmetry_2
Co0 Ge0 2.311866 1_455
Co0 Ge1 2.311867 1_565
Co0 Ge0 2.311870 1_555
Co0 Ge1 2.311870 1_555
Co0 Y0 3.190087 1_566
Co0 Y0 3.190087 1_565
Co0 Y0 3.190088 1_666
Co0 Y0 3.190088 1_555
Co1 Ge1 2.311866 1_655
Co1 Ge0 2.311867 1_545
Co1 Ge1 2.311870 1_555
Co1 Ge0 2.311870 1_555
Co1 Y0 3.190087 1_655
Co1 Y0 3.190087 1_656
Co1 Y0 3.190088 1_555
Co1 Y0 3.190088 1_666
Ge0 Ge1 2.590758 1_554
Ge0 Y0 3.066508 1_665
Ge0 Y0 3.066510 1_655
Ge0 Y0 3.066510 1_565
Ge0 Y0 3.066513 1_555
Ge1 Y0 3.066508 1_556
Ge1 Y0 3.066510 1_566
Ge1 Y0 3.066510 1_656
Ge1 Y0 3.066513 1_666
