# generated using pymatgen
data_LiSbO3
_symmetry_space_group_name_H-M   'P 1'
_cell_length_a   4.87993988
_cell_length_b   5.19125198
_cell_length_c   8.50669695
_cell_angle_alpha   90.00000000
_cell_angle_beta   90.00000000
_cell_angle_gamma   90.00000000
_symmetry_Int_Tables_number   1
_chemical_formula_structural   LiSbO3
_chemical_formula_sum   'Li4 Sb4 O12'
_cell_volume   215.50013311
_cell_formula_units_Z   4
loop_
 _symmetry_equiv_pos_site_id
 _symmetry_equiv_pos_as_xyz
  1  'x, y, z'
loop_
 _atom_site_type_symbol
 _atom_site_label
 _atom_site_symmetry_multiplicity
 _atom_site_fract_x
 _atom_site_fract_y
 _atom_site_fract_z
 _atom_site_occupancy
  Li  Li0  1  0.00000000  0.75000000  0.30656677  1
  Li  Li1  1  0.50000000  0.75000000  0.19343323  1
  Li  Li2  1  0.00000000  0.25000000  0.69343323  1
  Li  Li3  1  0.50000000  0.25000000  0.80656677  1
  Sb  Sb0  1  0.00000000  0.75000000  0.90545364  1
  Sb  Sb1  1  0.50000000  0.25000000  0.40545364  1
  Sb  Sb2  1  0.00000000  0.25000000  0.09454636  1
  Sb  Sb3  1  0.50000000  0.75000000  0.59454636  1
  O  O0  1  0.70785300  0.57572790  0.41876722  1
  O  O1  1  0.79214700  0.57572790  0.08123278  1
  O  O2  1  0.29214700  0.92427210  0.41876722  1
  O  O3  1  0.25000000  0.40973480  0.25000000  1
  O  O4  1  0.75000000  0.59026520  0.75000000  1
  O  O5  1  0.25000000  0.90973480  0.75000000  1
  O  O6  1  0.79214700  0.07572790  0.91876722  1
  O  O7  1  0.75000000  0.09026520  0.25000000  1
  O  O8  1  0.20785300  0.42427210  0.91876722  1
  O  O9  1  0.29214700  0.42427210  0.58123278  1
  O  O10  1  0.70785300  0.07572790  0.58123278  1
  O  O11  1  0.20785300  0.92427210  0.08123278  1
loop_
_geom_bond_atom_site_label_1
_geom_bond_atom_site_label_2
_geom_bond_distance
_geom_bond_site_symmetry_2
Li0 O2 1.939576 1_555
Li0 O0 1.939576 1_455
Li0 O7 2.200021 1_465
Li0 O3 2.200021 1_555
Li0 O11 2.349808 1_555
Li0 O1 2.349808 1_455
Li1 O1 1.939576 1_555
Li1 O11 1.939576 1_555
Li1 O7 2.200021 1_565
Li1 O3 2.200021 1_555
Li1 O2 2.349808 1_555
Li1 O0 2.349808 1_555
Li2 O10 1.939576 1_455
Li2 O9 1.939576 1_555
Li2 O4 2.200021 1_455
Li2 O5 2.200021 1_545
Li2 O8 2.349808 1_555
Li2 O6 2.349808 1_455
Li3 O6 1.939576 1_555
Li3 O8 1.939576 1_555
Li3 O4 2.200021 1_555
Li3 O5 2.200021 1_545
Li3 O10 2.349808 1_555
Li3 O9 2.349808 1_555
O0 Sb1 1.975073 1_555
O0 Sb3 2.020696 1_555
O1 Sb2 1.975073 1_655
O1 Sb0 2.020696 1_654
O2 Sb1 1.975073 1_565
O2 Sb3 2.020696 1_555
O3 Sb2 1.981088 1_555
O3 Sb1 1.981088 1_555
O4 Sb3 1.981088 1_555
O4 Sb0 1.981088 1_655
O5 Sb3 1.981088 1_555
O5 Sb0 1.981088 1_555
O6 Sb0 1.975073 1_645
O6 Sb2 2.020696 1_656
O7 Sb2 1.981088 1_655
O7 Sb1 1.981088 1_555
O8 Sb0 1.975073 1_555
O8 Sb2 2.020696 1_556
O9 Sb3 1.975073 1_555
O9 Sb1 2.020696 1_555
O10 Sb3 1.975073 1_545
O10 Sb1 2.020696 1_555
O11 Sb2 1.975073 1_565
O11 Sb0 2.020696 1_554
