# generated using pymatgen
data_UAl2
_symmetry_space_group_name_H-M   'P 1'
_cell_length_a   5.40933493
_cell_length_b   5.40933529
_cell_length_c   5.40932775
_cell_angle_alpha   60.00005804
_cell_angle_beta   60.00005586
_cell_angle_gamma   60.00002285
_symmetry_Int_Tables_number   1
_chemical_formula_structural   UAl2
_chemical_formula_sum   'U2 Al4'
_cell_volume   111.92227293
_cell_formula_units_Z   2
loop_
 _symmetry_equiv_pos_site_id
 _symmetry_equiv_pos_as_xyz
  1  'x, y, z'
loop_
 _atom_site_type_symbol
 _atom_site_label
 _atom_site_symmetry_multiplicity
 _atom_site_fract_x
 _atom_site_fract_y
 _atom_site_fract_z
 _atom_site_occupancy
  U  U0  1  0.87500000  0.87500000  0.87500000  1
  U  U1  1  0.12500000  0.12500000  0.12500000  1
  Al  Al0  1  0.50000000  0.50000000  0.50000000  1
  Al  Al1  1  0.50000000  0.50000000  0.00000000  1
  Al  Al2  1  -0.00000000  0.50000000  0.50000000  1
  Al  Al3  1  0.50000000  -0.00000000  0.50000000  1
loop_
_geom_bond_atom_site_label_1
_geom_bond_atom_site_label_2
_geom_bond_distance
_geom_bond_site_symmetry_2
U0 U1 3.312525 1_666
U0 U1 3.312526 1_665
U0 U1 3.312529 1_566
U0 U1 3.312529 1_656
Al0 Al1 2.704664 1_556
Al0 Al1 2.704664 1_555
Al0 Al2 2.704667 1_555
Al0 Al2 2.704667 1_655
Al0 Al3 2.704668 1_555
Al0 Al3 2.704668 1_565
Al0 U0 3.171504 1_455
Al0 U1 3.171504 1_655
Al0 U1 3.171504 1_565
Al0 U0 3.171504 1_545
Al0 U0 3.171505 1_554
Al0 U1 3.171505 1_556
Al1 Al2 2.704668 1_555
Al1 Al2 2.704668 1_654
Al1 Al3 2.704668 1_564
Al1 Al3 2.704668 1_555
Al1 U1 3.171504 1_655
Al1 U0 3.171504 1_454
Al1 U1 3.171504 1_565
Al1 U0 3.171504 1_544
Al1 U0 3.171505 1_554
Al1 U1 3.171505 1_555
Al2 Al3 2.704668 1_555
Al2 Al3 2.704668 1_465
Al2 U1 3.171501 1_555
Al2 U0 3.171501 1_455
Al2 U1 3.171501 1_556
Al2 U0 3.171501 1_454
Al2 U0 3.171506 1_445
Al2 U1 3.171506 1_565
Al3 U1 3.171501 1_555
Al3 U0 3.171501 1_545
Al3 U0 3.171501 1_544
Al3 U1 3.171501 1_556
Al3 U0 3.171506 1_445
Al3 U1 3.171506 1_655
