# generated using pymatgen
data_Na3P11
_symmetry_space_group_name_H-M   'P 1'
_cell_length_a   9.80796106
_cell_length_b   10.44827736
_cell_length_c   12.45080615
_cell_angle_alpha   90.00000000
_cell_angle_beta   90.00000000
_cell_angle_gamma   90.00000000
_symmetry_Int_Tables_number   1
_chemical_formula_structural   Na3P11
_chemical_formula_sum   'Na12 P44'
_cell_volume   1275.91251503
_cell_formula_units_Z   4
loop_
 _symmetry_equiv_pos_site_id
 _symmetry_equiv_pos_as_xyz
  1  'x, y, z'
loop_
 _atom_site_type_symbol
 _atom_site_label
 _atom_site_symmetry_multiplicity
 _atom_site_fract_x
 _atom_site_fract_y
 _atom_site_fract_z
 _atom_site_occupancy
  Na  Na0  1  0.00000000  0.75000000  0.25351669  1
  Na  Na1  1  0.50000000  0.25000000  0.24648331  1
  Na  Na2  1  0.00000000  0.25000000  0.74648331  1
  Na  Na3  1  0.50000000  0.75000000  0.75351669  1
  Na  Na4  1  0.75608933  0.07787499  0.00456294  1
  Na  Na5  1  0.25608933  0.92212501  0.49543706  1
  Na  Na6  1  0.74391067  0.57787499  0.49543706  1
  Na  Na7  1  0.24391067  0.42212501  0.00456294  1
  Na  Na8  1  0.24391067  0.92212501  0.99543706  1
  Na  Na9  1  0.74391067  0.07787499  0.50456294  1
  Na  Na10  1  0.25608933  0.42212501  0.50456294  1
  Na  Na11  1  0.75608933  0.57787499  0.99543706  1
  P  P0  1  0.00000000  0.75000000  0.49621232  1
  P  P1  1  0.50000000  0.25000000  0.00378768  1
  P  P2  1  0.00000000  0.25000000  0.50378768  1
  P  P3  1  0.50000000  0.75000000  0.99621232  1
  P  P4  1  0.69207632  0.26011614  0.76713127  1
  P  P5  1  0.19207632  0.73988386  0.73286873  1
  P  P6  1  0.80792368  0.76011614  0.73286873  1
  P  P7  1  0.30792368  0.23988386  0.76713127  1
  P  P8  1  0.30792368  0.73988386  0.23286873  1
  P  P9  1  0.80792368  0.26011614  0.26713127  1
  P  P10  1  0.19207632  0.23988386  0.26713127  1
  P  P11  1  0.69207632  0.76011614  0.23286873  1
  P  P12  1  0.60077480  0.06622823  0.79884139  1
  P  P13  1  0.10077480  0.93377177  0.70115861  1
  P  P14  1  0.89922520  0.56622823  0.70115861  1
  P  P15  1  0.39922520  0.43377177  0.79884139  1
  P  P16  1  0.39922520  0.93377177  0.20115861  1
  P  P17  1  0.89922520  0.06622823  0.29884139  1
  P  P18  1  0.10077480  0.43377177  0.29884139  1
  P  P19  1  0.60077480  0.56622823  0.20115861  1
  P  P20  1  0.58505900  0.38216305  0.88800243  1
  P  P21  1  0.08505900  0.61783695  0.61199757  1
  P  P22  1  0.91494100  0.88216305  0.61199757  1
  P  P23  1  0.41494100  0.11783695  0.88800243  1
  P  P24  1  0.41494100  0.61783695  0.11199757  1
  P  P25  1  0.91494100  0.38216305  0.38800243  1
  P  P26  1  0.08505900  0.11783695  0.38800243  1
  P  P27  1  0.58505900  0.88216305  0.11199757  1
  P  P28  1  0.58798071  0.31583044  0.61336240  1
  P  P29  1  0.08797971  0.68416956  0.88663760  1
  P  P30  1  0.91201929  0.81583044  0.88663760  1
  P  P31  1  0.41202029  0.18416956  0.61336240  1
  P  P32  1  0.41202029  0.68416956  0.38663760  1
  P  P33  1  0.91201929  0.31583044  0.11336240  1
  P  P34  1  0.08797971  0.18416956  0.11336240  1
  P  P35  1  0.58798071  0.81583044  0.38663760  1
  P  P36  1  0.01920231  0.99345832  0.85420714  1
  P  P37  1  0.51920231  0.00654168  0.64579286  1
  P  P38  1  0.48079769  0.49345832  0.64579286  1
  P  P39  1  0.98079769  0.50654168  0.85420714  1
  P  P40  1  0.98079769  0.00654168  0.14579286  1
  P  P41  1  0.48079769  0.99345832  0.35420714  1
  P  P42  1  0.51920231  0.50654168  0.35420714  1
  P  P43  1  0.01920231  0.49345832  0.14579286  1
loop_
_geom_bond_atom_site_label_1
_geom_bond_atom_site_label_2
_geom_bond_distance
_geom_bond_site_symmetry_2
Na0 P43 3.003175 1_555
Na0 P40 3.003175 1_465
Na0 P0 3.021756 1_555
Na0 P11 3.032868 1_455
Na0 P8 3.032868 1_555
Na1 P42 3.003175 1_555
Na1 P41 3.003175 1_545
Na1 P1 3.021756 1_555
Na1 P9 3.032868 1_555
Na1 P10 3.032868 1_555
Na2 P36 3.003175 1_545
Na2 P39 3.003175 1_455
Na2 P2 3.021756 1_555
Na2 P4 3.032868 1_455
Na2 P7 3.032868 1_555
Na3 P37 3.003175 1_565
Na3 P38 3.003175 1_555
Na3 P3 3.021756 1_555
Na3 P5 3.032868 1_555
Na3 P6 3.032868 1_555
Na4 P40 2.916310 1_555
Na4 P27 2.963881 1_545
Na4 P12 2.982629 1_554
Na4 P1 3.089187 1_555
Na4 P33 3.217964 1_555
Na4 P36 3.307872 1_644
Na5 P41 2.916310 1_555
Na5 P26 2.963881 1_565
Na5 P13 2.982629 1_555
Na5 P0 3.089187 1_555
Na5 P32 3.217969 1_555
Na5 P37 3.307872 1_565
Na6 P42 2.916310 1_555
Na6 P25 2.963881 1_555
Na6 P14 2.982629 1_555
Na6 P0 3.089187 1_655
Na6 P35 3.217964 1_555
Na6 P38 3.307872 1_555
Na7 P43 2.916310 1_555
Na7 P24 2.963881 1_555
Na7 P15 2.982629 1_554
Na7 P1 3.089187 1_555
Na7 P34 3.217969 1_555
Na7 P39 3.307872 1_454
Na8 P36 2.916310 1_555
Na8 P23 2.963881 1_565
Na8 P16 2.982629 1_556
Na8 P3 3.089187 1_555
Na8 P29 3.217969 1_555
Na8 P40 3.307872 1_466
Na9 P37 2.916310 1_555
Na9 P22 2.963881 1_545
Na9 P17 2.982629 1_555
Na9 P2 3.089187 1_655
Na9 P28 3.217964 1_555
Na9 P41 3.307872 1_545
Na10 P38 2.916310 1_555
Na10 P21 2.963881 1_555
Na10 P18 2.982629 1_555
Na10 P2 3.089187 1_555
Na10 P31 3.217969 1_555
Na10 P42 3.307872 1_555
Na11 P39 2.916310 1_555
Na11 P20 2.963881 1_555
Na11 P19 2.982629 1_556
Na11 P3 3.089187 1_555
Na11 P30 3.217964 1_555
Na11 P43 3.307872 1_656
P0 P22 2.163578 1_455
P0 P21 2.163578 1_555
P1 P20 2.163578 1_554
P1 P23 2.163578 1_554
P2 P26 2.163578 1_555
P2 P25 2.163578 1_455
P10 P26 2.234423 1_555
P10 P34 2.246495 1_555
P10 P18 2.249803 1_555
P11 P27 2.234423 1_555
P11 P35 2.246491 1_555
P11 P19 2.249803 1_555
P12 P37 2.158756 1_555
P12 P23 2.201181 1_555
P12 P4 2.249803 1_555
P13 P36 2.158756 1_555
P13 P22 2.201181 1_455
P13 P5 2.249803 1_555
P14 P39 2.158756 1_555
P14 P21 2.201181 1_655
P14 P6 2.249803 1_555
P15 P38 2.158756 1_555
P15 P20 2.201181 1_555
P15 P7 2.249803 1_555
P16 P41 2.158756 1_555
P16 P27 2.201181 1_555
P16 P8 2.249803 1_555
P17 P40 2.158756 1_555
P17 P26 2.201181 1_655
P17 P9 2.249803 1_555
P18 P43 2.158756 1_555
P18 P25 2.201181 1_455
P19 P42 2.158756 1_555
P19 P24 2.201181 1_555
P20 P4 2.234423 1_555
P21 P5 2.234423 1_555
P22 P6 2.234423 1_555
P23 P7 2.234423 1_555
P24 P3 2.163578 1_554
P24 P8 2.234423 1_555
P25 P9 2.234423 1_555
P27 P3 2.163578 1_554
P28 P38 2.170840 1_555
P28 P31 2.206986 1_555
P28 P4 2.246491 1_555
P29 P39 2.170835 1_455
P29 P30 2.206986 1_455
P29 P5 2.246495 1_555
P30 P36 2.170840 1_655
P30 P6 2.246491 1_555
P31 P37 2.170835 1_555
P31 P7 2.246495 1_555
P32 P42 2.170835 1_555
P32 P35 2.206986 1_555
P32 P8 2.246495 1_555
P33 P43 2.170840 1_655
P33 P34 2.206986 1_655
P33 P9 2.246491 1_555
P34 P40 2.170835 1_455
P35 P41 2.170840 1_555
