# generated using pymatgen
data_CaSnO3
_symmetry_space_group_name_H-M   'P 1'
_cell_length_a   6.01584163
_cell_length_b   6.01584156
_cell_length_c   6.01584148
_cell_angle_alpha   54.58886767
_cell_angle_beta   54.58886888
_cell_angle_gamma   54.58886490
_symmetry_Int_Tables_number   1
_chemical_formula_structural   CaSnO3
_chemical_formula_sum   'Ca2 Sn2 O6'
_cell_volume   134.53390939
_cell_formula_units_Z   2
loop_
 _symmetry_equiv_pos_site_id
 _symmetry_equiv_pos_as_xyz
  1  'x, y, z'
loop_
 _atom_site_type_symbol
 _atom_site_label
 _atom_site_symmetry_multiplicity
 _atom_site_fract_x
 _atom_site_fract_y
 _atom_site_fract_z
 _atom_site_occupancy
  Ca  Ca0  1  0.36227676  0.36227676  0.36227676  1
  Ca  Ca1  1  0.63772324  0.63772324  0.63772324  1
  Sn  Sn0  1  0.15423012  0.15423012  0.15423012  1
  Sn  Sn1  1  0.84576988  0.84576988  0.84576988  1
  O  O0  1  0.79304230  0.44365957  0.03526645  1
  O  O1  1  0.44365957  0.03526645  0.79304230  1
  O  O2  1  0.03526645  0.79304230  0.44365957  1
  O  O3  1  0.20695770  0.55634043  0.96473355  1
  O  O4  1  0.96473355  0.20695770  0.55634043  1
  O  O5  1  0.55634043  0.96473355  0.20695770  1
loop_
_geom_bond_atom_site_label_1
_geom_bond_atom_site_label_2
_geom_bond_distance
_geom_bond_site_symmetry_2
Ca0 O2 2.295956 1_555
Ca0 O1 2.295956 1_555
Ca0 O0 2.295957 1_555
Ca0 O3 2.458742 1_554
Ca0 O5 2.458742 1_545
Ca0 O4 2.458742 1_455
Ca1 O4 2.295956 1_555
Ca1 O5 2.295956 1_555
Ca1 O3 2.295957 1_555
Ca1 O0 2.458742 1_556
Ca1 O1 2.458742 1_565
Ca1 O2 2.458742 1_655
O0 Sn0 2.058824 1_655
O0 Sn1 2.127506 1_554
O1 Sn0 2.058824 1_556
O1 Sn1 2.127506 1_545
O2 Sn0 2.058824 1_565
O2 Sn1 2.127506 1_455
O3 Sn1 2.058824 1_455
O3 Sn0 2.127506 1_556
O4 Sn1 2.058824 1_545
O4 Sn0 2.127506 1_655
O5 Sn1 2.058824 1_554
O5 Sn0 2.127506 1_565
