# generated using pymatgen
data_KBF4
_symmetry_space_group_name_H-M   'P 1'
_cell_length_a   5.36240350
_cell_length_b   6.94101924
_cell_length_c   8.53374770
_cell_angle_alpha   90.00000000
_cell_angle_beta   90.00000000
_cell_angle_gamma   90.00000000
_symmetry_Int_Tables_number   1
_chemical_formula_structural   KBF4
_chemical_formula_sum   'K4 B4 F16'
_cell_volume   317.63074768
_cell_formula_units_Z   4
loop_
 _symmetry_equiv_pos_site_id
 _symmetry_equiv_pos_as_xyz
  1  'x, y, z'
loop_
 _atom_site_type_symbol
 _atom_site_label
 _atom_site_symmetry_multiplicity
 _atom_site_fract_x
 _atom_site_fract_y
 _atom_site_fract_z
 _atom_site_occupancy
  K  K0  1  0.25000000  0.34126373  0.68305112  1
  K  K1  1  0.75000000  0.65873627  0.31694888  1
  K  K2  1  0.75000000  0.84126373  0.81694888  1
  K  K3  1  0.25000000  0.15873627  0.18305112  1
  B  B0  1  0.25000000  0.68911901  0.06370424  1
  B  B1  1  0.25000000  0.81088099  0.56370424  1
  B  B2  1  0.75000000  0.18911901  0.43629576  1
  B  B3  1  0.75000000  0.31088099  0.93629576  1
  F  F0  1  0.53628511  0.30713359  0.42197365  1
  F  F1  1  0.96371489  0.19286641  0.92197365  1
  F  F2  1  0.46371489  0.80713359  0.07802635  1
  F  F3  1  0.03628511  0.69286641  0.57802635  1
  F  F4  1  0.25000000  0.60011590  0.91671279  1
  F  F5  1  0.75000000  0.39988410  0.08328721  1
  F  F6  1  0.75000000  0.10011590  0.58328721  1
  F  F7  1  0.25000000  0.89988410  0.41671279  1
  F  F8  1  0.25000000  0.55225556  0.18469547  1
  F  F9  1  0.75000000  0.44774444  0.81530453  1
  F  F10  1  0.75000000  0.05225556  0.31530453  1
  F  F11  1  0.25000000  0.94774444  0.68469547  1
  F  F12  1  0.03628511  0.80713359  0.07802635  1
  F  F13  1  0.53628511  0.19286641  0.92197365  1
  F  F14  1  0.96371489  0.30713359  0.42197365  1
  F  F15  1  0.46371489  0.69286641  0.57802635  1
loop_
_geom_bond_atom_site_label_1
_geom_bond_atom_site_label_2
_geom_bond_distance
_geom_bond_site_symmetry_2
B0 F4 1.398260 1_554
B0 F8 1.403040 1_555
B0 F2 1.413968 1_555
B0 F12 1.413968 1_555
B1 F7 1.398260 1_555
B1 F11 1.403040 1_555
B1 F3 1.413968 1_555
B1 F15 1.413968 1_555
B2 F6 1.398260 1_555
B2 F10 1.403040 1_555
B2 F14 1.413968 1_555
B2 F0 1.413968 1_555
B3 F5 1.398260 1_556
B3 F9 1.403040 1_555
B3 F13 1.413968 1_555
B3 F1 1.413968 1_555
F0 K0 2.716014 1_555
F0 K3 2.752246 1_555
F0 K1 2.841231 1_555
F1 K3 2.716014 1_656
F1 K0 2.752246 1_655
F1 K2 2.841231 1_545
F2 K2 2.716014 1_554
F2 K1 2.752246 1_555
F2 K3 2.841231 1_565
F3 K1 2.716014 1_455
F3 K2 2.752246 1_455
F3 K0 2.841231 1_555
F4 K0 2.684064 1_555
F5 K1 2.684064 1_555
F6 K2 2.684064 1_545
F7 K3 2.684064 1_565
F8 K3 2.731461 1_555
F8 K1 3.001477 1_455
F8 K1 3.001477 1_555
F9 K2 2.731461 1_555
F9 K0 3.001477 1_555
F9 K0 3.001477 1_655
F10 K1 2.731461 1_545
F10 K3 3.001477 1_655
F10 K3 3.001477 1_555
F11 K0 2.731461 1_565
F11 K2 3.001477 1_455
F11 K2 3.001477 1_555
F12 K2 2.716014 1_454
F12 K1 2.752246 1_455
F12 K3 2.841231 1_565
F13 K3 2.716014 1_556
F13 K0 2.752246 1_555
F13 K2 2.841231 1_545
F14 K0 2.716014 1_655
F14 K3 2.752246 1_655
F14 K1 2.841231 1_555
F15 K1 2.716014 1_555
F15 K2 2.752246 1_555
F15 K0 2.841231 1_555
