# generated using pymatgen
data_K3(Cu4Se3)2
_symmetry_space_group_name_H-M   'P 1'
_cell_length_a   9.22750883
_cell_length_b   9.22750883
_cell_length_c   10.12313235
_cell_angle_alpha   75.13046743
_cell_angle_beta   75.13046743
_cell_angle_gamma   24.94946025
_symmetry_Int_Tables_number   1
_chemical_formula_structural   K3(Cu4Se3)2
_chemical_formula_sum   'K3 Cu8 Se6'
_cell_volume   350.80572461
_cell_formula_units_Z   1
loop_
 _symmetry_equiv_pos_site_id
 _symmetry_equiv_pos_as_xyz
  1  'x, y, z'
loop_
 _atom_site_type_symbol
 _atom_site_label
 _atom_site_symmetry_multiplicity
 _atom_site_fract_x
 _atom_site_fract_y
 _atom_site_fract_z
 _atom_site_occupancy
  K  K0  1  0.69065700  0.69065700  0.69904400  1
  K  K1  1  0.50000000  0.50000000  0.00000000  1
  K  K2  1  0.30934300  0.30934300  0.30095600  1
  Cu  Cu0  1  0.10455200  0.10455200  0.21731600  1
  Cu  Cu1  1  0.51702400  0.51702400  0.36265400  1
  Cu  Cu2  1  0.89544800  0.89544800  0.78268400  1
  Cu  Cu3  1  0.07903000  0.07903000  0.47227500  1
  Cu  Cu4  1  0.92097000  0.92097000  0.52772500  1
  Cu  Cu5  1  0.69774200  0.69774200  0.08872400  1
  Cu  Cu6  1  0.48297600  0.48297600  0.63734600  1
  Cu  Cu7  1  0.30225800  0.30225800  0.91127600  1
  Se  Se0  1  0.03916200  0.03916200  0.71559700  1
  Se  Se1  1  0.65687200  0.65687200  0.35339500  1
  Se  Se2  1  0.34312800  0.34312800  0.64660500  1
  Se  Se3  1  0.96083800  0.96083800  0.28440300  1
  Se  Se4  1  0.84127100  0.84127100  0.02426300  1
  Se  Se5  1  0.15872900  0.15872900  0.97573700  1
loop_
_geom_bond_atom_site_label_1
_geom_bond_atom_site_label_2
_geom_bond_distance
_geom_bond_site_symmetry_2
K0 Se2 3.322115 1_565
K0 Se2 3.322115 1_655
K0 Se0 3.348520 1_565
K0 Se0 3.348520 1_655
K0 Se5 3.361915 1_655
K0 Se5 3.361915 1_565
K0 Se1 3.705899 1_555
K1 Se3 3.419343 1_545
K1 Se3 3.419343 1_455
K1 Se0 3.419343 1_564
K1 Se0 3.419343 1_654
K1 Se5 3.441610 1_564
K1 Se5 3.441610 1_654
K1 Se4 3.441610 1_545
K1 Se4 3.441610 1_455
K2 Se1 3.322115 1_455
K2 Se1 3.322115 1_545
K2 Se3 3.348520 1_545
K2 Se3 3.348520 1_455
K2 Se4 3.361915 1_545
K2 Se4 3.361915 1_455
K2 Se2 3.705899 1_555
Cu0 Se5 2.383011 1_554
Cu0 Se3 2.498588 1_445
Cu0 Se1 2.728014 1_545
Cu0 Se1 2.728014 1_455
Cu1 Se3 2.459071 1_455
Cu1 Se3 2.459071 1_545
Cu1 Se1 2.496970 1_555
Cu2 Se4 2.383011 1_556
Cu2 Se0 2.498588 1_665
Cu2 Se2 2.728014 1_655
Cu2 Se2 2.728014 1_565
Cu3 Se0 2.377646 1_555
Cu3 Se1 2.549777 1_455
Cu3 Se1 2.549777 1_545
Cu4 Se3 2.377646 1_555
Cu4 Se2 2.549777 1_655
Cu4 Se2 2.549777 1_565
Cu5 Se5 2.489584 1_654
Cu5 Se5 2.489584 1_564
Cu5 Se4 2.495519 1_555
Cu5 Se1 2.585307 1_555
Cu6 Se0 2.459071 1_655
Cu6 Se0 2.459071 1_565
Cu6 Se2 2.496970 1_555
Cu7 Se4 2.489584 1_546
Cu7 Se4 2.489584 1_456
Cu7 Se5 2.495519 1_555
Cu7 Se2 2.585307 1_555
