# generated using pymatgen
data_BaLaMgTaO6
_symmetry_space_group_name_H-M   'P 1'
_cell_length_a   5.74552968
_cell_length_b   5.74552968
_cell_length_c   5.74552968
_cell_angle_alpha   60.00000000
_cell_angle_beta   60.00000000
_cell_angle_gamma   60.00000000
_symmetry_Int_Tables_number   1
_chemical_formula_structural   BaLaMgTaO6
_chemical_formula_sum   'Ba1 La1 Mg1 Ta1 O6'
_cell_volume   134.11434104
_cell_formula_units_Z   1
loop_
 _symmetry_equiv_pos_site_id
 _symmetry_equiv_pos_as_xyz
  1  'x, y, z'
loop_
 _atom_site_type_symbol
 _atom_site_label
 _atom_site_symmetry_multiplicity
 _atom_site_fract_x
 _atom_site_fract_y
 _atom_site_fract_z
 _atom_site_occupancy
  Ba  Ba0  1  0.75000000  0.75000000  0.75000000  1
  La  La0  1  0.25000000  0.25000000  0.25000000  1
  Mg  Mg0  1  0.00000000  0.00000000  0.00000000  1
  Ta  Ta0  1  0.50000000  0.50000000  0.50000000  1
  O  O0  1  0.74553500  0.25446500  0.25446500  1
  O  O1  1  0.25446500  0.25446500  0.74553500  1
  O  O2  1  0.25446500  0.74553500  0.25446500  1
  O  O3  1  0.74553500  0.25446500  0.74553500  1
  O  O4  1  0.74553500  0.74553500  0.25446500  1
  O  O5  1  0.25446500  0.74553500  0.74553500  1
loop_
_geom_bond_atom_site_label_1
_geom_bond_atom_site_label_2
_geom_bond_distance
_geom_bond_site_symmetry_2
Ba0 O4 2.872994 1_556
Ba0 O5 2.872994 1_655
Ba0 O3 2.872994 1_565
Ba0 O0 2.872994 1_565
Ba0 O2 2.872994 1_655
Ba0 O2 2.872994 1_556
Ba0 O1 2.872994 1_565
Ba0 O1 2.872994 1_655
Ba0 O0 2.872994 1_556
Ba0 O4 2.872994 1_555
Ba0 O5 2.872994 1_555
Ba0 O3 2.872994 1_555
La0 O1 2.872994 1_555
La0 O0 2.872994 1_555
La0 O2 2.872994 1_555
La0 O4 2.872994 1_455
La0 O5 2.872994 1_554
La0 O4 2.872994 1_545
La0 O3 2.872994 1_455
La0 O3 2.872994 1_554
La0 O5 2.872994 1_545
La0 O1 2.872994 1_554
La0 O0 2.872994 1_455
La0 O2 2.872994 1_545
Mg0 O2 2.067631 1_545
Mg0 O1 2.067631 1_554
Mg0 O0 2.067631 1_455
Mg0 O5 2.067631 1_544
Mg0 O3 2.067631 1_454
Mg0 O4 2.067631 1_445
O0 Ta0 1.995072 1_555
O1 Ta0 1.995072 1_555
O2 Ta0 1.995072 1_555
O3 Ta0 1.995072 1_555
O4 Ta0 1.995072 1_555
O5 Ta0 1.995072 1_555
