# generated using pymatgen
data_ErTlS2
_symmetry_space_group_name_H-M   'P 1'
_cell_length_a   7.84954697
_cell_length_b   7.84954697
_cell_length_c   7.84954706
_cell_angle_alpha   29.28737138
_cell_angle_beta   29.28737138
_cell_angle_gamma   29.28736595
_symmetry_Int_Tables_number   1
_chemical_formula_structural   ErTlS2
_chemical_formula_sum   'Er1 Tl1 S2'
_cell_volume   102.41473049
_cell_formula_units_Z   1
loop_
 _symmetry_equiv_pos_site_id
 _symmetry_equiv_pos_as_xyz
  1  'x, y, z'
loop_
 _atom_site_type_symbol
 _atom_site_label
 _atom_site_symmetry_multiplicity
 _atom_site_fract_x
 _atom_site_fract_y
 _atom_site_fract_z
 _atom_site_occupancy
  Er  Er0  1  -0.00000000  -0.00000000  -0.00000000  1
  Tl  Tl0  1  0.50000000  0.50000000  0.50000000  1
  S  S0  1  0.73206876  0.73206876  0.73206876  1
  S  S1  1  0.26793124  0.26793124  0.26793124  1
loop_
_geom_bond_atom_site_label_1
_geom_bond_atom_site_label_2
_geom_bond_distance
_geom_bond_site_symmetry_2
Er0 S1 2.724049 1_455
Er0 S0 2.724049 1_544
Er0 S1 2.724049 1_545
Er0 S0 2.724049 1_454
Er0 S0 2.724049 1_445
Er0 S1 2.724049 1_554
S0 Tl0 3.233035 1_565
S0 Tl0 3.233035 1_655
S0 Tl0 3.233035 1_556
S1 Tl0 3.233035 1_545
S1 Tl0 3.233035 1_455
S1 Tl0 3.233035 1_554
