# generated using pymatgen
data_Ca(NiP)2
_symmetry_space_group_name_H-M   'P 1'
_cell_length_a   3.88932038
_cell_length_b   3.88931895
_cell_length_c   5.40724606
_cell_angle_alpha   111.07807659
_cell_angle_beta   111.07806191
_cell_angle_gamma   90.00000344
_symmetry_Int_Tables_number   1
_chemical_formula_structural   Ca(NiP)2
_chemical_formula_sum   'Ca1 Ni2 P2'
_cell_volume   70.42483795
_cell_formula_units_Z   1
loop_
 _symmetry_equiv_pos_site_id
 _symmetry_equiv_pos_as_xyz
  1  'x, y, z'
loop_
 _atom_site_type_symbol
 _atom_site_label
 _atom_site_symmetry_multiplicity
 _atom_site_fract_x
 _atom_site_fract_y
 _atom_site_fract_z
 _atom_site_occupancy
  Ca  Ca0  1  -0.00000000  0.00000000  -0.00000000  1
  Ni  Ni0  1  0.25000000  0.75000000  0.50000000  1
  Ni  Ni1  1  0.75000000  0.25000000  0.50000000  1
  P  P0  1  0.62438803  0.62438803  0.24877706  1
  P  P1  1  0.37561197  0.37561197  0.75122294  1
loop_
_geom_bond_atom_site_label_1
_geom_bond_atom_site_label_2
_geom_bond_distance
_geom_bond_site_symmetry_2
Ca0 P1 2.984099 1_444
Ca0 P0 2.984099 1_555
Ca0 P1 2.984102 1_544
Ca0 P0 2.984102 1_455
Ca0 P0 2.984102 1_545
Ca0 P1 2.984102 1_454
Ca0 P0 2.984105 1_445
Ca0 P1 2.984105 1_554
Ca0 Ni0 3.033220 1_555
Ca0 Ni1 3.033220 1_444
Ca0 Ni1 3.033221 1_455
Ca0 Ni0 3.033221 1_544
Ca0 Ni1 3.033221 1_454
Ca0 Ni0 3.033221 1_545
Ca0 Ni0 3.033221 1_444
Ca0 Ni1 3.033221 1_555
Ni0 P1 2.269287 1_555
Ni0 P0 2.269287 1_555
Ni0 P1 2.269289 1_565
Ni0 P0 2.269290 1_455
Ni1 P0 2.269287 1_555
Ni1 P1 2.269287 1_555
Ni1 P0 2.269289 1_545
Ni1 P1 2.269290 1_655
P0 P1 2.316429 1_554
