# generated using pymatgen
data_Na3ScF6
_symmetry_space_group_name_H-M   'P 1'
_cell_length_a   5.51805840
_cell_length_b   5.78124833
_cell_length_c   8.01581861
_cell_angle_alpha   90.00000000
_cell_angle_beta   91.15505789
_cell_angle_gamma   90.00000000
_symmetry_Int_Tables_number   1
_chemical_formula_structural   Na3ScF6
_chemical_formula_sum   'Na6 Sc2 F12'
_cell_volume   255.66280045
_cell_formula_units_Z   2
loop_
 _symmetry_equiv_pos_site_id
 _symmetry_equiv_pos_as_xyz
  1  'x, y, z'
loop_
 _atom_site_type_symbol
 _atom_site_label
 _atom_site_symmetry_multiplicity
 _atom_site_fract_x
 _atom_site_fract_y
 _atom_site_fract_z
 _atom_site_occupancy
  Na  Na0  1  0.01948896  0.56032724  0.74090183  1
  Na  Na1  1  0.48051104  0.06032724  0.75909817  1
  Na  Na2  1  0.98051104  0.43967276  0.25909817  1
  Na  Na3  1  0.51948896  0.93967276  0.24090183  1
  Na  Na4  1  0.50000000  0.50000000  -0.00000000  1
  Na  Na5  1  -0.00000000  0.00000000  0.50000000  1
  Sc  Sc0  1  0.50000000  0.50000000  0.50000000  1
  Sc  Sc1  1  -0.00000000  0.00000000  -0.00000000  1
  F  F0  1  0.67199756  0.21189080  0.41977927  1
  F  F1  1  0.82800244  0.71189080  0.08022073  1
  F  F2  1  0.32800244  0.78810920  0.58022073  1
  F  F3  1  0.17199756  0.28810920  0.91977927  1
  F  F4  1  0.19988945  0.32054727  0.55550330  1
  F  F5  1  0.30011055  0.82054727  0.94449670  1
  F  F6  1  0.80011055  0.67945273  0.44449670  1
  F  F7  1  0.69988945  0.17945273  0.05550330  1
  F  F8  1  0.12938725  0.06896193  0.23337320  1
  F  F9  1  0.37061275  0.56896193  0.26662680  1
  F  F10  1  0.87061275  0.93103807  0.76662680  1
  F  F11  1  0.62938725  0.43103807  0.73337320  1
loop_
_geom_bond_atom_site_label_1
_geom_bond_atom_site_label_2
_geom_bond_distance
_geom_bond_site_symmetry_2
F0 Sc0 2.028103 1_555
F0 Na5 2.267830 1_655
F0 Na3 2.278641 1_545
F0 Na2 2.525787 1_555
F1 Sc1 2.028103 1_665
F1 Na4 2.267830 1_555
F1 Na2 2.278641 1_555
F1 Na3 2.525787 1_555
F2 Sc0 2.028103 1_555
F2 Na5 2.267830 1_565
F2 Na1 2.278641 1_565
F2 Na0 2.525787 1_555
F3 Sc1 2.028103 1_556
F3 Na4 2.267830 1_556
F3 Na0 2.278641 1_555
F3 Na1 2.525787 1_555
F4 Sc0 2.011566 1_555
F4 Na5 2.197495 1_555
F4 Na0 2.276130 1_555
F4 Na1 2.687470 1_555
F4 Na2 2.732910 1_455
F5 Sc1 2.011566 1_566
F5 Na4 2.197495 1_556
F5 Na1 2.276130 1_565
F5 Na0 2.687470 1_555
F5 Na3 2.732910 1_556
F6 Sc0 2.011566 1_555
F6 Na5 2.197495 1_665
F6 Na2 2.276130 1_555
F6 Na3 2.687470 1_555
F6 Na0 2.732910 1_655
F7 Sc1 2.011566 1_655
F7 Na4 2.197495 1_555
F7 Na3 2.276130 1_545
F7 Na2 2.687470 1_555
F7 Na1 2.732910 1_554
F8 Sc1 2.028370 1_555
F8 Na3 2.278331 1_545
F8 Na5 2.301734 1_555
F8 Na2 2.305951 1_455
F9 Sc0 2.028370 1_555
F9 Na2 2.278331 1_455
F9 Na4 2.301734 1_555
F9 Na3 2.305951 1_555
F10 Sc1 2.028370 1_666
F10 Na1 2.278331 1_565
F10 Na5 2.301734 1_665
F10 Na0 2.305951 1_655
F11 Sc0 2.028370 1_555
F11 Na0 2.278331 1_655
F11 Na4 2.301734 1_556
F11 Na1 2.305951 1_555
