# generated using pymatgen
data_CsTiCoOF5
_symmetry_space_group_name_H-M   'P 1'
_cell_length_a   7.30453006
_cell_length_b   7.48562002
_cell_length_c   10.70377400
_cell_angle_alpha   89.99837818
_cell_angle_beta   89.98350273
_cell_angle_gamma   89.99097402
_symmetry_Int_Tables_number   1
_chemical_formula_structural   CsTiCoOF5
_chemical_formula_sum   'Cs4 Ti4 Co4 O4 F20'
_cell_volume   585.27094642
_cell_formula_units_Z   4
loop_
 _symmetry_equiv_pos_site_id
 _symmetry_equiv_pos_as_xyz
  1  'x, y, z'
loop_
 _atom_site_type_symbol
 _atom_site_label
 _atom_site_symmetry_multiplicity
 _atom_site_fract_x
 _atom_site_fract_y
 _atom_site_fract_z
 _atom_site_occupancy
  Cs  Cs0  1  0.99988900  0.75008100  0.37869400  1
  Cs  Cs1  1  0.49995500  0.24982800  0.87863200  1
  Cs  Cs2  1  0.00011200  0.24991500  0.62130500  1
  Cs  Cs3  1  0.50004700  0.75017000  0.12136700  1
  Ti  Ti0  1  0.24994500  0.24917600  0.24995700  1
  Ti  Ti1  1  0.75005400  0.75082800  0.75004600  1
  Ti  Ti2  1  0.75004800  0.24920600  0.24996000  1
  Ti  Ti3  1  0.24995000  0.75079600  0.75004100  1
  Co  Co0  1  0.50000100  0.50000000  0.50000000  1
  Co  Co1  1  0.00000000  0.50000000  0.00000000  1
  Co  Co2  1  0.00000000  0.00000100  0.00000000  1
  Co  Co3  1  0.49999900  0.00000100  0.50000100  1
  O  O0  1  0.99995100  0.24965600  0.28874300  1
  O  O1  1  0.49999200  0.75023500  0.78868900  1
  O  O2  1  0.00005100  0.75034500  0.71125900  1
  O  O3  1  0.50000800  0.24976500  0.21130900  1
  F  F0  1  0.99985900  0.74968900  0.07152200  1
  F  F1  1  0.49965900  0.25040400  0.57172600  1
  F  F2  1  0.00014300  0.25031300  0.92847800  1
  F  F3  1  0.50034000  0.74959500  0.42827300  1
  F  F4  1  0.29110500  0.43594900  0.37523600  1
  F  F5  1  0.78874600  0.93713200  0.87644800  1
  F  F6  1  0.70866900  0.43615500  0.37518300  1
  F  F7  1  0.21127000  0.93711200  0.87644400  1
  F  F8  1  0.28899800  0.06263700  0.37625100  1
  F  F9  1  0.79123200  0.56395600  0.87524300  1
  F  F10  1  0.28897700  0.93728100  0.62371000  1
  F  F11  1  0.79131300  0.43614200  0.12480300  1
  F  F12  1  0.71102000  0.06272000  0.37628900  1
  F  F13  1  0.20868300  0.56386000  0.87519600  1
  F  F14  1  0.71100200  0.93736300  0.62374900  1
  F  F15  1  0.20876800  0.43604300  0.12475600  1
  F  F16  1  0.29133500  0.56384300  0.62481800  1
  F  F17  1  0.78873100  0.06288700  0.12355700  1
  F  F18  1  0.70889400  0.56405100  0.62476500  1
  F  F19  1  0.21125400  0.06286600  0.12355200  1
loop_
_geom_bond_atom_site_label_1
_geom_bond_atom_site_label_2
_geom_bond_distance
_geom_bond_site_symmetry_2
Cs0 F12 3.150943 1_565
Cs0 F8 3.152143 1_665
Cs0 F6 3.170221 1_555
Cs0 F4 3.170827 1_655
Cs0 F0 3.287901 1_555
Cs1 F5 3.150852 1_545
Cs1 F7 3.150948 1_545
Cs1 F13 3.170556 1_555
Cs1 F9 3.171590 1_555
Cs1 F1 3.285057 1_555
Cs2 F10 3.150896 1_545
Cs2 F14 3.152126 1_445
Cs2 F16 3.170247 1_555
Cs2 F18 3.170859 1_455
Cs2 F2 3.287912 1_555
Cs3 F19 3.150862 1_565
Cs3 F17 3.150949 1_565
Cs3 F11 3.170504 1_555
Cs3 F15 3.171595 1_555
Cs3 F3 3.285056 1_555
Co0 F3 2.019946 1_555
Co0 F1 2.019949 1_555
Co0 F16 2.082113 1_555
Co0 F6 2.082120 1_555
Co0 F18 2.083994 1_555
Co0 F4 2.084003 1_555
Co1 F2 2.019789 1_554
Co1 F0 2.019803 1_455
Co1 F13 2.082229 1_554
Co1 F11 2.082241 1_455
Co1 F15 2.082974 1_555
Co1 F9 2.082979 1_454
Co2 F0 2.024080 1_445
Co2 F2 2.024080 1_554
Co2 F17 2.085865 1_455
Co2 F7 2.085869 1_544
Co2 F19 2.086388 1_555
Co2 F5 2.086395 1_444
Co3 F1 2.025574 1_555
Co3 F3 2.025607 1_545
Co3 F10 2.085376 1_545
Co3 F12 2.085389 1_555
Co3 F8 2.085854 1_555
Co3 F14 2.085855 1_545
O0 Ti2 1.872151 1_555
O0 Ti0 1.872573 1_655
O1 Ti1 1.872722 1_555
O1 Ti3 1.872822 1_555
O2 Ti3 1.872121 1_555
O2 Ti1 1.872597 1_455
O3 Ti0 1.872741 1_555
O3 Ti2 1.872815 1_555
F4 Ti0 1.960548 1_555
F5 Ti1 1.963617 1_555
F6 Ti2 1.961138 1_555
F7 Ti3 1.963500 1_555
F8 Ti0 1.964335 1_555
F9 Ti1 1.960375 1_555
F10 Ti3 1.964243 1_555
F11 Ti2 1.960471 1_555
F12 Ti2 1.964235 1_555
F13 Ti3 1.960459 1_555
F14 Ti1 1.964334 1_555
F15 Ti0 1.960376 1_555
F16 Ti3 1.961166 1_555
F17 Ti2 1.963519 1_555
F18 Ti1 1.960584 1_555
F19 Ti0 1.963670 1_555
