# generated using pymatgen
data_SrTl2O4
_symmetry_space_group_name_H-M   'P 1'
_cell_length_a   3.43100564
_cell_length_b   10.09167684
_cell_length_c   11.78800158
_cell_angle_alpha   90.00000000
_cell_angle_beta   90.00000000
_cell_angle_gamma   90.00000000
_symmetry_Int_Tables_number   1
_chemical_formula_structural   SrTl2O4
_chemical_formula_sum   'Sr4 Tl8 O16'
_cell_volume   408.15484134
_cell_formula_units_Z   4
loop_
 _symmetry_equiv_pos_site_id
 _symmetry_equiv_pos_as_xyz
  1  'x, y, z'
loop_
 _atom_site_type_symbol
 _atom_site_label
 _atom_site_symmetry_multiplicity
 _atom_site_fract_x
 _atom_site_fract_y
 _atom_site_fract_z
 _atom_site_occupancy
  Sr  Sr0  1  0.25000000  0.24544989  0.34804742  1
  Sr  Sr1  1  0.75000000  0.75455011  0.65195258  1
  Sr  Sr2  1  0.25000000  0.74544989  0.15195258  1
  Sr  Sr3  1  0.75000000  0.25455011  0.84804742  1
  Tl  Tl0  1  0.25000000  0.58004283  0.89220508  1
  Tl  Tl1  1  0.75000000  0.41995717  0.10779492  1
  Tl  Tl2  1  0.25000000  0.08004283  0.60779492  1
  Tl  Tl3  1  0.75000000  0.91995717  0.39220508  1
  Tl  Tl4  1  0.25000000  0.57561117  0.39040944  1
  Tl  Tl5  1  0.75000000  0.42438883  0.60959056  1
  Tl  Tl6  1  0.25000000  0.07561117  0.10959056  1
  Tl  Tl7  1  0.75000000  0.92438883  0.89040944  1
  O  O0  1  0.25000000  0.58685918  0.57420161  1
  O  O1  1  0.75000000  0.41314082  0.42579839  1
  O  O2  1  0.25000000  0.08685918  0.92579839  1
  O  O3  1  0.75000000  0.91314082  0.07420161  1
  O  O4  1  0.25000000  0.47918666  0.22056758  1
  O  O5  1  0.75000000  0.52081334  0.77943242  1
  O  O6  1  0.25000000  0.97918666  0.27943242  1
  O  O7  1  0.75000000  0.02081334  0.72056758  1
  O  O8  1  0.25000000  0.87510556  0.52395404  1
  O  O9  1  0.75000000  0.12489444  0.47604596  1
  O  O10  1  0.25000000  0.37510556  0.97604596  1
  O  O11  1  0.75000000  0.62489444  0.02395404  1
  O  O12  1  0.75000000  0.71031005  0.32103730  1
  O  O13  1  0.25000000  0.28968995  0.67896270  1
  O  O14  1  0.75000000  0.21031005  0.17896270  1
  O  O15  1  0.25000000  0.78968995  0.82103730  1
loop_
_geom_bond_atom_site_label_1
_geom_bond_atom_site_label_2
_geom_bond_distance
_geom_bond_site_symmetry_2
O0 Tl4 2.169514 1_555
O0 Tl5 2.409411 1_455
O0 Tl5 2.409411 1_555
O0 Sr1 2.578138 1_455
O0 Sr1 2.578138 1_555
O1 Tl5 2.169514 1_555
O1 Tl4 2.409411 1_555
O1 Tl4 2.409411 1_655
O1 Sr0 2.578138 1_655
O1 Sr0 2.578138 1_555
O2 Tl6 2.169514 1_556
O2 Tl7 2.409411 1_445
O2 Tl7 2.409411 1_545
O2 Sr3 2.578138 1_455
O2 Sr3 2.578138 1_555
O3 Tl7 2.169514 1_554
O3 Tl6 2.409411 1_565
O3 Tl6 2.409411 1_665
O3 Sr2 2.578138 1_555
O3 Sr2 2.578138 1_655
O4 Tl4 2.226047 1_555
O4 Tl1 2.251096 1_455
O4 Tl1 2.251096 1_555
O4 Sr0 2.796806 1_555
O4 Sr2 2.806138 1_555
O5 Tl5 2.226047 1_555
O5 Tl0 2.251096 1_555
O5 Tl0 2.251096 1_655
O5 Sr1 2.796806 1_555
O5 Sr3 2.806138 1_555
O6 Tl6 2.226047 1_565
O6 Tl3 2.251096 1_555
O6 Tl3 2.251096 1_455
O6 Sr2 2.796806 1_555
O6 Sr0 2.806138 1_565
O7 Tl7 2.226047 1_545
O7 Tl2 2.251096 1_655
O7 Tl2 2.251096 1_555
O7 Sr3 2.796806 1_555
O7 Sr1 2.806138 1_545
O8 Tl2 2.292173 1_565
O8 Tl3 2.357924 1_455
O8 Tl3 2.357924 1_555
O8 Sr1 2.588378 1_455
O8 Sr1 2.588378 1_555
O9 Tl3 2.292173 1_545
O9 Tl2 2.357924 1_555
O9 Tl2 2.357924 1_655
O9 Sr0 2.588378 1_655
O9 Sr0 2.588378 1_555
O10 Tl0 2.292173 1_555
O10 Tl1 2.357924 1_456
O10 Tl1 2.357924 1_556
O10 Sr3 2.588378 1_455
O10 Sr3 2.588378 1_555
O11 Tl1 2.292173 1_555
O11 Tl0 2.357924 1_554
O11 Tl0 2.357924 1_654
O11 Sr2 2.588378 1_555
O11 Sr2 2.588378 1_655
O12 Tl3 2.275949 1_555
O12 Tl4 2.336553 1_555
O12 Tl4 2.336553 1_655
O12 Sr2 2.653570 1_555
O12 Sr2 2.653570 1_655
O13 Tl2 2.275949 1_555
O13 Tl5 2.336553 1_455
O13 Tl5 2.336553 1_555
O13 Sr3 2.653570 1_455
O13 Sr3 2.653570 1_555
O14 Tl1 2.275949 1_555
O14 Tl6 2.336553 1_555
O14 Tl6 2.336553 1_655
O14 Sr0 2.653570 1_555
O14 Sr0 2.653570 1_655
O15 Tl0 2.275949 1_555
O15 Tl7 2.336553 1_455
O15 Tl7 2.336553 1_555
O15 Sr1 2.653570 1_455
O15 Sr1 2.653570 1_555
