# generated using pymatgen
data_Na8BeAl4Si7(BrO12)2
_symmetry_space_group_name_H-M   'P 1'
_cell_length_a   9.04334400
_cell_length_b   9.04334400
_cell_length_c   9.09371800
_cell_angle_alpha   90.00000000
_cell_angle_beta   90.00000000
_cell_angle_gamma   90.00000000
_symmetry_Int_Tables_number   1
_chemical_formula_structural   Na8BeAl4Si7(BrO12)2
_chemical_formula_sum   'Na8 Be1 Al4 Si7 Br2 O24'
_cell_volume   743.70308842
_cell_formula_units_Z   1
loop_
 _symmetry_equiv_pos_site_id
 _symmetry_equiv_pos_as_xyz
  1  'x, y, z'
loop_
 _atom_site_type_symbol
 _atom_site_label
 _atom_site_symmetry_multiplicity
 _atom_site_fract_x
 _atom_site_fract_y
 _atom_site_fract_z
 _atom_site_occupancy
  Na  Na0  1  0.19421000  0.31492200  0.05892100  1
  Na  Na1  1  0.68507800  0.19421000  0.94107900  1
  Na  Na2  1  0.31492200  0.80579000  0.94107900  1
  Na  Na3  1  0.80579000  0.68507800  0.05892100  1
  Na  Na4  1  0.70904200  0.81381600  0.55481000  1
  Na  Na5  1  0.18618400  0.70904200  0.44519000  1
  Na  Na6  1  0.81381600  0.29095800  0.44519000  1
  Na  Na7  1  0.29095800  0.18618400  0.55481000  1
  Be  Be0  1  0.00000000  0.00000000  0.50000000  1
  Al  Al0  1  0.75216700  0.49949900  0.75014300  1
  Al  Al1  1  0.50050100  0.75216700  0.24985700  1
  Al  Al2  1  0.49949900  0.24783300  0.24985700  1
  Al  Al3  1  0.24783300  0.50050100  0.75014300  1
  Si  Si0  1  0.00000000  0.00000000  0.00000000  1
  Si  Si1  1  0.50000000  0.50000000  0.00000000  1
  Si  Si2  1  0.75886100  0.99669500  0.25465200  1
  Si  Si3  1  0.24113900  0.00330500  0.25465200  1
  Si  Si4  1  0.50000000  0.50000000  0.50000000  1
  Si  Si5  1  0.99669500  0.24113900  0.74534800  1
  Si  Si6  1  0.00330500  0.75886100  0.74534800  1
  Br  Br0  1  0.50000000  0.00000000  0.75261200  1
  Br  Br1  1  0.00000000  0.50000000  0.24738800  1
  O  O0  1  0.35414700  0.45691800  0.90429900  1
  O  O1  1  0.85425100  0.34043200  0.79504300  1
  O  O2  1  0.14574900  0.65956800  0.79504300  1
  O  O3  1  0.96152600  0.85577300  0.89902100  1
  O  O4  1  0.64585300  0.54308200  0.90429900  1
  O  O5  1  0.54308200  0.35414700  0.09570100  1
  O  O6  1  0.14422700  0.96152600  0.10097900  1
  O  O7  1  0.03847400  0.14422700  0.89902100  1
  O  O8  1  0.85577300  0.03847400  0.10097900  1
  O  O9  1  0.45691800  0.64585300  0.09570100  1
  O  O10  1  0.65956800  0.85425100  0.20495700  1
  O  O11  1  0.85674400  0.96003500  0.39645000  1
  O  O12  1  0.34084100  0.85602800  0.28377200  1
  O  O13  1  0.65915900  0.14397200  0.28377200  1
  O  O14  1  0.34043200  0.14574900  0.20495700  1
  O  O15  1  0.45663700  0.35296300  0.40476700  1
  O  O16  1  0.14325600  0.03996500  0.39645000  1
  O  O17  1  0.03996500  0.85674400  0.60355000  1
  O  O18  1  0.64703700  0.45663700  0.59523300  1
  O  O19  1  0.54336300  0.64703700  0.40476700  1
  O  O20  1  0.96003500  0.14325600  0.60355000  1
  O  O21  1  0.35296300  0.54336300  0.59523300  1
  O  O22  1  0.14397200  0.34084100  0.71622800  1
  O  O23  1  0.85602800  0.65915900  0.71622800  1
loop_
_geom_bond_atom_site_label_1
_geom_bond_atom_site_label_2
_geom_bond_distance
_geom_bond_site_symmetry_2
Na0 O0 2.391238 1_554
Na0 O14 2.419245 1_555
Na0 O7 2.545732 1_554
Na1 O5 2.391238 1_556
Na1 O1 2.419245 1_555
Na1 O8 2.545732 1_556
Na2 O9 2.391238 1_556
Na2 O2 2.419245 1_555
Na2 O6 2.545732 1_556
Na3 O4 2.391238 1_554
Na3 O10 2.419245 1_555
Na3 O3 2.545732 1_554
Na4 O11 2.367801 1_555
Na4 O23 2.424401 1_555
Na4 O19 2.526141 1_555
Na5 O17 2.367801 1_555
Na5 O12 2.424401 1_555
Na5 O21 2.526141 1_555
Na6 O20 2.367801 1_555
Na6 O13 2.424401 1_555
Na6 O18 2.526141 1_555
Na7 O16 2.367801 1_555
Na7 O22 2.424401 1_555
Na7 O15 2.526141 1_555
Be0 O16 1.641856 1_555
Be0 O20 1.641856 1_455
Be0 O11 1.641856 1_445
Be0 O17 1.641856 1_545
Al0 O18 1.743154 1_555
Al0 O4 1.744960 1_555
Al0 O23 1.749870 1_555
Al0 O1 1.757343 1_555
Al1 O19 1.743154 1_555
Al1 O9 1.744960 1_555
Al1 O12 1.749870 1_555
Al1 O10 1.757343 1_555
Al2 O15 1.743154 1_555
Al2 O5 1.744960 1_555
Al2 O13 1.749870 1_555
Al2 O14 1.757343 1_555
Al3 O21 1.743154 1_555
Al3 O0 1.744960 1_555
Al3 O22 1.749870 1_555
Al3 O2 1.757343 1_555
Br0 Na2 2.970405 1_545
Br0 Na1 2.970405 1_555
Br0 Na7 3.105513 1_555
Br0 Na4 3.105513 1_545
Br1 Na3 2.970405 1_455
Br1 Na0 2.970405 1_555
Br1 Na5 3.105513 1_555
Br1 Na6 3.105513 1_455
O0 Si1 1.627555 1_556
O1 Si5 1.633984 1_555
O2 Si6 1.633984 1_555
O3 Si0 1.632627 1_666
O3 Si6 1.692257 1_655
O4 Si1 1.627555 1_556
O5 Si1 1.627555 1_555
O6 Si0 1.632627 1_565
O6 Si3 1.692257 1_565
O7 Si0 1.632627 1_556
O7 Si5 1.692257 1_455
O8 Si0 1.632627 1_655
O8 Si2 1.692257 1_545
O9 Si1 1.627555 1_555
O10 Si2 1.633984 1_555
O11 Si2 1.598814 1_555
O12 Si3 1.630022 1_565
O13 Si2 1.630022 1_545
O14 Si3 1.633984 1_555
O15 Si4 1.634592 1_555
O16 Si3 1.598814 1_555
O17 Si6 1.598814 1_555
O18 Si4 1.634592 1_555
O19 Si4 1.634592 1_555
O20 Si5 1.598814 1_555
O21 Si4 1.634592 1_555
O22 Si5 1.630022 1_455
O23 Si6 1.630022 1_655
