# generated using pymatgen
data_Sm2Zr2O7
_symmetry_space_group_name_H-M   'P 1'
_cell_length_a   7.51174196
_cell_length_b   7.51174196
_cell_length_c   7.51174196
_cell_angle_alpha   60.00000000
_cell_angle_beta   60.00000000
_cell_angle_gamma   60.00000000
_symmetry_Int_Tables_number   1
_chemical_formula_structural   Sm2Zr2O7
_chemical_formula_sum   'Sm4 Zr4 O14'
_cell_volume   299.71396908
_cell_formula_units_Z   2
loop_
 _symmetry_equiv_pos_site_id
 _symmetry_equiv_pos_as_xyz
  1  'x, y, z'
loop_
 _atom_site_type_symbol
 _atom_site_label
 _atom_site_symmetry_multiplicity
 _atom_site_fract_x
 _atom_site_fract_y
 _atom_site_fract_z
 _atom_site_occupancy
  Sm  Sm0  1  0.62500000  0.62500000  0.12500000  1
  Sm  Sm1  1  0.62500000  0.12500000  0.62500000  1
  Sm  Sm2  1  0.12500000  0.62500000  0.62500000  1
  Sm  Sm3  1  0.62500000  0.62500000  0.62500000  1
  Zr  Zr0  1  0.12500000  0.12500000  0.62500000  1
  Zr  Zr1  1  0.12500000  0.62500000  0.12500000  1
  Zr  Zr2  1  0.62500000  0.12500000  0.12500000  1
  Zr  Zr3  1  0.12500000  0.12500000  0.12500000  1
  O  O0  1  0.75000000  0.75000000  0.75000000  1
  O  O1  1  0.50000000  0.50000000  0.50000000  1
  O  O2  1  0.03827032  0.46172968  0.03827032  1
  O  O3  1  0.78827032  0.21172968  0.78827032  1
  O  O4  1  0.03827032  0.03827032  0.46172968  1
  O  O5  1  0.46172968  0.03827032  0.03827032  1
  O  O6  1  0.03827032  0.46172968  0.46172968  1
  O  O7  1  0.46172968  0.46172968  0.03827032  1
  O  O8  1  0.46172968  0.03827032  0.46172968  1
  O  O9  1  0.21172968  0.78827032  0.78827032  1
  O  O10  1  0.78827032  0.21172968  0.21172968  1
  O  O11  1  0.21172968  0.78827032  0.21172968  1
  O  O12  1  0.78827032  0.78827032  0.21172968  1
  O  O13  1  0.21172968  0.21172968  0.78827032  1
loop_
_geom_bond_atom_site_label_1
_geom_bond_atom_site_label_2
_geom_bond_distance
_geom_bond_site_symmetry_2
O0 Sm1 2.299992 1_565
O0 Sm2 2.299992 1_655
O0 Sm3 2.299992 1_555
O0 Sm0 2.299992 1_556
O1 Sm0 2.299992 1_555
O1 Sm2 2.299992 1_555
O1 Sm1 2.299992 1_555
O1 Sm3 2.299992 1_555
O2 Zr1 2.091775 1_555
O2 Zr3 2.091775 1_555
O2 Sm0 2.556360 1_455
O2 Sm2 2.556360 1_554
O3 Zr0 2.091775 1_655
O3 Zr2 2.091775 1_556
O3 Sm1 2.556360 1_555
O3 Sm3 2.556360 1_555
O4 Zr0 2.091775 1_555
O4 Zr3 2.091775 1_555
O4 Sm2 2.556360 1_545
O4 Sm1 2.556360 1_455
O5 Zr2 2.091775 1_555
O5 Zr3 2.091775 1_555
O5 Sm0 2.556360 1_545
O5 Sm1 2.556360 1_554
O6 Zr0 2.091775 1_555
O6 Zr1 2.091775 1_555
O6 Sm2 2.556360 1_555
O6 Sm3 2.556360 1_455
O7 Zr2 2.091775 1_555
O7 Zr1 2.091775 1_555
O7 Sm0 2.556360 1_555
O7 Sm3 2.556360 1_554
O8 Zr0 2.091775 1_555
O8 Zr2 2.091775 1_555
O8 Sm1 2.556360 1_555
O8 Sm3 2.556360 1_545
O9 Zr1 2.091775 1_556
O9 Zr0 2.091775 1_565
O9 Sm2 2.556360 1_555
O9 Sm3 2.556360 1_555
O10 Zr2 2.091775 1_555
O10 Zr3 2.091775 1_655
O10 Sm1 2.556360 1_555
O10 Sm0 2.556360 1_555
O11 Zr1 2.091775 1_555
O11 Zr3 2.091775 1_565
O11 Sm2 2.556360 1_555
O11 Sm0 2.556360 1_555
O12 Zr2 2.091775 1_565
O12 Zr1 2.091775 1_655
O12 Sm0 2.556360 1_555
O12 Sm3 2.556360 1_555
O13 Zr0 2.091775 1_555
O13 Zr3 2.091775 1_556
O13 Sm2 2.556360 1_555
O13 Sm1 2.556360 1_555
