# generated using pymatgen
data_YAl3Ni
_symmetry_space_group_name_H-M   'P 1'
_cell_length_a   4.02710599
_cell_length_b   8.10956377
_cell_length_c   10.60833375
_cell_angle_alpha   90.00000000
_cell_angle_beta   90.00000000
_cell_angle_gamma   90.00000000
_symmetry_Int_Tables_number   1
_chemical_formula_structural   YAl3Ni
_chemical_formula_sum   'Y4 Al12 Ni4'
_cell_volume   346.44773626
_cell_formula_units_Z   4
loop_
 _symmetry_equiv_pos_site_id
 _symmetry_equiv_pos_as_xyz
  1  'x, y, z'
loop_
 _atom_site_type_symbol
 _atom_site_label
 _atom_site_symmetry_multiplicity
 _atom_site_fract_x
 _atom_site_fract_y
 _atom_site_fract_z
 _atom_site_occupancy
  Y  Y0  1  0.25000000  0.18657339  0.99064676  1
  Y  Y1  1  0.75000000  0.31342661  0.49064676  1
  Y  Y2  1  0.25000000  0.68656923  0.50935291  1
  Y  Y3  1  0.75000000  0.81343077  0.00935291  1
  Al  Al0  1  0.75000000  0.44585714  0.91679713  1
  Al  Al1  1  0.25000000  0.55414670  0.08320432  1
  Al  Al2  1  0.75000000  0.94585330  0.58320432  1
  Al  Al3  1  0.25000000  0.05414286  0.41679713  1
  Al  Al4  1  0.75000000  0.61491771  0.28375589  1
  Al  Al5  1  0.25000000  0.88508229  0.78375589  1
  Al  Al6  1  0.75000000  0.11492071  0.21624701  1
  Al  Al7  1  0.25000000  0.35652103  0.27666884  1
  Al  Al8  1  0.75000000  0.64348168  0.72332871  1
  Al  Al9  1  0.25000000  0.85651832  0.22332871  1
  Al  Al10  1  0.25000000  0.38507929  0.71624701  1
  Al  Al11  1  0.75000000  0.14347897  0.77666884  1
  Ni  Ni0  1  0.75000000  0.89309881  0.35748446  1
  Ni  Ni1  1  0.75000000  0.39309623  0.14251497  1
  Ni  Ni2  1  0.25000000  0.60690119  0.85748446  1
  Ni  Ni3  1  0.25000000  0.10690377  0.64251497  1
loop_
_geom_bond_atom_site_label_1
_geom_bond_atom_site_label_2
_geom_bond_distance
_geom_bond_site_symmetry_2
Y0 Y3 3.640137 1_446
Y0 Y3 3.640137 1_546
Y1 Y2 3.640137 1_655
Y1 Y2 3.640137 1_555
Al0 Ni1 2.432417 1_556
Al0 Ni2 2.481114 1_655
Al0 Ni2 2.481114 1_555
Al0 Al8 2.603985 1_555
Al0 Al11 2.867548 1_555
Al0 Y0 3.014863 1_655
Al0 Y0 3.014863 1_555
Al0 Y3 3.138406 1_556
Al1 Ni2 2.432429 1_554
Al1 Ni1 2.481136 1_555
Al1 Ni1 2.481136 1_455
Al1 Al7 2.603958 1_555
Al1 Al9 2.867481 1_555
Al1 Y3 3.014870 1_555
Al1 Y3 3.014870 1_455
Al1 Y0 3.138409 1_554
Al2 Ni0 2.432429 1_555
Al2 Ni3 2.481136 1_565
Al2 Ni3 2.481136 1_665
Al2 Al8 2.867481 1_555
Al2 Y2 3.014870 1_555
Al2 Y2 3.014870 1_655
Al2 Y1 3.138409 1_565
Al3 Ni3 2.432417 1_555
Al3 Ni0 2.481114 1_445
Al3 Ni0 2.481114 1_545
Al3 Al9 2.603985 1_545
Al3 Al7 2.867548 1_555
Al3 Y1 3.014863 1_455
Al3 Y1 3.014863 1_555
Al3 Y2 3.138406 1_545
Al4 Ni1 2.341142 1_555
Al4 Ni0 2.387666 1_555
Al4 Al9 2.881680 1_555
Al4 Al9 2.881680 1_655
Al4 Al7 2.907078 1_655
Al4 Al7 2.907078 1_555
Al4 Y2 3.181112 1_655
Al4 Y2 3.181112 1_555
Al4 Y1 3.285550 1_555
Al4 Y3 3.326456 1_555
Al5 Ni3 2.341142 1_565
Al5 Ni2 2.387666 1_555
Al5 Al8 2.881680 1_555
Al5 Al8 2.881680 1_455
Al5 Y3 3.181112 1_456
Al5 Y3 3.181112 1_556
Al5 Y0 3.285550 1_565
Al5 Y2 3.326456 1_555
Al6 Ni0 2.341122 1_545
Al6 Ni1 2.387635 1_555
Al6 Al7 2.881665 1_555
Al6 Al7 2.881665 1_655
Al6 Al9 2.907110 1_545
Al6 Al9 2.907110 1_645
Al6 Y0 3.181140 1_554
Al6 Y0 3.181140 1_654
Al6 Y3 3.285566 1_545
Al6 Y1 3.326398 1_555
Al7 Ni1 2.483491 1_555
Al7 Ni1 2.483491 1_455
Al7 Y1 3.054374 1_455
Al7 Y1 3.054374 1_555
Al7 Y0 3.332554 1_554
Al7 Y2 3.640996 1_555
Al8 Ni2 2.483507 1_655
Al8 Ni2 2.483507 1_555
Al8 Y2 3.054351 1_655
Al8 Y2 3.054351 1_555
Al8 Y3 3.332579 1_556
Al8 Y1 3.641022 1_555
Al9 Ni0 2.483507 1_555
Al9 Ni0 2.483507 1_455
Al9 Y3 3.054351 1_555
Al9 Y3 3.054351 1_455
Al9 Y2 3.332579 1_555
Al9 Y0 3.641022 1_564
Al10 Ni2 2.341122 1_555
Al10 Ni3 2.387635 1_555
Al10 Al11 2.881665 1_455
Al10 Al11 2.881665 1_555
Al10 Al8 2.907110 1_555
Al10 Al8 2.907110 1_455
Al10 Y1 3.181140 1_555
Al10 Y1 3.181140 1_455
Al10 Y2 3.285566 1_555
Al10 Y0 3.326398 1_555
Al11 Ni3 2.483491 1_655
Al11 Ni3 2.483491 1_555
Al11 Al2 2.603958 1_545
Al11 Al5 2.907078 1_645
Al11 Al5 2.907078 1_545
Al11 Y0 3.054374 1_555
Al11 Y0 3.054374 1_655
Al11 Y1 3.332554 1_555
Al11 Y3 3.640996 1_546
Ni0 Y2 3.074918 1_655
Ni0 Y2 3.074918 1_555
Ni1 Y0 3.074886 1_554
Ni1 Y0 3.074886 1_654
Ni2 Y3 3.074918 1_556
Ni2 Y3 3.074918 1_456
Ni3 Y1 3.074886 1_455
Ni3 Y1 3.074886 1_555
