# generated using pymatgen
data_NdRhO3
_symmetry_space_group_name_H-M   'P 1'
_cell_length_a   5.36174282
_cell_length_b   5.83175504
_cell_length_c   7.79356720
_cell_angle_alpha   90.00000000
_cell_angle_beta   90.00000000
_cell_angle_gamma   90.00000000
_symmetry_Int_Tables_number   1
_chemical_formula_structural   NdRhO3
_chemical_formula_sum   'Nd4 Rh4 O12'
_cell_volume   243.69214839
_cell_formula_units_Z   4
loop_
 _symmetry_equiv_pos_site_id
 _symmetry_equiv_pos_as_xyz
  1  'x, y, z'
loop_
 _atom_site_type_symbol
 _atom_site_label
 _atom_site_symmetry_multiplicity
 _atom_site_fract_x
 _atom_site_fract_y
 _atom_site_fract_z
 _atom_site_occupancy
  Nd  Nd0  1  0.47541875  0.57625440  0.75000000  1
  Nd  Nd1  1  0.97541875  0.92374560  0.25000000  1
  Nd  Nd2  1  0.02458125  0.07625440  0.75000000  1
  Nd  Nd3  1  0.52458125  0.42374560  0.25000000  1
  Rh  Rh0  1  0.50000000  -0.00000000  0.50000000  1
  Rh  Rh1  1  -0.00000000  0.50000000  0.50000000  1
  Rh  Rh2  1  -0.00000000  0.50000000  0.00000000  1
  Rh  Rh3  1  0.50000000  -0.00000000  0.00000000  1
  O  O0  1  0.81524866  0.19592311  0.44745185  1
  O  O1  1  0.31524866  0.30407689  0.55254815  1
  O  O2  1  0.68475134  0.69592311  0.05254815  1
  O  O3  1  0.18475134  0.80407689  0.94745185  1
  O  O4  1  0.18475134  0.80407689  0.55254815  1
  O  O5  1  0.68475134  0.69592311  0.44745185  1
  O  O6  1  0.31524866  0.30407689  0.94745185  1
  O  O7  1  0.81524866  0.19592311  0.05254815  1
  O  O8  1  0.39075711  0.03374903  0.25000000  1
  O  O9  1  0.89075711  0.46625097  0.75000000  1
  O  O10  1  0.10924289  0.53374903  0.25000000  1
  O  O11  1  0.60924289  0.96625097  0.75000000  1
loop_
_geom_bond_atom_site_label_1
_geom_bond_atom_site_label_2
_geom_bond_distance
_geom_bond_site_symmetry_2
Nd0 O9 2.317496 1_555
Nd0 O1 2.371714 1_555
Nd0 O6 2.371714 1_555
Nd0 O11 2.384866 1_555
Nd0 O3 2.561667 1_555
Nd0 O4 2.561667 1_555
Nd0 O5 2.703076 1_555
Nd0 O2 2.703076 1_556
Nd1 O8 2.317496 1_665
Nd1 O7 2.371714 1_565
Nd1 O0 2.371714 1_565
Nd1 O10 2.384866 1_655
Nd1 O2 2.561667 1_555
Nd1 O5 2.561667 1_555
Nd1 O4 2.703076 1_655
Nd1 O3 2.703076 1_654
Nd2 O11 2.317496 1_445
Nd2 O3 2.371714 1_545
Nd2 O4 2.371714 1_545
Nd2 O9 2.384866 1_455
Nd2 O6 2.561667 1_555
Nd2 O1 2.561667 1_555
Nd2 O7 2.703076 1_456
Nd2 O0 2.703076 1_455
Nd3 O10 2.317496 1_555
Nd3 O5 2.371714 1_555
Nd3 O2 2.371714 1_555
Nd3 O8 2.384866 1_555
Nd3 O0 2.561667 1_555
Nd3 O7 2.561667 1_555
Nd3 O6 2.703076 1_554
Nd3 O1 2.703076 1_555
O0 Rh1 2.072097 1_655
O0 Rh0 2.080926 1_555
O1 Rh0 2.072097 1_555
O1 Rh1 2.080926 1_555
O2 Rh3 2.072097 1_565
O2 Rh2 2.080926 1_655
O3 Rh2 2.072097 1_556
O3 Rh3 2.080926 1_566
O4 Rh1 2.072097 1_555
O4 Rh0 2.080926 1_565
O5 Rh0 2.072097 1_565
O5 Rh1 2.080926 1_655
O6 Rh3 2.072097 1_556
O6 Rh2 2.080926 1_556
O7 Rh2 2.072097 1_655
O7 Rh3 2.080926 1_555
O8 Rh3 2.044028 1_555
O8 Rh0 2.044028 1_555
O9 Rh1 2.044028 1_655
O9 Rh2 2.044028 1_656
O10 Rh1 2.044028 1_555
O10 Rh2 2.044028 1_555
O11 Rh0 2.044028 1_565
O11 Rh3 2.044028 1_566
