# generated using pymatgen
data_Sc(CoSi)2
_symmetry_space_group_name_H-M   'P 1'
_cell_length_a   3.74921819
_cell_length_b   3.74921665
_cell_length_c   5.45681496
_cell_angle_alpha   110.09242223
_cell_angle_beta   110.09241175
_cell_angle_gamma   90.00000110
_symmetry_Int_Tables_number   1
_chemical_formula_structural   Sc(CoSi)2
_chemical_formula_sum   'Sc1 Co2 Si2'
_cell_volume   67.04366321
_cell_formula_units_Z   1
loop_
 _symmetry_equiv_pos_site_id
 _symmetry_equiv_pos_as_xyz
  1  'x, y, z'
loop_
 _atom_site_type_symbol
 _atom_site_label
 _atom_site_symmetry_multiplicity
 _atom_site_fract_x
 _atom_site_fract_y
 _atom_site_fract_z
 _atom_site_occupancy
  Sc  Sc0  1  0.00000000  0.00000000  0.00000000  1
  Co  Co0  1  0.75000000  0.25000000  0.50000000  1
  Co  Co1  1  0.25000000  0.75000000  0.50000000  1
  Si  Si0  1  0.62471613  0.62471613  0.24943325  1
  Si  Si1  1  0.37528387  0.37528387  0.75056675  1
loop_
_geom_bond_atom_site_label_1
_geom_bond_atom_site_label_2
_geom_bond_distance
_geom_bond_site_symmetry_2
Sc0 Si1 2.905795 1_444
Sc0 Si0 2.905795 1_555
Sc0 Si0 2.905797 1_455
Sc0 Si1 2.905797 1_544
Sc0 Si1 2.905798 1_454
Sc0 Si0 2.905798 1_545
Sc0 Si1 2.905800 1_554
Sc0 Si0 2.905800 1_445
Co0 Si0 2.223148 1_555
Co0 Si1 2.223148 1_555
Co0 Si0 2.223150 1_545
Co0 Si1 2.223151 1_655
Co0 Sc0 3.033361 1_666
Co0 Sc0 3.033362 1_655
Co0 Sc0 3.033362 1_656
Co0 Sc0 3.033362 1_555
Co1 Si1 2.223148 1_555
Co1 Si0 2.223148 1_555
Co1 Si1 2.223150 1_565
Co1 Si0 2.223151 1_455
Co1 Sc0 3.033361 1_555
Co1 Sc0 3.033362 1_566
Co1 Sc0 3.033362 1_565
Co1 Sc0 3.033362 1_666
Si0 Si1 2.379364 1_554
