# generated using pymatgen
data_Ag3AsS3
_symmetry_space_group_name_H-M   'P 1'
_cell_length_a   6.89275673
_cell_length_b   6.89275668
_cell_length_c   6.89275576
_cell_angle_alpha   101.78326832
_cell_angle_beta   101.78327729
_cell_angle_gamma   101.78326626
_symmetry_Int_Tables_number   1
_chemical_formula_structural   Ag3AsS3
_chemical_formula_sum   'Ag6 As2 S6'
_cell_volume   303.31065959
_cell_formula_units_Z   2
loop_
 _symmetry_equiv_pos_site_id
 _symmetry_equiv_pos_as_xyz
  1  'x, y, z'
loop_
 _atom_site_type_symbol
 _atom_site_label
 _atom_site_symmetry_multiplicity
 _atom_site_fract_x
 _atom_site_fract_y
 _atom_site_fract_z
 _atom_site_occupancy
  Ag  Ag0  1  0.38852797  0.59779144  0.05476860  1
  Ag  Ag1  1  0.55476860  0.09779144  0.88852797  1
  Ag  Ag2  1  0.05476860  0.38852797  0.59779144  1
  Ag  Ag3  1  0.88852797  0.55476860  0.09779144  1
  Ag  Ag4  1  0.59779144  0.05476860  0.38852797  1
  Ag  Ag5  1  0.09779144  0.88852797  0.55476860  1
  As  As0  1  0.63411406  0.63411406  0.63411406  1
  As  As1  1  0.13411406  0.13411406  0.13411406  1
  S  S0  1  0.73027452  0.41445338  0.39826704  1
  S  S1  1  0.39826704  0.73027452  0.41445338  1
  S  S2  1  0.91445338  0.23027452  0.89826704  1
  S  S3  1  0.41445338  0.39826704  0.73027452  1
  S  S4  1  0.23027452  0.89826704  0.91445338  1
  S  S5  1  0.89826704  0.91445338  0.23027452  1
loop_
_geom_bond_atom_site_label_1
_geom_bond_atom_site_label_2
_geom_bond_distance
_geom_bond_site_symmetry_2
Ag0 S3 2.435827 1_554
Ag0 S1 2.442799 1_555
Ag0 S4 2.779323 1_554
Ag1 S4 2.435828 1_545
Ag1 S2 2.442799 1_555
Ag1 S3 2.779323 1_555
Ag2 S0 2.435827 1_455
Ag2 S3 2.442799 1_555
Ag2 S2 2.779323 1_455
Ag3 S2 2.435827 1_554
Ag3 S5 2.442799 1_555
Ag3 S0 2.779323 1_555
Ag4 S1 2.435828 1_545
Ag4 S0 2.442799 1_555
Ag4 S5 2.779324 1_545
Ag5 S5 2.435827 1_455
Ag5 S4 2.442799 1_555
Ag5 S1 2.779324 1_555
As0 S1 2.284533 1_555
As0 S0 2.284533 1_555
As0 S3 2.284533 1_555
As1 S2 2.284533 1_454
As1 S4 2.284533 1_544
As1 S5 2.284533 1_445
