# generated using pymatgen
data_SrZrO3
_symmetry_space_group_name_H-M   'P 1'
_cell_length_a   5.79524115
_cell_length_b   5.84428960
_cell_length_c   8.21457412
_cell_angle_alpha   90.00000000
_cell_angle_beta   90.00000000
_cell_angle_gamma   90.00000000
_symmetry_Int_Tables_number   1
_chemical_formula_structural   SrZrO3
_chemical_formula_sum   'Sr4 Zr4 O12'
_cell_volume   278.21996603
_cell_formula_units_Z   4
loop_
 _symmetry_equiv_pos_site_id
 _symmetry_equiv_pos_as_xyz
  1  'x, y, z'
loop_
 _atom_site_type_symbol
 _atom_site_label
 _atom_site_symmetry_multiplicity
 _atom_site_fract_x
 _atom_site_fract_y
 _atom_site_fract_z
 _atom_site_occupancy
  Sr  Sr0  1  0.00695062  0.53137829  0.25000000  1
  Sr  Sr1  1  0.50695062  0.96862171  0.75000000  1
  Sr  Sr2  1  0.49304938  0.03137829  0.25000000  1
  Sr  Sr3  1  0.99304938  0.46862171  0.75000000  1
  Zr  Zr0  1  -0.00000000  -0.00000000  -0.00000000  1
  Zr  Zr1  1  0.50000000  0.50000000  -0.00000000  1
  Zr  Zr2  1  0.50000000  0.50000000  0.50000000  1
  Zr  Zr3  1  -0.00000000  -0.00000000  0.50000000  1
  O  O0  1  0.21435424  0.28544994  0.46083320  1
  O  O1  1  0.71435424  0.21455006  0.53916680  1
  O  O2  1  0.28564576  0.78544994  0.03916680  1
  O  O3  1  0.78564576  0.71455006  0.96083320  1
  O  O4  1  0.78564576  0.71455006  0.53916680  1
  O  O5  1  0.28564576  0.78544994  0.46083320  1
  O  O6  1  0.71435424  0.21455006  0.96083320  1
  O  O7  1  0.21435424  0.28544994  0.03916680  1
  O  O8  1  0.92580939  0.98136803  0.25000000  1
  O  O9  1  0.42580939  0.51863197  0.75000000  1
  O  O10  1  0.57419061  0.48136803  0.25000000  1
  O  O11  1  0.07419061  0.01863197  0.75000000  1
loop_
_geom_bond_atom_site_label_1
_geom_bond_atom_site_label_2
_geom_bond_distance
_geom_bond_site_symmetry_2
O0 Zr2 2.101444 1_555
O0 Zr3 2.104692 1_555
O0 Sr0 2.551461 1_555
O0 Sr2 2.795156 1_555
O0 Sr3 2.904010 1_455
O1 Zr3 2.101444 1_655
O1 Zr2 2.104692 1_555
O1 Sr1 2.551461 1_545
O1 Sr3 2.795156 1_555
O1 Sr2 2.904010 1_555
O2 Zr0 2.101444 1_565
O2 Zr1 2.104692 1_555
O2 Sr2 2.551461 1_565
O2 Sr0 2.795156 1_555
O2 Sr1 2.904010 1_554
O3 Zr1 2.101444 1_556
O3 Zr0 2.104692 1_666
O3 Sr3 2.551461 1_555
O3 Sr1 2.795156 1_555
O3 Sr0 2.904010 1_656
O4 Zr2 2.101444 1_555
O4 Zr3 2.104692 1_665
O4 Sr3 2.551461 1_555
O4 Sr1 2.795156 1_555
O4 Sr0 2.904010 1_655
O5 Zr3 2.101444 1_565
O5 Zr2 2.104692 1_555
O5 Sr2 2.551461 1_565
O5 Sr0 2.795156 1_555
O5 Sr1 2.904010 1_555
O6 Zr0 2.101444 1_656
O6 Zr1 2.104692 1_556
O6 Sr1 2.551461 1_545
O6 Sr3 2.795156 1_555
O6 Sr2 2.904010 1_556
O7 Zr1 2.101444 1_555
O7 Zr0 2.104692 1_555
O7 Sr0 2.551461 1_555
O7 Sr2 2.795156 1_555
O7 Sr3 2.904010 1_454
O8 Zr3 2.100992 1_665
O8 Zr0 2.100992 1_665
O8 Sr2 2.524922 1_565
O8 Sr0 2.671580 1_655
O9 Zr1 2.100992 1_556
O9 Zr2 2.100992 1_555
O9 Sr3 2.524922 1_455
O9 Sr1 2.671580 1_555
O10 Zr1 2.100992 1_555
O10 Zr2 2.100992 1_555
O10 Sr0 2.524922 1_655
O10 Sr2 2.671580 1_555
O11 Zr3 2.100992 1_555
O11 Zr0 2.100992 1_556
O11 Sr1 2.524922 1_545
O11 Sr3 2.671580 1_455
