# generated using pymatgen
data_Li4SeO5
_symmetry_space_group_name_H-M   'P 1'
_cell_length_a   5.18992080
_cell_length_b   5.18991987
_cell_length_c   7.78303393
_cell_angle_alpha   83.13045891
_cell_angle_beta   83.13045654
_cell_angle_gamma   66.80633645
_symmetry_Int_Tables_number   1
_chemical_formula_structural   Li4SeO5
_chemical_formula_sum   'Li8 Se2 O10'
_cell_volume   190.70688850
_cell_formula_units_Z   2
loop_
 _symmetry_equiv_pos_site_id
 _symmetry_equiv_pos_as_xyz
  1  'x, y, z'
loop_
 _atom_site_type_symbol
 _atom_site_label
 _atom_site_symmetry_multiplicity
 _atom_site_fract_x
 _atom_site_fract_y
 _atom_site_fract_z
 _atom_site_occupancy
  Li  Li0  1  0.36229424  0.03357164  0.35380365  1
  Li  Li1  1  0.96642836  0.63770576  0.14619635  1
  Li  Li2  1  0.56590425  0.22259905  0.94321869  1
  Li  Li3  1  0.77740095  0.43409575  0.55678131  1
  Li  Li4  1  0.43409575  0.77740095  0.05678131  1
  Li  Li5  1  0.22259905  0.56590425  0.44321869  1
  Li  Li6  1  0.63770576  0.96642836  0.64619635  1
  Li  Li7  1  0.03357164  0.36229424  0.85380365  1
  Se  Se0  1  0.82824225  0.17175775  0.25000000  1
  Se  Se1  1  0.17175775  0.82824225  0.75000000  1
  O  O0  1  0.00733658  0.35020608  0.34039574  1
  O  O1  1  0.64979392  0.99266342  0.15960426  1
  O  O2  1  0.87006346  0.12993654  0.75000000  1
  O  O3  1  0.12993654  0.87006346  0.25000000  1
  O  O4  1  0.41167713  0.76706002  0.57245096  1
  O  O5  1  0.23293998  0.58832287  0.92754904  1
  O  O6  1  0.58832287  0.23293998  0.42754904  1
  O  O7  1  0.76706002  0.41167713  0.07245096  1
  O  O8  1  0.35020608  0.00733658  0.84039574  1
  O  O9  1  0.99266342  0.64979392  0.65960426  1
loop_
_geom_bond_atom_site_label_1
_geom_bond_atom_site_label_2
_geom_bond_distance
_geom_bond_site_symmetry_2
Li0 O0 1.930149 1_555
Li0 O1 1.960534 1_545
Li0 O3 2.007534 1_545
Li0 O6 2.008818 1_555
Li0 O4 2.033913 1_545
Li1 O1 1.930149 1_555
Li1 O0 1.960534 1_655
Li1 O3 2.007534 1_655
Li1 O7 2.008818 1_555
Li1 O5 2.033914 1_654
Li2 O1 1.932702 1_546
Li2 O2 1.997947 1_555
Li2 O5 2.003800 1_555
Li2 O7 2.087767 1_556
Li2 O8 2.134255 1_555
Li3 O0 1.932702 1_655
Li3 O2 1.997947 1_555
Li3 O4 2.003800 1_555
Li3 O6 2.087767 1_555
Li3 O9 2.134255 1_555
Li4 O8 1.932702 1_564
Li4 O3 1.997947 1_555
Li4 O7 2.003800 1_555
Li4 O5 2.087767 1_554
Li4 O1 2.134255 1_555
Li5 O9 1.932702 1_455
Li5 O3 1.997947 1_555
Li5 O6 2.003800 1_555
Li5 O4 2.087767 1_555
Li5 O0 2.134255 1_555
Li6 O9 1.930149 1_555
Li6 O8 1.960534 1_565
Li6 O2 2.007534 1_565
Li6 O4 2.008818 1_555
Li6 O6 2.033913 1_565
Li7 O8 1.930149 1_555
Li7 O9 1.960534 1_455
Li7 O2 2.007534 1_455
Li7 O5 2.008818 1_555
Li7 O7 2.033914 1_456
O0 Se0 1.790814 1_455
O1 Se0 1.790814 1_565
O2 Se1 1.723996 1_645
O3 Se0 1.723996 1_465
O4 Se1 1.715443 1_555
O5 Se1 1.715443 1_555
O6 Se0 1.715443 1_555
O7 Se0 1.715443 1_555
O8 Se1 1.790814 1_545
O9 Se1 1.790814 1_655
