# generated using pymatgen
data_USiO4
_symmetry_space_group_name_H-M   'P 1'
_cell_length_a   5.87726321
_cell_length_b   5.87726321
_cell_length_c   5.87726321
_cell_angle_alpha   106.72903186
_cell_angle_beta   106.72903186
_cell_angle_gamma   115.10689358
_symmetry_Int_Tables_number   1
_chemical_formula_structural   USiO4
_chemical_formula_sum   'U2 Si2 O8'
_cell_volume   155.13486339
_cell_formula_units_Z   2
loop_
 _symmetry_equiv_pos_site_id
 _symmetry_equiv_pos_as_xyz
  1  'x, y, z'
loop_
 _atom_site_type_symbol
 _atom_site_label
 _atom_site_symmetry_multiplicity
 _atom_site_fract_x
 _atom_site_fract_y
 _atom_site_fract_z
 _atom_site_occupancy
  U  U0  1  0.50000000  0.50000000  0.00000000  1
  U  U1  1  0.75000000  0.25000000  0.50000000  1
  Si  Si0  1  0.00000000  0.00000000  0.00000000  1
  Si  Si1  1  0.25000000  0.75000000  0.50000000  1
  O  O0  1  0.34817800  0.16773100  0.18044700  1
  O  O1  1  0.41773100  0.73728400  0.31955300  1
  O  O2  1  0.41773100  0.09817800  0.68044700  1
  O  O3  1  0.98728400  0.16773100  0.81955300  1
  O  O4  1  0.83226900  0.65182200  0.81955300  1
  O  O5  1  0.26271600  0.58226900  0.68044700  1
  O  O6  1  0.90182200  0.58226900  0.31955300  1
  O  O7  1  0.83226900  0.01271600  0.18044700  1
loop_
_geom_bond_atom_site_label_1
_geom_bond_atom_site_label_2
_geom_bond_distance
_geom_bond_site_symmetry_2
O0 Si0 1.649510 1_555
O0 U1 2.300667 1_555
O0 U0 2.448026 1_555
O1 Si1 1.649510 1_555
O1 U0 2.300667 1_555
O1 U1 2.448026 1_565
O2 Si1 1.649510 1_545
O2 U0 2.300667 1_556
O2 U1 2.448026 1_555
O3 Si0 1.649510 1_656
O3 U1 2.300667 1_555
O3 U0 2.448026 1_656
O4 Si0 1.649510 1_666
O4 U1 2.300667 1_555
O4 U0 2.448026 1_556
O5 Si1 1.649510 1_555
O5 U0 2.300667 1_556
O5 U1 2.448026 1_455
O6 Si1 1.649510 1_655
O6 U0 2.300667 1_555
O6 U1 2.448026 1_555
O7 Si0 1.649510 1_655
O7 U1 2.300667 1_555
O7 U0 2.448026 1_545
