# generated using pymatgen
data_GaPO4
_symmetry_space_group_name_H-M   'P 1'
_cell_length_a   4.89630813
_cell_length_b   4.89632767
_cell_length_c   11.08969510
_cell_angle_alpha   90.00023010
_cell_angle_beta   89.99965901
_cell_angle_gamma   119.99772049
_symmetry_Int_Tables_number   1
_chemical_formula_structural   GaPO4
_chemical_formula_sum   'Ga3 P3 O12'
_cell_volume   230.24988769
_cell_formula_units_Z   3
loop_
 _symmetry_equiv_pos_site_id
 _symmetry_equiv_pos_as_xyz
  1  'x, y, z'
loop_
 _atom_site_type_symbol
 _atom_site_label
 _atom_site_symmetry_multiplicity
 _atom_site_fract_x
 _atom_site_fract_y
 _atom_site_fract_z
 _atom_site_occupancy
  Ga  Ga0  1  0.54466601  0.54466510  -0.00000149  1
  Ga  Ga1  1  -0.00000901  0.45533102  0.66667077  1
  Ga  Ga2  1  0.45532672  -0.00000755  0.33332999  1
  P  P0  1  0.54515182  0.54515189  0.50000102  1
  P  P1  1  0.00001157  0.45485789  0.16665614  1
  P  P2  1  0.45485782  0.00000789  0.83334155  1
  O  O0  1  0.27422467  0.40762715  0.12890201  1
  O  O1  1  0.59236122  0.86658897  0.46223042  1
  O  O2  1  0.13340578  0.72578107  0.79556368  1
  O  O3  1  0.86659053  0.59237172  0.53777092  1
  O  O4  1  0.72578425  0.13340344  0.20443801  1
  O  O5  1  0.40762577  0.27422467  0.87109620  1
  O  O6  1  0.40833065  0.32109767  0.39226321  1
  O  O7  1  0.67891047  0.08722675  0.72559503  1
  O  O8  1  0.91276165  0.59167294  0.05893331  1
  O  O9  1  0.08722931  0.67890862  0.27440546  1
  O  O10  1  0.59167473  0.91276303  0.94106741  1
  O  O11  1  0.32109604  0.40832972  0.60773734  1
loop_
_geom_bond_atom_site_label_1
_geom_bond_atom_site_label_2
_geom_bond_distance
_geom_bond_site_symmetry_2
Ga0 O10 1.820346 1_554
Ga0 O8 1.820346 1_555
Ga0 O5 1.832657 1_554
Ga0 O0 1.832663 1_555
Ga1 O7 1.820361 1_455
Ga1 O11 1.820380 1_555
Ga1 O2 1.832600 1_555
Ga1 O3 1.832617 1_455
Ga2 O9 1.820349 1_545
Ga2 O6 1.820372 1_555
Ga2 O4 1.832606 1_555
Ga2 O1 1.832614 1_545
O0 P1 1.530326 1_555
O1 P0 1.530407 1_555
O2 P2 1.530506 1_565
O3 P0 1.530389 1_555
O4 P1 1.530526 1_655
O5 P2 1.530354 1_555
O6 P0 1.531311 1_555
O7 P2 1.531375 1_555
O8 P1 1.531186 1_655
O9 P1 1.531400 1_555
O10 P2 1.531204 1_565
O11 P0 1.531297 1_555
