# generated using pymatgen
data_NaZnP
_symmetry_space_group_name_H-M   'P 1'
_cell_length_a   4.02878405
_cell_length_b   4.02878405
_cell_length_c   6.83700378
_cell_angle_alpha   90.00000000
_cell_angle_beta   90.00000000
_cell_angle_gamma   90.00000000
_symmetry_Int_Tables_number   1
_chemical_formula_structural   NaZnP
_chemical_formula_sum   'Na2 Zn2 P2'
_cell_volume   110.97209835
_cell_formula_units_Z   2
loop_
 _symmetry_equiv_pos_site_id
 _symmetry_equiv_pos_as_xyz
  1  'x, y, z'
loop_
 _atom_site_type_symbol
 _atom_site_label
 _atom_site_symmetry_multiplicity
 _atom_site_fract_x
 _atom_site_fract_y
 _atom_site_fract_z
 _atom_site_occupancy
  Na  Na0  1  0.75000000  0.75000000  0.64420378  1
  Na  Na1  1  0.25000000  0.25000000  0.35579622  1
  Zn  Zn0  1  0.75000000  0.25000000  -0.00000000  1
  Zn  Zn1  1  0.25000000  0.75000000  0.00000000  1
  P  P0  1  0.25000000  0.25000000  0.78770439  1
  P  P1  1  0.75000000  0.75000000  0.21229561  1
loop_
_geom_bond_atom_site_label_1
_geom_bond_atom_site_label_2
_geom_bond_distance
_geom_bond_site_symmetry_2
Na0 P1 2.952958 1_555
Na0 P0 3.012994 1_655
Na0 P0 3.012994 1_555
Na0 P0 3.012994 1_565
Na0 P0 3.012994 1_665
Na1 P0 2.952958 1_555
Na1 P1 3.012994 1_545
Na1 P1 3.012994 1_455
Na1 P1 3.012994 1_555
Na1 P1 3.012994 1_445
P0 Zn0 2.482847 1_456
P0 Zn1 2.482847 1_546
P0 Zn0 2.482847 1_556
P0 Zn1 2.482847 1_556
P1 Zn0 2.482847 1_565
P1 Zn1 2.482847 1_655
P1 Zn0 2.482847 1_555
P1 Zn1 2.482847 1_555
