# generated using pymatgen
data_MnCo2Si
_symmetry_space_group_name_H-M   'P 1'
_cell_length_a   3.94914280
_cell_length_b   3.94914355
_cell_length_c   3.94914362
_cell_angle_alpha   60.00000798
_cell_angle_beta   60.00000163
_cell_angle_gamma   60.00001725
_symmetry_Int_Tables_number   1
_chemical_formula_structural   MnCo2Si
_chemical_formula_sum   'Mn1 Co2 Si1'
_cell_volume   43.55056330
_cell_formula_units_Z   1
loop_
 _symmetry_equiv_pos_site_id
 _symmetry_equiv_pos_as_xyz
  1  'x, y, z'
loop_
 _atom_site_type_symbol
 _atom_site_label
 _atom_site_symmetry_multiplicity
 _atom_site_fract_x
 _atom_site_fract_y
 _atom_site_fract_z
 _atom_site_occupancy
  Mn  Mn0  1  -0.00000000  0.00000000  -0.00000000  1
  Co  Co0  1  0.75000000  0.75000000  0.75000000  1
  Co  Co1  1  0.25000000  0.25000000  0.25000000  1
  Si  Si0  1  0.50000000  0.50000000  0.50000000  1
loop_
_geom_bond_atom_site_label_1
_geom_bond_atom_site_label_2
_geom_bond_distance
_geom_bond_site_symmetry_2
Mn0 Si0 2.792466 1_554
Mn0 Si0 2.792466 1_445
Mn0 Si0 2.792466 1_455
Mn0 Si0 2.792466 1_454
Mn0 Si0 2.792466 1_544
Mn0 Si0 2.792466 1_545
Co0 Si0 2.418346 1_555
Co0 Mn0 2.418346 1_666
Co0 Si0 2.418346 1_655
Co0 Mn0 2.418346 1_566
Co0 Mn0 2.418347 1_665
Co0 Si0 2.418347 1_556
Co0 Mn0 2.418347 1_656
Co0 Si0 2.418347 1_565
Co1 Mn0 2.418346 1_555
Co1 Si0 2.418346 1_555
Co1 Mn0 2.418346 1_655
Co1 Si0 2.418346 1_455
Co1 Si0 2.418347 1_554
Co1 Mn0 2.418347 1_556
Co1 Mn0 2.418347 1_565
Co1 Si0 2.418347 1_545
