# generated using pymatgen
data_Pr6Fe13Au
_symmetry_space_group_name_H-M   'P 1'
_cell_length_a   12.97892196
_cell_length_b   12.97892196
_cell_length_c   12.97892196
_cell_angle_alpha   143.83858437
_cell_angle_beta   143.83858437
_cell_angle_gamma   52.06873349
_symmetry_Int_Tables_number   1
_chemical_formula_structural   Pr6Fe13Au
_chemical_formula_sum   'Pr12 Fe26 Au2'
_cell_volume   756.88552050
_cell_formula_units_Z   2
loop_
 _symmetry_equiv_pos_site_id
 _symmetry_equiv_pos_as_xyz
  1  'x, y, z'
loop_
 _atom_site_type_symbol
 _atom_site_label
 _atom_site_symmetry_multiplicity
 _atom_site_fract_x
 _atom_site_fract_y
 _atom_site_fract_z
 _atom_site_occupancy
  Pr  Pr0  1  0.10658400  0.10658400  0.00000000  1
  Pr  Pr1  1  0.02212200  0.85017100  0.50000000  1
  Pr  Pr2  1  0.97787800  0.14982900  0.50000000  1
  Pr  Pr3  1  0.64982900  0.47787800  0.50000000  1
  Pr  Pr4  1  0.47787800  0.97787800  0.82804900  1
  Pr  Pr5  1  0.14982900  0.64982900  0.17195100  1
  Pr  Pr6  1  0.85017100  0.35017100  0.82804900  1
  Pr  Pr7  1  0.52212200  0.02212200  0.17195100  1
  Pr  Pr8  1  0.35017100  0.52212200  0.50000000  1
  Pr  Pr9  1  0.60658400  0.60658400  0.00000000  1
  Pr  Pr10  1  0.89341600  0.89341600  0.00000000  1
  Pr  Pr11  1  0.39341600  0.39341600  0.00000000  1
  Fe  Fe0  1  0.70962800  0.43361500  0.14324300  1
  Fe  Fe1  1  0.70738000  0.98039200  0.50000000  1
  Fe  Fe2  1  0.29262000  0.01960800  0.50000000  1
  Fe  Fe3  1  0.51960800  0.79262000  0.50000000  1
  Fe  Fe4  1  0.79262000  0.29262000  0.27301200  1
  Fe  Fe5  1  0.01960800  0.51960800  0.72698800  1
  Fe  Fe6  1  0.98039200  0.48039200  0.27301200  1
  Fe  Fe7  1  0.20738000  0.70738000  0.72698800  1
  Fe  Fe8  1  0.48039200  0.20738000  0.50000000  1
  Fe  Fe9  1  0.87989400  0.73739300  0.50000000  1
  Fe  Fe10  1  0.12010600  0.26260700  0.50000000  1
  Fe  Fe11  1  0.76260700  0.62010600  0.50000000  1
  Fe  Fe12  1  0.00000000  0.50000000  0.50000000  1
  Fe  Fe13  1  0.50000000  0.00000000  0.50000000  1
  Fe  Fe14  1  0.06638500  0.79037200  0.85675700  1
  Fe  Fe15  1  0.79037200  0.93361500  0.72398800  1
  Fe  Fe16  1  0.20962800  0.06638500  0.27601200  1
  Fe  Fe17  1  0.43361500  0.29037200  0.72398800  1
  Fe  Fe18  1  0.56638500  0.70962800  0.27601200  1
  Fe  Fe19  1  0.29037200  0.56638500  0.85675700  1
  Fe  Fe20  1  0.26260700  0.76260700  0.14250100  1
  Fe  Fe21  1  0.93361500  0.20962800  0.14324300  1
  Fe  Fe22  1  0.23739300  0.37989400  0.50000000  1
  Fe  Fe23  1  0.37989400  0.87989400  0.14250100  1
  Fe  Fe24  1  0.73739300  0.23739300  0.85749900  1
  Fe  Fe25  1  0.62010600  0.12010600  0.85749900  1
  Au  Au0  1  0.25000000  0.25000000  0.00000000  1
  Au  Au1  1  0.75000000  0.75000000  0.00000000  1
loop_
_geom_bond_atom_site_label_1
_geom_bond_atom_site_label_2
_geom_bond_distance
_geom_bond_site_symmetry_2
Fe0 Fe12 2.399645 1_655
Fe0 Fe24 2.479628 1_554
Fe0 Fe25 2.479628 1_554
Fe0 Fe17 2.505218 1_554
Fe0 Fe18 2.505221 1_555
Fe0 Fe21 2.551920 1_555
Fe0 Fe9 2.565062 1_555
Fe0 Fe11 2.565062 1_555
Fe0 Fe6 2.640025 1_555
Fe0 Fe4 2.640025 1_555
Fe0 Pr11 3.052549 1_555
Fe0 Pr9 3.052549 1_555
Fe1 Fe9 2.505669 1_555
Fe1 Fe13 2.543064 1_565
Fe1 Fe23 2.548546 1_555
Fe1 Fe24 2.548546 1_565
Fe1 Fe8 2.586111 1_565
Fe1 Fe18 2.640018 1_555
Fe1 Fe15 2.640037 1_555
Fe1 Pr7 3.129668 1_565
Fe1 Pr6 3.129668 1_565
Fe1 Pr0 3.258716 1_666
Fe1 Pr9 3.258716 1_555
Fe1 Pr1 3.325000 1_655
Fe2 Fe25 2.548546 1_555
Fe2 Fe20 2.548546 1_545
Fe2 Fe3 2.586111 1_545
Fe2 Pr5 3.129668 1_545
Fe2 Pr4 3.129668 1_545
Fe2 Pr11 3.258716 1_556
Fe2 Pr10 3.258716 1_445
Fe2 Pr2 3.325000 1_455
Fe3 Pr5 3.129668 1_555
Fe3 Pr4 3.129668 1_555
Fe3 Pr11 3.258716 1_555
Fe3 Pr10 3.258716 1_556
Fe3 Pr3 3.325000 1_555
Fe4 Fe5 2.586111 1_655
Fe4 Pr2 3.129668 1_555
Fe4 Pr3 3.129668 1_555
Fe4 Pr10 3.258716 1_545
Fe4 Pr11 3.258716 1_555
Fe4 Pr4 3.325000 1_544
Fe5 Pr2 3.129668 1_455
Fe5 Pr3 3.129668 1_455
Fe5 Pr11 3.258716 1_556
Fe5 Pr10 3.258716 1_456
Fe5 Pr5 3.325000 1_556
Fe6 Fe9 2.548546 1_555
Fe6 Fe7 2.586111 1_655
Fe6 Pr1 3.129668 1_655
Fe6 Pr8 3.129668 1_655
Fe6 Pr9 3.258716 1_555
Fe6 Pr0 3.258716 1_655
Fe6 Pr6 3.325000 1_554
Fe7 Fe9 2.548546 1_455
Fe7 Pr8 3.129668 1_555
Fe7 Pr1 3.129668 1_555
Fe7 Pr0 3.258716 1_566
Fe7 Pr9 3.258716 1_556
Fe7 Pr7 3.325000 1_566
Fe8 Pr7 3.129668 1_555
Fe8 Pr6 3.129668 1_555
Fe8 Pr0 3.258716 1_555
Fe8 Pr9 3.258716 1_556
Fe8 Pr8 3.325000 1_555
Fe9 Pr1 2.978599 1_655
Fe9 Pr0 3.165756 1_666
Fe9 Pr9 3.165756 1_555
Fe10 Fe12 2.453220 1_555
Fe10 Fe17 2.479625 1_555
Fe10 Fe16 2.479638 1_555
Fe10 Fe2 2.505669 1_555
Fe10 Fe4 2.548546 1_455
Fe10 Fe5 2.548546 1_555
Fe10 Fe19 2.565062 1_555
Fe10 Fe21 2.565062 1_455
Fe10 Fe22 2.735593 1_555
Fe10 Pr2 2.978599 1_455
Fe10 Pr10 3.165756 1_445
Fe10 Pr11 3.165756 1_556
Fe11 Fe12 2.453220 1_655
Fe11 Fe15 2.479625 1_555
Fe11 Fe18 2.479638 1_555
Fe11 Fe3 2.505669 1_555
Fe11 Fe4 2.548546 1_555
Fe11 Fe5 2.548546 1_655
Fe11 Fe14 2.565062 1_655
Fe11 Fe9 2.735593 1_555
Fe11 Pr3 2.978599 1_555
Fe11 Pr11 3.165756 1_555
Fe11 Pr10 3.165756 1_556
Fe12 Fe19 2.399645 1_555
Fe12 Fe14 2.399645 1_555
Fe12 Fe21 2.399645 1_455
Fe12 Fe9 2.453220 1_455
Fe12 Fe22 2.453220 1_555
Fe12 Fe6 2.543064 1_455
Fe12 Fe4 2.543064 1_455
Fe12 Fe5 2.543064 1_555
Fe12 Fe7 2.543064 1_555
Fe13 Fe17 2.399648 1_555
Fe13 Fe15 2.399648 1_545
Fe13 Fe16 2.399648 1_555
Fe13 Fe18 2.399648 1_545
Fe13 Fe24 2.453220 1_555
Fe13 Fe23 2.453220 1_545
Fe13 Fe20 2.453220 1_545
Fe13 Fe25 2.453220 1_555
Fe13 Fe3 2.543064 1_545
Fe13 Fe2 2.543064 1_555
Fe13 Fe8 2.543064 1_555
Fe14 Fe23 2.479628 1_556
Fe14 Fe20 2.479628 1_556
Fe14 Fe16 2.505218 1_566
Fe14 Fe15 2.505221 1_455
Fe14 Fe19 2.551920 1_555
Fe14 Fe9 2.565062 1_455
Fe14 Fe5 2.640025 1_555
Fe14 Fe7 2.640025 1_555
Fe14 Pr0 3.052549 1_566
Fe14 Pr10 3.052549 1_456
Fe15 Fe9 2.479638 1_555
Fe15 Fe21 2.505218 1_566
Fe15 Fe18 2.551932 1_555
Fe15 Fe25 2.565055 1_565
Fe15 Fe24 2.565067 1_565
Fe15 Fe3 2.640018 1_555
Fe15 Pr10 3.052537 1_556
Fe15 Pr0 3.052556 1_666
Fe16 Fe22 2.479625 1_555
Fe16 Fe21 2.505221 1_455
Fe16 Fe17 2.551932 1_555
Fe16 Fe23 2.565055 1_545
Fe16 Fe20 2.565067 1_545
Fe16 Fe8 2.640018 1_555
Fe16 Fe2 2.640037 1_555
Fe16 Pr0 3.052537 1_555
Fe16 Pr10 3.052556 1_445
Fe17 Fe22 2.479638 1_555
Fe17 Fe19 2.505221 1_555
Fe17 Fe25 2.565055 1_555
Fe17 Fe24 2.565067 1_555
Fe17 Fe2 2.640018 1_555
Fe17 Fe8 2.640037 1_555
Fe17 Pr11 3.052537 1_556
Fe17 Pr9 3.052556 1_556
Fe18 Fe9 2.479625 1_555
Fe18 Fe19 2.505218 1_554
Fe18 Fe23 2.565055 1_555
Fe18 Fe20 2.565067 1_555
Fe18 Fe3 2.640037 1_555
Fe18 Pr9 3.052537 1_555
Fe18 Pr11 3.052556 1_555
Fe19 Fe20 2.479628 1_556
Fe19 Fe23 2.479628 1_556
Fe19 Fe22 2.565062 1_555
Fe19 Fe5 2.640025 1_555
Fe19 Fe7 2.640025 1_555
Fe19 Pr11 3.052549 1_556
Fe19 Pr9 3.052549 1_556
Fe20 Fe5 2.505669 1_554
Fe20 Fe3 2.548546 1_555
Fe20 Fe23 2.735593 1_555
Fe20 Pr5 2.978599 1_555
Fe20 Pr11 3.165756 1_555
Fe20 Pr10 3.165756 1_455
Fe21 Fe24 2.479628 1_554
Fe21 Fe25 2.479628 1_554
Fe21 Fe22 2.565062 1_655
Fe21 Fe6 2.640025 1_555
Fe21 Fe4 2.640025 1_555
Fe21 Pr10 3.052549 1_545
Fe21 Pr0 3.052549 1_655
Fe22 Fe8 2.505669 1_555
Fe22 Fe7 2.548546 1_555
Fe22 Fe6 2.548546 1_455
Fe22 Pr8 2.978599 1_555
Fe22 Pr0 3.165756 1_555
Fe22 Pr9 3.165756 1_556
Fe23 Fe7 2.505669 1_554
Fe23 Fe8 2.548546 1_565
Fe23 Pr7 2.978599 1_565
Fe23 Pr9 3.165756 1_555
Fe23 Pr0 3.165756 1_565
Fe24 Fe6 2.505669 1_556
Fe24 Fe8 2.548546 1_555
Fe24 Fe25 2.735593 1_555
Fe24 Pr6 2.978599 1_555
Fe24 Pr9 3.165756 1_556
Fe24 Pr0 3.165756 1_656
Fe25 Fe4 2.505669 1_556
Fe25 Fe3 2.548546 1_545
Fe25 Pr4 2.978599 1_545
Fe25 Pr11 3.165756 1_556
Fe25 Pr10 3.165756 1_546
Au0 Pr0 3.345024 1_555
Au0 Pr11 3.345024 1_555
Au0 Pr4 3.360104 1_544
Au0 Pr3 3.360104 1_555
Au0 Pr2 3.360104 1_454
Au0 Pr6 3.360104 1_454
Au0 Pr7 3.360104 1_555
Au0 Pr1 3.360104 1_544
Au0 Pr5 3.360104 1_555
Au0 Pr8 3.360104 1_555
Au1 Pr9 3.345024 1_555
Au1 Pr10 3.345024 1_555
Au1 Pr3 3.360104 1_554
Au1 Pr6 3.360104 1_554
Au1 Pr2 3.360104 1_565
Au1 Pr4 3.360104 1_554
Au1 Pr5 3.360104 1_655
Au1 Pr8 3.360104 1_554
Au1 Pr1 3.360104 1_655
Au1 Pr7 3.360104 1_565
