# generated using pymatgen
data_BaCO3
_symmetry_space_group_name_H-M   'P 1'
_cell_length_a   4.31659313
_cell_length_b   4.31659309
_cell_length_c   4.31659373
_cell_angle_alpha   77.02716604
_cell_angle_beta   77.02716971
_cell_angle_gamma   77.02716943
_symmetry_Int_Tables_number   1
_chemical_formula_structural   BaCO3
_chemical_formula_sum   'Ba1 C1 O3'
_cell_volume   75.08311096
_cell_formula_units_Z   1
loop_
 _symmetry_equiv_pos_site_id
 _symmetry_equiv_pos_as_xyz
  1  'x, y, z'
loop_
 _atom_site_type_symbol
 _atom_site_label
 _atom_site_symmetry_multiplicity
 _atom_site_fract_x
 _atom_site_fract_y
 _atom_site_fract_z
 _atom_site_occupancy
  Ba  Ba0  1  0.02737796  0.02737796  0.02737796  1
  C  C0  1  0.46735411  0.46735411  0.46735411  1
  O  O0  1  0.18721907  0.60302492  0.60302492  1
  O  O1  1  0.60302492  0.18721907  0.60302492  1
  O  O2  1  0.60302492  0.60302492  0.18721907  1
loop_
_geom_bond_atom_site_label_1
_geom_bond_atom_site_label_2
_geom_bond_distance
_geom_bond_site_symmetry_2
Ba0 O2 2.749242 1_445
Ba0 O1 2.749242 1_454
Ba0 O0 2.749242 1_544
Ba0 O2 2.857365 1_545
Ba0 O0 2.857365 1_554
Ba0 O2 2.857365 1_455
Ba0 O1 2.857365 1_554
Ba0 O0 2.857365 1_545
Ba0 O1 2.857365 1_455
C0 O1 1.290835 1_555
C0 O0 1.290835 1_555
C0 O2 1.290835 1_555
