# generated using pymatgen
data_SnPS3
_symmetry_space_group_name_H-M   'P 1'
_cell_length_a   7.73139700
_cell_length_b   6.63060700
_cell_length_c   11.40735240
_cell_angle_alpha   55.94071228
_cell_angle_beta   90.00000000
_cell_angle_gamma   90.00000000
_symmetry_Int_Tables_number   1
_chemical_formula_structural   SnPS3
_chemical_formula_sum   'Sn4 P4 S12'
_cell_volume   484.46998507
_cell_formula_units_Z   4
loop_
 _symmetry_equiv_pos_site_id
 _symmetry_equiv_pos_as_xyz
  1  'x, y, z'
loop_
 _atom_site_type_symbol
 _atom_site_label
 _atom_site_symmetry_multiplicity
 _atom_site_fract_x
 _atom_site_fract_y
 _atom_site_fract_z
 _atom_site_occupancy
  Sn  Sn0  1  0.64180500  0.26149500  0.77659900  1
  Sn  Sn1  1  0.14180500  0.73850500  0.72340100  1
  Sn  Sn2  1  0.35819500  0.73850500  0.22340100  1
  Sn  Sn3  1  0.85819500  0.26149500  0.27659900  1
  P  P0  1  0.60410900  0.62766900  0.92881400  1
  P  P1  1  0.10410900  0.37233100  0.57118600  1
  P  P2  1  0.39589100  0.37233100  0.07118600  1
  P  P3  1  0.89589100  0.62766900  0.42881400  1
  S  S0  1  0.49699600  0.86267600  0.73560800  1
  S  S1  1  0.99699600  0.13732400  0.76439200  1
  S  S2  1  0.50300400  0.13732400  0.26439200  1
  S  S3  1  0.00300400  0.86267600  0.23560800  1
  S  S4  1  0.68429600  0.79427200  0.02603300  1
  S  S5  1  0.18429600  0.20572800  0.47396700  1
  S  S6  1  0.31570400  0.20572800  0.97396700  1
  S  S7  1  0.81570400  0.79427200  0.52603300  1
  S  S8  1  0.79649300  0.41147700  0.93642100  1
  S  S9  1  0.29649300  0.58852300  0.56357900  1
  S  S10  1  0.20350700  0.58852300  0.06357900  1
  S  S11  1  0.70350700  0.41147700  0.43642100  1
loop_
_geom_bond_atom_site_label_1
_geom_bond_atom_site_label_2
_geom_bond_distance
_geom_bond_site_symmetry_2
P0 S0 2.030916 1_555
P0 S8 2.033575 1_555
P0 S4 2.051050 1_556
P0 P2 2.239572 1_556
P1 S1 2.030916 1_455
P1 S9 2.033575 1_555
P1 S5 2.051050 1_555
P1 P3 2.239572 1_455
P2 S2 2.030916 1_555
P2 S10 2.033575 1_555
P2 S6 2.051050 1_554
P3 S3 2.030916 1_655
P3 S11 2.033575 1_555
P3 S7 2.051050 1_555
S0 Sn1 2.892554 1_555
S0 Sn0 3.138478 1_565
S1 Sn0 2.892554 1_555
S1 Sn1 3.138478 1_645
S2 Sn3 2.892554 1_555
S2 Sn2 3.138478 1_545
S3 Sn2 2.892554 1_555
S3 Sn3 3.138478 1_465
S4 Sn0 2.815663 1_564
S5 Sn1 2.815663 1_545
S6 Sn2 2.815663 1_546
S7 Sn3 2.815663 1_565
S8 Sn0 2.788182 1_555
S9 Sn1 2.788182 1_555
S10 Sn2 2.788182 1_555
S11 Sn3 2.788182 1_555
