# generated using pymatgen
data_NdCo2
_symmetry_space_group_name_H-M   'P 1'
_cell_length_a   5.16539010
_cell_length_b   5.16594762
_cell_length_c   5.16584223
_cell_angle_alpha   90.12128829
_cell_angle_beta   119.92758482
_cell_angle_gamma   119.92783825
_symmetry_Int_Tables_number   1
_chemical_formula_structural   NdCo2
_chemical_formula_sum   'Nd2 Co4'
_cell_volume   97.58149457
_cell_formula_units_Z   2
loop_
 _symmetry_equiv_pos_site_id
 _symmetry_equiv_pos_as_xyz
  1  'x, y, z'
loop_
 _atom_site_type_symbol
 _atom_site_label
 _atom_site_symmetry_multiplicity
 _atom_site_fract_x
 _atom_site_fract_y
 _atom_site_fract_z
 _atom_site_occupancy
  Nd  Nd0  1  0.74999932  0.87499484  0.12500402  1
  Nd  Nd1  1  0.25000071  0.12500516  0.87499598  1
  Co  Co0  1  -0.00000008  0.50000001  0.50000002  1
  Co  Co1  1  -0.00000008  0.49999999  -0.00000010  1
  Co  Co2  1  0.50000005  0.00000012  0.50000003  1
  Co  Co3  1  0.50000009  0.49999989  0.50000004  1
loop_
_geom_bond_atom_site_label_1
_geom_bond_atom_site_label_2
_geom_bond_distance
_geom_bond_site_symmetry_2
Nd0 Nd1 3.164387 1_664
Nd0 Nd1 3.164414 1_564
Nd0 Nd1 3.164651 1_665
Nd0 Nd1 3.164698 1_554
Co0 Co3 2.582694 1_455
Co0 Co3 2.582696 1_555
Co0 Co1 2.582920 1_556
Co0 Co1 2.582922 1_555
Co0 Co2 2.585650 1_455
Co0 Co2 2.585652 1_565
Co0 Nd1 3.026894 1_565
Co0 Nd0 3.026895 1_445
Co0 Nd0 3.031324 1_455
Co0 Nd1 3.031324 1_555
Co0 Nd1 3.031459 1_454
Co0 Nd0 3.031459 1_556
Co1 Co2 2.583125 1_454
Co1 Co2 2.583126 1_565
Co1 Co3 2.585634 1_454
Co1 Co3 2.585636 1_555
Co1 Nd0 3.026592 1_455
Co1 Nd1 3.026592 1_554
Co1 Nd1 3.031175 1_454
Co1 Nd0 3.031175 1_555
Co1 Nd1 3.031488 1_564
Co1 Nd0 3.031488 1_445
Co2 Co3 2.582973 1_555
Co2 Co3 2.582975 1_545
Co2 Nd1 3.026563 1_555
Co2 Nd0 3.026564 1_545
Co2 Nd0 3.031179 1_445
Co2 Nd1 3.031180 1_655
Co2 Nd1 3.031441 1_554
Co2 Nd0 3.031441 1_546
Co3 Nd1 3.026853 1_554
Co3 Nd0 3.026853 1_556
Co3 Nd1 3.031300 1_555
Co3 Nd0 3.031300 1_555
Co3 Nd0 3.031486 1_445
Co3 Nd1 3.031486 1_665
