# generated using pymatgen
data_CaNdTiMnO6
_symmetry_space_group_name_H-M   'P 1'
_cell_length_a   5.67314500
_cell_length_b   5.51242900
_cell_length_c   9.34062971
_cell_angle_alpha   54.46292332
_cell_angle_beta   90.00000000
_cell_angle_gamma   90.00000000
_symmetry_Int_Tables_number   1
_chemical_formula_structural   CaNdTiMnO6
_chemical_formula_sum   'Ca2 Nd2 Ti2 Mn2 O12'
_cell_volume   237.69961771
_cell_formula_units_Z   2
loop_
 _symmetry_equiv_pos_site_id
 _symmetry_equiv_pos_as_xyz
  1  'x, y, z'
loop_
 _atom_site_type_symbol
 _atom_site_label
 _atom_site_symmetry_multiplicity
 _atom_site_fract_x
 _atom_site_fract_y
 _atom_site_fract_z
 _atom_site_occupancy
  Ca  Ca0  1  0.70108100  0.23795800  0.24998900  1
  Ca  Ca1  1  0.29891900  0.23795800  0.74998900  1
  Nd  Nd0  1  0.19708500  0.76347100  0.24978800  1
  Nd  Nd1  1  0.80291500  0.76347100  0.74978800  1
  Ti  Ti0  1  0.74405800  0.00068500  0.00088500  1
  Ti  Ti1  1  0.25594200  0.00068500  0.50088500  1
  Mn  Mn0  1  0.74756400  0.50188300  0.49947500  1
  Mn  Mn1  1  0.25243600  0.50188300  0.99947500  1
  O  O0  1  0.77347400  0.65776100  0.25411800  1
  O  O1  1  0.03280300  0.84276200  0.95378600  1
  O  O2  1  0.05115000  0.23289900  0.54669500  1
  O  O3  1  0.55176700  0.76578400  0.95268300  1
  O  O4  1  0.53511200  0.15474600  0.54668200  1
  O  O5  1  0.27563200  0.34205200  0.24590000  1
  O  O6  1  0.22652600  0.65776100  0.75411800  1
  O  O7  1  0.96719700  0.84276200  0.45378600  1
  O  O8  1  0.94885000  0.23289900  0.04669500  1
  O  O9  1  0.44823300  0.76578400  0.45268300  1
  O  O10  1  0.46488800  0.15474600  0.04668200  1
  O  O11  1  0.72436800  0.34205200  0.74590000  1
loop_
_geom_bond_atom_site_label_1
_geom_bond_atom_site_label_2
_geom_bond_distance
_geom_bond_site_symmetry_2
Ca0 O0 2.372578 1_555
Ca0 O8 2.375695 1_555
Ca0 O7 2.414136 1_545
Ca0 O5 2.476059 1_555
Ca0 O10 2.573858 1_555
Ca0 O9 2.586192 1_545
Ca0 O4 2.701729 1_555
Ca0 O3 2.739067 1_554
Ca1 O6 2.372578 1_555
Ca1 O2 2.375695 1_555
Ca1 O1 2.414136 1_545
Ca1 O11 2.476059 1_555
Ca1 O4 2.573858 1_555
Ca1 O3 2.586192 1_545
Ca1 O10 2.701729 1_556
Ca1 O9 2.739067 1_555
Nd0 O9 2.376965 1_555
Nd0 O5 2.386311 1_555
Nd0 O10 2.408904 1_565
Nd0 O0 2.467631 1_455
Nd0 O7 2.547729 1_455
Nd0 O8 2.563524 1_465
Nd0 O1 2.701708 1_554
Nd0 O2 2.738944 1_555
Nd1 O3 2.376965 1_555
Nd1 O11 2.386311 1_555
Nd1 O4 2.408904 1_565
Nd1 O6 2.467631 1_655
Nd1 O1 2.547729 1_655
Nd1 O2 2.563524 1_665
Nd1 O7 2.701708 1_555
Nd1 O8 2.738944 1_556
Mn0 O0 1.929523 1_555
Mn0 O11 1.932420 1_555
Mn0 O4 2.080384 1_555
Mn0 O7 2.081677 1_555
Mn0 O9 2.109948 1_555
Mn0 O2 2.144560 1_655
Mn1 O6 1.929523 1_555
Mn1 O5 1.932420 1_556
Mn1 O10 2.080384 1_556
Mn1 O1 2.081677 1_555
Mn1 O3 2.109948 1_555
Mn1 O8 2.144560 1_456
O0 Ti0 1.999603 1_565
O1 Ti0 2.019883 1_466
O2 Ti1 1.951457 1_555
O3 Ti0 1.935764 1_566
O4 Ti1 1.958278 1_555
O5 Ti1 2.004034 1_555
O6 Ti1 1.999603 1_565
O7 Ti1 2.019883 1_665
O8 Ti0 1.951457 1_555
O9 Ti1 1.935764 1_565
O10 Ti0 1.958278 1_555
O11 Ti0 2.004034 1_556
