# generated using pymatgen
data_NaSr3LaTi5O15
_symmetry_space_group_name_H-M   'P 1'
_cell_length_a   20.10614252
_cell_length_b   20.10614252
_cell_length_c   20.10614252
_cell_angle_alpha   164.17414503
_cell_angle_beta   164.17414503
_cell_angle_gamma   22.45346248
_symmetry_Int_Tables_number   1
_chemical_formula_structural   NaSr3LaTi5O15
_chemical_formula_sum   'Na2 Sr6 La2 Ti10 O30'
_cell_volume   604.39579220
_cell_formula_units_Z   2
loop_
 _symmetry_equiv_pos_site_id
 _symmetry_equiv_pos_as_xyz
  1  'x, y, z'
loop_
 _atom_site_type_symbol
 _atom_site_label
 _atom_site_symmetry_multiplicity
 _atom_site_fract_x
 _atom_site_fract_y
 _atom_site_fract_z
 _atom_site_occupancy
  Na  Na0  1  0.79964500  0.79964500  0.00000000  1
  Na  Na1  1  0.20035500  0.20035500  0.00000000  1
  Sr  Sr0  1  0.60029300  0.60029300  0.00000000  1
  Sr  Sr1  1  0.00000000  0.00000000  0.00000000  1
  Sr  Sr2  1  0.10077000  0.10077000  0.00000000  1
  Sr  Sr3  1  0.39970700  0.39970700  0.00000000  1
  Sr  Sr4  1  0.50000000  0.50000000  0.00000000  1
  Sr  Sr5  1  0.89923000  0.89923000  0.00000000  1
  La  La0  1  0.29961000  0.29961000  0.00000000  1
  La  La1  1  0.70039000  0.70039000  0.00000000  1
  Ti  Ti0  1  0.25000000  0.75000000  0.50000000  1
  Ti  Ti1  1  0.75000000  0.25000000  0.50000000  1
  Ti  Ti2  1  0.05034400  0.55034400  0.50000000  1
  Ti  Ti3  1  0.15108600  0.65108600  0.50000000  1
  Ti  Ti4  1  0.44965600  0.94965600  0.50000000  1
  Ti  Ti5  1  0.55034400  0.05034400  0.50000000  1
  Ti  Ti6  1  0.65108600  0.15108600  0.50000000  1
  Ti  Ti7  1  0.84891400  0.34891400  0.50000000  1
  Ti  Ti8  1  0.94965600  0.44965600  0.50000000  1
  Ti  Ti9  1  0.34891400  0.84891400  0.50000000  1
  O  O0  1  0.29941300  0.79941300  0.50000000  1
  O  O1  1  0.95277700  0.95277700  0.40746400  1
  O  O2  1  0.45468700  0.04722300  0.00000000  1
  O  O3  1  0.70058700  0.20058700  0.50000000  1
  O  O4  1  0.79941300  0.29941300  0.50000000  1
  O  O5  1  0.37453700  0.37453700  0.44758000  1
  O  O6  1  0.04722300  0.45468700  0.00000000  1
  O  O7  1  0.86458300  0.43903000  0.00000000  1
  O  O8  1  0.54531300  0.54531300  0.59253600  1
  O  O9  1  0.10075200  0.60075200  0.50000000  1
  O  O10  1  0.20058700  0.70058700  0.50000000  1
  O  O11  1  0.78034500  0.78034500  0.46025100  1
  O  O12  1  0.43903000  0.86458300  0.00000000  1
  O  O13  1  0.28044600  0.82060400  0.00000000  1
  O  O14  1  0.92695700  0.92695700  0.55242000  1
  O  O15  1  0.50000000  0.00000000  0.50000000  1
  O  O16  1  0.60075200  0.10075200  0.50000000  1
  O  O17  1  0.17939600  0.17939600  0.45984200  1
  O  O18  1  0.82060400  0.28044600  0.00000000  1
  O  O19  1  0.67990600  0.21965500  0.00000000  1
  O  O20  1  0.32009400  0.32009400  0.53974900  1
  O  O21  1  0.89924800  0.39924800  0.50000000  1
  O  O22  1  0.00000000  0.50000000  0.50000000  1
  O  O23  1  0.56097000  0.56097000  0.42555300  1
  O  O24  1  0.21965500  0.67990600  0.00000000  1
  O  O25  1  0.07304300  0.62546300  0.00000000  1
  O  O26  1  0.71955400  0.71955400  0.54015800  1
  O  O27  1  0.39924800  0.89924800  0.50000000  1
  O  O28  1  0.62546300  0.07304300  0.00000000  1
  O  O29  1  0.13541700  0.13541700  0.57444700  1
loop_
_geom_bond_atom_site_label_1
_geom_bond_atom_site_label_2
_geom_bond_distance
_geom_bond_site_symmetry_2
Na0 O8 2.554864 1_554
Na0 O1 2.554864 1_555
Na0 O25 2.626458 1_655
Na0 O28 2.626458 1_565
Na0 O0 2.767988 1_655
Na0 O4 2.767988 1_565
Na0 O4 2.767988 1_554
Na0 O0 2.767988 1_554
Na0 O29 2.953530 1_665
Na0 O23 2.953530 1_554
Na0 O6 3.011348 1_655
Na0 O2 3.011348 1_565
Na1 O2 2.554864 1_555
Na1 O6 2.554864 1_555
Na1 O14 2.626458 1_444
Na1 O5 2.626458 1_555
Na1 O10 2.767988 1_544
Na1 O10 2.767988 1_555
Na1 O3 2.767988 1_555
Na1 O3 2.767988 1_454
Na1 O7 2.953530 1_455
Na1 O12 2.953530 1_545
Na1 O1 3.011348 1_444
Na1 O8 3.011348 1_555
La0 O6 2.495394 1_555
La0 O2 2.495394 1_555
La0 O23 2.539109 1_555
La0 O29 2.539109 1_554
La0 O4 2.767984 1_454
La0 O0 2.767984 1_544
La0 O4 2.767984 1_555
La0 O0 2.767984 1_555
La0 O25 2.917223 1_555
La0 O28 2.917223 1_555
La0 O8 3.059043 1_555
La0 O1 3.059043 1_444
La1 O1 2.495394 1_555
La1 O8 2.495394 1_554
La1 O7 2.539109 1_555
La1 O12 2.539109 1_555
La1 O10 2.767984 1_554
La1 O3 2.767984 1_554
La1 O10 2.767984 1_655
La1 O3 2.767984 1_565
La1 O14 2.917223 1_555
La1 O5 2.917223 1_554
La1 O2 3.059043 1_565
La1 O6 3.059043 1_655
O0 Ti0 1.948987 1_555
O0 Ti9 1.952458 1_555
O1 Ti0 1.990846 1_655
O1 Ti1 1.990846 1_565
O2 Ti0 1.990846 1_544
O2 Ti1 1.990846 1_555
O3 Ti1 1.948987 1_555
O3 Ti6 1.952458 1_555
O4 Ti1 1.948987 1_555
O4 Ti7 1.952458 1_555
O5 Ti3 1.968025 1_555
O5 Ti6 1.968025 1_555
O5 Sr2 2.637319 1_555
O5 Sr0 2.938789 1_556
O6 Ti0 1.990846 1_555
O6 Ti1 1.990846 1_454
O7 Ti6 1.979033 1_554
O7 Ti3 1.979033 1_655
O7 Sr0 2.627422 1_555
O7 Sr2 3.018079 1_655
O8 Ti1 1.990846 1_555
O8 Ti0 1.990846 1_555
O9 Ti3 1.985314 1_555
O9 Ti2 1.988233 1_555
O9 Sr2 2.767973 1_555
O9 Sr2 2.767973 1_566
O9 Sr0 2.768032 1_556
O9 Sr0 2.768032 1_455
O10 Ti0 1.948987 1_555
O10 Ti3 1.952458 1_555
O11 Ti5 1.963434 1_565
O11 Ti2 1.963434 1_655
O11 Sr0 2.673339 1_555
O11 Sr4 2.677596 1_555
O11 Sr1 2.896152 1_666
O11 Sr2 2.905097 1_666
O12 Ti6 1.979033 1_565
O12 Ti3 1.979033 1_554
O12 Sr0 2.627422 1_555
O12 Sr2 3.018079 1_565
O13 Ti2 1.963568 1_554
O13 Ti5 1.963568 1_565
O13 Sr2 2.677263 1_565
O13 Sr1 2.685449 1_565
O13 Sr0 2.885174 1_555
O13 Sr4 2.905571 1_555
O14 Ti6 1.968025 1_565
O14 Ti3 1.968025 1_655
O14 Sr2 2.637319 1_666
O14 Sr0 2.938789 1_555
O15 Ti4 1.985708 1_545
O15 Ti5 1.985708 1_555
O15 Sr1 2.767973 1_555
O15 Sr4 2.767973 1_556
O15 Sr4 2.767973 1_545
O15 Sr1 2.767973 1_656
O16 Ti6 1.985314 1_555
O16 Ti5 1.988233 1_555
O16 Sr2 2.767973 1_555
O16 Sr2 2.767973 1_656
O16 Sr0 2.768032 1_556
O16 Sr0 2.768032 1_545
O17 Ti8 1.963568 1_455
O17 Ti4 1.963568 1_545
O17 Sr5 2.677263 1_445
O17 Sr1 2.685449 1_555
O17 Sr3 2.885174 1_556
O17 Sr4 2.905571 1_556
O18 Ti2 1.963568 1_655
O18 Ti5 1.963568 1_554
O18 Sr2 2.677263 1_655
O18 Sr1 2.685449 1_655
O18 Sr0 2.885174 1_555
O18 Sr4 2.905571 1_555
O19 Ti4 1.963434 1_544
O19 Ti8 1.963434 1_555
O19 Sr3 2.673339 1_555
O19 Sr4 2.677596 1_555
O19 Sr1 2.896152 1_655
O19 Sr5 2.905097 1_545
O20 Ti5 1.963434 1_555
O20 Ti2 1.963434 1_555
O20 Sr0 2.673339 1_556
O20 Sr4 2.677596 1_556
O20 Sr1 2.896152 1_555
O20 Sr2 2.905097 1_555
O21 Ti7 1.985314 1_555
O21 Ti8 1.988233 1_555
O21 Sr5 2.767973 1_545
O21 Sr5 2.767973 1_556
O21 Sr3 2.768032 1_555
O21 Sr3 2.768032 1_656
O22 Ti8 1.985708 1_455
O22 Ti2 1.985708 1_555
O22 Sr4 2.767973 1_455
O22 Sr1 2.767973 1_555
O22 Sr4 2.767973 1_556
O22 Sr1 2.767973 1_566
O23 Ti9 1.979033 1_555
O23 Ti7 1.979033 1_555
O23 Sr3 2.627422 1_555
O23 Sr5 3.018079 1_556
O24 Ti4 1.963434 1_555
O24 Ti8 1.963434 1_454
O24 Sr3 2.673339 1_555
O24 Sr4 2.677596 1_555
O24 Sr1 2.896152 1_565
O24 Sr5 2.905097 1_455
O25 Ti7 1.968025 1_454
O25 Ti9 1.968025 1_555
O25 Sr5 2.637319 1_455
O25 Sr3 2.938789 1_555
O26 Ti4 1.963568 1_555
O26 Ti8 1.963568 1_555
O26 Sr5 2.677263 1_556
O26 Sr1 2.685449 1_666
O26 Sr3 2.885174 1_555
O26 Sr4 2.905571 1_555
O27 Ti9 1.985314 1_555
O27 Ti4 1.988233 1_555
O27 Sr5 2.767973 1_455
O27 Sr5 2.767973 1_556
O27 Sr3 2.768032 1_566
O27 Sr3 2.768032 1_555
O28 Ti9 1.968025 1_544
O28 Ti7 1.968025 1_555
O28 Sr5 2.637319 1_545
O28 Sr3 2.938789 1_555
O29 Ti7 1.979033 1_455
O29 Ti9 1.979033 1_545
O29 Sr3 2.627422 1_556
O29 Sr5 3.018079 1_445
