# generated using pymatgen
data_Ba2La2Zn(WO6)2
_symmetry_space_group_name_H-M   'P 1'
_cell_length_a   9.69692417
_cell_length_b   9.69692417
_cell_length_c   9.69692353
_cell_angle_alpha   34.09601341
_cell_angle_beta   34.09601341
_cell_angle_gamma   34.09601279
_symmetry_Int_Tables_number   1
_chemical_formula_structural   Ba2La2Zn(WO6)2
_chemical_formula_sum   'Ba2 La2 Zn1 W2 O12'
_cell_volume   255.45228051
_cell_formula_units_Z   1
loop_
 _symmetry_equiv_pos_site_id
 _symmetry_equiv_pos_as_xyz
  1  'x, y, z'
loop_
 _atom_site_type_symbol
 _atom_site_label
 _atom_site_symmetry_multiplicity
 _atom_site_fract_x
 _atom_site_fract_y
 _atom_site_fract_z
 _atom_site_occupancy
  Ba  Ba0  1  0.29030900  0.29030900  0.29030900  1
  Ba  Ba1  1  0.70969100  0.70969100  0.70969100  1
  La  La0  1  0.13499600  0.13499600  0.13499600  1
  La  La1  1  0.86500400  0.86500400  0.86500400  1
  Zn  Zn0  1  0.00000000  0.00000000  0.00000000  1
  W  W0  1  0.42298100  0.42298100  0.42298100  1
  W  W1  1  0.57701900  0.57701900  0.57701900  1
  O  O0  1  0.70863300  0.21789000  0.21789000  1
  O  O1  1  0.21789000  0.21789000  0.70863300  1
  O  O2  1  0.21789000  0.70863300  0.21789000  1
  O  O3  1  0.62757600  0.12628400  0.62757600  1
  O  O4  1  0.12628400  0.62757600  0.62757600  1
  O  O5  1  0.62757600  0.62757600  0.12628400  1
  O  O6  1  0.37242400  0.37242400  0.87371600  1
  O  O7  1  0.87371600  0.37242400  0.37242400  1
  O  O8  1  0.37242400  0.87371600  0.37242400  1
  O  O9  1  0.78211000  0.29136700  0.78211000  1
  O  O10  1  0.78211000  0.78211000  0.29136700  1
  O  O11  1  0.29136700  0.78211000  0.78211000  1
loop_
_geom_bond_atom_site_label_1
_geom_bond_atom_site_label_2
_geom_bond_distance
_geom_bond_site_symmetry_2
Ba0 O6 2.825297 1_554
Ba0 O8 2.825298 1_545
Ba0 O7 2.825298 1_455
Ba0 O11 2.846481 1_554
Ba0 O9 2.846481 1_554
Ba0 O11 2.846481 1_545
Ba0 O9 2.846481 1_455
Ba0 O10 2.846481 1_455
Ba0 O10 2.846481 1_545
Ba0 O1 2.970207 1_555
Ba0 O2 2.970207 1_555
Ba0 O0 2.970207 1_555
Ba1 O5 2.825297 1_556
Ba1 O4 2.825298 1_655
Ba1 O3 2.825298 1_565
Ba1 O0 2.846481 1_556
Ba1 O2 2.846481 1_556
Ba1 O2 2.846481 1_655
Ba1 O0 2.846481 1_565
Ba1 O1 2.846481 1_565
Ba1 O1 2.846481 1_655
Ba1 O10 2.970207 1_555
Ba1 O9 2.970207 1_555
Ba1 O11 2.970207 1_555
La0 O8 2.545133 1_545
La0 O7 2.545133 1_455
La0 O6 2.545133 1_554
La0 O4 2.850989 1_554
La0 O3 2.850989 1_554
La0 O4 2.850989 1_545
La0 O3 2.850989 1_455
La0 O5 2.850989 1_455
La0 O5 2.850989 1_545
La0 O1 2.906471 1_554
La0 O2 2.906471 1_545
La0 O0 2.906471 1_455
La1 O4 2.545133 1_655
La1 O3 2.545133 1_565
La1 O5 2.545133 1_556
La1 O8 2.850989 1_556
La1 O7 2.850989 1_556
La1 O8 2.850989 1_655
La1 O7 2.850989 1_565
La1 O6 2.850989 1_655
La1 O6 2.850989 1_565
La1 O10 2.906471 1_556
La1 O9 2.906471 1_565
La1 O11 2.906471 1_655
O0 W0 1.971354 1_555
O0 Zn0 2.128599 1_655
O1 W0 1.971354 1_555
O1 Zn0 2.128600 1_556
O2 W0 1.971354 1_555
O2 Zn0 2.128599 1_565
O3 W0 1.939453 1_555
O4 W0 1.939453 1_555
O5 W0 1.939453 1_555
O6 W1 1.939453 1_555
O7 W1 1.939453 1_555
O8 W1 1.939453 1_555
O9 W1 1.971354 1_555
O9 Zn0 2.128599 1_656
O10 W1 1.971354 1_555
O10 Zn0 2.128600 1_665
O11 W1 1.971354 1_555
O11 Zn0 2.128599 1_566
