# generated using pymatgen
data_CsNa2Si17
_symmetry_space_group_name_H-M   'P 1'
_cell_length_a   10.49269954
_cell_length_b   10.49269954
_cell_length_c   10.49269954
_cell_angle_alpha   60.00000000
_cell_angle_beta   60.00000000
_cell_angle_gamma   60.00000000
_symmetry_Int_Tables_number   1
_chemical_formula_structural   CsNa2Si17
_chemical_formula_sum   'Cs2 Na4 Si34'
_cell_volume   816.85827596
_cell_formula_units_Z   2
loop_
 _symmetry_equiv_pos_site_id
 _symmetry_equiv_pos_as_xyz
  1  'x, y, z'
loop_
 _atom_site_type_symbol
 _atom_site_label
 _atom_site_symmetry_multiplicity
 _atom_site_fract_x
 _atom_site_fract_y
 _atom_site_fract_z
 _atom_site_occupancy
  Cs  Cs0  1  0.00000000  0.00000000  0.00000000  1
  Cs  Cs1  1  0.25000000  0.25000000  0.25000000  1
  Na  Na0  1  0.62500000  0.62500000  0.62500000  1
  Na  Na1  1  0.12500000  0.62500000  0.62500000  1
  Na  Na2  1  0.62500000  0.62500000  0.12500000  1
  Na  Na3  1  0.62500000  0.12500000  0.62500000  1
  Si  Si0  1  0.99502400  0.99502400  0.61947600  1
  Si  Si1  1  0.99502400  0.39047600  0.99502400  1
  Si  Si2  1  0.39047600  0.99502400  0.61947600  1
  Si  Si3  1  0.39047600  0.99502400  0.99502400  1
  Si  Si4  1  0.61947600  0.99502400  0.99502400  1
  Si  Si5  1  0.85952400  0.63052400  0.25497600  1
  Si  Si6  1  0.25497600  0.63052400  0.25497600  1
  Si  Si7  1  0.63052400  0.25497600  0.85952400  1
  Si  Si8  1  0.25497600  0.25497600  0.85952400  1
  Si  Si9  1  0.63052400  0.85952400  0.25497600  1
  Si  Si10  1  0.85952400  0.25497600  0.63052400  1
  Si  Si11  1  0.25497600  0.25497600  0.63052400  1
  Si  Si12  1  0.25497600  0.85952400  0.25497600  1
  Si  Si13  1  0.61947600  0.99502400  0.39047600  1
  Si  Si14  1  0.61947600  0.39047600  0.99502400  1
  Si  Si15  1  0.99502400  0.39047600  0.61947600  1
  Si  Si16  1  0.99502400  0.61947600  0.39047600  1
  Si  Si17  1  0.39047600  0.61947600  0.99502400  1
  Si  Si18  1  0.99502400  0.61947600  0.99502400  1
  Si  Si19  1  0.85952400  0.25497600  0.25497600  1
  Si  Si20  1  0.63052400  0.25497600  0.25497600  1
  Si  Si21  1  0.25497600  0.85952400  0.63052400  1
  Si  Si22  1  0.40779000  0.77663000  0.40779000  1
  Si  Si23  1  0.84221000  0.84221000  0.47337000  1
  Si  Si24  1  0.47337000  0.84221000  0.84221000  1
  Si  Si25  1  0.84221000  0.84221000  0.84221000  1
  Si  Si26  1  0.77663000  0.40779000  0.40779000  1
  Si  Si27  1  0.40779000  0.40779000  0.40779000  1
  Si  Si28  1  0.40779000  0.40779000  0.77663000  1
  Si  Si29  1  0.84221000  0.47337000  0.84221000  1
  Si  Si30  1  0.50000000  0.50000000  0.50000000  1
  Si  Si31  1  0.75000000  0.75000000  0.75000000  1
  Si  Si32  1  0.99502400  0.99502400  0.39047600  1
  Si  Si33  1  0.25497600  0.63052400  0.85952400  1
loop_
_geom_bond_atom_site_label_1
_geom_bond_atom_site_label_2
_geom_bond_distance
_geom_bond_site_symmetry_2
Cs0 Si19 3.969733 1_455
Cs0 Si12 3.969733 1_545
Cs0 Si8 3.969733 1_554
Cs0 Si11 3.969733 1_554
Cs0 Si6 3.969733 1_545
Cs0 Si20 3.969733 1_455
Cs0 Si10 3.969733 1_454
Cs0 Si9 3.969733 1_445
Cs0 Si7 3.969733 1_454
Cs0 Si21 3.969733 1_544
Cs0 Si33 3.969733 1_544
Cs0 Si5 3.969733 1_445
Cs0 Si3 4.045610 1_544
Cs0 Si17 4.045610 1_544
Cs0 Si16 4.045610 1_445
Cs0 Si4 4.045610 1_444
Cs0 Si14 4.045610 1_454
Cs0 Si18 4.045610 1_444
Cs0 Si2 4.045610 1_544
Cs0 Si15 4.045610 1_454
Cs0 Si0 4.045610 1_444
Cs0 Si13 4.045610 1_445
Cs0 Si1 4.045610 1_454
Cs0 Si32 4.045610 1_445
Cs0 Si23 4.055481 1_445
Cs0 Si24 4.055481 1_544
Cs0 Si25 4.055481 1_444
Cs0 Si29 4.055481 1_454
Cs1 Si32 3.969733 1_445
Cs1 Si1 3.969733 1_454
Cs1 Si0 3.969733 1_445
Cs1 Si3 3.969733 1_544
Cs1 Si18 3.969733 1_454
Cs1 Si4 3.969733 1_544
Cs1 Si2 3.969733 1_545
Cs1 Si13 3.969733 1_545
Cs1 Si16 3.969733 1_455
Cs1 Si17 3.969733 1_554
Cs1 Si14 3.969733 1_554
Cs1 Si15 3.969733 1_455
Cs1 Si6 4.045610 1_555
Cs1 Si33 4.045610 1_554
Cs1 Si7 4.045610 1_554
Cs1 Si11 4.045610 1_555
Cs1 Si10 4.045610 1_455
Cs1 Si20 4.045610 1_555
Cs1 Si5 4.045610 1_455
Cs1 Si12 4.045610 1_545
Cs1 Si8 4.045610 1_554
Cs1 Si21 4.045610 1_545
Cs1 Si9 4.045610 1_545
Cs1 Si19 4.045610 1_455
Cs1 Si22 4.055481 1_545
Cs1 Si28 4.055481 1_554
Cs1 Si27 4.055481 1_555
Cs1 Si26 4.055481 1_455
Na0 Si31 3.212720 1_555
Na0 Si30 3.212720 1_555
Na0 Si29 3.295795 1_555
Na0 Si28 3.295795 1_555
Na0 Si22 3.295795 1_555
Na0 Si24 3.295795 1_555
Na0 Si26 3.295795 1_555
Na0 Si23 3.295795 1_555
Na0 Si9 3.390648 1_555
Na0 Si21 3.390648 1_555
Na0 Si16 3.390648 1_555
Na0 Si17 3.390648 1_555
Na0 Si5 3.390648 1_555
Na0 Si2 3.390648 1_555
Na0 Si14 3.390648 1_555
Na0 Si15 3.390648 1_555
Na0 Si10 3.390648 1_555
Na0 Si13 3.390648 1_555
Na0 Si33 3.390648 1_555
Na0 Si7 3.390648 1_555
Na1 Si31 3.212720 1_455
Na1 Si30 3.212720 1_555
Na1 Si29 3.295795 1_455
Na1 Si23 3.295795 1_455
Na1 Si25 3.295795 1_455
Na1 Si28 3.295795 1_555
Na1 Si22 3.295795 1_555
Na1 Si27 3.295795 1_555
Na1 Si21 3.390648 1_555
Na1 Si33 3.390648 1_555
Na1 Si16 3.390648 1_455
Na1 Si15 3.390648 1_455
Na1 Si12 3.390648 1_555
Na1 Si8 3.390648 1_555
Na1 Si1 3.390648 1_455
Na1 Si32 3.390648 1_455
Na1 Si0 3.390648 1_455
Na1 Si6 3.390648 1_555
Na1 Si18 3.390648 1_455
Na1 Si11 3.390648 1_555
Na2 Si31 3.212720 1_554
Na2 Si30 3.212720 1_555
Na2 Si24 3.295795 1_554
Na2 Si29 3.295795 1_554
Na2 Si25 3.295795 1_554
Na2 Si22 3.295795 1_555
Na2 Si26 3.295795 1_555
Na2 Si27 3.295795 1_555
Na2 Si17 3.390648 1_554
Na2 Si9 3.390648 1_555
Na2 Si14 3.390648 1_554
Na2 Si5 3.390648 1_555
Na2 Si12 3.390648 1_555
Na2 Si1 3.390648 1_554
Na2 Si19 3.390648 1_555
Na2 Si3 3.390648 1_554
Na2 Si20 3.390648 1_555
Na2 Si18 3.390648 1_554
Na2 Si6 3.390648 1_555
Na2 Si4 3.390648 1_554
Na3 Si31 3.212720 1_545
Na3 Si30 3.212720 1_555
Na3 Si24 3.295795 1_545
Na3 Si23 3.295795 1_545
Na3 Si28 3.295795 1_555
Na3 Si26 3.295795 1_555
Na3 Si27 3.295795 1_555
Na3 Si25 3.295795 1_545
Na3 Si10 3.390648 1_555
Na3 Si7 3.390648 1_555
Na3 Si13 3.390648 1_545
Na3 Si8 3.390648 1_555
Na3 Si2 3.390648 1_545
Na3 Si3 3.390648 1_545
Na3 Si19 3.390648 1_555
Na3 Si32 3.390648 1_545
Na3 Si20 3.390648 1_555
Na3 Si4 3.390648 1_545
Na3 Si0 3.390648 1_545
Na3 Si11 3.390648 1_555
Si0 Si25 2.383322 1_555
Si0 Si10 2.397503 1_565
Si0 Si21 2.397503 1_655
Si0 Si32 2.402828 1_555
Si1 Si29 2.383322 1_555
Si1 Si8 2.397503 1_655
Si1 Si19 2.397503 1_556
Si1 Si18 2.402828 1_555
Si2 Si24 2.383322 1_555
Si2 Si21 2.397503 1_555
Si3 Si8 2.397503 1_565
Si3 Si4 2.402828 1_555
Si4 Si9 2.397503 1_556
Si4 Si7 2.397503 1_565
Si5 Si9 2.402828 1_555
Si10 Si26 2.383322 1_555
Si10 Si15 2.397503 1_555
Si10 Si7 2.402828 1_555
Si11 Si27 2.383322 1_555
Si11 Si15 2.397503 1_455
Si11 Si2 2.397503 1_545
Si11 Si8 2.402828 1_555
Si12 Si22 2.383322 1_555
Si12 Si32 2.397503 1_455
Si12 Si3 2.397503 1_554
Si12 Si6 2.402828 1_555
Si13 Si23 2.383322 1_555
Si13 Si9 2.397503 1_555
Si13 Si20 2.397503 1_565
Si13 Si2 2.402828 1_555
Si14 Si29 2.383322 1_555
Si14 Si7 2.397503 1_555
Si14 Si20 2.397503 1_556
Si14 Si17 2.402828 1_555
Si15 Si29 2.383322 1_555
Si15 Si16 2.402828 1_555
Si16 Si23 2.383322 1_555
Si16 Si6 2.397503 1_655
Si16 Si5 2.397503 1_555
Si17 Si24 2.383322 1_555
Si17 Si6 2.397503 1_556
Si17 Si33 2.397503 1_555
Si18 Si25 2.383322 1_555
Si18 Si33 2.397503 1_655
Si18 Si5 2.397503 1_556
Si19 Si26 2.383322 1_555
Si19 Si32 2.397503 1_545
Si19 Si20 2.402828 1_555
Si20 Si27 2.383322 1_555
Si21 Si22 2.383322 1_555
Si21 Si33 2.402828 1_555
Si22 Si30 2.369959 1_555
Si22 Si9 2.383322 1_555
Si23 Si31 2.369959 1_555
Si23 Si32 2.383322 1_555
Si24 Si31 2.369959 1_555
Si24 Si3 2.383322 1_555
Si25 Si31 2.369959 1_555
Si25 Si4 2.383322 1_555
Si26 Si30 2.369959 1_555
Si26 Si5 2.383322 1_555
Si27 Si30 2.369959 1_555
Si27 Si6 2.383322 1_555
Si28 Si30 2.369959 1_555
Si28 Si7 2.383322 1_555
Si28 Si33 2.383322 1_555
Si28 Si8 2.383322 1_555
Si29 Si31 2.369959 1_555
