# generated using pymatgen
data_Tl3PSe4
_symmetry_space_group_name_H-M   'P 1'
_cell_length_a   9.25280106
_cell_length_b   9.45850125
_cell_length_c   11.18907989
_cell_angle_alpha   90.00000000
_cell_angle_beta   90.00000000
_cell_angle_gamma   90.00000000
_symmetry_Int_Tables_number   1
_chemical_formula_structural   Tl3PSe4
_chemical_formula_sum   'Tl12 P4 Se16'
_cell_volume   979.24175824
_cell_formula_units_Z   4
loop_
 _symmetry_equiv_pos_site_id
 _symmetry_equiv_pos_as_xyz
  1  'x, y, z'
loop_
 _atom_site_type_symbol
 _atom_site_label
 _atom_site_symmetry_multiplicity
 _atom_site_fract_x
 _atom_site_fract_y
 _atom_site_fract_z
 _atom_site_occupancy
  Tl  Tl0  1  0.93696194  0.19476784  0.44901735  1
  Tl  Tl1  1  0.43696194  0.30523216  0.05098265  1
  Tl  Tl2  1  0.56303806  0.69476784  0.55098265  1
  Tl  Tl3  1  0.06303806  0.80523216  0.94901735  1
  Tl  Tl4  1  0.06303806  0.80523216  0.55098265  1
  Tl  Tl5  1  0.56303806  0.69476784  0.94901735  1
  Tl  Tl6  1  0.43696194  0.30523216  0.44901735  1
  Tl  Tl7  1  0.93696194  0.19476784  0.05098265  1
  Tl  Tl8  1  0.39549642  0.11022708  0.75000000  1
  Tl  Tl9  1  0.89549642  0.38977292  0.75000000  1
  Tl  Tl10  1  0.10450358  0.61022708  0.25000000  1
  Tl  Tl11  1  0.60450358  0.88977292  0.25000000  1
  P  P0  1  0.28065184  0.52811940  0.75000000  1
  P  P1  1  0.78065184  0.97188060  0.75000000  1
  P  P2  1  0.21934816  0.02811940  0.25000000  1
  P  P3  1  0.71934816  0.47188060  0.25000000  1
  Se  Se0  1  0.84062195  0.53307872  0.41193931  1
  Se  Se1  1  0.34062195  0.96692128  0.08806069  1
  Se  Se2  1  0.65937805  0.03307872  0.58806069  1
  Se  Se3  1  0.15937805  0.46692128  0.91193931  1
  Se  Se4  1  0.15937805  0.46692128  0.58806069  1
  Se  Se5  1  0.65937805  0.03307872  0.91193931  1
  Se  Se6  1  0.34062195  0.96692128  0.41193931  1
  Se  Se7  1  0.84062195  0.53307872  0.08806069  1
  Se  Se8  1  0.69372345  0.23737003  0.25000000  1
  Se  Se9  1  0.19372345  0.26262997  0.25000000  1
  Se  Se10  1  0.80627655  0.73737003  0.75000000  1
  Se  Se11  1  0.30627655  0.76262997  0.75000000  1
  Se  Se12  1  0.00092928  0.93352152  0.25000000  1
  Se  Se13  1  0.50092928  0.56647848  0.25000000  1
  Se  Se14  1  0.49907072  0.43352152  0.75000000  1
  Se  Se15  1  -0.00092928  0.06647848  0.75000000  1
loop_
_geom_bond_atom_site_label_1
_geom_bond_atom_site_label_2
_geom_bond_distance
_geom_bond_site_symmetry_2
P0 Se4 2.208481 1_555
P0 Se3 2.208481 1_555
P0 Se14 2.210197 1_555
P0 Se11 2.230755 1_555
P1 Se2 2.208481 1_565
P1 Se5 2.208481 1_565
P1 Se15 2.210197 1_665
P1 Se10 2.230755 1_555
P2 Se1 2.208481 1_545
P2 Se6 2.208481 1_545
P2 Se12 2.210197 1_545
P2 Se9 2.230755 1_555
P3 Se7 2.208481 1_555
P3 Se0 2.208481 1_555
P3 Se13 2.210197 1_555
P3 Se8 2.230755 1_555
Se0 Tl10 3.126863 1_655
Se0 Tl0 3.347564 1_555
Se0 Tl2 3.369882 1_555
Se1 Tl11 3.126863 1_555
Se1 Tl1 3.347564 1_565
Se1 Tl3 3.369882 1_554
Se2 Tl8 3.126863 1_555
Se2 Tl2 3.347564 1_545
Se2 Tl0 3.369882 1_555
Se3 Tl9 3.126863 1_455
Se3 Tl3 3.347564 1_555
Se3 Tl1 3.369882 1_556
Se4 Tl9 3.126863 1_455
Se4 Tl4 3.347564 1_555
Se4 Tl6 3.369882 1_555
Se5 Tl8 3.126863 1_555
Se5 Tl5 3.347564 1_545
Se5 Tl7 3.369882 1_556
Se6 Tl11 3.126863 1_555
Se6 Tl6 3.347564 1_565
Se6 Tl4 3.369882 1_555
Se7 Tl10 3.126863 1_655
Se7 Tl7 3.347564 1_555
Se7 Tl5 3.369882 1_554
Se8 Tl0 3.191625 1_555
Se8 Tl7 3.191625 1_555
Se8 Tl1 3.318883 1_555
Se8 Tl6 3.318883 1_555
Se8 Tl11 3.389807 1_545
Se9 Tl6 3.191625 1_555
Se9 Tl1 3.191625 1_555
Se9 Tl7 3.318883 1_455
Se9 Tl0 3.318883 1_455
Se9 Tl10 3.389807 1_555
Se10 Tl5 3.191625 1_555
Se10 Tl2 3.191625 1_555
Se10 Tl4 3.318883 1_655
Se10 Tl3 3.318883 1_655
Se10 Tl9 3.389807 1_555
Se11 Tl3 3.191625 1_555
Se11 Tl4 3.191625 1_555
Se11 Tl2 3.318883 1_555
Se11 Tl5 3.318883 1_555
Se11 Tl8 3.389807 1_565
Se12 Tl10 3.204540 1_555
Se12 Tl7 3.378592 1_465
Se12 Tl0 3.378592 1_465
Se13 Tl11 3.204540 1_555
Se13 Tl6 3.378592 1_555
Se13 Tl1 3.378592 1_555
Se14 Tl8 3.204540 1_555
Se14 Tl5 3.378592 1_555
Se14 Tl2 3.378592 1_555
Se15 Tl9 3.204540 1_455
Se15 Tl4 3.378592 1_545
Se15 Tl3 3.378592 1_545
