# generated using pymatgen
data_KPrO2
_symmetry_space_group_name_H-M   'P 1'
_cell_length_a   6.58403980
_cell_length_b   6.58403980
_cell_length_c   6.58404073
_cell_angle_alpha   32.26878585
_cell_angle_beta   32.26878585
_cell_angle_gamma   32.26877539
_symmetry_Int_Tables_number   1
_chemical_formula_structural   KPrO2
_chemical_formula_sum   'K1 Pr1 O2'
_cell_volume   72.31404929
_cell_formula_units_Z   1
loop_
 _symmetry_equiv_pos_site_id
 _symmetry_equiv_pos_as_xyz
  1  'x, y, z'
loop_
 _atom_site_type_symbol
 _atom_site_label
 _atom_site_symmetry_multiplicity
 _atom_site_fract_x
 _atom_site_fract_y
 _atom_site_fract_z
 _atom_site_occupancy
  K  K0  1  -0.00000000  -0.00000000  -0.00000000  1
  Pr  Pr0  1  0.50000000  0.50000000  0.50000000  1
  O  O0  1  0.76845257  0.76845257  0.76845257  1
  O  O1  1  0.23154743  0.23154743  0.23154743  1
loop_
_geom_bond_atom_site_label_1
_geom_bond_atom_site_label_2
_geom_bond_distance
_geom_bond_site_symmetry_2
K0 O1 2.844178 1_545
K0 O0 2.844178 1_454
K0 O1 2.844178 1_455
K0 O0 2.844178 1_544
K0 O1 2.844179 1_554
K0 O0 2.844179 1_445
O0 Pr0 2.436535 1_655
O0 Pr0 2.436535 1_565
O0 Pr0 2.436536 1_556
O1 Pr0 2.436535 1_455
O1 Pr0 2.436535 1_545
O1 Pr0 2.436536 1_554
