# generated using pymatgen
data_K2NaTiOF5
_symmetry_space_group_name_H-M   'P 1'
_cell_length_a   5.99689063
_cell_length_b   5.99689063
_cell_length_c   5.99689063
_cell_angle_alpha   120.19657139
_cell_angle_beta   120.19657139
_cell_angle_gamma   89.65986424
_symmetry_Int_Tables_number   1
_chemical_formula_structural   K2NaTiOF5
_chemical_formula_sum   'K2 Na1 Ti1 O1 F5'
_cell_volume   152.04173195
_cell_formula_units_Z   1
loop_
 _symmetry_equiv_pos_site_id
 _symmetry_equiv_pos_as_xyz
  1  'x, y, z'
loop_
 _atom_site_type_symbol
 _atom_site_label
 _atom_site_symmetry_multiplicity
 _atom_site_fract_x
 _atom_site_fract_y
 _atom_site_fract_z
 _atom_site_occupancy
  K  K0  1  0.75273700  0.25273700  0.50000000  1
  K  K1  1  0.25273700  0.75273700  0.50000000  1
  Na  Na0  1  0.49999000  0.49999000  0.00000000  1
  Ti  Ti0  1  0.02019700  0.02019700  0.00000000  1
  O  O0  1  0.22189100  0.22189100  0.00000000  1
  F  F0  1  0.22575500  0.22575500  0.45998700  1
  F  F1  1  0.76576800  0.22575500  0.00000000  1
  F  F2  1  0.22575500  0.76576800  0.00000000  1
  F  F3  1  0.76576800  0.76576800  0.54001300  1
  F  F4  1  0.76940200  0.76940200  0.00000000  1
loop_
_geom_bond_atom_site_label_1
_geom_bond_atom_site_label_2
_geom_bond_distance
_geom_bond_site_symmetry_2
K0 O0 3.001024 1_656
K0 O0 3.001024 1_555
K1 O0 3.001024 1_566
K1 O0 3.001024 1_555
Na0 O0 2.365516 1_555
O0 Ti0 1.715613 1_555
F0 Ti0 1.955826 1_555
F0 Na0 2.283370 1_556
F0 K0 2.961497 1_455
F0 K1 2.961497 1_545
F0 K1 3.045515 1_555
F0 K0 3.045515 1_555
F1 Ti0 1.955826 1_655
F1 Na0 2.283370 1_555
F1 K0 2.961497 1_555
F1 K1 2.961497 1_544
F1 K0 3.045515 1_554
F1 K1 3.045515 1_655
F2 Ti0 1.955826 1_565
F2 Na0 2.283370 1_555
F2 K0 2.961497 1_454
F2 K1 2.961497 1_555
F2 K1 3.045515 1_554
F2 K0 3.045515 1_565
F3 Ti0 1.955826 1_666
F3 Na0 2.283370 1_555
F3 K0 2.961497 1_555
F3 K1 2.961497 1_555
F3 K0 3.045515 1_565
F3 K1 3.045515 1_655
F4 Ti0 2.133267 1_665
F4 Na0 2.291624 1_555
F4 K0 2.992891 1_565
F4 K1 2.992891 1_655
F4 K0 2.992891 1_554
F4 K1 2.992891 1_554
