# generated using pymatgen
data_TbZrSb
_symmetry_space_group_name_H-M   'P 1'
_cell_length_a   4.28024954
_cell_length_b   4.28024908
_cell_length_c   8.86761022
_cell_angle_alpha   103.96573842
_cell_angle_beta   103.96573465
_cell_angle_gamma   90.00001821
_symmetry_Int_Tables_number   1
_chemical_formula_structural   TbZrSb
_chemical_formula_sum   'Tb2 Zr2 Sb2'
_cell_volume   152.70388051
_cell_formula_units_Z   2
loop_
 _symmetry_equiv_pos_site_id
 _symmetry_equiv_pos_as_xyz
  1  'x, y, z'
loop_
 _atom_site_type_symbol
 _atom_site_label
 _atom_site_symmetry_multiplicity
 _atom_site_fract_x
 _atom_site_fract_y
 _atom_site_fract_z
 _atom_site_occupancy
  Tb  Tb0  1  0.67644544  0.67644544  0.35289087  1
  Tb  Tb1  1  0.32355456  0.32355456  0.64710913  1
  Zr  Zr0  1  0.00000000  0.50000000  0.00000000  1
  Zr  Zr1  1  0.50000000  -0.00000000  0.00000000  1
  Sb  Sb0  1  0.13260365  0.13260365  0.26520830  1
  Sb  Sb1  1  0.86739635  0.86739635  0.73479170  1
loop_
_geom_bond_atom_site_label_1
_geom_bond_atom_site_label_2
_geom_bond_distance
_geom_bond_site_symmetry_2
Sb0 Zr0 3.076788 1_545
Sb0 Zr1 3.076789 1_455
Sb0 Zr0 3.076791 1_555
Sb0 Zr1 3.076791 1_555
Sb0 Tb0 3.113580 1_445
Sb0 Tb0 3.113584 1_455
Sb0 Tb0 3.113584 1_545
Sb0 Tb0 3.113586 1_555
Sb0 Tb1 3.183190 1_555
Sb1 Zr0 3.076788 1_666
Sb1 Zr1 3.076789 1_666
Sb1 Zr0 3.076791 1_656
Sb1 Zr1 3.076791 1_566
Sb1 Tb1 3.113580 1_665
Sb1 Tb1 3.113584 1_655
Sb1 Tb1 3.113584 1_565
Sb1 Tb1 3.113586 1_555
Sb1 Tb0 3.183190 1_555
