# generated using pymatgen
data_Nd7Al7Co6
_symmetry_space_group_name_H-M   'P 1'
_cell_length_a   13.85095900
_cell_length_b   13.85095900
_cell_length_c   4.17515400
_cell_angle_alpha   90.00000000
_cell_angle_beta   90.00000000
_cell_angle_gamma   90.00000000
_symmetry_Int_Tables_number   1
_chemical_formula_structural   Nd7Al7Co6
_chemical_formula_sum   'Nd14 Al14 Co12'
_cell_volume   800.99939205
_cell_formula_units_Z   2
loop_
 _symmetry_equiv_pos_site_id
 _symmetry_equiv_pos_as_xyz
  1  'x, y, z'
loop_
 _atom_site_type_symbol
 _atom_site_label
 _atom_site_symmetry_multiplicity
 _atom_site_fract_x
 _atom_site_fract_y
 _atom_site_fract_z
 _atom_site_occupancy
  Nd  Nd0  1  0.00000000  0.00000000  0.00000000  1
  Nd  Nd1  1  0.50000000  0.50000000  0.00000000  1
  Nd  Nd2  1  0.86849300  0.36849300  0.50000000  1
  Nd  Nd3  1  0.36849300  0.13150700  0.50000000  1
  Nd  Nd4  1  0.63150700  0.86849300  0.50000000  1
  Nd  Nd5  1  0.13150700  0.63150700  0.50000000  1
  Nd  Nd6  1  0.04768600  0.26147600  0.00000000  1
  Nd  Nd7  1  0.26147600  0.95231400  0.00000000  1
  Nd  Nd8  1  0.73852400  0.04768600  0.00000000  1
  Nd  Nd9  1  0.95231400  0.73852400  0.00000000  1
  Nd  Nd10  1  0.45231400  0.76147600  0.00000000  1
  Nd  Nd11  1  0.54768600  0.23852400  0.00000000  1
  Nd  Nd12  1  0.76147600  0.54768600  0.00000000  1
  Nd  Nd13  1  0.23852400  0.45231400  0.00000000  1
  Al  Al0  1  0.50000000  0.00000000  0.00000000  1
  Al  Al1  1  0.00000000  0.50000000  0.00000000  1
  Al  Al2  1  0.71443500  0.21443500  0.50000000  1
  Al  Al3  1  0.21443500  0.28556500  0.50000000  1
  Al  Al4  1  0.78556500  0.71443500  0.50000000  1
  Al  Al5  1  0.28556500  0.78556500  0.50000000  1
  Al  Al6  1  0.13892900  0.09812900  0.50000000  1
  Al  Al7  1  0.09812900  0.86107100  0.50000000  1
  Al  Al8  1  0.90187100  0.13892900  0.50000000  1
  Al  Al9  1  0.86107100  0.90187100  0.50000000  1
  Al  Al10  1  0.36107100  0.59812900  0.50000000  1
  Al  Al11  1  0.63892900  0.40187100  0.50000000  1
  Al  Al12  1  0.59812900  0.63892900  0.50000000  1
  Al  Al13  1  0.40187100  0.36107100  0.50000000  1
  Co  Co0  1  0.57343200  0.07343200  0.50000000  1
  Co  Co1  1  0.07343200  0.42656800  0.50000000  1
  Co  Co2  1  0.92656800  0.57343200  0.50000000  1
  Co  Co3  1  0.42656800  0.92656800  0.50000000  1
  Co  Co4  1  0.33534300  0.28848300  0.00000000  1
  Co  Co5  1  0.28848300  0.66465700  0.00000000  1
  Co  Co6  1  0.71151700  0.33534300  0.00000000  1
  Co  Co7  1  0.66465700  0.71151700  0.00000000  1
  Co  Co8  1  0.16465700  0.78848300  0.00000000  1
  Co  Co9  1  0.83534300  0.21151700  0.00000000  1
  Co  Co10  1  0.78848300  0.83534300  0.00000000  1
  Co  Co11  1  0.21151700  0.16465700  0.00000000  1
loop_
_geom_bond_atom_site_label_1
_geom_bond_atom_site_label_2
_geom_bond_distance
_geom_bond_site_symmetry_2
Al0 Co3 2.535148 1_545
Al0 Co0 2.535148 1_555
Al0 Co0 2.535148 1_554
Al0 Co3 2.535148 1_544
Al0 Nd3 3.315673 1_555
Al0 Nd3 3.315673 1_554
Al0 Nd4 3.315673 1_545
Al0 Nd4 3.315673 1_544
Al1 Co1 2.535148 1_555
Al1 Co1 2.535148 1_554
Al1 Co2 2.535148 1_455
Al1 Co2 2.535148 1_454
Al1 Nd2 3.315673 1_455
Al1 Nd5 3.315673 1_554
Al1 Nd2 3.315673 1_454
Al1 Nd5 3.315673 1_555
Al2 Co9 2.676603 1_556
Al2 Co9 2.676603 1_555
Al2 Co6 2.676603 1_556
Al2 Co6 2.676603 1_555
Al2 Co0 2.761997 1_555
Al2 Al8 2.798902 1_555
Al2 Nd2 3.017721 1_555
Al2 Nd8 3.131088 1_555
Al2 Nd11 3.131088 1_555
Al2 Nd8 3.131088 1_556
Al2 Nd11 3.131088 1_556
Al3 Co11 2.676603 1_555
Al3 Co4 2.676603 1_556
Al3 Co11 2.676603 1_556
Al3 Co4 2.676603 1_555
Al3 Co1 2.761997 1_555
Al3 Al6 2.798902 1_555
Al3 Nd3 3.017721 1_555
Al3 Nd6 3.131088 1_556
Al3 Nd13 3.131088 1_555
Al3 Nd13 3.131088 1_556
Al3 Nd6 3.131088 1_555
Al4 Co7 2.676603 1_556
Al4 Co7 2.676603 1_555
Al4 Co10 2.676603 1_556
Al4 Co10 2.676603 1_555
Al4 Co2 2.761997 1_555
Al4 Al9 2.798902 1_555
Al4 Nd4 3.017721 1_555
Al4 Nd9 3.131088 1_556
Al4 Nd12 3.131088 1_556
Al4 Nd12 3.131088 1_555
Al4 Nd9 3.131088 1_555
Al5 Co5 2.676603 1_556
Al5 Co5 2.676603 1_555
Al5 Co8 2.676603 1_555
Al5 Co8 2.676603 1_556
Al5 Co3 2.761997 1_555
Al5 Al7 2.798902 1_555
Al5 Nd5 3.017721 1_555
Al5 Nd7 3.131088 1_555
Al5 Nd10 3.131088 1_556
Al5 Nd10 3.131088 1_555
Al5 Nd7 3.131088 1_556
Al6 Co11 2.493582 1_556
Al6 Co11 2.493582 1_555
Al6 Nd0 3.147742 1_556
Al6 Nd0 3.147742 1_555
Al6 Nd3 3.213116 1_555
Al6 Nd6 3.327783 1_555
Al6 Nd6 3.327783 1_556
Al6 Nd7 3.364256 1_545
Al6 Nd7 3.364256 1_546
Al7 Co8 2.493582 1_555
Al7 Co8 2.493582 1_556
Al7 Nd0 3.147742 1_565
Al7 Nd0 3.147742 1_566
Al7 Nd5 3.213116 1_555
Al7 Nd7 3.327783 1_555
Al7 Nd7 3.327783 1_556
Al7 Nd9 3.364256 1_456
Al7 Nd9 3.364256 1_455
Al8 Co9 2.493582 1_556
Al8 Co9 2.493582 1_555
Al8 Nd0 3.147742 1_656
Al8 Nd0 3.147742 1_655
Al8 Nd2 3.213116 1_555
Al8 Nd8 3.327783 1_556
Al8 Nd8 3.327783 1_555
Al8 Nd6 3.364256 1_656
Al8 Nd6 3.364256 1_655
Al9 Co10 2.493582 1_556
Al9 Co10 2.493582 1_555
Al9 Nd0 3.147742 1_665
Al9 Nd0 3.147742 1_666
Al9 Nd4 3.213116 1_555
Al9 Nd9 3.327783 1_555
Al9 Nd9 3.327783 1_556
Al9 Nd8 3.364256 1_566
Al9 Nd8 3.364256 1_565
Al10 Co5 2.493582 1_556
Al10 Co5 2.493582 1_555
Al10 Al5 2.798902 1_555
Al10 Nd1 3.147742 1_555
Al10 Nd1 3.147742 1_556
Al10 Nd5 3.213116 1_555
Al10 Nd10 3.327783 1_555
Al10 Nd10 3.327783 1_556
Al10 Nd13 3.364256 1_556
Al10 Nd13 3.364256 1_555
Al11 Co6 2.493582 1_556
Al11 Co6 2.493582 1_555
Al11 Al2 2.798902 1_555
Al11 Nd1 3.147742 1_555
Al11 Nd1 3.147742 1_556
Al11 Nd2 3.213116 1_555
Al11 Nd11 3.327783 1_555
Al11 Nd11 3.327783 1_556
Al11 Nd12 3.364256 1_556
Al11 Nd12 3.364256 1_555
Al12 Co7 2.493582 1_556
Al12 Co7 2.493582 1_555
Al12 Al4 2.798902 1_555
Al12 Nd1 3.147742 1_555
Al12 Nd1 3.147742 1_556
Al12 Nd4 3.213116 1_555
Al12 Nd12 3.327783 1_556
Al12 Nd12 3.327783 1_555
Al12 Nd10 3.364256 1_555
Al12 Nd10 3.364256 1_556
Al13 Co4 2.493582 1_556
Al13 Co4 2.493582 1_555
Al13 Al3 2.798902 1_555
Al13 Nd1 3.147742 1_555
Al13 Nd1 3.147742 1_556
Al13 Nd3 3.213116 1_555
Al13 Nd13 3.327783 1_555
Al13 Nd13 3.327783 1_556
Al13 Nd11 3.364256 1_555
Al13 Nd11 3.364256 1_556
Co0 Nd4 2.950375 1_545
Co0 Nd3 2.950375 1_555
Co0 Nd8 3.116739 1_555
Co0 Nd8 3.116739 1_556
Co0 Nd11 3.116739 1_555
Co0 Nd11 3.116739 1_556
Co1 Nd2 2.950375 1_455
Co1 Nd5 2.950375 1_555
Co1 Nd13 3.116739 1_556
Co1 Nd6 3.116739 1_555
Co1 Nd6 3.116739 1_556
Co1 Nd13 3.116739 1_555
Co2 Nd2 2.950375 1_555
Co2 Nd5 2.950375 1_655
Co2 Nd9 3.116739 1_555
Co2 Nd12 3.116739 1_555
Co2 Nd9 3.116739 1_556
Co2 Nd12 3.116739 1_556
Co3 Nd4 2.950375 1_555
Co3 Nd3 2.950375 1_565
Co3 Nd10 3.116739 1_555
Co3 Nd10 3.116739 1_556
Co3 Nd7 3.116739 1_556
Co3 Nd7 3.116739 1_555
Co4 Nd13 2.635853 1_555
Co4 Nd11 3.021461 1_555
Co4 Nd3 3.048975 1_554
Co4 Nd3 3.048975 1_555
Co5 Co8 2.425530 1_555
Co5 Nd10 2.635853 1_555
Co5 Nd13 3.021461 1_555
Co5 Nd5 3.048975 1_555
Co5 Nd5 3.048975 1_554
Co6 Co9 2.425530 1_555
Co6 Nd11 2.635853 1_555
Co6 Nd12 3.021461 1_555
Co6 Nd2 3.048975 1_554
Co6 Nd2 3.048975 1_555
Co7 Nd12 2.635853 1_555
Co7 Nd10 3.021461 1_555
Co7 Nd4 3.048975 1_555
Co7 Nd4 3.048975 1_554
Co8 Nd7 2.635853 1_555
Co8 Nd9 3.021461 1_455
Co8 Nd5 3.048975 1_555
Co8 Nd5 3.048975 1_554
Co9 Nd8 2.635853 1_555
Co9 Nd6 3.021461 1_655
Co9 Nd2 3.048975 1_554
Co9 Nd2 3.048975 1_555
Co10 Co7 2.425530 1_555
Co10 Nd9 2.635853 1_555
Co10 Nd8 3.021461 1_565
Co10 Nd4 3.048975 1_555
Co10 Nd4 3.048975 1_554
Co11 Co4 2.425530 1_555
Co11 Nd6 2.635853 1_555
Co11 Nd7 3.021461 1_545
Co11 Nd3 3.048975 1_554
Co11 Nd3 3.048975 1_555
