# generated using pymatgen
data_Na2SiO3
_symmetry_space_group_name_H-M   'P 1'
_cell_length_a   4.78317068
_cell_length_b   6.05644892
_cell_length_c   6.05749411
_cell_angle_alpha   119.99430252
_cell_angle_beta   90.00000000
_cell_angle_gamma   90.00000000
_symmetry_Int_Tables_number   1
_chemical_formula_structural   Na2SiO3
_chemical_formula_sum   'Na4 Si2 O6'
_cell_volume   151.97862117
_cell_formula_units_Z   2
loop_
 _symmetry_equiv_pos_site_id
 _symmetry_equiv_pos_as_xyz
  1  'x, y, z'
loop_
 _atom_site_type_symbol
 _atom_site_label
 _atom_site_symmetry_multiplicity
 _atom_site_fract_x
 _atom_site_fract_y
 _atom_site_fract_z
 _atom_site_occupancy
  Na  Na0  1  0.50084602  0.50370094  0.33077354  1
  Na  Na1  1  0.50084602  0.17292639  0.66922646  1
  Na  Na2  1  0.00084602  0.49629906  0.66922646  1
  Na  Na3  1  0.00084602  0.82707361  0.33077354  1
  Si  Si0  1  0.53991620  0.84142108  1.00000000  1
  Si  Si1  1  0.03991620  0.15857892  0.00000000  1
  O  O0  1  0.37926615  0.08637405  1.00000000  1
  O  O1  1  0.87926615  0.91362595  0.00000000  1
  O  O2  1  0.48286280  0.58073125  0.73957626  1
  O  O3  1  0.98286280  0.41926875  0.26042374  1
  O  O4  1  0.48286280  0.84115500  0.26042374  1
  O  O5  1  0.98286280  0.15884500  0.73957626  1
loop_
_geom_bond_atom_site_label_1
_geom_bond_atom_site_label_2
_geom_bond_distance
_geom_bond_site_symmetry_2
Na0 O2 2.280818 1_555
Na0 O4 2.288405 1_555
Na0 O3 2.353903 1_555
Na0 O0 2.382808 1_554
Na0 O3 2.522642 1_455
Na1 O4 2.280816 1_545
Na1 O2 2.288411 1_555
Na1 O5 2.353902 1_555
Na1 O0 2.382804 1_555
Na1 O5 2.522642 1_455
Na2 O3 2.280818 1_455
Na2 O5 2.288405 1_455
Na2 O2 2.353903 1_555
Na2 O1 2.382808 1_456
Na2 O2 2.522642 1_455
Na3 O5 2.280816 1_465
Na3 O3 2.288411 1_455
Na3 O4 2.353902 1_555
Na3 O1 2.382804 1_455
Na3 O4 2.522642 1_455
O0 Si0 1.670739 1_545
O0 Si1 1.681045 1_556
O1 Si1 1.670739 1_665
O1 Si0 1.681045 1_554
O2 Si0 1.601740 1_555
O3 Si1 1.601740 1_655
O4 Si0 1.601740 1_554
O5 Si1 1.601740 1_656
