# generated using pymatgen
data_Ta
_symmetry_space_group_name_H-M   'P 1'
_cell_length_a   5.30817345
_cell_length_b   10.22206745
_cell_length_c   10.22206745
_cell_angle_alpha   90.00000000
_cell_angle_beta   90.00000000
_cell_angle_gamma   90.00000000
_symmetry_Int_Tables_number   1
_chemical_formula_structural   Ta
_chemical_formula_sum   Ta30
_cell_volume   554.65456286
_cell_formula_units_Z   30
loop_
 _symmetry_equiv_pos_site_id
 _symmetry_equiv_pos_as_xyz
  1  'x, y, z'
loop_
 _atom_site_type_symbol
 _atom_site_label
 _atom_site_symmetry_multiplicity
 _atom_site_fract_x
 _atom_site_fract_y
 _atom_site_fract_z
 _atom_site_occupancy
  Ta  Ta0  1  0.24247177  0.50000000  0.00000000  1
  Ta  Ta1  1  0.75752823  0.00000000  0.50000000  1
  Ta  Ta2  1  0.24325356  0.76096598  0.06766803  1
  Ta  Ta3  1  0.75674644  0.06766803  0.23903402  1
  Ta  Ta4  1  0.75674644  0.93233197  0.76096598  1
  Ta  Ta5  1  0.24325356  0.23903402  0.93233197  1
  Ta  Ta6  1  0.75674644  0.26096598  0.43233197  1
  Ta  Ta7  1  0.75674644  0.73903402  0.56766803  1
  Ta  Ta8  1  0.24325356  0.43233197  0.73903402  1
  Ta  Ta9  1  0.24325356  0.56766803  0.26096598  1
  Ta  Ta10  1  0.25673670  0.03461636  0.12824804  1
  Ta  Ta11  1  0.74326330  0.12824804  0.96538364  1
  Ta  Ta12  1  0.74326330  0.87175196  0.03461636  1
  Ta  Ta13  1  0.25673670  0.96538364  0.87175196  1
  Ta  Ta14  1  0.74326330  0.53461636  0.37175196  1
  Ta  Ta15  1  0.74326330  0.46538364  0.62824804  1
  Ta  Ta16  1  0.25673670  0.37175196  0.46538364  1
  Ta  Ta17  1  0.25673670  0.62824804  0.53461636  1
  Ta  Ta18  1  0.74058596  0.60505229  0.10505229  1
  Ta  Ta19  1  0.25941404  0.10505229  0.39494771  1
  Ta  Ta20  1  0.25941404  0.89494771  0.60505229  1
  Ta  Ta21  1  0.74058596  0.39494771  0.89494771  1
  Ta  Ta22  1  0.00222637  0.81904542  0.31904542  1
  Ta  Ta23  1  0.99777363  0.31904542  0.18095458  1
  Ta  Ta24  1  0.99777363  0.68095458  0.81904542  1
  Ta  Ta25  1  0.00222637  0.18095458  0.68095458  1
  Ta  Ta26  1  0.49923693  0.31887037  0.18112963  1
  Ta  Ta27  1  0.50076307  0.18112963  0.68112963  1
  Ta  Ta28  1  0.50076307  0.81887037  0.31887037  1
  Ta  Ta29  1  0.49923693  0.68112963  0.81887037  1
loop_
_geom_bond_atom_site_label_1
_geom_bond_atom_site_label_2
_geom_bond_distance
_geom_bond_site_symmetry_2
Ta0 Ta8 2.755835 1_554
Ta0 Ta9 2.755835 1_555
Ta0 Ta5 2.755835 1_554
Ta0 Ta2 2.755835 1_555
Ta0 Ta24 2.920641 1_454
Ta0 Ta23 2.920641 1_455
Ta0 Ta29 2.951930 1_554
Ta0 Ta26 2.951930 1_555
Ta0 Ta21 3.049173 1_554
Ta0 Ta18 3.049173 1_555
Ta0 Ta21 3.066550 1_454
Ta0 Ta18 3.066550 1_455
Ta1 Ta7 2.755835 1_545
Ta1 Ta6 2.755835 1_555
Ta1 Ta3 2.755835 1_555
Ta1 Ta4 2.755835 1_545
Ta1 Ta22 2.920641 1_645
Ta1 Ta25 2.920641 1_655
Ta1 Ta28 2.951930 1_545
Ta1 Ta27 2.951930 1_555
Ta1 Ta19 3.049173 1_555
Ta1 Ta20 3.049173 1_545
Ta1 Ta20 3.066550 1_645
Ta1 Ta19 3.066550 1_655
Ta2 Ta9 2.794351 1_555
Ta2 Ta22 2.931245 1_555
Ta2 Ta28 2.968571 1_555
Ta2 Ta24 2.970820 1_454
Ta2 Ta29 2.996724 1_554
Ta3 Ta6 2.794351 1_555
Ta4 Ta7 2.794351 1_555
Ta5 Ta8 2.794351 1_555
Ta10 Ta13 2.715752 1_544
Ta10 Ta19 2.819732 1_555
Ta10 Ta2 2.865891 1_545
Ta10 Ta5 2.895187 1_554
Ta10 Ta3 2.905257 1_455
Ta10 Ta3 2.905352 1_555
Ta10 Ta28 3.215340 1_545
Ta10 Ta12 3.218277 1_545
Ta10 Ta11 3.218277 1_554
Ta10 Ta26 3.223671 1_555
Ta10 Ta22 3.238019 1_545
Ta10 Ta23 3.260849 1_455
Ta10 Ta11 3.334154 1_454
Ta10 Ta12 3.334154 1_445
Ta11 Ta12 2.715752 1_546
Ta11 Ta21 2.819732 1_555
Ta11 Ta3 2.865891 1_556
Ta11 Ta4 2.895187 1_545
Ta11 Ta5 2.905257 1_655
Ta11 Ta5 2.905352 1_555
Ta11 Ta26 3.215340 1_556
Ta11 Ta13 3.218277 1_545
Ta11 Ta27 3.223671 1_555
Ta11 Ta23 3.238019 1_556
Ta11 Ta25 3.260849 1_655
Ta11 Ta13 3.334154 1_645
Ta12 Ta18 2.819732 1_555
Ta12 Ta4 2.865891 1_554
Ta12 Ta3 2.895187 1_565
Ta12 Ta2 2.905257 1_655
Ta12 Ta2 2.905352 1_555
Ta12 Ta29 3.215340 1_554
Ta12 Ta13 3.218277 1_554
Ta12 Ta28 3.223671 1_555
Ta12 Ta24 3.238019 1_554
Ta12 Ta22 3.260849 1_655
Ta12 Ta13 3.334154 1_654
Ta13 Ta20 2.819732 1_555
Ta13 Ta5 2.865891 1_565
Ta13 Ta2 2.895187 1_556
Ta13 Ta4 2.905257 1_455
Ta13 Ta4 2.905352 1_555
Ta13 Ta27 3.215340 1_565
Ta13 Ta29 3.223671 1_555
Ta13 Ta25 3.238019 1_565
Ta13 Ta24 3.260849 1_455
Ta14 Ta15 2.715752 1_555
Ta14 Ta18 2.819732 1_555
Ta14 Ta6 2.865891 1_555
Ta14 Ta7 2.895187 1_555
Ta14 Ta9 2.905257 1_655
Ta14 Ta9 2.905352 1_555
Ta14 Ta26 3.215340 1_555
Ta14 Ta17 3.218277 1_555
Ta14 Ta16 3.218277 1_555
Ta14 Ta28 3.223671 1_555
Ta14 Ta23 3.238019 1_555
Ta14 Ta22 3.260849 1_655
Ta14 Ta16 3.334154 1_655
Ta14 Ta17 3.334154 1_655
Ta15 Ta21 2.819732 1_555
Ta15 Ta7 2.865891 1_555
Ta15 Ta6 2.895187 1_555
Ta15 Ta8 2.905257 1_655
Ta15 Ta8 2.905352 1_555
Ta15 Ta29 3.215340 1_555
Ta15 Ta17 3.218277 1_555
Ta15 Ta16 3.218277 1_555
Ta15 Ta27 3.223671 1_555
Ta15 Ta24 3.238019 1_555
Ta15 Ta25 3.260849 1_655
Ta15 Ta16 3.334154 1_655
Ta15 Ta17 3.334154 1_655
Ta16 Ta17 2.715752 1_555
Ta16 Ta19 2.819732 1_555
Ta16 Ta8 2.865891 1_555
Ta16 Ta9 2.895187 1_555
Ta16 Ta6 2.905257 1_455
Ta16 Ta6 2.905352 1_555
Ta16 Ta27 3.215340 1_555
Ta16 Ta26 3.223671 1_555
Ta16 Ta25 3.238019 1_555
Ta16 Ta23 3.260849 1_455
Ta17 Ta20 2.819732 1_555
Ta17 Ta9 2.865891 1_555
Ta17 Ta8 2.895187 1_555
Ta17 Ta7 2.905257 1_455
Ta17 Ta7 2.905352 1_555
Ta17 Ta28 3.215340 1_555
Ta17 Ta29 3.223671 1_555
Ta17 Ta22 3.238019 1_555
Ta17 Ta24 3.260849 1_455
Ta18 Ta21 3.037311 1_554
Ta18 Ta9 3.107301 1_555
Ta18 Ta2 3.107301 1_555
Ta18 Ta9 3.131397 1_655
Ta18 Ta2 3.131397 1_655
Ta18 Ta29 3.286919 1_554
Ta18 Ta26 3.286919 1_555
Ta18 Ta24 3.318596 1_554
Ta18 Ta23 3.318596 1_555
Ta18 Ta28 3.342877 1_555
Ta18 Ta22 3.390981 1_655
Ta19 Ta20 3.037311 1_545
Ta19 Ta3 3.107301 1_555
Ta19 Ta6 3.107301 1_555
Ta19 Ta3 3.131397 1_455
Ta19 Ta6 3.131397 1_455
Ta19 Ta28 3.286919 1_545
Ta19 Ta27 3.286919 1_555
Ta19 Ta22 3.318596 1_545
Ta19 Ta25 3.318596 1_555
Ta19 Ta26 3.342877 1_555
Ta19 Ta23 3.390981 1_455
Ta20 Ta7 3.107301 1_555
Ta20 Ta4 3.107301 1_555
Ta20 Ta4 3.131397 1_455
Ta20 Ta7 3.131397 1_455
Ta20 Ta27 3.286919 1_565
Ta20 Ta28 3.286919 1_555
Ta20 Ta22 3.318596 1_555
Ta20 Ta25 3.318596 1_565
Ta20 Ta29 3.342877 1_555
Ta20 Ta24 3.390981 1_455
Ta21 Ta5 3.107301 1_555
Ta21 Ta8 3.107301 1_555
Ta21 Ta8 3.131397 1_655
Ta21 Ta5 3.131397 1_655
Ta21 Ta26 3.286919 1_556
Ta21 Ta29 3.286919 1_555
Ta21 Ta24 3.318596 1_555
Ta21 Ta23 3.318596 1_556
Ta21 Ta27 3.342877 1_555
Ta21 Ta25 3.390981 1_655
Ta22 Ta28 2.646320 1_555
Ta22 Ta28 2.661855 1_455
Ta22 Ta9 2.931245 1_555
Ta22 Ta7 2.970820 1_455
Ta22 Ta3 2.970820 1_465
Ta23 Ta26 2.646320 1_555
Ta23 Ta26 2.661855 1_655
Ta23 Ta6 2.931245 1_555
Ta23 Ta3 2.931245 1_555
Ta23 Ta9 2.970820 1_655
Ta23 Ta5 2.970820 1_654
Ta24 Ta29 2.646320 1_555
Ta24 Ta29 2.661855 1_655
Ta24 Ta4 2.931245 1_555
Ta24 Ta7 2.931245 1_555
Ta24 Ta8 2.970820 1_655
Ta25 Ta27 2.646320 1_555
Ta25 Ta27 2.661855 1_455
Ta25 Ta5 2.931245 1_555
Ta25 Ta8 2.931245 1_555
Ta25 Ta6 2.970820 1_455
Ta25 Ta4 2.970820 1_445
Ta26 Ta6 2.968571 1_555
Ta26 Ta3 2.968571 1_555
Ta26 Ta9 2.996724 1_555
Ta26 Ta5 2.996724 1_554
Ta27 Ta5 2.968571 1_555
Ta27 Ta8 2.968571 1_555
Ta27 Ta6 2.996724 1_555
Ta27 Ta4 2.996724 1_545
Ta28 Ta9 2.968571 1_555
Ta28 Ta7 2.996724 1_555
Ta28 Ta3 2.996724 1_565
Ta29 Ta4 2.968571 1_555
Ta29 Ta7 2.968571 1_555
Ta29 Ta8 2.996724 1_555
