# generated using pymatgen
data_K4Ta2S11
_symmetry_space_group_name_H-M   'P 1'
_cell_length_a   7.42910982
_cell_length_b   13.25609210
_cell_length_c   18.02358851
_cell_angle_alpha   90.00000000
_cell_angle_beta   90.00000000
_cell_angle_gamma   90.00000000
_symmetry_Int_Tables_number   1
_chemical_formula_structural   K4Ta2S11
_chemical_formula_sum   'K16 Ta8 S44'
_cell_volume   1774.98037111
_cell_formula_units_Z   4
loop_
 _symmetry_equiv_pos_site_id
 _symmetry_equiv_pos_as_xyz
  1  'x, y, z'
loop_
 _atom_site_type_symbol
 _atom_site_label
 _atom_site_symmetry_multiplicity
 _atom_site_fract_x
 _atom_site_fract_y
 _atom_site_fract_z
 _atom_site_occupancy
  K  K0  1  0.34274709  0.77383613  0.56818030  1
  K  K1  1  0.65725291  0.22616387  0.06818030  1
  K  K2  1  0.65725291  0.27383613  0.56818030  1
  K  K3  1  0.34274709  0.72616387  0.06818030  1
  K  K4  1  0.20292794  0.71435033  0.32034895  1
  K  K5  1  0.79707206  0.28564967  0.82034895  1
  K  K6  1  0.79707206  0.21435033  0.32034895  1
  K  K7  1  0.21484784  0.46385696  0.67168097  1
  K  K8  1  0.18210257  0.09132474  0.46853688  1
  K  K9  1  0.81789743  0.90867526  0.96853688  1
  K  K10  1  0.81789743  0.59132474  0.46853688  1
  K  K11  1  0.18210257  0.40867526  0.96853688  1
  K  K12  1  0.20292794  0.78564967  0.82034895  1
  K  K13  1  0.78515216  0.96385696  0.67168097  1
  K  K14  1  0.78515216  0.53614304  0.17168097  1
  K  K15  1  0.21484784  0.03614304  0.17168097  1
  Ta  Ta0  1  0.26014591  0.05904989  0.91429525  1
  Ta  Ta1  1  0.73985409  0.94095011  0.41429525  1
  Ta  Ta2  1  0.73985409  0.55904989  0.91429525  1
  Ta  Ta3  1  0.26014591  0.44095011  0.41429525  1
  Ta  Ta4  1  0.20208195  0.11946568  0.72848602  1
  Ta  Ta5  1  0.79791805  0.88053432  0.22848602  1
  Ta  Ta6  1  0.79791805  0.61946568  0.72848602  1
  Ta  Ta7  1  0.20208195  0.38053432  0.22848602  1
  S  S0  1  0.25874211  0.17532133  0.02284087  1
  S  S1  1  0.74125789  0.82467867  0.52284087  1
  S  S2  1  0.74125789  0.67532133  0.02284087  1
  S  S3  1  0.25874211  0.32467867  0.52284087  1
  S  S4  1  0.24285076  0.95532269  0.67113526  1
  S  S5  1  0.75714924  0.04467731  0.17113526  1
  S  S6  1  0.75714924  0.45532269  0.67113526  1
  S  S7  1  0.24285076  0.54467731  0.17113526  1
  S  S8  1  0.02841366  0.48156137  0.31986707  1
  S  S9  1  0.97158634  0.51843863  0.81986707  1
  S  S10  1  0.97158634  0.98156137  0.31986707  1
  S  S11  1  0.02841366  0.01843863  0.81986707  1
  S  S12  1  0.22771465  0.25911520  0.33325049  1
  S  S13  1  0.77228535  0.74088480  0.83325049  1
  S  S14  1  0.77228535  0.75911520  0.33325049  1
  S  S15  1  0.22771465  0.24088480  0.83325049  1
  S  S16  1  0.97193934  0.31271350  0.16663444  1
  S  S17  1  0.60175279  0.56807524  0.62262568  1
  S  S18  1  0.02806066  0.81271350  0.16663444  1
  S  S19  1  0.97193934  0.18728650  0.66663444  1
  S  S20  1  0.47161730  0.48163793  0.31226532  1
  S  S21  1  0.52838270  0.51836207  0.81226532  1
  S  S22  1  0.52838270  0.98163793  0.31226532  1
  S  S23  1  0.47161730  0.01836207  0.81226532  1
  S  S24  1  0.25658158  0.58692086  0.47547420  1
  S  S25  1  0.74341842  0.41307914  0.97547420  1
  S  S26  1  0.74341842  0.08692086  0.47547420  1
  S  S27  1  0.25658158  0.91307914  0.97547420  1
  S  S28  1  0.39824721  0.43192476  0.12262568  1
  S  S29  1  0.01359462  0.15510413  0.97023712  1
  S  S30  1  0.60175279  0.93192476  0.12262568  1
  S  S31  1  0.39824721  0.06807524  0.62262568  1
  S  S32  1  0.58019902  0.40270226  0.40085349  1
  S  S33  1  0.41980098  0.59729774  0.90085349  1
  S  S34  1  0.41980098  0.90270226  0.40085349  1
  S  S35  1  0.58019902  0.09729774  0.90085349  1
  S  S36  1  0.40470638  0.23761376  0.24571869  1
  S  S37  1  0.59529362  0.76238624  0.74571869  1
  S  S38  1  0.59529362  0.73761376  0.24571869  1
  S  S39  1  0.40470638  0.26238624  0.74571869  1
  S  S40  1  0.01359462  0.34489587  0.47023712  1
  S  S41  1  0.98640538  0.65510413  0.97023712  1
  S  S42  1  0.98640538  0.84489587  0.47023712  1
  S  S43  1  0.02806066  0.68728650  0.66663444  1
loop_
_geom_bond_atom_site_label_1
_geom_bond_atom_site_label_2
_geom_bond_distance
_geom_bond_site_symmetry_2
K0 S24 3.056303 1_555
K0 S4 3.127615 1_555
K0 S1 3.144369 1_555
K0 S43 3.151294 1_555
K0 S42 3.318398 1_455
K0 S17 3.479245 1_555
K0 S34 3.512987 1_555
K0 S37 3.712462 1_555
K1 S25 3.056303 1_554
K1 S5 3.127615 1_555
K1 S0 3.144369 1_555
K1 S16 3.151294 1_555
K1 S29 3.318398 1_654
K1 S28 3.479245 1_555
K1 S35 3.512987 1_554
K1 S36 3.712462 1_555
K2 S26 3.056303 1_555
K2 S6 3.127615 1_555
K2 S3 3.144369 1_555
K2 S19 3.151294 1_555
K2 S40 3.318398 1_655
K2 S31 3.479245 1_555
K2 S32 3.512987 1_555
K2 S39 3.712462 1_555
K3 S27 3.056303 1_554
K3 S7 3.127615 1_555
K3 S2 3.144369 1_555
K3 S18 3.151294 1_555
K3 S41 3.318398 1_454
K3 S30 3.479245 1_555
K3 S33 3.512987 1_554
K3 S38 3.712462 1_555
K4 S38 3.225091 1_555
K4 S14 3.262157 1_455
K4 S24 3.290816 1_555
K4 S34 3.306855 1_555
K4 S18 3.326179 1_555
K4 S8 3.347171 1_555
K4 S7 3.518460 1_555
K4 S42 3.588932 1_455
K4 S20 3.677238 1_555
K5 S39 3.225091 1_555
K5 S15 3.262157 1_655
K5 S25 3.290816 1_555
K5 S35 3.306855 1_555
K5 S19 3.326179 1_555
K5 S9 3.347171 1_555
K5 S6 3.518460 1_555
K5 S29 3.588932 1_655
K5 S21 3.677238 1_555
K6 S36 3.225091 1_555
K6 S12 3.262157 1_655
K6 S26 3.290816 1_555
K6 S32 3.306855 1_555
K6 S16 3.326179 1_555
K6 S10 3.347171 1_545
K6 S5 3.518460 1_555
K6 S40 3.588932 1_655
K6 S22 3.677238 1_545
K7 S43 3.272026 1_555
K7 S3 3.272115 1_555
K7 S39 3.301948 1_555
K7 S9 3.304989 1_455
K7 S17 3.309424 1_555
K7 S6 3.402189 1_455
K7 S21 3.516806 1_555
K8 S31 3.222807 1_555
K8 S26 3.261953 1_455
K8 S3 3.294088 1_555
K8 S34 3.295223 1_545
K8 S12 3.317774 1_555
K8 S10 3.426823 1_445
K8 S42 3.575732 1_445
K8 S40 3.587040 1_555
K9 S30 3.222807 1_556
K9 S27 3.261953 1_655
K9 S2 3.294088 1_556
K9 S35 3.295223 1_565
K9 S13 3.317774 1_555
K9 S11 3.426823 1_665
K9 S29 3.575732 1_665
K9 S41 3.587040 1_555
K10 S17 3.222807 1_555
K10 S24 3.261953 1_655
K10 S1 3.294088 1_555
K10 S32 3.295223 1_555
K10 S14 3.317774 1_555
K10 S8 3.426823 1_655
K10 S40 3.575732 1_655
K10 S42 3.587040 1_555
K11 S28 3.222807 1_556
K11 S25 3.261953 1_455
K11 S0 3.294088 1_556
K11 S33 3.295223 1_555
K11 S15 3.317774 1_555
K11 S9 3.426823 1_455
K11 S41 3.575732 1_455
K11 S29 3.587040 1_555
K12 S37 3.225091 1_555
K12 S13 3.262157 1_455
K12 S27 3.290816 1_555
K12 S33 3.306855 1_555
K12 S43 3.326179 1_555
K12 S11 3.347171 1_565
K12 S4 3.518460 1_555
K12 S41 3.588932 1_455
K12 S23 3.677238 1_565
K13 S19 3.272026 1_565
K13 S1 3.272115 1_555
K13 S37 3.301948 1_555
K13 S11 3.304989 1_665
K13 S31 3.309424 1_565
K13 S4 3.402189 1_655
K13 S23 3.516806 1_565
K14 S16 3.272026 1_555
K14 S2 3.272115 1_555
K14 S38 3.301948 1_555
K14 S8 3.304989 1_655
K14 S28 3.309424 1_555
K14 S7 3.402189 1_655
K14 S20 3.516806 1_555
K15 S18 3.272026 1_545
K15 S0 3.272115 1_555
K15 S36 3.301948 1_555
K15 S10 3.304989 1_445
K15 S30 3.309424 1_545
K15 S5 3.402189 1_455
K15 S22 3.516806 1_545
S0 S29 2.070653 1_554
S0 Ta0 2.490614 1_554
S1 S42 2.070653 1_555
S1 Ta1 2.490614 1_555
S2 S41 2.070653 1_554
S2 Ta2 2.490614 1_554
S3 S40 2.070653 1_555
S3 Ta3 2.490614 1_555
S4 Ta4 2.427904 1_565
S5 Ta5 2.427904 1_545
S6 Ta6 2.427904 1_555
S7 Ta7 2.427904 1_555
S8 Ta3 2.479956 1_555
S8 Ta7 2.484109 1_555
S9 Ta2 2.479956 1_555
S9 Ta6 2.484109 1_555
S10 Ta1 2.479956 1_555
S10 Ta5 2.484109 1_555
S11 Ta0 2.479956 1_555
S11 Ta4 2.484109 1_555
S12 S36 2.073431 1_555
S12 Ta7 2.488435 1_555
S12 Ta3 2.828758 1_555
S13 S37 2.073431 1_555
S13 Ta6 2.488435 1_555
S13 Ta2 2.828758 1_555
S14 S38 2.073431 1_555
S14 Ta5 2.488435 1_555
S14 Ta1 2.828758 1_555
S15 S39 2.073431 1_555
S15 Ta4 2.488435 1_555
S15 Ta0 2.828758 1_555
S16 Ta7 2.230310 1_655
S17 S6 2.081155 1_555
S17 Ta6 2.495657 1_555
S18 Ta5 2.230310 1_455
S19 Ta4 2.230310 1_655
S20 S32 2.072437 1_555
S20 Ta3 2.478066 1_555
S20 Ta7 2.843587 1_555
S21 S33 2.072437 1_555
S21 Ta2 2.478066 1_555
S21 Ta6 2.843587 1_555
S22 S34 2.072437 1_555
S22 Ta1 2.478066 1_555
S22 Ta5 2.843587 1_555
S23 S35 2.072437 1_555
S23 Ta0 2.478066 1_555
S23 Ta4 2.843587 1_555
S24 Ta3 2.227286 1_555
S25 Ta2 2.227286 1_555
S26 Ta1 2.227286 1_545
S27 Ta0 2.227286 1_565
S28 S7 2.081155 1_555
S28 Ta7 2.495657 1_555
S29 Ta0 2.448037 1_555
S30 S5 2.081155 1_565
S30 Ta5 2.495657 1_555
S31 S4 2.081155 1_545
S31 Ta4 2.495657 1_555
S32 Ta3 2.443208 1_555
S33 Ta2 2.443208 1_555
S34 Ta1 2.443208 1_555
S35 Ta0 2.443208 1_555
S36 Ta7 2.439640 1_555
S37 Ta6 2.439640 1_555
S38 Ta5 2.439640 1_555
S39 Ta4 2.439640 1_555
S40 Ta3 2.448037 1_555
S41 Ta2 2.448037 1_555
S42 Ta1 2.448037 1_555
S43 Ta6 2.230310 1_455
