# generated using pymatgen
data_Na2S2O3
_symmetry_space_group_name_H-M   'P 1'
_cell_length_a   8.24209900
_cell_length_b   6.52238200
_cell_length_c   8.62056342
_cell_angle_alpha   82.66332221
_cell_angle_beta   90.00000000
_cell_angle_gamma   90.00000000
_symmetry_Int_Tables_number   1
_chemical_formula_structural   Na2S2O3
_chemical_formula_sum   'Na8 S8 O12'
_cell_volume   459.63115765
_cell_formula_units_Z   4
loop_
 _symmetry_equiv_pos_site_id
 _symmetry_equiv_pos_as_xyz
  1  'x, y, z'
loop_
 _atom_site_type_symbol
 _atom_site_label
 _atom_site_symmetry_multiplicity
 _atom_site_fract_x
 _atom_site_fract_y
 _atom_site_fract_z
 _atom_site_occupancy
  Na  Na0  1  0.19797700  0.87621600  0.54595800  1
  Na  Na1  1  0.69797700  0.62378400  0.45404200  1
  Na  Na2  1  0.62099200  0.29216000  0.91386700  1
  Na  Na3  1  0.30202300  0.37621600  0.54595800  1
  Na  Na4  1  0.87900800  0.79216000  0.91386700  1
  Na  Na5  1  0.37900800  0.70784000  0.08613300  1
  Na  Na6  1  0.12099200  0.20784000  0.08613300  1
  Na  Na7  1  0.80202300  0.12378400  0.45404200  1
  S  S0  1  0.54835800  0.79199700  0.73364900  1
  S  S1  1  0.45164200  0.20800300  0.26635100  1
  S  S2  1  0.95164200  0.29199700  0.73364900  1
  S  S3  1  0.39686200  0.01712900  0.78708100  1
  S  S4  1  0.89686200  0.48287100  0.21291900  1
  S  S5  1  0.60313800  0.98287100  0.21291900  1
  S  S6  1  0.10313800  0.51712900  0.78708100  1
  S  S7  1  0.04835800  0.70800300  0.26635100  1
  O  O0  1  0.58784400  0.65968300  0.88363800  1
  O  O1  1  0.96377000  0.82816100  0.37807700  1
  O  O2  1  0.53623000  0.32816100  0.37807700  1
  O  O3  1  0.03623000  0.17183900  0.62192300  1
  O  O4  1  0.79842300  0.37991300  0.66206300  1
  O  O5  1  0.46377000  0.67183900  0.62192300  1
  O  O6  1  0.29842300  0.12008700  0.33793700  1
  O  O7  1  0.20157700  0.62008700  0.33793700  1
  O  O8  1  0.08784400  0.84031700  0.11636200  1
  O  O9  1  0.41215600  0.34031700  0.11636200  1
  O  O10  1  0.91215600  0.15968300  0.88363800  1
  O  O11  1  0.70157700  0.87991300  0.66206300  1
loop_
_geom_bond_atom_site_label_1
_geom_bond_atom_site_label_2
_geom_bond_distance
_geom_bond_site_symmetry_2
Na0 O6 2.388042 1_565
Na0 O1 2.456592 1_455
Na0 O3 2.499281 1_565
Na0 O7 2.602418 1_555
Na0 O5 2.604224 1_555
Na0 S3 2.887969 1_565
Na0 S6 3.028817 1_555
Na1 O4 2.388042 1_555
Na1 O5 2.456592 1_555
Na1 O2 2.499281 1_555
Na1 O11 2.602418 1_555
Na1 O1 2.604224 1_555
Na1 S4 2.887969 1_555
Na1 S5 3.028817 1_555
Na2 O0 2.393579 1_555
Na2 O9 2.499715 1_556
Na2 O10 2.575088 1_555
Na2 O4 2.619315 1_555
Na2 S3 2.885440 1_555
Na2 S5 3.067409 1_546
Na3 O7 2.388042 1_555
Na3 O2 2.456592 1_555
Na3 O5 2.499281 1_555
Na3 O6 2.602418 1_555
Na3 O3 2.604224 1_555
Na3 S6 2.887969 1_555
Na3 S3 3.028817 1_555
Na4 O10 2.393579 1_565
Na4 O8 2.499715 1_656
Na4 O0 2.575088 1_555
Na4 O11 2.619315 1_555
Na4 S6 2.885440 1_655
Na4 S4 3.067409 1_556
Na5 O9 2.393579 1_555
Na5 O0 2.499715 1_554
Na5 O8 2.575088 1_555
Na5 O7 2.619315 1_555
Na5 S5 2.885440 1_555
Na5 S3 3.067409 1_564
Na6 O8 2.393579 1_545
Na6 O10 2.499715 1_454
Na6 O9 2.575088 1_555
Na6 O6 2.619315 1_555
Na6 S4 2.885440 1_455
Na6 S6 3.067409 1_554
Na7 O11 2.388042 1_545
Na7 O3 2.456592 1_655
Na7 O1 2.499281 1_545
Na7 O4 2.602418 1_555
Na7 O2 2.604224 1_555
Na7 S5 2.887969 1_545
Na7 S4 3.028817 1_555
S0 S3 2.024898 1_565
S1 S5 2.024898 1_545
S2 S6 2.024898 1_655
S4 S7 2.024898 1_655
O0 S0 1.495835 1_555
O1 S7 1.490201 1_655
O2 S1 1.490201 1_555
O3 S2 1.490201 1_455
O4 S2 1.487966 1_555
O5 S0 1.490201 1_555
O6 S1 1.487966 1_555
O7 S7 1.487966 1_555
O8 S7 1.495835 1_555
O9 S1 1.495835 1_555
O10 S2 1.495835 1_555
O11 S0 1.487966 1_555
