# generated using pymatgen
data_Nb4GaS8
_symmetry_space_group_name_H-M   'P 1'
_cell_length_a   7.13338938
_cell_length_b   7.13338938
_cell_length_c   7.13338938
_cell_angle_alpha   60.00000000
_cell_angle_beta   60.00000000
_cell_angle_gamma   60.00000000
_symmetry_Int_Tables_number   1
_chemical_formula_structural   Nb4GaS8
_chemical_formula_sum   'Nb4 Ga1 S8'
_cell_volume   256.66863082
_cell_formula_units_Z   1
loop_
 _symmetry_equiv_pos_site_id
 _symmetry_equiv_pos_as_xyz
  1  'x, y, z'
loop_
 _atom_site_type_symbol
 _atom_site_label
 _atom_site_symmetry_multiplicity
 _atom_site_fract_x
 _atom_site_fract_y
 _atom_site_fract_z
 _atom_site_occupancy
  Nb  Nb0  1  0.64461300  0.64461300  0.64461300  1
  Nb  Nb1  1  0.64461300  0.06616000  0.64461300  1
  Nb  Nb2  1  0.64461300  0.64461300  0.06616000  1
  Nb  Nb3  1  0.06616000  0.64461300  0.64461300  1
  Ga  Ga0  1  0.25000000  0.25000000  0.25000000  1
  S  S0  1  0.35413600  0.88195500  0.88195500  1
  S  S1  1  0.88195500  0.88195500  0.35413600  1
  S  S2  1  0.88195500  0.35413600  0.88195500  1
  S  S3  1  0.88195500  0.88195500  0.88195500  1
  S  S4  1  0.38310600  0.38310600  0.85068200  1
  S  S5  1  0.85068300  0.38310600  0.38310600  1
  S  S6  1  0.38310600  0.38310600  0.38310600  1
  S  S7  1  0.38310600  0.85068200  0.38310600  1
loop_
_geom_bond_atom_site_label_1
_geom_bond_atom_site_label_2
_geom_bond_distance
_geom_bond_site_symmetry_2
Nb0 S2 2.424154 1_555
Nb0 S0 2.424154 1_555
Nb0 S1 2.424154 1_555
Nb0 S5 2.667593 1_555
Nb0 S7 2.667594 1_555
Nb0 S4 2.667594 1_555
Nb1 S0 2.424145 1_545
Nb1 S1 2.424145 1_545
Nb1 S3 2.424156 1_545
Nb1 S6 2.667595 1_555
Nb1 S4 2.667599 1_555
Nb1 S5 2.667604 1_555
Nb2 S2 2.424145 1_554
Nb2 S0 2.424145 1_554
Nb2 S3 2.424156 1_554
Nb2 S6 2.667595 1_555
Nb2 S7 2.667599 1_555
Nb2 S5 2.667604 1_555
Nb3 S2 2.424145 1_455
Nb3 S1 2.424145 1_455
Nb3 S3 2.424156 1_455
Nb3 S6 2.667595 1_555
Nb3 S7 2.667599 1_555
Nb3 S4 2.667599 1_555
Ga0 S5 2.325777 1_455
Ga0 S6 2.325783 1_555
Ga0 S7 2.325783 1_545
Ga0 S4 2.325783 1_554
