# generated using pymatgen
data_Y4Al23Ni6
_symmetry_space_group_name_H-M   'P 1'
_cell_length_a   8.14391421
_cell_length_b   8.14391421
_cell_length_c   18.16161579
_cell_angle_alpha   67.88413228
_cell_angle_beta   67.88413228
_cell_angle_gamma   28.75697569
_symmetry_Int_Tables_number   1
_chemical_formula_structural   Y4Al23Ni6
_chemical_formula_sum   'Y4 Al23 Ni6'
_cell_volume   533.94011346
_cell_formula_units_Z   1
loop_
 _symmetry_equiv_pos_site_id
 _symmetry_equiv_pos_as_xyz
  1  'x, y, z'
loop_
 _atom_site_type_symbol
 _atom_site_label
 _atom_site_symmetry_multiplicity
 _atom_site_fract_x
 _atom_site_fract_y
 _atom_site_fract_z
 _atom_site_occupancy
  Y  Y0  1  0.73492008  0.73492008  0.21823335  1
  Y  Y1  1  0.57253531  0.57253531  0.59346122  1
  Y  Y2  1  0.42746469  0.42746469  0.40653878  1
  Y  Y3  1  0.26507992  0.26507992  0.78176665  1
  Al  Al0  1  -0.00000000  -0.00000000  0.50000000  1
  Al  Al1  1  0.85522431  0.85522431  0.85807083  1
  Al  Al2  1  0.91954968  0.91954968  0.68703842  1
  Al  Al3  1  0.08045032  0.08045032  0.31296158  1
  Al  Al4  1  0.91016784  0.91016784  0.05109287  1
  Al  Al5  1  0.08983216  0.08983216  0.94890713  1
  Al  Al6  1  0.90873726  0.90873726  0.28016824  1
  Al  Al7  1  0.09126274  0.09126274  0.71983176  1
  Al  Al8  1  0.79854549  0.79854549  0.52071577  1
  Al  Al9  1  0.20145451  0.20145451  0.47928423  1
  Al  Al10  1  0.14477569  0.14477569  0.14192917  1
  Al  Al11  1  0.60917476  0.60917476  0.83729110  1
  Al  Al12  1  0.74537012  0.74537012  0.04590872  1
  Al  Al13  1  0.25462988  0.25462988  0.95409128  1
  Al  Al14  1  0.39082524  0.39082524  0.16270890  1
  Al  Al15  1  0.46789881  0.46789881  0.78175360  1
  Al  Al16  1  0.72498089  0.72498089  0.67555801  1
  Al  Al17  1  0.27501911  0.27501911  0.32444199  1
  Al  Al18  1  0.62300432  0.62300432  0.40463589  1
  Al  Al19  1  0.37699568  0.37699568  0.59536411  1
  Al  Al20  1  0.56814349  0.56814349  0.06019060  1
  Al  Al21  1  0.43185651  0.43185651  0.93980940  1
  Al  Al22  1  0.53210119  0.53210119  0.21824640  1
  Ni  Ni0  1  0.99265449  0.99265449  0.13675382  1
  Ni  Ni1  1  0.00734551  0.00734551  0.86324618  1
  Ni  Ni2  1  0.77291351  0.77291351  0.39878084  1
  Ni  Ni3  1  0.68879894  0.68879894  0.93223938  1
  Ni  Ni4  1  0.22708649  0.22708649  0.60121916  1
  Ni  Ni5  1  0.31120106  0.31120106  0.06776062  1
loop_
_geom_bond_atom_site_label_1
_geom_bond_atom_site_label_2
_geom_bond_distance
_geom_bond_site_symmetry_2
Al0 Al18 2.871105 1_545
Al0 Al19 2.871105 1_545
Al0 Al18 2.871105 1_455
Al0 Al19 2.871105 1_455
Al0 Al9 3.052002 1_555
Al0 Al8 3.052002 1_445
Al0 Y1 3.129024 1_455
Al0 Y1 3.129024 1_545
Al0 Y2 3.129024 1_455
Al0 Y2 3.129024 1_545
Al0 Al3 3.130280 1_555
Al0 Al2 3.130280 1_445
Al1 Ni1 2.438182 1_665
Al1 Ni3 2.441298 1_555
Al1 Al15 2.693705 1_565
Al1 Al15 2.693705 1_655
Al1 Al13 2.738360 1_565
Al1 Al13 2.738360 1_655
Al1 Al2 2.868480 1_555
Al1 Y3 3.092775 1_565
Al1 Y3 3.092775 1_655
Al2 Al7 2.991464 1_665
Al2 Y1 3.100927 1_655
Al2 Y1 3.100927 1_565
Al2 Y3 3.119342 1_655
Al2 Y3 3.119342 1_565
Al3 Al6 2.991464 1_445
Al3 Y2 3.100927 1_455
Al3 Y2 3.100927 1_545
Al3 Y0 3.119342 1_455
Al3 Y0 3.119342 1_545
Al4 Ni0 2.384935 1_555
Al4 Ni5 2.500454 1_565
Al4 Ni5 2.500454 1_655
Al4 Y0 3.214895 1_555
Al5 Ni1 2.384935 1_555
Al5 Ni3 2.500454 1_545
Al5 Ni3 2.500454 1_455
Al5 Y3 3.214895 1_555
Al6 Ni2 2.375826 1_555
Al6 Ni0 2.420029 1_555
Al6 Y2 3.157811 1_655
Al6 Y2 3.157811 1_565
Al6 Y0 3.344246 1_555
Al7 Ni4 2.375826 1_555
Al7 Ni1 2.420029 1_555
Al7 Y1 3.157811 1_545
Al7 Y1 3.157811 1_455
Al7 Y3 3.344246 1_555
Al8 Ni2 2.400805 1_555
Al8 Ni4 2.493464 1_565
Al8 Ni4 2.493464 1_655
Al8 Y2 3.041151 1_565
Al8 Y2 3.041151 1_655
Al8 Y1 3.286205 1_555
Al9 Ni4 2.400805 1_555
Al9 Ni2 2.493464 1_455
Al9 Ni2 2.493464 1_545
Al9 Y1 3.041151 1_545
Al9 Y1 3.041151 1_455
Al9 Y2 3.286205 1_555
Al10 Ni0 2.438182 1_445
Al10 Ni5 2.441298 1_555
Al10 Al22 2.693705 1_545
Al10 Al22 2.693705 1_455
Al10 Al12 2.738360 1_455
Al10 Al12 2.738360 1_545
Al10 Al3 2.868480 1_555
Al10 Y0 3.092775 1_545
Al10 Y0 3.092775 1_455
Al11 Ni3 2.497153 1_555
Al11 Ni1 2.510906 1_655
Al11 Ni1 2.510906 1_565
Al11 Al15 2.780905 1_555
Al11 Y3 3.037985 1_655
Al11 Y3 3.037985 1_565
Al12 Ni5 2.376260 1_655
Al12 Ni5 2.376260 1_565
Al12 Ni3 2.547699 1_554
Al12 Al13 2.588937 1_564
Al12 Al13 2.588937 1_654
Al12 Al4 2.638138 1_555
Al12 Al20 2.705982 1_555
Al12 Y0 3.069375 1_555
Al13 Ni3 2.376260 1_455
Al13 Ni3 2.376260 1_545
Al13 Ni5 2.547699 1_556
Al13 Al5 2.638138 1_555
Al13 Al21 2.705982 1_555
Al13 Y3 3.069375 1_555
Al14 Ni5 2.497153 1_555
Al14 Ni0 2.510906 1_455
Al14 Ni0 2.510906 1_545
Al14 Al22 2.780905 1_555
Al14 Y0 3.037985 1_455
Al14 Y0 3.037985 1_545
Al15 Al21 2.700846 1_555
Al15 Ni1 2.717307 1_655
Al15 Ni1 2.717307 1_565
Al15 Al7 2.727928 1_565
Al15 Al7 2.727928 1_655
Al15 Al2 2.941228 1_545
Al15 Al2 2.941228 1_455
Al15 Y1 3.167243 1_555
Al15 Y3 3.199911 1_555
Al16 Ni4 2.424651 1_655
Al16 Ni4 2.424651 1_565
Al16 Y3 3.026466 1_565
Al16 Y3 3.026466 1_655
Al16 Al2 3.156722 1_555
Al16 Y1 3.285705 1_555
Al17 Ni2 2.424651 1_455
Al17 Ni2 2.424651 1_545
Al17 Y0 3.026466 1_455
Al17 Y0 3.026466 1_545
Al17 Al3 3.156722 1_555
Al17 Y2 3.285705 1_555
Al18 Ni2 2.325949 1_555
Al18 Al3 2.860360 1_565
Al18 Al3 2.860360 1_655
Al18 Y2 3.071886 1_555
Al18 Y0 3.151521 1_555
Al18 Y1 3.205000 1_555
Al19 Ni4 2.325949 1_555
Al19 Al2 2.860360 1_545
Al19 Al2 2.860360 1_455
Al19 Y1 3.071886 1_555
Al19 Y3 3.151521 1_555
Al19 Y2 3.205000 1_555
Al20 Ni3 2.363337 1_554
Al20 Ni0 2.480855 1_545
Al20 Ni0 2.480855 1_455
Al20 Al22 2.700846 1_555
Al21 Ni5 2.363337 1_556
Al21 Ni1 2.480855 1_565
Al21 Ni1 2.480855 1_655
Al22 Ni0 2.717307 1_545
Al22 Ni0 2.717307 1_455
Al22 Al6 2.727928 1_545
Al22 Al6 2.727928 1_455
Al22 Al3 2.941228 1_565
Al22 Al3 2.941228 1_655
Al22 Y2 3.167243 1_555
Al22 Y0 3.199911 1_555
Ni2 Y2 3.212919 1_655
Ni2 Y2 3.212919 1_565
Ni3 Y3 3.232664 1_565
Ni3 Y3 3.232664 1_655
Ni4 Y1 3.212919 1_455
Ni4 Y1 3.212919 1_545
Ni5 Y0 3.232664 1_545
Ni5 Y0 3.232664 1_455
