# generated using pymatgen
data_Yb2CdPd2
_symmetry_space_group_name_H-M   'P 1'
_cell_length_a   15.23519130
_cell_length_b   15.23519130
_cell_length_c   7.19551337
_cell_angle_alpha   90.00000000
_cell_angle_beta   90.00000000
_cell_angle_gamma   90.00000000
_symmetry_Int_Tables_number   1
_chemical_formula_structural   Yb2CdPd2
_chemical_formula_sum   'Yb32 Cd16 Pd32'
_cell_volume   1670.15819182
_cell_formula_units_Z   16
loop_
 _symmetry_equiv_pos_site_id
 _symmetry_equiv_pos_as_xyz
  1  'x, y, z'
loop_
 _atom_site_type_symbol
 _atom_site_label
 _atom_site_symmetry_multiplicity
 _atom_site_fract_x
 _atom_site_fract_y
 _atom_site_fract_z
 _atom_site_occupancy
  Yb  Yb0_0  1  0.16518814  0.41518814  0.25000000  1
  Yb  Yb0_1  1  0.16518814  0.41518814  0.75000000  1
  Yb  Yb0_2  1  0.16518814  0.91518814  0.25000000  1
  Yb  Yb0_3  1  0.16518814  0.91518814  0.75000000  1
  Yb  Yb0_4  1  0.66518814  0.41518814  0.25000000  1
  Yb  Yb0_5  1  0.66518814  0.41518814  0.75000000  1
  Yb  Yb0_6  1  0.66518814  0.91518814  0.25000000  1
  Yb  Yb0_7  1  0.66518814  0.91518814  0.75000000  1
  Yb  Yb1_0  1  0.41518814  0.33481186  0.25000000  1
  Yb  Yb1_1  1  0.41518814  0.33481186  0.75000000  1
  Yb  Yb1_2  1  0.41518814  0.83481186  0.25000000  1
  Yb  Yb1_3  1  0.41518814  0.83481186  0.75000000  1
  Yb  Yb1_4  1  0.91518814  0.33481186  0.25000000  1
  Yb  Yb1_5  1  0.91518814  0.33481186  0.75000000  1
  Yb  Yb1_6  1  0.91518814  0.83481186  0.25000000  1
  Yb  Yb1_7  1  0.91518814  0.83481186  0.75000000  1
  Yb  Yb2_0  1  0.08481186  0.16518814  0.25000000  1
  Yb  Yb2_1  1  0.08481186  0.16518814  0.75000000  1
  Yb  Yb2_2  1  0.08481186  0.66518814  0.25000000  1
  Yb  Yb2_3  1  0.08481186  0.66518814  0.75000000  1
  Yb  Yb2_4  1  0.58481186  0.16518814  0.25000000  1
  Yb  Yb2_5  1  0.58481186  0.16518814  0.75000000  1
  Yb  Yb2_6  1  0.58481186  0.66518814  0.25000000  1
  Yb  Yb2_7  1  0.58481186  0.66518814  0.75000000  1
  Yb  Yb3_0  1  0.33481186  0.08481186  0.25000000  1
  Yb  Yb3_1  1  0.33481186  0.08481186  0.75000000  1
  Yb  Yb3_2  1  0.33481186  0.58481186  0.25000000  1
  Yb  Yb3_3  1  0.33481186  0.58481186  0.75000000  1
  Yb  Yb3_4  1  0.83481186  0.08481186  0.25000000  1
  Yb  Yb3_5  1  0.83481186  0.08481186  0.75000000  1
  Yb  Yb3_6  1  0.83481186  0.58481186  0.25000000  1
  Yb  Yb3_7  1  0.83481186  0.58481186  0.75000000  1
  Cd  Cd0_0  1  0.00000000  0.00000000  0.00000000  1
  Cd  Cd0_1  1  0.00000000  0.00000000  0.50000000  1
  Cd  Cd0_2  1  0.00000000  0.50000000  0.00000000  1
  Cd  Cd0_3  1  0.00000000  0.50000000  0.50000000  1
  Cd  Cd0_4  1  0.50000000  0.00000000  0.00000000  1
  Cd  Cd0_5  1  0.50000000  0.00000000  0.50000000  1
  Cd  Cd0_6  1  0.50000000  0.50000000  0.00000000  1
  Cd  Cd0_7  1  0.50000000  0.50000000  0.50000000  1
  Cd  Cd1_0  1  0.25000000  0.25000000  0.00000000  1
  Cd  Cd1_1  1  0.25000000  0.25000000  0.50000000  1
  Cd  Cd1_2  1  0.25000000  0.75000000  0.00000000  1
  Cd  Cd1_3  1  0.25000000  0.75000000  0.50000000  1
  Cd  Cd1_4  1  0.75000000  0.25000000  0.00000000  1
  Cd  Cd1_5  1  0.75000000  0.25000000  0.50000000  1
  Cd  Cd1_6  1  0.75000000  0.75000000  0.00000000  1
  Cd  Cd1_7  1  0.75000000  0.75000000  0.50000000  1
  Pd  Pd0_0  1  0.18452883  0.06547117  0.00000000  1
  Pd  Pd0_1  1  0.18452883  0.06547117  0.50000000  1
  Pd  Pd0_2  1  0.18452883  0.56547117  0.00000000  1
  Pd  Pd0_3  1  0.18452883  0.56547117  0.50000000  1
  Pd  Pd0_4  1  0.68452883  0.06547117  0.00000000  1
  Pd  Pd0_5  1  0.68452883  0.06547117  0.50000000  1
  Pd  Pd0_6  1  0.68452883  0.56547117  0.00000000  1
  Pd  Pd0_7  1  0.68452883  0.56547117  0.50000000  1
  Pd  Pd1_0  1  0.43452883  0.18452883  0.00000000  1
  Pd  Pd1_1  1  0.43452883  0.18452883  0.50000000  1
  Pd  Pd1_2  1  0.43452883  0.68452883  0.00000000  1
  Pd  Pd1_3  1  0.43452883  0.68452883  0.50000000  1
  Pd  Pd1_4  1  0.93452883  0.18452883  0.00000000  1
  Pd  Pd1_5  1  0.93452883  0.18452883  0.50000000  1
  Pd  Pd1_6  1  0.93452883  0.68452883  0.00000000  1
  Pd  Pd1_7  1  0.93452883  0.68452883  0.50000000  1
  Pd  Pd2_0  1  0.06547117  0.31547117  0.00000000  1
  Pd  Pd2_1  1  0.06547117  0.31547117  0.50000000  1
  Pd  Pd2_2  1  0.06547117  0.81547117  0.00000000  1
  Pd  Pd2_3  1  0.06547117  0.81547117  0.50000000  1
  Pd  Pd2_4  1  0.56547117  0.31547117  0.00000000  1
  Pd  Pd2_5  1  0.56547117  0.31547117  0.50000000  1
  Pd  Pd2_6  1  0.56547117  0.81547117  0.00000000  1
  Pd  Pd2_7  1  0.56547117  0.81547117  0.50000000  1
  Pd  Pd3_0  1  0.31547117  0.43452883  0.00000000  1
  Pd  Pd3_1  1  0.31547117  0.43452883  0.50000000  1
  Pd  Pd3_2  1  0.31547117  0.93452883  0.00000000  1
  Pd  Pd3_3  1  0.31547117  0.93452883  0.50000000  1
  Pd  Pd3_4  1  0.81547117  0.43452883  0.00000000  1
  Pd  Pd3_5  1  0.81547117  0.43452883  0.50000000  1
  Pd  Pd3_6  1  0.81547117  0.93452883  0.00000000  1
  Pd  Pd3_7  1  0.81547117  0.93452883  0.50000000  1
loop_
_geom_bond_atom_site_label_1
_geom_bond_atom_site_label_2
_geom_bond_distance
_geom_bond_site_symmetry_2
Cd0_0 Pd0_0 2.983040 1_555
Cd0_0 Pd1_4 2.983040 1_455
Cd0_0 Pd2_2 2.983040 1_545
Cd0_0 Pd3_6 2.983040 1_445
Cd0_0 Yb2_1 3.352490 1_554
Cd0_0 Yb2_0 3.352490 1_555
Cd0_0 Yb0_2 3.352490 1_545
Cd0_0 Yb0_3 3.352490 1_544
Cd0_0 Yb3_4 3.352490 1_455
Cd0_0 Yb3_5 3.352490 1_454
Cd0_0 Yb1_7 3.352490 1_444
Cd0_0 Yb1_6 3.352490 1_445
Cd0_0 Cd0_1 3.597757 1_555
Cd0_0 Cd0_1 3.597757 1_554
Cd0_1 Pd0_1 2.983040 1_555
Cd0_1 Pd1_5 2.983040 1_455
Cd0_1 Pd2_3 2.983040 1_545
Cd0_1 Pd3_7 2.983040 1_445
Cd0_1 Yb2_0 3.352490 1_555
Cd0_1 Yb2_1 3.352490 1_555
Cd0_1 Yb0_2 3.352490 1_545
Cd0_1 Yb0_3 3.352490 1_545
Cd0_1 Yb3_4 3.352490 1_455
Cd0_1 Yb3_5 3.352490 1_455
Cd0_1 Yb1_6 3.352490 1_445
Cd0_1 Yb1_7 3.352490 1_445
Cd0_2 Pd0_2 2.983040 1_555
Cd0_2 Pd1_6 2.983040 1_455
Cd0_2 Pd2_0 2.983040 1_555
Cd0_2 Pd3_4 2.983040 1_455
Cd0_2 Yb2_2 3.352490 1_555
Cd0_2 Yb2_3 3.352490 1_554
Cd0_2 Yb0_0 3.352490 1_555
Cd0_2 Yb0_1 3.352490 1_554
Cd0_2 Yb3_6 3.352490 1_455
Cd0_2 Yb3_7 3.352490 1_454
Cd0_2 Yb1_4 3.352490 1_455
Cd0_2 Yb1_5 3.352490 1_454
Cd0_2 Cd0_3 3.597757 1_555
Cd0_2 Cd0_3 3.597757 1_554
Cd0_3 Pd0_3 2.983040 1_555
Cd0_3 Pd1_7 2.983040 1_455
Cd0_3 Pd2_1 2.983040 1_555
Cd0_3 Pd3_5 2.983040 1_455
Cd0_3 Yb2_2 3.352490 1_555
Cd0_3 Yb2_3 3.352490 1_555
Cd0_3 Yb0_0 3.352490 1_555
Cd0_3 Yb0_1 3.352490 1_555
Cd0_3 Yb3_6 3.352490 1_455
Cd0_3 Yb3_7 3.352490 1_455
Cd0_3 Yb1_5 3.352490 1_455
Cd0_3 Yb1_4 3.352490 1_455
Cd0_4 Pd0_4 2.983040 1_555
Cd0_4 Pd1_0 2.983040 1_555
Cd0_4 Pd2_6 2.983040 1_545
Cd0_4 Pd3_2 2.983040 1_545
Cd0_4 Yb2_5 3.352490 1_554
Cd0_4 Yb2_4 3.352490 1_555
Cd0_4 Yb0_7 3.352490 1_544
Cd0_4 Yb0_6 3.352490 1_545
Cd0_4 Yb3_1 3.352490 1_554
Cd0_4 Yb3_0 3.352490 1_555
Cd0_4 Yb1_3 3.352490 1_544
Cd0_4 Yb1_2 3.352490 1_545
Cd0_4 Cd0_5 3.597757 1_555
Cd0_4 Cd0_5 3.597757 1_554
Cd0_5 Pd0_5 2.983040 1_555
Cd0_5 Pd1_1 2.983040 1_555
Cd0_5 Pd2_7 2.983040 1_545
Cd0_5 Pd3_3 2.983040 1_545
Cd0_5 Yb2_4 3.352490 1_555
Cd0_5 Yb2_5 3.352490 1_555
Cd0_5 Yb0_7 3.352490 1_545
Cd0_5 Yb0_6 3.352490 1_545
Cd0_5 Yb3_1 3.352490 1_555
Cd0_5 Yb3_0 3.352490 1_555
Cd0_5 Yb1_3 3.352490 1_545
Cd0_5 Yb1_2 3.352490 1_545
Cd0_6 Pd0_6 2.983040 1_555
Cd0_6 Pd1_2 2.983040 1_555
Cd0_6 Pd2_4 2.983040 1_555
Cd0_6 Pd3_0 2.983040 1_555
Cd0_6 Yb2_7 3.352490 1_554
Cd0_6 Yb2_6 3.352490 1_555
Cd0_6 Yb0_5 3.352490 1_554
Cd0_6 Yb0_4 3.352490 1_555
Cd0_6 Yb3_2 3.352490 1_555
Cd0_6 Yb3_3 3.352490 1_554
Cd0_6 Yb1_1 3.352490 1_554
Cd0_6 Yb1_0 3.352490 1_555
Cd0_6 Cd0_7 3.597757 1_554
Cd0_6 Cd0_7 3.597757 1_555
Cd0_7 Pd0_7 2.983040 1_555
Cd0_7 Pd1_3 2.983040 1_555
Cd0_7 Pd2_5 2.983040 1_555
Cd0_7 Pd3_1 2.983040 1_555
Cd0_7 Yb2_7 3.352490 1_555
Cd0_7 Yb2_6 3.352490 1_555
Cd0_7 Yb0_5 3.352490 1_555
Cd0_7 Yb0_4 3.352490 1_555
Cd0_7 Yb3_2 3.352490 1_555
Cd0_7 Yb3_3 3.352490 1_555
Cd0_7 Yb1_0 3.352490 1_555
Cd0_7 Yb1_1 3.352490 1_555
Cd1_0 Pd3_0 2.983040 1_555
Cd1_0 Pd1_0 2.983040 1_555
Cd1_0 Pd2_0 2.983040 1_555
Cd1_0 Pd0_0 2.983040 1_555
Cd1_0 Yb1_1 3.352490 1_554
Cd1_0 Yb1_0 3.352490 1_555
Cd1_0 Yb0_0 3.352490 1_555
Cd1_0 Yb0_1 3.352490 1_554
Cd1_0 Yb3_1 3.352490 1_554
Cd1_0 Yb3_0 3.352490 1_555
Cd1_0 Yb2_1 3.352490 1_554
Cd1_0 Yb2_0 3.352490 1_555
Cd1_0 Cd1_1 3.597757 1_555
Cd1_0 Cd1_1 3.597757 1_554
Cd1_1 Pd3_1 2.983040 1_555
Cd1_1 Pd1_1 2.983040 1_555
Cd1_1 Pd2_1 2.983040 1_555
Cd1_1 Pd0_1 2.983040 1_555
Cd1_1 Yb1_0 3.352490 1_555
Cd1_1 Yb1_1 3.352490 1_555
Cd1_1 Yb0_0 3.352490 1_555
Cd1_1 Yb0_1 3.352490 1_555
Cd1_1 Yb3_1 3.352490 1_555
Cd1_1 Yb3_0 3.352490 1_555
Cd1_1 Yb2_1 3.352490 1_555
Cd1_1 Yb2_0 3.352490 1_555
Cd1_2 Pd3_2 2.983040 1_555
Cd1_2 Pd1_2 2.983040 1_555
Cd1_2 Pd2_2 2.983040 1_555
Cd1_2 Pd0_2 2.983040 1_555
Cd1_2 Yb1_2 3.352490 1_555
Cd1_2 Yb1_3 3.352490 1_554
Cd1_2 Yb0_2 3.352490 1_555
Cd1_2 Yb0_3 3.352490 1_554
Cd1_2 Yb3_3 3.352490 1_554
Cd1_2 Yb3_2 3.352490 1_555
Cd1_2 Yb2_2 3.352490 1_555
Cd1_2 Yb2_3 3.352490 1_554
Cd1_2 Cd1_3 3.597757 1_555
Cd1_2 Cd1_3 3.597757 1_554
Cd1_3 Pd3_3 2.983040 1_555
Cd1_3 Pd1_3 2.983040 1_555
Cd1_3 Pd2_3 2.983040 1_555
Cd1_3 Pd0_3 2.983040 1_555
Cd1_3 Yb1_2 3.352490 1_555
Cd1_3 Yb1_3 3.352490 1_555
Cd1_3 Yb0_2 3.352490 1_555
Cd1_3 Yb0_3 3.352490 1_555
Cd1_3 Yb3_2 3.352490 1_555
Cd1_3 Yb3_3 3.352490 1_555
Cd1_3 Yb2_2 3.352490 1_555
Cd1_3 Yb2_3 3.352490 1_555
Cd1_4 Pd3_4 2.983040 1_555
Cd1_4 Pd1_4 2.983040 1_555
Cd1_4 Pd2_4 2.983040 1_555
Cd1_4 Pd0_4 2.983040 1_555
Cd1_4 Yb1_4 3.352490 1_555
Cd1_4 Yb1_5 3.352490 1_554
Cd1_4 Yb0_5 3.352490 1_554
Cd1_4 Yb0_4 3.352490 1_555
Cd1_4 Yb3_5 3.352490 1_554
Cd1_4 Yb3_4 3.352490 1_555
Cd1_4 Yb2_4 3.352490 1_555
Cd1_4 Yb2_5 3.352490 1_554
Cd1_4 Cd1_5 3.597757 1_554
Cd1_4 Cd1_5 3.597757 1_555
Cd1_5 Pd3_5 2.983040 1_555
Cd1_5 Pd1_5 2.983040 1_555
Cd1_5 Pd2_5 2.983040 1_555
Cd1_5 Pd0_5 2.983040 1_555
Cd1_5 Yb1_4 3.352490 1_555
Cd1_5 Yb1_5 3.352490 1_555
Cd1_5 Yb0_5 3.352490 1_555
Cd1_5 Yb0_4 3.352490 1_555
Cd1_5 Yb3_5 3.352490 1_555
Cd1_5 Yb3_4 3.352490 1_555
Cd1_5 Yb2_5 3.352490 1_555
Cd1_5 Yb2_4 3.352490 1_555
Cd1_6 Pd3_6 2.983040 1_555
Cd1_6 Pd1_6 2.983040 1_555
Cd1_6 Pd2_6 2.983040 1_555
Cd1_6 Pd0_6 2.983040 1_555
Cd1_6 Yb1_6 3.352490 1_555
Cd1_6 Yb1_7 3.352490 1_554
Cd1_6 Yb0_6 3.352490 1_555
Cd1_6 Yb0_7 3.352490 1_554
Cd1_6 Yb3_6 3.352490 1_555
Cd1_6 Yb3_7 3.352490 1_554
Cd1_6 Yb2_7 3.352490 1_554
Cd1_6 Yb2_6 3.352490 1_555
Cd1_6 Cd1_7 3.597757 1_554
Cd1_6 Cd1_7 3.597757 1_555
Cd1_7 Pd3_7 2.983040 1_555
Cd1_7 Pd1_7 2.983040 1_555
Cd1_7 Pd2_7 2.983040 1_555
Cd1_7 Pd0_7 2.983040 1_555
Cd1_7 Yb1_6 3.352490 1_555
Cd1_7 Yb1_7 3.352490 1_555
Cd1_7 Yb0_6 3.352490 1_555
Cd1_7 Yb0_7 3.352490 1_555
Cd1_7 Yb3_6 3.352490 1_555
Cd1_7 Yb3_7 3.352490 1_555
Cd1_7 Yb2_6 3.352490 1_555
Cd1_7 Yb2_7 3.352490 1_555
Pd0_0 Yb2_1 2.802132 1_554
Pd0_0 Yb2_0 2.802132 1_555
Pd0_0 Pd3_2 2.821259 1_545
Pd0_0 Yb0_2 2.926604 1_545
Pd0_0 Yb0_3 2.926604 1_544
Pd0_0 Yb3_1 2.926604 1_554
Pd0_0 Yb3_0 2.926604 1_555
Pd0_1 Yb2_1 2.802132 1_555
Pd0_1 Yb2_0 2.802132 1_555
Pd0_1 Pd3_3 2.821259 1_545
Pd0_1 Yb0_2 2.926604 1_545
Pd0_1 Yb0_3 2.926604 1_545
Pd0_1 Yb3_1 2.926604 1_555
Pd0_1 Yb3_0 2.926604 1_555
Pd0_2 Yb2_2 2.802132 1_555
Pd0_2 Yb2_3 2.802132 1_554
Pd0_2 Pd3_0 2.821259 1_555
Pd0_2 Yb0_0 2.926604 1_555
Pd0_2 Yb0_1 2.926604 1_554
Pd0_2 Yb3_3 2.926604 1_554
Pd0_2 Yb3_2 2.926604 1_555
Pd0_3 Yb2_2 2.802132 1_555
Pd0_3 Yb2_3 2.802132 1_555
Pd0_3 Pd3_1 2.821259 1_555
Pd0_3 Yb0_0 2.926604 1_555
Pd0_3 Yb0_1 2.926604 1_555
Pd0_3 Yb3_2 2.926604 1_555
Pd0_3 Yb3_3 2.926604 1_555
Pd0_4 Yb2_5 2.802132 1_554
Pd0_4 Yb2_4 2.802132 1_555
Pd0_4 Pd3_6 2.821259 1_545
Pd0_4 Yb0_6 2.926604 1_545
Pd0_4 Yb0_7 2.926604 1_544
Pd0_4 Yb3_4 2.926604 1_555
Pd0_4 Yb3_5 2.926604 1_554
Pd0_5 Yb2_5 2.802132 1_555
Pd0_5 Yb2_4 2.802132 1_555
Pd0_5 Pd3_7 2.821259 1_545
Pd0_5 Yb0_6 2.926604 1_545
Pd0_5 Yb0_7 2.926604 1_545
Pd0_5 Yb3_5 2.926604 1_555
Pd0_5 Yb3_4 2.926604 1_555
Pd0_6 Yb2_7 2.802132 1_554
Pd0_6 Yb2_6 2.802132 1_555
Pd0_6 Pd3_4 2.821259 1_555
Pd0_6 Yb0_4 2.926604 1_555
Pd0_6 Yb0_5 2.926604 1_554
Pd0_6 Yb3_6 2.926604 1_555
Pd0_6 Yb3_7 2.926604 1_554
Pd0_7 Yb2_7 2.802132 1_555
Pd0_7 Yb2_6 2.802132 1_555
Pd0_7 Pd3_5 2.821259 1_555
Pd0_7 Yb0_4 2.926604 1_555
Pd0_7 Yb0_5 2.926604 1_555
Pd0_7 Yb3_6 2.926604 1_555
Pd0_7 Yb3_7 2.926604 1_555
Pd1_0 Yb3_1 2.802132 1_554
Pd1_0 Yb3_0 2.802132 1_555
Pd1_0 Pd2_4 2.821259 1_555
Pd1_0 Yb2_5 2.926604 1_554
Pd1_0 Yb2_4 2.926604 1_555
Pd1_0 Yb1_1 2.926604 1_554
Pd1_0 Yb1_0 2.926604 1_555
Pd1_1 Yb3_1 2.802132 1_555
Pd1_1 Yb3_0 2.802132 1_555
Pd1_1 Pd2_5 2.821259 1_555
Pd1_1 Yb2_4 2.926604 1_555
Pd1_1 Yb2_5 2.926604 1_555
Pd1_1 Yb1_0 2.926604 1_555
Pd1_1 Yb1_1 2.926604 1_555
Pd1_2 Yb3_2 2.802132 1_555
Pd1_2 Yb3_3 2.802132 1_554
Pd1_2 Pd2_6 2.821259 1_555
Pd1_2 Yb2_6 2.926604 1_555
Pd1_2 Yb2_7 2.926604 1_554
Pd1_2 Yb1_2 2.926604 1_555
Pd1_2 Yb1_3 2.926604 1_554
Pd1_3 Yb3_2 2.802132 1_555
Pd1_3 Yb3_3 2.802132 1_555
Pd1_3 Pd2_7 2.821259 1_555
Pd1_3 Yb2_6 2.926604 1_555
Pd1_3 Yb2_7 2.926604 1_555
Pd1_3 Yb1_2 2.926604 1_555
Pd1_3 Yb1_3 2.926604 1_555
Pd1_4 Yb3_5 2.802132 1_554
Pd1_4 Yb3_4 2.802132 1_555
Pd1_4 Pd2_0 2.821259 1_655
Pd1_4 Yb1_4 2.926604 1_555
Pd1_4 Yb2_0 2.926604 1_655
Pd1_4 Yb2_1 2.926604 1_654
Pd1_4 Yb1_5 2.926604 1_554
Pd1_5 Yb3_5 2.802132 1_555
Pd1_5 Yb3_4 2.802132 1_555
Pd1_5 Pd2_1 2.821259 1_655
Pd1_5 Yb1_4 2.926604 1_555
Pd1_5 Yb2_0 2.926604 1_655
Pd1_5 Yb2_1 2.926604 1_655
Pd1_5 Yb1_5 2.926604 1_555
Pd1_6 Yb3_6 2.802132 1_555
Pd1_6 Yb3_7 2.802132 1_554
Pd1_6 Pd2_2 2.821259 1_655
Pd1_6 Yb2_2 2.926604 1_655
Pd1_6 Yb2_3 2.926604 1_654
Pd1_6 Yb1_6 2.926604 1_555
Pd1_6 Yb1_7 2.926604 1_554
Pd1_7 Yb3_6 2.802132 1_555
Pd1_7 Yb3_7 2.802132 1_555
Pd1_7 Pd2_3 2.821259 1_655
Pd1_7 Yb2_2 2.926604 1_655
Pd1_7 Yb2_3 2.926604 1_655
Pd1_7 Yb1_6 2.926604 1_555
Pd1_7 Yb1_7 2.926604 1_555
Pd2_0 Yb0_0 2.802132 1_555
Pd2_0 Yb0_1 2.802132 1_554
Pd2_0 Yb1_5 2.926604 1_454
Pd2_0 Yb2_1 2.926604 1_554
Pd2_0 Yb2_0 2.926604 1_555
Pd2_0 Yb1_4 2.926604 1_455
Pd2_1 Yb0_0 2.802132 1_555
Pd2_1 Yb0_1 2.802132 1_555
Pd2_1 Yb1_5 2.926604 1_455
Pd2_1 Yb2_0 2.926604 1_555
Pd2_1 Yb2_1 2.926604 1_555
Pd2_1 Yb1_4 2.926604 1_455
Pd2_2 Yb0_3 2.802132 1_554
Pd2_2 Yb0_2 2.802132 1_555
Pd2_2 Yb2_3 2.926604 1_554
Pd2_2 Yb2_2 2.926604 1_555
Pd2_2 Yb1_6 2.926604 1_455
Pd2_2 Yb1_7 2.926604 1_454
Pd2_3 Yb0_2 2.802132 1_555
Pd2_3 Yb0_3 2.802132 1_555
Pd2_3 Yb2_2 2.926604 1_555
Pd2_3 Yb2_3 2.926604 1_555
Pd2_3 Yb1_6 2.926604 1_455
Pd2_3 Yb1_7 2.926604 1_455
Pd2_4 Yb0_5 2.802132 1_554
Pd2_4 Yb0_4 2.802132 1_555
Pd2_4 Yb2_5 2.926604 1_554
Pd2_4 Yb2_4 2.926604 1_555
Pd2_4 Yb1_1 2.926604 1_554
Pd2_4 Yb1_0 2.926604 1_555
Pd2_5 Yb0_5 2.802132 1_555
Pd2_5 Yb0_4 2.802132 1_555
Pd2_5 Yb2_5 2.926604 1_555
Pd2_5 Yb2_4 2.926604 1_555
Pd2_5 Yb1_0 2.926604 1_555
Pd2_5 Yb1_1 2.926604 1_555
Pd2_6 Yb0_6 2.802132 1_555
Pd2_6 Yb0_7 2.802132 1_554
Pd2_6 Yb2_7 2.926604 1_554
Pd2_6 Yb2_6 2.926604 1_555
Pd2_6 Yb1_2 2.926604 1_555
Pd2_6 Yb1_3 2.926604 1_554
Pd2_7 Yb0_6 2.802132 1_555
Pd2_7 Yb0_7 2.802132 1_555
Pd2_7 Yb2_6 2.926604 1_555
Pd2_7 Yb2_7 2.926604 1_555
Pd2_7 Yb1_2 2.926604 1_555
Pd2_7 Yb1_3 2.926604 1_555
Pd3_0 Yb1_1 2.802132 1_554
Pd3_0 Yb1_0 2.802132 1_555
Pd3_0 Yb0_0 2.926604 1_555
Pd3_0 Yb0_1 2.926604 1_554
Pd3_0 Yb3_3 2.926604 1_554
Pd3_0 Yb3_2 2.926604 1_555
Pd3_1 Yb1_0 2.802132 1_555
Pd3_1 Yb1_1 2.802132 1_555
Pd3_1 Yb0_0 2.926604 1_555
Pd3_1 Yb0_1 2.926604 1_555
Pd3_1 Yb3_2 2.926604 1_555
Pd3_1 Yb3_3 2.926604 1_555
Pd3_2 Yb1_2 2.802132 1_555
Pd3_2 Yb1_3 2.802132 1_554
Pd3_2 Yb3_0 2.926604 1_565
Pd3_2 Yb3_1 2.926604 1_564
Pd3_2 Yb0_3 2.926604 1_554
Pd3_2 Yb0_2 2.926604 1_555
Pd3_3 Yb1_2 2.802132 1_555
Pd3_3 Yb1_3 2.802132 1_555
Pd3_3 Yb0_3 2.926604 1_555
Pd3_3 Yb3_0 2.926604 1_565
Pd3_3 Yb3_1 2.926604 1_565
Pd3_3 Yb0_2 2.926604 1_555
Pd3_4 Yb1_5 2.802132 1_554
Pd3_4 Yb1_4 2.802132 1_555
Pd3_4 Yb0_5 2.926604 1_554
Pd3_4 Yb0_4 2.926604 1_555
Pd3_4 Yb3_6 2.926604 1_555
Pd3_4 Yb3_7 2.926604 1_554
Pd3_5 Yb1_5 2.802132 1_555
Pd3_5 Yb1_4 2.802132 1_555
Pd3_5 Yb0_5 2.926604 1_555
Pd3_5 Yb0_4 2.926604 1_555
Pd3_5 Yb3_6 2.926604 1_555
Pd3_5 Yb3_7 2.926604 1_555
Pd3_6 Yb1_6 2.802132 1_555
Pd3_6 Yb1_7 2.802132 1_554
Pd3_6 Yb0_7 2.926604 1_554
Pd3_6 Yb0_6 2.926604 1_555
Pd3_6 Yb3_4 2.926604 1_565
Pd3_6 Yb3_5 2.926604 1_564
Pd3_7 Yb1_6 2.802132 1_555
Pd3_7 Yb1_7 2.802132 1_555
Pd3_7 Yb0_7 2.926604 1_555
Pd3_7 Yb0_6 2.926604 1_555
Pd3_7 Yb3_4 2.926604 1_565
Pd3_7 Yb3_5 2.926604 1_565
