# generated using pymatgen
data_NaNO3
_symmetry_space_group_name_H-M   'P 1'
_cell_length_a   6.16863325
_cell_length_b   6.16863328
_cell_length_c   6.16863282
_cell_angle_alpha   48.31173923
_cell_angle_beta   48.31173643
_cell_angle_gamma   48.31173891
_symmetry_Int_Tables_number   1
_chemical_formula_structural   NaNO3
_chemical_formula_sum   'Na2 N2 O6'
_cell_volume   120.00620150
_cell_formula_units_Z   2
loop_
 _symmetry_equiv_pos_site_id
 _symmetry_equiv_pos_as_xyz
  1  'x, y, z'
loop_
 _atom_site_type_symbol
 _atom_site_label
 _atom_site_symmetry_multiplicity
 _atom_site_fract_x
 _atom_site_fract_y
 _atom_site_fract_z
 _atom_site_occupancy
  Na  Na0  1  0.50000000  0.50000000  0.50000000  1
  Na  Na1  1  -0.00000000  0.00000000  -0.00000000  1
  N  N0  1  0.75000000  0.75000000  0.75000000  1
  N  N1  1  0.25000000  0.25000000  0.25000000  1
  O  O0  1  0.75000000  0.50070416  -0.00070416  1
  O  O1  1  -0.00070416  0.75000000  0.50070416  1
  O  O2  1  0.49929584  0.00070416  0.25000000  1
  O  O3  1  0.25000000  0.49929584  0.00070416  1
  O  O4  1  0.00070416  0.25000000  0.49929584  1
  O  O5  1  0.50070416  -0.00070416  0.75000000  1
loop_
_geom_bond_atom_site_label_1
_geom_bond_atom_site_label_2
_geom_bond_distance
_geom_bond_site_symmetry_2
Na0 O0 2.360796 1_555
Na0 O3 2.360796 1_556
Na0 O1 2.360797 1_555
Na0 O4 2.360797 1_655
Na0 O5 2.360797 1_555
Na0 O2 2.360797 1_565
Na1 O4 2.360797 1_554
Na1 O1 2.360797 1_545
Na1 O2 2.360797 1_455
Na1 O5 2.360797 1_554
Na1 O3 2.360797 1_545
Na1 O0 2.360797 1_455
N0 O1 1.258610 1_655
N0 O0 1.258610 1_556
N0 O5 1.258610 1_565
N1 O4 1.258610 1_555
N1 O3 1.258610 1_555
N1 O2 1.258610 1_555
