# generated using pymatgen
data_GaCuO2
_symmetry_space_group_name_H-M   'P 1'
_cell_length_a   5.98020362
_cell_length_b   5.98020346
_cell_length_c   5.98020476
_cell_angle_alpha   28.76532984
_cell_angle_beta   28.76533977
_cell_angle_gamma   28.76534191
_symmetry_Int_Tables_number   1
_chemical_formula_structural   GaCuO2
_chemical_formula_sum   'Ga1 Cu1 O2'
_cell_volume   43.79140164
_cell_formula_units_Z   1
loop_
 _symmetry_equiv_pos_site_id
 _symmetry_equiv_pos_as_xyz
  1  'x, y, z'
loop_
 _atom_site_type_symbol
 _atom_site_label
 _atom_site_symmetry_multiplicity
 _atom_site_fract_x
 _atom_site_fract_y
 _atom_site_fract_z
 _atom_site_occupancy
  Ga  Ga0  1  0.50000000  0.50000000  0.50000000  1
  Cu  Cu0  1  0.00000000  -0.00000000  -0.00000000  1
  O  O0  1  0.89220539  0.89220539  0.89220539  1
  O  O1  1  0.10779461  0.10779461  0.10779461  1
loop_
_geom_bond_atom_site_label_1
_geom_bond_atom_site_label_2
_geom_bond_distance
_geom_bond_site_symmetry_2
Ga0 O1 1.991462 1_556
Ga0 O0 1.991462 1_554
Ga0 O0 1.991463 1_545
Ga0 O1 1.991463 1_565
Ga0 O0 1.991463 1_455
Ga0 O1 1.991463 1_655
Cu0 O1 1.852645 1_555
Cu0 O0 1.852645 1_444
