# generated using pymatgen
data_Nd(CuO2)2
_symmetry_space_group_name_H-M   'P 1'
_cell_length_a   5.74473756
_cell_length_b   5.82626798
_cell_length_c   6.31501035
_cell_angle_alpha   116.93578785
_cell_angle_beta   116.48618103
_cell_angle_gamma   91.09403500
_symmetry_Int_Tables_number   1
_chemical_formula_structural   Nd(CuO2)2
_chemical_formula_sum   'Nd2 Cu4 O8'
_cell_volume   162.05284924
_cell_formula_units_Z   2
loop_
 _symmetry_equiv_pos_site_id
 _symmetry_equiv_pos_as_xyz
  1  'x, y, z'
loop_
 _atom_site_type_symbol
 _atom_site_label
 _atom_site_symmetry_multiplicity
 _atom_site_fract_x
 _atom_site_fract_y
 _atom_site_fract_z
 _atom_site_occupancy
  Nd  Nd0  1  0.87456657  0.12455242  0.74913667  1
  Nd  Nd1  1  0.12543343  0.87544758  0.25086333  1
  Cu  Cu0  1  0.50000000  0.00000000  -0.00000000  1
  Cu  Cu1  1  0.50000000  0.50000000  -0.00000000  1
  Cu  Cu2  1  -0.00000000  0.50000000  0.50000000  1
  Cu  Cu3  1  0.50000000  0.50000000  0.50000000  1
  O  O0  1  0.70826832  0.52838500  0.85396423  1
  O  O1  1  0.14568331  0.82562332  0.85399436  1
  O  O2  1  0.29173168  0.47161500  0.14603577  1
  O  O3  1  0.85431669  0.17437668  0.14600564  1
  O  O4  1  0.53729664  0.14310123  0.34753559  1
  O  O5  1  0.81025850  0.70440532  0.34753886  1
  O  O6  1  0.18974150  0.29559468  0.65246114  1
  O  O7  1  0.46270336  0.85689877  0.65246441  1
loop_
_geom_bond_atom_site_label_1
_geom_bond_atom_site_label_2
_geom_bond_distance
_geom_bond_site_symmetry_2
Nd0 O2 2.445349 1_656
Nd0 O3 2.445651 1_556
Nd0 O5 2.462879 1_545
Nd0 O4 2.463930 1_555
Nd0 O7 2.472019 1_545
Nd0 O6 2.472311 1_655
Nd0 O0 2.474987 1_555
Nd0 O1 2.475096 1_645
Nd1 O0 2.445349 1_454
Nd1 O1 2.445651 1_554
Nd1 O6 2.462879 1_565
Nd1 O7 2.463930 1_555
Nd1 O4 2.472019 1_565
Nd1 O5 2.472311 1_455
Nd1 O2 2.474987 1_555
Nd1 O3 2.475096 1_465
Cu0 O1 1.850342 1_544
Cu0 O3 1.850342 1_555
Cu0 O7 1.863779 1_544
Cu0 O4 1.863779 1_555
Cu1 O0 1.850438 1_554
Cu1 O2 1.850438 1_555
Cu1 O5 1.863771 1_555
Cu1 O6 1.863771 1_554
Cu2 O6 1.919817 1_555
Cu2 O5 1.919817 1_455
Cu2 O3 1.930099 1_455
Cu2 O1 1.930099 1_555
Cu3 O4 1.919363 1_555
Cu3 O7 1.919363 1_555
Cu3 O2 1.930649 1_555
Cu3 O0 1.930649 1_555
