# generated using pymatgen
data_Ti2O3
_symmetry_space_group_name_H-M   'P 1'
_cell_length_a   5.45736044
_cell_length_b   5.45736193
_cell_length_c   5.45736145
_cell_angle_alpha   55.79413805
_cell_angle_beta   55.79412997
_cell_angle_gamma   55.79413435
_symmetry_Int_Tables_number   1
_chemical_formula_structural   Ti2O3
_chemical_formula_sum   'Ti4 O6'
_cell_volume   103.72111553
_cell_formula_units_Z   2
loop_
 _symmetry_equiv_pos_site_id
 _symmetry_equiv_pos_as_xyz
  1  'x, y, z'
loop_
 _atom_site_type_symbol
 _atom_site_label
 _atom_site_symmetry_multiplicity
 _atom_site_fract_x
 _atom_site_fract_y
 _atom_site_fract_z
 _atom_site_occupancy
  Ti  Ti0  1  0.34453747  0.34453747  0.34453747  1
  Ti  Ti1  1  0.15546253  0.15546253  0.15546253  1
  Ti  Ti2  1  0.65546253  0.65546253  0.65546253  1
  Ti  Ti3  1  0.84453747  0.84453747  0.84453747  1
  O  O0  1  0.56439446  0.93560554  0.25000000  1
  O  O1  1  0.25000000  0.56439446  0.93560554  1
  O  O2  1  0.93560554  0.25000000  0.56439446  1
  O  O3  1  0.43560554  0.06439446  0.75000000  1
  O  O4  1  0.75000000  0.43560554  0.06439446  1
  O  O5  1  0.06439446  0.75000000  0.43560554  1
loop_
_geom_bond_atom_site_label_1
_geom_bond_atom_site_label_2
_geom_bond_distance
_geom_bond_site_symmetry_2
O0 Ti3 2.014753 1_554
O0 Ti2 2.014753 1_555
O0 Ti1 2.067409 1_565
O0 Ti0 2.067409 1_565
O1 Ti2 2.014753 1_555
O1 Ti3 2.014753 1_455
O1 Ti0 2.067409 1_556
O1 Ti1 2.067409 1_556
O2 Ti2 2.014753 1_555
O2 Ti3 2.014753 1_545
O2 Ti0 2.067409 1_655
O2 Ti1 2.067409 1_655
O3 Ti1 2.014753 1_556
O3 Ti0 2.014753 1_555
O3 Ti3 2.067409 1_545
O3 Ti2 2.067409 1_545
O4 Ti0 2.014753 1_555
O4 Ti1 2.014753 1_655
O4 Ti2 2.067409 1_554
O4 Ti3 2.067409 1_554
O5 Ti0 2.014753 1_555
O5 Ti1 2.014753 1_565
O5 Ti2 2.067409 1_455
O5 Ti3 2.067409 1_455
