# generated using pymatgen
data_CaSiO3
_symmetry_space_group_name_H-M   'P 1'
_cell_length_a   7.08438356
_cell_length_b   7.32527090
_cell_length_c   7.93316009
_cell_angle_alpha   103.39798125
_cell_angle_beta   95.28069284
_cell_angle_gamma   90.04923166
_symmetry_Int_Tables_number   1
_chemical_formula_structural   CaSiO3
_chemical_formula_sum   'Ca6 Si6 O18'
_cell_volume   398.68262690
_cell_formula_units_Z   6
loop_
 _symmetry_equiv_pos_site_id
 _symmetry_equiv_pos_as_xyz
  1  'x, y, z'
loop_
 _atom_site_type_symbol
 _atom_site_label
 _atom_site_symmetry_multiplicity
 _atom_site_fract_x
 _atom_site_fract_y
 _atom_site_fract_z
 _atom_site_occupancy
  Ca  Ca0  1  0.52918590  0.75068446  0.50524472  1
  Ca  Ca1  1  0.47081410  0.24931554  0.49475528  1
  Ca  Ca2  1  0.76364872  0.92989891  0.20442793  1
  Ca  Ca3  1  0.23635128  0.07010109  0.79557207  1
  Ca  Ca4  1  0.76065113  0.42335871  0.20003600  1
  Ca  Ca5  1  0.23934887  0.57664129  0.79996400  1
  Si  Si0  1  0.05696622  0.72341271  0.39696491  1
  Si  Si1  1  0.94303378  0.27658729  0.60303509  1
  Si  Si2  1  0.26950533  0.95395497  0.18492554  1
  Si  Si3  1  0.73049467  0.04604503  0.81507446  1
  Si  Si4  1  0.26908285  0.38778266  0.18469877  1
  Si  Si5  1  0.73091715  0.61221734  0.81530123  1
  O  O0  1  0.09297010  0.51255413  0.27230772  1
  O  O1  1  0.90702990  0.48744587  0.72769228  1
  O  O2  1  0.09394758  0.87094549  0.27102482  1
  O  O3  1  0.90605242  0.12905451  0.72897518  1
  O  O4  1  0.22706610  0.17916455  0.21953336  1
  O  O5  1  0.77293390  0.82083545  0.78046664  1
  O  O6  1  0.83045361  0.72642752  0.40268110  1
  O  O7  1  0.16954639  0.27357248  0.59731890  1
  O  O8  1  0.26379068  0.86708374  0.98041180  1
  O  O9  1  0.73620932  0.13291626  0.01958820  1
  O  O10  1  0.26528931  0.37297299  0.98136777  1
  O  O11  1  0.73471069  0.62702701  0.01863223  1
  O  O12  1  0.53607222  0.53630885  0.69666629  1
  O  O13  1  0.46392778  0.46369115  0.30333371  1
  O  O14  1  0.53495123  0.06323748  0.69833771  1
  O  O15  1  0.46504877  0.93676252  0.30166229  1
  O  O16  1  0.79944559  0.23163364  0.42895211  1
  O  O17  1  0.20055441  0.76836636  0.57104789  1
loop_
_geom_bond_atom_site_label_1
_geom_bond_atom_site_label_2
_geom_bond_distance
_geom_bond_site_symmetry_2
Ca0 O13 2.345337 1_555
Ca0 O6 2.345661 1_555
Ca0 O15 2.357754 1_555
Ca0 O12 2.422008 1_555
Ca0 O17 2.429501 1_555
Ca0 O14 2.439910 1_565
Ca0 O5 2.607219 1_555
Ca1 O12 2.345337 1_555
Ca1 O7 2.345661 1_555
Ca1 O14 2.357754 1_555
Ca1 O13 2.422008 1_555
Ca1 O16 2.429501 1_555
Ca1 O15 2.439910 1_545
Ca1 O4 2.607219 1_555
Ca2 O15 2.314092 1_555
Ca2 O9 2.314795 1_565
Ca2 O11 2.359014 1_555
Ca2 O2 2.412667 1_655
Ca2 O6 2.422748 1_555
Ca2 O16 2.492734 1_565
Ca3 O14 2.314092 1_555
Ca3 O8 2.314795 1_545
Ca3 O10 2.359014 1_555
Ca3 O3 2.412667 1_455
Ca3 O7 2.422748 1_555
Ca3 O17 2.492734 1_545
Ca4 O9 2.268940 1_555
Ca4 O11 2.297264 1_555
Ca4 O13 2.320262 1_555
Ca4 O0 2.423537 1_655
Ca4 O6 2.440378 1_555
Ca4 O16 2.537066 1_555
Ca5 O8 2.268940 1_555
Ca5 O10 2.297264 1_555
Ca5 O12 2.320262 1_555
Ca5 O1 2.423537 1_455
Ca5 O7 2.440378 1_555
Ca5 O17 2.537066 1_555
O0 Si4 1.655970 1_555
O0 Si0 1.663741 1_555
O1 Si5 1.655970 1_555
O1 Si1 1.663741 1_555
O2 Si2 1.652474 1_555
O2 Si0 1.668195 1_555
O3 Si3 1.652474 1_555
O3 Si1 1.668195 1_555
O4 Si2 1.641188 1_545
O4 Si4 1.646326 1_555
O5 Si3 1.641188 1_565
O5 Si5 1.646326 1_555
O6 Si0 1.609536 1_655
O7 Si1 1.609536 1_455
O8 Si2 1.596340 1_556
O9 Si3 1.596340 1_554
O10 Si4 1.589140 1_556
O11 Si5 1.589140 1_554
O12 Si5 1.617828 1_555
O13 Si4 1.617828 1_555
O14 Si3 1.615790 1_555
O15 Si2 1.615790 1_555
O16 Si1 1.606401 1_555
O17 Si0 1.606401 1_555
