# generated using pymatgen
data_NaTaO3
_symmetry_space_group_name_H-M   'P 1'
_cell_length_a   5.49189032
_cell_length_b   5.49188983
_cell_length_c   7.82031063
_cell_angle_alpha   90.00000000
_cell_angle_beta   90.00000000
_cell_angle_gamma   90.60646770
_symmetry_Int_Tables_number   1
_chemical_formula_structural   NaTaO3
_chemical_formula_sum   'Na4 Ta4 O12'
_cell_volume   235.85405428
_cell_formula_units_Z   4
loop_
 _symmetry_equiv_pos_site_id
 _symmetry_equiv_pos_as_xyz
  1  'x, y, z'
loop_
 _atom_site_type_symbol
 _atom_site_label
 _atom_site_symmetry_multiplicity
 _atom_site_fract_x
 _atom_site_fract_y
 _atom_site_fract_z
 _atom_site_occupancy
  Na  Na0  1  0.98815264  0.01184736  0.75000000  1
  Na  Na1  1  0.01184736  0.98815264  0.25000000  1
  Na  Na2  1  0.49755946  0.50244054  0.75000000  1
  Na  Na3  1  0.50244054  0.49755946  0.25000000  1
  Ta  Ta0  1  0.50000000  0.00000000  0.00000000  1
  Ta  Ta1  1  0.50000000  0.00000000  0.50000000  1
  Ta  Ta2  1  0.00000000  0.50000000  0.00000000  1
  Ta  Ta3  1  0.00000000  0.50000000  0.50000000  1
  O  O0  1  0.96485753  0.45191542  0.75000000  1
  O  O1  1  0.03514247  0.54808458  0.25000000  1
  O  O2  1  0.45191542  0.96485753  0.25000000  1
  O  O3  1  0.54808458  0.03514247  0.75000000  1
  O  O4  1  0.20843685  0.79156315  0.54036991  1
  O  O5  1  0.79156315  0.20843685  0.04036991  1
  O  O6  1  0.79156315  0.20843685  0.45963009  1
  O  O7  1  0.20843685  0.79156315  0.95963009  1
  O  O8  1  0.29348096  0.29348096  0.00000000  1
  O  O9  1  0.70651904  0.70651904  0.50000000  1
  O  O10  1  0.70651904  0.70651904  0.00000000  1
  O  O11  1  0.29348096  0.29348096  0.50000000  1
loop_
_geom_bond_atom_site_label_1
_geom_bond_atom_site_label_2
_geom_bond_distance
_geom_bond_site_symmetry_2
Na0 O7 2.376056 1_645
Na0 O4 2.376056 1_645
Na0 O0 2.421541 1_555
Na0 O3 2.421541 1_555
Na0 O5 2.740878 1_556
Na0 O6 2.740878 1_555
Na1 O6 2.376056 1_465
Na1 O5 2.376056 1_465
Na1 O1 2.421541 1_555
Na1 O2 2.421541 1_555
Na1 O4 2.740878 1_555
Na1 O7 2.740878 1_554
Na2 O11 2.523527 1_555
Na2 O8 2.523527 1_556
Na2 O9 2.523527 1_555
Na2 O10 2.523527 1_556
Na2 O3 2.584225 1_555
Na2 O0 2.584225 1_555
Na2 O7 2.789860 1_555
Na2 O4 2.789860 1_555
Na2 O3 2.935744 1_565
Na2 O0 2.935745 1_455
Na3 O10 2.523527 1_555
Na3 O9 2.523527 1_555
Na3 O8 2.523527 1_555
Na3 O11 2.523527 1_555
Na3 O2 2.584225 1_555
Na3 O1 2.584225 1_555
Na3 O5 2.789860 1_555
Na3 O6 2.789860 1_555
Na3 O2 2.935744 1_545
Na3 O1 2.935745 1_655
O0 Ta2 1.981977 1_656
O0 Ta3 1.981977 1_655
O1 Ta2 1.981977 1_555
O1 Ta3 1.981977 1_555
O2 Ta1 1.981977 1_565
O2 Ta0 1.981977 1_565
O3 Ta0 1.981977 1_556
O3 Ta1 1.981977 1_555
O4 Ta3 1.983729 1_555
O4 Ta1 1.983729 1_565
O5 Ta2 1.983729 1_655
O5 Ta0 1.983729 1_555
O6 Ta3 1.983729 1_655
O6 Ta1 1.983729 1_555
O7 Ta2 1.983729 1_556
O7 Ta0 1.983729 1_566
O8 Ta0 1.980618 1_555
O8 Ta2 1.980618 1_555
O9 Ta1 1.980618 1_565
O9 Ta3 1.980618 1_655
O10 Ta0 1.980618 1_565
O10 Ta2 1.980618 1_655
O11 Ta1 1.980618 1_555
O11 Ta3 1.980618 1_555
