# generated using pymatgen
data_DyAl
_symmetry_space_group_name_H-M   'P 1'
_cell_length_a   5.59806028
_cell_length_b   5.81017973
_cell_length_c   11.38480219
_cell_angle_alpha   90.00076266
_cell_angle_beta   89.99999930
_cell_angle_gamma   89.99999970
_symmetry_Int_Tables_number   1
_chemical_formula_structural   DyAl
_chemical_formula_sum   'Dy8 Al8'
_cell_volume   370.29907460
_cell_formula_units_Z   8
loop_
 _symmetry_equiv_pos_site_id
 _symmetry_equiv_pos_as_xyz
  1  'x, y, z'
loop_
 _atom_site_type_symbol
 _atom_site_label
 _atom_site_symmetry_multiplicity
 _atom_site_fract_x
 _atom_site_fract_y
 _atom_site_fract_z
 _atom_site_occupancy
  Dy  Dy0  1  0.24999999  0.59771906  0.83272526  1
  Dy  Dy1  1  0.74999997  0.40227575  0.16728570  1
  Dy  Dy2  1  0.74999999  0.59771616  0.66727714  1
  Dy  Dy3  1  0.25000000  0.40227876  0.33270964  1
  Dy  Dy4  1  0.25000001  0.83739260  0.51479574  1
  Dy  Dy5  1  0.74999997  0.16261071  0.48517319  1
  Dy  Dy6  1  0.75000001  0.83738248  0.98520230  1
  Dy  Dy7  1  0.25000001  0.16262088  0.01482648  1
  Al  Al0  1  0.49999712  0.93177872  0.25001699  1
  Al  Al1  1  0.99999713  0.06822182  0.74998182  1
  Al  Al2  1  0.50000287  0.06822184  0.74998182  1
  Al  Al3  1  0.00000288  0.93177874  0.25001700  1
  Al  Al4  1  0.25000002  0.33718543  0.59866757  1
  Al  Al5  1  0.75000000  0.66281804  0.40133093  1
  Al  Al6  1  0.75000003  0.33716785  0.90132433  1
  Al  Al7  1  0.25000001  0.66283116  0.09868408  1
loop_
_geom_bond_atom_site_label_1
_geom_bond_atom_site_label_2
_geom_bond_distance
_geom_bond_site_symmetry_2
Dy0 Dy7 3.269406 1_556
Dy0 Dy2 3.373796 1_555
Dy0 Dy2 3.373796 1_455
Dy0 Dy6 3.575884 1_455
Dy0 Dy6 3.575884 1_555
Dy0 Dy4 3.878217 1_555
Dy0 Dy7 3.882091 1_566
Dy1 Dy6 3.269316 1_554
Dy1 Dy3 3.373642 1_555
Dy1 Dy3 3.373642 1_655
Dy1 Dy7 3.575766 1_555
Dy1 Dy7 3.575767 1_655
Dy1 Dy5 3.877753 1_555
Dy1 Dy6 3.881941 1_544
Dy2 Dy5 3.269416 1_555
Dy2 Dy4 3.575956 1_555
Dy2 Dy4 3.575956 1_655
Dy2 Dy6 3.878121 1_555
Dy2 Dy5 3.882119 1_565
Dy3 Dy4 3.269325 1_555
Dy3 Dy5 3.575838 1_555
Dy3 Dy5 3.575838 1_455
Dy3 Dy7 3.877657 1_555
Dy3 Dy4 3.881969 1_545
Dy4 Dy5 3.393938 1_565
Dy4 Dy5 3.393939 1_465
Dy6 Dy7 3.394001 1_566
Dy6 Dy7 3.394001 1_666
Al0 Al5 2.714488 1_555
Al0 Al7 2.714538 1_555
Al0 Al3 2.798998 1_555
Al0 Al3 2.799062 1_655
Al0 Dy3 3.212148 1_565
Al0 Dy1 3.212298 1_565
Al0 Dy5 3.305265 1_565
Al0 Dy7 3.305621 1_565
Al0 Dy4 3.368429 1_555
Al0 Dy6 3.368805 1_554
Al0 Dy3 3.508529 1_555
Al0 Dy1 3.508653 1_555
Al1 Al4 2.714500 1_655
Al1 Al6 2.714602 1_555
Al1 Al2 2.798998 1_555
Al1 Al2 2.799062 1_655
Al1 Dy2 3.212216 1_545
Al1 Dy0 3.212367 1_645
Al1 Dy4 3.305534 1_645
Al1 Dy6 3.305891 1_545
Al1 Dy5 3.368736 1_555
Al1 Dy7 3.369113 1_656
Al1 Dy2 3.508537 1_555
Al1 Dy0 3.508661 1_655
Al2 Al4 2.714500 1_555
Al2 Al6 2.714603 1_555
Al2 Dy2 3.212216 1_545
Al2 Dy0 3.212367 1_545
Al2 Dy4 3.305534 1_545
Al2 Dy6 3.305891 1_545
Al2 Dy5 3.368736 1_555
Al2 Dy7 3.369113 1_556
Al2 Dy2 3.508537 1_555
Al2 Dy0 3.508661 1_555
Al3 Al5 2.714488 1_455
Al3 Al7 2.714538 1_555
Al3 Dy3 3.212148 1_565
Al3 Dy1 3.212298 1_465
Al3 Dy5 3.305265 1_465
Al3 Dy7 3.305621 1_565
Al3 Dy4 3.368429 1_555
Al3 Dy6 3.368805 1_454
Al3 Dy3 3.508529 1_555
Al3 Dy1 3.508653 1_455
Al4 Dy3 3.051412 1_555
Al4 Dy4 3.056836 1_545
Al4 Dy4 3.059147 1_555
Al4 Dy0 3.064629 1_555
Al4 Dy5 3.245444 1_555
Al4 Dy5 3.245445 1_455
Al4 Dy2 3.276590 1_555
Al4 Dy2 3.276591 1_455
Al5 Dy2 3.051286 1_555
Al5 Dy5 3.056730 1_565
Al5 Dy5 3.059043 1_555
Al5 Dy1 3.064531 1_555
Al5 Dy4 3.245310 1_555
Al5 Dy4 3.245311 1_655
Al5 Dy3 3.276645 1_655
Al5 Dy3 3.276645 1_555
Al6 Dy1 3.051452 1_556
Al6 Dy6 3.056841 1_545
Al6 Dy6 3.059186 1_555
Al6 Dy2 3.064602 1_555
Al6 Dy7 3.245440 1_656
Al6 Dy7 3.245440 1_556
Al6 Dy0 3.276626 1_655
Al6 Dy0 3.276627 1_555
Al7 Dy0 3.051426 1_554
Al7 Dy7 3.056792 1_565
Al7 Dy7 3.059090 1_555
Al7 Dy3 3.064400 1_555
Al7 Dy6 3.245356 1_554
Al7 Dy6 3.245356 1_454
Al7 Dy1 3.276645 1_555
Al7 Dy1 3.276645 1_455
