# generated using pymatgen
data_CeCo3B2
_symmetry_space_group_name_H-M   'P 1'
_cell_length_a   10.23766734
_cell_length_b   10.23785975
_cell_length_c   5.78296886
_cell_angle_alpha   90.00000000
_cell_angle_beta   90.00000000
_cell_angle_gamma   120.00064321
_symmetry_Int_Tables_number   1
_chemical_formula_structural   CeCo3B2
_chemical_formula_sum   'Ce8 Co24 B16'
_cell_volume   524.91485089
_cell_formula_units_Z   8
loop_
 _symmetry_equiv_pos_site_id
 _symmetry_equiv_pos_as_xyz
  1  'x, y, z'
loop_
 _atom_site_type_symbol
 _atom_site_label
 _atom_site_symmetry_multiplicity
 _atom_site_fract_x
 _atom_site_fract_y
 _atom_site_fract_z
 _atom_site_occupancy
  Ce  Ce0_0  1  0.00000000  0.00000000  0.00000000  1
  Ce  Ce0_1  1  0.00000000  0.00000000  0.50000000  1
  Ce  Ce0_2  1  1.00000000  0.50000000  0.00000000  1
  Ce  Ce0_3  1  1.00000000  0.50000000  0.50000000  1
  Ce  Ce0_4  1  0.50000000  0.00000000  0.00000000  1
  Ce  Ce0_5  1  0.50000000  0.00000000  0.50000000  1
  Ce  Ce0_6  1  0.50000000  0.50000000  0.00000000  1
  Ce  Ce0_7  1  0.50000000  0.50000000  0.50000000  1
  Co  Co0_0  1  0.25000000  0.00000000  0.25000000  1
  Co  Co0_1  1  0.25000000  0.00000000  0.75000000  1
  Co  Co0_2  1  0.25000000  0.50000000  0.25000000  1
  Co  Co0_3  1  0.25000000  0.50000000  0.75000000  1
  Co  Co0_4  1  0.75000000  0.00000000  0.25000000  1
  Co  Co0_5  1  0.75000000  0.00000000  0.75000000  1
  Co  Co0_6  1  0.75000000  0.50000000  0.25000000  1
  Co  Co0_7  1  0.75000000  0.50000000  0.75000000  1
  Co  Co1_0  1  0.25000000  0.25000000  0.25000000  1
  Co  Co1_1  1  0.25000000  0.25000000  0.75000000  1
  Co  Co1_2  1  0.25000000  0.75000000  0.25000000  1
  Co  Co1_3  1  0.25000000  0.75000000  0.75000000  1
  Co  Co1_4  1  0.75000000  0.25000000  0.25000000  1
  Co  Co1_5  1  0.75000000  0.25000000  0.75000000  1
  Co  Co1_6  1  0.75000000  0.75000000  0.25000000  1
  Co  Co1_7  1  0.75000000  0.75000000  0.75000000  1
  Co  Co2_0  1  0.00000000  0.25000000  0.25000000  1
  Co  Co2_1  1  0.00000000  0.25000000  0.75000000  1
  Co  Co2_2  1  1.00000000  0.75000000  0.25000000  1
  Co  Co2_3  1  1.00000000  0.75000000  0.75000000  1
  Co  Co2_4  1  0.50000000  0.25000000  0.25000000  1
  Co  Co2_5  1  0.50000000  0.25000000  0.75000000  1
  Co  Co2_6  1  0.50000000  0.75000000  0.25000000  1
  Co  Co2_7  1  0.50000000  0.75000000  0.75000000  1
  B  B0_0  1  0.16666721  0.33333436  0.00000000  1
  B  B0_1  1  0.16666721  0.33333436  0.50000000  1
  B  B0_2  1  0.16666721  0.83333435  0.00000000  1
  B  B0_3  1  0.16666721  0.83333435  0.50000000  1
  B  B0_4  1  0.66666721  0.33333436  0.00000000  1
  B  B0_5  1  0.66666721  0.33333436  0.50000000  1
  B  B0_6  1  0.66666721  0.83333435  0.00000000  1
  B  B0_7  1  0.66666721  0.83333435  0.50000000  1
  B  B1_0  1  0.33333279  0.16666564  0.00000000  1
  B  B1_1  1  0.33333279  0.16666564  0.50000000  1
  B  B1_2  1  0.33333279  0.66666564  0.00000000  1
  B  B1_3  1  0.33333279  0.66666564  0.50000000  1
  B  B1_4  1  0.83333279  0.16666564  0.00000000  1
  B  B1_5  1  0.83333279  0.16666564  0.50000000  1
  B  B1_6  1  0.83333279  0.66666564  0.00000000  1
  B  B1_7  1  0.83333279  0.66666564  0.50000000  1
loop_
_geom_bond_atom_site_label_1
_geom_bond_atom_site_label_2
_geom_bond_distance
_geom_bond_site_symmetry_2
Ce0_0 Ce0_1 2.891484 1_554
Ce0_0 Ce0_1 2.891484 1_555
Ce0_0 Co1_0 2.939521 1_555
Ce0_0 Co1_1 2.939521 1_554
Ce0_0 Co1_6 2.939521 1_445
Ce0_0 Co1_7 2.939521 1_444
Ce0_0 Co0_5 2.939521 1_454
Ce0_0 Co0_4 2.939521 1_455
Ce0_0 Co0_0 2.939521 1_555
Ce0_0 Co0_1 2.939521 1_554
Ce0_0 Co2_3 2.939563 1_444
Ce0_0 Co2_2 2.939563 1_445
Ce0_0 Co2_0 2.939563 1_555
Ce0_0 Co2_1 2.939563 1_554
Ce0_1 Co1_1 2.939521 1_555
Ce0_1 Co1_0 2.939521 1_555
Ce0_1 Co1_6 2.939521 1_445
Ce0_1 Co1_7 2.939521 1_445
Ce0_1 Co0_4 2.939521 1_455
Ce0_1 Co0_5 2.939521 1_455
Ce0_1 Co0_0 2.939521 1_555
Ce0_1 Co0_1 2.939521 1_555
Ce0_1 Co2_2 2.939563 1_445
Ce0_1 Co2_3 2.939563 1_445
Ce0_1 Co2_0 2.939563 1_555
Ce0_1 Co2_1 2.939563 1_555
Ce0_2 Ce0_3 2.891484 1_554
Ce0_2 Ce0_3 2.891484 1_555
Ce0_2 Co1_4 2.939521 1_555
Ce0_2 Co1_5 2.939521 1_554
Ce0_2 Co1_2 2.939521 1_655
Ce0_2 Co1_3 2.939521 1_654
Ce0_2 Co0_6 2.939521 1_555
Ce0_2 Co0_7 2.939521 1_554
Ce0_2 Co0_2 2.939521 1_655
Ce0_2 Co0_3 2.939521 1_654
Ce0_2 Co2_2 2.939563 1_555
Ce0_2 Co2_3 2.939563 1_554
Ce0_2 Co2_0 2.939563 1_655
Ce0_2 Co2_1 2.939563 1_654
Ce0_3 Co1_4 2.939521 1_555
Ce0_3 Co1_5 2.939521 1_555
Ce0_3 Co1_2 2.939521 1_655
Ce0_3 Co1_3 2.939521 1_655
Ce0_3 Co0_6 2.939521 1_555
Ce0_3 Co0_7 2.939521 1_555
Ce0_3 Co0_3 2.939521 1_655
Ce0_3 Co0_2 2.939521 1_655
Ce0_3 Co2_2 2.939563 1_555
Ce0_3 Co2_3 2.939563 1_555
Ce0_3 Co2_0 2.939563 1_655
Ce0_3 Co2_1 2.939563 1_655
Ce0_4 Ce0_5 2.891484 1_554
Ce0_4 Ce0_5 2.891484 1_555
Ce0_4 Co1_4 2.939521 1_555
Ce0_4 Co1_5 2.939521 1_554
Ce0_4 Co1_3 2.939521 1_544
Ce0_4 Co1_2 2.939521 1_545
Ce0_4 Co0_0 2.939521 1_555
Ce0_4 Co0_1 2.939521 1_554
Ce0_4 Co0_5 2.939521 1_554
Ce0_4 Co0_4 2.939521 1_555
Ce0_4 Co2_4 2.939563 1_555
Ce0_4 Co2_5 2.939563 1_554
Ce0_4 Co2_7 2.939563 1_544
Ce0_4 Co2_6 2.939563 1_545
Ce0_5 Co1_4 2.939521 1_555
Ce0_5 Co1_5 2.939521 1_555
Ce0_5 Co1_3 2.939521 1_545
Ce0_5 Co1_2 2.939521 1_545
Ce0_5 Co0_0 2.939521 1_555
Ce0_5 Co0_1 2.939521 1_555
Ce0_5 Co0_4 2.939521 1_555
Ce0_5 Co0_5 2.939521 1_555
Ce0_5 Co2_5 2.939563 1_555
Ce0_5 Co2_4 2.939563 1_555
Ce0_5 Co2_7 2.939563 1_545
Ce0_5 Co2_6 2.939563 1_545
Ce0_6 Ce0_7 2.891484 1_555
Ce0_6 Ce0_7 2.891484 1_554
Ce0_6 Co1_0 2.939521 1_555
Ce0_6 Co1_1 2.939521 1_554
Ce0_6 Co1_6 2.939521 1_555
Ce0_6 Co1_7 2.939521 1_554
Ce0_6 Co0_3 2.939521 1_554
Ce0_6 Co0_6 2.939521 1_555
Ce0_6 Co0_7 2.939521 1_554
Ce0_6 Co0_2 2.939521 1_555
Ce0_6 Co2_4 2.939563 1_555
Ce0_6 Co2_5 2.939563 1_554
Ce0_6 Co2_6 2.939563 1_555
Ce0_6 Co2_7 2.939563 1_554
Ce0_7 Co1_1 2.939521 1_555
Ce0_7 Co1_0 2.939521 1_555
Ce0_7 Co1_6 2.939521 1_555
Ce0_7 Co1_7 2.939521 1_555
Ce0_7 Co0_3 2.939521 1_555
Ce0_7 Co0_6 2.939521 1_555
Ce0_7 Co0_7 2.939521 1_555
Ce0_7 Co0_2 2.939521 1_555
Ce0_7 Co2_4 2.939563 1_555
Ce0_7 Co2_5 2.939563 1_555
Ce0_7 Co2_6 2.939563 1_555
Ce0_7 Co2_7 2.939563 1_555
B0_0 Co2_1 2.067292 1_554
B0_0 Co2_0 2.067292 1_555
B0_0 Co0_2 2.067302 1_555
B0_0 Co0_3 2.067302 1_554
B0_0 Co1_0 2.067311 1_555
B0_0 Co1_1 2.067311 1_554
B0_0 Ce0_6 2.955336 1_555
B0_0 Ce0_2 2.955393 1_455
B0_0 Ce0_0 2.955405 1_555
B0_1 Co2_1 2.067292 1_555
B0_1 Co2_0 2.067292 1_555
B0_1 Co0_2 2.067302 1_555
B0_1 Co0_3 2.067302 1_555
B0_1 Co1_0 2.067311 1_555
B0_1 Co1_1 2.067311 1_555
B0_1 Ce0_7 2.955336 1_555
B0_1 Ce0_3 2.955393 1_455
B0_1 Ce0_1 2.955405 1_555
B0_2 Co2_2 2.067292 1_455
B0_2 Co2_3 2.067292 1_454
B0_2 Co0_0 2.067302 1_565
B0_2 Co0_1 2.067302 1_564
B0_2 Co1_2 2.067311 1_555
B0_2 Co1_3 2.067311 1_554
B0_2 Ce0_4 2.955336 1_565
B0_2 Ce0_0 2.955393 1_565
B0_2 Ce0_2 2.955405 1_455
B0_3 Co2_2 2.067292 1_455
B0_3 Co2_3 2.067292 1_455
B0_3 Co0_0 2.067302 1_565
B0_3 Co0_1 2.067302 1_565
B0_3 Co1_2 2.067311 1_555
B0_3 Co1_3 2.067311 1_555
B0_3 Ce0_5 2.955336 1_565
B0_3 Ce0_1 2.955393 1_565
B0_3 Ce0_3 2.955405 1_455
B0_4 Co2_4 2.067292 1_555
B0_4 Co2_5 2.067292 1_554
B0_4 Co0_6 2.067302 1_555
B0_4 Co0_7 2.067302 1_554
B0_4 Co1_4 2.067311 1_555
B0_4 Co1_5 2.067311 1_554
B0_4 Ce0_2 2.955336 1_555
B0_4 Ce0_6 2.955393 1_555
B0_4 Ce0_4 2.955405 1_555
B0_5 Co2_4 2.067292 1_555
B0_5 Co2_5 2.067292 1_555
B0_5 Co0_6 2.067302 1_555
B0_5 Co0_7 2.067302 1_555
B0_5 Co1_5 2.067311 1_555
B0_5 Co1_4 2.067311 1_555
B0_5 Ce0_3 2.955336 1_555
B0_5 Ce0_7 2.955393 1_555
B0_5 Ce0_5 2.955405 1_555
B0_6 Co2_7 2.067292 1_554
B0_6 Co2_6 2.067292 1_555
B0_6 Co0_4 2.067302 1_565
B0_6 Co0_5 2.067302 1_564
B0_6 Co1_7 2.067311 1_554
B0_6 Co1_6 2.067311 1_555
B0_6 Ce0_0 2.955336 1_665
B0_6 Ce0_4 2.955393 1_565
B0_6 Ce0_6 2.955405 1_555
B0_7 Co2_6 2.067292 1_555
B0_7 Co2_7 2.067292 1_555
B0_7 Co0_5 2.067302 1_565
B0_7 Co0_4 2.067302 1_565
B0_7 Co1_7 2.067311 1_555
B0_7 Co1_6 2.067311 1_555
B0_7 Ce0_1 2.955336 1_665
B0_7 Ce0_5 2.955393 1_565
B0_7 Ce0_7 2.955405 1_555
B1_0 Co2_4 2.067292 1_555
B1_0 Co2_5 2.067292 1_554
B1_0 Co0_1 2.067302 1_554
B1_0 Co0_0 2.067302 1_555
B1_0 Co1_1 2.067311 1_554
B1_0 Co1_0 2.067311 1_555
B1_0 Ce0_0 2.955336 1_555
B1_0 Ce0_4 2.955393 1_555
B1_0 Ce0_6 2.955405 1_555
B1_1 Co2_4 2.067292 1_555
B1_1 Co2_5 2.067292 1_555
B1_1 Co0_1 2.067302 1_555
B1_1 Co0_0 2.067302 1_555
B1_1 Co1_1 2.067311 1_555
B1_1 Co1_0 2.067311 1_555
B1_1 Ce0_1 2.955336 1_555
B1_1 Ce0_5 2.955393 1_555
B1_1 Ce0_7 2.955405 1_555
B1_2 Co2_6 2.067292 1_555
B1_2 Co2_7 2.067292 1_554
B1_2 Co0_2 2.067302 1_555
B1_2 Co0_3 2.067302 1_554
B1_2 Co1_3 2.067311 1_554
B1_2 Co1_2 2.067311 1_555
B1_2 Ce0_2 2.955336 1_455
B1_2 Ce0_6 2.955393 1_555
B1_2 Ce0_4 2.955405 1_565
B1_3 Co2_6 2.067292 1_555
B1_3 Co2_7 2.067292 1_555
B1_3 Co0_2 2.067302 1_555
B1_3 Co0_3 2.067302 1_555
B1_3 Co1_3 2.067311 1_555
B1_3 Co1_2 2.067311 1_555
B1_3 Ce0_3 2.955336 1_455
B1_3 Ce0_7 2.955393 1_555
B1_3 Ce0_5 2.955405 1_565
B1_4 Co2_0 2.067292 1_655
B1_4 Co2_1 2.067292 1_654
B1_4 Co0_4 2.067302 1_555
B1_4 Co0_5 2.067302 1_554
B1_4 Co1_4 2.067311 1_555
B1_4 Co1_5 2.067311 1_554
B1_4 Ce0_4 2.955336 1_555
B1_4 Ce0_0 2.955393 1_655
B1_4 Ce0_2 2.955405 1_555
B1_5 Co2_0 2.067292 1_655
B1_5 Co2_1 2.067292 1_655
B1_5 Co0_4 2.067302 1_555
B1_5 Co0_5 2.067302 1_555
B1_5 Co1_4 2.067311 1_555
B1_5 Co1_5 2.067311 1_555
B1_5 Ce0_5 2.955336 1_555
B1_5 Ce0_1 2.955393 1_655
B1_5 Ce0_3 2.955405 1_555
B1_6 Co2_3 2.067292 1_554
B1_6 Co2_2 2.067292 1_555
B1_6 Co0_7 2.067302 1_554
B1_6 Co0_6 2.067302 1_555
B1_6 Co1_7 2.067311 1_554
B1_6 Co1_6 2.067311 1_555
B1_6 Ce0_6 2.955336 1_555
B1_6 Ce0_2 2.955393 1_555
B1_6 Ce0_0 2.955405 1_665
B1_7 Co2_2 2.067292 1_555
B1_7 Co2_3 2.067292 1_555
B1_7 Co0_7 2.067302 1_555
B1_7 Co0_6 2.067302 1_555
B1_7 Co1_6 2.067311 1_555
B1_7 Co1_7 2.067311 1_555
B1_7 Ce0_7 2.955336 1_555
B1_7 Ce0_3 2.955393 1_555
B1_7 Ce0_1 2.955405 1_665
