# generated using pymatgen
data_NaNd3Ti2(SbO7)2
_symmetry_space_group_name_H-M   'P 1'
_cell_length_a   7.38223500
_cell_length_b   7.43327700
_cell_length_c   12.80480594
_cell_angle_alpha   54.87344679
_cell_angle_beta   90.00000000
_cell_angle_gamma   90.00000000
_symmetry_Int_Tables_number   1
_chemical_formula_structural   NaNd3Ti2(SbO7)2
_chemical_formula_sum   'Na2 Nd6 Ti4 Sb4 O28'
_cell_volume   574.68841758
_cell_formula_units_Z   2
loop_
 _symmetry_equiv_pos_site_id
 _symmetry_equiv_pos_as_xyz
  1  'x, y, z'
loop_
 _atom_site_type_symbol
 _atom_site_label
 _atom_site_symmetry_multiplicity
 _atom_site_fract_x
 _atom_site_fract_y
 _atom_site_fract_z
 _atom_site_occupancy
  Na  Na0  1  0.50000000  0.50000000  0.00000000  1
  Na  Na1  1  0.50000000  0.50000000  0.50000000  1
  Nd  Nd0  1  0.27055300  0.00000000  0.75000000  1
  Nd  Nd1  1  0.25797500  0.50000000  0.75000000  1
  Nd  Nd2  1  0.74202500  0.50000000  0.25000000  1
  Nd  Nd3  1  0.00000000  0.50000000  0.00000000  1
  Nd  Nd4  1  0.72944700  0.00000000  0.25000000  1
  Nd  Nd5  1  0.00000000  0.50000000  0.50000000  1
  Ti  Ti0  1  0.00000000  0.00000000  0.50000000  1
  Ti  Ti1  1  0.00000000  0.00000000  0.00000000  1
  Ti  Ti2  1  0.76213200  0.00000000  0.75000000  1
  Ti  Ti3  1  0.23786800  0.00000000  0.25000000  1
  Sb  Sb0  1  0.24493700  0.50000000  0.25000000  1
  Sb  Sb1  1  0.75506300  0.50000000  0.75000000  1
  Sb  Sb2  1  0.50000000  0.00000000  0.00000000  1
  Sb  Sb3  1  0.50000000  0.00000000  0.50000000  1
  O  O0  1  0.24861900  0.62856300  0.87289500  1
  O  O1  1  0.05330800  0.07159600  0.12240900  1
  O  O2  1  0.24989900  0.07559800  0.92444100  1
  O  O3  1  0.75138100  0.62856300  0.37289500  1
  O  O4  1  0.04626600  0.67815300  0.12282100  1
  O  O5  1  0.55486500  0.05646300  0.63092400  1
  O  O6  1  0.94669200  0.07159600  0.62240900  1
  O  O7  1  0.04626600  0.32184700  0.37717900  1
  O  O8  1  0.76819900  0.68105400  0.81924900  1
  O  O9  1  0.75010100  0.07559800  0.42444100  1
  O  O10  1  0.23180100  0.31894600  0.18075100  1
  O  O11  1  0.24989900  0.92440200  0.57555900  1
  O  O12  1  0.54899700  0.67288500  0.62771500  1
  O  O13  1  0.05330800  0.92840400  0.37759100  1
  O  O14  1  0.95373400  0.67815300  0.62282100  1
  O  O15  1  0.54899700  0.32711500  0.87228500  1
  O  O16  1  0.44513500  0.05646300  0.13092400  1
  O  O17  1  0.95373400  0.32184700  0.87717900  1
  O  O18  1  0.76819900  0.31894600  0.68075100  1
  O  O19  1  0.23180100  0.68105400  0.31924900  1
  O  O20  1  0.24861900  0.37143700  0.62710500  1
  O  O21  1  0.75010100  0.92440200  0.07555900  1
  O  O22  1  0.55486500  0.94353700  0.86907600  1
  O  O23  1  0.45100300  0.67288500  0.12771500  1
  O  O24  1  0.94669200  0.92840400  0.87759100  1
  O  O25  1  0.45100300  0.32711500  0.37228500  1
  O  O26  1  0.75138100  0.37143700  0.12710500  1
  O  O27  1  0.44513500  0.94353700  0.36907600  1
loop_
_geom_bond_atom_site_label_1
_geom_bond_atom_site_label_2
_geom_bond_distance
_geom_bond_site_symmetry_2
Na0 O0 2.283889 1_554
Na0 O26 2.283889 1_555
Na0 O23 2.622062 1_555
Na0 O15 2.622062 1_554
Na0 O22 2.735660 1_554
Na0 O16 2.735660 1_555
Na0 O10 2.739268 1_555
Na0 O8 2.739268 1_554
Na1 O3 2.283889 1_555
Na1 O20 2.283889 1_555
Na1 O12 2.622062 1_555
Na1 O25 2.622062 1_555
Na1 O27 2.735660 1_555
Na1 O5 2.735660 1_555
Na1 O19 2.739268 1_555
Na1 O18 2.739268 1_555
Nd0 O0 2.264018 1_545
Nd0 O20 2.264018 1_555
Nd0 O5 2.483904 1_555
Nd0 O22 2.483904 1_545
Nd0 O2 2.602462 1_555
Nd0 O11 2.602462 1_545
Nd0 O6 2.769096 1_455
Nd0 O24 2.769096 1_445
Nd1 O0 2.263840 1_555
Nd1 O20 2.263840 1_555
Nd1 O15 2.530470 1_555
Nd1 O12 2.530470 1_555
Nd1 O2 2.614577 1_555
Nd1 O11 2.614577 1_555
Nd1 O17 2.639773 1_455
Nd1 O14 2.639773 1_455
Nd2 O3 2.263840 1_555
Nd2 O26 2.263840 1_555
Nd2 O23 2.530470 1_555
Nd2 O25 2.530470 1_555
Nd2 O21 2.614577 1_555
Nd2 O9 2.614577 1_555
Nd2 O7 2.639773 1_655
Nd2 O4 2.639773 1_655
Nd3 O0 2.267353 1_554
Nd3 O26 2.267353 1_455
Nd3 O10 2.551821 1_555
Nd3 O8 2.551821 1_454
Nd3 O17 2.596222 1_454
Nd3 O4 2.596222 1_555
Nd3 O1 2.647350 1_555
Nd3 O24 2.647350 1_454
Nd4 O26 2.264018 1_555
Nd4 O3 2.264018 1_545
Nd4 O16 2.483904 1_555
Nd4 O27 2.483904 1_545
Nd4 O9 2.602462 1_555
Nd4 O21 2.602462 1_545
Nd4 O13 2.769096 1_645
Nd4 O1 2.769096 1_655
Nd5 O20 2.267353 1_555
Nd5 O3 2.267353 1_455
Nd5 O19 2.551821 1_555
Nd5 O18 2.551821 1_455
Nd5 O14 2.596222 1_455
Nd5 O7 2.596222 1_555
Nd5 O13 2.647350 1_555
Nd5 O6 2.647350 1_455
O1 Ti3 1.951460 1_555
O1 Ti1 1.963378 1_555
O2 Ti1 2.007373 1_556
O2 Sb2 2.008743 1_556
O4 Ti1 1.995934 1_565
O4 Sb0 2.018664 1_555
O5 Sb3 1.990077 1_555
O5 Ti2 2.026267 1_555
O6 Ti2 1.951460 1_555
O6 Ti0 1.963378 1_655
O7 Ti0 1.995934 1_555
O7 Sb0 2.018664 1_555
O8 Sb1 1.995047 1_555
O8 Ti2 1.997457 1_565
O9 Ti0 2.007373 1_655
O9 Sb3 2.008743 1_555
O10 Sb0 1.995047 1_555
O10 Ti3 1.997457 1_555
O11 Ti0 2.007373 1_565
O11 Sb3 2.008743 1_565
O12 Sb1 2.025295 1_555
O12 Sb3 2.035104 1_565
O13 Ti3 1.951460 1_565
O13 Ti0 1.963378 1_565
O14 Ti0 1.995934 1_665
O14 Sb1 2.018664 1_555
O15 Sb1 2.025295 1_555
O15 Sb2 2.035104 1_556
O16 Sb2 1.990077 1_555
O16 Ti3 2.026267 1_555
O17 Ti1 1.995934 1_656
O17 Sb1 2.018664 1_555
O18 Sb1 1.995047 1_555
O18 Ti2 1.997457 1_555
O19 Sb0 1.995047 1_555
O19 Ti3 1.997457 1_565
O21 Ti1 2.007373 1_665
O21 Sb2 2.008743 1_565
O22 Sb2 1.990077 1_566
O22 Ti2 2.026267 1_565
O23 Sb0 2.025295 1_555
O23 Sb2 2.035104 1_565
O24 Ti2 1.951460 1_565
O24 Ti1 1.963378 1_666
O25 Sb0 2.025295 1_555
O25 Sb3 2.035104 1_555
O27 Sb3 1.990077 1_565
O27 Ti3 2.026267 1_565
