# generated using pymatgen
data_Na2SO4
_symmetry_space_group_name_H-M   'P 1'
_cell_length_a   5.65505031
_cell_length_b   5.65504963
_cell_length_c   6.76083777
_cell_angle_alpha   102.80605339
_cell_angle_beta   102.80604188
_cell_angle_gamma   118.03516548
_symmetry_Int_Tables_number   1
_chemical_formula_structural   Na2SO4
_chemical_formula_sum   'Na4 S2 O8'
_cell_volume   172.24202152
_cell_formula_units_Z   2
loop_
 _symmetry_equiv_pos_site_id
 _symmetry_equiv_pos_as_xyz
  1  'x, y, z'
loop_
 _atom_site_type_symbol
 _atom_site_label
 _atom_site_symmetry_multiplicity
 _atom_site_fract_x
 _atom_site_fract_y
 _atom_site_fract_z
 _atom_site_occupancy
  Na  Na0  1  0.55975852  0.44024148  0.25000000  1
  Na  Na1  1  0.19024148  0.80975852  0.25000000  1
  Na  Na2  1  0.80975852  0.19024148  0.75000000  1
  Na  Na3  1  0.44024148  0.55975852  0.75000000  1
  S  S0  1  0.87500000  0.12500000  0.25000000  1
  S  S1  1  0.12500000  0.87500000  0.75000000  1
  O  O0  1  0.24987275  0.18002374  0.88681412  1
  O  O1  1  0.29321063  0.86305963  0.61318588  1
  O  O2  1  0.81997626  0.75012725  0.61318588  1
  O  O3  1  0.13694037  0.70678937  0.88681412  1
  O  O4  1  0.75012725  0.81997626  0.11318588  1
  O  O5  1  0.70678937  0.13694037  0.38681412  1
  O  O6  1  0.86305963  0.29321063  0.11318588  1
  O  O7  1  0.18002374  0.24987275  0.38681412  1
loop_
_geom_bond_atom_site_label_1
_geom_bond_atom_site_label_2
_geom_bond_distance
_geom_bond_site_symmetry_2
Na0 O2 2.309156 1_555
Na0 O0 2.309156 1_554
Na0 O4 2.403074 1_555
Na0 O7 2.403074 1_555
Na0 O6 2.488318 1_555
Na0 O5 2.488318 1_555
Na1 O3 2.309154 1_554
Na1 O1 2.309154 1_555
Na1 O6 2.403070 1_455
Na1 O5 2.403070 1_565
Na1 O7 2.488316 1_565
Na1 O4 2.488316 1_455
Na2 O6 2.309154 1_556
Na2 O5 2.309154 1_555
Na2 O3 2.403070 1_655
Na2 O1 2.403070 1_545
Na2 O2 2.488316 1_545
Na2 O0 2.488316 1_655
Na3 O7 2.309156 1_555
Na3 O4 2.309156 1_556
Na3 O0 2.403074 1_555
Na3 O2 2.403074 1_555
Na3 O3 2.488318 1_555
Na3 O1 2.488318 1_555
O0 S1 1.479099 1_545
O1 S1 1.479102 1_555
O2 S1 1.479099 1_655
O3 S1 1.479102 1_555
O4 S0 1.479099 1_565
O5 S0 1.479102 1_555
O6 S0 1.479102 1_555
O7 S0 1.479099 1_455
