# generated using pymatgen
data_Li2ZrO3
_symmetry_space_group_name_H-M   'P 1'
_cell_length_a   5.24719916
_cell_length_b   5.24719971
_cell_length_c   5.38495908
_cell_angle_alpha   100.90240721
_cell_angle_beta   100.90240758
_cell_angle_gamma   118.70868150
_symmetry_Int_Tables_number   1
_chemical_formula_structural   Li2ZrO3
_chemical_formula_sum   'Li4 Zr2 O6'
_cell_volume   120.75560586
_cell_formula_units_Z   2
loop_
 _symmetry_equiv_pos_site_id
 _symmetry_equiv_pos_as_xyz
  1  'x, y, z'
loop_
 _atom_site_type_symbol
 _atom_site_label
 _atom_site_symmetry_multiplicity
 _atom_site_fract_x
 _atom_site_fract_y
 _atom_site_fract_z
 _atom_site_occupancy
  Li  Li0  1  0.74026147  0.25973853  0.25000000  1
  Li  Li1  1  0.25973853  0.74026147  0.75000000  1
  Li  Li2  1  0.42416294  0.57583706  0.25000000  1
  Li  Li3  1  0.57583706  0.42416294  0.75000000  1
  Zr  Zr0  1  0.09130171  0.90869829  0.25000000  1
  Zr  Zr1  1  0.90869829  0.09130171  0.75000000  1
  O  O0  1  0.00000000  0.50000000  -0.00000000  1
  O  O1  1  0.69200019  0.84375491  0.98826426  1
  O  O2  1  0.84375491  0.69200019  0.48826426  1
  O  O3  1  0.30799981  0.15624509  0.01173574  1
  O  O4  1  0.15624509  0.30799981  0.51173574  1
  O  O5  1  0.50000000  0.00000000  0.50000000  1
loop_
_geom_bond_atom_site_label_1
_geom_bond_atom_site_label_2
_geom_bond_distance
_geom_bond_site_symmetry_2
Li0 O3 2.130243 1_555
Li0 O2 2.130243 1_555
Li0 O0 2.223640 1_655
Li0 O5 2.223641 1_555
Li0 O4 2.232766 1_655
Li0 O1 2.232766 1_544
Li1 O1 2.130243 1_555
Li1 O4 2.130243 1_555
Li1 O0 2.223640 1_556
Li1 O5 2.223641 1_565
Li1 O2 2.232766 1_455
Li1 O3 2.232766 1_566
Li2 O2 2.052186 1_555
Li2 O3 2.052186 1_555
Li2 O0 2.176552 1_555
Li2 O5 2.176552 1_565
Li2 O4 2.353437 1_555
Li2 O1 2.353437 1_554
Li3 O4 2.052186 1_555
Li3 O1 2.052186 1_555
Li3 O0 2.176552 1_656
Li3 O5 2.176552 1_555
Li3 O2 2.353437 1_555
Li3 O3 2.353437 1_556
O0 Zr0 2.077922 1_555
O0 Zr1 2.077922 1_454
O1 Zr1 2.095153 1_565
O1 Zr0 2.123175 1_656
O2 Zr0 2.095153 1_655
O2 Zr1 2.123175 1_565
O3 Zr0 2.095153 1_545
O3 Zr1 2.123175 1_454
O4 Zr1 2.095153 1_455
O4 Zr0 2.123175 1_545
O5 Zr1 2.077922 1_555
O5 Zr0 2.077922 1_545
