# generated using pymatgen
data_ZnSnP2
_symmetry_space_group_name_H-M   'P 1'
_cell_length_a   5.64750184
_cell_length_b   5.64750098
_cell_length_c   6.92873023
_cell_angle_alpha   114.05054058
_cell_angle_beta   114.05053594
_cell_angle_gamma   90.00000052
_symmetry_Int_Tables_number   1
_chemical_formula_structural   ZnSnP2
_chemical_formula_sum   'Zn2 Sn2 P4'
_cell_volume   180.59078792
_cell_formula_units_Z   2
loop_
 _symmetry_equiv_pos_site_id
 _symmetry_equiv_pos_as_xyz
  1  'x, y, z'
loop_
 _atom_site_type_symbol
 _atom_site_label
 _atom_site_symmetry_multiplicity
 _atom_site_fract_x
 _atom_site_fract_y
 _atom_site_fract_z
 _atom_site_occupancy
  Zn  Zn0  1  0.25000000  0.75000000  0.50000000  1
  Zn  Zn1  1  0.00000000  0.00000000  0.00000000  1
  Sn  Sn0  1  0.75000000  0.25000000  0.50000000  1
  Sn  Sn1  1  0.50000000  0.50000000  0.00000000  1
  P  P0  1  0.35362308  0.37500000  0.25000000  1
  P  P1  1  0.12500000  0.64637692  0.75000000  1
  P  P2  1  0.62500000  0.10362308  0.75000000  1
  P  P3  1  0.89637692  0.87500000  0.25000000  1
loop_
_geom_bond_atom_site_label_1
_geom_bond_atom_site_label_2
_geom_bond_distance
_geom_bond_site_symmetry_2
P0 Zn0 2.379962 1_555
P0 Zn1 2.379962 1_555
P0 Sn1 2.519131 1_555
P0 Sn0 2.519131 1_555
P1 Zn1 2.379962 1_566
P1 Zn0 2.379962 1_555
P1 Sn0 2.519131 1_455
P1 Sn1 2.519131 1_556
P2 Zn0 2.379962 1_545
P2 Zn1 2.379962 1_656
P2 Sn1 2.519131 1_556
P2 Sn0 2.519131 1_555
P3 Zn1 2.379962 1_665
P3 Zn0 2.379962 1_655
P3 Sn0 2.519131 1_565
P3 Sn1 2.519131 1_555
