# generated using pymatgen
data_Yb(SiPt)2
_symmetry_space_group_name_H-M   'P 1'
_cell_length_a   4.23130800
_cell_length_b   4.23130800
_cell_length_c   5.74477890
_cell_angle_alpha   111.60922362
_cell_angle_beta   111.60922362
_cell_angle_gamma   90.00000000
_symmetry_Int_Tables_number   1
_chemical_formula_structural   Yb(SiPt)2
_chemical_formula_sum   'Yb1 Si2 Pt2'
_cell_volume   87.80340150
_cell_formula_units_Z   1
loop_
 _symmetry_equiv_pos_site_id
 _symmetry_equiv_pos_as_xyz
  1  'x, y, z'
loop_
 _atom_site_type_symbol
 _atom_site_label
 _atom_site_symmetry_multiplicity
 _atom_site_fract_x
 _atom_site_fract_y
 _atom_site_fract_z
 _atom_site_occupancy
  Yb  Yb0  1  0.00000000  0.00000000  0.00000000  1
  Si  Si0  1  0.62177500  0.62177500  0.24355000  1
  Si  Si1  1  0.37822500  0.37822500  0.75645000  1
  Pt  Pt0  1  0.25000000  0.75000000  0.50000000  1
  Pt  Pt1  1  0.75000000  0.25000000  0.50000000  1
loop_
_geom_bond_atom_site_label_1
_geom_bond_atom_site_label_2
_geom_bond_distance
_geom_bond_site_symmetry_2
Si0 Si1 2.388802 1_554
Si0 Yb0 3.221580 1_555
Si0 Yb0 3.221580 1_655
Si0 Yb0 3.221580 1_565
Si0 Yb0 3.221580 1_665
Si1 Yb0 3.221580 1_666
Si1 Yb0 3.221580 1_566
Si1 Yb0 3.221580 1_656
Si1 Yb0 3.221580 1_556
Pt0 Si1 2.461242 1_555
Pt0 Si1 2.461242 1_565
Pt0 Si0 2.461242 1_555
Pt0 Si0 2.461242 1_455
Pt0 Yb0 3.238613 1_565
Pt0 Yb0 3.238613 1_555
Pt0 Yb0 3.238613 1_566
Pt0 Yb0 3.238613 1_666
Pt1 Si1 2.461242 1_555
Pt1 Si0 2.461242 1_545
Pt1 Si0 2.461242 1_555
Pt1 Si1 2.461242 1_655
Pt1 Yb0 3.238613 1_655
Pt1 Yb0 3.238613 1_656
Pt1 Yb0 3.238613 1_555
Pt1 Yb0 3.238613 1_666
