# generated using pymatgen
data_ZrTe3O8
_symmetry_space_group_name_H-M   'P 1'
_cell_length_a   9.82887939
_cell_length_b   9.82894256
_cell_length_c   9.82905212
_cell_angle_alpha   109.47206843
_cell_angle_beta   109.47025082
_cell_angle_gamma   109.47069422
_symmetry_Int_Tables_number   1
_chemical_formula_structural   ZrTe3O8
_chemical_formula_sum   'Zr4 Te12 O32'
_cell_volume   730.97752753
_cell_formula_units_Z   4
loop_
 _symmetry_equiv_pos_site_id
 _symmetry_equiv_pos_as_xyz
  1  'x, y, z'
loop_
 _atom_site_type_symbol
 _atom_site_label
 _atom_site_symmetry_multiplicity
 _atom_site_fract_x
 _atom_site_fract_y
 _atom_site_fract_z
 _atom_site_occupancy
  Zr  Zr0  1  0.50000400  0.00000042  0.00000074  1
  Zr  Zr1  1  -0.00000157  0.00000132  0.49999890  1
  Zr  Zr2  1  0.00000056  0.50000573  0.00000006  1
  Zr  Zr3  1  0.50000363  0.50000642  0.50000606  1
  Te  Te0  1  0.54522715  0.25001212  0.79522980  1
  Te  Te1  1  0.70479068  0.95475884  0.75001304  1
  Te  Te2  1  0.24999739  0.79523238  0.54522049  1
  Te  Te3  1  0.79522500  0.54521912  0.24999425  1
  Te  Te4  1  0.74999106  0.70477158  0.95477249  1
  Te  Te5  1  0.95475894  0.74999961  0.70477490  1
  Te  Te6  1  0.45477890  0.74999662  0.20477481  1
  Te  Te7  1  0.29521510  0.04522693  0.25000114  1
  Te  Te8  1  0.74997927  0.20475353  0.45476623  1
  Te  Te9  1  0.20477193  0.45478097  0.74999334  1
  Te  Te10  1  0.25000201  0.29521533  0.04523050  1
  Te  Te11  1  0.04524460  0.24999188  0.29521161  1
  O  O0  1  0.53859773  0.20331127  0.96332649  1
  O  O1  1  0.76000794  0.29668466  0.83527832  1
  O  O2  1  0.96140639  0.92472351  0.66472176  1
  O  O3  1  0.57526876  0.53668650  0.73999457  1
  O  O4  1  0.53668979  0.74000712  0.57527875  1
  O  O5  1  0.96332106  0.53858957  0.20330720  1
  O  O6  1  0.29668045  0.83527243  0.75999373  1
  O  O7  1  0.66472101  0.96141017  0.92472936  1
  O  O8  1  0.20330787  0.96332510  0.53859052  1
  O  O9  1  0.83527762  0.76000226  0.29668122  1
  O  O10  1  0.92473276  0.66472242  0.96141155  1
  O  O11  1  0.74000223  0.57527740  0.53668726  1
  O  O12  1  0.46140818  0.79669462  0.03667621  1
  O  O13  1  0.23999449  0.70331329  0.16471933  1
  O  O14  1  0.03859143  0.07527463  0.33527839  1
  O  O15  1  0.42472166  0.46331495  0.26000256  1
  O  O16  1  0.16628616  0.16628804  0.16628408  1
  O  O17  1  0.33371482  0.49999720  0.00000171  1
  O  O18  1  0.00000035  0.33371654  0.49999824  1
  O  O19  1  0.50000041  0.00000590  0.33372145  1
  O  O20  1  0.83372327  0.83372552  0.83372251  1
  O  O21  1  0.66627951  0.49999735  0.00000095  1
  O  O22  1  0.00000088  0.66628560  0.50000315  1
  O  O23  1  0.49999975  -0.00000272  0.66628020  1
  O  O24  1  0.25999449  0.42471686  0.46331124  1
  O  O25  1  0.07527099  0.33528014  0.03859396  1
  O  O26  1  0.16472345  0.23999906  0.70331656  1
  O  O27  1  0.79669391  0.03667720  0.46140890  1
  O  O28  1  0.33528373  0.03859339  0.07526668  1
  O  O29  1  0.70331402  0.16472533  0.24000490  1
  O  O30  1  0.03667427  0.46140724  0.79669243  1
  O  O31  1  0.46332195  0.26000466  0.42472744  1
loop_
_geom_bond_atom_site_label_1
_geom_bond_atom_site_label_2
_geom_bond_distance
_geom_bond_site_symmetry_2
O0 Te0 1.871435 1_555
O0 Zr0 2.081639 1_556
O1 Te0 1.871359 1_555
O1 Zr2 2.081727 1_656
O2 Te5 1.871268 1_555
O2 Zr1 2.081753 1_665
O3 Te4 1.871306 1_555
O3 Zr3 2.081680 1_555
O4 Te1 1.871219 1_555
O4 Zr3 2.081729 1_555
O5 Te3 1.871320 1_555
O5 Zr2 2.081640 1_655
O6 Te2 1.871317 1_555
O6 Zr0 2.081833 1_566
O7 Te1 1.871276 1_555
O7 Zr0 2.081617 1_566
O8 Te2 1.871313 1_555
O8 Zr1 2.081620 1_565
O9 Te3 1.871345 1_555
O9 Zr1 2.081746 1_665
O10 Te4 1.871414 1_555
O10 Zr2 2.081608 1_656
O11 Te5 1.871195 1_555
O11 Zr3 2.081729 1_555
O12 Te6 1.871438 1_555
O12 Zr0 2.081597 1_565
O13 Te6 1.871355 1_555
O13 Zr2 2.081690 1_555
O14 Te11 1.871264 1_555
O14 Zr1 2.081710 1_555
O15 Te10 1.871298 1_555
O15 Zr3 2.081772 1_555
O16 Te11 2.158846 1_555
O16 Te10 2.159027 1_555
O16 Te7 2.159097 1_555
O17 Te6 2.159134 1_555
O17 Te10 2.159236 1_555
O17 Te9 2.159292 1_554
O18 Te9 2.159134 1_555
O18 Te8 2.159332 1_455
O18 Te11 2.159377 1_555
O19 Te8 2.158945 1_555
O19 Te7 2.159215 1_555
O19 Te6 2.159236 1_545
O20 Te1 2.158853 1_555
O20 Te5 2.159003 1_555
O20 Te4 2.159224 1_555
O21 Te0 2.159053 1_554
O21 Te3 2.159146 1_555
O21 Te4 2.159166 1_554
O22 Te2 2.159152 1_555
O22 Te5 2.159220 1_455
O22 Te3 2.159234 1_455
O23 Te2 2.159136 1_545
O23 Te0 2.159267 1_555
O23 Te1 2.159391 1_545
O24 Te11 1.871190 1_555
O24 Zr3 2.081770 1_555
O25 Te10 1.871398 1_555
O25 Zr2 2.081724 1_555
O26 Te9 1.871363 1_555
O26 Zr1 2.081742 1_555
O27 Te8 1.871317 1_555
O27 Zr1 2.081573 1_655
O28 Te7 1.871480 1_555
O28 Zr0 2.081627 1_555
O29 Te8 1.871267 1_555
O29 Zr0 2.081772 1_555
O30 Te9 1.871390 1_555
O30 Zr2 2.081602 1_556
O31 Te7 1.871346 1_555
O31 Zr3 2.081749 1_555
