# generated using pymatgen
data_Na6TiMn(SiO3)6
_symmetry_space_group_name_H-M   'P 1'
_cell_length_a   7.34874765
_cell_length_b   7.34874765
_cell_length_c   7.34874721
_cell_angle_alpha   88.09530908
_cell_angle_beta   88.09530908
_cell_angle_gamma   88.09530853
_symmetry_Int_Tables_number   1
_chemical_formula_structural   Na6TiMn(SiO3)6
_chemical_formula_sum   'Na6 Ti1 Mn1 Si6 O18'
_cell_volume   396.21885052
_cell_formula_units_Z   1
loop_
 _symmetry_equiv_pos_site_id
 _symmetry_equiv_pos_as_xyz
  1  'x, y, z'
loop_
 _atom_site_type_symbol
 _atom_site_label
 _atom_site_symmetry_multiplicity
 _atom_site_fract_x
 _atom_site_fract_y
 _atom_site_fract_z
 _atom_site_occupancy
  Na  Na0  1  0.01036800  0.01036800  0.48185500  1
  Na  Na1  1  0.01036800  0.48185500  0.01036800  1
  Na  Na2  1  0.03248700  0.46851100  0.46851000  1
  Na  Na3  1  0.46851000  0.46851100  0.03248700  1
  Na  Na4  1  0.48185500  0.01036800  0.01036800  1
  Na  Na5  1  0.46851000  0.03248700  0.46851000  1
  Ti  Ti0  1  0.00836700  0.00836700  0.00836700  1
  Mn  Mn0  1  0.75323800  0.75323800  0.75323800  1
  Si  Si0  1  0.27913100  0.27913100  0.73282300  1
  Si  Si1  1  0.73282300  0.27913100  0.27913100  1
  Si  Si2  1  0.72391600  0.26693600  0.72391600  1
  Si  Si3  1  0.27913100  0.73282300  0.27913100  1
  Si  Si4  1  0.26693600  0.72391600  0.72391600  1
  Si  Si5  1  0.72391600  0.72391600  0.26693600  1
  O  O0  1  0.81791000  0.08362400  0.81791000  1
  O  O1  1  0.91007000  0.17934900  0.17934900  1
  O  O2  1  0.17934900  0.17934900  0.91007000  1
  O  O3  1  0.54180300  0.21675700  0.21675700  1
  O  O4  1  0.21675700  0.21675700  0.54180300  1
  O  O5  1  0.50152800  0.24317100  0.76370300  1
  O  O6  1  0.76370300  0.24317100  0.50152800  1
  O  O7  1  0.78609900  0.46411000  0.78609900  1
  O  O8  1  0.24317100  0.50152800  0.76370300  1
  O  O9  1  0.76370300  0.50152800  0.24317100  1
  O  O10  1  0.21675700  0.54180300  0.21675700  1
  O  O11  1  0.24317100  0.76370300  0.50152800  1
  O  O12  1  0.50152800  0.76370300  0.24317100  1
  O  O13  1  0.78609900  0.78609900  0.46411000  1
  O  O14  1  0.46411000  0.78609900  0.78609900  1
  O  O15  1  0.08362400  0.81791000  0.81791000  1
  O  O16  1  0.81791000  0.81791000  0.08362400  1
  O  O17  1  0.17934900  0.91007000  0.17934900  1
loop_
_geom_bond_atom_site_label_1
_geom_bond_atom_site_label_2
_geom_bond_distance
_geom_bond_site_symmetry_2
Na0 O4 2.244234 1_555
Na0 O13 2.378777 1_445
Na0 O6 2.454884 1_455
Na0 O11 2.454884 1_545
Na0 O17 2.625225 1_545
Na0 O1 2.625225 1_455
Na0 O0 2.862612 1_455
Na0 O15 2.862612 1_545
Na1 O10 2.244234 1_555
Na1 O7 2.378777 1_454
Na1 O8 2.454883 1_554
Na1 O9 2.454883 1_455
Na1 O1 2.625225 1_455
Na1 O2 2.625225 1_554
Na1 O15 2.862613 1_554
Na1 O16 2.862613 1_455
Na2 O10 2.315662 1_555
Na2 O4 2.315670 1_555
Na2 O9 2.619437 1_455
Na2 O6 2.619443 1_455
Na2 O11 2.728561 1_555
Na2 O8 2.728566 1_555
Na2 O13 2.905927 1_455
Na2 O7 2.905933 1_455
Na3 O10 2.315662 1_555
Na3 O3 2.315670 1_555
Na3 O8 2.619437 1_554
Na3 O5 2.619442 1_554
Na3 O12 2.728561 1_555
Na3 O9 2.728566 1_555
Na3 O14 2.905927 1_554
Na3 O7 2.905933 1_554
Na4 O3 2.244234 1_555
Na4 O14 2.378777 1_544
Na4 O5 2.454883 1_554
Na4 O12 2.454883 1_545
Na4 O17 2.625225 1_545
Na4 O2 2.625225 1_554
Na4 O0 2.862613 1_554
Na4 O16 2.862613 1_545
Na5 O3 2.315664 1_555
Na5 O4 2.315664 1_555
Na5 O12 2.619438 1_545
Na5 O11 2.619438 1_545
Na5 O5 2.728567 1_555
Na5 O6 2.728567 1_555
Na5 O14 2.905933 1_545
Na5 O13 2.905933 1_545
Mn0 O13 2.136999 1_555
Mn0 O14 2.136999 1_555
Mn0 O7 2.136999 1_555
Mn0 O16 2.552445 1_556
Mn0 O15 2.552445 1_655
Mn0 O0 2.552445 1_565
O0 Si2 1.636142 1_555
O0 Ti0 2.061806 1_656
O1 Si1 1.637302 1_555
O1 Ti0 1.914076 1_655
O2 Si0 1.637302 1_555
O2 Ti0 1.914076 1_556
O3 Si1 1.578054 1_555
O4 Si0 1.578054 1_555
O5 Si2 1.664528 1_555
O5 Si0 1.668638 1_555
O6 Si2 1.664528 1_555
O6 Si1 1.668638 1_555
O7 Si2 1.618363 1_555
O8 Si4 1.664528 1_555
O8 Si0 1.668638 1_555
O9 Si5 1.664528 1_555
O9 Si1 1.668638 1_555
O10 Si3 1.578054 1_555
O11 Si4 1.664528 1_555
O11 Si3 1.668638 1_555
O12 Si5 1.664528 1_555
O12 Si3 1.668638 1_555
O13 Si5 1.618363 1_555
O14 Si4 1.618363 1_555
O15 Si4 1.636142 1_555
O15 Ti0 2.061806 1_566
O16 Si5 1.636142 1_555
O16 Ti0 2.061806 1_665
O17 Si3 1.637302 1_555
O17 Ti0 1.914076 1_565
