# generated using pymatgen
data_Li8SnO6
_symmetry_space_group_name_H-M   'P 1'
_cell_length_a   5.96708191
_cell_length_b   5.96708074
_cell_length_c   5.96708089
_cell_angle_alpha   54.22125979
_cell_angle_beta   54.22125667
_cell_angle_gamma   54.22125837
_symmetry_Int_Tables_number   1
_chemical_formula_structural   Li8SnO6
_chemical_formula_sum   'Li8 Sn1 O6'
_cell_volume   129.97331327
_cell_formula_units_Z   1
loop_
 _symmetry_equiv_pos_site_id
 _symmetry_equiv_pos_as_xyz
  1  'x, y, z'
loop_
 _atom_site_type_symbol
 _atom_site_label
 _atom_site_symmetry_multiplicity
 _atom_site_fract_x
 _atom_site_fract_y
 _atom_site_fract_z
 _atom_site_occupancy
  Li  Li0  1  0.49522847  0.10117852  0.76537644  1
  Li  Li1  1  0.76537644  0.49522847  0.10117852  1
  Li  Li2  1  0.10117852  0.76537644  0.49522847  1
  Li  Li3  1  0.50477153  0.89882148  0.23462356  1
  Li  Li4  1  0.23462356  0.50477153  0.89882148  1
  Li  Li5  1  0.89882148  0.23462356  0.50477153  1
  Li  Li6  1  0.34479933  0.34479933  0.34479933  1
  Li  Li7  1  0.65520067  0.65520067  0.65520067  1
  Sn  Sn0  1  -0.00000000  0.00000000  0.00000000  1
  O  O0  1  0.23578895  0.90590523  0.61446072  1
  O  O1  1  0.38553928  0.76421105  0.09409477  1
  O  O2  1  0.09409477  0.38553928  0.76421105  1
  O  O3  1  0.76421105  0.09409477  0.38553928  1
  O  O4  1  0.61446072  0.23578895  0.90590523  1
  O  O5  1  0.90590523  0.61446072  0.23578895  1
loop_
_geom_bond_atom_site_label_1
_geom_bond_atom_site_label_2
_geom_bond_distance
_geom_bond_site_symmetry_2
Li0 O3 1.869212 1_555
Li0 O1 1.935127 1_546
Li0 O2 1.965971 1_555
Li0 O4 2.001989 1_555
Li1 O1 1.869212 1_555
Li1 O2 1.935127 1_654
Li1 O3 1.965970 1_555
Li1 O5 2.001989 1_555
Li2 O2 1.869212 1_555
Li2 O3 1.935127 1_465
Li2 O1 1.965970 1_555
Li2 O0 2.001989 1_555
Li3 O0 1.869212 1_555
Li3 O4 1.935127 1_564
Li3 O5 1.965971 1_555
Li3 O1 2.001989 1_555
Li4 O4 1.869212 1_555
Li4 O5 1.935127 1_456
Li4 O0 1.965970 1_555
Li4 O2 2.001989 1_555
Li5 O5 1.869212 1_555
Li5 O0 1.935127 1_645
Li5 O4 1.965970 1_555
Li5 O3 2.001989 1_555
Li6 O2 2.113931 1_555
Li6 O1 2.113931 1_555
Li6 O3 2.113932 1_555
Li6 O4 2.389879 1_554
Li6 O0 2.389879 1_545
Li6 O5 2.389879 1_455
Li7 O5 2.113931 1_555
Li7 O4 2.113931 1_555
Li7 O0 2.113932 1_555
Li7 O1 2.389879 1_556
Li7 O3 2.389879 1_565
Li7 O2 2.389879 1_655
O0 Sn0 2.095030 1_566
O1 Sn0 2.095030 1_565
O2 Sn0 2.095030 1_556
O3 Sn0 2.095030 1_655
O4 Sn0 2.095030 1_656
O5 Sn0 2.095030 1_665
