# generated using pymatgen
data_ZrSiO4
_symmetry_space_group_name_H-M   'P 1'
_cell_length_a   5.55852070
_cell_length_b   5.55852069
_cell_length_c   5.55852074
_cell_angle_alpha   106.90800334
_cell_angle_beta   106.90801515
_cell_angle_gamma   114.72908079
_symmetry_Int_Tables_number   1
_chemical_formula_structural   ZrSiO4
_chemical_formula_sum   'Zr2 Si2 O8'
_cell_volume   131.36462388
_cell_formula_units_Z   2
loop_
 _symmetry_equiv_pos_site_id
 _symmetry_equiv_pos_as_xyz
  1  'x, y, z'
loop_
 _atom_site_type_symbol
 _atom_site_label
 _atom_site_symmetry_multiplicity
 _atom_site_fract_x
 _atom_site_fract_y
 _atom_site_fract_z
 _atom_site_occupancy
  Zr  Zr0  1  0.12500000  0.87500000  0.25000000  1
  Zr  Zr1  1  0.87500000  0.12500000  0.75000000  1
  Si  Si0  1  0.62500000  0.37500000  0.25000000  1
  Si  Si1  1  0.37500000  0.62500000  0.75000000  1
  O  O0  1  0.80429992  0.37027717  0.06597725  1
  O  O1  1  0.73832067  0.80429992  0.93402275  1
  O  O2  1  0.37027717  0.80429992  0.56597725  1
  O  O3  1  0.80429992  0.73832067  0.43402275  1
  O  O4  1  0.26167933  0.19570008  0.06597725  1
  O  O5  1  0.19570008  0.62972283  0.93402275  1
  O  O6  1  0.19570008  0.26167933  0.56597725  1
  O  O7  1  0.62972283  0.19570008  0.43402275  1
loop_
_geom_bond_atom_site_label_1
_geom_bond_atom_site_label_2
_geom_bond_distance
_geom_bond_site_symmetry_2
O0 Si0 1.624672 1_555
O0 Zr1 2.134234 1_554
O0 Zr0 2.276138 1_655
O1 Si1 1.624663 1_555
O1 Zr0 2.134242 1_656
O1 Zr1 2.276139 1_565
O2 Si1 1.624672 1_555
O2 Zr0 2.134234 1_555
O2 Zr1 2.276138 1_565
O3 Si0 1.624663 1_555
O3 Zr1 2.134242 1_565
O3 Zr0 2.276139 1_655
O4 Si0 1.624663 1_555
O4 Zr1 2.134242 1_454
O4 Zr0 2.276139 1_545
O5 Si1 1.624672 1_555
O5 Zr0 2.134234 1_556
O5 Zr1 2.276138 1_455
O6 Si1 1.624663 1_555
O6 Zr0 2.134242 1_545
O6 Zr1 2.276139 1_455
O7 Si0 1.624672 1_555
O7 Zr1 2.134234 1_555
O7 Zr0 2.276138 1_545
