# generated using pymatgen
data_CaGa2Cu3(SbO6)2
_symmetry_space_group_name_H-M   'P 1'
_cell_length_a   7.55871900
_cell_length_b   7.55871900
_cell_length_c   7.55871900
_cell_angle_alpha   90.00000000
_cell_angle_beta   90.00000000
_cell_angle_gamma   90.00000000
_symmetry_Int_Tables_number   1
_chemical_formula_structural   CaGa2Cu3(SbO6)2
_chemical_formula_sum   'Ca2 Ga4 Cu6 Sb4 O24'
_cell_volume   431.86161193
_cell_formula_units_Z   2
loop_
 _symmetry_equiv_pos_site_id
 _symmetry_equiv_pos_as_xyz
  1  'x, y, z'
loop_
 _atom_site_type_symbol
 _atom_site_label
 _atom_site_symmetry_multiplicity
 _atom_site_fract_x
 _atom_site_fract_y
 _atom_site_fract_z
 _atom_site_occupancy
  Ca  Ca0  1  0.50000000  0.50000000  0.50000000  1
  Ca  Ca1  1  0.00000000  0.00000000  0.00000000  1
  Ga  Ga0  1  0.75000000  0.75000000  0.75000000  1
  Ga  Ga1  1  0.75000000  0.25000000  0.25000000  1
  Ga  Ga2  1  0.25000000  0.75000000  0.25000000  1
  Ga  Ga3  1  0.25000000  0.25000000  0.75000000  1
  Cu  Cu0  1  0.00000000  0.00000000  0.50000000  1
  Cu  Cu1  1  0.00000000  0.50000000  0.00000000  1
  Cu  Cu2  1  0.50000000  0.00000000  0.00000000  1
  Cu  Cu3  1  0.00000000  0.50000000  0.50000000  1
  Cu  Cu4  1  0.50000000  0.00000000  0.50000000  1
  Cu  Cu5  1  0.50000000  0.50000000  0.00000000  1
  Sb  Sb0  1  0.75000000  0.75000000  0.25000000  1
  Sb  Sb1  1  0.75000000  0.25000000  0.75000000  1
  Sb  Sb2  1  0.25000000  0.75000000  0.75000000  1
  Sb  Sb3  1  0.25000000  0.25000000  0.25000000  1
  O  O0  1  0.19589700  0.50017100  0.32409300  1
  O  O1  1  0.19589700  0.49982900  0.67590700  1
  O  O2  1  0.32409300  0.19589700  0.50017100  1
  O  O3  1  0.32409300  0.80410300  0.49982900  1
  O  O4  1  0.50017100  0.32409300  0.19589700  1
  O  O5  1  0.50017100  0.67590700  0.80410300  1
  O  O6  1  0.49982900  0.32409300  0.80410300  1
  O  O7  1  0.49982900  0.67590700  0.19589700  1
  O  O8  1  0.67590700  0.19589700  0.49982900  1
  O  O9  1  0.67590700  0.80410300  0.50017100  1
  O  O10  1  0.69589700  0.99982900  0.82409300  1
  O  O11  1  0.69589700  0.00017100  0.17590700  1
  O  O12  1  0.80410300  0.49982900  0.32409300  1
  O  O13  1  0.80410300  0.50017100  0.67590700  1
  O  O14  1  0.82409300  0.69589700  0.99982900  1
  O  O15  1  0.82409300  0.30410300  0.00017100  1
  O  O16  1  0.00017100  0.82409300  0.30410300  1
  O  O17  1  0.00017100  0.17590700  0.69589700  1
  O  O18  1  0.99982900  0.82409300  0.69589700  1
  O  O19  1  0.99982900  0.17590700  0.30410300  1
  O  O20  1  0.17590700  0.69589700  0.00017100  1
  O  O21  1  0.17590700  0.30410300  0.99982900  1
  O  O22  1  0.30410300  0.00017100  0.82409300  1
  O  O23  1  0.30410300  0.99982900  0.17590700  1
loop_
_geom_bond_atom_site_label_1
_geom_bond_atom_site_label_2
_geom_bond_distance
_geom_bond_site_symmetry_2
Ca0 O13 2.655488 1_555
Ca0 O1 2.655488 1_555
Ca0 O8 2.655488 1_555
Ca0 O5 2.655488 1_555
Ca0 O7 2.655488 1_555
Ca0 O9 2.655488 1_555
Ca0 O4 2.655488 1_555
Ca0 O0 2.655488 1_555
Ca0 O6 2.655488 1_555
Ca0 O2 2.655488 1_555
Ca0 O3 2.655488 1_555
Ca0 O12 2.655488 1_555
Ca1 O11 2.655488 1_455
Ca1 O17 2.655488 1_554
Ca1 O21 2.655488 1_554
Ca1 O19 2.655488 1_455
Ca1 O23 2.655488 1_545
Ca1 O20 2.655488 1_545
Ca1 O15 2.655488 1_455
Ca1 O14 2.655488 1_444
Ca1 O18 2.655488 1_444
Ca1 O22 2.655488 1_554
Ca1 O10 2.655488 1_444
Ca1 O16 2.655488 1_545
Ga0 O14 2.011691 1_555
Ga0 O18 2.011691 1_555
Ga0 O10 2.011691 1_555
Ga0 O5 2.011691 1_555
Ga0 O9 2.011691 1_555
Ga0 O13 2.011691 1_555
Ga1 O12 2.011691 1_555
Ga1 O8 2.011691 1_555
Ga1 O4 2.011691 1_555
Ga1 O19 2.011691 1_555
Ga1 O15 2.011691 1_555
Ga1 O11 2.011691 1_555
Ga2 O3 2.011691 1_555
Ga2 O7 2.011691 1_555
Ga2 O0 2.011691 1_555
Ga2 O23 2.011691 1_555
Ga2 O16 2.011691 1_555
Ga2 O20 2.011691 1_555
Ga3 O6 2.011691 1_555
Ga3 O1 2.011691 1_555
Ga3 O2 2.011691 1_555
Ga3 O21 2.011691 1_555
Ga3 O22 2.011691 1_555
Ga3 O17 2.011691 1_555
Cu0 O19 1.990097 1_455
Cu0 O17 1.990097 1_555
Cu0 O16 1.990097 1_545
Cu0 O18 1.990097 1_445
Cu1 O20 1.990097 1_555
Cu1 O21 1.990097 1_554
Cu1 O15 1.990097 1_455
Cu1 O14 1.990097 1_454
Cu2 O11 1.990097 1_555
Cu2 O23 1.990097 1_545
Cu2 O22 1.990097 1_554
Cu2 O10 1.990097 1_544
Cu3 O13 1.990097 1_455
Cu3 O1 1.990097 1_555
Cu3 O12 1.990097 1_455
Cu3 O0 1.990097 1_555
Cu4 O8 1.990097 1_555
Cu4 O9 1.990097 1_545
Cu4 O3 1.990097 1_545
Cu4 O2 1.990097 1_555
Cu5 O7 1.990097 1_555
Cu5 O5 1.990097 1_554
Cu5 O4 1.990097 1_555
Cu5 O6 1.990097 1_554
O0 Sb3 2.014118 1_555
O1 Sb2 2.014118 1_555
O2 Sb3 2.014118 1_555
O3 Sb2 2.014118 1_555
O4 Sb3 2.014118 1_555
O5 Sb2 2.014118 1_555
O6 Sb1 2.014118 1_555
O7 Sb0 2.014118 1_555
O8 Sb1 2.014118 1_555
O9 Sb0 2.014118 1_555
O10 Sb1 2.014118 1_565
O11 Sb0 2.014118 1_545
O12 Sb0 2.014118 1_555
O13 Sb1 2.014118 1_555
O14 Sb0 2.014118 1_556
O15 Sb1 2.014118 1_554
O16 Sb0 2.014118 1_455
O17 Sb1 2.014118 1_455
O18 Sb2 2.014118 1_655
O19 Sb3 2.014118 1_655
O20 Sb2 2.014118 1_554
O21 Sb3 2.014118 1_556
O22 Sb2 2.014118 1_545
O23 Sb3 2.014118 1_565
