# generated using pymatgen
data_Ti
_symmetry_space_group_name_H-M   'P 1'
_cell_length_a   5.87146248
_cell_length_b   5.87146521
_cell_length_c   9.28171230
_cell_angle_alpha   90.00000000
_cell_angle_beta   90.00000000
_cell_angle_gamma   119.99998461
_symmetry_Int_Tables_number   1
_chemical_formula_structural   Ti
_chemical_formula_sum   Ti16
_cell_volume   277.10960790
_cell_formula_units_Z   16
loop_
 _symmetry_equiv_pos_site_id
 _symmetry_equiv_pos_as_xyz
  1  'x, y, z'
loop_
 _atom_site_type_symbol
 _atom_site_label
 _atom_site_symmetry_multiplicity
 _atom_site_fract_x
 _atom_site_fract_y
 _atom_site_fract_z
 _atom_site_occupancy
  Ti  Ti0_0  1  0.16666650  0.33333350  0.12500000  1
  Ti  Ti0_1  1  0.16666650  0.33333350  0.62500000  1
  Ti  Ti0_2  1  0.16666650  0.83333350  0.12500000  1
  Ti  Ti0_3  1  0.16666650  0.83333350  0.62500000  1
  Ti  Ti0_4  1  0.66666650  0.33333350  0.12500000  1
  Ti  Ti0_5  1  0.66666650  0.33333350  0.62500000  1
  Ti  Ti0_6  1  0.66666650  0.83333350  0.12500000  1
  Ti  Ti0_7  1  0.66666650  0.83333350  0.62500000  1
  Ti  Ti1_0  1  0.33333350  0.16666650  0.37500000  1
  Ti  Ti1_1  1  0.33333350  0.16666650  0.87500000  1
  Ti  Ti1_2  1  0.33333350  0.66666650  0.37500000  1
  Ti  Ti1_3  1  0.33333350  0.66666650  0.87500000  1
  Ti  Ti1_4  1  0.83333350  0.16666650  0.37500000  1
  Ti  Ti1_5  1  0.83333350  0.16666650  0.87500000  1
  Ti  Ti1_6  1  0.83333350  0.66666650  0.37500000  1
  Ti  Ti1_7  1  0.83333350  0.66666650  0.87500000  1
loop_
_geom_bond_atom_site_label_1
_geom_bond_atom_site_label_2
_geom_bond_distance
_geom_bond_site_symmetry_2
Ti0_0 Ti1_5 2.873538 1_454
Ti0_0 Ti1_4 2.873538 1_455
Ti0_0 Ti1_3 2.873539 1_554
Ti0_0 Ti1_2 2.873539 1_555
Ti0_0 Ti1_1 2.873541 1_554
Ti0_0 Ti1_0 2.873541 1_555
Ti0_0 Ti0_4 2.935731 1_555
Ti0_0 Ti0_4 2.935731 1_455
Ti0_0 Ti0_2 2.935733 1_555
Ti0_0 Ti0_6 2.935733 1_445
Ti0_0 Ti0_6 2.935733 1_555
Ti0_0 Ti0_2 2.935733 1_545
Ti0_1 Ti1_4 2.873538 1_455
Ti0_1 Ti1_5 2.873538 1_455
Ti0_1 Ti1_2 2.873539 1_555
Ti0_1 Ti1_3 2.873539 1_555
Ti0_1 Ti1_0 2.873541 1_555
Ti0_1 Ti1_1 2.873541 1_555
Ti0_1 Ti0_5 2.935731 1_555
Ti0_1 Ti0_5 2.935731 1_455
Ti0_1 Ti0_3 2.935733 1_555
Ti0_1 Ti0_7 2.935733 1_555
Ti0_1 Ti0_3 2.935733 1_545
Ti0_1 Ti0_7 2.935733 1_445
Ti0_2 Ti1_7 2.873538 1_454
Ti0_2 Ti1_6 2.873538 1_455
Ti0_2 Ti1_1 2.873539 1_564
Ti0_2 Ti1_0 2.873539 1_565
Ti0_2 Ti1_3 2.873541 1_554
Ti0_2 Ti1_2 2.873541 1_555
Ti0_2 Ti0_6 2.935731 1_555
Ti0_2 Ti0_6 2.935731 1_455
Ti0_2 Ti0_4 2.935733 1_565
Ti0_2 Ti0_4 2.935733 1_455
Ti0_3 Ti1_6 2.873538 1_455
Ti0_3 Ti1_7 2.873538 1_455
Ti0_3 Ti1_0 2.873539 1_565
Ti0_3 Ti1_1 2.873539 1_565
Ti0_3 Ti1_2 2.873541 1_555
Ti0_3 Ti1_3 2.873541 1_555
Ti0_3 Ti0_7 2.935731 1_455
Ti0_3 Ti0_7 2.935731 1_555
Ti0_3 Ti0_5 2.935733 1_455
Ti0_3 Ti0_5 2.935733 1_565
Ti0_4 Ti1_1 2.873538 1_554
Ti0_4 Ti1_0 2.873538 1_555
Ti0_4 Ti1_7 2.873539 1_554
Ti0_4 Ti1_6 2.873539 1_555
Ti0_4 Ti1_5 2.873541 1_554
Ti0_4 Ti1_4 2.873541 1_555
Ti0_4 Ti0_6 2.935733 1_555
Ti0_4 Ti0_6 2.935733 1_545
Ti0_5 Ti1_0 2.873538 1_555
Ti0_5 Ti1_1 2.873538 1_555
Ti0_5 Ti1_6 2.873539 1_555
Ti0_5 Ti1_7 2.873539 1_555
Ti0_5 Ti1_4 2.873541 1_555
Ti0_5 Ti1_5 2.873541 1_555
Ti0_5 Ti0_7 2.935733 1_555
Ti0_5 Ti0_7 2.935733 1_545
Ti0_6 Ti1_3 2.873538 1_554
Ti0_6 Ti1_2 2.873538 1_555
Ti0_6 Ti1_5 2.873539 1_564
Ti0_6 Ti1_4 2.873539 1_565
Ti0_6 Ti1_7 2.873541 1_554
Ti0_6 Ti1_6 2.873541 1_555
Ti0_7 Ti1_2 2.873538 1_555
Ti0_7 Ti1_3 2.873538 1_555
Ti0_7 Ti1_4 2.873539 1_565
Ti0_7 Ti1_5 2.873539 1_565
Ti0_7 Ti1_6 2.873541 1_555
Ti0_7 Ti1_7 2.873541 1_555
Ti1_0 Ti1_4 2.935731 1_555
Ti1_0 Ti1_4 2.935731 1_455
Ti1_0 Ti1_6 2.935733 1_445
Ti1_0 Ti1_2 2.935733 1_545
Ti1_0 Ti1_2 2.935733 1_555
Ti1_0 Ti1_6 2.935733 1_555
Ti1_1 Ti1_5 2.935731 1_555
Ti1_1 Ti1_5 2.935731 1_455
Ti1_1 Ti1_3 2.935733 1_545
Ti1_1 Ti1_7 2.935733 1_445
Ti1_1 Ti1_3 2.935733 1_555
Ti1_1 Ti1_7 2.935733 1_555
Ti1_2 Ti1_6 2.935731 1_455
Ti1_2 Ti1_6 2.935731 1_555
Ti1_2 Ti1_4 2.935733 1_455
Ti1_2 Ti1_4 2.935733 1_565
Ti1_3 Ti1_7 2.935731 1_455
Ti1_3 Ti1_7 2.935731 1_555
Ti1_3 Ti1_5 2.935733 1_565
Ti1_3 Ti1_5 2.935733 1_455
Ti1_4 Ti1_6 2.935733 1_555
Ti1_4 Ti1_6 2.935733 1_545
Ti1_5 Ti1_7 2.935733 1_555
Ti1_5 Ti1_7 2.935733 1_545
