# generated using pymatgen
data_La(SiPt)2
_symmetry_space_group_name_H-M   'P 1'
_cell_length_a   5.85513827
_cell_length_b   5.85513827
_cell_length_c   5.85513827
_cell_angle_alpha   136.85706221
_cell_angle_beta   136.85706221
_cell_angle_gamma   62.65805013
_symmetry_Int_Tables_number   1
_chemical_formula_structural   La(SiPt)2
_chemical_formula_sum   'La1 Si2 Pt2'
_cell_volume   92.70968376
_cell_formula_units_Z   1
loop_
 _symmetry_equiv_pos_site_id
 _symmetry_equiv_pos_as_xyz
  1  'x, y, z'
loop_
 _atom_site_type_symbol
 _atom_site_label
 _atom_site_symmetry_multiplicity
 _atom_site_fract_x
 _atom_site_fract_y
 _atom_site_fract_z
 _atom_site_occupancy
  La  La0  1  0.00000000  0.00000000  0.00000000  1
  Si  Si0  1  0.62275500  0.62275500  0.00000000  1
  Si  Si1  1  0.37724500  0.37724500  0.00000000  1
  Pt  Pt0  1  0.75000000  0.25000000  0.50000000  1
  Pt  Pt1  1  0.25000000  0.75000000  0.50000000  1
loop_
_geom_bond_atom_site_label_1
_geom_bond_atom_site_label_2
_geom_bond_distance
_geom_bond_site_symmetry_2
La0 Si1 3.282690 1_444
La0 Si0 3.282690 1_556
La0 Si0 3.282690 1_545
La0 Si0 3.282690 1_444
La0 Si0 3.282690 1_455
La0 Si1 3.282690 1_556
La0 Si1 3.282690 1_455
La0 Si1 3.282690 1_545
La0 Pt1 3.299657 1_545
La0 Pt0 3.299657 1_444
La0 Pt0 3.299657 1_454
La0 Pt1 3.299657 1_544
La0 Pt0 3.299657 1_555
La0 Pt0 3.299657 1_455
La0 Pt1 3.299657 1_555
La0 Pt1 3.299657 1_444
Si0 Si1 2.455804 1_555
Pt0 Si1 2.500843 1_555
Pt0 Si0 2.500843 1_545
Pt0 Si0 2.500843 1_556
Pt0 Si1 2.500843 1_656
Pt1 Si1 2.500843 1_555
Pt1 Si1 2.500843 1_566
Pt1 Si0 2.500843 1_455
Pt1 Si0 2.500843 1_556
