# generated using pymatgen
data_Nb2CS2
_symmetry_space_group_name_H-M   'P 1'
_cell_length_a   9.09605483
_cell_length_b   9.09605483
_cell_length_c   9.09605478
_cell_angle_alpha   20.93747684
_cell_angle_beta   20.93747684
_cell_angle_gamma   20.93747295
_symmetry_Int_Tables_number   1
_chemical_formula_structural   Nb2CS2
_chemical_formula_sum   'Nb2 C1 S2'
_cell_volume   84.15491368
_cell_formula_units_Z   1
loop_
 _symmetry_equiv_pos_site_id
 _symmetry_equiv_pos_as_xyz
  1  'x, y, z'
loop_
 _atom_site_type_symbol
 _atom_site_label
 _atom_site_symmetry_multiplicity
 _atom_site_fract_x
 _atom_site_fract_y
 _atom_site_fract_z
 _atom_site_occupancy
  Nb  Nb0  1  0.62171003  0.62171003  0.62171003  1
  Nb  Nb1  1  0.37828997  0.37828997  0.37828997  1
  C  C0  1  0.00000000  0.00000000  0.00000000  1
  S  S0  1  0.77232378  0.77232378  0.77232378  1
  S  S1  1  0.22767622  0.22767622  0.22767622  1
loop_
_geom_bond_atom_site_label_1
_geom_bond_atom_site_label_2
_geom_bond_distance
_geom_bond_site_symmetry_2
Nb0 S1 2.502995 1_565
Nb0 S1 2.502995 1_655
Nb0 S1 2.502996 1_556
Nb1 S0 2.502995 1_545
Nb1 S0 2.502995 1_455
Nb1 S0 2.502996 1_554
C0 Nb1 2.254070 1_455
C0 Nb1 2.254070 1_545
C0 Nb0 2.254070 1_544
C0 Nb0 2.254070 1_454
C0 Nb1 2.254071 1_554
C0 Nb0 2.254071 1_445
