# generated using pymatgen
data_Si2N2O
_symmetry_space_group_name_H-M   'P 1'
_cell_length_a   4.70777432
_cell_length_b   4.70777432
_cell_length_c   12.79627495
_cell_angle_alpha   89.91670556
_cell_angle_beta   89.91670556
_cell_angle_gamma   59.54849957
_symmetry_Int_Tables_number   1
_chemical_formula_structural   Si2N2O
_chemical_formula_sum   'Si12 N12 O6'
_cell_volume   244.48428513
_cell_formula_units_Z   6
loop_
 _symmetry_equiv_pos_site_id
 _symmetry_equiv_pos_as_xyz
  1  'x, y, z'
loop_
 _atom_site_type_symbol
 _atom_site_label
 _atom_site_symmetry_multiplicity
 _atom_site_fract_x
 _atom_site_fract_y
 _atom_site_fract_z
 _atom_site_occupancy
  Si  Si0  1  0.31500600  0.32816400  0.51991700  1
  Si  Si1  1  0.67183600  0.68499400  0.98008300  1
  Si  Si2  1  0.68499400  0.67183600  0.48008300  1
  Si  Si3  1  0.32816400  0.31500600  0.01991700  1
  Si  Si4  1  0.31325500  0.33162000  0.81361900  1
  Si  Si5  1  0.66838000  0.68674500  0.68638100  1
  Si  Si6  1  0.68674500  0.66838000  0.18638100  1
  Si  Si7  1  0.33162000  0.31325500  0.31361900  1
  Si  Si8  1  0.99869000  0.00362300  0.85287900  1
  Si  Si9  1  0.99637700  0.00131000  0.64712100  1
  Si  Si10  1  0.00131000  0.99637700  0.14712100  1
  Si  Si11  1  0.00362300  0.99869000  0.35287900  1
  N  N0  1  0.99386400  0.70882900  0.75216200  1
  N  N1  1  0.34060200  0.01965100  0.41702200  1
  N  N2  1  0.98034900  0.65939800  0.08297800  1
  N  N3  1  0.29117100  0.00613600  0.74783800  1
  N  N4  1  0.00613600  0.29117100  0.24783800  1
  N  N5  1  0.70882900  0.99386400  0.25216200  1
  N  N6  1  0.95286600  0.37143600  0.58524700  1
  N  N7  1  0.62856400  0.04713400  0.91475300  1
  N  N8  1  0.04713400  0.62856400  0.41475300  1
  N  N9  1  0.37143600  0.95286600  0.08524700  1
  N  N10  1  0.01965100  0.34060200  0.91702200  1
  N  N11  1  0.65939800  0.98034900  0.58297800  1
  O  O0  1  0.65508300  0.33293100  0.41817300  1
  O  O1  1  0.66706900  0.34491700  0.08182700  1
  O  O2  1  0.34491700  0.66706900  0.58182700  1
  O  O3  1  0.66779800  0.33220200  0.75000000  1
  O  O4  1  0.33220200  0.66779800  0.25000000  1
  O  O5  1  0.33293100  0.65508300  0.91817300  1
loop_
_geom_bond_atom_site_label_1
_geom_bond_atom_site_label_2
_geom_bond_distance
_geom_bond_site_symmetry_2
N0 Si5 1.797998 1_555
N0 Si4 1.823654 1_655
N0 Si8 1.903898 1_565
N0 Si9 1.927140 1_565
N1 Si2 1.808324 1_545
N1 Si11 1.833813 1_545
N1 Si7 1.897027 1_555
N1 Si0 1.919724 1_555
N2 Si3 1.808324 1_655
N2 Si10 1.833813 1_655
N2 Si6 1.897027 1_555
N2 Si1 1.919724 1_554
N3 Si4 1.797998 1_555
N3 Si5 1.823654 1_545
N3 Si9 1.903898 1_455
N3 Si8 1.927140 1_455
N4 Si7 1.797998 1_555
N4 Si6 1.823654 1_455
N4 Si10 1.903898 1_545
N4 Si11 1.927140 1_545
N5 Si6 1.797998 1_555
N5 Si7 1.823654 1_565
N5 Si11 1.903898 1_655
N5 Si10 1.927140 1_655
N6 Si0 1.814186 1_655
N6 Si9 1.827488 1_555
N6 Si2 1.895503 1_555
N6 Si5 1.912428 1_555
N7 Si1 1.814186 1_545
N7 Si8 1.827488 1_555
N7 Si3 1.895503 1_556
N7 Si4 1.912428 1_555
N8 Si2 1.814186 1_455
N8 Si11 1.827488 1_555
N8 Si0 1.895503 1_555
N8 Si7 1.912428 1_555
N9 Si3 1.814186 1_565
N9 Si10 1.827488 1_555
N9 Si1 1.895503 1_554
N9 Si6 1.912428 1_555
N10 Si1 1.808324 1_455
N10 Si8 1.833813 1_455
N10 Si4 1.897027 1_555
N10 Si3 1.919724 1_556
N11 Si0 1.808324 1_565
N11 Si9 1.833813 1_565
N11 Si5 1.897027 1_555
N11 Si2 1.919724 1_555
O0 Si11 1.802561 1_645
O0 Si2 1.850607 1_555
O0 Si7 2.065603 1_555
O0 Si0 2.071003 1_555
O1 Si10 1.802561 1_645
O1 Si3 1.850607 1_555
O1 Si6 2.065603 1_555
O1 Si1 2.071003 1_554
O2 Si9 1.802561 1_465
O2 Si0 1.850607 1_555
O2 Si5 2.065603 1_555
O2 Si2 2.071003 1_555
O3 Si5 1.857241 1_555
O3 Si4 1.857241 1_555
O3 Si8 2.027339 1_555
O3 Si9 2.027339 1_555
O4 Si6 1.857241 1_555
O4 Si7 1.857241 1_555
O4 Si10 2.027339 1_555
O4 Si11 2.027339 1_555
O5 Si8 1.802561 1_465
O5 Si1 1.850607 1_555
O5 Si4 2.065603 1_555
O5 Si3 2.071003 1_556
