# generated using pymatgen
data_CoAsS
_symmetry_space_group_name_H-M   'P 1'
_cell_length_a   5.55797365
_cell_length_b   5.56353410
_cell_length_c   5.55363067
_cell_angle_alpha   90.00000000
_cell_angle_beta   90.00000000
_cell_angle_gamma   90.00000000
_symmetry_Int_Tables_number   1
_chemical_formula_structural   CoAsS
_chemical_formula_sum   'Co4 As4 S4'
_cell_volume   171.72923389
_cell_formula_units_Z   4
loop_
 _symmetry_equiv_pos_site_id
 _symmetry_equiv_pos_as_xyz
  1  'x, y, z'
loop_
 _atom_site_type_symbol
 _atom_site_label
 _atom_site_symmetry_multiplicity
 _atom_site_fract_x
 _atom_site_fract_y
 _atom_site_fract_z
 _atom_site_occupancy
  Co  Co0  1  0.49459960  0.24068333  0.50182445  1
  Co  Co1  1  0.99459960  0.75931667  0.50182445  1
  Co  Co2  1  0.00539940  0.24068333  0.00182445  1
  Co  Co3  1  0.50540040  0.75931667  0.00182445  1
  As  As0  1  0.87990635  0.36954253  0.38405903  1
  As  As1  1  0.62009365  0.36954253  0.88405903  1
  As  As2  1  0.37990635  0.63045747  0.38405903  1
  As  As3  1  0.12009365  0.63045747  0.88405903  1
  S  S0  1  0.11727722  0.13069645  0.62111651  1
  S  S1  1  0.38272278  0.13069645  0.12111651  1
  S  S2  1  0.88272278  0.86930355  0.12111651  1
  S  S3  1  0.61727722  0.86930355  0.62111651  1
loop_
_geom_bond_atom_site_label_1
_geom_bond_atom_site_label_2
_geom_bond_distance
_geom_bond_site_symmetry_2
Co0 S3 2.274408 1_545
Co0 S0 2.282845 1_555
Co0 S1 2.287225 1_555
Co1 S0 2.274408 1_665
Co1 S3 2.282845 1_555
Co1 S2 2.287225 1_555
Co2 S2 2.274407 1_445
Co2 S1 2.282850 1_555
Co2 S0 2.287227 1_554
Co3 S1 2.274408 1_565
Co3 S2 2.282845 1_555
Co3 S3 2.287225 1_554
As0 S0 2.289015 1_655
As0 Co2 2.346633 1_655
As0 Co0 2.351136 1_555
As0 Co1 2.352997 1_555
As1 S1 2.289015 1_556
As1 Co0 2.346635 1_555
As1 Co2 2.351131 1_656
As1 Co3 2.352997 1_556
As2 S3 2.289015 1_555
As2 Co3 2.346635 1_555
As2 Co1 2.351136 1_455
As2 Co0 2.352997 1_555
As3 S2 2.289015 1_456
As3 Co1 2.346635 1_455
As3 Co3 2.351136 1_556
As3 Co2 2.352998 1_556
