# generated using pymatgen
data_TiAl2O5
_symmetry_space_group_name_H-M   'P 1'
_cell_length_a   5.00507330
_cell_length_b   5.00507382
_cell_length_c   9.66643600
_cell_angle_alpha   90.00000982
_cell_angle_beta   89.99998877
_cell_angle_gamma   137.93779155
_symmetry_Int_Tables_number   1
_chemical_formula_structural   TiAl2O5
_chemical_formula_sum   'Ti2 Al4 O10'
_cell_volume   162.22632215
_cell_formula_units_Z   2
loop_
 _symmetry_equiv_pos_site_id
 _symmetry_equiv_pos_as_xyz
  1  'x, y, z'
loop_
 _atom_site_type_symbol
 _atom_site_label
 _atom_site_symmetry_multiplicity
 _atom_site_fract_x
 _atom_site_fract_y
 _atom_site_fract_z
 _atom_site_occupancy
  Ti  Ti0  1  0.81545918  0.18453811  0.74999983  1
  Ti  Ti1  1  0.18454257  0.81546330  0.25000037  1
  Al  Al0  1  0.85943826  0.14056127  0.44419476  1
  Al  Al1  1  0.14056108  0.85943821  0.55580525  1
  Al  Al2  1  0.85943823  0.14056120  0.05580526  1
  Al  Al3  1  0.14056109  0.85943830  0.94419468  1
  O  O0  1  0.68749601  0.31250346  0.56625623  1
  O  O1  1  0.31250330  0.68749625  0.43374373  1
  O  O2  1  0.31250338  0.68749637  0.06625627  1
  O  O3  1  0.68749607  0.31250343  0.93374377  1
  O  O4  1  0.95563249  0.04436767  0.61670882  1
  O  O5  1  0.04436771  0.95563245  0.38329125  1
  O  O6  1  0.23477049  0.76522938  0.74999990  1
  O  O7  1  0.76522904  0.23477029  0.24999991  1
  O  O8  1  0.95563255  0.04436763  0.88329130  1
  O  O9  1  0.04436756  0.95563268  0.11670867  1
loop_
_geom_bond_atom_site_label_1
_geom_bond_atom_site_label_2
_geom_bond_distance
_geom_bond_site_symmetry_2
Al0 O5 1.825396 1_645
Al0 O1 1.851709 1_545
Al0 O1 1.851709 1_655
Al0 O4 1.894378 1_555
Al0 O0 1.993250 1_555
Al0 O7 2.073300 1_555
Al1 O4 1.825395 1_465
Al1 O0 1.851709 1_455
Al1 O0 1.851709 1_565
Al1 O5 1.894377 1_555
Al1 O1 1.993249 1_555
Al1 O6 2.073299 1_555
Al2 O9 1.825394 1_645
Al2 O2 1.851709 1_545
Al2 O2 1.851710 1_655
Al2 O8 1.894377 1_554
Al2 O3 1.993250 1_554
Al2 O7 2.073298 1_555
Al3 O8 1.825394 1_465
Al3 O3 1.851709 1_455
Al3 O3 1.851709 1_565
Al3 O9 1.894377 1_556
Al3 O2 1.993250 1_556
Al3 O6 2.073300 1_555
O0 Ti0 2.141071 1_555
O1 Ti1 2.141067 1_555
O2 Ti1 2.141072 1_555
O3 Ti0 2.141073 1_555
O4 Ti0 1.837210 1_555
O5 Ti1 1.837210 1_555
O6 Ti0 1.947994 1_565
O6 Ti0 1.948003 1_455
O7 Ti1 1.947987 1_545
O7 Ti1 1.948009 1_655
O8 Ti0 1.837214 1_555
O9 Ti1 1.837217 1_555
