# generated using pymatgen
data_Nb2CuO6
_symmetry_space_group_name_H-M   'P 1'
_cell_length_a   5.24710100
_cell_length_b   5.67929100
_cell_length_c   14.35923000
_cell_angle_alpha   90.00000000
_cell_angle_beta   90.00000000
_cell_angle_gamma   90.00000000
_symmetry_Int_Tables_number   1
_chemical_formula_structural   Nb2CuO6
_chemical_formula_sum   'Nb8 Cu4 O24'
_cell_volume   427.90237579
_cell_formula_units_Z   4
loop_
 _symmetry_equiv_pos_site_id
 _symmetry_equiv_pos_as_xyz
  1  'x, y, z'
loop_
 _atom_site_type_symbol
 _atom_site_label
 _atom_site_symmetry_multiplicity
 _atom_site_fract_x
 _atom_site_fract_y
 _atom_site_fract_z
 _atom_site_occupancy
  Nb  Nb0  1  0.20196500  0.31633700  0.83988300  1
  Nb  Nb1  1  0.79803500  0.18366300  0.33988300  1
  Nb  Nb2  1  0.79803500  0.68366300  0.16011700  1
  Nb  Nb3  1  0.20196500  0.81633700  0.66011700  1
  Nb  Nb4  1  0.29803500  0.81633700  0.33988300  1
  Nb  Nb5  1  0.70196500  0.68366300  0.83988300  1
  Nb  Nb6  1  0.70196500  0.18366300  0.66011700  1
  Nb  Nb7  1  0.29803500  0.31633700  0.16011700  1
  Cu  Cu0  1  0.75000000  0.67094600  0.50000000  1
  Cu  Cu1  1  0.25000000  0.82905400  0.00000000  1
  Cu  Cu2  1  0.25000000  0.32905400  0.50000000  1
  Cu  Cu3  1  0.75000000  0.17094600  0.00000000  1
  O  O0  1  0.52876100  0.36624100  0.75998400  1
  O  O1  1  0.47123900  0.13375900  0.25998400  1
  O  O2  1  0.47123900  0.63375900  0.24001600  1
  O  O3  1  0.52876100  0.86624100  0.74001600  1
  O  O4  1  0.67317500  0.41407900  0.41455900  1
  O  O5  1  0.32682500  0.08592100  0.91455900  1
  O  O6  1  0.32682500  0.58592100  0.58544100  1
  O  O7  1  0.67317500  0.91407900  0.08544100  1
  O  O8  1  0.61528900  0.39960600  0.09212800  1
  O  O9  1  0.38471100  0.10039400  0.59212800  1
  O  O10  1  0.38471100  0.60039400  0.90787200  1
  O  O11  1  0.61528900  0.89960600  0.40787200  1
  O  O12  1  0.88471100  0.89960600  0.59212800  1
  O  O13  1  0.11528900  0.60039400  0.09212800  1
  O  O14  1  0.11528900  0.10039400  0.40787200  1
  O  O15  1  0.88471100  0.39960600  0.90787200  1
  O  O16  1  0.82682500  0.91407900  0.91455900  1
  O  O17  1  0.17317500  0.58592100  0.41455900  1
  O  O18  1  0.17317500  0.08592100  0.08544100  1
  O  O19  1  0.82682500  0.41407900  0.58544100  1
  O  O20  1  0.97123900  0.86624100  0.25998400  1
  O  O21  1  0.02876100  0.63375900  0.75998400  1
  O  O22  1  0.02876100  0.13375900  0.74001600  1
  O  O23  1  0.97123900  0.36624100  0.24001600  1
loop_
_geom_bond_atom_site_label_1
_geom_bond_atom_site_label_2
_geom_bond_distance
_geom_bond_site_symmetry_2
Nb0 O5 1.814239 1_555
Nb0 O15 1.986920 1_455
Nb0 O22 1.989356 1_555
Nb0 O0 2.082523 1_555
Nb0 O10 2.115447 1_555
Nb0 O21 2.322082 1_555
Nb1 O4 1.814239 1_555
Nb1 O14 1.986920 1_655
Nb1 O23 1.989356 1_555
Nb1 O1 2.082523 1_555
Nb1 O11 2.115447 1_545
Nb1 O20 2.322082 1_545
Nb2 O7 1.814239 1_555
Nb2 O13 1.986920 1_655
Nb2 O20 1.989356 1_555
Nb2 O2 2.082523 1_555
Nb2 O8 2.115447 1_555
Nb2 O23 2.322082 1_555
Nb3 O6 1.814239 1_555
Nb3 O12 1.986920 1_455
Nb3 O21 1.989356 1_555
Nb3 O3 2.082523 1_555
Nb3 O9 2.115447 1_565
Nb3 O22 2.322082 1_565
Nb4 O17 1.814239 1_555
Nb4 O11 1.986920 1_555
Nb4 O2 1.989356 1_555
Nb4 O20 2.082523 1_455
Nb4 O14 2.115447 1_565
Nb4 O1 2.322082 1_565
Nb5 O16 1.814239 1_555
Nb5 O10 1.986920 1_555
Nb5 O3 1.989356 1_555
Nb5 O21 2.082523 1_655
Nb5 O15 2.115447 1_555
Nb5 O0 2.322082 1_555
Nb6 O19 1.814239 1_555
Nb6 O9 1.986920 1_555
Nb6 O0 1.989356 1_555
Nb6 O22 2.082523 1_655
Nb6 O12 2.115447 1_545
Nb6 O3 2.322082 1_545
Nb7 O18 1.814239 1_555
Nb7 O8 1.986920 1_555
Nb7 O1 1.989356 1_555
Nb7 O23 2.082523 1_455
Nb7 O13 2.115447 1_555
Nb7 O2 2.322082 1_555
Cu0 O19 1.948297 1_555
Cu0 O4 1.948297 1_555
Cu0 O12 1.983958 1_555
Cu0 O11 1.983958 1_555
Cu0 O6 2.582390 1_555
Cu0 O17 2.582390 1_655
Cu1 O5 1.948297 1_564
Cu1 O18 1.948297 1_565
Cu1 O10 1.983958 1_554
Cu1 O13 1.983958 1_555
Cu1 O7 2.582390 1_555
Cu1 O16 2.582390 1_454
Cu2 O6 1.948297 1_555
Cu2 O17 1.948297 1_555
Cu2 O9 1.983958 1_555
Cu2 O14 1.983958 1_555
Cu2 O19 2.582390 1_455
Cu2 O4 2.582390 1_555
Cu3 O16 1.948297 1_544
Cu3 O7 1.948297 1_545
Cu3 O15 1.983958 1_554
Cu3 O8 1.983958 1_555
Cu3 O18 2.582390 1_655
Cu3 O5 2.582390 1_554
