# generated using pymatgen
data_Yb2CdPd2
_symmetry_space_group_name_H-M   'P 1'
_cell_length_a   7.61759565
_cell_length_b   7.61759565
_cell_length_c   3.59775668
_cell_angle_alpha   90.00000000
_cell_angle_beta   90.00000000
_cell_angle_gamma   90.00000000
_symmetry_Int_Tables_number   1
_chemical_formula_structural   Yb2CdPd2
_chemical_formula_sum   'Yb4 Cd2 Pd4'
_cell_volume   208.76977398
_cell_formula_units_Z   2
loop_
 _symmetry_equiv_pos_site_id
 _symmetry_equiv_pos_as_xyz
  1  'x, y, z'
loop_
 _atom_site_type_symbol
 _atom_site_label
 _atom_site_symmetry_multiplicity
 _atom_site_fract_x
 _atom_site_fract_y
 _atom_site_fract_z
 _atom_site_occupancy
  Yb  Yb0  1  0.33037627  0.83037627  0.50000000  1
  Yb  Yb1  1  0.83037627  0.66962373  0.50000000  1
  Yb  Yb2  1  0.16962373  0.33037627  0.50000000  1
  Yb  Yb3  1  0.66962373  0.16962373  0.50000000  1
  Cd  Cd0  1  0.00000000  0.00000000  0.00000000  1
  Cd  Cd1  1  0.50000000  0.50000000  0.00000000  1
  Pd  Pd0  1  0.36905765  0.13094235  0.00000000  1
  Pd  Pd1  1  0.86905765  0.36905765  0.00000000  1
  Pd  Pd2  1  0.13094235  0.63094235  0.00000000  1
  Pd  Pd3  1  0.63094235  0.86905765  0.00000000  1
loop_
_geom_bond_atom_site_label_1
_geom_bond_atom_site_label_2
_geom_bond_distance
_geom_bond_site_symmetry_2
Cd0 Pd0 2.983040 1_555
Cd0 Pd1 2.983040 1_455
Cd0 Pd2 2.983040 1_545
Cd0 Pd3 2.983040 1_445
Cd0 Yb2 3.352490 1_555
Cd0 Yb2 3.352490 1_554
Cd0 Yb0 3.352490 1_545
Cd0 Yb0 3.352490 1_544
Cd0 Yb3 3.352490 1_454
Cd0 Yb3 3.352490 1_455
Cd0 Yb1 3.352490 1_444
Cd0 Yb1 3.352490 1_445
Cd1 Pd3 2.983040 1_555
Cd1 Pd1 2.983040 1_555
Cd1 Pd2 2.983040 1_555
Cd1 Pd0 2.983040 1_555
Cd1 Yb1 3.352490 1_554
Cd1 Yb1 3.352490 1_555
Cd1 Yb0 3.352490 1_555
Cd1 Yb0 3.352490 1_554
Cd1 Yb3 3.352490 1_555
Cd1 Yb3 3.352490 1_554
Cd1 Yb2 3.352490 1_555
Cd1 Yb2 3.352490 1_554
Pd0 Yb2 2.802132 1_554
Pd0 Yb2 2.802132 1_555
Pd0 Pd3 2.821259 1_545
Pd0 Yb0 2.926604 1_545
Pd0 Yb0 2.926604 1_544
Pd0 Yb3 2.926604 1_555
Pd0 Yb3 2.926604 1_554
Pd1 Yb3 2.802132 1_555
Pd1 Yb3 2.802132 1_554
Pd1 Pd2 2.821259 1_655
Pd1 Yb2 2.926604 1_655
Pd1 Yb2 2.926604 1_654
Pd1 Yb1 2.926604 1_554
Pd1 Yb1 2.926604 1_555
Pd2 Yb0 2.802132 1_555
Pd2 Yb0 2.802132 1_554
Pd2 Yb1 2.926604 1_455
Pd2 Yb1 2.926604 1_454
Pd2 Yb2 2.926604 1_554
Pd2 Yb2 2.926604 1_555
Pd3 Yb1 2.802132 1_554
Pd3 Yb1 2.802132 1_555
Pd3 Yb0 2.926604 1_555
Pd3 Yb0 2.926604 1_554
Pd3 Yb3 2.926604 1_565
Pd3 Yb3 2.926604 1_564
