# generated using pymatgen
data_NaNdTiNbO6F
_symmetry_space_group_name_H-M   'P 1'
_cell_length_a   7.37842900
_cell_length_b   7.37842900
_cell_length_c   10.47547700
_cell_angle_alpha   90.00000000
_cell_angle_beta   90.00000000
_cell_angle_gamma   90.00000000
_symmetry_Int_Tables_number   1
_chemical_formula_structural   NaNdTiNbO6F
_chemical_formula_sum   'Na4 Nd4 Ti4 Nb4 O24 F4'
_cell_volume   570.29769043
_cell_formula_units_Z   4
loop_
 _symmetry_equiv_pos_site_id
 _symmetry_equiv_pos_as_xyz
  1  'x, y, z'
loop_
 _atom_site_type_symbol
 _atom_site_label
 _atom_site_symmetry_multiplicity
 _atom_site_fract_x
 _atom_site_fract_y
 _atom_site_fract_z
 _atom_site_occupancy
  Na  Na0  1  0.50000000  0.72960600  0.00000000  1
  Na  Na1  1  0.50000000  0.27039400  0.50000000  1
  Na  Na2  1  0.72960600  0.50000000  0.75000000  1
  Na  Na3  1  0.27039400  0.50000000  0.25000000  1
  Nd  Nd0  1  0.00000000  0.72599400  0.00000000  1
  Nd  Nd1  1  0.27400600  0.00000000  0.25000000  1
  Nd  Nd2  1  0.72599400  0.00000000  0.75000000  1
  Nd  Nd3  1  0.00000000  0.27400600  0.50000000  1
  Ti  Ti0  1  0.76467100  0.00000000  0.25000000  1
  Ti  Ti1  1  0.00000000  0.23532900  0.00000000  1
  Ti  Ti2  1  0.23532900  0.00000000  0.75000000  1
  Ti  Ti3  1  0.00000000  0.76467100  0.50000000  1
  Nb  Nb0  1  0.50000000  0.75748300  0.50000000  1
  Nb  Nb1  1  0.24251700  0.50000000  0.75000000  1
  Nb  Nb2  1  0.50000000  0.24251700  0.00000000  1
  Nb  Nb3  1  0.75748300  0.50000000  0.25000000  1
  O  O0  1  0.55672200  0.94810100  0.36771000  1
  O  O1  1  0.75146800  0.77319000  0.57173900  1
  O  O2  1  0.95836600  0.95836600  0.37500000  1
  O  O3  1  0.04163400  0.04163400  0.87500000  1
  O  O4  1  0.05189900  0.44327800  0.88229000  1
  O  O5  1  0.04163400  0.95836600  0.62500000  1
  O  O6  1  0.22681000  0.24853200  0.67826100  1
  O  O7  1  0.22681000  0.75146800  0.82173900  1
  O  O8  1  0.24853200  0.22681000  0.07173900  1
  O  O9  1  0.44327800  0.05189900  0.86771000  1
  O  O10  1  0.43784100  0.43784100  0.87500000  1
  O  O11  1  0.44327800  0.94810100  0.63229000  1
  O  O12  1  0.56215900  0.43784100  0.12500000  1
  O  O13  1  0.56215900  0.56215900  0.37500000  1
  O  O14  1  0.55672200  0.05189900  0.13229000  1
  O  O15  1  0.77319000  0.75146800  0.17826100  1
  O  O16  1  0.75146800  0.22681000  0.92826100  1
  O  O17  1  0.77319000  0.24853200  0.32173900  1
  O  O18  1  0.94810100  0.55672200  0.38229000  1
  O  O19  1  0.95836600  0.04163400  0.12500000  1
  O  O20  1  0.94810100  0.44327800  0.11771000  1
  O  O21  1  0.05189900  0.55672200  0.61771000  1
  O  O22  1  0.24853200  0.77319000  0.42826100  1
  O  O23  1  0.43784100  0.56215900  0.62500000  1
  F  F0  1  0.74128300  0.25871700  0.62500000  1
  F  F1  1  0.25871700  0.74128300  0.12500000  1
  F  F2  1  0.25871700  0.25871700  0.37500000  1
  F  F3  1  0.74128300  0.74128300  0.87500000  1
loop_
_geom_bond_atom_site_label_1
_geom_bond_atom_site_label_2
_geom_bond_distance
_geom_bond_site_symmetry_2
Na0 O10 2.561127 1_554
Na0 O12 2.561127 1_555
Na0 O7 2.752487 1_554
Na0 O15 2.752487 1_555
Na0 O9 2.783983 1_564
Na0 O14 2.783983 1_565
Na1 O23 2.561127 1_555
Na1 O13 2.561127 1_555
Na1 O6 2.752487 1_555
Na1 O17 2.752487 1_555
Na1 O0 2.783983 1_545
Na1 O11 2.783983 1_545
Na2 O10 2.561127 1_555
Na2 O23 2.561127 1_555
Na2 O16 2.752487 1_555
Na2 O1 2.752487 1_555
Na2 O21 2.783983 1_655
Na2 O4 2.783983 1_655
Na3 O12 2.561127 1_555
Na3 O13 2.561127 1_555
Na3 O8 2.752487 1_555
Na3 O22 2.752487 1_555
Na3 O18 2.783983 1_455
Na3 O20 2.783983 1_455
Nd0 O20 2.453261 1_455
Nd0 O4 2.453261 1_554
Nd0 O7 2.514558 1_554
Nd0 O15 2.514558 1_455
Nd0 O3 2.689403 1_564
Nd0 O19 2.689403 1_465
Nd1 O14 2.453261 1_555
Nd1 O0 2.453261 1_545
Nd1 O22 2.514558 1_545
Nd1 O8 2.514558 1_555
Nd1 O19 2.689403 1_455
Nd1 O2 2.689403 1_445
Nd2 O11 2.453261 1_545
Nd2 O9 2.453261 1_555
Nd2 O1 2.514558 1_545
Nd2 O16 2.514558 1_555
Nd2 O3 2.689403 1_655
Nd2 O5 2.689403 1_645
Nd3 O18 2.453261 1_455
Nd3 O21 2.453261 1_555
Nd3 O17 2.514558 1_455
Nd3 O6 2.514558 1_555
Nd3 O5 2.689403 1_545
Nd3 O2 2.689403 1_445
Nb0 O13 2.000494 1_555
Nb0 O23 2.000494 1_555
Nb0 O1 2.005202 1_555
Nb0 O22 2.005202 1_555
Nb0 O0 2.018350 1_555
Nb0 O11 2.018350 1_555
Nb1 O23 2.000494 1_555
Nb1 O10 2.000494 1_555
Nb1 O7 2.005202 1_555
Nb1 O6 2.005202 1_555
Nb1 O21 2.018350 1_555
Nb1 O4 2.018350 1_555
Nb2 O12 2.000494 1_555
Nb2 O10 2.000494 1_554
Nb2 O16 2.005202 1_554
Nb2 O8 2.005202 1_555
Nb2 O14 2.018350 1_555
Nb2 O9 2.018350 1_554
Nb3 O12 2.000494 1_555
Nb3 O13 2.000494 1_555
Nb3 O15 2.005202 1_555
Nb3 O17 2.005202 1_555
Nb3 O18 2.018350 1_555
Nb3 O20 2.018350 1_555
O0 Ti0 2.005314 1_565
O1 Ti3 1.982785 1_655
O2 Ti0 1.962524 1_565
O2 Ti3 1.962524 1_655
O3 Ti1 1.962524 1_556
O3 Ti2 1.962524 1_555
O4 Ti1 2.005314 1_556
O5 Ti3 1.962524 1_555
O5 Ti2 1.962524 1_565
O6 Ti2 1.982785 1_555
O7 Ti2 1.982785 1_565
O8 Ti1 1.982785 1_555
O9 Ti2 2.005314 1_555
O11 Ti2 2.005314 1_565
O14 Ti0 2.005314 1_555
O15 Ti0 1.982785 1_565
O16 Ti1 1.982785 1_656
O17 Ti0 1.982785 1_555
O18 Ti3 2.005314 1_655
O19 Ti0 1.962524 1_555
O19 Ti1 1.962524 1_655
O20 Ti1 2.005314 1_655
O21 Ti3 2.005314 1_555
O22 Ti3 1.982785 1_555
F0 Na1 2.211667 1_555
F0 Na2 2.211667 1_555
F0 Nd2 2.317615 1_555
F0 Nd3 2.317615 1_655
F1 Na3 2.211667 1_555
F1 Na0 2.211667 1_555
F1 Nd0 2.317615 1_555
F1 Nd1 2.317615 1_565
F2 Na1 2.211667 1_555
F2 Na3 2.211667 1_555
F2 Nd3 2.317615 1_555
F2 Nd1 2.317615 1_555
F3 Na2 2.211667 1_555
F3 Na0 2.211667 1_556
F3 Nd0 2.317615 1_656
F3 Nd2 2.317615 1_565
