# generated using pymatgen
data_CaNbO3
_symmetry_space_group_name_H-M   'P 1'
_cell_length_a   5.55886600
_cell_length_b   5.71631700
_cell_length_c   7.98312100
_cell_angle_alpha   90.00000000
_cell_angle_beta   90.00000000
_cell_angle_gamma   90.00000000
_symmetry_Int_Tables_number   1
_chemical_formula_structural   CaNbO3
_chemical_formula_sum   'Ca4 Nb4 O12'
_cell_volume   253.67357057
_cell_formula_units_Z   4
loop_
 _symmetry_equiv_pos_site_id
 _symmetry_equiv_pos_as_xyz
  1  'x, y, z'
loop_
 _atom_site_type_symbol
 _atom_site_label
 _atom_site_symmetry_multiplicity
 _atom_site_fract_x
 _atom_site_fract_y
 _atom_site_fract_z
 _atom_site_occupancy
  Ca  Ca0  1  0.00871800  0.05194800  0.25000000  1
  Ca  Ca1  1  0.50871800  0.44805200  0.75000000  1
  Ca  Ca2  1  0.49128200  0.55194800  0.25000000  1
  Ca  Ca3  1  0.99128200  0.94805200  0.75000000  1
  Nb  Nb0  1  0.50000000  0.00000000  0.00000000  1
  Nb  Nb1  1  0.00000000  0.50000000  0.00000000  1
  Nb  Nb2  1  0.00000000  0.50000000  0.50000000  1
  Nb  Nb3  1  0.50000000  0.00000000  0.50000000  1
  O  O0  1  0.80095200  0.20329700  0.54553600  1
  O  O1  1  0.30095200  0.29670300  0.45446400  1
  O  O2  1  0.69904800  0.70329700  0.95446400  1
  O  O3  1  0.19904800  0.79670300  0.04553600  1
  O  O4  1  0.19904800  0.79670300  0.45446400  1
  O  O5  1  0.69904800  0.70329700  0.54553600  1
  O  O6  1  0.30095200  0.29670300  0.04553600  1
  O  O7  1  0.80095200  0.20329700  0.95446400  1
  O  O8  1  0.58759900  0.97227600  0.25000000  1
  O  O9  1  0.08759900  0.52772400  0.75000000  1
  O  O10  1  0.91240100  0.47227600  0.25000000  1
  O  O11  1  0.41240100  0.02772400  0.75000000  1
loop_
_geom_bond_atom_site_label_1
_geom_bond_atom_site_label_2
_geom_bond_distance
_geom_bond_site_symmetry_2
Ca0 O8 2.384835 1_445
Ca0 O4 2.431571 1_545
Ca0 O3 2.431571 1_545
Ca0 O10 2.461660 1_455
Ca0 O6 2.694571 1_555
Ca0 O1 2.694571 1_555
Ca0 O0 2.765626 1_455
Ca0 O7 2.765626 1_454
Ca1 O9 2.384835 1_555
Ca1 O5 2.431571 1_555
Ca1 O2 2.431571 1_555
Ca1 O11 2.461660 1_555
Ca1 O0 2.694571 1_555
Ca1 O7 2.694571 1_555
Ca1 O1 2.765626 1_555
Ca1 O6 2.765626 1_556
Ca2 O10 2.384835 1_555
Ca2 O1 2.431571 1_555
Ca2 O6 2.431571 1_555
Ca2 O8 2.461660 1_555
Ca2 O4 2.694571 1_555
Ca2 O3 2.694571 1_555
Ca2 O2 2.765626 1_554
Ca2 O5 2.765626 1_555
Ca3 O11 2.384835 1_665
Ca3 O0 2.431571 1_565
Ca3 O7 2.431571 1_565
Ca3 O9 2.461660 1_655
Ca3 O5 2.694571 1_555
Ca3 O2 2.694571 1_555
Ca3 O3 2.765626 1_656
Ca3 O4 2.765626 1_655
Nb0 O6 2.057432 1_555
Nb0 O2 2.057432 1_544
Nb0 O8 2.060431 1_545
Nb0 O11 2.060431 1_554
Nb0 O3 2.069158 1_545
Nb0 O7 2.069158 1_554
Nb1 O7 2.057432 1_454
Nb1 O3 2.057432 1_555
Nb1 O10 2.060431 1_455
Nb1 O9 2.060431 1_554
Nb1 O2 2.069158 1_454
Nb1 O6 2.069158 1_555
Nb2 O0 2.057432 1_455
Nb2 O4 2.057432 1_555
Nb2 O10 2.060431 1_455
Nb2 O9 2.060431 1_555
Nb2 O5 2.069158 1_455
Nb2 O1 2.069158 1_555
Nb3 O1 2.057432 1_555
Nb3 O5 2.057432 1_545
Nb3 O11 2.060431 1_555
Nb3 O8 2.060431 1_545
Nb3 O4 2.069158 1_545
Nb3 O0 2.069158 1_555
