# generated using pymatgen
data_Al2ZnS4
_symmetry_space_group_name_H-M   'P 1'
_cell_length_a   7.07716929
_cell_length_b   7.07716840
_cell_length_c   7.07716894
_cell_angle_alpha   59.99999279
_cell_angle_beta   59.99999694
_cell_angle_gamma   59.99999384
_symmetry_Int_Tables_number   1
_chemical_formula_structural   Al2ZnS4
_chemical_formula_sum   'Al4 Zn2 S8'
_cell_volume   250.64764282
_cell_formula_units_Z   2
loop_
 _symmetry_equiv_pos_site_id
 _symmetry_equiv_pos_as_xyz
  1  'x, y, z'
loop_
 _atom_site_type_symbol
 _atom_site_label
 _atom_site_symmetry_multiplicity
 _atom_site_fract_x
 _atom_site_fract_y
 _atom_site_fract_z
 _atom_site_occupancy
  Al  Al0  1  0.50000000  -0.00000000  0.50000000  1
  Al  Al1  1  0.00000000  0.50000000  0.50000000  1
  Al  Al2  1  0.50000000  0.50000000  0.50000000  1
  Al  Al3  1  0.50000000  0.50000000  -0.00000000  1
  Zn  Zn0  1  0.12500000  0.12500000  0.12500000  1
  Zn  Zn1  1  0.87500000  0.87500000  0.87500000  1
  S  S0  1  0.25937529  0.25937529  0.72187412  1
  S  S1  1  0.74062471  0.74062471  0.74062471  1
  S  S2  1  0.25937529  0.25937529  0.25937529  1
  S  S3  1  0.74062471  0.74062471  0.27812588  1
  S  S4  1  0.27812588  0.74062471  0.74062471  1
  S  S5  1  0.74062471  0.27812588  0.74062471  1
  S  S6  1  0.72187412  0.25937529  0.25937529  1
  S  S7  1  0.25937529  0.72187412  0.25937529  1
loop_
_geom_bond_atom_site_label_1
_geom_bond_atom_site_label_2
_geom_bond_distance
_geom_bond_site_symmetry_2
Al0 S0 2.411976 1_555
Al0 S3 2.411976 1_545
Al0 S6 2.411976 1_555
Al0 S4 2.411976 1_545
Al0 S2 2.411976 1_555
Al0 S1 2.411976 1_545
Al1 S0 2.411976 1_555
Al1 S3 2.411976 1_455
Al1 S1 2.411976 1_455
Al1 S2 2.411976 1_555
Al1 S7 2.411976 1_555
Al1 S5 2.411976 1_455
Al2 S4 2.411976 1_555
Al2 S6 2.411976 1_555
Al2 S5 2.411976 1_555
Al2 S7 2.411976 1_555
Al2 S3 2.411976 1_555
Al2 S0 2.411976 1_555
Al3 S6 2.411976 1_555
Al3 S4 2.411976 1_554
Al3 S7 2.411976 1_555
Al3 S5 2.411976 1_554
Al3 S2 2.411976 1_555
Al3 S1 2.411976 1_554
S0 Zn0 2.329456 1_556
S1 Zn1 2.329457 1_555
S2 Zn0 2.329457 1_555
S3 Zn1 2.329456 1_554
S4 Zn1 2.329457 1_455
S5 Zn1 2.329456 1_545
S6 Zn0 2.329457 1_655
S7 Zn0 2.329456 1_565
