# generated using pymatgen
data_CaAu2
_symmetry_space_group_name_H-M   'P 1'
_cell_length_a   4.57999710
_cell_length_b   5.91836558
_cell_length_c   5.91836671
_cell_angle_alpha   73.53279979
_cell_angle_beta   67.23633495
_cell_angle_gamma   67.23633539
_symmetry_Int_Tables_number   1
_chemical_formula_structural   CaAu2
_chemical_formula_sum   'Ca2 Au4'
_cell_volume   134.70772354
_cell_formula_units_Z   2
loop_
 _symmetry_equiv_pos_site_id
 _symmetry_equiv_pos_as_xyz
  1  'x, y, z'
loop_
 _atom_site_type_symbol
 _atom_site_label
 _atom_site_symmetry_multiplicity
 _atom_site_fract_x
 _atom_site_fract_y
 _atom_site_fract_z
 _atom_site_occupancy
  Ca  Ca0  1  0.54229822  0.70770178  0.20770178  1
  Ca  Ca1  1  0.45770178  0.29229822  0.79229822  1
  Au  Au0  1  0.16010451  0.30064341  0.37914758  1
  Au  Au1  1  0.83989549  0.69935659  0.62085242  1
  Au  Au2  1  0.16010451  0.87914758  0.80064341  1
  Au  Au3  1  0.83989549  0.12085242  0.19935659  1
loop_
_geom_bond_atom_site_label_1
_geom_bond_atom_site_label_2
_geom_bond_distance
_geom_bond_site_symmetry_2
Au0 Au1 2.716173 1_455
Au0 Au3 2.733574 1_555
Au0 Au3 2.733574 1_455
Au0 Au2 2.986265 1_545
Au0 Ca1 3.208990 1_455
Au0 Ca1 3.208991 1_555
Au0 Ca1 3.210138 1_554
Au0 Ca0 3.224989 1_555
Au0 Ca0 3.224989 1_455
Au0 Ca0 3.506997 1_545
Au1 Au2 2.733574 1_555
Au1 Au2 2.733574 1_655
Au1 Au3 2.986265 1_565
Au1 Ca0 3.208990 1_655
Au1 Ca0 3.208991 1_555
Au1 Ca0 3.210138 1_556
Au1 Ca1 3.224989 1_555
Au1 Ca1 3.224989 1_655
Au1 Ca1 3.506997 1_565
Au2 Au3 2.716173 1_466
Au2 Ca1 3.208990 1_565
Au2 Ca1 3.208990 1_465
Au2 Ca1 3.210137 1_555
Au2 Ca0 3.224989 1_456
Au2 Ca0 3.224989 1_556
Au2 Ca0 3.506997 1_555
Au3 Ca0 3.208990 1_545
Au3 Ca0 3.208990 1_645
Au3 Ca0 3.210137 1_555
Au3 Ca1 3.224989 1_654
Au3 Ca1 3.224989 1_554
Au3 Ca1 3.506997 1_555
