# generated using pymatgen
data_Na6U2Mo4O21
_symmetry_space_group_name_H-M   'P 1'
_cell_length_a   7.79274900
_cell_length_b   8.30857155
_cell_length_c   8.86754818
_cell_angle_alpha   72.07962757
_cell_angle_beta   78.62571812
_cell_angle_gamma   65.39777585
_symmetry_Int_Tables_number   1
_chemical_formula_structural   Na6U2Mo4O21
_chemical_formula_sum   'Na6 U2 Mo4 O21'
_cell_volume   495.10915341
_cell_formula_units_Z   1
loop_
 _symmetry_equiv_pos_site_id
 _symmetry_equiv_pos_as_xyz
  1  'x, y, z'
loop_
 _atom_site_type_symbol
 _atom_site_label
 _atom_site_symmetry_multiplicity
 _atom_site_fract_x
 _atom_site_fract_y
 _atom_site_fract_z
 _atom_site_occupancy
  Na  Na0  1  0.72924100  0.90428400  0.34525000  1
  Na  Na1  1  0.54694400  0.59938600  0.65116400  1
  Na  Na2  1  0.05441100  0.75487300  0.01052600  1
  Na  Na3  1  0.45305600  0.40061400  0.34883600  1
  Na  Na4  1  0.94558900  0.24512700  0.98947400  1
  Na  Na5  1  0.27075900  0.09571600  0.65475000  1
  U  U0  1  0.21359100  0.92221200  0.31488200  1
  U  U1  1  0.78640900  0.07778800  0.68511800  1
  Mo  Mo0  1  0.44424400  0.24891200  0.01627100  1
  Mo  Mo1  1  0.93924600  0.41390700  0.35499800  1
  Mo  Mo2  1  0.55575600  0.75108800  0.98372900  1
  Mo  Mo3  1  0.06075400  0.58609300  0.64500200  1
  O  O0  1  0.39450600  0.92909300  0.42069000  1
  O  O1  1  0.67373400  0.91571900  0.92528900  1
  O  O2  1  0.60549400  0.07090700  0.57931000  1
  O  O3  1  0.15306900  0.35943300  0.44225600  1
  O  O4  1  0.61822100  0.17967400  0.15095600  1
  O  O5  1  0.74655200  0.36520300  0.49841400  1
  O  O6  1  0.28002700  0.45813100  0.05136100  1
  O  O7  1  0.55144200  0.29679200  0.81033000  1
  O  O8  1  0.44855800  0.70320800  0.18967000  1
  O  O9  1  0.25344800  0.63479700  0.50158600  1
  O  O10  1  0.99510700  0.74010300  0.76899600  1
  O  O11  1  0.95757700  0.09129100  0.79646500  1
  O  O12  1  0.38177900  0.82032600  0.84904400  1
  O  O13  1  0.00000000  0.00000000  0.50000000  1
  O  O14  1  0.32626600  0.08428100  0.07471100  1
  O  O15  1  0.84693100  0.64056700  0.55774400  1
  O  O16  1  0.04242300  0.90870900  0.20353500  1
  O  O17  1  0.85714800  0.63810300  0.22845500  1
  O  O18  1  0.00489300  0.25989700  0.23100400  1
  O  O19  1  0.14285200  0.36189700  0.77154500  1
  O  O20  1  0.71997300  0.54186900  0.94863900  1
loop_
_geom_bond_atom_site_label_1
_geom_bond_atom_site_label_2
_geom_bond_distance
_geom_bond_site_symmetry_2
Na0 O4 2.337951 1_565
Na0 O15 2.379150 1_555
Na0 O17 2.474708 1_555
Na0 O0 2.498636 1_555
Na0 O16 2.524560 1_655
Na0 O2 2.649822 1_565
Na1 O15 2.448670 1_555
Na1 O7 2.465072 1_555
Na1 O5 2.512158 1_555
Na1 O12 2.688782 1_555
Na1 O9 2.733682 1_555
Na1 O0 2.809812 1_555
Na2 O6 2.322374 1_555
Na2 O10 2.327065 1_454
Na2 O16 2.399049 1_555
Na2 O17 2.440312 1_455
Na2 O11 2.743924 1_464
Na2 O12 2.844179 1_554
Na2 O1 2.849451 1_454
Na3 O3 2.448670 1_555
Na3 O8 2.465072 1_555
Na3 O9 2.512158 1_555
Na3 O4 2.688782 1_555
Na3 O5 2.733682 1_555
Na3 O2 2.809812 1_555
Na4 O20 2.322374 1_555
Na4 O18 2.327065 1_656
Na4 O11 2.399049 1_555
Na4 O19 2.440312 1_655
Na4 O16 2.743924 1_646
Na4 O4 2.844179 1_556
Na4 O14 2.849451 1_656
Na5 O12 2.337951 1_545
Na5 O3 2.379150 1_555
Na5 O19 2.474708 1_555
Na5 O2 2.498636 1_555
Na5 O11 2.524560 1_455
Na5 O0 2.649822 1_545
Mo0 O6 1.754930 1_555
Mo0 O4 1.778175 1_555
Mo0 O14 1.846011 1_555
Mo0 O7 1.849047 1_554
Mo1 O17 1.772818 1_555
Mo1 O18 1.790797 1_655
Mo1 O3 1.801418 1_655
Mo1 O5 1.863317 1_555
Mo2 O20 1.754930 1_555
Mo2 O12 1.778175 1_555
Mo2 O1 1.846011 1_555
Mo2 O8 1.849047 1_556
Mo3 O19 1.772818 1_555
Mo3 O10 1.790797 1_455
Mo3 O15 1.801418 1_455
Mo3 O9 1.863317 1_555
O0 U0 1.868977 1_555
O1 U1 2.366851 1_565
O2 U1 1.868977 1_555
O5 U1 2.385862 1_555
O7 U1 2.358763 1_555
O8 U0 2.358763 1_555
O9 U0 2.385862 1_555
O10 U1 2.542372 1_565
O11 U1 1.865196 1_555
O13 U0 2.135950 1_545
O13 U1 2.135950 1_455
O14 U0 2.366851 1_545
O16 U0 1.865196 1_555
O18 U0 2.542372 1_545
