# generated using pymatgen
data_Sb3O2F5
_symmetry_space_group_name_H-M   'P 1'
_cell_length_a   5.88998659
_cell_length_b   9.03582187
_cell_length_c   13.12133252
_cell_angle_alpha   72.63657262
_cell_angle_beta   90.00000000
_cell_angle_gamma   90.00000000
_symmetry_Int_Tables_number   1
_chemical_formula_structural   Sb3O2F5
_chemical_formula_sum   'Sb12 O8 F20'
_cell_volume   666.50659681
_cell_formula_units_Z   4
loop_
 _symmetry_equiv_pos_site_id
 _symmetry_equiv_pos_as_xyz
  1  'x, y, z'
loop_
 _atom_site_type_symbol
 _atom_site_label
 _atom_site_symmetry_multiplicity
 _atom_site_fract_x
 _atom_site_fract_y
 _atom_site_fract_z
 _atom_site_occupancy
  Sb  Sb0  1  0.96218484  0.75000000  -0.00000000  1
  Sb  Sb1  1  0.03781516  0.25000000  -0.00000000  1
  Sb  Sb2  1  0.56267237  0.87805114  0.20777785  1
  Sb  Sb3  1  0.56267237  0.62194886  0.79222215  1
  Sb  Sb4  1  0.43732763  0.12194886  0.79222215  1
  Sb  Sb5  1  0.43732763  0.37805114  0.20777785  1
  Sb  Sb6  1  0.61164226  0.75000000  0.50000000  1
  Sb  Sb7  1  0.38835774  0.25000000  0.50000000  1
  Sb  Sb8  1  0.95851914  0.58118284  0.36155767  1
  Sb  Sb9  1  0.95851914  0.91881716  0.63844233  1
  Sb  Sb10  1  0.04148086  0.41881716  0.63844233  1
  Sb  Sb11  1  0.04148086  0.08118284  0.36155767  1
  O  O0  1  0.73679608  0.77794333  0.33913774  1
  O  O1  1  0.73679608  0.72205667  0.66086226  1
  O  O2  1  0.26320392  0.22205667  0.66086226  1
  O  O3  1  0.26320392  0.27794333  0.33913774  1
  O  O4  1  0.83150222  0.92430691  0.49254867  1
  O  O5  1  0.83150222  0.57569309  0.50745133  1
  O  O6  1  0.16849778  0.07569309  0.50745133  1
  O  O7  1  0.16849778  0.42430691  0.49254867  1
  F  F0  1  0.19787906  0.73434284  0.35958161  1
  F  F1  1  0.19787906  0.76565716  0.64041839  1
  F  F2  1  0.80212094  0.26565716  0.64041839  1
  F  F3  1  0.80212094  0.23434284  0.35958161  1
  F  F4  1  0.73630257  0.91454346  0.95998579  1
  F  F5  1  0.73630257  0.58545654  0.04001421  1
  F  F6  1  0.26369743  0.08545654  0.04001421  1
  F  F7  1  0.26369743  0.41454346  0.95998579  1
  F  F8  1  0.54436983  0.51218217  0.29594160  1
  F  F9  1  0.54436983  0.98781783  0.70405840  1
  F  F10  1  0.45563017  0.48781783  0.70405840  1
  F  F11  1  0.45563017  0.01218217  0.29594160  1
  F  F12  1  0.86952545  0.76825121  0.15110755  1
  F  F13  1  0.86952545  0.73174879  0.84889245  1
  F  F14  1  0.13047455  0.23174879  0.84889245  1
  F  F15  1  0.13047455  0.26825121  0.15110755  1
  F  F16  1  0.22533479  0.94929252  0.84383295  1
  F  F17  1  0.22533479  0.55070748  0.15616705  1
  F  F18  1  0.77466521  0.05070748  0.15616705  1
  F  F19  1  0.77466521  0.44929252  0.84383295  1
loop_
_geom_bond_atom_site_label_1
_geom_bond_atom_site_label_2
_geom_bond_distance
_geom_bond_site_symmetry_2
O0 Sb2 1.977455 1_555
O0 Sb8 2.154244 1_555
O0 Sb6 2.178124 1_555
O1 Sb3 1.977455 1_555
O1 Sb9 2.154244 1_555
O1 Sb6 2.178124 1_555
O2 Sb4 1.977455 1_555
O2 Sb10 2.154244 1_555
O2 Sb7 2.178124 1_555
O3 Sb5 1.977455 1_555
O3 Sb11 2.154244 1_555
O3 Sb7 2.178124 1_555
O4 Sb6 2.018724 1_555
O4 Sb9 2.042081 1_555
O4 Sb11 2.244756 1_665
O5 Sb6 2.018724 1_555
O5 Sb8 2.042081 1_555
O5 Sb10 2.244756 1_655
O6 Sb7 2.018724 1_555
O6 Sb11 2.042081 1_555
O6 Sb9 2.244756 1_445
O7 Sb7 2.018724 1_555
O7 Sb10 2.042081 1_555
O7 Sb8 2.244756 1_455
F0 Sb8 1.970309 1_455
F1 Sb9 1.970309 1_455
F2 Sb10 1.970309 1_655
F3 Sb11 1.970309 1_655
F4 Sb0 1.946883 1_556
F5 Sb0 1.946883 1_555
F6 Sb1 1.946883 1_555
F7 Sb1 1.946883 1_556
F8 Sb5 2.010345 1_555
F9 Sb4 2.010345 1_565
F10 Sb3 2.010345 1_555
F11 Sb2 2.010345 1_545
F12 Sb0 2.109845 1_555
F12 Sb2 2.290008 1_555
F13 Sb0 2.109845 1_556
F13 Sb3 2.290008 1_555
F14 Sb1 2.109845 1_556
F14 Sb4 2.290008 1_555
F15 Sb1 2.109845 1_555
F15 Sb5 2.290008 1_555
F16 Sb4 1.954736 1_565
F17 Sb5 1.954736 1_555
F18 Sb2 1.954736 1_545
F19 Sb3 1.954736 1_555
