# generated using pymatgen
data_Li14Ni9(P2O7)8
_symmetry_space_group_name_H-M   'P 1'
_cell_length_a   10.69446455
_cell_length_b   9.57745237
_cell_length_c   12.71343854
_cell_angle_alpha   69.67727044
_cell_angle_beta   116.23440890
_cell_angle_gamma   108.64100558
_symmetry_Int_Tables_number   1
_chemical_formula_structural   Li14Ni9(P2O7)8
_chemical_formula_sum   'Li14 Ni9 P16 O56'
_cell_volume   1073.76888759
_cell_formula_units_Z   1
loop_
 _symmetry_equiv_pos_site_id
 _symmetry_equiv_pos_as_xyz
  1  'x, y, z'
loop_
 _atom_site_type_symbol
 _atom_site_label
 _atom_site_symmetry_multiplicity
 _atom_site_fract_x
 _atom_site_fract_y
 _atom_site_fract_z
 _atom_site_occupancy
  Li  Li0  1  0.02573900  0.13632400  0.90223400  1
  Li  Li1  1  0.10057700  0.91758500  0.57054000  1
  Li  Li2  1  0.38175800  0.05329100  0.89763900  1
  Li  Li3  1  0.10484000  0.41899300  0.07274400  1
  Li  Li4  1  0.49767400  0.37616800  0.81840900  1
  Li  Li5  1  0.38227300  0.55009000  0.39995900  1
  Li  Li6  1  0.46458700  0.87732200  0.32614700  1
  Li  Li7  1  0.53541300  0.12267800  0.67385300  1
  Li  Li8  1  0.61772700  0.44991000  0.60004100  1
  Li  Li9  1  0.50232600  0.62383200  0.18159100  1
  Li  Li10  1  0.89516000  0.58100700  0.92725600  1
  Li  Li11  1  0.61824200  0.94670900  0.10236100  1
  Li  Li12  1  0.89942300  0.08241500  0.42946000  1
  Li  Li13  1  0.97426100  0.86367600  0.09776600  1
  Ni  Ni0  1  0.22117500  0.70150600  0.91905600  1
  Ni  Ni1  1  0.00000000  0.50000000  0.50000000  1
  Ni  Ni2  1  0.25861700  0.56809500  0.70056400  1
  Ni  Ni3  1  0.21910900  0.19776600  0.42053400  1
  Ni  Ni4  1  0.74957200  0.93244400  0.80561400  1
  Ni  Ni5  1  0.25042800  0.06755600  0.19438600  1
  Ni  Ni6  1  0.78089100  0.80223400  0.57946600  1
  Ni  Ni7  1  0.74138300  0.43190500  0.29943600  1
  Ni  Ni8  1  0.77882500  0.29849400  0.08094400  1
  P  P0  1  0.05253100  0.96405600  0.77599600  1
  P  P1  1  0.30072700  0.37054900  0.98525900  1
  P  P2  1  0.05371200  0.46703300  0.27726900  1
  P  P3  1  0.19526700  0.23510900  0.65367700  1
  P  P4  1  0.46694400  0.80147700  0.86890100  1
  P  P5  1  0.29012000  0.85699100  0.48137400  1
  P  P6  1  0.20017500  0.73317600  0.15276800  1
  P  P7  1  0.53351900  0.70259600  0.62928200  1
  P  P8  1  0.46648100  0.29740400  0.37071800  1
  P  P9  1  0.79982500  0.26682400  0.84723200  1
  P  P10  1  0.70988000  0.14300900  0.51862600  1
  P  P11  1  0.53305600  0.19852300  0.13109900  1
  P  P12  1  0.80473300  0.76489100  0.34632300  1
  P  P13  1  0.94628800  0.53296700  0.72273100  1
  P  P14  1  0.69927300  0.62945100  0.01474100  1
  P  P15  1  0.94746900  0.03594400  0.22400400  1
  O  O0  1  0.01982500  0.60059900  0.83285000  1
  O  O1  1  0.19649100  0.91921300  0.85897300  1
  O  O2  1  0.04264400  0.55670600  0.65523300  1
  O  O3  1  0.08924200  0.14841700  0.72809800  1
  O  O4  1  0.31242700  0.73885900  0.79066100  1
  O  O5  1  0.46124900  0.84407100  0.97338600  1
  O  O6  1  0.26497000  0.98461500  0.51243200  1
  O  O7  1  0.19673300  0.70340300  0.51737600  1
  O  O8  1  0.29455500  0.40535600  0.85759900  1
  O  O9  1  0.17130300  0.39917200  0.60615900  1
  O  O10  1  0.09199500  0.64980400  0.22728700  1
  O  O11  1  0.01613600  0.10499300  0.33319900  1
  O  O12  1  0.13714100  0.15544000  0.55030300  1
  O  O13  1  0.29480200  0.89603100  0.35627500  1
  O  O14  1  0.17465600  0.89487900  0.10722300  1
  O  O15  1  0.54837200  0.92801000  0.79751100  1
  O  O16  1  0.19622700  0.41885600  0.35985300  1
  O  O17  1  0.54014900  0.65657000  0.92520100  1
  O  O18  1  0.34637600  0.21803600  0.74034400  1
  O  O19  1  0.45317400  0.84190100  0.57463600  1
  O  O20  1  0.13864600  0.65238800  0.04960500  1
  O  O21  1  0.04236100  0.05476100  0.15773100  1
  O  O22  1  0.45663900  0.57126700  0.70209700  1
  O  O23  1  0.35099100  0.70944100  0.23896500  1
  O  O24  1  0.71348600  0.49939700  0.97823600  1
  O  O25  1  0.80053500  0.77721700  0.98116800  1
  O  O26  1  0.31222800  0.23236100  0.29437500  1
  O  O27  1  0.53871900  0.66339100  0.52264000  1
  O  O28  1  0.46128100  0.33660900  0.47736000  1
  O  O29  1  0.68777200  0.76763900  0.70562500  1
  O  O30  1  0.19946500  0.22278300  0.01883200  1
  O  O31  1  0.28651400  0.50060300  0.02176400  1
  O  O32  1  0.64900900  0.29055900  0.76103500  1
  O  O33  1  0.54336100  0.42873300  0.29790300  1
  O  O34  1  0.95763900  0.94523900  0.84226900  1
  O  O35  1  0.86135400  0.34761200  0.95039500  1
  O  O36  1  0.54682600  0.15809900  0.42536400  1
  O  O37  1  0.65362400  0.78196400  0.25965600  1
  O  O38  1  0.45985000  0.34343000  0.07479900  1
  O  O39  1  0.80377300  0.58114400  0.64014700  1
  O  O40  1  0.45162800  0.07199000  0.20248900  1
  O  O41  1  0.82534400  0.10512100  0.89277700  1
  O  O42  1  0.70519800  0.10396900  0.64372500  1
  O  O43  1  0.86285900  0.84456000  0.44969700  1
  O  O44  1  0.98386400  0.89500700  0.66680100  1
  O  O45  1  0.90800500  0.35019600  0.77271300  1
  O  O46  1  0.82869700  0.60082800  0.39384100  1
  O  O47  1  0.70544500  0.59464400  0.14240100  1
  O  O48  1  0.80326700  0.29659700  0.48262400  1
  O  O49  1  0.73503000  0.01538500  0.48756800  1
  O  O50  1  0.53875100  0.15592900  0.02661400  1
  O  O51  1  0.68757300  0.26114100  0.20933900  1
  O  O52  1  0.91075800  0.85158300  0.27190200  1
  O  O53  1  0.95735600  0.44329400  0.34476700  1
  O  O54  1  0.80350900  0.08078700  0.14102700  1
  O  O55  1  0.98017500  0.39940100  0.16715000  1
loop_
_geom_bond_atom_site_label_1
_geom_bond_atom_site_label_2
_geom_bond_distance
_geom_bond_site_symmetry_2
Li0 O30 1.941433 1_556
Li0 O41 2.021000 1_455
Li0 O34 2.021658 1_445
Li0 O45 2.442420 1_455
Li0 O3 2.544933 1_555
Li1 O44 2.023991 1_455
Li1 O6 2.036195 1_555
Li1 O12 2.126255 1_565
Li1 O43 2.338642 1_455
Li2 O1 1.940927 1_545
Li2 O50 2.025958 1_556
Li2 O18 2.037833 1_555
Li2 O5 2.165662 1_545
Li3 O20 2.081964 1_555
Li3 O55 2.086042 1_455
Li3 O31 2.143942 1_555
Li3 O35 2.384779 1_454
Li4 O22 1.975328 1_555
Li4 O18 1.988614 1_555
Li4 O32 2.476109 1_555
Li4 O8 2.546929 1_555
Li4 O24 2.574273 1_555
Li5 O16 1.935992 1_555
Li5 O27 2.029134 1_555
Li5 O23 2.044917 1_555
Li5 O28 2.198738 1_555
Li6 O40 1.975706 1_565
Li6 O23 2.021972 1_555
Li6 O13 2.084789 1_555
Li6 O27 2.607541 1_555
Li7 O15 1.975706 1_545
Li7 O32 2.021972 1_555
Li7 O42 2.084789 1_555
Li7 O28 2.607541 1_555
Li8 O39 1.935992 1_555
Li8 O28 2.029134 1_555
Li8 O32 2.044917 1_555
Li8 O27 2.198738 1_555
Li9 O33 1.975328 1_555
Li9 O37 1.988614 1_555
Li9 O23 2.476109 1_555
Li9 O47 2.546929 1_555
Li9 O31 2.574273 1_555
Li10 O35 2.081964 1_555
Li10 O0 2.086042 1_655
Li10 O24 2.143942 1_555
Li10 O20 2.384779 1_656
Li11 O54 1.940927 1_565
Li11 O5 2.025958 1_554
Li11 O37 2.037833 1_555
Li11 O50 2.165662 1_565
Li12 O11 2.023991 1_655
Li12 O49 2.036195 1_555
Li12 O43 2.126255 1_545
Li12 O12 2.338642 1_655
Li13 O25 1.941433 1_554
Li13 O14 2.021000 1_655
Li13 O21 2.021658 1_665
Li13 O10 2.442420 1_655
Li13 O52 2.544933 1_555
Ni0 O1 2.016928 1_555
Ni0 O0 2.022598 1_555
Ni0 O31 2.050186 1_556
Ni0 O20 2.059685 1_556
Ni0 O4 2.127067 1_555
Ni0 O5 2.404058 1_555
Ni1 O9 2.037147 1_555
Ni1 O46 2.037147 1_455
Ni1 O2 2.046528 1_555
Ni1 O53 2.046528 1_455
Ni1 O7 2.353356 1_555
Ni1 O48 2.353356 1_455
Ni2 O8 2.026323 1_555
Ni2 O9 2.078963 1_555
Ni2 O2 2.093944 1_555
Ni2 O22 2.099742 1_555
Ni2 O4 2.105907 1_555
Ni2 O7 2.151873 1_555
Ni3 O11 2.013873 1_555
Ni3 O16 2.041669 1_555
Ni3 O12 2.059493 1_555
Ni3 O6 2.061504 1_545
Ni3 O26 2.122761 1_555
Ni3 O28 2.410241 1_555
Ni4 O34 2.032765 1_555
Ni4 O41 2.059631 1_565
Ni4 O15 2.095470 1_555
Ni4 O42 2.108615 1_565
Ni4 O29 2.127962 1_555
Ni4 O25 2.150898 1_555
Ni5 O21 2.032765 1_555
Ni5 O14 2.059631 1_545
Ni5 O40 2.095470 1_555
Ni5 O13 2.108615 1_545
Ni5 O26 2.127962 1_555
Ni5 O30 2.150898 1_555
Ni6 O44 2.013873 1_555
Ni6 O39 2.041669 1_555
Ni6 O43 2.059493 1_555
Ni6 O49 2.061504 1_565
Ni6 O29 2.122761 1_555
Ni6 O27 2.410241 1_555
Ni7 O47 2.026323 1_555
Ni7 O46 2.078963 1_555
Ni7 O53 2.093944 1_555
Ni7 O33 2.099742 1_555
Ni7 O51 2.105907 1_555
Ni7 O48 2.151873 1_555
Ni8 O54 2.016928 1_555
Ni8 O55 2.022598 1_555
Ni8 O24 2.050186 1_554
Ni8 O35 2.059685 1_554
Ni8 O51 2.127067 1_555
Ni8 O50 2.404058 1_555
O0 P13 1.526070 1_455
O1 P0 1.529615 1_555
O2 P13 1.531813 1_455
O3 P0 1.632182 1_545
O3 P3 1.634383 1_555
O4 P4 1.551582 1_555
O5 P4 1.548707 1_555
O6 P5 1.536752 1_555
O7 P5 1.538844 1_555
O8 P1 1.514313 1_555
O9 P3 1.536499 1_555
O10 P2 1.623207 1_555
O10 P6 1.651246 1_555
O11 P15 1.526362 1_455
O12 P3 1.538480 1_555
O13 P5 1.522227 1_555
O14 P6 1.521786 1_555
O15 P4 1.520140 1_555
O16 P2 1.528569 1_555
O17 P4 1.600156 1_555
O17 P14 1.619811 1_556
O18 P3 1.523779 1_555
O19 P7 1.600712 1_555
O19 P5 1.637574 1_555
O20 P6 1.538920 1_555
O21 P15 1.518481 1_455
O22 P7 1.522507 1_555
O23 P6 1.533862 1_555
O24 P14 1.541080 1_556
O25 P14 1.538542 1_556
O26 P8 1.548852 1_555
O27 P7 1.554303 1_555
O28 P8 1.554303 1_555
O29 P7 1.548852 1_555
O30 P1 1.538542 1_554
O31 P1 1.541080 1_554
O32 P9 1.533862 1_555
O33 P8 1.522507 1_555
O34 P0 1.518481 1_655
O35 P9 1.538920 1_555
O36 P8 1.600712 1_555
O36 P10 1.637574 1_555
O37 P12 1.523779 1_555
O38 P11 1.600162 1_555
O38 P1 1.619803 1_554
O39 P13 1.528569 1_555
O40 P11 1.520140 1_555
O41 P9 1.521786 1_555
O42 P10 1.522227 1_555
O43 P12 1.538480 1_555
O44 P0 1.526362 1_655
O45 P13 1.623207 1_555
O45 P9 1.651246 1_555
O46 P12 1.536499 1_555
O47 P14 1.514313 1_555
O48 P10 1.538844 1_555
O49 P10 1.536752 1_555
O50 P11 1.548707 1_555
O51 P11 1.551582 1_555
O52 P15 1.632182 1_565
O52 P12 1.634383 1_555
O53 P2 1.531813 1_655
O54 P15 1.529615 1_555
O55 P2 1.526070 1_655
