# generated using pymatgen
data_Ho2Hf2O7
_symmetry_space_group_name_H-M   'P 1'
_cell_length_a   7.34817872
_cell_length_b   7.34817872
_cell_length_c   7.34817872
_cell_angle_alpha   60.00000000
_cell_angle_beta   60.00000000
_cell_angle_gamma   60.00000000
_symmetry_Int_Tables_number   1
_chemical_formula_structural   Ho2Hf2O7
_chemical_formula_sum   'Ho4 Hf4 O14'
_cell_volume   280.55895366
_cell_formula_units_Z   2
loop_
 _symmetry_equiv_pos_site_id
 _symmetry_equiv_pos_as_xyz
  1  'x, y, z'
loop_
 _atom_site_type_symbol
 _atom_site_label
 _atom_site_symmetry_multiplicity
 _atom_site_fract_x
 _atom_site_fract_y
 _atom_site_fract_z
 _atom_site_occupancy
  Ho  Ho0  1  0.12500000  0.12500000  0.62500000  1
  Ho  Ho1  1  0.12500000  0.12500000  0.12500000  1
  Ho  Ho2  1  0.62500000  0.12500000  0.12500000  1
  Ho  Ho3  1  0.12500000  0.62500000  0.12500000  1
  Hf  Hf0  1  0.62500000  0.62500000  0.62500000  1
  Hf  Hf1  1  0.12500000  0.62500000  0.62500000  1
  Hf  Hf2  1  0.62500000  0.62500000  0.12500000  1
  Hf  Hf3  1  0.62500000  0.12500000  0.62500000  1
  O  O0  1  0.53628659  0.96371341  0.53628659  1
  O  O1  1  0.53628659  0.53628659  0.96371341  1
  O  O2  1  0.28628659  0.71371341  0.28628659  1
  O  O3  1  0.53628659  0.96371341  0.96371341  1
  O  O4  1  0.71371341  0.28628659  0.71371341  1
  O  O5  1  0.96371341  0.53628659  0.53628659  1
  O  O6  1  0.71371341  0.71371341  0.28628659  1
  O  O7  1  0.71371341  0.28628659  0.28628659  1
  O  O8  1  0.25000000  0.25000000  0.25000000  1
  O  O9  1  0.28628659  0.71371341  0.71371341  1
  O  O10  1  0.96371341  0.96371341  0.53628659  1
  O  O11  1  0.28628659  0.28628659  0.71371341  1
  O  O12  1  0.00000000  0.00000000  0.00000000  1
  O  O13  1  0.96371341  0.53628659  0.96371341  1
loop_
_geom_bond_atom_site_label_1
_geom_bond_atom_site_label_2
_geom_bond_distance
_geom_bond_site_symmetry_2
Ho0 O8 2.249911 1_555
Ho0 O12 2.249911 1_556
Ho0 O5 2.486756 1_455
Ho0 O9 2.486756 1_545
Ho0 O11 2.486756 1_555
Ho0 O4 2.486756 1_455
Ho0 O10 2.486756 1_445
Ho0 O0 2.486756 1_545
Ho1 O8 2.249911 1_555
Ho1 O12 2.249911 1_555
Ho1 O2 2.486756 1_545
Ho1 O7 2.486756 1_455
Ho1 O11 2.486756 1_554
Ho1 O3 2.486756 1_544
Ho1 O13 2.486756 1_454
Ho1 O10 2.486756 1_445
Ho2 O8 2.249911 1_555
Ho2 O12 2.249911 1_655
Ho2 O3 2.486756 1_544
Ho2 O7 2.486756 1_555
Ho2 O4 2.486756 1_554
Ho2 O1 2.486756 1_554
Ho2 O6 2.486756 1_545
Ho2 O0 2.486756 1_545
Ho3 O8 2.249911 1_555
Ho3 O12 2.249911 1_565
Ho3 O5 2.486756 1_455
Ho3 O9 2.486756 1_554
Ho3 O2 2.486756 1_555
Ho3 O1 2.486756 1_554
Ho3 O13 2.486756 1_454
Ho3 O6 2.486756 1_455
Hf0 O5 2.055391 1_555
Hf0 O6 2.055391 1_555
Hf0 O0 2.055391 1_555
Hf0 O9 2.055391 1_555
Hf0 O4 2.055391 1_555
Hf0 O1 2.055391 1_555
Hf1 O2 2.055391 1_555
Hf1 O10 2.055391 1_455
Hf1 O13 2.055391 1_455
Hf1 O9 2.055391 1_555
Hf1 O5 2.055391 1_455
Hf1 O11 2.055391 1_555
Hf2 O2 2.055391 1_555
Hf2 O13 2.055391 1_554
Hf2 O6 2.055391 1_555
Hf2 O3 2.055391 1_554
Hf2 O1 2.055391 1_554
Hf2 O7 2.055391 1_555
Hf3 O10 2.055391 1_545
Hf3 O4 2.055391 1_555
Hf3 O7 2.055391 1_555
Hf3 O3 2.055391 1_545
Hf3 O0 2.055391 1_545
Hf3 O11 2.055391 1_555
