# generated using pymatgen
data_LuH18C3S3(O2F)9
_symmetry_space_group_name_H-M   'P 1'
_cell_length_a   13.47599524
_cell_length_b   13.47599524
_cell_length_c   7.67476900
_cell_angle_alpha   90.00000000
_cell_angle_beta   90.00000000
_cell_angle_gamma   119.99999627
_symmetry_Int_Tables_number   1
_chemical_formula_structural   LuH18C3S3(O2F)9
_chemical_formula_sum   'Lu2 H36 C6 S6 O36 F18'
_cell_volume   1207.02887208
_cell_formula_units_Z   2
loop_
 _symmetry_equiv_pos_site_id
 _symmetry_equiv_pos_as_xyz
  1  'x, y, z'
loop_
 _atom_site_type_symbol
 _atom_site_label
 _atom_site_symmetry_multiplicity
 _atom_site_fract_x
 _atom_site_fract_y
 _atom_site_fract_z
 _atom_site_occupancy
  Lu  Lu0  1  0.33333300  0.66666700  0.25000000  1
  Lu  Lu1  1  0.66666700  0.33333300  0.75000000  1
  H  H0  1  0.34823800  0.44199300  0.14605700  1
  H  H1  1  0.90624500  0.34823800  0.64605700  1
  H  H2  1  0.44199300  0.09375500  0.64605700  1
  H  H3  1  0.55800700  0.90624500  0.14605700  1
  H  H4  1  0.09375500  0.65176200  0.14605700  1
  H  H5  1  0.65176200  0.55800700  0.64605700  1
  H  H6  1  0.65176200  0.55800700  0.85394300  1
  H  H7  1  0.09375500  0.65176200  0.35394300  1
  H  H8  1  0.55800700  0.90624500  0.35394300  1
  H  H9  1  0.44199300  0.09375500  0.85394300  1
  H  H10  1  0.90624500  0.34823800  0.85394300  1
  H  H11  1  0.34823800  0.44199300  0.35394300  1
  H  H12  1  0.12903000  0.48824100  0.43547900  1
  H  H13  1  0.64078900  0.12903000  0.93547900  1
  H  H14  1  0.48824100  0.35921100  0.93547900  1
  H  H15  1  0.51175900  0.64078900  0.43547900  1
  H  H16  1  0.35921100  0.87097000  0.43547900  1
  H  H17  1  0.87097000  0.51175900  0.93547900  1
  H  H18  1  0.87097000  0.51175900  0.56452100  1
  H  H19  1  0.35921100  0.87097000  0.06452100  1
  H  H20  1  0.51175900  0.64078900  0.06452100  1
  H  H21  1  0.48824100  0.35921100  0.56452100  1
  H  H22  1  0.64078900  0.12903000  0.56452100  1
  H  H23  1  0.12903000  0.48824100  0.06452100  1
  H  H24  1  0.23462900  0.51606400  0.55883100  1
  H  H25  1  0.71856400  0.23462900  0.05883100  1
  H  H26  1  0.51606400  0.28143600  0.05883100  1
  H  H27  1  0.48393600  0.71856400  0.55883100  1
  H  H28  1  0.28143600  0.76537100  0.55883100  1
  H  H29  1  0.76537100  0.48393600  0.05883100  1
  H  H30  1  0.76537100  0.48393600  0.44116900  1
  H  H31  1  0.28143600  0.76537100  0.94116900  1
  H  H32  1  0.48393600  0.71856400  0.94116900  1
  H  H33  1  0.51606400  0.28143600  0.44116900  1
  H  H34  1  0.71856400  0.23462900  0.44116900  1
  H  H35  1  0.23462900  0.51606400  0.94116900  1
  C  C0  1  0.18390400  0.23999700  0.75000000  1
  C  C1  1  0.94390700  0.18390400  0.25000000  1
  C  C2  1  0.23999700  0.05609300  0.25000000  1
  C  C3  1  0.76000300  0.94390700  0.75000000  1
  C  C4  1  0.05609300  0.81609600  0.75000000  1
  C  C5  1  0.81609600  0.76000300  0.25000000  1
  S  S0  1  0.31250800  0.38694000  0.75000000  1
  S  S1  1  0.92556800  0.31250800  0.25000000  1
  S  S2  1  0.38694000  0.07443200  0.25000000  1
  S  S3  1  0.61306000  0.92556800  0.75000000  1
  S  S4  1  0.07443200  0.68749200  0.75000000  1
  S  S5  1  0.68749200  0.61306000  0.25000000  1
  O  O0  1  0.34646100  0.48338200  0.25000000  1
  O  O1  1  0.86307900  0.34646100  0.75000000  1
  O  O2  1  0.48338200  0.13692100  0.75000000  1
  O  O3  1  0.51661800  0.86307900  0.25000000  1
  O  O4  1  0.13692100  0.65353900  0.25000000  1
  O  O5  1  0.65353900  0.51661800  0.75000000  1
  O  O6  1  0.21005500  0.54487400  0.45880800  1
  O  O7  1  0.66518100  0.21005500  0.95880800  1
  O  O8  1  0.54487400  0.33481900  0.95880800  1
  O  O9  1  0.45512600  0.66518100  0.45880800  1
  O  O10  1  0.33481900  0.78994500  0.45880800  1
  O  O11  1  0.78994500  0.45512600  0.95880800  1
  O  O12  1  0.78994500  0.45512600  0.54119200  1
  O  O13  1  0.33481900  0.78994500  0.04119200  1
  O  O14  1  0.45512600  0.66518100  0.04119200  1
  O  O15  1  0.54487400  0.33481900  0.54119200  1
  O  O16  1  0.66518100  0.21005500  0.54119200  1
  O  O17  1  0.21005500  0.54487400  0.04119200  1
  O  O18  1  0.26256000  0.46216800  0.75000000  1
  O  O19  1  0.80039200  0.26256000  0.25000000  1
  O  O20  1  0.46216800  0.19960800  0.25000000  1
  O  O21  1  0.53783200  0.80039200  0.75000000  1
  O  O22  1  0.19960800  0.73744000  0.75000000  1
  O  O23  1  0.73744000  0.53783200  0.25000000  1
  O  O24  1  0.37284800  0.39200200  0.58877900  1
  O  O25  1  0.98084600  0.37284800  0.08877900  1
  O  O26  1  0.39200200  0.01915400  0.08877900  1
  O  O27  1  0.60799800  0.98084600  0.58877900  1
  O  O28  1  0.01915400  0.62715200  0.58877900  1
  O  O29  1  0.62715200  0.60799800  0.08877900  1
  O  O30  1  0.62715200  0.60799800  0.41122100  1
  O  O31  1  0.01915400  0.62715200  0.91122100  1
  O  O32  1  0.60799800  0.98084600  0.91122100  1
  O  O33  1  0.39200200  0.01915400  0.41122100  1
  O  O34  1  0.98084600  0.37284800  0.41122100  1
  O  O35  1  0.37284800  0.39200200  0.91122100  1
  F  F0  1  0.21627300  0.15996000  0.75000000  1
  F  F1  1  0.05631300  0.21627300  0.25000000  1
  F  F2  1  0.15996000  0.94368700  0.25000000  1
  F  F3  1  0.84004000  0.05631300  0.75000000  1
  F  F4  1  0.94368700  0.78372700  0.75000000  1
  F  F5  1  0.78372700  0.84004000  0.25000000  1
  F  F6  1  0.11947800  0.22552600  0.60690000  1
  F  F7  1  0.89395200  0.11947800  0.10690000  1
  F  F8  1  0.22552600  0.10604800  0.10690000  1
  F  F9  1  0.77447400  0.89395200  0.60690000  1
  F  F10  1  0.10604800  0.88052200  0.60690000  1
  F  F11  1  0.88052200  0.77447400  0.10690000  1
  F  F12  1  0.88052200  0.77447400  0.39310000  1
  F  F13  1  0.10604800  0.88052200  0.89310000  1
  F  F14  1  0.77447400  0.89395200  0.89310000  1
  F  F15  1  0.22552600  0.10604800  0.39310000  1
  F  F16  1  0.89395200  0.11947800  0.39310000  1
  F  F17  1  0.11947800  0.22552600  0.89310000  1
loop_
_geom_bond_atom_site_label_1
_geom_bond_atom_site_label_2
_geom_bond_distance
_geom_bond_site_symmetry_2
Lu0 O13 2.301132 1_555
Lu0 O10 2.301132 1_555
Lu0 O6 2.301136 1_555
Lu0 O17 2.301136 1_555
Lu0 O14 2.301141 1_555
Lu0 O9 2.301141 1_555
Lu0 O4 2.562974 1_555
Lu0 O3 2.562980 1_555
Lu0 O0 2.562988 1_555
Lu1 O7 2.301132 1_555
Lu1 O16 2.301132 1_555
Lu1 O12 2.301136 1_555
Lu1 O11 2.301136 1_555
Lu1 O8 2.301141 1_555
Lu1 O15 2.301141 1_555
Lu1 O1 2.562974 1_555
Lu1 O2 2.562980 1_555
Lu1 O5 2.562988 1_555
H0 O0 0.980516 1_555
H1 O1 0.980516 1_555
H2 O2 0.980516 1_555
H3 O3 0.980516 1_555
H4 O4 0.980516 1_555
H5 O5 0.980516 1_555
H6 O5 0.980516 1_555
H7 O4 0.980516 1_555
H8 O3 0.980516 1_555
H9 O2 0.980516 1_555
H10 O1 0.980516 1_555
H11 O0 0.980516 1_555
H12 O6 0.986622 1_555
H13 O7 0.986622 1_555
H14 O8 0.986622 1_555
H15 O9 0.986622 1_555
H16 O10 0.986622 1_555
H17 O11 0.986622 1_555
H18 O12 0.986622 1_555
H19 O13 0.986622 1_555
H20 O14 0.986622 1_555
H21 O15 0.986622 1_555
H22 O16 0.986622 1_555
H23 O17 0.986622 1_555
H24 O6 0.989071 1_555
H25 O7 0.989063 1_554
H26 O8 0.989064 1_554
H27 O9 0.989064 1_555
H28 O10 0.989063 1_555
H29 O11 0.989071 1_554
H30 O12 0.989071 1_555
H31 O13 0.989063 1_556
H32 O14 0.989064 1_556
H33 O15 0.989064 1_555
H34 O16 0.989063 1_555
H35 O17 0.989071 1_556
C0 F0 1.350587 1_555
C0 F6 1.352284 1_555
C0 F17 1.352284 1_555
C1 F1 1.350587 1_655
C1 F7 1.352284 1_555
C1 F16 1.352284 1_555
C2 F2 1.350587 1_545
C2 F8 1.352284 1_555
C2 F15 1.352284 1_555
C3 F3 1.350587 1_565
C3 F14 1.352284 1_555
C3 F9 1.352284 1_555
C4 F4 1.350587 1_455
C4 F13 1.352284 1_555
C4 F10 1.352284 1_555
C5 F5 1.350587 1_555
C5 F12 1.352284 1_555
C5 F11 1.352284 1_555
O18 S0 1.470770 1_555
O19 S1 1.470770 1_555
O20 S2 1.470770 1_555
O21 S3 1.470770 1_555
O22 S4 1.470770 1_555
O23 S5 1.470770 1_555
O24 S0 1.463345 1_555
O25 S1 1.463345 1_555
O26 S2 1.463345 1_555
O27 S3 1.463345 1_555
O28 S4 1.463345 1_555
O29 S5 1.463345 1_555
O30 S5 1.463345 1_555
O31 S4 1.463345 1_555
O32 S3 1.463345 1_555
O33 S2 1.463345 1_555
O34 S1 1.463345 1_555
O35 S0 1.463345 1_555
