# generated using pymatgen
data_Ba2CuIO2
_symmetry_space_group_name_H-M   'P 1'
_cell_length_a   4.44409499
_cell_length_b   11.08544927
_cell_length_c   14.13062202
_cell_angle_alpha   88.26392372
_cell_angle_beta   90.00000000
_cell_angle_gamma   90.00000000
_symmetry_Int_Tables_number   1
_chemical_formula_structural   Ba2CuIO2
_chemical_formula_sum   'Ba8 Cu4 I4 O8'
_cell_volume   695.82257890
_cell_formula_units_Z   4
loop_
 _symmetry_equiv_pos_site_id
 _symmetry_equiv_pos_as_xyz
  1  'x, y, z'
loop_
 _atom_site_type_symbol
 _atom_site_label
 _atom_site_symmetry_multiplicity
 _atom_site_fract_x
 _atom_site_fract_y
 _atom_site_fract_z
 _atom_site_occupancy
  Ba  Ba0  1  0.75000000  0.09098597  0.67872029  1
  Ba  Ba1  1  0.25000000  0.29678841  0.89321807  1
  Ba  Ba2  1  0.75000000  0.16833679  0.14269117  1
  Ba  Ba3  1  0.75000000  0.70321159  0.10678193  1
  Ba  Ba4  1  0.25000000  0.90901403  0.32127971  1
  Ba  Ba5  1  0.25000000  0.41938775  0.40434146  1
  Ba  Ba6  1  0.75000000  0.58061225  0.59565854  1
  Ba  Ba7  1  0.25000000  0.83166321  0.85730883  1
  Cu  Cu0  1  0.25000000  0.33151376  0.65245454  1
  Cu  Cu1  1  0.75000000  0.66848624  0.34754546  1
  Cu  Cu2  1  0.25000000  0.93371563  0.09197155  1
  Cu  Cu3  1  0.75000000  0.06628437  0.90802845  1
  I  I0  1  0.75000000  0.15162390  0.41214320  1
  I  I1  1  0.25000000  0.43565499  0.14240305  1
  I  I2  1  0.75000000  0.56434501  0.85759695  1
  I  I3  1  0.25000000  0.84837610  0.58785680  1
  O  O0  1  0.75000000  0.94402412  0.82712376  1
  O  O1  1  0.75000000  0.53325471  0.41893437  1
  O  O2  1  0.75000000  0.80229027  0.27270211  1
  O  O3  1  0.25000000  0.79062264  0.03522773  1
  O  O4  1  0.25000000  0.46674529  0.58106563  1
  O  O5  1  0.25000000  0.19770973  0.72729789  1
  O  O6  1  0.75000000  0.20937736  0.96477227  1
  O  O7  1  0.25000000  0.05597588  0.17287624  1
loop_
_geom_bond_atom_site_label_1
_geom_bond_atom_site_label_2
_geom_bond_distance
_geom_bond_site_symmetry_2
Ba0 O0 2.616226 1_545
Ba0 O5 2.618696 1_555
Ba0 O5 2.618696 1_655
Ba0 I3 3.745445 1_545
Ba0 I3 3.745445 1_645
Ba0 I0 3.806306 1_555
Ba1 O6 2.615226 1_455
Ba1 O6 2.615226 1_555
Ba1 O5 2.619027 1_555
Ba1 I2 3.727930 1_455
Ba1 I2 3.727930 1_555
Ba1 I1 3.885434 1_556
Ba2 O6 2.541338 1_554
Ba2 O7 2.576564 1_655
Ba2 O7 2.576564 1_555
Ba2 I1 3.703806 1_555
Ba2 I1 3.703806 1_655
Ba2 I0 3.806419 1_555
Ba3 O3 2.615226 1_655
Ba3 O3 2.615226 1_555
Ba3 O2 2.619027 1_555
Ba3 I1 3.727930 1_655
Ba3 I1 3.727930 1_555
Ba3 I2 3.885434 1_554
Ba4 O7 2.616226 1_565
Ba4 O2 2.618696 1_555
Ba4 O2 2.618696 1_455
Ba4 I0 3.745445 1_565
Ba4 I0 3.745445 1_465
Ba4 I3 3.806306 1_555
Ba5 O1 2.566925 1_455
Ba5 O1 2.566925 1_555
Ba5 O4 2.567325 1_555
Ba5 I1 3.700282 1_555
Ba5 I0 3.706821 1_555
Ba5 I0 3.706821 1_455
Ba6 O4 2.566925 1_655
Ba6 O4 2.566925 1_555
Ba6 O1 2.567325 1_555
Ba6 I2 3.700282 1_555
Ba6 I3 3.706821 1_555
Ba6 I3 3.706821 1_655
Ba7 O3 2.541338 1_556
Ba7 O0 2.576564 1_555
Ba7 O0 2.576564 1_455
Ba7 I2 3.703806 1_455
Ba7 I2 3.703806 1_555
Ba7 I3 3.806419 1_555
Cu0 O4 1.781374 1_555
Cu0 O5 1.795424 1_555
Cu1 O1 1.781374 1_555
Cu1 O2 1.795424 1_555
Cu2 O3 1.798938 1_555
Cu2 O7 1.799369 1_565
Cu3 O6 1.798938 1_555
Cu3 O0 1.799369 1_545
