# generated using pymatgen
data_Ho2Cu(BO2)8
_symmetry_space_group_name_H-M   'P 1'
_cell_length_a   6.22914900
_cell_length_b   8.49928200
_cell_length_c   10.24786600
_cell_angle_alpha   90.00000000
_cell_angle_beta   90.00000000
_cell_angle_gamma   90.00000000
_symmetry_Int_Tables_number   1
_chemical_formula_structural   Ho2Cu(BO2)8
_chemical_formula_sum   'Ho4 Cu2 B16 O32'
_cell_volume   542.55578221
_cell_formula_units_Z   2
loop_
 _symmetry_equiv_pos_site_id
 _symmetry_equiv_pos_as_xyz
  1  'x, y, z'
loop_
 _atom_site_type_symbol
 _atom_site_label
 _atom_site_symmetry_multiplicity
 _atom_site_fract_x
 _atom_site_fract_y
 _atom_site_fract_z
 _atom_site_occupancy
  Ho  Ho0  1  0.50000000  0.50000000  0.81793000  1
  Ho  Ho1  1  0.50000000  0.50000000  0.18207000  1
  Ho  Ho2  1  0.00000000  0.00000000  0.18207000  1
  Ho  Ho3  1  0.00000000  0.00000000  0.81793000  1
  Cu  Cu0  1  0.50000000  0.50000000  0.50000000  1
  Cu  Cu1  1  0.00000000  0.00000000  0.50000000  1
  B  B0  1  0.88113500  0.69297100  0.62290300  1
  B  B1  1  0.11886500  0.30702900  0.62290300  1
  B  B2  1  0.38113500  0.80702900  0.62290300  1
  B  B3  1  0.61886500  0.19297100  0.37709700  1
  B  B4  1  0.88113500  0.69297100  0.37709700  1
  B  B5  1  0.38113500  0.80702900  0.37709700  1
  B  B6  1  0.50000000  0.00000000  0.80630200  1
  B  B7  1  0.11886500  0.30702900  0.37709700  1
  B  B8  1  0.00000000  0.50000000  0.19369800  1
  B  B9  1  0.11435900  0.68276300  0.00000000  1
  B  B10  1  0.50000000  0.00000000  0.19369800  1
  B  B11  1  0.38564100  0.18276300  0.00000000  1
  B  B12  1  0.88564100  0.31723700  0.00000000  1
  B  B13  1  0.61435900  0.81723700  0.00000000  1
  B  B14  1  0.00000000  0.50000000  0.80630200  1
  B  B15  1  0.61886500  0.19297100  0.62290300  1
  O  O0  1  0.06239600  0.83728300  0.00000000  1
  O  O1  1  0.93719100  0.84485100  0.35908600  1
  O  O2  1  0.14858800  0.59920600  0.11611600  1
  O  O3  1  0.64858800  0.90079400  0.88388400  1
  O  O4  1  0.43760400  0.33728300  0.00000000  1
  O  O5  1  0.15333900  0.40613600  0.27022500  1
  O  O6  1  0.64936700  0.12675200  0.50000000  1
  O  O7  1  0.15333900  0.40613600  0.72977500  1
  O  O8  1  0.65333900  0.09386400  0.72977500  1
  O  O9  1  0.93719100  0.84485100  0.64091400  1
  O  O10  1  0.14858800  0.59920600  0.88388400  1
  O  O11  1  0.56280900  0.34485100  0.64091400  1
  O  O12  1  0.64858800  0.90079400  0.11611600  1
  O  O13  1  0.43719100  0.65514900  0.35908600  1
  O  O14  1  0.35141200  0.09920600  0.88388400  1
  O  O15  1  0.06280900  0.15514900  0.35908600  1
  O  O16  1  0.14936700  0.37324800  0.50000000  1
  O  O17  1  0.93760400  0.16271700  0.00000000  1
  O  O18  1  0.84666100  0.59386400  0.72977500  1
  O  O19  1  0.85141200  0.40079400  0.88388400  1
  O  O20  1  0.84666100  0.59386400  0.27022500  1
  O  O21  1  0.56280900  0.34485100  0.35908600  1
  O  O22  1  0.35063300  0.87324800  0.50000000  1
  O  O23  1  0.56239600  0.66271700  0.00000000  1
  O  O24  1  0.34666100  0.90613600  0.27022500  1
  O  O25  1  0.35141200  0.09920600  0.11611600  1
  O  O26  1  0.65333900  0.09386400  0.27022500  1
  O  O27  1  0.43719100  0.65514900  0.64091400  1
  O  O28  1  0.85141200  0.40079400  0.11611600  1
  O  O29  1  0.06280900  0.15514900  0.64091400  1
  O  O30  1  0.34666100  0.90613600  0.72977500  1
  O  O31  1  0.85063300  0.62675200  0.50000000  1
loop_
_geom_bond_atom_site_label_1
_geom_bond_atom_site_label_2
_geom_bond_distance
_geom_bond_site_symmetry_2
Ho0 O11 2.276544 1_555
Ho0 O27 2.276544 1_555
Ho0 O23 2.354785 1_556
Ho0 O4 2.354785 1_556
Ho0 O19 2.441206 1_555
Ho0 O10 2.441206 1_555
Ho0 O18 2.472974 1_555
Ho0 O7 2.472974 1_555
Ho1 O21 2.276544 1_555
Ho1 O13 2.276544 1_555
Ho1 O4 2.354785 1_555
Ho1 O23 2.354785 1_555
Ho1 O28 2.441206 1_555
Ho1 O2 2.441206 1_555
Ho1 O20 2.472974 1_555
Ho1 O5 2.472974 1_555
Ho2 O1 2.276544 1_445
Ho2 O15 2.276544 1_555
Ho2 O17 2.354785 1_455
Ho2 O0 2.354785 1_545
Ho2 O25 2.441206 1_555
Ho2 O12 2.441206 1_445
Ho2 O24 2.472974 1_545
Ho2 O26 2.472974 1_455
Ho3 O29 2.276544 1_555
Ho3 O9 2.276544 1_445
Ho3 O0 2.354785 1_546
Ho3 O17 2.354785 1_456
Ho3 O3 2.441206 1_445
Ho3 O14 2.441206 1_555
Ho3 O30 2.472974 1_545
Ho3 O8 2.472974 1_455
Cu0 O11 1.994306 1_555
Cu0 O27 1.994306 1_555
Cu0 O21 1.994306 1_555
Cu0 O13 1.994306 1_555
Cu0 O31 2.435378 1_555
Cu0 O16 2.435378 1_555
Cu1 O1 1.994306 1_445
Cu1 O9 1.994306 1_445
Cu1 O29 1.994306 1_555
Cu1 O15 1.994306 1_555
Cu1 O22 2.435378 1_545
Cu1 O6 2.435378 1_455
B0 O9 1.349942 1_555
B0 O31 1.392546 1_555
B0 O18 1.398261 1_555
B1 O29 1.349942 1_555
B1 O16 1.392546 1_555
B1 O7 1.398261 1_555
B2 O27 1.349942 1_555
B2 O22 1.392546 1_555
B2 O30 1.398261 1_555
B3 O21 1.349942 1_555
B3 O6 1.392546 1_555
B3 O26 1.398261 1_555
B4 O1 1.349942 1_555
B4 O31 1.392546 1_555
B4 O20 1.398261 1_555
B5 O13 1.349942 1_555
B5 O22 1.392546 1_555
B5 O24 1.398261 1_555
B6 O30 1.470996 1_545
B6 O8 1.470996 1_555
B6 O14 1.483155 1_555
B6 O3 1.483155 1_545
B7 O15 1.349942 1_555
B7 O16 1.392546 1_555
B7 O5 1.398261 1_555
B8 O20 1.470996 1_455
B8 O5 1.470996 1_555
B8 O2 1.483155 1_555
B8 O28 1.483155 1_455
B9 O0 1.352610 1_555
B9 O10 1.402059 1_554
B9 O2 1.402059 1_555
B10 O24 1.470996 1_545
B10 O26 1.470996 1_555
B10 O25 1.483155 1_555
B10 O12 1.483155 1_545
B11 O4 1.352610 1_555
B11 O14 1.402059 1_554
B11 O25 1.402059 1_555
B12 O17 1.352610 1_555
B12 O28 1.402059 1_555
B12 O19 1.402059 1_554
B13 O23 1.352610 1_555
B13 O3 1.402059 1_554
B13 O12 1.402059 1_555
B14 O18 1.470996 1_455
B14 O7 1.470996 1_555
B14 O10 1.483155 1_555
B14 O19 1.483155 1_455
B15 O11 1.349942 1_555
B15 O6 1.392546 1_555
B15 O8 1.398261 1_555
