# generated using pymatgen
data_CsLi2Cl3
_symmetry_space_group_name_H-M   'P 1'
_cell_length_a   7.05149328
_cell_length_b   7.05149328
_cell_length_c   7.05149328
_cell_angle_alpha   142.37008420
_cell_angle_beta   136.77303606
_cell_angle_gamma   58.62632857
_symmetry_Int_Tables_number   1
_chemical_formula_structural   CsLi2Cl3
_chemical_formula_sum   'Cs1 Li2 Cl3'
_cell_volume   145.27739378
_cell_formula_units_Z   1
loop_
 _symmetry_equiv_pos_site_id
 _symmetry_equiv_pos_as_xyz
  1  'x, y, z'
loop_
 _atom_site_type_symbol
 _atom_site_label
 _atom_site_symmetry_multiplicity
 _atom_site_fract_x
 _atom_site_fract_y
 _atom_site_fract_z
 _atom_site_occupancy
  Cs  Cs0  1  0.50000000  0.50000000  -0.00000000  1
  Li  Li0  1  0.80774300  0.80774300  -0.00000000  1
  Li  Li1  1  0.19225700  0.19225700  0.00000000  1
  Cl  Cl0  1  0.26994492  0.76994492  0.50000000  1
  Cl  Cl1  1  0.73005508  0.23005508  0.50000000  1
  Cl  Cl2  1  -0.00000000  -0.00000000  -0.00000000  1
loop_
_geom_bond_atom_site_label_1
_geom_bond_atom_site_label_2
_geom_bond_distance
_geom_bond_site_symmetry_2
Cl0 Li1 2.466709 1_555
Cl0 Li1 2.466709 1_566
Cl0 Li0 2.638633 1_455
Cl0 Li0 2.638633 1_556
Cl0 Cs0 3.629793 1_566
Cl0 Cs0 3.629793 1_555
Cl1 Li0 2.466709 1_545
Cl1 Li0 2.466709 1_556
Cl1 Li1 2.638633 1_555
Cl1 Li1 2.638633 1_656
Cl1 Cs0 3.629793 1_545
Cl1 Cs0 3.629793 1_556
Cl2 Li0 2.364222 1_445
Cl2 Li1 2.364222 1_555
Cl2 Cs0 3.452290 1_545
Cl2 Cs0 3.452290 1_556
Cl2 Cs0 3.452290 1_455
Cl2 Cs0 3.452290 1_444
