# generated using pymatgen
data_Ga2Au7
_symmetry_space_group_name_H-M   'P 1'
_cell_length_a   7.72346330
_cell_length_b   7.72346330
_cell_length_c   8.97398753
_cell_angle_alpha   90.00000000
_cell_angle_beta   90.00000000
_cell_angle_gamma   120.00000436
_symmetry_Int_Tables_number   1
_chemical_formula_structural   Ga2Au7
_chemical_formula_sum   'Ga6 Au21'
_cell_volume   463.59660708
_cell_formula_units_Z   3
loop_
 _symmetry_equiv_pos_site_id
 _symmetry_equiv_pos_as_xyz
  1  'x, y, z'
loop_
 _atom_site_type_symbol
 _atom_site_label
 _atom_site_symmetry_multiplicity
 _atom_site_fract_x
 _atom_site_fract_y
 _atom_site_fract_z
 _atom_site_occupancy
  Ga  Ga0  1  0.33333300  0.66666700  0.19108084  1
  Ga  Ga1  1  0.00000000  0.00000000  0.69598168  1
  Ga  Ga2  1  0.33333300  0.66666700  0.80891916  1
  Ga  Ga3  1  0.66666700  0.33333300  0.80891916  1
  Ga  Ga4  1  0.66666700  0.33333300  0.19108084  1
  Ga  Ga5  1  0.00000000  0.00000000  0.30401832  1
  Au  Au0  1  0.00000000  0.35717549  0.33014736  1
  Au  Au1  1  0.68269746  0.00000000  0.83207105  1
  Au  Au2  1  -0.00000000  0.72845432  0.50000000  1
  Au  Au3  1  0.00000000  0.68269746  0.83207105  1
  Au  Au4  1  0.31730254  0.31730254  0.16792895  1
  Au  Au5  1  0.27154568  0.27154568  0.50000000  1
  Au  Au6  1  0.00000000  0.68269746  0.16792895  1
  Au  Au7  1  0.72845432  -0.00000000  0.50000000  1
  Au  Au8  1  0.35717549  0.00000000  0.33014736  1
  Au  Au9  1  0.64282451  0.64282451  0.66985264  1
  Au  Au10  1  0.36968920  -0.00000000  -0.00000000  1
  Au  Au11  1  0.66666700  0.33333300  0.50000000  1
  Au  Au12  1  0.35717549  0.00000000  0.66985264  1
  Au  Au13  1  0.00000000  0.00000000  -0.00000000  1
  Au  Au14  1  0.31730254  0.31730254  0.83207105  1
  Au  Au15  1  0.63031080  0.63031080  -0.00000000  1
  Au  Au16  1  0.68269746  0.00000000  0.16792895  1
  Au  Au17  1  0.64282451  0.64282451  0.33014736  1
  Au  Au18  1  -0.00000000  0.36968920  -0.00000000  1
  Au  Au19  1  0.33333300  0.66666700  0.50000000  1
  Au  Au20  1  0.00000000  0.35717549  0.66985264  1
loop_
_geom_bond_atom_site_label_1
_geom_bond_atom_site_label_2
_geom_bond_distance
_geom_bond_site_symmetry_2
Au0 Ga5 2.768579 1_555
Au0 Ga4 2.783030 1_455
Au0 Ga0 2.783033 1_555
Au0 Au6 2.905199 1_555
Au0 Au11 2.917389 1_455
Au0 Au19 2.917391 1_555
Au0 Au7 2.923415 1_455
Au0 Au5 2.923415 1_555
Au0 Au18 2.964314 1_555
Au0 Au16 2.995754 1_455
Au0 Au4 2.995754 1_555
Au0 Au20 3.048511 1_555
Au0 Au2 3.247498 1_555
Au1 Ga3 2.646737 1_555
Au1 Ga2 2.646741 1_545
Au1 Ga1 2.738118 1_655
Au1 Au10 2.848749 1_556
Au1 Au13 2.876948 1_656
Au1 Au12 2.905199 1_555
Au1 Au20 2.995754 1_655
Au1 Au9 2.995754 1_545
Au1 Au7 3.000883 1_555
Au1 Au16 3.013985 1_556
Au1 Au18 3.071172 1_656
Au1 Au15 3.071172 1_546
Au2 Ga5 2.737099 1_565
Au2 Ga1 2.737099 1_565
Au2 Au8 2.923415 1_565
Au2 Au9 2.923415 1_455
Au2 Au6 3.000883 1_555
Au2 Au3 3.000883 1_555
Au2 Au20 3.247498 1_555
Au3 Ga2 2.646737 1_555
Au3 Ga3 2.646741 1_455
Au3 Ga1 2.738118 1_565
Au3 Au9 2.995754 1_455
Au3 Au6 3.013985 1_556
Au4 Ga4 2.646745 1_555
Au4 Ga0 2.646745 1_555
Au4 Ga5 2.738118 1_555
Au4 Au8 2.995754 1_555
Au4 Au5 3.000883 1_555
Au5 Ga5 2.737099 1_555
Au5 Ga1 2.737099 1_555
Au5 Au8 2.923415 1_555
Au5 Au9 3.247498 1_555
Au6 Ga0 2.646737 1_555
Au6 Ga4 2.646741 1_455
Au6 Ga5 2.738118 1_565
Au6 Au8 2.995754 1_565
Au7 Ga5 2.737099 1_655
Au7 Ga1 2.737099 1_655
Au7 Au9 2.923415 1_545
Au7 Au8 3.247498 1_555
Au8 Ga5 2.768579 1_555
Au8 Ga0 2.783030 1_545
Au8 Ga4 2.783033 1_555
Au9 Ga1 2.768579 1_665
Au9 Ga2 2.783037 1_555
Au9 Ga3 2.783037 1_555
Au10 Au16 2.848749 1_555
Au10 Au13 2.855281 1_555
Au10 Au12 2.964314 1_554
Au10 Au8 2.964314 1_555
Au10 Ga2 2.987358 1_544
Au10 Ga0 2.987358 1_545
Au10 Ga4 2.987360 1_555
Au10 Ga3 2.987360 1_554
Au10 Au6 3.071172 1_545
Au10 Au3 3.071172 1_544
Au10 Au14 3.071172 1_554
Au10 Au4 3.071172 1_555
Au11 Ga3 2.772237 1_555
Au11 Ga4 2.772237 1_555
Au11 Au7 2.843287 1_555
Au11 Au2 2.843292 1_655
Au11 Au5 2.843295 1_555
Au11 Au20 2.917389 1_655
Au11 Au8 2.917391 1_555
Au11 Au12 2.917391 1_555
Au11 Au9 2.917395 1_555
Au11 Au17 2.917395 1_555
Au12 Ga1 2.768579 1_555
Au12 Ga2 2.783030 1_545
Au12 Ga3 2.783033 1_555
Au12 Au19 2.917389 1_545
Au12 Au2 2.923415 1_545
Au12 Au5 2.923415 1_555
Au12 Au3 2.995754 1_545
Au12 Au14 2.995754 1_555
Au12 Au8 3.048511 1_555
Au12 Au7 3.247498 1_555
Au13 Ga1 2.728257 1_554
Au13 Ga5 2.728257 1_555
Au13 Au15 2.855281 1_445
Au13 Au18 2.855281 1_555
Au13 Au4 2.876948 1_555
Au13 Au14 2.876948 1_554
Au13 Au16 2.876948 1_455
Au13 Au6 2.876948 1_545
Au13 Au3 2.876948 1_544
Au14 Ga3 2.646745 1_555
Au14 Ga2 2.646745 1_555
Au14 Ga1 2.738118 1_555
Au14 Au15 2.848749 1_556
Au14 Au9 2.905199 1_555
Au14 Au20 2.995754 1_555
Au14 Au5 3.000883 1_555
Au14 Au4 3.013985 1_556
Au14 Au18 3.071172 1_556
Au15 Au4 2.848749 1_555
Au15 Au9 2.964314 1_554
Au15 Au17 2.964314 1_555
Au15 Ga2 2.987364 1_554
Au15 Ga0 2.987364 1_555
Au15 Ga4 2.987364 1_555
Au15 Ga3 2.987364 1_554
Au15 Au6 3.071172 1_655
Au15 Au3 3.071172 1_654
Au15 Au16 3.071172 1_565
Au16 Ga4 2.646737 1_555
Au16 Ga0 2.646741 1_545
Au16 Ga5 2.738118 1_655
Au16 Au8 2.905199 1_555
Au16 Au17 2.995754 1_545
Au16 Au7 3.000883 1_555
Au16 Au18 3.071172 1_655
Au17 Ga5 2.768579 1_665
Au17 Ga0 2.783037 1_555
Au17 Ga4 2.783037 1_555
Au17 Au4 2.905199 1_555
Au17 Au19 2.917395 1_555
Au17 Au2 2.923415 1_655
Au17 Au7 2.923415 1_565
Au17 Au6 2.995754 1_655
Au17 Au9 3.048511 1_555
Au17 Au5 3.247498 1_555
Au18 Au3 2.848749 1_554
Au18 Au6 2.848749 1_555
Au18 Au20 2.964314 1_554
Au18 Ga3 2.987358 1_454
Au18 Ga4 2.987358 1_455
Au18 Ga0 2.987360 1_555
Au18 Ga2 2.987360 1_554
Au18 Au4 3.071172 1_555
Au19 Ga2 2.772237 1_555
Au19 Ga0 2.772237 1_555
Au19 Au2 2.843287 1_555
Au19 Au7 2.843292 1_565
Au19 Au5 2.843295 1_555
Au19 Au8 2.917389 1_565
Au19 Au20 2.917391 1_555
Au19 Au9 2.917395 1_555
Au20 Ga1 2.768579 1_555
Au20 Ga3 2.783030 1_455
Au20 Ga2 2.783033 1_555
Au20 Au3 2.905199 1_555
Au20 Au7 2.923415 1_455
Au20 Au5 2.923415 1_555
