# generated using pymatgen
data_SbBr(OF3)2
_symmetry_space_group_name_H-M   'P 1'
_cell_length_a   5.96119900
_cell_length_b   7.28053200
_cell_length_c   10.28495263
_cell_angle_alpha   48.00563391
_cell_angle_beta   90.00000000
_cell_angle_gamma   90.00000000
_symmetry_Int_Tables_number   1
_chemical_formula_structural   SbBr(OF3)2
_chemical_formula_sum   'Sb2 Br2 O4 F12'
_cell_volume   331.75000372
_cell_formula_units_Z   2
loop_
 _symmetry_equiv_pos_site_id
 _symmetry_equiv_pos_as_xyz
  1  'x, y, z'
loop_
 _atom_site_type_symbol
 _atom_site_label
 _atom_site_symmetry_multiplicity
 _atom_site_fract_x
 _atom_site_fract_y
 _atom_site_fract_z
 _atom_site_occupancy
  Sb  Sb0  1  0.53316000  0.00000000  0.75000000  1
  Sb  Sb1  1  0.46684000  0.00000000  0.25000000  1
  Br  Br0  1  0.85487200  0.50000000  0.25000000  1
  Br  Br1  1  0.14512800  0.50000000  0.75000000  1
  O  O0  1  0.00823200  0.64092300  0.07666900  1
  O  O1  1  0.99176800  0.35907700  0.92333100  1
  O  O2  1  0.00823200  0.35907700  0.42333100  1
  O  O3  1  0.99176800  0.64092300  0.57666900  1
  F  F0  1  0.52427600  0.71914800  0.99695200  1
  F  F1  1  0.29433800  0.15056800  0.78141600  1
  F  F2  1  0.29433800  0.84943200  0.71858400  1
  F  F3  1  0.47572400  0.28085200  0.00304800  1
  F  F4  1  0.75314600  0.84781800  0.71484200  1
  F  F5  1  0.52427600  0.28085200  0.50304800  1
  F  F6  1  0.70566200  0.15056800  0.28141600  1
  F  F7  1  0.24685400  0.84781800  0.21484200  1
  F  F8  1  0.47572400  0.71914800  0.49695200  1
  F  F9  1  0.75314600  0.15218200  0.78515800  1
  F  F10  1  0.70566200  0.84943200  0.21858400  1
  F  F11  1  0.24685400  0.15218200  0.28515800  1
loop_
_geom_bond_atom_site_label_1
_geom_bond_atom_site_label_2
_geom_bond_distance
_geom_bond_site_symmetry_2
Br0 O2 1.618332 1_655
Br0 O0 1.618332 1_655
Br1 O3 1.618332 1_455
Br1 O1 1.618332 1_455
F0 Sb0 1.919747 1_565
F1 Sb0 1.951121 1_555
F2 Sb0 1.951121 1_565
F3 Sb1 1.919747 1_555
F4 Sb0 1.901095 1_565
F5 Sb0 1.919747 1_555
F6 Sb1 1.951121 1_555
F7 Sb1 1.901095 1_565
F8 Sb1 1.919747 1_565
F9 Sb0 1.901095 1_555
F10 Sb1 1.951121 1_565
F11 Sb1 1.901095 1_555
