# generated using pymatgen
data_Ni(NO3)2
_symmetry_space_group_name_H-M   'P 1'
_cell_length_a   7.38245249
_cell_length_b   7.38245249
_cell_length_c   7.38245249
_cell_angle_alpha   90.00000000
_cell_angle_beta   90.00000000
_cell_angle_gamma   90.00000000
_symmetry_Int_Tables_number   1
_chemical_formula_structural   Ni(NO3)2
_chemical_formula_sum   'Ni4 N8 O24'
_cell_volume   402.34812537
_cell_formula_units_Z   4
loop_
 _symmetry_equiv_pos_site_id
 _symmetry_equiv_pos_as_xyz
  1  'x, y, z'
loop_
 _atom_site_type_symbol
 _atom_site_label
 _atom_site_symmetry_multiplicity
 _atom_site_fract_x
 _atom_site_fract_y
 _atom_site_fract_z
 _atom_site_occupancy
  Ni  Ni0  1  0.00000000  -0.00000000  0.00000000  1
  Ni  Ni1  1  0.50000000  -0.00000000  0.50000000  1
  Ni  Ni2  1  0.50000000  0.50000000  0.00000000  1
  Ni  Ni3  1  0.00000000  0.50000000  0.50000000  1
  N  N0  1  0.32145030  0.32145030  0.32145030  1
  N  N1  1  0.17854970  0.67854970  0.82145030  1
  N  N2  1  0.82145030  0.17854970  0.67854970  1
  N  N3  1  0.67854970  0.82145030  0.17854970  1
  N  N4  1  0.67854970  0.67854970  0.67854970  1
  N  N5  1  0.82145030  0.32145030  0.17854970  1
  N  N6  1  0.17854970  0.82145030  0.32145030  1
  N  N7  1  0.32145030  0.17854970  0.82145030  1
  O  O0  1  0.20249418  0.31776973  0.44309189  1
  O  O1  1  0.44309189  0.20249418  0.31776973  1
  O  O2  1  0.31776973  0.44309189  0.20249418  1
  O  O3  1  0.18223027  0.55690811  0.70249418  1
  O  O4  1  0.94309189  0.29750582  0.68223027  1
  O  O5  1  0.68223027  0.94309189  0.29750582  1
  O  O6  1  0.05690811  0.79750582  0.81776973  1
  O  O7  1  0.55690811  0.70249418  0.18223027  1
  O  O8  1  0.81776973  0.05690811  0.79750582  1
  O  O9  1  0.70249418  0.18223027  0.55690811  1
  O  O10  1  0.79750582  0.81776973  0.05690811  1
  O  O11  1  0.29750582  0.68223027  0.94309189  1
  O  O12  1  0.79750582  0.68223027  0.55690811  1
  O  O13  1  0.55690811  0.79750582  0.68223027  1
  O  O14  1  0.68223027  0.55690811  0.79750582  1
  O  O15  1  0.81776973  0.44309189  0.29750582  1
  O  O16  1  0.05690811  0.70249418  0.31776973  1
  O  O17  1  0.31776973  0.05690811  0.70249418  1
  O  O18  1  0.94309189  0.20249418  0.18223027  1
  O  O19  1  0.44309189  0.29750582  0.81776973  1
  O  O20  1  0.18223027  0.94309189  0.20249418  1
  O  O21  1  0.29750582  0.81776973  0.44309189  1
  O  O22  1  0.20249418  0.18223027  0.94309189  1
  O  O23  1  0.70249418  0.31776973  0.05690811  1
loop_
_geom_bond_atom_site_label_1
_geom_bond_atom_site_label_2
_geom_bond_distance
_geom_bond_site_symmetry_2
Ni0 O20 2.054529 1_545
Ni0 O22 2.054529 1_554
Ni0 O6 2.054529 1_544
Ni0 O18 2.054529 1_455
Ni0 O8 2.054529 1_454
Ni0 O10 2.054529 1_445
Ni1 O9 2.054529 1_555
Ni1 O13 2.054529 1_545
Ni1 O5 2.054529 1_545
Ni1 O1 2.054529 1_555
Ni1 O21 2.054529 1_545
Ni1 O17 2.054529 1_555
Ni2 O14 2.054529 1_554
Ni2 O7 2.054529 1_555
Ni2 O23 2.054529 1_555
Ni2 O11 2.054529 1_554
Ni2 O2 2.054529 1_555
Ni2 O19 2.054529 1_554
Ni3 O3 2.054529 1_555
Ni3 O16 2.054529 1_555
Ni3 O12 2.054529 1_455
Ni3 O15 2.054529 1_455
Ni3 O0 2.054529 1_555
Ni3 O4 2.054529 1_455
N0 O0 1.256336 1_555
N0 O1 1.256336 1_555
N0 O2 1.256336 1_555
N1 O6 1.256336 1_555
N1 O11 1.256336 1_555
N1 O3 1.256336 1_555
N2 O8 1.256336 1_555
N2 O4 1.256336 1_555
N2 O9 1.256336 1_555
N3 O10 1.256336 1_555
N3 O5 1.256336 1_555
N3 O7 1.256336 1_555
N4 O12 1.256336 1_555
N4 O14 1.256336 1_555
N4 O13 1.256336 1_555
N5 O15 1.256336 1_555
N5 O23 1.256336 1_555
N5 O18 1.256336 1_555
N6 O21 1.256336 1_555
N6 O16 1.256336 1_555
N6 O20 1.256336 1_555
N7 O19 1.256336 1_555
N7 O17 1.256336 1_555
N7 O22 1.256336 1_555
