# generated using pymatgen
data_CsTlBr4
_symmetry_space_group_name_H-M   'P 1'
_cell_length_a   6.84315948
_cell_length_b   7.70697172
_cell_length_c   17.93984127
_cell_angle_alpha   90.00000000
_cell_angle_beta   90.00000000
_cell_angle_gamma   90.00000000
_symmetry_Int_Tables_number   1
_chemical_formula_structural   CsTlBr4
_chemical_formula_sum   'Cs4 Tl4 Br16'
_cell_volume   946.14788496
_cell_formula_units_Z   4
loop_
 _symmetry_equiv_pos_site_id
 _symmetry_equiv_pos_as_xyz
  1  'x, y, z'
loop_
 _atom_site_type_symbol
 _atom_site_label
 _atom_site_symmetry_multiplicity
 _atom_site_fract_x
 _atom_site_fract_y
 _atom_site_fract_z
 _atom_site_occupancy
  Cs  Cs0  1  0.08813871  0.53387875  0.36835333  1
  Cs  Cs1  1  0.91186129  0.03387875  0.13164667  1
  Cs  Cs2  1  0.41186129  0.46612125  0.86835333  1
  Cs  Cs3  1  0.58813871  0.96612125  0.63164667  1
  Tl  Tl0  1  0.58214923  0.96351724  0.36922398  1
  Tl  Tl1  1  0.91785077  0.03648276  0.86922398  1
  Tl  Tl2  1  0.41785077  0.46351724  0.13077602  1
  Tl  Tl3  1  0.08214923  0.53648276  0.63077602  1
  Br  Br0  1  0.57357296  0.69464717  0.04562797  1
  Br  Br1  1  0.92642704  0.30535283  0.54562797  1
  Br  Br2  1  0.08510292  0.82371270  0.55293847  1
  Br  Br3  1  0.41489708  0.17628730  0.05293847  1
  Br  Br4  1  0.42642704  0.19464717  0.45437203  1
  Br  Br5  1  0.08027400  0.10023456  0.74148088  1
  Br  Br6  1  0.04983052  0.53025007  0.15861123  1
  Br  Br7  1  0.58510292  0.67628730  0.44706153  1
  Br  Br8  1  0.91972600  0.60023456  0.75851912  1
  Br  Br9  1  0.07357296  0.80535283  0.95437203  1
  Br  Br10  1  0.41972600  0.89976544  0.24148088  1
  Br  Br11  1  0.91489708  0.32371270  0.94706153  1
  Br  Br12  1  0.54983052  0.96974993  0.84138877  1
  Br  Br13  1  0.58027400  0.39976544  0.25851912  1
  Br  Br14  1  0.45016948  0.46974993  0.65861123  1
  Br  Br15  1  0.95016948  0.03025007  0.34138877  1
loop_
_geom_bond_atom_site_label_1
_geom_bond_atom_site_label_2
_geom_bond_distance
_geom_bond_site_symmetry_2
Br0 Tl2 2.577213 1_555
Br0 Cs2 3.800099 1_554
Br0 Cs1 3.817818 1_565
Br1 Tl3 2.577213 1_655
Br1 Cs0 3.800099 1_655
Br1 Cs3 3.817818 1_545
Br2 Tl3 2.617379 1_555
Br2 Cs3 3.842375 1_455
Br2 Cs3 3.879197 1_555
Br2 Cs0 3.994445 1_555
Br3 Tl2 2.617379 1_555
Br3 Cs1 3.842375 1_555
Br3 Cs1 3.879197 1_455
Br3 Cs2 3.994445 1_554
Br4 Tl0 2.577213 1_545
Br4 Cs3 3.800099 1_545
Br4 Cs0 3.817818 1_555
Br5 Tl1 2.593966 1_455
Br5 Cs3 4.036417 1_445
Br5 Cs3 4.126652 1_545
Br5 Cs2 4.275635 1_555
Br6 Tl2 2.618457 1_555
Br6 Cs0 3.771965 1_555
Br6 Cs1 3.969889 1_455
Br6 Cs1 4.023815 1_465
Br7 Tl0 2.617379 1_555
Br7 Cs0 3.842375 1_555
Br7 Cs0 3.879197 1_655
Br7 Cs3 3.994445 1_555
Br8 Tl3 2.593966 1_655
Br8 Cs2 4.036417 1_655
Br8 Cs2 4.126652 1_555
Br8 Cs3 4.275635 1_555
Br9 Tl1 2.577213 1_465
Br9 Cs1 3.800099 1_466
Br9 Cs2 3.817818 1_555
Br10 Tl0 2.593966 1_555
Br10 Cs1 4.036417 1_565
Br10 Cs1 4.126652 1_465
Br10 Cs0 4.275635 1_555
Br11 Tl1 2.617379 1_555
Br11 Cs2 3.842375 1_655
Br11 Cs2 3.879197 1_555
Br11 Cs1 3.994445 1_556
Br12 Tl1 2.618457 1_565
Br12 Cs3 3.771965 1_555
Br12 Cs2 3.969889 1_565
Br12 Cs2 4.023815 1_555
Br13 Tl2 2.593966 1_555
Br13 Cs0 4.036417 1_555
Br13 Cs0 4.126652 1_655
Br13 Cs1 4.275635 1_555
Br14 Tl3 2.618457 1_555
Br14 Cs2 3.771965 1_555
Br14 Cs3 3.969889 1_555
Br14 Cs3 4.023815 1_545
Br15 Tl0 2.618457 1_545
Br15 Cs1 3.771965 1_555
Br15 Cs0 3.969889 1_645
Br15 Cs0 4.023815 1_655
