# generated using pymatgen
data_Nb3SnS6
_symmetry_space_group_name_H-M   'P 1'
_cell_length_a   5.85017274
_cell_length_b   5.85017373
_cell_length_c   14.45335667
_cell_angle_alpha   90.00000000
_cell_angle_beta   90.00000000
_cell_angle_gamma   119.99998852
_symmetry_Int_Tables_number   1
_chemical_formula_structural   Nb3SnS6
_chemical_formula_sum   'Nb6 Sn2 S12'
_cell_volume   428.38756443
_cell_formula_units_Z   2
loop_
 _symmetry_equiv_pos_site_id
 _symmetry_equiv_pos_as_xyz
  1  'x, y, z'
loop_
 _atom_site_type_symbol
 _atom_site_label
 _atom_site_symmetry_multiplicity
 _atom_site_fract_x
 _atom_site_fract_y
 _atom_site_fract_z
 _atom_site_occupancy
  Nb  Nb0  1  0.33333300  0.66666700  0.99893401  1
  Nb  Nb1  1  -0.00000000  0.00000000  -0.00000000  1
  Nb  Nb2  1  0.66666700  0.33333300  0.00106599  1
  Nb  Nb3  1  0.33333300  0.66666700  0.50106599  1
  Nb  Nb4  1  -0.00000000  0.00000000  0.50000000  1
  Nb  Nb5  1  0.66666700  0.33333300  0.49893401  1
  Sn  Sn0  1  0.33333300  0.66666700  0.25000000  1
  Sn  Sn1  1  0.66666700  0.33333300  0.75000000  1
  S  S0  1  0.66755162  0.66728548  0.39225285  1
  S  S1  1  0.66728548  0.66755162  0.60774715  1
  S  S2  1  0.00026514  0.66755162  0.89225285  1
  S  S3  1  0.66728548  0.99973486  0.89225285  1
  S  S4  1  0.66755162  0.00026514  0.10774715  1
  S  S5  1  0.33271452  0.00026514  0.39225285  1
  S  S6  1  0.00026514  0.33271452  0.60774715  1
  S  S7  1  0.33244838  0.99973486  0.60774715  1
  S  S8  1  0.99973486  0.66728548  0.10774715  1
  S  S9  1  0.33244838  0.33271452  0.89225285  1
  S  S10  1  0.99973486  0.33244838  0.39225285  1
  S  S11  1  0.33271452  0.33244838  0.10774715  1
loop_
_geom_bond_atom_site_label_1
_geom_bond_atom_site_label_2
_geom_bond_distance
_geom_bond_site_symmetry_2
Nb0 S2 2.486813 1_555
Nb0 S9 2.486813 1_555
Nb0 S3 2.486813 1_555
Nb0 S8 2.507843 1_456
Nb0 S4 2.507848 1_566
Nb0 S11 2.507852 1_556
Nb1 S4 2.492145 1_455
Nb1 S2 2.492145 1_544
Nb1 S11 2.492148 1_555
Nb1 S9 2.492148 1_554
Nb1 S3 2.492150 1_444
Nb1 S8 2.492150 1_445
Nb2 S11 2.486813 1_555
Nb2 S4 2.486813 1_555
Nb2 S8 2.486813 1_555
Nb2 S3 2.507843 1_544
Nb2 S2 2.507848 1_654
Nb2 S9 2.507852 1_554
Nb3 S1 2.486813 1_555
Nb3 S7 2.486813 1_555
Nb3 S6 2.486813 1_555
Nb3 S5 2.507843 1_565
Nb3 S10 2.507848 1_455
Nb3 S0 2.507852 1_555
Nb4 S7 2.492145 1_545
Nb4 S10 2.492145 1_455
Nb4 S1 2.492148 1_445
Nb4 S0 2.492148 1_445
Nb4 S5 2.492150 1_555
Nb4 S6 2.492150 1_555
Nb5 S10 2.486813 1_555
Nb5 S0 2.486813 1_555
Nb5 S5 2.486813 1_555
Nb5 S6 2.507843 1_655
Nb5 S7 2.507848 1_545
Nb5 S1 2.507852 1_555
S0 Sn0 2.836045 1_555
S1 Sn1 2.836046 1_555
S2 Sn1 2.836042 1_455
S3 Sn1 2.836038 1_565
S4 Sn0 2.836042 1_545
S5 Sn0 2.836038 1_545
S6 Sn1 2.836037 1_455
S7 Sn1 2.836042 1_565
S8 Sn0 2.836037 1_655
S9 Sn1 2.836045 1_555
S10 Sn0 2.836042 1_655
S11 Sn0 2.836046 1_555
