# generated using pymatgen
data_Ag2BrNO3
_symmetry_space_group_name_H-M   'P 1'
_cell_length_a   5.15686000
_cell_length_b   6.90573100
_cell_length_c   13.26076100
_cell_angle_alpha   90.00000000
_cell_angle_beta   90.00000000
_cell_angle_gamma   90.00000000
_symmetry_Int_Tables_number   1
_chemical_formula_structural   Ag2BrNO3
_chemical_formula_sum   'Ag8 Br4 N4 O12'
_cell_volume   472.24073506
_cell_formula_units_Z   4
loop_
 _symmetry_equiv_pos_site_id
 _symmetry_equiv_pos_as_xyz
  1  'x, y, z'
loop_
 _atom_site_type_symbol
 _atom_site_label
 _atom_site_symmetry_multiplicity
 _atom_site_fract_x
 _atom_site_fract_y
 _atom_site_fract_z
 _atom_site_occupancy
  Ag  Ag0  1  0.25000000  0.35410600  0.24532100  1
  Ag  Ag1  1  0.25000000  0.74785900  0.53124600  1
  Ag  Ag2  1  0.75000000  0.75214100  0.03124600  1
  Ag  Ag3  1  0.75000000  0.25214100  0.46875400  1
  Ag  Ag4  1  0.75000000  0.14589400  0.74532100  1
  Ag  Ag5  1  0.75000000  0.64589400  0.75467900  1
  Ag  Ag6  1  0.25000000  0.24785900  0.96875400  1
  Ag  Ag7  1  0.25000000  0.85410600  0.25467900  1
  Br  Br0  1  0.75000000  0.88800600  0.59175900  1
  Br  Br1  1  0.25000000  0.61199400  0.09175900  1
  Br  Br2  1  0.75000000  0.38800600  0.90824100  1
  Br  Br3  1  0.25000000  0.11199400  0.40824100  1
  N  N0  1  0.25000000  0.85632200  0.85230400  1
  N  N1  1  0.25000000  0.35632200  0.64769600  1
  N  N2  1  0.75000000  0.14367800  0.14769600  1
  N  N3  1  0.75000000  0.64367800  0.35230400  1
  O  O0  1  0.25000000  0.21323000  0.70736600  1
  O  O1  1  0.03695100  0.42966800  0.61758200  1
  O  O2  1  0.75000000  0.78677000  0.29263400  1
  O  O3  1  0.46304900  0.42966800  0.61758200  1
  O  O4  1  0.03695100  0.92966800  0.88241800  1
  O  O5  1  0.46304900  0.92966800  0.88241800  1
  O  O6  1  0.25000000  0.71323000  0.79263400  1
  O  O7  1  0.75000000  0.28677000  0.20736600  1
  O  O8  1  0.53695100  0.07033200  0.11758200  1
  O  O9  1  0.96304900  0.57033200  0.38241800  1
  O  O10  1  0.96304900  0.07033200  0.11758200  1
  O  O11  1  0.53695100  0.57033200  0.38241800  1
loop_
_geom_bond_atom_site_label_1
_geom_bond_atom_site_label_2
_geom_bond_distance
_geom_bond_site_symmetry_2
Ag0 O7 2.667931 1_555
Ag0 O7 2.667931 1_455
Ag0 Br1 2.705243 1_555
Ag0 Br3 2.731843 1_555
Ag0 O11 2.779301 1_555
Ag0 O9 2.779301 1_455
Ag1 O1 2.710373 1_555
Ag1 O3 2.710373 1_555
Ag1 O11 2.754571 1_555
Ag1 O9 2.754571 1_455
Ag1 Br0 2.868605 1_455
Ag1 Br0 2.868605 1_555
Ag1 Br3 2.997319 1_565
Ag2 O10 2.710373 1_565
Ag2 O8 2.710373 1_565
Ag2 O4 2.754571 1_654
Ag2 O5 2.754571 1_554
Ag2 Br1 2.868605 1_555
Ag2 Br1 2.868605 1_655
Ag2 Br2 2.997319 1_554
Ag3 O9 2.710373 1_555
Ag3 O11 2.710373 1_555
Ag3 O3 2.754571 1_555
Ag3 O1 2.754571 1_655
Ag3 Br3 2.868605 1_655
Ag3 Br3 2.868605 1_555
Ag3 Br0 2.997319 1_545
Ag4 O0 2.667931 1_655
Ag4 O0 2.667931 1_555
Ag4 Br0 2.705243 1_545
Ag4 Br2 2.731843 1_555
Ag4 O4 2.779301 1_645
Ag4 O5 2.779301 1_545
Ag5 O6 2.667931 1_555
Ag5 O6 2.667931 1_655
Ag5 Br2 2.705243 1_555
Ag5 Br0 2.731843 1_555
Ag5 O1 2.779301 1_655
Ag5 O3 2.779301 1_555
Ag6 O5 2.710373 1_545
Ag6 O4 2.710373 1_545
Ag6 O8 2.754571 1_556
Ag6 O10 2.754571 1_456
Ag6 Br2 2.868605 1_455
Ag6 Br2 2.868605 1_555
Ag6 Br1 2.997319 1_556
Ag7 O2 2.667931 1_555
Ag7 O2 2.667931 1_455
Ag7 Br3 2.705243 1_565
Ag7 Br1 2.731843 1_555
Ag7 O10 2.779301 1_465
Ag7 O8 2.779301 1_565
N0 O6 1.265922 1_555
N0 O5 1.274002 1_555
N0 O4 1.274002 1_555
N1 O0 1.265922 1_555
N1 O3 1.274002 1_555
N1 O1 1.274002 1_555
N2 O7 1.265922 1_555
N2 O8 1.274002 1_555
N2 O10 1.274002 1_555
N3 O2 1.265922 1_555
N3 O9 1.274002 1_555
N3 O11 1.274002 1_555
