# generated using pymatgen
data_SnHg2(SBr)2
_symmetry_space_group_name_H-M   'P 1'
_cell_length_a   10.27694300
_cell_length_b   10.51031600
_cell_length_c   11.97064757
_cell_angle_alpha   71.41757094
_cell_angle_beta   90.00000000
_cell_angle_gamma   90.00000000
_symmetry_Int_Tables_number   1
_chemical_formula_structural   SnHg2(SBr)2
_chemical_formula_sum   'Sn4 Hg8 S8 Br8'
_cell_volume   1225.58770263
_cell_formula_units_Z   4
loop_
 _symmetry_equiv_pos_site_id
 _symmetry_equiv_pos_as_xyz
  1  'x, y, z'
loop_
 _atom_site_type_symbol
 _atom_site_label
 _atom_site_symmetry_multiplicity
 _atom_site_fract_x
 _atom_site_fract_y
 _atom_site_fract_z
 _atom_site_occupancy
  Sn  Sn0  1  0.12896100  0.83800800  0.01481700  1
  Sn  Sn1  1  0.37103900  0.83800800  0.51481700  1
  Sn  Sn2  1  0.62896100  0.16199200  0.48518300  1
  Sn  Sn3  1  0.87103900  0.16199200  0.98518300  1
  Hg  Hg0  1  0.43331300  0.68444500  0.19117500  1
  Hg  Hg1  1  0.16017000  0.53709900  0.39569900  1
  Hg  Hg2  1  0.66017000  0.46290100  0.10430100  1
  Hg  Hg3  1  0.56668700  0.31555500  0.80882500  1
  Hg  Hg4  1  0.33983000  0.53709900  0.89569900  1
  Hg  Hg5  1  0.06668700  0.68444500  0.69117500  1
  Hg  Hg6  1  0.93331300  0.31555500  0.30882500  1
  Hg  Hg7  1  0.83983000  0.46290100  0.60430100  1
  S  S0  1  0.28968900  0.73633900  0.32633600  1
  S  S1  1  0.21031100  0.73633900  0.82633600  1
  S  S2  1  0.05097600  0.32752500  0.47413200  1
  S  S3  1  0.44902400  0.32752500  0.97413200  1
  S  S4  1  0.78968900  0.26366100  0.17366400  1
  S  S5  1  0.55097600  0.67247500  0.02586800  1
  S  S6  1  0.71031100  0.26366100  0.67366400  1
  S  S7  1  0.94902400  0.67247500  0.52586800  1
  Br  Br0  1  0.97598800  0.63958700  0.14409200  1
  Br  Br1  1  0.02401200  0.36041300  0.85590800  1
  Br  Br2  1  0.47598800  0.36041300  0.35590800  1
  Br  Br3  1  0.94112900  0.96044200  0.86126400  1
  Br  Br4  1  0.44112900  0.03955800  0.63873600  1
  Br  Br5  1  0.05887100  0.03955800  0.13873600  1
  Br  Br6  1  0.55887100  0.96044200  0.36126400  1
  Br  Br7  1  0.52401200  0.63958700  0.64409200  1
loop_
_geom_bond_atom_site_label_1
_geom_bond_atom_site_label_2
_geom_bond_distance
_geom_bond_site_symmetry_2
Hg0 S5 2.356369 1_555
Hg0 S0 2.378308 1_555
Hg1 S2 2.382137 1_555
Hg1 S0 2.395439 1_555
Hg2 S5 2.382137 1_555
Hg2 S4 2.395439 1_555
Hg3 S3 2.356369 1_555
Hg3 S6 2.378308 1_555
Hg4 S3 2.382137 1_555
Hg4 S1 2.395439 1_555
Hg5 S7 2.356369 1_455
Hg5 S1 2.378308 1_555
Hg6 S2 2.356369 1_655
Hg6 S4 2.378308 1_555
Hg7 S7 2.382137 1_555
Hg7 S6 2.395439 1_555
S0 Sn1 2.909984 1_555
S1 Sn0 2.909984 1_556
S4 Sn3 2.909984 1_554
S6 Sn2 2.909984 1_555
Br0 Sn0 2.675550 1_655
Br1 Sn3 2.675550 1_455
Br2 Sn2 2.675550 1_555
Br3 Sn0 2.693197 1_656
Br3 Sn3 3.034708 1_565
Br4 Sn2 2.693197 1_555
Br4 Sn1 3.034708 1_545
Br5 Sn3 2.693197 1_454
Br5 Sn0 3.034708 1_545
Br6 Sn1 2.693197 1_555
Br6 Sn2 3.034708 1_565
Br7 Sn1 2.675550 1_555
