# generated using pymatgen
data_Bi5IO7
_symmetry_space_group_name_H-M   'P 1'
_cell_length_a   5.35316325
_cell_length_b   14.41238602
_cell_length_c   14.41238615
_cell_angle_alpha   69.12514048
_cell_angle_beta   79.29567057
_cell_angle_gamma   79.29567918
_symmetry_Int_Tables_number   1
_chemical_formula_structural   Bi5IO7
_chemical_formula_sum   'Bi20 I4 O28'
_cell_volume   1012.18359055
_cell_formula_units_Z   4
loop_
 _symmetry_equiv_pos_site_id
 _symmetry_equiv_pos_as_xyz
  1  'x, y, z'
loop_
 _atom_site_type_symbol
 _atom_site_label
 _atom_site_symmetry_multiplicity
 _atom_site_fract_x
 _atom_site_fract_y
 _atom_site_fract_z
 _atom_site_occupancy
  Bi  Bi0  1  0.21783086  0.38419951  0.73691572  1
  Bi  Bi1  1  0.47359750  0.48016692  0.14013385  1
  Bi  Bi2  1  0.66104868  0.88420253  0.23691153  1
  Bi  Bi3  1  0.16104868  0.73691153  0.38420253  1
  Bi  Bi4  1  0.28216914  0.76308428  0.11580049  1
  Bi  Bi5  1  0.59389167  0.85987185  0.51983635  1
  Bi  Bi6  1  0.33895132  0.11579747  0.76308847  1
  Bi  Bi7  1  0.97359750  0.64013385  0.98016692  1
  Bi  Bi8  1  0.70062815  0.54935711  0.54936540  1
  Bi  Bi9  1  0.83895132  0.26308847  0.61579747  1
  Bi  Bi10  1  0.78216914  0.61580049  0.26308428  1
  Bi  Bi11  1  0.79937185  0.95063460  0.95064289  1
  Bi  Bi12  1  0.90610833  0.98016365  0.64012815  1
  Bi  Bi13  1  0.09389167  0.01983635  0.35987185  1
  Bi  Bi14  1  0.52640250  0.51983308  0.85986615  1
  Bi  Bi15  1  0.71783086  0.23691572  0.88419951  1
  Bi  Bi16  1  0.20062815  0.04936540  0.04935711  1
  Bi  Bi17  1  0.02640250  0.35986615  0.01983308  1
  Bi  Bi18  1  0.40610833  0.14012815  0.48016365  1
  Bi  Bi19  1  0.29937185  0.45064289  0.45063460  1
  I  I0  1  0.41073612  0.83947966  0.83948953  1
  I  I1  1  0.08926388  0.66051047  0.66052034  1
  I  I2  1  0.91073612  0.33948953  0.33947966  1
  I  I3  1  0.58926388  0.16052034  0.16051047  1
  O  O0  1  0.47701595  0.42303924  0.58430484  1
  O  O1  1  0.97701595  0.08430484  0.92304024  1
  O  O2  1  0.72077850  0.78778123  0.41046985  1
  O  O3  1  0.96619437  0.90543496  0.49348617  1
  O  O4  1  0.91897862  0.71223739  0.08952060  1
  O  O5  1  0.27922150  0.21221877  0.58953015  1
  O  O6  1  0.51561584  0.92304391  0.08430066  1
  O  O7  1  0.46619437  0.99348617  0.40543496  1
  O  O8  1  0.77922150  0.08953015  0.71221877  1
  O  O9  1  0.86510718  0.50652652  0.09456606  1
  O  O10  1  0.49414777  0.24999587  0.75000686  1
  O  O11  1  0.52298405  0.57695976  0.41569516  1
  O  O12  1  0.08102138  0.28776261  0.91047940  1
  O  O13  1  0.13489282  0.49347348  0.90543394  1
  O  O14  1  0.36510718  0.59456606  0.00652652  1
  O  O15  1  0.58102138  0.41047940  0.78776261  1
  O  O16  1  0.99414777  0.25000686  0.74999587  1
  O  O17  1  0.41897862  0.58952060  0.21223739  1
  O  O18  1  0.48438416  0.07695709  0.91569934  1
  O  O19  1  0.01561584  0.58430066  0.42304291  1
  O  O20  1  0.03380563  0.09456504  0.50651383  1
  O  O21  1  0.53380563  0.00651383  0.59456504  1
  O  O22  1  0.00585223  0.74999314  0.25000413  1
  O  O23  1  0.63489282  0.40543394  0.99347348  1
  O  O24  1  0.50585223  0.75000413  0.24999314  1
  O  O25  1  0.98438416  0.41569934  0.57695609  1
  O  O26  1  0.22077850  0.91046985  0.28778123  1
  O  O27  1  0.02298405  0.91569516  0.07696076  1
loop_
_geom_bond_atom_site_label_1
_geom_bond_atom_site_label_2
_geom_bond_distance
_geom_bond_site_symmetry_2
Bi0 O10 2.178404 1_555
Bi0 O0 2.313778 1_555
Bi0 O15 2.336901 1_555
Bi0 O16 2.392997 1_455
Bi0 O12 2.438305 1_555
Bi0 O25 2.682587 1_455
Bi1 O17 2.128956 1_555
Bi1 O14 2.135601 1_555
Bi1 O9 2.138864 1_555
Bi1 O23 2.640546 1_554
Bi2 O24 2.178402 1_555
Bi2 O6 2.313862 1_555
Bi2 O26 2.336659 1_555
Bi2 O22 2.393106 1_655
Bi2 O2 2.438266 1_555
Bi2 O27 2.682535 1_655
Bi3 O22 2.178402 1_555
Bi3 O19 2.313865 1_555
Bi3 O2 2.336659 1_455
Bi3 O24 2.393106 1_555
Bi3 O26 2.438266 1_555
Bi3 O11 2.682545 1_555
Bi4 O22 2.178403 1_555
Bi4 O27 2.313778 1_555
Bi4 O4 2.336901 1_455
Bi4 O24 2.392997 1_555
Bi4 O17 2.438305 1_555
Bi4 O6 2.682587 1_555
Bi5 O2 2.128996 1_555
Bi5 O7 2.135669 1_555
Bi5 O3 2.138870 1_555
Bi5 O21 2.640284 1_565
Bi6 O10 2.178402 1_555
Bi6 O18 2.313865 1_555
Bi6 O8 2.336659 1_555
Bi6 O16 2.393106 1_455
Bi6 O5 2.438266 1_555
Bi6 O1 2.682545 1_455
Bi7 O4 2.128956 1_556
Bi7 O9 2.135601 1_556
Bi7 O14 2.138864 1_656
Bi7 O13 2.640546 1_655
Bi8 O25 2.183507 1_555
Bi8 O11 2.183543 1_555
Bi8 O19 2.221054 1_655
Bi8 O0 2.221066 1_555
Bi9 O16 2.178402 1_555
Bi9 O25 2.313862 1_555
Bi9 O5 2.336659 1_655
Bi9 O10 2.393106 1_555
Bi9 O8 2.438266 1_555
Bi9 O0 2.682535 1_555
Bi10 O24 2.178404 1_555
Bi10 O11 2.313778 1_555
Bi10 O17 2.336901 1_555
Bi10 O22 2.392997 1_655
Bi10 O4 2.438305 1_555
Bi10 O19 2.682574 1_655
Bi11 O6 2.183507 1_556
Bi11 O1 2.183543 1_565
Bi11 O18 2.221054 1_565
Bi11 O27 2.221066 1_656
Bi12 O8 2.128996 1_565
Bi12 O20 2.135668 1_665
Bi12 O21 2.138870 1_565
Bi12 O3 2.640284 1_555
Bi13 O26 2.128996 1_545
Bi13 O3 2.135668 1_445
Bi13 O7 2.138870 1_545
Bi13 O20 2.640284 1_555
Bi14 O15 2.128956 1_555
Bi14 O23 2.135601 1_555
Bi14 O13 2.138864 1_555
Bi14 O14 2.640546 1_556
Bi15 O16 2.178403 1_555
Bi15 O1 2.313778 1_555
Bi15 O12 2.336901 1_655
Bi15 O10 2.392997 1_555
Bi15 O15 2.438305 1_555
Bi15 O18 2.682574 1_555
Bi16 O18 2.183507 1_554
Bi16 O27 2.183539 1_545
Bi16 O6 2.221045 1_545
Bi16 O1 2.221054 1_454
Bi17 O12 2.128956 1_554
Bi17 O13 2.135601 1_554
Bi17 O23 2.138864 1_454
Bi17 O9 2.640546 1_455
Bi18 O5 2.128996 1_555
Bi18 O21 2.135669 1_555
Bi18 O20 2.138870 1_555
Bi18 O7 2.640284 1_545
Bi19 O19 2.183507 1_555
Bi19 O0 2.183540 1_555
Bi19 O25 2.221045 1_455
Bi19 O11 2.221053 1_555
