# generated using pymatgen
data_La7Sb11Br4
_symmetry_space_group_name_H-M   'P 1'
_cell_length_a   4.34952200
_cell_length_b   19.87974200
_cell_length_c   31.25885400
_cell_angle_alpha   90.00000000
_cell_angle_beta   90.00000000
_cell_angle_gamma   90.00000000
_symmetry_Int_Tables_number   1
_chemical_formula_structural   La7Sb11Br4
_chemical_formula_sum   'La28 Sb44 Br16'
_cell_volume   2702.87105662
_cell_formula_units_Z   4
loop_
 _symmetry_equiv_pos_site_id
 _symmetry_equiv_pos_as_xyz
  1  'x, y, z'
loop_
 _atom_site_type_symbol
 _atom_site_label
 _atom_site_symmetry_multiplicity
 _atom_site_fract_x
 _atom_site_fract_y
 _atom_site_fract_z
 _atom_site_occupancy
  La  La0  1  0.75000000  0.19321000  0.11346500  1
  La  La1  1  0.25000000  0.02813400  0.63847200  1
  La  La2  1  0.25000000  0.80679000  0.88653500  1
  La  La3  1  0.75000000  0.47019600  0.42243900  1
  La  La4  1  0.25000000  0.36419700  0.25784200  1
  La  La5  1  0.25000000  0.14103800  0.51207300  1
  La  La6  1  0.25000000  0.25324000  0.38614200  1
  La  La7  1  0.25000000  0.97019600  0.07756100  1
  La  La8  1  0.25000000  0.13580300  0.75784200  1
  La  La9  1  0.75000000  0.08030700  0.24146800  1
  La  La10  1  0.25000000  0.69321000  0.38653500  1
  La  La11  1  0.75000000  0.41969300  0.74146800  1
  La  La12  1  0.75000000  0.74676000  0.61385800  1
  La  La13  1  0.25000000  0.52980400  0.57756100  1
  La  La14  1  0.75000000  0.86419700  0.24215800  1
  La  La15  1  0.25000000  0.24676000  0.88614200  1
  La  La16  1  0.75000000  0.75324000  0.11385800  1
  La  La17  1  0.25000000  0.35896200  0.01207300  1
  La  La18  1  0.75000000  0.97186600  0.36152800  1
  La  La19  1  0.75000000  0.52813400  0.86152800  1
  La  La20  1  0.75000000  0.63580300  0.74215800  1
  La  La21  1  0.75000000  0.64103800  0.98792700  1
  La  La22  1  0.75000000  0.02980400  0.92243900  1
  La  La23  1  0.75000000  0.85896200  0.48792700  1
  La  La24  1  0.75000000  0.30679000  0.61346500  1
  La  La25  1  0.25000000  0.58030700  0.25853200  1
  La  La26  1  0.25000000  0.91969300  0.75853200  1
  La  La27  1  0.25000000  0.47186600  0.13847200  1
  Sb  Sb0  1  0.75000000  0.35858700  0.33993800  1
  Sb  Sb1  1  0.75000000  0.52735500  0.65844800  1
  Sb  Sb2  1  0.75000000  0.97264500  0.15844800  1
  Sb  Sb3  1  0.25000000  0.97269600  0.28188000  1
  Sb  Sb4  1  0.75000000  0.69576700  0.21640600  1
  Sb  Sb5  1  0.25000000  0.30423300  0.78359400  1
  Sb  Sb6  1  0.75000000  0.14285000  0.34247700  1
  Sb  Sb7  1  0.75000000  0.91494300  0.84157300  1
  Sb  Sb8  1  0.75000000  0.36610400  0.09280300  1
  Sb  Sb9  1  0.25000000  0.75124800  0.78388400  1
  Sb  Sb10  1  0.75000000  0.80423300  0.71640600  1
  Sb  Sb11  1  0.75000000  0.02730400  0.71812000  1
  Sb  Sb12  1  0.25000000  0.19589300  0.65640000  1
  Sb  Sb13  1  0.25000000  0.19576700  0.28359400  1
  Sb  Sb14  1  0.75000000  0.24875200  0.21611600  1
  Sb  Sb15  1  0.25000000  0.41494300  0.65842700  1
  Sb  Sb16  1  0.75000000  0.02830400  0.46689000  1
  Sb  Sb17  1  0.75000000  0.47169600  0.96689000  1
  Sb  Sb18  1  0.25000000  0.97169600  0.53311000  1
  Sb  Sb19  1  0.75000000  0.25124800  0.71611600  1
  Sb  Sb20  1  0.25000000  0.52730400  0.78188000  1
  Sb  Sb21  1  0.25000000  0.85858700  0.16006200  1
  Sb  Sb22  1  0.25000000  0.52830400  0.03311000  1
  Sb  Sb23  1  0.75000000  0.14141300  0.83993800  1
  Sb  Sb24  1  0.25000000  0.64141300  0.66006200  1
  Sb  Sb25  1  0.75000000  0.58240500  0.09143900  1
  Sb  Sb26  1  0.75000000  0.58505700  0.34157300  1
  Sb  Sb27  1  0.25000000  0.41759500  0.90856100  1
  Sb  Sb28  1  0.75000000  0.80410700  0.34360000  1
  Sb  Sb29  1  0.25000000  0.86610400  0.40719700  1
  Sb  Sb30  1  0.25000000  0.47264500  0.34155200  1
  Sb  Sb31  1  0.75000000  0.47269600  0.21812000  1
  Sb  Sb32  1  0.25000000  0.63389600  0.90719700  1
  Sb  Sb33  1  0.75000000  0.13389600  0.59280300  1
  Sb  Sb34  1  0.25000000  0.08505700  0.15842700  1
  Sb  Sb35  1  0.25000000  0.85715000  0.65752300  1
  Sb  Sb36  1  0.25000000  0.08240500  0.40856100  1
  Sb  Sb37  1  0.75000000  0.91759500  0.59143900  1
  Sb  Sb38  1  0.25000000  0.74875200  0.28388400  1
  Sb  Sb39  1  0.75000000  0.35715000  0.84247700  1
  Sb  Sb40  1  0.75000000  0.69589300  0.84360000  1
  Sb  Sb41  1  0.25000000  0.30410700  0.15640000  1
  Sb  Sb42  1  0.25000000  0.64285000  0.15752300  1
  Sb  Sb43  1  0.25000000  0.02735500  0.84155200  1
  Br  Br0  1  0.25000000  0.21221500  0.04705900  1
  Br  Br1  1  0.25000000  0.77223200  0.53984600  1
  Br  Br2  1  0.75000000  0.43917900  0.53975100  1
  Br  Br3  1  0.75000000  0.27223200  0.96015400  1
  Br  Br4  1  0.75000000  0.71221500  0.45294100  1
  Br  Br5  1  0.75000000  0.06082100  0.03975100  1
  Br  Br6  1  0.25000000  0.72776800  0.03984600  1
  Br  Br7  1  0.25000000  0.56082100  0.46024900  1
  Br  Br8  1  0.25000000  0.28778500  0.54705900  1
  Br  Br9  1  0.25000000  0.37378700  0.44928400  1
  Br  Br10  1  0.75000000  0.62621300  0.55071600  1
  Br  Br11  1  0.25000000  0.93917900  0.96024900  1
  Br  Br12  1  0.25000000  0.12621300  0.94928400  1
  Br  Br13  1  0.75000000  0.87378700  0.05071600  1
  Br  Br14  1  0.75000000  0.22776800  0.46015400  1
  Br  Br15  1  0.75000000  0.78778500  0.95294100  1
loop_
_geom_bond_atom_site_label_1
_geom_bond_atom_site_label_2
_geom_bond_distance
_geom_bond_site_symmetry_2
La0 Sb34 3.365655 1_655
La0 Sb34 3.365655 1_555
La0 Sb41 3.375069 1_555
La0 Sb41 3.375069 1_655
La0 Sb14 3.393415 1_555
La0 Sb8 3.497245 1_555
La1 Sb11 3.305827 1_555
La1 Sb11 3.305827 1_455
La1 Sb33 3.344863 1_455
La1 Sb33 3.344863 1_555
La1 Sb12 3.381763 1_555
La1 Sb37 3.423451 1_445
La1 Sb37 3.423451 1_545
La1 Sb35 3.450889 1_545
La1 Sb18 3.479358 1_545
La2 Sb7 3.365655 1_455
La2 Sb7 3.365655 1_555
La2 Sb40 3.375069 1_555
La2 Sb40 3.375069 1_455
La2 Sb9 3.393415 1_555
La2 Sb32 3.497245 1_555
La3 Sb30 3.335407 1_555
La3 Sb30 3.335407 1_655
La3 Sb0 3.401991 1_555
La3 Sb26 3.406407 1_555
La4 Sb31 3.305098 1_555
La4 Sb31 3.305098 1_455
La4 Sb0 3.365642 1_555
La4 Sb0 3.365642 1_455
La4 Sb41 3.388510 1_555
La4 Sb30 3.390426 1_555
La4 Sb14 3.420220 1_555
La4 Sb14 3.420220 1_455
La4 Sb13 3.443748 1_555
La5 Sb33 3.334357 1_455
La5 Sb33 3.334357 1_555
La5 Sb16 3.427390 1_455
La5 Sb16 3.427390 1_555
La5 Sb18 3.430100 1_545
La5 Sb36 3.439212 1_555
La6 Sb0 3.346866 1_555
La6 Sb0 3.346866 1_455
La6 Sb6 3.377651 1_455
La6 Sb6 3.377651 1_555
La6 Sb13 3.403066 1_555
La6 Sb36 3.467706 1_555
La7 Sb2 3.335407 1_455
La7 Sb2 3.335407 1_555
La7 Sb21 3.401991 1_555
La7 Sb34 3.406407 1_565
La8 Sb11 3.305098 1_455
La8 Sb11 3.305098 1_555
La8 Sb23 3.365642 1_455
La8 Sb23 3.365642 1_555
La8 Sb12 3.388510 1_555
La8 Sb43 3.390426 1_555
La8 Sb19 3.420220 1_455
La8 Sb19 3.420220 1_555
La8 Sb5 3.443748 1_555
La9 Sb3 3.301796 1_545
La9 Sb3 3.301796 1_645
La9 Sb2 3.363844 1_545
La9 Sb34 3.387699 1_655
La9 Sb34 3.387699 1_555
La9 Sb6 3.393409 1_555
La9 Sb13 3.425207 1_655
La9 Sb13 3.425207 1_555
La9 Sb14 3.441137 1_555
La10 Sb26 3.365655 1_555
La10 Sb26 3.365655 1_455
La10 Sb28 3.375069 1_455
La10 Sb28 3.375069 1_555
La10 Sb38 3.393415 1_555
La10 Sb29 3.497245 1_555
La11 Sb20 3.301796 1_655
La11 Sb20 3.301796 1_555
La11 Sb1 3.363844 1_555
La11 Sb15 3.387699 1_555
La11 Sb15 3.387699 1_655
La11 Sb39 3.393409 1_555
La11 Sb5 3.425207 1_655
La11 Sb5 3.425207 1_555
La11 Sb19 3.441137 1_555
La12 Sb24 3.346866 1_555
La12 Sb24 3.346866 1_655
La12 Sb35 3.377651 1_655
La12 Sb35 3.377651 1_555
La12 Sb10 3.403066 1_555
La12 Sb37 3.467706 1_555
La13 Sb1 3.335407 1_555
La13 Sb1 3.335407 1_455
La13 Sb24 3.401991 1_555
La13 Sb15 3.406407 1_555
La14 Sb3 3.305098 1_555
La14 Sb3 3.305098 1_655
La14 Sb21 3.365642 1_655
La14 Sb21 3.365642 1_555
La14 Sb28 3.388510 1_555
La14 Sb2 3.390426 1_555
La14 Sb38 3.420220 1_555
La14 Sb38 3.420220 1_655
La14 Sb4 3.443748 1_555
La15 Sb23 3.346866 1_455
La15 Sb23 3.346866 1_555
La15 Sb39 3.377651 1_455
La15 Sb39 3.377651 1_555
La15 Sb5 3.403066 1_555
La15 Sb27 3.467706 1_555
La16 Sb21 3.346866 1_555
La16 Sb21 3.346866 1_655
La16 Sb42 3.377651 1_555
La16 Sb42 3.377651 1_655
La16 Sb4 3.403066 1_555
La16 Sb25 3.467706 1_555
La17 Sb8 3.334357 1_455
La17 Sb8 3.334357 1_555
La17 Sb17 3.427390 1_554
La17 Sb17 3.427390 1_454
La17 Sb22 3.430100 1_555
La17 Sb27 3.439212 1_554
La18 Sb3 3.305827 1_655
La18 Sb3 3.305827 1_555
La18 Sb29 3.344863 1_555
La18 Sb29 3.344863 1_655
La18 Sb28 3.381763 1_555
La18 Sb36 3.423451 1_565
La18 Sb36 3.423451 1_665
La18 Sb6 3.450889 1_565
La18 Sb16 3.479358 1_565
La19 Sb20 3.305827 1_655
La19 Sb20 3.305827 1_555
La19 Sb32 3.344863 1_655
La19 Sb32 3.344863 1_555
La19 Sb40 3.381763 1_555
La19 Sb27 3.423451 1_555
La19 Sb27 3.423451 1_655
La19 Sb39 3.450889 1_555
La19 Sb17 3.479358 1_555
La20 Sb20 3.305098 1_555
La20 Sb20 3.305098 1_655
La20 Sb24 3.365642 1_555
La20 Sb24 3.365642 1_655
La20 Sb40 3.388510 1_555
La20 Sb1 3.390426 1_555
La20 Sb9 3.420220 1_555
La20 Sb9 3.420220 1_655
La20 Sb10 3.443748 1_555
La21 Sb32 3.334357 1_655
La21 Sb32 3.334357 1_555
La21 Sb22 3.427390 1_656
La21 Sb22 3.427390 1_556
La21 Sb17 3.430100 1_555
La21 Sb25 3.439212 1_556
La22 Sb43 3.335407 1_555
La22 Sb43 3.335407 1_655
La22 Sb23 3.401991 1_555
La22 Sb7 3.406407 1_545
La23 Sb29 3.334357 1_555
La23 Sb29 3.334357 1_655
La23 Sb18 3.427390 1_655
La23 Sb18 3.427390 1_555
La23 Sb16 3.430100 1_565
La23 Sb37 3.439212 1_555
La24 Sb15 3.365655 1_555
La24 Sb15 3.365655 1_655
La24 Sb12 3.375069 1_655
La24 Sb12 3.375069 1_555
La24 Sb19 3.393415 1_555
La24 Sb33 3.497245 1_555
La25 Sb31 3.301796 1_555
La25 Sb31 3.301796 1_455
La25 Sb30 3.363844 1_555
La25 Sb26 3.387699 1_555
La25 Sb26 3.387699 1_455
La25 Sb42 3.393409 1_555
La25 Sb4 3.425207 1_455
La25 Sb4 3.425207 1_555
La25 Sb38 3.441137 1_555
La26 Sb11 3.301796 1_565
La26 Sb11 3.301796 1_465
La26 Sb43 3.363844 1_565
La26 Sb7 3.387699 1_455
La26 Sb7 3.387699 1_555
La26 Sb35 3.393409 1_555
La26 Sb10 3.425207 1_555
La26 Sb10 3.425207 1_455
La26 Sb9 3.441137 1_555
La27 Sb31 3.305827 1_555
La27 Sb31 3.305827 1_455
La27 Sb8 3.344863 1_455
La27 Sb8 3.344863 1_555
La27 Sb41 3.381763 1_555
La27 Sb25 3.423451 1_555
La27 Sb25 3.423451 1_455
La27 Sb42 3.450889 1_555
La27 Sb22 3.479358 1_555
Sb0 Sb30 3.142202 1_655
Sb0 Sb30 3.142202 1_555
Sb1 Sb15 3.118263 1_555
Sb1 Sb15 3.118263 1_655
Sb1 Sb24 3.142202 1_655
Sb1 Sb24 3.142202 1_555
Sb2 Sb34 3.118263 1_565
Sb2 Sb34 3.118263 1_665
Sb2 Sb21 3.142202 1_555
Sb2 Sb21 3.142202 1_655
Sb4 Sb42 3.037121 1_655
Sb4 Sb42 3.037121 1_555
Sb10 Sb35 3.037121 1_655
Sb10 Sb35 3.037121 1_555
Sb10 Sb9 3.207518 1_555
Sb10 Sb9 3.207518 1_655
Sb12 Sb19 3.070009 1_455
Sb12 Sb19 3.070009 1_555
Sb12 Sb33 3.193842 1_455
Sb12 Sb33 3.193842 1_555
Sb13 Sb6 3.037121 1_455
Sb13 Sb6 3.037121 1_555
Sb13 Sb14 3.207518 1_455
Sb13 Sb14 3.207518 1_555
Sb14 Sb41 3.070009 1_655
Sb14 Sb41 3.070009 1_555
Sb16 Sb36 3.034918 1_555
Sb16 Sb36 3.034918 1_655
Sb16 Sb18 3.206360 1_545
Sb16 Sb18 3.206360 1_645
Sb17 Sb27 3.034918 1_655
Sb17 Sb27 3.034918 1_555
Sb17 Sb22 3.206360 1_656
Sb17 Sb22 3.206360 1_556
Sb18 Sb37 3.034918 1_455
Sb18 Sb37 3.034918 1_555
Sb19 Sb5 3.207518 1_555
Sb19 Sb5 3.207518 1_655
Sb22 Sb25 3.034918 1_555
Sb22 Sb25 3.034918 1_455
Sb23 Sb43 3.142202 1_555
Sb23 Sb43 3.142202 1_655
Sb25 Sb42 3.231201 1_655
Sb25 Sb42 3.231201 1_555
Sb26 Sb30 3.118263 1_555
Sb26 Sb30 3.118263 1_655
Sb27 Sb39 3.231201 1_455
Sb27 Sb39 3.231201 1_555
Sb28 Sb38 3.070009 1_655
Sb28 Sb38 3.070009 1_555
Sb28 Sb29 3.193842 1_555
Sb28 Sb29 3.193842 1_655
Sb32 Sb40 3.193842 1_455
Sb32 Sb40 3.193842 1_555
Sb35 Sb37 3.231201 1_455
Sb35 Sb37 3.231201 1_555
Sb36 Sb6 3.231201 1_555
Sb36 Sb6 3.231201 1_455
Sb38 Sb4 3.207518 1_455
Sb38 Sb4 3.207518 1_555
Sb39 Sb5 3.037121 1_655
Sb39 Sb5 3.037121 1_555
Sb40 Sb9 3.070009 1_655
Sb40 Sb9 3.070009 1_555
Sb41 Sb8 3.193842 1_455
Sb41 Sb8 3.193842 1_555
Sb43 Sb7 3.118263 1_445
Sb43 Sb7 3.118263 1_545
Br0 La0 3.030045 1_455
Br0 La0 3.030045 1_555
Br0 La17 3.115543 1_555
Br1 La23 3.215003 1_455
Br1 La23 3.215003 1_555
Br1 La12 3.215342 1_555
Br1 La12 3.215342 1_455
Br2 La13 3.061411 1_555
Br2 La13 3.061411 1_655
Br2 La24 3.498012 1_555
Br2 La3 3.718519 1_555
Br3 La17 3.215003 1_656
Br3 La17 3.215003 1_556
Br3 La15 3.215342 1_555
Br3 La15 3.215342 1_655
Br4 La10 3.030045 1_555
Br4 La10 3.030045 1_655
Br4 La23 3.115543 1_555
Br5 La7 3.061411 1_645
Br5 La7 3.061411 1_545
Br5 La0 3.498012 1_555
Br5 La22 3.718519 1_554
Br6 La21 3.215003 1_454
Br6 La21 3.215003 1_554
Br6 La16 3.215342 1_555
Br6 La16 3.215342 1_455
Br7 La3 3.061411 1_555
Br7 La3 3.061411 1_455
Br7 La10 3.498012 1_555
Br7 La13 3.718519 1_555
Br8 La24 3.030045 1_455
Br8 La24 3.030045 1_555
Br8 La5 3.115543 1_555
Br9 La3 3.017789 1_555
Br9 La3 3.017789 1_455
Br9 La6 3.104612 1_555
Br10 La13 3.017789 1_555
Br10 La13 3.017789 1_655
Br10 La12 3.104612 1_555
Br11 La22 3.061411 1_465
Br11 La22 3.061411 1_565
Br11 La2 3.498012 1_555
Br11 La7 3.718519 1_556
Br12 La22 3.017789 1_455
Br12 La22 3.017789 1_555
Br12 La15 3.104612 1_555
Br13 La7 3.017789 1_555
Br13 La7 3.017789 1_655
Br13 La16 3.104612 1_555
Br14 La5 3.215003 1_555
Br14 La5 3.215003 1_655
Br14 La6 3.215342 1_655
Br14 La6 3.215342 1_555
Br15 La2 3.030045 1_655
Br15 La2 3.030045 1_555
Br15 La21 3.115543 1_555
