# generated using pymatgen
data_ErAl9(Fe2Si3)2
_symmetry_space_group_name_H-M   'P 1'
_cell_length_a   8.64580800
_cell_length_b   8.64580800
_cell_length_c   15.20046500
_cell_angle_alpha   90.00000000
_cell_angle_beta   90.00000000
_cell_angle_gamma   90.00000000
_symmetry_Int_Tables_number   1
_chemical_formula_structural   ErAl9(Fe2Si3)2
_chemical_formula_sum   'Er4 Al36 Fe16 Si24'
_cell_volume   1136.23469754
_cell_formula_units_Z   4
loop_
 _symmetry_equiv_pos_site_id
 _symmetry_equiv_pos_as_xyz
  1  'x, y, z'
loop_
 _atom_site_type_symbol
 _atom_site_label
 _atom_site_symmetry_multiplicity
 _atom_site_fract_x
 _atom_site_fract_y
 _atom_site_fract_z
 _atom_site_occupancy
  Er  Er0  1  0.00000000  0.50000000  0.58546400  1
  Er  Er1  1  0.00000000  0.50000000  0.08546400  1
  Er  Er2  1  0.50000000  0.00000000  0.91453600  1
  Er  Er3  1  0.50000000  0.00000000  0.41453600  1
  Al  Al0  1  0.18288400  0.50000000  0.41095800  1
  Al  Al1  1  0.75405200  0.20219600  0.83095100  1
  Al  Al2  1  0.84448500  0.00000000  0.39799700  1
  Al  Al3  1  0.31711600  0.00000000  0.08904200  1
  Al  Al4  1  0.20219600  0.75405200  0.16904900  1
  Al  Al5  1  0.50000000  0.34448500  0.89799700  1
  Al  Al6  1  0.00000000  0.84448500  0.60200300  1
  Al  Al7  1  0.15551500  0.00000000  0.39799700  1
  Al  Al8  1  0.00000000  0.00000000  0.77191400  1
  Al  Al9  1  0.74594800  0.70219600  0.66904900  1
  Al  Al10  1  0.24594800  0.20219600  0.83095100  1
  Al  Al11  1  0.20219600  0.24594800  0.16904900  1
  Al  Al12  1  0.50000000  0.65551500  0.89799700  1
  Al  Al13  1  0.24594800  0.79780400  0.83095100  1
  Al  Al14  1  0.70219600  0.74594800  0.33095100  1
  Al  Al15  1  0.00000000  0.15551500  0.60200300  1
  Al  Al16  1  0.50000000  0.50000000  0.27191400  1
  Al  Al17  1  0.25405200  0.29780400  0.66904900  1
  Al  Al18  1  0.29780400  0.25405200  0.33095100  1
  Al  Al19  1  0.25405200  0.70219600  0.66904900  1
  Al  Al20  1  0.79780400  0.24594800  0.16904900  1
  Al  Al21  1  0.34448500  0.50000000  0.10200300  1
  Al  Al22  1  0.75405200  0.79780400  0.83095100  1
  Al  Al23  1  0.00000000  0.68288400  0.91095800  1
  Al  Al24  1  0.81711600  0.50000000  0.41095800  1
  Al  Al25  1  0.50000000  0.50000000  0.72808600  1
  Al  Al26  1  0.00000000  0.00000000  0.22808600  1
  Al  Al27  1  0.79780400  0.75405200  0.16904900  1
  Al  Al28  1  0.29780400  0.74594800  0.33095100  1
  Al  Al29  1  0.00000000  0.31711600  0.91095800  1
  Al  Al30  1  0.74594800  0.29780400  0.66904900  1
  Al  Al31  1  0.70219600  0.25405200  0.33095100  1
  Al  Al32  1  0.65551500  0.50000000  0.10200300  1
  Al  Al33  1  0.50000000  0.18288400  0.58904200  1
  Al  Al34  1  0.50000000  0.81711600  0.58904200  1
  Al  Al35  1  0.68288400  0.00000000  0.08904200  1
  Fe  Fe0  1  0.72240200  0.00000000  0.25010500  1
  Fe  Fe1  1  0.24488100  0.24488100  0.00000000  1
  Fe  Fe2  1  0.50000000  0.22240200  0.75010500  1
  Fe  Fe3  1  0.24488100  0.75511900  0.00000000  1
  Fe  Fe4  1  0.00000000  0.72240200  0.74989500  1
  Fe  Fe5  1  0.00000000  0.27759800  0.74989500  1
  Fe  Fe6  1  0.22240200  0.50000000  0.24989500  1
  Fe  Fe7  1  0.74488100  0.25511900  0.50000000  1
  Fe  Fe8  1  0.75511900  0.24488100  0.00000000  1
  Fe  Fe9  1  0.25511900  0.25511900  0.50000000  1
  Fe  Fe10  1  0.25511900  0.74488100  0.50000000  1
  Fe  Fe11  1  0.50000000  0.77759800  0.75010500  1
  Fe  Fe12  1  0.75511900  0.75511900  0.00000000  1
  Fe  Fe13  1  0.77759800  0.50000000  0.24989500  1
  Fe  Fe14  1  0.74488100  0.74488100  0.50000000  1
  Fe  Fe15  1  0.27759800  0.00000000  0.25010500  1
  Si  Si0  1  0.76108900  0.50000000  0.93861700  1
  Si  Si1  1  0.73891100  0.00000000  0.56138300  1
  Si  Si2  1  0.15596300  0.00000000  0.94356300  1
  Si  Si3  1  0.36170300  0.00000000  0.72058400  1
  Si  Si4  1  0.13829700  0.50000000  0.77941600  1
  Si  Si5  1  0.50000000  0.76108900  0.06138300  1
  Si  Si6  1  0.65596300  0.50000000  0.55643700  1
  Si  Si7  1  0.63829700  0.00000000  0.72058400  1
  Si  Si8  1  0.84403700  0.00000000  0.94356300  1
  Si  Si9  1  0.00000000  0.84403700  0.05643700  1
  Si  Si10  1  0.86170300  0.50000000  0.77941600  1
  Si  Si11  1  0.50000000  0.23891100  0.06138300  1
  Si  Si12  1  0.00000000  0.26108900  0.43861700  1
  Si  Si13  1  0.00000000  0.36170300  0.27941600  1
  Si  Si14  1  0.50000000  0.13829700  0.22058400  1
  Si  Si15  1  0.34403700  0.50000000  0.55643700  1
  Si  Si16  1  0.00000000  0.73891100  0.43861700  1
  Si  Si17  1  0.00000000  0.15596300  0.05643700  1
  Si  Si18  1  0.50000000  0.86170300  0.22058400  1
  Si  Si19  1  0.26108900  0.00000000  0.56138300  1
  Si  Si20  1  0.00000000  0.63829700  0.27941600  1
  Si  Si21  1  0.50000000  0.65596300  0.44356300  1
  Si  Si22  1  0.50000000  0.34403700  0.44356300  1
  Si  Si23  1  0.23891100  0.50000000  0.93861700  1
loop_
_geom_bond_atom_site_label_1
_geom_bond_atom_site_label_2
_geom_bond_distance
_geom_bond_site_symmetry_2
Er0 Si15 3.007025 1_555
Er0 Si6 3.007025 1_455
Er0 Si16 3.041229 1_555
Er0 Si12 3.041229 1_555
Er0 Fe4 3.153486 1_555
Er0 Fe5 3.153486 1_555
Er0 Si4 3.181403 1_555
Er0 Si10 3.181403 1_455
Er0 Fe9 3.321943 1_555
Er0 Fe14 3.321943 1_455
Er0 Fe7 3.321943 1_455
Er0 Fe10 3.321943 1_555
Er1 Si17 3.007025 1_555
Er1 Si9 3.007025 1_555
Er1 Si0 3.041229 1_454
Er1 Si23 3.041229 1_554
Er1 Fe13 3.153486 1_455
Er1 Fe6 3.153486 1_555
Er1 Si13 3.181403 1_555
Er1 Si20 3.181403 1_555
Er1 Fe12 3.321943 1_455
Er1 Fe8 3.321943 1_455
Er1 Fe1 3.321943 1_555
Er1 Fe3 3.321943 1_555
Er2 Si2 3.007025 1_555
Er2 Si8 3.007025 1_555
Er2 Si5 3.041229 1_546
Er2 Si11 3.041229 1_556
Er2 Fe2 3.153486 1_555
Er2 Fe11 3.153486 1_545
Er2 Si3 3.181403 1_555
Er2 Si7 3.181403 1_555
Er2 Fe1 3.321943 1_556
Er2 Fe8 3.321943 1_556
Er2 Fe12 3.321943 1_546
Er2 Fe3 3.321943 1_546
Er3 Si22 3.007025 1_555
Er3 Si21 3.007025 1_545
Er3 Si1 3.041229 1_555
Er3 Si19 3.041229 1_555
Er3 Fe15 3.153486 1_555
Er3 Fe0 3.153486 1_555
Er3 Si14 3.181403 1_555
Er3 Si18 3.181403 1_545
Er3 Fe14 3.321943 1_545
Er3 Fe9 3.321943 1_555
Er3 Fe10 3.321943 1_545
Er3 Fe7 3.321943 1_555
Al0 Fe6 2.471958 1_555
Al0 Fe10 2.589296 1_555
Al0 Fe9 2.589296 1_555
Al0 Si15 2.613683 1_555
Al0 Si16 2.635053 1_555
Al0 Si12 2.635053 1_555
Al0 Al18 2.643456 1_555
Al0 Al28 2.643456 1_555
Al0 Si20 2.815635 1_555
Al0 Si13 2.815635 1_555
Al0 Er0 3.088085 1_555
Al1 Fe2 2.522945 1_555
Al1 Fe5 2.542575 1_655
Al1 Si8 2.567372 1_555
Al1 Fe8 2.596006 1_556
Al1 Si7 2.621460 1_555
Al1 Al29 2.643456 1_655
Al1 Al5 2.715985 1_555
Al1 Si10 2.847679 1_555
Al1 Er2 3.081366 1_555
Al2 Fe0 2.483489 1_555
Al2 Si1 2.645967 1_555
Al2 Al7 2.689106 1_655
Al2 Si12 2.698995 1_655
Al2 Si16 2.698995 1_645
Al2 Al31 2.715985 1_555
Al2 Fe14 2.830331 1_545
Al2 Fe7 2.830331 1_555
Al2 Al26 2.911752 1_655
Al2 Er3 2.988943 1_555
Al3 Fe15 2.471958 1_555
Al3 Fe1 2.589296 1_555
Al3 Fe3 2.589296 1_545
Al3 Si2 2.613683 1_554
Al3 Si5 2.635053 1_545
Al3 Si11 2.635053 1_555
Al3 Al4 2.643456 1_545
Al3 Si14 2.815635 1_555
Al3 Si18 2.815635 1_545
Al3 Er2 3.088085 1_554
Al4 Fe6 2.522945 1_555
Al4 Fe15 2.542575 1_565
Al4 Si9 2.567372 1_555
Al4 Fe3 2.596006 1_555
Al4 Si20 2.621460 1_555
Al4 Si18 2.847679 1_555
Al4 Er1 3.081366 1_555
Al5 Fe2 2.483489 1_555
Al5 Si11 2.645967 1_556
Al5 Si0 2.698995 1_555
Al5 Si23 2.698995 1_555
Al5 Fe1 2.830331 1_556
Al5 Fe8 2.830331 1_556
Al5 Er2 2.988943 1_555
Al6 Fe4 2.483489 1_555
Al6 Si16 2.645967 1_555
Al6 Si19 2.698995 1_565
Al6 Si1 2.698995 1_465
Al6 Al9 2.715985 1_455
Al6 Fe10 2.830331 1_555
Al6 Fe14 2.830331 1_455
Al6 Al8 2.911752 1_565
Al6 Er0 2.988943 1_555
Al7 Fe15 2.483489 1_555
Al7 Si19 2.645967 1_555
Al7 Si12 2.698995 1_555
Al7 Si16 2.698995 1_545
Al7 Fe10 2.830331 1_545
Al7 Fe9 2.830331 1_555
Al7 Er3 2.988943 1_555
Al8 Fe4 2.423284 1_545
Al8 Fe5 2.423284 1_555
Al8 Si8 2.936986 1_455
Al8 Si2 2.936986 1_555
Al9 Fe4 2.522945 1_655
Al9 Fe11 2.542575 1_555
Al9 Si6 2.567372 1_555
Al9 Fe14 2.596006 1_555
Al9 Si10 2.621460 1_555
Al9 Si7 2.847679 1_565
Al9 Er0 3.081366 1_655
Al10 Fe2 2.522945 1_555
Al10 Fe5 2.542575 1_555
Al10 Si2 2.567372 1_555
Al10 Fe1 2.596006 1_556
Al10 Si3 2.621460 1_555
Al10 Al29 2.643456 1_555
Al10 Al5 2.715985 1_555
Al10 Si4 2.847679 1_555
Al10 Er2 3.081366 1_555
Al11 Fe6 2.522945 1_555
Al11 Fe15 2.542575 1_555
Al11 Si17 2.567372 1_555
Al11 Fe1 2.596006 1_555
Al11 Si13 2.621460 1_555
Al11 Al3 2.643456 1_555
Al11 Al21 2.715985 1_555
Al11 Si14 2.847679 1_555
Al11 Er1 3.081366 1_555
Al12 Fe11 2.483489 1_555
Al12 Si5 2.645967 1_556
Al12 Al5 2.689106 1_555
Al12 Si0 2.698995 1_555
Al12 Si23 2.698995 1_555
Al12 Al22 2.715985 1_555
Al12 Al13 2.715985 1_555
Al12 Fe3 2.830331 1_556
Al12 Fe12 2.830331 1_556
Al12 Al25 2.911752 1_555
Al12 Er2 2.988943 1_565
Al13 Fe11 2.522945 1_555
Al13 Fe4 2.542575 1_555
Al13 Si2 2.567372 1_565
Al13 Fe3 2.596006 1_556
Al13 Si3 2.621460 1_565
Al13 Al23 2.643456 1_555
Al13 Si4 2.847679 1_555
Al13 Er2 3.081366 1_565
Al14 Fe0 2.522945 1_565
Al14 Fe13 2.542575 1_555
Al14 Si21 2.567372 1_555
Al14 Fe14 2.596006 1_555
Al14 Si18 2.621460 1_555
Al14 Al24 2.643456 1_555
Al14 Al2 2.715985 1_565
Al14 Si20 2.847679 1_655
Al14 Er3 3.081366 1_565
Al15 Fe5 2.483489 1_555
Al15 Si12 2.645967 1_555
Al15 Al6 2.689106 1_545
Al15 Si1 2.698995 1_455
Al15 Si19 2.698995 1_555
Al15 Al30 2.715985 1_455
Al15 Al17 2.715985 1_555
Al15 Fe9 2.830331 1_555
Al15 Fe7 2.830331 1_455
Al15 Al8 2.911752 1_555
Al15 Er0 2.988943 1_555
Al16 Fe6 2.423284 1_555
Al16 Fe13 2.423284 1_555
Al16 Al32 2.911752 1_555
Al16 Al21 2.911752 1_555
Al16 Si21 2.936986 1_555
Al16 Si22 2.936986 1_555
Al17 Fe5 2.522945 1_555
Al17 Fe2 2.542575 1_555
Al17 Si15 2.567372 1_555
Al17 Fe9 2.596006 1_555
Al17 Si4 2.621460 1_555
Al17 Al33 2.643456 1_555
Al17 Si3 2.847679 1_555
Al17 Er0 3.081366 1_555
Al18 Fe15 2.522945 1_555
Al18 Fe6 2.542575 1_555
Al18 Si22 2.567372 1_555
Al18 Fe9 2.596006 1_555
Al18 Si14 2.621460 1_555
Al18 Al7 2.715985 1_555
Al18 Si13 2.847679 1_555
Al18 Er3 3.081366 1_555
Al19 Fe4 2.522945 1_555
Al19 Fe11 2.542575 1_555
Al19 Si15 2.567372 1_555
Al19 Fe10 2.596006 1_555
Al19 Si4 2.621460 1_555
Al19 Al34 2.643456 1_555
Al19 Al6 2.715985 1_555
Al19 Si3 2.847679 1_565
Al19 Er0 3.081366 1_555
Al20 Fe13 2.522945 1_555
Al20 Fe0 2.542575 1_555
Al20 Si17 2.567372 1_655
Al20 Fe8 2.596006 1_555
Al20 Si13 2.621460 1_655
Al20 Al35 2.643456 1_555
Al20 Al32 2.715985 1_555
Al20 Si14 2.847679 1_555
Al20 Er1 3.081366 1_655
Al21 Fe6 2.483489 1_555
Al21 Si23 2.645967 1_554
Al21 Al32 2.689106 1_555
Al21 Si5 2.698995 1_555
Al21 Si11 2.698995 1_555
Al21 Al4 2.715985 1_555
Al21 Fe3 2.830331 1_555
Al21 Fe1 2.830331 1_555
Al21 Er1 2.988943 1_555
Al22 Fe11 2.522945 1_555
Al22 Fe4 2.542575 1_655
Al22 Si8 2.567372 1_565
Al22 Fe12 2.596006 1_556
Al22 Si7 2.621460 1_565
Al22 Al23 2.643456 1_655
Al22 Si10 2.847679 1_555
Al22 Er2 3.081366 1_565
Al23 Fe4 2.471958 1_555
Al23 Fe3 2.589296 1_556
Al23 Fe12 2.589296 1_456
Al23 Si9 2.613683 1_556
Al23 Si23 2.635053 1_555
Al23 Si0 2.635053 1_455
Al23 Si10 2.815635 1_455
Al23 Si4 2.815635 1_555
Al23 Er1 3.088085 1_556
Al24 Fe13 2.471958 1_555
Al24 Fe7 2.589296 1_555
Al24 Fe14 2.589296 1_555
Al24 Si6 2.613683 1_555
Al24 Si12 2.635053 1_655
Al24 Si16 2.635053 1_655
Al24 Al31 2.643456 1_555
Al24 Si13 2.815635 1_655
Al24 Si20 2.815635 1_655
Al24 Er0 3.088085 1_655
Al25 Fe11 2.423284 1_555
Al25 Fe2 2.423284 1_555
Al25 Al5 2.911752 1_555
Al25 Si6 2.936986 1_555
Al25 Si15 2.936986 1_555
Al26 Fe15 2.423284 1_555
Al26 Fe0 2.423284 1_455
Al26 Al7 2.911752 1_555
Al26 Si17 2.936986 1_555
Al26 Si9 2.936986 1_545
Al27 Fe13 2.522945 1_555
Al27 Fe0 2.542575 1_565
Al27 Si9 2.567372 1_655
Al27 Fe12 2.596006 1_555
Al27 Si20 2.621460 1_655
Al27 Al35 2.643456 1_565
Al27 Al32 2.715985 1_555
Al27 Si18 2.847679 1_555
Al27 Er1 3.081366 1_655
Al28 Fe15 2.522945 1_565
Al28 Fe6 2.542575 1_555
Al28 Si21 2.567372 1_555
Al28 Fe10 2.596006 1_555
Al28 Si18 2.621460 1_555
Al28 Al7 2.715985 1_565
Al28 Si20 2.847679 1_555
Al28 Er3 3.081366 1_565
Al29 Fe5 2.471958 1_555
Al29 Fe1 2.589296 1_556
Al29 Fe8 2.589296 1_456
Al29 Si17 2.613683 1_556
Al29 Si0 2.635053 1_455
Al29 Si23 2.635053 1_555
Al29 Si4 2.815635 1_555
Al29 Si10 2.815635 1_455
Al29 Er1 3.088085 1_556
Al30 Fe5 2.522945 1_655
Al30 Fe2 2.542575 1_555
Al30 Si6 2.567372 1_555
Al30 Fe7 2.596006 1_555
Al30 Si10 2.621460 1_555
Al30 Al33 2.643456 1_555
Al30 Si7 2.847679 1_555
Al30 Er0 3.081366 1_655
Al31 Fe0 2.522945 1_555
Al31 Fe13 2.542575 1_555
Al31 Si22 2.567372 1_555
Al31 Fe7 2.596006 1_555
Al31 Si14 2.621460 1_555
Al31 Si13 2.847679 1_655
Al31 Er3 3.081366 1_555
Al32 Fe13 2.483489 1_555
Al32 Si0 2.645967 1_554
Al32 Si11 2.698995 1_555
Al32 Si5 2.698995 1_555
Al32 Fe8 2.830331 1_555
Al32 Fe12 2.830331 1_555
Al32 Er1 2.988943 1_655
Al33 Fe2 2.471958 1_555
Al33 Fe9 2.589296 1_555
Al33 Fe7 2.589296 1_555
Al33 Si22 2.613683 1_555
Al33 Si1 2.635053 1_555
Al33 Si19 2.635053 1_555
Al33 Si3 2.815635 1_555
Al33 Si7 2.815635 1_555
Al33 Er3 3.088085 1_555
Al34 Fe11 2.471958 1_555
Al34 Fe14 2.589296 1_555
Al34 Fe10 2.589296 1_555
Al34 Si21 2.613683 1_555
Al34 Si19 2.635053 1_565
Al34 Si1 2.635053 1_565
Al34 Al9 2.643456 1_555
Al34 Si3 2.815635 1_565
Al34 Si7 2.815635 1_565
Al34 Er3 3.088085 1_565
Al35 Fe0 2.471958 1_555
Al35 Fe8 2.589296 1_555
Al35 Fe12 2.589296 1_545
Al35 Si8 2.613683 1_554
Al35 Si11 2.635053 1_555
Al35 Si5 2.635053 1_545
Al35 Si14 2.815635 1_555
Al35 Si18 2.815635 1_545
Al35 Er2 3.088085 1_554
Fe0 Si14 2.308326 1_555
Fe0 Si18 2.308326 1_545
Fe1 Si23 2.395496 1_554
Fe1 Si11 2.395496 1_555
Fe1 Si2 2.410281 1_554
Fe1 Si17 2.410281 1_555
Fe2 Si3 2.308326 1_555
Fe2 Si7 2.308326 1_555
Fe3 Si23 2.395496 1_554
Fe3 Si5 2.395496 1_555
Fe3 Si9 2.410281 1_555
Fe3 Si2 2.410281 1_564
Fe4 Si4 2.308326 1_555
Fe4 Si10 2.308326 1_455
Fe5 Si4 2.308326 1_555
Fe5 Si10 2.308326 1_455
Fe6 Si13 2.308326 1_555
Fe6 Si20 2.308326 1_555
Fe7 Si1 2.395496 1_555
Fe7 Si12 2.395496 1_655
Fe7 Si6 2.410281 1_555
Fe7 Si22 2.410281 1_555
Fe8 Si0 2.395496 1_554
Fe8 Si11 2.395496 1_555
Fe8 Si8 2.410281 1_554
Fe8 Si17 2.410281 1_655
Fe9 Si19 2.395496 1_555
Fe9 Si12 2.395496 1_555
Fe9 Si15 2.410281 1_555
Fe9 Si22 2.410281 1_555
Fe10 Si19 2.395496 1_565
Fe10 Si16 2.395496 1_555
Fe10 Si15 2.410281 1_555
Fe10 Si21 2.410281 1_555
Fe11 Si3 2.308326 1_565
Fe11 Si7 2.308326 1_565
Fe12 Si0 2.395496 1_554
Fe12 Si5 2.395496 1_555
Fe12 Si8 2.410281 1_564
Fe12 Si9 2.410281 1_655
Fe13 Si13 2.308326 1_655
Fe13 Si20 2.308326 1_655
Fe14 Si1 2.395496 1_565
Fe14 Si16 2.395496 1_655
Fe14 Si6 2.410281 1_555
Fe14 Si21 2.410281 1_555
Fe15 Si14 2.308326 1_555
Fe15 Si18 2.308326 1_545
Si0 Si10 2.571530 1_555
Si1 Si7 2.571530 1_555
Si2 Si9 2.565202 1_546
Si2 Si8 2.696852 1_455
Si3 Si7 2.391379 1_555
Si8 Si9 2.565202 1_646
Si10 Si4 2.391379 1_655
Si11 Si14 2.571530 1_555
Si12 Si13 2.571530 1_555
Si13 Si20 2.391379 1_555
Si14 Si18 2.391379 1_545
Si15 Si21 2.565202 1_555
Si15 Si22 2.565202 1_555
Si15 Si6 2.696852 1_555
Si16 Si20 2.571530 1_555
Si17 Si2 2.565202 1_554
Si17 Si8 2.565202 1_454
Si17 Si9 2.696852 1_545
Si18 Si5 2.571530 1_555
Si19 Si3 2.571530 1_555
Si21 Si6 2.565202 1_555
Si21 Si22 2.696852 1_555
Si22 Si6 2.565202 1_555
Si23 Si4 2.571530 1_555
