# generated using pymatgen
data_NaSr3BiO6
_symmetry_space_group_name_H-M   'P 1'
_cell_length_a   7.04864181
_cell_length_b   7.04864181
_cell_length_c   7.04864196
_cell_angle_alpha   91.43522372
_cell_angle_beta   91.43522372
_cell_angle_gamma   91.43523050
_symmetry_Int_Tables_number   1
_chemical_formula_structural   NaSr3BiO6
_chemical_formula_sum   'Na2 Sr6 Bi2 O12'
_cell_volume   349.86494925
_cell_formula_units_Z   2
loop_
 _symmetry_equiv_pos_site_id
 _symmetry_equiv_pos_as_xyz
  1  'x, y, z'
loop_
 _atom_site_type_symbol
 _atom_site_label
 _atom_site_symmetry_multiplicity
 _atom_site_fract_x
 _atom_site_fract_y
 _atom_site_fract_z
 _atom_site_occupancy
  Na  Na0  1  0.25000000  0.25000000  0.25000000  1
  Na  Na1  1  0.75000000  0.75000000  0.75000000  1
  Sr  Sr0  1  0.40254800  0.75000000  0.09745200  1
  Sr  Sr1  1  0.25000000  0.90254800  0.59745200  1
  Sr  Sr2  1  0.75000000  0.09745200  0.40254800  1
  Sr  Sr3  1  0.59745200  0.25000000  0.90254800  1
  Sr  Sr4  1  0.09745200  0.40254800  0.75000000  1
  Sr  Sr5  1  0.90254800  0.59745200  0.25000000  1
  Bi  Bi0  1  0.00000000  0.00000000  0.00000000  1
  Bi  Bi1  1  0.50000000  0.50000000  0.50000000  1
  O  O0  1  0.44626100  0.57099800  0.79185600  1
  O  O1  1  0.57099800  0.79185600  0.44626100  1
  O  O2  1  0.42900200  0.20814400  0.55373900  1
  O  O3  1  0.29185600  0.07099800  0.94626100  1
  O  O4  1  0.20814400  0.55373900  0.42900200  1
  O  O5  1  0.55373900  0.42900200  0.20814400  1
  O  O6  1  0.07099800  0.94626100  0.29185600  1
  O  O7  1  0.94626100  0.29185600  0.07099800  1
  O  O8  1  0.70814400  0.92900200  0.05373900  1
  O  O9  1  0.79185600  0.44626100  0.57099800  1
  O  O10  1  0.92900200  0.05373900  0.70814400  1
  O  O11  1  0.05373900  0.70814400  0.92900200  1
loop_
_geom_bond_atom_site_label_1
_geom_bond_atom_site_label_2
_geom_bond_distance
_geom_bond_site_symmetry_2
Na0 O5 2.485479 1_555
Na0 O6 2.485479 1_545
Na0 O4 2.485480 1_555
Na0 O7 2.485480 1_455
Na0 O2 2.485480 1_555
Na0 O3 2.485480 1_554
Na1 O10 2.485479 1_565
Na1 O0 2.485479 1_555
Na1 O11 2.485480 1_655
Na1 O9 2.485480 1_555
Na1 O8 2.485480 1_556
Na1 O1 2.485480 1_555
Bi0 O8 2.150094 1_445
Bi0 O3 2.150094 1_554
Bi0 O11 2.150094 1_544
Bi0 O7 2.150094 1_455
Bi0 O10 2.150094 1_454
Bi0 O6 2.150094 1_545
Bi1 O2 2.150094 1_555
Bi1 O1 2.150094 1_555
Bi1 O4 2.150094 1_555
Bi1 O9 2.150094 1_555
Bi1 O5 2.150094 1_555
Bi1 O0 2.150094 1_555
O0 Sr0 2.498665 1_556
O0 Sr3 2.651675 1_555
O0 Sr4 2.709533 1_555
O0 Sr1 3.079005 1_555
O1 Sr2 2.498665 1_565
O1 Sr1 2.651675 1_555
O1 Sr0 2.709533 1_555
O1 Sr5 3.079005 1_555
O2 Sr1 2.498665 1_545
O2 Sr2 2.651675 1_555
O2 Sr3 2.709533 1_555
O2 Sr4 3.079005 1_555
O3 Sr3 2.498665 1_555
O3 Sr0 2.651675 1_546
O3 Sr1 2.709533 1_545
O3 Sr4 3.079005 1_555
O4 Sr5 2.498665 1_455
O4 Sr4 2.651675 1_555
O4 Sr1 2.709533 1_555
O4 Sr0 3.079004 1_555
O5 Sr3 2.498665 1_554
O5 Sr0 2.651675 1_555
O5 Sr5 2.709533 1_555
O5 Sr2 3.079005 1_555
O6 Sr1 2.498665 1_555
O6 Sr2 2.651675 1_465
O6 Sr5 2.709533 1_455
O6 Sr0 3.079005 1_555
O7 Sr5 2.498665 1_555
O7 Sr4 2.651675 1_654
O7 Sr3 2.709533 1_554
O7 Sr2 3.079004 1_555
O8 Sr0 2.498665 1_555
O8 Sr3 2.651675 1_564
O8 Sr2 2.709533 1_565
O8 Sr5 3.079005 1_555
O9 Sr4 2.498665 1_655
O9 Sr5 2.651675 1_555
O9 Sr2 2.709533 1_555
O9 Sr3 3.079004 1_555
O10 Sr2 2.498665 1_555
O10 Sr1 2.651675 1_645
O10 Sr4 2.709533 1_655
O10 Sr3 3.079005 1_555
O11 Sr4 2.498665 1_555
O11 Sr5 2.651675 1_456
O11 Sr0 2.709533 1_556
O11 Sr1 3.079004 1_555
