# generated using pymatgen
data_BaEu2CoO5
_symmetry_space_group_name_H-M   'P 1'
_cell_length_a   6.86601741
_cell_length_b   6.86601741
_cell_length_c   6.86601741
_cell_angle_alpha   148.10929579
_cell_angle_beta   128.40074715
_cell_angle_gamma   61.95171975
_symmetry_Int_Tables_number   1
_chemical_formula_structural   BaEu2CoO5
_chemical_formula_sum   'Ba1 Eu2 Co1 O5'
_cell_volume   132.72573564
_cell_formula_units_Z   1
loop_
 _symmetry_equiv_pos_site_id
 _symmetry_equiv_pos_as_xyz
  1  'x, y, z'
loop_
 _atom_site_type_symbol
 _atom_site_label
 _atom_site_symmetry_multiplicity
 _atom_site_fract_x
 _atom_site_fract_y
 _atom_site_fract_z
 _atom_site_occupancy
  Ba  Ba0  1  0.00000000  0.00000000  0.00000000  1
  Eu  Eu0  1  0.70654400  0.20654400  0.50000000  1
  Eu  Eu1  1  0.29345600  0.79345600  0.50000000  1
  Co  Co0  1  0.50000000  0.50000000  0.00000000  1
  O  O0  1  0.11891200  0.35927500  0.75963700  1
  O  O1  1  0.88108800  0.64072500  0.24036300  1
  O  O2  1  0.40036300  0.64072500  0.75963700  1
  O  O3  1  0.59963700  0.35927500  0.24036300  1
  O  O4  1  0.50000000  0.00000000  0.50000000  1
loop_
_geom_bond_atom_site_label_1
_geom_bond_atom_site_label_2
_geom_bond_distance
_geom_bond_site_symmetry_2
Ba0 O0 2.951419 1_544
Ba0 O1 2.951419 1_455
Ba0 O1 2.951419 1_444
Ba0 O0 2.951419 1_555
Ba0 O3 2.951423 1_444
Ba0 O2 2.951423 1_555
Ba0 O3 2.951425 1_455
Ba0 O2 2.951425 1_544
Ba0 O4 2.988264 1_454
Ba0 O4 2.988264 1_555
Eu0 O3 2.375156 1_555
Eu0 O0 2.375158 1_655
Eu0 O4 2.431773 1_555
Eu0 O2 2.494395 1_555
Eu0 O2 2.494398 1_544
Eu0 O1 2.494400 1_556
Eu0 O1 2.494400 1_545
Eu1 O2 2.375156 1_555
Eu1 O1 2.375158 1_455
Eu1 O4 2.431773 1_565
Eu1 O3 2.494395 1_555
Eu1 O3 2.494398 1_566
Eu1 O0 2.494400 1_565
Eu1 O0 2.494400 1_554
Co0 O4 1.886235 1_565
Co0 O4 1.886235 1_554
Co0 O1 2.192890 1_555
Co0 O0 2.192890 1_554
Co0 O2 2.192893 1_554
Co0 O3 2.192893 1_555
