# generated using pymatgen
data_Li9Ga3P8O29
_symmetry_space_group_name_H-M   'P 1'
_cell_length_a   9.78115327
_cell_length_b   9.78115327
_cell_length_c   13.74601400
_cell_angle_alpha   90.00000000
_cell_angle_beta   90.00000000
_cell_angle_gamma   119.99999507
_symmetry_Int_Tables_number   1
_chemical_formula_structural   Li9Ga3P8O29
_chemical_formula_sum   'Li18 Ga6 P16 O58'
_cell_volume   1138.90516859
_cell_formula_units_Z   2
loop_
 _symmetry_equiv_pos_site_id
 _symmetry_equiv_pos_as_xyz
  1  'x, y, z'
loop_
 _atom_site_type_symbol
 _atom_site_label
 _atom_site_symmetry_multiplicity
 _atom_site_fract_x
 _atom_site_fract_y
 _atom_site_fract_z
 _atom_site_occupancy
  Li  Li0  1  0.23504000  0.89818000  0.43654500  1
  Li  Li1  1  0.89818000  0.66314000  0.56345500  1
  Li  Li2  1  0.10182000  0.76496000  0.93654500  1
  Li  Li3  1  0.76496000  0.10182000  0.56345500  1
  Li  Li4  1  0.33333300  0.66666700  0.61971400  1
  Li  Li5  1  0.76496000  0.66314000  0.06345500  1
  Li  Li6  1  0.23504000  0.33686000  0.93654500  1
  Li  Li7  1  0.33686000  0.23504000  0.56345500  1
  Li  Li8  1  0.66666700  0.33333300  0.88028600  1
  Li  Li9  1  0.33686000  0.10182000  0.06345500  1
  Li  Li10  1  0.00000000  0.00000000  0.50000000  1
  Li  Li11  1  0.89818000  0.23504000  0.06345500  1
  Li  Li12  1  0.66666700  0.33333300  0.38028600  1
  Li  Li13  1  0.66314000  0.76496000  0.43654500  1
  Li  Li14  1  0.66314000  0.89818000  0.93654500  1
  Li  Li15  1  0.10182000  0.33686000  0.43654500  1
  Li  Li16  1  0.33333300  0.66666700  0.11971400  1
  Li  Li17  1  0.00000000  0.00000000  0.00000000  1
  Ga  Ga0  1  0.00000000  0.56509200  0.75000000  1
  Ga  Ga1  1  0.43490800  0.43490800  0.75000000  1
  Ga  Ga2  1  0.56509200  0.00000000  0.75000000  1
  Ga  Ga3  1  0.43490800  0.00000000  0.25000000  1
  Ga  Ga4  1  0.00000000  0.43490800  0.25000000  1
  Ga  Ga5  1  0.56509200  0.56509200  0.25000000  1
  P  P0  1  0.66666700  0.33333300  0.12536200  1
  P  P1  1  0.77351500  0.68193400  0.84365000  1
  P  P2  1  0.68193400  0.77351500  0.65635000  1
  P  P3  1  0.66666700  0.33333300  0.62536200  1
  P  P4  1  0.31806600  0.09158100  0.84365000  1
  P  P5  1  0.22648500  0.90841900  0.65635000  1
  P  P6  1  0.77351500  0.09158100  0.34365000  1
  P  P7  1  0.33333300  0.66666700  0.37463800  1
  P  P8  1  0.90841900  0.22648500  0.84365000  1
  P  P9  1  0.09158100  0.31806600  0.65635000  1
  P  P10  1  0.33333300  0.66666700  0.87463800  1
  P  P11  1  0.09158100  0.77351500  0.15635000  1
  P  P12  1  0.68193400  0.90841900  0.15635000  1
  P  P13  1  0.22648500  0.31806600  0.15635000  1
  P  P14  1  0.90841900  0.68193400  0.34365000  1
  P  P15  1  0.31806600  0.22648500  0.34365000  1
  O  O0  1  0.00000000  0.78662800  0.25000000  1
  O  O1  1  0.81264200  0.32433200  0.16352100  1
  O  O2  1  0.51168900  0.18735800  0.16352100  1
  O  O3  1  0.62662000  0.10956900  0.33285100  1
  O  O4  1  0.51168900  0.32433200  0.66352100  1
  O  O5  1  0.48831100  0.81264200  0.83647900  1
  O  O6  1  0.22686400  0.99952700  0.93321100  1
  O  O7  1  0.89043100  0.51705100  0.33285100  1
  O  O8  1  0.78662800  0.78662800  0.75000000  1
  O  O9  1  0.25474000  0.33149600  0.65663400  1
  O  O10  1  0.10956900  0.62662000  0.16714900  1
  O  O11  1  0.33149600  0.25474000  0.84336600  1
  O  O12  1  0.67566800  0.18735800  0.66352100  1
  O  O13  1  0.18735800  0.67566800  0.83647900  1
  O  O14  1  0.18735800  0.51168900  0.33647900  1
  O  O15  1  0.37338000  0.89043100  0.66714900  1
  O  O16  1  0.92324400  0.25474000  0.34336600  1
  O  O17  1  0.78662800  0.00000000  0.25000000  1
  O  O18  1  0.22733700  0.00047300  0.56678900  1
  O  O19  1  0.66666700  0.33333300  0.51510100  1
  O  O20  1  0.10956900  0.48294900  0.66714900  1
  O  O21  1  0.21337200  0.00000000  0.75000000  1
  O  O22  1  0.67566800  0.48831100  0.16352100  1
  O  O23  1  0.33149600  0.07675600  0.34336600  1
  O  O24  1  0.51705100  0.89043100  0.16714900  1
  O  O25  1  0.99952700  0.22686400  0.56678900  1
  O  O26  1  0.00000000  0.21337200  0.75000000  1
  O  O27  1  0.33333300  0.66666700  0.48489900  1
  O  O28  1  0.22733700  0.22686400  0.06678900  1
  O  O29  1  0.77313600  0.00047300  0.06678900  1
  O  O30  1  0.48831100  0.67566800  0.33647900  1
  O  O31  1  0.62662000  0.51705100  0.83285100  1
  O  O32  1  0.77266300  0.99952700  0.43321100  1
  O  O33  1  0.66850400  0.74526000  0.15663400  1
  O  O34  1  0.99952700  0.77266300  0.06678900  1
  O  O35  1  0.77266300  0.77313600  0.93321100  1
  O  O36  1  0.48294900  0.10956900  0.83285100  1
  O  O37  1  0.32433200  0.51168900  0.83647900  1
  O  O38  1  0.51705100  0.62662000  0.66714900  1
  O  O39  1  0.74526000  0.66850400  0.34336600  1
  O  O40  1  0.66850400  0.92324400  0.65663400  1
  O  O41  1  0.25474000  0.92324400  0.15663400  1
  O  O42  1  0.00047300  0.77313600  0.43321100  1
  O  O43  1  0.32433200  0.81264200  0.33647900  1
  O  O44  1  0.81264200  0.48831100  0.66352100  1
  O  O45  1  0.92324400  0.66850400  0.84336600  1
  O  O46  1  0.37338000  0.48294900  0.16714900  1
  O  O47  1  0.66666700  0.33333300  0.01510100  1
  O  O48  1  0.07675600  0.33149600  0.15663400  1
  O  O49  1  0.07675600  0.74526000  0.65663400  1
  O  O50  1  0.48294900  0.37338000  0.33285100  1
  O  O51  1  0.77313600  0.77266300  0.56678900  1
  O  O52  1  0.33333300  0.66666700  0.98489900  1
  O  O53  1  0.89043100  0.37338000  0.83285100  1
  O  O54  1  0.22686400  0.22733700  0.43321100  1
  O  O55  1  0.00047300  0.22733700  0.93321100  1
  O  O56  1  0.74526000  0.07675600  0.84336600  1
  O  O57  1  0.21337200  0.21337200  0.25000000  1
loop_
_geom_bond_atom_site_label_1
_geom_bond_atom_site_label_2
_geom_bond_distance
_geom_bond_site_symmetry_2
Li0 O23 1.983339 1_565
Li0 O42 1.988931 1_555
Li0 O43 2.021271 1_555
Li0 O18 2.070616 1_565
Li1 O49 1.983339 1_655
Li1 O51 1.988930 1_555
Li1 O44 2.021265 1_555
Li1 O42 2.070616 1_655
Li2 O45 1.983339 1_455
Li2 O6 1.988931 1_555
Li2 O13 2.021271 1_555
Li2 O34 2.070616 1_456
Li3 O40 1.983339 1_545
Li3 O25 1.988931 1_555
Li3 O12 2.021271 1_555
Li3 O32 2.070616 1_545
Li4 O27 1.853169 1_555
Li4 O15 2.124042 1_555
Li4 O20 2.124045 1_555
Li4 O38 2.124051 1_555
Li5 O33 1.983339 1_555
Li5 O34 1.988931 1_555
Li5 O22 2.021265 1_555
Li5 O35 2.070616 1_554
Li6 O11 1.983339 1_555
Li6 O55 1.988931 1_555
Li6 O37 2.021265 1_555
Li6 O28 2.070616 1_556
Li7 O9 1.983339 1_555
Li7 O18 1.988931 1_555
Li7 O4 2.021265 1_555
Li7 O54 2.070616 1_555
Li8 O47 1.853169 1_556
Li8 O53 2.124042 1_555
Li8 O36 2.124045 1_555
Li8 O31 2.124051 1_555
Li9 O41 1.983339 1_545
Li9 O28 1.988930 1_555
Li9 O2 2.021265 1_555
Li9 O6 2.070616 1_544
Li10 O25 2.403557 1_455
Li10 O42 2.403557 1_545
Li10 O18 2.403557 1_555
Li10 O32 2.403557 1_445
Li10 O54 2.403557 1_555
Li10 O51 2.403557 1_445
Li11 O48 1.983339 1_655
Li11 O29 1.988931 1_555
Li11 O1 2.021271 1_555
Li11 O55 2.070616 1_654
Li12 O19 1.853169 1_555
Li12 O3 2.124042 1_555
Li12 O7 2.124045 1_555
Li12 O50 2.124051 1_555
Li13 O39 1.983339 1_555
Li13 O32 1.988931 1_555
Li13 O30 2.021265 1_555
Li13 O51 2.070616 1_555
Li14 O56 1.983339 1_565
Li14 O35 1.988930 1_555
Li14 O5 2.021265 1_555
Li14 O29 2.070616 1_566
Li15 O16 1.983339 1_455
Li15 O54 1.988930 1_555
Li15 O14 2.021265 1_555
Li15 O25 2.070616 1_455
Li16 O52 1.853169 1_554
Li16 O10 2.124042 1_555
Li16 O24 2.124045 1_555
Li16 O46 2.124051 1_555
Li17 O6 2.403557 1_544
Li17 O29 2.403557 1_455
Li17 O55 2.403557 1_554
Li17 O34 2.403557 1_445
Li17 O28 2.403557 1_555
Li17 O35 2.403557 1_444
Ga0 O20 1.988014 1_555
Ga0 O53 1.988014 1_455
Ga0 O13 1.989768 1_555
Ga0 O44 1.989769 1_455
Ga0 O45 1.998320 1_455
Ga0 O49 1.998320 1_555
Ga1 O31 1.988014 1_555
Ga1 O38 1.988014 1_555
Ga1 O37 1.989761 1_555
Ga1 O4 1.989761 1_555
Ga1 O11 1.998320 1_555
Ga1 O9 1.998320 1_555
Ga2 O36 1.988014 1_555
Ga2 O15 1.988014 1_545
Ga2 O12 1.989768 1_555
Ga2 O5 1.989769 1_545
Ga2 O40 1.998320 1_545
Ga2 O56 1.998320 1_555
Ga3 O24 1.988014 1_545
Ga3 O3 1.988014 1_555
Ga3 O43 1.989768 1_545
Ga3 O2 1.989769 1_555
Ga3 O23 1.998320 1_555
Ga3 O41 1.998320 1_545
Ga4 O7 1.988014 1_455
Ga4 O10 1.988014 1_555
Ga4 O1 1.989768 1_455
Ga4 O14 1.989769 1_555
Ga4 O48 1.998320 1_555
Ga4 O16 1.998320 1_455
Ga5 O46 1.988014 1_555
Ga5 O50 1.988014 1_555
Ga5 O30 1.989761 1_555
Ga5 O22 1.989761 1_555
Ga5 O39 1.998320 1_555
Ga5 O33 1.998320 1_555
O0 P11 1.609633 1_555
O0 P14 1.609634 1_455
O1 P0 1.564358 1_555
O2 P0 1.564368 1_555
O3 P6 1.539542 1_555
O4 P3 1.564376 1_555
O5 P10 1.564368 1_555
O6 P4 1.522793 1_565
O7 P14 1.539542 1_555
O8 P2 1.609633 1_555
O8 P1 1.609633 1_555
O9 P9 1.534431 1_555
O10 P11 1.539542 1_555
O11 P4 1.534431 1_555
O12 P3 1.564358 1_555
O13 P10 1.564358 1_555
O14 P7 1.564368 1_555
O15 P5 1.539542 1_555
O16 P6 1.534431 1_555
O17 P6 1.609633 1_555
O17 P12 1.609634 1_545
O18 P5 1.522793 1_545
O19 P3 1.515649 1_555
O20 P9 1.539542 1_555
O21 P5 1.609633 1_545
O21 P4 1.609634 1_555
O22 P0 1.564376 1_555
O23 P15 1.534431 1_555
O24 P12 1.539542 1_555
O25 P9 1.522793 1_655
O26 P8 1.609633 1_455
O26 P9 1.609634 1_555
O27 P7 1.515649 1_555
O28 P13 1.522793 1_555
O29 P12 1.522793 1_545
O30 P7 1.564376 1_555
O31 P1 1.539542 1_555
O32 P6 1.522793 1_565
O33 P12 1.534431 1_555
O34 P11 1.522793 1_655
O35 P1 1.522793 1_555
O36 P4 1.539542 1_555
O37 P10 1.564376 1_555
O38 P2 1.539542 1_555
O39 P14 1.534431 1_555
O40 P2 1.534431 1_555
O41 P11 1.534431 1_555
O42 P14 1.522793 1_455
O43 P7 1.564358 1_555
O44 P3 1.564368 1_555
O45 P1 1.534431 1_555
O46 P13 1.539542 1_555
O47 P0 1.515649 1_555
O48 P13 1.534431 1_555
O49 P5 1.534431 1_555
O50 P15 1.539542 1_555
O51 P2 1.522793 1_555
O52 P10 1.515649 1_555
O53 P8 1.539542 1_555
O54 P15 1.522793 1_555
O55 P8 1.522793 1_455
O56 P8 1.534431 1_555
O57 P13 1.609633 1_555
O57 P15 1.609633 1_555
