# generated using pymatgen
data_Mn13Al4Si2(SbO14)2
_symmetry_space_group_name_H-M   'P 1'
_cell_length_a   11.96960772
_cell_length_b   11.96960772
_cell_length_c   9.20199800
_cell_angle_alpha   87.46637923
_cell_angle_beta   87.46637923
_cell_angle_gamma   152.66747169
_symmetry_Int_Tables_number   1
_chemical_formula_structural   Mn13Al4Si2(SbO14)2
_chemical_formula_sum   'Mn13 Al4 Si2 Sb2 O28'
_cell_volume   594.65139936
_cell_formula_units_Z   1
loop_
 _symmetry_equiv_pos_site_id
 _symmetry_equiv_pos_as_xyz
  1  'x, y, z'
loop_
 _atom_site_type_symbol
 _atom_site_label
 _atom_site_symmetry_multiplicity
 _atom_site_fract_x
 _atom_site_fract_y
 _atom_site_fract_z
 _atom_site_occupancy
  Mn  Mn0  1  0.93004400  0.63692800  0.64395700  1
  Mn  Mn1  1  0.65239700  0.79306800  0.34901800  1
  Mn  Mn2  1  0.36307200  0.06995600  0.35604300  1
  Mn  Mn3  1  0.06995600  0.36307200  0.35604300  1
  Mn  Mn4  1  0.34760300  0.20693200  0.65098200  1
  Mn  Mn5  1  0.28686100  0.71313900  0.00000000  1
  Mn  Mn6  1  0.20693200  0.34760300  0.65098200  1
  Mn  Mn7  1  0.00000000  0.00000000  0.00000000  1
  Mn  Mn8  1  0.42731900  0.57268100  0.00000000  1
  Mn  Mn9  1  0.79306800  0.65239700  0.34901800  1
  Mn  Mn10  1  0.63692800  0.93004400  0.64395700  1
  Mn  Mn11  1  0.57268100  0.42731900  0.00000000  1
  Mn  Mn12  1  0.71313900  0.28686100  0.00000000  1
  Al  Al0  1  0.04804600  0.47830900  0.68135800  1
  Al  Al1  1  0.52169100  0.95195400  0.31864200  1
  Al  Al2  1  0.95195400  0.52169100  0.31864200  1
  Al  Al3  1  0.47830900  0.04804600  0.68135800  1
  Si  Si0  1  0.23552300  0.23552300  0.31056500  1
  Si  Si1  1  0.76447700  0.76447700  0.68943500  1
  Sb  Sb0  1  0.85892900  0.14107100  0.00000000  1
  Sb  Sb1  1  0.14107100  0.85892900  0.00000000  1
  O  O0  1  0.67572000  0.97982100  0.40067700  1
  O  O1  1  0.19319500  0.64475700  0.35281100  1
  O  O2  1  0.94182400  0.94182400  0.35084800  1
  O  O3  1  0.31391200  0.31391200  0.12820700  1
  O  O4  1  0.80680500  0.35524300  0.64718900  1
  O  O5  1  0.32428000  0.02017900  0.59932300  1
  O  O6  1  0.01863400  0.60381400  0.11834300  1
  O  O7  1  0.98136600  0.39618600  0.88165700  1
  O  O8  1  0.68608800  0.68608800  0.87179300  1
  O  O9  1  0.11581700  0.27156800  0.88514700  1
  O  O10  1  0.28583300  0.40304300  0.37942300  1
  O  O11  1  0.02017900  0.32428000  0.59932300  1
  O  O12  1  0.39618600  0.98136600  0.88165700  1
  O  O13  1  0.72843200  0.88418300  0.11485300  1
  O  O14  1  0.59695700  0.71416700  0.62057700  1
  O  O15  1  0.05817600  0.05817600  0.64915200  1
  O  O16  1  0.27156800  0.11581700  0.88514700  1
  O  O17  1  0.88418300  0.72843200  0.11485300  1
  O  O18  1  0.60381400  0.01863400  0.11834300  1
  O  O19  1  0.11736100  0.40812100  0.12022000  1
  O  O20  1  0.88263900  0.59187900  0.87978000  1
  O  O21  1  0.40304300  0.28583300  0.37942300  1
  O  O22  1  0.40812100  0.11736100  0.12022000  1
  O  O23  1  0.64475700  0.19319500  0.35281100  1
  O  O24  1  0.71416700  0.59695700  0.62057700  1
  O  O25  1  0.59187900  0.88263900  0.87978000  1
  O  O26  1  0.97982100  0.67572000  0.40067700  1
  O  O27  1  0.35524300  0.80680500  0.64718900  1
loop_
_geom_bond_atom_site_label_1
_geom_bond_atom_site_label_2
_geom_bond_distance
_geom_bond_site_symmetry_2
Mn0 O20 2.136793 1_555
Mn0 O5 2.163690 1_665
Mn0 O4 2.166917 1_555
Mn0 O24 2.194041 1_555
Mn0 O26 2.209263 1_555
Mn1 O2 2.054390 1_555
Mn1 O0 2.073085 1_555
Mn1 O10 2.122921 1_555
Mn1 O13 2.125126 1_555
Mn1 O14 2.471430 1_555
Mn2 O22 2.136793 1_555
Mn2 O26 2.163690 1_445
Mn2 O23 2.166917 1_555
Mn2 O21 2.194041 1_555
Mn2 O5 2.209263 1_555
Mn3 O19 2.136793 1_555
Mn3 O0 2.163690 1_445
Mn3 O1 2.166917 1_555
Mn3 O10 2.194041 1_555
Mn3 O11 2.209263 1_555
Mn4 O15 2.054390 1_555
Mn4 O5 2.073085 1_555
Mn4 O24 2.122921 1_555
Mn4 O16 2.125126 1_555
Mn4 O21 2.471430 1_555
Mn5 O25 2.225631 1_554
Mn5 O19 2.225631 1_555
Mn5 O18 2.240448 1_565
Mn5 O7 2.240448 1_454
Mn5 O12 2.303579 1_554
Mn5 O6 2.303579 1_555
Mn6 O15 2.054390 1_555
Mn6 O11 2.073085 1_555
Mn6 O14 2.122921 1_555
Mn6 O9 2.125126 1_555
Mn6 O10 2.471430 1_555
Mn7 O13 2.272759 1_445
Mn7 O17 2.272759 1_445
Mn7 O16 2.272759 1_554
Mn7 O9 2.272759 1_554
Mn7 O3 2.308254 1_555
Mn7 O8 2.308254 1_444
Mn8 O13 2.195053 1_555
Mn8 O9 2.195053 1_554
Mn8 O8 2.212087 1_554
Mn8 O3 2.212087 1_555
Mn8 O19 2.308436 1_555
Mn8 O25 2.308436 1_554
Mn9 O2 2.054390 1_555
Mn9 O26 2.073085 1_555
Mn9 O21 2.122921 1_555
Mn9 O17 2.125126 1_555
Mn9 O24 2.471430 1_555
Mn10 O25 2.136793 1_555
Mn10 O11 2.163690 1_665
Mn10 O27 2.166917 1_555
Mn10 O14 2.194041 1_555
Mn10 O0 2.209263 1_555
Mn11 O17 2.195053 1_555
Mn11 O16 2.195053 1_554
Mn11 O3 2.212087 1_555
Mn11 O8 2.212087 1_554
Mn11 O22 2.308436 1_555
Mn11 O20 2.308436 1_554
Mn12 O20 2.225631 1_554
Mn12 O22 2.225631 1_555
Mn12 O6 2.240448 1_655
Mn12 O12 2.240448 1_544
Mn12 O7 2.303579 1_554
Mn12 O18 2.303579 1_555
Al0 O11 1.770002 1_555
Al0 O4 1.780637 1_455
Al0 O27 1.783425 1_555
Al0 O7 1.821074 1_455
Al1 O0 1.770002 1_555
Al1 O23 1.780637 1_565
Al1 O1 1.783425 1_555
Al1 O18 1.821074 1_565
Al2 O26 1.770002 1_555
Al2 O1 1.780637 1_655
Al2 O23 1.783425 1_555
Al2 O6 1.821074 1_655
Al3 O5 1.770002 1_555
Al3 O27 1.780637 1_545
Al3 O4 1.783425 1_555
Al3 O12 1.821074 1_545
O2 Si0 1.632932 1_665
O3 Si0 1.653496 1_555
O6 Sb1 2.066911 1_555
O7 Sb0 2.066911 1_556
O8 Si1 1.653496 1_555
O9 Sb0 2.011185 1_456
O10 Si0 1.668969 1_555
O12 Sb1 2.066911 1_556
O13 Sb0 2.011185 1_565
O14 Si1 1.668969 1_555
O15 Si1 1.632932 1_445
O16 Sb1 2.011185 1_546
O17 Sb1 2.011185 1_655
O18 Sb0 2.066911 1_555
O19 Sb0 2.014312 1_455
O20 Sb1 2.014312 1_656
O21 Si0 1.668969 1_555
O22 Sb1 2.014312 1_545
O24 Si1 1.668969 1_555
O25 Sb0 2.014312 1_566
