# generated using pymatgen
data_Na2CdSnS4
_symmetry_space_group_name_H-M   'P 1'
_cell_length_a   6.91518651
_cell_length_b   6.91518651
_cell_length_c   6.46666493
_cell_angle_alpha   63.22118276
_cell_angle_beta   63.22118276
_cell_angle_gamma   98.76584157
_symmetry_Int_Tables_number   1
_chemical_formula_structural   Na2CdSnS4
_chemical_formula_sum   'Na2 Cd1 Sn1 S4'
_cell_volume   220.60337409
_cell_formula_units_Z   1
loop_
 _symmetry_equiv_pos_site_id
 _symmetry_equiv_pos_as_xyz
  1  'x, y, z'
loop_
 _atom_site_type_symbol
 _atom_site_label
 _atom_site_symmetry_multiplicity
 _atom_site_fract_x
 _atom_site_fract_y
 _atom_site_fract_z
 _atom_site_occupancy
  Na  Na0  1  0.52398000  0.47602000  0.50000000  1
  Na  Na1  1  0.77770200  0.22229800  0.00000000  1
  Cd  Cd0  1  0.01124400  0.98875600  0.50000000  1
  Sn  Sn0  1  0.26134000  0.73866000  0.00000000  1
  S  S0  1  0.92413500  0.65277500  0.97194900  1
  S  S1  1  0.61326500  0.84594000  0.55965400  1
  S  S2  1  0.15406000  0.38673500  0.44034600  1
  S  S3  1  0.34722500  0.07586500  0.02805100  1
loop_
_geom_bond_atom_site_label_1
_geom_bond_atom_site_label_2
_geom_bond_distance
_geom_bond_site_symmetry_2
Na0 S0 2.739543 1_554
Na0 S3 2.739543 1_556
Na0 S1 2.774195 1_555
Na0 S2 2.774195 1_555
Na1 S1 2.840176 1_545
Na1 S2 2.840176 1_654
Na1 S0 2.889453 1_554
Na1 S3 2.889453 1_555
Cd0 S1 2.563171 1_455
Cd0 S2 2.563171 1_565
Cd0 S0 2.569553 1_455
Cd0 S3 2.569553 1_565
S0 Sn0 2.424709 1_656
S1 Sn0 2.425529 1_556
S2 Sn0 2.425529 1_555
S3 Sn0 2.424709 1_545
