# generated using pymatgen
data_Mn2O3
_symmetry_space_group_name_H-M   'P 1'
_cell_length_a   9.41886143
_cell_length_b   9.42071325
_cell_length_c   9.41927971
_cell_angle_alpha   90.00000000
_cell_angle_beta   90.00000000
_cell_angle_gamma   90.00000000
_symmetry_Int_Tables_number   1
_chemical_formula_structural   Mn2O3
_chemical_formula_sum   'Mn32 O48'
_cell_volume   835.79522593
_cell_formula_units_Z   16
loop_
 _symmetry_equiv_pos_site_id
 _symmetry_equiv_pos_as_xyz
  1  'x, y, z'
loop_
 _atom_site_type_symbol
 _atom_site_label
 _atom_site_symmetry_multiplicity
 _atom_site_fract_x
 _atom_site_fract_y
 _atom_site_fract_z
 _atom_site_occupancy
  Mn  Mn0  1  0.50000000  0.50000000  -0.00000000  1
  Mn  Mn1  1  0.50000000  0.00000000  0.50000000  1
  Mn  Mn2  1  -0.00000000  0.50000000  0.50000000  1
  Mn  Mn3  1  -0.00000000  0.00000000  -0.00000000  1
  Mn  Mn4  1  -0.00000000  0.00000000  0.50000000  1
  Mn  Mn5  1  -0.00000000  0.50000000  -0.00000000  1
  Mn  Mn6  1  0.50000000  0.00000000  -0.00000000  1
  Mn  Mn7  1  0.50000000  0.50000000  0.50000000  1
  Mn  Mn8  1  0.50089599  0.75084194  0.28508742  1
  Mn  Mn9  1  0.49910401  0.25084194  0.21491258  1
  Mn  Mn10  1  0.99910401  0.24915806  0.78508742  1
  Mn  Mn11  1  0.00089599  0.74915806  0.71491258  1
  Mn  Mn12  1  0.49910401  0.24915806  0.71491258  1
  Mn  Mn13  1  0.50089599  0.74915806  0.78508742  1
  Mn  Mn14  1  0.00089599  0.75084194  0.21491258  1
  Mn  Mn15  1  0.99910401  0.25084194  0.28508742  1
  Mn  Mn16  1  0.25029962  0.78500933  0.99962592  1
  Mn  Mn17  1  0.74970038  0.28500933  0.50037408  1
  Mn  Mn18  1  0.24970038  0.21499067  0.49962592  1
  Mn  Mn19  1  0.75029962  0.71499067  0.00037408  1
  Mn  Mn20  1  0.74970038  0.21499067  0.00037408  1
  Mn  Mn21  1  0.25029962  0.71499067  0.49962592  1
  Mn  Mn22  1  0.75029962  0.78500933  0.50037408  1
  Mn  Mn23  1  0.24970038  0.28500933  0.99962592  1
  Mn  Mn24  1  0.21497103  0.50129659  0.24944083  1
  Mn  Mn25  1  0.78502897  0.00129659  0.25055917  1
  Mn  Mn26  1  0.28502897  0.49870341  0.74944083  1
  Mn  Mn27  1  0.71497103  0.99870341  0.75055917  1
  Mn  Mn28  1  0.78502897  0.49870341  0.75055917  1
  Mn  Mn29  1  0.21497103  0.99870341  0.74944083  1
  Mn  Mn30  1  0.71497103  0.50129659  0.25055917  1
  Mn  Mn31  1  0.28502897  0.00129659  0.24944083  1
  O  O0  1  0.14485181  0.91734147  0.12818543  1
  O  O1  1  0.85514819  0.41734147  0.37181457  1
  O  O2  1  0.35514819  0.08265853  0.62818543  1
  O  O3  1  0.64485181  0.58265853  0.87181457  1
  O  O4  1  0.85514819  0.08265853  0.87181457  1
  O  O5  1  0.14485181  0.58265853  0.62818543  1
  O  O6  1  0.64485181  0.91734147  0.37181457  1
  O  O7  1  0.35514819  0.41734147  0.12818543  1
  O  O8  1  0.08380086  0.62943572  0.35492280  1
  O  O9  1  0.91619914  0.12943572  0.14507720  1
  O  O10  1  0.41619914  0.37056428  0.85492280  1
  O  O11  1  0.58380086  0.87056428  0.64507720  1
  O  O12  1  0.91619914  0.37056428  0.64507720  1
  O  O13  1  0.08380086  0.87056428  0.85492280  1
  O  O14  1  0.58380086  0.62943572  0.14507720  1
  O  O15  1  0.41619914  0.12943572  0.35492280  1
  O  O16  1  0.37245075  0.85623972  0.41716562  1
  O  O17  1  0.62754925  0.35623972  0.08283438  1
  O  O18  1  0.12754925  0.14376028  0.91716562  1
  O  O19  1  0.87245075  0.64376028  0.58283438  1
  O  O20  1  0.62754925  0.14376028  0.58283438  1
  O  O21  1  0.37245075  0.64376028  0.91716562  1
  O  O22  1  0.87245075  0.85623972  0.08283438  1
  O  O23  1  0.12754925  0.35623972  0.41716562  1
  O  O24  1  0.35556778  0.58398310  0.37125191  1
  O  O25  1  0.64443222  0.08398310  0.12874809  1
  O  O26  1  0.14443222  0.41601690  0.87125191  1
  O  O27  1  0.85556778  0.91601690  0.62874809  1
  O  O28  1  0.64443222  0.41601690  0.62874809  1
  O  O29  1  0.35556778  0.91601690  0.87125191  1
  O  O30  1  0.85556778  0.58398310  0.12874809  1
  O  O31  1  0.14443222  0.08398310  0.37125191  1
  O  O32  1  0.41743742  0.87268046  0.14439922  1
  O  O33  1  0.58256258  0.37268046  0.35560078  1
  O  O34  1  0.08256258  0.12731954  0.64439922  1
  O  O35  1  0.91743742  0.62731954  0.85560078  1
  O  O36  1  0.58256258  0.12731954  0.85560078  1
  O  O37  1  0.41743742  0.62731954  0.64439922  1
  O  O38  1  0.91743742  0.87268046  0.35560078  1
  O  O39  1  0.08256258  0.37268046  0.14439922  1
  O  O40  1  0.12959273  0.64547458  0.08361763  1
  O  O41  1  0.87040727  0.14547458  0.41638237  1
  O  O42  1  0.37040727  0.35452542  0.58361763  1
  O  O43  1  0.62959273  0.85452542  0.91638237  1
  O  O44  1  0.87040727  0.35452542  0.91638237  1
  O  O45  1  0.12959273  0.85452542  0.58361763  1
  O  O46  1  0.62959273  0.64547458  0.41638237  1
  O  O47  1  0.37040727  0.14547458  0.08361763  1
loop_
_geom_bond_atom_site_label_1
_geom_bond_atom_site_label_2
_geom_bond_distance
_geom_bond_site_symmetry_2
Mn0 O21 1.971359 1_554
Mn0 O17 1.971359 1_555
Mn0 O3 1.981325 1_554
Mn0 O7 1.981325 1_555
Mn0 O10 1.994310 1_554
Mn0 O14 1.994310 1_555
Mn1 O16 1.971359 1_545
Mn1 O20 1.971359 1_555
Mn1 O6 1.981325 1_545
Mn1 O2 1.981325 1_555
Mn1 O15 1.994310 1_555
Mn1 O11 1.994310 1_545
Mn2 O19 1.971359 1_455
Mn2 O23 1.971359 1_555
Mn2 O1 1.981325 1_455
Mn2 O5 1.981325 1_555
Mn2 O12 1.994310 1_455
Mn2 O8 1.994310 1_555
Mn3 O22 1.971359 1_445
Mn3 O18 1.971359 1_554
Mn3 O4 1.981325 1_454
Mn3 O0 1.981325 1_545
Mn3 O9 1.994310 1_455
Mn3 O13 1.994310 1_544
Mn4 O38 1.973161 1_445
Mn4 O34 1.973161 1_555
Mn4 O31 1.986780 1_555
Mn4 O27 1.986780 1_445
Mn4 O41 1.997109 1_455
Mn4 O45 1.997109 1_545
Mn5 O35 1.973161 1_454
Mn5 O39 1.973161 1_555
Mn5 O30 1.986780 1_455
Mn5 O26 1.986780 1_554
Mn5 O44 1.997109 1_454
Mn5 O40 1.997109 1_555
Mn6 O36 1.973161 1_554
Mn6 O32 1.973161 1_545
Mn6 O25 1.986780 1_555
Mn6 O29 1.986780 1_544
Mn6 O47 1.997109 1_555
Mn6 O43 1.997109 1_544
Mn7 O33 1.973161 1_555
Mn7 O37 1.973161 1_555
Mn7 O24 1.986780 1_555
Mn7 O28 1.986780 1_555
Mn7 O42 1.997109 1_555
Mn7 O46 1.997109 1_555
Mn8 O14 1.912356 1_555
Mn8 O32 1.921326 1_555
Mn8 O46 1.996030 1_555
Mn8 O16 1.999317 1_555
Mn8 O6 2.228482 1_555
Mn8 O24 2.236818 1_555
Mn9 O15 1.912356 1_555
Mn9 O33 1.921326 1_555
Mn9 O47 1.996030 1_555
Mn9 O17 1.999317 1_555
Mn9 O7 2.228482 1_555
Mn9 O25 2.236818 1_555
Mn10 O12 1.912356 1_555
Mn10 O34 1.921326 1_655
Mn10 O44 1.996030 1_555
Mn10 O18 1.999317 1_655
Mn10 O4 2.228482 1_555
Mn10 O26 2.236818 1_655
Mn11 O13 1.912356 1_555
Mn11 O35 1.921326 1_455
Mn11 O45 1.996030 1_555
Mn11 O19 1.999317 1_455
Mn11 O5 2.228482 1_555
Mn11 O27 2.236818 1_455
Mn12 O10 1.912356 1_555
Mn12 O36 1.921326 1_555
Mn12 O42 1.996030 1_555
Mn12 O20 1.999317 1_555
Mn12 O2 2.228482 1_555
Mn12 O28 2.236818 1_555
Mn13 O11 1.912356 1_555
Mn13 O37 1.921326 1_555
Mn13 O43 1.996030 1_555
Mn13 O21 1.999317 1_555
Mn13 O3 2.228482 1_555
Mn13 O29 2.236818 1_555
Mn14 O8 1.912356 1_555
Mn14 O38 1.921326 1_455
Mn14 O40 1.996030 1_555
Mn14 O22 1.999317 1_455
Mn14 O0 2.228482 1_555
Mn14 O30 2.236818 1_455
Mn15 O9 1.912356 1_555
Mn15 O39 1.921326 1_655
Mn15 O41 1.996030 1_555
Mn15 O23 1.999317 1_655
Mn15 O1 2.228482 1_555
Mn15 O31 2.236818 1_655
Mn16 O40 1.909568 1_556
Mn16 O21 1.922933 1_555
Mn16 O29 1.992094 1_555
Mn16 O0 2.001745 1_556
Mn16 O13 2.228615 1_555
Mn16 O32 2.240530 1_556
Mn17 O41 1.909568 1_555
Mn17 O20 1.922933 1_555
Mn17 O28 1.992094 1_555
Mn17 O1 2.001745 1_555
Mn17 O12 2.228615 1_555
Mn17 O33 2.240530 1_555
Mn18 O42 1.909568 1_555
Mn18 O23 1.922933 1_555
Mn18 O31 1.992094 1_555
Mn18 O2 2.001745 1_555
Mn18 O15 2.228615 1_555
Mn18 O34 2.240530 1_555
Mn19 O43 1.909568 1_554
Mn19 O22 1.922933 1_555
Mn19 O30 1.992094 1_555
Mn19 O3 2.001745 1_554
Mn19 O14 2.228615 1_555
Mn19 O35 2.240530 1_554
Mn20 O44 1.909568 1_554
Mn20 O17 1.922933 1_555
Mn20 O25 1.992094 1_555
Mn20 O4 2.001745 1_554
Mn20 O9 2.228615 1_555
Mn20 O36 2.240530 1_554
Mn21 O45 1.909568 1_555
Mn21 O16 1.922933 1_555
Mn21 O24 1.992094 1_555
Mn21 O5 2.001745 1_555
Mn21 O8 2.228615 1_555
Mn21 O37 2.240530 1_555
Mn22 O46 1.909568 1_555
Mn22 O19 1.922933 1_555
Mn22 O27 1.992094 1_555
Mn22 O6 2.001745 1_555
Mn22 O11 2.228615 1_555
Mn22 O38 2.240530 1_555
Mn23 O47 1.909568 1_556
Mn23 O18 1.922933 1_555
Mn23 O26 1.992094 1_555
Mn23 O7 2.001745 1_556
Mn23 O10 2.228615 1_555
Mn23 O39 2.240530 1_556
Mn24 O7 1.916572 1_555
Mn24 O24 1.917530 1_555
Mn24 O8 1.992688 1_555
Mn24 O39 2.000601 1_555
Mn24 O40 2.220629 1_555
Mn24 O23 2.245296 1_555
Mn25 O6 1.916572 1_545
Mn25 O25 1.917530 1_555
Mn25 O9 1.992688 1_555
Mn25 O38 2.000601 1_545
Mn25 O41 2.220629 1_555
Mn25 O22 2.245296 1_545
Mn26 O5 1.916572 1_555
Mn26 O26 1.917530 1_555
Mn26 O10 1.992688 1_555
Mn26 O37 2.000601 1_555
Mn26 O42 2.220629 1_555
Mn26 O21 2.245296 1_555
Mn27 O4 1.916572 1_565
Mn27 O27 1.917530 1_555
Mn27 O11 1.992688 1_555
Mn27 O36 2.000601 1_565
Mn27 O43 2.220629 1_555
Mn27 O20 2.245296 1_565
Mn28 O3 1.916572 1_555
Mn28 O28 1.917530 1_555
Mn28 O12 1.992688 1_555
Mn28 O35 2.000601 1_555
Mn28 O44 2.220629 1_555
Mn28 O19 2.245296 1_555
Mn29 O2 1.916572 1_565
Mn29 O29 1.917530 1_555
Mn29 O13 1.992688 1_555
Mn29 O34 2.000601 1_565
Mn29 O45 2.220629 1_555
Mn29 O18 2.245296 1_565
Mn30 O1 1.916572 1_555
Mn30 O30 1.917530 1_555
Mn30 O14 1.992688 1_555
Mn30 O33 2.000601 1_555
Mn30 O46 2.220629 1_555
Mn30 O17 2.245296 1_555
Mn31 O0 1.916572 1_545
Mn31 O31 1.917530 1_555
Mn31 O15 1.992688 1_555
Mn31 O32 2.000601 1_545
Mn31 O47 2.220629 1_555
Mn31 O16 2.245296 1_545
