# generated using pymatgen
data_Na(RhO2)2
_symmetry_space_group_name_H-M   'P 1'
_cell_length_a   3.05575214
_cell_length_b   8.98732914
_cell_length_c   10.67374375
_cell_angle_alpha   90.00038198
_cell_angle_beta   89.99999775
_cell_angle_gamma   89.99999779
_symmetry_Int_Tables_number   1
_chemical_formula_structural   Na(RhO2)2
_chemical_formula_sum   'Na4 Rh8 O16'
_cell_volume   293.13356098
_cell_formula_units_Z   4
loop_
 _symmetry_equiv_pos_site_id
 _symmetry_equiv_pos_as_xyz
  1  'x, y, z'
loop_
 _atom_site_type_symbol
 _atom_site_label
 _atom_site_symmetry_multiplicity
 _atom_site_fract_x
 _atom_site_fract_y
 _atom_site_fract_z
 _atom_site_occupancy
  Na  Na0  1  0.75000001  0.73773124  0.84392614  1
  Na  Na1  1  0.24999995  0.26226684  0.15607579  1
  Na  Na2  1  0.74999987  0.23771581  0.65609124  1
  Na  Na3  1  0.25000011  0.76228393  0.34390591  1
  Rh  Rh0  1  0.75000026  0.08717929  0.39744400  1
  Rh  Rh1  1  0.25000015  0.91282730  0.60254657  1
  Rh  Rh2  1  0.75000020  0.58719439  0.10257718  1
  Rh  Rh3  1  0.25000017  0.41281269  0.89743191  1
  Rh  Rh4  1  0.74999975  0.05623476  0.88273801  1
  Rh  Rh5  1  0.24999994  0.94375671  0.11727040  1
  Rh  Rh6  1  0.74999986  0.55623282  0.61726481  1
  Rh  Rh7  1  0.24999988  0.44376204  0.38272692  1
  O  O0  1  0.75000038  0.30285230  0.33677352  1
  O  O1  1  0.25000043  0.69714724  0.66320283  1
  O  O2  1  0.75000061  0.80287609  0.16312115  1
  O  O3  1  0.25000023  0.19712500  0.83690343  1
  O  O4  1  0.74999951  0.38262950  0.02135370  1
  O  O5  1  0.24999963  0.61737588  0.97866643  1
  O  O6  1  0.74999964  0.88262471  0.47867688  1
  O  O7  1  0.24999961  0.11737900  0.52130578  1
  O  O8  1  0.74999962  0.96824145  0.71167020  1
  O  O9  1  0.24999983  0.03176114  0.28832419  1
  O  O10  1  0.74999975  0.46818002  0.78829846  1
  O  O11  1  0.24999968  0.53181903  0.21170649  1
  O  O12  1  0.75000020  0.08317872  0.07054130  1
  O  O13  1  0.25000020  0.91681510  0.92947454  1
  O  O14  1  0.75000030  0.58318402  0.42947075  1
  O  O15  1  0.25000022  0.41681197  0.57051346  1
loop_
_geom_bond_atom_site_label_1
_geom_bond_atom_site_label_2
_geom_bond_distance
_geom_bond_site_symmetry_2
Na0 O5 2.360680 1_655
Na0 O5 2.360682 1_555
Na0 O13 2.399712 1_555
Na0 O13 2.399713 1_655
Na0 O1 2.487659 1_555
Na0 O1 2.487661 1_655
Na0 O10 2.494244 1_555
Na0 O8 2.506923 1_555
Na1 O4 2.360592 1_555
Na1 O4 2.360593 1_455
Na1 O12 2.399681 1_455
Na1 O12 2.399682 1_555
Na1 O0 2.487449 1_455
Na1 O0 2.487451 1_555
Na1 O11 2.494260 1_555
Na1 O9 2.506844 1_555
Na2 O7 2.360889 1_655
Na2 O7 2.360890 1_555
Na2 O15 2.399914 1_555
Na2 O15 2.399915 1_655
Na2 O3 2.488408 1_555
Na2 O3 2.488409 1_655
Na2 O8 2.493457 1_545
Na2 O10 2.506273 1_555
Na3 O6 2.360811 1_555
Na3 O6 2.360812 1_455
Na3 O14 2.399884 1_455
Na3 O14 2.399885 1_555
Na3 O2 2.488182 1_455
Na3 O2 2.488184 1_555
Na3 O9 2.493489 1_565
Na3 O11 2.506231 1_555
O0 Rh0 2.043644 1_555
O0 Rh7 2.044200 1_655
O0 Rh7 2.044202 1_555
O1 Rh1 2.043656 1_555
O1 Rh6 2.044186 1_555
O1 Rh6 2.044189 1_455
O2 Rh2 2.043282 1_555
O2 Rh5 2.043779 1_655
O2 Rh5 2.043782 1_555
O3 Rh3 2.043281 1_555
O3 Rh4 2.043791 1_555
O3 Rh4 2.043793 1_455
O4 Rh2 2.032646 1_555
O4 Rh3 2.039007 1_554
O4 Rh3 2.039010 1_654
O5 Rh3 2.032682 1_555
O5 Rh2 2.038929 1_456
O5 Rh2 2.038931 1_556
O6 Rh0 2.032615 1_565
O6 Rh1 2.038667 1_555
O6 Rh1 2.038670 1_655
O7 Rh1 2.032628 1_545
O7 Rh0 2.038609 1_455
O7 Rh0 2.038612 1_555
O8 Rh1 1.984712 1_555
O8 Rh1 1.984715 1_655
O8 Rh4 1.989829 1_565
O9 Rh0 1.984697 1_455
O9 Rh0 1.984700 1_555
O9 Rh5 1.989731 1_545
O10 Rh3 1.984672 1_555
O10 Rh3 1.984674 1_655
O10 Rh6 1.989717 1_555
O11 Rh2 1.984664 1_455
O11 Rh2 1.984667 1_555
O11 Rh7 1.989602 1_555
O12 Rh4 2.019136 1_554
O12 Rh5 2.037959 1_645
O12 Rh5 2.037960 1_545
O13 Rh5 2.019055 1_556
O13 Rh4 2.037965 1_565
O13 Rh4 2.037967 1_465
O14 Rh6 2.019049 1_555
O14 Rh7 2.037992 1_655
O14 Rh7 2.037994 1_555
O15 Rh7 2.018968 1_555
O15 Rh6 2.038006 1_555
O15 Rh6 2.038008 1_455
