# generated using pymatgen
data_K2Zn(GeO3)2
_symmetry_space_group_name_H-M   'P 1'
_cell_length_a   5.92702533
_cell_length_b   5.92702533
_cell_length_c   11.06502900
_cell_angle_alpha   90.00000000
_cell_angle_beta   90.00000000
_cell_angle_gamma   113.36988322
_symmetry_Int_Tables_number   1
_chemical_formula_structural   K2Zn(GeO3)2
_chemical_formula_sum   'K4 Zn2 Ge4 O12'
_cell_volume   356.82183307
_cell_formula_units_Z   2
loop_
 _symmetry_equiv_pos_site_id
 _symmetry_equiv_pos_as_xyz
  1  'x, y, z'
loop_
 _atom_site_type_symbol
 _atom_site_label
 _atom_site_symmetry_multiplicity
 _atom_site_fract_x
 _atom_site_fract_y
 _atom_site_fract_z
 _atom_site_occupancy
  K  K0  1  0.78371100  0.43033800  0.92699200  1
  K  K1  1  0.56966200  0.21628900  0.57300800  1
  K  K2  1  0.21628900  0.56966200  0.42699200  1
  K  K3  1  0.43033800  0.78371100  0.07300800  1
  Zn  Zn0  1  0.69119400  0.30880600  0.25000000  1
  Zn  Zn1  1  0.30880600  0.69119400  0.75000000  1
  Ge  Ge0  1  0.82584700  0.86202800  0.36225100  1
  Ge  Ge1  1  0.13797200  0.17415300  0.13774900  1
  Ge  Ge2  1  0.17415300  0.13797200  0.86225100  1
  Ge  Ge3  1  0.86202800  0.82584700  0.63774900  1
  O  O0  1  0.60737000  0.98434000  0.33233800  1
  O  O1  1  0.54135000  0.70474600  0.61981400  1
  O  O2  1  0.70474600  0.54135000  0.38018600  1
  O  O3  1  0.39263000  0.01566000  0.83233800  1
  O  O4  1  0.99700400  0.99700400  0.50000000  1
  O  O5  1  0.45865000  0.29525400  0.11981400  1
  O  O6  1  0.06213500  0.93786500  0.25000000  1
  O  O7  1  0.29525400  0.45865000  0.88018600  1
  O  O8  1  0.00299600  0.00299600  0.00000000  1
  O  O9  1  0.93786500  0.06213500  0.75000000  1
  O  O10  1  0.01566000  0.39263000  0.16766200  1
  O  O11  1  0.98434000  0.60737000  0.66766200  1
loop_
_geom_bond_atom_site_label_1
_geom_bond_atom_site_label_2
_geom_bond_distance
_geom_bond_site_symmetry_2
K0 O5 2.771534 1_556
K0 O3 2.826831 1_555
K0 O7 3.010546 1_555
K0 O7 3.014192 1_655
K0 O10 3.045549 1_656
K0 O11 3.123964 1_555
K0 O8 3.219074 1_666
K1 O2 2.771534 1_555
K1 O11 2.826831 1_555
K1 O1 3.010546 1_555
K1 O1 3.014192 1_545
K1 O0 3.045549 1_545
K1 O3 3.123964 1_555
K1 O4 3.219074 1_445
K2 O1 2.771534 1_555
K2 O0 2.826831 1_555
K2 O2 3.010546 1_555
K2 O2 3.014192 1_455
K2 O11 3.045549 1_455
K2 O10 3.123964 1_555
K2 O4 3.219074 1_445
K3 O7 2.771534 1_554
K3 O10 2.826831 1_555
K3 O5 3.010546 1_555
K3 O5 3.014192 1_565
K3 O3 3.045549 1_564
K3 O0 3.123964 1_555
K3 O8 3.219074 1_665
Ge0 O0 1.748328 1_555
Ge0 O2 1.756364 1_555
Ge0 O6 1.790729 1_655
Ge0 O4 1.829879 1_555
Ge1 O10 1.748328 1_555
Ge1 O5 1.756364 1_555
Ge1 O6 1.790729 1_545
Ge1 O8 1.829879 1_555
Ge2 O3 1.748328 1_555
Ge2 O7 1.756364 1_555
Ge2 O9 1.790729 1_455
Ge2 O8 1.829879 1_556
Ge3 O11 1.748328 1_555
Ge3 O1 1.756364 1_555
Ge3 O9 1.790729 1_565
Ge3 O4 1.829879 1_555
O0 Zn0 2.004315 1_565
O1 Zn1 1.973168 1_555
O2 Zn0 1.973168 1_555
O3 Zn1 2.004315 1_545
O5 Zn0 1.973168 1_555
O7 Zn1 1.973168 1_555
O10 Zn0 2.004315 1_455
O11 Zn1 2.004315 1_655
