# generated using pymatgen
data_Pr3Si2Cl3O7
_symmetry_space_group_name_H-M   'P 1'
_cell_length_a   12.21945400
_cell_length_b   5.36168800
_cell_length_c   7.91486292
_cell_angle_alpha   71.21646929
_cell_angle_beta   90.00000000
_cell_angle_gamma   90.00000000
_symmetry_Int_Tables_number   1
_chemical_formula_structural   Pr3Si2Cl3O7
_chemical_formula_sum   'Pr6 Si4 Cl6 O14'
_cell_volume   490.93988240
_cell_formula_units_Z   2
loop_
 _symmetry_equiv_pos_site_id
 _symmetry_equiv_pos_as_xyz
  1  'x, y, z'
loop_
 _atom_site_type_symbol
 _atom_site_label
 _atom_site_symmetry_multiplicity
 _atom_site_fract_x
 _atom_site_fract_y
 _atom_site_fract_z
 _atom_site_occupancy
  Pr  Pr0  1  0.10246300  0.70576100  0.46937700  1
  Pr  Pr1  1  0.12413700  0.96769600  0.92066100  1
  Pr  Pr2  1  0.62413700  0.03230400  0.07933900  1
  Pr  Pr3  1  0.37819500  0.55306000  0.79725000  1
  Pr  Pr4  1  0.87819500  0.44694000  0.20275000  1
  Pr  Pr5  1  0.60246300  0.29423900  0.53062300  1
  Si  Si0  1  0.17632200  0.38694600  0.18254100  1
  Si  Si1  1  0.78871800  0.78836200  0.43562500  1
  Si  Si2  1  0.67632200  0.61305400  0.81745900  1
  Si  Si3  1  0.28871800  0.21163800  0.56437500  1
  Cl  Cl0  1  0.50524200  0.84487300  0.44283000  1
  Cl  Cl1  1  0.50885900  0.45729900  0.16760200  1
  Cl  Cl2  1  0.88208600  0.98790100  0.99191100  1
  Cl  Cl3  1  0.00524200  0.15512700  0.55717000  1
  Cl  Cl4  1  0.38208600  0.01209900  0.00808900  1
  Cl  Cl5  1  0.00885900  0.54270100  0.83239800  1
  O  O0  1  0.91509700  0.72688200  0.40240600  1
  O  O1  1  0.57292900  0.41983600  0.80343200  1
  O  O2  1  0.25214400  0.90175300  0.62146800  1
  O  O3  1  0.63941800  0.91014400  0.80843800  1
  O  O4  1  0.73795100  0.44017700  0.99915800  1
  O  O5  1  0.71994300  0.65201700  0.30659400  1
  O  O6  1  0.21994300  0.34798300  0.69340600  1
  O  O7  1  0.74847600  0.61655400  0.63886700  1
  O  O8  1  0.75214400  0.09824700  0.37853200  1
  O  O9  1  0.24847600  0.38344600  0.36113300  1
  O  O10  1  0.07292900  0.58016400  0.19656800  1
  O  O11  1  0.13941800  0.08985600  0.19156200  1
  O  O12  1  0.23795100  0.55982300  0.00084200  1
  O  O13  1  0.41509700  0.27311800  0.59759400  1
loop_
_geom_bond_atom_site_label_1
_geom_bond_atom_site_label_2
_geom_bond_distance
_geom_bond_site_symmetry_2
Cl0 Pr5 2.962656 1_565
Cl0 Pr5 3.047830 1_555
Cl0 Pr2 3.088002 1_565
Cl0 Pr3 3.146535 1_555
Cl1 Pr2 2.947855 1_555
Cl1 Pr5 2.951361 1_555
Cl1 Pr3 3.230495 1_554
Cl1 Pr2 3.254253 1_565
Cl2 Pr4 2.843009 1_556
Cl2 Pr1 3.019482 1_655
Cl2 Pr2 3.252182 1_566
Cl2 Pr4 3.389636 1_566
Cl3 Pr0 2.962656 1_545
Cl3 Pr0 3.047830 1_555
Cl3 Pr1 3.088002 1_545
Cl3 Pr4 3.146535 1_455
Cl4 Pr3 2.843009 1_554
Cl4 Pr2 3.019482 1_555
Cl4 Pr1 3.252182 1_544
Cl4 Pr3 3.389636 1_544
Cl5 Pr1 2.947855 1_555
Cl5 Pr0 2.951361 1_555
Cl5 Pr4 3.230495 1_456
Cl5 Pr1 3.254253 1_545
O0 Si1 1.618151 1_555
O0 Pr0 2.344567 1_655
O0 Pr4 2.545756 1_555
O1 Si2 1.660070 1_555
O1 Pr3 2.480392 1_555
O1 Pr5 2.486456 1_555
O1 Pr2 2.560401 1_556
O2 Si3 1.637384 1_565
O2 Pr3 2.475556 1_555
O2 Pr0 2.591007 1_555
O2 Pr1 2.952729 1_555
O3 Si2 1.634794 1_555
O3 Pr2 2.442463 1_566
O3 Pr5 2.522669 1_565
O4 Si2 1.623588 1_555
O4 Pr4 2.360582 1_556
O4 Pr2 2.495123 1_556
O5 Si1 1.662662 1_555
O5 Pr4 2.491177 1_555
O5 Pr2 2.530108 1_565
O5 Pr5 2.587323 1_555
O6 Si3 1.662662 1_555
O6 Pr3 2.491177 1_555
O6 Pr1 2.530108 1_545
O6 Pr0 2.587323 1_555
O7 Si1 1.650391 1_555
O7 Si2 1.660935 1_555
O7 Pr5 2.803095 1_555
O8 Si1 1.637384 1_545
O8 Pr4 2.475556 1_555
O8 Pr5 2.591007 1_555
O8 Pr2 2.952729 1_555
O9 Si3 1.650391 1_555
O9 Si0 1.660935 1_555
O9 Pr0 2.803095 1_555
O10 Si0 1.660070 1_555
O10 Pr4 2.480392 1_455
O10 Pr0 2.486456 1_555
O10 Pr1 2.560401 1_554
O11 Si0 1.634794 1_555
O11 Pr1 2.442463 1_544
O11 Pr0 2.522669 1_545
O12 Si0 1.623588 1_555
O12 Pr3 2.360582 1_554
O12 Pr1 2.495123 1_554
O13 Si3 1.618151 1_555
O13 Pr5 2.344567 1_555
O13 Pr3 2.545756 1_555
