# generated using pymatgen
data_AlInS3
_symmetry_space_group_name_H-M   'P 1'
_cell_length_a   6.77113913
_cell_length_b   6.77022780
_cell_length_c   17.96964451
_cell_angle_alpha   89.99989250
_cell_angle_beta   90.00029741
_cell_angle_gamma   120.00207047
_symmetry_Int_Tables_number   1
_chemical_formula_structural   AlInS3
_chemical_formula_sum   'Al6 In6 S18'
_cell_volume   713.38845287
_cell_formula_units_Z   6
loop_
 _symmetry_equiv_pos_site_id
 _symmetry_equiv_pos_as_xyz
  1  'x, y, z'
loop_
 _atom_site_type_symbol
 _atom_site_label
 _atom_site_symmetry_multiplicity
 _atom_site_fract_x
 _atom_site_fract_y
 _atom_site_fract_z
 _atom_site_occupancy
  Al  Al0  1  0.66842729  0.98495030  0.48734280  1
  Al  Al1  1  0.31657590  0.33143043  0.15405148  1
  Al  Al2  1  0.33157789  0.01504414  0.98733475  1
  Al  Al3  1  0.68343095  0.66857220  0.65405877  1
  Al  Al4  1  0.98503745  0.31666287  0.32059361  1
  Al  Al5  1  0.01494963  0.68333928  0.82059075  1
  In  In0  1  0.66943195  0.66696622  0.29206871  1
  In  In1  1  0.66688180  0.99745684  0.12537420  1
  In  In2  1  0.99757547  0.33066390  0.95876691  1
  In  In3  1  0.00241580  0.66932857  0.45877620  1
  In  In4  1  0.33312328  0.00254260  0.62538316  1
  In  In5  1  0.33056684  0.33304433  0.79206896  1
  S  S0  1  0.96343841  0.33086505  0.80915716  1
  S  S1  1  0.29369123  0.00265770  0.11398641  1
  S  S2  1  0.36841733  0.33718282  0.94017923  1
  S  S3  1  0.00283630  0.70908578  0.94725411  1
  S  S4  1  0.33104117  0.36756559  0.64245841  1
  S  S5  1  0.96865715  0.63170142  0.60689625  1
  S  S6  1  -0.00285094  0.29089884  0.44725576  1
  S  S7  1  0.63157561  0.66280759  0.44018183  1
  S  S8  1  0.66897223  0.63244309  0.14245454  1
  S  S9  1  0.29099276  0.29369165  0.28067098  1
  S  S10  1  0.63252160  0.96356685  0.97582421  1
  S  S11  1  0.70900693  0.70632402  0.78067550  1
  S  S12  1  0.33704962  0.96872934  0.77345948  1
  S  S13  1  0.36747554  0.03642218  0.47584098  1
  S  S14  1  0.70632748  -0.00264666  0.61399422  1
  S  S15  1  0.03655782  0.66914290  0.30916805  1
  S  S16  1  0.03134784  0.36828808  0.10688635  1
  S  S17  1  0.66294968  0.03127207  0.27345021  1
loop_
_geom_bond_atom_site_label_1
_geom_bond_atom_site_label_2
_geom_bond_distance
_geom_bond_site_symmetry_2
Al0 S7 2.234478 1_555
Al0 S13 2.242072 1_565
Al0 S6 2.270006 1_665
Al0 S14 2.287135 1_565
Al1 S16 2.234397 1_555
Al1 S8 2.242122 1_555
Al1 S1 2.269780 1_555
Al1 S9 2.286493 1_555
Al2 S2 2.234444 1_555
Al2 S10 2.242057 1_545
Al2 S3 2.270063 1_545
Al2 S1 2.287135 1_556
Al3 S5 2.234424 1_555
Al3 S4 2.242084 1_555
Al3 S14 2.269795 1_565
Al3 S11 2.286448 1_555
Al4 S17 2.234527 1_555
Al4 S15 2.241890 1_655
Al4 S9 2.269992 1_655
Al4 S6 2.287349 1_655
Al5 S12 2.234493 1_555
Al5 S0 2.241888 1_455
Al5 S11 2.269911 1_455
Al5 S3 2.287362 1_555
In0 S15 2.497497 1_655
In0 S17 2.511059 1_565
In0 S9 2.553141 1_555
In0 S7 2.672655 1_555
In0 S8 2.698522 1_555
In1 S8 2.497267 1_555
In1 S16 2.511500 1_665
In1 S1 2.552928 1_565
In1 S17 2.671978 1_565
In1 S10 2.697274 1_554
In2 S10 2.497413 1_545
In2 S2 2.511558 1_655
In2 S3 2.552774 1_655
In2 S16 2.672699 1_656
In2 S0 2.698410 1_555
In3 S13 2.497435 1_565
In3 S7 2.511552 1_455
In3 S6 2.552819 1_555
In3 S5 2.672709 1_455
In3 S15 2.698382 1_555
In4 S4 2.497291 1_555
In4 S5 2.511530 1_445
In4 S14 2.552984 1_555
In4 S12 2.671979 1_545
In4 S13 2.697131 1_555
In5 S0 2.497484 1_455
In5 S12 2.511102 1_545
In5 S11 2.553156 1_555
In5 S2 2.672603 1_555
In5 S4 2.698451 1_555
