# generated using pymatgen
data_TmMnO3
_symmetry_space_group_name_H-M   'P 1'
_cell_length_a   6.05319657
_cell_length_b   6.05319657
_cell_length_c   11.35090639
_cell_angle_alpha   90.00000040
_cell_angle_beta   90.00000095
_cell_angle_gamma   119.99987198
_symmetry_Int_Tables_number   1
_chemical_formula_structural   TmMnO3
_chemical_formula_sum   'Tm6 Mn6 O18'
_cell_volume   360.18969891
_cell_formula_units_Z   6
loop_
 _symmetry_equiv_pos_site_id
 _symmetry_equiv_pos_as_xyz
  1  'x, y, z'
loop_
 _atom_site_type_symbol
 _atom_site_label
 _atom_site_symmetry_multiplicity
 _atom_site_fract_x
 _atom_site_fract_y
 _atom_site_fract_z
 _atom_site_occupancy
  Tm  Tm0  1  0.66666635  0.33333306  0.72781865  1
  Tm  Tm1  1  0.00000015  0.00000016  0.77291275  1
  Tm  Tm2  1  0.33333352  0.66666690  0.22780691  1
  Tm  Tm3  1  0.66666685  0.33333372  0.22780686  1
  Tm  Tm4  1  -0.00000009  -0.00000013  0.27291290  1
  Tm  Tm5  1  0.33333308  0.66666630  0.72781871  1
  Mn  Mn0  1  0.66650240  0.66650242  0.99725026  1
  Mn  Mn1  1  -0.00000350  0.33349050  0.99725019  1
  Mn  Mn2  1  0.00000346  0.66650566  0.49724766  1
  Mn  Mn3  1  0.33349072  -0.00000348  0.99725020  1
  Mn  Mn4  1  0.66650550  0.00000339  0.49724761  1
  Mn  Mn5  1  0.33350141  0.33350139  0.49724770  1
  O  O0  1  0.66666623  0.33333267  0.51788792  1
  O  O1  1  0.63917846  0.63917842  0.83273929  1
  O  O2  1  0.36082097  -0.00000019  0.83273934  1
  O  O3  1  0.69453732  0.00000013  0.66201205  1
  O  O4  1  -0.00000031  0.36082067  0.83273934  1
  O  O5  1  0.33333252  0.66666612  0.51788785  1
  O  O6  1  -0.00000018  0.30545862  0.16201194  1
  O  O7  1  0.36081287  0.36081286  0.33273665  1
  O  O8  1  0.00000024  0.63918773  0.33273680  1
  O  O9  1  0.30546321  0.30546316  0.66201205  1
  O  O10  1  0.69454065  0.69454075  0.16201190  1
  O  O11  1  0.00000013  0.00000006  0.97269344  1
  O  O12  1  0.30545868  -0.00000018  0.16201195  1
  O  O13  1  0.33333350  0.66666708  0.01788297  1
  O  O14  1  0.00000019  0.69453728  0.66201198  1
  O  O15  1  0.63918771  0.00000037  0.33273670  1
  O  O16  1  -0.00000020  -0.00000019  0.47269137  1
  O  O17  1  0.66666716  0.33333375  0.01788305  1
loop_
_geom_bond_atom_site_label_1
_geom_bond_atom_site_label_2
_geom_bond_distance
_geom_bond_site_symmetry_2
Mn0 O1 1.874659 1_555
Mn0 O10 1.877879 1_556
Mn0 O17 2.030784 1_556
Mn0 O13 2.030785 1_556
Mn0 O11 2.037884 1_665
Mn1 O4 1.874660 1_555
Mn1 O6 1.877878 1_556
Mn1 O17 2.030784 1_456
Mn1 O13 2.030823 1_556
Mn1 O11 2.037848 1_555
Mn2 O8 1.874654 1_555
Mn2 O14 1.877907 1_555
Mn2 O5 2.030780 1_555
Mn2 O0 2.030822 1_455
Mn2 O16 2.037869 1_565
Mn3 O2 1.874660 1_555
Mn3 O12 1.877878 1_556
Mn3 O13 2.030783 1_546
Mn3 O17 2.030823 1_556
Mn3 O11 2.037848 1_555
Mn4 O15 1.874654 1_555
Mn4 O3 1.877908 1_555
Mn4 O0 2.030781 1_555
Mn4 O5 2.030822 1_545
Mn4 O16 2.037870 1_655
Mn5 O7 1.874653 1_555
Mn5 O9 1.877910 1_555
Mn5 O5 2.030783 1_555
Mn5 O0 2.030783 1_555
Mn5 O16 2.037907 1_555
O0 Tm0 2.382904 1_555
O1 Tm5 2.276300 1_555
O1 Tm0 2.276301 1_555
O1 Tm1 2.287264 1_665
O2 Tm5 2.276302 1_545
O2 Tm0 2.276304 1_555
O2 Tm1 2.287256 1_555
O3 Tm0 2.235634 1_555
O3 Tm5 2.235642 1_545
O3 Tm1 2.236858 1_655
O4 Tm0 2.276303 1_455
O4 Tm5 2.276305 1_555
O4 Tm1 2.287254 1_555
O5 Tm5 2.382906 1_555
O6 Tm3 2.235603 1_455
O6 Tm2 2.235610 1_555
O6 Tm4 2.236840 1_555
O7 Tm3 2.276374 1_555
O7 Tm2 2.276374 1_555
O7 Tm4 2.287204 1_555
O8 Tm2 2.276376 1_555
O8 Tm3 2.276379 1_455
O8 Tm4 2.287197 1_565
O9 Tm0 2.235633 1_555
O9 Tm5 2.235633 1_555
O9 Tm1 2.236862 1_555
O10 Tm3 2.235601 1_555
O10 Tm2 2.235602 1_555
O10 Tm4 2.236845 1_665
O11 Tm1 2.267692 1_555
O12 Tm2 2.235602 1_545
O12 Tm3 2.235610 1_555
O12 Tm4 2.236840 1_555
O13 Tm2 2.382827 1_555
O14 Tm5 2.235634 1_555
O14 Tm0 2.235642 1_455
O14 Tm1 2.236859 1_565
O15 Tm3 2.276376 1_555
O15 Tm2 2.276379 1_545
O15 Tm4 2.287197 1_655
O16 Tm4 2.267667 1_555
O17 Tm3 2.382826 1_555
