# generated using pymatgen
data_TmNbO4
_symmetry_space_group_name_H-M   'P 1'
_cell_length_a   5.07753915
_cell_length_b   5.23185980
_cell_length_c   6.46800206
_cell_angle_alpha   112.18862355
_cell_angle_beta   111.40481334
_cell_angle_gamma   93.91088671
_symmetry_Int_Tables_number   1
_chemical_formula_structural   TmNbO4
_chemical_formula_sum   'Tm2 Nb2 O8'
_cell_volume   143.83180246
_cell_formula_units_Z   2
loop_
 _symmetry_equiv_pos_site_id
 _symmetry_equiv_pos_as_xyz
  1  'x, y, z'
loop_
 _atom_site_type_symbol
 _atom_site_label
 _atom_site_symmetry_multiplicity
 _atom_site_fract_x
 _atom_site_fract_y
 _atom_site_fract_z
 _atom_site_occupancy
  Tm  Tm0  1  0.12174149  0.87178178  0.24354653  1
  Tm  Tm1  1  0.87825851  0.12821722  0.75645347  1
  Nb  Nb0  1  0.35947597  0.60948038  0.71894254  1
  Nb  Nb1  1  0.64052403  0.39051962  0.28105746  1
  O  O0  1  0.28366543  0.12003960  0.07378932  1
  O  O1  1  0.71633457  0.87996040  0.92621068  1
  O  O2  1  0.79011759  0.45374370  0.07379415  1
  O  O3  1  0.50855338  0.71968511  0.43661232  1
  O  O4  1  0.49144662  0.28031489  0.56338768  1
  O  O5  1  0.20988241  0.54625630  0.92620585  1
  O  O6  1  0.07185376  0.78301820  0.56330314  1
  O  O7  1  0.92814624  0.21698180  0.43669686  1
loop_
_geom_bond_atom_site_label_1
_geom_bond_atom_site_label_2
_geom_bond_distance
_geom_bond_site_symmetry_2
Nb0 O1 1.878098 1_555
Nb0 O5 1.878140 1_555
Nb0 O4 1.941104 1_555
Nb0 O6 1.941305 1_555
Nb0 O7 2.445967 1_455
Nb0 O3 2.446376 1_555
Nb1 O0 1.878098 1_555
Nb1 O2 1.878140 1_555
Nb1 O3 1.941104 1_555
Nb1 O7 1.941305 1_555
Nb1 O6 2.445967 1_655
Nb1 O4 2.446376 1_555
O0 Tm0 2.271340 1_545
O0 Tm1 2.333758 1_454
O1 Tm1 2.271336 1_565
O1 Tm0 2.333760 1_656
O2 Tm0 2.271277 1_655
O2 Tm1 2.334088 1_554
O3 Tm0 2.285531 1_555
O3 Tm1 2.377037 1_565
O4 Tm1 2.285534 1_555
O4 Tm0 2.377040 1_545
O5 Tm1 2.271281 1_455
O5 Tm0 2.334086 1_556
O6 Tm1 2.285410 1_465
O6 Tm0 2.376767 1_555
O7 Tm0 2.285413 1_645
O7 Tm1 2.376769 1_555
