# generated using pymatgen
data_Rb5H5(OF3)2
_symmetry_space_group_name_H-M   'P 1'
_cell_length_a   7.15076500
_cell_length_b   12.24886000
_cell_length_c   13.67279100
_cell_angle_alpha   90.00000000
_cell_angle_beta   90.00000000
_cell_angle_gamma   90.00000000
_symmetry_Int_Tables_number   1
_chemical_formula_structural   Rb5H5(OF3)2
_chemical_formula_sum   'Rb20 H20 O8 F24'
_cell_volume   1197.58225401
_cell_formula_units_Z   4
loop_
 _symmetry_equiv_pos_site_id
 _symmetry_equiv_pos_as_xyz
  1  'x, y, z'
loop_
 _atom_site_type_symbol
 _atom_site_label
 _atom_site_symmetry_multiplicity
 _atom_site_fract_x
 _atom_site_fract_y
 _atom_site_fract_z
 _atom_site_occupancy
  Rb  Rb0  1  0.61027100  0.65858500  0.01740800  1
  Rb  Rb1  1  0.11027100  0.84141500  0.01740800  1
  Rb  Rb2  1  0.36180100  0.45352900  0.66340900  1
  Rb  Rb3  1  0.13819900  0.54647100  0.16340900  1
  Rb  Rb4  1  0.68482800  0.75000000  0.75000000  1
  Rb  Rb5  1  0.81517200  0.25000000  0.25000000  1
  Rb  Rb6  1  0.88972900  0.34141500  0.51740800  1
  Rb  Rb7  1  0.18482800  0.75000000  0.75000000  1
  Rb  Rb8  1  0.63819900  0.95352900  0.16340900  1
  Rb  Rb9  1  0.88972900  0.15858500  0.98259200  1
  Rb  Rb10  1  0.38972900  0.34141500  0.98259200  1
  Rb  Rb11  1  0.36180100  0.04647100  0.83659100  1
  Rb  Rb12  1  0.63819900  0.54647100  0.33659100  1
  Rb  Rb13  1  0.86180100  0.45352900  0.83659100  1
  Rb  Rb14  1  0.13819900  0.95352900  0.33659100  1
  Rb  Rb15  1  0.61027100  0.84141500  0.48259200  1
  Rb  Rb16  1  0.31517200  0.25000000  0.25000000  1
  Rb  Rb17  1  0.86180100  0.04647100  0.66340900  1
  Rb  Rb18  1  0.38972900  0.15858500  0.51740800  1
  Rb  Rb19  1  0.11027100  0.65858500  0.48259200  1
  H  H0  1  0.82203600  0.56280600  0.59928100  1
  H  H1  1  0.32203600  0.93719400  0.59928100  1
  H  H2  1  0.61362200  0.60854600  0.57032300  1
  H  H3  1  0.82203600  0.93719400  0.90071900  1
  H  H4  1  0.88637800  0.39145400  0.07032300  1
  H  H5  1  0.38637800  0.39145400  0.42967700  1
  H  H6  1  0.67796400  0.06280600  0.40071900  1
  H  H7  1  0.61362200  0.89145400  0.92967700  1
  H  H8  1  0.63489500  0.25000000  0.75000000  1
  H  H9  1  0.17796400  0.06280600  0.09928100  1
  H  H10  1  0.11362200  0.89145400  0.57032300  1
  H  H11  1  0.88637800  0.10854600  0.42967700  1
  H  H12  1  0.36510500  0.75000000  0.25000000  1
  H  H13  1  0.13489500  0.25000000  0.75000000  1
  H  H14  1  0.17796400  0.43719400  0.40071900  1
  H  H15  1  0.32203600  0.56280600  0.90071900  1
  H  H16  1  0.38637800  0.10854600  0.07032300  1
  H  H17  1  0.67796400  0.43719400  0.09928100  1
  H  H18  1  0.86510500  0.75000000  0.25000000  1
  H  H19  1  0.11362200  0.60854600  0.92967700  1
  O  O0  1  0.22344700  0.93586200  0.54643100  1
  O  O1  1  0.72344700  0.56413800  0.54643100  1
  O  O2  1  0.27655300  0.06413800  0.04643100  1
  O  O3  1  0.77655300  0.06413800  0.45356900  1
  O  O4  1  0.27655300  0.43586200  0.45356900  1
  O  O5  1  0.22344700  0.56413800  0.95356900  1
  O  O6  1  0.72344700  0.93586200  0.95356900  1
  O  O7  1  0.77655300  0.43586200  0.04643100  1
  F  F0  1  0.56348800  0.17476100  0.10283400  1
  F  F1  1  0.93651200  0.82523900  0.60283400  1
  F  F2  1  0.99902200  0.45324600  0.33384300  1
  F  F3  1  0.56348800  0.32523900  0.39716600  1
  F  F4  1  0.86447100  0.76661200  0.33281500  1
  F  F5  1  0.13552900  0.23338800  0.66718500  1
  F  F6  1  0.06348800  0.32523900  0.10283400  1
  F  F7  1  0.86447100  0.73338800  0.16718500  1
  F  F8  1  0.00097800  0.95324600  0.83384300  1
  F  F9  1  0.50097800  0.54675400  0.83384300  1
  F  F10  1  0.36447100  0.76661200  0.16718500  1
  F  F11  1  0.43651200  0.82523900  0.89716600  1
  F  F12  1  0.93651200  0.67476100  0.89716600  1
  F  F13  1  0.06348800  0.17476100  0.39716600  1
  F  F14  1  0.63552900  0.23338800  0.83281500  1
  F  F15  1  0.36447100  0.73338800  0.33281500  1
  F  F16  1  0.49902200  0.45324600  0.16615700  1
  F  F17  1  0.43651200  0.67476100  0.60283400  1
  F  F18  1  0.63552900  0.26661200  0.66718500  1
  F  F19  1  0.49902200  0.04675400  0.33384300  1
  F  F20  1  0.50097800  0.95324600  0.66615700  1
  F  F21  1  0.00097800  0.54675400  0.66615700  1
  F  F22  1  0.13552900  0.26661200  0.83281500  1
  F  F23  1  0.99902200  0.04675400  0.16615700  1
loop_
_geom_bond_atom_site_label_1
_geom_bond_atom_site_label_2
_geom_bond_distance
_geom_bond_site_symmetry_2
H0 O1 1.009670 1_555
H0 Rb19 2.858322 1_655
H0 Rb6 2.973421 1_555
H1 O0 1.009670 1_555
H1 Rb15 2.858322 1_555
H1 Rb18 2.973421 1_565
H2 O1 1.009624 1_555
H2 Rb2 2.909952 1_555
H2 Rb15 3.094432 1_555
H3 O6 1.009670 1_555
H3 Rb1 2.858322 1_656
H3 Rb9 2.973421 1_565
H4 O7 1.009624 1_555
H4 Rb3 2.909952 1_655
H4 Rb9 3.094432 1_554
H5 O4 1.009624 1_555
H5 Rb12 2.909952 1_555
H5 Rb18 3.094432 1_555
H6 O3 1.009670 1_555
H6 Rb18 2.858322 1_555
H6 Rb15 2.973421 1_545
H7 O6 1.009624 1_555
H7 Rb11 2.909952 1_565
H7 Rb0 3.094432 1_556
H9 O2 1.009670 1_555
H9 Rb9 2.858322 1_454
H9 Rb1 2.973421 1_545
H10 O0 1.009624 1_555
H10 Rb17 2.909952 1_465
H10 Rb19 3.094432 1_555
H11 O3 1.009624 1_555
H11 Rb14 2.909952 1_645
H11 Rb6 3.094432 1_555
H14 O4 1.009670 1_555
H14 Rb6 2.858322 1_455
H14 Rb19 2.973421 1_555
H15 O5 1.009670 1_555
H15 Rb0 2.858322 1_556
H15 Rb10 2.973421 1_555
H16 O2 1.009624 1_555
H16 Rb8 2.909952 1_545
H16 Rb10 3.094432 1_554
H17 O7 1.009670 1_555
H17 Rb10 2.858322 1_554
H17 Rb0 2.973421 1_555
H19 O5 1.009624 1_555
H19 Rb13 2.909952 1_455
H19 Rb1 3.094432 1_556
O0 Rb14 2.941114 1_555
O0 Rb18 3.002306 1_565
O0 Rb15 3.122733 1_555
O1 Rb12 2.941114 1_555
O1 Rb6 3.002306 1_555
O1 Rb19 3.122733 1_655
O2 Rb11 2.941114 1_554
O2 Rb1 3.002306 1_545
O2 Rb9 3.122733 1_454
O3 Rb17 2.941114 1_555
O3 Rb15 3.002306 1_545
O3 Rb18 3.122733 1_555
O4 Rb2 2.941114 1_555
O4 Rb19 3.002306 1_555
O4 Rb6 3.122733 1_455
O5 Rb3 2.941114 1_556
O5 Rb10 3.002306 1_555
O5 Rb0 3.122733 1_556
O6 Rb8 2.941114 1_556
O6 Rb9 3.002306 1_565
O6 Rb1 3.122733 1_656
O7 Rb13 2.941114 1_554
O7 Rb0 3.002306 1_555
O7 Rb10 3.122733 1_554
F0 H16 1.568235 1_555
F0 Rb16 2.837444 1_555
F0 Rb5 2.852578 1_555
F0 Rb9 2.860845 1_554
F0 Rb8 2.883506 1_545
F0 Rb10 2.900639 1_554
F1 H10 1.568235 1_655
F1 Rb7 2.837444 1_655
F1 Rb4 2.852578 1_555
F1 Rb15 2.860845 1_555
F1 Rb17 2.883506 1_565
F1 Rb19 2.900639 1_655
F2 Rb3 2.779342 1_655
F2 Rb12 2.821804 1_555
F2 Rb6 2.964198 1_555
F2 Rb5 3.039783 1_555
F2 Rb19 3.330963 1_655
F3 H5 1.568235 1_555
F3 Rb16 2.837444 1_555
F3 Rb5 2.852578 1_555
F3 Rb6 2.860845 1_555
F3 Rb12 2.883506 1_555
F3 Rb18 2.900639 1_555
F4 H18 1.150459 1_555
F4 Rb15 2.887457 1_555
F4 Rb19 3.005663 1_655
F4 Rb14 3.012614 1_655
F4 Rb12 3.145096 1_555
F5 H13 1.150459 1_555
F5 Rb18 2.887457 1_555
F5 Rb6 3.005663 1_455
F5 Rb17 3.012614 1_455
F5 Rb2 3.145096 1_555
F6 H4 1.568235 1_455
F6 Rb5 2.837444 1_455
F6 Rb16 2.852578 1_555
F6 Rb10 2.860845 1_554
F6 Rb3 2.883506 1_555
F6 Rb9 2.900639 1_454
F7 H18 1.150459 1_555
F7 Rb0 2.887457 1_555
F7 Rb1 3.005663 1_655
F7 Rb3 3.012614 1_655
F7 Rb8 3.145096 1_555
F8 Rb17 2.779342 1_465
F8 Rb11 2.821804 1_565
F8 Rb1 2.964198 1_556
F8 Rb7 3.039783 1_555
F8 Rb9 3.330963 1_465
F9 Rb2 2.779342 1_555
F9 Rb13 2.821804 1_555
F9 Rb0 2.964198 1_556
F9 Rb4 3.039783 1_555
F9 Rb10 3.330963 1_555
F10 H12 1.150459 1_555
F10 Rb1 2.887457 1_555
F10 Rb0 3.005663 1_555
F10 Rb8 3.012614 1_555
F10 Rb3 3.145096 1_555
F11 H7 1.568235 1_555
F11 Rb4 2.837444 1_555
F11 Rb7 2.852578 1_555
F11 Rb1 2.860845 1_556
F11 Rb11 2.883506 1_565
F11 Rb0 2.900639 1_556
F12 H19 1.568235 1_655
F12 Rb7 2.837444 1_655
F12 Rb4 2.852578 1_555
F12 Rb0 2.860845 1_556
F12 Rb13 2.883506 1_555
F12 Rb1 2.900639 1_656
F13 H11 1.568235 1_455
F13 Rb5 2.837444 1_455
F13 Rb16 2.852578 1_555
F13 Rb18 2.860845 1_555
F13 Rb14 2.883506 1_545
F13 Rb6 2.900639 1_455
F14 H8 1.150459 1_555
F14 Rb9 2.887457 1_555
F14 Rb10 3.005663 1_555
F14 Rb11 3.012614 1_555
F14 Rb13 3.145096 1_555
F15 H12 1.150459 1_555
F15 Rb19 2.887457 1_555
F15 Rb15 3.005663 1_555
F15 Rb12 3.012614 1_555
F15 Rb14 3.145096 1_555
F16 Rb12 2.779342 1_555
F16 Rb3 2.821804 1_555
F16 Rb10 2.964198 1_554
F16 Rb16 3.039783 1_555
F16 Rb0 3.330963 1_555
F17 H2 1.568235 1_555
F17 Rb4 2.837444 1_555
F17 Rb7 2.852578 1_555
F17 Rb19 2.860845 1_555
F17 Rb2 2.883506 1_555
F17 Rb15 2.900639 1_555
F18 H8 1.150459 1_555
F18 Rb6 2.887457 1_555
F18 Rb18 3.005663 1_555
F18 Rb2 3.012614 1_555
F18 Rb17 3.145096 1_555
F19 Rb8 2.779342 1_545
F19 Rb14 2.821804 1_545
F19 Rb18 2.964198 1_555
F19 Rb16 3.039783 1_555
F19 Rb15 3.330963 1_545
F20 Rb11 2.779342 1_565
F20 Rb17 2.821804 1_565
F20 Rb15 2.964198 1_555
F20 Rb4 3.039783 1_555
F20 Rb18 3.330963 1_565
F21 Rb13 2.779342 1_455
F21 Rb2 2.821804 1_555
F21 Rb19 2.964198 1_555
F21 Rb7 3.039783 1_555
F21 Rb6 3.330963 1_455
F22 H13 1.150459 1_555
F22 Rb10 2.887457 1_555
F22 Rb9 3.005663 1_455
F22 Rb13 3.012614 1_455
F22 Rb11 3.145096 1_555
F23 Rb14 2.779342 1_645
F23 Rb8 2.821804 1_545
F23 Rb9 2.964198 1_554
F23 Rb5 3.039783 1_555
F23 Rb1 3.330963 1_645
