# generated using pymatgen
data_Tb12(OsC3)5
_symmetry_space_group_name_H-M   'P 1'
_cell_length_a   10.72077031
_cell_length_b   10.72087935
_cell_length_c   5.09926182
_cell_angle_alpha   90.00000174
_cell_angle_beta   89.99999711
_cell_angle_gamma   119.99938406
_symmetry_Int_Tables_number   1
_chemical_formula_structural   Tb12(OsC3)5
_chemical_formula_sum   'Tb12 Os5 C15'
_cell_volume   507.57127783
_cell_formula_units_Z   1
loop_
 _symmetry_equiv_pos_site_id
 _symmetry_equiv_pos_as_xyz
  1  'x, y, z'
loop_
 _atom_site_type_symbol
 _atom_site_label
 _atom_site_symmetry_multiplicity
 _atom_site_fract_x
 _atom_site_fract_y
 _atom_site_fract_z
 _atom_site_occupancy
  Tb  Tb0  1  0.27191857  0.45629255  -0.00000011  1
  Tb  Tb1  1  0.18437529  0.72807887  -0.00000006  1
  Tb  Tb2  1  0.54371538  0.81563718  0.00000001  1
  Tb  Tb3  1  0.81559213  0.54369685  -0.00000005  1
  Tb  Tb4  1  0.72810018  0.18440294  0.00000010  1
  Tb  Tb5  1  0.45631515  0.27190198  0.00000007  1
  Tb  Tb6  1  0.43479736  0.00006722  0.50000025  1
  Tb  Tb7  1  0.56528056  0.56522193  0.49999996  1
  Tb  Tb8  1  -0.00007677  0.43469582  0.49999999  1
  Tb  Tb9  1  0.79308124  -0.00007964  0.50000002  1
  Tb  Tb10  1  0.20682569  0.20691378  0.49999997  1
  Tb  Tb11  1  0.00007109  0.79316487  0.49999995  1
  Os  Os0  1  0.16047818  -0.00009347  -0.00000038  1
  Os  Os1  1  0.83944801  0.83955537  0.00000011  1
  Os  Os2  1  0.00007632  0.16054425  0.00000001  1
  Os  Os3  1  0.33334563  0.66667691  0.49999998  1
  Os  Os4  1  0.66666700  0.33332263  0.50000007  1
  C  C0  1  0.28420764  0.46932848  0.49999993  1
  C  C1  1  0.18511686  0.71578661  0.49999996  1
  C  C2  1  0.53067943  0.81488937  0.49999999  1
  C  C3  1  0.81496417  0.53072933  0.50000000  1
  C  C4  1  0.71576728  0.18502499  0.50000005  1
  C  C5  1  0.46927259  0.28423275  0.50000004  1
  C  C6  1  0.33488396  -0.00001527  0.00000012  1
  C  C7  1  0.66512686  0.66515022  0.00000006  1
  C  C8  1  0.00000706  0.33487148  -0.00000000  1
  C  C9  1  0.45926313  0.00008273  0.00000023  1
  C  C10  1  0.54081545  0.54074156  -0.00000003  1
  C  C11  1  -0.00009382  0.45917344  -0.00000006  1
  C  C12  1  0.79257592  0.00017812  0.00000001  1
  C  C13  1  0.20758538  0.20741183  -0.00000012  1
  C  C14  1  -0.00018194  0.79241332  -0.00000008  1
loop_
_geom_bond_atom_site_label_1
_geom_bond_atom_site_label_2
_geom_bond_distance
_geom_bond_site_symmetry_2
C0 Os3 1.907710 1_555
C0 Tb10 2.503819 1_555
C0 Tb0 2.553252 1_556
C0 Tb0 2.553252 1_555
C0 Tb7 2.653145 1_555
C0 Tb8 2.880111 1_555
C1 Os3 1.907664 1_555
C1 Tb11 2.503888 1_555
C1 Tb1 2.553252 1_556
C1 Tb1 2.553252 1_555
C1 Tb8 2.653354 1_555
C1 Tb6 2.880253 1_565
C2 Os3 1.907602 1_555
C2 Tb9 2.503703 1_565
C2 Tb2 2.553251 1_555
C2 Tb2 2.553252 1_556
C2 Tb6 2.653038 1_565
C2 Tb7 2.880099 1_555
C3 Os4 1.908407 1_555
C3 Tb11 2.504170 1_655
C3 Tb3 2.553244 1_556
C3 Tb3 2.553244 1_555
C3 Tb8 2.652055 1_655
C3 Tb7 2.879556 1_555
C4 Os4 1.908323 1_555
C4 Tb9 2.504004 1_555
C4 Tb4 2.553238 1_555
C4 Tb4 2.553239 1_556
C4 Tb6 2.651891 1_555
C4 Tb8 2.879411 1_655
C5 Os4 1.908310 1_555
C5 Tb10 2.504276 1_555
C5 Tb5 2.553238 1_555
C5 Tb5 2.553239 1_556
C5 Tb7 2.652109 1_555
C5 Tb6 2.879553 1_555
C6 C9 1.332916 1_555
C6 Os0 1.869345 1_555
C6 Tb1 2.529359 1_545
C6 Tb5 2.529445 1_555
C6 Tb6 2.765326 1_554
C6 Tb6 2.765327 1_555
C7 Os1 1.869334 1_555
C7 Tb2 2.529244 1_555
C7 Tb3 2.529406 1_555
C7 Tb7 2.765395 1_555
C7 Tb7 2.765396 1_554
C8 Os2 1.869313 1_555
C8 Tb4 2.529318 1_455
C8 Tb0 2.529369 1_555
C8 Tb8 2.765306 1_555
C8 Tb8 2.765306 1_554
C9 Tb4 2.552721 1_555
C9 Tb2 2.553474 1_545
C9 Tb6 2.563078 1_554
C9 Tb6 2.563079 1_555
C10 C7 1.333255 1_555
C10 Tb5 2.552797 1_555
C10 Tb0 2.553467 1_555
C10 Tb7 2.563095 1_555
C10 Tb7 2.563095 1_554
C11 C8 1.333167 1_555
C11 Tb3 2.552686 1_455
C11 Tb1 2.553617 1_555
C11 Tb8 2.563109 1_554
C11 Tb8 2.563110 1_555
C12 Os2 2.019905 1_655
C12 Os1 2.020683 1_545
C12 Tb4 2.396626 1_555
C12 Tb2 2.398748 1_545
C12 Tb9 2.549641 1_554
C12 Tb9 2.549641 1_555
C13 Os0 2.020048 1_555
C13 Os2 2.020837 1_555
C13 Tb5 2.396879 1_555
C13 Tb0 2.398926 1_555
C13 Tb10 2.549641 1_554
C13 Tb10 2.549641 1_555
C14 Os1 2.019979 1_455
C14 Os0 2.020812 1_565
C14 Tb3 2.396774 1_455
C14 Tb1 2.399002 1_555
C14 Tb11 2.549641 1_554
C14 Tb11 2.549641 1_555
