# generated using pymatgen
data_Li2MnP2O7
_symmetry_space_group_name_H-M   'P 1'
_cell_length_a   5.11176700
_cell_length_b   8.65797400
_cell_length_c   14.27717272
_cell_angle_alpha   64.42507220
_cell_angle_beta   90.00000000
_cell_angle_gamma   90.00000000
_symmetry_Int_Tables_number   1
_chemical_formula_structural   Li2MnP2O7
_chemical_formula_sum   'Li8 Mn4 P8 O28'
_cell_volume   569.96270420
_cell_formula_units_Z   4
loop_
 _symmetry_equiv_pos_site_id
 _symmetry_equiv_pos_as_xyz
  1  'x, y, z'
loop_
 _atom_site_type_symbol
 _atom_site_label
 _atom_site_symmetry_multiplicity
 _atom_site_fract_x
 _atom_site_fract_y
 _atom_site_fract_z
 _atom_site_occupancy
  Li  Li0  1  0.71191900  0.49869400  0.92310800  1
  Li  Li1  1  0.23382200  0.05135500  0.82607500  1
  Li  Li2  1  0.73382200  0.94864500  0.67392500  1
  Li  Li3  1  0.21191900  0.50130600  0.57689200  1
  Li  Li4  1  0.78808100  0.49869400  0.42310800  1
  Li  Li5  1  0.26617800  0.05135500  0.32607500  1
  Li  Li6  1  0.76617800  0.94864500  0.17392500  1
  Li  Li7  1  0.28808100  0.50130600  0.07689200  1
  Mn  Mn0  1  0.76083700  0.77767900  0.98334300  1
  Mn  Mn1  1  0.73916300  0.77767900  0.48334300  1
  Mn  Mn2  1  0.26083700  0.22232100  0.51665700  1
  Mn  Mn3  1  0.23916300  0.22232100  0.01665700  1
  P  P0  1  0.73410300  0.19654500  0.87567200  1
  P  P1  1  0.22415300  0.67994200  0.85280200  1
  P  P2  1  0.23410300  0.80345500  0.62432800  1
  P  P3  1  0.72415300  0.32005800  0.64719800  1
  P  P4  1  0.27584700  0.67994200  0.35280200  1
  P  P5  1  0.76589700  0.19654500  0.37567200  1
  P  P6  1  0.77584700  0.32005800  0.14719800  1
  P  P7  1  0.26589700  0.80345500  0.12432800  1
  O  O0  1  0.86200500  0.28626700  0.93559300  1
  O  O1  1  0.43950300  0.16818400  0.89762200  1
  O  O2  1  0.31945200  0.50324500  0.93301800  1
  O  O3  1  0.92896600  0.70621300  0.86119200  1
  O  O4  1  0.39278400  0.82533400  0.85416000  1
  O  O5  1  0.77163400  0.33440500  0.75551900  1
  O  O6  1  0.87786200  0.03412200  0.88675100  1
  O  O7  1  0.27163400  0.66559500  0.74448100  1
  O  O8  1  0.81945200  0.49675500  0.56698200  1
  O  O9  1  0.93950300  0.83181600  0.60237800  1
  O  O10  1  0.37786200  0.96587800  0.61324900  1
  O  O11  1  0.36200500  0.71373300  0.56440700  1
  O  O12  1  0.89278400  0.17466600  0.64584000  1
  O  O13  1  0.42896600  0.29378700  0.63880800  1
  O  O14  1  0.57103400  0.70621300  0.36119200  1
  O  O15  1  0.10721600  0.82533400  0.35416000  1
  O  O16  1  0.63799500  0.28626700  0.43559300  1
  O  O17  1  0.62213800  0.03412200  0.38675100  1
  O  O18  1  0.06049700  0.16818400  0.39762200  1
  O  O19  1  0.18054800  0.50324500  0.43301800  1
  O  O20  1  0.72836600  0.33440500  0.25551900  1
  O  O21  1  0.12213800  0.96587800  0.11324900  1
  O  O22  1  0.22836600  0.66559500  0.24448100  1
  O  O23  1  0.60721600  0.17466600  0.14584000  1
  O  O24  1  0.07103400  0.29378700  0.13880800  1
  O  O25  1  0.68054800  0.49675500  0.06698200  1
  O  O26  1  0.56049700  0.83181600  0.10237800  1
  O  O27  1  0.13799500  0.71373300  0.06440700  1
loop_
_geom_bond_atom_site_label_1
_geom_bond_atom_site_label_2
_geom_bond_distance
_geom_bond_site_symmetry_2
Li0 O0 1.928714 1_555
Li0 O3 1.967040 1_555
Li0 O2 2.012765 1_555
Li0 O25 2.053195 1_556
Li1 O6 1.992988 1_455
Li1 O4 1.993237 1_545
Li1 O1 2.015957 1_555
Li2 O10 1.992988 1_555
Li2 O12 1.993237 1_565
Li2 O9 2.015957 1_555
Li3 O11 1.928714 1_555
Li3 O13 1.967040 1_555
Li3 O8 2.012765 1_455
Li3 O19 2.053195 1_555
Li4 O16 1.928714 1_555
Li4 O14 1.967040 1_555
Li4 O19 2.012765 1_655
Li4 O8 2.053195 1_555
Li5 O17 1.992988 1_555
Li5 O15 1.993237 1_545
Li5 O18 2.015957 1_555
Li6 O21 1.992988 1_655
Li6 O23 1.993237 1_565
Li6 O26 2.015957 1_555
Li7 O27 1.928714 1_555
Li7 O24 1.967040 1_555
Li7 O25 2.012765 1_555
Li7 O2 2.053195 1_554
Mn0 O6 2.132065 1_565
Mn0 O27 2.193115 1_656
Mn0 O26 2.201011 1_556
Mn0 O25 2.236635 1_556
Mn0 O3 2.257117 1_555
Mn0 O4 2.540587 1_555
Mn1 O17 2.132065 1_565
Mn1 O11 2.193115 1_555
Mn1 O9 2.201011 1_555
Mn1 O8 2.236635 1_555
Mn1 O14 2.257117 1_555
Mn1 O15 2.540587 1_655
Mn2 O10 2.132065 1_545
Mn2 O16 2.193115 1_555
Mn2 O18 2.201011 1_555
Mn2 O19 2.236635 1_555
Mn2 O13 2.257117 1_555
Mn2 O12 2.540587 1_455
Mn3 O21 2.132065 1_545
Mn3 O0 2.193115 1_454
Mn3 O1 2.201011 1_554
Mn3 O2 2.236635 1_554
Mn3 O24 2.257117 1_555
Mn3 O23 2.540587 1_555
O0 P0 1.528579 1_555
O1 P0 1.536190 1_555
O2 P1 1.541634 1_555
O3 P1 1.538333 1_655
O4 P1 1.532669 1_555
O5 P3 1.622317 1_555
O5 P0 1.623701 1_555
O6 P0 1.533149 1_555
O7 P1 1.622317 1_555
O7 P2 1.623701 1_555
O8 P3 1.541634 1_555
O9 P2 1.536190 1_655
O10 P2 1.533149 1_555
O11 P2 1.528579 1_555
O12 P3 1.532669 1_555
O13 P3 1.538333 1_555
O14 P4 1.538333 1_555
O15 P4 1.532669 1_555
O16 P5 1.528579 1_555
O17 P5 1.533149 1_555
O18 P5 1.536190 1_455
O19 P4 1.541634 1_555
O20 P6 1.622317 1_555
O20 P5 1.623701 1_555
O21 P7 1.533149 1_555
O22 P4 1.622317 1_555
O22 P7 1.623701 1_555
O23 P6 1.532669 1_555
O24 P6 1.538333 1_455
O25 P6 1.541634 1_555
O26 P7 1.536190 1_555
O27 P7 1.528579 1_555
