# generated using pymatgen
data_BaNaFe2F9
_symmetry_space_group_name_H-M   'P 1'
_cell_length_a   17.76703500
_cell_length_b   5.58282200
_cell_length_c   9.12518202
_cell_angle_alpha   54.61002192
_cell_angle_beta   90.00000000
_cell_angle_gamma   90.00000000
_symmetry_Int_Tables_number   1
_chemical_formula_structural   BaNaFe2F9
_chemical_formula_sum   'Ba4 Na4 Fe8 F36'
_cell_volume   737.88715990
_cell_formula_units_Z   4
loop_
 _symmetry_equiv_pos_site_id
 _symmetry_equiv_pos_as_xyz
  1  'x, y, z'
loop_
 _atom_site_type_symbol
 _atom_site_label
 _atom_site_symmetry_multiplicity
 _atom_site_fract_x
 _atom_site_fract_y
 _atom_site_fract_z
 _atom_site_occupancy
  Ba  Ba0  1  0.71379000  0.34711800  0.93606000  1
  Ba  Ba1  1  0.21379000  0.65288200  0.56394000  1
  Ba  Ba2  1  0.28621000  0.65288200  0.06394000  1
  Ba  Ba3  1  0.78621000  0.34711800  0.43606000  1
  Na  Na0  1  0.96281100  0.53378400  0.70299100  1
  Na  Na1  1  0.46281100  0.46621600  0.79700900  1
  Na  Na2  1  0.53718900  0.53378400  0.20299100  1
  Na  Na3  1  0.03718900  0.46621600  0.29700900  1
  Fe  Fe0  1  0.58132500  0.01303100  0.72987600  1
  Fe  Fe1  1  0.12329400  0.18800600  0.08972700  1
  Fe  Fe2  1  0.87670600  0.81199400  0.91027300  1
  Fe  Fe3  1  0.37670600  0.18800600  0.58972700  1
  Fe  Fe4  1  0.91867500  0.01303100  0.22987600  1
  Fe  Fe5  1  0.41867500  0.98696900  0.27012400  1
  Fe  Fe6  1  0.62329400  0.81199400  0.41027300  1
  Fe  Fe7  1  0.08132500  0.98696900  0.77012400  1
  F  F0  1  0.93167100  0.82549800  0.09584600  1
  F  F1  1  0.43167100  0.17450200  0.40415400  1
  F  F2  1  0.06832900  0.17450200  0.90415400  1
  F  F3  1  0.56832900  0.82549800  0.59584600  1
  F  F4  1  0.79312900  0.60998900  0.06879000  1
  F  F5  1  0.29312900  0.39001100  0.43121000  1
  F  F6  1  0.20687100  0.39001100  0.93121000  1
  F  F7  1  0.70687100  0.60998900  0.56879000  1
  F  F8  1  0.53112000  0.99584500  0.26015700  1
  F  F9  1  0.03112000  0.00415500  0.23984300  1
  F  F10  1  0.46888000  0.00415500  0.73984300  1
  F  F11  1  0.96888000  0.99584500  0.76015700  1
  F  F12  1  0.66576300  0.19447100  0.30256500  1
  F  F13  1  0.16576300  0.80552900  0.19743500  1
  F  F14  1  0.33423700  0.80552900  0.69743500  1
  F  F15  1  0.83423700  0.19447100  0.80256500  1
  F  F16  1  0.58087000  0.18650700  0.85846500  1
  F  F17  1  0.08087000  0.81349300  0.64153500  1
  F  F18  1  0.41913000  0.81349300  0.14153500  1
  F  F19  1  0.91913000  0.18650700  0.35846500  1
  F  F20  1  0.07635000  0.58476000  0.00261100  1
  F  F21  1  0.57635000  0.41524000  0.49738900  1
  F  F22  1  0.92365000  0.41524000  0.99738900  1
  F  F23  1  0.42365000  0.58476000  0.50261100  1
  F  F24  1  0.68806300  0.99239000  0.71446800  1
  F  F25  1  0.18806300  0.00761000  0.78553200  1
  F  F26  1  0.31193700  0.00761000  0.28553200  1
  F  F27  1  0.81193700  0.99239000  0.21446800  1
  F  F28  1  0.08287900  0.38137900  0.55488100  1
  F  F29  1  0.58287900  0.61862100  0.94511900  1
  F  F30  1  0.91712100  0.61862100  0.44511900  1
  F  F31  1  0.41712100  0.38137900  0.05488100  1
  F  F32  1  0.83548400  0.79017200  0.72353600  1
  F  F33  1  0.33548400  0.20982800  0.77646400  1
  F  F34  1  0.16451600  0.20982800  0.27646400  1
  F  F35  1  0.66451600  0.79017200  0.22353600  1
loop_
_geom_bond_atom_site_label_1
_geom_bond_atom_site_label_2
_geom_bond_distance
_geom_bond_site_symmetry_2
Ba0 F27 2.754889 1_546
Ba0 F16 2.760051 1_555
Ba0 F4 2.768855 1_556
Ba0 F7 2.775591 1_555
Ba0 F29 2.803442 1_555
Ba0 F35 2.805046 1_546
Ba0 F15 2.827039 1_555
Ba0 F24 2.972866 1_555
Ba0 F32 2.999641 1_555
Ba0 F12 3.055865 1_556
Ba1 F26 2.754889 1_565
Ba1 F17 2.760051 1_555
Ba1 F5 2.768855 1_555
Ba1 F6 2.775591 1_555
Ba1 F28 2.803442 1_555
Ba1 F34 2.805046 1_565
Ba1 F14 2.827039 1_555
Ba1 F25 2.972866 1_555
Ba1 F33 2.999641 1_555
Ba1 F13 3.055865 1_555
Ba2 F25 2.754889 1_564
Ba2 F18 2.760051 1_555
Ba2 F6 2.768855 1_554
Ba2 F5 2.775591 1_555
Ba2 F31 2.803442 1_555
Ba2 F33 2.805046 1_564
Ba2 F13 2.827039 1_555
Ba2 F26 2.972866 1_555
Ba2 F34 2.999641 1_555
Ba2 F14 3.055865 1_554
Ba3 F24 2.754889 1_545
Ba3 F19 2.760051 1_555
Ba3 F7 2.768855 1_555
Ba3 F4 2.775591 1_555
Ba3 F30 2.803442 1_555
Ba3 F32 2.805046 1_545
Ba3 F12 2.827039 1_555
Ba3 F27 2.972866 1_555
Ba3 F35 2.999641 1_555
Ba3 F15 3.055865 1_555
F0 Fe2 1.993689 1_554
F0 Fe4 2.031859 1_565
F0 Na3 2.577363 1_655
F1 Fe3 1.993689 1_555
F1 Fe5 2.031859 1_545
F1 Na2 2.577363 1_555
F2 Fe1 1.993689 1_556
F2 Fe7 2.031859 1_545
F2 Na0 2.577363 1_455
F3 Fe6 1.993689 1_555
F3 Fe0 2.031859 1_565
F3 Na1 2.577363 1_555
F4 Fe2 1.918246 1_554
F5 Fe3 1.918246 1_555
F6 Fe1 1.918246 1_556
F7 Fe6 1.918246 1_555
F8 Fe6 1.995831 1_555
F8 Fe5 1.999192 1_555
F8 Na2 2.736507 1_565
F8 Na2 2.914917 1_555
F9 Fe1 1.995831 1_555
F9 Fe4 1.999192 1_455
F9 Na3 2.736507 1_545
F9 Na3 2.914917 1_555
F10 Fe3 1.995831 1_555
F10 Fe0 1.999192 1_555
F10 Na1 2.736507 1_545
F10 Na1 2.914917 1_555
F11 Fe2 1.995831 1_555
F11 Fe7 1.999192 1_655
F11 Na0 2.736507 1_565
F11 Na0 2.914917 1_555
F12 Fe6 1.914155 1_545
F12 Na2 2.763835 1_555
F13 Fe1 1.914155 1_565
F13 Na3 2.763835 1_555
F14 Fe3 1.914155 1_565
F14 Na1 2.763835 1_555
F15 Fe2 1.914155 1_545
F15 Na0 2.763835 1_555
F16 Fe0 1.905566 1_555
F16 Na1 2.477580 1_555
F17 Fe7 1.905566 1_555
F17 Na0 2.477580 1_455
F18 Fe5 1.905566 1_555
F18 Na2 2.477580 1_555
F19 Fe4 1.905566 1_555
F19 Na3 2.477580 1_655
F20 Fe7 2.008211 1_554
F20 Fe1 2.048007 1_555
F20 Na3 2.465708 1_555
F21 Fe0 2.008211 1_555
F21 Fe6 2.048007 1_555
F21 Na2 2.465708 1_555
F22 Fe4 2.008211 1_556
F22 Fe2 2.048007 1_555
F22 Na0 2.465708 1_555
F23 Fe5 2.008211 1_555
F23 Fe3 2.048007 1_555
F23 Na1 2.465708 1_555
F24 Fe0 1.910030 1_565
F25 Fe7 1.910030 1_545
F26 Fe5 1.910030 1_545
F27 Fe4 1.910030 1_565
F28 Fe7 1.922925 1_545
F28 Na3 2.264864 1_555
F28 Na0 2.904016 1_455
F29 Fe0 1.922925 1_565
F29 Na2 2.264864 1_556
F29 Na1 2.904016 1_555
F30 Fe4 1.922925 1_565
F30 Na0 2.264864 1_555
F30 Na3 2.904016 1_655
F31 Fe5 1.922925 1_545
F31 Na1 2.264864 1_554
F31 Na2 2.904016 1_555
F32 Fe2 1.922327 1_555
F32 Na0 2.740883 1_555
F33 Fe3 1.922327 1_555
F33 Na1 2.740883 1_555
F34 Fe1 1.922327 1_555
F34 Na3 2.740883 1_555
F35 Fe6 1.922327 1_555
F35 Na2 2.740883 1_555
