# generated using pymatgen
data_MnNi(BiO3)2
_symmetry_space_group_name_H-M   'P 1'
_cell_length_a   5.54024799
_cell_length_b   5.54024799
_cell_length_c   9.67016658
_cell_angle_alpha   74.37195663
_cell_angle_beta   74.37195663
_cell_angle_gamma   59.62545797
_symmetry_Int_Tables_number   1
_chemical_formula_structural   MnNi(BiO3)2
_chemical_formula_sum   'Mn2 Ni2 Bi4 O12'
_cell_volume   243.42201476
_cell_formula_units_Z   2
loop_
 _symmetry_equiv_pos_site_id
 _symmetry_equiv_pos_as_xyz
  1  'x, y, z'
loop_
 _atom_site_type_symbol
 _atom_site_label
 _atom_site_symmetry_multiplicity
 _atom_site_fract_x
 _atom_site_fract_y
 _atom_site_fract_z
 _atom_site_occupancy
  Mn  Mn0  1  0.25041900  0.25366600  0.25085600  1
  Mn  Mn1  1  0.74633400  0.74958100  0.74914400  1
  Ni  Ni0  1  0.00609500  0.99390500  0.00000000  1
  Ni  Ni1  1  0.48567200  0.51432800  0.50000000  1
  Bi  Bi0  1  0.16092000  0.10901700  0.62571700  1
  Bi  Bi1  1  0.89098300  0.83908000  0.37428300  1
  Bi  Bi2  1  0.32930300  0.40483200  0.87661800  1
  Bi  Bi3  1  0.59516800  0.67069700  0.12338200  1
  O  O0  1  0.14502100  0.03922600  0.16921900  1
  O  O1  1  0.96077400  0.85497900  0.83078100  1
  O  O2  1  0.35818900  0.46838400  0.32968800  1
  O  O3  1  0.53161600  0.64181100  0.67031200  1
  O  O4  1  0.87801900  0.44110300  0.36950900  1
  O  O5  1  0.55889700  0.12198100  0.63049100  1
  O  O6  1  0.06069900  0.62639900  0.59068500  1
  O  O7  1  0.37360100  0.93930100  0.40931500  1
  O  O8  1  0.13189800  0.56910700  0.09359900  1
  O  O9  1  0.43089300  0.86810200  0.90640100  1
  O  O10  1  0.93925800  0.37676100  0.86593200  1
  O  O11  1  0.62323900  0.06074200  0.13406800  1
loop_
_geom_bond_atom_site_label_1
_geom_bond_atom_site_label_2
_geom_bond_distance
_geom_bond_site_symmetry_2
Mn0 O8 1.934810 1_555
Mn0 O7 1.941814 1_545
Mn0 O2 1.950609 1_555
Mn0 O0 1.957277 1_555
Mn0 O11 1.960897 1_555
Mn0 O4 1.962503 1_455
Mn1 O9 1.934810 1_555
Mn1 O6 1.941814 1_655
Mn1 O3 1.950609 1_555
Mn1 O1 1.957277 1_555
Mn1 O10 1.960897 1_555
Mn1 O5 1.962503 1_565
Ni0 O11 2.073592 1_465
Ni0 O10 2.073592 1_464
Ni0 O9 2.092184 1_554
Ni0 O8 2.092184 1_555
Ni0 O0 2.104423 1_565
Ni0 O1 2.104423 1_454
Ni1 O3 2.076165 1_555
Ni1 O2 2.076165 1_555
Ni1 O4 2.094764 1_555
Ni1 O5 2.094764 1_555
Ni1 O7 2.097744 1_555
Ni1 O6 2.097744 1_555
Bi0 O5 2.255131 1_555
Bi0 O7 2.294088 1_545
Bi0 O3 2.367182 1_545
Bi0 O1 2.456134 1_445
Bi0 O6 2.570613 1_555
Bi0 O10 2.753497 1_455
Bi1 O4 2.255131 1_555
Bi1 O6 2.294088 1_655
Bi1 O2 2.367182 1_655
Bi1 O0 2.456134 1_665
Bi1 O7 2.570613 1_555
Bi1 O11 2.753497 1_565
Bi2 O10 2.274509 1_455
Bi2 O8 2.283186 1_556
Bi2 O1 2.308108 1_455
Bi2 O3 2.415035 1_555
Bi2 O9 2.678708 1_545
Bi3 O11 2.274509 1_565
Bi3 O9 2.283186 1_554
Bi3 O0 2.308108 1_565
Bi3 O2 2.415035 1_555
Bi3 O8 2.678708 1_655
