# generated using pymatgen
data_CsV(SO4)2
_symmetry_space_group_name_H-M   'P 1'
_cell_length_a   4.97906100
_cell_length_b   10.28840110
_cell_length_c   15.95674357
_cell_angle_alpha   83.32609985
_cell_angle_beta   81.02524247
_cell_angle_gamma   104.00523269
_symmetry_Int_Tables_number   1
_chemical_formula_structural   CsV(SO4)2
_chemical_formula_sum   'Cs4 V4 S8 O32'
_cell_volume   773.22480509
_cell_formula_units_Z   4
loop_
 _symmetry_equiv_pos_site_id
 _symmetry_equiv_pos_as_xyz
  1  'x, y, z'
loop_
 _atom_site_type_symbol
 _atom_site_label
 _atom_site_symmetry_multiplicity
 _atom_site_fract_x
 _atom_site_fract_y
 _atom_site_fract_z
 _atom_site_occupancy
  Cs  Cs0  1  0.75000100  0.24999900  0.74999700  1
  Cs  Cs1  1  0.50000100  0.50000200  0.49999900  1
  Cs  Cs2  1  0.99999900  0.00000000  0.00000300  1
  Cs  Cs3  1  0.25000100  0.75000000  0.25000000  1
  V  V0  1  0.87505700  0.62504500  0.87495200  1
  V  V1  1  0.62506000  0.87504000  0.62496100  1
  V  V2  1  0.12495400  0.37496000  0.12503900  1
  V  V3  1  0.37491900  0.12494900  0.37505200  1
  S  S0  1  0.50577900  0.85067800  0.83911600  1
  S  S1  1  0.25577700  0.10067900  0.58912300  1
  S  S2  1  0.75577100  0.60065800  0.08911100  1
  S  S3  1  0.00582000  0.35071000  0.33908100  1
  S  S4  1  0.99421400  0.64931600  0.66089600  1
  S  S5  1  0.74419300  0.89929200  0.41089300  1
  S  S6  1  0.24420600  0.39932000  0.91091100  1
  S  S7  1  0.49424000  0.14934500  0.16086800  1
  O  O0  1  0.54642800  0.97260100  0.87975700  1
  O  O1  1  0.29643400  0.22259800  0.62975600  1
  O  O2  1  0.79644100  0.72260700  0.12975900  1
  O  O3  1  0.04640500  0.47261500  0.37975100  1
  O  O4  1  0.95357100  0.52739400  0.62024400  1
  O  O5  1  0.70359500  0.77739700  0.37024400  1
  O  O6  1  0.20357500  0.27738800  0.87024800  1
  O  O7  1  0.45355500  0.02740300  0.12024000  1
  O  O8  1  0.73988900  0.70322400  0.66277100  1
  O  O9  1  0.48991800  0.95319300  0.41277300  1
  O  O10  1  0.98990000  0.45322300  0.91276800  1
  O  O11  1  0.23989800  0.20322800  0.16276100  1
  O  O12  1  0.46395800  0.88495300  0.74905800  1
  O  O13  1  0.21395900  0.13497600  0.49906900  1
  O  O14  1  0.71397700  0.63495700  0.99905800  1
  O  O15  1  0.96396400  0.38494600  0.24905800  1
  O  O16  1  0.76009300  0.79677900  0.83723000  1
  O  O17  1  0.51010700  0.04678100  0.58723500  1
  O  O18  1  0.01010600  0.54676900  0.08723900  1
  O  O19  1  0.26009300  0.29680300  0.33722000  1
  O  O20  1  0.24856200  0.75521100  0.61078100  1
  O  O21  1  0.99858900  0.00522700  0.36078100  1
  O  O22  1  0.49856400  0.50521200  0.86078600  1
  O  O23  1  0.74854200  0.25520400  0.11078000  1
  O  O24  1  0.03603800  0.61504400  0.75093300  1
  O  O25  1  0.78604900  0.86503900  0.50093700  1
  O  O26  1  0.28601200  0.36505600  0.00094800  1
  O  O27  1  0.53604400  0.11503100  0.25094100  1
  O  O28  1  0.25144000  0.74478700  0.88921800  1
  O  O29  1  0.00144200  0.99478800  0.63922300  1
  O  O30  1  0.50145500  0.49479500  0.13921700  1
  O  O31  1  0.75140600  0.24477600  0.38921400  1
loop_
_geom_bond_atom_site_label_1
_geom_bond_atom_site_label_2
_geom_bond_distance
_geom_bond_site_symmetry_2
Cs0 O1 3.167057 1_555
Cs0 O4 3.167137 1_555
Cs0 O6 3.167202 1_655
Cs0 O0 3.167216 1_545
Cs0 O1 3.167230 1_655
Cs0 O6 3.167234 1_555
Cs1 O4 3.167116 1_555
Cs1 O3 3.167117 1_655
Cs1 O5 3.167153 1_555
Cs1 O4 3.167215 1_455
Cs1 O1 3.167238 1_555
Cs1 O3 3.167254 1_555
Cs2 O7 3.166967 1_655
Cs2 O6 3.167099 1_654
Cs2 O0 3.167131 1_544
Cs2 O2 3.167146 1_545
Cs2 O0 3.167245 1_644
Cs2 O7 3.167249 1_555
Cs3 O2 3.167031 1_455
Cs3 O3 3.167044 1_555
Cs3 O5 3.167132 1_455
Cs3 O5 3.167198 1_555
Cs3 O2 3.167227 1_555
Cs3 O7 3.167254 1_565
O0 S0 1.463612 1_555
O1 S1 1.463504 1_555
O2 S2 1.463909 1_555
O3 S3 1.463711 1_555
O4 S4 1.463702 1_555
O5 S5 1.463432 1_555
O6 S6 1.463891 1_555
O7 S7 1.463666 1_555
O8 S4 1.497998 1_555
O8 V1 2.040737 1_555
O9 S5 1.497719 1_555
O9 V3 2.040297 1_565
O10 S6 1.497900 1_655
O10 V0 2.040853 1_555
O11 S7 1.497909 1_555
O11 V2 2.039932 1_555
O12 S0 1.497961 1_555
O12 V1 2.041059 1_555
O13 S1 1.497931 1_555
O13 V3 2.040015 1_555
O14 S2 1.497877 1_556
O14 V0 2.041160 1_555
O15 S3 1.497426 1_655
O15 V2 2.039973 1_655
O16 S0 1.497881 1_555
O16 V0 2.040004 1_555
O17 S1 1.497947 1_555
O17 V1 2.040054 1_545
O18 S2 1.497935 1_455
O18 V2 2.040685 1_555
O19 S3 1.497766 1_555
O19 V3 2.041165 1_555
O20 S4 1.497989 1_455
O20 V1 2.040543 1_555
O21 S5 1.498303 1_545
O21 V3 2.039919 1_655
O22 S6 1.498054 1_555
O22 V0 2.040467 1_555
O23 S7 1.497547 1_555
O23 V2 2.040317 1_655
O24 S4 1.497642 1_455
O24 V0 2.040001 1_455
O25 S5 1.497773 1_555
O25 V1 2.040084 1_555
O26 S6 1.497598 1_554
O26 V2 2.040892 1_555
O27 S7 1.498223 1_555
O27 V3 2.041306 1_555
O28 S0 1.497878 1_555
O28 V0 2.040183 1_455
O29 S1 1.497856 1_565
O29 V1 2.040183 1_455
O30 S2 1.497698 1_555
O30 V2 2.040569 1_555
O31 S3 1.498457 1_655
O31 V3 2.040398 1_555
