# generated using pymatgen
data_EuBrO
_symmetry_space_group_name_H-M   'P 1'
_cell_length_a   3.91747070
_cell_length_b   3.91747070
_cell_length_c   8.39781940
_cell_angle_alpha   90.00000000
_cell_angle_beta   90.00000000
_cell_angle_gamma   90.00000000
_symmetry_Int_Tables_number   1
_chemical_formula_structural   EuBrO
_chemical_formula_sum   'Eu2 Br2 O2'
_cell_volume   128.87777941
_cell_formula_units_Z   2
loop_
 _symmetry_equiv_pos_site_id
 _symmetry_equiv_pos_as_xyz
  1  'x, y, z'
loop_
 _atom_site_type_symbol
 _atom_site_label
 _atom_site_symmetry_multiplicity
 _atom_site_fract_x
 _atom_site_fract_y
 _atom_site_fract_z
 _atom_site_occupancy
  Eu  Eu0  1  0.25000000  0.25000000  0.14554615  1
  Eu  Eu1  1  0.75000000  0.75000000  0.85452998  1
  Br  Br0  1  0.25000000  0.25000000  0.66411655  1
  Br  Br1  1  0.75000000  0.75000000  0.33576373  1
  O  O0  1  0.25000000  0.75000000  0.00002179  1
  O  O1  1  0.75000000  0.25000000  0.00002179  1
loop_
_geom_bond_atom_site_label_1
_geom_bond_atom_site_label_2
_geom_bond_distance
_geom_bond_site_symmetry_2
Eu0 O1 2.308710 1_455
Eu0 O1 2.308710 1_555
Eu0 O0 2.308710 1_545
Eu0 O0 2.308710 1_555
Eu1 O1 2.308565 1_566
Eu1 O0 2.308565 1_556
Eu1 O0 2.308565 1_656
Eu1 O1 2.308565 1_556
Br0 Eu1 3.198480 1_555
Br0 Eu1 3.198480 1_545
Br0 Eu1 3.198480 1_445
Br0 Eu1 3.198480 1_455
Br1 Eu0 3.197658 1_655
Br1 Eu0 3.197658 1_665
Br1 Eu0 3.197658 1_555
Br1 Eu0 3.197658 1_565
