# generated using pymatgen
data_Ti3Ni4
_symmetry_space_group_name_H-M   'P 1'
_cell_length_a   6.65670246
_cell_length_b   6.65670394
_cell_length_c   6.65670356
_cell_angle_alpha   113.92230740
_cell_angle_beta   113.92231621
_cell_angle_gamma   113.92231063
_symmetry_Int_Tables_number   1
_chemical_formula_structural   Ti3Ni4
_chemical_formula_sum   'Ti6 Ni8'
_cell_volume   180.23709626
_cell_formula_units_Z   2
loop_
 _symmetry_equiv_pos_site_id
 _symmetry_equiv_pos_as_xyz
  1  'x, y, z'
loop_
 _atom_site_type_symbol
 _atom_site_label
 _atom_site_symmetry_multiplicity
 _atom_site_fract_x
 _atom_site_fract_y
 _atom_site_fract_z
 _atom_site_occupancy
  Ti  Ti0  1  0.49797352  0.89409935  0.76043256  1
  Ti  Ti1  1  0.23956744  0.50202648  0.10590065  1
  Ti  Ti2  1  0.50202648  0.10590065  0.23956744  1
  Ti  Ti3  1  0.10590065  0.23956744  0.50202648  1
  Ti  Ti4  1  0.89409935  0.76043256  0.49797352  1
  Ti  Ti5  1  0.76043256  0.49797352  0.89409935  1
  Ni  Ni0  1  0.58135014  0.74086847  0.05836492  1
  Ni  Ni1  1  0.41864986  0.25913153  0.94163508  1
  Ni  Ni2  1  0.74086847  0.05836492  0.58135014  1
  Ni  Ni3  1  0.05836492  0.58135014  0.74086847  1
  Ni  Ni4  1  0.25913153  0.94163508  0.41864986  1
  Ni  Ni5  1  0.00000000  0.00000000  0.00000000  1
  Ni  Ni6  1  0.94163508  0.41864986  0.25913153  1
  Ni  Ni7  1  0.50000000  0.50000000  0.50000000  1
loop_
_geom_bond_atom_site_label_1
_geom_bond_atom_site_label_2
_geom_bond_distance
_geom_bond_site_symmetry_2
Ni0 Ti1 2.421258 1_555
Ni0 Ti3 2.493966 1_665
Ni0 Ti5 2.533289 1_554
Ni0 Ti0 2.547305 1_554
Ni0 Ti3 2.602713 1_554
Ni0 Ti2 2.611193 1_565
Ni0 Ti4 2.728533 1_555
Ni1 Ti5 2.421258 1_555
Ni1 Ti4 2.493966 1_445
Ni1 Ti1 2.533289 1_556
Ni1 Ti2 2.547305 1_556
Ni1 Ti4 2.602713 1_556
Ni1 Ti0 2.611193 1_545
Ni1 Ti3 2.728533 1_555
Ni2 Ti2 2.421258 1_555
Ni2 Ti1 2.493966 1_656
Ni2 Ti0 2.533289 1_545
Ni2 Ti4 2.547305 1_545
Ni2 Ti1 2.602713 1_545
Ni2 Ti3 2.611192 1_655
Ni2 Ti5 2.728533 1_555
Ni3 Ti3 2.421258 1_555
Ni3 Ti2 2.493967 1_566
Ni3 Ti4 2.533289 1_455
Ni3 Ti5 2.547305 1_455
Ni3 Ti2 2.602713 1_455
Ni3 Ti1 2.611192 1_556
Ni3 Ti0 2.728533 1_555
Ni4 Ti0 2.421258 1_555
Ni4 Ti5 2.493966 1_454
Ni4 Ti2 2.533289 1_565
Ni4 Ti3 2.547305 1_565
Ni4 Ti5 2.602713 1_565
Ni4 Ti4 2.611192 1_455
Ni4 Ti1 2.728533 1_555
Ni5 Ni7 2.506261 1_444
Ni5 Ni7 2.506261 1_555
Ni5 Ti2 2.657755 1_555
Ni5 Ti0 2.657755 1_444
Ni5 Ti3 2.657756 1_555
Ni5 Ti4 2.657756 1_444
Ni5 Ti1 2.657756 1_555
Ni5 Ti5 2.657756 1_444
Ni6 Ti4 2.421258 1_555
Ni6 Ti0 2.493967 1_544
Ni6 Ti3 2.533289 1_655
Ni6 Ti1 2.547305 1_655
Ni6 Ti0 2.602713 1_655
Ni6 Ti5 2.611192 1_554
Ni6 Ti2 2.728533 1_555
Ni7 Ti4 2.499427 1_555
Ni7 Ti3 2.499427 1_555
Ni7 Ti5 2.499427 1_555
Ni7 Ti1 2.499427 1_555
Ni7 Ti0 2.499428 1_555
Ni7 Ti2 2.499428 1_555
