# generated using pymatgen
data_Ba3ZnN2O
_symmetry_space_group_name_H-M   'P 1'
_cell_length_a   4.14976700
_cell_length_b   4.14976700
_cell_length_c   9.29283100
_cell_angle_alpha   90.00000000
_cell_angle_beta   90.00000000
_cell_angle_gamma   90.00000000
_symmetry_Int_Tables_number   1
_chemical_formula_structural   Ba3ZnN2O
_chemical_formula_sum   'Ba3 Zn1 N2 O1'
_cell_volume   160.02781100
_cell_formula_units_Z   1
loop_
 _symmetry_equiv_pos_site_id
 _symmetry_equiv_pos_as_xyz
  1  'x, y, z'
loop_
 _atom_site_type_symbol
 _atom_site_label
 _atom_site_symmetry_multiplicity
 _atom_site_fract_x
 _atom_site_fract_y
 _atom_site_fract_z
 _atom_site_occupancy
  Ba  Ba0  1  0.00000000  0.00000000  0.21788500  1
  Ba  Ba1  1  0.00000000  0.00000000  0.78211500  1
  Ba  Ba2  1  0.50000000  0.50000000  0.50000000  1
  Zn  Zn0  1  0.50000000  0.50000000  0.00000000  1
  N  N0  1  0.50000000  0.50000000  0.80054000  1
  N  N1  1  0.50000000  0.50000000  0.19946000  1
  O  O0  1  0.00000000  0.00000000  0.50000000  1
loop_
_geom_bond_atom_site_label_1
_geom_bond_atom_site_label_2
_geom_bond_distance
_geom_bond_site_symmetry_2
Ba0 O0 2.621647 1_555
Ba0 N1 2.939320 1_545
Ba0 N1 2.939320 1_445
Ba0 N1 2.939320 1_555
Ba0 N1 2.939320 1_455
Ba1 O0 2.621647 1_555
Ba1 N0 2.939320 1_545
Ba1 N0 2.939320 1_455
Ba1 N0 2.939320 1_445
Ba1 N0 2.939320 1_555
Ba2 N1 2.792867 1_555
Ba2 N0 2.792867 1_555
Ba2 O0 2.934328 1_565
Ba2 O0 2.934328 1_665
Ba2 O0 2.934328 1_655
Ba2 O0 2.934328 1_555
N0 Zn0 1.853548 1_556
N1 Zn0 1.853548 1_555
