# generated using pymatgen
data_La3C3Cl2
_symmetry_space_group_name_H-M   'P 1'
_cell_length_a   12.90624200
_cell_length_b   6.99134000
_cell_length_c   7.82984794
_cell_angle_alpha   75.31946540
_cell_angle_beta   90.00000000
_cell_angle_gamma   90.00000000
_symmetry_Int_Tables_number   1
_chemical_formula_structural   La3C3Cl2
_chemical_formula_sum   'La12 C12 Cl8'
_cell_volume   683.43772137
_cell_formula_units_Z   4
loop_
 _symmetry_equiv_pos_site_id
 _symmetry_equiv_pos_as_xyz
  1  'x, y, z'
loop_
 _atom_site_type_symbol
 _atom_site_label
 _atom_site_symmetry_multiplicity
 _atom_site_fract_x
 _atom_site_fract_y
 _atom_site_fract_z
 _atom_site_occupancy
  La  La0  1  0.15019900  0.13692600  0.26434000  1
  La  La1  1  0.65019900  0.36307400  0.73566000  1
  La  La2  1  0.17875600  0.86828500  0.88099700  1
  La  La3  1  0.99226900  0.62427600  0.19039300  1
  La  La4  1  0.50773100  0.12427600  0.19039300  1
  La  La5  1  0.32124400  0.36828500  0.88099700  1
  La  La6  1  0.82124400  0.13171500  0.11900300  1
  La  La7  1  0.34980100  0.63692600  0.26434000  1
  La  La8  1  0.67875600  0.63171500  0.11900300  1
  La  La9  1  0.49226900  0.87572400  0.80960700  1
  La  La10  1  0.84980100  0.86307400  0.73566000  1
  La  La11  1  0.00773100  0.37572400  0.80960700  1
  C  C0  1  0.29583600  0.02354000  0.11390700  1
  C  C1  1  0.63203900  0.02511000  0.99478600  1
  C  C2  1  0.79583600  0.47646000  0.88609300  1
  C  C3  1  0.86796100  0.52511000  0.99478600  1
  C  C4  1  0.46996200  0.52875400  0.05873100  1
  C  C5  1  0.70416400  0.97646000  0.88609300  1
  C  C6  1  0.13203900  0.47489000  0.00521400  1
  C  C7  1  0.20416400  0.52354000  0.11390700  1
  C  C8  1  0.53003800  0.47124600  0.94126900  1
  C  C9  1  0.03003800  0.02875400  0.05873100  1
  C  C10  1  0.96996200  0.97124600  0.94126900  1
  C  C11  1  0.36796100  0.97489000  0.00521400  1
  Cl  Cl0  1  0.31383700  0.76818800  0.61431000  1
  Cl  Cl1  1  0.55698000  0.73766700  0.44985500  1
  Cl  Cl2  1  0.44302000  0.26233300  0.55014500  1
  Cl  Cl3  1  0.18616300  0.26818800  0.61431000  1
  Cl  Cl4  1  0.94302000  0.23766700  0.44985500  1
  Cl  Cl5  1  0.81383700  0.73181200  0.38569000  1
  Cl  Cl6  1  0.05698000  0.76233300  0.55014500  1
  Cl  Cl7  1  0.68616300  0.23181200  0.38569000  1
loop_
_geom_bond_atom_site_label_1
_geom_bond_atom_site_label_2
_geom_bond_distance
_geom_bond_site_symmetry_2
C0 C11 1.361322 1_545
C0 La0 2.453984 1_555
C0 La5 2.648506 1_554
C0 La7 2.750401 1_545
C0 La2 2.791147 1_544
C0 La4 2.923593 1_555
C1 C5 1.361322 1_545
C1 La4 2.436909 1_556
C1 La9 2.686016 1_545
C1 La1 2.706381 1_555
C1 La8 2.741918 1_546
C1 La6 2.798546 1_556
C2 C3 1.361322 1_555
C2 La1 2.453984 1_555
C2 La6 2.648506 1_556
C2 La10 2.750401 1_555
C2 La8 2.791147 1_556
C2 La11 2.923593 1_655
C3 La3 2.436909 1_556
C3 La11 2.686016 1_655
C3 La10 2.706381 1_555
C3 La6 2.741918 1_556
C3 La8 2.798546 1_556
C4 C8 1.340193 1_554
C4 La7 2.487136 1_555
C4 La9 2.715483 1_554
C4 La5 2.769599 1_554
C4 La4 2.796329 1_555
C4 La8 2.859145 1_555
C5 La10 2.453984 1_555
C5 La8 2.648506 1_556
C5 La1 2.750401 1_565
C5 La6 2.791147 1_566
C5 La9 2.923593 1_555
C6 C7 1.361322 1_555
C6 La11 2.436909 1_554
C6 La3 2.686016 1_455
C6 La0 2.706381 1_555
C6 La2 2.741918 1_554
C6 La5 2.798546 1_554
C7 La7 2.453984 1_555
C7 La2 2.648506 1_554
C7 La0 2.750401 1_555
C7 La5 2.791147 1_554
C7 La3 2.923593 1_455
C8 La1 2.487136 1_555
C8 La4 2.715483 1_556
C8 La8 2.769599 1_556
C8 La9 2.796329 1_555
C8 La5 2.859145 1_555
C9 La0 2.487136 1_555
C9 La11 2.715483 1_554
C9 La2 2.769599 1_544
C9 La3 2.796329 1_445
C9 La6 2.859145 1_455
C10 C9 1.340193 1_666
C10 La10 2.487136 1_555
C10 La3 2.715483 1_556
C10 La6 2.769599 1_566
C10 La11 2.796329 1_665
C10 La2 2.859145 1_655
C11 La9 2.436909 1_554
C11 La4 2.686016 1_565
C11 La7 2.706381 1_555
C11 La5 2.741918 1_564
C11 La2 2.798546 1_554
Cl0 La2 2.937694 1_555
Cl0 La9 2.964712 1_555
Cl0 La5 3.037617 1_555
Cl0 La7 3.137031 1_555
Cl1 La4 3.008943 1_565
Cl1 La7 3.205350 1_555
Cl1 La1 3.216120 1_555
Cl1 La8 3.271433 1_555
Cl1 La9 3.307803 1_555
Cl2 La9 3.008943 1_545
Cl2 La1 3.205350 1_555
Cl2 La7 3.216120 1_555
Cl2 La5 3.271433 1_555
Cl2 La4 3.307803 1_555
Cl3 La5 2.937694 1_555
Cl3 La11 2.964712 1_555
Cl3 La2 3.037617 1_545
Cl3 La0 3.137031 1_555
Cl4 La3 3.008943 1_555
Cl4 La0 3.205350 1_655
Cl4 La10 3.216120 1_545
Cl4 La6 3.271433 1_555
Cl4 La11 3.307803 1_655
Cl5 La8 2.937694 1_555
Cl5 La3 2.964712 1_555
Cl5 La6 3.037617 1_565
Cl5 La10 3.137031 1_555
Cl6 La11 3.008943 1_555
Cl6 La10 3.205350 1_455
Cl6 La0 3.216120 1_565
Cl6 La2 3.271433 1_555
Cl6 La3 3.307803 1_455
Cl7 La6 2.937694 1_555
Cl7 La4 2.964712 1_555
Cl7 La8 3.037617 1_555
Cl7 La1 3.137031 1_555
