# generated using pymatgen
data_CrCuO2
_symmetry_space_group_name_H-M   'P 1'
_cell_length_a   2.98115295
_cell_length_b   2.98115286
_cell_length_c   11.49846406
_cell_angle_alpha   90.02330785
_cell_angle_beta   97.47038371
_cell_angle_gamma   59.99344678
_symmetry_Int_Tables_number   1
_chemical_formula_structural   CrCuO2
_chemical_formula_sum   'Cr2 Cu2 O4'
_cell_volume   87.49337481
_cell_formula_units_Z   2
loop_
 _symmetry_equiv_pos_site_id
 _symmetry_equiv_pos_as_xyz
  1  'x, y, z'
loop_
 _atom_site_type_symbol
 _atom_site_label
 _atom_site_symmetry_multiplicity
 _atom_site_fract_x
 _atom_site_fract_y
 _atom_site_fract_z
 _atom_site_occupancy
  Cr  Cr0  1  0.49998727  0.74998627  0.75000000  1
  Cr  Cr1  1  0.49998203  0.24998290  0.25000013  1
  Cu  Cu0  1  0.00000893  0.00001714  0.99999180  1
  Cu  Cu1  1  0.00004129  0.50003371  0.50000758  1
  O  O0  1  0.89215021  0.55400539  0.33814682  1
  O  O1  1  0.89214218  0.05400908  0.83813510  1
  O  O2  1  0.10783672  0.94598360  0.16185312  1
  O  O3  1  0.10784937  0.44598491  0.66186446  1
loop_
_geom_bond_atom_site_label_1
_geom_bond_atom_site_label_2
_geom_bond_distance
_geom_bond_site_symmetry_2
Cr0 O3 1.991441 1_555
Cr0 O1 1.991520 1_555
Cr0 O1 1.991524 1_565
Cr0 O1 1.991527 1_465
Cr0 O3 1.991568 1_655
Cr0 O3 1.991571 1_565
Cr1 O2 1.991509 1_545
Cr1 O0 1.991579 1_545
Cr1 O0 1.991581 1_455
Cr1 O0 1.991611 1_555
Cr1 O2 1.991632 1_555
Cr1 O2 1.991634 1_645
Cu0 O1 1.840075 1_455
Cu0 O2 1.840127 1_546
Cu1 O3 1.840077 1_555
Cu1 O0 1.840121 1_455
