# generated using pymatgen
data_Na2LiN
_symmetry_space_group_name_H-M   'P 1'
_cell_length_a   4.08090100
_cell_length_b   4.08090100
_cell_length_c   6.12963800
_cell_angle_alpha   90.00000000
_cell_angle_beta   90.00000000
_cell_angle_gamma   90.00000000
_symmetry_Int_Tables_number   1
_chemical_formula_structural   Na2LiN
_chemical_formula_sum   'Na4 Li2 N2'
_cell_volume   102.08147706
_cell_formula_units_Z   2
loop_
 _symmetry_equiv_pos_site_id
 _symmetry_equiv_pos_as_xyz
  1  'x, y, z'
loop_
 _atom_site_type_symbol
 _atom_site_label
 _atom_site_symmetry_multiplicity
 _atom_site_fract_x
 _atom_site_fract_y
 _atom_site_fract_z
 _atom_site_occupancy
  Na  Na0  1  0.00000000  0.50000000  0.20220800  1
  Na  Na1  1  0.50000000  0.50000000  0.50000000  1
  Na  Na2  1  0.50000000  0.00000000  0.79779200  1
  Na  Na3  1  0.00000000  0.00000000  0.50000000  1
  Li  Li0  1  0.00000000  0.00000000  0.00000000  1
  Li  Li1  1  0.50000000  0.50000000  0.00000000  1
  N  N0  1  0.00000000  0.50000000  0.79268400  1
  N  N1  1  0.50000000  0.00000000  0.20731600  1
loop_
_geom_bond_atom_site_label_1
_geom_bond_atom_site_label_2
_geom_bond_distance
_geom_bond_site_symmetry_2
Na0 Na1 2.737767 1_555
Na0 Na1 2.737767 1_455
Na0 Na3 2.737767 1_555
Na0 Na3 2.737767 1_565
Na1 Na2 2.737767 1_555
Na1 Na2 2.737767 1_565
Na2 Na3 2.737767 1_655
Na2 Na3 2.737767 1_555
Li0 Na2 2.387405 1_454
Li0 Na0 2.387405 1_555
Li0 Na2 2.387405 1_554
Li0 Na0 2.387405 1_545
Li0 N0 2.403809 1_544
Li0 N1 2.403809 1_555
Li0 N0 2.403809 1_554
Li0 N1 2.403809 1_455
Li1 Na2 2.387405 1_564
Li1 Na2 2.387405 1_554
Li1 Na0 2.387405 1_555
Li1 Na0 2.387405 1_655
Li1 N1 2.403809 1_565
Li1 N1 2.403809 1_555
Li1 N0 2.403809 1_654
Li1 N0 2.403809 1_554
N0 Na0 2.510234 1_556
N0 Na1 2.716991 1_455
N0 Na3 2.716991 1_555
N0 Na3 2.716991 1_565
N0 Na1 2.716991 1_555
N0 Na2 2.885803 1_565
N0 Na2 2.885803 1_455
N0 Na2 2.885803 1_465
N0 Na2 2.885803 1_555
N1 Na2 2.510234 1_554
N1 Na3 2.716991 1_555
N1 Na3 2.716991 1_655
N1 Na1 2.716991 1_555
N1 Na1 2.716991 1_545
N1 Na0 2.885803 1_655
N1 Na0 2.885803 1_545
N1 Na0 2.885803 1_645
N1 Na0 2.885803 1_555
