# generated using pymatgen
data_SrI2
_symmetry_space_group_name_H-M   'P 1'
_cell_length_a   5.01549600
_cell_length_b   8.50097700
_cell_length_c   12.53623300
_cell_angle_alpha   90.00000000
_cell_angle_beta   90.00000000
_cell_angle_gamma   90.00000000
_symmetry_Int_Tables_number   1
_chemical_formula_structural   SrI2
_chemical_formula_sum   'Sr4 I8'
_cell_volume   534.50255426
_cell_formula_units_Z   4
loop_
 _symmetry_equiv_pos_site_id
 _symmetry_equiv_pos_as_xyz
  1  'x, y, z'
loop_
 _atom_site_type_symbol
 _atom_site_label
 _atom_site_symmetry_multiplicity
 _atom_site_fract_x
 _atom_site_fract_y
 _atom_site_fract_z
 _atom_site_occupancy
  Sr  Sr0  1  0.25000000  0.13190400  0.17017500  1
  Sr  Sr1  1  0.75000000  0.63190400  0.32982500  1
  Sr  Sr2  1  0.25000000  0.36809600  0.67017500  1
  Sr  Sr3  1  0.75000000  0.86809600  0.82982500  1
  I  I0  1  0.25000000  0.37697600  0.39184700  1
  I  I1  1  0.25000000  0.88056300  0.37753600  1
  I  I2  1  0.75000000  0.38056300  0.12246400  1
  I  I3  1  0.25000000  0.61943700  0.87753600  1
  I  I4  1  0.25000000  0.12302400  0.89184700  1
  I  I5  1  0.75000000  0.87697600  0.10815300  1
  I  I6  1  0.75000000  0.11943700  0.62246400  1
  I  I7  1  0.75000000  0.62302400  0.60815300  1
loop_
_geom_bond_atom_site_label_1
_geom_bond_atom_site_label_2
_geom_bond_distance
_geom_bond_site_symmetry_2
I0 Sr1 3.404383 1_455
I0 Sr1 3.404383 1_555
I0 Sr0 3.473156 1_555
I0 Sr2 3.490001 1_555
I1 Sr1 3.333899 1_555
I1 Sr1 3.333899 1_455
I1 Sr0 3.364934 1_565
I2 Sr0 3.333899 1_555
I2 Sr0 3.333899 1_655
I2 Sr1 3.364934 1_555
I3 Sr3 3.333899 1_555
I3 Sr3 3.333899 1_455
I3 Sr2 3.364934 1_555
I4 Sr3 3.404383 1_445
I4 Sr3 3.404383 1_545
I4 Sr2 3.473156 1_555
I4 Sr0 3.490001 1_556
I5 Sr0 3.404383 1_565
I5 Sr0 3.404383 1_665
I5 Sr1 3.473156 1_555
I5 Sr3 3.490001 1_554
I6 Sr2 3.333899 1_655
I6 Sr2 3.333899 1_555
I6 Sr3 3.364934 1_545
I7 Sr2 3.404383 1_655
I7 Sr2 3.404383 1_555
I7 Sr3 3.473156 1_555
I7 Sr1 3.490001 1_555
