# generated using pymatgen
data_Mn3(PO4)2
_symmetry_space_group_name_H-M   'P 1'
_cell_length_a   6.65548072
_cell_length_b   5.24218584
_cell_length_c   9.94230422
_cell_angle_alpha   63.62628285
_cell_angle_beta   90.00000000
_cell_angle_gamma   90.00000000
_symmetry_Int_Tables_number   1
_chemical_formula_structural   Mn3(PO4)2
_chemical_formula_sum   'Mn6 P4 O16'
_cell_volume   310.77494925
_cell_formula_units_Z   2
loop_
 _symmetry_equiv_pos_site_id
 _symmetry_equiv_pos_as_xyz
  1  'x, y, z'
loop_
 _atom_site_type_symbol
 _atom_site_label
 _atom_site_symmetry_multiplicity
 _atom_site_fract_x
 _atom_site_fract_y
 _atom_site_fract_z
 _atom_site_occupancy
  Mn  Mn0  1  0.65664600  0.78375439  0.12657935  1
  Mn  Mn1  1  0.34335400  0.21624561  0.87342065  1
  Mn  Mn2  1  0.84335400  0.78375439  0.62657935  1
  Mn  Mn3  1  0.50000000  0.50000000  0.50000000  1
  Mn  Mn4  1  0.15664600  0.21624561  0.37342065  1
  Mn  Mn5  1  -0.00000000  0.50000000  -0.00000000  1
  P  P0  1  0.83417533  0.15642045  0.80638878  1
  P  P1  1  0.66582467  0.15642045  0.30638878  1
  P  P2  1  0.16582467  0.84357955  0.19361122  1
  P  P3  1  0.33417533  0.84357955  0.69361122  1
  O  O0  1  0.87263104  0.85736777  0.81695517  1
  O  O1  1  0.62736896  0.85736777  0.31695517  1
  O  O2  1  0.48412000  0.26332065  0.36267740  1
  O  O3  1  0.29197755  0.63158723  0.85740350  1
  O  O4  1  0.70802245  0.36841277  0.14259650  1
  O  O5  1  0.34380084  0.86785397  0.08937984  1
  O  O6  1  0.12736896  0.14263223  0.18304483  1
  O  O7  1  0.37263104  0.14263223  0.68304483  1
  O  O8  1  0.65619916  0.13214603  0.91062016  1
  O  O9  1  0.20802245  0.63158723  0.35740350  1
  O  O10  1  0.79197755  0.36841277  0.64259650  1
  O  O11  1  0.51588000  0.73667935  0.63732260  1
  O  O12  1  0.01588000  0.26332065  0.86267740  1
  O  O13  1  0.98412000  0.73667935  0.13732260  1
  O  O14  1  0.84380084  0.13214603  0.41062016  1
  O  O15  1  0.15619916  0.86785397  0.58937984  1
loop_
_geom_bond_atom_site_label_1
_geom_bond_atom_site_label_2
_geom_bond_distance
_geom_bond_site_symmetry_2
Mn0 O1 2.102002 1_555
Mn0 O8 2.112282 1_564
Mn0 O5 2.126399 1_555
Mn0 O4 2.138891 1_555
Mn0 O13 2.190684 1_555
Mn1 O7 2.102002 1_555
Mn1 O5 2.112282 1_546
Mn1 O8 2.126399 1_555
Mn1 O3 2.138891 1_555
Mn1 O12 2.190684 1_555
Mn2 O0 2.102002 1_555
Mn2 O14 2.112282 1_565
Mn2 O15 2.126399 1_655
Mn2 O10 2.138891 1_555
Mn2 O11 2.190684 1_555
Mn3 O1 2.123943 1_555
Mn3 O7 2.123943 1_555
Mn3 O11 2.218016 1_555
Mn3 O2 2.218016 1_555
Mn3 O9 2.322319 1_555
Mn3 O10 2.322319 1_555
Mn4 O6 2.102002 1_555
Mn4 O15 2.112282 1_545
Mn4 O14 2.126399 1_455
Mn4 O9 2.138891 1_555
Mn4 O2 2.190684 1_555
Mn5 O6 2.123943 1_555
Mn5 O0 2.123943 1_454
Mn5 O13 2.218016 1_455
Mn5 O12 2.218016 1_554
Mn5 O3 2.322319 1_554
Mn5 O4 2.322319 1_455
O0 P0 1.545274 1_565
O1 P1 1.545274 1_565
O2 P1 1.538944 1_555
O3 P3 1.535560 1_555
O4 P1 1.535560 1_555
O5 P2 1.541438 1_555
O6 P2 1.545274 1_545
O7 P3 1.545274 1_545
O8 P0 1.541438 1_555
O9 P2 1.535560 1_555
O10 P0 1.535560 1_555
O11 P3 1.538944 1_555
O12 P0 1.538944 1_455
O13 P2 1.538944 1_655
O14 P1 1.541438 1_555
O15 P3 1.541438 1_555
