# generated using pymatgen
data_CuHg3As2Br3
_symmetry_space_group_name_H-M   'P 1'
_cell_length_a   13.56855398
_cell_length_b   13.56855398
_cell_length_c   15.38589358
_cell_angle_alpha   58.10932855
_cell_angle_beta   58.10932855
_cell_angle_gamma   41.11103180
_symmetry_Int_Tables_number   1
_chemical_formula_structural   CuHg3As2Br3
_chemical_formula_sum   'Cu6 Hg18 As12 Br18'
_cell_volume   1537.73180454
_cell_formula_units_Z   6
loop_
 _symmetry_equiv_pos_site_id
 _symmetry_equiv_pos_as_xyz
  1  'x, y, z'
loop_
 _atom_site_type_symbol
 _atom_site_label
 _atom_site_symmetry_multiplicity
 _atom_site_fract_x
 _atom_site_fract_y
 _atom_site_fract_z
 _atom_site_occupancy
  Cu  Cu0  1  0.38656400  0.61343600  0.25000000  1
  Cu  Cu1  1  0.61343600  0.38656400  0.75000000  1
  Cu  Cu2  1  0.93583200  0.40371400  0.21008500  1
  Cu  Cu3  1  0.06416800  0.59628600  0.78991500  1
  Cu  Cu4  1  0.40371400  0.93583200  0.71008500  1
  Cu  Cu5  1  0.59628600  0.06416800  0.28991500  1
  Hg  Hg0  1  0.12861400  0.53455600  0.24920800  1
  Hg  Hg1  1  0.82120100  0.17879900  0.25000000  1
  Hg  Hg2  1  0.66140500  0.66859000  0.99878100  1
  Hg  Hg3  1  0.83540000  0.82704900  0.50228900  1
  Hg  Hg4  1  0.33859500  0.33141000  0.00121900  1
  Hg  Hg5  1  0.46544400  0.87138600  0.25079200  1
  Hg  Hg6  1  0.87138600  0.46544400  0.75079200  1
  Hg  Hg7  1  0.82704900  0.83540000  0.00228900  1
  Hg  Hg8  1  0.66859000  0.66140500  0.49878100  1
  Hg  Hg9  1  0.53455600  0.12861400  0.74920800  1
  Hg  Hg10  1  0.50000000  0.50000000  0.50000000  1
  Hg  Hg11  1  0.33141000  0.33859500  0.50121900  1
  Hg  Hg12  1  0.17295100  0.16460000  0.99771100  1
  Hg  Hg13  1  0.17879900  0.82120100  0.75000000  1
  Hg  Hg14  1  0.16460000  0.17295100  0.49771100  1
  Hg  Hg15  1  0.00000000  0.00000000  0.00000000  1
  Hg  Hg16  1  0.00000000  0.00000000  0.50000000  1
  Hg  Hg17  1  0.50000000  0.50000000  0.00000000  1
  As  As0  1  0.06518600  0.79956000  0.95121800  1
  As  As1  1  0.20044000  0.93481400  0.54878200  1
  As  As2  1  0.87323300  0.58824500  0.55188400  1
  As  As3  1  0.12676700  0.41175500  0.44811600  1
  As  As4  1  0.25526000  0.54507300  0.05010800  1
  As  As5  1  0.41175500  0.12676700  0.94811600  1
  As  As6  1  0.74474000  0.45492700  0.94989200  1
  As  As7  1  0.45492700  0.74474000  0.44989200  1
  As  As8  1  0.54507300  0.25526000  0.55010800  1
  As  As9  1  0.93481400  0.20044000  0.04878200  1
  As  As10  1  0.58824500  0.87323300  0.05188400  1
  As  As11  1  0.79956000  0.06518600  0.45121800  1
  Br  Br0  1  0.14093600  0.40639700  0.73861000  1
  Br  Br1  1  0.78854400  0.31966800  0.58480500  1
  Br  Br2  1  0.86808600  0.89081000  0.25407400  1
  Br  Br3  1  0.00000000  0.50000000  0.00000000  1
  Br  Br4  1  0.68033200  0.21145600  0.91519500  1
  Br  Br5  1  0.40639700  0.14093600  0.23861000  1
  Br  Br6  1  0.49967200  0.65477400  0.74898400  1
  Br  Br7  1  0.50032800  0.34522600  0.25101600  1
  Br  Br8  1  0.85906400  0.59360300  0.26139000  1
  Br  Br9  1  0.59360300  0.85906400  0.76139000  1
  Br  Br10  1  0.34522600  0.50032800  0.75101600  1
  Br  Br11  1  0.10919000  0.13191400  0.24592600  1
  Br  Br12  1  0.13191400  0.10919000  0.74592600  1
  Br  Br13  1  0.21145600  0.68033200  0.41519500  1
  Br  Br14  1  0.50000000  0.00000000  0.50000000  1
  Br  Br15  1  0.89081000  0.86808600  0.75407400  1
  Br  Br16  1  0.65477400  0.49967200  0.24898400  1
  Br  Br17  1  0.31966800  0.78854400  0.08480500  1
loop_
_geom_bond_atom_site_label_1
_geom_bond_atom_site_label_2
_geom_bond_distance
_geom_bond_site_symmetry_2
As0 As4 2.462785 1_556
As0 Hg15 2.563766 1_566
As0 Hg7 2.578317 1_456
As0 Hg13 2.593500 1_555
As1 As7 2.462785 1_555
As1 Hg16 2.563766 1_565
As1 Hg14 2.578317 1_565
As1 Hg13 2.593500 1_555
As2 As3 2.437364 1_655
As2 Hg3 2.576790 1_555
As2 Hg6 2.595541 1_555
As2 Hg8 2.598017 1_555
As3 Hg14 2.576790 1_555
As3 Hg0 2.595541 1_555
As3 Hg11 2.598017 1_555
As4 Hg0 2.588999 1_555
As4 Hg4 2.591310 1_555
As4 Hg17 2.593974 1_555
As5 Hg12 2.576790 1_555
As5 Hg9 2.595541 1_555
As5 Hg4 2.598017 1_556
As6 As9 2.462785 1_556
As6 Hg6 2.588999 1_555
As6 Hg2 2.591310 1_555
As6 Hg17 2.593974 1_556
As7 Hg5 2.588999 1_555
As7 Hg8 2.591310 1_555
As7 Hg10 2.593974 1_555
As8 Hg9 2.588999 1_555
As8 Hg11 2.591310 1_555
As8 Hg10 2.593974 1_555
As9 Hg15 2.563766 1_655
As9 Hg12 2.578317 1_654
As9 Hg1 2.593500 1_555
As10 As5 2.437364 1_564
As10 Hg7 2.576790 1_555
As10 Hg5 2.595541 1_555
As10 Hg2 2.598017 1_554
As11 As8 2.462785 1_555
As11 Hg16 2.563766 1_655
As11 Hg3 2.578317 1_545
As11 Hg1 2.593500 1_555
Br0 Cu3 2.362755 1_555
Br0 Hg6 3.012054 1_455
Br0 Hg11 3.295445 1_555
Br1 Cu1 2.395061 1_555
Br1 Hg8 3.212596 1_555
Br1 Hg10 3.256778 1_555
Br2 Cu5 2.363841 1_565
Br2 Hg0 3.197147 1_655
Br2 Hg3 3.290528 1_555
Br3 Cu3 2.681693 1_554
Br3 Cu2 2.681693 1_455
Br3 Hg12 3.195015 1_554
Br3 Hg7 3.195015 1_455
Br3 Hg4 3.248001 1_555
Br3 Hg2 3.248001 1_454
Br4 Cu1 2.395061 1_555
Br4 Hg4 3.212596 1_556
Br4 Hg17 3.256778 1_556
Br5 Cu5 2.362755 1_555
Br5 Hg5 3.012054 1_545
Br5 Hg4 3.295445 1_555
Br6 Cu1 2.669714 1_555
Br6 Cu4 2.743413 1_555
Br6 Hg13 3.034045 1_555
Br6 Hg8 3.271520 1_555
Br6 Hg17 3.280319 1_556
Br7 Cu0 2.669714 1_555
Br7 Cu5 2.743413 1_555
Br7 Hg1 3.034045 1_555
Br7 Hg11 3.271520 1_555
Br7 Hg17 3.280319 1_555
Br8 Cu2 2.362755 1_555
Br8 Hg0 3.012054 1_655
Br8 Hg8 3.295445 1_555
Br9 Cu4 2.362755 1_555
Br9 Hg9 3.012054 1_565
Br9 Hg2 3.295445 1_555
Br10 Cu1 2.669714 1_555
Br10 Cu3 2.743413 1_555
Br10 Hg13 3.034045 1_555
Br10 Hg4 3.271520 1_556
Br10 Hg10 3.280319 1_555
Br11 Cu2 2.363841 1_455
Br11 Hg5 3.197147 1_545
Br11 Hg12 3.290528 1_554
Br12 Cu4 2.363841 1_545
Br12 Hg6 3.197147 1_455
Br12 Hg14 3.290528 1_555
Br13 Cu0 2.395061 1_555
Br13 Hg11 3.212596 1_555
Br13 Hg10 3.256778 1_555
Br14 Cu4 2.681693 1_545
Br14 Cu5 2.681693 1_555
Br14 Hg3 3.195015 1_545
Br14 Hg14 3.195015 1_555
Br14 Hg11 3.248001 1_555
Br14 Hg8 3.248001 1_545
Br15 Cu3 2.363841 1_655
Br15 Hg9 3.197147 1_565
Br15 Hg7 3.290528 1_556
Br16 Cu0 2.669714 1_555
Br16 Cu2 2.743413 1_555
Br16 Hg1 3.034045 1_555
Br16 Hg2 3.271520 1_554
Br16 Hg10 3.280319 1_555
Br17 Cu0 2.395061 1_555
Br17 Hg2 3.212596 1_554
Br17 Hg17 3.256778 1_555
