# generated using pymatgen
data_KNaCu3S3O13
_symmetry_space_group_name_H-M   'P 1'
_cell_length_a   9.53704400
_cell_length_b   10.50598907
_cell_length_c   14.61258419
_cell_angle_alpha   111.48226146
_cell_angle_beta   90.00000000
_cell_angle_gamma   116.99328434
_symmetry_Int_Tables_number   1
_chemical_formula_structural   KNaCu3S3O13
_chemical_formula_sum   'K4 Na4 Cu12 S12 O52'
_cell_volume   1189.34736818
_cell_formula_units_Z   4
loop_
 _symmetry_equiv_pos_site_id
 _symmetry_equiv_pos_as_xyz
  1  'x, y, z'
loop_
 _atom_site_type_symbol
 _atom_site_label
 _atom_site_symmetry_multiplicity
 _atom_site_fract_x
 _atom_site_fract_y
 _atom_site_fract_z
 _atom_site_occupancy
  K  K0  1  0.93446900  0.38479000  0.12847900  1
  K  K1  1  0.54968000  0.61521000  0.37152100  1
  K  K2  1  0.06553100  0.61521000  0.87152100  1
  K  K3  1  0.45032000  0.38479000  0.62847900  1
  Na  Na0  1  0.09194200  0.65034300  0.45371100  1
  Na  Na1  1  0.55840100  0.65034300  0.95371100  1
  Na  Na2  1  0.90805800  0.34965700  0.54628900  1
  Na  Na3  1  0.44159900  0.34965700  0.04628900  1
  Cu  Cu0  1  0.67280800  0.83500100  0.70553800  1
  Cu  Cu1  1  0.98696800  0.03218700  0.35957000  1
  Cu  Cu2  1  0.95478100  0.96781300  0.14043000  1
  Cu  Cu3  1  0.16219300  0.83500100  0.20553800  1
  Cu  Cu4  1  0.04521900  0.03218700  0.85957000  1
  Cu  Cu5  1  0.53687700  0.03263000  0.15749000  1
  Cu  Cu6  1  0.49575200  0.03263000  0.65749000  1
  Cu  Cu7  1  0.32719200  0.16499900  0.29446200  1
  Cu  Cu8  1  0.83780700  0.16499900  0.79446200  1
  Cu  Cu9  1  0.46312300  0.96737000  0.84251000  1
  Cu  Cu10  1  0.50424800  0.96737000  0.34251000  1
  Cu  Cu11  1  0.01303200  0.96781300  0.64043000  1
  S  S0  1  0.74587800  0.99516200  0.98508500  1
  S  S1  1  0.88811700  0.69154600  0.70625800  1
  S  S2  1  0.62611100  0.31110600  0.86821400  1
  S  S3  1  0.11188300  0.30845400  0.29374200  1
  S  S4  1  0.37388900  0.68889400  0.13178600  1
  S  S5  1  0.80342900  0.69154600  0.20625800  1
  S  S6  1  0.19657100  0.30845400  0.79374200  1
  S  S7  1  0.68499500  0.31110600  0.36821400  1
  S  S8  1  0.24928400  0.99516200  0.48508500  1
  S  S9  1  0.31500500  0.68889400  0.63178600  1
  S  S10  1  0.25412200  0.00483700  0.01491500  1
  S  S11  1  0.75071600  0.00483700  0.51491500  1
  O  O0  1  0.28138400  0.33666900  0.31230100  1
  O  O1  1  0.78266500  0.76181300  0.13835100  1
  O  O2  1  0.31099000  0.91470400  0.93308000  1
  O  O3  1  0.45920400  0.80348200  0.08503800  1
  O  O4  1  0.76645600  0.88792200  0.54141900  1
  O  O5  1  0.17068500  0.54235700  0.57088700  1
  O  O6  1  0.19723900  0.09463100  0.97966600  1
  O  O7  1  0.23354400  0.11207800  0.45858100  1
  O  O8  1  0.65572200  0.19651800  0.41496200  1
  O  O9  1  0.70236600  0.24596400  0.26186700  1
  O  O10  1  0.34427800  0.80348200  0.58503800  1
  O  O11  1  0.73737300  0.12551700  0.60198300  1
  O  O12  1  0.20356700  0.66000700  0.12952900  1
  O  O13  1  0.29763400  0.75403600  0.73813300  1
  O  O14  1  0.10231600  0.00000000  0.25000000  1
  O  O15  1  0.33964300  0.45790300  0.81262700  1
  O  O16  1  0.66035700  0.54209700  0.18737300  1
  O  O17  1  0.54356000  0.33999300  0.37047100  1
  O  O18  1  0.21733500  0.23818700  0.86164900  1
  O  O19  1  0.89768400  0.00000000  0.75000000  1
  O  O20  1  0.03445600  0.19782900  0.18551100  1
  O  O21  1  0.97914800  0.76181300  0.63835100  1
  O  O22  1  0.79643300  0.33999300  0.87047100  1
  O  O23  1  0.83662700  0.80217100  0.31448900  1
  O  O24  1  0.87853400  0.11207800  0.95858100  1
  O  O25  1  0.26262700  0.87448300  0.39801700  1
  O  O26  1  0.02085200  0.23818700  0.36164900  1
  O  O27  1  0.54359800  0.24596400  0.76186700  1
  O  O28  1  0.16337300  0.19782900  0.68551100  1
  O  O29  1  0.54079600  0.19651800  0.91496200  1
  O  O30  1  0.45640200  0.75403600  0.23813300  1
  O  O31  1  0.10260900  0.90536900  0.52033400  1
  O  O32  1  0.71861600  0.66333100  0.68769900  1
  O  O33  1  0.82931400  0.45764300  0.42911300  1
  O  O34  1  0.61185700  0.87448300  0.89801700  1
  O  O35  1  0.39628600  0.08529600  0.56692000  1
  O  O36  1  0.80276100  0.90536900  0.02033400  1
  O  O37  1  0.60371400  0.91470400  0.43308000  1
  O  O38  1  0.38814300  0.12551700  0.10198300  1
  O  O39  1  0.68901000  0.08529600  0.06692000  1
  O  O40  1  0.11826000  0.45790300  0.31262700  1
  O  O41  1  0.88174000  0.54209700  0.68737300  1
  O  O42  1  0.37167100  0.54235700  0.07088700  1
  O  O43  1  0.89739100  0.09463100  0.47966600  1
  O  O44  1  0.62832900  0.45764300  0.92911300  1
  O  O45  1  0.94471500  0.66333100  0.18769900  1
  O  O46  1  0.61217200  0.00000000  0.75000000  1
  O  O47  1  0.12146600  0.88792200  0.04141900  1
  O  O48  1  0.38782800  0.00000000  0.25000000  1
  O  O49  1  0.45644000  0.66000700  0.62952900  1
  O  O50  1  0.05528500  0.33666900  0.81230100  1
  O  O51  1  0.96554400  0.80217100  0.81448900  1
loop_
_geom_bond_atom_site_label_1
_geom_bond_atom_site_label_2
_geom_bond_distance
_geom_bond_site_symmetry_2
K0 O45 2.684693 1_555
K0 O39 2.725820 1_555
K0 O24 2.838967 1_554
K0 O40 2.857821 1_655
K0 O12 2.859777 1_655
K0 O20 2.891573 1_655
K0 O9 3.158755 1_555
K1 O0 2.684698 1_555
K1 O37 2.725823 1_555
K1 O4 2.838964 1_555
K1 O16 2.857817 1_555
K1 O17 2.859773 1_555
K1 O23 2.891567 1_555
K1 O30 3.158759 1_555
K2 O50 2.684693 1_555
K2 O2 2.725820 1_555
K2 O47 2.838967 1_556
K2 O41 2.857821 1_455
K2 O22 2.859777 1_455
K2 O51 2.891573 1_455
K2 O13 3.158755 1_555
K3 O32 2.684698 1_555
K3 O35 2.725823 1_555
K3 O7 2.838964 1_555
K3 O15 2.857817 1_555
K3 O49 2.859773 1_555
K3 O28 2.891567 1_555
K3 O27 3.158759 1_555
Na0 O33 2.316297 1_455
Na0 O40 2.410104 1_555
Na0 O31 2.445176 1_555
Na0 O10 2.507289 1_555
Na0 O25 2.604080 1_555
Na0 O5 2.641781 1_555
Na0 O21 2.938973 1_455
Na1 O44 2.316297 1_555
Na1 O15 2.410104 1_555
Na1 O36 2.445180 1_556
Na1 O3 2.507289 1_556
Na1 O34 2.604078 1_555
Na1 O42 2.641786 1_556
Na1 O1 2.938973 1_556
Na2 O5 2.316291 1_655
Na2 O41 2.410104 1_555
Na2 O43 2.445176 1_555
Na2 O8 2.507289 1_555
Na2 O11 2.604080 1_555
Na2 O33 2.641786 1_555
Na2 O26 2.938973 1_655
Na3 O42 2.316297 1_555
Na3 O16 2.410104 1_555
Na3 O6 2.445180 1_554
Na3 O29 2.507289 1_554
Na3 O38 2.604078 1_555
Na3 O44 2.641786 1_554
Na3 O18 2.938973 1_554
Cu0 O19 1.956239 1_565
Cu0 O46 1.961270 1_565
Cu0 O32 1.970422 1_555
Cu0 O49 1.982999 1_555
Cu1 O14 1.956830 1_655
Cu1 O43 1.976224 1_555
Cu1 O23 2.004544 1_545
Cu1 O26 2.026382 1_655
Cu1 O7 2.376260 1_655
Cu2 O14 1.956830 1_665
Cu2 O36 1.976218 1_555
Cu2 O20 2.004544 1_665
Cu2 O1 2.026382 1_555
Cu2 O47 2.376260 1_655
Cu3 O14 1.956239 1_565
Cu3 O48 1.961270 1_565
Cu3 O45 1.970422 1_455
Cu3 O12 1.982999 1_555
Cu4 O19 1.956830 1_455
Cu4 O6 1.976218 1_555
Cu4 O51 2.004544 1_445
Cu4 O18 2.026382 1_555
Cu4 O24 2.376260 1_455
Cu5 O48 1.965348 1_555
Cu5 O39 1.992586 1_555
Cu5 O3 1.994906 1_545
Cu5 O9 2.031186 1_555
Cu5 O38 2.336370 1_555
Cu6 O46 1.965354 1_555
Cu6 O35 1.992580 1_555
Cu6 O10 1.994904 1_545
Cu6 O27 2.031184 1_555
Cu6 O11 2.336370 1_555
Cu7 O14 1.956239 1_555
Cu7 O48 1.961270 1_555
Cu7 O0 1.970422 1_555
Cu7 O17 1.982999 1_555
Cu8 O19 1.956239 1_555
Cu8 O46 1.961270 1_555
Cu8 O50 1.970422 1_655
Cu8 O22 1.982999 1_555
Cu9 O46 1.965348 1_565
Cu9 O2 1.992586 1_555
Cu9 O29 1.994906 1_565
Cu9 O13 2.031186 1_555
Cu9 O34 2.336370 1_555
Cu10 O48 1.965354 1_565
Cu10 O37 1.992580 1_555
Cu10 O8 1.994904 1_565
Cu10 O30 2.031184 1_555
Cu10 O25 2.336370 1_555
Cu11 O19 1.956830 1_465
Cu11 O31 1.976224 1_555
Cu11 O28 2.004544 1_565
Cu11 O21 2.026382 1_455
Cu11 O4 2.376260 1_455
O0 S3 1.510213 1_555
O1 S5 1.496021 1_555
O2 S10 1.502550 1_566
O3 S4 1.513634 1_555
O4 S11 1.482253 1_565
O5 S9 1.459277 1_555
O6 S10 1.506664 1_556
O7 S8 1.482263 1_545
O8 S7 1.513634 1_555
O9 S7 1.494897 1_555
O10 S9 1.513634 1_555
O11 S11 1.485725 1_555
O12 S4 1.508948 1_555
O13 S9 1.494897 1_555
O15 S6 1.463237 1_555
O16 S5 1.463237 1_555
O17 S7 1.508948 1_555
O18 S6 1.496021 1_555
O20 S3 1.507300 1_555
O21 S1 1.496021 1_555
O22 S2 1.508948 1_555
O23 S5 1.507300 1_555
O24 S0 1.482263 1_545
O25 S8 1.485719 1_555
O26 S3 1.496021 1_555
O27 S2 1.494897 1_555
O28 S6 1.507300 1_555
O29 S2 1.513634 1_555
O30 S4 1.494897 1_555
O31 S8 1.506648 1_555
O32 S1 1.510213 1_555
O33 S7 1.459273 1_555
O34 S0 1.485714 1_555
O35 S8 1.502555 1_545
O36 S0 1.506654 1_554
O37 S11 1.502556 1_565
O38 S10 1.485716 1_555
O39 S0 1.502555 1_544
O40 S3 1.463237 1_555
O41 S1 1.463237 1_555
O42 S4 1.459273 1_555
O43 S11 1.506651 1_555
O44 S2 1.459273 1_555
O45 S5 1.510213 1_555
O47 S10 1.482257 1_565
O49 S9 1.508948 1_555
O50 S6 1.510213 1_555
O51 S1 1.507300 1_555
