# generated using pymatgen
data_Na3TmSi2O7
_symmetry_space_group_name_H-M   'P 1'
_cell_length_a   9.45910729
_cell_length_b   9.45910729
_cell_length_c   13.83395300
_cell_angle_alpha   90.00000000
_cell_angle_beta   90.00000000
_cell_angle_gamma   119.99999500
_symmetry_Int_Tables_number   1
_chemical_formula_structural   Na3TmSi2O7
_chemical_formula_sum   'Na18 Tm6 Si12 O42'
_cell_volume   1071.95672197
_cell_formula_units_Z   6
loop_
 _symmetry_equiv_pos_site_id
 _symmetry_equiv_pos_as_xyz
  1  'x, y, z'
loop_
 _atom_site_type_symbol
 _atom_site_label
 _atom_site_symmetry_multiplicity
 _atom_site_fract_x
 _atom_site_fract_y
 _atom_site_fract_z
 _atom_site_occupancy
  Na  Na0  1  0.33194200  0.01558500  0.39279000  1
  Na  Na1  1  0.66805800  0.98441500  0.89279000  1
  Na  Na2  1  0.00000000  0.00000000  0.48139200  1
  Na  Na3  1  0.31568100  0.33100200  0.56986700  1
  Na  Na4  1  0.68364300  0.66805800  0.39279000  1
  Na  Na5  1  0.98441500  0.31635700  0.39279000  1
  Na  Na6  1  0.66899800  0.98467900  0.56986700  1
  Na  Na7  1  0.66666700  0.33333300  0.23158400  1
  Na  Na8  1  0.31635700  0.33194200  0.89279000  1
  Na  Na9  1  0.98467900  0.31568100  0.06986700  1
  Na  Na10  1  0.01532100  0.68431900  0.56986700  1
  Na  Na11  1  0.01558500  0.68364300  0.89279000  1
  Na  Na12  1  0.68431900  0.66899800  0.06986700  1
  Na  Na13  1  0.00000000  0.00000000  0.98139200  1
  Na  Na14  1  0.33333300  0.66666700  0.73158400  1
  Na  Na15  1  0.66666700  0.33333300  0.71455900  1
  Na  Na16  1  0.33100200  0.01532100  0.06986700  1
  Na  Na17  1  0.33333300  0.66666700  0.21455900  1
  Tm  Tm0  1  0.66666700  0.33333300  0.46289800  1
  Tm  Tm1  1  0.00000000  0.00000000  0.23184500  1
  Tm  Tm2  1  0.00000000  0.00000000  0.73184500  1
  Tm  Tm3  1  0.66666700  0.33333300  0.99992000  1
  Tm  Tm4  1  0.33333300  0.66666700  0.96289800  1
  Tm  Tm5  1  0.33333300  0.66666700  0.49992000  1
  Si  Si0  1  0.01882600  0.67205000  0.34200300  1
  Si  Si1  1  0.65279100  0.98197600  0.12313800  1
  Si  Si2  1  0.67081500  0.65279100  0.62313800  1
  Si  Si3  1  0.34677600  0.01882600  0.84200300  1
  Si  Si4  1  0.32918500  0.34720900  0.12313800  1
  Si  Si5  1  0.98197600  0.32918500  0.62313800  1
  Si  Si6  1  0.32795000  0.34677600  0.34200300  1
  Si  Si7  1  0.98117400  0.32795000  0.84200300  1
  Si  Si8  1  0.01802400  0.67081500  0.12313800  1
  Si  Si9  1  0.67205000  0.65322400  0.84200300  1
  Si  Si10  1  0.34720900  0.01802400  0.62313800  1
  Si  Si11  1  0.65322400  0.98117400  0.34200300  1
  O  O0  1  0.15126800  0.95426100  0.62293300  1
  O  O1  1  0.55485100  0.82719200  0.04881400  1
  O  O2  1  0.27234100  0.44514900  0.04881400  1
  O  O3  1  0.72765900  0.55485100  0.54881400  1
  O  O4  1  0.90079500  0.32355300  0.73266600  1
  O  O5  1  0.82910000  0.26963700  0.91829500  1
  O  O6  1  0.80299300  0.84873200  0.62293300  1
  O  O7  1  0.04573900  0.19700700  0.62293300  1
  O  O8  1  0.48475500  0.61234600  0.60147000  1
  O  O9  1  0.09920500  0.67644700  0.23266600  1
  O  O10  1  0.87240900  0.48475500  0.10147000  1
  O  O11  1  0.87290100  0.48584800  0.36362500  1
  O  O12  1  0.80274900  0.84970500  0.84066700  1
  O  O13  1  0.51415200  0.38705300  0.36362500  1
  O  O14  1  0.84873200  0.04573900  0.12293300  1
  O  O15  1  0.73036300  0.55946300  0.91829500  1
  O  O16  1  0.61234600  0.12759100  0.10147000  1
  O  O17  1  0.42275800  0.09920500  0.73266600  1
  O  O18  1  0.61294700  0.12709900  0.36362500  1
  O  O19  1  0.44053700  0.17090000  0.91829500  1
  O  O20  1  0.04695600  0.19725100  0.84066700  1
  O  O21  1  0.67644700  0.57724200  0.73266600  1
  O  O22  1  0.38765400  0.87240900  0.60147000  1
  O  O23  1  0.84970500  0.04695600  0.34066700  1
  O  O24  1  0.17090000  0.73036300  0.41829500  1
  O  O25  1  0.82719200  0.27234100  0.54881400  1
  O  O26  1  0.38705300  0.87290100  0.86362500  1
  O  O27  1  0.12759100  0.51524500  0.60147000  1
  O  O28  1  0.19700700  0.15126800  0.12293300  1
  O  O29  1  0.17280800  0.72765900  0.04881400  1
  O  O30  1  0.51524500  0.38765400  0.10147000  1
  O  O31  1  0.26963700  0.44053700  0.41829500  1
  O  O32  1  0.55946300  0.82910000  0.41829500  1
  O  O33  1  0.95304400  0.80274900  0.34066700  1
  O  O34  1  0.57724200  0.90079500  0.23266600  1
  O  O35  1  0.44514900  0.17280800  0.54881400  1
  O  O36  1  0.48584800  0.61294700  0.86362500  1
  O  O37  1  0.19725100  0.15029500  0.34066700  1
  O  O38  1  0.12709900  0.51415200  0.86362500  1
  O  O39  1  0.32355300  0.42275800  0.23266600  1
  O  O40  1  0.95426100  0.80299300  0.12293300  1
  O  O41  1  0.15029500  0.95304400  0.84066700  1
loop_
_geom_bond_atom_site_label_1
_geom_bond_atom_site_label_2
_geom_bond_distance
_geom_bond_site_symmetry_2
Na0 O37 2.321699 1_555
Na0 O18 2.353067 1_555
Na0 O24 2.369403 1_545
Na0 O35 2.534699 1_555
Na1 O12 2.321699 1_555
Na1 O26 2.353067 1_555
Na1 O5 2.369403 1_565
Na1 O1 2.534699 1_556
Na2 O23 2.576780 1_455
Na2 O33 2.576780 1_445
Na2 O37 2.576780 1_555
Na2 O0 2.586050 1_545
Na2 O7 2.586050 1_555
Na2 O6 2.586050 1_445
Na3 O7 2.330008 1_555
Na3 O8 2.361156 1_555
Na3 O35 2.378291 1_555
Na3 O31 2.472084 1_555
Na4 O33 2.321699 1_555
Na4 O13 2.353067 1_555
Na4 O32 2.369403 1_555
Na4 O3 2.534699 1_555
Na5 O23 2.321699 1_555
Na5 O11 2.353067 1_555
Na5 O31 2.369403 1_655
Na5 O25 2.534699 1_555
Na6 O6 2.330007 1_555
Na6 O22 2.361156 1_555
Na6 O25 2.378291 1_565
Na6 O32 2.472084 1_555
Na7 O16 2.508277 1_555
Na7 O10 2.508278 1_555
Na7 O30 2.508283 1_555
Na7 O18 2.531631 1_555
Na7 O11 2.531633 1_555
Na7 O13 2.531637 1_555
Na8 O20 2.321699 1_555
Na8 O36 2.353067 1_555
Na8 O19 2.369403 1_555
Na8 O2 2.534699 1_556
Na9 O14 2.330008 1_555
Na9 O10 2.361156 1_555
Na9 O2 2.378291 1_655
Na9 O5 2.472084 1_554
Na10 O0 2.330008 1_555
Na10 O27 2.361156 1_555
Na10 O3 2.378291 1_455
Na10 O24 2.472084 1_555
Na11 O41 2.321699 1_555
Na11 O38 2.353067 1_555
Na11 O15 2.369403 1_455
Na11 O29 2.534699 1_556
Na12 O40 2.330008 1_555
Na12 O30 2.361156 1_555
Na12 O1 2.378291 1_555
Na12 O15 2.472084 1_554
Na13 O41 2.576780 1_545
Na13 O20 2.576780 1_555
Na13 O12 2.576780 1_445
Na13 O14 2.586050 1_456
Na13 O40 2.586050 1_446
Na13 O28 2.586050 1_556
Na14 O22 2.508277 1_555
Na14 O27 2.508278 1_555
Na14 O8 2.508283 1_555
Na14 O26 2.531631 1_555
Na14 O38 2.531633 1_555
Na14 O36 2.531637 1_555
Na15 O4 2.276141 1_555
Na15 O17 2.276146 1_555
Na15 O21 2.276151 1_555
Na16 O28 2.330007 1_555
Na16 O16 2.361156 1_555
Na16 O29 2.378291 1_545
Na16 O19 2.472084 1_554
Na17 O9 2.276141 1_555
Na17 O34 2.276146 1_555
Na17 O39 2.276151 1_555
O0 Si10 1.637407 1_565
O0 Tm2 2.263560 1_565
O1 Si1 1.643987 1_555
O1 Tm4 2.219724 1_554
O2 Si4 1.643987 1_555
O2 Tm4 2.219726 1_554
O3 Si2 1.643987 1_555
O3 Tm0 2.219726 1_555
O4 Si7 1.684052 1_555
O4 Si5 1.687438 1_555
O5 Si7 1.641325 1_555
O5 Tm3 2.219139 1_555
O6 Si2 1.637407 1_555
O6 Tm2 2.263560 1_665
O7 Si5 1.637407 1_455
O7 Tm2 2.263560 1_555
O8 Si2 1.631062 1_555
O8 Tm5 2.241670 1_555
O9 Si0 1.684052 1_555
O9 Si8 1.687438 1_555
O10 Si8 1.631063 1_655
O10 Tm3 2.241665 1_554
O11 Si0 1.632723 1_655
O11 Tm0 2.226786 1_555
O12 Si9 1.638665 1_555
O12 Tm2 2.261897 1_665
O13 Si6 1.632723 1_555
O13 Tm0 2.226791 1_555
O14 Si1 1.637407 1_545
O14 Tm1 2.263560 1_655
O15 Si9 1.641325 1_555
O15 Tm3 2.219147 1_555
O16 Si1 1.631062 1_545
O16 Tm3 2.241663 1_554
O17 Si3 1.684052 1_555
O17 Si10 1.687438 1_555
O18 Si11 1.632723 1_545
O18 Tm0 2.226784 1_555
O19 Si3 1.641325 1_555
O19 Tm3 2.219145 1_555
O20 Si7 1.638665 1_455
O20 Tm2 2.261897 1_555
O21 Si9 1.684052 1_555
O21 Si2 1.687438 1_555
O22 Si10 1.631062 1_565
O22 Tm5 2.241663 1_555
O23 Si11 1.638665 1_545
O23 Tm1 2.261897 1_655
O24 Si0 1.641325 1_555
O24 Tm5 2.219139 1_555
O25 Si5 1.643987 1_555
O25 Tm0 2.219719 1_555
O26 Si3 1.632723 1_565
O26 Tm4 2.226784 1_555
O27 Si5 1.631063 1_455
O27 Tm5 2.241665 1_555
O28 Si4 1.637407 1_555
O28 Tm1 2.263560 1_555
O29 Si8 1.643987 1_555
O29 Tm4 2.219719 1_554
O30 Si4 1.631062 1_555
O30 Tm3 2.241670 1_554
O31 Si6 1.641325 1_555
O31 Tm5 2.219147 1_555
O32 Si11 1.641325 1_555
O32 Tm5 2.219145 1_555
O33 Si0 1.638665 1_655
O33 Tm1 2.261897 1_665
O34 Si11 1.684052 1_555
O34 Si1 1.687438 1_555
O35 Si10 1.643987 1_555
O35 Tm0 2.219724 1_555
O36 Si9 1.632723 1_555
O36 Tm4 2.226791 1_555
O37 Si6 1.638665 1_555
O37 Tm1 2.261897 1_555
O38 Si7 1.632723 1_455
O38 Tm4 2.226786 1_555
O39 Si6 1.684052 1_555
O39 Si4 1.687438 1_555
O40 Si8 1.637407 1_655
O40 Tm1 2.263560 1_665
O41 Si3 1.638665 1_565
O41 Tm2 2.261897 1_565
