# generated using pymatgen
data_ZnB3Ir4
_symmetry_space_group_name_H-M   'P 1'
_cell_length_a   2.80352862
_cell_length_b   2.83281854
_cell_length_c   23.29214006
_cell_angle_alpha   90.00000000
_cell_angle_beta   90.00000000
_cell_angle_gamma   90.00000000
_symmetry_Int_Tables_number   1
_chemical_formula_structural   ZnB3Ir4
_chemical_formula_sum   'Zn2 B6 Ir8'
_cell_volume   184.98356419
_cell_formula_units_Z   2
loop_
 _symmetry_equiv_pos_site_id
 _symmetry_equiv_pos_as_xyz
  1  'x, y, z'
loop_
 _atom_site_type_symbol
 _atom_site_label
 _atom_site_symmetry_multiplicity
 _atom_site_fract_x
 _atom_site_fract_y
 _atom_site_fract_z
 _atom_site_occupancy
  Zn  Zn0  1  0.50000000  0.00000000  0.50000000  1
  Zn  Zn1  1  -0.00000000  0.00000000  -0.00000000  1
  B  B0  1  0.50000000  0.00000000  0.37692049  1
  B  B1  1  0.00000000  0.00000000  0.12116281  1
  B  B2  1  0.00000000  0.00000000  0.87883719  1
  B  B3  1  0.00000000  0.50000000  0.23969494  1
  B  B4  1  0.00000000  0.50000000  0.76030506  1
  B  B5  1  0.50000000  0.00000000  0.62307951  1
  Ir  Ir0  1  0.50000000  0.50000000  0.91627178  1
  Ir  Ir1  1  0.50000000  0.00000000  0.19624375  1
  Ir  Ir2  1  -0.00000000  -0.00000000  0.69286424  1
  Ir  Ir3  1  0.50000000  0.00000000  0.80375625  1
  Ir  Ir4  1  0.50000000  0.50000000  0.08372822  1
  Ir  Ir5  1  -0.00000000  0.00000000  0.30713576  1
  Ir  Ir6  1  0.00000000  0.50000000  0.41727816  1
  Ir  Ir7  1  0.00000000  0.50000000  0.58272184  1
loop_
_geom_bond_atom_site_label_1
_geom_bond_atom_site_label_2
_geom_bond_distance
_geom_bond_site_symmetry_2
B0 Ir5 2.146389 1_655
B0 Ir5 2.146389 1_555
B0 Ir6 2.203359 1_545
B0 Ir6 2.203359 1_655
B0 Ir6 2.203359 1_645
B0 Ir6 2.203359 1_555
B1 Ir4 2.175184 1_555
B1 Ir4 2.175184 1_445
B1 Ir4 2.175184 1_545
B1 Ir4 2.175184 1_455
B1 Ir1 2.241256 1_555
B1 Ir1 2.241256 1_455
B2 Ir0 2.175184 1_455
B2 Ir0 2.175184 1_445
B2 Ir0 2.175184 1_555
B2 Ir0 2.175184 1_545
B2 Ir3 2.241256 1_455
B2 Ir3 2.241256 1_555
B3 Ir5 2.115126 1_555
B3 Ir5 2.115126 1_565
B3 Ir1 2.235050 1_465
B3 Ir1 2.235050 1_455
B3 Ir1 2.235050 1_565
B3 Ir1 2.235050 1_555
B4 Ir2 2.115126 1_565
B4 Ir2 2.115126 1_555
B4 Ir3 2.235050 1_565
B4 Ir3 2.235050 1_555
B4 Ir3 2.235050 1_465
B4 Ir3 2.235050 1_455
B5 Ir2 2.146389 1_555
B5 Ir2 2.146389 1_655
B5 Ir7 2.203359 1_655
B5 Ir7 2.203359 1_545
B5 Ir7 2.203359 1_645
B5 Ir7 2.203359 1_555
Ir0 Zn1 2.788275 1_666
Ir0 Zn1 2.788275 1_656
Ir0 Zn1 2.788275 1_556
Ir0 Zn1 2.788275 1_566
Ir4 Zn1 2.788275 1_665
Ir4 Zn1 2.788275 1_655
Ir4 Zn1 2.788275 1_565
Ir4 Zn1 2.788275 1_555
Ir6 Zn0 2.771930 1_455
Ir6 Zn0 2.771930 1_465
Ir6 Zn0 2.771930 1_555
Ir6 Zn0 2.771930 1_565
Ir7 Zn0 2.771930 1_455
Ir7 Zn0 2.771930 1_465
Ir7 Zn0 2.771930 1_555
Ir7 Zn0 2.771930 1_565
