# generated using pymatgen
data_Zr3Cd3AgF20
_symmetry_space_group_name_H-M   'P 1'
_cell_length_a   10.75703698
_cell_length_b   10.75703698
_cell_length_c   8.52095100
_cell_angle_alpha   90.00000000
_cell_angle_beta   90.00000000
_cell_angle_gamma   119.99999373
_symmetry_Int_Tables_number   1
_chemical_formula_structural   Zr3Cd3AgF20
_chemical_formula_sum   'Zr6 Cd6 Ag2 F40'
_cell_volume   853.89417373
_cell_formula_units_Z   2
loop_
 _symmetry_equiv_pos_site_id
 _symmetry_equiv_pos_as_xyz
  1  'x, y, z'
loop_
 _atom_site_type_symbol
 _atom_site_label
 _atom_site_symmetry_multiplicity
 _atom_site_fract_x
 _atom_site_fract_y
 _atom_site_fract_z
 _atom_site_occupancy
  Zr  Zr0  1  0.58462700  0.72246200  0.25000000  1
  Zr  Zr1  1  0.86216500  0.58462700  0.75000000  1
  Zr  Zr2  1  0.41537300  0.27753800  0.75000000  1
  Zr  Zr3  1  0.13783500  0.41537300  0.25000000  1
  Zr  Zr4  1  0.27753800  0.86216500  0.25000000  1
  Zr  Zr5  1  0.72246200  0.13783500  0.75000000  1
  Cd  Cd0  1  0.16267800  0.43391500  0.75000000  1
  Cd  Cd1  1  0.56608500  0.72876300  0.75000000  1
  Cd  Cd2  1  0.83732200  0.56608500  0.25000000  1
  Cd  Cd3  1  0.72876300  0.16267800  0.25000000  1
  Cd  Cd4  1  0.27123700  0.83732200  0.75000000  1
  Cd  Cd5  1  0.43391500  0.27123700  0.25000000  1
  Ag  Ag0  1  0.00000000  0.00000000  0.25000000  1
  Ag  Ag1  1  0.00000000  0.00000000  0.75000000  1
  F  F0  1  0.36653000  0.55013500  0.25000000  1
  F  F1  1  0.72018900  0.14541700  0.98776100  1
  F  F2  1  0.76500000  0.96500700  0.75000000  1
  F  F3  1  0.77536400  0.71943400  0.75000000  1
  F  F4  1  0.00000000  0.00000000  0.00000000  1
  F  F5  1  0.20000600  0.23500000  0.75000000  1
  F  F6  1  0.03499300  0.79999400  0.75000000  1
  F  F7  1  0.05593000  0.77536400  0.25000000  1
  F  F8  1  0.27981100  0.85458300  0.48776100  1
  F  F9  1  0.14541700  0.42522800  0.48776100  1
  F  F10  1  0.63347000  0.44986500  0.75000000  1
  F  F11  1  0.94069800  0.41313800  0.25000000  1
  F  F12  1  0.79999400  0.76500000  0.25000000  1
  F  F13  1  0.85458300  0.57477200  0.98776100  1
  F  F14  1  0.57477200  0.72018900  0.01223900  1
  F  F15  1  0.23500000  0.03499300  0.25000000  1
  F  F16  1  0.71943400  0.94407000  0.25000000  1
  F  F17  1  0.81639500  0.36653000  0.75000000  1
  F  F18  1  0.22463600  0.28056600  0.25000000  1
  F  F19  1  0.47244000  0.05930200  0.25000000  1
  F  F20  1  0.27981100  0.85458300  0.01223900  1
  F  F21  1  0.52756000  0.94069800  0.75000000  1
  F  F22  1  0.42522800  0.27981100  0.98776100  1
  F  F23  1  0.41313800  0.47244000  0.75000000  1
  F  F24  1  0.14541700  0.42522800  0.01223900  1
  F  F25  1  0.72018900  0.14541700  0.51223900  1
  F  F26  1  0.28056600  0.05593000  0.75000000  1
  F  F27  1  0.85458300  0.57477200  0.51223900  1
  F  F28  1  0.05930200  0.58686200  0.75000000  1
  F  F29  1  0.44986500  0.81639500  0.25000000  1
  F  F30  1  0.00000000  0.00000000  0.50000000  1
  F  F31  1  0.58686200  0.52756000  0.25000000  1
  F  F32  1  0.55013500  0.18360500  0.75000000  1
  F  F33  1  0.94407000  0.22463600  0.75000000  1
  F  F34  1  0.42522800  0.27981100  0.51223900  1
  F  F35  1  0.66666700  0.33333300  0.25000000  1
  F  F36  1  0.96500700  0.20000600  0.25000000  1
  F  F37  1  0.57477200  0.72018900  0.48776100  1
  F  F38  1  0.18360500  0.63347000  0.25000000  1
  F  F39  1  0.33333300  0.66666700  0.75000000  1
loop_
_geom_bond_atom_site_label_1
_geom_bond_atom_site_label_2
_geom_bond_distance
_geom_bond_site_symmetry_2
Cd0 F9 2.240304 1_555
Cd0 F24 2.240304 1_556
Cd0 F39 2.245526 1_555
Cd0 F33 2.303039 1_455
Cd0 F5 2.366197 1_555
Cd0 F28 2.402710 1_555
Cd0 F23 2.512762 1_555
Cd1 F37 2.240304 1_555
Cd1 F14 2.240304 1_556
Cd1 F39 2.245528 1_555
Cd1 F3 2.303038 1_555
Cd1 F2 2.366204 1_555
Cd1 F23 2.402710 1_555
Cd1 F21 2.512762 1_555
Cd2 F13 2.240304 1_554
Cd2 F27 2.240304 1_555
Cd2 F35 2.245526 1_555
Cd2 F7 2.303039 1_655
Cd2 F12 2.366197 1_555
Cd2 F11 2.402710 1_555
Cd2 F31 2.512762 1_555
Cd3 F1 2.240304 1_554
Cd3 F25 2.240304 1_555
Cd3 F35 2.245518 1_555
Cd3 F16 2.303039 1_545
Cd3 F36 2.366208 1_555
Cd3 F19 2.402710 1_555
Cd3 F11 2.512762 1_555
Cd4 F8 2.240304 1_555
Cd4 F20 2.240304 1_556
Cd4 F39 2.245518 1_555
Cd4 F26 2.303039 1_565
Cd4 F6 2.366208 1_555
Cd4 F21 2.402710 1_555
Cd4 F28 2.512762 1_555
Cd5 F22 2.240304 1_554
Cd5 F34 2.240304 1_555
Cd5 F35 2.245528 1_555
Cd5 F18 2.303038 1_555
Cd5 F15 2.366204 1_555
Cd5 F31 2.402710 1_555
Cd5 F19 2.512762 1_555
Ag0 F4 2.130238 1_555
Ag0 F30 2.130238 1_555
Ag0 F36 2.362283 1_455
Ag0 F12 2.362290 1_445
Ag0 F15 2.362294 1_555
Ag1 F4 2.130238 1_556
Ag1 F30 2.130238 1_555
Ag1 F6 2.362283 1_545
Ag1 F5 2.362290 1_555
Ag1 F2 2.362294 1_445
F0 Zr3 2.141780 1_555
F0 Zr0 2.142755 1_555
F1 Zr5 2.028230 1_555
F2 Zr5 2.125182 1_565
F3 Zr1 2.080554 1_555
F5 Zr2 2.125193 1_555
F6 Zr1 2.125189 1_455
F7 Zr4 2.080555 1_555
F8 Zr4 2.028230 1_555
F9 Zr3 2.028230 1_555
F10 Zr1 2.141780 1_555
F10 Zr2 2.142755 1_555
F11 Zr3 2.108692 1_655
F12 Zr0 2.125193 1_555
F13 Zr1 2.028230 1_555
F14 Zr0 2.028230 1_555
F15 Zr4 2.125182 1_545
F16 Zr0 2.080555 1_555
F17 Zr5 2.141780 1_555
F17 Zr1 2.142755 1_555
F18 Zr3 2.080554 1_555
F19 Zr4 2.108692 1_545
F20 Zr4 2.028230 1_555
F21 Zr5 2.108692 1_565
F22 Zr2 2.028230 1_555
F23 Zr2 2.108692 1_555
F24 Zr3 2.028230 1_555
F25 Zr5 2.028230 1_555
F26 Zr2 2.080555 1_555
F27 Zr1 2.028230 1_555
F28 Zr1 2.108692 1_455
F29 Zr0 2.141780 1_555
F29 Zr4 2.142755 1_555
F31 Zr0 2.108692 1_555
F32 Zr2 2.141780 1_555
F32 Zr5 2.142755 1_555
F33 Zr5 2.080555 1_555
F34 Zr2 2.028230 1_555
F36 Zr3 2.125189 1_655
F37 Zr0 2.028230 1_555
F38 Zr4 2.141780 1_555
F38 Zr3 2.142755 1_555
