# generated using pymatgen
data_CsB5O8
_symmetry_space_group_name_H-M   'P 1'
_cell_length_a   10.02456900
_cell_length_b   7.17965500
_cell_length_c   11.66819396
_cell_angle_alpha   63.15435493
_cell_angle_beta   90.00000000
_cell_angle_gamma   90.00000000
_symmetry_Int_Tables_number   1
_chemical_formula_structural   CsB5O8
_chemical_formula_sum   'Cs4 B20 O32'
_cell_volume   749.28659956
_cell_formula_units_Z   4
loop_
 _symmetry_equiv_pos_site_id
 _symmetry_equiv_pos_as_xyz
  1  'x, y, z'
loop_
 _atom_site_type_symbol
 _atom_site_label
 _atom_site_symmetry_multiplicity
 _atom_site_fract_x
 _atom_site_fract_y
 _atom_site_fract_z
 _atom_site_occupancy
  Cs  Cs0  1  0.99301600  0.30292900  0.77708500  1
  Cs  Cs1  1  0.00698400  0.69707100  0.22291500  1
  Cs  Cs2  1  0.49301600  0.69707100  0.72291500  1
  Cs  Cs3  1  0.50698400  0.30292900  0.27708500  1
  B  B0  1  0.74936100  0.52840200  0.48777100  1
  B  B1  1  0.90494800  0.27035100  0.13280800  1
  B  B2  1  0.09505200  0.72964900  0.86719200  1
  B  B3  1  0.41240500  0.13125100  0.82044300  1
  B  B4  1  0.59505200  0.27035100  0.63280800  1
  B  B5  1  0.80781200  0.85190700  0.49776300  1
  B  B6  1  0.72392800  0.16333000  0.02935100  1
  B  B7  1  0.30781200  0.14809300  0.00223700  1
  B  B8  1  0.40494800  0.72964900  0.36719200  1
  B  B9  1  0.19218800  0.14809300  0.50223700  1
  B  B10  1  0.91240500  0.86874900  0.67955700  1
  B  B11  1  0.25063900  0.47159800  0.51222900  1
  B  B12  1  0.58759500  0.86874900  0.17955700  1
  B  B13  1  0.22392800  0.83667000  0.47064900  1
  B  B14  1  0.69218800  0.85190700  0.99776300  1
  B  B15  1  0.08759500  0.13125100  0.32044300  1
  B  B16  1  0.77607200  0.16333000  0.52935100  1
  B  B17  1  0.27607200  0.83667000  0.97064900  1
  B  B18  1  0.75063900  0.52840200  0.98777100  1
  B  B19  1  0.24936100  0.47159800  0.01222900  1
  O  O0  1  0.22721300  0.94344000  0.55329900  1
  O  O1  1  0.29070900  0.26534300  0.06848500  1
  O  O2  1  0.14374900  0.87206800  0.90287800  1
  O  O3  1  0.63485800  0.75010700  0.12007800  1
  O  O4  1  0.61798600  0.07453100  0.12968100  1
  O  O5  1  0.51193400  0.76083600  0.28755600  1
  O  O6  1  0.27278700  0.94344000  0.05329900  1
  O  O7  1  0.72721300  0.05656000  0.94670100  1
  O  O8  1  0.80137300  0.38872800  0.45117000  1
  O  O9  1  0.88201400  0.07453100  0.62968100  1
  O  O10  1  0.34921700  0.52892500  0.41768000  1
  O  O11  1  0.79070900  0.73465700  0.43151500  1
  O  O12  1  0.48806600  0.23916400  0.71244400  1
  O  O13  1  0.77278700  0.05656000  0.44670100  1
  O  O14  1  0.01193400  0.23916400  0.21244400  1
  O  O15  1  0.64374900  0.12793200  0.59712200  1
  O  O16  1  0.65078300  0.47107500  0.58232000  1
  O  O17  1  0.86514200  0.75010700  0.62007800  1
  O  O18  1  0.98806600  0.76083600  0.78755600  1
  O  O19  1  0.11798600  0.92546900  0.37031900  1
  O  O20  1  0.70929100  0.73465700  0.93151500  1
  O  O21  1  0.15078300  0.52892500  0.91768000  1
  O  O22  1  0.35625100  0.87206800  0.40287800  1
  O  O23  1  0.30137300  0.61127200  0.04883000  1
  O  O24  1  0.85625100  0.12793200  0.09712200  1
  O  O25  1  0.20929100  0.26534300  0.56848500  1
  O  O26  1  0.13485800  0.24989300  0.37992200  1
  O  O27  1  0.36514200  0.24989300  0.87992200  1
  O  O28  1  0.19862700  0.61127200  0.54883000  1
  O  O29  1  0.38201400  0.92546900  0.87031900  1
  O  O30  1  0.84921700  0.47107500  0.08232000  1
  O  O31  1  0.69862700  0.38872800  0.95117000  1
loop_
_geom_bond_atom_site_label_1
_geom_bond_atom_site_label_2
_geom_bond_distance
_geom_bond_site_symmetry_2
Cs0 O9 3.071272 1_555
Cs0 O2 3.147391 1_645
Cs0 O17 3.161485 1_555
Cs0 O21 3.198332 1_655
Cs0 O28 3.304148 1_655
Cs0 O7 3.314180 1_555
Cs0 O18 3.344933 1_555
Cs0 O25 3.360183 1_655
Cs0 O24 3.628415 1_556
Cs1 O19 3.071272 1_555
Cs1 O24 3.147391 1_465
Cs1 O26 3.161485 1_555
Cs1 O30 3.198332 1_455
Cs1 O8 3.304148 1_455
Cs1 O6 3.314180 1_555
Cs1 O14 3.344933 1_555
Cs1 O11 3.360183 1_455
Cs1 O2 3.628415 1_554
Cs2 O29 3.071272 1_555
Cs2 O15 3.147391 1_565
Cs2 O27 3.161485 1_555
Cs2 O16 3.198332 1_555
Cs2 O31 3.304148 1_555
Cs2 O0 3.314180 1_555
Cs2 O12 3.344933 1_555
Cs2 O20 3.360183 1_555
Cs2 O22 3.628415 1_555
Cs3 O4 3.071272 1_555
Cs3 O22 3.147391 1_545
Cs3 O3 3.161485 1_555
Cs3 O10 3.198332 1_555
Cs3 O23 3.304148 1_555
Cs3 O13 3.314180 1_555
Cs3 O5 3.344933 1_555
Cs3 O1 3.360183 1_555
Cs3 O15 3.628415 1_555
B0 O8 1.358924 1_555
B0 O11 1.384791 1_555
B0 O16 1.397472 1_555
B1 O24 1.357121 1_555
B1 O14 1.369628 1_655
B1 O30 1.403298 1_555
B2 O2 1.357121 1_555
B2 O18 1.369628 1_455
B2 O21 1.403298 1_555
B3 O29 1.355643 1_545
B3 O12 1.371764 1_555
B3 O27 1.402012 1_555
B4 O15 1.357121 1_555
B4 O12 1.369628 1_555
B4 O16 1.403298 1_555
B5 O13 1.358875 1_565
B5 O11 1.386824 1_555
B5 O17 1.399733 1_555
B6 O31 1.477164 1_554
B6 O7 1.478656 1_554
B6 O4 1.493564 1_555
B6 O24 1.505968 1_555
B7 O6 1.358875 1_545
B7 O1 1.386824 1_555
B7 O27 1.399733 1_554
B8 O22 1.357121 1_555
B8 O5 1.369628 1_555
B8 O10 1.403298 1_555
B9 O0 1.358875 1_545
B9 O25 1.386824 1_555
B9 O26 1.399733 1_555
B10 O9 1.355643 1_565
B10 O18 1.371764 1_555
B10 O17 1.402012 1_555
B11 O28 1.358924 1_555
B11 O25 1.384791 1_555
B11 O10 1.397472 1_555
B12 O4 1.355643 1_565
B12 O5 1.371764 1_555
B12 O3 1.402012 1_555
B13 O28 1.477164 1_555
B13 O0 1.478656 1_555
B13 O19 1.493564 1_555
B13 O22 1.505968 1_555
B14 O7 1.358875 1_565
B14 O20 1.386824 1_555
B14 O3 1.399733 1_556
B15 O19 1.355643 1_545
B15 O14 1.371764 1_555
B15 O26 1.402012 1_555
B16 O8 1.477164 1_555
B16 O13 1.478656 1_555
B16 O9 1.493564 1_555
B16 O15 1.505968 1_555
B17 O23 1.477164 1_556
B17 O6 1.478656 1_556
B17 O29 1.493564 1_555
B17 O2 1.505968 1_555
B18 O31 1.358924 1_555
B18 O20 1.384791 1_555
B18 O30 1.397472 1_556
B19 O23 1.358924 1_555
B19 O1 1.384791 1_555
B19 O21 1.397472 1_554
