# generated using pymatgen
data_Tl2Cu(CO3)2
_symmetry_space_group_name_H-M   'P 1'
_cell_length_a   9.97449300
_cell_length_b   7.70210900
_cell_length_c   9.27893566
_cell_angle_alpha   68.54942311
_cell_angle_beta   90.00000000
_cell_angle_gamma   90.00000000
_symmetry_Int_Tables_number   1
_chemical_formula_structural   Tl2Cu(CO3)2
_chemical_formula_sum   'Tl8 Cu4 C8 O24'
_cell_volume   663.47404189
_cell_formula_units_Z   4
loop_
 _symmetry_equiv_pos_site_id
 _symmetry_equiv_pos_as_xyz
  1  'x, y, z'
loop_
 _atom_site_type_symbol
 _atom_site_label
 _atom_site_symmetry_multiplicity
 _atom_site_fract_x
 _atom_site_fract_y
 _atom_site_fract_z
 _atom_site_occupancy
  Tl  Tl0  1  0.11041600  0.26575200  0.64804100  1
  Tl  Tl1  1  0.79721600  0.12183600  0.48216000  1
  Tl  Tl2  1  0.29721600  0.87816400  0.01784000  1
  Tl  Tl3  1  0.61041600  0.73424800  0.85195900  1
  Tl  Tl4  1  0.70278400  0.12183600  0.98216000  1
  Tl  Tl5  1  0.38958400  0.26575200  0.14804100  1
  Tl  Tl6  1  0.88958400  0.73424800  0.35195900  1
  Tl  Tl7  1  0.20278400  0.87816400  0.51784000  1
  Cu  Cu0  1  0.10603400  0.53891900  0.92308400  1
  Cu  Cu1  1  0.39396600  0.53891900  0.42308400  1
  Cu  Cu2  1  0.89396600  0.46108100  0.07691600  1
  Cu  Cu3  1  0.60603400  0.46108100  0.57691600  1
  C  C0  1  0.11743900  0.52033700  0.25032500  1
  C  C1  1  0.38256100  0.52033700  0.75032500  1
  C  C2  1  0.95043600  0.86077500  0.90526900  1
  C  C3  1  0.04956400  0.13922500  0.09473100  1
  C  C4  1  0.54956400  0.86077500  0.40526900  1
  C  C5  1  0.45043600  0.13922500  0.59473100  1
  C  C6  1  0.88256100  0.47966300  0.74967500  1
  C  C7  1  0.61743900  0.47966300  0.24967500  1
  O  O0  1  0.50678900  0.46165400  0.76539500  1
  O  O1  1  0.81392600  0.46097700  0.87476700  1
  O  O2  1  0.87492600  0.73906000  0.00904000  1
  O  O3  1  0.68607400  0.46097700  0.37476700  1
  O  O4  1  0.32853700  0.56080500  0.85905200  1
  O  O5  1  0.17146300  0.56080500  0.35905200  1
  O  O6  1  0.00678900  0.53834600  0.73460500  1
  O  O7  1  0.62507400  0.73906000  0.50904000  1
  O  O8  1  0.99321100  0.46165400  0.26539500  1
  O  O9  1  0.18607400  0.53902300  0.12523300  1
  O  O10  1  0.06543700  0.81187300  0.86201400  1
  O  O11  1  0.93456300  0.18812700  0.13798600  1
  O  O12  1  0.56543700  0.18812700  0.63798600  1
  O  O13  1  0.58920600  0.03012500  0.34400900  1
  O  O14  1  0.43456300  0.81187300  0.36201400  1
  O  O15  1  0.82853700  0.43919500  0.64094800  1
  O  O16  1  0.31392600  0.53902300  0.62523300  1
  O  O17  1  0.12507400  0.26094000  0.99096000  1
  O  O18  1  0.08920600  0.96987500  0.15599100  1
  O  O19  1  0.91079400  0.03012500  0.84400900  1
  O  O20  1  0.37492600  0.26094000  0.49096000  1
  O  O21  1  0.49321100  0.53834600  0.23460500  1
  O  O22  1  0.67146300  0.43919500  0.14094800  1
  O  O23  1  0.41079400  0.96987500  0.65599100  1
loop_
_geom_bond_atom_site_label_1
_geom_bond_atom_site_label_2
_geom_bond_distance
_geom_bond_site_symmetry_2
Cu0 O17 2.007603 1_555
Cu0 O10 2.008361 1_555
Cu0 O6 2.011020 1_555
Cu0 O9 2.038830 1_556
Cu0 O4 2.287730 1_555
Cu1 O20 2.007603 1_555
Cu1 O14 2.008361 1_555
Cu1 O21 2.011020 1_555
Cu1 O16 2.038830 1_555
Cu1 O5 2.287730 1_555
Cu2 O2 2.007603 1_555
Cu2 O11 2.008361 1_555
Cu2 O8 2.011020 1_555
Cu2 O1 2.038830 1_554
Cu2 O22 2.287730 1_555
Cu3 O7 2.007603 1_555
Cu3 O12 2.008361 1_555
Cu3 O0 2.011020 1_555
Cu3 O3 2.038830 1_555
Cu3 O15 2.287730 1_555
C0 O5 1.278801 1_555
C0 O8 1.308821 1_455
C0 O9 1.309382 1_555
C1 O4 1.278801 1_555
C1 O0 1.308821 1_555
C1 O16 1.309382 1_555
C2 O19 1.280044 1_565
C2 O2 1.308833 1_556
C2 O10 1.315031 1_655
C3 O18 1.280044 1_545
C3 O17 1.308833 1_554
C3 O11 1.315031 1_455
C4 O13 1.280044 1_565
C4 O7 1.308833 1_555
C4 O14 1.315031 1_555
C5 O23 1.280044 1_545
C5 O20 1.308833 1_555
C5 O12 1.315031 1_555
C6 O15 1.278801 1_555
C6 O6 1.308821 1_655
C6 O1 1.309382 1_555
C7 O22 1.278801 1_555
C7 O21 1.308821 1_555
C7 O3 1.309382 1_555
O0 Tl3 2.712026 1_555
O1 Tl4 2.672311 1_555
O1 Tl3 2.875683 1_555
O3 Tl1 2.672311 1_555
O3 Tl6 2.875683 1_555
O4 Tl5 2.875529 1_556
O5 Tl0 2.875529 1_555
O6 Tl0 2.712026 1_555
O8 Tl6 2.712026 1_555
O9 Tl2 2.672311 1_555
O9 Tl5 2.875683 1_555
O13 Tl1 2.666318 1_555
O13 Tl5 2.855002 1_555
O15 Tl6 2.875529 1_555
O16 Tl7 2.672311 1_555
O16 Tl0 2.875683 1_555
O18 Tl2 2.666318 1_555
O18 Tl6 2.855002 1_455
O19 Tl4 2.666318 1_555
O19 Tl0 2.855002 1_655
O21 Tl5 2.712026 1_555
O22 Tl3 2.875529 1_554
O23 Tl7 2.666318 1_555
O23 Tl3 2.855002 1_555
