# generated using pymatgen
data_Yb4Sb6Rh7
_symmetry_space_group_name_H-M   'P 1'
_cell_length_a   7.58479078
_cell_length_b   7.58479078
_cell_length_c   7.58479078
_cell_angle_alpha   109.47122063
_cell_angle_beta   109.47122063
_cell_angle_gamma   109.47122063
_symmetry_Int_Tables_number   1
_chemical_formula_structural   Yb4Sb6Rh7
_chemical_formula_sum   'Yb4 Sb6 Rh7'
_cell_volume   335.89916682
_cell_formula_units_Z   1
loop_
 _symmetry_equiv_pos_site_id
 _symmetry_equiv_pos_as_xyz
  1  'x, y, z'
loop_
 _atom_site_type_symbol
 _atom_site_label
 _atom_site_symmetry_multiplicity
 _atom_site_fract_x
 _atom_site_fract_y
 _atom_site_fract_z
 _atom_site_occupancy
  Yb  Yb0  1  0.50000000  0.00000000  0.00000000  1
  Yb  Yb1  1  0.00000000  0.50000000  0.00000000  1
  Yb  Yb2  1  0.00000000  0.00000000  0.50000000  1
  Yb  Yb3  1  0.50000000  0.50000000  0.50000000  1
  Sb  Sb0  1  0.31742600  0.00000000  0.31742600  1
  Sb  Sb1  1  0.00000000  0.68257400  0.68257400  1
  Sb  Sb2  1  0.68257400  0.68257400  0.00000000  1
  Sb  Sb3  1  0.68257400  0.00000000  0.68257400  1
  Sb  Sb4  1  0.00000000  0.31742600  0.31742600  1
  Sb  Sb5  1  0.31742600  0.31742600  0.00000000  1
  Rh  Rh0  1  0.25000000  0.50000000  0.75000000  1
  Rh  Rh1  1  0.50000000  0.25000000  0.75000000  1
  Rh  Rh2  1  0.75000000  0.25000000  0.50000000  1
  Rh  Rh3  1  0.50000000  0.75000000  0.25000000  1
  Rh  Rh4  1  0.00000000  0.00000000  0.00000000  1
  Rh  Rh5  1  0.25000000  0.75000000  0.50000000  1
  Rh  Rh6  1  0.75000000  0.50000000  0.25000000  1
loop_
_geom_bond_atom_site_label_1
_geom_bond_atom_site_label_2
_geom_bond_distance
_geom_bond_site_symmetry_2
Sb0 Yb3 3.152285 1_555
Sb0 Yb0 3.152285 1_555
Sb0 Yb1 3.152285 1_545
Sb0 Yb2 3.152285 1_555
Sb1 Yb2 3.152285 1_565
Sb1 Yb0 3.152285 1_566
Sb1 Yb1 3.152285 1_556
Sb1 Yb3 3.152285 1_455
Sb2 Yb3 3.152285 1_554
Sb2 Yb2 3.152285 1_665
Sb2 Yb1 3.152285 1_655
Sb2 Yb0 3.152285 1_565
Sb3 Yb3 3.152285 1_545
Sb3 Yb0 3.152285 1_556
Sb3 Yb2 3.152285 1_655
Sb3 Yb1 3.152285 1_656
Sb4 Yb3 3.152285 1_555
Sb4 Yb2 3.152285 1_555
Sb4 Yb1 3.152285 1_555
Sb4 Yb0 3.152285 1_455
Sb5 Yb3 3.152285 1_555
Sb5 Yb0 3.152285 1_555
Sb5 Yb2 3.152285 1_554
Sb5 Yb1 3.152285 1_555
Rh0 Sb2 2.711260 1_556
Rh0 Sb4 2.711260 1_555
Rh0 Sb1 2.711260 1_555
Rh0 Sb5 2.711260 1_556
Rh0 Yb3 3.096478 1_555
Rh0 Yb0 3.096478 1_566
Rh0 Yb1 3.096478 1_556
Rh0 Yb2 3.096478 1_555
Rh1 Sb2 2.711260 1_556
Rh1 Sb0 2.711260 1_555
Rh1 Sb3 2.711260 1_555
Rh1 Sb5 2.711260 1_556
Rh1 Yb3 3.096478 1_555
Rh1 Yb0 3.096478 1_556
Rh1 Yb1 3.096478 1_656
Rh1 Yb2 3.096478 1_555
Rh2 Sb4 2.711260 1_655
Rh2 Sb0 2.711260 1_555
Rh2 Sb3 2.711260 1_555
Rh2 Sb1 2.711260 1_655
Rh2 Yb3 3.096478 1_555
Rh2 Yb0 3.096478 1_555
Rh2 Yb2 3.096478 1_655
Rh2 Yb1 3.096478 1_656
Rh3 Sb5 2.711260 1_555
Rh3 Sb2 2.711260 1_555
Rh3 Sb3 2.711260 1_565
Rh3 Sb0 2.711260 1_565
Rh3 Yb3 3.096478 1_555
Rh3 Yb2 3.096478 1_665
Rh3 Yb1 3.096478 1_555
Rh3 Yb0 3.096478 1_565
Rh4 Sb3 2.780068 1_454
Rh4 Sb0 2.780068 1_555
Rh4 Sb2 2.780068 1_445
Rh4 Sb4 2.780068 1_555
Rh4 Sb5 2.780068 1_555
Rh4 Sb1 2.780068 1_544
Rh5 Sb4 2.711260 1_555
Rh5 Sb3 2.711260 1_565
Rh5 Sb0 2.711260 1_565
Rh5 Sb1 2.711260 1_555
Rh5 Yb3 3.096478 1_555
Rh5 Yb2 3.096478 1_565
Rh5 Yb0 3.096478 1_566
Rh5 Yb1 3.096478 1_555
Rh6 Sb5 2.711260 1_555
Rh6 Sb2 2.711260 1_555
Rh6 Sb4 2.711260 1_655
Rh6 Sb1 2.711260 1_655
Rh6 Yb3 3.096478 1_555
Rh6 Yb0 3.096478 1_555
Rh6 Yb2 3.096478 1_665
Rh6 Yb1 3.096478 1_655
