# generated using pymatgen
data_BaAlSiH
_symmetry_space_group_name_H-M   'P 1'
_cell_length_a   4.33422752
_cell_length_b   4.33422752
_cell_length_c   5.26255200
_cell_angle_alpha   90.00000000
_cell_angle_beta   90.00000000
_cell_angle_gamma   119.99999268
_symmetry_Int_Tables_number   1
_chemical_formula_structural   BaAlSiH
_chemical_formula_sum   'Ba1 Al1 Si1 H1'
_cell_volume   85.61512098
_cell_formula_units_Z   1
loop_
 _symmetry_equiv_pos_site_id
 _symmetry_equiv_pos_as_xyz
  1  'x, y, z'
loop_
 _atom_site_type_symbol
 _atom_site_label
 _atom_site_symmetry_multiplicity
 _atom_site_fract_x
 _atom_site_fract_y
 _atom_site_fract_z
 _atom_site_occupancy
  Ba  Ba0  1  0.00000000  0.00000000  0.00043600  1
  Al  Al0  1  0.66666700  0.33333300  0.46524800  1
  Si  Si0  1  0.33333300  0.66666700  0.54230700  1
  H  H0  1  0.66666700  0.33333300  0.13491000  1
loop_
_geom_bond_atom_site_label_1
_geom_bond_atom_site_label_2
_geom_bond_distance
_geom_bond_site_symmetry_2
Ba0 H0 2.600507 1_455
Ba0 H0 2.600511 1_445
Ba0 H0 2.600511 1_555
Ba0 Si0 3.474824 1_544
Ba0 Si0 3.474827 1_444
Ba0 Si0 3.474827 1_554
Al0 H0 1.738421 1_555
Al0 Si0 2.535011 1_545
Al0 Si0 2.535011 1_655
Al0 Si0 2.535019 1_555
