# generated using pymatgen
data_Gd(PO3)3
_symmetry_space_group_name_H-M   'P 1'
_cell_length_a   13.47153699
_cell_length_b   13.47153699
_cell_length_c   10.24414505
_cell_angle_alpha   84.18550350
_cell_angle_beta   84.18550350
_cell_angle_gamma   61.17137023
_symmetry_Int_Tables_number   1
_chemical_formula_structural   Gd(PO3)3
_chemical_formula_sum   'Gd8 P24 O72'
_cell_volume   1617.40398983
_cell_formula_units_Z   8
loop_
 _symmetry_equiv_pos_site_id
 _symmetry_equiv_pos_as_xyz
  1  'x, y, z'
loop_
 _atom_site_type_symbol
 _atom_site_label
 _atom_site_symmetry_multiplicity
 _atom_site_fract_x
 _atom_site_fract_y
 _atom_site_fract_z
 _atom_site_occupancy
  Gd  Gd0  1  0.51890700  0.24809000  0.76927600  1
  Gd  Gd1  1  0.01252100  0.25463600  0.26582000  1
  Gd  Gd2  1  0.25463600  0.01252100  0.76582000  1
  Gd  Gd3  1  0.74536400  0.98747900  0.23418000  1
  Gd  Gd4  1  0.48109300  0.75191000  0.23072400  1
  Gd  Gd5  1  0.98747900  0.74536400  0.73418000  1
  Gd  Gd6  1  0.24809000  0.51890700  0.26927600  1
  Gd  Gd7  1  0.75191000  0.48109300  0.73072400  1
  P  P0  1  0.34373100  0.27056900  0.06400500  1
  P  P1  1  0.65876600  0.23822200  0.42663600  1
  P  P2  1  0.85767400  0.22139300  0.55178500  1
  P  P3  1  0.23822200  0.65876600  0.92663600  1
  P  P4  1  0.14585500  0.28378100  0.93341200  1
  P  P5  1  0.96946400  0.03053600  0.75000000  1
  P  P6  1  0.96027900  0.54972300  0.28984700  1
  P  P7  1  0.45137300  0.54862700  0.75000000  1
  P  P8  1  0.65626900  0.72943100  0.93599500  1
  P  P9  1  0.28378100  0.14585500  0.43341200  1
  P  P10  1  0.76177800  0.34123400  0.07336400  1
  P  P11  1  0.14232600  0.77860700  0.44821500  1
  P  P12  1  0.27056900  0.34373100  0.56400500  1
  P  P13  1  0.54972300  0.96027900  0.78984700  1
  P  P14  1  0.54862700  0.45137300  0.25000000  1
  P  P15  1  0.22139300  0.85767400  0.05178500  1
  P  P16  1  0.72943100  0.65626900  0.43599500  1
  P  P17  1  0.03972100  0.45027700  0.71015300  1
  P  P18  1  0.77860700  0.14232600  0.94821500  1
  P  P19  1  0.03053600  0.96946400  0.25000000  1
  P  P20  1  0.71621900  0.85414500  0.56658800  1
  P  P21  1  0.34123400  0.76177800  0.57336400  1
  P  P22  1  0.85414500  0.71621900  0.06658800  1
  P  P23  1  0.45027700  0.03972100  0.21015300  1
  O  O0  1  0.07524600  0.40597500  0.85873500  1
  O  O1  1  0.78984900  0.21255300  0.05813300  1
  O  O2  1  0.64787300  0.71173100  0.32896800  1
  O  O3  1  0.70534200  0.74385100  0.54470700  1
  O  O4  1  0.45342700  0.43806700  0.73561000  1
  O  O5  1  0.29465800  0.25614900  0.45529300  1
  O  O6  1  0.36548800  0.14509200  0.11923400  1
  O  O7  1  0.62987800  0.39323500  0.12383100  1
  O  O8  1  0.04076900  0.77677000  0.52066400  1
  O  O9  1  0.28158600  0.08344400  0.56220800  1
  O  O10  1  0.60294500  0.23035600  0.55876400  1
  O  O11  1  0.83255400  0.33769500  0.17945800  1
  O  O12  1  0.09940800  0.89284800  0.12845300  1
  O  O13  1  0.71173100  0.64787300  0.82896800  1
  O  O14  1  0.96829700  0.91945100  0.76850500  1
  O  O15  1  0.39323500  0.62987800  0.62383100  1
  O  O16  1  0.80907300  0.82263000  0.65696300  1
  O  O17  1  0.43254900  0.97328600  0.81015200  1
  O  O18  1  0.78744700  0.21015100  0.44186700  1
  O  O19  1  0.43806700  0.45342700  0.23561000  1
  O  O20  1  0.73377000  0.55350000  0.51312300  1
  O  O21  1  0.37012200  0.60676500  0.87616900  1
  O  O22  1  0.95923100  0.22323000  0.47933600  1
  O  O23  1  0.10715200  0.90059200  0.37154700  1
  O  O24  1  0.97328600  0.43254900  0.31015200  1
  O  O25  1  0.28826900  0.35212700  0.17103200  1
  O  O26  1  0.77677000  0.04076900  0.02066400  1
  O  O27  1  0.35212700  0.28826900  0.67103200  1
  O  O28  1  0.93988000  0.43426800  0.68894000  1
  O  O29  1  0.19092700  0.17737000  0.34303700  1
  O  O30  1  0.25614900  0.29465800  0.95529300  1
  O  O31  1  0.56573200  0.06012000  0.81106000  1
  O  O32  1  0.21255300  0.78984900  0.55813300  1
  O  O33  1  0.68458400  0.21480500  0.85890800  1
  O  O34  1  0.54657300  0.56193300  0.26439000  1
  O  O35  1  0.63451200  0.85490800  0.88076600  1
  O  O36  1  0.08344400  0.28158600  0.06220800  1
  O  O37  1  0.16744600  0.66230500  0.82054200  1
  O  O38  1  0.31541600  0.78519500  0.14109200  1
  O  O39  1  0.44650000  0.26623000  0.98687700  1
  O  O40  1  0.39705500  0.76964400  0.44123600  1
  O  O41  1  0.59402500  0.92475400  0.64126500  1
  O  O42  1  0.66230500  0.16744600  0.32054200  1
  O  O43  1  0.78519500  0.31541600  0.64109200  1
  O  O44  1  0.76964400  0.39705500  0.94123600  1
  O  O45  1  0.91945100  0.96829700  0.26850500  1
  O  O46  1  0.08054900  0.03170300  0.73149500  1
  O  O47  1  0.23035600  0.60294500  0.05876400  1
  O  O48  1  0.71841400  0.91655600  0.43779200  1
  O  O49  1  0.06012000  0.56573200  0.31106000  1
  O  O50  1  0.21015100  0.78744700  0.94186700  1
  O  O51  1  0.03170300  0.08054900  0.23149500  1
  O  O52  1  0.33769500  0.83255400  0.67945800  1
  O  O53  1  0.60676500  0.37012200  0.37616900  1
  O  O54  1  0.43426800  0.93988000  0.18894000  1
  O  O55  1  0.56193300  0.54657300  0.76439000  1
  O  O56  1  0.82263000  0.80907300  0.15696300  1
  O  O57  1  0.74385100  0.70534200  0.04470700  1
  O  O58  1  0.17737000  0.19092700  0.84303700  1
  O  O59  1  0.89284800  0.09940800  0.62845300  1
  O  O60  1  0.85490800  0.63451200  0.38076600  1
  O  O61  1  0.40597500  0.07524600  0.35873500  1
  O  O62  1  0.91655600  0.71841400  0.93779200  1
  O  O63  1  0.92475400  0.59402500  0.14126500  1
  O  O64  1  0.14509200  0.36548800  0.61923400  1
  O  O65  1  0.26623000  0.44650000  0.48687700  1
  O  O66  1  0.90059200  0.10715200  0.87154700  1
  O  O67  1  0.02671400  0.56745100  0.68984800  1
  O  O68  1  0.21480500  0.68458400  0.35890800  1
  O  O69  1  0.56745100  0.02671400  0.18984800  1
  O  O70  1  0.22323000  0.95923100  0.97933600  1
  O  O71  1  0.55350000  0.73377000  0.01312300  1
loop_
_geom_bond_atom_site_label_1
_geom_bond_atom_site_label_2
_geom_bond_distance
_geom_bond_site_symmetry_2
Gd0 O4 2.269939 1_555
Gd0 O31 2.299572 1_555
Gd0 O10 2.310457 1_555
Gd0 O33 2.322134 1_555
Gd0 O39 2.328125 1_555
Gd0 O27 2.351357 1_555
Gd1 O36 2.274350 1_555
Gd1 O24 2.276025 1_455
Gd1 O51 2.292314 1_555
Gd1 O22 2.294748 1_455
Gd1 O29 2.300285 1_555
Gd1 O11 2.351690 1_455
Gd2 O9 2.274350 1_555
Gd2 O17 2.276025 1_545
Gd2 O46 2.292314 1_555
Gd2 O70 2.294748 1_545
Gd2 O58 2.300285 1_555
Gd2 O52 2.351690 1_545
Gd3 O48 2.274350 1_555
Gd3 O69 2.276025 1_565
Gd3 O45 2.292314 1_555
Gd3 O26 2.294748 1_565
Gd3 O56 2.300285 1_555
Gd3 O42 2.351690 1_565
Gd4 O34 2.269939 1_555
Gd4 O54 2.299572 1_555
Gd4 O40 2.310457 1_555
Gd4 O38 2.322134 1_555
Gd4 O71 2.328125 1_555
Gd4 O2 2.351357 1_555
Gd5 O62 2.274350 1_555
Gd5 O67 2.276025 1_655
Gd5 O14 2.292314 1_555
Gd5 O8 2.294748 1_655
Gd5 O16 2.300285 1_555
Gd5 O37 2.351690 1_655
Gd6 O19 2.269939 1_555
Gd6 O49 2.299572 1_555
Gd6 O47 2.310457 1_555
Gd6 O68 2.322134 1_555
Gd6 O65 2.328125 1_555
Gd6 O25 2.351357 1_555
Gd7 O55 2.269939 1_555
Gd7 O28 2.299572 1_555
Gd7 O44 2.310457 1_555
Gd7 O43 2.322134 1_555
Gd7 O20 2.328125 1_555
Gd7 O13 2.351357 1_555
O0 P4 1.606872 1_555
O0 P17 1.609374 1_555
O1 P18 1.604512 1_554
O1 P10 1.607210 1_555
O2 P16 1.501309 1_555
O3 P16 1.600434 1_555
O3 P20 1.601095 1_555
O4 P7 1.498253 1_555
O5 P12 1.600434 1_555
O5 P9 1.601095 1_555
O6 P23 1.603498 1_555
O6 P0 1.620301 1_555
O7 P14 1.604295 1_555
O7 P10 1.613132 1_555
O8 P11 1.498804 1_555
O9 P9 1.496632 1_555
O10 P1 1.500115 1_555
O11 P10 1.499405 1_555
O12 P19 1.606027 1_555
O12 P15 1.613953 1_555
O13 P8 1.501309 1_555
O14 P5 1.496749 1_565
O15 P7 1.604295 1_555
O15 P21 1.613132 1_555
O16 P20 1.498315 1_555
O17 P13 1.496593 1_555
O18 P2 1.604512 1_555
O18 P1 1.607210 1_555
O19 P14 1.498253 1_555
O20 P16 1.501362 1_555
O21 P7 1.604295 1_555
O21 P3 1.613132 1_555
O22 P2 1.498804 1_555
O23 P19 1.606027 1_555
O23 P11 1.613953 1_555
O24 P6 1.496593 1_555
O25 P0 1.501309 1_555
O26 P18 1.498804 1_554
O27 P12 1.501309 1_555
O28 P17 1.500417 1_655
O29 P9 1.498315 1_555
O30 P0 1.600434 1_556
O30 P4 1.601095 1_555
O31 P13 1.500417 1_545
O32 P11 1.604512 1_555
O32 P21 1.607210 1_555
O33 P18 1.501940 1_555
O34 P14 1.498253 1_555
O35 P13 1.603498 1_555
O35 P8 1.620301 1_555
O36 P4 1.496632 1_554
O37 P3 1.499405 1_555
O38 P15 1.501940 1_555
O39 P0 1.501362 1_556
O40 P21 1.500115 1_555
O41 P20 1.606872 1_555
O41 P13 1.609374 1_555
O42 P1 1.499405 1_555
O43 P2 1.501940 1_555
O44 P10 1.500115 1_556
O45 P19 1.496749 1_655
O46 P5 1.496749 1_455
O47 P3 1.500115 1_554
O48 P20 1.496632 1_555
O49 P6 1.500417 1_455
O50 P15 1.604512 1_556
O50 P3 1.607210 1_555
O51 P19 1.496749 1_545
O52 P21 1.499405 1_555
O53 P14 1.604295 1_555
O53 P1 1.613132 1_555
O54 P23 1.500417 1_565
O55 P7 1.498253 1_555
O56 P22 1.498315 1_555
O57 P8 1.600434 1_554
O57 P22 1.601095 1_555
O58 P4 1.498315 1_555
O59 P5 1.606027 1_555
O59 P2 1.613953 1_555
O60 P6 1.603498 1_555
O60 P16 1.620301 1_555
O61 P9 1.606872 1_555
O61 P23 1.609374 1_555
O62 P22 1.496632 1_556
O63 P22 1.606872 1_555
O63 P6 1.609374 1_555
O64 P17 1.603498 1_555
O64 P12 1.620301 1_555
O65 P12 1.501362 1_555
O66 P5 1.606027 1_555
O66 P18 1.613953 1_555
O67 P17 1.496593 1_555
O68 P11 1.501940 1_555
O69 P23 1.496593 1_555
O70 P15 1.498804 1_556
O71 P8 1.501362 1_554
