# generated using pymatgen
data_La2B3Cl
_symmetry_space_group_name_H-M   'P 1'
_cell_length_a   7.79791793
_cell_length_b   7.79791793
_cell_length_c   8.29119300
_cell_angle_alpha   90.00000000
_cell_angle_beta   90.00000000
_cell_angle_gamma   119.99999938
_symmetry_Int_Tables_number   1
_chemical_formula_structural   La2B3Cl
_chemical_formula_sum   'La8 B12 Cl4'
_cell_volume   436.62136084
_cell_formula_units_Z   4
loop_
 _symmetry_equiv_pos_site_id
 _symmetry_equiv_pos_as_xyz
  1  'x, y, z'
loop_
 _atom_site_type_symbol
 _atom_site_label
 _atom_site_symmetry_multiplicity
 _atom_site_fract_x
 _atom_site_fract_y
 _atom_site_fract_z
 _atom_site_occupancy
  La  La0  1  0.50008100  0.00072700  0.22457600  1
  La  La1  1  0.50008100  0.00072700  0.77542400  1
  La  La2  1  0.50064600  0.49991900  0.22457600  1
  La  La3  1  0.99927300  0.49935400  0.22457600  1
  La  La4  1  0.50064600  0.49991900  0.77542400  1
  La  La5  1  0.99927300  0.49935400  0.77542400  1
  La  La6  1  0.00000000  0.00000000  0.23947900  1
  La  La7  1  0.00000000  0.00000000  0.76052100  1
  B  B0  1  0.52490600  0.26258000  0.00000000  1
  B  B1  1  0.26261300  0.52498900  0.00000000  1
  B  B2  1  0.72248000  0.86121200  0.00000000  1
  B  B3  1  0.86156000  0.13834600  0.00000000  1
  B  B4  1  0.27678600  0.13844000  0.00000000  1
  B  B5  1  0.26237600  0.73738700  0.00000000  1
  B  B6  1  0.73742000  0.26232600  0.00000000  1
  B  B7  1  0.13873300  0.27752000  0.00000000  1
  B  B8  1  0.47501100  0.73762400  0.00000000  1
  B  B9  1  0.86165400  0.72321400  0.00000000  1
  B  B10  1  0.73767400  0.47509400  0.00000000  1
  B  B11  1  0.13878800  0.86126700  0.00000000  1
  Cl  Cl0  1  0.33851000  0.17352400  0.50000000  1
  Cl  Cl1  1  0.83501400  0.66149000  0.50000000  1
  Cl  Cl2  1  0.82647600  0.16498600  0.50000000  1
  Cl  Cl3  1  0.33333300  0.66666700  0.50000000  1
loop_
_geom_bond_atom_site_label_1
_geom_bond_atom_site_label_2
_geom_bond_distance
_geom_bond_site_symmetry_2
B0 B6 1.658158 1_555
B0 B10 1.658158 1_555
B0 B4 1.675603 1_555
B0 La2 2.697821 1_555
B0 La4 2.697821 1_554
B0 La1 2.697895 1_554
B0 La0 2.697895 1_555
B1 B5 1.657187 1_555
B1 B8 1.657187 1_555
B1 B7 1.671207 1_555
B1 La5 2.704329 1_454
B1 La3 2.704329 1_455
B1 La2 2.704344 1_555
B1 La4 2.704344 1_554
B2 B8 1.671207 1_555
B2 B3 1.871544 1_565
B2 B9 1.871802 1_555
B2 La7 2.730366 1_664
B2 La6 2.730366 1_665
B3 B6 1.675603 1_555
B3 B7 1.871809 1_655
B3 La7 2.726966 1_654
B3 La6 2.726966 1_655
B4 B7 1.871537 1_555
B4 La6 2.726966 1_555
B4 La7 2.726966 1_554
B5 B8 1.657187 1_555
B5 La0 2.704329 1_565
B5 La1 2.704329 1_564
B5 La5 2.704344 1_454
B5 La3 2.704344 1_455
B6 La1 2.697821 1_554
B6 La0 2.697821 1_555
B6 La5 2.697895 1_554
B6 La3 2.697895 1_555
B7 La6 2.730366 1_555
B7 La7 2.730366 1_554
B8 La4 2.704329 1_554
B8 La2 2.704329 1_555
B8 La0 2.704344 1_565
B8 La1 2.704344 1_564
B9 La7 2.726966 1_664
B9 La6 2.726966 1_665
B10 B6 1.658158 1_555
B10 B9 1.675603 1_555
B10 La3 2.697821 1_555
B10 La5 2.697821 1_554
B10 La4 2.697895 1_554
B10 La2 2.697895 1_555
B11 B5 1.671200 1_555
B11 B9 1.871544 1_455
B11 B4 1.871809 1_565
B11 La7 2.730371 1_564
B11 La6 2.730371 1_565
Cl0 La6 3.145273 1_555
Cl0 La7 3.145273 1_555
Cl0 La4 3.173863 1_555
Cl0 La2 3.173863 1_555
Cl0 La1 3.211778 1_555
Cl0 La0 3.211778 1_555
Cl1 La6 3.145273 1_665
Cl1 La7 3.145273 1_665
Cl1 La5 3.173863 1_555
Cl1 La3 3.173863 1_555
Cl1 La4 3.211778 1_555
Cl1 La2 3.211778 1_555
Cl2 La7 3.145273 1_655
Cl2 La6 3.145273 1_655
Cl2 La0 3.173863 1_555
Cl2 La1 3.173863 1_555
Cl2 La5 3.211778 1_555
Cl2 La3 3.211778 1_555
Cl3 La0 3.210018 1_565
Cl3 La1 3.210018 1_565
Cl3 La5 3.210018 1_455
Cl3 La3 3.210018 1_455
Cl3 La4 3.210023 1_555
Cl3 La2 3.210023 1_555
