# generated using pymatgen
data_Yb3Se4
_symmetry_space_group_name_H-M   'P 1'
_cell_length_a   4.29162400
_cell_length_b   12.04787500
_cell_length_c   14.75230500
_cell_angle_alpha   90.00000000
_cell_angle_beta   90.00000000
_cell_angle_gamma   90.00000000
_symmetry_Int_Tables_number   1
_chemical_formula_structural   Yb3Se4
_chemical_formula_sum   'Yb12 Se16'
_cell_volume   762.76718502
_cell_formula_units_Z   4
loop_
 _symmetry_equiv_pos_site_id
 _symmetry_equiv_pos_as_xyz
  1  'x, y, z'
loop_
 _atom_site_type_symbol
 _atom_site_label
 _atom_site_symmetry_multiplicity
 _atom_site_fract_x
 _atom_site_fract_y
 _atom_site_fract_z
 _atom_site_occupancy
  Yb  Yb0  1  0.25000000  0.11933500  0.09768900  1
  Yb  Yb1  1  0.75000000  0.88066500  0.90231100  1
  Yb  Yb2  1  0.25000000  0.38066500  0.59768900  1
  Yb  Yb3  1  0.75000000  0.61933500  0.40231100  1
  Yb  Yb4  1  0.75000000  0.45513200  0.10550900  1
  Yb  Yb5  1  0.25000000  0.54486800  0.89449100  1
  Yb  Yb6  1  0.75000000  0.04486800  0.60550900  1
  Yb  Yb7  1  0.25000000  0.95513200  0.39449100  1
  Yb  Yb8  1  0.25000000  0.29983200  0.36204600  1
  Yb  Yb9  1  0.75000000  0.70016800  0.63795400  1
  Yb  Yb10  1  0.25000000  0.20016800  0.86204600  1
  Yb  Yb11  1  0.75000000  0.79983200  0.13795400  1
  Se  Se0  1  0.75000000  0.22548400  0.22602200  1
  Se  Se1  1  0.25000000  0.77451600  0.77397800  1
  Se  Se2  1  0.75000000  0.27451600  0.72602200  1
  Se  Se3  1  0.25000000  0.72548400  0.27397800  1
  Se  Se4  1  0.25000000  0.52306100  0.24505400  1
  Se  Se5  1  0.75000000  0.47693900  0.75494600  1
  Se  Se6  1  0.25000000  0.97693900  0.74505400  1
  Se  Se7  1  0.75000000  0.02306100  0.25494600  1
  Se  Se8  1  0.75000000  0.38977100  0.46335400  1
  Se  Se9  1  0.25000000  0.61022900  0.53664600  1
  Se  Se10  1  0.75000000  0.11022900  0.96335400  1
  Se  Se11  1  0.25000000  0.88977100  0.03664600  1
  Se  Se12  1  0.25000000  0.14403300  0.50927900  1
  Se  Se13  1  0.75000000  0.85596700  0.49072100  1
  Se  Se14  1  0.25000000  0.35596700  0.00927900  1
  Se  Se15  1  0.75000000  0.64403300  0.99072100  1
loop_
_geom_bond_atom_site_label_1
_geom_bond_atom_site_label_2
_geom_bond_distance
_geom_bond_site_symmetry_2
Se0 Se7 2.475814 1_555
Se0 Yb8 3.071411 1_555
Se0 Yb8 3.071411 1_655
Se0 Yb0 3.134366 1_555
Se0 Yb0 3.134366 1_655
Se0 Yb4 3.288731 1_555
Se1 Se6 2.475814 1_555
Se1 Yb9 3.071411 1_555
Se1 Yb9 3.071411 1_455
Se1 Yb1 3.134366 1_455
Se1 Yb1 3.134366 1_555
Se1 Yb5 3.288731 1_555
Se2 Se5 2.475814 1_555
Se2 Yb10 3.071411 1_655
Se2 Yb10 3.071411 1_555
Se2 Yb2 3.134366 1_655
Se2 Yb2 3.134366 1_555
Se2 Yb6 3.288731 1_555
Se3 Se4 2.475814 1_555
Se3 Yb11 3.071411 1_455
Se3 Yb11 3.071411 1_555
Se3 Yb3 3.134366 1_555
Se3 Yb3 3.134366 1_455
Se3 Yb7 3.288731 1_555
Se4 Yb4 3.084180 1_455
Se4 Yb4 3.084180 1_555
Se4 Yb8 3.195590 1_555
Se4 Yb3 3.366277 1_555
Se4 Yb3 3.366277 1_455
Se5 Yb5 3.084180 1_555
Se5 Yb5 3.084180 1_655
Se5 Yb9 3.195590 1_555
Se5 Yb2 3.366277 1_555
Se5 Yb2 3.366277 1_655
Se6 Yb6 3.084180 1_565
Se6 Yb6 3.084180 1_465
Se6 Yb10 3.195590 1_565
Se6 Yb1 3.366277 1_455
Se6 Yb1 3.366277 1_555
Se7 Yb7 3.084180 1_545
Se7 Yb7 3.084180 1_645
Se7 Yb11 3.195590 1_545
Se7 Yb0 3.366277 1_555
Se7 Yb0 3.366277 1_655
Se8 Yb8 2.830592 1_555
Se8 Yb8 2.830592 1_655
Se8 Yb3 2.908671 1_555
Se8 Yb2 2.922992 1_555
Se8 Yb2 2.922992 1_655
Se9 Yb9 2.830592 1_455
Se9 Yb9 2.830592 1_555
Se9 Yb2 2.908671 1_555
Se9 Yb3 2.922992 1_555
Se9 Yb3 2.922992 1_455
Se10 Yb10 2.830592 1_655
Se10 Yb10 2.830592 1_555
Se10 Yb1 2.908671 1_545
Se10 Yb0 2.922992 1_556
Se10 Yb0 2.922992 1_656
Se11 Yb11 2.830592 1_555
Se11 Yb11 2.830592 1_455
Se11 Yb0 2.908671 1_565
Se11 Yb1 2.922992 1_454
Se11 Yb1 2.922992 1_554
Se12 Yb7 2.836738 1_545
Se12 Yb6 2.836757 1_455
Se12 Yb6 2.836757 1_555
Se12 Yb8 2.870715 1_555
Se12 Yb2 3.135088 1_555
Se13 Yb6 2.836738 1_565
Se13 Yb7 2.836757 1_655
Se13 Yb7 2.836757 1_555
Se13 Yb9 2.870715 1_555
Se13 Yb3 3.135088 1_555
Se14 Yb5 2.836738 1_554
Se14 Yb4 2.836757 1_455
Se14 Yb4 2.836757 1_555
Se14 Yb10 2.870715 1_554
Se14 Yb0 3.135088 1_555
Se15 Yb4 2.836738 1_556
Se15 Yb5 2.836757 1_555
Se15 Yb5 2.836757 1_655
Se15 Yb11 2.870715 1_556
Se15 Yb1 3.135088 1_555
