# generated using pymatgen
data_TlNO3
_symmetry_space_group_name_H-M   'P 1'
_cell_length_a   10.27382548
_cell_length_b   10.27382475
_cell_length_c   7.25596693
_cell_angle_alpha   90.00000000
_cell_angle_beta   90.00000000
_cell_angle_gamma   120.00000116
_symmetry_Int_Tables_number   1
_chemical_formula_structural   TlNO3
_chemical_formula_sum   'Tl9 N9 O27'
_cell_volume   663.26985417
_cell_formula_units_Z   9
loop_
 _symmetry_equiv_pos_site_id
 _symmetry_equiv_pos_as_xyz
  1  'x, y, z'
loop_
 _atom_site_type_symbol
 _atom_site_label
 _atom_site_symmetry_multiplicity
 _atom_site_fract_x
 _atom_site_fract_y
 _atom_site_fract_z
 _atom_site_occupancy
  Tl  Tl0  1  0.12282634  0.21792735  0.99255405  1
  Tl  Tl1  1  0.44462324  0.21742348  0.29987608  1
  Tl  Tl2  1  0.42527624  0.88500137  0.93971037  1
  Tl  Tl3  1  0.45972513  0.57472376  0.60637737  1
  Tl  Tl4  1  0.78257652  0.22719976  0.63320908  1
  Tl  Tl5  1  0.78207265  0.90489799  0.32588705  1
  Tl  Tl6  1  0.77280024  0.55537676  0.96654208  1
  Tl  Tl7  1  0.11499863  0.54027487  0.27304437  1
  Tl  Tl8  1  0.09510201  0.87717366  0.65922105  1
  N  N0  1  0.79893917  0.53820097  0.43474909  1
  N  N1  1  0.46179903  0.26074020  0.76808309  1
  N  N2  1  0.73925980  0.20106083  0.10141509  1
  N  N3  1  0.79273911  0.88894446  0.85010855  1
  N  N4  1  0.09620535  0.20726089  0.51677555  1
  N  N5  1  0.43085778  0.55874727  0.08703649  1
  N  N6  1  0.44125273  0.87211050  0.42036949  1
  N  N7  1  0.11105554  0.90379465  0.18344355  1
  N  N8  1  0.12788950  0.56914222  0.75370349  1
  O  O0  1  0.23371914  0.26204981  0.54816782  1
  O  O1  1  0.34889510  0.91380692  0.38043256  1
  O  O2  1  0.07604004  0.60308244  0.89074806  1
  O  O3  1  0.04879673  0.24352689  0.37730019  1
  O  O4  1  0.52704341  0.92395996  0.55741406  1
  O  O5  1  0.42732693  0.30856128  0.90932585  1
  O  O6  1  0.44853301  0.77443135  0.32006265  1
  O  O7  1  0.64390877  0.20607872  0.99382018  1
  O  O8  1  0.72314332  0.59925389  0.39804183  1
  O  O9  1  0.69143872  0.11876565  0.24265885  1
  O  O10  1  0.56216995  0.35609123  0.66048718  1
  O  O11  1  0.11099888  -0.00040846  0.29473322  1
  O  O12  1  0.00040846  0.11140734  0.62806622  1
  O  O13  1  0.56491182  0.65110490  0.04709956  1
  O  O14  1  0.19473015  0.95120327  0.04396719  1
  O  O15  1  0.79392128  0.43783005  0.32715318  1
  O  O16  1  0.02833167  0.76628086  0.21483482  1
  O  O17  1  0.40074611  0.12388743  0.73137583  1
  O  O18  1  0.75647311  0.80526985  0.71063319  1
  O  O19  1  0.73795019  0.97166833  0.88150082  1
  O  O20  1  0.08619308  0.43508818  0.71376656  1
  O  O21  1  0.22556865  0.67410166  0.65339665  1
  O  O22  1  0.88859266  0.88900112  0.96139922  1
  O  O23  1  0.88123435  0.57267307  0.57599185  1
  O  O24  1  0.39691756  0.47295659  0.22408106  1
  O  O25  1  0.87611257  0.27685668  0.06470883  1
  O  O26  1  0.32589834  0.55146699  -0.01327035  1
loop_
_geom_bond_atom_site_label_1
_geom_bond_atom_site_label_2
_geom_bond_distance
_geom_bond_site_symmetry_2
N0 O8 1.248687 1_555
N0 O23 1.261413 1_555
N0 O15 1.273722 1_555
N1 O17 1.248723 1_555
N1 O5 1.261402 1_555
N1 O10 1.273715 1_555
N2 O25 1.248719 1_555
N2 O9 1.261418 1_555
N2 O7 1.273701 1_554
N3 O19 1.252774 1_555
N3 O18 1.257671 1_555
N3 O22 1.273309 1_555
N4 O0 1.252783 1_555
N4 O3 1.257672 1_555
N4 O12 1.273309 1_555
N5 O13 1.254714 1_555
N5 O24 1.256951 1_555
N5 O26 1.271799 1_555
N6 O1 1.254714 1_555
N6 O4 1.256950 1_555
N6 O6 1.271799 1_555
N7 O16 1.252780 1_555
N7 O14 1.257677 1_555
N7 O11 1.273304 1_565
N8 O20 1.254714 1_555
N8 O2 1.256945 1_555
N8 O21 1.271799 1_555
O1 Tl1 2.823323 1_565
O13 Tl6 2.823325 1_554
O20 Tl4 2.823325 1_455
