# generated using pymatgen
data_Y13Cd58
_symmetry_space_group_name_H-M   'P 1'
_cell_length_a   15.79073195
_cell_length_b   15.79073195
_cell_length_c   15.56765400
_cell_angle_alpha   90.00000000
_cell_angle_beta   90.00000000
_cell_angle_gamma   119.99999980
_symmetry_Int_Tables_number   1
_chemical_formula_structural   Y13Cd58
_chemical_formula_sum   'Y26 Cd116'
_cell_volume   3361.69513791
_cell_formula_units_Z   2
loop_
 _symmetry_equiv_pos_site_id
 _symmetry_equiv_pos_as_xyz
  1  'x, y, z'
loop_
 _atom_site_type_symbol
 _atom_site_label
 _atom_site_symmetry_multiplicity
 _atom_site_fract_x
 _atom_site_fract_y
 _atom_site_fract_z
 _atom_site_occupancy
  Y  Y0  1  0.41214800  0.20607400  0.55280900  1
  Y  Y1  1  0.87133800  0.74267600  0.25000000  1
  Y  Y2  1  0.20607400  0.41214800  0.05280900  1
  Y  Y3  1  0.08883400  0.54441700  0.75000000  1
  Y  Y4  1  0.79392600  0.58785200  0.94719100  1
  Y  Y5  1  0.79392600  0.20607400  0.55280900  1
  Y  Y6  1  0.91116600  0.45558300  0.25000000  1
  Y  Y7  1  0.79392600  0.20607400  0.94719100  1
  Y  Y8  1  0.79392600  0.58785200  0.55280900  1
  Y  Y9  1  0.45558300  0.91116600  0.75000000  1
  Y  Y10  1  0.12866200  0.87133800  0.75000000  1
  Y  Y11  1  0.87133800  0.12866200  0.25000000  1
  Y  Y12  1  0.58785200  0.79392600  0.05280900  1
  Y  Y13  1  0.58785200  0.79392600  0.44719100  1
  Y  Y14  1  0.20607400  0.79392600  0.44719100  1
  Y  Y15  1  0.00000000  0.00000000  0.00000000  1
  Y  Y16  1  0.45558300  0.54441700  0.75000000  1
  Y  Y17  1  0.54441700  0.08883400  0.25000000  1
  Y  Y18  1  0.12866200  0.25732400  0.75000000  1
  Y  Y19  1  0.74267600  0.87133800  0.75000000  1
  Y  Y20  1  0.20607400  0.41214800  0.44719100  1
  Y  Y21  1  0.41214800  0.20607400  0.94719100  1
  Y  Y22  1  0.00000000  0.00000000  0.50000000  1
  Y  Y23  1  0.25732400  0.12866200  0.25000000  1
  Y  Y24  1  0.20607400  0.79392600  0.05280900  1
  Y  Y25  1  0.54441700  0.45558300  0.25000000  1
  Cd  Cd0  1  0.90785700  0.09214300  0.65576900  1
  Cd  Cd1  1  0.00000000  0.19746600  0.00000000  1
  Cd  Cd2  1  0.63544400  0.96411800  0.60153700  1
  Cd  Cd3  1  0.36455600  0.32867400  0.39846300  1
  Cd  Cd4  1  0.67132600  0.63544400  0.10153700  1
  Cd  Cd5  1  0.60031800  0.39968200  0.05147700  1
  Cd  Cd6  1  0.63544400  0.67132600  0.89846300  1
  Cd  Cd7  1  0.96411800  0.63544400  0.10153700  1
  Cd  Cd8  1  0.20063600  0.60031800  0.94852300  1
  Cd  Cd9  1  0.09214300  0.90785700  0.34423100  1
  Cd  Cd10  1  0.55967400  0.11934800  0.64741800  1
  Cd  Cd11  1  0.81571500  0.90785700  0.34423100  1
  Cd  Cd12  1  0.73372500  0.26627500  0.75000000  1
  Cd  Cd13  1  0.44032600  0.88065200  0.35258200  1
  Cd  Cd14  1  0.32867400  0.36455600  0.89846300  1
  Cd  Cd15  1  0.03588200  0.67132600  0.89846300  1
  Cd  Cd16  1  0.53174000  0.76587000  0.84146000  1
  Cd  Cd17  1  0.80253400  0.80253400  0.00000000  1
  Cd  Cd18  1  0.36455600  0.03588200  0.39846300  1
  Cd  Cd19  1  0.00000000  0.19746600  0.50000000  1
  Cd  Cd20  1  0.92013200  0.64495000  0.75000000  1
  Cd  Cd21  1  0.19746600  0.19746600  0.50000000  1
  Cd  Cd22  1  0.67132600  0.03588200  0.10153700  1
  Cd  Cd23  1  0.60031800  0.39968200  0.44852300  1
  Cd  Cd24  1  0.76587000  0.53174000  0.34146000  1
  Cd  Cd25  1  0.76587000  0.53174000  0.15854000  1
  Cd  Cd26  1  0.96411800  0.32867400  0.10153700  1
  Cd  Cd27  1  0.66666700  0.33333300  0.59672100  1
  Cd  Cd28  1  0.27518200  0.92013200  0.25000000  1
  Cd  Cd29  1  0.46826000  0.23413000  0.34146000  1
  Cd  Cd30  1  0.03588200  0.36455600  0.60153700  1
  Cd  Cd31  1  0.33333300  0.66666700  0.75000000  1
  Cd  Cd32  1  0.72481800  0.07986800  0.75000000  1
  Cd  Cd33  1  0.03588200  0.36455600  0.89846300  1
  Cd  Cd34  1  0.80253400  0.00000000  0.50000000  1
  Cd  Cd35  1  0.60031800  0.20063600  0.44852300  1
  Cd  Cd36  1  0.67132600  0.03588200  0.39846300  1
  Cd  Cd37  1  0.35505000  0.07986800  0.75000000  1
  Cd  Cd38  1  0.92013200  0.27518200  0.75000000  1
  Cd  Cd39  1  0.00000000  0.80253400  0.00000000  1
  Cd  Cd40  1  0.44032600  0.55967400  0.14741800  1
  Cd  Cd41  1  0.11934800  0.55967400  0.35258200  1
  Cd  Cd42  1  0.50000000  0.00000000  0.50000000  1
  Cd  Cd43  1  0.90785700  0.81571500  0.84423100  1
  Cd  Cd44  1  0.09214300  0.18428500  0.15576900  1
  Cd  Cd45  1  0.03588200  0.67132600  0.60153700  1
  Cd  Cd46  1  0.32867400  0.36455600  0.60153700  1
  Cd  Cd47  1  0.55967400  0.11934800  0.85258200  1
  Cd  Cd48  1  0.20063600  0.60031800  0.55147700  1
  Cd  Cd49  1  0.63544400  0.67132600  0.60153700  1
  Cd  Cd50  1  0.44032600  0.55967400  0.35258200  1
  Cd  Cd51  1  0.00000000  0.00000000  0.25000000  1
  Cd  Cd52  1  0.60031800  0.20063600  0.05147700  1
  Cd  Cd53  1  0.79936400  0.39968200  0.44852300  1
  Cd  Cd54  1  0.73372500  0.46745000  0.75000000  1
  Cd  Cd55  1  0.39968200  0.79936400  0.94852300  1
  Cd  Cd56  1  0.66666700  0.33333300  0.90327900  1
  Cd  Cd57  1  0.23413000  0.46826000  0.84146000  1
  Cd  Cd58  1  0.76587000  0.23413000  0.15854000  1
  Cd  Cd59  1  0.27518200  0.35505000  0.25000000  1
  Cd  Cd60  1  0.39968200  0.60031800  0.55147700  1
  Cd  Cd61  1  0.36455600  0.03588200  0.10153700  1
  Cd  Cd62  1  0.76587000  0.23413000  0.34146000  1
  Cd  Cd63  1  0.81571500  0.90785700  0.15576900  1
  Cd  Cd64  1  0.32867400  0.96411800  0.89846300  1
  Cd  Cd65  1  0.88065200  0.44032600  0.85258200  1
  Cd  Cd66  1  0.90785700  0.81571500  0.65576900  1
  Cd  Cd67  1  0.11934800  0.55967400  0.14741800  1
  Cd  Cd68  1  0.96411800  0.32867400  0.39846300  1
  Cd  Cd69  1  0.64495000  0.72481800  0.25000000  1
  Cd  Cd70  1  0.55967400  0.44032600  0.85258200  1
  Cd  Cd71  1  0.46826000  0.23413000  0.15854000  1
  Cd  Cd72  1  0.80253400  0.80253400  0.50000000  1
  Cd  Cd73  1  0.00000000  0.00000000  0.75000000  1
  Cd  Cd74  1  0.18428500  0.09214300  0.65576900  1
  Cd  Cd75  1  0.19746600  0.19746600  0.00000000  1
  Cd  Cd76  1  0.19746600  0.00000000  0.50000000  1
  Cd  Cd77  1  0.07986800  0.35505000  0.25000000  1
  Cd  Cd78  1  0.67132600  0.63544400  0.39846300  1
  Cd  Cd79  1  0.53174000  0.76587000  0.65854000  1
  Cd  Cd80  1  0.79936400  0.39968200  0.05147700  1
  Cd  Cd81  1  0.36455600  0.32867400  0.10153700  1
  Cd  Cd82  1  0.23413000  0.76587000  0.84146000  1
  Cd  Cd83  1  0.66666700  0.33333300  0.25000000  1
  Cd  Cd84  1  0.44032600  0.88065200  0.14741800  1
  Cd  Cd85  1  0.50000000  0.50000000  0.00000000  1
  Cd  Cd86  1  0.00000000  0.50000000  0.50000000  1
  Cd  Cd87  1  0.23413000  0.76587000  0.65854000  1
  Cd  Cd88  1  0.33333300  0.66666700  0.40327900  1
  Cd  Cd89  1  0.19746600  0.00000000  0.00000000  1
  Cd  Cd90  1  0.07986800  0.72481800  0.25000000  1
  Cd  Cd91  1  0.00000000  0.80253400  0.50000000  1
  Cd  Cd92  1  0.63544400  0.96411800  0.89846300  1
  Cd  Cd93  1  0.50000000  0.50000000  0.50000000  1
  Cd  Cd94  1  0.18428500  0.09214300  0.84423100  1
  Cd  Cd95  1  0.53255000  0.26627500  0.75000000  1
  Cd  Cd96  1  0.09214300  0.90785700  0.15576900  1
  Cd  Cd97  1  0.90785700  0.09214300  0.84423100  1
  Cd  Cd98  1  0.55967400  0.44032600  0.64741800  1
  Cd  Cd99  1  0.35505000  0.27518200  0.75000000  1
  Cd  Cd100  1  0.26627500  0.73372500  0.25000000  1
  Cd  Cd101  1  0.96411800  0.63544400  0.39846300  1
  Cd  Cd102  1  0.33333300  0.66666700  0.09672100  1
  Cd  Cd103  1  0.26627500  0.53255000  0.25000000  1
  Cd  Cd104  1  0.80253400  0.00000000  0.00000000  1
  Cd  Cd105  1  0.64495000  0.92013200  0.25000000  1
  Cd  Cd106  1  0.50000000  0.00000000  0.00000000  1
  Cd  Cd107  1  0.88065200  0.44032600  0.64741800  1
  Cd  Cd108  1  0.32867400  0.96411800  0.60153700  1
  Cd  Cd109  1  0.00000000  0.50000000  0.00000000  1
  Cd  Cd110  1  0.09214300  0.18428500  0.34423100  1
  Cd  Cd111  1  0.39968200  0.60031800  0.94852300  1
  Cd  Cd112  1  0.23413000  0.46826000  0.65854000  1
  Cd  Cd113  1  0.72481800  0.64495000  0.75000000  1
  Cd  Cd114  1  0.39968200  0.79936400  0.55147700  1
  Cd  Cd115  1  0.46745000  0.73372500  0.25000000  1
loop_
_geom_bond_atom_site_label_1
_geom_bond_atom_site_label_2
_geom_bond_distance
_geom_bond_site_symmetry_2
Cd0 Cd34 2.888528 1_555
Cd0 Cd19 2.888528 1_655
Cd0 Cd73 2.916004 1_655
Cd0 Cd97 2.933911 1_555
Cd0 Cd32 3.159627 1_555
Cd0 Cd38 3.159627 1_555
Cd0 Y19 3.466675 1_545
Cd0 Y18 3.466675 1_655
Cd0 Y22 3.497362 1_655
Cd0 Y5 3.504126 1_555
Cd1 Cd26 2.878577 1_455
Cd1 Cd33 2.878577 1_554
Cd1 Cd97 2.888528 1_454
Cd1 Cd44 2.888533 1_555
Cd1 Y15 3.118133 1_555
Cd1 Cd75 3.118133 1_555
Cd1 Cd104 3.118133 1_455
Cd1 Y7 3.424260 1_454
Cd1 Y2 3.424260 1_555
Cd2 Cd32 2.845122 1_565
Cd2 Cd79 2.853533 1_555
Cd2 Cd34 2.878577 1_565
Cd2 Cd42 2.933556 1_565
Cd2 Cd36 3.310208 1_565
Cd2 Y13 3.397206 1_555
Cd2 Y9 3.425271 1_555
Cd2 Y5 3.445905 1_565
Cd2 Y19 3.582747 1_555
Cd3 Cd59 2.845122 1_555
Cd3 Cd93 2.933556 1_555
Cd3 Cd50 3.298912 1_555
Cd3 Cd46 3.310208 1_555
Cd3 Y0 3.397206 1_555
Cd3 Y25 3.425271 1_555
Cd3 Y20 3.445905 1_555
Cd3 Y23 3.582747 1_555
Cd4 Cd69 2.845122 1_555
Cd4 Cd85 2.933556 1_555
Cd4 Cd40 3.298912 1_555
Cd4 Cd6 3.310208 1_554
Cd4 Y4 3.397206 1_554
Cd4 Cd5 3.398515 1_555
Cd4 Y25 3.425271 1_555
Cd4 Y12 3.445905 1_555
Cd4 Y1 3.582747 1_555
Cd5 Cd85 2.858369 1_555
Cd5 Cd71 2.917024 1_555
Cd5 Cd56 2.935253 1_554
Cd5 Cd80 3.143082 1_555
Cd5 Cd52 3.143082 1_555
Cd5 Cd70 3.289828 1_554
Cd5 Cd81 3.398515 1_555
Cd5 Y4 3.424487 1_554
Cd5 Y21 3.424487 1_554
Cd5 Y25 3.448042 1_555
Cd6 Cd85 2.933556 1_556
Cd6 Cd70 3.298912 1_555
Cd6 Y12 3.397206 1_556
Cd6 Y16 3.425271 1_555
Cd6 Y4 3.445905 1_555
Cd6 Y19 3.582747 1_555
Cd7 Cd90 2.845122 1_655
Cd7 Y4 3.397206 1_554
Cd7 Cd80 3.398515 1_555
Cd7 Y6 3.425271 1_555
Cd7 Y24 3.445905 1_655
Cd7 Y1 3.582747 1_555
Cd8 Cd82 2.917024 1_555
Cd8 Y2 3.424487 1_556
Cd8 Y24 3.424487 1_556
Cd8 Y3 3.448042 1_555
Cd9 Cd91 2.888528 1_555
Cd9 Cd96 2.933911 1_555
Cd9 Cd90 3.159627 1_555
Cd9 Y1 3.466675 1_455
Cd9 Y23 3.466675 1_565
Cd9 Y22 3.497362 1_565
Cd9 Y14 3.504126 1_555
Cd10 Cd42 2.816127 1_555
Cd10 Cd95 3.018317 1_555
Cd10 Cd12 3.018317 1_555
Cd10 Cd27 3.030844 1_555
Cd10 Cd47 3.193922 1_555
Cd10 Y9 3.264241 1_545
Cd10 Cd35 3.289828 1_555
Cd10 Cd2 3.298911 1_545
Cd10 Cd108 3.298912 1_545
Cd10 Cd32 3.371199 1_555
Cd10 Cd37 3.371199 1_555
Cd10 Y0 3.558329 1_555
Cd10 Y5 3.558329 1_555
Cd11 Cd72 2.888525 1_555
Cd11 Cd34 2.888533 1_565
Cd11 Cd51 2.915992 1_665
Cd11 Cd63 2.933911 1_555
Cd11 Cd69 3.159633 1_555
Cd11 Y1 3.466665 1_555
Cd11 Y11 3.466679 1_565
Cd11 Y22 3.497352 1_665
Cd11 Y13 3.504138 1_555
Cd12 Cd38 2.875760 1_555
Cd12 Cd32 2.875760 1_555
Cd12 Cd56 3.009601 1_555
Cd12 Cd27 3.009601 1_555
Cd12 Cd47 3.018317 1_555
Cd12 Cd65 3.018317 1_555
Cd12 Cd95 3.176701 1_555
Cd12 Cd54 3.176701 1_555
Cd12 Y7 3.483490 1_555
Cd12 Y5 3.483490 1_555
Cd13 Cd42 2.816127 1_565
Cd13 Cd88 3.030844 1_555
Cd13 Cd84 3.193922 1_555
Cd13 Y17 3.264241 1_565
Cd13 Cd18 3.298911 1_565
Cd13 Cd36 3.298912 1_565
Cd13 Cd28 3.371199 1_555
Cd13 Y13 3.558329 1_555
Cd13 Y14 3.558329 1_555
Cd14 Cd99 2.845122 1_555
Cd14 Cd57 2.853533 1_555
Cd14 Cd75 2.878577 1_556
Cd14 Cd85 2.933556 1_556
Cd14 Cd70 3.298912 1_555
Cd14 Cd81 3.310208 1_556
Cd14 Y2 3.397206 1_556
Cd14 Y16 3.425271 1_555
Cd14 Y21 3.445905 1_555
Cd14 Y18 3.582747 1_555
Cd15 Cd20 2.845122 1_455
Cd15 Cd82 2.853533 1_555
Cd15 Cd39 2.878577 1_556
Cd15 Cd65 3.298912 1_455
Cd15 Cd7 3.310208 1_456
Cd15 Y24 3.397206 1_556
Cd15 Cd8 3.398515 1_555
Cd15 Y3 3.425271 1_555
Cd15 Y4 3.445905 1_455
Cd15 Y10 3.582747 1_555
Cd16 Cd79 2.847635 1_555
Cd16 Cd6 2.853533 1_555
Cd16 Cd92 2.853533 1_555
Cd16 Cd55 2.917024 1_555
Cd16 Cd31 3.064145 1_555
Cd16 Y19 3.216846 1_555
Cd16 Y12 3.378503 1_556
Cd16 Y9 3.390649 1_555
Cd16 Y16 3.390649 1_555
Cd17 Cd4 2.878577 1_555
Cd17 Cd6 2.878577 1_554
Cd17 Cd63 2.888525 1_555
Cd17 Cd43 2.888525 1_554
Cd17 Cd39 3.118133 1_655
Cd17 Y15 3.118133 1_665
Cd17 Y12 3.424260 1_555
Cd17 Y4 3.424260 1_554
Cd18 Cd28 2.845122 1_545
Cd18 Cd29 2.853533 1_555
Cd18 Cd76 2.878577 1_555
Cd18 Cd42 2.933556 1_555
Cd18 Y0 3.397206 1_555
Cd18 Cd35 3.398515 1_555
Cd18 Y17 3.425271 1_555
Cd18 Y14 3.445905 1_545
Cd18 Y23 3.582747 1_555
Cd19 Cd68 2.878577 1_455
Cd19 Cd30 2.878577 1_555
Cd19 Cd21 3.118133 1_555
Cd19 Y22 3.118133 1_555
Cd19 Cd34 3.118133 1_455
Cd19 Y5 3.424260 1_455
Cd19 Y20 3.424260 1_555
Cd20 Cd45 2.845122 1_655
Cd20 Cd54 2.875760 1_555
Cd20 Cd43 3.159641 1_555
Cd20 Cd66 3.159641 1_555
Cd20 Cd65 3.371199 1_555
Cd20 Y10 3.442510 1_655
Cd20 Y4 3.522977 1_555
Cd20 Y8 3.522977 1_555
Cd20 Y3 3.720967 1_655
Cd21 Cd46 2.878577 1_555
Cd21 Cd3 2.878577 1_555
Cd21 Cd74 2.888525 1_555
Cd21 Cd76 3.118133 1_555
Cd21 Y22 3.118133 1_555
Cd21 Y0 3.424260 1_555
Cd21 Y20 3.424260 1_555
Cd22 Cd58 2.853533 1_555
Cd22 Cd84 3.298912 1_545
Cd22 Cd92 3.310208 1_544
Cd22 Y7 3.397206 1_554
Cd22 Cd52 3.398515 1_555
Cd22 Y17 3.425271 1_555
Cd22 Y12 3.445905 1_545
Cd22 Y11 3.582747 1_555
Cd23 Cd93 2.858369 1_555
Cd23 Cd29 2.917024 1_555
Cd23 Cd24 2.917024 1_555
Cd23 Cd27 2.935253 1_555
Cd23 Cd53 3.143082 1_555
Cd23 Cd35 3.143082 1_555
Cd23 Cd98 3.289828 1_555
Cd23 Cd3 3.398515 1_555
Cd23 Cd78 3.398515 1_555
Cd23 Y8 3.424487 1_555
Cd23 Y0 3.424487 1_555
Cd23 Y25 3.448042 1_555
Cd24 Cd25 2.847635 1_555
Cd24 Cd78 2.853533 1_555
Cd24 Cd53 2.917024 1_555
Cd24 Cd83 3.064145 1_555
Cd24 Y1 3.216846 1_555
Cd24 Y8 3.378503 1_555
Cd24 Y6 3.390649 1_555
Cd24 Y25 3.390649 1_555
Cd25 Cd4 2.853533 1_555
Cd25 Cd7 2.853533 1_555
Cd25 Cd80 2.917024 1_555
Cd25 Cd5 2.917024 1_555
Cd25 Cd83 3.064145 1_555
Cd25 Y1 3.216846 1_555
Cd25 Y4 3.378503 1_554
Cd25 Y6 3.390649 1_555
Cd25 Y25 3.390649 1_555
Cd26 Cd77 2.845122 1_655
Cd26 Cd58 2.853533 1_555
Cd26 Cd67 3.298912 1_655
Cd26 Cd33 3.310208 1_654
Cd26 Y7 3.397206 1_554
Cd26 Cd80 3.398515 1_555
Cd26 Y6 3.425271 1_555
Cd26 Y2 3.445905 1_655
Cd26 Y11 3.582747 1_555
Cd27 Cd53 2.935244 1_555
Cd27 Cd35 2.935244 1_555
Cd27 Cd95 3.009609 1_555
Cd27 Cd54 3.009609 1_555
Cd27 Cd98 3.030858 1_555
Cd27 Y5 3.547075 1_555
Cd27 Y8 3.547089 1_555
Cd27 Y0 3.547089 1_555
Cd28 Cd61 2.845122 1_565
Cd28 Cd90 3.084151 1_555
Cd28 Cd9 3.159627 1_555
Cd28 Cd96 3.159627 1_555
Cd28 Cd84 3.371199 1_555
Cd28 Y23 3.442510 1_565
Cd28 Y14 3.522977 1_555
Cd28 Y24 3.522977 1_555
Cd28 Y17 3.720967 1_565
Cd29 Cd71 2.847635 1_555
Cd29 Cd3 2.853533 1_555
Cd29 Cd35 2.917024 1_555
Cd29 Cd83 3.064145 1_555
Cd29 Y23 3.216846 1_555
Cd29 Y0 3.378503 1_555
Cd29 Y17 3.390649 1_555
Cd29 Y25 3.390649 1_555
Cd30 Cd38 2.845122 1_455
Cd30 Cd86 2.933556 1_555
Cd30 Cd68 3.310208 1_455
Cd30 Y20 3.397206 1_555
Cd30 Cd48 3.398515 1_555
Cd30 Y3 3.425271 1_555
Cd30 Y5 3.445905 1_455
Cd30 Y18 3.582747 1_555
Cd31 Cd87 3.064133 1_555
Cd31 Cd82 3.064133 1_555
Cd31 Cd57 3.064145 1_555
Cd31 Cd79 3.064145 1_555
Cd31 Y9 3.343567 1_555
Cd31 Y3 3.343567 1_555
Cd31 Y16 3.343580 1_555
Cd32 Cd92 2.845122 1_545
Cd32 Cd38 3.084151 1_555
Cd32 Cd97 3.159627 1_555
Cd32 Cd47 3.371199 1_555
Cd32 Y19 3.442510 1_545
Cd32 Y5 3.522977 1_555
Cd32 Y7 3.522977 1_555
Cd32 Y9 3.720967 1_545
Cd33 Cd38 2.845122 1_455
Cd33 Cd57 2.853533 1_555
Cd33 Cd65 3.298911 1_455
Cd33 Y2 3.397206 1_556
Cd33 Cd8 3.398515 1_555
Cd33 Y3 3.425271 1_555
Cd33 Y7 3.445905 1_455
Cd33 Y18 3.582747 1_555
Cd34 Cd36 2.878577 1_555
Cd34 Cd72 3.118133 1_545
Cd34 Y22 3.118133 1_655
Cd34 Y5 3.424260 1_555
Cd34 Y13 3.424260 1_545
Cd35 Cd42 2.858369 1_555
Cd35 Cd62 2.917024 1_555
Cd35 Cd53 3.143082 1_555
Cd35 Cd36 3.398515 1_555
Cd35 Y0 3.424487 1_555
Cd35 Y5 3.424487 1_555
Cd35 Y17 3.448042 1_555
Cd36 Cd62 2.853533 1_555
Cd36 Cd42 2.933556 1_555
Cd36 Y5 3.397206 1_555
Cd36 Y17 3.425271 1_555
Cd36 Y13 3.445905 1_545
Cd36 Y11 3.582747 1_555
Cd37 Cd64 2.845122 1_545
Cd37 Cd95 2.875760 1_555
Cd37 Cd99 3.084151 1_555
Cd37 Cd94 3.159641 1_555
Cd37 Cd74 3.159641 1_555
Cd37 Cd47 3.371199 1_555
Cd37 Y10 3.442510 1_545
Cd37 Y21 3.522977 1_555
Cd37 Y0 3.522977 1_555
Cd37 Y9 3.720967 1_545
Cd38 Cd97 3.159627 1_555
Cd38 Cd65 3.371199 1_555
Cd38 Y18 3.442510 1_655
Cd38 Y5 3.522977 1_555
Cd38 Y7 3.522977 1_555
Cd38 Y3 3.720967 1_655
Cd39 Cd7 2.878577 1_455
Cd39 Cd96 2.888528 1_555
Cd39 Cd43 2.888533 1_454
Cd39 Y15 3.118133 1_565
Cd39 Cd89 3.118133 1_565
Cd39 Y24 3.424260 1_555
Cd39 Y4 3.424260 1_454
Cd40 Cd85 2.816127 1_555
Cd40 Cd50 3.193922 1_555
Cd40 Y25 3.264241 1_555
Cd40 Cd81 3.298912 1_555
Cd40 Cd59 3.371199 1_555
Cd40 Cd69 3.371199 1_555
Cd40 Y12 3.558329 1_555
Cd40 Y2 3.558329 1_555
Cd41 Cd86 2.816127 1_555
Cd41 Cd88 3.030844 1_555
Cd41 Cd67 3.193922 1_555
Cd41 Y6 3.264241 1_455
Cd41 Cd48 3.289828 1_555
Cd41 Cd68 3.298912 1_455
Cd41 Cd90 3.371199 1_555
Cd41 Cd77 3.371199 1_555
Cd41 Y20 3.558329 1_555
Cd41 Y14 3.558329 1_555
Cd43 Cd73 2.915992 1_665
Cd43 Cd66 2.933911 1_555
Cd43 Y19 3.466665 1_555
Cd43 Y10 3.466679 1_655
Cd43 Y15 3.497352 1_666
Cd43 Y4 3.504138 1_555
Cd44 Cd75 2.888525 1_555
Cd44 Cd51 2.915992 1_555
Cd44 Cd59 3.159633 1_555
Cd44 Cd77 3.159641 1_555
Cd44 Y23 3.466665 1_555
Cd44 Y11 3.466679 1_455
Cd44 Y15 3.497352 1_555
Cd44 Y2 3.504138 1_555
Cd45 Cd87 2.853533 1_555
Cd45 Cd91 2.878577 1_555
Cd45 Cd86 2.933556 1_555
Cd45 Y14 3.397206 1_555
Cd45 Cd48 3.398515 1_555
Cd45 Y3 3.425271 1_555
Cd45 Y8 3.445905 1_455
Cd45 Y10 3.582747 1_555
Cd46 Cd99 2.845122 1_555
Cd46 Cd93 2.933556 1_555
Cd46 Cd98 3.298912 1_555
Cd46 Y20 3.397206 1_555
Cd46 Cd60 3.398515 1_555
Cd46 Y16 3.425271 1_555
Cd46 Y0 3.445905 1_555
Cd46 Y18 3.582747 1_555
Cd47 Cd95 3.018317 1_555
Cd47 Cd56 3.030844 1_555
Cd47 Y9 3.264241 1_545
Cd47 Cd52 3.289828 1_556
Cd47 Cd92 3.298911 1_545
Cd47 Cd64 3.298912 1_545
Cd47 Y21 3.558329 1_555
Cd47 Y7 3.558329 1_555
Cd48 Cd86 2.858369 1_555
Cd48 Cd87 2.917024 1_555
Cd48 Cd88 2.935244 1_555
Cd48 Cd60 3.143082 1_555
Cd48 Y20 3.424487 1_555
Cd48 Y14 3.424487 1_555
Cd48 Y3 3.448042 1_555
Cd49 Cd79 2.853533 1_555
Cd49 Cd72 2.878577 1_555
Cd49 Cd93 2.933556 1_555
Cd49 Cd98 3.298912 1_555
Cd49 Cd78 3.310208 1_555
Cd49 Y13 3.397206 1_555
Cd49 Cd60 3.398515 1_555
Cd49 Y16 3.425271 1_555
Cd49 Y8 3.445905 1_555
Cd49 Y19 3.582747 1_555
Cd50 Cd93 2.816127 1_555
Cd50 Cd88 3.030858 1_555
Cd50 Y25 3.264241 1_555
Cd50 Cd60 3.289828 1_555
Cd50 Cd78 3.298912 1_555
Cd50 Cd59 3.371199 1_555
Cd50 Cd69 3.371199 1_555
Cd50 Y13 3.558329 1_555
Cd50 Y20 3.558329 1_555
Cd51 Cd63 2.915992 1_445
Cd51 Cd96 2.916004 1_545
Cd51 Cd9 2.916004 1_545
Cd51 Y11 3.518951 1_455
Cd51 Y23 3.518951 1_555
Cd51 Y1 3.518951 1_445
Cd52 Cd71 2.917024 1_555
Cd52 Cd58 2.917024 1_555
Cd52 Cd56 2.935244 1_554
Cd52 Cd80 3.143082 1_555
Cd52 Cd61 3.398515 1_555
Cd52 Y21 3.424487 1_554
Cd52 Y7 3.424487 1_554
Cd52 Y17 3.448042 1_555
Cd53 Cd86 2.858369 1_655
Cd53 Cd62 2.917024 1_555
Cd53 Cd68 3.398515 1_555
Cd53 Y8 3.424487 1_555
Cd53 Y5 3.424487 1_555
Cd53 Y6 3.448042 1_555
Cd54 Cd56 3.009609 1_555
Cd54 Cd65 3.018317 1_555
Cd54 Cd70 3.018317 1_555
Cd54 Cd98 3.018317 1_555
Cd54 Cd95 3.176701 1_555
Cd54 Y4 3.483490 1_555
Cd54 Y8 3.483490 1_555
Cd55 Cd82 2.917024 1_555
Cd55 Cd8 3.143082 1_555
Cd55 Cd84 3.289828 1_556
Cd55 Cd64 3.398515 1_555
Cd55 Cd92 3.398515 1_555
Cd55 Y12 3.424487 1_556
Cd55 Y24 3.424487 1_556
Cd55 Y9 3.448042 1_555
Cd56 Cd80 2.935244 1_556
Cd56 Cd95 3.009609 1_555
Cd56 Cd65 3.030844 1_555
Cd56 Cd70 3.030858 1_555
Cd56 Y7 3.547075 1_555
Cd56 Y4 3.547089 1_555
Cd56 Y21 3.547089 1_555
Cd57 Cd8 2.917024 1_555
Cd57 Y18 3.216846 1_555
Cd57 Y2 3.378503 1_556
Cd57 Y3 3.390649 1_555
Cd57 Y16 3.390649 1_555
Cd58 Cd62 2.847635 1_555
Cd58 Cd80 2.917024 1_555
Cd58 Cd83 3.064133 1_555
Cd58 Y11 3.216846 1_555
Cd58 Y7 3.378503 1_554
Cd58 Y6 3.390649 1_555
Cd58 Y17 3.390649 1_555
Cd59 Cd81 2.845122 1_555
Cd59 Cd77 3.084151 1_555
Cd59 Y23 3.442510 1_555
Cd59 Y20 3.522977 1_555
Cd59 Y2 3.522977 1_555
Cd59 Y25 3.720967 1_555
Cd60 Cd93 2.858369 1_555
Cd60 Cd79 2.917024 1_555
Cd60 Cd88 2.935253 1_555
Cd60 Y13 3.424487 1_555
Cd60 Y20 3.424487 1_555
Cd60 Y16 3.448042 1_555
Cd61 Cd71 2.853533 1_555
Cd61 Cd89 2.878577 1_555
Cd61 Cd84 3.298911 1_545
Cd61 Cd64 3.310208 1_544
Cd61 Y21 3.397206 1_554
Cd61 Y17 3.425271 1_555
Cd61 Y24 3.445905 1_545
Cd61 Y23 3.582747 1_555
Cd62 Cd68 2.853533 1_555
Cd62 Cd83 3.064133 1_555
Cd62 Y11 3.216846 1_555
Cd62 Y5 3.378503 1_555
Cd62 Y6 3.390649 1_555
Cd62 Y17 3.390649 1_555
Cd63 Cd69 3.159633 1_555
Cd63 Y1 3.466665 1_555
Cd63 Y11 3.466679 1_565
Cd63 Y15 3.497352 1_665
Cd63 Y12 3.504138 1_555
Cd64 Cd82 2.853533 1_555
Cd64 Cd89 2.878577 1_566
Cd64 Y24 3.397206 1_556
Cd64 Y9 3.425271 1_555
Cd64 Y21 3.445905 1_565
Cd64 Y10 3.582747 1_555
Cd65 Y3 3.264241 1_655
Cd65 Cd80 3.289828 1_556
Cd65 Y4 3.558329 1_555
Cd65 Y7 3.558329 1_555
Cd66 Cd72 2.888525 1_555
Cd66 Cd91 2.888533 1_655
Cd66 Cd73 2.915992 1_665
Cd66 Y19 3.466665 1_555
Cd66 Y10 3.466679 1_655
Cd66 Y22 3.497352 1_665
Cd66 Y8 3.504138 1_555
Cd67 Y6 3.264241 1_455
Cd67 Cd8 3.289828 1_554
Cd67 Cd7 3.298911 1_455
Cd67 Cd90 3.371199 1_555
Cd67 Cd77 3.371199 1_555
Cd67 Y2 3.558329 1_555
Cd67 Y24 3.558329 1_555
Cd68 Cd77 2.845122 1_655
Cd68 Cd86 2.933556 1_655
Cd68 Y5 3.397206 1_555
Cd68 Y6 3.425271 1_555
Cd68 Y20 3.445905 1_655
Cd68 Y11 3.582747 1_555
Cd69 Cd78 2.845122 1_555
Cd69 Y1 3.442510 1_555
Cd69 Y13 3.522977 1_555
Cd69 Y12 3.522977 1_555
Cd69 Y25 3.720967 1_555
Cd70 Cd85 2.816127 1_556
Cd70 Cd95 3.018317 1_555
Cd70 Cd98 3.193922 1_555
Cd70 Y16 3.264241 1_555
Cd70 Cd99 3.371199 1_555
Cd70 Y4 3.558329 1_555
Cd70 Y21 3.558329 1_555
Cd71 Cd81 2.853533 1_555
Cd71 Cd83 3.064145 1_555
Cd71 Y23 3.216846 1_555
Cd71 Y21 3.378503 1_554
Cd71 Y17 3.390649 1_555
Cd71 Y25 3.390649 1_555
Cd72 Cd78 2.878577 1_555
Cd72 Cd91 3.118133 1_655
Cd72 Y22 3.118133 1_665
Cd72 Y13 3.424260 1_555
Cd72 Y8 3.424260 1_555
Cd73 Cd94 2.915992 1_555
Cd73 Cd74 2.915992 1_555
Cd73 Cd97 2.916004 1_455
Cd73 Y10 3.518951 1_545
Cd73 Y18 3.518951 1_555
Cd73 Y19 3.518951 1_445
Cd74 Cd76 2.888533 1_555
Cd74 Cd94 2.933911 1_555
Cd74 Cd99 3.159633 1_555
Cd74 Y18 3.466665 1_555
Cd74 Y10 3.466679 1_545
Cd74 Y22 3.497352 1_555
Cd74 Y0 3.504138 1_555
Cd75 Cd81 2.878577 1_555
Cd75 Cd94 2.888525 1_554
Cd75 Cd89 3.118133 1_555
Cd75 Y15 3.118133 1_555
Cd75 Y2 3.424260 1_555
Cd75 Y21 3.424260 1_554
Cd76 Cd9 2.888528 1_545
Cd76 Y22 3.118133 1_555
Cd76 Cd91 3.118133 1_545
Cd76 Y14 3.424260 1_545
Cd76 Y0 3.424260 1_555
Cd77 Y11 3.442510 1_455
Cd77 Y20 3.522977 1_555
Cd77 Y2 3.522977 1_555
Cd77 Y6 3.720967 1_455
Cd78 Cd93 2.933556 1_555
Cd78 Y8 3.397206 1_555
Cd78 Y25 3.425271 1_555
Cd78 Y13 3.445905 1_555
Cd78 Y1 3.582747 1_555
Cd79 Y19 3.216846 1_555
Cd79 Y13 3.378503 1_555
Cd79 Y9 3.390649 1_555
Cd79 Y16 3.390649 1_555
Cd80 Y4 3.424487 1_554
Cd80 Y7 3.424487 1_554
Cd80 Y6 3.448042 1_555
Cd81 Cd85 2.933556 1_555
Cd81 Y21 3.397206 1_554
Cd81 Y25 3.425271 1_555
Cd81 Y2 3.445905 1_555
Cd81 Y23 3.582747 1_555
Cd82 Cd87 2.847635 1_555
Cd82 Y10 3.216846 1_555
Cd82 Y24 3.378503 1_556
Cd82 Y9 3.390649 1_555
Cd82 Y3 3.390649 1_555
Cd83 Y6 3.343567 1_555
Cd83 Y17 3.343567 1_555
Cd83 Y25 3.343580 1_555
Cd84 Y17 3.264241 1_565
Cd84 Y12 3.558329 1_555
Cd84 Y24 3.558329 1_555
Cd87 Y10 3.216846 1_555
Cd87 Y14 3.378503 1_555
Cd87 Y9 3.390649 1_555
Cd87 Y3 3.390649 1_555
Cd88 Y14 3.547075 1_555
Cd88 Y13 3.547089 1_555
Cd88 Y20 3.547089 1_555
Cd89 Cd96 2.888528 1_545
Cd89 Cd94 2.888533 1_554
Cd89 Y15 3.118133 1_555
Cd89 Y24 3.424260 1_545
Cd89 Y21 3.424260 1_554
Cd90 Cd96 3.159627 1_555
Cd90 Y1 3.442510 1_455
Cd90 Y14 3.522977 1_555
Cd90 Y24 3.522977 1_555
Cd90 Y6 3.720967 1_455
Cd91 Y22 3.118133 1_565
Cd91 Y14 3.424260 1_555
Cd91 Y8 3.424260 1_455
Cd92 Y12 3.397206 1_556
Cd92 Y9 3.425271 1_555
Cd92 Y7 3.445905 1_565
Cd92 Y19 3.582747 1_555
Cd93 Cd98 2.816127 1_555
Cd94 Cd99 3.159633 1_555
Cd94 Y18 3.466665 1_555
Cd94 Y10 3.466679 1_545
Cd94 Y15 3.497352 1_556
Cd94 Y21 3.504138 1_555
Cd95 Cd99 2.875760 1_555
Cd95 Cd98 3.018317 1_555
Cd95 Y21 3.483490 1_555
Cd95 Y0 3.483490 1_555
Cd96 Y1 3.466675 1_455
Cd96 Y23 3.466675 1_565
Cd96 Y15 3.497362 1_565
Cd96 Y24 3.504126 1_555
Cd97 Y19 3.466675 1_545
Cd97 Y18 3.466675 1_655
Cd97 Y15 3.497362 1_656
Cd97 Y7 3.504126 1_555
Cd98 Y16 3.264241 1_555
Cd98 Cd99 3.371199 1_555
Cd98 Y8 3.558329 1_555
Cd98 Y0 3.558329 1_555
Cd99 Y18 3.442510 1_555
Cd99 Y21 3.522977 1_555
Cd99 Y0 3.522977 1_555
Cd99 Y16 3.720967 1_555
Cd100 Cd90 2.875760 1_555
Cd100 Cd28 2.875760 1_555
Cd100 Cd102 3.009601 1_555
Cd100 Cd88 3.009601 1_555
Cd100 Cd41 3.018317 1_555
Cd100 Cd67 3.018317 1_555
Cd100 Cd13 3.018317 1_555
Cd100 Cd84 3.018317 1_555
Cd100 Cd103 3.176701 1_555
Cd100 Cd115 3.176701 1_555
Cd100 Y14 3.483490 1_555
Cd100 Y24 3.483490 1_555
Cd101 Cd90 2.845122 1_655
Cd101 Cd24 2.853533 1_555
Cd101 Cd91 2.878577 1_655
Cd101 Cd86 2.933556 1_655
Cd101 Cd41 3.298911 1_655
Cd101 Cd45 3.310208 1_655
Cd101 Y8 3.397206 1_555
Cd101 Cd53 3.398515 1_555
Cd101 Y6 3.425271 1_555
Cd101 Y14 3.445905 1_655
Cd101 Y1 3.582747 1_555
Cd102 Cd55 2.935244 1_554
Cd102 Cd8 2.935244 1_554
Cd102 Cd111 2.935253 1_554
Cd102 Cd103 3.009609 1_555
Cd102 Cd115 3.009609 1_555
Cd102 Cd84 3.030844 1_555
Cd102 Cd67 3.030844 1_555
Cd102 Cd40 3.030858 1_555
Cd102 Y24 3.547075 1_555
Cd102 Y12 3.547089 1_555
Cd102 Y2 3.547089 1_555
Cd103 Cd59 2.875760 1_555
Cd103 Cd77 2.875760 1_555
Cd103 Cd88 3.009609 1_555
Cd103 Cd67 3.018317 1_555
Cd103 Cd41 3.018317 1_555
Cd103 Cd40 3.018317 1_555
Cd103 Cd50 3.018317 1_555
Cd103 Cd115 3.176701 1_555
Cd103 Y20 3.483490 1_555
Cd103 Y2 3.483490 1_555
Cd104 Cd22 2.878577 1_555
Cd104 Cd92 2.878577 1_544
Cd104 Cd97 2.888528 1_554
Cd104 Cd63 2.888533 1_545
Cd104 Y15 3.118133 1_655
Cd104 Cd17 3.118133 1_545
Cd104 Y7 3.424260 1_554
Cd104 Y12 3.424260 1_545
Cd105 Cd36 2.845122 1_565
Cd105 Cd22 2.845122 1_565
Cd105 Cd115 2.875760 1_555
Cd105 Cd69 3.084151 1_555
Cd105 Cd11 3.159641 1_555
Cd105 Cd63 3.159641 1_555
Cd105 Cd13 3.371199 1_555
Cd105 Cd84 3.371199 1_555
Cd105 Y11 3.442510 1_565
Cd105 Y13 3.522977 1_555
Cd105 Y12 3.522977 1_555
Cd105 Y17 3.720967 1_565
Cd106 Cd84 2.816127 1_545
Cd106 Cd47 2.816127 1_554
Cd106 Cd52 2.858369 1_555
Cd106 Cd55 2.858369 1_544
Cd106 Cd61 2.933556 1_555
Cd106 Cd92 2.933556 1_544
Cd106 Cd22 2.933556 1_555
Cd106 Cd64 2.933556 1_544
Cd107 Cd86 2.816127 1_655
Cd107 Cd54 3.018317 1_555
Cd107 Cd12 3.018317 1_555
Cd107 Cd27 3.030844 1_555
Cd107 Cd65 3.193922 1_555
Cd107 Y3 3.264241 1_655
Cd107 Cd53 3.289828 1_555
Cd107 Cd30 3.298911 1_655
Cd107 Cd45 3.298912 1_655
Cd107 Cd38 3.371199 1_555
Cd107 Cd20 3.371199 1_555
Cd107 Y8 3.558329 1_555
Cd107 Y5 3.558329 1_555
Cd108 Cd37 2.845122 1_565
Cd108 Cd87 2.853533 1_555
Cd108 Cd76 2.878577 1_565
Cd108 Cd42 2.933556 1_565
Cd108 Cd18 3.310208 1_565
Cd108 Y14 3.397206 1_555
Cd108 Cd114 3.398515 1_555
Cd108 Y9 3.425271 1_555
Cd108 Y0 3.445905 1_565
Cd108 Y10 3.582747 1_555
Cd109 Cd67 2.816127 1_555
Cd109 Cd65 2.816127 1_454
Cd109 Cd8 2.858369 1_554
Cd109 Cd80 2.858369 1_455
Cd109 Cd33 2.933556 1_554
Cd109 Cd7 2.933556 1_455
Cd109 Cd15 2.933556 1_554
Cd109 Cd26 2.933556 1_455
Cd110 Cd21 2.888525 1_555
Cd110 Cd19 2.888533 1_555
Cd110 Cd51 2.915992 1_555
Cd110 Cd44 2.933911 1_555
Cd110 Cd59 3.159633 1_555
Cd110 Cd77 3.159641 1_555
Cd110 Y23 3.466665 1_555
Cd110 Y11 3.466679 1_455
Cd110 Y22 3.497352 1_555
Cd110 Y20 3.504138 1_555
Cd111 Cd85 2.858369 1_556
Cd111 Cd57 2.917024 1_555
Cd111 Cd16 2.917024 1_555
Cd111 Cd55 3.143082 1_555
Cd111 Cd8 3.143082 1_555
Cd111 Cd40 3.289828 1_556
Cd111 Cd14 3.398515 1_555
Cd111 Cd6 3.398515 1_555
Cd111 Y12 3.424487 1_556
Cd111 Y2 3.424487 1_556
Cd111 Y16 3.448042 1_555
Cd112 Cd57 2.847635 1_555
Cd112 Cd46 2.853533 1_555
Cd112 Cd30 2.853533 1_555
Cd112 Cd48 2.917024 1_555
Cd112 Cd60 2.917024 1_555
Cd112 Cd31 3.064145 1_555
Cd112 Y18 3.216846 1_555
Cd112 Y20 3.378503 1_555
Cd112 Y3 3.390649 1_555
Cd112 Y16 3.390649 1_555
Cd113 Cd49 2.845122 1_555
Cd113 Cd6 2.845122 1_555
Cd113 Cd54 2.875760 1_555
Cd113 Cd20 3.084151 1_555
Cd113 Cd43 3.159633 1_555
Cd113 Cd66 3.159633 1_555
Cd113 Cd70 3.371199 1_555
Cd113 Cd98 3.371199 1_555
Cd113 Y19 3.442510 1_555
Cd113 Y8 3.522977 1_555
Cd113 Y4 3.522977 1_555
Cd113 Y16 3.720967 1_555
Cd114 Cd42 2.858369 1_565
Cd114 Cd79 2.917024 1_555
Cd114 Cd87 2.917024 1_555
Cd114 Cd88 2.935244 1_555
Cd114 Cd60 3.143082 1_555
Cd114 Cd48 3.143082 1_555
Cd114 Cd13 3.289828 1_555
Cd114 Cd2 3.398515 1_555
Cd114 Y13 3.424487 1_555
Cd114 Y14 3.424487 1_555
Cd114 Y9 3.448042 1_555
Cd115 Cd69 2.875760 1_555
Cd115 Cd88 3.009609 1_555
Cd115 Cd84 3.018317 1_555
Cd115 Cd13 3.018317 1_555
Cd115 Cd50 3.018317 1_555
Cd115 Cd40 3.018317 1_555
Cd115 Y13 3.483490 1_555
Cd115 Y12 3.483490 1_555
