# generated using pymatgen
data_Ag3RuO4
_symmetry_space_group_name_H-M   'P 1'
_cell_length_a   7.30317300
_cell_length_b   7.30317300
_cell_length_c   8.41550200
_cell_angle_alpha   90.00000000
_cell_angle_beta   90.00000000
_cell_angle_gamma   90.00000000
_symmetry_Int_Tables_number   1
_chemical_formula_structural   Ag3RuO4
_chemical_formula_sum   'Ag12 Ru4 O16'
_cell_volume   448.85204117
_cell_formula_units_Z   4
loop_
 _symmetry_equiv_pos_site_id
 _symmetry_equiv_pos_as_xyz
  1  'x, y, z'
loop_
 _atom_site_type_symbol
 _atom_site_label
 _atom_site_symmetry_multiplicity
 _atom_site_fract_x
 _atom_site_fract_y
 _atom_site_fract_z
 _atom_site_occupancy
  Ag  Ag0  1  0.25367600  0.00000000  0.25000000  1
  Ag  Ag1  1  0.00000000  0.25367600  0.50000000  1
  Ag  Ag2  1  0.00000000  0.74632400  0.00000000  1
  Ag  Ag3  1  0.74632400  0.00000000  0.75000000  1
  Ag  Ag4  1  0.00000000  0.18452600  0.00000000  1
  Ag  Ag5  1  0.81547400  0.00000000  0.25000000  1
  Ag  Ag6  1  0.18452600  0.00000000  0.75000000  1
  Ag  Ag7  1  0.00000000  0.81547400  0.50000000  1
  Ag  Ag8  1  0.50000000  0.79932700  0.00000000  1
  Ag  Ag9  1  0.20067300  0.50000000  0.25000000  1
  Ag  Ag10  1  0.79932700  0.50000000  0.75000000  1
  Ag  Ag11  1  0.50000000  0.20067300  0.50000000  1
  Ru  Ru0  1  0.50000000  0.28361400  0.00000000  1
  Ru  Ru1  1  0.71638600  0.50000000  0.25000000  1
  Ru  Ru2  1  0.28361400  0.50000000  0.75000000  1
  Ru  Ru3  1  0.50000000  0.71638600  0.50000000  1
  O  O0  1  0.69182600  0.48291600  0.01535500  1
  O  O1  1  0.51708400  0.69182600  0.26535500  1
  O  O2  1  0.48291600  0.30817400  0.76535500  1
  O  O3  1  0.69182600  0.51708400  0.48464500  1
  O  O4  1  0.30817400  0.48291600  0.98464500  1
  O  O5  1  0.30817400  0.51708400  0.51535500  1
  O  O6  1  0.48291600  0.69182600  0.73464500  1
  O  O7  1  0.51708400  0.30817400  0.23464500  1
  O  O8  1  0.30959100  0.09570500  0.01232600  1
  O  O9  1  0.90429500  0.30959100  0.26232600  1
  O  O10  1  0.09570500  0.69040900  0.76232600  1
  O  O11  1  0.30959100  0.90429500  0.48767400  1
  O  O12  1  0.69040900  0.09570500  0.98767400  1
  O  O13  1  0.69040900  0.90429500  0.51232600  1
  O  O14  1  0.09570500  0.30959100  0.73767400  1
  O  O15  1  0.90429500  0.69040900  0.23767400  1
loop_
_geom_bond_atom_site_label_1
_geom_bond_atom_site_label_2
_geom_bond_distance
_geom_bond_site_symmetry_2
Ag0 O8 2.157747 1_555
Ag0 O11 2.157747 1_545
Ag1 O14 2.157747 1_555
Ag1 O9 2.157747 1_455
Ag2 O15 2.157747 1_455
Ag2 O10 2.157747 1_554
Ag3 O12 2.157747 1_555
Ag3 O13 2.157747 1_545
Ag4 O8 2.354495 1_555
Ag4 O12 2.354495 1_454
Ag4 O9 2.489236 1_455
Ag4 O14 2.489236 1_554
Ag5 O9 2.354495 1_555
Ag5 O15 2.354495 1_545
Ag5 O13 2.489236 1_545
Ag5 O12 2.489236 1_554
Ag6 O14 2.354495 1_555
Ag6 O10 2.354495 1_545
Ag6 O11 2.489236 1_545
Ag6 O8 2.489236 1_556
Ag7 O11 2.354495 1_555
Ag7 O13 2.354495 1_455
Ag7 O10 2.489236 1_555
Ag7 O15 2.489236 1_455
Ag8 O1 2.370372 1_555
Ag8 O6 2.370372 1_554
Ag8 O12 2.574793 1_564
Ag8 O8 2.574793 1_565
Ag8 O0 2.705391 1_555
Ag8 O4 2.705391 1_554
Ag9 O5 2.370372 1_555
Ag9 O4 2.370372 1_554
Ag9 O15 2.574793 1_455
Ag9 O9 2.574793 1_455
Ag9 O1 2.705391 1_555
Ag9 O7 2.705391 1_555
Ag10 O0 2.370372 1_556
Ag10 O3 2.370372 1_555
Ag10 O10 2.574793 1_655
Ag10 O14 2.574793 1_655
Ag10 O6 2.705391 1_555
Ag10 O2 2.705391 1_555
Ag11 O7 2.370372 1_555
Ag11 O2 2.370372 1_555
Ag11 O13 2.574793 1_545
Ag11 O11 2.574793 1_545
Ag11 O3 2.705391 1_555
Ag11 O5 2.705391 1_555
O0 Ru1 1.986707 1_555
O0 Ru0 2.024331 1_555
O1 Ru3 1.986707 1_555
O1 Ru1 2.024331 1_555
O2 Ru0 1.986707 1_556
O2 Ru2 2.024331 1_555
O3 Ru1 1.986707 1_555
O3 Ru3 2.024331 1_555
O4 Ru2 1.986707 1_555
O4 Ru0 2.024331 1_556
O5 Ru2 1.986707 1_555
O5 Ru3 2.024331 1_555
O6 Ru3 1.986707 1_555
O6 Ru2 2.024331 1_555
O7 Ru0 1.986707 1_555
O7 Ru1 2.024331 1_555
O8 Ru0 1.956475 1_555
O9 Ru1 1.956475 1_555
O10 Ru2 1.956475 1_555
O11 Ru3 1.956475 1_555
O12 Ru0 1.956475 1_556
O13 Ru3 1.956475 1_555
O14 Ru2 1.956475 1_555
O15 Ru1 1.956475 1_555
