# generated using pymatgen
data_Er5Si4
_symmetry_space_group_name_H-M   'P 1'
_cell_length_a   7.34207694
_cell_length_b   7.60011110
_cell_length_c   14.37300007
_cell_angle_alpha   89.99997492
_cell_angle_beta   89.99982009
_cell_angle_gamma   89.99997683
_symmetry_Int_Tables_number   1
_chemical_formula_structural   Er5Si4
_chemical_formula_sum   'Er20 Si16'
_cell_volume   802.02203415
_cell_formula_units_Z   4
loop_
 _symmetry_equiv_pos_site_id
 _symmetry_equiv_pos_as_xyz
  1  'x, y, z'
loop_
 _atom_site_type_symbol
 _atom_site_label
 _atom_site_symmetry_multiplicity
 _atom_site_fract_x
 _atom_site_fract_y
 _atom_site_fract_z
 _atom_site_occupancy
  Er  Er0  1  0.02881116  0.81760763  0.40101238  1
  Er  Er1  1  0.52881163  0.68239165  0.40101268  1
  Er  Er2  1  0.31737543  0.82042873  0.87674158  1
  Er  Er3  1  0.81737764  0.67957152  0.87674155  1
  Er  Er4  1  0.85222936  0.51068916  0.24999525  1
  Er  Er5  1  0.47117959  0.31760167  0.90100063  1
  Er  Er6  1  0.02882016  0.81759941  0.09899765  1
  Er  Er7  1  0.47118840  0.31760895  0.59898941  1
  Er  Er8  1  0.64777169  0.01068691  0.75000426  1
  Er  Er9  1  0.52881985  0.68239868  0.09899761  1
  Er  Er10  1  0.68262438  0.17956928  0.12325118  1
  Er  Er11  1  0.18262579  0.32042263  0.37674104  1
  Er  Er12  1  0.18262415  0.32043177  0.12325105  1
  Er  Er13  1  0.81737564  0.67957794  0.62326747  1
  Er  Er14  1  0.31737475  0.82042055  0.62326731  1
  Er  Er15  1  0.35222887  0.98931141  0.24999549  1
  Er  Er16  1  0.68262717  0.17957840  0.37674077  1
  Er  Er17  1  0.14777100  0.48931299  0.75000450  1
  Er  Er18  1  0.97118090  0.18239854  0.90100063  1
  Er  Er19  1  0.97119010  0.18239194  0.59898892  1
  Si  Si0  1  0.64697255  0.97153133  0.53990963  1
  Si  Si1  1  0.23339575  0.62944960  0.25001133  1
  Si  Si2  1  0.35302542  0.02846728  0.46008708  1
  Si  Si3  1  0.01954012  0.89512900  0.74999126  1
  Si  Si4  1  0.73339717  0.87055072  0.25001132  1
  Si  Si5  1  0.26660327  0.12944681  0.74998868  1
  Si  Si6  1  0.85302678  0.47153275  0.46008688  1
  Si  Si7  1  0.48046124  0.39513471  0.25000877  1
  Si  Si8  1  0.14697129  0.52846842  0.53990990  1
  Si  Si9  1  0.14697158  0.52846227  0.96008461  1
  Si  Si10  1  0.98046098  0.10486559  0.25000893  1
  Si  Si11  1  0.76660495  0.37055347  0.74998844  1
  Si  Si12  1  0.35302371  0.02846362  0.03991781  1
  Si  Si13  1  0.85302529  0.47153631  0.03991809  1
  Si  Si14  1  0.64697243  0.97153757  0.96008466  1
  Si  Si15  1  0.51953981  0.60487078  0.74999123  1
loop_
_geom_bond_atom_site_label_1
_geom_bond_atom_site_label_2
_geom_bond_distance
_geom_bond_site_symmetry_2
Er0 Si2 2.992570 1_565
Er0 Si1 3.001923 1_555
Er0 Si6 3.050348 1_455
Er0 Si8 3.093074 1_555
Er0 Si4 3.094617 1_455
Er0 Si10 3.098849 1_465
Er0 Si0 3.635041 1_455
Er1 Si6 2.992569 1_555
Er1 Si4 3.001933 1_555
Er1 Si2 3.050358 1_565
Er1 Si0 3.093074 1_555
Er1 Si1 3.094629 1_555
Er1 Si7 3.098850 1_555
Er1 Si8 3.635050 1_555
Er2 Si9 2.814976 1_555
Er2 Si12 2.840587 1_566
Er2 Si15 2.864603 1_555
Er2 Si3 2.902244 1_555
Er2 Si14 2.934268 1_555
Er2 Si5 2.995626 1_565
Er3 Si14 2.814978 1_555
Er3 Si13 2.840590 1_556
Er3 Si3 2.864593 1_655
Er3 Si15 2.902259 1_555
Er3 Si9 2.934250 1_655
Er3 Si11 2.995630 1_555
Er4 Si7 2.867356 1_555
Er4 Si4 2.870779 1_555
Er4 Si1 2.940506 1_655
Er4 Si13 3.034072 1_555
Er4 Si6 3.034281 1_555
Er4 Si10 3.224799 1_555
Er5 Si9 2.992570 1_555
Er5 Si5 3.002002 1_555
Er5 Si14 3.050343 1_545
Er5 Si12 3.093238 1_556
Er5 Si11 3.094787 1_555
Er5 Si15 3.098976 1_555
Er5 Si13 3.635278 1_556
Er6 Si12 2.992542 1_565
Er6 Si1 3.001997 1_555
Er6 Si13 3.050327 1_455
Er6 Si9 3.093186 1_554
Er6 Si4 3.094789 1_455
Er6 Si10 3.098979 1_465
Er6 Si14 3.635262 1_454
Er7 Si8 2.992604 1_555
Er7 Si5 3.001921 1_555
Er7 Si0 3.050386 1_545
Er7 Si2 3.093139 1_555
Er7 Si11 3.094612 1_555
Er7 Si15 3.098856 1_555
Er7 Si6 3.635082 1_555
Er8 Si3 2.867365 1_645
Er8 Si11 2.870818 1_555
Er8 Si5 2.940518 1_555
Er8 Si14 3.034115 1_545
Er8 Si0 3.034324 1_545
Er8 Si15 3.224746 1_545
Er9 Si13 2.992544 1_555
Er9 Si4 3.002014 1_555
Er9 Si12 3.050342 1_565
Er9 Si14 3.093197 1_554
Er9 Si1 3.094793 1_555
Er9 Si7 3.098964 1_555
Er9 Si9 3.635262 1_554
Er10 Si13 2.814909 1_555
Er10 Si14 2.840461 1_544
Er10 Si7 2.864697 1_555
Er10 Si10 2.902323 1_555
Er10 Si12 2.934224 1_555
Er10 Si4 2.995693 1_545
Er11 Si2 2.814916 1_555
Er11 Si8 2.840548 1_555
Er11 Si10 2.864441 1_455
Er11 Si7 2.902091 1_555
Er11 Si6 2.934293 1_455
Er11 Si1 2.995473 1_555
Er12 Si12 2.814912 1_555
Er12 Si9 2.840454 1_554
Er12 Si10 2.864703 1_455
Er12 Si7 2.902325 1_555
Er12 Si13 2.934206 1_455
Er12 Si1 2.995690 1_555
Er13 Si0 2.814988 1_555
Er13 Si6 2.840683 1_555
Er13 Si3 2.864338 1_655
Er13 Si15 2.902009 1_555
Er13 Si8 2.934340 1_655
Er13 Si11 2.995382 1_555
Er14 Si8 2.814981 1_555
Er14 Si2 2.840683 1_565
Er14 Si15 2.864334 1_555
Er14 Si3 2.902006 1_555
Er14 Si0 2.934358 1_555
Er14 Si5 2.995398 1_565
Er15 Si10 2.867353 1_465
Er15 Si1 2.870783 1_555
Er15 Si4 2.940519 1_555
Er15 Si12 3.034079 1_565
Er15 Si2 3.034281 1_565
Er15 Si7 3.224799 1_565
Er16 Si6 2.814912 1_555
Er16 Si0 2.840553 1_545
Er16 Si7 2.864439 1_555
Er16 Si10 2.902079 1_555
Er16 Si2 2.934316 1_555
Er16 Si4 2.995476 1_545
Er17 Si15 2.867368 1_555
Er17 Si5 2.870812 1_555
Er17 Si11 2.940501 1_455
Er17 Si9 3.034112 1_555
Er17 Si8 3.034323 1_555
Er17 Si3 3.224742 1_555
Er18 Si14 2.992575 1_545
Er18 Si11 3.002002 1_555
Er18 Si9 3.050336 1_655
Er18 Si13 3.093239 1_556
Er18 Si5 3.094769 1_655
Er18 Si3 3.098978 1_645
Er18 Si12 3.635259 1_656
Er19 Si0 2.992612 1_545
Er19 Si11 3.001922 1_555
Er19 Si8 3.050367 1_655
Er19 Si6 3.093131 1_555
Er19 Si5 3.094602 1_655
Er19 Si3 3.098864 1_645
Er19 Si2 3.635061 1_655
Si0 Si2 2.482194 1_565
Si1 Si7 2.542010 1_555
Si3 Si5 2.542014 1_565
Si6 Si8 2.482180 1_655
Si10 Si4 2.542002 1_545
Si11 Si15 2.542021 1_555
Si12 Si14 2.482255 1_544
Si13 Si9 2.482242 1_654
