# generated using pymatgen
data_ZrV2O7
_symmetry_space_group_name_H-M   'P 1'
_cell_length_a   8.93875185
_cell_length_b   8.93875185
_cell_length_c   8.93875185
_cell_angle_alpha   90.00000000
_cell_angle_beta   90.00000000
_cell_angle_gamma   90.00000000
_symmetry_Int_Tables_number   1
_chemical_formula_structural   ZrV2O7
_chemical_formula_sum   'Zr4 V8 O28'
_cell_volume   714.21775586
_cell_formula_units_Z   4
loop_
 _symmetry_equiv_pos_site_id
 _symmetry_equiv_pos_as_xyz
  1  'x, y, z'
loop_
 _atom_site_type_symbol
 _atom_site_label
 _atom_site_symmetry_multiplicity
 _atom_site_fract_x
 _atom_site_fract_y
 _atom_site_fract_z
 _atom_site_occupancy
  Zr  Zr0  1  0.50000000  -0.00000000  0.50000000  1
  Zr  Zr1  1  0.00000000  -0.00000000  -0.00000000  1
  Zr  Zr2  1  0.50000000  0.50000000  -0.00000000  1
  Zr  Zr3  1  0.00000000  0.50000000  0.50000000  1
  V  V0  1  0.38583367  0.38583367  0.38583367  1
  V  V1  1  0.61416633  0.61416633  0.61416633  1
  V  V2  1  0.38583367  0.11416633  0.88583367  1
  V  V3  1  0.11416633  0.61416633  0.88583367  1
  V  V4  1  0.11416633  0.88583367  0.38583367  1
  V  V5  1  0.88583367  0.38583367  0.11416633  1
  V  V6  1  0.88583367  0.11416633  0.61416633  1
  V  V7  1  0.61416633  0.88583367  0.11416633  1
  O  O0  1  0.00000000  -0.00000000  0.50000000  1
  O  O1  1  0.50000000  0.50000000  0.50000000  1
  O  O2  1  0.79537802  0.90893960  0.06337760  1
  O  O3  1  0.56337760  0.70462198  0.09106040  1
  O  O4  1  0.09106040  0.93662240  0.20462198  1
  O  O5  1  0.50000000  -0.00000000  -0.00000000  1
  O  O6  1  0.93662240  0.29537802  0.59106040  1
  O  O7  1  0.20462198  0.40893960  0.43662240  1
  O  O8  1  0.40893960  0.06337760  0.70462198  1
  O  O9  1  0.90893960  0.43662240  0.29537802  1
  O  O10  1  0.70462198  0.40893960  0.06337760  1
  O  O11  1  0.29537802  0.59106040  0.93662240  1
  O  O12  1  0.56337760  0.79537802  0.59106040  1
  O  O13  1  0.06337760  0.79537802  0.90893960  1
  O  O14  1  0.79537802  0.59106040  0.56337760  1
  O  O15  1  0.40893960  0.43662240  0.20462198  1
  O  O16  1  0.43662240  0.20462198  0.40893960  1
  O  O17  1  0.90893960  0.06337760  0.79537802  1
  O  O18  1  0.09106040  0.56337760  0.70462198  1
  O  O19  1  0.59106040  0.93662240  0.29537802  1
  O  O20  1  0.00000000  0.50000000  -0.00000000  1
  O  O21  1  0.70462198  0.09106040  0.56337760  1
  O  O22  1  0.93662240  0.20462198  0.09106040  1
  O  O23  1  0.20462198  0.09106040  0.93662240  1
  O  O24  1  0.06337760  0.70462198  0.40893960  1
  O  O25  1  0.29537802  0.90893960  0.43662240  1
  O  O26  1  0.59106040  0.56337760  0.79537802  1
  O  O27  1  0.43662240  0.29537802  0.90893960  1
loop_
_geom_bond_atom_site_label_1
_geom_bond_atom_site_label_2
_geom_bond_distance
_geom_bond_site_symmetry_2
O0 V6 1.767566 1_455
O0 V4 1.767566 1_545
O1 V0 1.767566 1_555
O1 V1 1.767566 1_555
O2 V7 1.694856 1_555
O2 Zr1 2.080616 1_665
O3 V7 1.694856 1_555
O3 Zr2 2.080616 1_555
O4 V4 1.694856 1_555
O4 Zr1 2.080616 1_565
O5 V7 1.767566 1_545
O5 V2 1.767566 1_554
O6 V6 1.694856 1_555
O6 Zr3 2.080616 1_655
O7 V0 1.694856 1_555
O7 Zr3 2.080616 1_555
O8 V2 1.694856 1_555
O8 Zr0 2.080616 1_555
O9 V5 1.694856 1_555
O9 Zr3 2.080616 1_655
O10 V5 1.694856 1_555
O10 Zr2 2.080616 1_555
O11 V3 1.694856 1_555
O11 Zr2 2.080616 1_556
O12 V1 1.694856 1_555
O12 Zr0 2.080616 1_565
O13 V3 1.694856 1_555
O13 Zr1 2.080616 1_566
O14 V1 1.694856 1_555
O14 Zr3 2.080616 1_655
O15 V0 1.694856 1_555
O15 Zr2 2.080616 1_555
O16 V0 1.694856 1_555
O16 Zr0 2.080616 1_555
O17 V6 1.694856 1_555
O17 Zr1 2.080616 1_656
O18 V3 1.694856 1_555
O18 Zr3 2.080616 1_555
O19 V7 1.694856 1_555
O19 Zr0 2.080616 1_565
O20 V3 1.767566 1_554
O20 V5 1.767566 1_455
O21 V6 1.694856 1_555
O21 Zr0 2.080616 1_555
O22 V5 1.694856 1_555
O22 Zr1 2.080616 1_655
O23 V2 1.694856 1_555
O23 Zr1 2.080616 1_556
O24 V4 1.694856 1_555
O24 Zr3 2.080616 1_555
O25 V4 1.694856 1_555
O25 Zr0 2.080616 1_565
O26 V1 1.694856 1_555
O26 Zr2 2.080616 1_556
O27 V2 1.694856 1_555
O27 Zr2 2.080616 1_556
