# generated using pymatgen
data_ZnNi(PO3)4
_symmetry_space_group_name_H-M   'P 1'
_cell_length_a   7.26038098
_cell_length_b   7.26038098
_cell_length_c   10.01715677
_cell_angle_alpha   67.08679451
_cell_angle_beta   67.08679451
_cell_angle_gamma   70.36478830
_symmetry_Int_Tables_number   1
_chemical_formula_structural   ZnNi(PO3)4
_chemical_formula_sum   'Zn2 Ni2 P8 O24'
_cell_volume   437.27953741
_cell_formula_units_Z   2
loop_
 _symmetry_equiv_pos_site_id
 _symmetry_equiv_pos_as_xyz
  1  'x, y, z'
loop_
 _atom_site_type_symbol
 _atom_site_label
 _atom_site_symmetry_multiplicity
 _atom_site_fract_x
 _atom_site_fract_y
 _atom_site_fract_z
 _atom_site_occupancy
  Zn  Zn0  1  0.95020800  0.04979200  0.25000000  1
  Zn  Zn1  1  0.04979200  0.95020800  0.75000000  1
  Ni  Ni0  1  0.50000000  0.00000000  0.50000000  1
  Ni  Ni1  1  0.00000000  0.50000000  0.00000000  1
  P  P0  1  0.31288800  0.29614200  0.19687800  1
  P  P1  1  0.70385800  0.68711200  0.30312200  1
  P  P2  1  0.68711200  0.70385800  0.80312200  1
  P  P3  1  0.29614200  0.31288800  0.69687800  1
  P  P4  1  0.72846900  0.25441400  0.97764300  1
  P  P5  1  0.74558600  0.27153100  0.52235700  1
  P  P6  1  0.27153100  0.74558600  0.02235700  1
  P  P7  1  0.25441400  0.72846900  0.47764300  1
  O  O0  1  0.31796700  0.53311000  0.15168600  1
  O  O1  1  0.46689000  0.68203300  0.34831400  1
  O  O2  1  0.68203300  0.46689000  0.84831400  1
  O  O3  1  0.53311000  0.31796700  0.65168600  1
  O  O4  1  0.50238600  0.21120800  0.06803000  1
  O  O5  1  0.78879200  0.49761400  0.43197000  1
  O  O6  1  0.49761400  0.78879200  0.93197000  1
  O  O7  1  0.21120800  0.50238600  0.56803000  1
  O  O8  1  0.34176000  0.19225500  0.34920300  1
  O  O9  1  0.80774500  0.65824000  0.15079700  1
  O  O10  1  0.65824000  0.80774500  0.65079700  1
  O  O11  1  0.19225500  0.34176000  0.84920300  1
  O  O12  1  0.12153000  0.28676000  0.17379400  1
  O  O13  1  0.71324000  0.87847000  0.32620600  1
  O  O14  1  0.87847000  0.71324000  0.82620600  1
  O  O15  1  0.28676000  0.12153000  0.67379400  1
  O  O16  1  0.80856000  0.29381300  0.08193900  1
  O  O17  1  0.70618700  0.19144000  0.41806100  1
  O  O18  1  0.19144000  0.70618700  0.91806100  1
  O  O19  1  0.29381300  0.80856000  0.58193900  1
  O  O20  1  0.84742100  0.08935500  0.90633700  1
  O  O21  1  0.91064500  0.15257900  0.59366300  1
  O  O22  1  0.15257900  0.91064500  0.09366300  1
  O  O23  1  0.08935500  0.84742100  0.40633700  1
loop_
_geom_bond_atom_site_label_1
_geom_bond_atom_site_label_2
_geom_bond_distance
_geom_bond_site_symmetry_2
Ni0 O10 2.044958 1_545
Ni0 O8 2.044958 1_555
Ni0 O13 2.094178 1_545
Ni0 O15 2.094178 1_555
Ni0 O17 2.097581 1_555
Ni0 O19 2.097581 1_545
Ni1 O11 2.044958 1_554
Ni1 O9 2.044958 1_455
Ni1 O14 2.094178 1_454
Ni1 O12 2.094178 1_555
Ni1 O18 2.097581 1_554
Ni1 O16 2.097581 1_455
O0 P0 1.609194 1_555
O0 P6 1.614363 1_555
O1 P1 1.609194 1_555
O1 P7 1.614363 1_555
O2 P2 1.609194 1_555
O2 P4 1.614363 1_555
O3 P3 1.609194 1_555
O3 P5 1.614363 1_555
O4 P4 1.606290 1_554
O4 P0 1.614272 1_555
O5 P5 1.606290 1_555
O5 P1 1.614272 1_555
O6 P6 1.606290 1_556
O6 P2 1.614272 1_555
O7 P7 1.606290 1_555
O7 P3 1.614272 1_555
O8 P0 1.479101 1_555
O9 P1 1.479101 1_555
O10 P2 1.479101 1_555
O11 P3 1.479101 1_555
O12 P0 1.521308 1_555
O12 Zn0 2.183154 1_455
O13 P1 1.521308 1_555
O13 Zn0 2.183154 1_565
O14 P2 1.521308 1_555
O14 Zn1 2.183154 1_655
O15 P3 1.521308 1_555
O15 Zn1 2.183154 1_545
O16 P4 1.526109 1_554
O16 Zn0 2.198137 1_555
O17 P5 1.526109 1_555
O17 Zn0 2.198137 1_555
O18 P6 1.526109 1_556
O18 Zn1 2.198137 1_555
O19 P7 1.526109 1_555
O19 Zn1 2.198137 1_555
O20 P4 1.477441 1_555
O20 Zn1 2.018568 1_645
O21 P5 1.477441 1_555
O21 Zn1 2.018568 1_645
O22 P6 1.477441 1_555
O22 Zn0 2.018568 1_465
O23 P7 1.477441 1_555
O23 Zn0 2.018568 1_465
