# generated using pymatgen
data_CdI2
_symmetry_space_group_name_H-M   'P 1'
_cell_length_a   4.33656436
_cell_length_b   4.33656436
_cell_length_c   122.10049300
_cell_angle_alpha   90.00000000
_cell_angle_beta   90.00000000
_cell_angle_gamma   120.00000543
_symmetry_Int_Tables_number   1
_chemical_formula_structural   CdI2
_chemical_formula_sum   'Cd16 I32'
_cell_volume   1988.56420228
_cell_formula_units_Z   16
loop_
 _symmetry_equiv_pos_site_id
 _symmetry_equiv_pos_as_xyz
  1  'x, y, z'
loop_
 _atom_site_type_symbol
 _atom_site_label
 _atom_site_symmetry_multiplicity
 _atom_site_fract_x
 _atom_site_fract_y
 _atom_site_fract_z
 _atom_site_occupancy
  Cd  Cd0  1  0.33333300  0.66666700  0.45314600  1
  Cd  Cd1  1  0.66666700  0.33333300  0.14058500  1
  Cd  Cd2  1  0.33333300  0.66666700  0.20314700  1
  Cd  Cd3  1  0.33333300  0.66666700  0.70314800  1
  Cd  Cd4  1  0.00000000  0.00000000  0.89065000  1
  Cd  Cd5  1  0.00000000  0.00000000  0.76565100  1
  Cd  Cd6  1  0.66666700  0.33333300  0.01560200  1
  Cd  Cd7  1  0.66666700  0.33333300  0.39059100  1
  Cd  Cd8  1  0.66666700  0.33333300  0.64059200  1
  Cd  Cd9  1  0.33333300  0.66666700  0.57814800  1
  Cd  Cd10  1  0.33333300  0.66666700  0.07814700  1
  Cd  Cd11  1  0.66666700  0.33333300  0.51559300  1
  Cd  Cd12  1  0.33333300  0.66666700  0.95314800  1
  Cd  Cd13  1  0.66666700  0.33333300  0.26558700  1
  Cd  Cd14  1  0.33333300  0.66666700  0.32814700  1
  Cd  Cd15  1  0.33333300  0.66666700  0.82814900  1
  I  I0  1  0.66666700  0.33333300  0.90473300  1
  I  I1  1  0.33333300  0.66666700  0.02968700  1
  I  I2  1  0.00000000  0.00000000  0.56405700  1
  I  I3  1  0.33333300  0.66666700  0.52967900  1
  I  I4  1  0.66666700  0.33333300  0.21724000  1
  I  I5  1  0.00000000  0.00000000  0.31405600  1
  I  I6  1  0.66666700  0.33333300  0.77973300  1
  I  I7  1  0.00000000  0.00000000  0.43905600  1
  I  I8  1  0.66666700  0.33333300  0.96724400  1
  I  I9  1  0.00000000  0.00000000  0.93905600  1
  I  I10  1  0.33333300  0.66666700  0.15467100  1
  I  I11  1  0.00000000  0.00000000  0.68905700  1
  I  I12  1  0.66666700  0.33333300  0.34224000  1
  I  I13  1  0.66666700  0.33333300  0.84224100  1
  I  I14  1  0.00000000  0.00000000  0.12649700  1
  I  I15  1  0.66666700  0.33333300  0.71724000  1
  I  I16  1  0.66666700  0.33333300  0.09224200  1
  I  I17  1  0.00000000  0.00000000  0.37650300  1
  I  I18  1  0.00000000  0.00000000  0.18905500  1
  I  I19  1  0.33333300  0.66666700  0.87656200  1
  I  I20  1  0.66666700  0.33333300  0.59224200  1
  I  I21  1  0.00000000  0.00000000  0.06405600  1
  I  I22  1  0.00000000  0.00000000  0.62650400  1
  I  I23  1  0.33333300  0.66666700  0.75156200  1
  I  I24  1  0.00000000  0.00000000  0.81405600  1
  I  I25  1  0.33333300  0.66666700  0.27967300  1
  I  I26  1  0.33333300  0.66666700  0.40467600  1
  I  I27  1  0.00000000  0.00000000  0.50150400  1
  I  I28  1  0.66666700  0.33333300  0.46723900  1
  I  I29  1  0.00000000  0.00000000  0.00151400  1
  I  I30  1  0.33333300  0.66666700  0.65467700  1
  I  I31  1  0.00000000  0.00000000  0.25149900  1
loop_
_geom_bond_atom_site_label_1
_geom_bond_atom_site_label_2
_geom_bond_distance
_geom_bond_site_symmetry_2
Cd0 I7 3.037819 1_565
Cd0 I7 3.037822 1_665
Cd0 I7 3.037822 1_555
Cd0 I28 3.038027 1_455
Cd0 I28 3.038027 1_565
Cd0 I28 3.038033 1_555
Cd1 I10 3.037543 1_655
Cd1 I10 3.037543 1_545
Cd1 I10 3.037549 1_555
Cd1 I14 3.037681 1_655
Cd1 I14 3.037684 1_555
Cd1 I14 3.037684 1_665
Cd2 I18 3.037958 1_565
Cd2 I18 3.037961 1_665
Cd2 I18 3.037961 1_555
Cd2 I4 3.038027 1_455
Cd2 I4 3.038027 1_565
Cd2 I4 3.038033 1_555
Cd3 I11 3.037889 1_565
Cd3 I11 3.037891 1_665
Cd3 I11 3.037891 1_555
Cd3 I15 3.037958 1_455
Cd3 I15 3.037958 1_565
Cd3 I15 3.037964 1_555
Cd4 I0 3.037335 1_455
Cd4 I0 3.037338 1_555
Cd4 I0 3.037338 1_445
Cd4 I19 3.037681 1_545
Cd4 I19 3.037684 1_555
Cd4 I19 3.037684 1_445
Cd5 I6 3.037266 1_455
Cd5 I6 3.037269 1_555
Cd5 I6 3.037269 1_445
Cd5 I23 3.037750 1_545
Cd5 I23 3.037753 1_555
Cd5 I23 3.037753 1_445
Cd6 I1 3.037474 1_545
Cd6 I1 3.037474 1_655
Cd6 I1 3.037480 1_555
Cd6 I29 3.037681 1_655
Cd6 I29 3.037684 1_665
Cd6 I29 3.037684 1_555
Cd7 I26 3.037474 1_655
Cd7 I26 3.037474 1_545
Cd7 I26 3.037480 1_555
Cd7 I17 3.037681 1_655
Cd7 I17 3.037684 1_665
Cd7 I17 3.037684 1_555
Cd8 I30 3.037474 1_655
Cd8 I30 3.037474 1_545
Cd8 I30 3.037480 1_555
Cd8 I22 3.037681 1_655
Cd8 I22 3.037684 1_555
Cd8 I22 3.037684 1_665
Cd9 I2 3.037889 1_565
Cd9 I2 3.037891 1_665
Cd9 I2 3.037891 1_555
Cd9 I20 3.038096 1_455
Cd9 I20 3.038096 1_565
Cd9 I20 3.038102 1_555
Cd10 I21 3.037889 1_565
Cd10 I21 3.037891 1_665
Cd10 I21 3.037891 1_555
Cd10 I16 3.038165 1_565
Cd10 I16 3.038165 1_455
Cd10 I16 3.038171 1_555
Cd11 I3 3.037543 1_545
Cd11 I3 3.037543 1_655
Cd11 I3 3.037549 1_555
Cd11 I27 3.037750 1_655
Cd11 I27 3.037753 1_665
Cd11 I27 3.037753 1_555
Cd12 I9 3.037958 1_565
Cd12 I9 3.037961 1_555
Cd12 I9 3.037961 1_665
Cd12 I8 3.038234 1_565
Cd12 I8 3.038234 1_455
Cd12 I8 3.038241 1_555
Cd13 I25 3.037543 1_655
Cd13 I25 3.037543 1_545
Cd13 I25 3.037549 1_555
Cd13 I31 3.037681 1_655
Cd13 I31 3.037684 1_555
Cd13 I31 3.037684 1_665
Cd14 I5 3.037889 1_565
Cd14 I5 3.037891 1_665
Cd14 I5 3.037891 1_555
Cd14 I12 3.038027 1_455
Cd14 I12 3.038027 1_565
Cd14 I12 3.038033 1_555
Cd15 I13 3.037958 1_455
Cd15 I13 3.037958 1_565
Cd15 I13 3.037964 1_555
Cd15 I24 3.038027 1_565
Cd15 I24 3.038030 1_665
Cd15 I24 3.038030 1_555
