# generated using pymatgen
data_Nd4MgIr
_symmetry_space_group_name_H-M   'P 1'
_cell_length_a   10.01262344
_cell_length_b   10.01266724
_cell_length_c   10.01260309
_cell_angle_alpha   59.99710797
_cell_angle_beta   59.99697468
_cell_angle_gamma   59.99713371
_symmetry_Int_Tables_number   1
_chemical_formula_structural   Nd4MgIr
_chemical_formula_sum   'Nd16 Mg4 Ir4'
_cell_volume   709.74254227
_cell_formula_units_Z   4
loop_
 _symmetry_equiv_pos_site_id
 _symmetry_equiv_pos_as_xyz
  1  'x, y, z'
loop_
 _atom_site_type_symbol
 _atom_site_label
 _atom_site_symmetry_multiplicity
 _atom_site_fract_x
 _atom_site_fract_y
 _atom_site_fract_z
 _atom_site_occupancy
  Nd  Nd0  1  0.65420557  0.03737403  0.65420664  1
  Nd  Nd1  1  0.81153735  0.18846547  0.81153740  1
  Nd  Nd2  1  0.18846801  0.81153631  0.81153508  1
  Nd  Nd3  1  0.06117790  0.43882780  0.43883127  1
  Nd  Nd4  1  0.06117696  0.06116947  0.43882961  1
  Nd  Nd5  1  0.43882984  0.06117235  0.43883134  1
  Nd  Nd6  1  0.81153301  0.18846650  0.18846282  1
  Nd  Nd7  1  0.43883025  0.06116847  0.06117619  1
  Nd  Nd8  1  0.18846931  0.81153236  0.18846280  1
  Nd  Nd9  1  0.43883206  0.43882882  0.06117664  1
  Nd  Nd10  1  0.81153549  0.81153721  0.18846524  1
  Nd  Nd11  1  0.18846559  0.18846469  0.81153268  1
  Nd  Nd12  1  0.03737335  0.65420768  0.65420624  1
  Nd  Nd13  1  0.65420907  0.65421264  0.65420926  1
  Nd  Nd14  1  0.06117296  0.43882844  0.06117289  1
  Nd  Nd15  1  0.65420510  0.65420883  0.03737132  1
  Mg  Mg0  1  0.42145171  0.42144335  0.73567507  1
  Mg  Mg1  1  0.73567760  0.42144058  0.42145449  1
  Mg  Mg2  1  0.42144079  0.73569676  0.42144347  1
  Mg  Mg3  1  0.42142288  0.42141414  0.42142729  1
  Ir  Ir0  1  0.85865071  0.85865717  0.85865897  1
  Ir  Ir1  1  0.85864757  0.42403476  0.85865444  1
  Ir  Ir2  1  0.85865611  0.85865748  0.42402944  1
  Ir  Ir3  1  0.42403082  0.85865667  0.85865141  1
loop_
_geom_bond_atom_site_label_1
_geom_bond_atom_site_label_2
_geom_bond_distance
_geom_bond_site_symmetry_2
Mg0 Mg1 3.146052 1_555
Mg0 Mg2 3.146258 1_555
Mg0 Mg3 3.146729 1_555
Mg0 Nd14 3.441871 1_556
Mg0 Nd7 3.441881 1_556
Mg0 Nd9 3.441994 1_556
Mg0 Nd0 3.627400 1_555
Mg0 Nd13 3.627424 1_555
Mg0 Nd12 3.627468 1_555
Mg0 Nd1 3.654691 1_555
Mg0 Nd2 3.654755 1_555
Mg0 Nd11 3.654978 1_555
Mg1 Mg2 3.146302 1_555
Mg1 Mg3 3.146783 1_555
Mg1 Nd4 3.441856 1_655
Mg1 Nd14 3.441875 1_655
Mg1 Nd3 3.441978 1_655
Mg1 Nd0 3.627392 1_555
Mg1 Nd13 3.627410 1_555
Mg1 Nd15 3.627518 1_555
Mg1 Nd1 3.654650 1_555
Mg1 Nd10 3.654777 1_555
Mg1 Nd6 3.654992 1_555
Mg2 Mg3 3.146978 1_555
Mg2 Nd4 3.441694 1_565
Mg2 Nd7 3.441703 1_565
Mg2 Nd5 3.441816 1_565
Mg2 Nd13 3.627400 1_555
Mg2 Nd12 3.627457 1_555
Mg2 Nd15 3.627486 1_555
Mg2 Nd2 3.654633 1_555
Mg2 Nd10 3.654670 1_555
Mg2 Nd8 3.654955 1_555
Mg3 Nd3 3.441513 1_555
Mg3 Nd5 3.441527 1_555
Mg3 Nd9 3.441534 1_555
Mg3 Nd0 3.627322 1_555
Mg3 Nd12 3.627396 1_555
Mg3 Nd15 3.627439 1_555
Mg3 Nd11 3.654536 1_555
Mg3 Nd6 3.654583 1_555
Mg3 Nd8 3.654654 1_555
Ir0 Nd15 2.906368 1_556
Ir0 Nd0 2.906386 1_565
Ir0 Nd12 2.906419 1_655
Ir0 Nd10 2.907974 1_556
Ir0 Nd1 2.908017 1_565
Ir0 Nd2 2.908057 1_655
Ir0 Nd7 3.599459 1_566
Ir0 Nd4 3.599534 1_665
Ir0 Nd14 3.599545 1_656
Ir1 Nd13 2.906263 1_555
Ir1 Nd15 2.906324 1_556
Ir1 Nd12 2.906375 1_655
Ir1 Nd6 2.907904 1_556
Ir1 Nd11 2.907978 1_655
Ir1 Nd1 2.908003 1_555
Ir1 Nd9 3.599458 1_556
Ir1 Nd3 3.599520 1_655
Ir1 Nd14 3.599818 1_656
Ir2 Nd13 2.906319 1_555
Ir2 Nd0 2.906341 1_565
Ir2 Nd12 2.906343 1_655
Ir2 Nd6 2.907914 1_565
Ir2 Nd8 2.907926 1_655
Ir2 Nd10 2.908030 1_555
Ir2 Nd5 3.599536 1_565
Ir2 Nd3 3.599582 1_655
Ir2 Nd4 3.599770 1_665
Ir3 Nd13 2.906279 1_555
Ir3 Nd0 2.906330 1_565
Ir3 Nd15 2.906343 1_556
Ir3 Nd8 2.907894 1_556
Ir3 Nd11 2.907905 1_565
Ir3 Nd2 2.907993 1_555
Ir3 Nd5 3.599482 1_565
Ir3 Nd9 3.599567 1_556
Ir3 Nd7 3.599795 1_566
