# generated using pymatgen
data_Cd2PO4F
_symmetry_space_group_name_H-M   'P 1'
_cell_length_a   7.85938560
_cell_length_b   7.85938560
_cell_length_c   10.73329625
_cell_angle_alpha   62.00757053
_cell_angle_beta   62.00757053
_cell_angle_gamma   51.36514948
_symmetry_Int_Tables_number   1
_chemical_formula_structural   Cd2PO4F
_chemical_formula_sum   'Cd8 P4 O16 F4'
_cell_volume   442.11198283
_cell_formula_units_Z   4
loop_
 _symmetry_equiv_pos_site_id
 _symmetry_equiv_pos_as_xyz
  1  'x, y, z'
loop_
 _atom_site_type_symbol
 _atom_site_label
 _atom_site_symmetry_multiplicity
 _atom_site_fract_x
 _atom_site_fract_y
 _atom_site_fract_z
 _atom_site_occupancy
  Cd  Cd0  1  0.25783400  0.05948100  0.65295100  1
  Cd  Cd1  1  0.05948100  0.25783400  0.15295100  1
  Cd  Cd2  1  0.20864100  0.68622900  0.48558700  1
  Cd  Cd3  1  0.68622900  0.20864100  0.98558700  1
  Cd  Cd4  1  0.79135900  0.31377100  0.51441300  1
  Cd  Cd5  1  0.74216600  0.94051900  0.34704900  1
  Cd  Cd6  1  0.31377100  0.79135900  0.01441300  1
  Cd  Cd7  1  0.94051900  0.74216600  0.84704900  1
  P  P0  1  0.23493800  0.41263300  0.30546200  1
  P  P1  1  0.41263300  0.23493800  0.80546200  1
  P  P2  1  0.58736700  0.76506200  0.19453800  1
  P  P3  1  0.76506200  0.58736700  0.69453800  1
  O  O0  1  0.38948200  0.22858400  0.41177900  1
  O  O1  1  0.77141600  0.61051800  0.08822100  1
  O  O2  1  0.35033200  0.07370100  0.81815200  1
  O  O3  1  0.07370100  0.35033200  0.31815200  1
  O  O4  1  0.22858400  0.38948200  0.91177900  1
  O  O5  1  0.62160500  0.55717800  0.85497100  1
  O  O6  1  0.64966800  0.92629900  0.18184800  1
  O  O7  1  0.37839500  0.44282200  0.14502900  1
  O  O8  1  0.63900000  0.09588700  0.84819100  1
  O  O9  1  0.90411300  0.36100000  0.65180900  1
  O  O10  1  0.55717800  0.62160500  0.35497100  1
  O  O11  1  0.61051800  0.77141600  0.58822100  1
  O  O12  1  0.09588700  0.63900000  0.34819100  1
  O  O13  1  0.36100000  0.90411300  0.15180900  1
  O  O14  1  0.92629900  0.64966800  0.68184800  1
  O  O15  1  0.44282200  0.37839500  0.64502900  1
  F  F0  1  0.92919600  0.09838600  0.10890300  1
  F  F1  1  0.07080400  0.90161400  0.89109700  1
  F  F2  1  0.09838600  0.92919600  0.60890300  1
  F  F3  1  0.90161400  0.07080400  0.39109700  1
loop_
_geom_bond_atom_site_label_1
_geom_bond_atom_site_label_2
_geom_bond_distance
_geom_bond_site_symmetry_2
Cd0 O9 2.263336 1_455
Cd0 O11 2.263666 1_545
Cd0 O2 2.276525 1_555
Cd0 F2 2.335671 1_545
Cd0 O0 2.347574 1_555
Cd0 F1 2.450937 1_545
Cd1 O13 2.263336 1_545
Cd1 O1 2.263666 1_455
Cd1 O3 2.276525 1_555
Cd1 F0 2.335671 1_455
Cd1 O4 2.347574 1_554
Cd1 F3 2.450937 1_455
Cd2 O10 2.247941 1_555
Cd2 O12 2.291119 1_555
Cd2 O14 2.298738 1_455
Cd2 F2 2.319247 1_555
Cd2 O15 2.383125 1_555
Cd2 F3 2.509845 1_465
Cd3 O5 2.247941 1_555
Cd3 O8 2.291119 1_555
Cd3 O6 2.298738 1_546
Cd3 F0 2.319247 1_556
Cd3 O7 2.383125 1_556
Cd3 F1 2.509845 1_645
Cd4 O15 2.247941 1_555
Cd4 O9 2.291119 1_555
Cd4 O3 2.298738 1_655
Cd4 F3 2.319247 1_555
Cd4 O10 2.383125 1_555
Cd4 F2 2.509845 1_645
Cd5 O12 2.263336 1_655
Cd5 O0 2.263666 1_565
Cd5 O6 2.276525 1_555
Cd5 F3 2.335671 1_565
Cd5 O11 2.347574 1_555
Cd5 F0 2.450937 1_565
Cd6 O7 2.247941 1_555
Cd6 O13 2.291119 1_555
Cd6 O2 2.298738 1_564
Cd6 F1 2.319247 1_554
Cd6 O5 2.383125 1_554
Cd6 F0 2.509845 1_465
Cd7 O8 2.263336 1_565
Cd7 O4 2.263666 1_655
Cd7 O14 2.276525 1_555
Cd7 F1 2.335671 1_655
Cd7 O1 2.347574 1_556
Cd7 F2 2.450937 1_655
O0 P0 1.558058 1_555
O1 P2 1.558058 1_555
O2 P1 1.553818 1_555
O3 P0 1.553818 1_555
O4 P1 1.558058 1_555
O5 P3 1.555870 1_555
O6 P2 1.553818 1_555
O7 P0 1.555870 1_555
O8 P1 1.561234 1_555
O9 P3 1.561234 1_555
O10 P2 1.555870 1_555
O11 P3 1.558058 1_555
O12 P0 1.561234 1_555
O13 P2 1.561234 1_555
O14 P3 1.553818 1_555
O15 P1 1.555870 1_555
