# generated using pymatgen
data_NdH12(NO5)3
_symmetry_space_group_name_H-M   'P 1'
_cell_length_a   6.61816810
_cell_length_b   9.03412212
_cell_length_c   11.52960142
_cell_angle_alpha   68.53631744
_cell_angle_beta   88.22788983
_cell_angle_gamma   69.49932679
_symmetry_Int_Tables_number   1
_chemical_formula_structural   NdH12(NO5)3
_chemical_formula_sum   'Nd2 H24 N6 O30'
_cell_volume   597.16152272
_cell_formula_units_Z   2
loop_
 _symmetry_equiv_pos_site_id
 _symmetry_equiv_pos_as_xyz
  1  'x, y, z'
loop_
 _atom_site_type_symbol
 _atom_site_label
 _atom_site_symmetry_multiplicity
 _atom_site_fract_x
 _atom_site_fract_y
 _atom_site_fract_z
 _atom_site_occupancy
  Nd  Nd0  1  0.30234984  0.59278410  0.22541551  1
  Nd  Nd1  1  0.69765016  0.40721590  0.77458449  1
  H  H0  1  0.10159162  0.64101388  0.97135953  1
  H  H1  1  0.89840838  0.35898612  0.02864047  1
  H  H2  1  0.30079480  0.46646854  0.00860544  1
  H  H3  1  0.69920520  0.53353146  0.99139456  1
  H  H4  1  0.08313786  0.64733777  0.45231847  1
  H  H5  1  0.91686214  0.35266223  0.54768153  1
  H  H6  1  0.28098665  0.47215701  0.51596544  1
  H  H7  1  0.71901335  0.52784299  0.48403456  1
  H  H8  1  0.86470317  0.89304035  0.11188166  1
  H  H9  1  0.13529683  0.10695965  0.88811834  1
  H  H10  1  0.80327755  0.74331458  0.20913986  1
  H  H11  1  0.19672245  0.25668542  0.79086014  1
  H  H12  1  0.11082331  0.33430644  0.22794446  1
  H  H13  1  0.88917669  0.66569356  0.77205554  1
  H  H14  1  0.12383369  0.31787479  0.37097332  1
  H  H15  1  0.87616631  0.68212521  0.62902668  1
  H  H16  1  0.04885481  0.13119565  0.20289987  1
  H  H17  1  0.95114519  0.86880435  0.79710013  1
  H  H18  1  0.22862506  0.17117050  0.11945889  1
  H  H19  1  0.77137494  0.82882950  0.88054111  1
  H  H20  1  0.26411633  0.16227198  0.56605607  1
  H  H21  1  0.73588367  0.83772802  0.43394393  1
  H  H22  1  0.08977982  0.10060225  0.53303637  1
  H  H23  1  0.91022018  0.89939775  0.46696363  1
  N  N0  1  0.42711201  0.82782355  0.32166952  1
  N  N1  1  0.57288799  0.17217645  0.67833048  1
  N  N2  1  0.43329634  0.83576245  0.99229598  1
  N  N3  1  0.56670366  0.16423755  0.00770402  1
  N  N4  1  0.68651333  0.26505158  0.31772014  1
  N  N5  1  0.31348667  0.73494842  0.68227986  1
  O  O0  1  0.21568358  0.55263626  0.04015316  1
  O  O1  1  0.78431642  0.44736374  0.95984684  1
  O  O2  1  0.20101192  0.55591576  0.43583537  1
  O  O3  1  0.79898808  0.44408424  0.56416463  1
  O  O4  1  0.92289880  0.77509231  0.17202669  1
  O  O5  1  0.07710120  0.22490669  0.82797331  1
  O  O6  1  0.12230644  0.39314588  0.28327896  1
  O  O7  1  0.87769356  0.60685412  0.71672104  1
  O  O8  1  0.08492012  0.22384485  0.14249349  1
  O  O9  1  0.91507988  0.77615515  0.85750651  1
  O  O10  1  0.12010102  0.20276128  0.52029511  1
  O  O11  1  0.87989898  0.79723872  0.47970489  1
  O  O12  1  0.57436095  0.68804438  0.32336977  1
  O  O13  1  0.42563905  0.31195562  0.67663023  1
  O  O14  1  0.24043184  0.86554395  0.27118096  1
  O  O15  1  0.75956816  0.13445605  0.72881904  1
  O  O16  1  0.46874867  0.91962268  0.36683581  1
  O  O17  1  0.53125133  0.08037732  0.63316419  1
  O  O18  1  0.55995117  0.68864774  0.06528242  1
  O  O19  1  0.44004883  0.31135226  0.93471758  1
  O  O20  1  0.23847632  0.88713082  0.01476168  1
  O  O21  1  0.76152368  0.11286918  0.98523832  1
  O  O22  1  0.50020015  0.92649154  0.90259752  1
  O  O23  1  0.49979985  0.07350846  0.09740248  1
  O  O24  1  0.60571230  0.33629263  0.20349160  1
  O  O25  1  0.39428770  0.66370737  0.79650840  1
  O  O26  1  0.59237401  0.33565820  0.39183822  1
  O  O27  1  0.40762599  0.66434180  0.60816178  1
  O  O28  1  0.85221581  0.13374977  0.35407360  1
  O  O29  1  0.14778419  0.86625023  0.64592640  1
loop_
_geom_bond_atom_site_label_1
_geom_bond_atom_site_label_2
_geom_bond_distance
_geom_bond_site_symmetry_2
Nd0 O6 2.386054 1_555
Nd0 O0 2.410703 1_555
Nd0 O4 2.419631 1_455
Nd0 O2 2.431249 1_555
Nd0 O24 2.569582 1_555
Nd0 O26 2.569976 1_555
Nd0 O18 2.595113 1_555
Nd0 O14 2.597930 1_555
Nd0 O12 2.679377 1_555
Nd0 O20 2.774598 1_555
Nd1 O7 2.386054 1_555
Nd1 O1 2.410703 1_555
Nd1 O5 2.419633 1_655
Nd1 O3 2.431249 1_555
Nd1 O25 2.569582 1_555
Nd1 O27 2.569976 1_555
Nd1 O19 2.595113 1_555
Nd1 O15 2.597930 1_555
Nd1 O13 2.679377 1_555
Nd1 O21 2.774598 1_555
H0 O0 0.994005 1_556
H0 O9 1.615286 1_455
H1 O1 0.994005 1_554
H1 O8 1.615286 1_655
H2 O0 0.971072 1_555
H3 O1 0.971072 1_555
H4 O2 0.990571 1_555
H5 O3 0.990571 1_555
H6 O2 0.971784 1_555
H7 O3 0.971784 1_555
H8 O4 0.976182 1_555
H9 O5 0.976176 1_555
H10 O4 0.969848 1_555
H11 O5 0.969851 1_555
H12 O6 0.987338 1_555
H13 O7 0.987338 1_555
H14 O6 0.988664 1_555
H14 O10 1.658672 1_555
H15 O7 0.988664 1_555
H15 O11 1.658672 1_555
H16 O8 0.972445 1_555
H17 O9 0.972445 1_555
H18 O8 0.980493 1_555
H19 O9 0.980493 1_555
H20 O10 0.982990 1_555
H21 O11 0.982990 1_555
H22 O10 0.970724 1_555
H23 O11 0.970724 1_555
N0 O16 1.232837 1_555
N0 O14 1.259289 1_555
N0 O12 1.290656 1_555
N1 O17 1.232837 1_555
N1 O15 1.259289 1_555
N1 O13 1.290656 1_555
N2 O22 1.242165 1_555
N2 O20 1.262175 1_556
N2 O18 1.273564 1_556
N3 O23 1.242165 1_555
N3 O21 1.262175 1_554
N3 O19 1.273564 1_554
N4 O28 1.240483 1_555
N4 O26 1.270009 1_555
N4 O24 1.271564 1_555
N5 O29 1.240483 1_555
N5 O27 1.270009 1_555
N5 O25 1.271564 1_555
