# generated using pymatgen
data_SiO2
_symmetry_space_group_name_H-M   'P 1'
_cell_length_a   16.13070561
_cell_length_b   16.13070561
_cell_length_c   16.13070541
_cell_angle_alpha   51.12487715
_cell_angle_beta   51.12487715
_cell_angle_gamma   51.12487870
_symmetry_Int_Tables_number   1
_chemical_formula_structural   SiO2
_chemical_formula_sum   'Si40 O80'
_cell_volume   2347.13390601
_cell_formula_units_Z   40
loop_
 _symmetry_equiv_pos_site_id
 _symmetry_equiv_pos_as_xyz
  1  'x, y, z'
loop_
 _atom_site_type_symbol
 _atom_site_label
 _atom_site_symmetry_multiplicity
 _atom_site_fract_x
 _atom_site_fract_y
 _atom_site_fract_z
 _atom_site_occupancy
  Si  Si0  1  0.76995700  0.12958200  0.77284200  1
  Si  Si1  1  0.81340200  0.38465100  0.00958800  1
  Si  Si2  1  0.77282500  0.03004700  0.40007300  1
  Si  Si3  1  0.03004700  0.40007300  0.77282500  1
  Si  Si4  1  0.01149900  0.22304900  0.76515100  1
  Si  Si5  1  0.22717500  0.96995300  0.59992700  1
  Si  Si6  1  0.21359400  0.21359400  0.21359400  1
  Si  Si7  1  0.61561400  0.64757800  0.23381300  1
  Si  Si8  1  0.23004300  0.87041800  0.22715800  1
  Si  Si9  1  0.61534900  0.99041200  0.18659800  1
  Si  Si10  1  0.12958200  0.77284200  0.76995700  1
  Si  Si11  1  0.22304900  0.76515100  0.01149900  1
  Si  Si12  1  0.59992700  0.22717500  0.96995300  1
  Si  Si13  1  0.76618700  0.38438600  0.35242200  1
  Si  Si14  1  0.22715800  0.23004300  0.87041800  1
  Si  Si15  1  0.00958800  0.81340200  0.38465100  1
  Si  Si16  1  0.64757800  0.23381300  0.61561400  1
  Si  Si17  1  0.02636100  0.64747100  0.62892000  1
  Si  Si18  1  0.18659800  0.61534900  0.99041200  1
  Si  Si19  1  0.76515100  0.01149900  0.22304900  1
  Si  Si20  1  0.98850100  0.77695100  0.23484900  1
  Si  Si21  1  0.37108000  0.97363900  0.35252900  1
  Si  Si22  1  0.78640600  0.78640600  0.78640600  1
  Si  Si23  1  0.77284200  0.76995700  0.12958200  1
  Si  Si24  1  0.86315200  0.86315200  0.86315200  1
  Si  Si25  1  0.77695100  0.23484900  0.98850100  1
  Si  Si26  1  0.40007300  0.77282500  0.03004700  1
  Si  Si27  1  0.35242200  0.76618700  0.38438600  1
  Si  Si28  1  0.96995300  0.59992700  0.22717500  1
  Si  Si29  1  0.38465100  0.00958800  0.81340200  1
  Si  Si30  1  0.87041800  0.22715800  0.23004300  1
  Si  Si31  1  0.99041200  0.18659800  0.61534900  1
  Si  Si32  1  0.23381300  0.61561400  0.64757800  1
  Si  Si33  1  0.35252900  0.37108000  0.97363900  1
  Si  Si34  1  0.64747100  0.62892000  0.02636100  1
  Si  Si35  1  0.97363900  0.35252900  0.37108000  1
  Si  Si36  1  0.62892000  0.02636100  0.64747100  1
  Si  Si37  1  0.23484900  0.98850100  0.77695100  1
  Si  Si38  1  0.38438600  0.35242200  0.76618700  1
  Si  Si39  1  0.13684800  0.13684800  0.13684800  1
  O  O0  1  0.52389200  0.66809700  0.03227500  1
  O  O1  1  0.96772500  0.47610800  0.33190300  1
  O  O2  1  0.95139800  0.28185900  0.50697600  1
  O  O3  1  0.75236600  0.34431700  0.99695800  1
  O  O4  1  0.10462500  0.79154400  0.12080700  1
  O  O5  1  0.33190300  0.96772500  0.47610800  1
  O  O6  1  0.70271400  0.89984400  0.71837700  1
  O  O7  1  0.72200700  0.89304200  0.13214800  1
  O  O8  1  0.82481400  0.82481400  0.82481400  1
  O  O9  1  0.17518600  0.17518600  0.17518600  1
  O  O10  1  0.28185900  0.50697600  0.95139800  1
  O  O11  1  0.78003600  0.99650400  0.85073600  1
  O  O12  1  0.30904700  0.68394200  0.51962300  1
  O  O13  1  0.81522100  0.33326100  0.26270900  1
  O  O14  1  0.14926400  0.21996400  0.00349600  1
  O  O15  1  0.88754400  0.91624600  0.42065600  1
  O  O16  1  0.24763400  0.65568300  0.00304200  1
  O  O17  1  0.91624600  0.42065600  0.88754400  1
  O  O18  1  0.86785200  0.27799300  0.10695800  1
  O  O19  1  0.79678300  0.14607700  0.32992800  1
  O  O20  1  0.03227500  0.52389200  0.66809700  1
  O  O21  1  0.27799300  0.10695800  0.86785200  1
  O  O22  1  0.26270900  0.81522100  0.33326100  1
  O  O23  1  0.11245600  0.08375400  0.57934400  1
  O  O24  1  0.14607700  0.32992800  0.79678300  1
  O  O25  1  0.47610800  0.33190300  0.96772500  1
  O  O26  1  0.35224600  0.87444800  0.37140400  1
  O  O27  1  0.26683400  0.97263800  0.66893100  1
  O  O28  1  0.31605800  0.48037700  0.69095300  1
  O  O29  1  0.87444800  0.37140400  0.35224600  1
  O  O30  1  0.51962300  0.30904700  0.68394200  1
  O  O31  1  0.89537500  0.20845600  0.87919300  1
  O  O32  1  0.37140400  0.35224600  0.87444800  1
  O  O33  1  0.68394200  0.51962300  0.30904700  1
  O  O34  1  0.89984400  0.71837700  0.70271400  1
  O  O35  1  0.73729100  0.18477900  0.66673900  1
  O  O36  1  0.97263800  0.66893100  0.26683400  1
  O  O37  1  0.28162300  0.29728600  0.10015600  1
  O  O38  1  0.04860200  0.71814100  0.49302400  1
  O  O39  1  0.49302400  0.04860200  0.71814100  1
  O  O40  1  0.50697600  0.95139800  0.28185900  1
  O  O41  1  0.64775400  0.12555200  0.62859600  1
  O  O42  1  0.20845600  0.87919300  0.89537500  1
  O  O43  1  0.33106900  0.73316600  0.02736200  1
  O  O44  1  0.12555200  0.62859600  0.64775400  1
  O  O45  1  0.20321700  0.85392300  0.67007200  1
  O  O46  1  0.08375400  0.57934400  0.11245600  1
  O  O47  1  0.99650400  0.85073600  0.78003600  1
  O  O48  1  0.10695800  0.86785200  0.27799300  1
  O  O49  1  0.73316600  0.02736200  0.33106900  1
  O  O50  1  0.89304200  0.13214800  0.72200700  1
  O  O51  1  0.85392300  0.67007200  0.20321700  1
  O  O52  1  0.62859600  0.64775400  0.12555200  1
  O  O53  1  0.66673900  0.73729100  0.18477900  1
  O  O54  1  0.02736200  0.33106900  0.73316600  1
  O  O55  1  0.67007200  0.20321700  0.85392300  1
  O  O56  1  0.00304200  0.24763400  0.65568300  1
  O  O57  1  0.13214800  0.72200700  0.89304200  1
  O  O58  1  0.21996400  0.00349600  0.14926400  1
  O  O59  1  0.12080700  0.10462500  0.79154400  1
  O  O60  1  0.71837700  0.70271400  0.89984400  1
  O  O61  1  0.18477900  0.66673900  0.73729100  1
  O  O62  1  0.66809700  0.03227500  0.52389200  1
  O  O63  1  0.71814100  0.49302400  0.04860200  1
  O  O64  1  0.32992800  0.79678300  0.14607700  1
  O  O65  1  0.69095300  0.31605800  0.48037700  1
  O  O66  1  0.00349600  0.14926400  0.21996400  1
  O  O67  1  0.65568300  0.00304200  0.24763400  1
  O  O68  1  0.66893100  0.26683400  0.97263800  1
  O  O69  1  0.57934400  0.11245600  0.08375400  1
  O  O70  1  0.29728600  0.10015600  0.28162300  1
  O  O71  1  0.33326100  0.26270900  0.81522100  1
  O  O72  1  0.85073600  0.78003600  0.99650400  1
  O  O73  1  0.42065600  0.88754400  0.91624600  1
  O  O74  1  0.99695800  0.75236600  0.34431700  1
  O  O75  1  0.34431700  0.99695800  0.75236600  1
  O  O76  1  0.10015600  0.28162300  0.29728600  1
  O  O77  1  0.87919300  0.89537500  0.20845600  1
  O  O78  1  0.79154400  0.12080700  0.10462500  1
  O  O79  1  0.48037700  0.69095300  0.31605800  1
loop_
_geom_bond_atom_site_label_1
_geom_bond_atom_site_label_2
_geom_bond_distance
_geom_bond_site_symmetry_2
O0 Si26 1.619528 1_555
O0 Si34 1.624145 1_555
O1 Si28 1.619528 1_555
O1 Si35 1.624145 1_555
O2 Si31 1.615064 1_555
O2 Si35 1.619552 1_555
O3 Si25 1.627688 1_555
O3 Si1 1.629844 1_556
O4 Si20 1.622573 1_455
O4 Si11 1.622579 1_555
O5 Si5 1.619528 1_555
O5 Si21 1.624145 1_555
O6 Si22 1.616551 1_555
O6 Si36 1.618538 1_565
O7 Si23 1.622662 1_555
O7 Si9 1.625179 1_555
O8 Si24 1.608573 1_555
O8 Si22 1.611510 1_555
O9 Si39 1.608573 1_555
O9 Si6 1.611510 1_555
O10 Si18 1.615064 1_555
O10 Si33 1.619552 1_555
O11 Si24 1.625079 1_555
O11 Si0 1.626624 1_565
O12 Si27 1.620140 1_555
O12 Si32 1.620778 1_555
O13 Si30 1.621719 1_555
O13 Si13 1.625544 1_555
O14 Si39 1.625079 1_555
O14 Si14 1.626624 1_554
O15 Si15 1.624721 1_655
O15 Si2 1.626806 1_565
O16 Si11 1.627688 1_555
O16 Si18 1.629844 1_554
O17 Si1 1.624721 1_556
O17 Si3 1.626806 1_655
O18 Si30 1.622662 1_555
O18 Si1 1.625179 1_555
O19 Si30 1.618643 1_555
O19 Si2 1.622784 1_555
O20 Si3 1.619528 1_555
O20 Si17 1.624145 1_555
O21 Si14 1.622662 1_555
O21 Si29 1.625179 1_555
O22 Si8 1.621719 1_555
O22 Si27 1.625544 1_555
O23 Si31 1.624721 1_455
O23 Si5 1.626806 1_545
O24 Si14 1.618643 1_555
O24 Si3 1.622784 1_555
O25 Si12 1.619528 1_555
O25 Si33 1.624145 1_555
O26 Si21 1.620996 1_555
O26 Si27 1.621419 1_555
O27 Si37 1.622728 1_555
O27 Si5 1.624562 1_555
O28 Si32 1.620140 1_555
O28 Si38 1.620778 1_555
O29 Si35 1.620996 1_555
O29 Si13 1.621419 1_555
O30 Si38 1.620140 1_555
O30 Si16 1.620778 1_555
O31 Si4 1.622573 1_655
O31 Si25 1.622579 1_555
O32 Si33 1.620996 1_555
O32 Si38 1.621419 1_555
O33 Si13 1.620140 1_555
O33 Si7 1.620778 1_555
O34 Si22 1.616551 1_555
O34 Si17 1.618538 1_655
O35 Si0 1.621719 1_555
O35 Si16 1.625544 1_555
O36 Si20 1.622728 1_555
O36 Si28 1.624562 1_555
O37 Si6 1.616551 1_555
O37 Si33 1.618538 1_554
O38 Si15 1.615064 1_555
O38 Si17 1.619552 1_555
O39 Si29 1.615064 1_555
O39 Si36 1.619552 1_555
O40 Si9 1.615064 1_555
O40 Si21 1.619552 1_555
O41 Si36 1.620996 1_555
O41 Si16 1.621419 1_555
O42 Si11 1.622573 1_556
O42 Si37 1.622579 1_555
O43 Si11 1.622728 1_555
O43 Si26 1.624562 1_555
O44 Si17 1.620996 1_555
O44 Si32 1.621419 1_555
O45 Si10 1.618643 1_555
O45 Si5 1.622784 1_555
O46 Si18 1.624721 1_554
O46 Si28 1.626806 1_455
O47 Si24 1.625079 1_555
O47 Si10 1.626624 1_655
O48 Si8 1.622662 1_555
O48 Si15 1.625179 1_555
O49 Si19 1.622728 1_555
O49 Si2 1.624562 1_555
O50 Si0 1.622662 1_555
O50 Si31 1.625179 1_555
O51 Si23 1.618643 1_555
O51 Si28 1.622784 1_555
O52 Si34 1.620996 1_555
O52 Si7 1.621419 1_555
O53 Si23 1.621719 1_555
O53 Si7 1.625544 1_555
O54 Si4 1.622728 1_555
O54 Si3 1.624562 1_555
O55 Si0 1.618643 1_555
O55 Si12 1.622784 1_555
O56 Si4 1.627688 1_555
O56 Si31 1.629844 1_455
O57 Si10 1.622662 1_555
O57 Si18 1.625179 1_555
O58 Si39 1.625079 1_555
O58 Si8 1.626624 1_545
O59 Si37 1.622573 1_545
O59 Si4 1.622579 1_555
O60 Si22 1.616551 1_555
O60 Si34 1.618538 1_556
O61 Si10 1.621719 1_555
O61 Si32 1.625544 1_555
O62 Si2 1.619528 1_555
O62 Si36 1.624145 1_555
O63 Si1 1.615064 1_555
O63 Si34 1.619552 1_555
O64 Si8 1.618643 1_555
O64 Si26 1.622784 1_555
O65 Si16 1.620140 1_555
O65 Si13 1.620778 1_555
O66 Si39 1.625079 1_555
O66 Si30 1.626624 1_455
O67 Si19 1.627688 1_555
O67 Si9 1.629844 1_545
O68 Si25 1.622728 1_555
O68 Si12 1.624562 1_555
O69 Si9 1.624721 1_545
O69 Si12 1.626806 1_554
O70 Si6 1.616551 1_555
O70 Si21 1.618538 1_545
O71 Si14 1.621719 1_555
O71 Si38 1.625544 1_555
O72 Si24 1.625079 1_555
O72 Si23 1.626624 1_556
O73 Si29 1.624721 1_565
O73 Si26 1.626806 1_556
O74 Si20 1.627688 1_555
O74 Si15 1.629844 1_655
O75 Si37 1.627688 1_555
O75 Si29 1.629844 1_565
O76 Si6 1.616551 1_555
O76 Si35 1.618538 1_455
O77 Si19 1.622573 1_565
O77 Si20 1.622579 1_555
O78 Si25 1.622573 1_554
O78 Si19 1.622579 1_555
O79 Si7 1.620140 1_555
O79 Si27 1.620778 1_555
