# generated using pymatgen
data_KGaCoC4Cl3O4
_symmetry_space_group_name_H-M   'P 1'
_cell_length_a   9.24597800
_cell_length_b   11.82327100
_cell_length_c   12.20386537
_cell_angle_alpha   72.67112765
_cell_angle_beta   90.00000000
_cell_angle_gamma   90.00000000
_symmetry_Int_Tables_number   1
_chemical_formula_structural   KGaCoC4Cl3O4
_chemical_formula_sum   'K4 Ga4 Co4 C16 Cl12 O16'
_cell_volume   1273.54490598
_cell_formula_units_Z   4
loop_
 _symmetry_equiv_pos_site_id
 _symmetry_equiv_pos_as_xyz
  1  'x, y, z'
loop_
 _atom_site_type_symbol
 _atom_site_label
 _atom_site_symmetry_multiplicity
 _atom_site_fract_x
 _atom_site_fract_y
 _atom_site_fract_z
 _atom_site_occupancy
  K  K0  1  0.68608100  0.91763400  0.87126700  1
  K  K1  1  0.31391900  0.08236600  0.12873300  1
  K  K2  1  0.81391900  0.41763400  0.87126700  1
  K  K3  1  0.18608100  0.58236600  0.12873300  1
  Ga  Ga0  1  0.94383500  0.25530400  0.20625900  1
  Ga  Ga1  1  0.55616500  0.75530400  0.20625900  1
  Ga  Ga2  1  0.05616500  0.74469600  0.79374100  1
  Ga  Ga3  1  0.44383500  0.24469600  0.79374100  1
  Co  Co0  1  0.31414900  0.36382000  0.62788700  1
  Co  Co1  1  0.68585100  0.63618000  0.37211300  1
  Co  Co2  1  0.81414900  0.13618000  0.37211300  1
  Co  Co3  1  0.18585100  0.86382000  0.62788700  1
  C  C0  1  0.61189100  0.74432300  0.42892600  1
  C  C1  1  0.84374500  0.67246100  0.28718700  1
  C  C2  1  0.58213300  0.52358600  0.34224400  1
  C  C3  1  0.65625500  0.17246100  0.28718700  1
  C  C4  1  0.08213300  0.97641400  0.65775600  1
  C  C5  1  0.91786700  0.02358600  0.34224400  1
  C  C6  1  0.11189100  0.75567700  0.57107400  1
  C  C7  1  0.76325700  0.55282900  0.50329400  1
  C  C8  1  0.41786700  0.47641400  0.65775600  1
  C  C9  1  0.88810900  0.24432300  0.42892600  1
  C  C10  1  0.26325700  0.94717100  0.49670600  1
  C  C11  1  0.23674300  0.44717100  0.49670600  1
  C  C12  1  0.15625500  0.32753900  0.71281300  1
  C  C13  1  0.73674300  0.05282900  0.50329400  1
  C  C14  1  0.38810900  0.25567700  0.57107400  1
  C  C15  1  0.34374500  0.82753900  0.71281300  1
  Cl  Cl0  1  0.54244900  0.68101300  0.05701100  1
  Cl  Cl1  1  0.14318000  0.56051500  0.87006600  1
  Cl  Cl2  1  0.17926600  0.28605700  0.23876500  1
  Cl  Cl3  1  0.35682000  0.06051500  0.87006600  1
  Cl  Cl4  1  0.32073400  0.78605700  0.23876500  1
  Cl  Cl5  1  0.95755100  0.18101300  0.05701100  1
  Cl  Cl6  1  0.45755100  0.31898700  0.94298900  1
  Cl  Cl7  1  0.82073400  0.71394300  0.76123500  1
  Cl  Cl8  1  0.85682000  0.43948500  0.12993400  1
  Cl  Cl9  1  0.67926600  0.21394300  0.76123500  1
  Cl  Cl10  1  0.64318000  0.93948500  0.12993400  1
  Cl  Cl11  1  0.04244900  0.81898700  0.94298900  1
  O  O0  1  0.93180800  0.31275700  0.47199900  1
  O  O1  1  0.04868000  0.30993800  0.76411500  1
  O  O2  1  0.56819200  0.81275700  0.47199900  1
  O  O3  1  0.06819200  0.68724300  0.52800100  1
  O  O4  1  0.45132000  0.80993800  0.76411500  1
  O  O5  1  0.51789100  0.44645200  0.32446300  1
  O  O6  1  0.48210900  0.55354800  0.67553700  1
  O  O7  1  0.95132000  0.69006200  0.23588500  1
  O  O8  1  0.31052700  0.99963700  0.40832800  1
  O  O9  1  0.01789100  0.05354800  0.67553700  1
  O  O10  1  0.43180800  0.18724300  0.52800100  1
  O  O11  1  0.54868000  0.19006200  0.23588500  1
  O  O12  1  0.18947300  0.49963700  0.40832800  1
  O  O13  1  0.98210900  0.94645200  0.32446300  1
  O  O14  1  0.81052700  0.50036300  0.59167200  1
  O  O15  1  0.68947300  0.00036300  0.59167200  1
loop_
_geom_bond_atom_site_label_1
_geom_bond_atom_site_label_2
_geom_bond_distance
_geom_bond_site_symmetry_2
K0 O4 3.005783 1_555
K0 O15 3.257640 1_565
K1 O11 3.005783 1_555
K1 O8 3.257640 1_545
K2 O1 3.005783 1_655
K2 O14 3.257640 1_555
K3 O7 3.005783 1_455
K3 O12 3.257640 1_555
C0 O2 1.160859 1_555
C0 Co1 1.763881 1_555
C1 O7 1.160591 1_555
C1 Co1 1.767655 1_555
C2 O5 1.161675 1_555
C2 Co1 1.764582 1_555
C3 O11 1.160591 1_555
C3 Co2 1.767655 1_555
C4 O9 1.161675 1_565
C4 Co3 1.764582 1_555
C5 O13 1.161675 1_545
C5 Co2 1.764582 1_555
C6 O3 1.160859 1_555
C6 Co3 1.763881 1_555
C7 O14 1.157814 1_555
C7 Co1 1.762522 1_555
C8 O6 1.161675 1_555
C8 Co0 1.764582 1_555
C9 O0 1.160859 1_555
C9 Co2 1.763881 1_555
C10 O8 1.157814 1_555
C10 Co3 1.762522 1_555
C11 O12 1.157814 1_555
C11 Co0 1.762522 1_555
C12 O1 1.160591 1_555
C12 Co0 1.767655 1_555
C13 O15 1.157814 1_555
C13 Co2 1.762522 1_555
C14 O10 1.160859 1_555
C14 Co0 1.763881 1_555
C15 O4 1.160591 1_555
C15 Co3 1.767655 1_555
Cl0 Ga1 2.249036 1_555
Cl0 K0 3.309221 1_554
Cl0 K3 3.517831 1_555
Cl1 Ga2 2.246912 1_555
Cl1 K3 3.267247 1_556
Cl1 K2 3.479551 1_455
Cl2 Ga0 2.261397 1_455
Cl2 K1 3.328592 1_555
Cl2 K3 3.358287 1_555
Cl3 Ga3 2.246912 1_555
Cl3 K1 3.267247 1_556
Cl3 K0 3.479551 1_545
Cl4 Ga1 2.261397 1_555
Cl4 K3 3.328592 1_555
Cl4 K1 3.358287 1_565
Cl5 Ga0 2.249036 1_555
Cl5 K2 3.309221 1_554
Cl5 K1 3.517831 1_655
Cl6 Ga3 2.249036 1_555
Cl6 K1 3.309221 1_556
Cl6 K2 3.517831 1_555
Cl7 Ga2 2.261397 1_655
Cl7 K0 3.328592 1_555
Cl7 K2 3.358287 1_555
Cl8 Ga0 2.246912 1_555
Cl8 K2 3.267247 1_554
Cl8 K3 3.479551 1_655
Cl9 Ga3 2.261397 1_555
Cl9 K2 3.328592 1_555
Cl9 K0 3.358287 1_545
Cl10 Ga1 2.246912 1_555
Cl10 K0 3.267247 1_554
Cl10 K1 3.479551 1_565
Cl11 Ga2 2.249036 1_555
Cl11 K3 3.309221 1_556
Cl11 K0 3.517831 1_455
