# generated using pymatgen
data_MnSiO3
_symmetry_space_group_name_H-M   'P 1'
_cell_length_a   10.27450598
_cell_length_b   10.27450598
_cell_length_c   10.27450598
_cell_angle_alpha   109.12427508
_cell_angle_beta   109.12427508
_cell_angle_gamma   110.16736258
_symmetry_Int_Tables_number   1
_chemical_formula_structural   MnSiO3
_chemical_formula_sum   'Mn16 Si16 O48'
_cell_volume   834.85836589
_cell_formula_units_Z   16
loop_
 _symmetry_equiv_pos_site_id
 _symmetry_equiv_pos_as_xyz
  1  'x, y, z'
loop_
 _atom_site_type_symbol
 _atom_site_label
 _atom_site_symmetry_multiplicity
 _atom_site_fract_x
 _atom_site_fract_y
 _atom_site_fract_z
 _atom_site_occupancy
  Mn  Mn0  1  0.25813400  0.62565400  0.11501300  1
  Mn  Mn1  1  0.74903200  0.74903200  0.00000000  1
  Mn  Mn2  1  0.39312100  0.00813400  0.13248000  1
  Mn  Mn3  1  0.51064100  0.14312100  0.88498700  1
  Mn  Mn4  1  0.99903200  0.49903200  0.50000000  1
  Mn  Mn5  1  0.87565400  0.26064100  0.86752000  1
  Mn  Mn6  1  0.62500000  0.37500000  0.25000000  1
  Mn  Mn7  1  0.62500000  0.87500000  0.25000000  1
  Mn  Mn8  1  0.62500000  0.37500000  0.75000000  1
  Mn  Mn9  1  0.12500000  0.37500000  0.75000000  1
  Mn  Mn10  1  0.37434600  0.48935900  0.63248000  1
  Mn  Mn11  1  0.25096800  0.25096800  0.00000000  1
  Mn  Mn12  1  0.73935900  0.60687900  0.61501300  1
  Mn  Mn13  1  0.85687900  0.74186600  0.36752000  1
  Mn  Mn14  1  0.50096800  0.00096800  0.50000000  1
  Mn  Mn15  1  0.99186600  0.12434600  0.38498700  1
  Si  Si0  1  0.75842000  0.12071900  0.10925800  1
  Si  Si1  1  0.89916200  0.50842000  0.13770100  1
  Si  Si2  1  0.01146100  0.64916200  0.89074200  1
  Si  Si3  1  0.37071900  0.76146100  0.86229900  1
  Si  Si4  1  0.62500000  0.87500000  0.75000000  1
  Si  Si5  1  0.87928100  0.98853900  0.63770100  1
  Si  Si6  1  0.12500000  0.87500000  0.75000000  1
  Si  Si7  1  0.23853900  0.10083800  0.60925800  1
  Si  Si8  1  0.00000000  0.00000000  0.00000000  1
  Si  Si9  1  0.12500000  0.87500000  0.25000000  1
  Si  Si10  1  0.12500000  0.37500000  0.25000000  1
  Si  Si11  1  0.35083800  0.24158000  0.36229900  1
  Si  Si12  1  0.50000000  0.50000000  0.00000000  1
  Si  Si13  1  0.25000000  0.75000000  0.50000000  1
  Si  Si14  1  0.49158000  0.62928100  0.39074200  1
  Si  Si15  1  0.75000000  0.25000000  0.50000000  1
  O  O0  1  0.65584500  0.67458800  0.14842800  1
  O  O1  1  0.70854500  0.07206700  0.91719400  1
  O  O2  1  0.61948500  0.15903000  0.11969700  1
  O  O3  1  0.76867700  0.98636500  0.15826400  1
  O  O4  1  0.74978800  0.36948500  0.96045500  1
  O  O5  1  0.01300300  0.94400500  0.13674900  1
  O  O6  1  0.94131000  0.27952100  0.24379700  1
  O  O7  1  0.04135100  0.45854500  0.13647800  1
  O  O8  1  0.75741700  0.40584500  0.48125700  1
  O  O9  1  0.86041300  0.51867700  0.28231200  1
  O  O10  1  0.92458800  0.27616000  0.51874300  1
  O  O11  1  0.94751300  0.69131000  0.16178900  1
  O  O12  1  0.52616000  0.50741700  0.85157200  1
  O  O13  1  0.19400500  0.55725600  0.43100200  1
  O  O14  1  0.82810100  0.61041300  0.84173600  1
  O  O15  1  0.03933300  0.49978800  0.88030300  1
  O  O16  1  0.12625400  0.76300300  0.56899800  1
  O  O17  1  0.03572400  0.69751300  0.75620300  1
  O  O18  1  0.23636500  0.57810100  0.71768800  1
  O  O19  1  0.80725600  0.87625400  0.86325100  1
  O  O20  1  0.15487300  0.79135100  0.08280600  1
  O  O21  1  0.32206700  0.90487300  0.86352200  1
  O  O22  1  0.52952100  0.78572400  0.83821100  1
  O  O23  1  0.84097000  0.96066700  0.46045500  1
  O  O24  1  0.40903000  0.78933300  0.03954500  1
  O  O25  1  0.72047900  0.96427600  0.66178900  1
  O  O26  1  0.92793300  0.84512700  0.63647800  1
  O  O27  1  0.09512700  0.95864900  0.41719400  1
  O  O28  1  0.44274400  0.87374600  0.63674900  1
  O  O29  1  0.01363500  0.17189900  0.78231200  1
  O  O30  1  0.21427600  0.05248700  0.74379700  1
  O  O31  1  0.12374600  0.98699700  0.93100200  1
  O  O32  1  0.21066700  0.25021200  0.61969700  1
  O  O33  1  0.42189900  0.13958700  0.65826400  1
  O  O34  1  0.05599500  0.19274400  0.06899800  1
  O  O35  1  0.72384000  0.24258300  0.64842800  1
  O  O36  1  0.30248700  0.05869000  0.33821100  1
  O  O37  1  0.32541200  0.47384000  0.98125700  1
  O  O38  1  0.38958700  0.23132300  0.21768800  1
  O  O39  1  0.49258300  0.34415500  0.01874300  1
  O  O40  1  0.20864900  0.29145500  0.36352200  1
  O  O41  1  0.30869000  0.47047900  0.25620300  1
  O  O42  1  0.23699700  0.80599500  0.36325100  1
  O  O43  1  0.50021200  0.38051500  0.53954500  1
  O  O44  1  0.48132300  0.76363500  0.34173600  1
  O  O45  1  0.63051500  0.59097000  0.38030300  1
  O  O46  1  0.54145500  0.67793300  0.58280600  1
  O  O47  1  0.59415500  0.07541200  0.35157200  1
loop_
_geom_bond_atom_site_label_1
_geom_bond_atom_site_label_2
_geom_bond_distance
_geom_bond_site_symmetry_2
Mn0 O37 2.181930 1_554
Mn0 O44 2.188408 1_555
Mn0 O15 2.222931 1_554
Mn0 O20 2.349046 1_555
Mn0 O24 2.382735 1_555
Mn0 O7 2.427074 1_555
Mn0 O41 2.551261 1_555
Mn0 O42 2.743983 1_555
Mn1 O12 2.245778 1_554
Mn1 O0 2.245778 1_555
Mn1 O5 2.292497 1_655
Mn1 O19 2.292497 1_554
Mn1 O3 2.340622 1_555
Mn1 O14 2.340622 1_554
Mn1 O11 2.555856 1_555
Mn1 O22 2.555856 1_554
Mn2 O47 2.181930 1_555
Mn2 O38 2.188408 1_555
Mn2 O24 2.222931 1_545
Mn2 O21 2.349046 1_544
Mn2 O2 2.382735 1_555
Mn2 O20 2.427074 1_545
Mn2 O36 2.551261 1_555
Mn2 O31 2.743983 1_544
Mn3 O39 2.181930 1_556
Mn3 O33 2.188408 1_555
Mn3 O2 2.222931 1_556
Mn3 O1 2.349046 1_555
Mn3 O4 2.382735 1_555
Mn3 O21 2.427074 1_545
Mn3 O30 2.551261 1_555
Mn3 O28 2.743983 1_545
Mn4 O8 2.245778 1_555
Mn4 O10 2.245778 1_555
Mn4 O16 2.292497 1_655
Mn4 O13 2.292497 1_655
Mn4 O9 2.340622 1_555
Mn4 O18 2.340622 1_655
Mn4 O17 2.555856 1_655
Mn4 O6 2.555856 1_555
Mn5 O35 2.181930 1_555
Mn5 O29 2.188408 1_655
Mn5 O4 2.222931 1_555
Mn5 O7 2.349046 1_656
Mn5 O15 2.382735 1_655
Mn5 O1 2.427074 1_555
Mn5 O25 2.551261 1_545
Mn5 O34 2.743983 1_656
Mn6 O2 2.153259 1_555
Mn6 O45 2.153259 1_555
Mn6 O39 2.165226 1_555
Mn6 O8 2.165226 1_555
Mn6 O9 2.197836 1_555
Mn6 O38 2.197836 1_555
Mn7 O24 2.153259 1_555
Mn7 O23 2.153259 1_555
Mn7 O47 2.165226 1_565
Mn7 O0 2.165226 1_555
Mn7 O3 2.197836 1_555
Mn7 O44 2.197836 1_555
Mn8 O4 2.153259 1_555
Mn8 O43 2.153259 1_555
Mn8 O12 2.165226 1_555
Mn8 O35 2.165226 1_555
Mn8 O14 2.197836 1_555
Mn8 O33 2.197836 1_555
Mn9 O15 2.153259 1_555
Mn9 O32 2.153259 1_555
Mn9 O37 2.165226 1_555
Mn9 O10 2.165226 1_455
Mn9 O18 2.197836 1_555
Mn9 O29 2.197836 1_555
Mn10 O12 2.181930 1_555
Mn10 O18 2.188408 1_555
Mn10 O43 2.222931 1_555
Mn10 O40 2.349046 1_555
Mn10 O32 2.382735 1_555
Mn10 O46 2.427074 1_555
Mn10 O22 2.551261 1_555
Mn10 O13 2.743983 1_555
Mn11 O39 2.245778 1_555
Mn11 O37 2.245778 1_554
Mn11 O31 2.292497 1_544
Mn11 O34 2.292497 1_555
Mn11 O38 2.340622 1_555
Mn11 O29 2.340622 1_554
Mn11 O41 2.555856 1_555
Mn11 O30 2.555856 1_554
Mn12 O8 2.181930 1_555
Mn12 O14 2.188408 1_555
Mn12 O45 2.222931 1_555
Mn12 O46 2.349046 1_555
Mn12 O43 2.382735 1_555
Mn12 O26 2.427074 1_555
Mn12 O17 2.551261 1_655
Mn12 O19 2.743983 1_555
Mn13 O0 2.181930 1_555
Mn13 O9 2.188408 1_555
Mn13 O23 2.222931 1_555
Mn13 O26 2.349046 1_555
Mn13 O45 2.382735 1_555
Mn13 O27 2.427074 1_655
Mn13 O11 2.551261 1_555
Mn13 O16 2.743983 1_655
Mn14 O47 2.245778 1_555
Mn14 O35 2.245778 1_555
Mn14 O42 2.292497 1_545
Mn14 O28 2.292497 1_545
Mn14 O44 2.340622 1_545
Mn14 O33 2.340622 1_555
Mn14 O36 2.555856 1_555
Mn14 O25 2.555856 1_545
Mn15 O10 2.181930 1_555
Mn15 O3 2.188408 1_545
Mn15 O32 2.222931 1_655
Mn15 O27 2.349046 1_645
Mn15 O23 2.382735 1_545
Mn15 O40 2.427074 1_655
Mn15 O6 2.551261 1_555
Mn15 O5 2.743983 1_645
O0 Si12 1.653589 1_555
O1 Si0 1.709111 1_556
O1 Si4 1.828607 1_545
O2 Si0 1.632259 1_555
O3 Si0 1.640476 1_565
O4 Si1 1.632259 1_556
O5 Si8 1.668115 1_565
O5 Si9 1.845681 1_555
O6 Si0 1.676339 1_555
O6 Si10 1.769745 1_655
O7 Si1 1.709111 1_455
O7 Si10 1.828607 1_555
O8 Si15 1.653589 1_555
O9 Si1 1.640476 1_555
O10 Si15 1.653589 1_555
O11 Si1 1.676339 1_555
O11 Si9 1.769745 1_655
O12 Si12 1.653589 1_556
O13 Si13 1.668115 1_555
O13 Si10 1.845681 1_555
O14 Si2 1.640476 1_655
O15 Si2 1.632259 1_555
O16 Si13 1.668115 1_555
O16 Si6 1.845681 1_555
O17 Si2 1.676339 1_555
O17 Si6 1.769745 1_555
O18 Si3 1.640476 1_555
O19 Si8 1.668115 1_666
O19 Si4 1.845681 1_555
O20 Si2 1.709111 1_554
O20 Si9 1.828607 1_555
O21 Si3 1.709111 1_555
O21 Si6 1.828607 1_555
O22 Si3 1.676339 1_555
O22 Si4 1.769745 1_555
O23 Si5 1.632259 1_555
O24 Si3 1.632259 1_554
O25 Si5 1.676339 1_555
O25 Si4 1.769745 1_555
O26 Si5 1.709111 1_555
O26 Si6 1.828607 1_655
O27 Si7 1.709111 1_565
O27 Si9 1.828607 1_555
O28 Si13 1.668115 1_555
O28 Si4 1.845681 1_555
O29 Si5 1.640476 1_445
O30 Si7 1.676339 1_555
O30 Si6 1.769745 1_545
O31 Si8 1.668115 1_566
O31 Si6 1.845681 1_555
O32 Si7 1.632259 1_555
O33 Si7 1.640476 1_555
O34 Si8 1.668115 1_555
O34 Si10 1.845681 1_555
O35 Si15 1.653589 1_555
O36 Si11 1.676339 1_555
O36 Si9 1.769745 1_545
O37 Si12 1.653589 1_556
O38 Si11 1.640476 1_555
O39 Si12 1.653589 1_555
O40 Si11 1.709111 1_555
O40 Si10 1.828607 1_555
O41 Si14 1.676339 1_555
O41 Si10 1.769745 1_555
O42 Si13 1.668115 1_555
O42 Si9 1.845681 1_555
O43 Si11 1.632259 1_555
O44 Si14 1.640476 1_555
O45 Si14 1.632259 1_555
O46 Si14 1.709111 1_555
O46 Si4 1.828607 1_555
O47 Si15 1.653589 1_555
