# generated using pymatgen
data_Ba5Cu4ClF17
_symmetry_space_group_name_H-M   'P 1'
_cell_length_a   10.88786639
_cell_length_b   10.88786639
_cell_length_c   13.02938700
_cell_angle_alpha   90.00000000
_cell_angle_beta   90.00000000
_cell_angle_gamma   120.00000237
_symmetry_Int_Tables_number   1
_chemical_formula_structural   Ba5Cu4ClF17
_chemical_formula_sum   'Ba15 Cu12 Cl3 F51'
_cell_volume   1337.64284444
_cell_formula_units_Z   3
loop_
 _symmetry_equiv_pos_site_id
 _symmetry_equiv_pos_as_xyz
  1  'x, y, z'
loop_
 _atom_site_type_symbol
 _atom_site_label
 _atom_site_symmetry_multiplicity
 _atom_site_fract_x
 _atom_site_fract_y
 _atom_site_fract_z
 _atom_site_occupancy
  Ba  Ba0  1  0.00000000  0.26856900  0.30854100  1
  Ba  Ba1  1  0.66666700  0.33333300  0.83959900  1
  Ba  Ba2  1  0.73143100  0.73143100  0.30854100  1
  Ba  Ba3  1  0.33333300  0.66666700  0.83959900  1
  Ba  Ba4  1  0.33333300  0.66666700  0.16040100  1
  Ba  Ba5  1  0.73143100  0.73143100  0.69145900  1
  Ba  Ba6  1  0.00000000  0.26856900  0.69145900  1
  Ba  Ba7  1  0.66666700  0.33333300  0.16040100  1
  Ba  Ba8  1  0.00000000  0.75593800  0.00000000  1
  Ba  Ba9  1  0.26856900  0.00000000  0.69145900  1
  Ba  Ba10  1  0.24406200  0.24406200  0.00000000  1
  Ba  Ba11  1  0.75593800  0.00000000  0.00000000  1
  Ba  Ba12  1  0.66666700  0.33333300  0.50000000  1
  Ba  Ba13  1  0.33333300  0.66666700  0.50000000  1
  Ba  Ba14  1  0.26856900  0.00000000  0.30854100  1
  Cu  Cu0  1  0.00000000  0.76210600  0.50000000  1
  Cu  Cu1  1  0.42112800  0.00000000  0.00000000  1
  Cu  Cu2  1  0.76210600  0.00000000  0.50000000  1
  Cu  Cu3  1  0.59596500  0.00000000  0.73456000  1
  Cu  Cu4  1  0.00000000  0.42112800  0.00000000  1
  Cu  Cu5  1  0.40403500  0.40403500  0.26544000  1
  Cu  Cu6  1  0.00000000  0.59596500  0.73456000  1
  Cu  Cu7  1  0.57887200  0.57887200  0.00000000  1
  Cu  Cu8  1  0.23789400  0.23789400  0.50000000  1
  Cu  Cu9  1  0.00000000  0.59596500  0.26544000  1
  Cu  Cu10  1  0.59596500  0.00000000  0.26544000  1
  Cu  Cu11  1  0.40403500  0.40403500  0.73456000  1
  Cl  Cl0  1  0.00000000  0.00000000  0.16576700  1
  Cl  Cl1  1  0.00000000  0.00000000  0.83423300  1
  Cl  Cl2  1  0.00000000  0.00000000  0.50000000  1
  F  F0  1  0.75822200  0.14454200  0.19013200  1
  F  F1  1  0.36887800  0.16298300  0.50000000  1
  F  F2  1  0.57005800  0.14394100  0.66507600  1
  F  F3  1  0.24380600  0.00000000  0.00000000  1
  F  F4  1  0.85545800  0.61368000  0.80986800  1
  F  F5  1  0.14394100  0.57005800  0.66507600  1
  F  F6  1  0.57388400  0.42994200  0.66507600  1
  F  F7  1  0.85605900  0.42611600  0.66507600  1
  F  F8  1  0.14394100  0.57005800  0.33492400  1
  F  F9  1  0.63320600  0.16145900  0.00000000  1
  F  F10  1  0.20589500  0.83701700  0.50000000  1
  F  F11  1  0.00000000  0.24380600  0.00000000  1
  F  F12  1  0.42994200  0.57388400  0.66507600  1
  F  F13  1  0.85545800  0.61368000  0.19013200  1
  F  F14  1  0.83701700  0.20589500  0.50000000  1
  F  F15  1  0.75822200  0.14454200  0.80986800  1
  F  F16  1  0.52825300  0.36679400  0.00000000  1
  F  F17  1  0.22782400  0.22782400  0.35567200  1
  F  F18  1  0.42962400  0.00000000  0.85240700  1
  F  F19  1  0.38632000  0.24177800  0.80986800  1
  F  F20  1  0.42611600  0.85605900  0.33492400  1
  F  F21  1  0.42611600  0.85605900  0.66507600  1
  F  F22  1  0.61368000  0.85545800  0.80986800  1
  F  F23  1  0.57388400  0.42994200  0.33492400  1
  F  F24  1  0.14454200  0.75822200  0.19013200  1
  F  F25  1  0.42994200  0.57388400  0.33492400  1
  F  F26  1  0.61368000  0.85545800  0.19013200  1
  F  F27  1  0.00000000  0.77217600  0.64432800  1
  F  F28  1  0.36679400  0.52825300  0.00000000  1
  F  F29  1  0.00000000  0.42962400  0.85240700  1
  F  F30  1  0.16145900  0.63320600  0.00000000  1
  F  F31  1  0.16298300  0.36887800  0.50000000  1
  F  F32  1  0.42962400  0.00000000  0.14759300  1
  F  F33  1  0.24177800  0.38632000  0.19013200  1
  F  F34  1  0.77217600  0.00000000  0.35567200  1
  F  F35  1  0.24177800  0.38632000  0.80986800  1
  F  F36  1  0.00000000  0.42962400  0.14759300  1
  F  F37  1  0.38632000  0.24177800  0.19013200  1
  F  F38  1  0.57037600  0.57037600  0.14759300  1
  F  F39  1  0.22782400  0.22782400  0.64432800  1
  F  F40  1  0.79410500  0.63112200  0.50000000  1
  F  F41  1  0.85605900  0.42611600  0.33492400  1
  F  F42  1  0.57037600  0.57037600  0.85240700  1
  F  F43  1  0.63112200  0.79410500  0.50000000  1
  F  F44  1  0.00000000  0.77217600  0.35567200  1
  F  F45  1  0.14454200  0.75822200  0.80986800  1
  F  F46  1  0.47174700  0.83854100  0.00000000  1
  F  F47  1  0.77217600  0.00000000  0.64432800  1
  F  F48  1  0.83854100  0.47174700  0.00000000  1
  F  F49  1  0.57005800  0.14394100  0.33492400  1
  F  F50  1  0.75619400  0.75619400  0.00000000  1
loop_
_geom_bond_atom_site_label_1
_geom_bond_atom_site_label_2
_geom_bond_distance
_geom_bond_site_symmetry_2
Ba0 F36 2.733598 1_555
Ba0 F0 2.752947 1_455
Ba0 F33 2.752947 1_555
Ba0 F34 2.797730 1_455
Ba0 F17 2.797731 1_555
Ba0 F41 2.864447 1_455
Ba0 F8 2.864457 1_555
Ba0 F31 2.937126 1_555
Ba0 F14 2.937126 1_455
Ba0 Cl0 3.465714 1_555
Ba1 F9 2.705675 1_556
Ba1 F48 2.705677 1_556
Ba1 F16 2.705681 1_556
Ba1 F15 2.723599 1_555
Ba1 F4 2.723607 1_555
Ba1 F19 2.723609 1_555
Ba1 F2 2.891418 1_555
Ba1 F7 2.891418 1_555
Ba1 F6 2.891418 1_555
Ba1 F29 3.239406 1_655
Ba1 F18 3.239409 1_555
Ba1 F42 3.239417 1_555
Ba2 F38 2.733598 1_555
Ba2 F13 2.752948 1_555
Ba2 F26 2.752948 1_555
Ba2 F44 2.797731 1_655
Ba2 F34 2.797731 1_565
Ba2 F23 2.864457 1_555
Ba2 F25 2.864457 1_555
Ba2 F40 2.937126 1_555
Ba2 F43 2.937126 1_555
Ba2 Cl0 3.465714 1_665
Ba3 F30 2.705675 1_556
Ba3 F46 2.705677 1_556
Ba3 F28 2.705681 1_556
Ba3 F45 2.723599 1_555
Ba3 F22 2.723607 1_555
Ba3 F35 2.723609 1_555
Ba3 F5 2.891418 1_555
Ba3 F21 2.891418 1_555
Ba3 F12 2.891418 1_555
Ba3 F18 3.239406 1_565
Ba3 F29 3.239409 1_555
Ba3 F42 3.239417 1_555
Ba4 F30 2.705675 1_555
Ba4 F46 2.705677 1_555
Ba4 F28 2.705681 1_555
Ba4 F24 2.723599 1_555
Ba4 F26 2.723607 1_555
Ba4 F33 2.723609 1_555
Ba4 F8 2.891418 1_555
Ba4 F20 2.891418 1_555
Ba4 F25 2.891418 1_555
Ba4 F32 3.239406 1_565
Ba4 F36 3.239409 1_555
Ba4 F38 3.239417 1_555
Ba5 F42 2.733598 1_555
Ba5 F22 2.752948 1_555
Ba5 F4 2.752948 1_555
Ba5 F27 2.797731 1_655
Ba5 F47 2.797731 1_565
Ba5 F6 2.864457 1_555
Ba5 F12 2.864457 1_555
Ba5 F43 2.937126 1_555
Ba5 F40 2.937126 1_555
Ba5 Cl1 3.465714 1_665
Ba6 F29 2.733598 1_555
Ba6 F15 2.752947 1_455
Ba6 F35 2.752947 1_555
Ba6 F47 2.797730 1_455
Ba6 F39 2.797731 1_555
Ba6 F7 2.864447 1_455
Ba6 F5 2.864457 1_555
Ba6 F31 2.937126 1_555
Ba6 F14 2.937126 1_455
Ba6 Cl1 3.465714 1_555
Ba7 F9 2.705675 1_555
Ba7 F48 2.705677 1_555
Ba7 F16 2.705681 1_555
Ba7 F0 2.723599 1_555
Ba7 F13 2.723607 1_555
Ba7 F37 2.723609 1_555
Ba7 F49 2.891418 1_555
Ba7 F41 2.891418 1_555
Ba7 F23 2.891418 1_555
Ba7 F36 3.239406 1_655
Ba7 F32 3.239409 1_555
Ba7 F38 3.239417 1_555
Ba8 F3 2.655922 1_565
Ba8 F50 2.655922 1_455
Ba8 F48 2.687966 1_455
Ba8 F30 2.687966 1_555
Ba8 F4 2.928347 1_454
Ba8 F13 2.928347 1_455
Ba8 F45 2.928347 1_554
Ba8 F24 2.928347 1_555
Ba8 Cl0 3.424360 1_565
Ba8 Cl1 3.424360 1_564
Ba9 F18 2.733598 1_555
Ba9 F45 2.752947 1_545
Ba9 F19 2.752947 1_555
Ba9 F27 2.797730 1_545
Ba9 F39 2.797731 1_555
Ba9 F21 2.864447 1_545
Ba9 F2 2.864457 1_555
Ba9 F1 2.937126 1_555
Ba9 F10 2.937126 1_545
Ba9 Cl1 3.465714 1_555
Ba10 F11 2.655922 1_555
Ba10 F3 2.655922 1_555
Ba10 F28 2.687966 1_555
Ba10 F16 2.687966 1_555
Ba10 F19 2.928347 1_554
Ba10 F35 2.928347 1_554
Ba10 F33 2.928347 1_555
Ba10 F37 2.928347 1_555
Ba10 Cl0 3.424360 1_555
Ba10 Cl1 3.424360 1_554
Ba11 F11 2.655922 1_655
Ba11 F50 2.655922 1_545
Ba11 F46 2.687966 1_545
Ba11 F9 2.687966 1_555
Ba11 F22 2.928347 1_544
Ba11 F26 2.928347 1_545
Ba11 F15 2.928347 1_554
Ba11 F0 2.928347 1_555
Ba11 Cl0 3.424360 1_655
Ba11 Cl1 3.424360 1_654
Ba12 F49 2.795650 1_555
Ba12 F2 2.795650 1_555
Ba12 F41 2.795650 1_555
Ba12 F7 2.795650 1_555
Ba12 F23 2.795650 1_555
Ba12 F6 2.795650 1_555
Ba12 F14 2.817595 1_555
Ba12 F1 2.817603 1_555
Ba12 F40 2.817604 1_555
Ba13 F8 2.795650 1_555
Ba13 F5 2.795650 1_555
Ba13 F20 2.795650 1_555
Ba13 F21 2.795650 1_555
Ba13 F12 2.795650 1_555
Ba13 F25 2.795650 1_555
Ba13 F10 2.817595 1_555
Ba13 F31 2.817603 1_555
Ba13 F43 2.817604 1_555
Ba14 F32 2.733598 1_555
Ba14 F24 2.752947 1_545
Ba14 F37 2.752947 1_555
Ba14 F44 2.797730 1_545
Ba14 F17 2.797731 1_555
Ba14 F20 2.864447 1_545
Ba14 F49 2.864457 1_555
Ba14 F1 2.937126 1_555
Ba14 F10 2.937126 1_545
Ba14 Cl0 3.465714 1_555
Cu0 F27 1.883699 1_555
Cu0 F44 1.883699 1_555
Cu0 F40 1.965271 1_455
Cu0 F10 1.965271 1_555
Cu1 F18 1.925270 1_554
Cu1 F32 1.925270 1_555
Cu1 F3 1.930658 1_555
Cu1 F9 2.088774 1_555
Cu1 F46 2.088774 1_545
Cu2 F34 1.883699 1_555
Cu2 F47 1.883699 1_555
Cu2 F43 1.965271 1_545
Cu2 F14 1.965271 1_555
Cu3 F15 1.944282 1_555
Cu3 F22 1.944282 1_545
Cu3 F2 1.948694 1_555
Cu3 F21 1.948700 1_545
Cu3 F47 2.250128 1_555
Cu3 F18 2.374397 1_555
Cu4 F29 1.925270 1_554
Cu4 F36 1.925270 1_555
Cu4 F11 1.930658 1_555
Cu4 F30 2.088774 1_555
Cu4 F48 2.088774 1_455
Cu5 F37 1.944282 1_555
Cu5 F33 1.944282 1_555
Cu5 F25 1.948704 1_555
Cu5 F23 1.948704 1_555
Cu5 F17 2.250127 1_555
Cu5 F38 2.374397 1_555
Cu6 F45 1.944282 1_555
Cu6 F4 1.944282 1_455
Cu6 F5 1.948694 1_555
Cu6 F7 1.948700 1_455
Cu6 F27 2.250128 1_555
Cu6 F29 2.374397 1_555
Cu7 F42 1.925270 1_554
Cu7 F38 1.925270 1_555
Cu7 F50 1.930658 1_555
Cu7 F16 2.088774 1_555
Cu7 F28 2.088774 1_555
Cu8 F39 1.883699 1_555
Cu8 F17 1.883699 1_555
Cu8 F1 1.965271 1_555
Cu8 F31 1.965271 1_555
Cu9 F24 1.944282 1_555
Cu9 F13 1.944282 1_455
Cu9 F8 1.948694 1_555
Cu9 F41 1.948700 1_455
Cu9 F44 2.250128 1_555
Cu9 F36 2.374397 1_555
Cu10 F0 1.944282 1_555
Cu10 F26 1.944282 1_545
Cu10 F49 1.948694 1_555
Cu10 F20 1.948700 1_545
Cu10 F34 2.250128 1_555
Cu10 F32 2.374397 1_555
Cu11 F35 1.944282 1_555
Cu11 F19 1.944282 1_555
Cu11 F12 1.948704 1_555
Cu11 F6 1.948704 1_555
Cu11 F39 2.250127 1_555
Cu11 F42 2.374397 1_555
Cl2 Cu8 2.590158 1_555
Cl2 Cu0 2.590158 1_545
Cl2 Cu2 2.590158 1_455
