# generated using pymatgen
data_Ba(AlGe)2
_symmetry_space_group_name_H-M   'P 1'
_cell_length_a   4.28098132
_cell_length_b   10.26386280
_cell_length_c   11.00472215
_cell_angle_alpha   90.00000000
_cell_angle_beta   90.00000000
_cell_angle_gamma   90.00000000
_symmetry_Int_Tables_number   1
_chemical_formula_structural   Ba(AlGe)2
_chemical_formula_sum   'Ba4 Al8 Ge8'
_cell_volume   483.54094256
_cell_formula_units_Z   4
loop_
 _symmetry_equiv_pos_site_id
 _symmetry_equiv_pos_as_xyz
  1  'x, y, z'
loop_
 _atom_site_type_symbol
 _atom_site_label
 _atom_site_symmetry_multiplicity
 _atom_site_fract_x
 _atom_site_fract_y
 _atom_site_fract_z
 _atom_site_occupancy
  Ba  Ba0  1  0.75000000  0.25224141  0.32479162  1
  Ba  Ba1  1  0.75000000  0.75224141  0.17520838  1
  Ba  Ba2  1  0.25000000  0.74775859  0.67520838  1
  Ba  Ba3  1  0.25000000  0.24775859  0.82479162  1
  Al  Al0  1  0.25000000  0.04151376  0.11696673  1
  Al  Al1  1  0.75000000  0.89983325  0.45333788  1
  Al  Al2  1  0.75000000  0.45848624  0.61696673  1
  Al  Al3  1  0.75000000  0.39983325  0.04666212  1
  Al  Al4  1  0.25000000  0.60016675  0.95333788  1
  Al  Al5  1  0.25000000  0.54151376  0.38303327  1
  Al  Al6  1  0.75000000  0.95848624  0.88303327  1
  Al  Al7  1  0.25000000  0.10016675  0.54666212  1
  Ge  Ge0  1  0.25000000  0.35308609  0.54037634  1
  Ge  Ge1  1  0.75000000  0.64691391  0.45962366  1
  Ge  Ge2  1  0.25000000  0.47609710  0.15673998  1
  Ge  Ge3  1  0.75000000  0.52390290  0.84326002  1
  Ge  Ge4  1  0.75000000  0.02390290  0.65673998  1
  Ge  Ge5  1  0.25000000  0.85308609  0.95962366  1
  Ge  Ge6  1  0.25000000  0.97609710  0.34326002  1
  Ge  Ge7  1  0.75000000  0.14691391  0.04037634  1
loop_
_geom_bond_atom_site_label_1
_geom_bond_atom_site_label_2
_geom_bond_distance
_geom_bond_site_symmetry_2
Ba0 Ge7 3.311352 1_555
Ba0 Ge0 3.358803 1_555
Ba0 Ge0 3.358803 1_655
Ba0 Ge6 3.557570 1_545
Ba0 Ge6 3.557570 1_645
Ba0 Ge2 3.644299 1_555
Ba0 Ge2 3.644299 1_655
Ba1 Ge1 3.311352 1_555
Ba1 Ge5 3.358803 1_554
Ba1 Ge5 3.358803 1_654
Ba1 Ge2 3.557570 1_555
Ba1 Ge2 3.557570 1_655
Ba1 Ge6 3.644299 1_555
Ba1 Ge6 3.644299 1_655
Ba2 Ge5 3.311352 1_555
Ba2 Ge1 3.358803 1_555
Ba2 Ge1 3.358803 1_455
Ba2 Ge4 3.557570 1_565
Ba2 Ge4 3.557570 1_465
Ba2 Ge3 3.644299 1_555
Ba2 Ge3 3.644299 1_455
Ba3 Ge0 3.311352 1_555
Ba3 Ge7 3.358803 1_456
Ba3 Ge7 3.358803 1_556
Ba3 Ge3 3.557570 1_555
Ba3 Ge3 3.557570 1_455
Ba3 Ge4 3.644299 1_455
Ba3 Ge4 3.644299 1_555
Al0 Ge7 2.542130 1_455
Al0 Ge7 2.542130 1_555
Al0 Ge6 2.579221 1_545
Al0 Ge5 2.595860 1_544
Al0 Ba1 3.715880 1_545
Al0 Ba1 3.715880 1_445
Al0 Ba0 3.806622 1_455
Al0 Ba0 3.806622 1_555
Al0 Ba3 3.849588 1_554
Al1 Ge4 2.575266 1_565
Al1 Ge6 2.581056 1_555
Al1 Ge6 2.581056 1_655
Al1 Ge1 2.596851 1_555
Al1 Ba1 3.415102 1_555
Al1 Ba2 3.602714 1_655
Al1 Ba2 3.602714 1_555
Al1 Ba0 3.883855 1_565
Al2 Ge0 2.542130 1_655
Al2 Ge0 2.542130 1_555
Al2 Ge3 2.579221 1_555
Al2 Ge1 2.595860 1_555
Al2 Ba2 3.715880 1_555
Al2 Ba2 3.715880 1_655
Al2 Ba3 3.806622 1_655
Al2 Ba3 3.806622 1_555
Al2 Ba0 3.849588 1_555
Al3 Ge3 2.575266 1_554
Al3 Ge2 2.581056 1_555
Al3 Ge2 2.581056 1_655
Al3 Ge7 2.596851 1_555
Al3 Ba0 3.415102 1_555
Al3 Ba3 3.602714 1_654
Al3 Ba3 3.602714 1_554
Al3 Ba1 3.883855 1_555
Al4 Ge2 2.575266 1_556
Al4 Ge3 2.581056 1_555
Al4 Ge3 2.581056 1_455
Al4 Ge5 2.596851 1_555
Al4 Ba2 3.415102 1_555
Al4 Ba1 3.602714 1_556
Al4 Ba1 3.602714 1_456
Al4 Ba3 3.883855 1_555
Al5 Ge1 2.542130 1_555
Al5 Ge1 2.542130 1_455
Al5 Ge2 2.579221 1_555
Al5 Ge0 2.595860 1_555
Al5 Ba0 3.715880 1_455
Al5 Ba0 3.715880 1_555
Al5 Ba1 3.806622 1_455
Al5 Ba1 3.806622 1_555
Al5 Ba2 3.849588 1_555
Al6 Ge5 2.542130 1_655
Al6 Ge5 2.542130 1_555
Al6 Ge4 2.579221 1_565
Al6 Ge7 2.595860 1_566
Al6 Ba3 3.715880 1_565
Al6 Ba3 3.715880 1_665
Al6 Ba2 3.806622 1_655
Al6 Ba2 3.806622 1_555
Al6 Ba1 3.849588 1_556
Al7 Ge6 2.575266 1_545
Al7 Ge4 2.581056 1_555
Al7 Ge4 2.581056 1_455
Al7 Ge0 2.596851 1_555
Al7 Ba3 3.415102 1_555
Al7 Ba0 3.602714 1_555
Al7 Ba0 3.602714 1_455
Al7 Ba2 3.883855 1_545
