# generated using pymatgen
data_K2(TcSe2)3
_symmetry_space_group_name_H-M   'P 1'
_cell_length_a   10.00963706
_cell_length_b   10.00963706
_cell_length_c   12.40673544
_cell_angle_alpha   88.63144460
_cell_angle_beta   88.63144460
_cell_angle_gamma   60.75076186
_symmetry_Int_Tables_number   1
_chemical_formula_structural   K2(TcSe2)3
_chemical_formula_sum   'K8 Tc12 Se24'
_cell_volume   1084.16250461
_cell_formula_units_Z   4
loop_
 _symmetry_equiv_pos_site_id
 _symmetry_equiv_pos_as_xyz
  1  'x, y, z'
loop_
 _atom_site_type_symbol
 _atom_site_label
 _atom_site_symmetry_multiplicity
 _atom_site_fract_x
 _atom_site_fract_y
 _atom_site_fract_z
 _atom_site_occupancy
  K  K0  1  0.60193631  0.39806369  0.75000000  1
  K  K1  1  0.39806369  0.60193631  0.25000000  1
  K  K2  1  0.21724512  0.78275488  0.75000000  1
  K  K3  1  0.78275488  0.21724512  0.25000000  1
  K  K4  1  0.12284920  0.64729014  0.01905340  1
  K  K5  1  0.35270986  0.87715080  0.48094660  1
  K  K6  1  0.87715080  0.35270986  0.98094660  1
  K  K7  1  0.64729014  0.12284920  0.51905340  1
  Tc  Tc0  1  0.00373515  0.31627665  0.52644739  1
  Tc  Tc1  1  0.68372335  0.99626485  0.97355261  1
  Tc  Tc2  1  0.99626485  0.68372335  0.47355261  1
  Tc  Tc3  1  0.31627665  0.00373515  0.02644739  1
  Tc  Tc4  1  0.11140306  0.47144313  0.62487806  1
  Tc  Tc5  1  0.52855687  0.88859694  0.87512194  1
  Tc  Tc6  1  0.88859694  0.52855687  0.37512194  1
  Tc  Tc7  1  0.47144313  0.11140306  0.12487806  1
  Tc  Tc8  1  0.81886315  0.60049545  0.58017622  1
  Tc  Tc9  1  0.39950455  0.18113685  0.91982378  1
  Tc  Tc10  1  0.18113685  0.39950455  0.41982378  1
  Tc  Tc11  1  0.60049545  0.81886315  0.08017622  1
  Se  Se0  1  0.07310292  0.25294277  0.33281279  1
  Se  Se1  1  0.74705723  0.92689708  0.16718721  1
  Se  Se2  1  0.92689708  0.74705723  0.66718721  1
  Se  Se3  1  0.25294277  0.07310292  0.83281279  1
  Se  Se4  1  0.79755474  0.71584729  0.92984907  1
  Se  Se5  1  0.28415271  0.20244526  0.57015093  1
  Se  Se6  1  0.20244526  0.28415271  0.07015093  1
  Se  Se7  1  0.71584729  0.79755474  0.42984907  1
  Se  Se8  1  0.06084098  0.60883445  0.28009065  1
  Se  Se9  1  0.39116555  0.93915902  0.21990935  1
  Se  Se10  1  0.93915902  0.39116555  0.71990935  1
  Se  Se11  1  0.60883445  0.06084098  0.78009065  1
  Se  Se12  1  0.27935566  0.55307888  0.51853414  1
  Se  Se13  1  0.44692112  0.72064434  0.98146586  1
  Se  Se14  1  0.72064434  0.44692112  0.48146586  1
  Se  Se15  1  0.55307888  0.27935566  0.01853414  1
  Se  Se16  1  0.06529602  0.99765951  0.08146547  1
  Se  Se17  1  0.00234049  0.93470398  0.41853453  1
  Se  Se18  1  0.93470398  0.00234049  0.91853453  1
  Se  Se19  1  0.99765951  0.06529602  0.58146547  1
  Se  Se20  1  0.26261731  0.44043313  0.80506671  1
  Se  Se21  1  0.55956687  0.73738269  0.69493329  1
  Se  Se22  1  0.73738269  0.55956687  0.19493329  1
  Se  Se23  1  0.44043313  0.26261731  0.30506671  1
loop_
_geom_bond_atom_site_label_1
_geom_bond_atom_site_label_2
_geom_bond_distance
_geom_bond_site_symmetry_2
K0 Se21 3.267710 1_555
K0 Se20 3.267710 1_555
K0 Se10 3.354290 1_555
K0 Se11 3.354290 1_555
K0 Se14 3.612720 1_555
K0 Se15 3.612720 1_556
K1 Se22 3.267710 1_555
K1 Se23 3.267710 1_555
K1 Se9 3.354290 1_555
K1 Se8 3.354290 1_555
K1 Se13 3.612720 1_554
K1 Se12 3.612720 1_555
K2 Se21 3.285773 1_555
K2 Se20 3.285773 1_555
K2 Se3 3.287057 1_565
K2 Se2 3.287057 1_455
K2 Se19 3.326268 1_465
K2 Se18 3.326268 1_465
K2 Se12 3.570997 1_555
K2 Se13 3.570997 1_555
K3 Se22 3.285773 1_555
K3 Se23 3.285773 1_555
K3 Se0 3.287057 1_655
K3 Se1 3.287057 1_545
K3 Se16 3.326268 1_645
K3 Se17 3.326268 1_645
K3 Se15 3.570997 1_555
K3 Se14 3.570997 1_555
K4 Se4 3.201587 1_454
K4 Se20 3.247654 1_554
K4 Se18 3.330514 1_464
K4 Se8 3.331663 1_555
K4 Se6 3.366453 1_555
K4 Se16 3.371211 1_555
K4 Se13 3.676686 1_554
K5 Se5 3.201587 1_565
K5 Se21 3.247654 1_555
K5 Se19 3.330514 1_465
K5 Se9 3.331663 1_555
K5 Se7 3.366453 1_555
K5 Se17 3.371211 1_555
K5 Se12 3.676686 1_555
K6 Se6 3.201587 1_656
K6 Se22 3.247654 1_556
K6 Se16 3.330514 1_646
K6 Se10 3.331663 1_555
K6 Se4 3.366453 1_555
K6 Se18 3.371211 1_555
K6 Se15 3.676686 1_556
K7 Se7 3.201587 1_545
K7 Se23 3.247654 1_555
K7 Se17 3.330514 1_645
K7 Se11 3.331663 1_555
K7 Se5 3.366453 1_555
K7 Se19 3.371211 1_555
K7 Se14 3.676686 1_555
Se0 Tc10 2.483670 1_555
Se0 Tc0 2.493656 1_555
Se0 Tc6 2.518173 1_455
Se1 Tc11 2.483670 1_555
Se1 Tc1 2.493656 1_554
Se1 Tc7 2.518173 1_565
Se2 Tc8 2.483670 1_555
Se2 Tc2 2.493656 1_555
Se2 Tc4 2.518173 1_655
Se3 Tc9 2.483670 1_555
Se3 Tc3 2.493656 1_556
Se3 Tc5 2.518173 1_545
Se4 Tc5 2.486439 1_555
Se4 Tc11 2.522105 1_556
Se4 Tc1 2.527584 1_555
Se5 Tc4 2.486439 1_555
Se5 Tc10 2.522105 1_555
Se5 Tc0 2.527584 1_555
Se6 Tc7 2.486439 1_555
Se6 Tc9 2.522105 1_554
Se6 Tc3 2.527584 1_555
Se7 Tc6 2.486439 1_555
Se7 Tc8 2.522105 1_555
Se7 Tc2 2.527584 1_555
Se8 Tc6 2.493954 1_455
Se8 Tc2 2.505828 1_455
Se8 Tc10 2.511254 1_555
Se9 Tc7 2.493954 1_565
Se9 Tc3 2.505828 1_565
Se9 Tc11 2.511254 1_555
Se10 Tc4 2.493954 1_655
Se10 Tc0 2.505828 1_655
Se10 Tc8 2.511254 1_555
Se11 Tc5 2.493954 1_545
Se11 Tc1 2.505828 1_545
Se11 Tc9 2.511254 1_555
Se12 Tc4 2.533719 1_555
Se12 Tc10 2.540422 1_555
Se12 Tc2 2.543731 1_455
Se13 Tc5 2.533719 1_555
Se13 Tc11 2.540422 1_556
Se13 Tc3 2.543731 1_566
Se14 Tc6 2.533719 1_555
Se14 Tc8 2.540422 1_555
Se14 Tc0 2.543731 1_655
Se15 Tc7 2.533719 1_555
Se15 Tc9 2.540422 1_554
Se15 Tc1 2.543731 1_544
Se16 Se18 2.420533 1_464
Se16 Tc3 2.616546 1_565
Se17 Se19 2.420533 1_465
Se17 Tc2 2.616546 1_455
Se18 Tc1 2.616546 1_545
Se19 Tc0 2.616546 1_655
Se20 Tc4 2.656011 1_555
Se20 Tc9 2.661268 1_555
Se21 Tc5 2.656011 1_555
Se21 Tc8 2.661268 1_555
Se22 Tc6 2.656011 1_555
Se22 Tc11 2.661268 1_555
Se23 Tc7 2.656011 1_555
Se23 Tc10 2.661268 1_555
