# generated using pymatgen
data_TbTlSe2
_symmetry_space_group_name_H-M   'P 1'
_cell_length_a   8.09434666
_cell_length_b   8.09434666
_cell_length_c   8.09434751
_cell_angle_alpha   29.94615051
_cell_angle_beta   29.94615051
_cell_angle_gamma   29.94614669
_symmetry_Int_Tables_number   1
_chemical_formula_structural   TbTlSe2
_chemical_formula_sum   'Tb1 Tl1 Se2'
_cell_volume   117.04749644
_cell_formula_units_Z   1
loop_
 _symmetry_equiv_pos_site_id
 _symmetry_equiv_pos_as_xyz
  1  'x, y, z'
loop_
 _atom_site_type_symbol
 _atom_site_label
 _atom_site_symmetry_multiplicity
 _atom_site_fract_x
 _atom_site_fract_y
 _atom_site_fract_z
 _atom_site_occupancy
  Tb  Tb0  1  -0.00000000  -0.00000000  0.00000000  1
  Tl  Tl0  1  0.50000000  0.50000000  0.50000000  1
  Se  Se0  1  0.73499259  0.73499259  0.73499259  1
  Se  Se1  1  0.26500741  0.26500741  0.26500741  1
loop_
_geom_bond_atom_site_label_1
_geom_bond_atom_site_label_2
_geom_bond_distance
_geom_bond_site_symmetry_2
Se0 Tb0 2.887762 1_566
Se0 Tb0 2.887762 1_656
Se0 Tb0 2.887762 1_665
Se0 Tl0 3.320604 1_565
Se0 Tl0 3.320604 1_655
Se0 Tl0 3.320605 1_556
Se1 Tb0 2.887762 1_565
Se1 Tb0 2.887762 1_655
Se1 Tb0 2.887762 1_556
Se1 Tl0 3.320604 1_455
Se1 Tl0 3.320604 1_545
Se1 Tl0 3.320605 1_554
