# generated using pymatgen
data_C3N4
_symmetry_space_group_name_H-M   'P 1'
_cell_length_a   4.79594891
_cell_length_b   4.79594891
_cell_length_c   4.79594891
_cell_angle_alpha   60.00000000
_cell_angle_beta   60.00000000
_cell_angle_gamma   60.00000000
_symmetry_Int_Tables_number   1
_chemical_formula_structural   C3N4
_chemical_formula_sum   'C6 N8'
_cell_volume   78.00252253
_cell_formula_units_Z   2
loop_
 _symmetry_equiv_pos_site_id
 _symmetry_equiv_pos_as_xyz
  1  'x, y, z'
loop_
 _atom_site_type_symbol
 _atom_site_label
 _atom_site_symmetry_multiplicity
 _atom_site_fract_x
 _atom_site_fract_y
 _atom_site_fract_z
 _atom_site_occupancy
  C  C0  1  0.00000000  0.00000000  0.00000000  1
  C  C1  1  0.25000000  0.25000000  0.25000000  1
  C  C2  1  0.62500000  0.12500000  0.62500000  1
  C  C3  1  0.62500000  0.62500000  0.12500000  1
  C  C4  1  0.12500000  0.62500000  0.62500000  1
  C  C5  1  0.62500000  0.62500000  0.62500000  1
  N  N0  1  0.86914200  0.39257400  0.86914200  1
  N  N1  1  0.38085800  0.38085800  0.85742600  1
  N  N2  1  0.85742600  0.38085800  0.38085800  1
  N  N3  1  0.38085800  0.38085800  0.38085800  1
  N  N4  1  0.39257400  0.86914200  0.86914200  1
  N  N5  1  0.86914200  0.86914200  0.86914200  1
  N  N6  1  0.86914200  0.86914200  0.39257400  1
  N  N7  1  0.38085800  0.85742600  0.38085800  1
loop_
_geom_bond_atom_site_label_1
_geom_bond_atom_site_label_2
_geom_bond_distance
_geom_bond_site_symmetry_2
C0 N6 1.537271 1_445
C0 N0 1.537271 1_454
C0 N4 1.537271 1_544
C0 N5 1.537271 1_444
C1 N3 1.537271 1_555
C1 N1 1.537271 1_554
C1 N7 1.537271 1_545
C1 N2 1.537271 1_455
C2 N5 1.656845 1_545
C2 N1 1.656845 1_555
C2 N2 1.656845 1_555
C2 N4 1.656845 1_545
C2 N3 1.656845 1_555
C2 N6 1.656845 1_545
C3 N5 1.656845 1_554
C3 N7 1.656845 1_555
C3 N2 1.656845 1_555
C3 N0 1.656845 1_554
C3 N3 1.656845 1_555
C3 N4 1.656845 1_554
C4 N5 1.656845 1_455
C4 N7 1.656845 1_555
C4 N1 1.656845 1_555
C4 N6 1.656845 1_455
C4 N0 1.656845 1_455
C4 N3 1.656845 1_555
C5 N6 1.656845 1_555
C5 N0 1.656845 1_555
C5 N4 1.656845 1_555
C5 N1 1.656845 1_555
C5 N7 1.656845 1_555
C5 N2 1.656845 1_555
