# generated using pymatgen
data_CaV2O4
_symmetry_space_group_name_H-M   'P 1'
_cell_length_a   2.95737901
_cell_length_b   9.28642441
_cell_length_c   10.72970575
_cell_angle_alpha   90.00000000
_cell_angle_beta   90.00000000
_cell_angle_gamma   90.00000000
_symmetry_Int_Tables_number   1
_chemical_formula_structural   CaV2O4
_chemical_formula_sum   'Ca4 V8 O16'
_cell_volume   294.67502309
_cell_formula_units_Z   4
loop_
 _symmetry_equiv_pos_site_id
 _symmetry_equiv_pos_as_xyz
  1  'x, y, z'
loop_
 _atom_site_type_symbol
 _atom_site_label
 _atom_site_symmetry_multiplicity
 _atom_site_fract_x
 _atom_site_fract_y
 _atom_site_fract_z
 _atom_site_occupancy
  Ca  Ca0  1  0.25000000  0.25658486  0.15412918  1
  Ca  Ca1  1  0.75000000  0.74341514  0.84587082  1
  Ca  Ca2  1  0.25000000  0.75658486  0.34587082  1
  Ca  Ca3  1  0.75000000  0.24341514  0.65412918  1
  V  V0  1  0.25000000  0.43609955  0.38555485  1
  V  V1  1  0.75000000  0.56390045  0.61444515  1
  V  V2  1  0.25000000  0.93609955  0.11444515  1
  V  V3  1  0.75000000  0.06390045  0.88555485  1
  V  V4  1  0.25000000  0.41754147  0.89463758  1
  V  V5  1  0.75000000  0.58245853  0.10536242  1
  V  V6  1  0.25000000  0.91754147  0.60536242  1
  V  V7  1  0.75000000  0.08245853  0.39463758  1
  O  O0  1  0.25000000  0.20607268  0.83521400  1
  O  O1  1  0.75000000  0.79392732  0.16478600  1
  O  O2  1  0.25000000  0.70607268  0.66478600  1
  O  O3  1  0.75000000  0.29392732  0.33521400  1
  O  O4  1  0.25000000  0.11724890  0.52253448  1
  O  O5  1  0.75000000  0.88275110  0.47746552  1
  O  O6  1  0.25000000  0.61724890  0.97746552  1
  O  O7  1  0.75000000  0.38275110  0.02253448  1
  O  O8  1  0.25000000  0.02310788  0.28190544  1
  O  O9  1  0.75000000  0.97689212  0.71809456  1
  O  O10  1  0.25000000  0.52310788  0.21809456  1
  O  O11  1  0.75000000  0.47689212  0.78190544  1
  O  O12  1  0.25000000  0.41803273  0.57215063  1
  O  O13  1  0.75000000  0.58196727  0.42784937  1
  O  O14  1  0.25000000  0.91803273  0.92784937  1
  O  O15  1  0.75000000  0.08196727  0.07215063  1
loop_
_geom_bond_atom_site_label_1
_geom_bond_atom_site_label_2
_geom_bond_distance
_geom_bond_site_symmetry_2
Ca0 O7 2.356462 1_455
Ca0 O7 2.356462 1_555
Ca0 O15 2.364261 1_455
Ca0 O15 2.364261 1_555
Ca0 O3 2.466166 1_455
Ca0 O3 2.466166 1_555
Ca0 O8 2.565266 1_555
Ca0 O10 2.568443 1_555
Ca1 O6 2.356462 1_555
Ca1 O6 2.356462 1_655
Ca1 O14 2.364261 1_555
Ca1 O14 2.364261 1_655
Ca1 O2 2.466166 1_555
Ca1 O2 2.466166 1_655
Ca1 O9 2.565266 1_555
Ca1 O11 2.568443 1_555
Ca2 O5 2.356462 1_455
Ca2 O5 2.356462 1_555
Ca2 O13 2.364261 1_455
Ca2 O13 2.364261 1_555
Ca2 O1 2.466166 1_455
Ca2 O1 2.466166 1_555
Ca2 O10 2.565266 1_555
Ca2 O8 2.568443 1_565
Ca3 O4 2.356462 1_655
Ca3 O4 2.356462 1_555
Ca3 O12 2.364261 1_655
Ca3 O12 2.364261 1_555
Ca3 O0 2.466166 1_555
Ca3 O0 2.466166 1_655
Ca3 O11 2.565266 1_555
Ca3 O9 2.568443 1_545
O0 V3 2.054603 1_455
O0 V3 2.054603 1_555
O0 V4 2.064703 1_555
O1 V2 2.054603 1_555
O1 V2 2.054603 1_655
O1 V5 2.064703 1_555
O2 V1 2.054603 1_555
O2 V1 2.054603 1_455
O2 V6 2.064703 1_555
O3 V0 2.054603 1_555
O3 V0 2.054603 1_655
O3 V7 2.064703 1_555
O4 V7 2.043061 1_555
O4 V7 2.043061 1_455
O4 V6 2.056513 1_545
O5 V6 2.043061 1_555
O5 V6 2.043061 1_655
O5 V7 2.056513 1_565
O6 V5 2.043061 1_456
O6 V5 2.043061 1_556
O6 V4 2.056513 1_555
O7 V4 2.043061 1_654
O7 V4 2.043061 1_554
O7 V5 2.056513 1_555
O8 V2 1.970113 1_545
O8 V7 1.988312 1_555
O8 V7 1.988312 1_455
O9 V3 1.970113 1_565
O9 V6 1.988312 1_555
O9 V6 1.988312 1_655
O10 V0 1.970113 1_555
O10 V5 1.988312 1_455
O10 V5 1.988312 1_555
O11 V1 1.970113 1_555
O11 V4 1.988312 1_655
O11 V4 1.988312 1_555
O12 V0 2.009135 1_555
O12 V1 2.056059 1_455
O12 V1 2.056059 1_555
O13 V1 2.009135 1_555
O13 V0 2.056059 1_555
O13 V0 2.056059 1_655
O14 V2 2.009135 1_556
O14 V3 2.056059 1_565
O14 V3 2.056059 1_465
O15 V3 2.009135 1_554
O15 V2 2.056059 1_645
O15 V2 2.056059 1_545
