# generated using pymatgen
data_Te2Ir
_symmetry_space_group_name_H-M   'P 1'
_cell_length_a   4.02012133
_cell_length_b   5.41776416
_cell_length_c   13.49704819
_cell_angle_alpha   90.00000000
_cell_angle_beta   90.00000000
_cell_angle_gamma   90.00000000
_symmetry_Int_Tables_number   1
_chemical_formula_structural   Te2Ir
_chemical_formula_sum   'Te8 Ir4'
_cell_volume   293.96664439
_cell_formula_units_Z   4
loop_
 _symmetry_equiv_pos_site_id
 _symmetry_equiv_pos_as_xyz
  1  'x, y, z'
loop_
 _atom_site_type_symbol
 _atom_site_label
 _atom_site_symmetry_multiplicity
 _atom_site_fract_x
 _atom_site_fract_y
 _atom_site_fract_z
 _atom_site_occupancy
  Te  Te0  1  0.25000000  0.76446828  0.94999393  1
  Te  Te1  1  0.25000000  0.73553172  0.44999393  1
  Te  Te2  1  0.25000000  0.29525811  0.80709290  1
  Te  Te3  1  0.75000000  0.26446828  0.55000607  1
  Te  Te4  1  0.75000000  0.23553172  0.05000607  1
  Te  Te5  1  0.75000000  0.70474189  0.19290710  1
  Te  Te6  1  0.25000000  0.20474189  0.30709290  1
  Te  Te7  1  0.75000000  0.79525811  0.69290710  1
  Ir  Ir0  1  0.75000000  0.48375166  0.36592228  1
  Ir  Ir1  1  0.75000000  0.01624834  0.86592228  1
  Ir  Ir2  1  0.25000000  0.98375166  0.13407772  1
  Ir  Ir3  1  0.25000000  0.51624834  0.63407772  1
loop_
_geom_bond_atom_site_label_1
_geom_bond_atom_site_label_2
_geom_bond_distance
_geom_bond_site_symmetry_2
Te0 Te2 3.190951 1_555
Te1 Te6 3.190951 1_565
Te3 Te7 3.190951 1_545
Te4 Te5 3.190951 1_555
Ir0 Te5 2.624232 1_555
Ir0 Te6 2.637381 1_555
Ir0 Te6 2.637381 1_655
Ir0 Te1 2.681168 1_655
Ir0 Te1 2.681168 1_555
Ir0 Te3 2.754012 1_555
Ir1 Te7 2.624232 1_545
Ir1 Te2 2.637381 1_555
Ir1 Te2 2.637381 1_655
Ir1 Te0 2.681168 1_545
Ir1 Te0 2.681168 1_645
Ir1 Te4 2.754012 1_556
Ir2 Te6 2.624232 1_565
Ir2 Te5 2.637381 1_555
Ir2 Te5 2.637381 1_455
Ir2 Te4 2.681168 1_565
Ir2 Te4 2.681168 1_465
Ir2 Te0 2.754012 1_554
Ir3 Te2 2.624232 1_555
Ir3 Te7 2.637381 1_555
Ir3 Te7 2.637381 1_455
Ir3 Te3 2.681168 1_555
Ir3 Te3 2.681168 1_455
Ir3 Te1 2.754012 1_555
