# generated using pymatgen
data_Ca2SiCl2O3
_symmetry_space_group_name_H-M   'P 1'
_cell_length_a   8.98939780
_cell_length_b   8.98939780
_cell_length_c   8.98939780
_cell_angle_alpha   106.18162350
_cell_angle_beta   106.18162350
_cell_angle_gamma   116.27204955
_symmetry_Int_Tables_number   1
_chemical_formula_structural   Ca2SiCl2O3
_chemical_formula_sum   'Ca8 Si4 Cl8 O12'
_cell_volume   553.22680872
_cell_formula_units_Z   4
loop_
 _symmetry_equiv_pos_site_id
 _symmetry_equiv_pos_as_xyz
  1  'x, y, z'
loop_
 _atom_site_type_symbol
 _atom_site_label
 _atom_site_symmetry_multiplicity
 _atom_site_fract_x
 _atom_site_fract_y
 _atom_site_fract_z
 _atom_site_occupancy
  Ca  Ca0  1  0.52104600  0.18845200  0.17184600  1
  Ca  Ca1  1  0.48426900  0.81657700  0.82823500  1
  Ca  Ca2  1  0.98834200  0.65603400  0.17176500  1
  Ca  Ca3  1  0.81657700  0.98834200  0.33230800  1
  Ca  Ca4  1  0.01660600  0.34920000  0.82815400  1
  Ca  Ca5  1  0.65603400  0.48426900  0.66769200  1
  Ca  Ca6  1  0.34920000  0.52104600  0.33259400  1
  Ca  Ca7  1  0.18845200  0.01660600  0.66740600  1
  Si  Si0  1  0.10661400  0.81516100  0.91637600  1
  Si  Si1  1  0.19023800  0.10661400  0.29145300  1
  Si  Si2  1  0.89878500  0.19023800  0.08362400  1
  Si  Si3  1  0.81516100  0.89878500  0.70854700  1
  Cl  Cl0  1  0.24697500  0.74697500  0.50000000  1
  Cl  Cl1  1  0.74697500  0.24697500  0.50000000  1
  Cl  Cl2  1  0.57739000  0.24419400  0.81784000  1
  Cl  Cl3  1  0.71421100  0.71421100  0.00000000  1
  Cl  Cl4  1  0.29028800  0.29028800  0.00000000  1
  Cl  Cl5  1  0.42635400  0.75955000  0.18216000  1
  Cl  Cl6  1  0.75955000  0.57739000  0.33319600  1
  Cl  Cl7  1  0.24419400  0.42635400  0.66680400  1
  O  O0  1  0.40226600  0.29154100  0.38780600  1
  O  O1  1  0.82916700  0.05215600  0.87627200  1
  O  O2  1  0.95289500  0.82916700  0.77701100  1
  O  O3  1  0.17588400  0.95289500  0.12372800  1
  O  O4  1  0.99025500  0.60268900  0.88822500  1
  O  O5  1  0.05215600  0.17588400  0.22298900  1
  O  O6  1  0.01446000  0.40226600  0.11072500  1
  O  O7  1  0.60268900  0.71446400  0.61243400  1
  O  O8  1  0.90373500  0.01446000  0.61219400  1
  O  O9  1  0.71446400  0.10203000  0.11177500  1
  O  O10  1  0.10203000  0.99025500  0.38756600  1
  O  O11  1  0.29154100  0.90373500  0.88927500  1
loop_
_geom_bond_atom_site_label_1
_geom_bond_atom_site_label_2
_geom_bond_distance
_geom_bond_site_symmetry_2
Ca0 O9 2.324554 1_555
Ca0 O11 2.457711 1_544
Ca0 O0 2.606979 1_555
Ca0 O3 2.687631 1_545
Ca0 Cl6 2.780093 1_555
Ca0 Cl1 2.820180 1_555
Ca0 Cl4 2.865432 1_555
Ca1 O11 2.325609 1_555
Ca1 O9 2.465235 1_566
Ca1 O7 2.600512 1_555
Ca1 O1 2.686149 1_565
Ca1 Cl7 2.789957 1_555
Ca1 Cl0 2.815909 1_555
Ca1 Cl3 2.863647 1_556
Ca2 O6 2.325609 1_655
Ca2 O4 2.465235 1_554
Ca2 O10 2.600512 1_655
Ca2 O3 2.686149 1_655
Ca2 Cl6 2.789957 1_555
Ca2 Cl0 2.815909 1_655
Ca2 Cl3 2.863647 1_555
Ca3 O8 2.325609 1_565
Ca3 O10 2.465235 1_655
Ca3 O9 2.600512 1_565
Ca3 O5 2.686149 1_665
Ca3 Cl5 2.789957 1_555
Ca3 Cl1 2.815909 1_565
Ca3 Cl3 2.863647 1_555
Ca4 O4 2.324554 1_455
Ca4 O6 2.457711 1_556
Ca4 O8 2.606979 1_455
Ca4 O1 2.687631 1_455
Ca4 Cl7 2.780093 1_555
Ca4 Cl1 2.820180 1_455
Ca4 Cl4 2.865432 1_556
Ca5 O0 2.325609 1_555
Ca5 O7 2.465235 1_555
Ca5 O4 2.600512 1_555
Ca5 O2 2.686149 1_555
Ca5 Cl2 2.789957 1_555
Ca5 Cl1 2.815909 1_555
Ca5 Cl3 2.863647 1_556
Ca6 O7 2.324554 1_555
Ca6 O0 2.457711 1_555
Ca6 O6 2.606979 1_555
Ca6 O5 2.687631 1_555
Ca6 Cl5 2.780093 1_555
Ca6 Cl0 2.820180 1_555
Ca6 Cl4 2.865432 1_555
Ca7 O10 2.324554 1_545
Ca7 O8 2.457711 1_455
Ca7 O11 2.606979 1_545
Ca7 O2 2.687631 1_445
Ca7 Cl2 2.780093 1_555
Ca7 Cl0 2.820180 1_545
Ca7 Cl4 2.865432 1_556
O0 Si1 1.618308 1_555
O1 Si3 1.664902 1_545
O1 Si2 1.667139 1_556
O2 Si0 1.664902 1_655
O2 Si3 1.667139 1_555
O3 Si1 1.664902 1_565
O3 Si0 1.667139 1_554
O4 Si0 1.618847 1_655
O5 Si2 1.664902 1_455
O5 Si1 1.667139 1_555
O6 Si2 1.618308 1_455
O7 Si3 1.618847 1_555
O8 Si3 1.618308 1_545
O9 Si2 1.618847 1_555
O10 Si1 1.618847 1_565
O11 Si0 1.618308 1_555
