# generated using pymatgen
data_CuHgSBr
_symmetry_space_group_name_H-M   'P 1'
_cell_length_a   4.09921900
_cell_length_b   10.16260000
_cell_length_c   19.05441400
_cell_angle_alpha   90.00000000
_cell_angle_beta   90.00000000
_cell_angle_gamma   90.00000000
_symmetry_Int_Tables_number   1
_chemical_formula_structural   CuHgSBr
_chemical_formula_sum   'Cu8 Hg8 S8 Br8'
_cell_volume   793.78255493
_cell_formula_units_Z   8
loop_
 _symmetry_equiv_pos_site_id
 _symmetry_equiv_pos_as_xyz
  1  'x, y, z'
loop_
 _atom_site_type_symbol
 _atom_site_label
 _atom_site_symmetry_multiplicity
 _atom_site_fract_x
 _atom_site_fract_y
 _atom_site_fract_z
 _atom_site_occupancy
  Cu  Cu0  1  0.00000000  0.93564000  0.08855800  1
  Cu  Cu1  1  0.00000000  0.56436000  0.58855800  1
  Cu  Cu2  1  0.00000000  0.41744600  0.88494400  1
  Cu  Cu3  1  0.00000000  0.58255400  0.11505600  1
  Cu  Cu4  1  0.00000000  0.91744600  0.61505600  1
  Cu  Cu5  1  0.00000000  0.08255400  0.38494400  1
  Cu  Cu6  1  0.00000000  0.43564000  0.41144200  1
  Cu  Cu7  1  0.00000000  0.06436000  0.91144200  1
  Hg  Hg0  1  0.50000000  0.01453600  0.75762900  1
  Hg  Hg1  1  0.50000000  0.24713500  0.61025300  1
  Hg  Hg2  1  0.50000000  0.98546400  0.24237100  1
  Hg  Hg3  1  0.50000000  0.48546400  0.25762900  1
  Hg  Hg4  1  0.50000000  0.51453600  0.74237100  1
  Hg  Hg5  1  0.50000000  0.74713500  0.88974700  1
  Hg  Hg6  1  0.50000000  0.25286500  0.11025300  1
  Hg  Hg7  1  0.50000000  0.75286500  0.38974700  1
  S  S0  1  0.50000000  0.48806100  0.61462900  1
  S  S1  1  0.50000000  0.00966500  0.62945400  1
  S  S2  1  0.50000000  0.99033500  0.37054600  1
  S  S3  1  0.50000000  0.98806100  0.88537100  1
  S  S4  1  0.50000000  0.49033500  0.12945400  1
  S  S5  1  0.50000000  0.50966500  0.87054600  1
  S  S6  1  0.50000000  0.01193900  0.11462900  1
  S  S7  1  0.50000000  0.51193900  0.38537100  1
  Br  Br0  1  0.00000000  0.73974800  0.01512300  1
  Br  Br1  1  0.00000000  0.74483400  0.22642400  1
  Br  Br2  1  0.00000000  0.75516600  0.72642400  1
  Br  Br3  1  0.00000000  0.26025200  0.98487700  1
  Br  Br4  1  0.00000000  0.76025200  0.51512300  1
  Br  Br5  1  0.00000000  0.25516600  0.77357600  1
  Br  Br6  1  0.00000000  0.24483400  0.27357600  1
  Br  Br7  1  0.00000000  0.23974800  0.48487700  1
loop_
_geom_bond_atom_site_label_1
_geom_bond_atom_site_label_2
_geom_bond_distance
_geom_bond_site_symmetry_2
Cu0 S6 2.246979 1_565
Cu0 S6 2.246979 1_465
Cu1 S0 2.246979 1_555
Cu1 S0 2.246979 1_455
Cu2 S5 2.270348 1_455
Cu2 S5 2.270348 1_555
Cu3 S4 2.270348 1_455
Cu3 S4 2.270348 1_555
Cu4 S1 2.270348 1_465
Cu4 S1 2.270348 1_565
Cu5 S2 2.270348 1_445
Cu5 S2 2.270348 1_545
Cu6 S7 2.246979 1_455
Cu6 S7 2.246979 1_555
Cu7 S3 2.246979 1_545
Cu7 S3 2.246979 1_445
Hg0 S1 2.442801 1_555
Hg0 S3 2.448874 1_545
Hg1 S1 2.440888 1_555
Hg1 S0 2.449854 1_555
Hg2 S2 2.442801 1_555
Hg2 S6 2.448874 1_565
Hg3 S4 2.442801 1_555
Hg3 S7 2.448874 1_555
Hg4 S5 2.442801 1_555
Hg4 S0 2.448874 1_555
Hg5 S5 2.440888 1_555
Hg5 S3 2.449854 1_555
Hg6 S4 2.440888 1_555
Hg6 S6 2.449854 1_555
Hg7 S2 2.440888 1_555
Hg7 S7 2.449854 1_555
Br0 Cu0 2.433332 1_555
Br0 Cu3 2.485528 1_555
Br0 Hg5 3.148602 1_454
Br0 Hg5 3.148602 1_554
Br1 Cu3 2.687549 1_555
Br2 Cu4 2.687549 1_555
Br3 Cu7 2.433332 1_555
Br3 Cu2 2.485528 1_555
Br3 Hg6 3.148602 1_456
Br3 Hg6 3.148602 1_556
Br4 Cu1 2.433332 1_555
Br4 Cu4 2.485528 1_555
Br4 Hg7 3.148602 1_555
Br4 Hg7 3.148602 1_455
Br5 Cu2 2.687549 1_555
Br6 Cu5 2.687549 1_555
Br7 Cu6 2.433332 1_555
Br7 Cu5 2.485528 1_555
Br7 Hg1 3.148602 1_455
Br7 Hg1 3.148602 1_555
