# generated using pymatgen
data_Ba3Mg(SiO4)2
_symmetry_space_group_name_H-M   'P 1'
_cell_length_a   9.84980085
_cell_length_b   9.84980085
_cell_length_c   7.37326200
_cell_angle_alpha   90.00000000
_cell_angle_beta   90.00000000
_cell_angle_gamma   120.00000569
_symmetry_Int_Tables_number   1
_chemical_formula_structural   Ba3Mg(SiO4)2
_chemical_formula_sum   'Ba9 Mg3 Si6 O24'
_cell_volume   619.50550836
_cell_formula_units_Z   3
loop_
 _symmetry_equiv_pos_site_id
 _symmetry_equiv_pos_as_xyz
  1  'x, y, z'
loop_
 _atom_site_type_symbol
 _atom_site_label
 _atom_site_symmetry_multiplicity
 _atom_site_fract_x
 _atom_site_fract_y
 _atom_site_fract_z
 _atom_site_occupancy
  Ba  Ba0  1  0.66771100  0.00238500  0.17801100  1
  Ba  Ba1  1  0.99761500  0.66532600  0.17801100  1
  Ba  Ba2  1  0.33467400  0.33228900  0.17801100  1
  Ba  Ba3  1  0.33228900  0.99761500  0.82198900  1
  Ba  Ba4  1  0.00238500  0.33467400  0.82198900  1
  Ba  Ba5  1  0.66532600  0.66771100  0.82198900  1
  Ba  Ba6  1  0.66666700  0.33333300  0.50407500  1
  Ba  Ba7  1  0.33333300  0.66666700  0.49592500  1
  Ba  Ba8  1  0.00000000  0.00000000  0.50000000  1
  Mg  Mg0  1  0.66666700  0.33333300  0.01144600  1
  Mg  Mg1  1  0.33333300  0.66666700  0.98855400  1
  Mg  Mg2  1  0.00000000  0.00000000  0.00000000  1
  Si  Si0  1  0.66295800  0.67132400  0.25890200  1
  Si  Si1  1  0.32867600  0.99163400  0.25890200  1
  Si  Si2  1  0.00836600  0.33704200  0.25890200  1
  Si  Si3  1  0.33704200  0.32867600  0.74109800  1
  Si  Si4  1  0.67132400  0.00836600  0.74109800  1
  Si  Si5  1  0.99163400  0.66295800  0.74109800  1
  O  O0  1  0.99967500  0.17457500  0.17709700  1
  O  O1  1  0.82542500  0.82509900  0.17709700  1
  O  O2  1  0.17490100  0.00032500  0.17709700  1
  O  O3  1  0.00032500  0.82542500  0.82290300  1
  O  O4  1  0.17457500  0.17490100  0.82290300  1
  O  O5  1  0.82509900  0.99967500  0.82290300  1
  O  O6  1  0.84434600  0.33373400  0.19588600  1
  O  O7  1  0.66626600  0.51061200  0.19588600  1
  O  O8  1  0.48938800  0.15565400  0.19588600  1
  O  O9  1  0.15565400  0.66626600  0.80411400  1
  O  O10  1  0.33373400  0.48938800  0.80411400  1
  O  O11  1  0.51061200  0.84434600  0.80411400  1
  O  O12  1  0.64544400  0.68797100  0.47530000  1
  O  O13  1  0.31202900  0.95747200  0.47530000  1
  O  O14  1  0.04252800  0.35455600  0.47530000  1
  O  O15  1  0.35455600  0.31202900  0.52470000  1
  O  O16  1  0.68797100  0.04252800  0.52470000  1
  O  O17  1  0.95747200  0.64544400  0.52470000  1
  O  O18  1  0.50989700  0.66710300  0.15495400  1
  O  O19  1  0.33289700  0.84279500  0.15495400  1
  O  O20  1  0.15720500  0.49010300  0.15495400  1
  O  O21  1  0.49010300  0.33289700  0.84504600  1
  O  O22  1  0.66710300  0.15720500  0.84504600  1
  O  O23  1  0.84279500  0.50989700  0.84504600  1
loop_
_geom_bond_atom_site_label_1
_geom_bond_atom_site_label_2
_geom_bond_distance
_geom_bond_site_symmetry_2
Ba0 O16 2.579063 1_555
Ba0 O6 2.831596 1_555
Ba0 O0 2.832380 1_555
Ba0 O8 2.834295 1_555
Ba0 O1 2.859243 1_545
Ba0 O19 2.862114 1_545
Ba0 O18 2.866698 1_545
Ba0 O22 2.891685 1_554
Ba0 O5 3.049730 1_544
Ba0 O11 3.163702 1_544
Ba1 O17 2.579063 1_555
Ba1 O7 2.831596 1_555
Ba1 O1 2.832372 1_555
Ba1 O6 2.834295 1_555
Ba1 O2 2.859234 1_665
Ba1 O20 2.862106 1_655
Ba1 O19 2.866698 1_655
Ba1 O23 2.891687 1_554
Ba1 O3 3.049736 1_654
Ba1 O9 3.163702 1_654
Ba2 O15 2.579062 1_555
Ba2 O8 2.831596 1_555
Ba2 O2 2.832380 1_555
Ba2 O7 2.834295 1_555
Ba2 O0 2.859234 1_455
Ba2 O18 2.862114 1_555
Ba2 O20 2.866707 1_555
Ba2 O21 2.891690 1_554
Ba2 O4 3.049733 1_554
Ba2 O10 3.163702 1_554
Ba3 O13 2.579063 1_555
Ba3 O9 2.831596 1_555
Ba3 O3 2.832380 1_555
Ba3 O11 2.834295 1_555
Ba3 O4 2.859243 1_565
Ba3 O22 2.862114 1_565
Ba3 O21 2.866698 1_565
Ba3 O19 2.891685 1_556
Ba3 O2 3.049730 1_566
Ba3 O8 3.163702 1_566
Ba4 O14 2.579063 1_555
Ba4 O10 2.831596 1_555
Ba4 O4 2.832372 1_555
Ba4 O9 2.834295 1_555
Ba4 O5 2.859234 1_445
Ba4 O23 2.862106 1_455
Ba4 O22 2.866698 1_455
Ba4 O20 2.891687 1_556
Ba4 O0 3.049736 1_456
Ba4 O6 3.163702 1_456
Ba5 O12 2.579062 1_555
Ba5 O11 2.831596 1_555
Ba5 O5 2.832380 1_555
Ba5 O10 2.834295 1_555
Ba5 O3 2.859234 1_655
Ba5 O21 2.862114 1_555
Ba5 O23 2.866707 1_555
Ba5 O18 2.891690 1_556
Ba5 O1 3.049733 1_556
Ba5 O7 3.163702 1_556
Ba6 O6 2.866980 1_555
Ba6 O8 2.866983 1_555
Ba6 O7 2.866986 1_555
Ba6 O16 2.978732 1_555
Ba6 O17 2.978742 1_555
Ba6 O15 2.978751 1_555
Ba6 O23 3.055753 1_555
Ba6 O21 3.055754 1_555
Ba6 O22 3.055754 1_555
Ba7 O9 2.866980 1_555
Ba7 O11 2.866983 1_555
Ba7 O10 2.866986 1_555
Ba7 O13 2.978732 1_555
Ba7 O14 2.978742 1_555
Ba7 O12 2.978751 1_555
Ba7 O20 3.055753 1_555
Ba7 O18 3.055754 1_555
Ba7 O19 3.055754 1_555
Ba8 O0 2.937811 1_455
Ba8 O3 2.937811 1_545
Ba8 O1 2.937814 1_445
Ba8 O4 2.937814 1_555
Ba8 O2 2.937817 1_555
Ba8 O5 2.937817 1_445
Ba8 O14 3.307860 1_555
Ba8 O17 3.307860 1_445
Ba8 O15 3.307864 1_555
Ba8 O12 3.307864 1_445
Ba8 O13 3.307870 1_545
Ba8 O16 3.307870 1_455
Mg0 O23 2.126593 1_554
Mg0 O21 2.126593 1_554
Mg0 O22 2.126593 1_554
Mg0 O6 2.214804 1_555
Mg0 O8 2.214808 1_555
Mg0 O7 2.214812 1_555
Mg1 O20 2.126593 1_556
Mg1 O18 2.126593 1_556
Mg1 O19 2.126593 1_556
Mg1 O9 2.214804 1_555
Mg1 O11 2.214808 1_555
Mg1 O10 2.214812 1_555
Mg2 O3 2.160408 1_544
Mg2 O0 2.160408 1_455
Mg2 O4 2.160412 1_554
Mg2 O1 2.160412 1_445
Mg2 O5 2.160416 1_444
Mg2 O2 2.160416 1_555
O0 Si2 1.671828 1_655
O1 Si0 1.671823 1_555
O2 Si1 1.671819 1_545
O3 Si5 1.671828 1_455
O4 Si3 1.671823 1_555
O5 Si4 1.671819 1_565
O6 Si2 1.665639 1_655
O7 Si0 1.665639 1_555
O8 Si1 1.665639 1_545
O9 Si5 1.665639 1_455
O10 Si3 1.665639 1_555
O11 Si4 1.665639 1_565
O12 Si0 1.621956 1_555
O13 Si1 1.621957 1_555
O14 Si2 1.621957 1_555
O15 Si3 1.621956 1_555
O16 Si4 1.621957 1_555
O17 Si5 1.621957 1_555
O18 Si0 1.673138 1_555
O19 Si1 1.673129 1_555
O20 Si2 1.673134 1_555
O21 Si3 1.673138 1_555
O22 Si4 1.673129 1_555
O23 Si5 1.673134 1_555
