# generated using pymatgen
data_LiSb(PO3)4
_symmetry_space_group_name_H-M   'P 1'
_cell_length_a   7.54274780
_cell_length_b   7.54274780
_cell_length_c   10.35860978
_cell_angle_alpha   66.74756148
_cell_angle_beta   66.74756148
_cell_angle_gamma   70.69046881
_symmetry_Int_Tables_number   1
_chemical_formula_structural   LiSb(PO3)4
_chemical_formula_sum   'Li2 Sb2 P8 O24'
_cell_volume   486.69827649
_cell_formula_units_Z   2
loop_
 _symmetry_equiv_pos_site_id
 _symmetry_equiv_pos_as_xyz
  1  'x, y, z'
loop_
 _atom_site_type_symbol
 _atom_site_label
 _atom_site_symmetry_multiplicity
 _atom_site_fract_x
 _atom_site_fract_y
 _atom_site_fract_z
 _atom_site_occupancy
  Li  Li0  1  0.00000000  0.50000000  0.00000000  1
  Li  Li1  1  0.50000000  0.00000000  0.50000000  1
  Sb  Sb0  1  0.04327700  0.95672300  0.75000000  1
  Sb  Sb1  1  0.95672300  0.04327700  0.25000000  1
  P  P0  1  0.27319000  0.71943700  0.47293800  1
  P  P1  1  0.29637200  0.31768000  0.69611600  1
  P  P2  1  0.68232000  0.70362800  0.80388400  1
  P  P3  1  0.28056300  0.72681000  0.02706200  1
  P  P4  1  0.71943700  0.27319000  0.97293800  1
  P  P5  1  0.31768000  0.29637200  0.19611600  1
  P  P6  1  0.70362800  0.68232000  0.30388400  1
  P  P7  1  0.72681000  0.28056300  0.52706200  1
  O  O0  1  0.81353900  0.63971300  0.16256900  1
  O  O1  1  0.30063800  0.80550100  0.57133000  1
  O  O2  1  0.47007900  0.69681900  0.33802100  1
  O  O3  1  0.10313700  0.82452500  0.41008700  1
  O  O4  1  0.86316800  0.72052000  0.82667400  1
  O  O5  1  0.24357500  0.49753200  0.55617100  1
  O  O6  1  0.80550100  0.30063800  0.07133000  1
  O  O7  1  0.17547500  0.89686300  0.08991300  1
  O  O8  1  0.50246800  0.75642500  0.94382900  1
  O  O9  1  0.63971300  0.81353900  0.66256900  1
  O  O10  1  0.30318100  0.52992100  0.16197900  1
  O  O11  1  0.27948000  0.13683200  0.67332600  1
  O  O12  1  0.72052000  0.86316800  0.32667400  1
  O  O13  1  0.69681900  0.47007900  0.83802100  1
  O  O14  1  0.36028700  0.18646100  0.33743100  1
  O  O15  1  0.49753200  0.24357500  0.05617100  1
  O  O16  1  0.82452500  0.10313700  0.91008700  1
  O  O17  1  0.19449900  0.69936200  0.92867000  1
  O  O18  1  0.75642500  0.50246800  0.44382900  1
  O  O19  1  0.13683200  0.27948000  0.17332600  1
  O  O20  1  0.89686300  0.17547500  0.58991300  1
  O  O21  1  0.52992100  0.30318100  0.66197900  1
  O  O22  1  0.69936200  0.19449900  0.42867000  1
  O  O23  1  0.18646100  0.36028700  0.83743100  1
loop_
_geom_bond_atom_site_label_1
_geom_bond_atom_site_label_2
_geom_bond_distance
_geom_bond_site_symmetry_2
Li0 O23 2.115507 1_554
Li0 O0 2.115507 1_455
Li0 O6 2.164543 1_455
Li0 O17 2.164543 1_554
Li0 O4 2.241699 1_454
Li0 O19 2.241699 1_555
Li1 O9 2.115507 1_545
Li1 O14 2.115507 1_555
Li1 O1 2.164543 1_545
Li1 O22 2.164543 1_555
Li1 O12 2.241699 1_545
Li1 O11 2.241699 1_555
O0 P6 1.473234 1_555
O1 P0 1.510276 1_555
O1 Sb0 2.420837 1_555
O2 P0 1.603028 1_555
O2 P6 1.628351 1_555
O3 P0 1.508938 1_555
O3 Sb1 2.184602 1_465
O4 P2 1.525011 1_555
O4 Sb0 2.298271 1_655
O5 P0 1.597045 1_555
O5 P1 1.626700 1_555
O6 P4 1.510276 1_554
O6 Sb1 2.420837 1_555
O7 P3 1.508938 1_555
O7 Sb1 2.184602 1_465
O8 P3 1.597045 1_556
O8 P2 1.626700 1_555
O9 P2 1.473234 1_555
O10 P3 1.603028 1_555
O10 P5 1.628351 1_555
O11 P1 1.525011 1_555
O11 Sb0 2.298271 1_545
O12 P6 1.525011 1_555
O12 Sb1 2.298271 1_565
O13 P4 1.603028 1_555
O13 P2 1.628351 1_555
O14 P5 1.473234 1_555
O15 P4 1.597045 1_554
O15 P5 1.626700 1_555
O16 P4 1.508938 1_555
O16 Sb0 2.184602 1_645
O17 P3 1.510276 1_556
O17 Sb0 2.420837 1_555
O18 P7 1.597045 1_555
O18 P6 1.626700 1_555
O19 P5 1.525011 1_555
O19 Sb1 2.298271 1_455
O20 P7 1.508938 1_555
O20 Sb0 2.184602 1_645
O21 P7 1.603028 1_555
O21 P1 1.628351 1_555
O22 P7 1.510276 1_555
O22 Sb1 2.420837 1_555
O23 P1 1.473234 1_555
