# generated using pymatgen
data_CeMg2Cu9
_symmetry_space_group_name_H-M   'P 1'
_cell_length_a   5.04188346
_cell_length_b   5.04188346
_cell_length_c   16.14121900
_cell_angle_alpha   90.00000000
_cell_angle_beta   90.00000000
_cell_angle_gamma   119.99999288
_symmetry_Int_Tables_number   1
_chemical_formula_structural   CeMg2Cu9
_chemical_formula_sum   'Ce2 Mg4 Cu18'
_cell_volume   355.34695504
_cell_formula_units_Z   2
loop_
 _symmetry_equiv_pos_site_id
 _symmetry_equiv_pos_as_xyz
  1  'x, y, z'
loop_
 _atom_site_type_symbol
 _atom_site_label
 _atom_site_symmetry_multiplicity
 _atom_site_fract_x
 _atom_site_fract_y
 _atom_site_fract_z
 _atom_site_occupancy
  Ce  Ce0  1  0.33333300  0.66666700  0.75000000  1
  Ce  Ce1  1  0.66666700  0.33333300  0.25000000  1
  Mg  Mg0  1  0.33333300  0.66666700  0.53152800  1
  Mg  Mg1  1  0.66666700  0.33333300  0.03152800  1
  Mg  Mg2  1  0.66666700  0.33333300  0.46847200  1
  Mg  Mg3  1  0.33333300  0.66666700  0.96847200  1
  Cu  Cu0  1  0.00000000  0.00000000  0.00000000  1
  Cu  Cu1  1  0.00000000  0.00000000  0.50000000  1
  Cu  Cu2  1  0.00000000  0.00000000  0.25000000  1
  Cu  Cu3  1  0.00000000  0.00000000  0.75000000  1
  Cu  Cu4  1  0.33333300  0.66666700  0.25000000  1
  Cu  Cu5  1  0.66666700  0.33333300  0.75000000  1
  Cu  Cu6  1  0.16792300  0.33584600  0.12250500  1
  Cu  Cu7  1  0.83207700  0.16792300  0.62250500  1
  Cu  Cu8  1  0.33584600  0.16792300  0.62250500  1
  Cu  Cu9  1  0.66415400  0.83207700  0.12250500  1
  Cu  Cu10  1  0.16792300  0.83207700  0.12250500  1
  Cu  Cu11  1  0.83207700  0.66415400  0.87749500  1
  Cu  Cu12  1  0.83207700  0.16792300  0.87749500  1
  Cu  Cu13  1  0.83207700  0.66415400  0.62250500  1
  Cu  Cu14  1  0.33584600  0.16792300  0.87749500  1
  Cu  Cu15  1  0.66415400  0.83207700  0.37749500  1
  Cu  Cu16  1  0.16792300  0.33584600  0.37749500  1
  Cu  Cu17  1  0.16792300  0.83207700  0.37749500  1
loop_
_geom_bond_atom_site_label_1
_geom_bond_atom_site_label_2
_geom_bond_distance
_geom_bond_site_symmetry_2
Ce0 Cu3 2.910930 1_565
Ce0 Cu5 2.910930 1_455
Ce0 Cu5 2.910930 1_565
Ce0 Cu3 2.910934 1_665
Ce0 Cu3 2.910934 1_555
Ce0 Cu5 2.910938 1_555
Ce0 Cu14 3.254276 1_565
Ce0 Cu11 3.254276 1_455
Ce0 Cu8 3.254276 1_565
Ce0 Cu13 3.254276 1_455
Ce0 Cu12 3.254278 1_565
Ce0 Cu12 3.254278 1_455
Ce0 Cu7 3.254278 1_565
Ce0 Cu7 3.254278 1_455
Ce0 Cu11 3.254279 1_555
Ce0 Cu14 3.254279 1_555
Ce0 Cu13 3.254279 1_555
Ce0 Cu8 3.254279 1_555
Ce1 Cu2 2.910930 1_655
Ce1 Cu4 2.910930 1_545
Ce1 Cu4 2.910930 1_655
Ce1 Cu2 2.910934 1_665
Ce1 Cu2 2.910934 1_555
Ce1 Cu4 2.910938 1_555
Ce1 Cu15 3.254276 1_545
Ce1 Cu16 3.254276 1_655
Ce1 Cu6 3.254276 1_655
Ce1 Cu9 3.254276 1_545
Ce1 Cu17 3.254278 1_655
Ce1 Cu17 3.254278 1_545
Ce1 Cu10 3.254278 1_545
Ce1 Cu10 3.254278 1_655
Ce1 Cu16 3.254279 1_555
Ce1 Cu15 3.254279 1_555
Ce1 Cu9 3.254279 1_555
Ce1 Cu6 3.254279 1_555
Cu0 Cu10 2.461802 1_545
Cu0 Cu12 2.461802 1_454
Cu0 Cu9 2.461803 1_445
Cu0 Cu6 2.461803 1_555
Cu0 Cu14 2.461803 1_554
Cu0 Cu11 2.461803 1_444
Cu0 Mg1 2.955079 1_455
Cu0 Mg3 2.955079 1_544
Cu0 Mg1 2.955084 1_555
Cu0 Mg3 2.955084 1_444
Cu0 Mg1 2.955084 1_445
Cu0 Mg3 2.955084 1_554
Cu1 Cu7 2.461802 1_455
Cu1 Cu17 2.461802 1_545
Cu1 Cu13 2.461803 1_445
Cu1 Cu8 2.461803 1_555
Cu1 Cu15 2.461803 1_445
Cu1 Cu16 2.461803 1_555
Cu1 Mg0 2.955079 1_545
Cu1 Mg2 2.955079 1_455
Cu1 Mg2 2.955084 1_555
Cu1 Mg2 2.955084 1_445
Cu1 Mg0 2.955084 1_555
Cu1 Mg0 2.955084 1_445
Cu2 Cu6 2.526953 1_555
Cu2 Cu9 2.526953 1_445
Cu2 Cu4 2.910930 1_545
Cu2 Cu4 2.910934 1_445
Cu2 Cu4 2.910934 1_555
Cu3 Cu7 2.526953 1_455
Cu3 Cu8 2.526953 1_555
Cu3 Cu5 2.910930 1_455
Cu3 Cu5 2.910934 1_445
Cu3 Cu5 2.910934 1_555
Cu4 Cu6 2.514284 1_555
Cu4 Cu9 2.514284 1_555
Cu5 Cu7 2.514282 1_555
Cu5 Cu8 2.514284 1_555
Cu6 Cu9 2.501939 1_555
Cu6 Cu9 2.539945 1_445
Cu6 Mg3 2.875441 1_554
Cu6 Mg1 2.917480 1_455
Cu6 Mg1 2.917484 1_555
Cu7 Cu8 2.501939 1_555
Cu7 Cu8 2.539945 1_655
Cu7 Mg2 2.875439 1_555
Cu7 Mg0 2.917482 1_545
Cu7 Mg0 2.917482 1_655
Cu8 Mg2 2.875441 1_555
Cu8 Mg0 2.917480 1_545
Cu8 Mg0 2.917484 1_555
Cu9 Mg3 2.875441 1_554
Cu9 Mg1 2.917480 1_565
Cu9 Mg1 2.917484 1_555
Cu10 Cu6 2.501939 1_555
Cu10 Cu9 2.501939 1_555
Cu10 Cu4 2.514282 1_555
Cu10 Cu2 2.526953 1_565
Cu10 Cu9 2.539945 1_455
Cu10 Cu6 2.539945 1_565
Cu10 Mg3 2.875439 1_554
Cu10 Mg1 2.917482 1_455
Cu10 Mg1 2.917482 1_565
Cu11 Cu12 2.501939 1_555
Cu11 Cu14 2.501939 1_555
Cu11 Cu5 2.514284 1_555
Cu11 Cu3 2.526953 1_665
Cu11 Cu12 2.539945 1_565
Cu11 Cu14 2.539945 1_665
Cu11 Mg1 2.875441 1_556
Cu11 Mg3 2.917480 1_655
Cu11 Mg3 2.917484 1_555
Cu12 Cu14 2.501939 1_555
Cu12 Cu5 2.514282 1_555
Cu12 Cu3 2.526953 1_655
Cu12 Cu14 2.539945 1_655
Cu12 Mg1 2.875439 1_556
Cu12 Mg3 2.917482 1_545
Cu12 Mg3 2.917482 1_655
Cu13 Cu7 2.501939 1_555
Cu13 Cu8 2.501939 1_555
Cu13 Cu5 2.514284 1_555
Cu13 Cu3 2.526953 1_665
Cu13 Cu7 2.539945 1_565
Cu13 Cu8 2.539945 1_665
Cu13 Mg2 2.875441 1_555
Cu13 Mg0 2.917480 1_655
Cu13 Mg0 2.917484 1_555
Cu14 Cu5 2.514284 1_555
Cu14 Cu3 2.526953 1_555
Cu14 Mg1 2.875441 1_556
Cu14 Mg3 2.917480 1_545
Cu14 Mg3 2.917484 1_555
Cu15 Cu17 2.501939 1_555
Cu15 Cu16 2.501939 1_555
Cu15 Cu4 2.514284 1_555
Cu15 Cu2 2.526953 1_665
Cu15 Cu17 2.539945 1_655
Cu15 Cu16 2.539945 1_665
Cu15 Mg0 2.875441 1_555
Cu15 Mg2 2.917480 1_565
Cu15 Mg2 2.917484 1_555
Cu16 Cu17 2.501939 1_555
Cu16 Cu4 2.514284 1_555
Cu16 Cu2 2.526953 1_555
Cu16 Cu17 2.539945 1_545
Cu16 Mg0 2.875441 1_555
Cu16 Mg2 2.917480 1_455
Cu16 Mg2 2.917484 1_555
Cu17 Cu4 2.514282 1_555
Cu17 Cu2 2.526953 1_565
Cu17 Mg0 2.875439 1_555
Cu17 Mg2 2.917482 1_455
Cu17 Mg2 2.917482 1_565
