# generated using pymatgen
data_Eu3(AsS4)2
_symmetry_space_group_name_H-M   'P 1'
_cell_length_a   10.60117967
_cell_length_b   10.60098493
_cell_length_c   10.60088627
_cell_angle_alpha   51.44021290
_cell_angle_beta   51.43951828
_cell_angle_gamma   51.43779523
_symmetry_Int_Tables_number   1
_chemical_formula_structural   Eu3(AsS4)2
_chemical_formula_sum   'Eu6 As4 S16'
_cell_volume   672.60146779
_cell_formula_units_Z   2
loop_
 _symmetry_equiv_pos_site_id
 _symmetry_equiv_pos_as_xyz
  1  'x, y, z'
loop_
 _atom_site_type_symbol
 _atom_site_label
 _atom_site_symmetry_multiplicity
 _atom_site_fract_x
 _atom_site_fract_y
 _atom_site_fract_z
 _atom_site_occupancy
  Eu  Eu0  1  0.25002275  0.57073180  0.92926697  1
  Eu  Eu1  1  0.42930966  0.07069308  0.74998789  1
  Eu  Eu2  1  0.74999949  0.42933155  0.07066888  1
  Eu  Eu3  1  0.92934735  0.24997625  0.57067470  1
  Eu  Eu4  1  0.57070424  0.92929556  0.24999064  1
  Eu  Eu5  1  0.07072580  0.75001738  0.42927826  1
  As  As0  1  0.84027917  0.84044065  0.84038715  1
  As  As1  1  0.65974125  0.65951376  0.65962872  1
  As  As2  1  0.34044695  0.34032326  0.34039629  1
  As  As3  1  0.15949631  0.15972855  0.15961635  1
  S  S0  1  0.22307943  0.94514031  0.38762109  1
  S  S1  1  0.72319779  0.88756271  0.44509727  1
  S  S2  1  0.42032773  0.42044725  0.42041575  1
  S  S3  1  0.27695634  0.11228906  0.55494276  1
  S  S4  1  0.92040192  0.92030644  0.92045349  1
  S  S5  1  0.05486102  0.61239320  0.77688111  1
  S  S6  1  0.57955198  0.57965740  0.57961851  1
  S  S7  1  0.11241787  0.55491271  0.27684777  1
  S  S8  1  0.44514820  0.72304218  0.88764803  1
  S  S9  1  0.77685673  0.05493473  0.61231552  1
  S  S10  1  0.61226444  0.77695901  0.05494999  1
  S  S11  1  0.07963121  0.07953569  0.07963910  1
  S  S12  1  0.88778184  0.44498654  0.72309545  1
  S  S13  1  0.38754565  0.22321063  0.94510001  1
  S  S14  1  0.55493584  0.27682207  0.11235818  1
  S  S15  1  0.94497004  0.38775022  0.22312113  1
loop_
_geom_bond_atom_site_label_1
_geom_bond_atom_site_label_2
_geom_bond_distance
_geom_bond_site_symmetry_2
Eu0 S13 2.926431 1_555
Eu0 S7 2.926865 1_556
Eu0 S8 3.036254 1_555
Eu0 S5 3.036978 1_555
Eu0 S4 3.127837 1_455
Eu0 S6 3.127888 1_555
Eu0 S14 3.413188 1_556
Eu0 S15 3.413730 1_456
Eu1 S9 2.926721 1_555
Eu1 S8 2.927359 1_545
Eu1 S3 3.035951 1_555
Eu1 S13 3.036982 1_555
Eu1 S11 3.128564 1_556
Eu1 S2 3.128599 1_555
Eu1 S10 3.412780 1_546
Eu1 S1 3.413202 1_545
Eu2 S12 2.927047 1_554
Eu2 S10 2.927400 1_555
Eu2 S15 3.036237 1_555
Eu2 S14 3.037022 1_555
Eu2 S11 3.128965 1_655
Eu2 S2 3.128984 1_555
Eu2 S8 3.412336 1_554
Eu2 S5 3.412768 1_654
Eu3 S15 2.927041 1_555
Eu3 S3 2.927356 1_655
Eu3 S12 3.036386 1_555
Eu3 S9 3.036938 1_555
Eu3 S4 3.129139 1_545
Eu3 S6 3.129178 1_555
Eu3 S0 3.412334 1_645
Eu3 S7 3.413381 1_655
Eu4 S14 2.926539 1_565
Eu4 S0 2.927203 1_555
Eu4 S10 3.035941 1_555
Eu4 S1 3.036953 1_555
Eu4 S4 3.128161 1_554
Eu4 S6 3.128273 1_555
Eu4 S3 3.412872 1_565
Eu4 S13 3.413438 1_564
Eu5 S1 2.926565 1_455
Eu5 S5 2.926846 1_555
Eu5 S0 3.036370 1_555
Eu5 S7 3.036579 1_555
Eu5 S2 3.127758 1_555
Eu5 S11 3.127811 1_565
Eu5 S9 3.412818 1_465
Eu5 S12 3.413326 1_455
As0 S10 2.175977 1_556
As0 S9 2.175981 1_565
As0 S5 2.176214 1_655
As0 S4 2.202263 1_555
As1 S12 2.175964 1_555
As1 S1 2.176060 1_555
As1 S8 2.176152 1_555
As1 S6 2.202272 1_555
As2 S14 2.176005 1_555
As2 S3 2.176110 1_555
As2 S7 2.176294 1_555
As2 S2 2.201981 1_555
As3 S15 2.175937 1_455
As3 S13 2.176139 1_554
As3 S0 2.176275 1_545
As3 S11 2.202082 1_555
