# generated using pymatgen
data_Ag2P2PbO7
_symmetry_space_group_name_H-M   'P 1'
_cell_length_a   5.50616287
_cell_length_b   7.10518108
_cell_length_c   10.42408392
_cell_angle_alpha   107.91683827
_cell_angle_beta   93.26549795
_cell_angle_gamma   111.31540062
_symmetry_Int_Tables_number   1
_chemical_formula_structural   Ag2P2PbO7
_chemical_formula_sum   'Ag4 P4 Pb2 O14'
_cell_volume   354.87826526
_cell_formula_units_Z   2
loop_
 _symmetry_equiv_pos_site_id
 _symmetry_equiv_pos_as_xyz
  1  'x, y, z'
loop_
 _atom_site_type_symbol
 _atom_site_label
 _atom_site_symmetry_multiplicity
 _atom_site_fract_x
 _atom_site_fract_y
 _atom_site_fract_z
 _atom_site_occupancy
  Ag  Ag0  1  0.66317300  0.89599800  0.19368200  1
  Ag  Ag1  1  0.90826300  0.22989700  0.97305100  1
  Ag  Ag2  1  0.09173700  0.77010300  0.02694900  1
  Ag  Ag3  1  0.33682700  0.10400200  0.80631800  1
  P  P0  1  0.49052300  0.36489100  0.16339900  1
  P  P1  1  0.50947700  0.63510900  0.83660100  1
  P  P2  1  0.72989700  0.84729600  0.63823000  1
  P  P3  1  0.27010300  0.15270400  0.36177000  1
  Pb  Pb0  1  0.85672500  0.36722100  0.63097500  1
  Pb  Pb1  1  0.14327500  0.63277900  0.36902500  1
  O  O0  1  0.78115100  0.08373000  0.72742700  1
  O  O1  1  0.69221700  0.83947400  0.95571900  1
  O  O2  1  0.02640700  0.20538600  0.34086600  1
  O  O3  1  0.21670200  0.54850200  0.85115200  1
  O  O4  1  0.21884900  0.91627000  0.27257300  1
  O  O5  1  0.61949600  0.45700800  0.80677100  1
  O  O6  1  0.38050400  0.54299200  0.19322900  1
  O  O7  1  0.49564800  0.69526200  0.69746600  1
  O  O8  1  0.50435200  0.30473800  0.30253400  1
  O  O9  1  0.61296600  0.79195700  0.48942600  1
  O  O10  1  0.38703400  0.20804300  0.51057400  1
  O  O11  1  0.97359300  0.79461400  0.65913400  1
  O  O12  1  0.78329800  0.45149800  0.14884800  1
  O  O13  1  0.30778300  0.16052600  0.04428100  1
loop_
_geom_bond_atom_site_label_1
_geom_bond_atom_site_label_2
_geom_bond_distance
_geom_bond_site_symmetry_2
Ag0 O2 2.359100 1_665
Ag0 O1 2.412243 1_554
Ag0 O6 2.422233 1_555
Ag0 O4 2.663647 1_555
Ag1 O12 2.338097 1_556
Ag1 O0 2.399050 1_555
Ag1 O1 2.532007 1_545
Ag1 O13 2.541819 1_656
Ag2 O3 2.338097 1_554
Ag2 O4 2.399050 1_555
Ag2 O13 2.532007 1_565
Ag2 O1 2.541819 1_454
Ag3 O11 2.359100 1_445
Ag3 O13 2.412243 1_556
Ag3 O5 2.422233 1_555
Ag3 O0 2.663647 1_555
O0 P2 1.559055 1_545
O0 Pb0 2.434256 1_555
O1 P1 1.532588 1_555
O2 P3 1.539521 1_555
O2 Pb1 2.780509 1_555
O3 P1 1.537703 1_555
O3 Pb0 2.581126 1_455
O4 P3 1.559055 1_565
O4 Pb1 2.434256 1_555
O5 P1 1.549731 1_555
O5 Pb0 2.372874 1_555
O6 P0 1.549731 1_555
O6 Pb1 2.372874 1_555
O7 P1 1.638435 1_555
O7 P2 1.643168 1_555
O8 P0 1.638435 1_555
O8 P3 1.643168 1_555
O9 P2 1.517270 1_555
O9 Pb1 2.484581 1_555
O10 P3 1.517270 1_555
O10 Pb0 2.484581 1_555
O11 P2 1.539521 1_555
O11 Pb0 2.780509 1_555
O12 P0 1.537703 1_555
O12 Pb1 2.581126 1_655
O13 P0 1.532588 1_555
