# generated using pymatgen
data_ReSe2
_symmetry_space_group_name_H-M   'P 1'
_cell_length_a   6.64418268
_cell_length_b   6.76599124
_cell_length_c   7.06690119
_cell_angle_alpha   91.85791565
_cell_angle_beta   104.38417448
_cell_angle_gamma   118.88734809
_symmetry_Int_Tables_number   1
_chemical_formula_structural   ReSe2
_chemical_formula_sum   'Re4 Se8'
_cell_volume   265.05201794
_cell_formula_units_Z   4
loop_
 _symmetry_equiv_pos_site_id
 _symmetry_equiv_pos_as_xyz
  1  'x, y, z'
loop_
 _atom_site_type_symbol
 _atom_site_label
 _atom_site_symmetry_multiplicity
 _atom_site_fract_x
 _atom_site_fract_y
 _atom_site_fract_z
 _atom_site_occupancy
  Re  Re0  1  0.06447089  0.31542087  0.49157537  1
  Re  Re1  1  0.93552911  0.68457913  0.50842463  1
  Re  Re2  1  0.48719798  0.29129632  0.49721114  1
  Re  Re3  1  0.51280202  0.70870368  0.50278886  1
  Se  Se0  1  0.25266702  0.38404364  0.22109028  1
  Se  Se1  1  0.74733298  0.61595636  0.77890972  1
  Se  Se2  1  0.72564104  0.34265556  0.25329271  1
  Se  Se3  1  0.27435896  0.65734444  0.74670729  1
  Se  Se4  1  0.22332635  0.10890753  0.71205903  1
  Se  Se5  1  0.77667365  0.89109247  0.28794097  1
  Se  Se6  1  0.75173963  0.13468918  0.68531994  1
  Se  Se7  1  0.24826037  0.86531082  0.31468006  1
loop_
_geom_bond_atom_site_label_1
_geom_bond_atom_site_label_2
_geom_bond_distance
_geom_bond_site_symmetry_2
Re0 Se3 2.431213 1_555
Re0 Se0 2.473267 1_555
Re0 Se4 2.498623 1_555
Re0 Se2 2.544619 1_455
Re0 Se6 2.598946 1_455
Re0 Se5 2.651548 1_445
Re1 Se2 2.431213 1_555
Re1 Se1 2.473267 1_555
Re1 Se5 2.498623 1_555
Re1 Se3 2.544619 1_655
Re1 Se7 2.598946 1_655
Re1 Se4 2.651548 1_665
Re2 Se1 2.472708 1_555
Re2 Se0 2.478522 1_555
Re2 Se4 2.501112 1_555
Re2 Se2 2.542771 1_555
Re2 Se6 2.590206 1_555
Re2 Se7 2.609974 1_545
Re3 Se0 2.472708 1_555
Re3 Se1 2.478522 1_555
Re3 Se5 2.501112 1_555
Re3 Se3 2.542771 1_555
Re3 Se7 2.590206 1_555
Re3 Se6 2.609974 1_565
