# generated using pymatgen
data_Sm2US5
_symmetry_space_group_name_H-M   'P 1'
_cell_length_a   7.46109200
_cell_length_b   7.99821000
_cell_length_c   11.87576300
_cell_angle_alpha   90.00000000
_cell_angle_beta   90.00000000
_cell_angle_gamma   90.00000000
_symmetry_Int_Tables_number   1
_chemical_formula_structural   Sm2US5
_chemical_formula_sum   'Sm8 U4 S20'
_cell_volume   708.69067748
_cell_formula_units_Z   4
loop_
 _symmetry_equiv_pos_site_id
 _symmetry_equiv_pos_as_xyz
  1  'x, y, z'
loop_
 _atom_site_type_symbol
 _atom_site_label
 _atom_site_symmetry_multiplicity
 _atom_site_fract_x
 _atom_site_fract_y
 _atom_site_fract_z
 _atom_site_occupancy
  Sm  Sm0  1  0.47881400  0.99889300  0.32208100  1
  Sm  Sm1  1  0.97881400  0.49889300  0.17791900  1
  Sm  Sm2  1  0.02118600  0.99889300  0.82208100  1
  Sm  Sm3  1  0.52118600  0.49889300  0.67791900  1
  Sm  Sm4  1  0.52118600  0.00110700  0.67791900  1
  Sm  Sm5  1  0.02118600  0.50110700  0.82208100  1
  Sm  Sm6  1  0.47881400  0.50110700  0.32208100  1
  Sm  Sm7  1  0.97881400  0.00110700  0.17791900  1
  U  U0  1  0.42765400  0.75000000  0.00914600  1
  U  U1  1  0.07234600  0.75000000  0.50914600  1
  U  U2  1  0.92765400  0.25000000  0.49085400  1
  U  U3  1  0.57234600  0.25000000  0.99085400  1
  S  S0  1  0.66084800  0.54311000  0.90278800  1
  S  S1  1  0.16084800  0.04311100  0.59721200  1
  S  S2  1  0.95563100  0.25000000  0.99994800  1
  S  S3  1  0.30167900  0.75000000  0.78527400  1
  S  S4  1  0.54436900  0.25000000  0.49994800  1
  S  S5  1  0.16084800  0.45689000  0.59721200  1
  S  S6  1  0.33915200  0.45689000  0.09721200  1
  S  S7  1  0.32833400  0.25000000  0.81399500  1
  S  S8  1  0.04436900  0.75000000  0.00005200  1
  S  S9  1  0.80167900  0.25000000  0.71472600  1
  S  S10  1  0.66084800  0.95689000  0.90278800  1
  S  S11  1  0.19832100  0.75000000  0.28527400  1
  S  S12  1  0.33915200  0.04311100  0.09721200  1
  S  S13  1  0.17166600  0.25000000  0.31399500  1
  S  S14  1  0.69832100  0.25000000  0.21472600  1
  S  S15  1  0.83915200  0.54311000  0.40278800  1
  S  S16  1  0.83915200  0.95689000  0.40278800  1
  S  S17  1  0.67166600  0.75000000  0.18600500  1
  S  S18  1  0.45563100  0.75000000  0.50005200  1
  S  S19  1  0.82833400  0.75000000  0.68600500  1
loop_
_geom_bond_atom_site_label_1
_geom_bond_atom_site_label_2
_geom_bond_distance
_geom_bond_site_symmetry_2
S0 U3 2.650628 1_555
S0 U0 2.713073 1_556
S0 Sm5 2.873955 1_655
S0 Sm3 2.888325 1_555
S1 U1 2.650635 1_545
S1 U2 2.713068 1_455
S1 Sm4 2.873955 1_555
S1 Sm2 2.888326 1_545
S2 U3 2.861763 1_555
S2 Sm7 2.908583 1_556
S2 Sm1 2.908583 1_556
S2 Sm5 2.955464 1_655
S2 Sm2 2.955464 1_645
S3 U0 2.819904 1_556
S3 Sm4 2.888146 1_565
S3 Sm3 2.888146 1_555
S3 Sm2 2.921248 1_555
S3 Sm5 2.921248 1_555
S4 U2 2.861763 1_555
S4 Sm4 2.908583 1_555
S4 Sm3 2.908583 1_555
S4 Sm6 2.955464 1_555
S4 Sm0 2.955464 1_545
S5 U1 2.650628 1_555
S5 U2 2.713073 1_455
S5 Sm3 2.873955 1_555
S5 Sm5 2.888325 1_555
S6 U0 2.650628 1_555
S6 U3 2.713073 1_554
S6 Sm1 2.873955 1_455
S6 Sm6 2.888325 1_555
S7 U3 2.779565 1_555
S7 Sm4 2.940196 1_555
S7 Sm3 2.940196 1_555
S7 Sm5 3.048708 1_555
S7 Sm2 3.048708 1_545
S8 U0 2.861763 1_555
S8 Sm2 2.908583 1_554
S8 Sm5 2.908583 1_554
S8 Sm7 2.955464 1_465
S8 Sm1 2.955464 1_455
S9 U2 2.819904 1_555
S9 Sm5 2.888146 1_655
S9 Sm2 2.888146 1_645
S9 Sm3 2.921248 1_555
S9 Sm4 2.921248 1_555
S10 U3 2.650628 1_565
S10 U0 2.713073 1_556
S10 Sm2 2.873955 1_655
S10 Sm4 2.888325 1_565
S11 U1 2.819904 1_555
S11 Sm7 2.888146 1_465
S11 Sm1 2.888146 1_455
S11 Sm0 2.921248 1_555
S11 Sm6 2.921248 1_555
S12 U0 2.650635 1_545
S12 U3 2.713068 1_554
S12 Sm7 2.873955 1_455
S12 Sm0 2.888326 1_545
S13 U2 2.779565 1_455
S13 Sm7 2.940196 1_455
S13 Sm1 2.940196 1_455
S13 Sm6 3.048708 1_555
S13 Sm0 3.048708 1_545
S14 U3 2.819904 1_554
S14 Sm6 2.888146 1_555
S14 Sm0 2.888146 1_545
S14 Sm1 2.921248 1_555
S14 Sm7 2.921248 1_555
S15 U2 2.650628 1_555
S15 U1 2.713073 1_655
S15 Sm6 2.873955 1_555
S15 Sm1 2.888325 1_555
S16 U2 2.650628 1_565
S16 U1 2.713073 1_655
S16 Sm0 2.873955 1_555
S16 Sm7 2.888325 1_565
S17 U0 2.779565 1_555
S17 Sm0 2.940196 1_555
S17 Sm6 2.940196 1_555
S17 Sm7 3.048708 1_565
S17 Sm1 3.048708 1_555
S18 U1 2.861763 1_555
S18 Sm0 2.908583 1_555
S18 Sm6 2.908583 1_555
S18 Sm4 2.955464 1_565
S18 Sm3 2.955464 1_555
S19 U1 2.779565 1_655
S19 Sm2 2.940196 1_655
S19 Sm5 2.940196 1_655
S19 Sm3 3.048708 1_555
S19 Sm4 3.048708 1_565
