# generated using pymatgen
data_V2Hg(P2O7)2
_symmetry_space_group_name_H-M   'P 1'
_cell_length_a   4.95188200
_cell_length_b   6.97298622
_cell_length_c   8.28905354
_cell_angle_alpha   92.88507706
_cell_angle_beta   94.02115381
_cell_angle_gamma   105.10991219
_symmetry_Int_Tables_number   1
_chemical_formula_structural   V2Hg(P2O7)2
_chemical_formula_sum   'V2 Hg1 P4 O14'
_cell_volume   274.94021473
_cell_formula_units_Z   1
loop_
 _symmetry_equiv_pos_site_id
 _symmetry_equiv_pos_as_xyz
  1  'x, y, z'
loop_
 _atom_site_type_symbol
 _atom_site_label
 _atom_site_symmetry_multiplicity
 _atom_site_fract_x
 _atom_site_fract_y
 _atom_site_fract_z
 _atom_site_occupancy
  V  V0  1  0.50000000  0.50000000  0.50000000  1
  V  V1  1  0.00000000  0.00000000  0.00000000  1
  Hg  Hg0  1  0.00000000  0.00000000  0.50000000  1
  P  P0  1  0.01349500  0.63663100  0.25692900  1
  P  P1  1  0.98650500  0.36336900  0.74307100  1
  P  P2  1  0.61808400  0.24019700  0.19525400  1
  P  P3  1  0.38191600  0.75980300  0.80474600  1
  O  O0  1  0.78022000  0.46552300  0.15319700  1
  O  O1  1  0.21978000  0.53447700  0.84680300  1
  O  O2  1  0.53432900  0.25787300  0.37110100  1
  O  O3  1  0.46567100  0.74212700  0.62889900  1
  O  O4  1  0.24476200  0.55030400  0.32300700  1
  O  O5  1  0.75523800  0.44969600  0.67699300  1
  O  O6  1  0.84891100  0.70011200  0.40195500  1
  O  O7  1  0.17297400  0.88780700  0.80922500  1
  O  O8  1  0.82702600  0.11219300  0.19077500  1
  O  O9  1  0.88912000  0.19166200  0.84522100  1
  O  O10  1  0.11088000  0.80833800  0.15477900  1
  O  O11  1  0.62615100  0.81392600  0.93301900  1
  O  O12  1  0.37384900  0.18607400  0.06698100  1
  O  O13  1  0.15108900  0.29988800  0.59804500  1
loop_
_geom_bond_atom_site_label_1
_geom_bond_atom_site_label_2
_geom_bond_distance
_geom_bond_site_symmetry_2
Hg0 O13 2.126265 1_555
Hg0 O6 2.126265 1_445
O0 P0 1.592529 1_655
O0 P2 1.634481 1_555
O1 P1 1.592529 1_455
O1 P3 1.634481 1_555
O2 P2 1.550861 1_555
O2 V0 2.003625 1_555
O3 P3 1.550861 1_555
O3 V0 2.003625 1_555
O4 P0 1.509459 1_555
O4 V0 1.973771 1_555
O5 P1 1.509459 1_555
O5 V0 1.973771 1_555
O6 P0 1.605366 1_655
O6 V0 2.155673 1_555
O7 P3 1.533651 1_555
O7 V1 2.064250 1_566
O8 P2 1.533651 1_555
O8 V1 2.064250 1_655
O9 P1 1.497116 1_555
O9 V1 2.046943 1_656
O10 P0 1.497116 1_555
O10 V1 2.046943 1_565
O11 P3 1.508958 1_555
O11 V1 1.987450 1_666
O12 P2 1.508958 1_555
O12 V1 1.987450 1_555
O13 P1 1.605366 1_455
O13 V0 2.155673 1_555
