# generated using pymatgen
data_CsRe(Cl2O)2
_symmetry_space_group_name_H-M   'P 1'
_cell_length_a   10.82445200
_cell_length_b   6.86098400
_cell_length_c   12.27787048
_cell_angle_alpha   89.10932222
_cell_angle_beta   90.00000000
_cell_angle_gamma   90.00000000
_symmetry_Int_Tables_number   1
_chemical_formula_structural   CsRe(Cl2O)2
_chemical_formula_sum   'Cs4 Re4 Cl16 O8'
_cell_volume   911.72296905
_cell_formula_units_Z   4
loop_
 _symmetry_equiv_pos_site_id
 _symmetry_equiv_pos_as_xyz
  1  'x, y, z'
loop_
 _atom_site_type_symbol
 _atom_site_label
 _atom_site_symmetry_multiplicity
 _atom_site_fract_x
 _atom_site_fract_y
 _atom_site_fract_z
 _atom_site_occupancy
  Cs  Cs0  1  0.11266600  0.81357500  0.64912900  1
  Cs  Cs1  1  0.61266600  0.18642500  0.85087100  1
  Cs  Cs2  1  0.88733400  0.18642500  0.35087100  1
  Cs  Cs3  1  0.38733400  0.81357500  0.14912900  1
  Re  Re0  1  0.19163700  0.32042500  0.94745500  1
  Re  Re1  1  0.30836300  0.32042500  0.44745500  1
  Re  Re2  1  0.69163700  0.67957500  0.55254500  1
  Re  Re3  1  0.80836300  0.67957500  0.05254500  1
  Cl  Cl0  1  0.81898400  0.53021800  0.68359500  1
  Cl  Cl1  1  0.10708900  0.12610100  0.08491200  1
  Cl  Cl2  1  0.88354400  0.68677700  0.43800100  1
  Cl  Cl3  1  0.89291100  0.87389900  0.91508800  1
  Cl  Cl4  1  0.31898400  0.46978200  0.81640500  1
  Cl  Cl5  1  0.21445500  0.00945400  0.38243900  1
  Cl  Cl6  1  0.61645600  0.68677700  0.93800100  1
  Cl  Cl7  1  0.38354400  0.31322300  0.06199900  1
  Cl  Cl8  1  0.60708900  0.87389900  0.41508800  1
  Cl  Cl9  1  0.68101600  0.53021800  0.18359500  1
  Cl  Cl10  1  0.11645600  0.31322300  0.56199900  1
  Cl  Cl11  1  0.39291100  0.12610100  0.58491200  1
  Cl  Cl12  1  0.28554500  0.00945400  0.88243900  1
  Cl  Cl13  1  0.78554500  0.99054600  0.61756100  1
  Cl  Cl14  1  0.18101600  0.46978200  0.31640500  1
  Cl  Cl15  1  0.71445500  0.99054600  0.11756100  1
  O  O0  1  0.34473500  0.53817400  0.50815200  1
  O  O1  1  0.84473500  0.46182600  0.99184800  1
  O  O2  1  0.15526500  0.53817400  0.00815200  1
  O  O3  1  0.42775600  0.28480100  0.35701800  1
  O  O4  1  0.07224400  0.28480100  0.85701800  1
  O  O5  1  0.57224400  0.71519900  0.64298200  1
  O  O6  1  0.65526500  0.46182600  0.49184800  1
  O  O7  1  0.92775600  0.71519900  0.14298200  1
loop_
_geom_bond_atom_site_label_1
_geom_bond_atom_site_label_2
_geom_bond_distance
_geom_bond_site_symmetry_2
Cs0 O0 3.602530 1_555
Cs1 O1 3.602530 1_555
Cs2 O6 3.602530 1_555
Cs3 O2 3.602530 1_555
Cl0 Re2 2.342629 1_555
Cl0 Cs0 3.746832 1_655
Cl0 Cs1 3.823445 1_555
Cl1 Re0 2.322378 1_554
Cl1 Cs3 3.790640 1_545
Cl1 Cs2 4.066271 1_455
Cl2 Re2 2.508634 1_555
Cl2 Cs2 3.575443 1_565
Cl2 Cs2 3.611802 1_555
Cl2 Cs0 3.701006 1_655
Cl3 Re3 2.322378 1_556
Cl3 Cs1 3.790640 1_565
Cl3 Cs0 4.066271 1_655
Cl4 Re0 2.342629 1_555
Cl4 Cs1 3.746832 1_555
Cl4 Cs0 3.823445 1_555
Cl5 Re1 2.505105 1_555
Cl5 Cs0 3.688483 1_545
Cl5 Cs3 3.692330 1_545
Cl5 Cs2 3.761366 1_455
Cl6 Re3 2.508634 1_556
Cl6 Cs1 3.575443 1_565
Cl6 Cs1 3.611802 1_555
Cl6 Cs3 3.701006 1_556
Cl7 Re0 2.508634 1_554
Cl7 Cs3 3.575443 1_545
Cl7 Cs3 3.611802 1_555
Cl7 Cs1 3.701006 1_554
Cl8 Re2 2.322378 1_555
Cl8 Cs2 3.790640 1_565
Cl8 Cs3 4.066271 1_555
Cl9 Re3 2.342629 1_555
Cl9 Cs3 3.746832 1_555
Cl9 Cs2 3.823445 1_555
Cl10 Re1 2.508634 1_555
Cl10 Cs0 3.575443 1_545
Cl10 Cs0 3.611802 1_555
Cl10 Cs2 3.701006 1_455
Cl11 Re1 2.322378 1_555
Cl11 Cs0 3.790640 1_545
Cl11 Cs1 4.066271 1_555
Cl12 Re0 2.505105 1_555
Cl12 Cs3 3.688483 1_546
Cl12 Cs0 3.692330 1_545
Cl12 Cs1 3.761366 1_555
Cl13 Re2 2.505105 1_555
Cl13 Cs2 3.688483 1_565
Cl13 Cs1 3.692330 1_565
Cl13 Cs0 3.761366 1_655
Cl14 Re1 2.342629 1_555
Cl14 Cs2 3.746832 1_455
Cl14 Cs3 3.823445 1_555
Cl15 Re3 2.505105 1_555
Cl15 Cs1 3.688483 1_564
Cl15 Cs2 3.692330 1_565
Cl15 Cs3 3.761366 1_555
O0 Re1 1.725381 1_555
O1 Re3 1.725381 1_556
O2 Re0 1.725381 1_554
O3 Re1 1.723749 1_555
O4 Re0 1.723749 1_555
O5 Re2 1.723749 1_555
O6 Re2 1.725381 1_555
O7 Re3 1.723749 1_555
