# generated using pymatgen
data_VCdBiO5
_symmetry_space_group_name_H-M   'P 1'
_cell_length_a   5.58617400
_cell_length_b   11.88408000
_cell_length_c   14.49933800
_cell_angle_alpha   90.00000000
_cell_angle_beta   90.00000000
_cell_angle_gamma   90.00000000
_symmetry_Int_Tables_number   1
_chemical_formula_structural   VCdBiO5
_chemical_formula_sum   'V8 Cd8 Bi8 O40'
_cell_volume   962.56086341
_cell_formula_units_Z   8
loop_
 _symmetry_equiv_pos_site_id
 _symmetry_equiv_pos_as_xyz
  1  'x, y, z'
loop_
 _atom_site_type_symbol
 _atom_site_label
 _atom_site_symmetry_multiplicity
 _atom_site_fract_x
 _atom_site_fract_y
 _atom_site_fract_z
 _atom_site_occupancy
  V  V0  1  0.72656400  0.21258300  0.34311400  1
  V  V1  1  0.29463000  0.06437000  0.65410900  1
  V  V2  1  0.22656400  0.71258300  0.15688600  1
  V  V3  1  0.20537000  0.06437000  0.15410900  1
  V  V4  1  0.77343600  0.21258300  0.84311400  1
  V  V5  1  0.27343600  0.71258300  0.65688600  1
  V  V6  1  0.79463000  0.56437000  0.84589100  1
  V  V7  1  0.70537000  0.56437000  0.34589100  1
  Cd  Cd0  1  0.76042100  0.88810900  0.54378100  1
  Cd  Cd1  1  0.73957900  0.88810900  0.04378100  1
  Cd  Cd2  1  0.78519900  0.22867400  0.58712900  1
  Cd  Cd3  1  0.71480100  0.22867400  0.08712900  1
  Cd  Cd4  1  0.23957900  0.38810900  0.45621900  1
  Cd  Cd5  1  0.28519900  0.72867400  0.91287100  1
  Cd  Cd6  1  0.26042100  0.38810900  0.95621900  1
  Cd  Cd7  1  0.21480100  0.72867400  0.41287100  1
  Bi  Bi0  1  0.22838200  0.37848700  0.19834100  1
  Bi  Bi1  1  0.75583000  0.52993600  0.08720200  1
  Bi  Bi2  1  0.25583000  0.02993600  0.41279800  1
  Bi  Bi3  1  0.24417000  0.02993600  0.91279800  1
  Bi  Bi4  1  0.74417000  0.52993600  0.58720200  1
  Bi  Bi5  1  0.27161800  0.37848700  0.69834100  1
  Bi  Bi6  1  0.72838200  0.87848700  0.30165900  1
  Bi  Bi7  1  0.77161800  0.87848700  0.80165900  1
  O  O0  1  0.51776100  0.37712000  0.57892400  1
  O  O1  1  0.93002000  0.21717900  0.43568000  1
  O  O2  1  0.08936400  0.98137900  0.59915700  1
  O  O3  1  0.84009300  0.69793300  0.34187500  1
  O  O4  1  0.56998000  0.21717900  0.93568000  1
  O  O5  1  0.96848300  0.79136400  0.13743600  1
  O  O6  1  0.85882700  0.51273900  0.73480100  1
  O  O7  1  0.63343000  0.25322100  0.74197600  1
  O  O8  1  0.34009300  0.19793300  0.15812500  1
  O  O9  1  0.53151700  0.79136400  0.63743600  1
  O  O10  1  0.01776100  0.87712000  0.92107600  1
  O  O11  1  0.44797100  0.56743600  0.41727600  1
  O  O12  1  0.03151700  0.29136400  0.86256400  1
  O  O13  1  0.06998000  0.71717900  0.56432000  1
  O  O14  1  0.36657000  0.75322100  0.25802400  1
  O  O15  1  0.98223900  0.37712000  0.07892400  1
  O  O16  1  0.91063600  0.48137900  0.40084300  1
  O  O17  1  0.58936400  0.48137900  0.90084300  1
  O  O18  1  0.64117300  0.51273900  0.23480100  1
  O  O19  1  0.41063600  0.98137900  0.09915700  1
  O  O20  1  0.55202900  0.06743600  0.58272400  1
  O  O21  1  0.86657000  0.25322100  0.24197600  1
  O  O22  1  0.13343000  0.75322100  0.75802400  1
  O  O23  1  0.46848300  0.29136400  0.36256400  1
  O  O24  1  0.43002000  0.71717900  0.06432000  1
  O  O25  1  0.87532000  0.07160600  0.83398200  1
  O  O26  1  0.37532000  0.57160600  0.66601800  1
  O  O27  1  0.14117300  0.01273900  0.26519900  1
  O  O28  1  0.01831700  0.39676300  0.58475300  1
  O  O29  1  0.15990700  0.19793300  0.65812500  1
  O  O30  1  0.05202900  0.56743600  0.91727600  1
  O  O31  1  0.48223900  0.87712000  0.42107600  1
  O  O32  1  0.65990700  0.69793300  0.84187500  1
  O  O33  1  0.94797100  0.06743600  0.08272400  1
  O  O34  1  0.62468000  0.07160600  0.33398200  1
  O  O35  1  0.98168300  0.89676300  0.41524700  1
  O  O36  1  0.51831700  0.89676300  0.91524700  1
  O  O37  1  0.12468000  0.57160600  0.16601800  1
  O  O38  1  0.48168300  0.39676300  0.08475300  1
  O  O39  1  0.35882700  0.01273900  0.76519900  1
loop_
_geom_bond_atom_site_label_1
_geom_bond_atom_site_label_2
_geom_bond_distance
_geom_bond_site_symmetry_2
Cd0 O9 2.191101 1_555
Cd0 O35 2.238641 1_555
Cd0 O2 2.291247 1_655
Cd0 O31 2.365847 1_555
Cd0 O20 2.493137 1_565
Cd0 O13 2.684280 1_655
Cd1 O5 2.191101 1_555
Cd1 O36 2.238641 1_554
Cd1 O19 2.291247 1_555
Cd1 O10 2.365847 1_654
Cd1 O33 2.493137 1_565
Cd1 O24 2.684280 1_555
Cd2 O0 2.314792 1_555
Cd2 O20 2.317833 1_555
Cd2 O1 2.344175 1_555
Cd2 O29 2.361046 1_655
Cd2 O28 2.384816 1_655
Cd2 O7 2.417583 1_555
Cd3 O15 2.314792 1_555
Cd3 O33 2.317833 1_555
Cd3 O4 2.344175 1_554
Cd3 O8 2.361046 1_555
Cd3 O38 2.384816 1_555
Cd3 O21 2.417583 1_555
Cd4 O23 2.191101 1_555
Cd4 O28 2.238641 1_555
Cd4 O16 2.291247 1_455
Cd4 O0 2.365847 1_555
Cd4 O11 2.493137 1_555
Cd4 O1 2.684280 1_455
Cd5 O10 2.314792 1_555
Cd5 O30 2.317833 1_555
Cd5 O24 2.344175 1_556
Cd5 O32 2.361046 1_555
Cd5 O36 2.384816 1_555
Cd5 O22 2.417583 1_555
Cd6 O12 2.191101 1_555
Cd6 O38 2.238641 1_556
Cd6 O17 2.291247 1_555
Cd6 O15 2.365847 1_456
Cd6 O30 2.493137 1_555
Cd6 O4 2.684280 1_555
Cd7 O31 2.314792 1_555
Cd7 O11 2.317833 1_555
Cd7 O13 2.344175 1_555
Cd7 O3 2.361046 1_455
Cd7 O35 2.384816 1_455
Cd7 O14 2.417583 1_555
Bi0 O38 2.182154 1_555
Bi0 O15 2.211077 1_455
Bi0 O8 2.309446 1_555
Bi0 O37 2.412974 1_555
Bi0 O21 2.588716 1_455
Bi1 O38 2.202565 1_555
Bi1 O15 2.216340 1_555
Bi1 O18 2.243207 1_555
Bi1 O37 2.407628 1_655
Bi2 O35 2.202565 1_445
Bi2 O31 2.216340 1_545
Bi2 O27 2.243207 1_555
Bi2 O34 2.407628 1_555
Bi3 O36 2.202565 1_545
Bi3 O10 2.216340 1_545
Bi3 O39 2.243207 1_555
Bi3 O25 2.407628 1_455
Bi4 O28 2.202565 1_655
Bi4 O0 2.216340 1_555
Bi4 O6 2.243207 1_555
Bi4 O26 2.407628 1_555
Bi5 O28 2.182154 1_555
Bi5 O0 2.211077 1_555
Bi5 O29 2.309446 1_555
Bi5 O26 2.412974 1_555
Bi5 O7 2.588716 1_555
Bi6 O35 2.182154 1_555
Bi6 O31 2.211077 1_555
Bi6 O3 2.309446 1_555
Bi6 O34 2.412974 1_565
Bi6 O14 2.588716 1_555
Bi7 O36 2.182154 1_555
Bi7 O10 2.211077 1_655
Bi7 O32 2.309446 1_555
Bi7 O25 2.412974 1_565
Bi7 O22 2.588716 1_655
O1 V0 1.759563 1_555
O2 V1 1.709497 1_565
O3 V7 1.757616 1_555
O4 V4 1.759563 1_555
O5 V2 1.741991 1_655
O6 V6 1.760554 1_555
O7 V4 1.730706 1_555
O8 V3 1.757616 1_555
O9 V5 1.741991 1_555
O11 V7 1.772036 1_555
O12 V4 1.741991 1_455
O13 V5 1.759563 1_555
O14 V2 1.730706 1_555
O16 V7 1.709497 1_555
O17 V6 1.709497 1_555
O18 V7 1.760554 1_555
O19 V3 1.709497 1_565
O20 V1 1.772036 1_555
O21 V0 1.730706 1_555
O22 V5 1.730706 1_555
O23 V0 1.741991 1_555
O24 V2 1.759563 1_555
O25 V4 1.774362 1_555
O26 V5 1.774362 1_555
O27 V3 1.760554 1_555
O29 V1 1.757616 1_555
O30 V6 1.772036 1_455
O32 V6 1.757616 1_555
O33 V3 1.772036 1_655
O34 V0 1.774362 1_555
O37 V2 1.774362 1_555
O39 V1 1.760554 1_555
