# generated using pymatgen
data_K2MgB12(H2O3)10
_symmetry_space_group_name_H-M   'P 1'
_cell_length_a   7.61653000
_cell_length_b   7.87690484
_cell_length_c   10.93971228
_cell_angle_alpha   108.55215015
_cell_angle_beta   94.56274165
_cell_angle_gamma   91.82987025
_symmetry_Int_Tables_number   1
_chemical_formula_structural   K2MgB12(H2O3)10
_chemical_formula_sum   'K2 Mg1 B12 H20 O30'
_cell_volume   619.10749787
_cell_formula_units_Z   1
loop_
 _symmetry_equiv_pos_site_id
 _symmetry_equiv_pos_as_xyz
  1  'x, y, z'
loop_
 _atom_site_type_symbol
 _atom_site_label
 _atom_site_symmetry_multiplicity
 _atom_site_fract_x
 _atom_site_fract_y
 _atom_site_fract_z
 _atom_site_occupancy
  K  K0  1  0.73686000  0.36661500  0.40212500  1
  K  K1  1  0.26314000  0.63338500  0.59787500  1
  Mg  Mg0  1  0.00000000  0.00000000  0.00000000  1
  B  B0  1  0.35755400  0.15391800  0.44377100  1
  B  B1  1  0.64244600  0.84608200  0.55622900  1
  B  B2  1  0.45949900  0.75894200  0.04410400  1
  B  B3  1  0.54050100  0.24105800  0.95589600  1
  B  B4  1  0.33255500  0.01532600  0.20520900  1
  B  B5  1  0.66744500  0.98467400  0.79479100  1
  B  B6  1  0.16679200  0.69954200  0.11559900  1
  B  B7  1  0.83320800  0.30045800  0.88440100  1
  B  B8  1  0.11494900  0.56783300  0.29216400  1
  B  B9  1  0.88505100  0.43216700  0.70783600  1
  B  B10  1  0.12987600  0.89519900  0.35325700  1
  B  B11  1  0.87012400  0.10480100  0.64674300  1
  H  H0  1  0.39647200  0.30762300  0.63230800  1
  H  H1  1  0.60352800  0.69237700  0.36769200  1
  H  H2  1  0.30248600  0.97011100  0.87074100  1
  H  H3  1  0.69751400  0.02988900  0.12925900  1
  H  H4  1  0.12114700  0.05150900  0.59809700  1
  H  H5  1  0.87885300  0.94849100  0.40190300  1
  H  H6  1  0.28394700  0.46576500  0.85929900  1
  H  H7  1  0.71605300  0.53423500  0.14070100  1
  H  H8  1  0.02071800  0.35802700  0.03915100  1
  H  H9  1  0.97928200  0.64197300  0.96084900  1
  H  H10  1  0.13057900  0.97676800  0.78200600  1
  H  H11  1  0.86942100  0.02323200  0.21799400  1
  H  H12  1  0.19297800  0.28487200  0.76163700  1
  H  H13  1  0.80702200  0.71512800  0.23836300  1
  H  H14  1  0.28491200  0.18763500  0.10334000  1
  H  H15  1  0.71508800  0.81236500  0.89666000  1
  H  H16  1  0.12493800  0.30485500  0.26353400  1
  H  H17  1  0.87506200  0.69514500  0.73646600  1
  H  H18  1  0.38698900  0.42983300  0.05687400  1
  H  H19  1  0.61301100  0.57016700  0.94312600  1
  O  O0  1  0.21004800  0.11435400  0.14194900  1
  O  O1  1  0.78995200  0.88564600  0.85805100  1
  O  O2  1  0.41935300  0.13382000  0.32579700  1
  O  O3  1  0.58064700  0.86618000  0.67420300  1
  O  O4  1  0.22456100  0.04150200  0.45872500  1
  O  O5  1  0.77543900  0.95849800  0.54127500  1
  O  O6  1  0.10124200  0.41765500  0.33131100  1
  O  O7  1  0.89875800  0.58234500  0.66868900  1
  O  O8  1  0.11085700  0.55307100  0.16239800  1
  O  O9  1  0.88914300  0.44692900  0.83760200  1
  O  O10  1  0.13366500  0.73058800  0.38746100  1
  O  O11  1  0.86633500  0.26941200  0.61253900  1
  O  O12  1  0.02940400  0.74787500  0.03372200  1
  O  O13  1  0.97059600  0.25212500  0.96627800  1
  O  O14  1  0.56264700  0.70598700  0.45367300  1
  O  O15  1  0.43735300  0.29401300  0.54632700  1
  O  O16  1  0.82260000  0.07543500  0.14952700  1
  O  O17  1  0.17740000  0.92456500  0.85047300  1
  O  O18  1  0.46664800  0.93511000  0.11802400  1
  O  O19  1  0.53335200  0.06489000  0.88197600  1
  O  O20  1  0.40641500  0.29995300  0.03488000  1
  O  O21  1  0.59358500  0.70004700  0.96512000  1
  O  O22  1  0.22158600  0.86683800  0.22910300  1
  O  O23  1  0.77841400  0.13316200  0.77089700  1
  O  O24  1  0.72181900  0.61402600  0.23066000  1
  O  O25  1  0.27818100  0.38597400  0.76934000  1
  O  O26  1  0.32435600  0.63809700  0.04386400  1
  O  O27  1  0.67564400  0.36190300  0.95613600  1
  O  O28  1  0.05458400  0.06560100  0.67502500  1
  O  O29  1  0.94541600  0.93439900  0.32497500  1
loop_
_geom_bond_atom_site_label_1
_geom_bond_atom_site_label_2
_geom_bond_distance
_geom_bond_site_symmetry_2
K0 O11 2.768735 1_555
K0 O2 2.886016 1_555
K0 O14 2.934449 1_555
K0 O6 2.988847 1_655
K0 O7 3.008779 1_555
K0 O15 3.013776 1_555
K0 O24 3.104168 1_555
K0 O16 3.110115 1_555
K1 O10 2.768735 1_555
K1 O3 2.886016 1_555
K1 O15 2.934449 1_555
K1 O7 2.988847 1_455
K1 O6 3.008779 1_555
K1 O14 3.013776 1_555
K1 O25 3.104168 1_555
K1 O17 3.110115 1_555
Mg0 O1 2.098785 1_444
Mg0 O0 2.098785 1_555
Mg0 O13 2.147503 1_454
Mg0 O12 2.147503 1_545
Mg0 O16 2.153820 1_455
Mg0 O17 2.153820 1_544
B0 O2 1.372466 1_555
B0 O4 1.377743 1_555
B0 O15 1.380846 1_555
B1 O3 1.372466 1_555
B1 O5 1.377743 1_555
B1 O14 1.380846 1_555
B2 O18 1.362573 1_555
B2 O26 1.378767 1_555
B2 O21 1.385781 1_554
B3 O19 1.362573 1_555
B3 O27 1.378767 1_555
B3 O20 1.385781 1_556
B4 O2 1.444586 1_555
B4 O18 1.471307 1_545
B4 O0 1.498422 1_555
B4 O22 1.522261 1_545
B5 O3 1.444586 1_555
B5 O19 1.471307 1_565
B5 O1 1.498422 1_555
B5 O23 1.522261 1_565
B6 O12 1.461352 1_555
B6 O8 1.467619 1_555
B6 O26 1.495179 1_555
B6 O22 1.514506 1_555
B7 O13 1.461352 1_555
B7 O9 1.467619 1_555
B7 O27 1.495179 1_555
B7 O23 1.514506 1_555
B8 O10 1.365621 1_555
B8 O6 1.383922 1_555
B8 O8 1.384721 1_555
B9 O11 1.365621 1_555
B9 O7 1.383922 1_555
B9 O9 1.384721 1_555
B10 O10 1.459961 1_555
B10 O4 1.465543 1_565
B10 O29 1.477930 1_455
B10 O22 1.533098 1_555
B11 O11 1.459961 1_555
B11 O5 1.465543 1_545
B11 O28 1.477930 1_655
B11 O23 1.533098 1_555
H0 O15 0.988812 1_555
H0 K1 2.911726 1_555
H1 O14 0.988812 1_555
H1 K0 2.911726 1_555
H2 O17 0.989694 1_555
H3 O16 0.989694 1_555
H4 O28 0.994797 1_555
H5 O29 0.994797 1_555
H6 O25 0.981438 1_555
H7 O24 0.981438 1_555
H8 O13 0.992575 1_454
H9 O12 0.992575 1_656
H10 O17 1.010013 1_555
H10 O28 1.622821 1_565
H10 K1 3.069833 1_555
H11 O16 1.010013 1_555
H11 O29 1.622821 1_545
H11 K0 3.069833 1_555
H12 O25 0.988957 1_555
H13 O24 0.988957 1_555
H14 O0 1.004570 1_555
H14 O20 1.636968 1_555
H15 O1 1.004570 1_555
H15 O21 1.636968 1_555
H16 O6 0.992024 1_555
H17 O7 0.992024 1_555
H18 O20 0.992529 1_555
H19 O21 0.992529 1_555
