# generated using pymatgen
data_Rb2MnF6
_symmetry_space_group_name_H-M   'P 1'
_cell_length_a   5.88600578
_cell_length_b   5.88600919
_cell_length_c   9.56659595
_cell_angle_alpha   90.00009084
_cell_angle_beta   89.99989664
_cell_angle_gamma   120.00014301
_symmetry_Int_Tables_number   1
_chemical_formula_structural   Rb2MnF6
_chemical_formula_sum   'Rb4 Mn2 F12'
_cell_volume   287.03116740
_cell_formula_units_Z   2
loop_
 _symmetry_equiv_pos_site_id
 _symmetry_equiv_pos_as_xyz
  1  'x, y, z'
loop_
 _atom_site_type_symbol
 _atom_site_label
 _atom_site_symmetry_multiplicity
 _atom_site_fract_x
 _atom_site_fract_y
 _atom_site_fract_z
 _atom_site_occupancy
  Rb  Rb0  1  0.66666680  0.33333255  0.37436502  1
  Rb  Rb1  1  0.33333337  0.66666756  0.87437990  1
  Rb  Rb2  1  0.00000009  0.99999969  0.59955148  1
  Rb  Rb3  1  0.00000142  0.00000060  0.09973246  1
  Mn  Mn0  1  0.33333334  0.66666657  0.25619960  1
  Mn  Mn1  1  0.66666700  0.33333271  0.75629057  1
  F  F0  1  0.52215104  0.47784925  0.64509591  1
  F  F1  1  0.04423133  0.52211514  0.14506851  1
  F  F2  1  0.47788472  0.95576832  0.14506848  1
  F  F3  1  0.52214857  0.04429733  0.64509642  1
  F  F4  1  0.95570277  0.47785131  0.64509663  1
  F  F5  1  0.47788352  0.52211687  0.14506786  1
  F  F6  1  0.18488107  0.81511798  0.36148860  1
  F  F7  1  0.36977211  0.18489057  0.86150522  1
  F  F8  1  0.81510948  0.63022732  0.86150517  1
  F  F9  1  0.18488434  0.36976382  0.36148884  1
  F  F10  1  0.63023613  0.81511621  0.36148877  1
  F  F11  1  0.81511490  0.18488420  0.86150356  1
loop_
_geom_bond_atom_site_label_1
_geom_bond_atom_site_label_2
_geom_bond_distance
_geom_bond_site_symmetry_2
F0 Mn1 1.817213 1_555
F0 Rb1 2.918358 1_555
F0 Rb0 2.979703 1_555
F0 Rb2 2.983632 1_655
F0 Rb2 2.983635 1_545
F1 Mn0 1.817141 1_555
F1 Rb0 2.918205 1_455
F1 Rb1 2.979526 1_554
F1 Rb3 2.983319 1_555
F1 Rb3 2.983326 1_565
F2 Mn0 1.817141 1_555
F2 Rb0 2.918206 1_565
F2 Rb1 2.979524 1_554
F2 Rb3 2.983320 1_565
F2 Rb3 2.983324 1_665
F3 Mn1 1.817218 1_555
F3 Rb1 2.918335 1_545
F3 Rb0 2.979716 1_555
F3 Rb2 2.983636 1_545
F3 Rb2 2.983640 1_645
F4 Mn1 1.817217 1_555
F4 Rb1 2.918336 1_655
F4 Rb0 2.979720 1_555
F4 Rb2 2.983639 1_655
F4 Rb2 2.983641 1_645
F5 Mn0 1.817136 1_555
F5 Rb0 2.918228 1_555
F5 Rb1 2.979523 1_554
F5 Rb3 2.983312 1_555
F5 Rb3 2.983321 1_665
F6 Mn0 1.817989 1_555
F6 Rb0 2.951421 1_455
F6 Rb0 2.951423 1_565
F6 Rb2 2.956247 1_555
F6 Rb3 3.134203 1_565
F7 Mn1 1.817555 1_555
F7 Rb1 2.951410 1_555
F7 Rb1 2.951452 1_545
F7 Rb3 2.957483 1_556
F7 Rb2 3.135740 1_545
F8 Mn1 1.817555 1_555
F8 Rb1 2.951408 1_555
F8 Rb1 2.951452 1_655
F8 Rb3 2.957493 1_666
F8 Rb2 3.135741 1_655
F9 Mn0 1.817986 1_555
F9 Rb0 2.951417 1_555
F9 Rb0 2.951438 1_455
F9 Rb2 2.956252 1_545
F9 Rb3 3.134202 1_555
F10 Mn0 1.817986 1_555
F10 Rb0 2.951424 1_555
F10 Rb0 2.951435 1_565
F10 Rb2 2.956251 1_655
F10 Rb3 3.134206 1_665
F11 Mn1 1.817559 1_555
F11 Rb1 2.951418 1_545
F11 Rb1 2.951429 1_655
F11 Rb3 2.957500 1_656
F11 Rb2 3.135718 1_645
