# generated using pymatgen
data_VINCl3
_symmetry_space_group_name_H-M   'P 1'
_cell_length_a   6.08440321
_cell_length_b   7.70580250
_cell_length_c   8.58777712
_cell_angle_alpha   63.58328200
_cell_angle_beta   85.98072402
_cell_angle_gamma   72.21882080
_symmetry_Int_Tables_number   1
_chemical_formula_structural   VINCl3
_chemical_formula_sum   'V2 I2 N2 Cl6'
_cell_volume   342.34835244
_cell_formula_units_Z   2
loop_
 _symmetry_equiv_pos_site_id
 _symmetry_equiv_pos_as_xyz
  1  'x, y, z'
loop_
 _atom_site_type_symbol
 _atom_site_label
 _atom_site_symmetry_multiplicity
 _atom_site_fract_x
 _atom_site_fract_y
 _atom_site_fract_z
 _atom_site_occupancy
  V  V0  1  0.74866800  0.52083700  0.85588800  1
  V  V1  1  0.25133200  0.47916300  0.14411200  1
  I  I0  1  0.71352800  0.18123700  0.68551100  1
  I  I1  1  0.28647200  0.81876300  0.31448900  1
  N  N0  1  0.70887800  0.39730100  0.75129600  1
  N  N1  1  0.29112200  0.60269900  0.24870400  1
  Cl  Cl0  1  0.86891600  0.66216800  0.06760600  1
  Cl  Cl1  1  0.77441200  0.80882300  0.62549500  1
  Cl  Cl2  1  0.13108400  0.33783200  0.93239400  1
  Cl  Cl3  1  0.64463900  0.28621500  0.13153100  1
  Cl  Cl4  1  0.22558800  0.19117700  0.37450500  1
  Cl  Cl5  1  0.35536100  0.71378500  0.86846900  1
loop_
_geom_bond_atom_site_label_1
_geom_bond_atom_site_label_2
_geom_bond_distance
_geom_bond_site_symmetry_2
I0 N0 1.974322 1_555
I1 N1 1.974322 1_555
N0 V0 1.644279 1_555
N1 V1 1.644279 1_555
Cl0 V1 2.284742 1_655
Cl0 V0 2.731705 1_554
Cl1 V0 2.264052 1_555
Cl1 I0 3.046038 1_565
Cl2 V0 2.284742 1_455
Cl2 V1 2.731705 1_556
Cl3 V1 2.425390 1_555
Cl3 V0 2.440000 1_554
Cl4 V1 2.264052 1_555
Cl4 I1 3.046038 1_545
Cl5 V0 2.425390 1_555
Cl5 V1 2.440000 1_556
