# generated using pymatgen
data_KBaYSi2O7
_symmetry_space_group_name_H-M   'P 1'
_cell_length_a   5.78733300
_cell_length_b   9.88554100
_cell_length_c   14.40485704
_cell_angle_alpha   63.00460349
_cell_angle_beta   90.00000000
_cell_angle_gamma   90.00000000
_symmetry_Int_Tables_number   1
_chemical_formula_structural   KBaYSi2O7
_chemical_formula_sum   'K4 Ba4 Y4 Si8 O28'
_cell_volume   734.32198025
_cell_formula_units_Z   4
loop_
 _symmetry_equiv_pos_site_id
 _symmetry_equiv_pos_as_xyz
  1  'x, y, z'
loop_
 _atom_site_type_symbol
 _atom_site_label
 _atom_site_symmetry_multiplicity
 _atom_site_fract_x
 _atom_site_fract_y
 _atom_site_fract_z
 _atom_site_occupancy
  K  K0  1  0.76386200  0.00650100  0.36169400  1
  K  K1  1  0.26386200  0.99349900  0.13830600  1
  K  K2  1  0.73613800  0.00650100  0.86169400  1
  K  K3  1  0.23613800  0.99349900  0.63830600  1
  Ba  Ba0  1  0.26901400  0.53485000  0.32830700  1
  Ba  Ba1  1  0.23098600  0.53485000  0.82830700  1
  Ba  Ba2  1  0.73098600  0.46515000  0.67169300  1
  Ba  Ba3  1  0.76901400  0.46515000  0.17169300  1
  Y  Y0  1  0.24048000  0.73948200  0.02119300  1
  Y  Y1  1  0.75952000  0.26051800  0.97880700  1
  Y  Y2  1  0.25952000  0.73948200  0.52119300  1
  Y  Y3  1  0.74048000  0.26051800  0.47880700  1
  Si  Si0  1  0.22834100  0.32648000  0.62138100  1
  Si  Si1  1  0.74496900  0.82889200  0.64609300  1
  Si  Si2  1  0.25503100  0.17110800  0.35390700  1
  Si  Si3  1  0.75503100  0.82889200  0.14609300  1
  Si  Si4  1  0.77165900  0.67352000  0.37861900  1
  Si  Si5  1  0.72834100  0.67352000  0.87861900  1
  Si  Si6  1  0.24496900  0.17110800  0.85390700  1
  Si  Si7  1  0.27165900  0.32648000  0.12138100  1
  O  O0  1  0.99930200  0.25813200  0.84913200  1
  O  O1  1  0.24231000  0.48035300  0.63797800  1
  O  O2  1  0.46499000  0.70110600  0.90789700  1
  O  O3  1  0.76027400  0.00878600  0.06452700  1
  O  O4  1  0.74231000  0.51964700  0.86202200  1
  O  O5  1  0.53501000  0.29889400  0.09210300  1
  O  O6  1  0.50069800  0.25813200  0.34913200  1
  O  O7  1  0.79689200  0.82185200  0.76365200  1
  O  O8  1  0.58052200  0.67675900  0.46059800  1
  O  O9  1  0.26027400  0.99121400  0.43547300  1
  O  O10  1  0.70310800  0.82185200  0.26365200  1
  O  O11  1  0.49930200  0.74186800  0.65086800  1
  O  O12  1  0.29689200  0.17814800  0.73634800  1
  O  O13  1  0.08052200  0.32324100  0.03940200  1
  O  O14  1  0.46155400  0.26352900  0.87307400  1
  O  O15  1  0.96155400  0.73647100  0.62692600  1
  O  O16  1  0.03501000  0.70110600  0.40789700  1
  O  O17  1  0.96499000  0.29889400  0.59210300  1
  O  O18  1  0.91947800  0.67675900  0.96059800  1
  O  O19  1  0.53844600  0.73647100  0.12692600  1
  O  O20  1  0.20310800  0.17814800  0.23634800  1
  O  O21  1  0.03844600  0.26352900  0.37307400  1
  O  O22  1  0.00069800  0.74186800  0.15086800  1
  O  O23  1  0.41947800  0.32324100  0.53940200  1
  O  O24  1  0.25769000  0.48035300  0.13797800  1
  O  O25  1  0.75769000  0.51964700  0.36202200  1
  O  O26  1  0.73972600  0.00878600  0.56452700  1
  O  O27  1  0.23972600  0.99121400  0.93547300  1
loop_
_geom_bond_atom_site_label_1
_geom_bond_atom_site_label_2
_geom_bond_distance
_geom_bond_site_symmetry_2
K0 O10 2.791131 1_545
K0 O6 2.851559 1_555
K0 O26 2.935428 1_555
K0 O9 3.043039 1_645
K0 O21 3.063698 1_655
K0 O9 3.082278 1_545
K0 O8 3.092740 1_545
K0 O20 3.133695 1_655
K0 O16 3.193061 1_645
K1 O20 2.791131 1_565
K1 O22 2.851559 1_555
K1 O27 2.935428 1_554
K1 O3 3.043039 1_565
K1 O19 3.063698 1_555
K1 O3 3.082278 1_465
K1 O13 3.092740 1_565
K1 O10 3.133695 1_555
K1 O5 3.193061 1_565
K2 O7 2.791131 1_545
K2 O0 2.851559 1_555
K2 O3 2.935428 1_556
K2 O27 3.043039 1_545
K2 O14 3.063698 1_555
K2 O27 3.082278 1_645
K2 O18 3.092740 1_545
K2 O12 3.133695 1_555
K2 O2 3.193061 1_545
K3 O12 2.791131 1_565
K3 O11 2.851559 1_555
K3 O9 2.935428 1_555
K3 O26 3.043039 1_465
K3 O15 3.063698 1_455
K3 O26 3.082278 1_565
K3 O23 3.092740 1_565
K3 O7 3.133695 1_455
K3 O17 3.193061 1_465
Ba0 O16 2.749591 1_555
Ba0 O21 2.796451 1_555
Ba0 O25 2.861907 1_555
Ba0 O22 2.895470 1_555
Ba0 O23 2.933582 1_555
Ba0 O6 2.936979 1_555
Ba0 O25 2.991499 1_455
Ba0 O24 3.025250 1_555
Ba0 O19 3.093549 1_555
Ba1 O2 2.749591 1_555
Ba1 O14 2.796451 1_555
Ba1 O4 2.861907 1_455
Ba1 O11 2.895470 1_555
Ba1 O13 2.933582 1_556
Ba1 O0 2.936979 1_455
Ba1 O4 2.991499 1_555
Ba1 O1 3.025250 1_555
Ba1 O15 3.093549 1_455
Ba2 O17 2.749591 1_555
Ba2 O15 2.796451 1_555
Ba2 O1 2.861907 1_555
Ba2 O0 2.895470 1_555
Ba2 O8 2.933582 1_555
Ba2 O11 2.936979 1_555
Ba2 O1 2.991499 1_655
Ba2 O4 3.025250 1_555
Ba2 O14 3.093549 1_555
Ba3 O5 2.749591 1_555
Ba3 O19 2.796451 1_555
Ba3 O24 2.861907 1_655
Ba3 O6 2.895470 1_555
Ba3 O18 2.933582 1_554
Ba3 O22 2.936979 1_655
Ba3 O24 2.991499 1_555
Ba3 O25 3.025250 1_555
Ba3 O21 3.093549 1_655
O0 Si6 1.646962 1_655
O0 Y1 2.335701 1_555
O1 Si0 1.645491 1_555
O1 Y2 2.343013 1_555
O2 Si5 1.636926 1_555
O2 Y0 2.248927 1_556
O3 Si3 1.626976 1_545
O3 Y1 2.219865 1_554
O4 Si5 1.645491 1_555
O4 Y1 2.343013 1_555
O5 Si7 1.636926 1_555
O5 Y1 2.248927 1_554
O6 Si2 1.646962 1_555
O6 Y3 2.335701 1_555
O7 Si5 1.686886 1_555
O7 Si1 1.689918 1_555
O8 Si4 1.628953 1_555
O8 Y2 2.255861 1_555
O9 Si2 1.626976 1_565
O9 Y2 2.219865 1_555
O10 Si4 1.686886 1_555
O10 Si3 1.689918 1_555
O11 Si1 1.646962 1_555
O11 Y2 2.335701 1_555
O12 Si0 1.686886 1_555
O12 Si6 1.689918 1_555
O13 Si7 1.628953 1_555
O13 Y1 2.255861 1_454
O14 Si6 1.646539 1_555
O14 Y1 2.291969 1_555
O15 Si1 1.646539 1_555
O15 Y2 2.291969 1_655
O16 Si4 1.636926 1_455
O16 Y2 2.248927 1_555
O17 Si0 1.636926 1_655
O17 Y3 2.248927 1_555
O18 Si5 1.628953 1_555
O18 Y0 2.255861 1_656
O19 Si3 1.646539 1_555
O19 Y0 2.291969 1_555
O20 Si7 1.686886 1_555
O20 Si2 1.689918 1_555
O21 Si2 1.646539 1_555
O21 Y3 2.291969 1_455
O22 Si3 1.646962 1_455
O22 Y0 2.335701 1_555
O23 Si0 1.628953 1_555
O23 Y3 2.255861 1_555
O24 Si7 1.645491 1_555
O24 Y0 2.343013 1_555
O25 Si4 1.645491 1_555
O25 Y3 2.343013 1_555
O26 Si1 1.626976 1_545
O26 Y3 2.219865 1_555
O27 Si6 1.626976 1_565
O27 Y0 2.219865 1_556
