# generated using pymatgen
data_K2MoH2(CO4)2
_symmetry_space_group_name_H-M   'P 1'
_cell_length_a   12.94994600
_cell_length_b   7.66104500
_cell_length_c   8.84385996
_cell_angle_alpha   86.03069518
_cell_angle_beta   90.00000000
_cell_angle_gamma   90.00000000
_symmetry_Int_Tables_number   1
_chemical_formula_structural   K2MoH2(CO4)2
_chemical_formula_sum   'K8 Mo4 H8 C8 O32'
_cell_volume   875.29576003
_cell_formula_units_Z   4
loop_
 _symmetry_equiv_pos_site_id
 _symmetry_equiv_pos_as_xyz
  1  'x, y, z'
loop_
 _atom_site_type_symbol
 _atom_site_label
 _atom_site_symmetry_multiplicity
 _atom_site_fract_x
 _atom_site_fract_y
 _atom_site_fract_z
 _atom_site_occupancy
  K  K0  1  0.88846100  0.68637800  0.89520400  1
  K  K1  1  0.11153900  0.31362200  0.10479600  1
  K  K2  1  0.01445200  0.77490400  0.36088100  1
  K  K3  1  0.48554800  0.27490400  0.36088100  1
  K  K4  1  0.98554800  0.22509600  0.63911900  1
  K  K5  1  0.61153900  0.18637800  0.89520400  1
  K  K6  1  0.51445200  0.72509600  0.63911900  1
  K  K7  1  0.38846100  0.81362200  0.10479600  1
  Mo  Mo0  1  0.76499500  0.93901400  0.55530700  1
  Mo  Mo1  1  0.73500500  0.43901400  0.55530700  1
  Mo  Mo2  1  0.26499500  0.56098600  0.44469300  1
  Mo  Mo3  1  0.23500500  0.06098600  0.44469300  1
  H  H0  1  0.37986600  0.23840000  0.04598800  1
  H  H1  1  0.87986600  0.26160000  0.95401200  1
  H  H2  1  0.38532700  0.43439300  0.99495800  1
  H  H3  1  0.11467300  0.93439300  0.99495800  1
  H  H4  1  0.88532700  0.06560700  0.00504200  1
  H  H5  1  0.12013400  0.73840000  0.04598800  1
  H  H6  1  0.62013400  0.76160000  0.95401200  1
  H  H7  1  0.61467300  0.56560700  0.00504200  1
  C  C0  1  0.24775400  0.57199100  0.79213300  1
  C  C1  1  0.74775400  0.92800900  0.20786700  1
  C  C2  1  0.36383200  0.03271900  0.73741200  1
  C  C3  1  0.13616800  0.53271900  0.73741200  1
  C  C4  1  0.25224600  0.07199100  0.79213300  1
  C  C5  1  0.63616800  0.96728100  0.26258800  1
  C  C6  1  0.86383200  0.46728100  0.26258800  1
  C  C7  1  0.75224600  0.42800900  0.20786700  1
  O  O0  1  0.60791900  0.37888500  0.61178800  1
  O  O1  1  0.22068700  0.82265900  0.47708100  1
  O  O2  1  0.12570400  0.52982100  0.59259600  1
  O  O3  1  0.39208100  0.62111500  0.38821200  1
  O  O4  1  0.93412800  0.49860800  0.16828900  1
  O  O5  1  0.56587200  0.99860800  0.16828900  1
  O  O6  1  0.18461900  0.08861700  0.68601900  1
  O  O7  1  0.06587200  0.50139200  0.83171100  1
  O  O8  1  0.69122200  0.92322600  0.72306700  1
  O  O9  1  0.62570400  0.97017900  0.40740400  1
  O  O10  1  0.92736600  0.16206900  0.95884600  1
  O  O11  1  0.23474300  0.08103200  0.93073100  1
  O  O12  1  0.89208100  0.87888500  0.61178800  1
  O  O13  1  0.80877800  0.42322600  0.72306700  1
  O  O14  1  0.27931300  0.32265900  0.47708100  1
  O  O15  1  0.73474300  0.41896800  0.06926900  1
  O  O16  1  0.57263400  0.66206900  0.95884600  1
  O  O17  1  0.19122200  0.57677400  0.27693300  1
  O  O18  1  0.30877800  0.07677400  0.27693300  1
  O  O19  1  0.26525700  0.58103200  0.93073100  1
  O  O20  1  0.81538100  0.91138300  0.31398100  1
  O  O21  1  0.87429600  0.47017900  0.40740400  1
  O  O22  1  0.31538100  0.58861700  0.68601900  1
  O  O23  1  0.37429600  0.02982100  0.59259600  1
  O  O24  1  0.10791900  0.12111500  0.38821200  1
  O  O25  1  0.43412800  0.00139200  0.83171100  1
  O  O26  1  0.72068700  0.67734100  0.52291900  1
  O  O27  1  0.68461900  0.41138300  0.31398100  1
  O  O28  1  0.76525700  0.91896800  0.06926900  1
  O  O29  1  0.77931300  0.17734100  0.52291900  1
  O  O30  1  0.42736600  0.33793100  0.04115400  1
  O  O31  1  0.07263400  0.83793100  0.04115400  1
loop_
_geom_bond_atom_site_label_1
_geom_bond_atom_site_label_2
_geom_bond_distance
_geom_bond_site_symmetry_2
K0 O7 2.777091 1_655
K0 O4 2.787635 1_556
K0 O13 2.805637 1_555
K0 O12 2.819215 1_555
K0 O28 2.910362 1_556
K0 O31 2.984956 1_656
K0 O15 3.176907 1_556
K1 O4 2.777091 1_455
K1 O7 2.787635 1_554
K1 O17 2.805637 1_555
K1 O24 2.819215 1_555
K1 O11 2.910362 1_554
K1 O10 2.984956 1_454
K1 O19 3.176907 1_554
K2 O20 2.801980 1_455
K2 O17 2.872532 1_555
K2 O12 2.883481 1_455
K2 O1 2.893923 1_555
K2 O31 2.933813 1_555
K2 O24 2.940600 1_565
K2 O21 2.963195 1_455
K2 O4 2.993777 1_455
K2 O2 3.044298 1_555
K3 O27 2.801980 1_555
K3 O18 2.872532 1_555
K3 O0 2.883481 1_555
K3 O14 2.893923 1_555
K3 O30 2.933813 1_555
K3 O3 2.940600 1_555
K3 O9 2.963195 1_545
K3 O5 2.993777 1_545
K3 O23 3.044298 1_555
K4 O6 2.801980 1_655
K4 O13 2.872532 1_555
K4 O24 2.883481 1_655
K4 O29 2.893923 1_555
K4 O10 2.933813 1_555
K4 O12 2.940600 1_545
K4 O2 2.963195 1_655
K4 O7 2.993777 1_655
K4 O21 3.044298 1_555
K5 O25 2.777091 1_555
K5 O5 2.787635 1_546
K5 O8 2.805637 1_545
K5 O0 2.819215 1_555
K5 O15 2.910362 1_556
K5 O30 2.984956 1_556
K5 O28 3.176907 1_546
K6 O22 2.801980 1_555
K6 O8 2.872532 1_555
K6 O3 2.883481 1_555
K6 O26 2.893923 1_555
K6 O16 2.933813 1_555
K6 O0 2.940600 1_555
K6 O23 2.963195 1_565
K6 O25 2.993777 1_565
K6 O9 3.044298 1_555
K7 O5 2.777091 1_555
K7 O25 2.787635 1_564
K7 O18 2.805637 1_565
K7 O3 2.819215 1_555
K7 O19 2.910362 1_554
K7 O16 2.984956 1_554
K7 O11 3.176907 1_564
Mo0 O8 1.761731 1_555
Mo0 O12 1.771544 1_555
Mo0 O29 1.837849 1_565
Mo0 O26 2.123570 1_555
Mo0 O9 2.231245 1_555
Mo0 O20 2.255692 1_555
Mo1 O13 1.761731 1_555
Mo1 O0 1.771544 1_555
Mo1 O26 1.837849 1_555
Mo1 O29 2.123570 1_555
Mo1 O21 2.231245 1_555
Mo1 O27 2.255692 1_555
Mo2 O17 1.761731 1_555
Mo2 O3 1.771544 1_555
Mo2 O14 1.837849 1_555
Mo2 O1 2.123570 1_555
Mo2 O2 2.231245 1_555
Mo2 O22 2.255692 1_555
Mo3 O18 1.761731 1_555
Mo3 O24 1.771544 1_555
Mo3 O1 1.837849 1_545
Mo3 O14 2.123570 1_555
Mo3 O23 2.231245 1_555
Mo3 O6 2.255692 1_555
H0 O30 0.978322 1_555
H1 O10 0.978322 1_555
H2 O30 0.983672 1_556
H3 O31 0.983672 1_556
H4 O10 0.983672 1_554
H5 O31 0.978322 1_555
H6 O16 0.978322 1_555
H7 O16 0.983672 1_554
C0 O19 1.253144 1_555
C0 O22 1.283489 1_555
C1 O28 1.253144 1_555
C1 O20 1.283489 1_555
C2 O25 1.246631 1_555
C2 O23 1.289600 1_555
C3 O7 1.246631 1_555
C3 O2 1.289600 1_555
C4 O11 1.253144 1_555
C4 O6 1.283489 1_555
C5 O5 1.246631 1_555
C5 O9 1.289600 1_555
C6 O4 1.246631 1_555
C6 O21 1.289600 1_555
C7 O15 1.253144 1_555
C7 O27 1.283489 1_555
