# generated using pymatgen
data_MnVSbO6
_symmetry_space_group_name_H-M   'P 1'
_cell_length_a   4.73605700
_cell_length_b   5.03375000
_cell_length_c   17.45611000
_cell_angle_alpha   90.00000000
_cell_angle_beta   90.00000000
_cell_angle_gamma   90.00000000
_symmetry_Int_Tables_number   1
_chemical_formula_structural   MnVSbO6
_chemical_formula_sum   'Mn4 V4 Sb4 O24'
_cell_volume   416.15587799
_cell_formula_units_Z   4
loop_
 _symmetry_equiv_pos_site_id
 _symmetry_equiv_pos_as_xyz
  1  'x, y, z'
loop_
 _atom_site_type_symbol
 _atom_site_label
 _atom_site_symmetry_multiplicity
 _atom_site_fract_x
 _atom_site_fract_y
 _atom_site_fract_z
 _atom_site_occupancy
  Mn  Mn0  1  0.50000000  0.25000000  0.05835200  1
  Mn  Mn1  1  0.50000000  0.75000000  0.94164800  1
  Mn  Mn2  1  0.00000000  0.75000000  0.44164800  1
  Mn  Mn3  1  0.00000000  0.25000000  0.55835200  1
  V  V0  1  0.00000000  0.25000000  0.89740000  1
  V  V1  1  0.50000000  0.75000000  0.60260000  1
  V  V2  1  0.00000000  0.75000000  0.10260000  1
  V  V3  1  0.50000000  0.25000000  0.39740000  1
  Sb  Sb0  1  0.00000000  0.75000000  0.78104900  1
  Sb  Sb1  1  0.00000000  0.25000000  0.21895100  1
  Sb  Sb2  1  0.50000000  0.25000000  0.71895100  1
  Sb  Sb3  1  0.50000000  0.75000000  0.28104900  1
  O  O0  1  0.24425000  0.42437900  0.79526600  1
  O  O1  1  0.74425000  0.07562100  0.29526600  1
  O  O2  1  0.79626800  0.55766000  0.86639400  1
  O  O3  1  0.70373200  0.05766000  0.63360600  1
  O  O4  1  0.75575000  0.57562100  0.20473400  1
  O  O5  1  0.20373200  0.94234000  0.86639400  1
  O  O6  1  0.70373200  0.55766000  0.36639400  1
  O  O7  1  0.29626800  0.94234000  0.36639400  1
  O  O8  1  0.74926700  0.61219700  0.04321300  1
  O  O9  1  0.75073300  0.11219700  0.45678700  1
  O  O10  1  0.25073300  0.38780300  0.95678700  1
  O  O11  1  0.25073300  0.88780300  0.04321300  1
  O  O12  1  0.75073300  0.61219700  0.54321300  1
  O  O13  1  0.20373200  0.44234000  0.13360600  1
  O  O14  1  0.29626800  0.44234000  0.63360600  1
  O  O15  1  0.74926700  0.11219700  0.95678700  1
  O  O16  1  0.25575000  0.92437900  0.70473400  1
  O  O17  1  0.24425000  0.92437900  0.20473400  1
  O  O18  1  0.24926700  0.88780300  0.54321300  1
  O  O19  1  0.79626800  0.05766000  0.13360600  1
  O  O20  1  0.24926700  0.38780300  0.45678700  1
  O  O21  1  0.75575000  0.07562100  0.79526600  1
  O  O22  1  0.74425000  0.57562100  0.70473400  1
  O  O23  1  0.25575000  0.42437900  0.29526600  1
loop_
_geom_bond_atom_site_label_1
_geom_bond_atom_site_label_2
_geom_bond_distance
_geom_bond_site_symmetry_2
Mn0 O19 2.152175 1_555
Mn0 O13 2.152175 1_555
Mn0 O8 2.188061 1_555
Mn0 O11 2.188061 1_545
Mn0 O15 2.240119 1_554
Mn0 O10 2.240119 1_554
Mn1 O2 2.152175 1_555
Mn1 O5 2.152175 1_555
Mn1 O10 2.188061 1_555
Mn1 O15 2.188061 1_565
Mn1 O8 2.240119 1_556
Mn1 O11 2.240119 1_556
Mn2 O7 2.152175 1_555
Mn2 O6 2.152175 1_455
Mn2 O9 2.188061 1_465
Mn2 O20 2.188061 1_555
Mn2 O18 2.240119 1_555
Mn2 O12 2.240119 1_455
Mn3 O3 2.152175 1_455
Mn3 O14 2.152175 1_555
Mn3 O12 2.188061 1_455
Mn3 O18 2.188061 1_545
Mn3 O9 2.240119 1_455
Mn3 O20 2.240119 1_555
O0 Sb2 2.003066 1_555
O0 Sb0 2.021476 1_555
O0 V0 2.299400 1_555
O1 Sb1 2.003066 1_655
O1 Sb3 2.021476 1_545
O1 V3 2.299400 1_555
O2 V0 1.903253 1_655
O2 Sb0 2.021851 1_655
O3 V1 1.903253 1_545
O3 Sb2 2.021851 1_555
O4 Sb3 2.003066 1_555
O4 Sb1 2.021476 1_655
O4 V2 2.299400 1_655
O5 V0 1.903253 1_565
O5 Sb0 2.021851 1_555
O6 V3 1.903253 1_555
O6 Sb3 2.021851 1_555
O7 V3 1.903253 1_565
O7 Sb3 2.021851 1_555
O8 V2 1.722200 1_655
O9 V3 1.722200 1_555
O10 V0 1.722200 1_555
O11 V2 1.722200 1_555
O12 V1 1.722200 1_555
O13 V2 1.903253 1_555
O13 Sb1 2.021851 1_555
O14 V1 1.903253 1_555
O14 Sb2 2.021851 1_555
O15 V0 1.722200 1_655
O16 Sb0 2.003066 1_555
O16 Sb2 2.021476 1_565
O16 V1 2.299400 1_555
O17 Sb3 2.003066 1_555
O17 Sb1 2.021476 1_565
O17 V2 2.299400 1_555
O18 V1 1.722200 1_555
O19 V2 1.903253 1_645
O19 Sb1 2.021851 1_655
O20 V3 1.722200 1_555
O21 Sb2 2.003066 1_555
O21 Sb0 2.021476 1_645
O21 V0 2.299400 1_655
O22 Sb0 2.003066 1_655
O22 Sb2 2.021476 1_555
O22 V1 2.299400 1_555
O23 Sb1 2.003066 1_555
O23 Sb3 2.021476 1_555
O23 V3 2.299400 1_555
