# generated using pymatgen
data_NaV(SO4)2
_symmetry_space_group_name_H-M   'P 1'
_cell_length_a   5.22723885
_cell_length_b   10.99123281
_cell_length_c   11.00401656
_cell_angle_alpha   96.98767002
_cell_angle_beta   90.13212534
_cell_angle_gamma   90.10996312
_symmetry_Int_Tables_number   1
_chemical_formula_structural   NaV(SO4)2
_chemical_formula_sum   'Na4 V4 S8 O32'
_cell_volume   627.52342238
_cell_formula_units_Z   4
loop_
 _symmetry_equiv_pos_site_id
 _symmetry_equiv_pos_as_xyz
  1  'x, y, z'
loop_
 _atom_site_type_symbol
 _atom_site_label
 _atom_site_symmetry_multiplicity
 _atom_site_fract_x
 _atom_site_fract_y
 _atom_site_fract_z
 _atom_site_occupancy
  Na  Na0  1  0.49985500  0.00001200  0.50004600  1
  Na  Na1  1  0.00060700  0.25034500  0.24988900  1
  Na  Na2  1  0.99942500  0.74962500  0.75011600  1
  Na  Na3  1  0.50017500  0.50002900  0.99997000  1
  V  V0  1  0.49983600  0.74972500  0.24989500  1
  V  V1  1  0.99989500  0.50002500  0.49993800  1
  V  V2  1  0.00001000  0.00002100  0.00013100  1
  V  V3  1  0.50012400  0.25025700  0.75004500  1
  S  S0  1  0.49922300  0.96183700  0.81787900  1
  S  S1  1  0.99908300  0.21217200  0.56773600  1
  S  S2  1  0.99949500  0.71173600  0.06789400  1
  S  S3  1  0.50145000  0.46144700  0.31753900  1
  S  S4  1  0.49847200  0.53848300  0.68231300  1
  S  S5  1  0.00039400  0.78791500  0.43223700  1
  S  S6  1  0.00102900  0.28827100  0.93215600  1
  S  S7  1  0.50082400  0.03814400  0.18222900  1
  O  O0  1  0.49566300  0.59095400  0.80955900  1
  O  O1  1  0.99983200  0.84036400  0.55949500  1
  O  O2  1  0.00206900  0.34093500  0.05934500  1
  O  O3  1  0.50108200  0.09075300  0.30943000  1
  O  O4  1  0.49876700  0.90906000  0.69072600  1
  O  O5  1  0.99898400  0.15968600  0.44048400  1
  O  O6  1  0.99915900  0.65912700  0.94069000  1
  O  O7  1  0.50440300  0.40901900  0.19028700  1
  O  O8  1  0.49933800  0.09763100  0.83736400  1
  O  O9  1  0.99730200  0.34802500  0.58762800  1
  O  O10  1  0.99953700  0.84751900  0.08765200  1
  O  O11  1  0.49931300  0.59724400  0.33726000  1
  O  O12  1  0.50032200  0.40268100  0.66262300  1
  O  O13  1  0.00250500  0.65205300  0.41232300  1
  O  O14  1  0.00059600  0.15248900  0.91248400  1
  O  O15  1  0.50111900  0.90235100  0.16256800  1
  O  O16  1  0.72820800  0.58454500  0.61857500  1
  O  O17  1  0.23223100  0.83329400  0.36872000  1
  O  O18  1  0.23337600  0.33316000  0.86846700  1
  O  O19  1  0.73338200  0.08312600  0.11870700  1
  O  O20  1  0.26225600  0.58182300  0.61902400  1
  O  O21  1  0.76605300  0.83195100  0.36883900  1
  O  O22  1  0.76748100  0.33299600  0.86877900  1
  O  O23  1  0.26744000  0.08279500  0.11866600  1
  O  O24  1  0.26670400  0.91699500  0.88151800  1
  O  O25  1  0.76672300  0.16702300  0.63124600  1
  O  O26  1  0.76780600  0.66653300  0.13161600  1
  O  O27  1  0.27164300  0.41536800  0.38121200  1
  O  O28  1  0.73260400  0.91721800  0.88147200  1
  O  O29  1  0.23281200  0.16789100  0.63121100  1
  O  O30  1  0.23370200  0.66723600  0.13117100  1
  O  O31  1  0.73769200  0.41811200  0.38084700  1
loop_
_geom_bond_atom_site_label_1
_geom_bond_atom_site_label_2
_geom_bond_distance
_geom_bond_site_symmetry_2
Na0 O3 2.429709 1_555
Na0 O4 2.431545 1_545
Na0 O25 2.595385 1_555
Na0 O17 2.596098 1_545
Na0 O21 2.608285 1_545
Na0 O29 2.609156 1_555
Na1 O2 2.428135 1_555
Na1 O5 2.429042 1_455
Na1 O27 2.593904 1_555
Na1 O31 2.595756 1_455
Na1 O19 2.597750 1_455
Na1 O23 2.606549 1_555
Na2 O6 2.427896 1_555
Na2 O1 2.429735 1_555
Na2 O16 2.595943 1_555
Na2 O20 2.596463 1_655
Na2 O24 2.600096 1_655
Na2 O28 2.607505 1_555
Na3 O7 2.428289 1_556
Na3 O0 2.428763 1_555
Na3 O18 2.595762 1_555
Na3 O26 2.596276 1_556
Na3 O30 2.603011 1_556
Na3 O22 2.604082 1_555
O0 S4 1.448128 1_555
O1 S5 1.448075 1_655
O2 S6 1.448025 1_554
O3 S7 1.447978 1_555
O4 S0 1.448013 1_555
O5 S1 1.448115 1_555
O6 S2 1.448008 1_556
O7 S3 1.448066 1_555
O8 S0 1.481820 1_545
O8 V3 2.032146 1_555
O9 S1 1.482619 1_555
O9 V1 2.028458 1_555
O10 S2 1.481771 1_555
O10 V2 2.032217 1_665
O11 S3 1.481981 1_555
O11 V0 2.031028 1_555
O12 S4 1.482013 1_555
O12 V3 2.030834 1_555
O13 S5 1.482739 1_555
O13 V1 2.028255 1_455
O14 S6 1.481734 1_555
O14 V2 2.032684 1_556
O15 S7 1.481859 1_565
O15 V0 2.032202 1_555
O16 S4 1.509409 1_555
O16 V1 2.074299 1_555
O17 S5 1.514042 1_555
O17 V0 2.057005 1_555
O18 S6 1.515074 1_555
O18 V3 2.048655 1_555
O19 S7 1.515422 1_555
O19 V2 2.050035 1_655
O20 S4 1.521701 1_555
O20 V1 2.026486 1_455
O21 S5 1.517223 1_655
O21 V0 2.040922 1_555
O22 S6 1.516639 1_655
O22 V3 2.045680 1_555
O23 S7 1.516659 1_555
O23 V2 2.044805 1_555
O24 S0 1.515321 1_555
O24 V2 2.050188 1_566
O25 S1 1.515226 1_555
O25 V3 2.051889 1_555
O26 S2 1.513818 1_555
O26 V0 2.053278 1_555
O27 S3 1.509415 1_555
O27 V1 2.075644 1_455
O28 S0 1.516677 1_555
O28 V2 2.045631 1_666
O29 S1 1.516082 1_455
O29 V3 2.044667 1_555
O30 S2 1.517925 1_455
O30 V0 2.040264 1_555
O31 S3 1.521895 1_555
O31 V1 2.026422 1_555
