# generated using pymatgen
data_BaNb10SiO19
_symmetry_space_group_name_H-M   'P 1'
_cell_length_a   7.82941667
_cell_length_b   7.82941666
_cell_length_c   14.63519473
_cell_angle_alpha   90.00000000
_cell_angle_beta   90.00000000
_cell_angle_gamma   119.99999050
_symmetry_Int_Tables_number   1
_chemical_formula_structural   BaNb10SiO19
_chemical_formula_sum   'Ba2 Nb20 Si2 O38'
_cell_volume   776.94091112
_cell_formula_units_Z   2
loop_
 _symmetry_equiv_pos_site_id
 _symmetry_equiv_pos_as_xyz
  1  'x, y, z'
loop_
 _atom_site_type_symbol
 _atom_site_label
 _atom_site_symmetry_multiplicity
 _atom_site_fract_x
 _atom_site_fract_y
 _atom_site_fract_z
 _atom_site_occupancy
  Ba  Ba0  1  0.66666700  0.33333300  0.59156930  1
  Ba  Ba1  1  0.33333300  0.66666700  0.09156930  1
  Nb  Nb0  1  0.31257628  0.44979374  0.49980152  1
  Nb  Nb1  1  0.66666700  0.33333300  0.33183158  1
  Nb  Nb2  1  0.52443463  0.63863848  0.33912887  1
  Nb  Nb3  1  0.55020626  0.86278354  0.49980152  1
  Nb  Nb4  1  0.04617843  0.22707120  0.67348472  1
  Nb  Nb5  1  0.88579615  0.52443463  0.83912887  1
  Nb  Nb6  1  0.13721646  0.68742372  0.49980152  1
  Nb  Nb7  1  0.22707120  0.18089277  0.17348472  1
  Nb  Nb8  1  0.36136152  0.88579615  0.33912887  1
  Nb  Nb9  1  0.63863848  0.11420385  0.83912887  1
  Nb  Nb10  1  0.47556537  0.36136152  0.83912887  1
  Nb  Nb11  1  0.81910723  0.04617843  0.17348472  1
  Nb  Nb12  1  0.44979374  0.13721646  -0.00019848  1
  Nb  Nb13  1  0.33333300  0.66666700  0.83183158  1
  Nb  Nb14  1  0.11420385  0.47556537  0.33912887  1
  Nb  Nb15  1  0.68742372  0.55020626  -0.00019848  1
  Nb  Nb16  1  0.18089277  0.95382157  0.67348472  1
  Nb  Nb17  1  0.77292880  0.81910723  0.67348472  1
  Nb  Nb18  1  0.95382157  0.77292880  0.17348472  1
  Nb  Nb19  1  0.86278354  0.31257628  -0.00019848  1
  Si  Si0  1  0.00000000  0.00000000  0.89021042  1
  Si  Si1  1  0.00000000  0.00000000  0.39021042  1
  O  O0  1  0.00000000  0.00000000  0.27734431  1
  O  O1  1  0.92208657  0.77323265  0.91975754  1
  O  O2  1  0.86619810  0.30176793  0.75264076  1
  O  O3  1  0.77323265  0.85114608  0.41975754  1
  O  O4  1  0.13380190  0.69823207  0.25264076  1
  O  O5  1  0.69823207  0.56443017  0.75264076  1
  O  O6  1  0.54722491  0.64153965  0.58142191  1
  O  O7  1  0.59321854  0.10039889  0.41970005  1
  O  O8  1  0.85114608  0.07791343  0.91975754  1
  O  O9  1  0.49281965  0.59321854  0.91970005  1
  O  O10  1  0.40678146  0.89960111  0.91970005  1
  O  O11  1  0.90568526  0.54722491  0.08142191  1
  O  O12  1  0.25879664  0.20814525  0.59883432  1
  O  O13  1  0.57609508  0.84210971  0.76214445  1
  O  O14  1  0.05065139  0.25879664  0.09883432  1
  O  O15  1  0.09431474  0.45277509  0.58142191  1
  O  O16  1  0.30176793  0.43556983  0.25264076  1
  O  O17  1  0.43556983  0.13380190  0.75264076  1
  O  O18  1  0.89960111  0.49281965  0.41970005  1
  O  O19  1  0.45277509  0.35846035  0.08142191  1
  O  O20  1  0.00000000  0.00000000  0.77734431  1
  O  O21  1  0.94934861  0.74120336  0.59883432  1
  O  O22  1  0.42390492  0.15789029  0.26214445  1
  O  O23  1  0.73398536  0.57609508  0.26214445  1
  O  O24  1  0.79185475  0.05065139  0.59883432  1
  O  O25  1  0.74120336  0.79185475  0.09883432  1
  O  O26  1  0.64153965  0.09431474  0.08142191  1
  O  O27  1  0.35846035  0.90568526  0.58142191  1
  O  O28  1  0.84210971  0.26601464  0.26214445  1
  O  O29  1  0.56443017  0.86619810  0.25264076  1
  O  O30  1  0.15789029  0.73398536  0.76214445  1
  O  O31  1  0.22676735  0.14885392  0.91975754  1
  O  O32  1  0.26601464  0.42390492  0.76214445  1
  O  O33  1  0.10039889  0.50718035  0.91970005  1
  O  O34  1  0.20814525  0.94934861  0.09883432  1
  O  O35  1  0.14885392  0.92208657  0.41975754  1
  O  O36  1  0.07791343  0.22676735  0.41975754  1
  O  O37  1  0.50718035  0.40678146  0.41970005  1
loop_
_geom_bond_atom_site_label_1
_geom_bond_atom_site_label_2
_geom_bond_distance
_geom_bond_site_symmetry_2
Ba0 O24 2.835433 1_555
Ba0 O21 2.835440 1_555
Ba0 O12 2.835441 1_555
Ba0 O2 2.905956 1_555
Ba0 O17 2.905959 1_555
Ba0 O5 2.905961 1_555
Ba0 O7 2.989129 1_555
Ba0 O18 2.989130 1_555
Ba0 O37 2.989133 1_555
Ba0 O15 2.996015 1_655
Ba0 O27 2.996017 1_545
Ba0 O6 2.996022 1_555
Ba1 O34 2.835433 1_555
Ba1 O14 2.835440 1_555
Ba1 O25 2.835441 1_555
Ba1 O4 2.905956 1_555
Ba1 O29 2.905959 1_555
Ba1 O16 2.905961 1_555
Ba1 O10 2.989129 1_554
Ba1 O33 2.989130 1_554
Ba1 O9 2.989133 1_554
Ba1 O11 2.996015 1_455
Ba1 O26 2.996017 1_565
Ba1 O19 2.996022 1_555
Nb0 O6 2.073111 1_555
Nb0 O37 2.079006 1_555
Nb0 O15 2.094646 1_555
Nb0 O36 2.142149 1_555
Nb0 O12 2.249634 1_555
Nb1 O28 1.982109 1_555
Nb1 O22 1.982115 1_555
Nb1 O23 1.982116 1_555
Nb1 O7 2.064384 1_555
Nb1 O18 2.064385 1_555
Nb1 O37 2.064390 1_555
Nb2 O29 2.077650 1_555
Nb2 O16 2.097019 1_555
Nb2 O37 2.111588 1_555
Nb2 O3 2.171216 1_555
Nb2 O23 2.237042 1_555
Nb3 O27 2.073107 1_555
Nb3 O7 2.079000 1_565
Nb3 O6 2.094652 1_555
Nb3 O3 2.142152 1_555
Nb3 O24 2.249632 1_565
Nb4 O12 2.057518 1_555
Nb4 O24 2.077503 1_455
Nb4 O32 2.090117 1_555
Nb4 O15 2.100991 1_555
Nb4 O2 2.119872 1_455
Nb4 O20 2.226894 1_555
Nb5 O5 2.077650 1_555
Nb5 O2 2.097019 1_555
Nb5 O33 2.111588 1_655
Nb5 O1 2.171216 1_555
Nb5 O30 2.237043 1_655
Nb6 O15 2.073113 1_555
Nb6 O18 2.079002 1_455
Nb6 O27 2.094649 1_555
Nb6 O35 2.142146 1_555
Nb6 O21 2.249628 1_455
Nb7 O34 2.057518 1_545
Nb7 O14 2.077503 1_555
Nb7 O22 2.090117 1_555
Nb7 O19 2.100991 1_555
Nb7 O16 2.119872 1_555
Nb7 O0 2.226894 1_555
Nb8 O4 2.077650 1_555
Nb8 O29 2.097019 1_555
Nb8 O7 2.111588 1_565
Nb8 O35 2.171216 1_555
Nb8 O22 2.237042 1_565
Nb9 O2 2.077650 1_555
Nb9 O17 2.097019 1_555
Nb9 O10 2.111588 1_545
Nb9 O8 2.171216 1_555
Nb9 O13 2.237042 1_545
Nb10 O17 2.077650 1_555
Nb10 O5 2.097019 1_555
Nb10 O9 2.111588 1_555
Nb10 O31 2.171216 1_555
Nb10 O32 2.237042 1_555
Nb11 O14 2.057519 1_655
Nb11 O25 2.077503 1_545
Nb11 O28 2.090117 1_555
Nb11 O26 2.100991 1_555
Nb11 O29 2.119872 1_545
Nb11 O0 2.226894 1_655
Nb12 O26 2.073107 1_555
Nb12 O10 2.079000 1_544
Nb12 O19 2.094652 1_555
Nb12 O31 2.142152 1_554
Nb12 O34 2.249632 1_545
Nb13 O30 1.982109 1_555
Nb13 O13 1.982115 1_555
Nb13 O32 1.982116 1_555
Nb13 O10 2.064384 1_555
Nb13 O33 2.064385 1_555
Nb13 O9 2.064390 1_555
Nb14 O16 2.077650 1_555
Nb14 O4 2.097019 1_555
Nb14 O18 2.111588 1_455
Nb14 O36 2.171216 1_555
Nb14 O28 2.237043 1_455
Nb15 O19 2.073111 1_555
Nb15 O9 2.079006 1_554
Nb15 O11 2.094646 1_555
Nb15 O1 2.142149 1_554
Nb15 O25 2.249634 1_555
Nb16 O21 2.057519 1_455
Nb16 O12 2.077503 1_565
Nb16 O30 2.090117 1_555
Nb16 O27 2.100991 1_555
Nb16 O17 2.119872 1_565
Nb16 O20 2.226894 1_565
Nb17 O24 2.057518 1_565
Nb17 O21 2.077503 1_555
Nb17 O13 2.090117 1_555
Nb17 O6 2.100991 1_555
Nb17 O5 2.119872 1_555
Nb17 O20 2.226894 1_665
Nb18 O25 2.057518 1_555
Nb18 O34 2.077503 1_655
Nb18 O23 2.090117 1_555
Nb18 O11 2.100991 1_555
Nb18 O4 2.119872 1_655
Nb18 O0 2.226894 1_665
Nb19 O11 2.073113 1_555
Nb19 O33 2.079002 1_654
Nb19 O26 2.094649 1_555
Nb19 O8 2.142146 1_554
Nb19 O14 2.249628 1_655
O0 Si1 1.651817 1_555
O1 Si0 1.621204 1_665
O3 Si1 1.621204 1_665
O8 Si0 1.621203 1_655
O20 Si0 1.651817 1_555
O31 Si0 1.621204 1_555
O35 Si1 1.621203 1_565
O36 Si1 1.621204 1_555
