# generated using pymatgen
data_Sm(AsPd)2
_symmetry_space_group_name_H-M   'P 1'
_cell_length_a   4.27571200
_cell_length_b   4.27571200
_cell_length_c   6.07481660
_cell_angle_alpha   110.60486187
_cell_angle_beta   110.60486187
_cell_angle_gamma   90.00000000
_symmetry_Int_Tables_number   1
_chemical_formula_structural   Sm(AsPd)2
_chemical_formula_sum   'Sm1 As2 Pd2'
_cell_volume   96.32665715
_cell_formula_units_Z   1
loop_
 _symmetry_equiv_pos_site_id
 _symmetry_equiv_pos_as_xyz
  1  'x, y, z'
loop_
 _atom_site_type_symbol
 _atom_site_label
 _atom_site_symmetry_multiplicity
 _atom_site_fract_x
 _atom_site_fract_y
 _atom_site_fract_z
 _atom_site_occupancy
  Sm  Sm0  1  0.00000000  0.00000000  0.00000000  1
  As  As0  1  0.38132900  0.38132900  0.76265800  1
  As  As1  1  0.61867100  0.61867100  0.23734200  1
  Pd  Pd0  1  0.75000000  0.25000000  0.50000000  1
  Pd  Pd1  1  0.25000000  0.75000000  0.50000000  1
loop_
_geom_bond_atom_site_label_1
_geom_bond_atom_site_label_2
_geom_bond_distance
_geom_bond_site_symmetry_2
As0 As1 2.501118 1_556
As0 Pd1 2.546712 1_555
As0 Pd1 2.546712 1_545
As0 Pd0 2.546712 1_455
As0 Pd0 2.546712 1_555
As0 Sm0 3.271812 1_556
As0 Sm0 3.271812 1_656
As0 Sm0 3.271812 1_566
As0 Sm0 3.271812 1_666
As1 Pd0 2.546712 1_565
As1 Pd1 2.546712 1_655
As1 Pd1 2.546712 1_555
As1 Pd0 2.546712 1_555
As1 Sm0 3.271812 1_555
As1 Sm0 3.271812 1_665
As1 Sm0 3.271812 1_655
As1 Sm0 3.271812 1_565
Pd0 Pd1 3.023385 1_645
Pd0 Pd1 3.023385 1_655
Pd0 Pd1 3.023385 1_555
Pd0 Pd1 3.023385 1_545
Pd0 Sm0 3.392796 1_555
Pd0 Sm0 3.392796 1_656
Pd0 Sm0 3.392796 1_655
Pd0 Sm0 3.392796 1_666
Pd1 Sm0 3.392796 1_555
Pd1 Sm0 3.392796 1_565
Pd1 Sm0 3.392796 1_566
Pd1 Sm0 3.392796 1_666
