# generated using pymatgen
data_Na2MoSeO6
_symmetry_space_group_name_H-M   'P 1'
_cell_length_a   8.48309500
_cell_length_b   8.48309500
_cell_length_c   8.48309500
_cell_angle_alpha   90.00000000
_cell_angle_beta   90.00000000
_cell_angle_gamma   90.00000000
_symmetry_Int_Tables_number   1
_chemical_formula_structural   Na2MoSeO6
_chemical_formula_sum   'Na8 Mo4 Se4 O24'
_cell_volume   610.46812378
_cell_formula_units_Z   4
loop_
 _symmetry_equiv_pos_site_id
 _symmetry_equiv_pos_as_xyz
  1  'x, y, z'
loop_
 _atom_site_type_symbol
 _atom_site_label
 _atom_site_symmetry_multiplicity
 _atom_site_fract_x
 _atom_site_fract_y
 _atom_site_fract_z
 _atom_site_occupancy
  Na  Na0  1  0.75168700  0.24831300  0.74831300  1
  Na  Na1  1  0.46655200  0.46655200  0.46655200  1
  Na  Na2  1  0.53344800  0.96655200  0.03344800  1
  Na  Na3  1  0.25168700  0.25168700  0.25168700  1
  Na  Na4  1  0.74831300  0.75168700  0.24831300  1
  Na  Na5  1  0.03344800  0.53344800  0.96655200  1
  Na  Na6  1  0.96655200  0.03344800  0.53344800  1
  Na  Na7  1  0.24831300  0.74831300  0.75168700  1
  Mo  Mo0  1  0.99185800  0.50814200  0.49185800  1
  Mo  Mo1  1  0.00814200  0.00814200  0.00814200  1
  Mo  Mo2  1  0.49185800  0.99185800  0.50814200  1
  Mo  Mo3  1  0.50814200  0.49185800  0.99185800  1
  Se  Se0  1  0.32692600  0.17307400  0.82692600  1
  Se  Se1  1  0.82692600  0.32692600  0.17307400  1
  Se  Se2  1  0.67307400  0.67307400  0.67307400  1
  Se  Se3  1  0.17307400  0.82692600  0.32692600  1
  O  O0  1  0.40120800  0.99586700  0.75553900  1
  O  O1  1  0.49586700  0.74446100  0.59879200  1
  O  O2  1  0.68993300  0.01497700  0.57627800  1
  O  O3  1  0.00413300  0.25553900  0.09879200  1
  O  O4  1  0.18993300  0.48502300  0.42372200  1
  O  O5  1  0.75553900  0.40120800  0.99586700  1
  O  O6  1  0.07627800  0.81006700  0.98502300  1
  O  O7  1  0.01497700  0.57627800  0.68993300  1
  O  O8  1  0.31006700  0.51497700  0.92372200  1
  O  O9  1  0.99586700  0.75553900  0.40120800  1
  O  O10  1  0.90120800  0.50413300  0.24446100  1
  O  O11  1  0.92372200  0.31006700  0.51497700  1
  O  O12  1  0.51497700  0.92372200  0.31006700  1
  O  O13  1  0.24446100  0.90120800  0.50413300  1
  O  O14  1  0.09879200  0.00413300  0.25553900  1
  O  O15  1  0.42372200  0.18993300  0.48502300  1
  O  O16  1  0.25553900  0.09879200  0.00413300  1
  O  O17  1  0.98502300  0.07627800  0.81006700  1
  O  O18  1  0.59879200  0.49586700  0.74446100  1
  O  O19  1  0.81006700  0.98502300  0.07627800  1
  O  O20  1  0.74446100  0.59879200  0.49586700  1
  O  O21  1  0.48502300  0.42372200  0.18993300  1
  O  O22  1  0.57627800  0.68993300  0.01497700  1
  O  O23  1  0.50413300  0.24446100  0.90120800  1
loop_
_geom_bond_atom_site_label_1
_geom_bond_atom_site_label_2
_geom_bond_distance
_geom_bond_site_symmetry_2
Na0 O5 2.468489 1_555
Na0 O23 2.468489 1_555
Na0 O18 2.468489 1_555
Na0 O17 2.514423 1_555
Na0 O11 2.514423 1_555
Na0 O2 2.514423 1_555
Na1 O15 2.379711 1_555
Na1 O4 2.379711 1_555
Na1 O21 2.379711 1_555
Na1 O18 2.622638 1_555
Na1 O20 2.622638 1_555
Na1 O1 2.622638 1_555
Na2 O12 2.379711 1_555
Na2 O22 2.379711 1_555
Na2 O19 2.379711 1_555
Na2 O16 2.622638 1_565
Na2 O23 2.622638 1_564
Na2 O0 2.622638 1_554
Na3 O16 2.468489 1_555
Na3 O3 2.468489 1_555
Na3 O14 2.468489 1_555
Na3 O21 2.514423 1_555
Na3 O15 2.514423 1_555
Na3 O4 2.514423 1_555
Na4 O9 2.468489 1_555
Na4 O10 2.468489 1_555
Na4 O20 2.468489 1_555
Na4 O19 2.514423 1_555
Na4 O12 2.514423 1_555
Na4 O22 2.514423 1_555
Na5 O8 2.379711 1_555
Na5 O7 2.379711 1_555
Na5 O6 2.379711 1_555
Na5 O3 2.622638 1_556
Na5 O10 2.622638 1_456
Na5 O5 2.622638 1_455
Na6 O11 2.379711 1_555
Na6 O2 2.379711 1_555
Na6 O17 2.379711 1_555
Na6 O14 2.622638 1_655
Na6 O13 2.622638 1_645
Na6 O9 2.622638 1_545
Na7 O0 2.468489 1_555
Na7 O1 2.468489 1_555
Na7 O13 2.468489 1_555
Na7 O6 2.514423 1_555
Na7 O8 2.514423 1_555
Na7 O7 2.514423 1_555
Mo0 O11 1.787715 1_555
Mo0 O4 1.787715 1_655
Mo0 O7 1.787715 1_655
Mo0 O9 2.235400 1_555
Mo0 O10 2.235400 1_555
Mo0 O20 2.235400 1_555
Mo1 O17 1.787715 1_454
Mo1 O19 1.787715 1_445
Mo1 O6 1.787715 1_544
Mo1 O14 2.235400 1_555
Mo1 O16 2.235400 1_555
Mo1 O3 2.235400 1_555
Mo2 O12 1.787715 1_555
Mo2 O15 1.787715 1_565
Mo2 O2 1.787715 1_565
Mo2 O0 2.235400 1_555
Mo2 O13 2.235400 1_555
Mo2 O1 2.235400 1_555
Mo3 O8 1.787715 1_555
Mo3 O21 1.787715 1_556
Mo3 O22 1.787715 1_556
Mo3 O5 2.235400 1_555
Mo3 O23 2.235400 1_555
Mo3 O18 2.235400 1_555
O0 Se0 1.738853 1_565
O1 Se2 1.738853 1_555
O3 Se1 1.738853 1_455
O5 Se1 1.738853 1_556
O9 Se3 1.738853 1_655
O10 Se1 1.738853 1_555
O13 Se3 1.738853 1_555
O14 Se3 1.738853 1_545
O16 Se0 1.738853 1_554
O18 Se2 1.738853 1_555
O20 Se2 1.738853 1_555
O23 Se0 1.738853 1_555
