# generated using pymatgen
data_Lu3Mn3Ga2Si
_symmetry_space_group_name_H-M   'P 1'
_cell_length_a   3.85348600
_cell_length_b   6.95361008
_cell_length_c   6.95361008
_cell_angle_alpha   120.00000076
_cell_angle_beta   90.00000000
_cell_angle_gamma   90.00000000
_symmetry_Int_Tables_number   1
_chemical_formula_structural   Lu3Mn3Ga2Si
_chemical_formula_sum   'Lu3 Mn3 Ga2 Si1'
_cell_volume   161.36341715
_cell_formula_units_Z   1
loop_
 _symmetry_equiv_pos_site_id
 _symmetry_equiv_pos_as_xyz
  1  'x, y, z'
loop_
 _atom_site_type_symbol
 _atom_site_label
 _atom_site_symmetry_multiplicity
 _atom_site_fract_x
 _atom_site_fract_y
 _atom_site_fract_z
 _atom_site_occupancy
  Lu  Lu0  1  0.50000000  0.59187900  0.59187900  1
  Lu  Lu1  1  0.50000000  0.40812100  0.00000000  1
  Lu  Lu2  1  0.50000000  0.00000000  0.40812100  1
  Mn  Mn0  1  0.00000000  0.77850800  0.00000000  1
  Mn  Mn1  1  0.00000000  0.00000000  0.77850800  1
  Mn  Mn2  1  0.00000000  0.22149200  0.22149200  1
  Ga  Ga0  1  0.00000000  0.66666700  0.33333300  1
  Ga  Ga1  1  0.00000000  0.33333300  0.66666700  1
  Si  Si0  1  0.50000000  0.00000000  0.00000000  1
loop_
_geom_bond_atom_site_label_1
_geom_bond_atom_site_label_2
_geom_bond_distance
_geom_bond_site_symmetry_2
Lu0 Si0 2.837914 1_566
Lu0 Mn1 3.125276 1_665
Lu0 Mn1 3.125276 1_565
Lu0 Mn0 3.125276 1_556
Lu0 Mn0 3.125276 1_656
Lu0 Mn2 3.216470 1_555
Lu0 Mn2 3.216470 1_655
Lu1 Si0 2.837914 1_555
Lu1 Mn1 3.125276 1_654
Lu1 Mn1 3.125276 1_554
Lu1 Mn2 3.125276 1_555
Lu1 Mn2 3.125276 1_655
Lu1 Mn0 3.216470 1_655
Lu1 Mn0 3.216470 1_555
Lu2 Si0 2.837914 1_555
Lu2 Mn0 3.125276 1_545
Lu2 Mn0 3.125276 1_645
Lu2 Mn2 3.125276 1_555
Lu2 Mn2 3.125276 1_655
Lu2 Mn1 3.216470 1_555
Lu2 Mn1 3.216470 1_655
Mn0 Si0 2.466670 1_465
Mn0 Si0 2.466670 1_565
Mn0 Mn2 2.667651 1_565
Mn0 Mn1 2.667651 1_564
Mn1 Si0 2.466670 1_556
Mn1 Si0 2.466670 1_456
Mn1 Mn2 2.667651 1_556
Mn2 Si0 2.466670 1_555
Mn2 Si0 2.466670 1_455
Ga0 Mn0 2.789252 1_555
Ga0 Mn1 2.789257 1_565
Ga0 Mn2 2.789259 1_555
Ga0 Lu2 2.854803 1_465
Ga0 Lu2 2.854803 1_565
Ga0 Lu1 2.854804 1_455
Ga0 Lu1 2.854804 1_555
Ga0 Lu0 2.854808 1_455
Ga0 Lu0 2.854808 1_555
Ga1 Mn1 2.789252 1_555
Ga1 Mn0 2.789257 1_556
Ga1 Mn2 2.789259 1_555
Ga1 Lu1 2.854803 1_556
Ga1 Lu1 2.854803 1_456
Ga1 Lu2 2.854804 1_455
Ga1 Lu2 2.854804 1_555
Ga1 Lu0 2.854808 1_455
Ga1 Lu0 2.854808 1_555
