# generated using pymatgen
data_NdCrS2O
_symmetry_space_group_name_H-M   'P 1'
_cell_length_a   6.11105699
_cell_length_b   6.11105699
_cell_length_c   7.98173410
_cell_angle_alpha   89.91759493
_cell_angle_beta   89.91759493
_cell_angle_gamma   35.54634829
_symmetry_Int_Tables_number   1
_chemical_formula_structural   NdCrS2O
_chemical_formula_sum   'Nd2 Cr2 S4 O2'
_cell_volume   173.29082462
_cell_formula_units_Z   2
loop_
 _symmetry_equiv_pos_site_id
 _symmetry_equiv_pos_as_xyz
  1  'x, y, z'
loop_
 _atom_site_type_symbol
 _atom_site_label
 _atom_site_symmetry_multiplicity
 _atom_site_fract_x
 _atom_site_fract_y
 _atom_site_fract_z
 _atom_site_occupancy
  Nd  Nd0  1  0.26585200  0.26585200  0.29389800  1
  Nd  Nd1  1  0.73414800  0.73414800  0.70610200  1
  Cr  Cr0  1  0.00000000  0.00000000  0.50000000  1
  Cr  Cr1  1  0.50000000  0.50000000  0.00000000  1
  S  S0  1  0.13724700  0.13724700  0.97105500  1
  S  S1  1  0.45523000  0.45523000  0.69821600  1
  S  S2  1  0.54477000  0.54477000  0.30178400  1
  S  S3  1  0.86275300  0.86275300  0.02894500  1
  O  O0  1  0.83346900  0.83346900  0.43898800  1
  O  O1  1  0.16653100  0.16653100  0.56101200  1
loop_
_geom_bond_atom_site_label_1
_geom_bond_atom_site_label_2
_geom_bond_distance
_geom_bond_site_symmetry_2
Nd0 O0 2.333007 1_545
Nd0 O0 2.333007 1_455
Nd0 O1 2.423716 1_555
Nd0 S0 2.981982 1_554
Nd0 S3 3.035913 1_545
Nd0 S3 3.035913 1_455
Nd0 S2 3.178703 1_545
Nd0 S2 3.178703 1_455
Nd0 S2 3.246971 1_555
Nd1 O1 2.333007 1_655
Nd1 O1 2.333007 1_565
Nd1 O0 2.423716 1_555
Nd1 S3 2.981982 1_556
Nd1 S0 3.035913 1_655
Nd1 S0 3.035913 1_565
Nd1 S1 3.178703 1_655
Nd1 S1 3.178703 1_565
Nd1 S1 3.246971 1_555
Cr0 O1 1.999173 1_555
Cr0 O0 1.999173 1_445
Cr0 S1 2.500358 1_545
Cr0 S1 2.500358 1_455
Cr0 S2 2.500358 1_455
Cr0 S2 2.500358 1_545
Cr1 S2 2.465244 1_555
Cr1 S1 2.465244 1_554
Cr1 S0 2.466498 1_564
Cr1 S0 2.466498 1_654
Cr1 S3 2.466498 1_455
Cr1 S3 2.466498 1_545
