# generated using pymatgen
data_Ga10GePb3O20
_symmetry_space_group_name_H-M   'P 1'
_cell_length_a   9.79116935
_cell_length_b   9.79116935
_cell_length_c   5.11720294
_cell_angle_alpha   74.87729908
_cell_angle_beta   74.87729908
_cell_angle_gamma   73.60532334
_symmetry_Int_Tables_number   1
_chemical_formula_structural   Ga10GePb3O20
_chemical_formula_sum   'Ga10 Ge1 Pb3 O20'
_cell_volume   444.94289072
_cell_formula_units_Z   1
loop_
 _symmetry_equiv_pos_site_id
 _symmetry_equiv_pos_as_xyz
  1  'x, y, z'
loop_
 _atom_site_type_symbol
 _atom_site_label
 _atom_site_symmetry_multiplicity
 _atom_site_fract_x
 _atom_site_fract_y
 _atom_site_fract_z
 _atom_site_occupancy
  Ga  Ga0  1  0.63284482  0.36715518  0.50000000  1
  Ga  Ga1  1  0.36715518  0.63284482  0.50000000  1
  Ga  Ga2  1  0.27944590  0.00652289  0.37370199  1
  Ga  Ga3  1  0.99347711  0.72055410  0.62629801  1
  Ga  Ga4  1  0.72055410  0.99347711  0.62629801  1
  Ga  Ga5  1  0.00652289  0.27944590  0.37370199  1
  Ga  Ga6  1  0.57775598  0.15126802  0.10604486  1
  Ga  Ga7  1  0.84873198  0.42224402  0.89395514  1
  Ga  Ga8  1  0.42224402  0.84873198  0.89395514  1
  Ga  Ga9  1  0.15126802  0.57775598  0.10604486  1
  Ge  Ge0  1  0.50000000  0.50000000  0.00000000  1
  Pb  Pb0  1  -0.00000000  0.00000000  0.00000000  1
  Pb  Pb1  1  0.72309920  0.72309920  0.22022072  1
  Pb  Pb2  1  0.27690080  0.27690080  0.77977928  1
  O  O0  1  0.56681213  0.56681213  0.25026646  1
  O  O1  1  0.43318787  0.43318787  0.74973354  1
  O  O2  1  0.09694782  0.09694782  0.30525712  1
  O  O3  1  0.90305218  0.90305218  0.69474288  1
  O  O4  1  0.39583862  0.12373130  0.13231256  1
  O  O5  1  0.87626870  0.60416138  0.86768744  1
  O  O6  1  0.60416138  0.87626870  0.86768744  1
  O  O7  1  0.12373130  0.39583862  0.13231256  1
  O  O8  1  0.33925122  0.82684103  0.27066125  1
  O  O9  1  0.17315897  0.66074878  0.72933875  1
  O  O10  1  0.66074878  0.17315897  0.72933875  1
  O  O11  1  0.82684103  0.33925122  0.27066125  1
  O  O12  1  0.99088177  0.28126405  0.73771496  1
  O  O13  1  0.71873595  0.00911823  0.26228504  1
  O  O14  1  0.00911823  0.71873595  0.26228504  1
  O  O15  1  0.28126405  0.99088177  0.73771496  1
  O  O16  1  0.68306214  0.45461802  0.75851057  1
  O  O17  1  0.54538198  0.31693786  0.24148943  1
  O  O18  1  0.31693786  0.54538198  0.24148943  1
  O  O19  1  0.45461802  0.68306214  0.75851057  1
loop_
_geom_bond_atom_site_label_1
_geom_bond_atom_site_label_2
_geom_bond_distance
_geom_bond_site_symmetry_2
Ga0 O11 1.941923 1_555
Ga0 O10 1.941923 1_555
Ga0 O17 1.973120 1_555
Ga0 O16 1.973120 1_555
Ga0 O0 2.070459 1_555
Ga0 O1 2.070459 1_555
Ga1 O8 1.941923 1_555
Ga1 O9 1.941923 1_555
Ga1 O18 1.973120 1_555
Ga1 O19 1.973120 1_555
Ga1 O0 2.070459 1_555
Ga1 O1 2.070459 1_555
Ga2 O15 1.833152 1_545
Ga2 O2 1.836064 1_555
Ga2 O4 1.845448 1_555
Ga2 O8 1.859411 1_545
Ga3 O14 1.833152 1_655
Ga3 O3 1.836064 1_555
Ga3 O5 1.845448 1_555
Ga3 O9 1.859411 1_655
Ga4 O13 1.833152 1_565
Ga4 O3 1.836064 1_555
Ga4 O6 1.845448 1_555
Ga4 O10 1.859411 1_565
Ga5 O12 1.833152 1_455
Ga5 O2 1.836064 1_555
Ga5 O7 1.845448 1_555
Ga5 O11 1.859411 1_455
Ga6 O4 1.841369 1_555
Ga6 O13 1.841860 1_555
Ga6 O17 1.842228 1_555
Ga6 O10 1.867518 1_554
Ga7 O5 1.841369 1_555
Ga7 O12 1.841860 1_555
Ga7 O16 1.842228 1_555
Ga7 O11 1.867518 1_556
Ga8 O6 1.841369 1_555
Ga8 O15 1.841860 1_555
Ga8 O19 1.842228 1_555
Ga8 O8 1.867518 1_556
Ga9 O7 1.841369 1_555
Ga9 O14 1.841860 1_555
Ga9 O18 1.842228 1_555
Ga9 O9 1.867518 1_554
Ge0 O1 1.900474 1_554
Ge0 O0 1.900474 1_555
Ge0 O19 1.902209 1_554
Ge0 O16 1.902209 1_554
Ge0 O18 1.902209 1_555
Ge0 O17 1.902209 1_555
O0 Pb1 2.404828 1_555
O1 Pb2 2.404828 1_555
O2 Pb0 2.509601 1_555
O3 Pb0 2.509601 1_666
O4 Pb2 2.357597 1_554
O5 Pb1 2.357597 1_556
O6 Pb1 2.357597 1_556
O7 Pb2 2.357597 1_554
O12 Pb0 2.718183 1_656
O13 Pb0 2.718183 1_655
O14 Pb0 2.718183 1_565
O15 Pb0 2.718183 1_566
