# generated using pymatgen
data_K2U(WO5)2
_symmetry_space_group_name_H-M   'P 1'
_cell_length_a   7.70159600
_cell_length_b   8.78539700
_cell_length_c   14.33855700
_cell_angle_alpha   90.00000000
_cell_angle_beta   90.00000000
_cell_angle_gamma   90.00000000
_symmetry_Int_Tables_number   1
_chemical_formula_structural   K2U(WO5)2
_chemical_formula_sum   'K8 U4 W8 O40'
_cell_volume   970.16939851
_cell_formula_units_Z   4
loop_
 _symmetry_equiv_pos_site_id
 _symmetry_equiv_pos_as_xyz
  1  'x, y, z'
loop_
 _atom_site_type_symbol
 _atom_site_label
 _atom_site_symmetry_multiplicity
 _atom_site_fract_x
 _atom_site_fract_y
 _atom_site_fract_z
 _atom_site_occupancy
  K  K0  1  0.75000000  0.15546000  0.30165700  1
  K  K1  1  0.25000000  0.84454000  0.69834300  1
  K  K2  1  0.25000000  0.65546000  0.19834300  1
  K  K3  1  0.75000000  0.34454000  0.80165700  1
  K  K4  1  0.25000000  0.17395200  0.28376600  1
  K  K5  1  0.75000000  0.82604800  0.71623400  1
  K  K6  1  0.75000000  0.67395200  0.21623400  1
  K  K7  1  0.25000000  0.32604800  0.78376600  1
  U  U0  1  0.25000000  0.52499900  0.49609300  1
  U  U1  1  0.75000000  0.47500100  0.50390700  1
  U  U2  1  0.75000000  0.02499900  0.00390700  1
  U  U3  1  0.25000000  0.97500100  0.99609300  1
  W  W0  1  0.00120500  0.85362000  0.43100100  1
  W  W1  1  0.50120500  0.14638000  0.56899900  1
  W  W2  1  0.99879500  0.35362000  0.06899900  1
  W  W3  1  0.49879500  0.64638000  0.93100100  1
  W  W4  1  0.99879500  0.14638000  0.56899900  1
  W  W5  1  0.49879500  0.85362000  0.43100100  1
  W  W6  1  0.00120500  0.64638000  0.93100100  1
  W  W7  1  0.50120500  0.35362000  0.06899900  1
  O  O0  1  0.97227900  0.64735500  0.48448300  1
  O  O1  1  0.47227900  0.35264500  0.51551700  1
  O  O2  1  0.02772100  0.14735500  0.01551700  1
  O  O3  1  0.52772100  0.85264500  0.98448300  1
  O  O4  1  0.02772100  0.35264500  0.51551700  1
  O  O5  1  0.52772100  0.64735500  0.48448300  1
  O  O6  1  0.97227900  0.85264500  0.98448300  1
  O  O7  1  0.47227900  0.14735500  0.01551700  1
  O  O8  1  0.75000000  0.86685600  0.42202400  1
  O  O9  1  0.25000000  0.13314400  0.57797600  1
  O  O10  1  0.25000000  0.36685600  0.07797600  1
  O  O11  1  0.75000000  0.63314400  0.92202400  1
  O  O12  1  0.03206400  0.06753300  0.42392000  1
  O  O13  1  0.53206400  0.93246700  0.57608000  1
  O  O14  1  0.96793600  0.56753300  0.07608000  1
  O  O15  1  0.46793600  0.43246700  0.92392000  1
  O  O16  1  0.96793600  0.93246700  0.57608000  1
  O  O17  1  0.46793600  0.06753300  0.42392000  1
  O  O18  1  0.03206400  0.43246700  0.92392000  1
  O  O19  1  0.53206400  0.56753300  0.07608000  1
  O  O20  1  0.25000000  0.81003900  0.46485000  1
  O  O21  1  0.75000000  0.18996100  0.53515000  1
  O  O22  1  0.75000000  0.31003900  0.03515000  1
  O  O23  1  0.25000000  0.68996100  0.96485000  1
  O  O24  1  0.02802700  0.80943400  0.31037400  1
  O  O25  1  0.52802700  0.19056600  0.68962600  1
  O  O26  1  0.97197300  0.30943400  0.18962600  1
  O  O27  1  0.47197300  0.69056600  0.81037400  1
  O  O28  1  0.97197300  0.19056600  0.68962600  1
  O  O29  1  0.47197300  0.80943400  0.31037400  1
  O  O30  1  0.02802700  0.69056600  0.81037400  1
  O  O31  1  0.52802700  0.30943400  0.18962600  1
  O  O32  1  0.25000000  0.55729800  0.62228600  1
  O  O33  1  0.75000000  0.44270200  0.37771400  1
  O  O34  1  0.75000000  0.05729800  0.87771400  1
  O  O35  1  0.25000000  0.94270200  0.12228600  1
  O  O36  1  0.25000000  0.48778900  0.37009400  1
  O  O37  1  0.75000000  0.51221100  0.62990600  1
  O  O38  1  0.75000000  0.98778900  0.12990600  1
  O  O39  1  0.25000000  0.01221100  0.87009400  1
loop_
_geom_bond_atom_site_label_1
_geom_bond_atom_site_label_2
_geom_bond_distance
_geom_bond_site_symmetry_2
K0 O26 2.707916 1_555
K0 O31 2.707916 1_555
K0 O33 2.749095 1_555
K0 O38 2.869599 1_545
K0 O17 2.896388 1_555
K0 O12 2.896388 1_655
K0 O8 3.067158 1_545
K1 O27 2.707916 1_555
K1 O30 2.707916 1_555
K1 O32 2.749095 1_555
K1 O39 2.869599 1_565
K1 O16 2.896388 1_455
K1 O13 2.896388 1_555
K1 O9 3.067158 1_565
K2 O29 2.707916 1_555
K2 O24 2.707916 1_555
K2 O35 2.749095 1_555
K2 O36 2.869599 1_555
K2 O19 2.896388 1_555
K2 O14 2.896388 1_455
K2 O10 3.067158 1_555
K3 O25 2.707916 1_555
K3 O28 2.707916 1_555
K3 O34 2.749095 1_555
K3 O37 2.869599 1_555
K3 O15 2.896388 1_555
K3 O18 2.896388 1_655
K3 O11 3.067158 1_555
K4 O12 2.780257 1_555
K4 O17 2.780257 1_555
K4 O26 2.797093 1_455
K4 O31 2.797093 1_555
K4 O36 3.022292 1_555
K4 O35 3.080345 1_545
K5 O16 2.780257 1_555
K5 O13 2.780257 1_555
K5 O27 2.797093 1_555
K5 O30 2.797093 1_655
K5 O37 3.022292 1_555
K5 O34 3.080345 1_565
K6 O14 2.780257 1_555
K6 O19 2.780257 1_555
K6 O29 2.797093 1_555
K6 O24 2.797093 1_655
K6 O38 3.022292 1_555
K6 O33 3.080345 1_555
K7 O18 2.780257 1_555
K7 O15 2.780257 1_555
K7 O25 2.797093 1_555
K7 O28 2.797093 1_455
K7 O39 3.022292 1_555
K7 O32 3.080345 1_555
O0 W0 1.980271 1_655
O0 U1 2.302385 1_555
O0 U0 2.399603 1_655
O1 W1 1.980271 1_555
O1 U0 2.302385 1_555
O1 U1 2.399603 1_555
O2 W2 1.980271 1_455
O2 U3 2.302385 1_544
O2 U2 2.399603 1_455
O3 W3 1.980271 1_555
O3 U2 2.302385 1_566
O3 U3 2.399603 1_555
O4 W4 1.980271 1_455
O4 U0 2.302385 1_555
O4 U1 2.399603 1_455
O5 W5 1.980271 1_555
O5 U1 2.302385 1_555
O5 U0 2.399603 1_555
O6 W6 1.980271 1_655
O6 U2 2.302385 1_566
O6 U3 2.399603 1_655
O7 W7 1.980271 1_555
O7 U3 2.302385 1_544
O7 U2 2.399603 1_555
O8 W0 1.942440 1_655
O8 W5 1.942440 1_555
O9 W1 1.942440 1_555
O9 W4 1.942440 1_455
O10 W7 1.942440 1_555
O10 W2 1.942440 1_455
O11 W6 1.942440 1_655
O11 W3 1.942440 1_555
O12 W0 1.896998 1_545
O12 W4 2.207446 1_455
O13 W1 1.896998 1_565
O13 W5 2.207446 1_555
O14 W2 1.896998 1_555
O14 W6 2.207446 1_654
O15 W3 1.896998 1_555
O15 W7 2.207446 1_556
O16 W4 1.896998 1_565
O16 W0 2.207446 1_655
O17 W5 1.896998 1_545
O17 W1 2.207446 1_555
O18 W6 1.896998 1_555
O18 W2 2.207446 1_456
O19 W7 1.896998 1_555
O19 W3 2.207446 1_554
O20 W5 2.013372 1_555
O20 W0 2.013372 1_555
O20 U0 2.543944 1_555
O21 W4 2.013372 1_555
O21 W1 2.013372 1_555
O21 U1 2.543944 1_555
O22 W2 2.013372 1_555
O22 W7 2.013372 1_555
O22 U2 2.543944 1_555
O23 W6 2.013372 1_555
O23 W3 2.013372 1_555
O23 U3 2.543944 1_555
O24 W0 1.784640 1_555
O25 W1 1.784640 1_555
O26 W2 1.784640 1_555
O27 W3 1.784640 1_555
O28 W4 1.784640 1_555
O29 W5 1.784640 1_555
O30 W6 1.784640 1_555
O31 W7 1.784640 1_555
O32 U0 1.831540 1_555
O33 U1 1.831540 1_555
O34 U2 1.831540 1_556
O35 U3 1.831540 1_554
O36 U0 1.835982 1_555
O37 U1 1.835982 1_555
O38 U2 1.835982 1_565
O39 U3 1.835982 1_545
