# generated using pymatgen
data_Lu4Mo4O11
_symmetry_space_group_name_H-M   'P 1'
_cell_length_a   5.66874800
_cell_length_b   10.66881850
_cell_length_c   15.86257151
_cell_angle_alpha   90.49133601
_cell_angle_beta   90.00000000
_cell_angle_gamma   90.00000000
_symmetry_Int_Tables_number   1
_chemical_formula_structural   Lu4Mo4O11
_chemical_formula_sum   'Lu16 Mo16 O44'
_cell_volume   959.31470637
_cell_formula_units_Z   4
loop_
 _symmetry_equiv_pos_site_id
 _symmetry_equiv_pos_as_xyz
  1  'x, y, z'
loop_
 _atom_site_type_symbol
 _atom_site_label
 _atom_site_symmetry_multiplicity
 _atom_site_fract_x
 _atom_site_fract_y
 _atom_site_fract_z
 _atom_site_occupancy
  Lu  Lu0  1  0.00000000  0.89901300  0.76875700  1
  Lu  Lu1  1  0.00000000  0.39329700  0.42005300  1
  Lu  Lu2  1  0.00000000  0.40467300  0.73788200  1
  Lu  Lu3  1  0.50000000  0.31807200  0.27654600  1
  Lu  Lu4  1  0.50000000  0.07528400  0.09832000  1
  Lu  Lu5  1  0.50000000  0.92471600  0.90168000  1
  Lu  Lu6  1  0.00000000  0.60670300  0.57994700  1
  Lu  Lu7  1  0.50000000  0.68192800  0.72345400  1
  Lu  Lu8  1  0.50000000  0.57819400  0.40091500  1
  Lu  Lu9  1  0.00000000  0.10098700  0.23124300  1
  Lu  Lu10  1  0.00000000  0.88775500  0.07702400  1
  Lu  Lu11  1  0.50000000  0.18115700  0.77549200  1
  Lu  Lu12  1  0.00000000  0.11224500  0.92297600  1
  Lu  Lu13  1  0.50000000  0.81884300  0.22450800  1
  Lu  Lu14  1  0.50000000  0.42180600  0.59908500  1
  Lu  Lu15  1  0.00000000  0.59532700  0.26211800  1
  Mo  Mo0  1  0.00000000  0.41416700  0.93854200  1
  Mo  Mo1  1  0.50000000  0.40226100  0.92821800  1
  Mo  Mo2  1  0.27444000  0.63637900  0.91440300  1
  Mo  Mo3  1  0.00000000  0.90509800  0.56762700  1
  Mo  Mo4  1  0.22841200  0.85985800  0.41033500  1
  Mo  Mo5  1  0.00000000  0.58583300  0.06145800  1
  Mo  Mo6  1  0.50000000  0.09572900  0.42995500  1
  Mo  Mo7  1  0.50000000  0.90427100  0.57004500  1
  Mo  Mo8  1  0.27444000  0.36362100  0.08559700  1
  Mo  Mo9  1  0.77158800  0.85985800  0.41033500  1
  Mo  Mo10  1  0.50000000  0.59773900  0.07178200  1
  Mo  Mo11  1  0.72556000  0.36362100  0.08559700  1
  Mo  Mo12  1  0.72556000  0.63637900  0.91440300  1
  Mo  Mo13  1  0.77158800  0.14014200  0.58966500  1
  Mo  Mo14  1  0.00000000  0.09490200  0.43237300  1
  Mo  Mo15  1  0.22841200  0.14014200  0.58966500  1
  O  O0  1  0.75131500  0.53710900  0.67281300  1
  O  O1  1  0.24888700  0.03830800  0.82876400  1
  O  O2  1  0.24925300  0.50000000  0.50000000  1
  O  O3  1  0.50000000  0.75084100  0.98652400  1
  O  O4  1  0.26639400  0.22317600  0.17478000  1
  O  O5  1  0.00000000  0.54673300  0.84422200  1
  O  O6  1  0.23762700  0.69312500  0.14101200  1
  O  O7  1  0.73360600  0.22317600  0.17478000  1
  O  O8  1  0.24522500  0.00000000  0.00000000  1
  O  O9  1  0.50000000  0.23864300  0.52553200  1
  O  O10  1  0.76237300  0.69312500  0.14101200  1
  O  O11  1  0.50000000  0.05443000  0.66070300  1
  O  O12  1  0.50000000  0.24915900  0.01347600  1
  O  O13  1  0.50000000  0.94557000  0.33929700  1
  O  O14  1  0.00000000  0.03800800  0.66536200  1
  O  O15  1  0.00000000  0.24766500  0.51736200  1
  O  O16  1  0.75477500  0.00000000  0.00000000  1
  O  O17  1  0.00000000  0.26414300  0.02154200  1
  O  O18  1  0.50000000  0.45967400  0.16785200  1
  O  O19  1  0.24468800  0.19620200  0.35731600  1
  O  O20  1  0.24888700  0.96169200  0.17123600  1
  O  O21  1  0.23762700  0.30687500  0.85898800  1
  O  O22  1  0.73360600  0.77682400  0.82522000  1
  O  O23  1  0.24868500  0.46289100  0.32718700  1
  O  O24  1  0.75111300  0.96169200  0.17123600  1
  O  O25  1  0.50000000  0.54032600  0.83214800  1
  O  O26  1  0.00000000  0.96199200  0.33463800  1
  O  O27  1  0.00000000  0.45326700  0.15577800  1
  O  O28  1  0.75131500  0.46289100  0.32718700  1
  O  O29  1  0.76237300  0.30687500  0.85898800  1
  O  O30  1  0.73896700  0.27964200  0.67882300  1
  O  O31  1  0.75531200  0.19620200  0.35731600  1
  O  O32  1  0.26103400  0.27964200  0.67882300  1
  O  O33  1  0.75074700  0.50000000  0.50000000  1
  O  O34  1  0.24868500  0.53710900  0.67281300  1
  O  O35  1  0.26103400  0.72035800  0.32117700  1
  O  O36  1  0.26639400  0.77682400  0.82522000  1
  O  O37  1  0.00000000  0.73585700  0.97845800  1
  O  O38  1  0.73896700  0.72035800  0.32117700  1
  O  O39  1  0.24468800  0.80379800  0.64268300  1
  O  O40  1  0.75531200  0.80379800  0.64268300  1
  O  O41  1  0.50000000  0.76135700  0.47446800  1
  O  O42  1  0.00000000  0.75233500  0.48263800  1
  O  O43  1  0.75111300  0.03830800  0.82876400  1
loop_
_geom_bond_atom_site_label_1
_geom_bond_atom_site_label_2
_geom_bond_distance
_geom_bond_site_symmetry_2
Lu0 O36 2.191365 1_555
Lu0 O22 2.191365 1_455
Lu0 O14 2.220519 1_565
Lu0 O1 2.254084 1_565
Lu0 O43 2.254084 1_465
Lu0 O40 2.630680 1_455
Lu0 O39 2.630680 1_555
Lu1 O23 2.174257 1_555
Lu1 O28 2.174257 1_455
Lu1 O15 2.199498 1_555
Lu1 O2 2.208135 1_555
Lu1 O33 2.208135 1_455
Lu1 O19 2.701869 1_555
Lu1 O31 2.701869 1_455
Lu2 O30 2.196632 1_455
Lu2 O32 2.196636 1_555
Lu2 O34 2.252577 1_555
Lu2 O0 2.252577 1_455
Lu2 O5 2.258011 1_555
Lu2 O21 2.574494 1_555
Lu2 O29 2.574494 1_455
Lu3 O28 2.245167 1_555
Lu3 O23 2.245167 1_555
Lu3 O18 2.302111 1_555
Lu3 O7 2.314411 1_555
Lu3 O4 2.314411 1_555
Lu3 O19 2.335661 1_555
Lu3 O31 2.335661 1_555
Lu4 O24 2.203831 1_545
Lu4 O20 2.203831 1_545
Lu4 O8 2.267572 1_555
Lu4 O16 2.267572 1_555
Lu4 O12 2.301150 1_555
Lu4 O7 2.383567 1_555
Lu4 O4 2.383567 1_555
Lu5 O43 2.203831 1_565
Lu5 O1 2.203831 1_565
Lu5 O16 2.267572 1_566
Lu5 O8 2.267572 1_566
Lu5 O3 2.301150 1_555
Lu5 O22 2.383567 1_555
Lu5 O36 2.383567 1_555
Lu6 O34 2.174257 1_555
Lu6 O0 2.174257 1_455
Lu6 O42 2.199498 1_555
Lu6 O2 2.208135 1_555
Lu6 O33 2.208135 1_455
Lu6 O40 2.701863 1_455
Lu6 O39 2.701863 1_555
Lu7 O0 2.245167 1_555
Lu7 O34 2.245167 1_555
Lu7 O25 2.302111 1_555
Lu7 O22 2.314411 1_555
Lu7 O36 2.314411 1_555
Lu7 O40 2.335670 1_555
Lu7 O39 2.335670 1_555
Lu8 O28 2.210420 1_555
Lu8 O23 2.210420 1_555
Lu8 O41 2.267336 1_555
Lu8 O33 2.282379 1_555
Lu8 O2 2.282379 1_555
Lu8 O35 2.401715 1_555
Lu8 O38 2.401719 1_555
Lu9 O4 2.191365 1_555
Lu9 O7 2.191365 1_455
Lu9 O26 2.220519 1_545
Lu9 O20 2.254084 1_545
Lu9 O24 2.254084 1_445
Lu9 O19 2.630668 1_555
Lu9 O31 2.630668 1_455
Lu10 O20 2.196807 1_555
Lu10 O24 2.196807 1_455
Lu10 O16 2.210062 1_465
Lu10 O8 2.210062 1_565
Lu10 O37 2.242178 1_554
Lu10 O6 2.681916 1_555
Lu10 O10 2.681916 1_455
Lu11 O43 2.255033 1_555
Lu11 O1 2.255033 1_555
Lu11 O11 2.258594 1_555
Lu11 O32 2.306092 1_555
Lu11 O30 2.306095 1_555
Lu11 O29 2.394756 1_555
Lu11 O21 2.394756 1_555
Lu12 O1 2.196807 1_555
Lu12 O43 2.196807 1_455
Lu12 O8 2.210062 1_556
Lu12 O16 2.210062 1_456
Lu12 O17 2.242178 1_556
Lu12 O21 2.681916 1_555
Lu12 O29 2.681916 1_455
Lu13 O24 2.255033 1_555
Lu13 O20 2.255033 1_555
Lu13 O13 2.258594 1_555
Lu13 O35 2.306092 1_555
Lu13 O38 2.306095 1_555
Lu13 O10 2.394756 1_555
Lu13 O6 2.394756 1_555
Lu14 O0 2.210420 1_555
Lu14 O34 2.210420 1_555
Lu14 O9 2.267336 1_555
Lu14 O33 2.282379 1_555
Lu14 O2 2.282379 1_555
Lu14 O32 2.401715 1_555
Lu14 O30 2.401719 1_555
Lu15 O38 2.196632 1_455
Lu15 O35 2.196636 1_555
Lu15 O28 2.252577 1_455
Lu15 O23 2.252577 1_555
Lu15 O27 2.258011 1_555
Lu15 O6 2.574494 1_555
Lu15 O10 2.574494 1_455
Mo0 O5 2.067629 1_555
Mo0 O17 2.081205 1_556
Mo0 O21 2.166223 1_555
Mo0 O29 2.166223 1_455
Mo1 O29 2.105841 1_555
Mo1 O21 2.105841 1_555
Mo1 O25 2.128503 1_555
Mo1 O12 2.129543 1_556
Mo2 O36 2.069995 1_555
Mo2 O25 2.089161 1_555
Mo2 O3 2.100244 1_555
Mo2 O5 2.134502 1_555
Mo2 O37 2.135557 1_555
Mo3 O14 2.092013 1_565
Mo3 O42 2.106195 1_555
Mo3 O39 2.128744 1_555
Mo3 O40 2.128744 1_455
Mo4 O35 2.052635 1_555
Mo4 O26 2.080410 1_555
Mo4 O42 2.080971 1_555
Mo4 O13 2.119887 1_555
Mo4 O41 2.127884 1_555
Mo5 O27 2.067629 1_555
Mo5 O37 2.081205 1_554
Mo5 O6 2.166223 1_555
Mo5 O10 2.166223 1_455
Mo6 O9 2.140954 1_555
Mo6 O19 2.143023 1_555
Mo6 O31 2.143023 1_555
Mo6 O13 2.143594 1_545
Mo7 O41 2.140954 1_555
Mo7 O40 2.143015 1_555
Mo7 O39 2.143015 1_555
Mo7 O11 2.143594 1_565
Mo8 O4 2.069995 1_555
Mo8 O18 2.089161 1_555
Mo8 O12 2.100244 1_555
Mo8 O27 2.134502 1_555
Mo8 O17 2.135557 1_555
Mo9 O38 2.052634 1_555
Mo9 O26 2.080410 1_655
Mo9 O42 2.080971 1_655
Mo9 O13 2.119887 1_555
Mo9 O41 2.127884 1_555
Mo10 O10 2.105841 1_555
Mo10 O6 2.105841 1_555
Mo10 O18 2.128503 1_555
Mo10 O3 2.129543 1_554
Mo11 O7 2.069995 1_555
Mo11 O18 2.089161 1_555
Mo11 O12 2.100244 1_555
Mo11 O27 2.134502 1_655
Mo11 O17 2.135557 1_655
Mo12 O22 2.069995 1_555
Mo12 O25 2.089161 1_555
Mo12 O3 2.100244 1_555
Mo12 O5 2.134502 1_655
Mo12 O37 2.135557 1_655
Mo13 O30 2.052634 1_555
Mo13 O14 2.080410 1_655
Mo13 O15 2.080971 1_655
Mo13 O11 2.119887 1_555
Mo13 O9 2.127884 1_555
Mo14 O26 2.092013 1_545
Mo14 O15 2.106195 1_555
Mo14 O31 2.128753 1_455
Mo14 O19 2.128753 1_555
Mo15 O32 2.052635 1_555
Mo15 O14 2.080410 1_555
Mo15 O15 2.080971 1_555
Mo15 O11 2.119887 1_555
Mo15 O9 2.127884 1_555
