# generated using pymatgen
data_K2Zn(SO4)2
_symmetry_space_group_name_H-M   'P 1'
_cell_length_a   8.94267000
_cell_length_b   5.44336500
_cell_length_c   17.06914112
_cell_angle_alpha   73.21884049
_cell_angle_beta   90.00000000
_cell_angle_gamma   90.00000000
_symmetry_Int_Tables_number   1
_chemical_formula_structural   K2Zn(SO4)2
_chemical_formula_sum   'K8 Zn4 S8 O32'
_cell_volume   795.51124913
_cell_formula_units_Z   4
loop_
 _symmetry_equiv_pos_site_id
 _symmetry_equiv_pos_as_xyz
  1  'x, y, z'
loop_
 _atom_site_type_symbol
 _atom_site_label
 _atom_site_symmetry_multiplicity
 _atom_site_fract_x
 _atom_site_fract_y
 _atom_site_fract_z
 _atom_site_occupancy
  K  K0  1  0.85571300  0.00473800  0.72838900  1
  K  K1  1  0.82588200  0.78703500  0.47744600  1
  K  K2  1  0.35571300  0.99526200  0.77161100  1
  K  K3  1  0.67411800  0.78703500  0.97744600  1
  K  K4  1  0.14428700  0.99526200  0.27161100  1
  K  K5  1  0.17411800  0.21296500  0.52255400  1
  K  K6  1  0.32588200  0.21296500  0.02255400  1
  K  K7  1  0.64428700  0.00473800  0.22838900  1
  Zn  Zn0  1  0.02994000  0.61587500  0.13048300  1
  Zn  Zn1  1  0.97006000  0.38412500  0.86951700  1
  Zn  Zn2  1  0.47006000  0.61587500  0.63048300  1
  Zn  Zn3  1  0.52994000  0.38412500  0.36951700  1
  S  S0  1  0.38421300  0.58797000  0.17675200  1
  S  S1  1  0.89004900  0.18209200  0.07218400  1
  S  S2  1  0.11578700  0.58797000  0.67675200  1
  S  S3  1  0.60995100  0.18209200  0.57218400  1
  S  S4  1  0.10995100  0.81790800  0.92781600  1
  S  S5  1  0.39004900  0.81790800  0.42781600  1
  S  S6  1  0.88421300  0.41203000  0.32324800  1
  S  S7  1  0.61578700  0.41203000  0.82324800  1
  O  O0  1  0.61789900  0.18215200  0.48532600  1
  O  O1  1  0.23459200  0.67082800  0.90767400  1
  O  O2  1  0.04550400  0.60228100  0.75545000  1
  O  O3  1  0.37876300  0.32094700  0.17238800  1
  O  O4  1  0.96284900  0.70779000  0.90988600  1
  O  O5  1  0.53187600  0.24104600  0.89244300  1
  O  O6  1  0.03187600  0.75895400  0.60755700  1
  O  O7  1  0.26540800  0.67082800  0.40767400  1
  O  O8  1  0.38048100  0.09369700  0.37489500  1
  O  O9  1  0.76540800  0.32917200  0.09232600  1
  O  O10  1  0.11951900  0.09369700  0.87489500  1
  O  O11  1  0.95449600  0.39771900  0.24455000  1
  O  O12  1  0.45449600  0.60228100  0.25545000  1
  O  O13  1  0.53715100  0.70779000  0.40988600  1
  O  O14  1  0.61951900  0.90630300  0.62510500  1
  O  O15  1  0.88048100  0.90630300  0.12510500  1
  O  O16  1  0.77351800  0.30917300  0.82244400  1
  O  O17  1  0.46812400  0.75895400  0.10755700  1
  O  O18  1  0.27351800  0.69082700  0.67755600  1
  O  O19  1  0.62123700  0.67905300  0.82761200  1
  O  O20  1  0.12123700  0.32094700  0.67238800  1
  O  O21  1  0.73459200  0.32917200  0.59232600  1
  O  O22  1  0.54550400  0.39771900  0.74455000  1
  O  O23  1  0.46284900  0.29221000  0.59011400  1
  O  O24  1  0.11789900  0.81784800  0.01467400  1
  O  O25  1  0.96812400  0.24104600  0.39244300  1
  O  O26  1  0.87876300  0.67905300  0.32761200  1
  O  O27  1  0.88210100  0.18215200  0.98532600  1
  O  O28  1  0.22648200  0.69082700  0.17755600  1
  O  O29  1  0.38210100  0.81784800  0.51467400  1
  O  O30  1  0.72648200  0.30917300  0.32244400  1
  O  O31  1  0.03715100  0.29221000  0.09011400  1
loop_
_geom_bond_atom_site_label_1
_geom_bond_atom_site_label_2
_geom_bond_distance
_geom_bond_site_symmetry_2
K0 O2 2.703502 1_645
K0 O21 2.705097 1_555
K0 O16 2.720313 1_555
K0 O14 2.898626 1_545
K0 O20 2.926526 1_655
K0 O19 2.945221 1_545
K0 O6 3.181039 1_645
K0 O4 3.199484 1_545
K1 O25 2.785725 1_565
K1 O21 2.810911 1_555
K1 O26 2.824565 1_555
K1 O6 2.855368 1_655
K1 O0 2.875804 1_565
K1 O13 2.910330 1_555
K2 O22 2.703502 1_565
K2 O1 2.705097 1_555
K2 O18 2.720313 1_555
K2 O10 2.898626 1_565
K2 O19 2.926526 1_555
K2 O20 2.945221 1_565
K2 O5 3.181039 1_565
K2 O23 3.199484 1_565
K3 O5 2.785725 1_565
K3 O9 2.810911 1_556
K3 O19 2.824565 1_555
K3 O17 2.855368 1_556
K3 O27 2.875804 1_565
K3 O4 2.910330 1_555
K4 O11 2.703502 1_465
K4 O7 2.705097 1_555
K4 O28 2.720313 1_555
K4 O8 2.898626 1_565
K4 O26 2.926526 1_455
K4 O3 2.945221 1_565
K4 O25 3.181039 1_465
K4 O31 3.199484 1_565
K5 O6 2.785725 1_545
K5 O7 2.810911 1_555
K5 O20 2.824565 1_555
K5 O25 2.855368 1_455
K5 O29 2.875804 1_545
K5 O23 2.910330 1_555
K6 O17 2.785725 1_545
K6 O1 2.810911 1_554
K6 O3 2.824565 1_555
K6 O5 2.855368 1_554
K6 O24 2.875804 1_545
K6 O31 2.910330 1_555
K7 O12 2.703502 1_545
K7 O9 2.705097 1_555
K7 O30 2.720313 1_555
K7 O15 2.898626 1_545
K7 O3 2.926526 1_555
K7 O26 2.945221 1_545
K7 O17 3.181039 1_545
K7 O13 3.199484 1_545
O0 S3 1.484200 1_555
O0 Zn3 2.116622 1_555
O1 S4 1.469866 1_555
O2 S2 1.505325 1_555
O2 Zn1 2.078742 1_455
O3 S0 1.477537 1_555
O4 S4 1.513074 1_655
O4 Zn1 2.069786 1_555
O5 S7 1.479720 1_555
O6 S2 1.479720 1_555
O7 S5 1.469866 1_555
O8 S5 1.514569 1_545
O8 Zn3 2.051899 1_555
O9 S1 1.469866 1_555
O10 S4 1.514569 1_545
O10 Zn1 2.051899 1_455
O11 S6 1.505325 1_555
O11 Zn0 2.078742 1_655
O12 S0 1.505325 1_555
O12 Zn3 2.078742 1_555
O13 S5 1.513074 1_555
O13 Zn3 2.069786 1_555
O14 S3 1.514569 1_565
O14 Zn2 2.051899 1_555
O15 S1 1.514569 1_565
O15 Zn0 2.051899 1_655
O16 S7 1.519116 1_555
O16 Zn1 2.022511 1_555
O17 S0 1.479720 1_555
O18 S2 1.519116 1_555
O18 Zn2 2.022511 1_555
O19 S7 1.477537 1_555
O20 S2 1.477537 1_555
O21 S3 1.469866 1_555
O22 S7 1.505325 1_555
O22 Zn2 2.078742 1_555
O23 S3 1.513074 1_555
O23 Zn2 2.069786 1_555
O24 S4 1.484200 1_554
O24 Zn0 2.116622 1_555
O25 S6 1.479720 1_555
O26 S6 1.477537 1_555
O27 S1 1.484200 1_556
O27 Zn1 2.116622 1_555
O28 S0 1.519116 1_555
O28 Zn0 2.022511 1_555
O29 S5 1.484200 1_555
O29 Zn2 2.116622 1_555
O30 S6 1.519116 1_555
O30 Zn3 2.022511 1_555
O31 S1 1.513074 1_455
O31 Zn0 2.069786 1_555
