# generated using pymatgen
data_Fe2O3
_symmetry_space_group_name_H-M   'P 1'
_cell_length_a   5.21533700
_cell_length_b   8.95247400
_cell_length_c   9.59551900
_cell_angle_alpha   90.00000000
_cell_angle_beta   90.00000000
_cell_angle_gamma   90.00000000
_symmetry_Int_Tables_number   1
_chemical_formula_structural   Fe2O3
_chemical_formula_sum   'Fe16 O24'
_cell_volume   448.01640273
_cell_formula_units_Z   8
loop_
 _symmetry_equiv_pos_site_id
 _symmetry_equiv_pos_as_xyz
  1  'x, y, z'
loop_
 _atom_site_type_symbol
 _atom_site_label
 _atom_site_symmetry_multiplicity
 _atom_site_fract_x
 _atom_site_fract_y
 _atom_site_fract_z
 _atom_site_occupancy
  Fe  Fe0  1  0.68771100  0.34032700  0.87180800  1
  Fe  Fe1  1  0.31228900  0.65967300  0.37180800  1
  Fe  Fe2  1  0.18771100  0.15967300  0.87180800  1
  Fe  Fe3  1  0.81228900  0.84032700  0.37180800  1
  Fe  Fe4  1  0.67770600  0.65106900  0.06188200  1
  Fe  Fe5  1  0.17770600  0.84893100  0.06188200  1
  Fe  Fe6  1  0.82229400  0.15106900  0.56188200  1
  Fe  Fe7  1  0.32229400  0.34893100  0.56188200  1
  Fe  Fe8  1  0.69141000  0.65270700  0.64497200  1
  Fe  Fe9  1  0.80859000  0.15270700  0.14497200  1
  Fe  Fe10  1  0.30859000  0.34729300  0.14497200  1
  Fe  Fe11  1  0.19141000  0.84729300  0.64497200  1
  Fe  Fe12  1  0.17561800  0.53155400  0.85944700  1
  Fe  Fe13  1  0.67561800  0.96844600  0.85944700  1
  Fe  Fe14  1  0.82438200  0.46844600  0.35944700  1
  Fe  Fe15  1  0.32438200  0.03155400  0.35944700  1
  O  O0  1  0.83833500  0.15897900  0.76255800  1
  O  O1  1  0.33833500  0.34102100  0.76255800  1
  O  O2  1  0.16166500  0.84102100  0.26255800  1
  O  O3  1  0.66166500  0.65897900  0.26255800  1
  O  O4  1  0.65379400  0.33060400  0.23401800  1
  O  O5  1  0.34620600  0.66939600  0.73401800  1
  O  O6  1  0.15379400  0.16939600  0.23401800  1
  O  O7  1  0.84620600  0.83060400  0.73401800  1
  O  O8  1  0.15917000  0.50023900  0.26640300  1
  O  O9  1  0.34083000  0.00023900  0.76640300  1
  O  O10  1  0.65917000  0.99976100  0.26640300  1
  O  O11  1  0.84083000  0.49976100  0.76640300  1
  O  O12  1  0.98217800  0.67669100  0.49178800  1
  O  O13  1  0.01782200  0.32330900  0.99178800  1
  O  O14  1  0.48217800  0.82330900  0.49178800  1
  O  O15  1  0.51782200  0.17669100  0.99178800  1
  O  O16  1  0.47838200  0.16836600  0.49856800  1
  O  O17  1  0.02161800  0.66836600  0.99856800  1
  O  O18  1  0.97838200  0.33163400  0.49856800  1
  O  O19  1  0.52161800  0.83163400  0.99856800  1
  O  O20  1  0.02521400  0.98836600  0.49605500  1
  O  O21  1  0.97478600  0.01163400  0.99605500  1
  O  O22  1  0.52521400  0.51163400  0.49605500  1
  O  O23  1  0.47478600  0.48836600  0.99605500  1
loop_
_geom_bond_atom_site_label_1
_geom_bond_atom_site_label_2
_geom_bond_distance
_geom_bond_site_symmetry_2
Fe0 O11 1.923002 1_555
Fe0 O15 2.063138 1_555
Fe0 O13 2.076699 1_655
Fe0 O0 2.086108 1_555
Fe0 O23 2.100236 1_555
Fe0 O1 2.102163 1_555
Fe1 O8 1.923002 1_555
Fe1 O14 2.063138 1_555
Fe1 O12 2.076699 1_455
Fe1 O2 2.086108 1_555
Fe1 O22 2.100236 1_555
Fe1 O3 2.102163 1_555
Fe2 O9 1.923002 1_555
Fe2 O13 2.063138 1_555
Fe2 O15 2.076699 1_555
Fe2 O1 2.086108 1_555
Fe2 O21 2.100236 1_455
Fe2 O0 2.102163 1_455
Fe3 O10 1.923002 1_555
Fe3 O12 2.063138 1_555
Fe3 O14 2.076699 1_555
Fe3 O3 2.086108 1_555
Fe3 O20 2.100236 1_655
Fe3 O2 2.102163 1_655
Fe4 O17 1.900035 1_654
Fe4 O23 1.908044 1_554
Fe4 O19 1.909151 1_554
Fe4 O3 1.928707 1_555
Fe5 O19 1.900035 1_554
Fe5 O21 1.908044 1_464
Fe5 O17 1.909151 1_554
Fe5 O2 1.928707 1_555
Fe6 O16 1.900035 1_555
Fe6 O20 1.908044 1_645
Fe6 O18 1.909151 1_555
Fe6 O0 1.928707 1_555
Fe7 O18 1.900035 1_455
Fe7 O22 1.908044 1_555
Fe7 O16 1.909151 1_555
Fe7 O1 1.928707 1_555
Fe8 O11 1.959535 1_555
Fe8 O7 1.979459 1_555
Fe8 O5 1.998418 1_555
Fe8 O22 2.094802 1_555
Fe8 O12 2.122800 1_555
Fe8 O14 2.384109 1_555
Fe9 O10 1.959535 1_545
Fe9 O4 1.979459 1_555
Fe9 O6 1.998418 1_655
Fe9 O21 2.094802 1_554
Fe9 O15 2.122800 1_554
Fe9 O13 2.384109 1_654
Fe10 O8 1.959535 1_555
Fe10 O6 1.979459 1_555
Fe10 O4 1.998418 1_555
Fe10 O23 2.094802 1_554
Fe10 O13 2.122800 1_554
Fe10 O15 2.384109 1_554
Fe11 O9 1.959535 1_565
Fe11 O5 1.979459 1_555
Fe11 O7 1.998418 1_455
Fe11 O20 2.094802 1_555
Fe11 O14 2.122800 1_555
Fe11 O12 2.384109 1_455
Fe12 O5 1.939817 1_555
Fe12 O11 1.981601 1_455
Fe12 O17 1.981736 1_555
Fe12 O23 2.074167 1_555
Fe12 O1 2.119920 1_555
Fe12 O13 2.401146 1_555
Fe13 O7 1.939817 1_555
Fe13 O9 1.981601 1_565
Fe13 O19 1.981736 1_555
Fe13 O21 2.074167 1_565
Fe13 O0 2.119920 1_565
Fe13 O15 2.401146 1_565
Fe14 O4 1.939817 1_555
Fe14 O8 1.981601 1_655
Fe14 O18 1.981736 1_555
Fe14 O22 2.074167 1_555
Fe14 O3 2.119920 1_555
Fe14 O12 2.401146 1_555
Fe15 O6 1.939817 1_555
Fe15 O10 1.981601 1_545
Fe15 O16 1.981736 1_555
Fe15 O20 2.074167 1_545
Fe15 O2 2.119920 1_545
Fe15 O14 2.401146 1_545
