# generated using pymatgen
data_Sc(PO3)3
_symmetry_space_group_name_H-M   'P 1'
_cell_length_a   9.67959434
_cell_length_b   10.91756868
_cell_length_c   11.89517128
_cell_angle_alpha   113.72812671
_cell_angle_beta   110.06783200
_cell_angle_gamma   97.98365244
_symmetry_Int_Tables_number   1
_chemical_formula_structural   Sc(PO3)3
_chemical_formula_sum   'Sc6 P18 O54'
_cell_volume   1023.31517293
_cell_formula_units_Z   6
loop_
 _symmetry_equiv_pos_site_id
 _symmetry_equiv_pos_as_xyz
  1  'x, y, z'
loop_
 _atom_site_type_symbol
 _atom_site_label
 _atom_site_symmetry_multiplicity
 _atom_site_fract_x
 _atom_site_fract_y
 _atom_site_fract_z
 _atom_site_occupancy
  Sc  Sc0  1  0.58264214  0.59645521  0.17826821  1
  Sc  Sc1  1  0.56984835  0.08295983  0.15587864  1
  Sc  Sc2  1  0.90437294  0.41818600  0.82173179  1
  Sc  Sc3  1  0.25470506  0.23160390  0.48779302  1
  Sc  Sc4  1  0.26691204  0.74381088  0.51220698  1
  Sc  Sc5  1  0.91396971  0.92708219  0.84412136  1
  P  P0  1  0.99220829  0.15435688  0.60106407  1
  P  P1  1  0.21043081  0.89246694  0.06287964  1
  P  P2  1  0.83369505  0.68185802  0.05672166  1
  P  P3  1  0.17393047  0.00565587  0.72738071  1
  P  P4  1  0.54732837  0.21094355  0.72647839  1
  P  P5  1  0.79974366  0.56973695  0.62094995  1
  P  P6  1  0.27697439  0.62513636  0.94327934  1
  P  P7  1  0.62568438  0.94551290  0.60824565  1
  P  P8  1  0.00458111  0.29314581  0.04853241  1
  P  P9  1  0.94654977  0.27827516  0.27261929  1
  P  P10  1  0.67879372  0.94878700  0.37905005  1
  P  P11  1  0.45604870  0.24461440  0.95146759  1
  P  P12  1  0.64755217  0.82958730  0.93712036  1
  P  P13  1  0.37119814  0.58908143  0.71657626  1
  P  P14  1  0.15462188  0.87250617  0.28342474  1
  P  P15  1  0.32085098  0.48446516  0.27352161  1
  P  P16  1  0.89114423  0.55329181  0.39893593  1
  P  P17  1  0.51743872  0.33726725  0.39175435  1
  O  O0  1  0.94531053  0.32646615  0.16295946  1
  O  O1  1  0.99581302  0.14292591  0.98313133  1
  O  O2  1  0.04959368  0.89365916  -0.00001786  1
  O  O3  1  0.98307743  0.76696666  0.19772316  1
  O  O4  1  0.84452289  0.06356916  0.45960219  1
  O  O5  1  0.71854408  0.59914529  0.07694307  1
  O  O6  1  0.88492069  0.60396696  0.54039781  1
  O  O7  1  0.10437005  0.23641618  0.57778188  1
  O  O8  1  0.81251989  0.70813982  0.72547709  1
  O  O9  1  0.28535327  0.56924350  0.80227684  1
  O  O10  1  0.24034649  0.82444672  0.37778189  1
  O  O11  1  0.26108875  0.92652717  0.66103482  1
  O  O12  1  0.55347285  0.26201074  0.87290884  1
  O  O13  1  0.38977491  0.36707504  0.29116058  1
  O  O14  1  0.80672731  0.15434694  0.20986324  1
  O  O15  1  0.04912681  0.03195581  0.62063135  1
  O  O16  1  0.43850929  0.25468672  0.43776508  1
  O  O17  1  0.22553414  0.84634956  0.17656986  1
  O  O18  1  0.62147594  0.49300549  0.51332021  1
  O  O19  1  0.87573507  0.60423136  0.94565983  1
  O  O20  1  0.50074422  0.81692064  0.56223392  1
  O  O21  1  0.26178941  0.54679499  0.37616348  1
  O  O22  1  0.69630737  0.80602421  0.33366847  1
  O  O23  1  0.36256459  0.44666482  0.62221711  1
  O  O24  1  0.33698120  0.02319680  0.11590974  1
  O  O25  1  0.58704380  0.98266173  0.27452291  1
  O  O26  1  0.77954065  0.80790470  0.04303905  1
  O  O27  1  0.54961154  0.89367703  0.00001786  1
  O  O28  1  0.23650060  0.76486565  0.95696095  1
  O  O29  1  0.66751681  0.31821039  0.73455340  1
  O  O30  1  0.14985397  0.01914723  0.34118189  1
  O  O31  1  0.78805062  0.94985259  0.67637956  1
  O  O32  1  0.61167106  0.27347303  0.32362044  1
  O  O33  1  0.60815574  0.97968529  0.48667979  1
  O  O34  1  0.94620439  0.23427880  0.70858754  1
  O  O35  1  0.51268169  0.15979459  0.01686967  1
  O  O36  1  0.38562693  0.17063151  0.62383752  1
  O  O37  1  0.18056401  0.38910190  0.12709116  1
  O  O38  1  0.86263990  0.47235675  0.66633153  1
  O  O39  1  0.43296341  0.58365700  0.26544660  1
  O  O40  1  0.09686408  0.94448470  0.79013576  1
  O  O41  1  0.45733336  0.38721188  0.03847179  1
  O  O42  1  0.92849546  0.41132546  0.37936865  1
  O  O43  1  0.59861433  0.07591446  0.70883942  1
  O  O44  1  0.91886157  0.34873909  0.96152821  1
  O  O45  1  0.14160101  0.52220222  0.92305693  1
  O  O46  1  0.30867308  0.67796635  0.65881811  1
  O  O47  1  0.10005393  0.26549235  0.33896518  1
  O  O48  1  0.43007424  0.65857153  0.05433917  1
  O  O49  1  0.28235007  0.16350669  0.83704054  1
  O  O50  1  0.73761785  0.52569026  0.29141246  1
  O  O51  1  0.54896428  0.66977870  0.82343014  1
  O  O52  1  0.72107146  0.90728605  0.88409026  1
  O  O53  1  0.02658816  0.65863429  0.42221812  1
loop_
_geom_bond_atom_site_label_1
_geom_bond_atom_site_label_2
_geom_bond_distance
_geom_bond_site_symmetry_2
O0 P8 1.584154 1_655
O0 P9 1.588022 1_555
O1 P8 1.480318 1_656
O1 Sc5 2.088390 1_545
O2 P1 1.482496 1_555
O2 Sc5 2.073901 1_454
O3 P2 1.573375 1_555
O3 P14 1.576582 1_655
O4 P0 1.571889 1_555
O4 P10 1.575525 1_545
O5 P2 1.481513 1_555
O5 Sc0 2.071202 1_555
O6 P16 1.571888 1_555
O6 P5 1.575525 1_555
O7 P0 1.481167 1_455
O7 Sc3 2.076318 1_555
O8 P5 1.474789 1_555
O8 Sc5 2.086060 1_555
O9 P6 1.573376 1_555
O9 P13 1.576585 1_555
O10 P14 1.476263 1_555
O10 Sc4 2.076432 1_555
O11 P3 1.480399 1_565
O11 Sc4 2.091445 1_555
O12 P4 1.576846 1_555
O12 P11 1.580014 1_555
O13 P17 1.573243 1_555
O13 P15 1.577821 1_555
O14 P9 1.484839 1_555
O14 Sc1 2.089858 1_555
O15 P3 1.578381 1_555
O15 P0 1.584395 1_455
O16 P17 1.479468 1_555
O16 Sc3 2.075031 1_555
O17 P14 1.590393 1_555
O17 P1 1.592645 1_555
O18 P5 1.593000 1_555
O18 P17 1.594495 1_555
O19 P2 1.480813 1_556
O19 Sc2 2.098253 1_555
O20 P7 1.479473 1_555
O20 Sc4 2.075033 1_555
O21 P15 1.482911 1_555
O21 Sc4 2.088479 1_555
O22 P10 1.486107 1_555
O22 Sc0 2.088930 1_555
O23 P13 1.476267 1_555
O23 Sc3 2.076430 1_555
O24 P1 1.481546 1_545
O24 Sc1 2.083005 1_555
O25 P10 1.474779 1_555
O25 Sc1 2.086059 1_565
O26 P12 1.579578 1_554
O26 P2 1.586526 1_555
O27 P12 1.482504 1_554
O27 Sc1 2.073894 1_565
O28 P1 1.579578 1_556
O28 P6 1.586536 1_555
O29 P4 1.479343 1_555
O29 Sc2 2.070124 1_555
O30 P14 1.481320 1_545
O30 Sc3 2.080261 1_555
O31 P7 1.484394 1_555
O31 Sc5 2.084002 1_555
O32 P17 1.484393 1_555
O32 Sc1 2.084007 1_555
O33 P10 1.592999 1_555
O33 P7 1.594495 1_555
O34 P0 1.481938 1_555
O34 Sc2 2.105163 1_555
O35 P11 1.480336 1_554
O35 Sc1 2.088388 1_555
O36 P4 1.482894 1_555
O36 Sc3 2.088492 1_555
O37 P15 1.576851 1_555
O37 P8 1.580017 1_555
O38 P5 1.486101 1_555
O38 Sc2 2.088946 1_555
O39 P15 1.479337 1_555
O39 Sc0 2.070133 1_555
O40 P3 1.484822 1_565
O40 Sc5 2.089865 1_455
O41 P11 1.477844 1_554
O41 Sc0 2.060085 1_555
O42 P9 1.578387 1_555
O42 P16 1.584374 1_555
O43 P7 1.573242 1_545
O43 P4 1.577826 1_555
O44 P8 1.477845 1_656
O44 Sc2 2.060083 1_555
O45 P6 1.481515 1_555
O45 Sc2 2.071213 1_455
O46 P13 1.481337 1_555
O46 Sc4 2.080253 1_555
O47 P9 1.480400 1_455
O47 Sc3 2.091446 1_555
O48 P6 1.480790 1_554
O48 Sc0 2.098263 1_555
O49 P11 1.584162 1_555
O49 P3 1.588020 1_555
O50 P16 1.481932 1_555
O50 Sc0 2.105179 1_555
O51 P13 1.590383 1_555
O51 P12 1.592654 1_555
O52 P12 1.481533 1_555
O52 Sc5 2.083006 1_555
O53 P16 1.481173 1_455
O53 Sc4 2.076318 1_555
