# generated using pymatgen
data_TaV2
_symmetry_space_group_name_H-M   'P 1'
_cell_length_a   5.02599077
_cell_length_b   5.02596356
_cell_length_c   5.02594656
_cell_angle_alpha   59.99973744
_cell_angle_beta   59.99988082
_cell_angle_gamma   60.00000325
_symmetry_Int_Tables_number   1
_chemical_formula_structural   TaV2
_chemical_formula_sum   'Ta2 V4'
_cell_volume   89.77236132
_cell_formula_units_Z   2
loop_
 _symmetry_equiv_pos_site_id
 _symmetry_equiv_pos_as_xyz
  1  'x, y, z'
loop_
 _atom_site_type_symbol
 _atom_site_label
 _atom_site_symmetry_multiplicity
 _atom_site_fract_x
 _atom_site_fract_y
 _atom_site_fract_z
 _atom_site_occupancy
  Ta  Ta0  1  0.12500622  0.12499828  0.12499485  1
  Ta  Ta1  1  0.87499378  0.87500172  0.87500515  1
  V  V0  1  0.50000000  0.50000000  -0.00000000  1
  V  V1  1  0.50000000  0.00000000  0.50000000  1
  V  V2  1  0.50000000  0.50000000  0.50000000  1
  V  V3  1  0.00000000  0.50000000  0.50000000  1
loop_
_geom_bond_atom_site_label_1
_geom_bond_atom_site_label_2
_geom_bond_distance
_geom_bond_site_symmetry_2
Ta0 V1 2.946697 1_554
Ta0 V2 2.946700 1_554
Ta0 V3 2.946709 1_554
Ta0 V0 2.946715 1_545
Ta0 V2 2.946722 1_545
Ta0 V3 2.946731 1_545
Ta0 V0 2.946731 1_555
Ta0 V1 2.946735 1_555
Ta0 V3 2.946746 1_555
Ta0 V0 2.946761 1_455
Ta0 V1 2.946765 1_455
Ta0 V2 2.946766 1_455
Ta0 Ta1 3.077726 1_544
Ta0 Ta1 3.077761 1_444
Ta0 Ta1 3.077771 1_454
Ta0 Ta1 3.077785 1_445
Ta1 V1 2.946697 1_566
Ta1 V2 2.946700 1_556
Ta1 V3 2.946709 1_656
Ta1 V0 2.946715 1_566
Ta1 V2 2.946722 1_565
Ta1 V3 2.946731 1_665
Ta1 V0 2.946731 1_556
Ta1 V1 2.946735 1_565
Ta1 V3 2.946746 1_655
Ta1 V0 2.946761 1_656
Ta1 V1 2.946765 1_665
Ta1 V2 2.946766 1_655
V0 V1 2.512968 1_555
V0 V1 2.512968 1_564
V0 V2 2.512973 1_554
V0 V2 2.512973 1_555
V0 V3 2.512980 1_555
V0 V3 2.512980 1_654
V1 V2 2.512982 1_545
V1 V2 2.512982 1_555
V1 V3 2.512989 1_645
V1 V3 2.512989 1_555
V2 V3 2.512995 1_655
V2 V3 2.512995 1_555
