# generated using pymatgen
data_Ba6Na2Mn2Ru2O17
_symmetry_space_group_name_H-M   'P 1'
_cell_length_a   5.92056775
_cell_length_b   5.92056775
_cell_length_c   30.11224700
_cell_angle_alpha   90.00000000
_cell_angle_beta   90.00000000
_cell_angle_gamma   119.99999717
_symmetry_Int_Tables_number   1
_chemical_formula_structural   Ba6Na2Mn2Ru2O17
_chemical_formula_sum   'Ba12 Na4 Mn4 Ru4 O34'
_cell_volume   914.11433188
_cell_formula_units_Z   2
loop_
 _symmetry_equiv_pos_site_id
 _symmetry_equiv_pos_as_xyz
  1  'x, y, z'
loop_
 _atom_site_type_symbol
 _atom_site_label
 _atom_site_symmetry_multiplicity
 _atom_site_fract_x
 _atom_site_fract_y
 _atom_site_fract_z
 _atom_site_occupancy
  Ba  Ba0  1  0.33333300  0.66666700  0.17970700  1
  Ba  Ba1  1  0.66666700  0.33333300  0.67970700  1
  Ba  Ba2  1  0.66666700  0.33333300  0.82029300  1
  Ba  Ba3  1  0.33333300  0.66666700  0.32029300  1
  Ba  Ba4  1  0.33333300  0.66666700  0.59192000  1
  Ba  Ba5  1  0.66666700  0.33333300  0.09192000  1
  Ba  Ba6  1  0.66666700  0.33333300  0.40808000  1
  Ba  Ba7  1  0.33333300  0.66666700  0.90808000  1
  Ba  Ba8  1  0.00000000  0.00000000  0.00000000  1
  Ba  Ba9  1  0.00000000  0.00000000  0.50000000  1
  Ba  Ba10  1  0.00000000  0.00000000  0.25000000  1
  Ba  Ba11  1  0.00000000  0.00000000  0.75000000  1
  Na  Na0  1  0.00000000  0.00000000  0.12431500  1
  Na  Na1  1  0.00000000  0.00000000  0.62431500  1
  Na  Na2  1  0.00000000  0.00000000  0.87568500  1
  Na  Na3  1  0.00000000  0.00000000  0.37568500  1
  Mn  Mn0  1  0.33333300  0.66666700  0.05231200  1
  Mn  Mn1  1  0.66666700  0.33333300  0.55231200  1
  Mn  Mn2  1  0.66666700  0.33333300  0.94768800  1
  Mn  Mn3  1  0.33333300  0.66666700  0.44768800  1
  Ru  Ru0  1  0.33333300  0.66666700  0.70373000  1
  Ru  Ru1  1  0.66666700  0.33333300  0.20373000  1
  Ru  Ru2  1  0.66666700  0.33333300  0.29627000  1
  Ru  Ru3  1  0.33333300  0.66666700  0.79627000  1
  O  O0  1  0.17648200  0.35296400  0.42685600  1
  O  O1  1  0.82351800  0.17648200  0.92685600  1
  O  O2  1  0.35296400  0.17648200  0.92685600  1
  O  O3  1  0.64703600  0.82351800  0.42685600  1
  O  O4  1  0.17648200  0.82351800  0.42685600  1
  O  O5  1  0.82351800  0.64703600  0.57314400  1
  O  O6  1  0.82351800  0.17648200  0.57314400  1
  O  O7  1  0.82351800  0.64703600  0.92685600  1
  O  O8  1  0.35296400  0.17648200  0.57314400  1
  O  O9  1  0.64703600  0.82351800  0.07314400  1
  O  O10  1  0.17648200  0.35296400  0.07314400  1
  O  O11  1  0.17648200  0.82351800  0.07314400  1
  O  O12  1  0.17679300  0.35358600  0.83011500  1
  O  O13  1  0.82320700  0.17679300  0.33011500  1
  O  O14  1  0.35358600  0.17679300  0.33011500  1
  O  O15  1  0.64641400  0.82320700  0.83011500  1
  O  O16  1  0.17679300  0.82320700  0.83011500  1
  O  O17  1  0.82320700  0.64641400  0.16988500  1
  O  O18  1  0.82320700  0.17679300  0.16988500  1
  O  O19  1  0.82320700  0.64641400  0.33011500  1
  O  O20  1  0.35358600  0.17679300  0.16988500  1
  O  O21  1  0.64641400  0.82320700  0.66988500  1
  O  O22  1  0.17679300  0.35358600  0.66988500  1
  O  O23  1  0.17679300  0.82320700  0.66988500  1
  O  O24  1  0.51372900  0.02745900  0.25000000  1
  O  O25  1  0.48627100  0.51372900  0.75000000  1
  O  O26  1  0.02745900  0.51372900  0.75000000  1
  O  O27  1  0.97254100  0.48627100  0.25000000  1
  O  O28  1  0.51372900  0.48627100  0.25000000  1
  O  O29  1  0.48627100  0.97254100  0.75000000  1
  O  O30  1  0.33333300  0.66666700  0.50394600  1
  O  O31  1  0.66666700  0.33333300  0.00394600  1
  O  O32  1  0.66666700  0.33333300  0.49605400  1
  O  O33  1  0.33333300  0.66666700  0.99605400  1
loop_
_geom_bond_atom_site_label_1
_geom_bond_atom_site_label_2
_geom_bond_distance
_geom_bond_site_symmetry_2
Ba0 O28 2.811140 1_555
Ba0 O24 2.811140 1_565
Ba0 O27 2.811140 1_455
Ba0 O20 2.976831 1_565
Ba0 O17 2.976831 1_455
Ba0 O18 2.976834 1_455
Ba0 O18 2.976834 1_565
Ba0 O17 2.976837 1_555
Ba0 O20 2.976837 1_555
Ba1 O25 2.811140 1_555
Ba1 O26 2.811140 1_655
Ba1 O29 2.811140 1_545
Ba1 O22 2.976831 1_655
Ba1 O21 2.976831 1_545
Ba1 O23 2.976834 1_545
Ba1 O23 2.976834 1_655
Ba1 O22 2.976837 1_555
Ba1 O21 2.976837 1_555
Ba2 O25 2.811140 1_555
Ba2 O26 2.811140 1_655
Ba2 O29 2.811140 1_545
Ba2 O12 2.976831 1_655
Ba2 O15 2.976831 1_545
Ba2 O16 2.976834 1_545
Ba2 O16 2.976834 1_655
Ba2 O12 2.976837 1_555
Ba2 O15 2.976837 1_555
Ba3 O28 2.811140 1_555
Ba3 O24 2.811140 1_565
Ba3 O27 2.811140 1_455
Ba3 O14 2.976831 1_565
Ba3 O19 2.976831 1_455
Ba3 O13 2.976834 1_565
Ba3 O13 2.976834 1_455
Ba3 O14 2.976837 1_555
Ba3 O19 2.976837 1_555
Ba4 O30 2.649095 1_555
Ba4 O23 2.844048 1_555
Ba4 O22 2.844051 1_555
Ba4 O21 2.844051 1_555
Ba4 O5 3.015470 1_455
Ba4 O8 3.015470 1_565
Ba4 O6 3.015473 1_455
Ba4 O6 3.015473 1_565
Ba4 O8 3.015476 1_555
Ba4 O5 3.015476 1_555
Ba5 O31 2.649095 1_555
Ba5 O18 2.844048 1_555
Ba5 O17 2.844051 1_555
Ba5 O20 2.844051 1_555
Ba5 O10 3.015470 1_655
Ba5 O9 3.015470 1_545
Ba5 O11 3.015473 1_545
Ba5 O11 3.015473 1_655
Ba5 O10 3.015476 1_555
Ba5 O9 3.015476 1_555
Ba6 O32 2.649095 1_555
Ba6 O13 2.844048 1_555
Ba6 O14 2.844051 1_555
Ba6 O19 2.844051 1_555
Ba6 O3 3.015470 1_545
Ba6 O0 3.015470 1_655
Ba6 O4 3.015473 1_545
Ba6 O4 3.015473 1_655
Ba6 O3 3.015476 1_555
Ba6 O0 3.015476 1_555
Ba7 O33 2.649095 1_555
Ba7 O16 2.844048 1_555
Ba7 O12 2.844051 1_555
Ba7 O15 2.844051 1_555
Ba7 O7 3.015470 1_455
Ba7 O2 3.015470 1_565
Ba7 O1 3.015473 1_565
Ba7 O1 3.015473 1_455
Ba7 O2 3.015476 1_555
Ba7 O7 3.015476 1_555
Ba8 O11 2.850688 1_545
Ba8 O1 2.850688 1_454
Ba8 O9 2.850688 1_445
Ba8 O10 2.850688 1_555
Ba8 O2 2.850688 1_554
Ba8 O7 2.850688 1_444
Ba9 O6 2.850688 1_455
Ba9 O4 2.850688 1_545
Ba9 O0 2.850688 1_555
Ba9 O5 2.850688 1_445
Ba9 O3 2.850688 1_445
Ba9 O8 2.850688 1_555
Ba10 O27 2.963627 1_445
Ba10 O24 2.963627 1_555
Ba10 O28 2.963630 1_555
Ba10 O28 2.963630 1_445
Ba10 O24 2.963633 1_455
Ba10 O27 2.963633 1_455
Ba10 O18 3.017734 1_455
Ba10 O13 3.017734 1_455
Ba10 O19 3.017734 1_445
Ba10 O14 3.017734 1_555
Ba10 O17 3.017734 1_445
Ba10 O20 3.017734 1_555
Ba11 O26 2.963627 1_555
Ba11 O29 2.963627 1_445
Ba11 O25 2.963630 1_555
Ba11 O25 2.963630 1_445
Ba11 O26 2.963633 1_545
Ba11 O29 2.963633 1_545
Ba11 O23 3.017734 1_545
Ba11 O16 3.017734 1_545
Ba11 O21 3.017734 1_445
Ba11 O15 3.017734 1_445
Ba11 O12 3.017734 1_555
Ba11 O22 3.017734 1_555
Na0 O18 2.273722 1_455
Na0 O17 2.273722 1_445
Na0 O20 2.273722 1_555
Na0 O11 2.376883 1_545
Na0 O9 2.376883 1_445
Na0 O10 2.376883 1_555
Na1 O23 2.273722 1_545
Na1 O21 2.273722 1_445
Na1 O22 2.273722 1_555
Na1 O6 2.376883 1_455
Na1 O5 2.376883 1_445
Na1 O8 2.376883 1_555
Na2 O16 2.273722 1_545
Na2 O12 2.273722 1_555
Na2 O15 2.273722 1_445
Na2 O1 2.376883 1_455
Na2 O7 2.376883 1_445
Na2 O2 2.376883 1_555
Na3 O13 2.273722 1_455
Na3 O14 2.273722 1_555
Na3 O19 2.273722 1_445
Na3 O4 2.376883 1_545
Na3 O0 2.376883 1_555
Na3 O3 2.376883 1_445
Mn0 O33 1.694055 1_554
Mn0 O11 1.726458 1_555
Mn0 O9 1.726463 1_555
Mn0 O10 1.726463 1_555
Mn1 O32 1.694055 1_555
Mn1 O6 1.726458 1_555
Mn1 O5 1.726463 1_555
Mn1 O8 1.726463 1_555
Mn2 O31 1.694055 1_556
Mn2 O1 1.726458 1_555
Mn2 O7 1.726463 1_555
Mn2 O2 1.726463 1_555
Mn3 O30 1.694055 1_555
Mn3 O4 1.726458 1_555
Mn3 O3 1.726463 1_555
Mn3 O0 1.726463 1_555
O12 Ru3 1.901470 1_555
O13 Ru2 1.901465 1_555
O14 Ru2 1.901470 1_555
O15 Ru3 1.901470 1_555
O16 Ru3 1.901465 1_555
O17 Ru1 1.901470 1_555
O18 Ru1 1.901465 1_555
O19 Ru2 1.901470 1_555
O20 Ru1 1.901470 1_555
O21 Ru0 1.901470 1_555
O22 Ru0 1.901470 1_555
O23 Ru0 1.901465 1_555
O24 Ru2 2.097836 1_555
O24 Ru1 2.097836 1_555
O25 Ru0 2.097844 1_555
O25 Ru3 2.097844 1_555
O26 Ru0 2.097836 1_555
O26 Ru3 2.097836 1_555
O27 Ru2 2.097836 1_555
O27 Ru1 2.097836 1_555
O28 Ru2 2.097844 1_555
O28 Ru1 2.097844 1_555
O29 Ru0 2.097836 1_555
O29 Ru3 2.097836 1_555
