# generated using pymatgen
data_K2BeH4(SeO5)2
_symmetry_space_group_name_H-M   'P 1'
_cell_length_a   12.03312600
_cell_length_b   7.61593100
_cell_length_c   11.66110279
_cell_angle_alpha   84.05216474
_cell_angle_beta   90.00000000
_cell_angle_gamma   90.00000000
_symmetry_Int_Tables_number   1
_chemical_formula_structural   K2BeH4(SeO5)2
_chemical_formula_sum   'K8 Be4 H16 Se8 O40'
_cell_volume   1062.91078553
_cell_formula_units_Z   4
loop_
 _symmetry_equiv_pos_site_id
 _symmetry_equiv_pos_as_xyz
  1  'x, y, z'
loop_
 _atom_site_type_symbol
 _atom_site_label
 _atom_site_symmetry_multiplicity
 _atom_site_fract_x
 _atom_site_fract_y
 _atom_site_fract_z
 _atom_site_occupancy
  K  K0  1  0.75900500  0.98124700  0.90555900  1
  K  K1  1  0.25900500  0.51875300  0.09444100  1
  K  K2  1  0.24099500  0.01875300  0.09444100  1
  K  K3  1  0.74099500  0.48124700  0.90555900  1
  K  K4  1  0.90224100  0.32939200  0.61108900  1
  K  K5  1  0.40224100  0.17060800  0.38891100  1
  K  K6  1  0.09775900  0.67060800  0.38891100  1
  K  K7  1  0.59775900  0.82939200  0.61108900  1
  Be  Be0  1  0.91508300  0.08492900  0.23470400  1
  Be  Be1  1  0.41508300  0.41507100  0.76529600  1
  Be  Be2  1  0.08491700  0.91507100  0.76529600  1
  Be  Be3  1  0.58491700  0.58492900  0.23470400  1
  H  H0  1  0.81153500  0.03845500  0.40132100  1
  H  H1  1  0.31153500  0.46154500  0.59867900  1
  H  H2  1  0.18846500  0.96154500  0.59867900  1
  H  H3  1  0.68846500  0.53845500  0.40132100  1
  H  H4  1  0.73042900  0.10353200  0.28981100  1
  H  H5  1  0.23042900  0.39646800  0.71018900  1
  H  H6  1  0.26957100  0.89646800  0.71018900  1
  H  H7  1  0.76957100  0.60353200  0.28981100  1
  H  H8  1  0.91660400  0.39432500  0.19323200  1
  H  H9  1  0.41660400  0.10567500  0.80676800  1
  H  H10  1  0.08339600  0.60567500  0.80676800  1
  H  H11  1  0.58339600  0.89432500  0.19323200  1
  H  H12  1  0.98713100  0.29347000  0.10003200  1
  H  H13  1  0.48713100  0.20653000  0.89996800  1
  H  H14  1  0.01286900  0.70653000  0.89996800  1
  H  H15  1  0.51286900  0.79347000  0.10003200  1
  Se  Se0  1  0.94859600  0.74919800  0.12257800  1
  Se  Se1  1  0.44859600  0.75080200  0.87742200  1
  Se  Se2  1  0.05140400  0.25080200  0.87742200  1
  Se  Se3  1  0.55140400  0.24919800  0.12257800  1
  Se  Se4  1  0.88796700  0.83721800  0.62972500  1
  Se  Se5  1  0.38796700  0.66278200  0.37027500  1
  Se  Se6  1  0.11203300  0.16278200  0.37027500  1
  Se  Se7  1  0.61203300  0.33721800  0.62972500  1
  O  O0  1  0.08576700  0.75237600  0.13063800  1
  O  O1  1  0.58576700  0.74762400  0.86936200  1
  O  O2  1  0.91423300  0.24762400  0.86936200  1
  O  O3  1  0.41423300  0.25237600  0.13063800  1
  O  O4  1  0.90568300  0.69622800  0.99405200  1
  O  O5  1  0.40568300  0.80377200  0.00594800  1
  O  O6  1  0.09431700  0.30377200  0.00594800  1
  O  O7  1  0.59431700  0.19622800  0.99405200  1
  O  O8  1  0.89968600  0.60466600  0.22985100  1
  O  O9  1  0.39968600  0.89533400  0.77014900  1
  O  O10  1  0.10031400  0.39533400  0.77014900  1
  O  O11  1  0.60031400  0.10466600  0.22985100  1
  O  O12  1  0.89185300  0.95081400  0.13399800  1
  O  O13  1  0.39185300  0.54918600  0.86600200  1
  O  O14  1  0.10814700  0.04918600  0.86600200  1
  O  O15  1  0.60814700  0.45081400  0.13399800  1
  O  O16  1  0.95925400  0.68676700  0.56810700  1
  O  O17  1  0.45925400  0.81323300  0.43189300  1
  O  O18  1  0.04074600  0.31323300  0.43189300  1
  O  O19  1  0.54074600  0.18676700  0.56810700  1
  O  O20  1  0.80549600  0.74688000  0.73416500  1
  O  O21  1  0.30549600  0.75312000  0.26583500  1
  O  O22  1  0.19450400  0.25312000  0.26583500  1
  O  O23  1  0.69450400  0.24688000  0.73416500  1
  O  O24  1  0.81014300  0.96888600  0.53821000  1
  O  O25  1  0.31014300  0.53111400  0.46179000  1
  O  O26  1  0.18985700  0.03111400  0.46179000  1
  O  O27  1  0.68985700  0.46888600  0.53821000  1
  O  O28  1  0.97754400  0.97924800  0.68843800  1
  O  O29  1  0.47754400  0.52075200  0.31156200  1
  O  O30  1  0.02245600  0.02075200  0.31156200  1
  O  O31  1  0.52245600  0.47924800  0.68843800  1
  O  O32  1  0.80815100  0.09623500  0.31968700  1
  O  O33  1  0.30815100  0.40376500  0.68031300  1
  O  O34  1  0.19184900  0.90376500  0.68031300  1
  O  O35  1  0.69184900  0.59623500  0.31968700  1
  O  O36  1  0.92637300  0.27955600  0.15941600  1
  O  O37  1  0.42637300  0.22044400  0.84058400  1
  O  O38  1  0.07362700  0.72044400  0.84058400  1
  O  O39  1  0.57362700  0.77955600  0.15941600  1
loop_
_geom_bond_atom_site_label_1
_geom_bond_atom_site_label_2
_geom_bond_distance
_geom_bond_site_symmetry_2
K0 O2 2.757776 1_565
K0 O1 2.800911 1_555
K0 O23 2.802091 1_565
K0 O7 2.832471 1_565
K0 O20 2.869289 1_555
K0 O4 2.903054 1_555
K0 O12 3.094723 1_556
K1 O3 2.757776 1_555
K1 O0 2.800911 1_555
K1 O22 2.802091 1_555
K1 O6 2.832471 1_555
K1 O21 2.869289 1_555
K1 O5 2.903054 1_555
K1 O13 3.094723 1_554
K2 O0 2.757776 1_545
K2 O3 2.800911 1_555
K2 O21 2.802091 1_545
K2 O5 2.832471 1_545
K2 O22 2.869289 1_555
K2 O6 2.903054 1_555
K2 O14 3.094723 1_554
K3 O1 2.757776 1_555
K3 O2 2.800911 1_555
K3 O20 2.802091 1_555
K3 O4 2.832471 1_555
K3 O23 2.869289 1_555
K3 O7 2.903054 1_555
K3 O15 3.094723 1_556
K4 O18 2.685643 1_655
K4 O16 2.801257 1_555
K4 O27 2.862706 1_555
K4 O28 2.871810 1_545
K4 O23 2.918289 1_555
K4 O2 3.015055 1_555
K4 O10 3.092956 1_655
K4 O24 3.157886 1_545
K5 O19 2.685643 1_555
K5 O17 2.801257 1_545
K5 O26 2.862706 1_555
K5 O29 2.871810 1_555
K5 O22 2.918289 1_555
K5 O3 3.015055 1_555
K5 O11 3.092956 1_555
K5 O25 3.157886 1_555
K6 O16 2.685643 1_455
K6 O18 2.801257 1_555
K6 O25 2.862706 1_555
K6 O30 2.871810 1_565
K6 O21 2.918289 1_555
K6 O0 3.015055 1_555
K6 O8 3.092956 1_455
K6 O26 3.157886 1_565
K7 O17 2.685643 1_555
K7 O19 2.801257 1_565
K7 O24 2.862706 1_555
K7 O31 2.871810 1_555
K7 O20 2.918289 1_555
K7 O1 3.015055 1_555
K7 O9 3.092956 1_555
K7 O27 3.157886 1_555
Be0 O30 1.618864 1_655
Be0 O32 1.631820 1_555
Be0 O36 1.648227 1_555
Be0 O12 1.658037 1_545
Be1 O31 1.618864 1_555
Be1 O33 1.631820 1_555
Be1 O37 1.648227 1_555
Be1 O13 1.658037 1_555
Be2 O28 1.618864 1_455
Be2 O34 1.631820 1_555
Be2 O38 1.648227 1_555
Be2 O14 1.658037 1_565
Be3 O29 1.618864 1_555
Be3 O35 1.631820 1_555
Be3 O39 1.648227 1_555
Be3 O15 1.658037 1_555
H0 O32 1.007313 1_555
H0 O24 1.629056 1_545
H1 O33 1.007313 1_555
H1 O25 1.629056 1_555
H2 O34 1.007313 1_555
H2 O26 1.629056 1_565
H3 O35 1.007313 1_555
H3 O27 1.629056 1_555
H4 O32 0.997557 1_555
H4 O11 1.714377 1_555
H5 O33 0.997557 1_555
H5 O10 1.714377 1_555
H6 O34 0.997557 1_555
H6 O9 1.714377 1_555
H7 O35 0.997557 1_555
H7 O8 1.714377 1_555
H8 O36 1.002373 1_555
H8 O8 1.712243 1_555
H9 O37 1.002373 1_555
H9 O9 1.712243 1_545
H10 O38 1.002373 1_555
H10 O10 1.712243 1_555
H11 O39 1.002373 1_555
H11 O11 1.712243 1_565
H12 O36 1.005024 1_555
H12 O6 1.689833 1_655
H13 O37 1.005024 1_555
H13 O7 1.689833 1_555
H14 O38 1.005024 1_555
H14 O4 1.689833 1_455
H15 O39 1.005024 1_555
H15 O5 1.689833 1_555
O0 Se0 1.653589 1_455
O1 Se1 1.653589 1_555
O2 Se2 1.653589 1_655
O3 Se3 1.653589 1_555
O4 Se0 1.673607 1_556
O5 Se1 1.673607 1_554
O6 Se2 1.673607 1_554
O7 Se3 1.673607 1_556
O8 Se0 1.684476 1_555
O9 Se1 1.684476 1_555
O10 Se2 1.684476 1_555
O11 Se3 1.684476 1_555
O12 Se0 1.698253 1_555
O13 Se1 1.698253 1_555
O14 Se2 1.698253 1_555
O15 Se3 1.698253 1_555
O16 Se4 1.653984 1_555
O17 Se5 1.653984 1_555
O18 Se6 1.653984 1_555
O19 Se7 1.653984 1_555
O20 Se4 1.663662 1_555
O21 Se5 1.663662 1_555
O22 Se6 1.663662 1_555
O23 Se7 1.663662 1_555
O24 Se4 1.673197 1_555
O25 Se5 1.673197 1_555
O26 Se6 1.673197 1_555
O27 Se7 1.673197 1_555
O28 Se4 1.718763 1_555
O29 Se5 1.718763 1_555
O30 Se6 1.718763 1_555
O31 Se7 1.718763 1_555
