# generated using pymatgen
data_FeCuO2
_symmetry_space_group_name_H-M   'P 1'
_cell_length_a   5.87530617
_cell_length_b   5.87530572
_cell_length_c   5.87530502
_cell_angle_alpha   28.35926775
_cell_angle_beta   28.35927219
_cell_angle_gamma   28.35926291
_symmetry_Int_Tables_number   1
_chemical_formula_structural   FeCuO2
_chemical_formula_sum   'Fe1 Cu1 O2'
_cell_volume   40.43653967
_cell_formula_units_Z   1
loop_
 _symmetry_equiv_pos_site_id
 _symmetry_equiv_pos_as_xyz
  1  'x, y, z'
loop_
 _atom_site_type_symbol
 _atom_site_label
 _atom_site_symmetry_multiplicity
 _atom_site_fract_x
 _atom_site_fract_y
 _atom_site_fract_z
 _atom_site_occupancy
  Fe  Fe0  1  0.50000100  0.50000100  0.49999900  1
  Cu  Cu0  1  -0.00000000  0.00000000  0.00000000  1
  O  O0  1  0.89123179  0.89123179  0.89122979  1
  O  O1  1  0.10876921  0.10877021  0.10876721  1
loop_
_geom_bond_atom_site_label_1
_geom_bond_atom_site_label_2
_geom_bond_distance
_geom_bond_site_symmetry_2
Fe0 O0 1.928714 1_545
Fe0 O0 1.928714 1_455
Fe0 O0 1.928715 1_554
Fe0 O1 1.928719 1_655
Fe0 O1 1.928720 1_556
Fe0 O1 1.928721 1_565
Cu0 O0 1.838858 1_444
Cu0 O1 1.838858 1_555
