# generated using pymatgen
data_Ba19Li44
_symmetry_space_group_name_H-M   'P 1'
_cell_length_a   19.76448566
_cell_length_b   19.76448566
_cell_length_c   19.76448566
_cell_angle_alpha   131.52609501
_cell_angle_beta   131.52609501
_cell_angle_gamma   70.97854606
_symmetry_Int_Tables_number   1
_chemical_formula_structural   Ba19Li44
_chemical_formula_sum   'Ba38 Li88'
_cell_volume   4237.50878541
_cell_formula_units_Z   2
loop_
 _symmetry_equiv_pos_site_id
 _symmetry_equiv_pos_as_xyz
  1  'x, y, z'
loop_
 _atom_site_type_symbol
 _atom_site_label
 _atom_site_symmetry_multiplicity
 _atom_site_fract_x
 _atom_site_fract_y
 _atom_site_fract_z
 _atom_site_occupancy
  Ba  Ba0  1  0.22564200  0.93054200  0.00664200  1
  Ba  Ba1  1  0.71555700  0.70047900  0.81549400  1
  Ba  Ba2  1  0.50505900  0.69206500  0.19557100  1
  Ba  Ba3  1  0.15422200  0.65422200  0.50000000  1
  Ba  Ba4  1  0.69051200  0.49494100  0.18700600  1
  Ba  Ba5  1  0.40422200  0.40422200  0.00000000  1
  Ba  Ba6  1  0.30793500  0.50350600  0.81299400  1
  Ba  Ba7  1  0.34577800  0.84577800  0.50000000  1
  Ba  Ba8  1  0.41014600  0.39395700  0.20880800  1
  Ba  Ba9  1  0.05948800  0.74649400  0.30442900  1
  Ba  Ba10  1  0.79866200  0.58985400  0.98381200  1
  Ba  Ba11  1  0.68054200  0.47564200  0.50664200  1
  Ba  Ba12  1  0.78100000  0.77435800  0.70489900  1
  Ba  Ba13  1  0.25350600  0.55793500  0.31299400  1
  Ba  Ba14  1  0.92389900  0.21900000  0.99335800  1
  Ba  Ba15  1  0.49649400  0.30948800  0.80442900  1
  Ba  Ba16  1  0.56485000  0.85604300  0.51618800  1
  Ba  Ba17  1  0.03444300  0.34993700  0.48492200  1
  Ba  Ba18  1  0.65006300  0.13498500  0.68450600  1
  Ba  Ba19  1  0.96900000  0.17389900  0.49335800  1
  Ba  Ba20  1  0.14395700  0.66014600  0.70880800  1
  Ba  Ba21  1  0.88498500  0.90006300  0.18450600  1
  Ba  Ba22  1  0.52435800  0.03100000  0.20489900  1
  Ba  Ba23  1  0.18515000  0.20133800  0.79119200  1
  Ba  Ba24  1  0.45047900  0.96555700  0.31549400  1
  Ba  Ba25  1  0.86501500  0.54952100  0.51507800  1
  Ba  Ba26  1  0.09993700  0.28444300  0.98492200  1
  Ba  Ba27  1  0.75000000  0.25000000  0.50000000  1
  Ba  Ba28  1  0.29952100  0.11501500  0.01507800  1
  Ba  Ba29  1  0.82610100  0.31945800  0.79510100  1
  Ba  Ba30  1  0.24494100  0.94051200  0.68700600  1
  Ba  Ba31  1  0.59577800  0.59577800  0.00000000  1
  Ba  Ba32  1  0.60604300  0.81485000  0.01618800  1
  Ba  Ba33  1  0.33985400  0.04866200  0.48381200  1
  Ba  Ba34  1  0.44206500  0.75505900  0.69557100  1
  Ba  Ba35  1  0.00000000  0.00000000  0.00000000  1
  Ba  Ba36  1  0.95133800  0.43515000  0.29119200  1
  Ba  Ba37  1  0.06945800  0.07610100  0.29510100  1
  Li  Li0  1  0.59573000  0.58678900  0.35789900  1
  Li  Li1  1  0.56440300  0.21919800  0.21940800  1
  Li  Li2  1  0.81936000  0.79657100  0.25396100  1
  Li  Li3  1  0.82887500  0.12500000  0.20387500  1
  Li  Li4  1  0.77039800  0.74391700  0.33425700  1
  Li  Li5  1  0.54657100  0.06936000  0.75396100  1
  Li  Li6  1  0.96919800  0.81440300  0.71940800  1
  Li  Li7  1  0.98783100  0.47889000  0.14210100  1
  Li  Li8  1  0.14433200  0.39884900  0.78245800  1
  Li  Li9  1  0.13360900  0.85115100  0.24548300  1
  Li  Li10  1  0.92112500  0.62500000  0.79612500  1
  Li  Li11  1  0.18614100  0.65966000  0.16574300  1
  Li  Li12  1  0.57798300  0.21839900  0.50987600  1
  Li  Li13  1  0.56385900  0.22960200  0.97351900  1
  Li  Li14  1  0.77124100  0.29493300  0.20159500  1
  Li  Li15  1  0.46968500  0.36946200  0.52709100  1
  Li  Li16  1  0.05740600  0.53031500  0.89977700  1
  Li  Li17  1  0.75435300  0.73987400  0.47568900  1
  Li  Li18  1  0.20342900  0.45739100  0.02278900  1
  Li  Li19  1  0.04378400  0.75618300  0.86791200  1
  Li  Li20  1  0.31964700  0.34333800  0.29840500  1
  Li  Li21  1  0.86172900  0.49381700  0.78760100  1
  Li  Li22  1  0.69259400  0.09237100  0.97290900  1
  Li  Li23  1  0.11187500  0.86639100  0.71754200  1
  Li  Li24  1  0.99978900  0.34499500  0.78059200  1
  Li  Li25  1  0.33678900  0.84573000  0.85789900  1
  Li  Li26  1  0.20739100  0.45342900  0.52278900  1
  Li  Li27  1  0.54260900  0.56539900  0.74603900  1
  Li  Li28  1  0.97960200  0.81385900  0.47351900  1
  Li  Li29  1  0.28031500  0.30740600  0.39977700  1
  Li  Li30  1  0.31539900  0.79260900  0.24603900  1
  Li  Li31  1  0.82412800  0.95621600  0.71239900  1
  Li  Li32  1  0.70506700  0.90666200  0.47630900  1
  Li  Li33  1  0.38524800  0.62500000  0.26024800  1
  Li  Li34  1  0.65500500  0.43559700  0.65479400  1
  Li  Li35  1  0.14884900  0.39433200  0.28245800  1
  Li  Li36  1  0.90762900  0.88053800  0.60022300  1
  Li  Li37  1  0.75021100  0.03080200  0.84520600  1
  Li  Li38  1  0.41321100  0.77111000  0.00894100  1
  Li  Li39  1  0.96839900  0.82798300  0.00987600  1
  Li  Li40  1  0.04493300  0.02124100  0.70159500  1
  Li  Li41  1  0.65666200  0.95506700  0.97630900  1
  Li  Li42  1  0.43460100  0.18064000  0.97721100  1
  Li  Li43  1  0.78080200  0.00021100  0.34520600  1
  Li  Li44  1  0.60566800  0.88812500  0.75451700  1
  Li  Li45  1  0.36475200  0.12500000  0.73975200  1
  Li  Li46  1  0.88827100  0.17587200  0.13208800  1
  Li  Li47  1  0.50618300  0.29378400  0.36791200  1
  Li  Li48  1  0.48581600  0.51012600  0.51447900  1
  Li  Li49  1  0.43035300  0.22875900  0.52369100  1
  Li  Li50  1  0.84237100  0.94259400  0.47290900  1
  Li  Li51  1  0.40966000  0.43614100  0.66574300  1
  Li  Li52  1  0.63053800  0.15762900  0.10022300  1
  Li  Li53  1  0.78160100  0.29147700  0.35958400  1
  Li  Li54  1  0.52111000  0.66321100  0.50894100  1
  Li  Li55  1  0.60115100  0.38360900  0.74548300  1
  Li  Li56  1  0.87500000  0.61475200  0.23975200  1
  Li  Li57  1  0.09499500  0.24978900  0.28059200  1
  Li  Li58  1  0.92587200  0.13827100  0.63208800  1
  Li  Li59  1  0.93064000  0.68460100  0.47721100  1
  Li  Li60  1  0.97875900  0.68035300  0.02369100  1
  Li  Li61  1  0.26418400  0.27866400  0.52431100  1
  Li  Li62  1  0.09333800  0.56964700  0.79840500  1
  Li  Li63  1  0.63812500  0.85566800  0.25451700  1
  Li  Li64  1  0.87500000  0.07887500  0.70387500  1
  Li  Li65  1  0.37500000  0.17112500  0.29612500  1
  Li  Li66  1  0.04147700  0.03160100  0.85958400  1
  Li  Li67  1  0.18559700  0.90500500  0.15479400  1
  Li  Li68  1  0.11946200  0.71968500  0.02709100  1
  Li  Li69  1  0.70852300  0.06810700  0.49012400  1
  Li  Li70  1  0.24381700  0.11172900  0.28760100  1
  Li  Li71  1  0.02866400  0.51418400  0.02431100  1
  Li  Li72  1  0.81810700  0.95852300  0.99012400  1
  Li  Li73  1  0.26012600  0.73581600  0.01447900  1
  Li  Li74  1  0.34034000  0.50608300  0.52648100  1
  Li  Li75  1  0.22889000  0.23783100  0.64210100  1
  Li  Li76  1  0.17201700  0.18189300  0.14041600  1
  Li  Li77  1  0.76216900  0.40427000  0.99105900  1
  Li  Li78  1  0.48987400  0.00435300  0.97568900  1
  Li  Li79  1  0.70621600  0.07412800  0.21239900  1
  Li  Li80  1  0.72133600  0.24564700  0.98552100  1
  Li  Li81  1  0.49391700  0.02039800  0.83425700  1
  Li  Li82  1  0.93189300  0.42201700  0.64041600  1
  Li  Li83  1  0.99564700  0.97133600  0.48552100  1
  Li  Li84  1  0.61639100  0.36187500  0.21754200  1
  Li  Li85  1  0.25608300  0.59034000  0.02648100  1
  Li  Li86  1  0.37500000  0.63524800  0.76024800  1
  Li  Li87  1  0.15427000  0.01216900  0.49105900  1
loop_
_geom_bond_atom_site_label_1
_geom_bond_atom_site_label_2
_geom_bond_distance
_geom_bond_site_symmetry_2
Ba0 Li73 3.773765 1_555
Ba0 Li23 3.811737 1_554
Ba0 Li66 3.823254 1_564
Ba0 Li65 3.839569 1_565
Ba0 Li67 3.840324 1_555
Ba0 Li19 3.845910 1_554
Ba0 Li6 3.916707 1_454
Ba0 Li70 3.951677 1_565
Ba0 Li76 3.957391 1_565
Ba0 Li25 3.988333 1_554
Ba0 Li38 4.003327 1_555
Ba0 Ba20 4.138787 1_554
Ba0 Ba35 4.154833 1_565
Ba0 Ba28 4.218389 1_565
Ba0 Ba24 4.233758 1_555
Ba0 Ba22 4.561166 1_565
Ba1 Li27 3.945131 1_555
Ba1 Li48 3.975692 1_555
Ba1 Li34 3.990589 1_555
Ba1 Li39 3.999879 1_556
Ba1 Li72 4.019253 1_555
Ba1 Li10 4.029110 1_555
Ba1 Li60 4.073188 1_556
Ba1 Li41 4.081457 1_555
Ba1 Li21 4.094887 1_555
Ba1 Li54 4.132282 1_555
Ba1 Li44 4.138777 1_555
Ba1 Ba12 4.218408 1_555
Ba1 Ba11 4.233758 1_555
Ba1 Ba21 4.248263 1_556
Ba1 Ba34 4.312975 1_555
Ba1 Ba10 4.313206 1_555
Ba1 Ba32 4.672751 1_556
Ba2 Li32 3.878856 1_555
Ba2 Li85 3.893681 1_555
Ba2 Li63 3.900710 1_555
Ba2 Li73 3.923578 1_555
Ba2 Li17 3.968672 1_555
Ba2 Li38 4.031871 1_555
Ba2 Li30 4.058234 1_555
Ba2 Li0 4.078193 1_555
Ba2 Li4 4.096939 1_555
Ba2 Li33 4.159897 1_555
Ba2 Ba24 4.312975 1_555
Ba2 Ba31 4.357672 1_555
Ba2 Ba4 4.391181 1_555
Ba2 Ba6 4.391181 1_554
Ba2 Ba5 4.392889 1_555
Ba3 Li74 3.851823 1_555
Ba3 Li28 3.851823 1_455
Ba3 Li23 3.917795 1_555
Ba3 Li35 3.917806 1_555
Ba3 Li26 4.010083 1_555
Ba3 Li59 4.010086 1_455
Ba3 Li25 4.116155 1_555
Ba3 Li7 4.116155 1_455
Ba3 Li86 4.167689 1_555
Ba3 Li56 4.167689 1_455
Ba3 Ba36 4.188168 1_455
Ba3 Ba30 4.357672 1_555
Ba3 Ba34 4.392889 1_555
Ba3 Ba9 4.392889 1_555
Ba4 Li14 3.878856 1_555
Ba4 Li4 3.893681 1_555
Ba4 Li84 3.900707 1_555
Ba4 Li17 3.923570 1_555
Ba4 Li80 3.968672 1_554
Ba4 Li0 4.031871 1_555
Ba4 Li59 4.058234 1_555
Ba4 Li77 4.078193 1_554
Ba4 Li13 4.096939 1_554
Ba4 Li56 4.159897 1_555
Ba4 Ba5 4.357672 1_555
Ba5 Li85 3.851823 1_555
Ba5 Li13 3.851823 1_554
Ba5 Li84 3.917795 1_555
Ba5 Li8 3.917806 1_554
Ba5 Li18 4.010083 1_555
Ba5 Li42 4.010086 1_554
Ba5 Li75 4.116155 1_554
Ba5 Li0 4.116155 1_555
Ba5 Li33 4.167689 1_555
Ba5 Li45 4.167689 1_554
Ba5 Ba8 4.188181 1_555
Ba5 Ba6 4.357672 1_554
Ba6 Li62 3.878856 1_555
Ba6 Li51 3.893681 1_555
Ba6 Li8 3.900724 1_555
Ba6 Li61 3.923563 1_555
Ba6 Li73 3.968680 1_556
Ba6 Li75 4.031871 1_555
Ba6 Li26 4.058241 1_555
Ba6 Li38 4.078193 1_556
Ba6 Li85 4.096939 1_556
Ba6 Li86 4.159897 1_555
Ba7 Li11 3.851823 1_555
Ba7 Li81 3.851823 1_565
Ba7 Li9 3.917806 1_555
Ba7 Li44 3.917811 1_555
Ba7 Li30 4.010075 1_555
Ba7 Li5 4.010086 1_565
Ba7 Li54 4.116155 1_555
Ba7 Li87 4.116155 1_565
Ba7 Li45 4.167689 1_565
Ba7 Li33 4.167689 1_555
Ba7 Ba9 4.357672 1_555
Ba8 Li1 3.810199 1_555
Ba8 Li84 3.817797 1_555
Ba8 Li18 3.825897 1_555
Ba8 Li42 3.870169 1_554
Ba8 Li20 3.879617 1_555
Ba8 Li33 3.895003 1_555
Ba8 Li47 3.911841 1_555
Ba8 Li48 3.984121 1_555
Ba8 Li0 4.068535 1_555
Ba8 Li54 4.101173 1_555
Ba9 Li60 3.878865 1_455
Ba9 Li28 3.893681 1_455
Ba9 Li9 3.900724 1_555
Ba9 Li83 3.923570 1_455
Ba9 Li71 3.968677 1_555
Ba9 Li87 4.031871 1_565
Ba9 Li2 4.058234 1_455
Ba9 Li7 4.078193 1_455
Ba9 Li11 4.096939 1_555
Ba9 Li56 4.159897 1_455
Ba10 Li34 3.810226 1_555
Ba10 Li55 3.817791 1_555
Ba10 Li2 3.825872 1_556
Ba10 Li27 3.870185 1_555
Ba10 Li60 3.879650 1_556
Ba10 Li56 3.894984 1_556
Ba10 Li21 3.911858 1_555
Ba10 Li71 3.984139 1_656
Ba10 Li77 4.068520 1_555
Ba10 Li7 4.101163 1_556
Ba10 Ba29 4.138793 1_555
Ba10 Ba9 4.170394 1_656
Ba10 Ba31 4.188168 1_556
Ba10 Ba21 4.672768 1_556
Ba10 Ba32 4.806211 1_556
Ba11 Li48 3.773765 1_555
Ba11 Li84 3.811737 1_555
Ba11 Li53 3.823254 1_555
Ba11 Li10 3.839569 1_555
Ba11 Li34 3.840324 1_555
Ba11 Li47 3.845910 1_555
Ba11 Li1 3.916707 1_555
Ba11 Li21 3.951677 1_555
Ba11 Li82 3.957391 1_555
Ba11 Li0 3.988333 1_555
Ba11 Li54 4.003327 1_555
Ba11 Ba8 4.138787 1_555
Ba11 Ba27 4.154833 1_555
Ba11 Ba25 4.218389 1_555
Ba11 Ba12 4.561166 1_555
Ba12 Li17 3.773765 1_555
Ba12 Li44 3.811738 1_555
Ba12 Li72 3.823269 1_555
Ba12 Li10 3.839579 1_555
Ba12 Li6 3.840330 1_555
Ba12 Li31 3.845896 1_555
Ba12 Li37 3.916701 1_565
Ba12 Li19 3.951677 1_655
Ba12 Li39 3.957405 1_556
Ba12 Li54 3.988337 1_555
Ba12 Li0 4.003317 1_555
Ba12 Ba16 4.138793 1_555
Ba12 Ba35 4.154833 1_666
Ba12 Ba25 4.233749 1_555
Ba13 Li20 3.878856 1_555
Ba13 Li11 3.893681 1_555
Ba13 Li35 3.900724 1_555
Ba13 Li71 3.923563 1_555
Ba13 Li48 3.968680 1_555
Ba13 Li7 4.031871 1_455
Ba13 Li18 4.058241 1_555
Ba13 Li54 4.078193 1_555
Ba13 Li74 4.096939 1_555
Ba13 Li33 4.159897 1_555
Ba13 Ba8 4.170398 1_555
Ba13 Ba26 4.312975 1_554
Ba13 Ba3 4.357672 1_555
Ba13 Ba34 4.391181 1_555
Ba13 Ba9 4.391181 1_555
Ba13 Ba7 4.392889 1_555
Ba14 Li80 3.773765 1_555
Ba14 Li35 3.811741 1_656
Ba14 Li76 3.823269 1_656
Ba14 Li64 3.839579 1_555
Ba14 Li37 3.840325 1_555
Ba14 Li46 3.845896 1_556
Ba14 Li57 3.916717 1_656
Ba14 Li31 3.951677 1_545
Ba14 Li66 3.957405 1_655
Ba14 Li7 3.988337 1_556
Ba14 Li77 4.003317 1_555
Ba14 Ba36 4.138781 1_556
Ba14 Ba35 4.154833 1_656
Ba14 Ba26 4.218408 1_655
Ba14 Ba18 4.233749 1_555
Ba14 Ba29 4.561155 1_555
Ba15 Li49 3.878865 1_555
Ba15 Li13 3.893681 1_555
Ba15 Li55 3.900724 1_555
Ba15 Li80 3.923570 1_555
Ba15 Li61 3.968677 1_555
Ba15 Li77 4.031871 1_555
Ba15 Li5 4.058234 1_555
Ba15 Li75 4.078193 1_555
Ba15 Li51 4.096939 1_555
Ba15 Li45 4.159897 1_555
Ba15 Ba33 4.170394 1_555
Ba15 Ba18 4.312975 1_555
Ba15 Ba31 4.357672 1_556
Ba15 Ba6 4.391181 1_555
Ba15 Ba4 4.391181 1_556
Ba15 Ba5 4.392889 1_556
Ba16 Li37 3.810222 1_565
Ba16 Li44 3.817814 1_555
Ba16 Li30 3.825865 1_555
Ba16 Li5 3.870169 1_565
Ba16 Li32 3.879619 1_555
Ba16 Li33 3.894996 1_555
Ba16 Li31 3.911853 1_555
Ba16 Li17 3.984139 1_555
Ba16 Li54 4.068539 1_555
Ba16 Li0 4.101177 1_555
Ba16 Ba2 4.170391 1_555
Ba16 Ba7 4.188174 1_555
Ba16 Ba18 4.313188 1_565
Ba16 Ba24 4.672751 1_555
Ba16 Ba33 4.806211 1_565
Ba17 Li26 3.945133 1_555
Ba17 Li61 3.975683 1_555
Ba17 Li57 3.990589 1_555
Ba17 Li53 3.999879 1_455
Ba17 Li82 4.019253 1_455
Ba17 Li3 4.029110 1_455
Ba17 Li14 4.073185 1_455
Ba17 Li62 4.081457 1_555
Ba17 Li46 4.094887 1_455
Ba17 Li75 4.132282 1_555
Ba17 Li8 4.138795 1_555
Ba17 Ba19 4.218408 1_455
Ba17 Ba37 4.233742 1_555
Ba17 Ba25 4.248263 1_455
Ba17 Ba6 4.312975 1_555
Ba17 Ba36 4.313206 1_455
Ba17 Ba20 4.672763 1_555
Ba18 Li5 3.945115 1_555
Ba18 Li80 3.975701 1_555
Ba18 Li37 3.990606 1_555
Ba18 Li69 3.999879 1_555
Ba18 Li12 4.019253 1_555
Ba18 Li64 4.029110 1_555
Ba18 Li32 4.073176 1_545
Ba18 Li49 4.081469 1_555
Ba18 Li31 4.094887 1_545
Ba18 Li77 4.132282 1_555
Ba18 Li55 4.138795 1_555
Ba18 Ba29 4.218392 1_555
Ba18 Ba24 4.248263 1_545
Ba18 Ba33 4.672768 1_555
Ba19 Li83 3.773765 1_545
Ba19 Li8 3.811741 1_655
Ba19 Li82 3.823269 1_555
Ba19 Li3 3.839579 1_555
Ba19 Li43 3.840325 1_555
Ba19 Li58 3.845896 1_555
Ba19 Li24 3.916717 1_555
Ba19 Li79 3.951677 1_555
Ba19 Li53 3.957405 1_555
Ba19 Li75 3.988337 1_655
Ba19 Li87 4.003317 1_655
Ba19 Ba23 4.138781 1_655
Ba19 Ba27 4.154833 1_555
Ba19 Ba21 4.233749 1_545
Ba19 Ba37 4.561155 1_655
Ba20 Li6 3.810199 1_455
Ba20 Li23 3.817797 1_555
Ba20 Li26 3.825897 1_555
Ba20 Li59 3.870169 1_455
Ba20 Li62 3.879617 1_555
Ba20 Li86 3.895003 1_555
Ba20 Li19 3.911841 1_555
Ba20 Li73 3.984121 1_556
Ba20 Li25 4.068535 1_555
Ba20 Li38 4.101173 1_556
Ba20 Ba6 4.170398 1_555
Ba20 Ba3 4.188181 1_555
Ba20 Ba25 4.313189 1_455
Ba20 Ba36 4.806223 1_455
Ba21 Li2 3.945115 1_555
Ba21 Li83 3.975701 1_555
Ba21 Li43 3.990606 1_565
Ba21 Li72 3.999879 1_554
Ba21 Li39 4.019253 1_555
Ba21 Li3 4.029110 1_565
Ba21 Li41 4.073176 1_554
Ba21 Li60 4.081469 1_555
Ba21 Li79 4.094887 1_565
Ba21 Li87 4.132282 1_665
Ba21 Li9 4.138795 1_655
Ba21 Ba37 4.218392 1_665
Ba21 Ba9 4.312975 1_655
Ba21 Ba32 4.313188 1_555
Ba22 Li78 3.773765 1_554
Ba22 Li63 3.811738 1_545
Ba22 Li69 3.823269 1_555
Ba22 Li65 3.839579 1_555
Ba22 Li1 3.840330 1_555
Ba22 Li79 3.845896 1_555
Ba22 Li43 3.916701 1_555
Ba22 Li47 3.951677 1_555
Ba22 Li12 3.957405 1_555
Ba22 Li38 3.988337 1_545
Ba22 Li25 4.003317 1_544
Ba22 Ba32 4.138793 1_545
Ba22 Ba27 4.154833 1_555
Ba22 Ba24 4.218408 1_545
Ba22 Ba28 4.233749 1_555
Ba23 Li24 3.810226 1_455
Ba23 Li8 3.817791 1_555
Ba23 Li42 3.825872 1_555
Ba23 Li18 3.870185 1_556
Ba23 Li40 3.879648 1_555
Ba23 Li45 3.894984 1_555
Ba23 Li58 3.911858 1_455
Ba23 Li83 3.984136 1_445
Ba23 Li75 4.068520 1_555
Ba23 Li87 4.101163 1_555
Ba23 Ba30 4.170394 1_545
Ba23 Ba5 4.188168 1_556
Ba23 Ba26 4.313206 1_555
Ba23 Ba28 4.672768 1_556
Ba23 Ba8 4.806223 1_556
Ba24 Li30 3.945131 1_555
Ba24 Li73 3.975692 1_555
Ba24 Li67 3.990589 1_555
Ba24 Li12 3.999879 1_565
Ba24 Li69 4.019253 1_565
Ba24 Li65 4.029110 1_565
Ba24 Li49 4.073188 1_565
Ba24 Li32 4.081457 1_555
Ba24 Li70 4.094887 1_565
Ba24 Li38 4.132282 1_555
Ba24 Li63 4.138777 1_555
Ba24 Ba33 4.313206 1_565
Ba25 Li59 3.945115 1_555
Ba25 Li17 3.975701 1_555
Ba25 Li6 3.990594 1_555
Ba25 Li82 3.999879 1_555
Ba25 Li53 4.019253 1_555
Ba25 Li10 4.029110 1_555
Ba25 Li62 4.073176 1_655
Ba25 Li14 4.081454 1_555
Ba25 Li19 4.094887 1_655
Ba25 Li0 4.132282 1_555
Ba25 Li84 4.138788 1_555
Ba25 Ba4 4.312975 1_555
Ba25 Ba36 4.672768 1_555
Ba26 Li18 3.945133 1_556
Ba26 Li71 3.975683 1_556
Ba26 Li24 3.990589 1_455
Ba26 Li66 3.999879 1_555
Ba26 Li76 4.019253 1_556
Ba26 Li64 4.029110 1_455
Ba26 Li40 4.073185 1_555
Ba26 Li20 4.081457 1_556
Ba26 Li58 4.094887 1_455
Ba26 Li7 4.132282 1_456
Ba26 Li35 4.138795 1_556
Ba26 Ba29 4.233742 1_455
Ba26 Ba28 4.248263 1_556
Ba26 Ba8 4.672763 1_556
Ba27 Li47 3.792460 1_555
Ba27 Li79 3.792460 1_555
Ba27 Li58 3.792460 1_555
Ba27 Li21 3.792460 1_555
Ba27 Li53 3.796413 1_555
Ba27 Li12 3.796413 1_555
Ba27 Li82 3.796413 1_555
Ba27 Li69 3.796413 1_555
Ba27 Li43 3.819369 1_555
Ba27 Li24 3.819374 1_555
Ba27 Li34 3.819374 1_555
Ba27 Li1 3.819384 1_555
Ba27 Ba29 4.154843 1_555
Ba28 Li42 3.945115 1_554
Ba28 Li78 3.975701 1_554
Ba28 Li1 3.990594 1_555
Ba28 Li76 3.999879 1_555
Ba28 Li66 4.019253 1_554
Ba28 Li65 4.029110 1_555
Ba28 Li20 4.073176 1_555
Ba28 Li40 4.081454 1_554
Ba28 Li47 4.094887 1_555
Ba28 Li25 4.132282 1_544
Ba28 Li23 4.138788 1_544
Ba28 Ba30 4.312975 1_544
Ba28 Ba8 4.313189 1_555
Ba29 Li71 3.773765 1_656
Ba29 Li55 3.811743 1_555
Ba29 Li12 3.823269 1_555
Ba29 Li64 3.839563 1_555
Ba29 Li24 3.840319 1_555
Ba29 Li21 3.845915 1_555
Ba29 Li34 3.916732 1_555
Ba29 Li58 3.951673 1_555
Ba29 Li69 3.957397 1_555
Ba29 Li77 3.988331 1_555
Ba29 Li7 4.003316 1_556
Ba30 Li40 3.878856 1_565
Ba30 Li81 3.893681 1_565
Ba30 Li23 3.900707 1_555
Ba30 Li78 3.923570 1_565
Ba30 Li83 3.968672 1_455
Ba30 Li25 4.031871 1_555
Ba30 Li42 4.058234 1_565
Ba30 Li87 4.078193 1_565
Ba30 Li28 4.096939 1_455
Ba30 Li45 4.159897 1_565
Ba30 Ba34 4.391181 1_555
Ba30 Ba9 4.391181 1_555
Ba30 Ba7 4.392889 1_555
Ba31 Li4 3.851823 1_555
Ba31 Li51 3.851823 1_554
Ba31 Li55 3.917806 1_554
Ba31 Li63 3.917811 1_555
Ba31 Li27 4.010075 1_554
Ba31 Li2 4.010086 1_555
Ba31 Li38 4.116155 1_555
Ba31 Li77 4.116155 1_554
Ba31 Li56 4.167689 1_555
Ba31 Li86 4.167689 1_554
Ba31 Ba32 4.188174 1_555
Ba31 Ba4 4.392889 1_555
Ba31 Ba6 4.392889 1_554
Ba32 Li43 3.810222 1_565
Ba32 Li63 3.817814 1_555
Ba32 Li27 3.825865 1_554
Ba32 Li2 3.870169 1_555
Ba32 Li41 3.879619 1_554
Ba32 Li86 3.894996 1_554
Ba32 Li79 3.911853 1_565
Ba32 Li78 3.984139 1_564
Ba32 Li38 4.068539 1_555
Ba32 Li25 4.101177 1_554
Ba32 Ba34 4.170391 1_554
Ba33 Li67 3.810226 1_545
Ba33 Li9 3.817791 1_545
Ba33 Li5 3.825872 1_555
Ba33 Li30 3.870185 1_545
Ba33 Li49 3.879650 1_555
Ba33 Li45 3.894984 1_555
Ba33 Li70 3.911858 1_555
Ba33 Li61 3.984139 1_555
Ba33 Li87 4.068520 1_555
Ba33 Li75 4.101163 1_555
Ba33 Ba37 4.138793 1_555
Ba33 Ba7 4.188168 1_545
Ba34 Li41 3.878856 1_555
Ba34 Li74 3.893681 1_555
Ba34 Li44 3.900710 1_555
Ba34 Li48 3.923578 1_555
Ba34 Li78 3.968672 1_565
Ba34 Li54 4.031871 1_555
Ba34 Li27 4.058234 1_555
Ba34 Li25 4.078193 1_555
Ba34 Li81 4.096939 1_565
Ba34 Li86 4.159897 1_555
Ba34 Ba7 4.357672 1_555
Ba35 Li19 3.792460 1_544
Ba35 Li31 3.792460 1_444
Ba35 Li46 3.792460 1_455
Ba35 Li70 3.792460 1_555
Ba35 Li39 3.796413 1_445
Ba35 Li72 3.796413 1_444
Ba35 Li76 3.796413 1_555
Ba35 Li66 3.796413 1_554
Ba35 Li37 3.819369 1_454
Ba35 Li57 3.819374 1_555
Ba35 Li67 3.819374 1_545
Ba35 Li6 3.819384 1_444
Ba35 Ba37 4.154843 1_555
Ba36 Li57 3.810226 1_655
Ba36 Li35 3.817791 1_655
Ba36 Li59 3.825872 1_555
Ba36 Li26 3.870185 1_655
Ba36 Li14 3.879648 1_555
Ba36 Li56 3.894984 1_555
Ba36 Li46 3.911858 1_555
Ba36 Li80 3.984136 1_554
Ba36 Li7 4.068520 1_555
Ba36 Li77 4.101163 1_554
Ba36 Ba4 4.170394 1_555
Ba37 Li61 3.773765 1_555
Ba37 Li9 3.811743 1_545
Ba37 Li39 3.823269 1_445
Ba37 Li3 3.839563 1_455
Ba37 Li57 3.840319 1_555
Ba37 Li70 3.845915 1_555
Ba37 Li67 3.916732 1_545
Ba37 Li46 3.951673 1_455
Ba37 Li72 3.957397 1_444
Ba37 Li87 3.988331 1_555
Ba37 Li75 4.003316 1_555
Li0 Li33 3.292471 1_555
Li0 Li17 3.401369 1_555
Li1 Li52 2.825491 1_555
Li1 Li47 3.122099 1_555
Li1 Li42 3.198606 1_554
Li1 Li79 3.293312 1_555
Li1 Li78 3.309441 1_554
Li1 Li84 3.329576 1_555
Li1 Li53 3.335390 1_555
Li2 Li50 2.991485 1_555
Li2 Li4 3.069312 1_555
Li2 Li28 3.081352 1_555
Li2 Li43 3.198620 1_565
Li2 Li56 3.270668 1_555
Li2 Li83 3.279881 1_555
Li3 Li46 3.044922 1_555
Li3 Li79 3.044922 1_555
Li3 Li52 3.071679 1_555
Li3 Li72 3.090742 1_544
Li3 Li53 3.090742 1_555
Li3 Li41 3.196687 1_544
Li4 Li50 3.026048 1_555
Li4 Li59 3.081352 1_555
Li4 Li63 3.096017 1_555
Li4 Li56 3.104437 1_555
Li5 Li81 3.069312 1_555
Li5 Li80 3.279881 1_555
Li6 Li66 3.335390 1_665
Li7 Li71 3.401355 1_655
Li8 Li85 3.096012 1_556
Li8 Li82 3.246921 1_455
Li10 Li21 3.044922 1_555
Li10 Li19 3.044922 1_655
Li10 Li68 3.071679 1_656
Li10 Li16 3.071679 1_655
Li10 Li39 3.090742 1_556
Li10 Li82 3.090742 1_555
Li10 Li60 3.196678 1_556
Li10 Li62 3.196687 1_655
Li11 Li68 3.026048 1_555
Li11 Li16 3.054415 1_554
Li11 Li71 3.067404 1_555
Li11 Li30 3.069297 1_555
Li11 Li18 3.081340 1_555
Li11 Li9 3.096012 1_555
Li11 Li33 3.104437 1_555
Li11 Li60 3.165658 1_455
Li11 Li85 3.189716 1_555
Li12 Li15 3.010738 1_555
Li12 Li49 3.036940 1_555
Li12 Li65 3.090742 1_555
Li12 Li69 3.230306 1_555
Li12 Li55 3.246921 1_555
Li12 Li47 3.315402 1_555
Li12 Li34 3.335396 1_555
Li13 Li52 3.026048 1_556
Li13 Li22 3.054415 1_555
Li13 Li80 3.067391 1_555
Li13 Li42 3.069312 1_555
Li13 Li5 3.081352 1_555
Li13 Li84 3.096010 1_556
Li13 Li45 3.104437 1_555
Li13 Li14 3.165662 1_556
Li13 Li81 3.189716 1_555
Li14 Li46 3.025515 1_555
Li14 Li53 3.036934 1_555
Li14 Li84 3.050130 1_555
Li14 Li52 3.071565 1_555
Li14 Li22 3.101848 1_554
Li14 Li80 3.112070 1_554
Li14 Li3 3.196687 1_555
Li15 Li34 2.825497 1_555
Li15 Li29 2.873551 1_555
Li15 Li47 2.953284 1_555
Li15 Li27 2.991486 1_555
Li15 Li51 3.026048 1_555
Li15 Li74 3.054415 1_555
Li15 Li49 3.071561 1_555
Li15 Li65 3.071679 1_555
Li15 Li55 3.076256 1_555
Li15 Li48 3.081404 1_555
Li15 Li20 3.101847 1_555
Li16 Li24 2.825497 1_455
Li16 Li68 2.873551 1_556
Li16 Li21 2.953284 1_455
Li16 Li18 2.991471 1_556
Li16 Li82 3.010738 1_455
Li16 Li85 3.026048 1_556
Li16 Li62 3.071580 1_555
Li16 Li8 3.076256 1_555
Li16 Li71 3.081409 1_556
Li16 Li60 3.101833 1_456
Li17 Li4 3.067391 1_555
Li17 Li36 3.081395 1_555
Li17 Li32 3.112061 1_555
Li17 Li59 3.279881 1_555
Li17 Li31 3.292041 1_555
Li17 Li6 3.309441 1_555
Li18 Li85 3.069294 1_555
Li18 Li24 3.198618 1_454
Li18 Li33 3.270660 1_555
Li18 Li71 3.279881 1_555
Li19 Li68 2.953284 1_556
Li19 Li62 3.025499 1_555
Li19 Li6 3.122099 1_455
Li19 Li73 3.292036 1_556
Li19 Li67 3.293301 1_556
Li19 Li39 3.315402 1_456
Li20 Li47 3.025499 1_555
Li20 Li76 3.036946 1_555
Li20 Li35 3.050148 1_555
Li20 Li29 3.071580 1_555
Li20 Li48 3.112070 1_555
Li20 Li74 3.165671 1_555
Li20 Li65 3.196687 1_555
Li21 Li60 3.025501 1_556
Li21 Li34 3.122093 1_555
Li21 Li71 3.292051 1_656
Li21 Li24 3.293301 1_555
Li21 Li82 3.315402 1_555
Li22 Li37 2.825491 1_555
Li22 Li52 2.873551 1_556
Li22 Li46 2.953284 1_556
Li22 Li5 2.991485 1_555
Li22 Li72 3.010738 1_545
Li22 Li81 3.026048 1_555
Li22 Li41 3.071580 1_545
Li22 Li3 3.071679 1_556
Li22 Li44 3.076268 1_545
Li22 Li80 3.081395 1_555
Li23 Li40 3.050130 1_565
Li23 Li36 3.076272 1_455
Li23 Li28 3.096010 1_455
Li23 Li66 3.246935 1_565
Li23 Li6 3.329576 1_455
Li24 Li58 3.122093 1_555
Li24 Li71 3.309430 1_656
Li24 Li8 3.329576 1_655
Li24 Li82 3.335396 1_555
Li25 Li86 3.292471 1_555
Li25 Li78 3.401369 1_565
Li26 Li29 2.991471 1_555
Li26 Li74 3.069294 1_555
Li26 Li51 3.081340 1_555
Li26 Li57 3.198618 1_555
Li26 Li86 3.270660 1_555
Li26 Li61 3.279881 1_555
Li27 Li51 3.069297 1_555
Li27 Li74 3.081343 1_555
Li27 Li34 3.198632 1_555
Li27 Li86 3.270649 1_555
Li27 Li48 3.279899 1_555
Li28 Li36 3.026048 1_555
Li28 Li50 3.054415 1_555
Li28 Li83 3.067391 1_555
Li28 Li59 3.069312 1_555
Li28 Li56 3.104437 1_555
Li28 Li40 3.165662 1_665
Li28 Li4 3.189716 1_555
Li29 Li57 2.825497 1_555
Li29 Li70 2.953284 1_555
Li29 Li76 3.010738 1_555
Li29 Li74 3.026048 1_555
Li29 Li51 3.054415 1_555
Li29 Li65 3.071679 1_555
Li29 Li35 3.076256 1_555
Li29 Li61 3.081409 1_555
Li29 Li49 3.101833 1_555
Li30 Li68 2.991486 1_555
Li30 Li85 3.081343 1_555
Li30 Li67 3.198632 1_555
Li30 Li33 3.270649 1_555
Li30 Li73 3.279899 1_555
Li31 Li36 2.953284 1_555
Li31 Li32 3.025499 1_555
Li31 Li64 3.044922 1_565
Li31 Li37 3.122098 1_565
Li31 Li6 3.293312 1_555
Li31 Li66 3.315402 1_665
Li32 Li69 3.036946 1_565
Li32 Li63 3.050140 1_555
Li32 Li50 3.071580 1_555
Li32 Li36 3.101847 1_555
Li32 Li4 3.165671 1_555
Li32 Li64 3.196687 1_565
Li33 Li85 3.104437 1_555
Li33 Li54 3.292471 1_555
Li34 Li47 3.293301 1_555
Li34 Li48 3.309426 1_555
Li34 Li55 3.329576 1_555
Li35 Li74 3.096012 1_555
Li35 Li76 3.246921 1_555
Li35 Li57 3.329576 1_555
Li36 Li6 2.825491 1_555
Li36 Li50 2.873551 1_555
Li36 Li59 2.991485 1_555
Li36 Li66 3.010738 1_665
Li36 Li4 3.054415 1_555
Li36 Li40 3.071565 1_665
Li36 Li64 3.071679 1_565
Li37 Li5 3.198620 1_555
Li37 Li46 3.293301 1_556
Li37 Li80 3.309445 1_555
Li37 Li44 3.329576 1_545
Li37 Li72 3.335379 1_545
Li38 Li86 3.292471 1_554
Li38 Li73 3.401359 1_555
Li39 Li68 3.010738 1_655
Li39 Li60 3.036940 1_555
Li39 Li72 3.230306 1_554
Li39 Li9 3.246921 1_655
Li39 Li67 3.335396 1_655
Li40 Li58 3.025515 1_455
Li40 Li66 3.036934 1_555
Li40 Li50 3.101848 1_445
Li40 Li83 3.112070 1_445
Li40 Li64 3.196687 1_455
Li41 Li79 3.025499 1_566
Li41 Li72 3.036946 1_555
Li41 Li44 3.050140 1_555
Li41 Li52 3.101847 1_566
Li41 Li78 3.112061 1_565
Li41 Li81 3.165671 1_565
Li42 Li52 2.991485 1_556
Li42 Li81 3.081352 1_555
Li42 Li45 3.270668 1_555
Li42 Li78 3.279881 1_555
Li43 Li50 2.825491 1_545
Li43 Li79 3.122098 1_555
Li43 Li58 3.293301 1_555
Li43 Li83 3.309445 1_545
Li43 Li63 3.329576 1_545
Li43 Li69 3.335379 1_555
Li44 Li81 3.096017 1_565
Li44 Li72 3.246919 1_555
Li45 Li81 3.104437 1_555
Li45 Li5 3.270668 1_555
Li45 Li75 3.292471 1_555
Li45 Li87 3.292471 1_555
Li46 Li57 3.122093 1_655
Li46 Li80 3.292041 1_554
Li46 Li72 3.315402 1_544
Li47 Li65 3.044922 1_555
Li47 Li48 3.292036 1_555
Li48 Li74 3.067411 1_555
Li48 Li54 3.401359 1_555
Li49 Li70 3.025501 1_555
Li49 Li55 3.050140 1_555
Li49 Li61 3.112080 1_555
Li49 Li51 3.165658 1_555
Li49 Li65 3.196678 1_555
Li50 Li58 2.953284 1_565
Li50 Li69 3.010738 1_565
Li50 Li64 3.071679 1_565
Li50 Li63 3.076268 1_555
Li50 Li83 3.081395 1_555
Li51 Li61 3.067404 1_555
Li51 Li55 3.096012 1_555
Li51 Li86 3.104437 1_555
Li51 Li74 3.189716 1_555
Li52 Li79 2.953284 1_555
Li52 Li53 3.010738 1_555
Li52 Li81 3.054415 1_554
Li52 Li84 3.076272 1_555
Li52 Li78 3.081395 1_554
Li53 Li82 3.230306 1_555
Li53 Li84 3.246935 1_555
Li53 Li79 3.315402 1_555
Li56 Li59 3.270668 1_555
Li56 Li77 3.292471 1_554
Li56 Li7 3.292471 1_555
Li57 Li70 3.293301 1_555
Li57 Li61 3.309430 1_555
Li57 Li76 3.335396 1_555
Li58 Li64 3.044922 1_555
Li58 Li83 3.292041 1_545
Li58 Li69 3.315402 1_555
Li59 Li6 3.198606 1_555
Li60 Li9 3.050140 1_655
Li60 Li68 3.071561 1_655
Li60 Li71 3.112080 1_655
Li61 Li70 3.292051 1_555
Li61 Li75 3.401355 1_555
Li62 Li82 3.036946 1_455
Li62 Li8 3.050148 1_555
Li62 Li68 3.101847 1_556
Li62 Li73 3.112070 1_556
Li62 Li85 3.165671 1_556
Li63 Li69 3.246919 1_565
Li64 Li66 3.090742 1_655
Li64 Li69 3.090742 1_555
Li65 Li70 3.044922 1_555
Li65 Li76 3.090742 1_555
Li66 Li76 3.230306 1_556
Li67 Li68 2.825497 1_555
Li67 Li70 3.122093 1_565
Li67 Li73 3.309426 1_555
Li67 Li9 3.329576 1_555
Li68 Li85 3.054415 1_555
Li68 Li9 3.076256 1_555
Li68 Li73 3.081404 1_555
Li70 Li76 3.315402 1_555
Li73 Li85 3.067411 1_555
Li74 Li86 3.104437 1_555
Li77 Li80 3.401369 1_555
Li78 Li81 3.067391 1_555
Li78 Li79 3.292041 1_556
Li83 Li87 3.401369 1_665
