# generated using pymatgen
data_Co3B7BrO13
_symmetry_space_group_name_H-M   'P 1'
_cell_length_a   8.64656200
_cell_length_b   8.65114800
_cell_length_c   12.24418700
_cell_angle_alpha   90.00000000
_cell_angle_beta   90.00000000
_cell_angle_gamma   90.00000000
_symmetry_Int_Tables_number   1
_chemical_formula_structural   Co3B7BrO13
_chemical_formula_sum   'Co12 B28 Br4 O52'
_cell_volume   915.89809450
_cell_formula_units_Z   4
loop_
 _symmetry_equiv_pos_site_id
 _symmetry_equiv_pos_as_xyz
  1  'x, y, z'
loop_
 _atom_site_type_symbol
 _atom_site_label
 _atom_site_symmetry_multiplicity
 _atom_site_fract_x
 _atom_site_fract_y
 _atom_site_fract_z
 _atom_site_occupancy
  Co  Co0  1  0.97002200  0.01400400  0.00295500  1
  Co  Co1  1  0.02997800  0.98599600  0.50295500  1
  Co  Co2  1  0.02997800  0.51400400  0.00295500  1
  Co  Co3  1  0.46863200  0.51550600  0.00066400  1
  Co  Co4  1  0.46863200  0.98449400  0.50066400  1
  Co  Co5  1  0.25322000  0.73983100  0.72616400  1
  Co  Co6  1  0.74678000  0.23983100  0.72616400  1
  Co  Co7  1  0.53136800  0.48449400  0.50066400  1
  Co  Co8  1  0.53136800  0.01550600  0.00066400  1
  Co  Co9  1  0.74678000  0.26016900  0.22616400  1
  Co  Co10  1  0.25322000  0.76016900  0.22616400  1
  Co  Co11  1  0.97002200  0.48599600  0.50295500  1
  B  B0  1  0.90403300  0.74639000  0.17032200  1
  B  B1  1  0.24657200  0.25673600  0.49776800  1
  B  B2  1  0.75055800  0.95713400  0.35241600  1
  B  B3  1  0.75342800  0.74326400  0.99776800  1
  B  B4  1  0.75055800  0.54286600  0.85241600  1
  B  B5  1  0.59749100  0.74644700  0.16986100  1
  B  B6  1  0.09596700  0.25361000  0.67032200  1
  B  B7  1  0.99655300  0.49800000  0.75047600  1
  B  B8  1  0.75040000  0.90577700  0.82264000  1
  B  B9  1  0.59749100  0.75355300  0.66986100  1
  B  B10  1  0.99655300  0.00200000  0.25047600  1
  B  B11  1  0.00344700  0.99800000  0.75047600  1
  B  B12  1  0.09596700  0.24639000  0.17032200  1
  B  B13  1  0.40250900  0.25355300  0.66986100  1
  B  B14  1  0.75040000  0.59422300  0.32264000  1
  B  B15  1  0.49637200  0.99786700  0.75026200  1
  B  B16  1  0.90403300  0.75361000  0.67032200  1
  B  B17  1  0.50362800  0.00213300  0.25026200  1
  B  B18  1  0.75342800  0.75673600  0.49776800  1
  B  B19  1  0.24944200  0.04286600  0.85241600  1
  B  B20  1  0.00344700  0.50200000  0.25047600  1
  B  B21  1  0.50362800  0.49786700  0.75026200  1
  B  B22  1  0.24944200  0.45713400  0.35241600  1
  B  B23  1  0.24960000  0.09422300  0.32264000  1
  B  B24  1  0.40250900  0.24644700  0.16986100  1
  B  B25  1  0.24657200  0.24326400  0.99776800  1
  B  B26  1  0.49637200  0.50213300  0.25026200  1
  B  B27  1  0.24960000  0.40577700  0.82264000  1
  Br  Br0  1  0.24833300  0.77140400  0.51128500  1
  Br  Br1  1  0.75166700  0.27140400  0.51128500  1
  Br  Br2  1  0.75166700  0.22859600  0.01128500  1
  Br  Br3  1  0.24833300  0.72859600  0.01128500  1
  O  O0  1  0.36358200  0.17913000  0.56645700  1
  O  O1  1  0.94166800  0.91041100  0.15641900  1
  O  O2  1  0.09001900  0.03643300  0.85403500  1
  O  O3  1  0.83875500  0.03304100  0.77232500  1
  O  O4  1  0.32822500  0.11661100  0.93572100  1
  O  O5  1  0.17557300  0.35793300  0.92456800  1
  O  O6  1  0.33055700  0.95725500  0.77633200  1
  O  O7  1  0.36358200  0.32087000  0.06645700  1
  O  O8  1  0.97359500  0.16708400  0.22872200  1
  O  O9  1  0.97359500  0.33291600  0.72872200  1
  O  O10  1  0.46097700  0.08920800  0.15193100  1
  O  O11  1  0.83875500  0.46695900  0.27232500  1
  O  O12  1  0.90998100  0.53643300  0.85403500  1
  O  O13  1  0.33055700  0.54274500  0.27633200  1
  O  O14  1  0.46097700  0.41079200  0.65193100  1
  O  O15  1  0.12518900  0.17270600  0.06489600  1
  O  O16  1  0.02640500  0.83291600  0.72872200  1
  O  O17  1  0.67177500  0.88338900  0.43572100  1
  O  O18  1  0.48312900  0.83630600  0.23033200  1
  O  O19  1  0.40853300  0.45113200  0.84404000  1
  O  O20  1  0.53902300  0.58920800  0.15193100  1
  O  O21  1  0.59146700  0.54886800  0.34404000  1
  O  O22  1  0.12518900  0.32729400  0.56489600  1
  O  O23  1  0.74983800  0.76995900  0.73851100  1
  O  O24  1  0.16124500  0.96695900  0.27232500  1
  O  O25  1  0.25016200  0.23004100  0.23851100  1
  O  O26  1  0.66944300  0.45725400  0.77633200  1
  O  O27  1  0.05833200  0.41041100  0.15641900  1
  O  O28  1  0.63641800  0.82087000  0.06645700  1
  O  O29  1  0.94166800  0.58958900  0.65641900  1
  O  O30  1  0.16124500  0.53304100  0.77232500  1
  O  O31  1  0.59146700  0.95113200  0.84404000  1
  O  O32  1  0.87481100  0.82729400  0.56489600  1
  O  O33  1  0.40853300  0.04886800  0.34404000  1
  O  O34  1  0.63641800  0.67913000  0.56645700  1
  O  O35  1  0.82442700  0.85793300  0.92456800  1
  O  O36  1  0.05833200  0.08958900  0.65641900  1
  O  O37  1  0.74983800  0.73004100  0.23851100  1
  O  O38  1  0.09001900  0.46356700  0.35403500  1
  O  O39  1  0.53902300  0.91079200  0.65193100  1
  O  O40  1  0.82442700  0.64206700  0.42456800  1
  O  O41  1  0.66944300  0.04274500  0.27633200  1
  O  O42  1  0.51687100  0.16369400  0.73033200  1
  O  O43  1  0.25016200  0.26995900  0.73851100  1
  O  O44  1  0.17557300  0.14206700  0.42456800  1
  O  O45  1  0.51687100  0.33630600  0.23033200  1
  O  O46  1  0.67177500  0.61661100  0.93572100  1
  O  O47  1  0.87481100  0.67270600  0.06489600  1
  O  O48  1  0.90998100  0.96356700  0.35403500  1
  O  O49  1  0.02640500  0.66708400  0.22872200  1
  O  O50  1  0.32822500  0.38338900  0.43572100  1
  O  O51  1  0.48312900  0.66369400  0.73033200  1
loop_
_geom_bond_atom_site_label_1
_geom_bond_atom_site_label_2
_geom_bond_distance
_geom_bond_site_symmetry_2
Co0 O15 2.064039 1_655
Co0 O35 2.080632 1_544
Co0 O1 2.096205 1_545
Co0 O2 2.106890 1_654
Co1 O32 2.064039 1_455
Co1 O44 2.080632 1_565
Co1 O36 2.096205 1_565
Co1 O48 2.106890 1_455
Co2 O47 2.064039 1_455
Co2 O5 2.080632 1_554
Co2 O27 2.096205 1_555
Co2 O12 2.106890 1_454
Co3 O20 2.051198 1_555
Co3 O19 2.063464 1_554
Co3 O7 2.075880 1_555
Co3 O46 2.117217 1_554
Co4 O39 2.051198 1_555
Co4 O33 2.063464 1_565
Co4 O0 2.075880 1_565
Co4 O17 2.117217 1_555
Co5 O30 2.037725 1_555
Co5 O6 2.088664 1_555
Co5 O51 2.094824 1_555
Co5 O16 2.120298 1_555
Co6 O3 2.037725 1_555
Co6 O26 2.088657 1_555
Co6 O42 2.094824 1_555
Co6 O9 2.120298 1_555
Co7 O14 2.051198 1_555
Co7 O21 2.063464 1_555
Co7 O34 2.075880 1_555
Co7 O50 2.117217 1_555
Co8 O10 2.051198 1_555
Co8 O31 2.063464 1_544
Co8 O28 2.075880 1_545
Co8 O4 2.117217 1_554
Co9 O11 2.037725 1_555
Co9 O41 2.088664 1_555
Co9 O45 2.094824 1_555
Co9 O8 2.120298 1_555
Co10 O24 2.037725 1_555
Co10 O13 2.088664 1_555
Co10 O18 2.094824 1_555
Co10 O49 2.120298 1_555
Co11 O22 2.064039 1_655
Co11 O40 2.080632 1_555
Co11 O29 2.096205 1_555
Co11 O38 2.106890 1_655
B0 O49 1.449689 1_655
B0 O47 1.461675 1_555
B0 O1 1.465724 1_555
B0 O37 1.579452 1_555
B1 O22 1.466189 1_555
B1 O44 1.471149 1_555
B1 O0 1.477061 1_555
B1 O50 1.508699 1_555
B2 O48 1.379726 1_555
B2 O41 1.381414 1_565
B2 O17 1.382555 1_555
B3 O47 1.466189 1_556
B3 O35 1.471149 1_555
B3 O28 1.477061 1_556
B3 O46 1.508699 1_555
B4 O12 1.379726 1_555
B4 O26 1.381419 1_555
B4 O46 1.382555 1_555
B5 O18 1.459570 1_555
B5 O28 1.459736 1_555
B5 O20 1.467714 1_555
B5 O37 1.569048 1_555
B6 O9 1.449689 1_455
B6 O22 1.461675 1_555
B6 O36 1.465724 1_555
B6 O43 1.579452 1_555
B7 O9 1.466292 1_555
B7 O29 1.476256 1_555
B7 O30 1.480303 1_655
B7 O12 1.509533 1_555
B8 O31 1.452964 1_555
B8 O35 1.462391 1_555
B8 O3 1.474903 1_565
B8 O23 1.562592 1_555
B9 O51 1.459570 1_555
B9 O34 1.459736 1_555
B9 O39 1.467714 1_555
B9 O23 1.569048 1_555
B10 O8 1.466292 1_555
B10 O1 1.476256 1_545
B10 O24 1.480303 1_645
B10 O48 1.509533 1_545
B11 O16 1.466292 1_555
B11 O36 1.476256 1_565
B11 O3 1.480303 1_465
B11 O2 1.509533 1_565
B12 O8 1.449689 1_455
B12 O15 1.461675 1_555
B12 O27 1.465724 1_555
B12 O25 1.579452 1_555
B13 O42 1.459570 1_555
B13 O0 1.459736 1_555
B13 O14 1.467714 1_555
B13 O43 1.569048 1_555
B14 O21 1.452964 1_555
B14 O40 1.462391 1_555
B14 O11 1.474903 1_555
B14 O37 1.562592 1_555
B15 O42 1.465955 1_565
B15 O39 1.467323 1_555
B15 O31 1.469013 1_555
B15 O6 1.510269 1_555
B16 O16 1.449689 1_655
B16 O32 1.461675 1_555
B16 O29 1.465724 1_555
B16 O23 1.579452 1_555
B17 O18 1.465955 1_545
B17 O10 1.467323 1_555
B17 O33 1.469013 1_555
B17 O41 1.510269 1_555
B18 O32 1.466189 1_555
B18 O40 1.471149 1_555
B18 O34 1.477061 1_555
B18 O17 1.508699 1_555
B19 O2 1.379726 1_555
B19 O6 1.381414 1_545
B19 O4 1.382555 1_555
B20 O49 1.466292 1_555
B20 O27 1.476256 1_555
B20 O11 1.480303 1_455
B20 O38 1.509533 1_555
B21 O51 1.465955 1_555
B21 O14 1.467323 1_555
B21 O19 1.469013 1_555
B21 O26 1.510271 1_555
B22 O38 1.379726 1_555
B22 O13 1.381414 1_555
B22 O50 1.382555 1_555
B23 O33 1.452964 1_555
B23 O44 1.462391 1_555
B23 O24 1.474903 1_545
B23 O25 1.562592 1_555
B24 O45 1.459570 1_555
B24 O7 1.459736 1_555
B24 O10 1.467714 1_555
B24 O25 1.569048 1_555
B25 O15 1.466189 1_556
B25 O5 1.471149 1_555
B25 O7 1.477061 1_556
B25 O4 1.508699 1_555
B26 O45 1.465955 1_555
B26 O20 1.467323 1_555
B26 O21 1.469013 1_555
B26 O13 1.510269 1_555
B27 O19 1.452964 1_555
B27 O5 1.462391 1_555
B27 O30 1.474903 1_555
B27 O43 1.562592 1_555
Br0 Co5 2.645496 1_555
Br0 Co1 2.649810 1_555
Br0 Co4 2.653993 1_555
Br1 Co6 2.645496 1_555
Br1 Co11 2.649810 1_555
Br1 Co7 2.653993 1_555
Br2 Co9 2.645496 1_555
Br2 Co0 2.649810 1_555
Br2 Co8 2.653993 1_555
Br3 Co10 2.645496 1_555
Br3 Co2 2.649810 1_555
Br3 Co3 2.653993 1_555
