# generated using pymatgen
data_NaNb4Tl3P2O17
_symmetry_space_group_name_H-M   'P 1'
_cell_length_a   11.95444068
_cell_length_b   11.95444068
_cell_length_c   7.49101900
_cell_angle_alpha   90.00000000
_cell_angle_beta   90.00000000
_cell_angle_gamma   130.05342673
_symmetry_Int_Tables_number   1
_chemical_formula_structural   NaNb4Tl3P2O17
_chemical_formula_sum   'Na2 Nb8 Tl6 P4 O34'
_cell_volume   819.43263730
_cell_formula_units_Z   2
loop_
 _symmetry_equiv_pos_site_id
 _symmetry_equiv_pos_as_xyz
  1  'x, y, z'
loop_
 _atom_site_type_symbol
 _atom_site_label
 _atom_site_symmetry_multiplicity
 _atom_site_fract_x
 _atom_site_fract_y
 _atom_site_fract_z
 _atom_site_occupancy
  Na  Na0  1  0.63209900  0.63209900  0.00000000  1
  Na  Na1  1  0.63209900  0.63209900  0.50000000  1
  Nb  Nb0  1  0.03847500  0.34578900  0.49935100  1
  Nb  Nb1  1  0.14653800  0.67302000  0.75000000  1
  Nb  Nb2  1  0.03847500  0.34578900  0.00064900  1
  Nb  Nb3  1  0.00100900  0.00100900  0.50000000  1
  Nb  Nb4  1  0.34578900  0.03847500  0.99935100  1
  Nb  Nb5  1  0.00100900  0.00100900  0.00000000  1
  Nb  Nb6  1  0.34578900  0.03847500  0.50064900  1
  Nb  Nb7  1  0.67302000  0.14653800  0.25000000  1
  Tl  Tl0  1  0.96573300  0.68780000  0.25000000  1
  Tl  Tl1  1  0.31794500  0.71381900  0.25000000  1
  Tl  Tl2  1  0.71381900  0.31794500  0.75000000  1
  Tl  Tl3  1  0.31052900  0.36677300  0.25000000  1
  Tl  Tl4  1  0.36677300  0.31052900  0.75000000  1
  Tl  Tl5  1  0.68780000  0.96573300  0.75000000  1
  P  P0  1  0.58120700  0.35132800  0.25000000  1
  P  P1  1  0.86200100  0.68674500  0.75000000  1
  P  P2  1  0.35132800  0.58120700  0.75000000  1
  P  P3  1  0.68674500  0.86200100  0.25000000  1
  O  O0  1  0.41676700  0.11662500  0.75000000  1
  O  O1  1  0.51317900  0.65391500  0.75000000  1
  O  O2  1  0.77678600  0.89947900  0.42376100  1
  O  O3  1  0.19035200  0.06016300  0.95877600  1
  O  O4  1  0.52953200  0.07392500  0.06253800  1
  O  O5  1  0.19035200  0.06016300  0.54122400  1
  O  O6  1  0.94456400  0.00055100  0.75000000  1
  O  O7  1  0.48533900  0.27258600  0.07968300  1
  O  O8  1  0.52953200  0.07392500  0.43746200  1
  O  O9  1  0.77678600  0.89947900  0.07623900  1
  O  O10  1  0.99195700  0.28578700  0.75000000  1
  O  O11  1  0.11662500  0.41676700  0.25000000  1
  O  O12  1  0.07392500  0.52953200  0.93746200  1
  O  O13  1  0.84092900  0.23598100  0.06841500  1
  O  O14  1  0.00055100  0.94456400  0.25000000  1
  O  O15  1  0.27258600  0.48533900  0.57968300  1
  O  O16  1  0.55042500  0.70052800  0.25000000  1
  O  O17  1  0.06016300  0.19035200  0.45877600  1
  O  O18  1  0.89947900  0.77678600  0.57623900  1
  O  O19  1  0.89947900  0.77678600  0.92376100  1
  O  O20  1  0.63940900  0.95744300  0.25000000  1
  O  O21  1  0.33590900  0.70360000  0.75000000  1
  O  O22  1  0.70052800  0.55042500  0.75000000  1
  O  O23  1  0.28578700  0.99195700  0.25000000  1
  O  O24  1  0.23598100  0.84092900  0.93158500  1
  O  O25  1  0.06016300  0.19035200  0.04122400  1
  O  O26  1  0.65391500  0.51317900  0.25000000  1
  O  O27  1  0.48533900  0.27258600  0.42031700  1
  O  O28  1  0.23598100  0.84092900  0.56841500  1
  O  O29  1  0.84092900  0.23598100  0.43158500  1
  O  O30  1  0.07392500  0.52953200  0.56253800  1
  O  O31  1  0.95744300  0.63940900  0.75000000  1
  O  O32  1  0.27258600  0.48533900  0.92031700  1
  O  O33  1  0.70360000  0.33590900  0.25000000  1
loop_
_geom_bond_atom_site_label_1
_geom_bond_atom_site_label_2
_geom_bond_distance
_geom_bond_site_symmetry_2
Na0 O1 2.464427 1_554
Na0 O26 2.464427 1_555
Na0 O22 2.481452 1_554
Na0 O16 2.481452 1_555
Na0 O9 2.533642 1_555
Na0 O19 2.533642 1_554
Na1 O26 2.464427 1_555
Na1 O1 2.464427 1_555
Na1 O22 2.481452 1_555
Na1 O16 2.481452 1_555
Na1 O2 2.533642 1_555
Na1 O18 2.533642 1_555
Nb0 O29 1.888937 1_455
Nb0 O10 1.958527 1_455
Nb0 O30 2.007592 1_555
Nb0 O11 2.015334 1_555
Nb0 O17 2.057280 1_555
Nb0 O15 2.229094 1_555
Nb1 O12 1.936882 1_555
Nb1 O30 1.936882 1_555
Nb1 O31 2.025452 1_455
Nb1 O21 2.047790 1_555
Nb1 O28 2.064083 1_555
Nb1 O24 2.064083 1_555
Nb2 O13 1.888937 1_455
Nb2 O10 1.958527 1_454
Nb2 O12 2.007592 1_554
Nb2 O11 2.015334 1_555
Nb2 O25 2.057280 1_555
Nb2 O32 2.229094 1_554
Nb3 O5 1.912797 1_555
Nb3 O17 1.912797 1_555
Nb3 O6 1.989422 1_455
Nb3 O14 1.989422 1_545
Nb3 O2 2.190226 1_445
Nb3 O18 2.190226 1_445
Nb4 O24 1.888937 1_545
Nb4 O23 1.958527 1_546
Nb4 O4 2.007592 1_556
Nb4 O0 2.015334 1_555
Nb4 O3 2.057280 1_555
Nb4 O7 2.229094 1_556
Nb5 O3 1.912797 1_554
Nb5 O25 1.912797 1_555
Nb5 O6 1.989422 1_454
Nb5 O14 1.989422 1_545
Nb5 O9 2.190226 1_445
Nb5 O19 2.190226 1_444
Nb6 O28 1.888937 1_545
Nb6 O23 1.958527 1_545
Nb6 O8 2.007592 1_555
Nb6 O0 2.015334 1_555
Nb6 O5 2.057280 1_555
Nb6 O27 2.229094 1_555
Nb7 O8 1.936882 1_555
Nb7 O4 1.936882 1_555
Nb7 O20 2.025452 1_545
Nb7 O33 2.047790 1_555
Nb7 O13 2.064083 1_555
Nb7 O29 2.064083 1_555
O0 Tl2 2.720879 1_555
O0 Tl4 2.741047 1_555
O1 P2 1.527968 1_555
O1 Tl5 2.870203 1_555
O2 P3 1.559797 1_555
O3 Tl4 2.779918 1_555
O5 Tl4 2.779918 1_555
O6 Tl5 2.819683 1_545
O7 P0 1.561691 1_555
O9 P3 1.559797 1_555
O11 Tl1 2.720879 1_555
O11 Tl3 2.741047 1_555
O14 Tl0 2.819683 1_455
O15 P2 1.561691 1_555
O16 P3 1.527512 1_555
O17 Tl3 2.779918 1_555
O18 P1 1.559797 1_555
O19 P1 1.559797 1_555
O20 P3 1.566185 1_555
O21 P2 1.588034 1_555
O22 P1 1.527512 1_555
O25 Tl3 2.779918 1_555
O26 P0 1.527968 1_555
O26 Tl0 2.870203 1_555
O27 P0 1.561691 1_555
O31 P1 1.566185 1_555
O32 P2 1.561691 1_555
O33 P0 1.588034 1_555
