# generated using pymatgen
data_LiV(IO4)2
_symmetry_space_group_name_H-M   'P 1'
_cell_length_a   5.31626900
_cell_length_b   10.09191700
_cell_length_c   13.81231655
_cell_angle_alpha   61.96652486
_cell_angle_beta   90.00000000
_cell_angle_gamma   90.00000000
_symmetry_Int_Tables_number   1
_chemical_formula_structural   LiV(IO4)2
_chemical_formula_sum   'Li4 V4 I8 O32'
_cell_volume   654.10438164
_cell_formula_units_Z   4
loop_
 _symmetry_equiv_pos_site_id
 _symmetry_equiv_pos_as_xyz
  1  'x, y, z'
loop_
 _atom_site_type_symbol
 _atom_site_label
 _atom_site_symmetry_multiplicity
 _atom_site_fract_x
 _atom_site_fract_y
 _atom_site_fract_z
 _atom_site_occupancy
  Li  Li0  1  0.23443700  0.76335400  0.43636300  1
  Li  Li1  1  0.73443700  0.23664600  0.06363700  1
  Li  Li2  1  0.76556300  0.23664600  0.56363700  1
  Li  Li3  1  0.26556300  0.76335400  0.93636300  1
  V  V0  1  0.27802600  0.26707600  0.95005100  1
  V  V1  1  0.77802600  0.73292400  0.54994900  1
  V  V2  1  0.22197400  0.26707600  0.45005100  1
  V  V3  1  0.72197400  0.73292400  0.04994900  1
  I  I0  1  0.18251700  0.92479200  0.16931900  1
  I  I1  1  0.69495800  0.58343300  0.32872500  1
  I  I2  1  0.80504200  0.58343300  0.82872500  1
  I  I3  1  0.68251700  0.07520800  0.33068100  1
  I  I4  1  0.31748300  0.92479200  0.66931900  1
  I  I5  1  0.81748300  0.07520800  0.83068100  1
  I  I6  1  0.30504200  0.41656700  0.67127500  1
  I  I7  1  0.19495800  0.41656700  0.17127500  1
  O  O0  1  0.41282200  0.60690400  0.57819700  1
  O  O1  1  0.91935500  0.30554900  0.17658800  1
  O  O2  1  0.92840600  0.07469800  0.70681900  1
  O  O3  1  0.42840600  0.92530200  0.79318100  1
  O  O4  1  0.58064500  0.30554900  0.67658800  1
  O  O5  1  0.44327900  0.11486500  0.56435000  1
  O  O6  1  0.87090600  0.57378100  0.69724600  1
  O  O7  1  0.55672100  0.88513500  0.43565000  1
  O  O8  1  0.94327900  0.88513500  0.93565000  1
  O  O9  1  0.98030200  0.15251900  0.46868900  1
  O  O10  1  0.88012400  0.64235800  0.48127300  1
  O  O11  1  0.92291200  0.80983200  0.16041600  1
  O  O12  1  0.08717800  0.60690400  0.07819700  1
  O  O13  1  0.42291200  0.19016800  0.33958400  1
  O  O14  1  0.58717800  0.39309600  0.42180300  1
  O  O15  1  0.62909400  0.57378100  0.19724600  1
  O  O16  1  0.08064500  0.69445100  0.82341200  1
  O  O17  1  0.91282200  0.39309600  0.92180300  1
  O  O18  1  0.12909400  0.42621900  0.30275400  1
  O  O19  1  0.51969800  0.15251900  0.96868900  1
  O  O20  1  0.37090600  0.42621900  0.80275400  1
  O  O21  1  0.07708800  0.19016800  0.83958400  1
  O  O22  1  0.57159400  0.07469800  0.20681900  1
  O  O23  1  0.01969800  0.84748100  0.53131100  1
  O  O24  1  0.61987600  0.64235800  0.98127300  1
  O  O25  1  0.07159400  0.92530200  0.29318100  1
  O  O26  1  0.05672100  0.11486500  0.06435000  1
  O  O27  1  0.57708800  0.80983200  0.66041600  1
  O  O28  1  0.48030200  0.84748100  0.03131100  1
  O  O29  1  0.11987600  0.35764200  0.51872700  1
  O  O30  1  0.41935500  0.69445100  0.32341200  1
  O  O31  1  0.38012400  0.35764200  0.01872700  1
loop_
_geom_bond_atom_site_label_1
_geom_bond_atom_site_label_2
_geom_bond_distance
_geom_bond_site_symmetry_2
Li0 O25 2.072098 1_555
Li0 O0 2.079103 1_555
Li0 O7 2.105881 1_555
Li0 O10 2.170686 1_455
Li0 O23 2.188739 1_555
Li0 O30 2.214419 1_555
Li1 O22 2.072098 1_555
Li1 O17 2.079103 1_554
Li1 O26 2.105881 1_655
Li1 O31 2.170686 1_555
Li1 O19 2.188739 1_554
Li1 O1 2.214419 1_555
Li2 O2 2.072098 1_555
Li2 O14 2.079103 1_555
Li2 O5 2.105881 1_555
Li2 O29 2.170686 1_655
Li2 O9 2.188739 1_555
Li2 O4 2.214419 1_555
Li3 O3 2.072098 1_555
Li3 O12 2.079103 1_556
Li3 O8 2.105881 1_455
Li3 O24 2.170686 1_555
Li3 O28 2.188739 1_556
Li3 O16 2.214419 1_555
I0 O25 1.811892 1_555
I0 O11 1.843901 1_455
I0 O26 1.901225 1_565
I1 O30 1.824860 1_555
I1 O14 1.830188 1_555
I1 O15 1.896400 1_555
I2 O16 1.824860 1_655
I2 O17 1.830188 1_555
I2 O6 1.896400 1_555
I3 O22 1.811892 1_555
I3 O13 1.843901 1_555
I3 O7 1.901225 1_545
I4 O3 1.811892 1_555
I4 O27 1.843901 1_555
I4 O5 1.901225 1_565
I5 O2 1.811892 1_555
I5 O21 1.843901 1_655
I5 O8 1.901225 1_545
I6 O4 1.824860 1_555
I6 O0 1.830188 1_555
I6 O20 1.896400 1_555
I7 O1 1.824860 1_455
I7 O12 1.830188 1_555
I7 O18 1.896400 1_555
O0 V1 2.252276 1_555
O5 V2 1.989138 1_555
O6 V1 1.972579 1_555
O7 V1 1.989138 1_555
O8 V3 1.989138 1_556
O9 V2 1.665466 1_655
O10 V1 1.686628 1_555
O11 V3 2.277014 1_555
O12 V3 2.252276 1_455
O13 V2 2.277014 1_555
O14 V2 2.252276 1_555
O15 V3 1.972579 1_555
O17 V0 2.252276 1_655
O18 V2 1.972579 1_555
O19 V0 1.665466 1_555
O20 V0 1.972579 1_555
O21 V0 2.277014 1_555
O23 V1 1.665466 1_455
O24 V3 1.686628 1_556
O26 V0 1.989138 1_554
O27 V1 2.277014 1_555
O28 V3 1.665466 1_555
O29 V2 1.686628 1_555
O31 V0 1.686628 1_554
