# generated using pymatgen
data_RbAu(SeO4)2
_symmetry_space_group_name_H-M   'P 1'
_cell_length_a   6.26364265
_cell_length_b   6.26364265
_cell_length_c   7.74295498
_cell_angle_alpha   64.86889947
_cell_angle_beta   64.86889947
_cell_angle_gamma   50.75483333
_symmetry_Int_Tables_number   1
_chemical_formula_structural   RbAu(SeO4)2
_chemical_formula_sum   'Rb1 Au1 Se2 O8'
_cell_volume   207.65180089
_cell_formula_units_Z   1
loop_
 _symmetry_equiv_pos_site_id
 _symmetry_equiv_pos_as_xyz
  1  'x, y, z'
loop_
 _atom_site_type_symbol
 _atom_site_label
 _atom_site_symmetry_multiplicity
 _atom_site_fract_x
 _atom_site_fract_y
 _atom_site_fract_z
 _atom_site_occupancy
  Rb  Rb0  1  0.50000000  0.50000000  0.50000000  1
  Au  Au0  1  0.00000000  0.00000000  0.00000000  1
  Se  Se0  1  0.30352800  0.30352800  0.15424900  1
  Se  Se1  1  0.69647200  0.69647200  0.84575100  1
  O  O0  1  0.85031300  0.85031300  0.66717200  1
  O  O1  1  0.67105800  0.67105800  0.07186500  1
  O  O2  1  0.14968700  0.14968700  0.33282800  1
  O  O3  1  0.32894200  0.32894200  0.92813500  1
  O  O4  1  0.63171100  0.13234600  0.20536300  1
  O  O5  1  0.36828900  0.86765400  0.79463700  1
  O  O6  1  0.13234600  0.63171100  0.20536300  1
  O  O7  1  0.86765400  0.36828900  0.79463700  1
loop_
_geom_bond_atom_site_label_1
_geom_bond_atom_site_label_2
_geom_bond_distance
_geom_bond_site_symmetry_2
Au0 O4 2.030153 1_455
Au0 O6 2.030153 1_545
Au0 O7 2.030153 1_454
Au0 O5 2.030153 1_544
O0 Se1 1.637200 1_555
O0 Rb0 3.112972 1_655
O0 Rb0 3.112972 1_565
O1 Se1 1.635410 1_554
O1 Rb0 2.950281 1_555
O2 Se0 1.637200 1_555
O2 Rb0 3.112972 1_455
O2 Rb0 3.112972 1_545
O3 Se0 1.635410 1_556
O3 Rb0 2.950281 1_555
O4 Se0 1.753190 1_555
O4 Rb0 3.412954 1_555
O5 Se1 1.753190 1_555
O5 Rb0 3.412954 1_555
O6 Se0 1.753190 1_555
O6 Rb0 3.412954 1_555
O7 Se1 1.753190 1_555
O7 Rb0 3.412954 1_555
