# generated using pymatgen
data_AgP(XeF5)2
_symmetry_space_group_name_H-M   'P 1'
_cell_length_a   8.86404369
_cell_length_b   8.86404369
_cell_length_c   8.86404369
_cell_angle_alpha   121.38811713
_cell_angle_beta   121.38811713
_cell_angle_gamma   87.61206885
_symmetry_Int_Tables_number   1
_chemical_formula_structural   AgP(XeF5)2
_chemical_formula_sum   'Ag2 P2 Xe4 F20'
_cell_volume   481.68375963
_cell_formula_units_Z   2
loop_
 _symmetry_equiv_pos_site_id
 _symmetry_equiv_pos_as_xyz
  1  'x, y, z'
loop_
 _atom_site_type_symbol
 _atom_site_label
 _atom_site_symmetry_multiplicity
 _atom_site_fract_x
 _atom_site_fract_y
 _atom_site_fract_z
 _atom_site_occupancy
  Ag  Ag0  1  0.50000000  0.00000000  0.50000000  1
  Ag  Ag1  1  0.00000000  0.50000000  0.50000000  1
  P  P0  1  0.00000000  0.00000000  0.00000000  1
  P  P1  1  0.50000000  0.50000000  0.00000000  1
  Xe  Xe0  1  0.00000000  0.50000000  0.00000000  1
  Xe  Xe1  1  0.50000000  0.50000000  0.50000000  1
  Xe  Xe2  1  0.00000000  0.00000000  0.50000000  1
  Xe  Xe3  1  0.50000000  0.00000000  0.00000000  1
  F  F0  1  0.17291400  0.07751700  0.25043100  1
  F  F1  1  0.32708600  0.57751700  0.90460300  1
  F  F2  1  0.96691800  0.23762200  0.50000000  1
  F  F3  1  0.76237800  0.26237800  0.72929600  1
  F  F4  1  0.46691800  0.96691800  0.72929600  1
  F  F5  1  0.73762200  0.46691800  0.50000000  1
  F  F6  1  0.53308200  0.03308200  0.27070400  1
  F  F7  1  0.67291400  0.42248300  0.09539700  1
  F  F8  1  0.23762200  0.73762200  0.27070400  1
  F  F9  1  0.26237800  0.53308200  0.50000000  1
  F  F10  1  0.42248300  0.32708600  0.74956900  1
  F  F11  1  0.92248300  0.17291400  0.09539700  1
  F  F12  1  0.37193900  0.37193900  0.00000000  1
  F  F13  1  0.87193900  0.87193900  0.00000000  1
  F  F14  1  0.62806100  0.62806100  0.00000000  1
  F  F15  1  0.57751700  0.67291400  0.25043100  1
  F  F16  1  0.07751700  0.82708600  0.90460300  1
  F  F17  1  0.12806100  0.12806100  0.00000000  1
  F  F18  1  0.03308200  0.76237800  0.50000000  1
  F  F19  1  0.82708600  0.92248300  0.74956900  1
loop_
_geom_bond_atom_site_label_1
_geom_bond_atom_site_label_2
_geom_bond_distance
_geom_bond_site_symmetry_2
Ag0 F4 2.356235 1_545
Ag0 F6 2.356235 1_555
Ag0 F8 2.356235 1_545
Ag0 F3 2.356235 1_555
Ag1 F18 2.356235 1_555
Ag1 F5 2.356235 1_455
Ag1 F9 2.356235 1_555
Ag1 F2 2.356235 1_455
F0 P0 1.644322 1_555
F1 P1 1.644322 1_556
F2 Xe2 2.114471 1_655
F3 Xe0 2.114471 1_656
F4 Xe3 2.114471 1_566
F5 Xe1 2.114471 1_555
F6 Xe3 2.114471 1_555
F7 P1 1.644322 1_555
F8 Xe0 2.114471 1_555
F9 Xe1 2.114471 1_555
F10 P1 1.644322 1_556
F11 P0 1.644322 1_655
F12 P1 1.638430 1_555
F13 P0 1.638430 1_665
F14 P1 1.638430 1_555
F15 P1 1.644322 1_555
F16 P0 1.644322 1_566
F17 P0 1.638430 1_555
F18 Xe2 2.114471 1_565
F19 P0 1.644322 1_666
