# generated using pymatgen
data_Ti2Bi2O7
_symmetry_space_group_name_H-M   'P 1'
_cell_length_a   7.36317079
_cell_length_b   7.36317079
_cell_length_c   7.36317079
_cell_angle_alpha   60.00000000
_cell_angle_beta   60.00000000
_cell_angle_gamma   60.00000000
_symmetry_Int_Tables_number   1
_chemical_formula_structural   Ti2Bi2O7
_chemical_formula_sum   'Ti4 Bi4 O14'
_cell_volume   282.27968582
_cell_formula_units_Z   2
loop_
 _symmetry_equiv_pos_site_id
 _symmetry_equiv_pos_as_xyz
  1  'x, y, z'
loop_
 _atom_site_type_symbol
 _atom_site_label
 _atom_site_symmetry_multiplicity
 _atom_site_fract_x
 _atom_site_fract_y
 _atom_site_fract_z
 _atom_site_occupancy
  Ti  Ti0  1  0.62500000  0.12500000  0.12500000  1
  Ti  Ti1  1  0.12500000  0.12500000  0.62500000  1
  Ti  Ti2  1  0.12500000  0.12500000  0.12500000  1
  Ti  Ti3  1  0.12500000  0.62500000  0.12500000  1
  Bi  Bi0  1  0.62500000  0.62500000  0.62500000  1
  Bi  Bi1  1  0.12500000  0.62500000  0.62500000  1
  Bi  Bi2  1  0.62500000  0.12500000  0.62500000  1
  Bi  Bi3  1  0.62500000  0.62500000  0.12500000  1
  O  O0  1  0.19882000  0.80118000  0.80118000  1
  O  O1  1  0.80118000  0.19882000  0.80118000  1
  O  O2  1  0.50000000  0.50000000  0.50000000  1
  O  O3  1  0.05118000  0.44882000  0.44882000  1
  O  O4  1  0.80118000  0.80118000  0.19882000  1
  O  O5  1  0.80118000  0.19882000  0.19882000  1
  O  O6  1  0.19882000  0.80118000  0.19882000  1
  O  O7  1  0.44882000  0.05118000  0.44882000  1
  O  O8  1  0.44882000  0.05118000  0.05118000  1
  O  O9  1  0.19882000  0.19882000  0.80118000  1
  O  O10  1  0.05118000  0.44882000  0.05118000  1
  O  O11  1  0.05118000  0.05118000  0.44882000  1
  O  O12  1  0.44882000  0.44882000  0.05118000  1
  O  O13  1  0.75000000  0.75000000  0.75000000  1
loop_
_geom_bond_atom_site_label_1
_geom_bond_atom_site_label_2
_geom_bond_distance
_geom_bond_site_symmetry_2
Bi0 O13 2.254501 1_555
Bi0 O2 2.254501 1_555
Bi0 O12 2.598884 1_556
Bi0 O7 2.598884 1_565
Bi0 O0 2.598884 1_555
Bi0 O3 2.598884 1_655
Bi0 O1 2.598884 1_555
Bi0 O4 2.598884 1_555
Bi1 O13 2.254501 1_455
Bi1 O2 2.254501 1_555
Bi1 O6 2.598884 1_555
Bi1 O10 2.598884 1_556
Bi1 O0 2.598884 1_555
Bi1 O3 2.598884 1_555
Bi1 O11 2.598884 1_565
Bi1 O9 2.598884 1_555
Bi2 O13 2.254501 1_545
Bi2 O2 2.254501 1_555
Bi2 O7 2.598884 1_555
Bi2 O1 2.598884 1_555
Bi2 O5 2.598884 1_555
Bi2 O8 2.598884 1_556
Bi2 O11 2.598884 1_655
Bi2 O9 2.598884 1_555
Bi3 O13 2.254501 1_554
Bi3 O2 2.254501 1_555
Bi3 O5 2.598884 1_555
Bi3 O8 2.598884 1_565
Bi3 O6 2.598884 1_555
Bi3 O12 2.598884 1_555
Bi3 O10 2.598884 1_655
Bi3 O4 2.598884 1_555
O0 Ti1 1.994846 1_565
O0 Ti3 1.994846 1_556
O1 Ti0 1.994846 1_556
O1 Ti1 1.994846 1_655
O3 Ti1 1.994846 1_555
O3 Ti3 1.994846 1_555
O4 Ti0 1.994846 1_565
O4 Ti3 1.994846 1_655
O5 Ti0 1.994846 1_555
O5 Ti2 1.994846 1_655
O6 Ti2 1.994846 1_565
O6 Ti3 1.994846 1_555
O7 Ti0 1.994846 1_555
O7 Ti1 1.994846 1_555
O8 Ti0 1.994846 1_555
O8 Ti2 1.994846 1_555
O9 Ti2 1.994846 1_556
O9 Ti1 1.994846 1_555
O10 Ti3 1.994846 1_555
O10 Ti2 1.994846 1_555
O11 Ti1 1.994846 1_555
O11 Ti2 1.994846 1_555
O12 Ti0 1.994846 1_555
O12 Ti3 1.994846 1_555
