# generated using pymatgen
data_Ni3B7ClO13
_symmetry_space_group_name_H-M   'P 1'
_cell_length_a   8.58584300
_cell_length_b   8.60007000
_cell_length_c   12.15930700
_cell_angle_alpha   90.00000000
_cell_angle_beta   90.00000000
_cell_angle_gamma   90.00000000
_symmetry_Int_Tables_number   1
_chemical_formula_structural   Ni3B7ClO13
_chemical_formula_sum   'Ni12 B28 Cl4 O52'
_cell_volume   897.82925551
_cell_formula_units_Z   4
loop_
 _symmetry_equiv_pos_site_id
 _symmetry_equiv_pos_as_xyz
  1  'x, y, z'
loop_
 _atom_site_type_symbol
 _atom_site_label
 _atom_site_symmetry_multiplicity
 _atom_site_fract_x
 _atom_site_fract_y
 _atom_site_fract_z
 _atom_site_occupancy
  Ni  Ni0  1  0.25025100  0.75628300  0.71355000  1
  Ni  Ni1  1  0.46760300  0.98293700  0.99090400  1
  Ni  Ni2  1  0.53239700  0.48293700  0.99090400  1
  Ni  Ni3  1  0.46760300  0.51706300  0.49090400  1
  Ni  Ni4  1  0.03269100  0.51700400  0.49282500  1
  Ni  Ni5  1  0.03269100  0.98299600  0.99282500  1
  Ni  Ni6  1  0.74974900  0.25628300  0.71355000  1
  Ni  Ni7  1  0.74974900  0.24371700  0.21355000  1
  Ni  Ni8  1  0.25025100  0.74371700  0.21355000  1
  Ni  Ni9  1  0.53239700  0.01706300  0.49090400  1
  Ni  Ni10  1  0.96730900  0.01700400  0.49282500  1
  Ni  Ni11  1  0.96730900  0.48299600  0.99282500  1
  B  B0  1  0.24584300  0.24412300  0.48668200  1
  B  B1  1  0.40313400  0.24613100  0.65858200  1
  B  B2  1  0.24992500  0.45507400  0.84051000  1
  B  B3  1  0.09610100  0.25215500  0.15959400  1
  B  B4  1  0.59686600  0.75386900  0.15858200  1
  B  B5  1  0.24584300  0.25587700  0.98668200  1
  B  B6  1  0.75415700  0.75587700  0.98668200  1
  B  B7  1  0.75073700  0.90678700  0.31209200  1
  B  B8  1  0.75415700  0.74412300  0.48668200  1
  B  B9  1  0.75007500  0.95507400  0.84051000  1
  B  B10  1  0.49829300  0.99968500  0.23907000  1
  B  B11  1  0.24992500  0.04492600  0.34051000  1
  B  B12  1  0.09610100  0.24784500  0.65959400  1
  B  B13  1  0.59686600  0.74613100  0.65858200  1
  B  B14  1  0.75073700  0.59321300  0.81209200  1
  B  B15  1  0.90389900  0.75215500  0.15959400  1
  B  B16  1  0.75007500  0.54492600  0.34051000  1
  B  B17  1  0.24926300  0.09321300  0.81209200  1
  B  B18  1  0.50170700  0.49968500  0.23907000  1
  B  B19  1  0.00328800  0.99754300  0.23963100  1
  B  B20  1  0.00328800  0.50245700  0.73963100  1
  B  B21  1  0.99671200  0.49754300  0.23963100  1
  B  B22  1  0.40313400  0.25386900  0.15858200  1
  B  B23  1  0.49829300  0.50031500  0.73907000  1
  B  B24  1  0.90389900  0.74784500  0.65959400  1
  B  B25  1  0.24926300  0.40678700  0.31209200  1
  B  B26  1  0.50170700  0.00031500  0.73907000  1
  B  B27  1  0.99671200  0.00245700  0.73963100  1
  Cl  Cl0  1  0.74930500  0.29589600  0.01096500  1
  Cl  Cl1  1  0.74930500  0.20410400  0.51096500  1
  Cl  Cl2  1  0.25069500  0.70410400  0.51096500  1
  Cl  Cl3  1  0.25069500  0.79589600  0.01096500  1
  O  O0  1  0.74962000  0.76826000  0.22857800  1
  O  O1  1  0.05949800  0.41240100  0.64477100  1
  O  O2  1  0.94050200  0.91240100  0.64477100  1
  O  O3  1  0.16203900  0.96625900  0.75978200  1
  O  O4  1  0.33108900  0.54143400  0.76376200  1
  O  O5  1  0.59138400  0.95208800  0.33454100  1
  O  O6  1  0.52044400  0.16630900  0.21898500  1
  O  O7  1  0.36324800  0.17745000  0.05538200  1
  O  O8  1  0.47955600  0.66630900  0.21898500  1
  O  O9  1  0.32964900  0.38222600  0.92462100  1
  O  O10  1  0.40861600  0.45208800  0.33454100  1
  O  O11  1  0.74962000  0.73174000  0.72857800  1
  O  O12  1  0.83796100  0.03374100  0.25978200  1
  O  O13  1  0.66891100  0.45856600  0.26376200  1
  O  O14  1  0.83796100  0.46625900  0.75978200  1
  O  O15  1  0.91065500  0.53659000  0.34397400  1
  O  O16  1  0.25038000  0.23174000  0.72857800  1
  O  O17  1  0.02717500  0.83084100  0.21910900  1
  O  O18  1  0.17277600  0.35900200  0.41367200  1
  O  O19  1  0.25038000  0.26826000  0.22857800  1
  O  O20  1  0.54284400  0.91303800  0.14011500  1
  O  O21  1  0.63675200  0.82255000  0.55538200  1
  O  O22  1  0.12386100  0.17217500  0.55410200  1
  O  O23  1  0.63675200  0.67745000  0.05538200  1
  O  O24  1  0.82722400  0.64099800  0.91367200  1
  O  O25  1  0.47955600  0.83369100  0.71898500  1
  O  O26  1  0.97282500  0.16915900  0.71910900  1
  O  O27  1  0.33108900  0.95856600  0.26376200  1
  O  O28  1  0.87613900  0.82782500  0.05410200  1
  O  O29  1  0.97282500  0.33084100  0.21910900  1
  O  O30  1  0.54284400  0.58696200  0.64011500  1
  O  O31  1  0.67035100  0.88222600  0.92462100  1
  O  O32  1  0.40861600  0.04791200  0.83454100  1
  O  O33  1  0.91065500  0.96341000  0.84397400  1
  O  O34  1  0.08934500  0.46341000  0.84397400  1
  O  O35  1  0.87613900  0.67217500  0.55410200  1
  O  O36  1  0.12386100  0.32782500  0.05410200  1
  O  O37  1  0.45715600  0.08696200  0.64011500  1
  O  O38  1  0.36324800  0.32255000  0.55538200  1
  O  O39  1  0.94050200  0.58759900  0.14477100  1
  O  O40  1  0.17277600  0.14099800  0.91367200  1
  O  O41  1  0.52044400  0.33369100  0.71898500  1
  O  O42  1  0.32964900  0.11777400  0.42462100  1
  O  O43  1  0.05949800  0.08759900  0.14477100  1
  O  O44  1  0.16203900  0.53374100  0.25978200  1
  O  O45  1  0.82722400  0.85900200  0.41367200  1
  O  O46  1  0.66891100  0.04143400  0.76376200  1
  O  O47  1  0.02717500  0.66915900  0.71910900  1
  O  O48  1  0.45715600  0.41303800  0.14011500  1
  O  O49  1  0.08934500  0.03659000  0.34397400  1
  O  O50  1  0.67035100  0.61777400  0.42462100  1
  O  O51  1  0.59138400  0.54791200  0.83454100  1
loop_
_geom_bond_atom_site_label_1
_geom_bond_atom_site_label_2
_geom_bond_distance
_geom_bond_site_symmetry_2
Ni0 O3 2.037295 1_555
Ni0 O47 2.057750 1_555
Ni0 O4 2.066045 1_555
Ni0 O25 2.079333 1_555
Ni1 O20 2.017519 1_556
Ni1 O32 2.045373 1_565
Ni1 O7 2.053238 1_566
Ni1 O31 2.104753 1_555
Ni2 O48 2.017519 1_556
Ni2 O51 2.045373 1_555
Ni2 O23 2.053238 1_556
Ni2 O9 2.104753 1_555
Ni3 O30 2.017519 1_555
Ni3 O10 2.045373 1_555
Ni3 O38 2.053238 1_555
Ni3 O50 2.104753 1_555
Ni4 O35 2.035358 1_455
Ni4 O18 2.054098 1_555
Ni4 O1 2.067780 1_555
Ni4 O15 2.098106 1_455
Ni5 O28 2.035358 1_456
Ni5 O40 2.054098 1_565
Ni5 O43 2.067780 1_566
Ni5 O33 2.098106 1_455
Ni6 O14 2.037295 1_555
Ni6 O26 2.057750 1_555
Ni6 O46 2.066045 1_555
Ni6 O41 2.079333 1_555
Ni7 O12 2.037295 1_555
Ni7 O29 2.057750 1_555
Ni7 O13 2.066045 1_555
Ni7 O6 2.079333 1_555
Ni8 O44 2.037295 1_555
Ni8 O17 2.057750 1_555
Ni8 O27 2.066045 1_555
Ni8 O8 2.079333 1_555
Ni9 O37 2.017519 1_555
Ni9 O5 2.045373 1_545
Ni9 O21 2.053238 1_545
Ni9 O42 2.104753 1_555
Ni10 O22 2.035358 1_655
Ni10 O45 2.054098 1_545
Ni10 O2 2.067780 1_545
Ni10 O49 2.098106 1_655
Ni11 O36 2.035358 1_656
Ni11 O24 2.054098 1_555
Ni11 O39 2.067780 1_556
Ni11 O34 2.098106 1_655
B0 O22 1.466894 1_555
B0 O18 1.468925 1_555
B0 O38 1.472694 1_555
B0 O42 1.505960 1_555
B1 O41 1.456343 1_555
B1 O38 1.457334 1_555
B1 O37 1.462650 1_555
B1 O16 1.568370 1_555
B2 O9 1.380948 1_555
B2 O34 1.381220 1_555
B2 O4 1.381336 1_555
B3 O29 1.449788 1_455
B3 O36 1.457961 1_555
B3 O43 1.460829 1_555
B3 O19 1.573966 1_555
B4 O8 1.456343 1_555
B4 O23 1.457334 1_555
B4 O20 1.462650 1_555
B4 O0 1.568370 1_555
B5 O36 1.466894 1_556
B5 O40 1.468925 1_555
B5 O7 1.472694 1_556
B5 O9 1.505960 1_555
B6 O28 1.466894 1_556
B6 O24 1.468925 1_555
B6 O23 1.472694 1_556
B6 O31 1.505960 1_555
B7 O5 1.448519 1_555
B7 O45 1.457986 1_555
B7 O12 1.468829 1_565
B7 O0 1.565430 1_555
B8 O35 1.466894 1_555
B8 O45 1.468925 1_555
B8 O21 1.472694 1_555
B8 O50 1.505960 1_555
B9 O31 1.380948 1_555
B9 O33 1.381220 1_555
B9 O46 1.381336 1_565
B10 O6 1.466029 1_565
B10 O20 1.466063 1_555
B10 O5 1.467644 1_555
B10 O27 1.508677 1_555
B11 O42 1.380948 1_555
B11 O49 1.381220 1_555
B11 O27 1.381336 1_545
B12 O26 1.449788 1_455
B12 O22 1.457961 1_555
B12 O1 1.460829 1_555
B12 O16 1.573966 1_555
B13 O25 1.456343 1_555
B13 O21 1.457334 1_555
B13 O30 1.462650 1_555
B13 O11 1.568370 1_555
B14 O51 1.448519 1_555
B14 O24 1.457986 1_555
B14 O14 1.468829 1_555
B14 O11 1.565430 1_555
B15 O17 1.449788 1_655
B15 O28 1.457961 1_555
B15 O39 1.460829 1_555
B15 O0 1.573966 1_555
B16 O50 1.380948 1_555
B16 O15 1.381220 1_555
B16 O13 1.381336 1_555
B17 O32 1.448519 1_555
B17 O40 1.457986 1_555
B17 O3 1.468829 1_545
B17 O16 1.565430 1_555
B18 O8 1.466029 1_555
B18 O48 1.466063 1_555
B18 O10 1.467644 1_555
B18 O13 1.508677 1_555
B19 O17 1.469584 1_555
B19 O43 1.470765 1_565
B19 O12 1.473719 1_465
B19 O49 1.506119 1_565
B20 O47 1.469584 1_555
B20 O1 1.470765 1_555
B20 O14 1.473719 1_455
B20 O34 1.506119 1_555
B21 O29 1.469584 1_555
B21 O39 1.470765 1_555
B21 O44 1.473719 1_655
B21 O15 1.506119 1_555
B22 O6 1.456343 1_555
B22 O7 1.457334 1_555
B22 O48 1.462650 1_555
B22 O19 1.568370 1_555
B23 O41 1.466029 1_555
B23 O30 1.466063 1_555
B23 O51 1.467644 1_555
B23 O4 1.508677 1_555
B24 O47 1.449788 1_655
B24 O35 1.457961 1_555
B24 O2 1.460829 1_555
B24 O11 1.573966 1_555
B25 O10 1.448519 1_555
B25 O18 1.457986 1_555
B25 O44 1.468829 1_555
B25 O19 1.565430 1_555
B26 O25 1.466029 1_545
B26 O37 1.466063 1_555
B26 O32 1.467644 1_555
B26 O46 1.508677 1_555
B27 O26 1.469584 1_555
B27 O2 1.470765 1_545
B27 O3 1.473719 1_645
B27 O33 1.506119 1_545
Cl0 Ni2 2.472911 1_554
Cl0 Ni11 2.478146 1_554
Cl0 Ni7 2.503837 1_555
Cl1 Ni9 2.472911 1_555
Cl1 Ni10 2.478146 1_555
Cl1 Ni6 2.503837 1_555
Cl2 Ni3 2.472911 1_555
Cl2 Ni4 2.478146 1_555
Cl2 Ni0 2.503837 1_555
Cl3 Ni1 2.472911 1_554
Cl3 Ni5 2.478146 1_554
Cl3 Ni8 2.503837 1_555
