# generated using pymatgen
data_Pr13Cd58
_symmetry_space_group_name_H-M   'P 1'
_cell_length_a   16.02919713
_cell_length_b   16.02919703
_cell_length_c   15.69410234
_cell_angle_alpha   90.00000000
_cell_angle_beta   90.00000000
_cell_angle_gamma   120.00000018
_symmetry_Int_Tables_number   1
_chemical_formula_structural   Pr13Cd58
_chemical_formula_sum   'Pr26 Cd116'
_cell_volume   3492.13197764
_cell_formula_units_Z   2
loop_
 _symmetry_equiv_pos_site_id
 _symmetry_equiv_pos_as_xyz
  1  'x, y, z'
loop_
 _atom_site_type_symbol
 _atom_site_label
 _atom_site_symmetry_multiplicity
 _atom_site_fract_x
 _atom_site_fract_y
 _atom_site_fract_z
 _atom_site_occupancy
  Pr  Pr0  1  0.41097733  0.20548867  0.55212687  1
  Pr  Pr1  1  0.87186379  0.74372757  0.25000000  1
  Pr  Pr2  1  0.20548867  0.41097733  0.05212687  1
  Pr  Pr3  1  0.08562369  0.54281184  0.75000000  1
  Pr  Pr4  1  0.79451133  0.58902267  0.94787313  1
  Pr  Pr5  1  0.79451133  0.20548867  0.55212687  1
  Pr  Pr6  1  0.91437631  0.45718816  0.25000000  1
  Pr  Pr7  1  0.79451133  0.20548867  0.94787313  1
  Pr  Pr8  1  0.79451133  0.58902267  0.55212687  1
  Pr  Pr9  1  0.45718816  0.91437631  0.75000000  1
  Pr  Pr10  1  0.12813621  0.87186379  0.75000000  1
  Pr  Pr11  1  0.87186379  0.12813621  0.25000000  1
  Pr  Pr12  1  0.58902267  0.79451133  0.05212687  1
  Pr  Pr13  1  0.58902267  0.79451133  0.44787313  1
  Pr  Pr14  1  0.20548867  0.79451133  0.44787313  1
  Pr  Pr15  1  0.00000000  0.00000000  0.00000000  1
  Pr  Pr16  1  0.45718816  0.54281184  0.75000000  1
  Pr  Pr17  1  0.54281184  0.08562369  0.25000000  1
  Pr  Pr18  1  0.12813621  0.25627243  0.75000000  1
  Pr  Pr19  1  0.74372757  0.87186379  0.75000000  1
  Pr  Pr20  1  0.20548867  0.41097733  0.44787313  1
  Pr  Pr21  1  0.41097733  0.20548867  0.94787313  1
  Pr  Pr22  1  0.00000000  0.00000000  0.50000000  1
  Pr  Pr23  1  0.25627243  0.12813621  0.25000000  1
  Pr  Pr24  1  0.20548867  0.79451133  0.05212687  1
  Pr  Pr25  1  0.54281184  0.45718816  0.25000000  1
  Cd  Cd0  1  0.90682263  0.09317737  0.65588124  1
  Cd  Cd1  1  0.00000000  0.19928348  0.00000000  1
  Cd  Cd2  1  0.63487662  0.96402056  0.60266228  1
  Cd  Cd3  1  0.36512338  0.32914394  0.39733772  1
  Cd  Cd4  1  0.67085606  0.63487662  0.10266228  1
  Cd  Cd5  1  0.60033147  0.39966853  0.05231455  1
  Cd  Cd6  1  0.63487662  0.67085606  0.89733772  1
  Cd  Cd7  1  0.96402056  0.63487662  0.10266228  1
  Cd  Cd8  1  0.20066294  0.60033147  0.94768545  1
  Cd  Cd9  1  0.09317737  0.90682263  0.34411876  1
  Cd  Cd10  1  0.56175601  0.12351203  0.64466011  1
  Cd  Cd11  1  0.81364526  0.90682263  0.34411876  1
  Cd  Cd12  1  0.73217592  0.26782408  0.75000000  1
  Cd  Cd13  1  0.43824399  0.87648797  0.35533989  1
  Cd  Cd14  1  0.32914394  0.36512338  0.89733772  1
  Cd  Cd15  1  0.03597944  0.67085606  0.89733772  1
  Cd  Cd16  1  0.53003187  0.76501593  0.84153662  1
  Cd  Cd17  1  0.80071652  0.80071652  0.00000000  1
  Cd  Cd18  1  0.36512338  0.03597944  0.39733772  1
  Cd  Cd19  1  0.00000000  0.19928348  0.50000000  1
  Cd  Cd20  1  0.91767013  0.63990136  0.75000000  1
  Cd  Cd21  1  0.19928348  0.19928348  0.50000000  1
  Cd  Cd22  1  0.67085606  0.03597944  0.10266228  1
  Cd  Cd23  1  0.60033147  0.39966853  0.44768545  1
  Cd  Cd24  1  0.76501593  0.53003187  0.34153662  1
  Cd  Cd25  1  0.76501593  0.53003187  0.15846338  1
  Cd  Cd26  1  0.96402056  0.32914394  0.10266228  1
  Cd  Cd27  1  0.66666700  0.33333300  0.59481930  1
  Cd  Cd28  1  0.27776878  0.91767013  0.25000000  1
  Cd  Cd29  1  0.46996813  0.23498407  0.34153662  1
  Cd  Cd30  1  0.03597944  0.36512338  0.60266228  1
  Cd  Cd31  1  0.33333300  0.66666700  0.75000000  1
  Cd  Cd32  1  0.72223122  0.08232987  0.75000000  1
  Cd  Cd33  1  0.03597944  0.36512338  0.89733772  1
  Cd  Cd34  1  0.80071652  0.00000000  0.50000000  1
  Cd  Cd35  1  0.60033147  0.20066294  0.44768545  1
  Cd  Cd36  1  0.67085606  0.03597944  0.39733772  1
  Cd  Cd37  1  0.36009864  0.08232987  0.75000000  1
  Cd  Cd38  1  0.91767013  0.27776878  0.75000000  1
  Cd  Cd39  1  0.00000000  0.80071652  0.00000000  1
  Cd  Cd40  1  0.43824399  0.56175601  0.14466011  1
  Cd  Cd41  1  0.12351203  0.56175601  0.35533989  1
  Cd  Cd42  1  0.50000000  0.00000000  0.50000000  1
  Cd  Cd43  1  0.90682263  0.81364526  0.84411876  1
  Cd  Cd44  1  0.09317737  0.18635474  0.15588124  1
  Cd  Cd45  1  0.03597944  0.67085606  0.60266228  1
  Cd  Cd46  1  0.32914394  0.36512338  0.60266228  1
  Cd  Cd47  1  0.56175601  0.12351203  0.85533989  1
  Cd  Cd48  1  0.20066294  0.60033147  0.55231455  1
  Cd  Cd49  1  0.63487662  0.67085606  0.60266228  1
  Cd  Cd50  1  0.43824399  0.56175601  0.35533989  1
  Cd  Cd51  1  0.00000000  0.00000000  0.25000000  1
  Cd  Cd52  1  0.60033147  0.20066294  0.05231455  1
  Cd  Cd53  1  0.79933706  0.39966853  0.44768545  1
  Cd  Cd54  1  0.73217592  0.46435184  0.75000000  1
  Cd  Cd55  1  0.39966853  0.79933706  0.94768545  1
  Cd  Cd56  1  0.66666700  0.33333300  0.90518070  1
  Cd  Cd57  1  0.23498407  0.46996813  0.84153662  1
  Cd  Cd58  1  0.76501593  0.23498407  0.15846338  1
  Cd  Cd59  1  0.27776878  0.36009864  0.25000000  1
  Cd  Cd60  1  0.39966853  0.60033147  0.55231455  1
  Cd  Cd61  1  0.36512338  0.03597944  0.10266228  1
  Cd  Cd62  1  0.76501593  0.23498407  0.34153662  1
  Cd  Cd63  1  0.81364526  0.90682263  0.15588124  1
  Cd  Cd64  1  0.32914394  0.96402056  0.89733772  1
  Cd  Cd65  1  0.87648797  0.43824399  0.85533989  1
  Cd  Cd66  1  0.90682263  0.81364526  0.65588124  1
  Cd  Cd67  1  0.12351203  0.56175601  0.14466011  1
  Cd  Cd68  1  0.96402056  0.32914394  0.39733772  1
  Cd  Cd69  1  0.63990136  0.72223122  0.25000000  1
  Cd  Cd70  1  0.56175601  0.43824399  0.85533989  1
  Cd  Cd71  1  0.46996813  0.23498407  0.15846338  1
  Cd  Cd72  1  0.80071652  0.80071652  0.50000000  1
  Cd  Cd73  1  0.00000000  0.00000000  0.75000000  1
  Cd  Cd74  1  0.18635474  0.09317737  0.65588124  1
  Cd  Cd75  1  0.19928348  0.19928348  0.00000000  1
  Cd  Cd76  1  0.19928348  0.00000000  0.50000000  1
  Cd  Cd77  1  0.08232987  0.36009864  0.25000000  1
  Cd  Cd78  1  0.67085606  0.63487662  0.39733772  1
  Cd  Cd79  1  0.53003187  0.76501593  0.65846338  1
  Cd  Cd80  1  0.79933706  0.39966853  0.05231455  1
  Cd  Cd81  1  0.36512338  0.32914394  0.10266228  1
  Cd  Cd82  1  0.23498407  0.76501593  0.84153662  1
  Cd  Cd83  1  0.66666700  0.33333300  0.25000000  1
  Cd  Cd84  1  0.43824399  0.87648797  0.14466011  1
  Cd  Cd85  1  0.50000000  0.50000000  0.00000000  1
  Cd  Cd86  1  0.00000000  0.50000000  0.50000000  1
  Cd  Cd87  1  0.23498407  0.76501593  0.65846338  1
  Cd  Cd88  1  0.33333300  0.66666700  0.40518070  1
  Cd  Cd89  1  0.19928348  0.00000000  0.00000000  1
  Cd  Cd90  1  0.08232987  0.72223122  0.25000000  1
  Cd  Cd91  1  0.00000000  0.80071652  0.50000000  1
  Cd  Cd92  1  0.63487662  0.96402056  0.89733772  1
  Cd  Cd93  1  0.50000000  0.50000000  0.50000000  1
  Cd  Cd94  1  0.18635474  0.09317737  0.84411876  1
  Cd  Cd95  1  0.53564816  0.26782408  0.75000000  1
  Cd  Cd96  1  0.09317737  0.90682263  0.15588124  1
  Cd  Cd97  1  0.90682263  0.09317737  0.84411876  1
  Cd  Cd98  1  0.56175601  0.43824399  0.64466011  1
  Cd  Cd99  1  0.36009864  0.27776878  0.75000000  1
  Cd  Cd100  1  0.26782408  0.73217592  0.25000000  1
  Cd  Cd101  1  0.96402056  0.63487662  0.39733772  1
  Cd  Cd102  1  0.33333300  0.66666700  0.09481930  1
  Cd  Cd103  1  0.26782408  0.53564816  0.25000000  1
  Cd  Cd104  1  0.80071652  0.00000000  0.00000000  1
  Cd  Cd105  1  0.63990136  0.91767013  0.25000000  1
  Cd  Cd106  1  0.50000000  0.00000000  0.00000000  1
  Cd  Cd107  1  0.87648797  0.43824399  0.64466011  1
  Cd  Cd108  1  0.32914394  0.96402056  0.60266228  1
  Cd  Cd109  1  0.00000000  0.50000000  0.00000000  1
  Cd  Cd110  1  0.09317737  0.18635474  0.34411876  1
  Cd  Cd111  1  0.39966853  0.60033147  0.94768545  1
  Cd  Cd112  1  0.23498407  0.46996813  0.65846338  1
  Cd  Cd113  1  0.72223122  0.63990136  0.75000000  1
  Cd  Cd114  1  0.39966853  0.79933706  0.55231455  1
  Cd  Cd115  1  0.46435184  0.73217592  0.25000000  1
loop_
_geom_bond_atom_site_label_1
_geom_bond_atom_site_label_2
_geom_bond_distance
_geom_bond_site_symmetry_2
Cd0 Cd19 2.927138 1_655
Cd0 Cd34 2.927138 1_555
Cd0 Cd97 2.954219 1_555
Cd0 Cd73 2.978926 1_655
Cd0 Cd38 3.233020 1_555
Cd0 Cd32 3.233020 1_555
Cd0 Pr19 3.510957 1_545
Cd0 Pr18 3.510957 1_655
Cd0 Pr5 3.517708 1_555
Cd0 Pr22 3.560492 1_655
Cd1 Cd33 2.908937 1_554
Cd1 Cd26 2.908937 1_455
Cd1 Cd97 2.927138 1_454
Cd1 Cd44 2.927138 1_555
Cd1 Pr15 3.194354 1_555
Cd1 Cd104 3.194354 1_455
Cd1 Cd75 3.194354 1_555
Cd1 Pr2 3.443256 1_555
Cd1 Pr7 3.443256 1_454
Cd2 Cd32 2.872015 1_565
Cd2 Cd79 2.899274 1_555
Cd2 Cd34 2.908937 1_565
Cd2 Cd42 2.974809 1_565
Cd2 Cd36 3.373661 1_565
Cd2 Pr9 3.438880 1_555
Cd2 Pr13 3.439063 1_555
Cd2 Pr5 3.500520 1_565
Cd2 Pr19 3.626391 1_555
Cd3 Cd59 2.872015 1_555
Cd3 Cd93 2.974809 1_555
Cd3 Cd50 3.367547 1_555
Cd3 Cd46 3.373661 1_555
Cd3 Pr25 3.438880 1_555
Cd3 Pr0 3.439063 1_555
Cd3 Pr20 3.500520 1_555
Cd3 Pr23 3.626391 1_555
Cd4 Cd69 2.872015 1_555
Cd4 Cd85 2.974809 1_555
Cd4 Cd40 3.367547 1_555
Cd4 Cd6 3.373661 1_554
Cd4 Pr25 3.438880 1_555
Cd4 Pr4 3.439063 1_554
Cd4 Cd5 3.443056 1_555
Cd4 Pr12 3.500520 1_555
Cd4 Pr1 3.626391 1_555
Cd5 Cd85 2.904020 1_555
Cd5 Cd71 2.931553 1_555
Cd5 Cd56 2.953634 1_554
Cd5 Cd70 3.271604 1_554
Cd5 Cd81 3.443056 1_555
Cd5 Pr21 3.484231 1_554
Cd5 Pr4 3.484231 1_554
Cd5 Pr25 3.489369 1_555
Cd6 Cd85 2.974809 1_556
Cd6 Cd70 3.367547 1_555
Cd6 Pr16 3.438880 1_555
Cd6 Pr12 3.439063 1_556
Cd6 Pr4 3.500520 1_555
Cd6 Pr19 3.626391 1_555
Cd7 Cd90 2.872015 1_655
Cd7 Pr6 3.438880 1_555
Cd7 Pr4 3.439063 1_554
Cd7 Cd80 3.443056 1_555
Cd7 Pr24 3.500520 1_655
Cd7 Pr1 3.626391 1_555
Cd8 Cd82 2.931553 1_555
Cd8 Pr24 3.484231 1_556
Cd8 Pr2 3.484231 1_556
Cd8 Pr3 3.489369 1_555
Cd9 Cd91 2.927138 1_555
Cd9 Cd96 2.954219 1_555
Cd9 Cd90 3.233020 1_555
Cd9 Pr23 3.510957 1_565
Cd9 Pr1 3.510957 1_455
Cd9 Pr14 3.517708 1_555
Cd9 Pr22 3.560492 1_565
Cd10 Cd42 2.844998 1_555
Cd10 Cd27 3.015874 1_555
Cd10 Cd95 3.037635 1_555
Cd10 Cd12 3.037635 1_555
Cd10 Cd35 3.271604 1_555
Cd10 Cd47 3.306430 1_555
Cd10 Pr9 3.340875 1_545
Cd10 Cd108 3.367547 1_545
Cd10 Cd2 3.367547 1_545
Cd10 Cd32 3.388739 1_555
Cd10 Cd37 3.388739 1_555
Cd10 Pr0 3.585056 1_555
Cd10 Pr5 3.585056 1_555
Cd11 Cd72 2.927138 1_555
Cd11 Cd34 2.927138 1_565
Cd11 Cd63 2.954219 1_555
Cd11 Cd51 2.978926 1_665
Cd11 Cd69 3.233020 1_555
Cd11 Pr11 3.510957 1_565
Cd11 Pr1 3.510957 1_555
Cd11 Pr13 3.517708 1_555
Cd11 Pr22 3.560492 1_665
Cd12 Cd32 2.896912 1_555
Cd12 Cd38 2.896912 1_555
Cd12 Cd65 3.037635 1_555
Cd12 Cd47 3.037635 1_555
Cd12 Cd56 3.039593 1_555
Cd12 Cd27 3.039593 1_555
Cd12 Cd54 3.150182 1_555
Cd12 Cd95 3.150182 1_555
Cd12 Pr5 3.555121 1_555
Cd12 Pr7 3.555121 1_555
Cd13 Cd42 2.844998 1_565
Cd13 Cd88 3.015874 1_555
Cd13 Cd84 3.306430 1_555
Cd13 Pr17 3.340875 1_565
Cd13 Cd36 3.367547 1_565
Cd13 Cd18 3.367547 1_565
Cd13 Cd28 3.388739 1_555
Cd13 Pr13 3.585056 1_555
Cd13 Pr14 3.585056 1_555
Cd14 Cd99 2.872015 1_555
Cd14 Cd57 2.899274 1_555
Cd14 Cd75 2.908937 1_556
Cd14 Cd85 2.974809 1_556
Cd14 Cd70 3.367547 1_555
Cd14 Cd81 3.373661 1_556
Cd14 Pr16 3.438880 1_555
Cd14 Pr2 3.439063 1_556
Cd14 Pr21 3.500520 1_555
Cd14 Pr18 3.626391 1_555
Cd15 Cd20 2.872015 1_455
Cd15 Cd82 2.899274 1_555
Cd15 Cd39 2.908937 1_556
Cd15 Cd65 3.367547 1_455
Cd15 Cd7 3.373661 1_456
Cd15 Pr3 3.438880 1_555
Cd15 Pr24 3.439063 1_556
Cd15 Cd8 3.443056 1_555
Cd15 Pr4 3.500520 1_455
Cd15 Pr10 3.626391 1_555
Cd16 Cd79 2.873170 1_555
Cd16 Cd6 2.899274 1_555
Cd16 Cd92 2.899274 1_555
Cd16 Cd55 2.931554 1_555
Cd16 Cd31 3.085365 1_555
Cd16 Pr19 3.296005 1_555
Cd16 Pr12 3.404963 1_556
Cd16 Pr16 3.457516 1_555
Cd16 Pr9 3.457516 1_555
Cd17 Cd4 2.908937 1_555
Cd17 Cd6 2.908937 1_554
Cd17 Cd63 2.927138 1_555
Cd17 Cd43 2.927138 1_554
Cd17 Pr15 3.194354 1_665
Cd17 Cd39 3.194354 1_655
Cd17 Pr4 3.443256 1_554
Cd17 Pr12 3.443256 1_555
Cd18 Cd28 2.872015 1_545
Cd18 Cd29 2.899274 1_555
Cd18 Cd76 2.908937 1_555
Cd18 Cd42 2.974809 1_555
Cd18 Pr17 3.438880 1_555
Cd18 Pr0 3.439063 1_555
Cd18 Cd35 3.443056 1_555
Cd18 Pr14 3.500520 1_545
Cd18 Pr23 3.626391 1_555
Cd19 Cd30 2.908937 1_555
Cd19 Cd68 2.908937 1_455
Cd19 Pr22 3.194354 1_555
Cd19 Cd34 3.194354 1_455
Cd19 Cd21 3.194354 1_555
Cd19 Pr20 3.443256 1_555
Cd19 Pr5 3.443256 1_455
Cd20 Cd45 2.872015 1_655
Cd20 Cd54 2.896912 1_555
Cd20 Cd43 3.233019 1_555
Cd20 Cd66 3.233019 1_555
Cd20 Cd65 3.388739 1_555
Cd20 Pr8 3.549098 1_555
Cd20 Pr4 3.549098 1_555
Cd20 Pr10 3.558421 1_655
Cd20 Pr3 3.722824 1_655
Cd21 Cd46 2.908937 1_555
Cd21 Cd3 2.908937 1_555
Cd21 Cd74 2.927138 1_555
Cd21 Cd76 3.194354 1_555
Cd21 Pr22 3.194354 1_555
Cd21 Pr20 3.443256 1_555
Cd21 Pr0 3.443256 1_555
Cd22 Cd58 2.899274 1_555
Cd22 Cd84 3.367547 1_545
Cd22 Cd92 3.373661 1_544
Cd22 Pr17 3.438880 1_555
Cd22 Pr7 3.439063 1_554
Cd22 Cd52 3.443056 1_555
Cd22 Pr12 3.500520 1_545
Cd22 Pr11 3.626391 1_555
Cd23 Cd93 2.904020 1_555
Cd23 Cd29 2.931553 1_555
Cd23 Cd24 2.931553 1_555
Cd23 Cd27 2.953634 1_555
Cd23 Cd98 3.271604 1_555
Cd23 Cd78 3.443056 1_555
Cd23 Cd3 3.443056 1_555
Cd23 Pr0 3.484231 1_555
Cd23 Pr8 3.484231 1_555
Cd23 Pr25 3.489369 1_555
Cd24 Cd25 2.873170 1_555
Cd24 Cd78 2.899274 1_555
Cd24 Cd53 2.931554 1_555
Cd24 Cd83 3.085365 1_555
Cd24 Pr1 3.296005 1_555
Cd24 Pr8 3.404963 1_555
Cd24 Pr6 3.457516 1_555
Cd24 Pr25 3.457516 1_555
Cd25 Cd4 2.899274 1_555
Cd25 Cd7 2.899274 1_555
Cd25 Cd5 2.931553 1_555
Cd25 Cd80 2.931554 1_555
Cd25 Cd83 3.085365 1_555
Cd25 Pr1 3.296005 1_555
Cd25 Pr4 3.404963 1_554
Cd25 Pr6 3.457516 1_555
Cd25 Pr25 3.457516 1_555
Cd26 Cd77 2.872015 1_655
Cd26 Cd58 2.899274 1_555
Cd26 Cd67 3.367547 1_655
Cd26 Cd33 3.373661 1_654
Cd26 Pr6 3.438880 1_555
Cd26 Pr7 3.439063 1_554
Cd26 Cd80 3.443056 1_555
Cd26 Pr2 3.500520 1_655
Cd26 Pr11 3.626391 1_555
Cd27 Cd35 2.953625 1_555
Cd27 Cd53 2.953625 1_555
Cd27 Cd98 3.015887 1_555
Cd27 Cd54 3.039602 1_555
Cd27 Cd95 3.039602 1_555
Cd27 Pr5 3.612077 1_555
Cd27 Pr8 3.612091 1_555
Cd27 Pr0 3.612091 1_555
Cd28 Cd61 2.872015 1_565
Cd28 Cd90 3.132729 1_555
Cd28 Cd9 3.233020 1_555
Cd28 Cd96 3.233020 1_555
Cd28 Cd84 3.388739 1_555
Cd28 Pr14 3.549098 1_555
Cd28 Pr24 3.549098 1_555
Cd28 Pr23 3.558421 1_565
Cd28 Pr17 3.722824 1_565
Cd29 Cd71 2.873170 1_555
Cd29 Cd3 2.899274 1_555
Cd29 Cd35 2.931554 1_555
Cd29 Cd83 3.085365 1_555
Cd29 Pr23 3.296005 1_555
Cd29 Pr0 3.404963 1_555
Cd29 Pr25 3.457516 1_555
Cd29 Pr17 3.457516 1_555
Cd30 Cd38 2.872015 1_455
Cd30 Cd86 2.974809 1_555
Cd30 Cd68 3.373661 1_455
Cd30 Pr3 3.438880 1_555
Cd30 Pr20 3.439063 1_555
Cd30 Cd48 3.443056 1_555
Cd30 Pr5 3.500520 1_455
Cd30 Pr18 3.626391 1_555
Cd31 Cd87 3.085353 1_555
Cd31 Cd82 3.085353 1_555
Cd31 Cd57 3.085365 1_555
Cd31 Cd79 3.085365 1_555
Cd31 Pr9 3.438624 1_555
Cd31 Pr3 3.438624 1_555
Cd31 Pr16 3.438638 1_555
Cd32 Cd92 2.872015 1_545
Cd32 Cd38 3.132729 1_555
Cd32 Cd97 3.233020 1_555
Cd32 Cd47 3.388739 1_555
Cd32 Pr5 3.549098 1_555
Cd32 Pr7 3.549098 1_555
Cd32 Pr19 3.558421 1_545
Cd32 Pr9 3.722824 1_545
Cd33 Cd38 2.872015 1_455
Cd33 Cd57 2.899274 1_555
Cd33 Cd65 3.367547 1_455
Cd33 Pr3 3.438880 1_555
Cd33 Pr2 3.439063 1_556
Cd33 Cd8 3.443056 1_555
Cd33 Pr7 3.500520 1_455
Cd33 Pr18 3.626391 1_555
Cd34 Cd36 2.908937 1_555
Cd34 Cd72 3.194354 1_545
Cd34 Pr22 3.194354 1_655
Cd34 Pr13 3.443256 1_545
Cd34 Pr5 3.443256 1_555
Cd35 Cd42 2.904020 1_555
Cd35 Cd62 2.931553 1_555
Cd35 Cd36 3.443056 1_555
Cd35 Pr5 3.484231 1_555
Cd35 Pr0 3.484231 1_555
Cd35 Pr17 3.489369 1_555
Cd36 Cd62 2.899274 1_555
Cd36 Cd42 2.974809 1_555
Cd36 Pr17 3.438880 1_555
Cd36 Pr5 3.439063 1_555
Cd36 Pr13 3.500520 1_545
Cd36 Pr11 3.626391 1_555
Cd37 Cd64 2.872015 1_545
Cd37 Cd95 2.896912 1_555
Cd37 Cd99 3.132729 1_555
Cd37 Cd74 3.233019 1_555
Cd37 Cd94 3.233019 1_555
Cd37 Cd47 3.388739 1_555
Cd37 Pr0 3.549098 1_555
Cd37 Pr21 3.549098 1_555
Cd37 Pr10 3.558421 1_545
Cd37 Pr9 3.722824 1_545
Cd38 Cd97 3.233020 1_555
Cd38 Cd65 3.388739 1_555
Cd38 Pr5 3.549098 1_555
Cd38 Pr7 3.549098 1_555
Cd38 Pr18 3.558421 1_655
Cd38 Pr3 3.722824 1_655
Cd39 Cd7 2.908937 1_455
Cd39 Cd96 2.927138 1_555
Cd39 Cd43 2.927138 1_454
Cd39 Pr15 3.194354 1_565
Cd39 Cd89 3.194354 1_565
Cd39 Pr4 3.443256 1_454
Cd39 Pr24 3.443256 1_555
Cd40 Cd85 2.844998 1_555
Cd40 Cd50 3.306430 1_555
Cd40 Pr25 3.340875 1_555
Cd40 Cd81 3.367547 1_555
Cd40 Cd59 3.388739 1_555
Cd40 Cd69 3.388739 1_555
Cd40 Pr12 3.585056 1_555
Cd40 Pr2 3.585056 1_555
Cd41 Cd86 2.844998 1_555
Cd41 Cd88 3.015874 1_555
Cd41 Cd48 3.271604 1_555
Cd41 Cd67 3.306430 1_555
Cd41 Pr6 3.340875 1_455
Cd41 Cd68 3.367547 1_455
Cd41 Cd77 3.388739 1_555
Cd41 Cd90 3.388739 1_555
Cd41 Pr14 3.585056 1_555
Cd41 Pr20 3.585056 1_555
Cd43 Cd66 2.954219 1_555
Cd43 Cd73 2.978926 1_665
Cd43 Pr10 3.510957 1_655
Cd43 Pr19 3.510957 1_555
Cd43 Pr4 3.517708 1_555
Cd43 Pr15 3.560492 1_666
Cd44 Cd75 2.927138 1_555
Cd44 Cd51 2.978926 1_555
Cd44 Cd77 3.233019 1_555
Cd44 Cd59 3.233020 1_555
Cd44 Pr11 3.510957 1_455
Cd44 Pr23 3.510957 1_555
Cd44 Pr2 3.517708 1_555
Cd44 Pr15 3.560492 1_555
Cd45 Cd87 2.899274 1_555
Cd45 Cd91 2.908937 1_555
Cd45 Cd86 2.974809 1_555
Cd45 Pr3 3.438880 1_555
Cd45 Pr14 3.439063 1_555
Cd45 Cd48 3.443056 1_555
Cd45 Pr8 3.500520 1_455
Cd45 Pr10 3.626391 1_555
Cd46 Cd99 2.872015 1_555
Cd46 Cd93 2.974809 1_555
Cd46 Cd98 3.367547 1_555
Cd46 Pr16 3.438880 1_555
Cd46 Pr20 3.439063 1_555
Cd46 Cd60 3.443056 1_555
Cd46 Pr0 3.500520 1_555
Cd46 Pr18 3.626391 1_555
Cd47 Cd56 3.015874 1_555
Cd47 Cd95 3.037635 1_555
Cd47 Cd52 3.271604 1_556
Cd47 Pr9 3.340875 1_545
Cd47 Cd64 3.367547 1_545
Cd47 Cd92 3.367547 1_545
Cd47 Pr21 3.585056 1_555
Cd47 Pr7 3.585056 1_555
Cd48 Cd86 2.904020 1_555
Cd48 Cd87 2.931553 1_555
Cd48 Cd88 2.953625 1_555
Cd48 Pr14 3.484231 1_555
Cd48 Pr20 3.484231 1_555
Cd48 Pr3 3.489369 1_555
Cd49 Cd79 2.899274 1_555
Cd49 Cd72 2.908937 1_555
Cd49 Cd93 2.974809 1_555
Cd49 Cd98 3.367547 1_555
Cd49 Cd78 3.373661 1_555
Cd49 Pr16 3.438880 1_555
Cd49 Pr13 3.439063 1_555
Cd49 Cd60 3.443056 1_555
Cd49 Pr8 3.500520 1_555
Cd49 Pr19 3.626391 1_555
Cd50 Cd93 2.844998 1_555
Cd50 Cd88 3.015887 1_555
Cd50 Cd60 3.271604 1_555
Cd50 Pr25 3.340875 1_555
Cd50 Cd78 3.367547 1_555
Cd50 Cd59 3.388739 1_555
Cd50 Cd69 3.388739 1_555
Cd50 Pr13 3.585056 1_555
Cd50 Pr20 3.585056 1_555
Cd51 Cd96 2.978926 1_545
Cd51 Cd9 2.978926 1_545
Cd51 Cd63 2.978926 1_445
Cd51 Pr11 3.557495 1_455
Cd51 Pr1 3.557495 1_445
Cd51 Pr23 3.557495 1_555
Cd51 Pr15 3.923526 1_555
Cd51 Pr22 3.923526 1_555
Cd52 Cd58 2.931553 1_555
Cd52 Cd71 2.931554 1_555
Cd52 Cd56 2.953625 1_554
Cd52 Cd61 3.443056 1_555
Cd52 Pr7 3.484231 1_554
Cd52 Pr21 3.484231 1_554
Cd52 Pr17 3.489369 1_555
Cd53 Cd86 2.904020 1_655
Cd53 Cd62 2.931553 1_555
Cd53 Cd68 3.443056 1_555
Cd53 Pr5 3.484231 1_555
Cd53 Pr8 3.484231 1_555
Cd53 Pr6 3.489369 1_555
Cd54 Cd65 3.037635 1_555
Cd54 Cd70 3.037635 1_555
Cd54 Cd98 3.037635 1_555
Cd54 Cd56 3.039602 1_555
Cd54 Cd95 3.150182 1_555
Cd54 Pr8 3.555121 1_555
Cd54 Pr4 3.555121 1_555
Cd55 Cd82 2.931553 1_555
Cd55 Cd84 3.271604 1_556
Cd55 Cd64 3.443056 1_555
Cd55 Cd92 3.443056 1_555
Cd55 Pr24 3.484231 1_556
Cd55 Pr12 3.484231 1_556
Cd55 Pr9 3.489369 1_555
Cd56 Cd80 2.953625 1_556
Cd56 Cd65 3.015874 1_555
Cd56 Cd70 3.015887 1_555
Cd56 Cd95 3.039602 1_555
Cd56 Pr7 3.612077 1_555
Cd56 Pr4 3.612091 1_555
Cd56 Pr21 3.612091 1_555
Cd57 Cd8 2.931554 1_555
Cd57 Pr18 3.296005 1_555
Cd57 Pr2 3.404963 1_556
Cd57 Pr3 3.457516 1_555
Cd57 Pr16 3.457516 1_555
Cd58 Cd62 2.873170 1_555
Cd58 Cd80 2.931553 1_555
Cd58 Cd83 3.085353 1_555
Cd58 Pr11 3.296005 1_555
Cd58 Pr7 3.404963 1_554
Cd58 Pr6 3.457516 1_555
Cd58 Pr17 3.457516 1_555
Cd59 Cd81 2.872015 1_555
Cd59 Cd77 3.132729 1_555
Cd59 Pr2 3.549098 1_555
Cd59 Pr20 3.549098 1_555
Cd59 Pr23 3.558421 1_555
Cd59 Pr25 3.722824 1_555
Cd60 Cd93 2.904020 1_555
Cd60 Cd79 2.931553 1_555
Cd60 Cd88 2.953634 1_555
Cd60 Pr13 3.484231 1_555
Cd60 Pr20 3.484231 1_555
Cd60 Pr16 3.489369 1_555
Cd61 Cd71 2.899274 1_555
Cd61 Cd89 2.908937 1_555
Cd61 Cd84 3.367547 1_545
Cd61 Cd64 3.373661 1_544
Cd61 Pr17 3.438880 1_555
Cd61 Pr21 3.439063 1_554
Cd61 Pr24 3.500520 1_545
Cd61 Pr23 3.626391 1_555
Cd62 Cd68 2.899274 1_555
Cd62 Cd83 3.085353 1_555
Cd62 Pr11 3.296005 1_555
Cd62 Pr5 3.404963 1_555
Cd62 Pr6 3.457516 1_555
Cd62 Pr17 3.457516 1_555
Cd63 Cd69 3.233020 1_555
Cd63 Pr11 3.510957 1_565
Cd63 Pr1 3.510957 1_555
Cd63 Pr12 3.517708 1_555
Cd63 Pr15 3.560492 1_665
Cd64 Cd82 2.899274 1_555
Cd64 Cd89 2.908937 1_566
Cd64 Pr9 3.438880 1_555
Cd64 Pr24 3.439063 1_556
Cd64 Pr21 3.500520 1_565
Cd64 Pr10 3.626391 1_555
Cd65 Cd80 3.271604 1_556
Cd65 Pr3 3.340875 1_655
Cd65 Pr7 3.585056 1_555
Cd65 Pr4 3.585056 1_555
Cd66 Cd91 2.927138 1_655
Cd66 Cd72 2.927138 1_555
Cd66 Cd73 2.978926 1_665
Cd66 Pr10 3.510957 1_655
Cd66 Pr19 3.510957 1_555
Cd66 Pr8 3.517708 1_555
Cd66 Pr22 3.560492 1_665
Cd67 Cd8 3.271604 1_554
Cd67 Pr6 3.340875 1_455
Cd67 Cd7 3.367547 1_455
Cd67 Cd77 3.388739 1_555
Cd67 Cd90 3.388739 1_555
Cd67 Pr24 3.585056 1_555
Cd67 Pr2 3.585056 1_555
Cd68 Cd77 2.872015 1_655
Cd68 Cd86 2.974809 1_655
Cd68 Pr6 3.438880 1_555
Cd68 Pr5 3.439063 1_555
Cd68 Pr20 3.500520 1_655
Cd68 Pr11 3.626391 1_555
Cd69 Cd78 2.872015 1_555
Cd69 Pr12 3.549098 1_555
Cd69 Pr13 3.549098 1_555
Cd69 Pr1 3.558421 1_555
Cd69 Pr25 3.722824 1_555
Cd70 Cd85 2.844998 1_556
Cd70 Cd95 3.037635 1_555
Cd70 Cd98 3.306430 1_555
Cd70 Pr16 3.340875 1_555
Cd70 Cd99 3.388739 1_555
Cd70 Pr21 3.585056 1_555
Cd70 Pr4 3.585056 1_555
Cd71 Cd81 2.899274 1_555
Cd71 Cd83 3.085365 1_555
Cd71 Pr23 3.296005 1_555
Cd71 Pr21 3.404963 1_554
Cd71 Pr25 3.457516 1_555
Cd71 Pr17 3.457516 1_555
Cd72 Cd78 2.908937 1_555
Cd72 Pr22 3.194354 1_665
Cd72 Cd91 3.194354 1_655
Cd72 Pr8 3.443256 1_555
Cd72 Pr13 3.443256 1_555
Cd73 Cd97 2.978926 1_455
Cd73 Cd94 2.978926 1_555
Cd73 Cd74 2.978926 1_555
Cd73 Pr10 3.557495 1_545
Cd73 Pr18 3.557495 1_555
Cd73 Pr19 3.557495 1_445
Cd73 Pr15 3.923526 1_556
Cd73 Pr22 3.923526 1_555
Cd74 Cd76 2.927138 1_555
Cd74 Cd94 2.954219 1_555
Cd74 Cd99 3.233020 1_555
Cd74 Pr10 3.510957 1_545
Cd74 Pr18 3.510957 1_555
Cd74 Pr0 3.517708 1_555
Cd74 Pr22 3.560492 1_555
Cd75 Cd81 2.908937 1_555
Cd75 Cd94 2.927138 1_554
Cd75 Cd89 3.194354 1_555
Cd75 Pr15 3.194354 1_555
Cd75 Pr2 3.443256 1_555
Cd75 Pr21 3.443256 1_554
Cd76 Cd9 2.927138 1_545
Cd76 Cd91 3.194354 1_545
Cd76 Pr22 3.194354 1_555
Cd76 Pr0 3.443256 1_555
Cd76 Pr14 3.443256 1_545
Cd77 Pr2 3.549098 1_555
Cd77 Pr20 3.549098 1_555
Cd77 Pr11 3.558421 1_455
Cd77 Pr6 3.722824 1_455
Cd78 Cd93 2.974809 1_555
Cd78 Pr25 3.438880 1_555
Cd78 Pr8 3.439063 1_555
Cd78 Pr13 3.500520 1_555
Cd78 Pr1 3.626391 1_555
Cd79 Pr19 3.296005 1_555
Cd79 Pr13 3.404963 1_555
Cd79 Pr16 3.457516 1_555
Cd79 Pr9 3.457516 1_555
Cd80 Pr7 3.484231 1_554
Cd80 Pr4 3.484231 1_554
Cd80 Pr6 3.489369 1_555
Cd81 Cd85 2.974809 1_555
Cd81 Pr25 3.438880 1_555
Cd81 Pr21 3.439063 1_554
Cd81 Pr2 3.500520 1_555
Cd81 Pr23 3.626391 1_555
Cd82 Cd87 2.873170 1_555
Cd82 Pr10 3.296005 1_555
Cd82 Pr24 3.404963 1_556
Cd82 Pr3 3.457516 1_555
Cd82 Pr9 3.457516 1_555
Cd83 Pr17 3.438624 1_555
Cd83 Pr6 3.438624 1_555
Cd83 Pr25 3.438638 1_555
Cd84 Pr17 3.340875 1_565
Cd84 Pr12 3.585056 1_555
Cd84 Pr24 3.585056 1_555
Cd87 Pr10 3.296005 1_555
Cd87 Pr14 3.404963 1_555
Cd87 Pr3 3.457516 1_555
Cd87 Pr9 3.457516 1_555
Cd88 Pr14 3.612077 1_555
Cd88 Pr20 3.612091 1_555
Cd88 Pr13 3.612091 1_555
Cd89 Cd94 2.927138 1_554
Cd89 Cd96 2.927138 1_545
Cd89 Pr15 3.194354 1_555
Cd89 Pr21 3.443256 1_554
Cd89 Pr24 3.443256 1_545
Cd90 Cd96 3.233020 1_555
Cd90 Pr24 3.549098 1_555
Cd90 Pr14 3.549098 1_555
Cd90 Pr1 3.558421 1_455
Cd90 Pr6 3.722824 1_455
Cd91 Pr22 3.194354 1_565
Cd91 Pr8 3.443256 1_455
Cd91 Pr14 3.443256 1_555
Cd92 Pr9 3.438880 1_555
Cd92 Pr12 3.439063 1_556
Cd92 Pr7 3.500520 1_565
Cd92 Pr19 3.626391 1_555
Cd93 Cd98 2.844998 1_555
Cd94 Cd99 3.233020 1_555
Cd94 Pr10 3.510957 1_545
Cd94 Pr18 3.510957 1_555
Cd94 Pr21 3.517708 1_555
Cd94 Pr15 3.560492 1_556
Cd95 Cd99 2.896912 1_555
Cd95 Cd98 3.037635 1_555
Cd95 Pr0 3.555121 1_555
Cd95 Pr21 3.555121 1_555
Cd96 Pr23 3.510957 1_565
Cd96 Pr1 3.510957 1_455
Cd96 Pr24 3.517708 1_555
Cd96 Pr15 3.560492 1_565
Cd97 Pr19 3.510957 1_545
Cd97 Pr18 3.510957 1_655
Cd97 Pr7 3.517708 1_555
Cd97 Pr15 3.560492 1_656
Cd98 Pr16 3.340875 1_555
Cd98 Cd99 3.388739 1_555
Cd98 Pr0 3.585056 1_555
Cd98 Pr8 3.585056 1_555
Cd99 Pr0 3.549098 1_555
Cd99 Pr21 3.549098 1_555
Cd99 Pr18 3.558421 1_555
Cd99 Pr16 3.722824 1_555
Cd100 Cd28 2.896912 1_555
Cd100 Cd90 2.896912 1_555
Cd100 Cd41 3.037635 1_555
Cd100 Cd67 3.037635 1_555
Cd100 Cd13 3.037635 1_555
Cd100 Cd84 3.037635 1_555
Cd100 Cd102 3.039593 1_555
Cd100 Cd88 3.039593 1_555
Cd100 Cd103 3.150182 1_555
Cd100 Cd115 3.150182 1_555
Cd100 Pr14 3.555121 1_555
Cd100 Pr24 3.555121 1_555
Cd101 Cd90 2.872015 1_655
Cd101 Cd24 2.899274 1_555
Cd101 Cd91 2.908937 1_655
Cd101 Cd86 2.974809 1_655
Cd101 Cd41 3.367547 1_655
Cd101 Cd45 3.373661 1_655
Cd101 Pr6 3.438880 1_555
Cd101 Pr8 3.439063 1_555
Cd101 Cd53 3.443056 1_555
Cd101 Pr14 3.500520 1_655
Cd101 Pr1 3.626391 1_555
Cd102 Cd55 2.953625 1_554
Cd102 Cd8 2.953625 1_554
Cd102 Cd111 2.953634 1_554
Cd102 Cd84 3.015874 1_555
Cd102 Cd67 3.015874 1_555
Cd102 Cd40 3.015887 1_555
Cd102 Cd103 3.039602 1_555
Cd102 Cd115 3.039602 1_555
Cd102 Pr24 3.612077 1_555
Cd102 Pr2 3.612091 1_555
Cd102 Pr12 3.612091 1_555
Cd103 Cd77 2.896912 1_555
Cd103 Cd59 2.896912 1_555
Cd103 Cd41 3.037635 1_555
Cd103 Cd67 3.037635 1_555
Cd103 Cd40 3.037635 1_555
Cd103 Cd50 3.037635 1_555
Cd103 Cd88 3.039602 1_555
Cd103 Cd115 3.150182 1_555
Cd103 Pr2 3.555121 1_555
Cd103 Pr20 3.555121 1_555
Cd104 Cd22 2.908937 1_555
Cd104 Cd92 2.908937 1_544
Cd104 Cd63 2.927138 1_545
Cd104 Cd97 2.927138 1_554
Cd104 Cd17 3.194354 1_545
Cd104 Pr15 3.194354 1_655
Cd104 Pr12 3.443256 1_545
Cd104 Pr7 3.443256 1_554
Cd105 Cd36 2.872015 1_565
Cd105 Cd22 2.872015 1_565
Cd105 Cd115 2.896912 1_555
Cd105 Cd69 3.132729 1_555
Cd105 Cd63 3.233019 1_555
Cd105 Cd11 3.233019 1_555
Cd105 Cd84 3.388739 1_555
Cd105 Cd13 3.388739 1_555
Cd105 Pr12 3.549098 1_555
Cd105 Pr13 3.549098 1_555
Cd105 Pr11 3.558421 1_565
Cd105 Pr17 3.722824 1_565
Cd106 Cd47 2.844998 1_554
Cd106 Cd84 2.844998 1_545
Cd106 Cd55 2.904020 1_544
Cd106 Cd52 2.904020 1_555
Cd106 Cd92 2.974809 1_544
Cd106 Cd61 2.974809 1_555
Cd106 Cd22 2.974809 1_555
Cd106 Cd64 2.974809 1_544
Cd107 Cd86 2.844998 1_655
Cd107 Cd27 3.015874 1_555
Cd107 Cd54 3.037635 1_555
Cd107 Cd12 3.037635 1_555
Cd107 Cd53 3.271604 1_555
Cd107 Cd65 3.306430 1_555
Cd107 Pr3 3.340875 1_655
Cd107 Cd45 3.367547 1_655
Cd107 Cd30 3.367547 1_655
Cd107 Cd20 3.388739 1_555
Cd107 Cd38 3.388739 1_555
Cd107 Pr5 3.585056 1_555
Cd107 Pr8 3.585056 1_555
Cd108 Cd37 2.872015 1_565
Cd108 Cd87 2.899274 1_555
Cd108 Cd76 2.908937 1_565
Cd108 Cd42 2.974809 1_565
Cd108 Cd18 3.373661 1_565
Cd108 Pr9 3.438880 1_555
Cd108 Pr14 3.439063 1_555
Cd108 Cd114 3.443056 1_555
Cd108 Pr0 3.500520 1_565
Cd108 Pr10 3.626391 1_555
Cd109 Cd67 2.844998 1_555
Cd109 Cd65 2.844998 1_454
Cd109 Cd80 2.904020 1_455
Cd109 Cd8 2.904020 1_554
Cd109 Cd26 2.974809 1_455
Cd109 Cd15 2.974809 1_554
Cd109 Cd33 2.974809 1_554
Cd109 Cd7 2.974809 1_455
Cd110 Cd19 2.927138 1_555
Cd110 Cd21 2.927138 1_555
Cd110 Cd44 2.954219 1_555
Cd110 Cd51 2.978926 1_555
Cd110 Cd77 3.233019 1_555
Cd110 Cd59 3.233020 1_555
Cd110 Pr11 3.510957 1_455
Cd110 Pr23 3.510957 1_555
Cd110 Pr20 3.517708 1_555
Cd110 Pr22 3.560492 1_555
Cd111 Cd85 2.904020 1_556
Cd111 Cd16 2.931553 1_555
Cd111 Cd57 2.931553 1_555
Cd111 Cd40 3.271604 1_556
Cd111 Cd14 3.443056 1_555
Cd111 Cd6 3.443056 1_555
Cd111 Pr12 3.484231 1_556
Cd111 Pr2 3.484231 1_556
Cd111 Pr16 3.489369 1_555
Cd112 Cd57 2.873170 1_555
Cd112 Cd46 2.899274 1_555
Cd112 Cd30 2.899274 1_555
Cd112 Cd60 2.931553 1_555
Cd112 Cd48 2.931554 1_555
Cd112 Cd31 3.085365 1_555
Cd112 Pr18 3.296005 1_555
Cd112 Pr20 3.404963 1_555
Cd112 Pr3 3.457516 1_555
Cd112 Pr16 3.457516 1_555
Cd113 Cd6 2.872015 1_555
Cd113 Cd49 2.872015 1_555
Cd113 Cd54 2.896912 1_555
Cd113 Cd20 3.132729 1_555
Cd113 Cd43 3.233020 1_555
Cd113 Cd66 3.233020 1_555
Cd113 Cd70 3.388739 1_555
Cd113 Cd98 3.388739 1_555
Cd113 Pr8 3.549098 1_555
Cd113 Pr4 3.549098 1_555
Cd113 Pr19 3.558421 1_555
Cd113 Pr16 3.722824 1_555
Cd114 Cd42 2.904020 1_565
Cd114 Cd87 2.931553 1_555
Cd114 Cd79 2.931554 1_555
Cd114 Cd88 2.953625 1_555
Cd114 Cd13 3.271604 1_555
Cd114 Cd2 3.443056 1_555
Cd114 Pr14 3.484231 1_555
Cd114 Pr13 3.484231 1_555
Cd114 Pr9 3.489369 1_555
Cd115 Cd69 2.896912 1_555
Cd115 Cd84 3.037635 1_555
Cd115 Cd13 3.037635 1_555
Cd115 Cd40 3.037635 1_555
Cd115 Cd50 3.037635 1_555
Cd115 Cd88 3.039602 1_555
Cd115 Pr12 3.555121 1_555
Cd115 Pr13 3.555121 1_555
