# generated using pymatgen
data_Ca9Cr(PO4)7
_symmetry_space_group_name_H-M   'P 1'
_cell_length_a   13.88175292
_cell_length_b   13.88175292
_cell_length_c   13.88175254
_cell_angle_alpha   44.13205288
_cell_angle_beta   44.13205288
_cell_angle_gamma   44.13205369
_symmetry_Int_Tables_number   1
_chemical_formula_structural   Ca9Cr(PO4)7
_chemical_formula_sum   'Ca18 Cr2 P14 O56'
_cell_volume   1178.36218990
_cell_formula_units_Z   2
loop_
 _symmetry_equiv_pos_site_id
 _symmetry_equiv_pos_as_xyz
  1  'x, y, z'
loop_
 _atom_site_type_symbol
 _atom_site_label
 _atom_site_symmetry_multiplicity
 _atom_site_fract_x
 _atom_site_fract_y
 _atom_site_fract_z
 _atom_site_occupancy
  Ca  Ca0  1  0.09261000  0.06575300  0.64297800  1
  Ca  Ca1  1  0.43434400  0.41963200  0.84368800  1
  Ca  Ca2  1  0.34368800  0.91963200  0.93434400  1
  Ca  Ca3  1  0.14297800  0.56575300  0.59261000  1
  Ca  Ca4  1  0.04473400  0.44897100  0.02554700  1
  Ca  Ca5  1  0.54473400  0.52554700  0.94897100  1
  Ca  Ca6  1  0.41963200  0.84368800  0.43434400  1
  Ca  Ca7  1  0.56575300  0.59261000  0.14297800  1
  Ca  Ca8  1  0.94897100  0.54473400  0.52554700  1
  Ca  Ca9  1  0.06575300  0.64297800  0.09261000  1
  Ca  Ca10  1  0.91963200  0.93434400  0.34368800  1
  Ca  Ca11  1  0.93434400  0.34368800  0.91963200  1
  Ca  Ca12  1  0.59261000  0.14297800  0.56575300  1
  Ca  Ca13  1  0.64297800  0.09261000  0.06575300  1
  Ca  Ca14  1  0.02554700  0.04473400  0.44897100  1
  Ca  Ca15  1  0.44897100  0.02554700  0.04473400  1
  Ca  Ca16  1  0.84368800  0.43434400  0.41963200  1
  Ca  Ca17  1  0.52554700  0.94897100  0.54473400  1
  Cr  Cr0  1  0.49794100  0.49794100  0.49794100  1
  Cr  Cr1  1  0.99794100  0.99794100  0.99794100  1
  P  P0  1  0.81044800  0.31384300  0.27897300  1
  P  P1  1  0.81384300  0.31044800  0.77897300  1
  P  P2  1  0.31384300  0.27897300  0.81044800  1
  P  P3  1  0.77897300  0.81384300  0.31044800  1
  P  P4  1  0.72112200  0.17918100  0.68722900  1
  P  P5  1  0.67918100  0.22112200  0.18722900  1
  P  P6  1  0.22112200  0.18722900  0.67918100  1
  P  P7  1  0.18722900  0.67918100  0.22112200  1
  P  P8  1  0.68722900  0.72112200  0.17918100  1
  P  P9  1  0.27897300  0.81044800  0.31384300  1
  P  P10  1  0.22932900  0.22932900  0.22932900  1
  P  P11  1  0.31044800  0.77897300  0.81384300  1
  P  P12  1  0.17918100  0.68722900  0.72112200  1
  P  P13  1  0.72932900  0.72932900  0.72932900  1
  O  O0  1  0.63110800  0.38667100  0.36758400  1
  O  O1  1  0.73275300  0.88860500  0.60522100  1
  O  O2  1  0.64068400  0.73502000  0.09661000  1
  O  O3  1  0.13110800  0.86758400  0.88667100  1
  O  O4  1  0.14154300  0.36035600  0.62979500  1
  O  O5  1  0.16436600  0.61074000  0.88272800  1
  O  O6  1  0.35979200  0.61563300  0.62287700  1
  O  O7  1  0.62979500  0.14154300  0.36035600  1
  O  O8  1  0.88272800  0.16436600  0.61074000  1
  O  O9  1  0.33516400  0.86072900  0.14568100  1
  O  O10  1  0.62287700  0.35979200  0.61563300  1
  O  O11  1  0.34997300  0.60631900  0.90766700  1
  O  O12  1  0.12979500  0.86035600  0.64154300  1
  O  O13  1  0.11563300  0.85979200  0.12287700  1
  O  O14  1  0.86072900  0.14568100  0.33516400  1
  O  O15  1  0.18791300  0.18791300  0.18791300  1
  O  O16  1  0.32349500  0.31439500  0.88504600  1
  O  O17  1  0.86758400  0.88667100  0.13110800  1
  O  O18  1  0.86035600  0.64154300  0.12979500  1
  O  O19  1  0.68791300  0.68791300  0.68791300  1
  O  O20  1  0.31439500  0.88504600  0.32349500  1
  O  O21  1  0.36035600  0.62979500  0.14154300  1
  O  O22  1  0.84997300  0.40766700  0.10631900  1
  O  O23  1  0.64568100  0.36072900  0.83516400  1
  O  O24  1  0.36072900  0.83516400  0.64568100  1
  O  O25  1  0.14568100  0.33516400  0.86072900  1
  O  O26  1  0.60631900  0.90766700  0.34997300  1
  O  O27  1  0.14068400  0.59661000  0.23502000  1
  O  O28  1  0.36758400  0.63110800  0.38667100  1
  O  O29  1  0.09661000  0.64068400  0.73502000  1
  O  O30  1  0.10631900  0.84997300  0.40766700  1
  O  O31  1  0.61074000  0.88272800  0.16436600  1
  O  O32  1  0.59661000  0.23502000  0.14068400  1
  O  O33  1  0.64154300  0.12979500  0.86035600  1
  O  O34  1  0.38860500  0.23275300  0.10522100  1
  O  O35  1  0.60522100  0.73275300  0.88860500  1
  O  O36  1  0.81439500  0.82349500  0.38504600  1
  O  O37  1  0.23502000  0.14068400  0.59661000  1
  O  O38  1  0.66436600  0.38272800  0.11074000  1
  O  O39  1  0.38272800  0.11074000  0.66436600  1
  O  O40  1  0.12287700  0.11563300  0.85979200  1
  O  O41  1  0.38504600  0.81439500  0.82349500  1
  O  O42  1  0.85979200  0.12287700  0.11563300  1
  O  O43  1  0.61563300  0.62287700  0.35979200  1
  O  O44  1  0.11074000  0.66436600  0.38272800  1
  O  O45  1  0.83516400  0.64568100  0.36072900  1
  O  O46  1  0.40766700  0.10631900  0.84997300  1
  O  O47  1  0.88667100  0.13110800  0.86758400  1
  O  O48  1  0.23275300  0.10522100  0.38860500  1
  O  O49  1  0.88860500  0.60522100  0.73275300  1
  O  O50  1  0.73502000  0.09661000  0.64068400  1
  O  O51  1  0.90766700  0.34997300  0.60631900  1
  O  O52  1  0.82349500  0.38504600  0.81439500  1
  O  O53  1  0.10522100  0.38860500  0.23275300  1
  O  O54  1  0.38667100  0.36758400  0.63110800  1
  O  O55  1  0.88504600  0.32349500  0.31439500  1
loop_
_geom_bond_atom_site_label_1
_geom_bond_atom_site_label_2
_geom_bond_distance
_geom_bond_site_symmetry_2
Ca0 O48 2.333582 1_555
Ca0 O37 2.359770 1_555
Ca0 O8 2.414520 1_455
Ca0 O47 2.501923 1_455
Ca0 O12 2.520045 1_545
Ca0 O3 2.534423 1_545
Ca0 O51 2.621027 1_455
Ca0 O24 2.650776 1_545
Ca1 O23 2.342319 1_555
Ca1 O16 2.363551 1_555
Ca1 O34 2.418572 1_556
Ca1 O5 2.500695 1_555
Ca1 O10 2.514476 1_555
Ca1 O11 2.516024 1_555
Ca1 O6 2.531693 1_555
Ca1 O33 2.742539 1_555
Ca2 O9 2.342319 1_556
Ca2 O41 2.363551 1_555
Ca2 O35 2.418572 1_555
Ca2 O39 2.500695 1_565
Ca2 O13 2.514476 1_556
Ca2 O46 2.516024 1_565
Ca2 O40 2.531693 1_565
Ca2 O21 2.742539 1_556
Ca3 O49 2.333582 1_455
Ca3 O29 2.359770 1_555
Ca3 O44 2.414519 1_555
Ca3 O28 2.501923 1_555
Ca3 O4 2.520045 1_555
Ca3 O54 2.534424 1_555
Ca3 O30 2.621027 1_555
Ca3 O25 2.650776 1_555
Ca4 O22 2.417925 1_455
Ca4 O5 2.442866 1_554
Ca4 O18 2.491188 1_455
Ca4 O16 2.507483 1_554
Ca4 O15 2.555327 1_555
Ca4 O55 2.604508 1_455
Ca4 O29 2.653553 1_554
Ca4 O25 2.665097 1_554
Ca4 O53 2.945799 1_555
Ca5 O11 2.417925 1_555
Ca5 O38 2.442866 1_556
Ca5 O21 2.491188 1_556
Ca5 O52 2.507483 1_555
Ca5 O19 2.555326 1_555
Ca5 O41 2.604509 1_555
Ca5 O32 2.653553 1_556
Ca5 O23 2.665097 1_555
Ca5 O35 2.945799 1_555
Ca6 O24 2.342319 1_555
Ca6 O20 2.363551 1_555
Ca6 O48 2.418572 1_565
Ca6 O31 2.500695 1_555
Ca6 O6 2.514476 1_555
Ca6 O26 2.516024 1_555
Ca6 O43 2.531693 1_555
Ca6 O12 2.742539 1_555
Ca7 O35 2.333582 1_554
Ca7 O2 2.359770 1_555
Ca7 O38 2.414520 1_555
Ca7 O0 2.501923 1_555
Ca7 O21 2.520045 1_555
Ca7 O28 2.534423 1_555
Ca7 O22 2.621027 1_555
Ca7 O9 2.650776 1_555
Ca8 O51 2.417925 1_555
Ca8 O44 2.442866 1_655
Ca8 O4 2.491188 1_655
Ca8 O36 2.507483 1_555
Ca8 O19 2.555327 1_555
Ca8 O52 2.604508 1_555
Ca8 O27 2.653553 1_655
Ca8 O45 2.665097 1_555
Ca8 O49 2.945799 1_555
Ca9 O53 2.333582 1_555
Ca9 O27 2.359770 1_555
Ca9 O5 2.414519 1_554
Ca9 O3 2.501923 1_554
Ca9 O18 2.520045 1_455
Ca9 O17 2.534424 1_455
Ca9 O11 2.621027 1_554
Ca9 O45 2.650776 1_455
Ca10 O14 2.342319 1_565
Ca10 O36 2.363551 1_555
Ca10 O1 2.418572 1_555
Ca10 O44 2.500695 1_655
Ca10 O42 2.514476 1_565
Ca10 O30 2.516024 1_655
Ca10 O13 2.531693 1_655
Ca10 O7 2.742539 1_565
Ca11 O25 2.342319 1_655
Ca11 O52 2.363551 1_555
Ca11 O49 2.418572 1_555
Ca11 O38 2.500695 1_556
Ca11 O40 2.514476 1_655
Ca11 O22 2.516024 1_556
Ca11 O42 2.531693 1_556
Ca11 O4 2.742539 1_655
Ca12 O1 2.333582 1_545
Ca12 O50 2.359770 1_555
Ca12 O39 2.414520 1_555
Ca12 O54 2.501923 1_555
Ca12 O7 2.520045 1_555
Ca12 O0 2.534424 1_555
Ca12 O46 2.621027 1_555
Ca12 O14 2.650776 1_555
Ca13 O34 2.333582 1_555
Ca13 O32 2.359770 1_555
Ca13 O31 2.414520 1_545
Ca13 O17 2.501923 1_545
Ca13 O33 2.520045 1_554
Ca13 O47 2.534424 1_554
Ca13 O26 2.621027 1_545
Ca13 O23 2.650776 1_554
Ca14 O30 2.417925 1_545
Ca14 O8 2.442866 1_455
Ca14 O12 2.491188 1_545
Ca14 O55 2.507483 1_455
Ca14 O15 2.555326 1_555
Ca14 O20 2.604509 1_545
Ca14 O50 2.653553 1_455
Ca14 O14 2.665097 1_455
Ca14 O48 2.945799 1_555
Ca15 O46 2.417925 1_554
Ca15 O31 2.442866 1_545
Ca15 O33 2.491188 1_554
Ca15 O20 2.507483 1_545
Ca15 O15 2.555327 1_555
Ca15 O16 2.604509 1_554
Ca15 O2 2.653553 1_545
Ca15 O9 2.665097 1_545
Ca15 O34 2.945799 1_555
Ca16 O45 2.342319 1_555
Ca16 O55 2.363551 1_555
Ca16 O53 2.418572 1_655
Ca16 O8 2.500695 1_555
Ca16 O43 2.514476 1_555
Ca16 O51 2.516024 1_555
Ca16 O10 2.531693 1_555
Ca16 O18 2.742539 1_555
Ca17 O26 2.417925 1_555
Ca17 O39 2.442866 1_565
Ca17 O7 2.491188 1_565
Ca17 O41 2.507483 1_555
Ca17 O19 2.555327 1_555
Ca17 O36 2.604509 1_555
Ca17 O37 2.653553 1_565
Ca17 O24 2.665097 1_555
Ca17 O1 2.945799 1_555
Cr0 O6 2.037231 1_555
Cr0 O10 2.037231 1_555
Cr0 O43 2.037231 1_555
Cr0 O0 2.046786 1_555
Cr0 O28 2.046786 1_555
Cr0 O54 2.046786 1_555
Cr1 O13 2.037231 1_656
Cr1 O42 2.037231 1_566
Cr1 O40 2.037231 1_665
Cr1 O47 2.046786 1_565
Cr1 O3 2.046786 1_655
Cr1 O17 2.046786 1_556
O0 P0 1.584089 1_555
O1 P13 1.557023 1_555
O2 P8 1.528165 1_555
O3 P11 1.584089 1_555
O4 P6 1.541813 1_555
O5 P12 1.560225 1_555
O6 P12 1.610647 1_555
O7 P5 1.541812 1_555
O8 P4 1.560225 1_555
O9 P9 1.540703 1_555
O10 P4 1.610647 1_555
O11 P11 1.548834 1_555
O12 P12 1.541813 1_555
O13 P7 1.610647 1_555
O14 P0 1.540703 1_555
O15 P10 1.554049 1_555
O16 P2 1.535186 1_555
O17 P3 1.584089 1_555
O18 P8 1.541813 1_555
O19 P13 1.554049 1_555
O20 P9 1.535186 1_555
O21 P7 1.541813 1_555
O22 P0 1.548834 1_555
O23 P1 1.540703 1_555
O24 P11 1.540703 1_555
O25 P2 1.540703 1_555
O26 P3 1.548834 1_555
O27 P7 1.528165 1_555
O28 P9 1.584089 1_555
O29 P12 1.528165 1_555
O30 P9 1.548834 1_555
O31 P8 1.560225 1_555
O32 P5 1.528165 1_555
O33 P4 1.541812 1_555
O34 P10 1.557023 1_555
O35 P13 1.557023 1_555
O36 P3 1.535186 1_555
O37 P6 1.528165 1_555
O38 P5 1.560225 1_555
O39 P6 1.560225 1_555
O40 P6 1.610647 1_555
O41 P11 1.535186 1_555
O42 P5 1.610647 1_555
O43 P8 1.610647 1_555
O44 P7 1.560225 1_555
O45 P3 1.540703 1_555
O46 P2 1.548834 1_555
O47 P1 1.584089 1_555
O48 P10 1.557023 1_555
O49 P13 1.557023 1_555
O50 P4 1.528165 1_555
O51 P1 1.548834 1_555
O52 P1 1.535186 1_555
O53 P10 1.557023 1_555
O54 P2 1.584089 1_555
O55 P0 1.535186 1_555
