# generated using pymatgen
data_NaH12C4S2BrO2
_symmetry_space_group_name_H-M   'P 1'
_cell_length_a   10.13516300
_cell_length_b   6.57410600
_cell_length_c   16.76835577
_cell_angle_alpha   86.13969145
_cell_angle_beta   90.00000000
_cell_angle_gamma   90.00000000
_symmetry_Int_Tables_number   1
_chemical_formula_structural   NaH12C4S2BrO2
_chemical_formula_sum   'Na4 H48 C16 S8 Br4 O8'
_cell_volume   1114.73453024
_cell_formula_units_Z   4
loop_
 _symmetry_equiv_pos_site_id
 _symmetry_equiv_pos_as_xyz
  1  'x, y, z'
loop_
 _atom_site_type_symbol
 _atom_site_label
 _atom_site_symmetry_multiplicity
 _atom_site_fract_x
 _atom_site_fract_y
 _atom_site_fract_z
 _atom_site_occupancy
  Na  Na0  1  0.42971600  0.74487000  0.02888000  1
  Na  Na1  1  0.57028400  0.25513000  0.97112000  1
  Na  Na2  1  0.92971600  0.25513000  0.47112000  1
  Na  Na3  1  0.07028400  0.74487000  0.52888000  1
  H  H0  1  0.61301000  0.75516300  0.23099300  1
  H  H1  1  0.06100500  0.27936200  0.75773700  1
  H  H2  1  0.43739400  0.80459100  0.22429100  1
  H  H3  1  0.08323100  0.36473600  0.65464600  1
  H  H4  1  0.36428300  0.66228900  0.45964400  1
  H  H5  1  0.83942300  0.66038000  0.95526100  1
  H  H6  1  0.16449100  0.13413500  0.69324000  1
  H  H7  1  0.13571700  0.66228900  0.95964400  1
  H  H8  1  0.93739400  0.19540900  0.27570900  1
  H  H9  1  0.42543600  0.19073200  0.47325500  1
  H  H10  1  0.82252600  0.30721800  0.14582200  1
  H  H11  1  0.93899500  0.72063800  0.24226300  1
  H  H12  1  0.07456400  0.19073200  0.97325500  1
  H  H13  1  0.38699000  0.24483700  0.76900700  1
  H  H14  1  0.88699000  0.75516300  0.73099300  1
  H  H15  1  0.86428300  0.33771100  0.04035600  1
  H  H16  1  0.58323100  0.63526400  0.84535400  1
  H  H17  1  0.11301000  0.24483700  0.26900700  1
  H  H18  1  0.23108200  0.10506300  0.01338700  1
  H  H19  1  0.33550900  0.13413500  0.19324000  1
  H  H20  1  0.66057700  0.66038000  0.45526100  1
  H  H21  1  0.92543600  0.80926800  0.02674500  1
  H  H22  1  0.43899500  0.27936200  0.25773700  1
  H  H23  1  0.03851100  0.08122500  0.20041700  1
  H  H24  1  0.95755800  0.47216000  0.11313800  1
  H  H25  1  0.33942300  0.33962000  0.54473900  1
  H  H26  1  0.66449100  0.86586500  0.80676000  1
  H  H27  1  0.57456400  0.80926800  0.52674500  1
  H  H28  1  0.54244200  0.47216000  0.61313800  1
  H  H29  1  0.67747400  0.30721800  0.64582200  1
  H  H30  1  0.53851100  0.91877500  0.29958300  1
  H  H31  1  0.96148900  0.91877500  0.79958300  1
  H  H32  1  0.46148900  0.08122500  0.70041700  1
  H  H33  1  0.73108200  0.89493700  0.48661300  1
  H  H34  1  0.91676900  0.63526400  0.34535400  1
  H  H35  1  0.41676900  0.36473600  0.15464600  1
  H  H36  1  0.83550900  0.86586500  0.30676000  1
  H  H37  1  0.04244200  0.52784000  0.88686200  1
  H  H38  1  0.17747400  0.69278200  0.85417800  1
  H  H39  1  0.56100500  0.72063800  0.74226300  1
  H  H40  1  0.76891800  0.89493700  0.98661300  1
  H  H41  1  0.63571700  0.33771100  0.54035600  1
  H  H42  1  0.26891800  0.10506300  0.51338700  1
  H  H43  1  0.16057700  0.33962000  0.04473900  1
  H  H44  1  0.06260600  0.80459100  0.72429100  1
  H  H45  1  0.56260600  0.19540900  0.77570900  1
  H  H46  1  0.32252600  0.69278200  0.35417800  1
  H  H47  1  0.45755800  0.52784000  0.38686200  1
  C  C0  1  0.32888700  0.23911700  0.49529800  1
  C  C1  1  0.07666900  0.23081700  0.69705900  1
  C  C2  1  0.92333100  0.76918300  0.30294100  1
  C  C3  1  0.67111300  0.76088300  0.50470200  1
  C  C4  1  0.46539900  0.13295200  0.76132800  1
  C  C5  1  0.82888700  0.76088300  0.00470200  1
  C  C6  1  0.03460100  0.13295200  0.26132800  1
  C  C7  1  0.57666900  0.76918300  0.80294100  1
  C  C8  1  0.53460100  0.86704800  0.23867200  1
  C  C9  1  0.36038100  0.58863700  0.40266900  1
  C  C10  1  0.63961900  0.41136300  0.59733100  1
  C  C11  1  0.86038100  0.41136300  0.09733100  1
  C  C12  1  0.13961900  0.58863700  0.90266900  1
  C  C13  1  0.42333100  0.23081700  0.19705900  1
  C  C14  1  0.96539900  0.86704800  0.73867200  1
  C  C15  1  0.17111300  0.23911700  0.99529800  1
  S  S0  1  0.25287200  0.37815300  0.91349200  1
  S  S1  1  0.06658800  0.91305600  0.32878400  1
  S  S2  1  0.43341200  0.91305600  0.82878400  1
  S  S3  1  0.24712800  0.37815300  0.41349200  1
  S  S4  1  0.56658800  0.08694400  0.17121600  1
  S  S5  1  0.93341200  0.08694400  0.67121600  1
  S  S6  1  0.75287200  0.62184700  0.58650800  1
  S  S7  1  0.74712800  0.62184700  0.08650800  1
  Br  Br0  1  0.19415000  0.71965300  0.12889800  1
  Br  Br1  1  0.30585000  0.71965300  0.62889800  1
  Br  Br2  1  0.80585000  0.28034700  0.87110200  1
  Br  Br3  1  0.69415000  0.28034700  0.37110200  1
  O  O0  1  0.45755600  0.97914600  0.91325300  1
  O  O1  1  0.38025500  0.46368200  0.94649300  1
  O  O2  1  0.11974500  0.46368200  0.44649300  1
  O  O3  1  0.54244400  0.02085400  0.08674700  1
  O  O4  1  0.61974500  0.53631800  0.05350700  1
  O  O5  1  0.95755600  0.02085400  0.58674700  1
  O  O6  1  0.04244400  0.97914600  0.41325300  1
  O  O7  1  0.88025500  0.53631800  0.55350700  1
loop_
_geom_bond_atom_site_label_1
_geom_bond_atom_site_label_2
_geom_bond_distance
_geom_bond_site_symmetry_2
Na0 O4 2.383995 1_555
Na0 O3 2.403290 1_565
Na0 O0 2.410155 1_554
Na0 O1 2.433281 1_554
Na1 O1 2.383995 1_555
Na1 O0 2.403290 1_545
Na1 O3 2.410155 1_556
Na1 O4 2.433281 1_556
Na2 O2 2.383995 1_655
Na2 O6 2.403290 1_645
Na2 O5 2.410155 1_555
Na2 O7 2.433281 1_555
Na3 O7 2.383995 1_455
Na3 O5 2.403290 1_465
Na3 O6 2.410155 1_555
Na3 O2 2.433281 1_555
C0 H42 1.096399 1_555
C0 H25 1.099555 1_555
C0 H9 1.100533 1_555
C0 S3 1.798607 1_555
C1 H3 1.095908 1_555
C1 H6 1.098101 1_555
C1 H1 1.098190 1_555
C1 S5 1.801580 1_455
C2 H34 1.095908 1_555
C2 H36 1.098101 1_555
C2 H11 1.098190 1_555
C2 S1 1.801580 1_655
C3 H33 1.096399 1_555
C3 H20 1.099555 1_555
C3 H27 1.100533 1_555
C3 S6 1.798607 1_555
C4 H13 1.096306 1_555
C4 H32 1.098722 1_555
C4 H45 1.100323 1_555
C4 S2 1.803937 1_545
C5 H40 1.096399 1_554
C5 H5 1.099555 1_554
C5 H21 1.100533 1_555
C5 S7 1.798607 1_555
C6 H17 1.096306 1_555
C6 H23 1.098722 1_555
C6 H8 1.100323 1_455
C6 S1 1.803937 1_545
C7 H16 1.095908 1_555
C7 H26 1.098101 1_555
C7 H39 1.098190 1_555
C7 S2 1.801580 1_555
C8 H0 1.096306 1_555
C8 H30 1.098722 1_555
C8 H2 1.100323 1_555
C8 S4 1.803937 1_565
C9 H46 1.096428 1_555
C9 H4 1.100474 1_555
C9 H47 1.101956 1_555
C9 S3 1.797610 1_555
C10 H29 1.096428 1_555
C10 H41 1.100474 1_555
C10 H28 1.101956 1_555
C10 S6 1.797610 1_555
C11 H10 1.096428 1_555
C11 H15 1.100474 1_555
C11 H24 1.101956 1_555
C11 S7 1.797610 1_555
C12 H38 1.096428 1_555
C12 H7 1.100474 1_555
C12 H37 1.101956 1_555
C12 S0 1.797610 1_555
C13 H35 1.095908 1_555
C13 H19 1.098101 1_555
C13 H22 1.098190 1_555
C13 S4 1.801580 1_555
C14 H14 1.096306 1_555
C14 H31 1.098722 1_555
C14 H44 1.100323 1_655
C14 S5 1.803937 1_565
C15 H18 1.096399 1_556
C15 H43 1.099555 1_556
C15 H12 1.100533 1_555
C15 S0 1.798607 1_555
Br0 Na0 2.915989 1_555
Br1 Na3 2.915989 1_555
Br2 Na1 2.915989 1_555
Br3 Na2 2.915989 1_555
O0 S2 1.528962 1_555
O1 S0 1.526786 1_555
O2 S3 1.526786 1_555
O3 S4 1.528962 1_555
O4 S7 1.526786 1_555
O5 S5 1.528962 1_555
O6 S1 1.528962 1_555
O7 S6 1.526786 1_555
