# generated using pymatgen
data_Ce3Sb3Au2
_symmetry_space_group_name_H-M   'P 1'
_cell_length_a   4.65636442
_cell_length_b   4.65636442
_cell_length_c   23.78258600
_cell_angle_alpha   90.00000000
_cell_angle_beta   90.00000000
_cell_angle_gamma   120.00000599
_symmetry_Int_Tables_number   1
_chemical_formula_structural   Ce3Sb3Au2
_chemical_formula_sum   'Ce6 Sb6 Au4'
_cell_volume   446.56389358
_cell_formula_units_Z   2
loop_
 _symmetry_equiv_pos_site_id
 _symmetry_equiv_pos_as_xyz
  1  'x, y, z'
loop_
 _atom_site_type_symbol
 _atom_site_label
 _atom_site_symmetry_multiplicity
 _atom_site_fract_x
 _atom_site_fract_y
 _atom_site_fract_z
 _atom_site_occupancy
  Ce  Ce0  1  0.66666700  0.33333300  0.92521200  1
  Ce  Ce1  1  0.33333300  0.66666700  0.07478800  1
  Ce  Ce2  1  0.33333300  0.66666700  0.42521200  1
  Ce  Ce3  1  0.66666700  0.33333300  0.57478800  1
  Ce  Ce4  1  0.33333300  0.66666700  0.25000000  1
  Ce  Ce5  1  0.66666700  0.33333300  0.75000000  1
  Sb  Sb0  1  0.33333300  0.66666700  0.65308600  1
  Sb  Sb1  1  0.00000000  0.00000000  0.50000000  1
  Sb  Sb2  1  0.66666700  0.33333300  0.34691400  1
  Sb  Sb3  1  0.33333300  0.66666700  0.84691400  1
  Sb  Sb4  1  0.66666700  0.33333300  0.15308600  1
  Sb  Sb5  1  0.00000000  0.00000000  0.00000000  1
  Au  Au0  1  0.00000000  0.00000000  0.81294000  1
  Au  Au1  1  0.00000000  0.00000000  0.18706000  1
  Au  Au2  1  0.00000000  0.00000000  0.31294000  1
  Au  Au3  1  0.00000000  0.00000000  0.68706000  1
loop_
_geom_bond_atom_site_label_1
_geom_bond_atom_site_label_2
_geom_bond_distance
_geom_bond_site_symmetry_2
Ce0 Sb5 3.223481 1_656
Ce0 Sb5 3.223485 1_556
Ce0 Sb5 3.223485 1_666
Ce0 Sb3 3.270283 1_545
Ce0 Sb3 3.270283 1_655
Ce0 Sb3 3.270290 1_555
Ce1 Sb5 3.223481 1_565
Ce1 Sb5 3.223485 1_555
Ce1 Sb5 3.223485 1_665
Ce1 Sb4 3.270283 1_455
Ce1 Sb4 3.270283 1_565
Ce1 Sb4 3.270290 1_555
Ce2 Sb1 3.223481 1_565
Ce2 Sb1 3.223485 1_555
Ce2 Sb1 3.223485 1_665
Ce2 Sb2 3.270283 1_455
Ce2 Sb2 3.270283 1_565
Ce2 Sb2 3.270290 1_555
Ce3 Sb1 3.223481 1_655
Ce3 Sb1 3.223485 1_665
Ce3 Sb1 3.223485 1_555
Ce3 Sb0 3.270283 1_545
Ce3 Sb0 3.270283 1_655
Ce3 Sb0 3.270290 1_555
Ce4 Sb4 3.541134 1_455
Ce4 Sb2 3.541134 1_455
Ce4 Sb4 3.541134 1_565
Ce4 Sb2 3.541134 1_565
Ce4 Sb4 3.541141 1_555
Ce4 Sb2 3.541141 1_555
Ce5 Sb3 3.541134 1_545
Ce5 Sb0 3.541134 1_545
Ce5 Sb3 3.541134 1_655
Ce5 Sb0 3.541134 1_655
Ce5 Sb3 3.541141 1_555
Ce5 Sb0 3.541141 1_555
Au0 Sb3 2.807147 1_545
Au0 Sb3 2.807151 1_555
Au0 Sb3 2.807151 1_445
Au0 Ce5 3.076990 1_455
Au0 Ce5 3.076993 1_445
Au0 Ce5 3.076993 1_555
Au1 Sb4 2.807147 1_455
Au1 Sb4 2.807151 1_445
Au1 Sb4 2.807151 1_555
Au1 Ce4 3.076990 1_545
Au1 Ce4 3.076993 1_445
Au1 Ce4 3.076993 1_555
Au2 Sb2 2.807147 1_455
Au2 Sb2 2.807151 1_445
Au2 Sb2 2.807151 1_555
Au2 Ce4 3.076990 1_545
Au2 Ce4 3.076993 1_555
Au2 Ce4 3.076993 1_445
Au3 Sb0 2.807147 1_545
Au3 Sb0 2.807151 1_555
Au3 Sb0 2.807151 1_445
Au3 Ce5 3.076990 1_455
Au3 Ce5 3.076993 1_445
Au3 Ce5 3.076993 1_555
