# generated using pymatgen
data_CrC7N2O5
_symmetry_space_group_name_H-M   'P 1'
_cell_length_a   13.72943900
_cell_length_b   6.49287800
_cell_length_c   12.07024233
_cell_angle_alpha   90.00000000
_cell_angle_beta   96.84373110
_cell_angle_gamma   90.00000000
_symmetry_Int_Tables_number   1
_chemical_formula_structural   CrC7N2O5
_chemical_formula_sum   'Cr4 C28 N8 O20'
_cell_volume   1068.31796652
_cell_formula_units_Z   4
loop_
 _symmetry_equiv_pos_site_id
 _symmetry_equiv_pos_as_xyz
  1  'x, y, z'
loop_
 _atom_site_type_symbol
 _atom_site_label
 _atom_site_symmetry_multiplicity
 _atom_site_fract_x
 _atom_site_fract_y
 _atom_site_fract_z
 _atom_site_occupancy
  Cr  Cr0  1  0.71226300  0.55191500  0.90028200  1
  Cr  Cr1  1  0.28773700  0.05191500  0.59971800  1
  Cr  Cr2  1  0.28773700  0.44808500  0.09971800  1
  Cr  Cr3  1  0.71226300  0.94808500  0.40028200  1
  C  C0  1  0.28912500  0.69898400  0.01431300  1
  C  C1  1  0.19077500  0.55639900  0.18188700  1
  C  C2  1  0.71669900  0.80075800  0.81479200  1
  C  C3  1  0.71087500  0.19898400  0.48568700  1
  C  C4  1  0.80626600  0.83413400  0.51619200  1
  C  C5  1  0.80922500  0.44360100  0.81811300  1
  C  C6  1  0.61010700  0.05652600  0.29455400  1
  C  C7  1  0.80922500  0.05639900  0.31811300  1
  C  C8  1  0.71087500  0.30101600  0.98568700  1
  C  C9  1  0.71669900  0.69924200  0.31479200  1
  C  C10  1  0.28330100  0.19924200  0.18520800  1
  C  C11  1  0.93990400  0.18185300  0.20730400  1
  C  C12  1  0.61354800  0.83046100  0.48144800  1
  C  C13  1  0.19077500  0.94360100  0.68188700  1
  C  C14  1  0.28330100  0.30075800  0.68520800  1
  C  C15  1  0.06009600  0.81814700  0.79269600  1
  C  C16  1  0.19373400  0.33413400  0.98380800  1
  C  C17  1  0.06009600  0.68185300  0.29269600  1
  C  C18  1  0.38989300  0.55652600  0.20544600  1
  C  C19  1  0.61354800  0.66953900  0.98144800  1
  C  C20  1  0.38645200  0.16953900  0.51855200  1
  C  C21  1  0.19373400  0.16586600  0.48380800  1
  C  C22  1  0.38989300  0.94347400  0.70544600  1
  C  C23  1  0.80626600  0.66586600  0.01619200  1
  C  C24  1  0.38645200  0.33046100  0.01855200  1
  C  C25  1  0.61010700  0.44347400  0.79455400  1
  C  C26  1  0.93990400  0.31814700  0.70730400  1
  C  C27  1  0.28912500  0.80101600  0.51431300  1
  N  N0  1  0.87466400  0.38136400  0.76156100  1
  N  N1  1  0.03853500  0.72875000  0.01740100  1
  N  N2  1  0.96146500  0.27125000  0.98259900  1
  N  N3  1  0.87466400  0.11863600  0.26156100  1
  N  N4  1  0.12533600  0.61863600  0.23843900  1
  N  N5  1  0.96146500  0.22875000  0.48259900  1
  N  N6  1  0.03853500  0.77125000  0.51740100  1
  N  N7  1  0.12533600  0.88136400  0.73843900  1
  O  O0  1  0.28106100  0.04947000  0.23686700  1
  O  O1  1  0.85698700  0.73539000  0.08994300  1
  O  O2  1  0.44450800  0.25891700  0.96794200  1
  O  O3  1  0.54722200  0.37999000  0.73112400  1
  O  O4  1  0.28837600  0.65185400  0.46169900  1
  O  O5  1  0.85698700  0.76461000  0.58994300  1
  O  O6  1  0.54722200  0.12001000  0.23112400  1
  O  O7  1  0.28837600  0.84814600  0.96169900  1
  O  O8  1  0.45277800  0.62001000  0.26887600  1
  O  O9  1  0.55549200  0.74108300  0.03205800  1
  O  O10  1  0.71893900  0.54947000  0.26313300  1
  O  O11  1  0.45277800  0.87999000  0.76887600  1
  O  O12  1  0.71893900  0.95053000  0.76313300  1
  O  O13  1  0.14301300  0.26461000  0.91005700  1
  O  O14  1  0.44450800  0.24108300  0.46794200  1
  O  O15  1  0.71162400  0.15185400  0.03830100  1
  O  O16  1  0.14301300  0.23539000  0.41005700  1
  O  O17  1  0.55549200  0.75891700  0.53205800  1
  O  O18  1  0.28106100  0.45053000  0.73686700  1
  O  O19  1  0.71162400  0.34814600  0.53830100  1
loop_
_geom_bond_atom_site_label_1
_geom_bond_atom_site_label_2
_geom_bond_distance
_geom_bond_site_symmetry_2
C0 O7 1.157510 1_554
C0 Cr2 1.929130 1_555
C1 N4 1.258009 1_555
C1 Cr2 1.888148 1_555
C2 O12 1.157573 1_555
C2 Cr0 1.921974 1_555
C3 O19 1.157510 1_555
C3 Cr3 1.929130 1_545
C4 O5 1.154733 1_555
C4 Cr3 1.933940 1_555
C5 N0 1.258009 1_555
C5 Cr0 1.888148 1_555
C6 O6 1.159290 1_555
C6 Cr3 1.914393 1_545
C7 N3 1.258009 1_555
C7 Cr3 1.888148 1_545
C8 O15 1.157510 1_556
C8 Cr0 1.929130 1_555
C9 O10 1.157573 1_555
C9 Cr3 1.921974 1_555
C10 O0 1.157573 1_555
C10 Cr2 1.921974 1_555
C11 N3 1.240749 1_555
C12 O17 1.157725 1_555
C12 Cr3 1.922589 1_555
C13 N7 1.258009 1_555
C13 Cr1 1.888148 1_565
C14 O18 1.157573 1_555
C14 Cr1 1.921974 1_555
C15 N7 1.240749 1_555
C16 O13 1.154733 1_555
C16 Cr2 1.933940 1_556
C17 N4 1.240749 1_555
C18 O8 1.159290 1_555
C18 Cr2 1.914393 1_555
C19 O9 1.157725 1_556
C19 Cr0 1.922589 1_555
C20 O14 1.157725 1_555
C20 Cr1 1.922589 1_555
C21 O16 1.154733 1_555
C21 Cr1 1.933940 1_555
C22 O11 1.159290 1_555
C22 Cr1 1.914393 1_565
C23 O1 1.154733 1_555
C23 Cr0 1.933940 1_554
C24 O2 1.157725 1_554
C24 Cr2 1.922589 1_555
C25 O3 1.159290 1_555
C25 Cr0 1.914393 1_555
C26 N0 1.240749 1_555
C27 O4 1.157510 1_555
C27 Cr1 1.929130 1_565
