# generated using pymatgen
data_SrCo2Te3(ClO4)2
_symmetry_space_group_name_H-M   'P 1'
_cell_length_a   9.17720500
_cell_length_b   6.70654800
_cell_length_c   19.46544207
_cell_angle_alpha   74.18326752
_cell_angle_beta   90.00000000
_cell_angle_gamma   90.00000000
_symmetry_Int_Tables_number   1
_chemical_formula_structural   SrCo2Te3(ClO4)2
_chemical_formula_sum   'Sr4 Co8 Te12 Cl8 O32'
_cell_volume   1152.68676374
_cell_formula_units_Z   4
loop_
 _symmetry_equiv_pos_site_id
 _symmetry_equiv_pos_as_xyz
  1  'x, y, z'
loop_
 _atom_site_type_symbol
 _atom_site_label
 _atom_site_symmetry_multiplicity
 _atom_site_fract_x
 _atom_site_fract_y
 _atom_site_fract_z
 _atom_site_occupancy
  Sr  Sr0  1  0.61945700  0.51434300  0.22804400  1
  Sr  Sr1  1  0.88054300  0.51434300  0.72804400  1
  Sr  Sr2  1  0.11945700  0.48565700  0.27195600  1
  Sr  Sr3  1  0.38054300  0.48565700  0.77195600  1
  Co  Co0  1  0.45672500  0.80971300  0.31939200  1
  Co  Co1  1  0.75551500  0.06261900  0.32377700  1
  Co  Co2  1  0.95672500  0.19028700  0.18060800  1
  Co  Co3  1  0.74448500  0.06261900  0.82377700  1
  Co  Co4  1  0.25551500  0.93738100  0.17622300  1
  Co  Co5  1  0.04327500  0.80971300  0.81939200  1
  Co  Co6  1  0.24448500  0.93738100  0.67622300  1
  Co  Co7  1  0.54327500  0.19028700  0.68060800  1
  Te  Te0  1  0.92668900  0.77727100  0.11185300  1
  Te  Te1  1  0.57331100  0.77727100  0.61185300  1
  Te  Te2  1  0.07331100  0.22272900  0.88814700  1
  Te  Te3  1  0.60773900  0.09095400  0.13732400  1
  Te  Te4  1  0.10773900  0.90904600  0.36267600  1
  Te  Te5  1  0.39226100  0.90904600  0.86267600  1
  Te  Te6  1  0.29001300  0.45135100  0.10577500  1
  Te  Te7  1  0.42668900  0.22272900  0.38814700  1
  Te  Te8  1  0.70998700  0.54864900  0.89422500  1
  Te  Te9  1  0.20998700  0.45135100  0.60577500  1
  Te  Te10  1  0.79001300  0.54864900  0.39422500  1
  Te  Te11  1  0.89226100  0.09095400  0.63732400  1
  Cl  Cl0  1  0.10407800  0.74646900  0.94767800  1
  Cl  Cl1  1  0.89592200  0.25353100  0.05232200  1
  Cl  Cl2  1  0.39592200  0.74646900  0.44767800  1
  Cl  Cl3  1  0.31925400  0.09048700  0.04769900  1
  Cl  Cl4  1  0.68074600  0.90951300  0.95230100  1
  Cl  Cl5  1  0.60407800  0.25353100  0.55232200  1
  Cl  Cl6  1  0.81925400  0.90951300  0.45230100  1
  Cl  Cl7  1  0.18074600  0.09048700  0.54769900  1
  O  O0  1  0.73808500  0.35828900  0.83872000  1
  O  O1  1  0.42862300  0.49366300  0.32391000  1
  O  O2  1  0.23253600  0.83706600  0.29376300  1
  O  O3  1  0.01643100  0.37189600  0.64095000  1
  O  O4  1  0.26191500  0.64171100  0.16128000  1
  O  O5  1  0.73090700  0.81827400  0.14129800  1
  O  O6  1  0.23090700  0.18172600  0.35870200  1
  O  O7  1  0.30974800  0.23721900  0.67529800  1
  O  O8  1  0.26746400  0.83706600  0.79376300  1
  O  O9  1  0.97918400  0.09266500  0.29693600  1
  O  O10  1  0.92862300  0.50633700  0.17609000  1
  O  O11  1  0.76909300  0.81827400  0.64129800  1
  O  O12  1  0.76191500  0.35828900  0.33872000  1
  O  O13  1  0.26909300  0.18172600  0.85870200  1
  O  O14  1  0.52081600  0.09266500  0.79693600  1
  O  O15  1  0.19025200  0.23721900  0.17529800  1
  O  O16  1  0.52277100  0.10351000  0.32211000  1
  O  O17  1  0.80974800  0.76278100  0.82470200  1
  O  O18  1  0.23808500  0.64171100  0.66128000  1
  O  O19  1  0.51643100  0.62810400  0.85905000  1
  O  O20  1  0.07137700  0.49366300  0.82391000  1
  O  O21  1  0.48356900  0.37189600  0.14095000  1
  O  O22  1  0.97722900  0.10351000  0.82211000  1
  O  O23  1  0.02081600  0.90733500  0.70306400  1
  O  O24  1  0.98356900  0.62810400  0.35905000  1
  O  O25  1  0.73253600  0.16293400  0.20623700  1
  O  O26  1  0.02277100  0.89649000  0.17789000  1
  O  O27  1  0.69025200  0.76278100  0.32470200  1
  O  O28  1  0.47722900  0.89649000  0.67789000  1
  O  O29  1  0.76746400  0.16293400  0.70623700  1
  O  O30  1  0.47918400  0.90733500  0.20306400  1
  O  O31  1  0.57137700  0.50633700  0.67609000  1
loop_
_geom_bond_atom_site_label_1
_geom_bond_atom_site_label_2
_geom_bond_distance
_geom_bond_site_symmetry_2
Co0 O16 2.075894 1_565
Co0 O1 2.113138 1_555
Co0 O2 2.113210 1_555
Co0 O27 2.164487 1_555
Co0 O30 2.188693 1_555
Co1 O12 2.081937 1_555
Co1 O27 2.093546 1_545
Co1 O9 2.114140 1_555
Co1 O16 2.152590 1_555
Co1 O25 2.211966 1_555
Co2 O26 2.075894 1_645
Co2 O10 2.113138 1_555
Co2 O25 2.113210 1_555
Co2 O15 2.164487 1_655
Co2 O9 2.188693 1_555
Co3 O0 2.081937 1_555
Co3 O17 2.093546 1_545
Co3 O14 2.114140 1_555
Co3 O22 2.152590 1_555
Co3 O29 2.211966 1_555
Co4 O4 2.081937 1_555
Co4 O15 2.093546 1_565
Co4 O30 2.114140 1_555
Co4 O26 2.152590 1_555
Co4 O2 2.211966 1_555
Co5 O22 2.075894 1_465
Co5 O20 2.113138 1_555
Co5 O8 2.113210 1_555
Co5 O17 2.164487 1_455
Co5 O23 2.188693 1_555
Co6 O18 2.081937 1_555
Co6 O7 2.093546 1_565
Co6 O23 2.114140 1_555
Co6 O28 2.152590 1_555
Co6 O8 2.211966 1_555
Co7 O28 2.075894 1_545
Co7 O31 2.113138 1_555
Co7 O29 2.113210 1_555
Co7 O7 2.164487 1_555
Co7 O14 2.188693 1_555
Cl0 Co5 2.479843 1_555
Cl1 Co2 2.479843 1_555
Cl2 Co0 2.479843 1_555
Cl3 Co4 2.501010 1_545
Cl3 Te6 2.949327 1_555
Cl4 Co3 2.501010 1_565
Cl4 Te8 2.949327 1_555
Cl5 Co7 2.479843 1_555
Cl6 Co1 2.501010 1_565
Cl6 Te10 2.949327 1_555
Cl7 Co6 2.501010 1_545
Cl7 Te9 2.949327 1_555
O0 Te8 1.901469 1_555
O0 Sr1 2.493332 1_555
O1 Te7 1.904441 1_555
O1 Sr0 2.535255 1_555
O1 Sr2 3.017513 1_555
O2 Te4 1.922792 1_555
O2 Sr2 2.712320 1_555
O3 Te9 1.925908 1_555
O3 Te11 2.219468 1_455
O3 Sr1 2.494962 1_455
O4 Te6 1.901469 1_555
O4 Sr2 2.493332 1_555
O5 Te0 1.928288 1_555
O5 Te3 2.133267 1_565
O5 Sr0 2.485133 1_555
O6 Te7 1.928288 1_555
O6 Te4 2.133267 1_545
O6 Sr2 2.485133 1_555
O7 Te9 1.916384 1_555
O7 Sr3 2.906389 1_555
O8 Te5 1.922792 1_555
O8 Sr3 2.712320 1_555
O9 Te4 1.920115 1_645
O9 Sr2 2.853331 1_655
O10 Te0 1.904441 1_555
O10 Sr2 2.535255 1_655
O10 Sr0 3.017513 1_555
O11 Te1 1.928288 1_555
O11 Te11 2.133267 1_565
O11 Sr1 2.485133 1_555
O12 Te10 1.901469 1_555
O12 Sr0 2.493332 1_555
O13 Te2 1.928288 1_555
O13 Te5 2.133267 1_545
O13 Sr3 2.485133 1_555
O14 Te5 1.920115 1_545
O14 Sr3 2.853331 1_555
O15 Te6 1.916384 1_555
O15 Sr2 2.906389 1_555
O16 Te7 1.905098 1_555
O16 Sr0 2.996896 1_555
O17 Te8 1.916384 1_555
O17 Sr1 2.906389 1_555
O18 Te9 1.901469 1_555
O18 Sr3 2.493332 1_555
O19 Te8 1.925908 1_555
O19 Te5 2.219468 1_555
O19 Sr3 2.494962 1_555
O20 Te2 1.904441 1_555
O20 Sr1 2.535255 1_455
O20 Sr3 3.017513 1_555
O21 Te6 1.925908 1_555
O21 Te3 2.219468 1_555
O21 Sr0 2.494962 1_555
O22 Te2 1.905098 1_655
O22 Sr1 2.996896 1_555
O23 Te11 1.920115 1_465
O23 Sr1 2.853331 1_455
O24 Te10 1.925908 1_555
O24 Te4 2.219468 1_655
O24 Sr2 2.494962 1_655
O25 Te3 1.922792 1_555
O25 Sr0 2.712320 1_555
O26 Te0 1.905098 1_455
O26 Sr2 2.996896 1_555
O27 Te10 1.916384 1_555
O27 Sr0 2.906389 1_555
O28 Te1 1.905098 1_555
O28 Sr3 2.996896 1_555
O29 Te11 1.922792 1_555
O29 Sr1 2.712320 1_555
O30 Te3 1.920115 1_565
O30 Sr0 2.853331 1_555
O31 Te1 1.904441 1_555
O31 Sr3 2.535255 1_555
O31 Sr1 3.017513 1_555
