# generated using pymatgen
data_SiO2
_symmetry_space_group_name_H-M   'P 1'
_cell_length_a   15.36322435
_cell_length_b   15.36322435
_cell_length_c   15.36322435
_cell_angle_alpha   109.76827710
_cell_angle_beta   109.55551358
_cell_angle_gamma   109.09061092
_symmetry_Int_Tables_number   1
_chemical_formula_structural   SiO2
_chemical_formula_sum   'Si16 O32'
_cell_volume   2791.31826242
_cell_formula_units_Z   16
loop_
 _symmetry_equiv_pos_site_id
 _symmetry_equiv_pos_as_xyz
  1  'x, y, z'
loop_
 _atom_site_type_symbol
 _atom_site_label
 _atom_site_symmetry_multiplicity
 _atom_site_fract_x
 _atom_site_fract_y
 _atom_site_fract_z
 _atom_site_occupancy
  Si  Si0  1  0.77263100  0.30522300  0.46740700  1
  Si  Si1  1  0.54797600  0.00070900  0.70702200  1
  Si  Si2  1  0.70631300  0.99929100  0.54726700  1
  Si  Si3  1  0.54797600  0.84095400  0.54726700  1
  Si  Si4  1  0.95923400  0.49939200  0.30022400  1
  Si  Si5  1  0.70631300  0.15904600  0.70702200  1
  Si  Si6  1  0.79108200  0.30487900  0.09596000  1
  Si  Si7  1  0.95923400  0.65901000  0.45984200  1
  Si  Si8  1  0.16218400  0.69477700  0.46740700  1
  Si  Si9  1  0.71427700  0.19668600  0.91096300  1
  Si  Si10  1  0.79108200  0.69512100  0.48620300  1
  Si  Si11  1  0.80083200  0.34099000  0.30022400  1
  Si  Si12  1  0.71427700  0.80331400  0.51759000  1
  Si  Si13  1  0.34535400  0.80441200  0.54094200  1
  Si  Si14  1  0.73652900  0.19558800  0.54094200  1
  Si  Si15  1  0.80083200  0.50060800  0.45984200  1
  O  O0  1  0.60825700  0.77156100  0.53112000  1
  O  O1  1  0.89787500  0.42384600  0.17033800  1
  O  O2  1  0.41883100  0.77235700  0.49389800  1
  O  O3  1  0.80738900  0.78833800  0.59572700  1
  O  O4  1  0.72154100  0.07506700  0.49389800  1
  O  O5  1  0.75955900  0.92286400  0.53112000  1
  O  O6  1  0.89787500  0.72753700  0.47402900  1
  O  O7  1  0.74649200  0.27246300  0.17033800  1
  O  O8  1  0.59323400  0.91782200  0.67541100  1
  O  O9  1  0.60825700  0.07713600  0.83669600  1
  O  O10  1  0.75758900  0.08217800  0.67541100  1
  O  O11  1  0.69781000  0.70997800  0.40778800  1
  O  O12  1  0.80738900  0.21166200  0.01905100  1
  O  O13  1  0.66151600  0.21322300  0.44829200  1
  O  O14  1  0.72154100  0.22764300  0.64647400  1
  O  O15  1  0.41883100  0.92493300  0.64647400  1
  O  O16  1  0.23506900  0.78677700  0.44829200  1
  O  O17  1  0.78688500  0.27286400  0.36141200  1
  O  O18  1  0.57888300  0.91717800  0.49606100  1
  O  O19  1  0.69781000  0.29002200  0.98783200  1
  O  O20  1  0.74649200  0.57615400  0.47402900  1
  O  O21  1  0.91430600  0.58244800  0.33185800  1
  O  O22  1  0.08854800  0.57452800  0.36141200  1
  O  O23  1  0.08854800  0.72713600  0.51402100  1
  O  O24  1  0.78688500  0.42547200  0.51402100  1
  O  O25  1  0.84781300  0.28766500  0.56014800  1
  O  O26  1  0.92815900  0.58299000  0.51114900  1
  O  O27  1  0.74940900  0.41755200  0.33185800  1
  O  O28  1  0.75955900  0.22843900  0.83669600  1
  O  O29  1  0.57888300  0.08282200  0.66170500  1
  O  O30  1  0.92815900  0.41701000  0.34516900  1
  O  O31  1  0.27248300  0.71233500  0.56014800  1
loop_
_geom_bond_atom_site_label_1
_geom_bond_atom_site_label_2
_geom_bond_distance
_geom_bond_site_symmetry_2
O0 Si3 1.636010 1_555
O0 Si12 1.646115 1_555
O1 Si4 1.635856 1_555
O1 Si6 1.645843 1_555
O2 Si3 1.636523 1_555
O2 Si13 1.645670 1_555
O3 Si12 1.671184 1_555
O3 Si10 1.672746 1_555
O4 Si2 1.636523 1_545
O4 Si14 1.645676 1_555
O5 Si2 1.635997 1_555
O5 Si12 1.646114 1_555
O6 Si7 1.635856 1_555
O6 Si10 1.645843 1_555
O7 Si11 1.635856 1_555
O7 Si6 1.645858 1_555
O8 Si3 1.651585 1_555
O8 Si1 1.651600 1_565
O9 Si1 1.636008 1_555
O9 Si9 1.646115 1_555
O10 Si5 1.651589 1_555
O10 Si2 1.651589 1_545
O11 Si10 1.673645 1_555
O11 Si12 1.675299 1_555
O12 Si9 1.671177 1_554
O12 Si6 1.672739 1_555
O13 Si14 1.671694 1_555
O13 Si0 1.674355 1_555
O14 Si5 1.636523 1_555
O14 Si14 1.645661 1_555
O15 Si1 1.636523 1_565
O15 Si13 1.645670 1_555
O16 Si13 1.671708 1_555
O16 Si8 1.674355 1_555
O17 Si11 1.636679 1_555
O17 Si0 1.645965 1_555
O18 Si2 1.650817 1_555
O18 Si3 1.650817 1_555
O19 Si6 1.673635 1_556
O19 Si9 1.675309 1_555
O20 Si15 1.635856 1_555
O20 Si10 1.645843 1_555
O21 Si7 1.649857 1_555
O21 Si4 1.649857 1_555
O22 Si4 1.636681 1_455
O22 Si8 1.645965 1_555
O23 Si7 1.636679 1_455
O23 Si8 1.645973 1_555
O24 Si15 1.636692 1_555
O24 Si0 1.645965 1_555
O25 Si0 1.673027 1_555
O25 Si14 1.676036 1_555
O26 Si15 1.650207 1_555
O26 Si7 1.650207 1_555
O27 Si15 1.649854 1_555
O27 Si11 1.649869 1_555
O28 Si5 1.636010 1_555
O28 Si9 1.646106 1_555
O29 Si5 1.650817 1_555
O29 Si1 1.650817 1_555
O30 Si11 1.650207 1_555
O30 Si4 1.650207 1_555
O31 Si8 1.673034 1_555
O31 Si13 1.676025 1_555
