# generated using pymatgen
data_Na3B5Se9
_symmetry_space_group_name_H-M   'P 1'
_cell_length_a   15.39229661
_cell_length_b   15.39229661
_cell_length_c   17.75488920
_cell_angle_alpha   64.44357597
_cell_angle_beta   64.44357597
_cell_angle_gamma   90.05628507
_symmetry_Int_Tables_number   1
_chemical_formula_structural   Na3B5Se9
_chemical_formula_sum   'Na24 B40 Se72'
_cell_volume   3331.99742146
_cell_formula_units_Z   8
loop_
 _symmetry_equiv_pos_site_id
 _symmetry_equiv_pos_as_xyz
  1  'x, y, z'
loop_
 _atom_site_type_symbol
 _atom_site_label
 _atom_site_symmetry_multiplicity
 _atom_site_fract_x
 _atom_site_fract_y
 _atom_site_fract_z
 _atom_site_occupancy
  Na  Na0  1  0.66572000  0.33428000  0.25000000  1
  Na  Na1  1  0.41453600  0.16417500  0.75211700  1
  Na  Na2  1  0.16417500  0.41453600  0.25211700  1
  Na  Na3  1  0.91490700  0.08509300  0.75000000  1
  Na  Na4  1  0.00000000  0.50000000  0.50000000  1
  Na  Na5  1  0.00000000  0.00000000  0.50000000  1
  Na  Na6  1  0.82675200  0.25023300  0.50073800  1
  Na  Na7  1  0.00000000  0.50000000  0.00000000  1
  Na  Na8  1  0.00000000  0.00000000  0.00000000  1
  Na  Na9  1  0.67258200  0.75085400  0.49917300  1
  Na  Na10  1  0.08509300  0.91490700  0.25000000  1
  Na  Na11  1  0.74976700  0.17324800  0.99926200  1
  Na  Na12  1  0.75085400  0.67258200  0.99917300  1
  Na  Na13  1  0.83582500  0.58546400  0.74788300  1
  Na  Na14  1  0.50000000  0.50000000  0.50000000  1
  Na  Na15  1  0.50000000  0.00000000  0.50000000  1
  Na  Na16  1  0.58546400  0.83582500  0.24788300  1
  Na  Na17  1  0.33428000  0.66572000  0.75000000  1
  Na  Na18  1  0.32741800  0.24914600  0.50082700  1
  Na  Na19  1  0.50000000  0.50000000  0.00000000  1
  Na  Na20  1  0.50000000  0.00000000  0.00000000  1
  Na  Na21  1  0.17324800  0.74976700  0.49926200  1
  Na  Na22  1  0.24914600  0.32741800  0.00082700  1
  Na  Na23  1  0.25023300  0.82675200  0.00073800  1
  B  B0  1  0.89770200  0.47328700  0.24931800  1
  B  B1  1  0.79131600  0.54023300  0.41914900  1
  B  B2  1  0.66641200  0.37453000  0.41591700  1
  B  B3  1  0.64610300  0.02714400  0.75091800  1
  B  B4  1  0.70930200  0.95990600  0.58119600  1
  B  B5  1  0.39713800  0.27629600  0.24964500  1
  B  B6  1  0.58175600  0.12599500  0.58378500  1
  B  B7  1  0.16586900  0.20886900  0.41585900  1
  B  B8  1  0.62547000  0.33358800  0.08408300  1
  B  B9  1  0.52671300  0.10229800  0.25068200  1
  B  B10  1  0.20886900  0.16586900  0.91585900  1
  B  B11  1  0.27629600  0.39713800  0.74964500  1
  B  B12  1  0.12599500  0.58175600  0.08378500  1
  B  B13  1  0.02714400  0.64610300  0.25091800  1
  B  B14  1  0.70891500  0.91872100  0.91693200  1
  B  B15  1  0.77651500  0.85417900  0.75001900  1
  B  B16  1  0.91872100  0.70891500  0.41693200  1
  B  B17  1  0.45976700  0.20868400  0.08085100  1
  B  B18  1  0.14582100  0.22348500  0.74998100  1
  B  B19  1  0.04009400  0.29069800  0.91880400  1
  B  B20  1  0.95990600  0.70930200  0.08119600  1
  B  B21  1  0.85417900  0.77651500  0.25001900  1
  B  B22  1  0.54023300  0.79131600  0.91914900  1
  B  B23  1  0.08127900  0.29108500  0.58306800  1
  B  B24  1  0.22348500  0.14582100  0.24998100  1
  B  B25  1  0.29108500  0.08127900  0.08306800  1
  B  B26  1  0.97285600  0.35389700  0.74908200  1
  B  B27  1  0.87400500  0.41824400  0.91621500  1
  B  B28  1  0.72370400  0.60286200  0.25035500  1
  B  B29  1  0.79113100  0.83413100  0.08414100  1
  B  B30  1  0.47328700  0.89770200  0.74931800  1
  B  B31  1  0.37453000  0.66641200  0.91591700  1
  B  B32  1  0.83413100  0.79113100  0.58414100  1
  B  B33  1  0.41824400  0.87400500  0.41621500  1
  B  B34  1  0.60286200  0.72370400  0.75035500  1
  B  B35  1  0.29069800  0.04009400  0.41880400  1
  B  B36  1  0.35389700  0.97285600  0.24908200  1
  B  B37  1  0.33358800  0.62547000  0.58408300  1
  B  B38  1  0.20868400  0.45976700  0.58085100  1
  B  B39  1  0.10229800  0.52671300  0.75068200  1
  Se  Se0  1  0.92211000  0.51234100  0.33838000  1
  Se  Se1  1  0.79383000  0.34166100  0.33335000  1
  Se  Se2  1  0.68193400  0.41389800  0.50764500  1
  Se  Se3  1  0.61345000  0.47577100  0.33113100  1
  Se  Se4  1  0.75924600  0.98797900  0.66218700  1
  Se  Se5  1  0.42157800  0.14850400  0.33843900  1
  Se  Se6  1  0.62626400  0.15877700  0.66679200  1
  Se  Se7  1  0.68863000  0.08634100  0.49247900  1
  Se  Se8  1  0.29330500  0.32392500  0.33388100  1
  Se  Se9  1  0.18131600  0.07806900  0.50741600  1
  Se  Se10  1  0.54716400  0.25045800  0.49941200  1
  Se  Se11  1  0.74954200  0.45283600  0.00058800  1
  Se  Se12  1  0.65833900  0.20617000  0.16665000  1
  Se  Se13  1  0.44400100  0.02501800  0.66831400  1
  Se  Se14  1  0.32392500  0.29330500  0.83388100  1
  Se  Se15  1  0.11317900  0.19219400  0.33078900  1
  Se  Se16  1  0.15877700  0.62626400  0.16679200  1
  Se  Se17  1  0.05647000  0.69252900  0.33211300  1
  Se  Se18  1  0.82408400  0.87384800  0.83441200  1
  Se  Se19  1  0.74995800  0.95337900  0.00102600  1
  Se  Se20  1  0.95337900  0.74995800  0.50102600  1
  Se  Se21  1  0.52422900  0.38655000  0.16886900  1
  Se  Se22  1  0.58610200  0.31806600  0.99235500  1
  Se  Se23  1  0.48765900  0.07789000  0.16162000  1
  Se  Se24  1  0.19219400  0.11317900  0.83078900  1
  Se  Se25  1  0.25892700  0.35117000  0.66153400  1
  Se  Se26  1  0.02501800  0.44400100  0.16831400  1
  Se  Se27  1  0.08634100  0.68863000  0.99247900  1
  Se  Se28  1  0.07806900  0.18131600  0.00741600  1
  Se  Se29  1  0.14850400  0.42157800  0.83843900  1
  Se  Se30  1  0.98797900  0.75924600  0.16218700  1
  Se  Se31  1  0.69252900  0.05647000  0.83211300  1
  Se  Se32  1  0.81204100  0.57804100  0.50809800  1
  Se  Se33  1  0.87384800  0.82408400  0.33441200  1
  Se  Se34  1  0.57804100  0.81204100  0.00809800  1
  Se  Se35  1  0.64883000  0.74107300  0.83846600  1
  Se  Se36  1  0.35117000  0.25892700  0.16153400  1
  Se  Se37  1  0.42195900  0.18795900  0.99190200  1
  Se  Se38  1  0.12615200  0.17591600  0.66558800  1
  Se  Se39  1  0.18795900  0.42195900  0.49190200  1
  Se  Se40  1  0.30747100  0.94353000  0.16788700  1
  Se  Se41  1  0.01202100  0.24075400  0.83781300  1
  Se  Se42  1  0.85149600  0.57842200  0.16156100  1
  Se  Se43  1  0.92193100  0.81868400  0.99258400  1
  Se  Se44  1  0.91365900  0.31137000  0.00752100  1
  Se  Se45  1  0.97498200  0.55599900  0.83168600  1
  Se  Se46  1  0.74107300  0.64883000  0.33846600  1
  Se  Se47  1  0.80780600  0.88682100  0.16921100  1
  Se  Se48  1  0.51234100  0.92211000  0.83838000  1
  Se  Se49  1  0.41389800  0.68193400  0.00764500  1
  Se  Se50  1  0.47577100  0.61345000  0.83113100  1
  Se  Se51  1  0.04662100  0.25004200  0.49897400  1
  Se  Se52  1  0.25004200  0.04662100  0.99897400  1
  Se  Se53  1  0.17591600  0.12615200  0.16558800  1
  Se  Se54  1  0.94353000  0.30747100  0.66788700  1
  Se  Se55  1  0.84122300  0.37373600  0.83320800  1
  Se  Se56  1  0.88682100  0.80780600  0.66921100  1
  Se  Se57  1  0.67607500  0.70669500  0.16611900  1
  Se  Se58  1  0.55599900  0.97498200  0.33168600  1
  Se  Se59  1  0.34166100  0.79383000  0.83335000  1
  Se  Se60  1  0.25045800  0.54716400  0.99941200  1
  Se  Se61  1  0.45283600  0.74954200  0.50058800  1
  Se  Se62  1  0.81868400  0.92193100  0.49258400  1
  Se  Se63  1  0.70669500  0.67607500  0.66611900  1
  Se  Se64  1  0.31137000  0.91365900  0.50752100  1
  Se  Se65  1  0.37373600  0.84122300  0.33320800  1
  Se  Se66  1  0.57842200  0.85149600  0.66156100  1
  Se  Se67  1  0.24075400  0.01202100  0.33781300  1
  Se  Se68  1  0.38655000  0.52422900  0.66886900  1
  Se  Se69  1  0.31806600  0.58610200  0.49235500  1
  Se  Se70  1  0.20617000  0.65833900  0.66665000  1
  Se  Se71  1  0.07789000  0.48765900  0.66162000  1
loop_
_geom_bond_atom_site_label_1
_geom_bond_atom_site_label_2
_geom_bond_distance
_geom_bond_site_symmetry_2
Na0 Se1 2.958674 1_555
Na0 Se12 2.958674 1_555
Na0 Se3 3.029133 1_555
Na0 Se21 3.029133 1_555
Na1 Se14 2.958266 1_555
Na1 Se6 2.961799 1_555
Na1 Se13 3.029348 1_555
Na1 Se24 3.033801 1_555
Na2 Se8 2.958266 1_555
Na2 Se16 2.961799 1_555
Na2 Se26 3.029348 1_555
Na2 Se15 3.033801 1_555
Na3 Se18 2.958350 1_545
Na3 Se38 2.958350 1_655
Na3 Se31 3.028718 1_555
Na3 Se54 3.028718 1_555
Na4 Se17 2.925885 1_555
Na4 Se54 2.925885 1_455
Na4 Se39 3.103340 1_555
Na4 Se32 3.103340 1_455
Na4 Se71 3.493737 1_555
Na4 Se0 3.493737 1_455
Na5 Se15 2.935686 1_555
Na5 Se56 2.935686 1_445
Na5 Se9 3.114043 1_555
Na5 Se62 3.114043 1_445
Na5 Se4 3.520074 1_445
Na5 Se67 3.520074 1_555
Na6 Se6 2.959350 1_555
Na6 Se1 2.960067 1_555
Na6 Se51 3.370912 1_655
Na6 Se2 3.372216 1_555
Na6 Se7 3.388648 1_555
Na7 Se26 2.931359 1_555
Na7 Se45 2.931359 1_454
Na7 Se44 3.117505 1_455
Na7 Se27 3.117505 1_554
Na7 Se42 3.499424 1_455
Na7 Se29 3.499424 1_554
Na8 Se24 2.935686 1_554
Na8 Se47 2.935686 1_445
Na8 Se28 3.114043 1_555
Na8 Se43 3.114043 1_444
Na8 Se30 3.520074 1_445
Na8 Se41 3.520074 1_554
Na9 Se33 2.958776 1_555
Na9 Se63 2.964266 1_555
Na9 Se61 3.371609 1_555
Na9 Se62 3.391264 1_555
Na9 Se32 3.413143 1_555
Na9 Se46 3.604577 1_555
Na9 Se66 3.614646 1_555
Na10 Se33 2.958350 1_455
Na10 Se53 2.958350 1_565
Na10 Se17 3.028718 1_555
Na10 Se40 3.028718 1_555
Na11 Se55 2.959350 1_555
Na11 Se12 2.960067 1_556
Na11 Se19 3.370912 1_546
Na11 Se22 3.372216 1_555
Na11 Se44 3.388648 1_556
Na12 Se18 2.958776 1_555
Na12 Se57 2.964266 1_556
Na12 Se11 3.371609 1_556
Na12 Se43 3.391264 1_555
Na12 Se34 3.413143 1_556
Na12 Se35 3.604577 1_555
Na12 Se42 3.614646 1_556
Na13 Se63 2.958266 1_555
Na13 Se55 2.961799 1_555
Na13 Se45 3.029348 1_555
Na13 Se56 3.033801 1_555
Na14 Se68 2.937118 1_555
Na14 Se3 2.937118 1_555
Na14 Se2 3.130023 1_555
Na14 Se69 3.130023 1_555
Na14 Se46 3.517803 1_555
Na14 Se25 3.517803 1_555
Na15 Se13 2.931359 1_555
Na15 Se58 2.931359 1_545
Na15 Se64 3.117505 1_545
Na15 Se7 3.117505 1_555
Na15 Se5 3.499424 1_555
Na15 Se66 3.499424 1_545
Na16 Se57 2.958266 1_555
Na16 Se65 2.961799 1_555
Na16 Se58 3.029348 1_555
Na16 Se47 3.033801 1_555
Na17 Se70 2.958674 1_555
Na17 Se59 2.958674 1_555
Na17 Se50 3.029133 1_555
Na17 Se68 3.029133 1_555
Na18 Se38 2.958776 1_555
Na18 Se8 2.964266 1_555
Na18 Se10 3.371609 1_555
Na18 Se9 3.391264 1_555
Na18 Se39 3.413143 1_555
Na18 Se25 3.604577 1_555
Na18 Se5 3.614646 1_555
Na19 Se21 2.937118 1_555
Na19 Se50 2.937118 1_554
Na19 Se49 3.130023 1_555
Na19 Se22 3.130023 1_554
Na19 Se35 3.517803 1_554
Na19 Se36 3.517803 1_555
Na20 Se40 2.925885 1_545
Na20 Se31 2.925885 1_554
Na20 Se34 3.103340 1_545
Na20 Se37 3.103340 1_554
Na20 Se23 3.493737 1_555
Na20 Se48 3.493737 1_544
Na21 Se65 2.959350 1_555
Na21 Se70 2.960067 1_555
Na21 Se20 3.370912 1_455
Na21 Se69 3.372216 1_555
Na21 Se64 3.388648 1_555
Na22 Se53 2.958776 1_555
Na22 Se14 2.964266 1_554
Na22 Se60 3.371609 1_554
Na22 Se28 3.391264 1_555
Na22 Se37 3.413143 1_554
Na22 Se36 3.604577 1_555
Na22 Se29 3.614646 1_554
Na23 Se16 2.959350 1_555
Na23 Se59 2.960067 1_554
Na23 Se52 3.370912 1_564
Na23 Se49 3.372216 1_555
Na23 Se27 3.388648 1_554
B0 Se1 2.052919 1_555
B0 Se26 2.059461 1_655
B0 Se42 2.082119 1_555
B0 Se0 2.082124 1_555
B1 Se2 2.039549 1_555
B1 Se32 2.040058 1_555
B1 Se0 2.082260 1_555
B1 Se46 2.082468 1_555
B2 Se2 2.064849 1_555
B2 Se3 2.096757 1_555
B2 Se1 2.100655 1_555
B2 Se10 2.101570 1_555
B3 Se6 2.052580 1_555
B3 Se31 2.059685 1_555
B3 Se4 2.081476 1_545
B3 Se48 2.081602 1_545
B4 Se7 2.039253 1_565
B4 Se62 2.039980 1_555
B4 Se4 2.082006 1_555
B4 Se66 2.082739 1_555
B5 Se8 2.052945 1_555
B5 Se21 2.058293 1_555
B5 Se5 2.081746 1_555
B5 Se36 2.082060 1_555
B6 Se7 2.064344 1_555
B6 Se13 2.097470 1_555
B6 Se6 2.099536 1_555
B6 Se10 2.100439 1_555
B7 Se9 2.064733 1_555
B7 Se15 2.096651 1_555
B7 Se8 2.099599 1_555
B7 Se51 2.102512 1_555
B8 Se22 2.064849 1_554
B8 Se21 2.096757 1_555
B8 Se12 2.100655 1_555
B8 Se11 2.101570 1_555
B9 Se12 2.052919 1_555
B9 Se58 2.059461 1_545
B9 Se5 2.082119 1_555
B9 Se23 2.082124 1_555
B10 Se28 2.064733 1_556
B10 Se24 2.096651 1_555
B10 Se14 2.099599 1_555
B10 Se52 2.102512 1_555
B11 Se14 2.052945 1_555
B11 Se68 2.058293 1_555
B11 Se29 2.081746 1_555
B11 Se25 2.082060 1_555
B12 Se27 2.064344 1_554
B12 Se26 2.097470 1_555
B12 Se16 2.099536 1_555
B12 Se60 2.100439 1_554
B13 Se16 2.052580 1_555
B13 Se17 2.059685 1_555
B13 Se30 2.081476 1_455
B13 Se0 2.081602 1_455
B14 Se34 2.064294 1_556
B14 Se18 2.097811 1_555
B14 Se31 2.097829 1_565
B14 Se19 2.100803 1_556
B15 Se18 2.051948 1_555
B15 Se56 2.057888 1_555
B15 Se35 2.081151 1_555
B15 Se4 2.081279 1_555
B16 Se32 2.064294 1_555
B16 Se33 2.097811 1_555
B16 Se17 2.097829 1_655
B16 Se20 2.100803 1_555
B17 Se22 2.039549 1_554
B17 Se37 2.040058 1_554
B17 Se23 2.082260 1_555
B17 Se36 2.082468 1_555
B18 Se38 2.051948 1_555
B18 Se24 2.057888 1_555
B18 Se25 2.081151 1_555
B18 Se41 2.081279 1_555
B19 Se44 2.039253 1_456
B19 Se28 2.039980 1_556
B19 Se41 2.082006 1_555
B19 Se29 2.082739 1_555
B20 Se27 2.039253 1_654
B20 Se43 2.039980 1_554
B20 Se30 2.082006 1_555
B20 Se42 2.082739 1_555
B21 Se33 2.051948 1_555
B21 Se47 2.057888 1_555
B21 Se46 2.081151 1_555
B21 Se30 2.081279 1_555
B22 Se49 2.039549 1_556
B22 Se34 2.040058 1_556
B22 Se48 2.082260 1_555
B22 Se35 2.082468 1_555
B23 Se39 2.064294 1_555
B23 Se38 2.097811 1_555
B23 Se54 2.097829 1_455
B23 Se51 2.100803 1_555
B24 Se53 2.051948 1_555
B24 Se15 2.057888 1_555
B24 Se36 2.081151 1_555
B24 Se67 2.081279 1_555
B25 Se37 2.064294 1_554
B25 Se53 2.097811 1_555
B25 Se40 2.097829 1_545
B25 Se52 2.100803 1_554
B26 Se55 2.052580 1_555
B26 Se54 2.059685 1_555
B26 Se41 2.081476 1_655
B26 Se71 2.081602 1_655
B27 Se44 2.064344 1_556
B27 Se45 2.097470 1_555
B27 Se55 2.099536 1_555
B27 Se11 2.100439 1_556
B28 Se57 2.052945 1_555
B28 Se3 2.058293 1_555
B28 Se42 2.081746 1_555
B28 Se46 2.082060 1_555
B29 Se43 2.064733 1_554
B29 Se47 2.096651 1_555
B29 Se57 2.099599 1_555
B29 Se19 2.102512 1_555
B30 Se59 2.052919 1_555
B30 Se13 2.059461 1_565
B30 Se66 2.082119 1_555
B30 Se48 2.082124 1_555
B31 Se49 2.064849 1_556
B31 Se50 2.096757 1_555
B31 Se59 2.100655 1_555
B31 Se60 2.101570 1_555
B32 Se62 2.064733 1_555
B32 Se56 2.096651 1_555
B32 Se63 2.099599 1_555
B32 Se20 2.102512 1_555
B33 Se64 2.064344 1_555
B33 Se58 2.097470 1_555
B33 Se65 2.099536 1_555
B33 Se61 2.100439 1_555
B34 Se63 2.052945 1_555
B34 Se50 2.058293 1_555
B34 Se66 2.081746 1_555
B34 Se35 2.082060 1_555
B35 Se64 2.039253 1_545
B35 Se9 2.039980 1_555
B35 Se67 2.082006 1_555
B35 Se5 2.082739 1_555
B36 Se65 2.052580 1_555
B36 Se40 2.059685 1_555
B36 Se67 2.081476 1_565
B36 Se23 2.081602 1_565
B37 Se69 2.064849 1_555
B37 Se68 2.096757 1_555
B37 Se70 2.100655 1_555
B37 Se61 2.101570 1_555
B38 Se69 2.039549 1_555
B38 Se39 2.040058 1_555
B38 Se71 2.082260 1_555
B38 Se25 2.082468 1_555
B39 Se70 2.052919 1_555
B39 Se45 2.059461 1_455
B39 Se29 2.082119 1_555
B39 Se71 2.082124 1_555
