# generated using pymatgen
data_K3Nb2Ag3S8
_symmetry_space_group_name_H-M   'P 1'
_cell_length_a   12.86417497
_cell_length_b   12.86417497
_cell_length_c   14.42999975
_cell_angle_alpha   60.83750588
_cell_angle_beta   60.83750588
_cell_angle_gamma   26.86776200
_symmetry_Int_Tables_number   1
_chemical_formula_structural   K3Nb2Ag3S8
_chemical_formula_sum   'K6 Nb4 Ag6 S16'
_cell_volume   933.99786558
_cell_formula_units_Z   2
loop_
 _symmetry_equiv_pos_site_id
 _symmetry_equiv_pos_as_xyz
  1  'x, y, z'
loop_
 _atom_site_type_symbol
 _atom_site_label
 _atom_site_symmetry_multiplicity
 _atom_site_fract_x
 _atom_site_fract_y
 _atom_site_fract_z
 _atom_site_occupancy
  K  K0  1  0.63753900  0.75396600  0.39948000  1
  K  K1  1  0.36246100  0.24603400  0.60052000  1
  K  K2  1  0.75396600  0.63753900  0.89948000  1
  K  K3  1  0.00000000  0.00000000  0.50000000  1
  K  K4  1  0.24603400  0.36246100  0.10052000  1
  K  K5  1  0.00000000  0.00000000  0.00000000  1
  Nb  Nb0  1  0.15623400  0.58807800  0.77933200  1
  Nb  Nb1  1  0.84376600  0.41192200  0.22066800  1
  Nb  Nb2  1  0.58807800  0.15623400  0.27933200  1
  Nb  Nb3  1  0.41192200  0.84376600  0.72066800  1
  Ag  Ag0  1  0.28291200  0.71708800  0.75000000  1
  Ag  Ag1  1  0.71708800  0.28291200  0.25000000  1
  Ag  Ag2  1  0.65724300  0.08898900  0.78522300  1
  Ag  Ag3  1  0.91101100  0.34275700  0.71477700  1
  Ag  Ag4  1  0.34275700  0.91101100  0.21477700  1
  Ag  Ag5  1  0.08898900  0.65724300  0.28522300  1
  S  S0  1  0.54461000  0.54736900  0.34683100  1
  S  S1  1  0.09884500  0.21745300  0.31632400  1
  S  S2  1  0.28932400  0.28824300  0.39199300  1
  S  S3  1  0.97639300  0.82615700  0.88399800  1
  S  S4  1  0.02360700  0.17384300  0.11600200  1
  S  S5  1  0.45263100  0.45539000  0.15316900  1
  S  S6  1  0.82615700  0.97639300  0.38399800  1
  S  S7  1  0.45539000  0.45263100  0.65316900  1
  S  S8  1  0.17384300  0.02360700  0.61600200  1
  S  S9  1  0.28824300  0.28932400  0.89199300  1
  S  S10  1  0.71175700  0.71067600  0.10800700  1
  S  S11  1  0.71067600  0.71175700  0.60800700  1
  S  S12  1  0.78254700  0.90115500  0.18367600  1
  S  S13  1  0.90115500  0.78254700  0.68367600  1
  S  S14  1  0.54736900  0.54461000  0.84683100  1
  S  S15  1  0.21745300  0.09884500  0.81632400  1
loop_
_geom_bond_atom_site_label_1
_geom_bond_atom_site_label_2
_geom_bond_distance
_geom_bond_site_symmetry_2
K0 S11 3.238779 1_555
K0 S12 3.414110 1_555
K0 S2 3.483621 1_565
K0 S1 3.514232 1_655
K0 S1 3.525301 1_565
K0 S8 3.586018 1_565
K1 S2 3.238779 1_555
K1 S15 3.414110 1_555
K1 S11 3.483621 1_545
K1 S13 3.514232 1_455
K1 S13 3.525301 1_545
K1 S6 3.586018 1_545
K2 S10 3.238779 1_556
K2 S13 3.414110 1_555
K2 S9 3.483621 1_655
K2 S15 3.514232 1_565
K2 S15 3.525301 1_655
K2 S4 3.586018 1_656
K3 S1 3.507523 1_555
K3 S13 3.507523 1_445
K3 S7 3.541700 1_455
K3 S0 3.541700 1_545
K3 S0 3.555589 1_455
K3 S7 3.555589 1_545
K3 S8 3.640163 1_555
K3 S6 3.640163 1_445
K4 S9 3.238779 1_554
K4 S1 3.414110 1_555
K4 S10 3.483621 1_455
K4 S12 3.514232 1_545
K4 S12 3.525301 1_455
K4 S3 3.586018 1_454
K5 S15 3.507523 1_554
K5 S12 3.507523 1_445
K5 S14 3.541700 1_454
K5 S5 3.541700 1_545
K5 S14 3.555589 1_544
K5 S5 3.555589 1_455
K5 S4 3.640163 1_555
K5 S3 3.640163 1_444
Nb0 S9 2.292292 1_555
Nb0 S13 2.309622 1_455
Nb0 S7 2.336804 1_555
Nb0 S3 2.339843 1_455
Nb1 S10 2.292292 1_555
Nb1 S1 2.309622 1_655
Nb1 S0 2.336804 1_555
Nb1 S4 2.339843 1_655
Nb2 S2 2.292292 1_555
Nb2 S12 2.309622 1_545
Nb2 S5 2.336804 1_555
Nb2 S6 2.339843 1_545
Nb3 S11 2.292292 1_555
Nb3 S15 2.309622 1_565
Nb3 S14 2.336804 1_555
Nb3 S8 2.339843 1_565
Ag0 S7 2.567749 1_555
Ag0 S14 2.567749 1_555
Ag0 S8 2.568748 1_565
Ag0 S3 2.568748 1_455
Ag1 S5 2.567749 1_555
Ag1 S0 2.567749 1_555
Ag1 S4 2.568748 1_655
Ag1 S6 2.568748 1_545
Ag2 S9 2.542582 1_555
Ag2 S3 2.561203 1_545
Ag2 S13 2.571662 1_545
Ag2 S7 2.592334 1_555
Ag3 S11 2.542582 1_555
Ag3 S8 2.561203 1_655
Ag3 S15 2.571662 1_655
Ag3 S14 2.592334 1_555
Ag4 S10 2.542582 1_555
Ag4 S4 2.561203 1_565
Ag4 S1 2.571662 1_565
Ag4 S0 2.592334 1_555
Ag5 S2 2.542582 1_555
Ag5 S6 2.561203 1_455
Ag5 S12 2.571662 1_455
Ag5 S5 2.592334 1_555
