# generated using pymatgen
data_Hg3(SBr)2
_symmetry_space_group_name_H-M   'P 1'
_cell_length_a   9.42041971
_cell_length_b   9.56240160
_cell_length_c   10.05814271
_cell_angle_alpha   90.38040070
_cell_angle_beta   117.92388768
_cell_angle_gamma   90.00000261
_symmetry_Int_Tables_number   1
_chemical_formula_structural   Hg3(SBr)2
_chemical_formula_sum   'Hg12 S8 Br8'
_cell_volume   800.54169117
_cell_formula_units_Z   4
loop_
 _symmetry_equiv_pos_site_id
 _symmetry_equiv_pos_as_xyz
  1  'x, y, z'
loop_
 _atom_site_type_symbol
 _atom_site_label
 _atom_site_symmetry_multiplicity
 _atom_site_fract_x
 _atom_site_fract_y
 _atom_site_fract_z
 _atom_site_occupancy
  Hg  Hg0  1  0.34953764  0.20366882  0.24648663  1
  Hg  Hg1  1  0.89694899  0.20366882  0.24648663  1
  Hg  Hg2  1  0.23729119  0.50000000  0.00000000  1
  Hg  Hg3  1  0.65046236  0.79633118  0.75351337  1
  Hg  Hg4  1  0.76585523  0.21741322  0.53170846  1
  Hg  Hg5  1  0.47797238  0.23061317  0.95594475  1
  Hg  Hg6  1  0.76270881  0.50000000  1.00000000  1
  Hg  Hg7  1  0.23414477  0.78258678  0.46829154  1
  Hg  Hg8  1  0.52202762  0.76938683  0.04405525  1
  Hg  Hg9  1  0.10305101  0.79633118  0.75351337  1
  Hg  Hg10  1  0.50000000  0.50000000  0.50000000  1
  Hg  Hg11  1  -0.00000000  0.50000000  0.50000000  1
  S  S0  1  0.23473957  0.24965586  0.97850753  1
  S  S1  1  0.01057381  0.24831095  0.51562867  1
  S  S2  1  0.50505487  0.24831095  0.51562867  1
  S  S3  1  0.49494513  0.75168905  0.48437133  1
  S  S4  1  0.76526043  0.75034414  0.02149247  1
  S  S5  1  0.25623203  0.75034414  0.02149247  1
  S  S6  1  0.98942619  0.75168905  0.48437133  1
  S  S7  1  0.74376797  0.24965586  0.97850753  1
  Br  Br0  1  0.11985591  0.00492060  0.23971282  1
  Br  Br1  1  0.12556263  0.47947373  0.25112425  1
  Br  Br2  1  0.88014409  0.99507940  0.76028718  1
  Br  Br3  1  0.37687947  0.98336750  0.75375793  1
  Br  Br4  1  0.62610885  0.49549590  0.25221670  1
  Br  Br5  1  0.37389115  0.50450410  0.74778330  1
  Br  Br6  1  0.87443737  0.52052627  0.74887575  1
  Br  Br7  1  0.62312053  0.01663250  0.24624207  1
loop_
_geom_bond_atom_site_label_1
_geom_bond_atom_site_label_2
_geom_bond_distance
_geom_bond_site_symmetry_2
Hg0 S0 2.431787 1_554
Hg0 S2 2.434531 1_555
Hg1 S7 2.431787 1_554
Hg1 S1 2.434531 1_655
Hg2 S5 2.401309 1_555
Hg2 S0 2.401309 1_554
Hg3 S4 2.431787 1_556
Hg3 S3 2.434531 1_555
Hg4 S1 2.403735 1_655
Hg4 S2 2.403754 1_555
Hg5 S7 2.412768 1_555
Hg5 S0 2.412768 1_555
Hg6 S7 2.401309 1_555
Hg6 S4 2.401309 1_556
Hg7 S6 2.403735 1_455
Hg7 S3 2.403754 1_555
Hg8 S5 2.412768 1_555
Hg8 S4 2.412768 1_555
Hg9 S5 2.431787 1_556
Hg9 S6 2.434531 1_455
Hg10 S2 2.411938 1_555
Hg10 S3 2.411938 1_555
Hg11 S1 2.411938 1_555
Hg11 S6 2.411938 1_455
Br0 Hg1 2.856281 1_455
Br0 Hg0 2.856288 1_555
Br0 Hg7 2.951533 1_545
Br1 Hg2 3.165877 1_555
Br1 Hg6 3.165884 1_454
Br1 Hg10 3.235809 1_555
Br1 Hg11 3.235816 1_555
Br2 Hg9 2.856281 1_655
Br2 Hg3 2.856288 1_555
Br2 Hg4 2.951533 1_565
Br3 Hg5 2.958811 1_565
Br3 Hg3 3.137989 1_555
Br3 Hg9 3.137997 1_555
Br3 Hg7 3.170042 1_555
Br4 Hg8 3.217851 1_555
Br4 Hg11 3.224288 1_655
Br4 Hg10 3.224296 1_555
Br5 Hg5 3.217851 1_555
Br5 Hg11 3.224288 1_555
Br5 Hg10 3.224296 1_555
Br6 Hg6 3.165877 1_555
Br6 Hg2 3.165884 1_656
Br6 Hg10 3.235809 1_555
Br6 Hg11 3.235816 1_655
Br7 Hg8 2.958811 1_545
Br7 Hg0 3.137989 1_555
Br7 Hg1 3.137997 1_555
Br7 Hg4 3.170042 1_555
