# generated using pymatgen
data_Dy3Si2Cl5O6
_symmetry_space_group_name_H-M   'P 1'
_cell_length_a   7.45469076
_cell_length_b   7.45469076
_cell_length_c   11.70447645
_cell_angle_alpha   80.56145076
_cell_angle_beta   80.56145076
_cell_angle_gamma   88.58584727
_symmetry_Int_Tables_number   1
_chemical_formula_structural   Dy3Si2Cl5O6
_chemical_formula_sum   'Dy6 Si4 Cl10 O12'
_cell_volume   632.95217885
_cell_formula_units_Z   2
loop_
 _symmetry_equiv_pos_site_id
 _symmetry_equiv_pos_as_xyz
  1  'x, y, z'
loop_
 _atom_site_type_symbol
 _atom_site_label
 _atom_site_symmetry_multiplicity
 _atom_site_fract_x
 _atom_site_fract_y
 _atom_site_fract_z
 _atom_site_occupancy
  Dy  Dy0  1  0.58400000  0.08147600  0.66959600  1
  Dy  Dy1  1  0.91852400  0.41600000  0.33040400  1
  Dy  Dy2  1  0.41600000  0.91852400  0.33040400  1
  Dy  Dy3  1  0.08147600  0.58400000  0.66959600  1
  Dy  Dy4  1  0.50000000  0.00000000  0.00000000  1
  Dy  Dy5  1  0.00000000  0.50000000  0.00000000  1
  Si  Si0  1  0.81721500  0.11018900  0.14468800  1
  Si  Si1  1  0.88981100  0.18278500  0.85531200  1
  Si  Si2  1  0.18278500  0.88981100  0.85531200  1
  Si  Si3  1  0.11018900  0.81721500  0.14468800  1
  Cl  Cl0  1  0.31614200  0.31614200  0.99695000  1
  Cl  Cl1  1  0.77913500  0.77913500  0.66325500  1
  Cl  Cl2  1  0.68385800  0.68385800  0.00305000  1
  Cl  Cl3  1  0.62186000  0.62186000  0.35696100  1
  Cl  Cl4  1  0.37814000  0.37814000  0.64303900  1
  Cl  Cl5  1  0.88460600  0.32638700  0.57905400  1
  Cl  Cl6  1  0.11539400  0.67361300  0.42094600  1
  Cl  Cl7  1  0.32638700  0.88460600  0.57905400  1
  Cl  Cl8  1  0.67361300  0.11539400  0.42094600  1
  Cl  Cl9  1  0.22086500  0.22086500  0.33674500  1
  O  O0  1  0.30830900  0.86761900  0.17205300  1
  O  O1  1  0.39418400  0.95505600  0.82794600  1
  O  O2  1  0.95505600  0.39418400  0.82794600  1
  O  O3  1  0.60581600  0.04494400  0.17205400  1
  O  O4  1  0.04826000  0.04826000  0.80483400  1
  O  O5  1  0.04494400  0.60581600  0.17205400  1
  O  O6  1  0.86761900  0.30830900  0.17205300  1
  O  O7  1  0.13238100  0.69169100  0.82794700  1
  O  O8  1  0.85771800  0.14228200  0.00000000  1
  O  O9  1  0.14228200  0.85771800  0.00000000  1
  O  O10  1  0.69169100  0.13238100  0.82794700  1
  O  O11  1  0.95174000  0.95174000  0.19516600  1
loop_
_geom_bond_atom_site_label_1
_geom_bond_atom_site_label_2
_geom_bond_distance
_geom_bond_site_symmetry_2
Dy0 O10 2.226516 1_555
Dy0 O1 2.226731 1_545
Dy1 O6 2.226516 1_555
Dy1 O5 2.226731 1_655
Dy2 O0 2.226516 1_555
Dy2 O3 2.226731 1_565
Dy3 O7 2.226516 1_555
Dy3 O2 2.226731 1_455
Dy4 O3 2.354834 1_555
Dy4 O1 2.354834 1_544
Dy4 O0 2.354836 1_545
Dy4 O10 2.354836 1_554
Dy4 O9 2.894096 1_545
Dy4 O8 2.894096 1_555
Dy5 O5 2.354834 1_555
Dy5 O2 2.354834 1_454
Dy5 O6 2.354836 1_455
Dy5 O7 2.354836 1_554
Dy5 O9 2.894096 1_555
Dy5 O8 2.894096 1_455
Cl0 Dy5 2.695010 1_556
Cl0 Dy4 2.695010 1_556
Cl1 Dy3 2.656893 1_655
Cl1 Dy0 2.656893 1_565
Cl2 Dy4 2.695010 1_565
Cl2 Dy5 2.695010 1_655
Cl3 Dy1 2.665720 1_555
Cl3 Dy2 2.665720 1_555
Cl4 Dy0 2.665720 1_555
Cl4 Dy3 2.665720 1_555
Cl5 Dy1 2.847716 1_555
Cl5 Dy0 2.875168 1_555
Cl5 Dy3 2.877789 1_655
Cl6 Dy3 2.847716 1_555
Cl6 Dy2 2.875168 1_555
Cl6 Dy1 2.877789 1_455
Cl7 Dy2 2.847716 1_555
Cl7 Dy3 2.875168 1_555
Cl7 Dy0 2.877789 1_565
Cl8 Dy0 2.847716 1_555
Cl8 Dy1 2.875168 1_555
Cl8 Dy2 2.877789 1_545
Cl9 Dy1 2.656893 1_455
Cl9 Dy2 2.656893 1_545
O0 Si3 1.626988 1_555
O1 Si2 1.625992 1_555
O2 Si1 1.625992 1_555
O3 Si0 1.625992 1_555
O4 Si2 1.630012 1_545
O4 Si1 1.630012 1_455
O5 Si3 1.625992 1_555
O6 Si0 1.626988 1_555
O7 Si2 1.626988 1_555
O8 Si0 1.649034 1_555
O8 Si1 1.649034 1_554
O9 Si3 1.649034 1_555
O9 Si2 1.649034 1_554
O10 Si1 1.626988 1_555
O11 Si3 1.630012 1_655
O11 Si0 1.630012 1_565
