# generated using pymatgen
data_RbLiMoO4
_symmetry_space_group_name_H-M   'P 1'
_cell_length_a   5.75533744
_cell_length_b   5.75533744
_cell_length_c   10.23333638
_cell_angle_alpha   72.17069718
_cell_angle_beta   72.17069718
_cell_angle_gamma   60.51742040
_symmetry_Int_Tables_number   1
_chemical_formula_structural   RbLiMoO4
_chemical_formula_sum   'Rb2 Li2 Mo2 O8'
_cell_volume   275.91293491
_cell_formula_units_Z   2
loop_
 _symmetry_equiv_pos_site_id
 _symmetry_equiv_pos_as_xyz
  1  'x, y, z'
loop_
 _atom_site_type_symbol
 _atom_site_label
 _atom_site_symmetry_multiplicity
 _atom_site_fract_x
 _atom_site_fract_y
 _atom_site_fract_z
 _atom_site_occupancy
  Rb  Rb0  1  0.47627700  0.02895800  0.49771100  1
  Rb  Rb1  1  0.02895800  0.47627700  0.99771100  1
  Li  Li0  1  0.61675300  0.13232100  0.12759700  1
  Li  Li1  1  0.13232100  0.61675300  0.62759700  1
  Mo  Mo0  1  0.74768500  0.25132700  0.75188800  1
  Mo  Mo1  1  0.25132700  0.74768500  0.25188800  1
  O  O0  1  0.91615100  0.99728600  0.22293300  1
  O  O1  1  0.70277200  0.27484600  0.92983700  1
  O  O2  1  0.31761900  0.42940300  0.21845700  1
  O  O3  1  0.42940300  0.31761900  0.71845700  1
  O  O4  1  0.27484600  0.70277200  0.42983700  1
  O  O5  1  0.86275500  0.49564600  0.63657800  1
  O  O6  1  0.49564600  0.86275500  0.13657800  1
  O  O7  1  0.99728600  0.91615100  0.72293300  1
loop_
_geom_bond_atom_site_label_1
_geom_bond_atom_site_label_2
_geom_bond_distance
_geom_bond_site_symmetry_2
Li0 O0 1.942157 1_545
Li0 O1 1.945032 1_554
Li0 O6 1.959368 1_545
Li0 O2 1.961566 1_555
Li1 O7 1.942157 1_455
Li1 O4 1.945032 1_555
Li1 O5 1.959368 1_455
Li1 O3 1.961566 1_555
Mo0 O1 1.797075 1_555
Mo0 O5 1.797291 1_555
Mo0 O3 1.798350 1_555
Mo0 O7 1.798428 1_545
Mo1 O4 1.797075 1_555
Mo1 O6 1.797291 1_555
Mo1 O2 1.798350 1_555
Mo1 O0 1.798428 1_455
O0 Rb0 3.138395 1_565
O0 Rb1 3.207465 1_664
O1 Rb1 2.963872 1_655
O1 Rb1 3.359143 1_555
O2 Rb1 3.069133 1_554
O2 Rb0 3.131329 1_555
O3 Rb0 3.069133 1_555
O3 Rb1 3.131329 1_555
O4 Rb0 2.963872 1_565
O4 Rb0 3.359143 1_555
O5 Rb0 2.988738 1_565
O5 Rb0 3.410438 1_655
O6 Rb1 2.988738 1_654
O6 Rb1 3.410438 1_564
O7 Rb1 3.138395 1_655
O7 Rb0 3.207465 1_665
