# generated using pymatgen
data_Yb2S3
_symmetry_space_group_name_H-M   'P 1'
_cell_length_a   7.26120612
_cell_length_b   7.26120612
_cell_length_c   15.48334500
_cell_angle_alpha   90.00000000
_cell_angle_beta   90.00000000
_cell_angle_gamma   120.00000112
_symmetry_Int_Tables_number   1
_chemical_formula_structural   Yb2S3
_chemical_formula_sum   'Yb12 S18'
_cell_volume   706.98947427
_cell_formula_units_Z   6
loop_
 _symmetry_equiv_pos_site_id
 _symmetry_equiv_pos_as_xyz
  1  'x, y, z'
loop_
 _atom_site_type_symbol
 _atom_site_label
 _atom_site_symmetry_multiplicity
 _atom_site_fract_x
 _atom_site_fract_y
 _atom_site_fract_z
 _atom_site_occupancy
  Yb  Yb0  1  0.00000000  0.00000000  0.30626400  1
  Yb  Yb1  1  0.33333300  0.66666700  0.20517300  1
  Yb  Yb2  1  0.66666700  0.33333300  0.97869700  1
  Yb  Yb3  1  0.66666700  0.33333300  0.20517300  1
  Yb  Yb4  1  0.33333300  0.66666700  0.70517300  1
  Yb  Yb5  1  0.66666700  0.33333300  0.70517300  1
  Yb  Yb6  1  0.33333300  0.66666700  0.97869700  1
  Yb  Yb7  1  0.00000000  0.00000000  0.04854500  1
  Yb  Yb8  1  0.66666700  0.33333300  0.47869700  1
  Yb  Yb9  1  0.00000000  0.00000000  0.80626400  1
  Yb  Yb10  1  0.33333300  0.66666700  0.47869700  1
  Yb  Yb11  1  0.00000000  0.00000000  0.54854500  1
  S  S0  1  0.00000000  0.71885500  0.92220000  1
  S  S1  1  0.71885500  0.71885500  0.42220000  1
  S  S2  1  0.00000000  0.50642200  0.83168900  1
  S  S3  1  0.28114500  0.00000000  0.42220000  1
  S  S4  1  0.35478900  0.35478900  0.60769400  1
  S  S5  1  0.00000000  0.64521100  0.60769400  1
  S  S6  1  0.00000000  0.49357800  0.33168900  1
  S  S7  1  0.00000000  0.35478900  0.10769400  1
  S  S8  1  0.71885500  0.00000000  0.92220000  1
  S  S9  1  0.49357800  0.00000000  0.33168900  1
  S  S10  1  0.64521100  0.64521100  0.10769400  1
  S  S11  1  0.49357800  0.49357800  0.83168900  1
  S  S12  1  0.28114500  0.28114500  0.92220000  1
  S  S13  1  0.00000000  0.28114500  0.42220000  1
  S  S14  1  0.64521100  0.00000000  0.60769400  1
  S  S15  1  0.50642200  0.00000000  0.83168900  1
  S  S16  1  0.35478900  0.00000000  0.10769400  1
  S  S17  1  0.50642200  0.50642200  0.33168900  1
loop_
_geom_bond_atom_site_label_1
_geom_bond_atom_site_label_2
_geom_bond_distance
_geom_bond_site_symmetry_2
S0 S2 2.084065 1_555
S0 Yb9 2.718424 1_565
S0 Yb6 2.772066 1_555
S0 Yb2 2.772070 1_455
S0 Yb7 2.827439 1_566
S1 S17 2.084065 1_555
S1 Yb0 2.718424 1_665
S1 Yb10 2.772073 1_555
S1 Yb8 2.772073 1_555
S1 Yb11 2.827439 1_665
S2 Yb4 2.869352 1_555
S2 Yb5 2.869352 1_455
S2 Yb6 3.094657 1_555
S2 Yb2 3.094657 1_455
S3 S9 2.084065 1_555
S3 Yb0 2.718424 1_555
S3 Yb10 2.772066 1_545
S3 Yb8 2.772070 1_555
S3 Yb11 2.827439 1_555
S4 Yb11 2.734140 1_555
S4 Yb5 2.789900 1_555
S4 Yb4 2.789900 1_555
S4 Yb10 3.081360 1_555
S4 Yb8 3.081360 1_555
S5 Yb11 2.734140 1_565
S5 Yb4 2.789894 1_555
S5 Yb5 2.789896 1_455
S5 Yb10 3.081354 1_555
S5 Yb8 3.081357 1_455
S6 Yb3 2.869352 1_455
S6 Yb1 2.869352 1_555
S6 Yb8 3.094657 1_455
S6 Yb10 3.094657 1_555
S7 Yb7 2.734140 1_555
S7 Yb3 2.789894 1_455
S7 Yb1 2.789896 1_555
S7 Yb2 3.081354 1_454
S7 Yb6 3.081357 1_554
S8 Yb9 2.718424 1_655
S8 Yb2 2.772066 1_555
S8 Yb6 2.772070 1_545
S8 Yb7 2.827439 1_656
S9 Yb1 2.869352 1_545
S9 Yb3 2.869352 1_555
S9 Yb10 3.094657 1_545
S9 Yb8 3.094657 1_555
S10 Yb7 2.734140 1_665
S10 Yb3 2.789900 1_555
S10 Yb1 2.789900 1_555
S10 Yb6 3.081360 1_554
S10 Yb2 3.081360 1_554
S11 S12 2.084065 1_555
S11 Yb5 2.869356 1_555
S11 Yb4 2.869356 1_555
S11 Yb2 3.094661 1_555
S11 Yb6 3.094661 1_555
S12 Yb9 2.718424 1_555
S12 Yb6 2.772073 1_555
S12 Yb2 2.772073 1_555
S12 Yb7 2.827439 1_556
S13 S6 2.084065 1_555
S13 Yb0 2.718424 1_555
S13 Yb8 2.772066 1_455
S13 Yb10 2.772070 1_555
S13 Yb11 2.827439 1_555
S14 Yb11 2.734140 1_655
S14 Yb5 2.789894 1_555
S14 Yb4 2.789896 1_545
S14 Yb8 3.081354 1_555
S14 Yb10 3.081357 1_545
S15 S8 2.084065 1_555
S15 Yb5 2.869352 1_555
S15 Yb4 2.869352 1_545
S15 Yb2 3.094657 1_555
S15 Yb6 3.094657 1_545
S16 Yb7 2.734140 1_555
S16 Yb1 2.789894 1_545
S16 Yb3 2.789896 1_555
S16 Yb6 3.081354 1_544
S16 Yb2 3.081357 1_554
S17 Yb3 2.869356 1_555
S17 Yb1 2.869356 1_555
S17 Yb8 3.094661 1_555
S17 Yb10 3.094661 1_555
