# generated using pymatgen
data_SbXe2OF15
_symmetry_space_group_name_H-M   'P 1'
_cell_length_a   9.14641400
_cell_length_b   5.76686400
_cell_length_c   12.72046531
_cell_angle_alpha   76.51598824
_cell_angle_beta   90.00000000
_cell_angle_gamma   90.00000000
_symmetry_Int_Tables_number   1
_chemical_formula_structural   SbXe2OF15
_chemical_formula_sum   'Sb2 Xe4 O2 F30'
_cell_volume   652.46039616
_cell_formula_units_Z   2
loop_
 _symmetry_equiv_pos_site_id
 _symmetry_equiv_pos_as_xyz
  1  'x, y, z'
loop_
 _atom_site_type_symbol
 _atom_site_label
 _atom_site_symmetry_multiplicity
 _atom_site_fract_x
 _atom_site_fract_y
 _atom_site_fract_z
 _atom_site_occupancy
  Sb  Sb0  1  0.25000000  0.75255800  0.43442500  1
  Sb  Sb1  1  0.75000000  0.24744200  0.56557500  1
  Xe  Xe0  1  0.75000000  0.90963700  0.29187900  1
  Xe  Xe1  1  0.75000000  0.68269300  0.90551400  1
  Xe  Xe2  1  0.25000000  0.09036300  0.70812100  1
  Xe  Xe3  1  0.25000000  0.31730700  0.09448600  1
  O  O0  1  0.75000000  0.55648100  0.05126100  1
  O  O1  1  0.25000000  0.44351900  0.94873900  1
  F  F0  1  0.75000000  0.05183300  0.13653300  1
  F  F1  1  0.09242800  0.54593100  0.12031400  1
  F  F2  1  0.40771400  0.07681800  0.08332300  1
  F  F3  1  0.75000000  0.00709500  0.47770500  1
  F  F4  1  0.40757200  0.54593100  0.12031400  1
  F  F5  1  0.90757200  0.45406900  0.87968600  1
  F  F6  1  0.75000000  0.49720100  0.43133600  1
  F  F7  1  0.90171900  0.15630400  0.28708400  1
  F  F8  1  0.45788800  0.75951600  0.44167100  1
  F  F9  1  0.59921300  0.70739400  0.24782000  1
  F  F10  1  0.25000000  0.51696400  0.35258200  1
  F  F11  1  0.40078700  0.29260600  0.75218000  1
  F  F12  1  0.09828100  0.84369600  0.71291600  1
  F  F13  1  0.59828100  0.15630400  0.28708400  1
  F  F14  1  0.25000000  0.99290500  0.52229500  1
  F  F15  1  0.75000000  0.99194600  0.69281900  1
  F  F16  1  0.09228600  0.07681800  0.08332300  1
  F  F17  1  0.75000000  0.48303600  0.64741800  1
  F  F18  1  0.54211200  0.24048400  0.55832900  1
  F  F19  1  0.59242800  0.45406900  0.87968600  1
  F  F20  1  0.25000000  0.50279900  0.56866400  1
  F  F21  1  0.25000000  0.00805400  0.30718100  1
  F  F22  1  0.59228600  0.92318200  0.91667700  1
  F  F23  1  0.25000000  0.94816700  0.86346700  1
  F  F24  1  0.90771400  0.92318200  0.91667700  1
  F  F25  1  0.04211200  0.75951600  0.44167100  1
  F  F26  1  0.95788800  0.24048400  0.55832900  1
  F  F27  1  0.90078700  0.70739400  0.24782000  1
  F  F28  1  0.40171900  0.84369600  0.71291600  1
  F  F29  1  0.09921300  0.29260600  0.75218000  1
loop_
_geom_bond_atom_site_label_1
_geom_bond_atom_site_label_2
_geom_bond_distance
_geom_bond_site_symmetry_2
O0 Xe1 1.826930 1_554
O1 Xe3 1.826930 1_556
F0 Xe0 1.954897 1_545
F1 Xe3 2.031096 1_555
F2 Xe3 2.028857 1_555
F3 Sb1 1.973064 1_555
F4 Xe3 2.031096 1_555
F5 Xe1 2.031096 1_555
F6 Sb1 1.960461 1_555
F7 Xe0 1.977984 1_545
F8 Sb0 1.904538 1_555
F9 Xe0 1.970100 1_555
F10 Sb0 1.894565 1_555
F11 Xe2 1.970100 1_555
F12 Xe2 1.977984 1_565
F13 Xe0 1.977984 1_545
F14 Sb0 1.973064 1_555
F15 Sb1 1.917977 1_565
F16 Xe3 2.028857 1_555
F17 Sb1 1.894565 1_555
F18 Sb1 1.904538 1_555
F19 Xe1 2.031096 1_555
F20 Sb0 1.960461 1_555
F21 Sb0 1.917977 1_545
F22 Xe1 2.028857 1_555
F23 Xe2 1.954897 1_565
F24 Xe1 2.028857 1_555
F25 Sb0 1.904538 1_555
F26 Sb1 1.904538 1_555
F27 Xe0 1.970100 1_555
F28 Xe2 1.977984 1_565
F29 Xe2 1.970100 1_555
