# generated using pymatgen
data_LaGaSe2O
_symmetry_space_group_name_H-M   'P 1'
_cell_length_a   5.99136800
_cell_length_b   6.01113100
_cell_length_c   12.44816900
_cell_angle_alpha   90.00000000
_cell_angle_beta   90.00000000
_cell_angle_gamma   90.00000000
_symmetry_Int_Tables_number   1
_chemical_formula_structural   LaGaSe2O
_chemical_formula_sum   'La4 Ga4 Se8 O4'
_cell_volume   448.31953579
_cell_formula_units_Z   4
loop_
 _symmetry_equiv_pos_site_id
 _symmetry_equiv_pos_as_xyz
  1  'x, y, z'
loop_
 _atom_site_type_symbol
 _atom_site_label
 _atom_site_symmetry_multiplicity
 _atom_site_fract_x
 _atom_site_fract_y
 _atom_site_fract_z
 _atom_site_occupancy
  La  La0  1  0.75608500  0.49725800  0.09418600  1
  La  La1  1  0.25608500  0.00274200  0.09418600  1
  La  La2  1  0.25608500  0.50274200  0.90581400  1
  La  La3  1  0.75608500  0.99725800  0.90581400  1
  Ga  Ga0  1  0.65782800  0.07714800  0.39795000  1
  Ga  Ga1  1  0.15782800  0.92285200  0.60205000  1
  Ga  Ga2  1  0.65782800  0.57714800  0.60205000  1
  Ga  Ga3  1  0.15782800  0.42285200  0.39795000  1
  Se  Se0  1  0.75292700  0.99365300  0.21935800  1
  Se  Se1  1  0.24989600  0.02356300  0.41448100  1
  Se  Se2  1  0.25292700  0.50634700  0.21935800  1
  Se  Se3  1  0.74989600  0.47643700  0.41448100  1
  Se  Se4  1  0.24989600  0.52356300  0.58551900  1
  Se  Se5  1  0.74989600  0.97643700  0.58551900  1
  Se  Se6  1  0.75292700  0.49365300  0.78064200  1
  Se  Se7  1  0.25292700  0.00634700  0.78064200  1
  O  O0  1  0.00256300  0.24964000  0.99866400  1
  O  O1  1  0.00256300  0.74964000  0.00133600  1
  O  O2  1  0.50256300  0.75036000  0.00133600  1
  O  O3  1  0.50256300  0.25036000  0.99866400  1
loop_
_geom_bond_atom_site_label_1
_geom_bond_atom_site_label_2
_geom_bond_distance
_geom_bond_site_symmetry_2
La0 O0 2.410433 1_654
La0 O1 2.412107 1_655
La0 O3 2.433875 1_554
La0 O2 2.440869 1_555
La1 O3 2.410433 1_554
La1 O2 2.412107 1_545
La1 O0 2.433875 1_554
La1 O1 2.440869 1_545
La2 O2 2.410433 1_556
La2 O3 2.412107 1_555
La2 O1 2.433875 1_556
La2 O0 2.440869 1_555
La3 O1 2.410433 1_656
La3 O0 2.412107 1_665
La3 O2 2.433875 1_556
La3 O3 2.440869 1_565
Ga0 Se0 2.349236 1_545
Ga0 Se3 2.471332 1_555
Ga0 Se1 2.473778 1_555
Ga0 Se5 2.474366 1_545
Ga1 Se7 2.349236 1_565
Ga1 Se4 2.471332 1_555
Ga1 Se5 2.473778 1_455
Ga1 Se1 2.474366 1_565
Ga2 Se6 2.349236 1_555
Ga2 Se5 2.471332 1_555
Ga2 Se4 2.473778 1_555
Ga2 Se3 2.474366 1_555
Ga3 Se2 2.349236 1_555
Ga3 Se1 2.471332 1_555
Ga3 Se3 2.473778 1_455
Ga3 Se4 2.474366 1_555
