# generated using pymatgen
data_MgO
_symmetry_space_group_name_H-M   'P 1'
_cell_length_a   3.30778678
_cell_length_b   3.30778719
_cell_length_c   4.98288167
_cell_angle_alpha   90.00000000
_cell_angle_beta   90.00000000
_cell_angle_gamma   120.00000587
_symmetry_Int_Tables_number   1
_chemical_formula_structural   MgO
_chemical_formula_sum   'Mg2 O2'
_cell_volume   47.21567997
_cell_formula_units_Z   2
loop_
 _symmetry_equiv_pos_site_id
 _symmetry_equiv_pos_as_xyz
  1  'x, y, z'
loop_
 _atom_site_type_symbol
 _atom_site_label
 _atom_site_symmetry_multiplicity
 _atom_site_fract_x
 _atom_site_fract_y
 _atom_site_fract_z
 _atom_site_occupancy
  Mg  Mg0  1  0.33333300  0.66666700  0.00215974  1
  Mg  Mg1  1  0.66666700  0.33333300  0.50215974  1
  O  O0  1  0.33333300  0.66666700  0.40244026  1
  O  O1  1  0.66666700  0.33333300  0.90244026  1
loop_
_geom_bond_atom_site_label_1
_geom_bond_atom_site_label_2
_geom_bond_distance
_geom_bond_site_symmetry_2
Mg0 O1 1.973333 1_454
Mg0 O1 1.973333 1_564
Mg0 O1 1.973339 1_554
Mg0 O0 1.994550 1_555
Mg1 O0 1.973333 1_655
Mg1 O0 1.973333 1_545
Mg1 O0 1.973339 1_555
Mg1 O1 1.994550 1_555
