# generated using pymatgen
data_MnGaPt
_symmetry_space_group_name_H-M   'P 1'
_cell_length_a   4.32473155
_cell_length_b   4.32473239
_cell_length_c   5.58558281
_cell_angle_alpha   89.99999013
_cell_angle_beta   89.99998575
_cell_angle_gamma   119.99923674
_symmetry_Int_Tables_number   1
_chemical_formula_structural   MnGaPt
_chemical_formula_sum   'Mn2 Ga2 Pt2'
_cell_volume   90.47338921
_cell_formula_units_Z   2
loop_
 _symmetry_equiv_pos_site_id
 _symmetry_equiv_pos_as_xyz
  1  'x, y, z'
loop_
 _atom_site_type_symbol
 _atom_site_label
 _atom_site_symmetry_multiplicity
 _atom_site_fract_x
 _atom_site_fract_y
 _atom_site_fract_z
 _atom_site_occupancy
  Mn  Mn0  1  0.00000032  0.00000017  -0.00000027  1
  Mn  Mn1  1  -0.00000012  -0.00000026  0.49999995  1
  Ga  Ga0  1  0.33333337  0.66666669  0.75000175  1
  Ga  Ga1  1  0.66666695  0.33333293  0.24999844  1
  Pt  Pt0  1  0.66666706  0.33333323  0.74997854  1
  Pt  Pt1  1  0.33333342  0.66666624  0.25002159  1
loop_
_geom_bond_atom_site_label_1
_geom_bond_atom_site_label_2
_geom_bond_distance
_geom_bond_site_symmetry_2
Mn0 Mn1 2.792790 1_554
Mn0 Mn1 2.792793 1_555
Mn0 Pt0 2.860880 1_454
Mn0 Pt1 2.860884 1_545
Mn0 Pt0 2.860906 1_554
Mn0 Pt1 2.860906 1_555
Mn0 Pt0 2.860907 1_444
Mn0 Pt1 2.860908 1_445
Mn1 Pt0 2.860763 1_455
Mn1 Pt1 2.860765 1_545
Mn1 Pt1 2.860788 1_555
Mn1 Pt1 2.860789 1_445
Mn1 Pt0 2.860789 1_445
Mn1 Pt0 2.860792 1_555
Ga0 Pt0 2.496877 1_555
Ga0 Pt0 2.496903 1_455
Ga0 Pt0 2.496904 1_565
Ga0 Pt1 2.792681 1_555
Ga0 Pt1 2.792902 1_556
Ga0 Mn0 2.860817 1_566
Ga0 Mn1 2.860828 1_565
Ga0 Mn0 2.860842 1_556
Ga0 Mn0 2.860844 1_666
Ga0 Mn1 2.860852 1_665
Ga0 Mn1 2.860855 1_555
Ga1 Pt1 2.496876 1_555
Ga1 Pt1 2.496903 1_655
Ga1 Pt1 2.496905 1_545
Ga1 Pt0 2.792680 1_555
Ga1 Pt0 2.792903 1_554
Ga1 Mn0 2.860818 1_655
Ga1 Mn1 2.860825 1_655
Ga1 Mn0 2.860845 1_555
Ga1 Mn0 2.860846 1_665
Ga1 Mn1 2.860853 1_555
Ga1 Mn1 2.860853 1_665
