# generated using pymatgen
data_La4S3NCl3
_symmetry_space_group_name_H-M   'P 1'
_cell_length_a   9.45658727
_cell_length_b   9.45658727
_cell_length_c   7.02067860
_cell_angle_alpha   90.00000000
_cell_angle_beta   90.00000000
_cell_angle_gamma   119.99999544
_symmetry_Int_Tables_number   1
_chemical_formula_structural   La4S3NCl3
_chemical_formula_sum   'La8 S6 N2 Cl6'
_cell_volume   543.72413749
_cell_formula_units_Z   2
loop_
 _symmetry_equiv_pos_site_id
 _symmetry_equiv_pos_as_xyz
  1  'x, y, z'
loop_
 _atom_site_type_symbol
 _atom_site_label
 _atom_site_symmetry_multiplicity
 _atom_site_fract_x
 _atom_site_fract_y
 _atom_site_fract_z
 _atom_site_occupancy
  La  La0  1  0.20115741  0.40231582  0.25129779  1
  La  La1  1  0.20115741  0.79884259  0.25129779  1
  La  La2  1  0.33333300  0.66666700  0.70960502  1
  La  La3  1  0.79884259  0.20115741  0.75129779  1
  La  La4  1  0.40231582  0.20115741  0.75129779  1
  La  La5  1  0.79884259  0.59768418  0.75129779  1
  La  La6  1  0.59768418  0.79884259  0.25129779  1
  La  La7  1  0.66666700  0.33333300  0.20960502  1
  S  S0  1  0.46868144  0.53131856  0.97067296  1
  S  S1  1  0.46868144  0.93736288  0.97067296  1
  S  S2  1  0.53131856  0.06263712  0.47067296  1
  S  S3  1  0.53131856  0.46868144  0.47067296  1
  S  S4  1  0.93736288  0.46868144  0.47067296  1
  S  S5  1  0.06263712  0.53131856  0.97067296  1
  N  N0  1  0.33333300  0.66666700  0.36523797  1
  N  N1  1  0.66666700  0.33333300  0.86523797  1
  Cl  Cl0  1  0.86842788  0.73685576  0.14298192  1
  Cl  Cl1  1  0.13157212  0.86842788  0.64298192  1
  Cl  Cl2  1  0.86842788  0.13157212  0.14298192  1
  Cl  Cl3  1  0.13157212  0.26314424  0.64298192  1
  Cl  Cl4  1  0.26314424  0.13157212  0.14298192  1
  Cl  Cl5  1  0.73685576  0.86842788  0.64298192  1
loop_
_geom_bond_atom_site_label_1
_geom_bond_atom_site_label_2
_geom_bond_distance
_geom_bond_site_symmetry_2
La0 N0 2.308002 1_555
La0 S5 2.946820 1_554
La0 S0 2.946826 1_554
La0 S4 3.248780 1_455
La0 S3 3.248788 1_555
La1 N0 2.308002 1_555
La1 S1 2.946826 1_554
La1 S5 2.946826 1_554
La1 S4 3.248786 1_455
La1 S2 3.248786 1_565
La2 N0 2.417690 1_555
La2 S1 2.876471 1_555
La2 S5 2.876471 1_555
La2 S0 2.876478 1_555
La2 S2 3.651027 1_565
La2 S4 3.651027 1_455
La2 S3 3.651034 1_555
La3 N1 2.308002 1_555
La3 S2 2.946826 1_555
La3 S4 2.946826 1_555
La3 S5 3.248786 1_655
La3 S1 3.248786 1_545
La4 N1 2.308002 1_555
La4 S2 2.946820 1_555
La4 S3 2.946826 1_555
La4 S1 3.248780 1_545
La4 S0 3.248788 1_555
La5 N1 2.308002 1_555
La5 S4 2.946820 1_555
La5 S3 2.946826 1_555
La5 S5 3.248780 1_655
La5 S0 3.248788 1_555
La6 N0 2.308002 1_555
La6 S1 2.946820 1_554
La6 S0 2.946826 1_554
La6 S2 3.248780 1_565
La6 S3 3.248788 1_555
La7 N1 2.417690 1_554
La7 S2 2.876471 1_555
La7 S4 2.876471 1_555
La7 S3 2.876478 1_555
La7 S5 3.651027 1_654
La7 S1 3.651027 1_544
La7 S0 3.651034 1_554
Cl0 La5 2.976735 1_554
Cl0 La1 2.996306 1_655
Cl0 La6 2.996315 1_555
Cl0 La7 3.337645 1_555
Cl1 La1 2.976732 1_555
Cl1 La5 2.996310 1_455
Cl1 La4 2.996310 1_565
Cl1 La2 3.337637 1_555
Cl2 La3 2.976732 1_554
Cl2 La0 2.996310 1_655
Cl2 La6 2.996310 1_545
Cl2 La7 3.337637 1_555
Cl3 La0 2.976735 1_555
Cl3 La3 2.996306 1_455
Cl3 La4 2.996315 1_555
Cl3 La2 3.337645 1_555
Cl4 La4 2.976735 1_554
Cl4 La1 2.996306 1_545
Cl4 La0 2.996315 1_555
Cl4 La7 3.337645 1_555
Cl5 La6 2.976735 1_555
Cl5 La3 2.996306 1_565
Cl5 La5 2.996315 1_555
Cl5 La2 3.337645 1_555
