# generated using pymatgen
data_CdSO3
_symmetry_space_group_name_H-M   'P 1'
_cell_length_a   12.82371000
_cell_length_b   5.65376900
_cell_length_c   8.75328922
_cell_angle_alpha   79.78013993
_cell_angle_beta   90.00000000
_cell_angle_gamma   90.00000000
_symmetry_Int_Tables_number   1
_chemical_formula_structural   CdSO3
_chemical_formula_sum   'Cd8 S8 O24'
_cell_volume   624.56455950
_cell_formula_units_Z   8
loop_
 _symmetry_equiv_pos_site_id
 _symmetry_equiv_pos_as_xyz
  1  'x, y, z'
loop_
 _atom_site_type_symbol
 _atom_site_label
 _atom_site_symmetry_multiplicity
 _atom_site_fract_x
 _atom_site_fract_y
 _atom_site_fract_z
 _atom_site_occupancy
  Cd  Cd0  1  0.41965400  0.32050300  0.88487700  1
  Cd  Cd1  1  0.25406200  0.86700200  0.65355900  1
  Cd  Cd2  1  0.91965400  0.67949700  0.61512300  1
  Cd  Cd3  1  0.74593800  0.13299800  0.34644100  1
  Cd  Cd4  1  0.75406200  0.13299800  0.84644100  1
  Cd  Cd5  1  0.58034600  0.67949700  0.11512300  1
  Cd  Cd6  1  0.08034600  0.32050300  0.38487700  1
  Cd  Cd7  1  0.24593800  0.86700200  0.15355900  1
  S  S0  1  0.32567400  0.46148600  0.48395200  1
  S  S1  1  0.17432600  0.46148600  0.98395200  1
  S  S2  1  0.82567400  0.53851400  0.01604800  1
  S  S3  1  0.67432600  0.53851400  0.51604800  1
  S  S4  1  0.97894000  0.90320000  0.24724700  1
  S  S5  1  0.52106000  0.90320000  0.74724700  1
  S  S6  1  0.02106000  0.09680000  0.75275300  1
  S  S7  1  0.47894000  0.09680000  0.25275300  1
  O  O0  1  0.09166900  0.00459200  0.24557300  1
  O  O1  1  0.24089200  0.68811800  0.91942500  1
  O  O2  1  0.57671200  0.08223600  0.83791200  1
  O  O3  1  0.75910800  0.31188200  0.08057500  1
  O  O4  1  0.25910800  0.68811800  0.41942500  1
  O  O5  1  0.65674000  0.49187300  0.34831400  1
  O  O6  1  0.97817500  0.66360800  0.36585800  1
  O  O7  1  0.74565500  0.75063100  0.00400200  1
  O  O8  1  0.34326000  0.50812700  0.65168600  1
  O  O9  1  0.90833100  0.99540800  0.75442700  1
  O  O10  1  0.02182500  0.33639200  0.63414200  1
  O  O11  1  0.75434500  0.75063100  0.50400200  1
  O  O12  1  0.40833100  0.00459200  0.74557300  1
  O  O13  1  0.15674000  0.50812700  0.15168600  1
  O  O14  1  0.84326000  0.49187300  0.84831400  1
  O  O15  1  0.24565500  0.24936900  0.49599800  1
  O  O16  1  0.74089200  0.31188200  0.58057500  1
  O  O17  1  0.07671200  0.91776400  0.66208800  1
  O  O18  1  0.92328800  0.08223600  0.33791200  1
  O  O19  1  0.59166900  0.99540800  0.25442700  1
  O  O20  1  0.52182500  0.66360800  0.86585800  1
  O  O21  1  0.25434500  0.24936900  0.99599800  1
  O  O22  1  0.47817500  0.33639200  0.13414200  1
  O  O23  1  0.42328800  0.91776400  0.16208800  1
loop_
_geom_bond_atom_site_label_1
_geom_bond_atom_site_label_2
_geom_bond_distance
_geom_bond_site_symmetry_2
Cd0 O20 2.322227 1_555
Cd0 O22 2.324101 1_556
Cd0 O21 2.337284 1_555
Cd0 O12 2.338992 1_555
Cd0 O8 2.341599 1_555
Cd0 O2 2.497334 1_555
Cd1 O17 2.295194 1_555
Cd1 O12 2.321604 1_565
Cd1 O8 2.331800 1_555
Cd1 O15 2.351424 1_565
Cd1 O1 2.373196 1_555
Cd1 O4 2.441882 1_555
Cd2 O10 2.322227 1_655
Cd2 O6 2.324101 1_555
Cd2 O11 2.337284 1_555
Cd2 O9 2.338992 1_555
Cd2 O14 2.341599 1_555
Cd2 O17 2.497334 1_655
Cd3 O18 2.295194 1_555
Cd3 O19 2.321604 1_545
Cd3 O5 2.331800 1_555
Cd3 O11 2.351424 1_545
Cd3 O3 2.373196 1_555
Cd3 O16 2.441882 1_555
Cd4 O2 2.295194 1_555
Cd4 O9 2.321604 1_545
Cd4 O14 2.331800 1_555
Cd4 O7 2.351424 1_546
Cd4 O16 2.373196 1_555
Cd4 O3 2.441882 1_556
Cd5 O22 2.322227 1_555
Cd5 O20 2.324101 1_554
Cd5 O7 2.337284 1_555
Cd5 O19 2.338992 1_555
Cd5 O5 2.341599 1_555
Cd5 O23 2.497334 1_555
Cd6 O6 2.322227 1_455
Cd6 O10 2.324101 1_555
Cd6 O15 2.337284 1_555
Cd6 O0 2.338992 1_555
Cd6 O13 2.341599 1_555
Cd6 O18 2.497334 1_455
Cd7 O23 2.295194 1_555
Cd7 O0 2.321604 1_565
Cd7 O13 2.331800 1_555
Cd7 O21 2.351424 1_564
Cd7 O4 2.373196 1_555
Cd7 O1 2.441882 1_554
O0 S4 1.554226 1_445
O1 S1 1.559704 1_555
O2 S5 1.564868 1_545
O3 S2 1.559704 1_555
O4 S0 1.559704 1_555
O5 S3 1.553533 1_555
O6 S4 1.553675 1_555
O7 S2 1.567621 1_555
O8 S0 1.553533 1_555
O9 S6 1.554226 1_665
O10 S6 1.553675 1_555
O11 S3 1.567621 1_555
O12 S5 1.554226 1_545
O13 S1 1.553533 1_554
O14 S2 1.553533 1_556
O15 S0 1.567621 1_555
O16 S3 1.559704 1_555
O17 S6 1.564868 1_565
O18 S4 1.564868 1_545
O19 S7 1.554226 1_565
O20 S5 1.553675 1_555
O21 S1 1.567621 1_555
O22 S7 1.553675 1_555
O23 S7 1.564868 1_565
