# generated using pymatgen
data_K2Sr(NbCl3)6
_symmetry_space_group_name_H-M   'P 1'
_cell_length_a   10.41062797
_cell_length_b   10.41062797
_cell_length_c   10.41062844
_cell_angle_alpha   54.47104216
_cell_angle_beta   54.47104216
_cell_angle_gamma   54.47104224
_symmetry_Int_Tables_number   1
_chemical_formula_structural   K2Sr(NbCl3)6
_chemical_formula_sum   'K2 Sr1 Nb6 Cl18'
_cell_volume   694.98767509
_cell_formula_units_Z   1
loop_
 _symmetry_equiv_pos_site_id
 _symmetry_equiv_pos_as_xyz
  1  'x, y, z'
loop_
 _atom_site_type_symbol
 _atom_site_label
 _atom_site_symmetry_multiplicity
 _atom_site_fract_x
 _atom_site_fract_y
 _atom_site_fract_z
 _atom_site_occupancy
  K  K0  1  0.22170000  0.22170000  0.22170000  1
  K  K1  1  0.77830000  0.77830000  0.77830000  1
  Sr  Sr0  1  0.50000000  0.50000000  0.50000000  1
  Nb  Nb0  1  0.92633100  0.79227300  0.14584400  1
  Nb  Nb1  1  0.07366900  0.20772700  0.85415600  1
  Nb  Nb2  1  0.14584400  0.92633100  0.79227300  1
  Nb  Nb3  1  0.85415600  0.07366900  0.20772700  1
  Nb  Nb4  1  0.79227300  0.14584400  0.92633100  1
  Nb  Nb5  1  0.20772700  0.85415600  0.07366900  1
  Cl  Cl0  1  0.16089800  0.47713000  0.67236000  1
  Cl  Cl1  1  0.92599700  0.08276600  0.66953000  1
  Cl  Cl2  1  0.33047000  0.07400300  0.91723400  1
  Cl  Cl3  1  0.66953000  0.92599700  0.08276600  1
  Cl  Cl4  1  0.58473600  0.25802800  0.15737100  1
  Cl  Cl5  1  0.08276600  0.66953000  0.92599700  1
  Cl  Cl6  1  0.67236000  0.16089800  0.47713000  1
  Cl  Cl7  1  0.74197200  0.84262900  0.41526400  1
  Cl  Cl8  1  0.41526400  0.74197200  0.84262900  1
  Cl  Cl9  1  0.32764000  0.83910200  0.52287000  1
  Cl  Cl10  1  0.25802800  0.15737100  0.58473600  1
  Cl  Cl11  1  0.84262900  0.41526400  0.74197200  1
  Cl  Cl12  1  0.07400300  0.91723400  0.33047000  1
  Cl  Cl13  1  0.52287000  0.32764000  0.83910200  1
  Cl  Cl14  1  0.15737100  0.58473600  0.25802800  1
  Cl  Cl15  1  0.91723400  0.33047000  0.07400300  1
  Cl  Cl16  1  0.83910200  0.52287000  0.32764000  1
  Cl  Cl17  1  0.47713000  0.67236000  0.16089800  1
loop_
_geom_bond_atom_site_label_1
_geom_bond_atom_site_label_2
_geom_bond_distance
_geom_bond_site_symmetry_2
Cl0 Nb1 2.658209 1_555
Cl0 Sr0 2.976123 1_555
Cl0 K1 3.363161 1_455
Cl1 Nb4 2.483740 1_555
Cl1 Nb2 2.484313 1_645
Cl1 K1 3.628045 1_545
Cl1 K0 3.736567 1_655
Cl2 Nb1 2.483740 1_555
Cl2 Nb5 2.484313 1_546
Cl2 K0 3.628045 1_556
Cl2 K1 3.736567 1_545
Cl3 Nb0 2.483740 1_555
Cl3 Nb4 2.484313 1_564
Cl3 K1 3.628045 1_554
Cl3 K0 3.736567 1_565
Cl4 Nb3 2.471541 1_555
Cl4 Nb4 2.471787 1_554
Cl4 K0 3.647028 1_555
Cl5 Nb2 2.483740 1_555
Cl5 Nb0 2.484313 1_456
Cl5 K1 3.628045 1_455
Cl5 K0 3.736567 1_556
Cl6 Nb3 2.658209 1_555
Cl6 Sr0 2.976123 1_555
Cl6 K1 3.363161 1_545
Cl7 Nb0 2.471541 1_555
Cl7 Nb3 2.471787 1_565
Cl7 K1 3.647028 1_555
Cl8 Nb2 2.471541 1_555
Cl8 Nb5 2.471787 1_556
Cl8 K1 3.647028 1_555
Cl9 Nb2 2.658209 1_555
Cl9 Sr0 2.976123 1_555
Cl9 K0 3.363161 1_565
Cl10 Nb1 2.471541 1_555
Cl10 Nb2 2.471787 1_545
Cl10 K0 3.647028 1_555
Cl11 Nb4 2.471541 1_555
Cl11 Nb1 2.471787 1_655
Cl11 K1 3.647028 1_555
Cl12 Nb5 2.483740 1_555
Cl12 Nb3 2.484313 1_465
Cl12 K0 3.628045 1_565
Cl12 K1 3.736567 1_455
Cl13 Nb4 2.658209 1_555
Cl13 Sr0 2.976124 1_555
Cl13 K0 3.363161 1_556
Cl14 Nb5 2.471541 1_555
Cl14 Nb0 2.471787 1_455
Cl14 K0 3.647028 1_555
Cl15 Nb3 2.483740 1_555
Cl15 Nb1 2.484313 1_654
Cl15 K0 3.628045 1_655
Cl15 K1 3.736567 1_554
Cl16 Nb0 2.658209 1_555
Cl16 Sr0 2.976123 1_555
Cl16 K0 3.363161 1_655
Cl17 Nb5 2.658209 1_555
Cl17 Sr0 2.976124 1_555
Cl17 K1 3.363161 1_554
