# generated using pymatgen
data_Rb4Zr3Se14
_symmetry_space_group_name_H-M   'P 1'
_cell_length_a   12.20058499
_cell_length_b   12.20042832
_cell_length_c   14.25362646
_cell_angle_alpha   70.36866844
_cell_angle_beta   70.37097507
_cell_angle_gamma   41.75604810
_symmetry_Int_Tables_number   1
_chemical_formula_structural   Rb4Zr3Se14
_chemical_formula_sum   'Rb8 Zr6 Se28'
_cell_volume   1318.46530454
_cell_formula_units_Z   2
loop_
 _symmetry_equiv_pos_site_id
 _symmetry_equiv_pos_as_xyz
  1  'x, y, z'
loop_
 _atom_site_type_symbol
 _atom_site_label
 _atom_site_symmetry_multiplicity
 _atom_site_fract_x
 _atom_site_fract_y
 _atom_site_fract_z
 _atom_site_occupancy
  Rb  Rb0  1  0.02027358  0.37830621  0.89392370  1
  Rb  Rb1  1  0.62169835  0.97973078  0.60607712  1
  Rb  Rb2  1  0.97973672  0.62168790  0.10607461  1
  Rb  Rb3  1  0.37830253  0.02027301  0.39392102  1
  Rb  Rb4  1  0.18266087  0.68187751  0.64971076  1
  Rb  Rb5  1  0.31813462  0.81732730  0.85028820  1
  Rb  Rb6  1  0.81734572  0.31812629  0.35028542  1
  Rb  Rb7  1  0.68186424  0.18267246  0.14971510  1
  Zr  Zr0  1  0.92243951  0.41330560  0.58618262  1
  Zr  Zr1  1  0.58672970  0.07753063  0.91382133  1
  Zr  Zr2  1  0.07754298  0.58671381  0.41382850  1
  Zr  Zr3  1  0.41327388  0.92246286  0.08616814  1
  Zr  Zr4  1  0.76076541  0.23923860  0.75000352  1
  Zr  Zr5  1  0.23924734  0.76074907  0.24999207  1
  Se  Se0  1  0.88028874  0.19734718  0.90292450  1
  Se  Se1  1  0.80261751  0.11976458  0.59708692  1
  Se  Se2  1  0.11970355  0.80264128  0.09708275  1
  Se  Se3  1  0.19735856  0.88027261  0.40290368  1
  Se  Se4  1  0.65496216  0.47569954  0.57729945  1
  Se  Se5  1  0.52434863  0.34498902  0.92271604  1
  Se  Se6  1  0.34504980  0.52429756  0.42270242  1
  Se  Se7  1  0.47567547  0.65497435  0.07728261  1
  Se  Se8  1  0.07384105  0.09108435  0.63203713  1
  Se  Se9  1  0.90895071  0.92612921  0.86796831  1
  Se  Se10  1  0.92615627  0.90893212  0.36795379  1
  Se  Se11  1  0.09105056  0.07387435  0.13202544  1
  Se  Se12  1  0.74596808  0.45355031  0.78776006  1
  Se  Se13  1  0.54643731  0.25402553  0.71226377  1
  Se  Se14  1  0.25402790  0.54642517  0.21226361  1
  Se  Se15  1  0.45355746  0.74599337  0.28773128  1
  Se  Se16  1  0.99272422  0.56924659  0.60567298  1
  Se  Se17  1  0.43076422  0.00726865  0.89431735  1
  Se  Se18  1  0.00727682  0.43074015  0.39434313  1
  Se  Se19  1  0.56924861  0.99271909  0.10566408  1
  Se  Se20  1  0.84782511  0.80148344  0.83006781  1
  Se  Se21  1  0.19848176  0.15220982  0.66992789  1
  Se  Se22  1  0.15218912  0.19850566  0.16993222  1
  Se  Se23  1  0.80149872  0.84780650  0.33006666  1
  Se  Se24  1  0.29835767  0.40853829  0.89315511  1
  Se  Se25  1  0.59141321  0.70169604  0.60684942  1
  Se  Se26  1  0.70164759  0.59146285  0.10685121  1
  Se  Se27  1  0.40856172  0.29831934  0.39315929  1
loop_
_geom_bond_atom_site_label_1
_geom_bond_atom_site_label_2
_geom_bond_distance
_geom_bond_site_symmetry_2
Rb0 Se17 3.428005 1_555
Rb0 Se12 3.495447 1_455
Rb0 Se0 3.618818 1_455
Rb0 Se26 3.657826 1_456
Rb0 Se24 3.672406 1_555
Rb0 Se20 3.719316 1_455
Rb0 Se11 3.843536 1_556
Rb0 Se21 3.851728 1_555
Rb0 Se16 3.968488 1_455
Rb0 Se22 4.008420 1_556
Rb1 Se16 3.427925 1_555
Rb1 Se13 3.495448 1_565
Rb1 Se1 3.618959 1_565
Rb1 Se27 3.657354 1_565
Rb1 Se25 3.672258 1_555
Rb1 Se21 3.719734 1_565
Rb1 Se10 3.844017 1_555
Rb1 Se20 3.851630 1_555
Rb1 Se17 3.968456 1_565
Rb1 Se23 4.008613 1_555
Rb2 Se19 3.427984 1_555
Rb2 Se14 3.495394 1_655
Rb2 Se2 3.618593 1_655
Rb2 Se24 3.657713 1_654
Rb2 Se26 3.672361 1_555
Rb2 Se22 3.719350 1_655
Rb2 Se9 3.843613 1_554
Rb2 Se23 3.851746 1_555
Rb2 Se18 3.968725 1_655
Rb2 Se20 4.008387 1_554
Rb3 Se18 3.427838 1_555
Rb3 Se15 3.495354 1_545
Rb3 Se3 3.618909 1_545
Rb3 Se25 3.657363 1_545
Rb3 Se27 3.672200 1_555
Rb3 Se23 3.719572 1_545
Rb3 Se8 3.843943 1_555
Rb3 Se22 3.851557 1_555
Rb3 Se19 3.968687 1_545
Rb3 Se21 4.008594 1_555
Rb4 Se20 3.463759 1_455
Rb4 Se6 3.504440 1_555
Rb4 Se13 3.564717 1_555
Rb4 Se3 3.573343 1_555
Rb4 Se1 3.645433 1_465
Rb4 Se24 3.694114 1_555
Rb4 Se16 3.736331 1_455
Rb4 Se9 3.756630 1_455
Rb4 Se8 4.030072 1_565
Rb4 Se4 4.089019 1_555
Rb5 Se21 3.463821 1_565
Rb5 Se7 3.503995 1_556
Rb5 Se12 3.564663 1_555
Rb5 Se2 3.573443 1_556
Rb5 Se0 3.645256 1_465
Rb5 Se25 3.693992 1_555
Rb5 Se17 3.736303 1_565
Rb5 Se8 3.756592 1_565
Rb5 Se9 4.029990 1_455
Rb5 Se5 4.089097 1_555
Rb6 Se22 3.463752 1_655
Rb6 Se4 3.504488 1_555
Rb6 Se15 3.564837 1_555
Rb6 Se1 3.573211 1_555
Rb6 Se3 3.645147 1_645
Rb6 Se26 3.693994 1_555
Rb6 Se18 3.736224 1_655
Rb6 Se11 3.756657 1_655
Rb6 Se10 4.030004 1_545
Rb6 Se6 4.088990 1_555
Rb7 Se23 3.463683 1_545
Rb7 Se5 3.503989 1_554
Rb7 Se14 3.564660 1_555
Rb7 Se0 3.573339 1_554
Rb7 Se2 3.645246 1_645
Rb7 Se27 3.694144 1_555
Rb7 Se19 3.736448 1_545
Rb7 Se10 3.756440 1_545
Rb7 Se11 4.030012 1_655
Rb7 Se7 4.088820 1_555
Se0 Se12 2.422343 1_555
Se0 Zr4 2.722814 1_555
Se1 Se13 2.422459 1_555
Se1 Zr4 2.722632 1_555
Se2 Zr5 2.722823 1_555
Se3 Zr5 2.722753 1_555
Se4 Zr0 2.784179 1_555
Se4 Zr4 2.802816 1_555
Se5 Zr1 2.784065 1_555
Se5 Zr4 2.802850 1_555
Se6 Zr2 2.784319 1_555
Se6 Zr5 2.802833 1_555
Se7 Zr3 2.784227 1_555
Se7 Zr5 2.802870 1_555
Se8 Zr0 2.746680 1_455
Se8 Zr4 2.847933 1_455
Se9 Zr1 2.746781 1_565
Se9 Zr4 2.847975 1_565
Se10 Se23 2.382344 1_555
Se10 Zr2 2.746701 1_655
Se10 Zr5 2.847977 1_655
Se11 Se22 2.382326 1_555
Se11 Zr3 2.746765 1_545
Se11 Zr5 2.848090 1_545
Se12 Zr4 2.708283 1_555
Se12 Zr0 2.889034 1_555
Se12 Se25 2.979020 1_555
Se13 Zr4 2.708464 1_555
Se13 Zr1 2.888750 1_555
Se13 Se24 2.978695 1_555
Se14 Se2 2.422539 1_555
Se14 Zr5 2.708376 1_555
Se14 Zr2 2.888909 1_555
Se14 Se27 2.978697 1_555
Se15 Se3 2.422543 1_555
Se15 Zr5 2.708519 1_555
Se15 Zr3 2.888731 1_555
Se15 Se26 2.978645 1_555
Se16 Zr2 2.574872 1_655
Se16 Zr0 2.716890 1_555
Se17 Zr3 2.574909 1_546
Se17 Zr1 2.717034 1_555
Se18 Zr0 2.574822 1_455
Se18 Zr2 2.717048 1_555
Se19 Zr1 2.574810 1_564
Se19 Zr3 2.717031 1_555
Se20 Se9 2.382308 1_555
Se20 Zr1 2.656187 1_565
Se21 Se8 2.382175 1_555
Se21 Zr0 2.656007 1_455
Se22 Zr3 2.656216 1_545
Se23 Zr2 2.656127 1_655
Se24 Se5 2.398436 1_555
Se24 Zr1 2.733595 1_555
Se25 Se4 2.398416 1_555
Se25 Zr0 2.733800 1_555
Se26 Se7 2.398537 1_555
Se26 Zr3 2.733565 1_555
Se27 Se6 2.398425 1_555
Se27 Zr2 2.733768 1_555
