# generated using pymatgen
data_Na2CaP2O7
_symmetry_space_group_name_H-M   'P 1'
_cell_length_a   5.46674900
_cell_length_b   7.17975921
_cell_length_c   8.92877407
_cell_angle_alpha   69.39385738
_cell_angle_beta   89.12618498
_cell_angle_gamma   88.90205140
_symmetry_Int_Tables_number   1
_chemical_formula_structural   Na2CaP2O7
_chemical_formula_sum   'Na4 Ca2 P4 O14'
_cell_volume   327.95867990
_cell_formula_units_Z   2
loop_
 _symmetry_equiv_pos_site_id
 _symmetry_equiv_pos_as_xyz
  1  'x, y, z'
loop_
 _atom_site_type_symbol
 _atom_site_label
 _atom_site_symmetry_multiplicity
 _atom_site_fract_x
 _atom_site_fract_y
 _atom_site_fract_z
 _atom_site_occupancy
  Na  Na0  1  0.23427900  0.86100600  0.54892300  1
  Na  Na1  1  0.73388000  0.21083300  0.01862100  1
  Na  Na2  1  0.76572100  0.13899400  0.45107700  1
  Na  Na3  1  0.26612000  0.78916700  0.98137900  1
  Ca  Ca0  1  0.23141100  0.24728900  0.72033300  1
  Ca  Ca1  1  0.76858900  0.75271100  0.27966700  1
  P  P0  1  0.24758800  0.11708300  0.17443500  1
  P  P1  1  0.75241200  0.88291700  0.82556500  1
  P  P2  1  0.29403200  0.43141800  0.30951900  1
  P  P3  1  0.70596800  0.56858200  0.69048100  1
  O  O0  1  0.54265900  0.99671000  0.71719100  1
  O  O1  1  0.72312500  0.87270200  0.99921800  1
  O  O2  1  0.15956500  0.63233500  0.24763900  1
  O  O3  1  0.72855300  0.64857200  0.84241800  1
  O  O4  1  0.00826200  0.94801700  0.75649100  1
  O  O5  1  0.43098700  0.54852600  0.66980100  1
  O  O6  1  0.82660700  0.72402200  0.54513400  1
  O  O7  1  0.56901300  0.45147400  0.33019900  1
  O  O8  1  0.84043500  0.36766500  0.75236100  1
  O  O9  1  0.99173800  0.05198300  0.24350900  1
  O  O10  1  0.27144700  0.35142800  0.15758200  1
  O  O11  1  0.27687500  0.12729800  0.00078200  1
  O  O12  1  0.45734100  0.00329000  0.28280900  1
  O  O13  1  0.17339300  0.27597800  0.45486600  1
loop_
_geom_bond_atom_site_label_1
_geom_bond_atom_site_label_2
_geom_bond_distance
_geom_bond_site_symmetry_2
Na0 O5 2.365000 1_555
Na0 O6 2.458658 1_455
Na0 O4 2.463186 1_555
Na0 O12 2.535178 1_565
Na0 O0 2.686859 1_555
Na0 O13 2.811085 1_565
Na0 O9 2.912595 1_465
Na1 O8 2.314686 1_554
Na1 O9 2.394277 1_555
Na1 O1 2.495800 1_544
Na1 O11 2.600682 1_555
Na1 O12 2.752015 1_555
Na2 O7 2.365000 1_555
Na2 O13 2.458658 1_655
Na2 O9 2.463186 1_555
Na2 O0 2.535178 1_545
Na2 O12 2.686859 1_555
Na2 O6 2.811085 1_545
Na2 O4 2.912595 1_645
Na3 O2 2.314686 1_556
Na3 O4 2.394277 1_555
Na3 O11 2.495800 1_566
Na3 O1 2.600682 1_555
Na3 O0 2.752015 1_555
Ca0 O13 2.331971 1_555
Ca0 O5 2.336709 1_555
Ca0 O8 2.341285 1_455
Ca0 O11 2.359369 1_556
Ca0 O4 2.410281 1_545
Ca0 O0 2.459562 1_545
Ca1 O6 2.331971 1_555
Ca1 O7 2.336709 1_555
Ca1 O2 2.341285 1_655
Ca1 O1 2.359369 1_554
Ca1 O9 2.410281 1_565
Ca1 O12 2.459562 1_565
O0 P1 1.536279 1_555
O1 P1 1.532294 1_555
O2 P2 1.528819 1_555
O3 P1 1.643228 1_555
O3 P3 1.655808 1_555
O4 P1 1.533280 1_455
O5 P3 1.532995 1_555
O6 P3 1.532089 1_555
O7 P2 1.532995 1_555
O8 P3 1.528819 1_555
O9 P0 1.533280 1_655
O10 P0 1.643228 1_555
O10 P2 1.655808 1_555
O11 P0 1.532294 1_555
O12 P0 1.536279 1_555
O13 P2 1.532089 1_555
