# generated using pymatgen
data_NaFeBP2H3O10
_symmetry_space_group_name_H-M   'P 1'
_cell_length_a   6.70833250
_cell_length_b   6.70833250
_cell_length_c   9.27992590
_cell_angle_alpha   69.79568790
_cell_angle_beta   69.79568790
_cell_angle_gamma   76.69728998
_symmetry_Int_Tables_number   1
_chemical_formula_structural   NaFeBP2H3O10
_chemical_formula_sum   'Na2 Fe2 B2 P4 H6 O20'
_cell_volume   364.87690760
_cell_formula_units_Z   2
loop_
 _symmetry_equiv_pos_site_id
 _symmetry_equiv_pos_as_xyz
  1  'x, y, z'
loop_
 _atom_site_type_symbol
 _atom_site_label
 _atom_site_symmetry_multiplicity
 _atom_site_fract_x
 _atom_site_fract_y
 _atom_site_fract_z
 _atom_site_occupancy
  Na  Na0  1  0.86834700  0.13165300  0.75000000  1
  Na  Na1  1  0.13165300  0.86834700  0.25000000  1
  Fe  Fe0  1  0.00000000  0.50000000  0.00000000  1
  Fe  Fe1  1  0.50000000  0.00000000  0.50000000  1
  B  B0  1  0.47282500  0.52717500  0.75000000  1
  B  B1  1  0.52717500  0.47282500  0.25000000  1
  P  P0  1  0.84555100  0.70819200  0.67627400  1
  P  P1  1  0.29180800  0.15444900  0.82372600  1
  P  P2  1  0.15444900  0.29180800  0.32372600  1
  P  P3  1  0.70819200  0.84555100  0.17627400  1
  H  H0  1  0.33959200  0.69011800  0.92250500  1
  H  H1  1  0.30988200  0.66040800  0.57749500  1
  H  H2  1  0.66040800  0.30988200  0.07749500  1
  H  H3  1  0.69011800  0.33959200  0.42250500  1
  H  H4  1  0.00000000  0.50000000  0.50000000  1
  H  H5  1  0.50000000  0.00000000  0.00000000  1
  O  O0  1  0.69192600  0.53020600  0.74912200  1
  O  O1  1  0.46979400  0.30807400  0.75087800  1
  O  O2  1  0.30807400  0.46979400  0.25087800  1
  O  O3  1  0.53020600  0.69192600  0.24912200  1
  O  O4  1  0.96418900  0.36250600  0.45783700  1
  O  O5  1  0.63749400  0.03581100  0.04216300  1
  O  O6  1  0.03581100  0.63749400  0.54216300  1
  O  O7  1  0.36250600  0.96418900  0.95783700  1
  O  O8  1  0.07148000  0.27429700  0.89056400  1
  O  O9  1  0.72570300  0.92852000  0.60943600  1
  O  O10  1  0.92852000  0.72570300  0.10943600  1
  O  O11  1  0.27429700  0.07148000  0.39056400  1
  O  O12  1  0.92523200  0.72481100  0.80722100  1
  O  O13  1  0.27518900  0.07476800  0.69277900  1
  O  O14  1  0.07476800  0.27518900  0.19277900  1
  O  O15  1  0.72481100  0.92523200  0.30722100  1
  O  O16  1  0.31512400  0.56709700  0.89853200  1
  O  O17  1  0.43290300  0.68487600  0.60146800  1
  O  O18  1  0.68487600  0.43290300  0.10146800  1
  O  O19  1  0.56709700  0.31512400  0.39853200  1
loop_
_geom_bond_atom_site_label_1
_geom_bond_atom_site_label_2
_geom_bond_distance
_geom_bond_site_symmetry_2
Na0 O5 2.552730 1_556
Na0 O4 2.552730 1_555
Na0 O13 2.556547 1_655
Na0 O12 2.556547 1_545
Na0 O1 2.661665 1_555
Na0 O0 2.661665 1_555
Na0 O8 2.676592 1_655
Na0 O9 2.676592 1_545
Na1 O6 2.552730 1_555
Na1 O7 2.552730 1_554
Na1 O14 2.556547 1_565
Na1 O15 2.556547 1_455
Na1 O2 2.661665 1_555
Na1 O3 2.661665 1_555
Na1 O11 2.676592 1_565
Na1 O10 2.676592 1_455
Fe0 O10 1.986301 1_455
Fe0 O8 1.986301 1_554
Fe0 O14 2.033347 1_555
Fe0 O12 2.033347 1_454
Fe0 O16 2.080441 1_554
Fe0 O18 2.080441 1_455
Fe1 O9 1.986301 1_545
Fe1 O11 1.986301 1_555
Fe1 O13 2.033347 1_555
Fe1 O15 2.033347 1_545
Fe1 O19 2.080441 1_555
Fe1 O17 2.080441 1_545
B0 O0 1.471790 1_555
B0 O1 1.471790 1_555
B0 O17 1.485989 1_555
B0 O16 1.485989 1_555
B1 O3 1.471790 1_555
B1 O2 1.471790 1_555
B1 O19 1.485989 1_555
B1 O18 1.485989 1_555
H0 O16 0.985836 1_555
H1 O17 0.985836 1_555
H2 O18 0.985836 1_555
H3 O19 0.985836 1_555
H4 O6 1.215614 1_555
H4 O4 1.215614 1_455
H5 O5 1.215614 1_555
H5 O7 1.215614 1_544
O0 P0 1.572317 1_555
O1 P1 1.572317 1_555
O2 P2 1.572317 1_555
O3 P3 1.572317 1_555
O4 P2 1.560373 1_655
O5 P3 1.560373 1_545
O6 P0 1.560373 1_455
O7 P1 1.560373 1_565
O8 P1 1.542739 1_555
O9 P0 1.542739 1_555
O10 P3 1.542739 1_555
O11 P2 1.542739 1_555
O12 P0 1.531167 1_555
O13 P1 1.531167 1_555
O14 P2 1.531167 1_555
O15 P3 1.531167 1_555
