# generated using pymatgen
data_LiEu2Si3
_symmetry_space_group_name_H-M   'P 1'
_cell_length_a   4.52528175
_cell_length_b   7.80834790
_cell_length_c   7.98689763
_cell_angle_alpha   104.10456467
_cell_angle_beta   106.43720750
_cell_angle_gamma   89.99894614
_symmetry_Int_Tables_number   1
_chemical_formula_structural   LiEu2Si3
_chemical_formula_sum   'Li2 Eu4 Si6'
_cell_volume   261.80045136
_cell_formula_units_Z   2
loop_
 _symmetry_equiv_pos_site_id
 _symmetry_equiv_pos_as_xyz
  1  'x, y, z'
loop_
 _atom_site_type_symbol
 _atom_site_label
 _atom_site_symmetry_multiplicity
 _atom_site_fract_x
 _atom_site_fract_y
 _atom_site_fract_z
 _atom_site_occupancy
  Li  Li0  1  0.21228253  0.28674445  0.42502414  1
  Li  Li1  1  0.78771747  0.71325555  0.57497586  1
  Eu  Eu0  1  0.62445722  0.93677732  0.24967046  1
  Eu  Eu1  1  0.38954303  0.57062941  0.77876240  1
  Eu  Eu2  1  0.37554278  0.06322268  0.75032954  1
  Eu  Eu3  1  0.61045697  0.42937059  0.22123760  1
  Si  Si0  1  0.79552946  0.29119546  0.59163153  1
  Si  Si1  1  0.95684075  0.85332059  0.91334040  1
  Si  Si2  1  0.04315925  0.14667941  0.08665960  1
  Si  Si3  1  0.95366514  0.35077293  0.90638289  1
  Si  Si4  1  0.20447054  0.70880454  0.40836847  1
  Si  Si5  1  0.04633486  0.64922707  0.09361711  1
loop_
_geom_bond_atom_site_label_1
_geom_bond_atom_site_label_2
_geom_bond_distance
_geom_bond_site_symmetry_2
Li0 Si2 2.544457 1_555
Li0 Si0 2.593513 1_455
Li0 Si0 2.593831 1_555
Li1 Si1 2.544457 1_555
Li1 Si4 2.593513 1_655
Li1 Si4 2.593831 1_555
Eu0 Si5 3.197194 1_655
Eu0 Si5 3.198446 1_555
Eu0 Si2 3.225328 1_565
Eu0 Si2 3.226085 1_665
Eu0 Si0 3.291971 1_565
Eu0 Si4 3.294012 1_555
Eu0 Si4 3.298667 1_655
Eu0 Si1 3.364813 1_454
Eu0 Si1 3.366944 1_554
Eu0 Li1 3.386198 1_555
Eu0 Li0 3.538476 1_565
Eu0 Li0 3.539990 1_665
Eu1 Li0 3.033876 1_555
Eu1 Li1 3.111164 1_555
Eu1 Li1 3.111469 1_455
Eu1 Si3 3.141256 1_455
Eu1 Si3 3.143727 1_555
Eu1 Si1 3.145863 1_455
Eu1 Si1 3.146488 1_555
Eu1 Si0 3.214703 1_555
Eu1 Si0 3.218306 1_455
Eu1 Si5 3.248423 1_656
Eu1 Si5 3.251257 1_556
Eu1 Si4 3.281837 1_555
Eu2 Si3 3.197194 1_455
Eu2 Si3 3.198446 1_555
Eu2 Si1 3.225328 1_545
Eu2 Si1 3.226085 1_445
Eu2 Si4 3.291971 1_545
Eu2 Si0 3.294012 1_555
Eu2 Si0 3.298667 1_455
Eu2 Si2 3.364813 1_656
Eu2 Si2 3.366944 1_556
Eu2 Li0 3.386198 1_555
Eu2 Li1 3.538476 1_545
Eu2 Li1 3.539990 1_445
Eu3 Li1 3.033876 1_555
Eu3 Li0 3.111164 1_555
Eu3 Li0 3.111469 1_655
Eu3 Si5 3.141256 1_655
Eu3 Si5 3.143727 1_555
Eu3 Si2 3.145863 1_655
Eu3 Si2 3.146488 1_555
Eu3 Si4 3.214703 1_555
Eu3 Si4 3.218306 1_655
Eu3 Si3 3.248423 1_454
Eu3 Si3 3.251257 1_554
Eu3 Si0 3.281837 1_555
Si0 Si3 2.336683 1_555
Si1 Si5 2.359062 1_656
Si2 Si3 2.359062 1_454
Si3 Si5 2.406174 1_656
Si4 Si5 2.336683 1_555
