# generated using pymatgen
data_Ho(SiOs)2
_symmetry_space_group_name_H-M   'P 1'
_cell_length_a   4.16677381
_cell_length_b   4.16677378
_cell_length_c   5.61124382
_cell_angle_alpha   111.79506580
_cell_angle_beta   111.79507290
_cell_angle_gamma   90.00000763
_symmetry_Int_Tables_number   1
_chemical_formula_structural   Ho(SiOs)2
_chemical_formula_sum   'Ho1 Si2 Os2'
_cell_volume   82.91161698
_cell_formula_units_Z   1
loop_
 _symmetry_equiv_pos_site_id
 _symmetry_equiv_pos_as_xyz
  1  'x, y, z'
loop_
 _atom_site_type_symbol
 _atom_site_label
 _atom_site_symmetry_multiplicity
 _atom_site_fract_x
 _atom_site_fract_y
 _atom_site_fract_z
 _atom_site_occupancy
  Ho  Ho0  1  -0.00000000  -0.00000000  -0.00000000  1
  Si  Si0  1  0.62927075  0.62927075  0.25854149  1
  Si  Si1  1  0.37072925  0.37072925  0.74145851  1
  Os  Os0  1  0.25000000  0.75000000  0.50000000  1
  Os  Os1  1  0.75000000  0.25000000  0.50000000  1
loop_
_geom_bond_atom_site_label_1
_geom_bond_atom_site_label_2
_geom_bond_distance
_geom_bond_site_symmetry_2
Ho0 Os1 3.168874 1_555
Ho0 Os0 3.168874 1_444
Ho0 Os0 3.168874 1_555
Ho0 Os1 3.168874 1_444
Ho0 Os0 3.168874 1_545
Ho0 Os1 3.168874 1_454
Ho0 Os0 3.168875 1_544
Ho0 Os1 3.168875 1_455
Ho0 Si0 3.194585 1_555
Ho0 Si1 3.194585 1_444
Ho0 Si0 3.194585 1_445
Ho0 Si1 3.194585 1_554
Ho0 Si1 3.194586 1_454
Ho0 Si0 3.194586 1_545
Ho0 Si1 3.194586 1_544
Ho0 Si0 3.194586 1_455
Os0 Si0 2.381194 1_455
Os0 Si1 2.381194 1_565
Os0 Si1 2.381194 1_555
Os0 Si0 2.381194 1_555
Os1 Si1 2.381194 1_655
Os1 Si0 2.381194 1_545
Os1 Si0 2.381194 1_555
Os1 Si1 2.381194 1_555
