# generated using pymatgen
data_RbSbS(O2F)2
_symmetry_space_group_name_H-M   'P 1'
_cell_length_a   5.41747400
_cell_length_b   9.76087800
_cell_length_c   11.63745800
_cell_angle_alpha   90.00000000
_cell_angle_beta   90.00000000
_cell_angle_gamma   90.00000000
_symmetry_Int_Tables_number   1
_chemical_formula_structural   RbSbS(O2F)2
_chemical_formula_sum   'Rb4 Sb4 S4 O16 F8'
_cell_volume   615.38066520
_cell_formula_units_Z   4
loop_
 _symmetry_equiv_pos_site_id
 _symmetry_equiv_pos_as_xyz
  1  'x, y, z'
loop_
 _atom_site_type_symbol
 _atom_site_label
 _atom_site_symmetry_multiplicity
 _atom_site_fract_x
 _atom_site_fract_y
 _atom_site_fract_z
 _atom_site_occupancy
  Rb  Rb0  1  0.24173400  0.51586000  0.84058400  1
  Rb  Rb1  1  0.24173400  0.01586000  0.65941600  1
  Rb  Rb2  1  0.74173400  0.98414000  0.34058400  1
  Rb  Rb3  1  0.74173400  0.48414000  0.15941600  1
  Sb  Sb0  1  0.75729600  0.82878500  0.91645000  1
  Sb  Sb1  1  0.25729600  0.67121500  0.41645000  1
  Sb  Sb2  1  0.75729600  0.32878500  0.58355000  1
  Sb  Sb3  1  0.25729600  0.17121500  0.08355000  1
  S  S0  1  0.20076100  0.79891700  0.13370900  1
  S  S1  1  0.70076100  0.20108300  0.86629100  1
  S  S2  1  0.20076100  0.29891700  0.36629100  1
  S  S3  1  0.70076100  0.70108300  0.63370900  1
  O  O0  1  0.32871800  0.70132100  0.05939400  1
  O  O1  1  0.35457900  0.41828400  0.33499400  1
  O  O2  1  0.96550000  0.35427400  0.42239100  1
  O  O3  1  0.46550000  0.14572600  0.92239100  1
  O  O4  1  0.85457900  0.58171600  0.66500600  1
  O  O5  1  0.85457900  0.08171600  0.83499400  1
  O  O6  1  0.10616700  0.22723600  0.25874800  1
  O  O7  1  0.60616700  0.27276400  0.75874800  1
  O  O8  1  0.82871800  0.29867900  0.94060600  1
  O  O9  1  0.96550000  0.85427400  0.07760900  1
  O  O10  1  0.35457900  0.91828400  0.16500600  1
  O  O11  1  0.60616700  0.77276400  0.74125200  1
  O  O12  1  0.10616700  0.72723600  0.24125200  1
  O  O13  1  0.32871800  0.20132100  0.44060600  1
  O  O14  1  0.46550000  0.64572600  0.57760900  1
  O  O15  1  0.82871800  0.79867900  0.55939400  1
  F  F0  1  0.58166300  0.67972100  0.34117700  1
  F  F1  1  0.28738400  0.37241300  0.06116600  1
  F  F2  1  0.28738400  0.87241300  0.43883400  1
  F  F3  1  0.58166300  0.17972100  0.15882300  1
  F  F4  1  0.08166300  0.32027900  0.65882300  1
  F  F5  1  0.08166300  0.82027900  0.84117700  1
  F  F6  1  0.78738400  0.62758700  0.93883400  1
  F  F7  1  0.78738400  0.12758700  0.56116600  1
loop_
_geom_bond_atom_site_label_1
_geom_bond_atom_site_label_2
_geom_bond_distance
_geom_bond_site_symmetry_2
O0 S0 1.461494 1_555
O0 Rb0 3.159624 1_554
O0 Rb3 3.294723 1_555
O1 S2 1.478030 1_555
O1 Sb1 2.696565 1_555
O1 Rb3 2.997883 1_555
O2 S2 1.530552 1_655
O2 Sb2 2.202629 1_555
O2 Rb3 3.527347 1_555
O3 S1 1.530552 1_555
O3 Sb3 2.202629 1_556
O3 Rb1 3.527347 1_555
O4 S3 1.478030 1_555
O4 Sb2 2.696565 1_555
O4 Rb0 2.997883 1_655
O5 S1 1.478030 1_555
O5 Sb0 2.696565 1_545
O5 Rb1 2.997883 1_655
O6 S2 1.522653 1_555
O6 Sb3 2.264130 1_555
O6 Rb2 3.230357 1_445
O6 Rb3 3.394445 1_455
O7 S1 1.522653 1_555
O7 Sb2 2.264130 1_555
O7 Rb0 3.230357 1_555
O7 Rb1 3.394445 1_555
O8 S1 1.461494 1_555
O8 Rb3 3.159624 1_556
O8 Rb0 3.294723 1_655
O9 S0 1.530552 1_655
O9 Sb0 2.202629 1_554
O9 Rb2 3.527347 1_555
O10 S0 1.478030 1_555
O10 Sb3 2.696565 1_565
O10 Rb2 2.997883 1_555
O11 S3 1.522653 1_555
O11 Sb0 2.264130 1_555
O11 Rb1 3.230357 1_565
O11 Rb0 3.394445 1_555
O12 S0 1.522653 1_555
O12 Sb1 2.264130 1_555
O12 Rb3 3.230357 1_455
O12 Rb2 3.394445 1_455
O13 S2 1.461494 1_555
O13 Rb1 3.159624 1_555
O13 Rb2 3.294723 1_545
O14 S3 1.530552 1_555
O14 Sb1 2.202629 1_555
O14 Rb0 3.527347 1_555
O15 S3 1.461494 1_555
O15 Rb2 3.159624 1_555
O15 Rb1 3.294723 1_665
F0 Sb1 1.965241 1_555
F0 Rb3 2.978367 1_555
F0 Rb2 3.095359 1_555
F1 Sb3 1.987765 1_555
F1 Rb3 2.924938 1_555
F1 Rb0 2.934483 1_554
F1 Rb3 3.351839 1_455
F2 Sb1 1.987765 1_555
F2 Rb2 2.924938 1_555
F2 Rb1 2.934483 1_565
F2 Rb2 3.351839 1_455
F3 Sb3 1.965241 1_555
F3 Rb2 2.978367 1_545
F3 Rb3 3.095359 1_555
F4 Sb2 1.965241 1_455
F4 Rb0 2.978367 1_555
F4 Rb1 3.095359 1_555
F5 Sb0 1.965241 1_455
F5 Rb1 2.978367 1_565
F5 Rb0 3.095359 1_555
F6 Sb0 1.987765 1_555
F6 Rb0 2.924938 1_655
F6 Rb3 2.934483 1_556
F6 Rb0 3.351839 1_555
F7 Sb2 1.987765 1_555
F7 Rb1 2.924938 1_655
F7 Rb2 2.934483 1_545
F7 Rb1 3.351839 1_555
