# generated using pymatgen
data_Rb2Te(H6O5)2
_symmetry_space_group_name_H-M   'P 1'
_cell_length_a   7.15633400
_cell_length_b   8.43416904
_cell_length_c   9.45516715
_cell_angle_alpha   101.95165604
_cell_angle_beta   98.09198979
_cell_angle_gamma   94.22763281
_symmetry_Int_Tables_number   1
_chemical_formula_structural   Rb2Te(H6O5)2
_chemical_formula_sum   'Rb4 Te2 H24 O20'
_cell_volume   549.63599488
_cell_formula_units_Z   2
loop_
 _symmetry_equiv_pos_site_id
 _symmetry_equiv_pos_as_xyz
  1  'x, y, z'
loop_
 _atom_site_type_symbol
 _atom_site_label
 _atom_site_symmetry_multiplicity
 _atom_site_fract_x
 _atom_site_fract_y
 _atom_site_fract_z
 _atom_site_occupancy
  Rb  Rb0  1  0.93928800  0.13164500  0.70782700  1
  Rb  Rb1  1  0.56107400  0.53816800  0.20394700  1
  Rb  Rb2  1  0.06071200  0.86835500  0.29217300  1
  Rb  Rb3  1  0.43892600  0.46183200  0.79605300  1
  Te  Te0  1  0.13207200  0.42853800  0.38775500  1
  Te  Te1  1  0.86792800  0.57146200  0.61224500  1
  H  H0  1  0.39055200  0.14246800  0.30574200  1
  H  H1  1  0.40277300  0.04927700  0.62773000  1
  H  H2  1  0.50389800  0.05455600  0.18486200  1
  H  H3  1  0.28875400  0.13768200  0.96215800  1
  H  H4  1  0.19240400  0.86338800  0.82204900  1
  H  H5  1  0.71207900  0.15034000  0.02145200  1
  H  H6  1  0.58660100  0.35823100  0.50118000  1
  H  H7  1  0.91165300  0.38192700  0.06223900  1
  H  H8  1  0.78304900  0.70411400  0.94590200  1
  H  H9  1  0.08834700  0.61807300  0.93776100  1
  H  H10  1  0.83069600  0.42691800  0.91270000  1
  H  H11  1  0.86318300  0.24001800  0.40929300  1
  H  H12  1  0.71124600  0.86231800  0.03784200  1
  H  H13  1  0.41339900  0.64176900  0.49882000  1
  H  H14  1  0.67895200  0.83111300  0.47312000  1
  H  H15  1  0.60944800  0.85753200  0.69425800  1
  H  H16  1  0.59722700  0.95072300  0.37227000  1
  H  H17  1  0.16930400  0.57308200  0.08730000  1
  H  H18  1  0.80759600  0.13661200  0.17795100  1
  H  H19  1  0.21695100  0.29588600  0.05409800  1
  H  H20  1  0.32104800  0.16888700  0.52688000  1
  H  H21  1  0.28792100  0.84966000  0.97854800  1
  H  H22  1  0.49610200  0.94544400  0.81513800  1
  H  H23  1  0.13681700  0.75998200  0.59070700  1
  O  O0  1  0.88062600  0.57136800  0.81277100  1
  O  O1  1  0.71421200  0.90943300  0.41384000  1
  O  O2  1  0.79955900  0.35734000  0.98159400  1
  O  O3  1  0.35148400  0.32052100  0.41760100  1
  O  O4  1  0.71882100  0.74438300  0.03106800  1
  O  O5  1  0.28117900  0.25561700  0.96893200  1
  O  O6  1  0.09478000  0.44501000  0.59938700  1
  O  O7  1  0.70892200  0.08088100  0.09314900  1
  O  O8  1  0.95643000  0.21931400  0.34080200  1
  O  O9  1  0.11937400  0.42863200  0.18722900  1
  O  O10  1  0.04357000  0.78068600  0.65919800  1
  O  O11  1  0.20044100  0.64266000  0.01840600  1
  O  O12  1  0.42037900  0.03292900  0.25528000  1
  O  O13  1  0.28164700  0.64955600  0.44941700  1
  O  O14  1  0.28578800  0.09056700  0.58616000  1
  O  O15  1  0.64851600  0.67947900  0.58239900  1
  O  O16  1  0.90522000  0.55499000  0.40061300  1
  O  O17  1  0.29107800  0.91911900  0.90685100  1
  O  O18  1  0.57962100  0.96707100  0.74472000  1
  O  O19  1  0.71835300  0.35044400  0.55058300  1
loop_
_geom_bond_atom_site_label_1
_geom_bond_atom_site_label_2
_geom_bond_distance
_geom_bond_site_symmetry_2
H0 O12 1.000963 1_555
H1 O14 0.991807 1_555
H2 O12 0.989986 1_555
H3 O5 0.989433 1_555
H4 O17 0.999028 1_555
H5 O7 0.984941 1_555
H6 O19 1.004660 1_555
H7 O2 1.002849 1_554
H8 O4 0.994486 1_556
H9 O11 1.002849 1_556
H10 O2 0.999130 1_555
H10 Rb0 3.044573 1_555
H11 O8 0.993565 1_555
H12 O4 0.989433 1_555
H13 O13 1.004660 1_555
H14 O1 0.991346 1_555
H15 O18 1.000963 1_555
H16 O1 0.991807 1_555
H17 O11 0.999130 1_555
H17 Rb2 3.044573 1_555
H18 O7 0.999028 1_555
H19 O5 0.994486 1_554
H20 O14 0.991346 1_555
H21 O17 0.984941 1_555
H22 O18 0.989986 1_555
H23 O10 0.993565 1_555
O0 Te1 1.885531 1_555
O1 Rb2 2.890819 1_655
O1 Rb0 3.157595 1_565
O3 Te0 1.888848 1_555
O4 Rb1 2.894616 1_555
O4 Rb2 3.166647 1_655
O5 Rb3 2.894616 1_555
O5 Rb0 3.166647 1_455
O6 Te1 2.011194 1_455
O6 Te0 2.033533 1_555
O6 Rb3 2.844878 1_555
O6 Rb0 3.206985 1_455
O8 Te0 2.020483 1_655
O8 Rb2 3.064118 1_645
O9 Te0 1.885531 1_555
O10 Te1 2.020483 1_455
O10 Rb0 3.064118 1_465
O12 Rb2 2.932551 1_545
O13 Te0 2.010114 1_555
O13 Rb2 3.003417 1_555
O14 Rb0 2.890819 1_455
O14 Rb2 3.157595 1_545
O15 Te1 1.888848 1_555
O16 Te0 2.011194 1_655
O16 Te1 2.033533 1_555
O16 Rb1 2.844878 1_555
O16 Rb2 3.206985 1_655
O18 Rb0 2.932551 1_565
O19 Te1 2.010114 1_555
O19 Rb0 3.003417 1_555
