# generated using pymatgen
data_SrDy2O4
_symmetry_space_group_name_H-M   'P 1'
_cell_length_a   3.40993292
_cell_length_b   10.05860192
_cell_length_c   11.90448888
_cell_angle_alpha   90.00000000
_cell_angle_beta   90.00000000
_cell_angle_gamma   90.00000000
_symmetry_Int_Tables_number   1
_chemical_formula_structural   SrDy2O4
_chemical_formula_sum   'Sr4 Dy8 O16'
_cell_volume   408.31394282
_cell_formula_units_Z   4
loop_
 _symmetry_equiv_pos_site_id
 _symmetry_equiv_pos_as_xyz
  1  'x, y, z'
loop_
 _atom_site_type_symbol
 _atom_site_label
 _atom_site_symmetry_multiplicity
 _atom_site_fract_x
 _atom_site_fract_y
 _atom_site_fract_z
 _atom_site_occupancy
  Sr  Sr0  1  0.75000000  0.75223335  0.64943875  1
  Sr  Sr1  1  0.25000000  0.74776665  0.14943875  1
  Sr  Sr2  1  0.75000000  0.25223335  0.85056125  1
  Sr  Sr3  1  0.25000000  0.24776665  0.35056125  1
  Dy  Dy0  1  0.25000000  0.07639056  0.61107976  1
  Dy  Dy1  1  0.75000000  0.92183777  0.88828358  1
  Dy  Dy2  1  0.25000000  0.07816223  0.11171642  1
  Dy  Dy3  1  0.75000000  0.92360944  0.38892024  1
  Dy  Dy4  1  0.25000000  0.57639056  0.88892024  1
  Dy  Dy5  1  0.25000000  0.57816223  0.38828358  1
  Dy  Dy6  1  0.75000000  0.42183777  0.61171642  1
  Dy  Dy7  1  0.75000000  0.42360944  0.11107976  1
  O  O0  1  0.25000000  0.87378986  0.51947263  1
  O  O1  1  0.25000000  0.48612390  0.21638136  1
  O  O2  1  0.25000000  0.07393102  0.92226068  1
  O  O3  1  0.75000000  0.42606898  0.42226068  1
  O  O4  1  0.75000000  0.71196963  0.32487171  1
  O  O5  1  0.75000000  0.62621014  0.01947263  1
  O  O6  1  0.25000000  0.78803037  0.82487171  1
  O  O7  1  0.25000000  0.98612390  0.28361864  1
  O  O8  1  0.25000000  0.57393102  0.57773932  1
  O  O9  1  0.75000000  0.21196963  0.17512829  1
  O  O10  1  0.75000000  0.51387610  0.78361864  1
  O  O11  1  0.75000000  0.92606898  0.07773932  1
  O  O12  1  0.75000000  0.12621014  0.48052737  1
  O  O13  1  0.75000000  0.01387610  0.71638136  1
  O  O14  1  0.25000000  0.37378986  0.98052737  1
  O  O15  1  0.25000000  0.28803037  0.67512829  1
loop_
_geom_bond_atom_site_label_1
_geom_bond_atom_site_label_2
_geom_bond_distance
_geom_bond_site_symmetry_2
Dy0 O13 2.207652 1_555
Dy0 O13 2.207652 1_455
Dy0 O15 2.261226 1_555
Dy0 O0 2.311325 1_545
Dy0 O12 2.360813 1_455
Dy0 O12 2.360813 1_555
Dy1 O13 2.246074 1_565
Dy1 O11 2.255775 1_556
Dy1 O6 2.299620 1_655
Dy1 O6 2.299620 1_555
Dy1 O2 2.326143 1_565
Dy1 O2 2.326143 1_665
Dy2 O7 2.246074 1_545
Dy2 O2 2.255775 1_554
Dy2 O9 2.299620 1_455
Dy2 O9 2.299620 1_555
Dy2 O11 2.326143 1_545
Dy2 O11 2.326143 1_445
Dy3 O7 2.207652 1_655
Dy3 O7 2.207652 1_555
Dy3 O4 2.261226 1_555
Dy3 O12 2.311325 1_565
Dy3 O0 2.360813 1_655
Dy3 O0 2.360813 1_555
Dy4 O10 2.207652 1_555
Dy4 O10 2.207652 1_455
Dy4 O6 2.261226 1_555
Dy4 O14 2.311325 1_555
Dy4 O5 2.360813 1_456
Dy4 O5 2.360813 1_556
Dy5 O1 2.246074 1_555
Dy5 O8 2.255775 1_555
Dy5 O4 2.299620 1_455
Dy5 O4 2.299620 1_555
Dy5 O3 2.326143 1_455
Dy5 O3 2.326143 1_555
Dy6 O10 2.246074 1_555
Dy6 O3 2.255775 1_555
Dy6 O15 2.299620 1_655
Dy6 O15 2.299620 1_555
Dy6 O8 2.326143 1_555
Dy6 O8 2.326143 1_655
Dy7 O1 2.207652 1_655
Dy7 O1 2.207652 1_555
Dy7 O9 2.261226 1_555
Dy7 O5 2.311325 1_555
Dy7 O14 2.360813 1_554
Dy7 O14 2.360813 1_654
O0 Sr0 2.606846 1_455
O0 Sr0 2.606846 1_555
O1 Sr1 2.749771 1_555
O1 Sr3 2.880921 1_555
O2 Sr2 2.617631 1_455
O2 Sr2 2.617631 1_555
O3 Sr3 2.617631 1_655
O3 Sr3 2.617631 1_555
O4 Sr1 2.719952 1_655
O4 Sr1 2.719952 1_555
O5 Sr1 2.606846 1_655
O5 Sr1 2.606846 1_555
O6 Sr0 2.719952 1_555
O6 Sr0 2.719952 1_455
O7 Sr3 2.749771 1_565
O7 Sr1 2.880921 1_555
O8 Sr0 2.617631 1_455
O8 Sr0 2.617631 1_555
O9 Sr3 2.719952 1_555
O9 Sr3 2.719952 1_655
O10 Sr2 2.749771 1_555
O10 Sr0 2.880921 1_555
O11 Sr1 2.617631 1_655
O11 Sr1 2.617631 1_555
O12 Sr3 2.606846 1_555
O12 Sr3 2.606846 1_655
O13 Sr0 2.749771 1_545
O13 Sr2 2.880921 1_555
O14 Sr2 2.606846 1_455
O14 Sr2 2.606846 1_555
O15 Sr2 2.719952 1_455
O15 Sr2 2.719952 1_555
