# generated using pymatgen
data_YbNbO4
_symmetry_space_group_name_H-M   'P 1'
_cell_length_a   5.25443263
_cell_length_b   5.33351517
_cell_length_c   6.61655796
_cell_angle_alpha   113.43295981
_cell_angle_beta   113.05526846
_cell_angle_gamma   90.77450632
_symmetry_Int_Tables_number   1
_chemical_formula_structural   YbNbO4
_chemical_formula_sum   'Yb2 Nb2 O8'
_cell_volume   153.36628297
_cell_formula_units_Z   2
loop_
 _symmetry_equiv_pos_site_id
 _symmetry_equiv_pos_as_xyz
  1  'x, y, z'
loop_
 _atom_site_type_symbol
 _atom_site_label
 _atom_site_symmetry_multiplicity
 _atom_site_fract_x
 _atom_site_fract_y
 _atom_site_fract_z
 _atom_site_occupancy
  Yb  Yb0  1  0.37561300  0.62561300  0.25122600  1
  Yb  Yb1  1  0.62438700  0.37438700  0.74877400  1
  Nb  Nb0  1  0.87106500  0.12106500  0.24213000  1
  Nb  Nb1  1  0.12893500  0.87893500  0.75787000  1
  O  O0  1  0.20860000  0.39627900  0.43556100  1
  O  O1  1  0.72696100  0.03928200  0.43556100  1
  O  O2  1  0.79140000  0.60372100  0.56443900  1
  O  O3  1  0.27303900  0.96071800  0.56443900  1
  O  O4  1  0.03127700  0.20996600  0.93885000  1
  O  O5  1  0.40757300  0.72888400  0.93885000  1
  O  O6  1  0.96872300  0.79003400  0.06115000  1
  O  O7  1  0.59242700  0.27111600  0.06115000  1
loop_
_geom_bond_atom_site_label_1
_geom_bond_atom_site_label_2
_geom_bond_distance
_geom_bond_site_symmetry_2
Nb0 O1 1.896234 1_555
Nb0 O0 1.896234 1_655
Nb0 O6 1.907529 1_545
Nb0 O7 1.907529 1_555
Nb1 O3 1.896234 1_555
Nb1 O2 1.896234 1_455
Nb1 O4 1.907529 1_565
Nb1 O5 1.907529 1_555
O0 Yb1 2.394707 1_555
O0 Yb0 2.397840 1_555
O1 Yb1 2.394707 1_555
O1 Yb0 2.397840 1_545
O2 Yb0 2.394707 1_555
O2 Yb1 2.397840 1_555
O3 Yb0 2.394707 1_555
O3 Yb1 2.397840 1_565
O4 Yb1 2.396566 1_455
O4 Yb0 2.403801 1_556
O5 Yb1 2.396566 1_555
O5 Yb0 2.403801 1_556
O6 Yb0 2.396566 1_655
O6 Yb1 2.403801 1_554
O7 Yb0 2.396566 1_555
O7 Yb1 2.403801 1_554
