# generated using pymatgen
data_BTe3(OF5)3
_symmetry_space_group_name_H-M   'P 1'
_cell_length_a   9.39613336
_cell_length_b   9.39613336
_cell_length_c   9.45257400
_cell_angle_alpha   90.00000000
_cell_angle_beta   90.00000000
_cell_angle_gamma   119.99999548
_symmetry_Int_Tables_number   1
_chemical_formula_structural   BTe3(OF5)3
_chemical_formula_sum   'B2 Te6 O6 F30'
_cell_volume   722.73499103
_cell_formula_units_Z   2
loop_
 _symmetry_equiv_pos_site_id
 _symmetry_equiv_pos_as_xyz
  1  'x, y, z'
loop_
 _atom_site_type_symbol
 _atom_site_label
 _atom_site_symmetry_multiplicity
 _atom_site_fract_x
 _atom_site_fract_y
 _atom_site_fract_z
 _atom_site_occupancy
  B  B0  1  0.66666700  0.33333300  0.75000000  1
  B  B1  1  0.33333300  0.66666700  0.25000000  1
  Te  Te0  1  0.64320900  0.99839000  0.25000000  1
  Te  Te1  1  0.64481900  0.64320900  0.75000000  1
  Te  Te2  1  0.99839000  0.35518100  0.75000000  1
  Te  Te3  1  0.35518100  0.35679100  0.25000000  1
  Te  Te4  1  0.35679100  0.00161000  0.75000000  1
  Te  Te5  1  0.00161000  0.64481900  0.25000000  1
  O  O0  1  0.58694300  0.16380900  0.75000000  1
  O  O1  1  0.41305700  0.83619100  0.25000000  1
  O  O2  1  0.16380900  0.57686600  0.25000000  1
  O  O3  1  0.83619100  0.42313400  0.75000000  1
  O  O4  1  0.42313400  0.58694300  0.25000000  1
  O  O5  1  0.57686600  0.41305700  0.75000000  1
  F  F0  1  0.19864200  0.30928800  0.10826500  1
  F  F1  1  0.88935400  0.19864200  0.60826500  1
  F  F2  1  0.11530200  0.51352500  0.88809100  1
  F  F3  1  0.60177700  0.11530200  0.11190900  1
  F  F4  1  0.39822300  0.88469800  0.88809100  1
  F  F5  1  0.69071200  0.88935400  0.10826500  1
  F  F6  1  0.11530200  0.51352500  0.61190900  1
  F  F7  1  0.83760000  0.70161900  0.25000000  1
  F  F8  1  0.60177700  0.11530200  0.38809100  1
  F  F9  1  0.48647500  0.60177700  0.61190900  1
  F  F10  1  0.13598000  0.83760000  0.75000000  1
  F  F11  1  0.29838100  0.13598000  0.25000000  1
  F  F12  1  0.51352500  0.39822300  0.38809100  1
  F  F13  1  0.70161900  0.86402000  0.75000000  1
  F  F14  1  0.30928800  0.11064600  0.60826500  1
  F  F15  1  0.80135800  0.69071200  0.60826500  1
  F  F16  1  0.80135800  0.69071200  0.89173500  1
  F  F17  1  0.30928800  0.11064600  0.89173500  1
  F  F18  1  0.19864200  0.30928800  0.39173500  1
  F  F19  1  0.11064600  0.80135800  0.10826500  1
  F  F20  1  0.11064600  0.80135800  0.39173500  1
  F  F21  1  0.86402000  0.16240000  0.25000000  1
  F  F22  1  0.48647500  0.60177700  0.88809100  1
  F  F23  1  0.39822300  0.88469800  0.61190900  1
  F  F24  1  0.16240000  0.29838100  0.75000000  1
  F  F25  1  0.69071200  0.88935400  0.39173500  1
  F  F26  1  0.88469800  0.48647500  0.11190900  1
  F  F27  1  0.88469800  0.48647500  0.38809100  1
  F  F28  1  0.51352500  0.39822300  0.11190900  1
  F  F29  1  0.88935400  0.19864200  0.89173500  1
loop_
_geom_bond_atom_site_label_1
_geom_bond_atom_site_label_2
_geom_bond_distance
_geom_bond_site_symmetry_2
B0 O0 1.380278 1_555
B0 O3 1.380278 1_555
B0 O5 1.380286 1_555
B1 O1 1.380278 1_555
B1 O2 1.380278 1_555
B1 O4 1.380286 1_555
O0 Te4 1.924443 1_555
O1 Te0 1.924443 1_555
O2 Te5 1.924443 1_555
O3 Te2 1.924443 1_555
O4 Te3 1.924443 1_555
O5 Te1 1.924443 1_555
F0 Te3 1.871124 1_555
F1 Te2 1.871124 1_555
F2 Te2 1.868102 1_455
F3 Te0 1.868102 1_545
F4 Te4 1.868102 1_565
F5 Te0 1.871124 1_555
F6 Te2 1.868102 1_455
F7 Te5 1.866056 1_655
F8 Te0 1.868102 1_545
F9 Te1 1.868102 1_555
F10 Te4 1.866063 1_565
F11 Te3 1.866065 1_555
F12 Te3 1.868102 1_555
F13 Te1 1.866065 1_555
F14 Te4 1.871124 1_555
F15 Te1 1.871124 1_555
F16 Te1 1.871124 1_555
F17 Te4 1.871124 1_555
F18 Te3 1.871124 1_555
F19 Te5 1.871124 1_555
F20 Te5 1.871124 1_555
F21 Te0 1.866063 1_545
F22 Te1 1.868102 1_555
F23 Te4 1.868102 1_565
F24 Te2 1.866056 1_455
F25 Te0 1.871124 1_555
F26 Te5 1.868102 1_655
F27 Te5 1.868102 1_655
F28 Te3 1.868102 1_555
F29 Te2 1.871124 1_555
