# generated using pymatgen
data_GdP5O14
_symmetry_space_group_name_H-M   'P 1'
_cell_length_a   8.90798241
_cell_length_b   8.74197504
_cell_length_c   12.93921401
_cell_angle_alpha   89.55072034
_cell_angle_beta   90.00000000
_cell_angle_gamma   90.00000000
_symmetry_Int_Tables_number   1
_chemical_formula_structural   GdP5O14
_chemical_formula_sum   'Gd4 P20 O56'
_cell_volume   1007.58909093
_cell_formula_units_Z   4
loop_
 _symmetry_equiv_pos_site_id
 _symmetry_equiv_pos_as_xyz
  1  'x, y, z'
loop_
 _atom_site_type_symbol
 _atom_site_label
 _atom_site_symmetry_multiplicity
 _atom_site_fract_x
 _atom_site_fract_y
 _atom_site_fract_z
 _atom_site_occupancy
  Gd  Gd0  1  0.69114126  0.72309605  0.99894292  1
  Gd  Gd1  1  0.19114126  0.27690395  0.50105708  1
  Gd  Gd2  1  0.30885874  0.27690395  0.00105708  1
  Gd  Gd3  1  0.80885874  0.72309605  0.49894292  1
  P  P0  1  0.00478178  0.50710303  0.29824290  1
  P  P1  1  0.75561456  0.31545464  0.50013711  1
  P  P2  1  0.50247628  0.99415721  0.17164501  1
  P  P3  1  0.05145612  0.77176795  0.16437694  1
  P  P4  1  0.00247628  0.00584279  0.32835499  1
  P  P5  1  0.24438544  0.68454536  0.49986289  1
  P  P6  1  0.25561456  0.68454536  0.99986289  1
  P  P7  1  0.94854388  0.22823205  0.83562306  1
  P  P8  1  0.50478178  0.49289697  0.20175710  1
  P  P9  1  0.54768096  0.24439629  0.66533147  1
  P  P10  1  0.49752372  0.00584279  0.82835499  1
  P  P11  1  0.45231904  0.75560371  0.33466853  1
  P  P12  1  0.55145612  0.22823205  0.33562306  1
  P  P13  1  0.95231904  0.24439629  0.16533147  1
  P  P14  1  0.49521822  0.50710303  0.79824290  1
  P  P15  1  0.74438544  0.31545464  0.00013711  1
  P  P16  1  0.04768096  0.75560371  0.83466853  1
  P  P17  1  0.99752372  0.99415721  0.67164501  1
  P  P18  1  0.44854388  0.77176795  0.66437694  1
  P  P19  1  0.99521822  0.49289697  0.70175710  1
  O  O0  1  0.58008248  0.13230217  0.75646491  1
  O  O1  1  0.11686727  0.08318961  0.62072911  1
  O  O2  1  0.81363169  0.46890869  0.99547274  1
  O  O3  1  0.31299600  0.79172955  0.58943967  1
  O  O4  1  0.91807115  0.09321177  0.76098813  1
  O  O5  1  0.90401403  0.76735613  0.11523674  1
  O  O6  1  0.59370425  0.77794407  0.38986123  1
  O  O7  1  0.41807115  0.90678823  0.73901187  1
  O  O8  1  0.07387338  0.59323369  0.78957096  1
  O  O9  1  0.69216379  0.22170104  0.59915574  1
  O  O10  1  0.58112040  0.29098232  0.99949407  1
  O  O11  1  0.38298910  0.41164576  0.14850454  1
  O  O12  1  0.38313273  0.08318961  0.12072911  1
  O  O13  1  0.37610502  0.07893638  0.88722991  1
  O  O14  1  0.09598597  0.23264387  0.88476326  1
  O  O15  1  0.92612662  0.40676631  0.21042904  1
  O  O16  1  0.12389498  0.07893638  0.38722991  1
  O  O17  1  0.31363169  0.53109131  0.50452726  1
  O  O18  1  0.88220419  0.58630335  0.64738471  1
  O  O19  1  0.11701090  0.41164576  0.64850454  1
  O  O20  1  0.42612662  0.59323369  0.28957096  1
  O  O21  1  0.11779581  0.41369665  0.35261529  1
  O  O22  1  0.40401403  0.23264387  0.38476326  1
  O  O23  1  0.58192885  0.09321177  0.26098813  1
  O  O24  1  0.40267919  0.62574239  0.72750361  1
  O  O25  1  0.41887960  0.70901768  0.00050593  1
  O  O26  1  0.09370425  0.22205593  0.11013877  1
  O  O27  1  0.08008248  0.86769783  0.74353509  1
  O  O28  1  0.68636831  0.46890869  0.49547274  1
  O  O29  1  0.80783621  0.22170104  0.09915574  1
  O  O30  1  0.90629575  0.77794407  0.88986123  1
  O  O31  1  0.19216379  0.77829896  0.90084426  1
  O  O32  1  0.59598597  0.76735613  0.61523674  1
  O  O33  1  0.81299600  0.20827045  0.91056033  1
  O  O34  1  0.18636831  0.53109131  0.00452726  1
  O  O35  1  0.30783621  0.77829896  0.40084426  1
  O  O36  1  0.57387338  0.40676631  0.71042904  1
  O  O37  1  0.91991752  0.13230217  0.25646491  1
  O  O38  1  0.61686727  0.91681039  0.87927089  1
  O  O39  1  0.61701090  0.58835424  0.85149546  1
  O  O40  1  0.68700400  0.20827045  0.41056033  1
  O  O41  1  0.18700400  0.79172955  0.08943967  1
  O  O42  1  0.61779581  0.58630335  0.14738471  1
  O  O43  1  0.88313273  0.91681039  0.37927089  1
  O  O44  1  0.59732081  0.37425761  0.27249639  1
  O  O45  1  0.87610502  0.92106362  0.61277009  1
  O  O46  1  0.38220419  0.41369665  0.85261529  1
  O  O47  1  0.09732081  0.62574239  0.22750361  1
  O  O48  1  0.88298910  0.58835424  0.35149546  1
  O  O49  1  0.40629575  0.22205593  0.61013877  1
  O  O50  1  0.08112040  0.70901768  0.50050593  1
  O  O51  1  0.90267919  0.37425761  0.77249639  1
  O  O52  1  0.91887960  0.29098232  0.49949407  1
  O  O53  1  0.41991752  0.86769783  0.24353509  1
  O  O54  1  0.62389498  0.92106362  0.11277009  1
  O  O55  1  0.08192885  0.90678823  0.23901187  1
loop_
_geom_bond_atom_site_label_1
_geom_bond_atom_site_label_2
_geom_bond_distance
_geom_bond_site_symmetry_2
Gd0 O39 2.344928 1_555
Gd0 O42 2.347350 1_556
Gd0 O54 2.358627 1_556
Gd0 O38 2.379522 1_555
Gd0 O30 2.425851 1_555
Gd0 O25 2.428499 1_556
Gd0 O5 2.453353 1_556
Gd0 O2 2.476267 1_555
Gd1 O19 2.344928 1_555
Gd1 O21 2.347350 1_555
Gd1 O16 2.358627 1_555
Gd1 O1 2.379522 1_555
Gd1 O49 2.425851 1_555
Gd1 O52 2.428499 1_455
Gd1 O22 2.453353 1_555
Gd1 O17 2.476267 1_555
Gd2 O11 2.344928 1_555
Gd2 O46 2.347350 1_554
Gd2 O13 2.358627 1_554
Gd2 O12 2.379522 1_555
Gd2 O26 2.425851 1_555
Gd2 O10 2.428499 1_554
Gd2 O14 2.453353 1_554
Gd2 O34 2.476267 1_555
Gd3 O48 2.344928 1_555
Gd3 O18 2.347350 1_555
Gd3 O45 2.358627 1_555
Gd3 O43 2.379522 1_555
Gd3 O6 2.425851 1_555
Gd3 O50 2.428499 1_655
Gd3 O32 2.453353 1_555
Gd3 O28 2.476267 1_555
O0 P9 1.554329 1_555
O0 P10 1.616214 1_555
O1 P17 1.470366 1_445
O2 P15 1.477318 1_556
O3 P18 1.557541 1_555
O3 P5 1.616153 1_555
O4 P7 1.554794 1_555
O4 P17 1.613341 1_545
O5 P3 1.459866 1_655
O6 P11 1.461701 1_555
O7 P18 1.554794 1_555
O7 P10 1.613341 1_565
O8 P16 1.556511 1_555
O8 P19 1.602178 1_455
O9 P9 1.559394 1_555
O9 P1 1.617488 1_555
O10 P15 1.470046 1_556
O11 P8 1.471070 1_555
O12 P2 1.470366 1_545
O13 P10 1.471772 1_555
O14 P7 1.459866 1_455
O15 P13 1.556511 1_555
O15 P0 1.602178 1_655
O16 P4 1.471772 1_555
O17 P5 1.477318 1_555
O18 P19 1.471807 1_555
O19 P19 1.471070 1_455
O20 P11 1.556511 1_555
O20 P8 1.602178 1_555
O21 P0 1.471807 1_555
O22 P12 1.459866 1_555
O23 P12 1.554794 1_555
O23 P2 1.613341 1_545
O24 P18 1.564395 1_555
O24 P14 1.605646 1_555
O25 P6 1.470046 1_554
O26 P13 1.461701 1_455
O27 P16 1.554329 1_555
O27 P17 1.616214 1_455
O28 P1 1.477318 1_555
O29 P13 1.559394 1_555
O29 P15 1.617488 1_555
O30 P16 1.461701 1_655
O31 P16 1.559394 1_555
O31 P6 1.617488 1_555
O32 P18 1.459866 1_555
O33 P7 1.557541 1_555
O33 P15 1.616153 1_556
O34 P6 1.477318 1_554
O35 P11 1.559394 1_555
O35 P5 1.617488 1_555
O36 P9 1.556511 1_555
O36 P14 1.602178 1_555
O37 P13 1.554329 1_555
O37 P4 1.616214 1_655
O38 P10 1.470366 1_565
O39 P14 1.471070 1_555
O40 P12 1.557541 1_555
O40 P1 1.616153 1_555
O41 P3 1.557541 1_555
O41 P6 1.616153 1_554
O42 P8 1.471807 1_555
O43 P4 1.470366 1_665
O44 P12 1.564395 1_555
O44 P8 1.605646 1_555
O45 P17 1.471772 1_555
O46 P14 1.471807 1_555
O47 P3 1.564395 1_555
O47 P0 1.605646 1_555
O48 P0 1.471070 1_655
O49 P9 1.461701 1_555
O50 P5 1.470046 1_555
O51 P7 1.564395 1_555
O51 P19 1.605646 1_555
O52 P1 1.470046 1_555
O53 P11 1.554329 1_555
O53 P2 1.616214 1_555
O54 P2 1.471772 1_555
O55 P3 1.554794 1_555
O55 P4 1.613341 1_565
