# generated using pymatgen
data_Tl2S
_symmetry_space_group_name_H-M   'P 1'
_cell_length_a   9.67592250
_cell_length_b   9.67592250
_cell_length_c   9.67592253
_cell_angle_alpha   81.36948910
_cell_angle_beta   81.36948910
_cell_angle_gamma   81.36948570
_symmetry_Int_Tables_number   1
_chemical_formula_structural   Tl2S
_chemical_formula_sum   'Tl18 S9'
_cell_volume   877.92375788
_cell_formula_units_Z   9
loop_
 _symmetry_equiv_pos_site_id
 _symmetry_equiv_pos_as_xyz
  1  'x, y, z'
loop_
 _atom_site_type_symbol
 _atom_site_label
 _atom_site_symmetry_multiplicity
 _atom_site_fract_x
 _atom_site_fract_y
 _atom_site_fract_z
 _atom_site_occupancy
  Tl  Tl0  1  0.73358400  0.75896700  0.42756600  1
  Tl  Tl1  1  0.08553900  0.76456200  0.05514800  1
  Tl  Tl2  1  0.69231700  0.66065000  0.03621000  1
  Tl  Tl3  1  0.42708600  0.09498800  0.39718100  1
  Tl  Tl4  1  0.05514800  0.08553900  0.76456200  1
  Tl  Tl5  1  0.75896700  0.42756600  0.73358400  1
  Tl  Tl6  1  0.33343000  0.69964000  0.36576800  1
  Tl  Tl7  1  0.00123800  0.36544400  0.03151400  1
  Tl  Tl8  1  0.03151400  0.00123800  0.36544400  1
  Tl  Tl9  1  0.69964000  0.36576800  0.33343000  1
  Tl  Tl10  1  0.39718100  0.42708600  0.09498800  1
  Tl  Tl11  1  0.42756600  0.73358400  0.75896700  1
  Tl  Tl12  1  0.09498800  0.39718100  0.42708600  1
  Tl  Tl13  1  0.03621000  0.69231700  0.66065000  1
  Tl  Tl14  1  0.76456200  0.05514800  0.08553900  1
  Tl  Tl15  1  0.36544400  0.03151400  0.00123800  1
  Tl  Tl16  1  0.66065000  0.03621000  0.69231700  1
  Tl  Tl17  1  0.36576800  0.33343000  0.69964000  1
  S  S0  1  0.54094500  0.54094500  0.54094500  1
  S  S1  1  0.20775200  0.20775200  0.20775200  1
  S  S2  1  0.57637300  0.24139700  0.91117700  1
  S  S3  1  0.54265800  0.87454900  0.20968400  1
  S  S4  1  0.24139700  0.91117700  0.57637300  1
  S  S5  1  0.87454900  0.20968400  0.54265800  1
  S  S6  1  0.91117700  0.57637300  0.24139700  1
  S  S7  1  0.20968400  0.54265800  0.87454900  1
  S  S8  1  0.86263300  0.86263300  0.86263300  1
loop_
_geom_bond_atom_site_label_1
_geom_bond_atom_site_label_2
_geom_bond_distance
_geom_bond_site_symmetry_2
S0 Tl6 2.928733 1_555
S0 Tl9 2.928733 1_555
S0 Tl17 2.928733 1_555
S0 Tl5 2.999994 1_555
S0 Tl11 2.999994 1_555
S0 Tl0 2.999994 1_555
S1 Tl7 2.924999 1_555
S1 Tl15 2.924999 1_555
S1 Tl8 2.924999 1_555
S1 Tl3 2.987687 1_555
S1 Tl12 2.987687 1_555
S1 Tl10 2.987687 1_555
S2 Tl5 2.904162 1_555
S2 Tl14 2.904197 1_556
S2 Tl10 2.914827 1_556
S2 Tl15 3.037765 1_556
S2 Tl17 3.048807 1_555
S2 Tl16 3.057593 1_555
S3 Tl6 2.930388 1_555
S3 Tl2 2.934547 1_555
S3 Tl15 2.941400 1_565
S3 Tl14 2.971315 1_565
S3 Tl3 2.987970 1_565
S3 Tl0 2.991540 1_555
S4 Tl11 2.904162 1_555
S4 Tl4 2.904197 1_565
S4 Tl3 2.914827 1_565
S4 Tl8 3.037765 1_565
S4 Tl6 3.048807 1_555
S4 Tl13 3.057593 1_555
S5 Tl9 2.930388 1_555
S5 Tl16 2.934547 1_555
S5 Tl8 2.941400 1_655
S5 Tl4 2.971315 1_655
S5 Tl12 2.987970 1_655
S5 Tl5 2.991540 1_555
S6 Tl0 2.904162 1_555
S6 Tl1 2.904197 1_655
S6 Tl12 2.914827 1_655
S6 Tl7 3.037765 1_655
S6 Tl9 3.048807 1_555
S6 Tl2 3.057593 1_555
S7 Tl17 2.930388 1_555
S7 Tl13 2.934547 1_555
S7 Tl7 2.941400 1_556
S7 Tl1 2.971315 1_556
S7 Tl10 2.987970 1_556
S7 Tl11 2.991540 1_555
S8 Tl16 2.916668 1_565
S8 Tl13 2.916668 1_655
S8 Tl2 2.916668 1_556
S8 Tl1 3.013842 1_656
S8 Tl14 3.013842 1_566
S8 Tl4 3.013843 1_665
