# generated using pymatgen
data_Na3VF6
_symmetry_space_group_name_H-M   'P 1'
_cell_length_a   5.82943800
_cell_length_b   5.60017800
_cell_length_c   9.80549114
_cell_angle_alpha   55.83275764
_cell_angle_beta   90.00000000
_cell_angle_gamma   90.00000000
_symmetry_Int_Tables_number   1
_chemical_formula_structural   Na3VF6
_chemical_formula_sum   'Na6 V2 F12'
_cell_volume   264.85875346
_cell_formula_units_Z   2
loop_
 _symmetry_equiv_pos_site_id
 _symmetry_equiv_pos_as_xyz
  1  'x, y, z'
loop_
 _atom_site_type_symbol
 _atom_site_label
 _atom_site_symmetry_multiplicity
 _atom_site_fract_x
 _atom_site_fract_y
 _atom_site_fract_z
 _atom_site_occupancy
  Na  Na0  1  0.55404800  0.72529300  0.25943900  1
  Na  Na1  1  0.05404800  0.27470700  0.24056100  1
  Na  Na2  1  0.44595200  0.27470700  0.74056100  1
  Na  Na3  1  0.94595200  0.72529300  0.75943900  1
  Na  Na4  1  0.50000000  0.50000000  0.00000000  1
  Na  Na5  1  0.00000000  0.50000000  0.50000000  1
  V  V0  1  0.50000000  0.00000000  0.50000000  1
  V  V1  1  0.00000000  0.00000000  0.00000000  1
  F  F0  1  0.22008900  0.75884900  0.57442800  1
  F  F1  1  0.72008900  0.24115100  0.92557200  1
  F  F2  1  0.77991100  0.24115100  0.42557200  1
  F  F3  1  0.27991100  0.75884900  0.07442800  1
  F  F4  1  0.32170400  0.34159700  0.44899900  1
  F  F5  1  0.82170400  0.65840300  0.05100100  1
  F  F6  1  0.67829600  0.65840300  0.55100100  1
  F  F7  1  0.17829600  0.34159700  0.94899900  1
  F  F8  1  0.06294400  0.10864800  0.77271700  1
  F  F9  1  0.56294400  0.89135200  0.72728300  1
  F  F10  1  0.93705600  0.89135200  0.22728300  1
  F  F11  1  0.43705600  0.10864800  0.27271700  1
loop_
_geom_bond_atom_site_label_1
_geom_bond_atom_site_label_2
_geom_bond_distance
_geom_bond_site_symmetry_2
F0 V0 1.977857 1_565
F0 Na5 2.338442 1_555
F0 Na3 2.344622 1_455
F0 Na2 2.603337 1_555
F1 V1 1.977857 1_656
F1 Na4 2.338442 1_556
F1 Na2 2.344622 1_555
F1 Na3 2.603337 1_555
F2 V0 1.977857 1_555
F2 Na5 2.338442 1_655
F2 Na1 2.344622 1_655
F2 Na0 2.603337 1_555
F3 V1 1.977857 1_565
F3 Na4 2.338442 1_555
F3 Na0 2.344622 1_555
F3 Na1 2.603337 1_555
F4 V0 1.978737 1_555
F4 Na5 2.247720 1_555
F4 Na0 2.328186 1_555
F4 Na1 2.758991 1_555
F4 Na2 2.763221 1_555
F5 V1 1.978737 1_665
F5 Na4 2.247720 1_555
F5 Na1 2.328186 1_655
F5 Na0 2.758991 1_555
F5 Na3 2.763221 1_554
F6 V0 1.978737 1_565
F6 Na5 2.247720 1_655
F6 Na2 2.328186 1_555
F6 Na3 2.758991 1_555
F6 Na0 2.763221 1_555
F7 V1 1.978737 1_556
F7 Na4 2.247720 1_556
F7 Na3 2.328186 1_455
F7 Na2 2.758991 1_555
F7 Na1 2.763221 1_556
F8 V1 1.987086 1_556
F8 Na3 2.324870 1_445
F8 Na5 2.346483 1_555
F8 Na2 2.370640 1_555
F9 V0 1.987086 1_565
F9 Na2 2.324870 1_565
F9 Na4 2.346483 1_556
F9 Na3 2.370640 1_555
F10 V1 1.987086 1_665
F10 Na1 2.324870 1_665
F10 Na5 2.346483 1_655
F10 Na0 2.370640 1_555
F11 V0 1.987086 1_555
F11 Na0 2.324870 1_545
F11 Na4 2.346483 1_555
F11 Na1 2.370640 1_555
