# generated using pymatgen
data_K4CO4
_symmetry_space_group_name_H-M   'P 1'
_cell_length_a   6.54558107
_cell_length_b   6.54558107
_cell_length_c   6.54558107
_cell_angle_alpha   99.80941622
_cell_angle_beta   99.80941622
_cell_angle_gamma   131.24324069
_symmetry_Int_Tables_number   1
_chemical_formula_structural   K4CO4
_chemical_formula_sum   'K4 C1 O4'
_cell_volume   192.06874896
_cell_formula_units_Z   1
loop_
 _symmetry_equiv_pos_site_id
 _symmetry_equiv_pos_as_xyz
  1  'x, y, z'
loop_
 _atom_site_type_symbol
 _atom_site_label
 _atom_site_symmetry_multiplicity
 _atom_site_fract_x
 _atom_site_fract_y
 _atom_site_fract_z
 _atom_site_occupancy
  K  K0  1  0.83399900  0.83399900  0.35038300  1
  K  K1  1  0.51638400  0.16600100  0.00000000  1
  K  K2  1  0.16600100  0.51638400  0.00000000  1
  K  K3  1  0.48361600  0.48361600  0.64961700  1
  C  C0  1  0.00000000  0.00000000  0.00000000  1
  O  O0  1  0.25048800  0.25048800  0.19991400  1
  O  O1  1  0.74951200  0.94942600  0.00000000  1
  O  O2  1  0.94942600  0.74951200  0.00000000  1
  O  O3  1  0.05057400  0.05057400  0.80008600  1
loop_
_geom_bond_atom_site_label_1
_geom_bond_atom_site_label_2
_geom_bond_distance
_geom_bond_site_symmetry_2
K0 O2 2.616447 1_555
K0 O1 2.616447 1_555
K0 O3 2.681490 1_665
K0 O0 2.804393 1_665
K0 O0 2.889279 1_555
K1 O3 2.616447 1_554
K1 O0 2.616447 1_555
K1 O1 2.681490 1_545
K1 O2 2.804393 1_445
K1 O2 2.889279 1_555
K2 O3 2.616447 1_554
K2 O0 2.616447 1_555
K2 O2 2.681490 1_455
K2 O1 2.804393 1_445
K2 O1 2.889279 1_555
K3 O2 2.616447 1_556
K3 O1 2.616447 1_556
K3 O0 2.681490 1_555
K3 O3 2.804393 1_665
K3 O3 2.889279 1_555
C0 O0 1.442982 1_555
C0 O1 1.442982 1_445
C0 O2 1.442982 1_445
C0 O3 1.442982 1_554
