# generated using pymatgen
data_CrC
_symmetry_space_group_name_H-M   'P 1'
_cell_length_a   2.90486820
_cell_length_b   2.90486820
_cell_length_c   2.90486820
_cell_angle_alpha   60.00000000
_cell_angle_beta   60.00000000
_cell_angle_gamma   60.00000000
_symmetry_Int_Tables_number   1
_chemical_formula_structural   CrC
_chemical_formula_sum   'Cr1 C1'
_cell_volume   17.33262326
_cell_formula_units_Z   1
loop_
 _symmetry_equiv_pos_site_id
 _symmetry_equiv_pos_as_xyz
  1  'x, y, z'
loop_
 _atom_site_type_symbol
 _atom_site_label
 _atom_site_symmetry_multiplicity
 _atom_site_fract_x
 _atom_site_fract_y
 _atom_site_fract_z
 _atom_site_occupancy
  Cr  Cr0  1  0.50000000  0.50000000  0.50000000  1
  C  C0  1  0.00000000  0.00000000  0.00000000  1
loop_
_geom_bond_atom_site_label_1
_geom_bond_atom_site_label_2
_geom_bond_distance
_geom_bond_site_symmetry_2
C0 Cr0 2.054052 1_454
C0 Cr0 2.054052 1_544
C0 Cr0 2.054052 1_545
C0 Cr0 2.054052 1_445
C0 Cr0 2.054052 1_455
C0 Cr0 2.054052 1_554
