# generated using pymatgen
data_KVS2O9
_symmetry_space_group_name_H-M   'P 1'
_cell_length_a   5.06732200
_cell_length_b   9.04729200
_cell_length_c   16.62315700
_cell_angle_alpha   90.00000000
_cell_angle_beta   90.00000000
_cell_angle_gamma   90.00000000
_symmetry_Int_Tables_number   1
_chemical_formula_structural   KVS2O9
_chemical_formula_sum   'K4 V4 S8 O36'
_cell_volume   762.09763896
_cell_formula_units_Z   4
loop_
 _symmetry_equiv_pos_site_id
 _symmetry_equiv_pos_as_xyz
  1  'x, y, z'
loop_
 _atom_site_type_symbol
 _atom_site_label
 _atom_site_symmetry_multiplicity
 _atom_site_fract_x
 _atom_site_fract_y
 _atom_site_fract_z
 _atom_site_occupancy
  K  K0  1  0.24741800  0.07373600  0.05500100  1
  K  K1  1  0.75258200  0.57373600  0.44499900  1
  K  K2  1  0.25258200  0.92626400  0.55500100  1
  K  K3  1  0.74741800  0.42626400  0.94499900  1
  V  V0  1  0.76251400  0.34914400  0.69808200  1
  V  V1  1  0.73748600  0.65085600  0.19808200  1
  V  V2  1  0.26251400  0.15085600  0.30191800  1
  V  V3  1  0.23748600  0.84914400  0.80191800  1
  S  S0  1  0.26191600  0.37820300  0.57549700  1
  S  S1  1  0.74249900  0.74942400  0.68968800  1
  S  S2  1  0.73808400  0.87820300  0.92450300  1
  S  S3  1  0.75750100  0.25057600  0.18968800  1
  S  S4  1  0.25750100  0.24942400  0.81031200  1
  S  S5  1  0.23808400  0.62179700  0.07549700  1
  S  S6  1  0.76191600  0.12179700  0.42450300  1
  S  S7  1  0.24249900  0.75057600  0.31031200  1
  O  O0  1  0.74805400  0.97418100  0.99431600  1
  O  O1  1  0.25384500  0.11004400  0.76640000  1
  O  O2  1  0.74394100  0.72091600  0.93770400  1
  O  O3  1  0.25194600  0.47418100  0.50568400  1
  O  O4  1  0.03518100  0.42702500  0.63155900  1
  O  O5  1  0.50667800  0.42433000  0.62369700  1
  O  O6  1  0.23234000  0.75830200  0.39765100  1
  O  O7  1  0.99332200  0.57567000  0.12369700  1
  O  O8  1  0.25605900  0.22091600  0.56229600  1
  O  O9  1  0.26766000  0.24169800  0.89765100  1
  O  O10  1  0.73234000  0.74169800  0.60234900  1
  O  O11  1  0.73353800  0.82008300  0.17166100  1
  O  O12  1  0.24615500  0.88995600  0.26640000  1
  O  O13  1  0.99233400  0.15619300  0.21715600  1
  O  O14  1  0.24805400  0.52581900  0.00568400  1
  O  O15  1  0.98598900  0.84209700  0.71145900  1
  O  O16  1  0.51401100  0.15790300  0.21145900  1
  O  O17  1  0.75194600  0.02581900  0.49431600  1
  O  O18  1  0.24394100  0.77908400  0.06229600  1
  O  O19  1  0.01401100  0.34209700  0.78854100  1
  O  O20  1  0.23353800  0.67991700  0.82833900  1
  O  O21  1  0.49332200  0.92433000  0.87630300  1
  O  O22  1  0.00766600  0.65619300  0.28284400  1
  O  O23  1  0.53518100  0.07297500  0.36844100  1
  O  O24  1  0.50766600  0.84380700  0.71715600  1
  O  O25  1  0.46481900  0.57297500  0.13155900  1
  O  O26  1  0.75384500  0.38995600  0.23360000  1
  O  O27  1  0.74615500  0.61004400  0.73360000  1
  O  O28  1  0.26646200  0.32008300  0.32833900  1
  O  O29  1  0.48598900  0.65790300  0.28854100  1
  O  O30  1  0.76766000  0.25830200  0.10234900  1
  O  O31  1  0.96481900  0.92702500  0.86844100  1
  O  O32  1  0.00667800  0.07567000  0.37630300  1
  O  O33  1  0.49233400  0.34380700  0.78284400  1
  O  O34  1  0.75605900  0.27908400  0.43770400  1
  O  O35  1  0.76646200  0.17991700  0.67166100  1
loop_
_geom_bond_atom_site_label_1
_geom_bond_atom_site_label_2
_geom_bond_distance
_geom_bond_site_symmetry_2
K0 O18 2.668618 1_545
K0 O0 2.869149 1_444
K0 O0 2.874835 1_544
K0 O9 3.026773 1_554
K0 O16 3.028055 1_555
K0 O30 3.052537 1_455
K0 O13 3.081104 1_455
K0 O30 3.218310 1_555
K1 O34 2.668618 1_555
K1 O3 2.869149 1_655
K1 O3 2.874835 1_555
K1 O10 3.026773 1_555
K1 O29 3.028055 1_555
K1 O6 3.052537 1_655
K1 O22 3.081104 1_655
K1 O6 3.218310 1_555
K2 O8 2.668618 1_565
K2 O17 2.869149 1_565
K2 O17 2.874835 1_465
K2 O6 3.026773 1_555
K2 O15 3.028055 1_455
K2 O10 3.052537 1_555
K2 O24 3.081104 1_555
K2 O10 3.218310 1_455
K3 O2 2.668618 1_555
K3 O14 2.869149 1_556
K3 O14 2.874835 1_656
K3 O30 3.026773 1_556
K3 O19 3.028055 1_655
K3 O9 3.052537 1_555
K3 O33 3.081104 1_555
K3 O9 3.218310 1_655
O0 S2 1.450296 1_555
O1 S4 1.457165 1_555
O1 V3 2.434572 1_545
O2 S2 1.440148 1_555
O3 S0 1.450296 1_555
O4 S0 1.543909 1_555
O4 V0 1.904834 1_455
O5 S0 1.534423 1_555
O5 V0 1.916335 1_555
O6 S7 1.454443 1_555
O7 S5 1.534423 1_655
O7 V1 1.916335 1_555
O8 S0 1.440148 1_555
O9 S4 1.454443 1_555
O10 S1 1.454443 1_555
O11 V1 1.592922 1_555
O12 S7 1.457165 1_555
O12 V2 2.434572 1_565
O13 S3 1.534174 1_555
O13 V2 1.965210 1_655
O14 S5 1.450296 1_555
O15 S1 1.535031 1_555
O15 V3 1.972146 1_655
O16 S3 1.535031 1_555
O16 V2 1.972146 1_555
O17 S6 1.450296 1_555
O18 S5 1.440148 1_555
O19 S4 1.535031 1_555
O19 V0 1.972146 1_455
O20 V3 1.592922 1_555
O21 S2 1.534423 1_555
O21 V3 1.916335 1_555
O22 S7 1.534174 1_555
O22 V1 1.965210 1_455
O23 S6 1.543909 1_555
O23 V2 1.904834 1_555
O24 S1 1.534174 1_555
O24 V3 1.965210 1_555
O25 S5 1.543909 1_555
O25 V1 1.904834 1_555
O26 S3 1.457165 1_555
O26 V1 2.434572 1_555
O27 S1 1.457165 1_555
O27 V0 2.434572 1_555
O28 V2 1.592922 1_555
O29 S7 1.535031 1_555
O29 V1 1.972146 1_555
O30 S3 1.454443 1_555
O31 S2 1.543909 1_555
O31 V3 1.904834 1_655
O32 S6 1.534423 1_455
O32 V2 1.916335 1_555
O33 S4 1.534174 1_555
O33 V0 1.965210 1_555
O34 S6 1.440148 1_555
O35 V0 1.592922 1_555
