# generated using pymatgen
data_Cr3B7IO13
_symmetry_space_group_name_H-M   'P 1'
_cell_length_a   8.72642883
_cell_length_b   8.72642883
_cell_length_c   8.72642883
_cell_angle_alpha   60.00000000
_cell_angle_beta   60.00000000
_cell_angle_gamma   60.00000000
_symmetry_Int_Tables_number   1
_chemical_formula_structural   Cr3B7IO13
_chemical_formula_sum   'Cr6 B14 I2 O26'
_cell_volume   469.88832562
_cell_formula_units_Z   2
loop_
 _symmetry_equiv_pos_site_id
 _symmetry_equiv_pos_as_xyz
  1  'x, y, z'
loop_
 _atom_site_type_symbol
 _atom_site_label
 _atom_site_symmetry_multiplicity
 _atom_site_fract_x
 _atom_site_fract_y
 _atom_site_fract_z
 _atom_site_occupancy
  Cr  Cr0  1  0.00000000  0.50000000  0.50000000  1
  Cr  Cr1  1  0.50000000  0.00000000  0.50000000  1
  Cr  Cr2  1  0.50000000  0.50000000  0.00000000  1
  Cr  Cr3  1  0.00000000  0.00000000  0.50000000  1
  Cr  Cr4  1  0.50000000  0.00000000  0.00000000  1
  Cr  Cr5  1  0.00000000  0.50000000  0.00000000  1
  B  B0  1  0.25000000  0.75000000  0.75000000  1
  B  B1  1  0.42025300  0.42025300  0.42025300  1
  B  B2  1  0.75000000  0.25000000  0.75000000  1
  B  B3  1  0.92025300  0.92025300  0.23924000  1
  B  B4  1  0.25000000  0.25000000  0.75000000  1
  B  B5  1  0.23924000  0.92025300  0.92025300  1
  B  B6  1  0.75000000  0.25000000  0.25000000  1
  B  B7  1  0.25000000  0.75000000  0.25000000  1
  B  B8  1  0.73924000  0.42025300  0.42025300  1
  B  B9  1  0.75000000  0.75000000  0.25000000  1
  B  B10  1  0.42025300  0.73924000  0.42025300  1
  B  B11  1  0.42025300  0.42025300  0.73924000  1
  B  B12  1  0.92025300  0.23924000  0.92025300  1
  B  B13  1  0.92025300  0.92025300  0.92025300  1
  I  I0  1  0.25000000  0.25000000  0.25000000  1
  I  I1  1  0.75000000  0.75000000  0.75000000  1
  O  O0  1  0.79504800  0.24573800  0.56432700  1
  O  O1  1  0.24573800  0.39488700  0.56432700  1
  O  O2  1  0.39488700  0.79504800  0.56432700  1
  O  O3  1  0.50000000  0.50000000  0.50000000  1
  O  O4  1  0.29504800  0.06432700  0.74573800  1
  O  O5  1  0.06432700  0.29504800  0.89488700  1
  O  O6  1  0.56432700  0.79504800  0.24573800  1
  O  O7  1  0.00000000  0.00000000  0.00000000  1
  O  O8  1  0.79504800  0.56432700  0.39488700  1
  O  O9  1  0.79504800  0.39488700  0.24573800  1
  O  O10  1  0.74573800  0.89488700  0.29504800  1
  O  O11  1  0.74573800  0.29504800  0.06432700  1
  O  O12  1  0.24573800  0.79504800  0.39488700  1
  O  O13  1  0.89488700  0.29504800  0.74573800  1
  O  O14  1  0.24573800  0.56432700  0.79504800  1
  O  O15  1  0.29504800  0.89488700  0.06432700  1
  O  O16  1  0.39488700  0.56432700  0.24573800  1
  O  O17  1  0.39488700  0.24573800  0.79504800  1
  O  O18  1  0.06432700  0.74573800  0.29504800  1
  O  O19  1  0.29504800  0.74573800  0.89488700  1
  O  O20  1  0.74573800  0.06432700  0.89488700  1
  O  O21  1  0.56432700  0.39488700  0.79504800  1
  O  O22  1  0.89488700  0.06432700  0.29504800  1
  O  O23  1  0.56432700  0.24573800  0.39488700  1
  O  O24  1  0.06432700  0.89488700  0.74573800  1
  O  O25  1  0.89488700  0.74573800  0.06432700  1
loop_
_geom_bond_atom_site_label_1
_geom_bond_atom_site_label_2
_geom_bond_distance
_geom_bond_site_symmetry_2
Cr0 O8 2.115859 1_455
Cr0 O18 2.115859 1_555
Cr0 O13 2.115859 1_455
Cr0 O1 2.115859 1_555
Cr0 I0 3.085259 1_555
Cr0 I1 3.085259 1_455
Cr1 O10 2.115859 1_545
Cr1 O4 2.115859 1_555
Cr1 O23 2.115859 1_555
Cr1 O2 2.115859 1_545
Cr1 I0 3.085259 1_555
Cr1 I1 3.085259 1_545
Cr2 O21 2.115859 1_554
Cr2 O11 2.115859 1_555
Cr2 O19 2.115859 1_554
Cr2 O16 2.115859 1_555
Cr2 I0 3.085259 1_555
Cr2 I1 3.085259 1_554
Cr3 O24 2.115859 1_545
Cr3 O22 2.115859 1_455
Cr3 O0 2.115859 1_455
Cr3 O12 2.115859 1_545
Cr3 I0 3.085259 1_555
Cr3 I1 3.085259 1_445
Cr4 O6 2.115859 1_545
Cr4 O20 2.115859 1_554
Cr4 O17 2.115859 1_554
Cr4 O15 2.115859 1_545
Cr4 I0 3.085259 1_555
Cr4 I1 3.085259 1_544
Cr5 O5 2.115859 1_554
Cr5 O9 2.115859 1_455
Cr5 O14 2.115859 1_554
Cr5 O25 2.115859 1_455
Cr5 I0 3.085259 1_555
Cr5 I1 3.085259 1_454
B0 O24 1.479821 1_555
B0 O19 1.479821 1_555
B0 O2 1.479821 1_555
B0 O14 1.479821 1_555
B1 O1 1.446728 1_555
B1 O16 1.446728 1_555
B1 O23 1.446728 1_555
B1 O3 1.704616 1_555
B2 O13 1.479821 1_555
B2 O0 1.479821 1_555
B2 O20 1.479821 1_555
B2 O21 1.479821 1_555
B3 O10 1.446726 1_555
B3 O18 1.446731 1_655
B3 O22 1.446735 1_565
B3 O7 1.704609 1_665
B4 O1 1.479821 1_555
B4 O17 1.479821 1_555
B4 O4 1.479821 1_555
B4 O5 1.479821 1_555
B5 O19 1.446726 1_555
B5 O4 1.446731 1_565
B5 O15 1.446735 1_556
B5 O7 1.704609 1_566
B6 O23 1.479821 1_555
B6 O9 1.479821 1_555
B6 O22 1.479821 1_555
B6 O11 1.479821 1_555
B7 O12 1.479821 1_555
B7 O15 1.479821 1_555
B7 O16 1.479821 1_555
B7 O18 1.479821 1_555
B8 O9 1.446726 1_555
B8 O0 1.446731 1_555
B8 O8 1.446735 1_555
B8 O3 1.704609 1_555
B9 O10 1.479821 1_555
B9 O25 1.479821 1_555
B9 O8 1.479821 1_555
B9 O6 1.479821 1_555
B10 O12 1.446726 1_555
B10 O6 1.446731 1_555
B10 O2 1.446735 1_555
B10 O3 1.704609 1_555
B11 O17 1.446726 1_555
B11 O14 1.446731 1_555
B11 O21 1.446735 1_555
B11 O3 1.704609 1_555
B12 O13 1.446726 1_555
B12 O11 1.446731 1_556
B12 O5 1.446735 1_655
B12 O7 1.704609 1_656
B13 O25 1.446728 1_556
B13 O20 1.446728 1_565
B13 O24 1.446728 1_655
B13 O7 1.704616 1_666
