# generated using pymatgen
data_Dy5SbAu2
_symmetry_space_group_name_H-M   'P 1'
_cell_length_a   10.12410265
_cell_length_b   10.12410265
_cell_length_c   10.12410265
_cell_angle_alpha   137.19648690
_cell_angle_beta   137.19648690
_cell_angle_gamma   62.13587230
_symmetry_Int_Tables_number   1
_chemical_formula_structural   Dy5SbAu2
_chemical_formula_sum   'Dy10 Sb2 Au4'
_cell_volume   473.41911439
_cell_formula_units_Z   2
loop_
 _symmetry_equiv_pos_site_id
 _symmetry_equiv_pos_as_xyz
  1  'x, y, z'
loop_
 _atom_site_type_symbol
 _atom_site_label
 _atom_site_symmetry_multiplicity
 _atom_site_fract_x
 _atom_site_fract_y
 _atom_site_fract_z
 _atom_site_occupancy
  Dy  Dy0  1  0.66889300  0.16889300  0.16982200  1
  Dy  Dy1  1  0.49907100  0.66889300  0.50000000  1
  Dy  Dy2  1  0.83110700  0.00092900  0.50000000  1
  Dy  Dy3  1  0.16889300  0.99907100  0.50000000  1
  Dy  Dy4  1  0.50092900  0.33110700  0.50000000  1
  Dy  Dy5  1  0.50000000  0.50000000  0.00000000  1
  Dy  Dy6  1  0.99907100  0.49907100  0.83017800  1
  Dy  Dy7  1  0.00000000  0.00000000  0.00000000  1
  Dy  Dy8  1  0.33110700  0.83110700  0.83017800  1
  Dy  Dy9  1  0.00092900  0.50092900  0.16982200  1
  Sb  Sb0  1  0.75000000  0.75000000  0.00000000  1
  Sb  Sb1  1  0.25000000  0.25000000  0.00000000  1
  Au  Au0  1  0.62767000  0.87233000  0.50000000  1
  Au  Au1  1  0.37233000  0.12767000  0.50000000  1
  Au  Au2  1  0.87233000  0.37233000  0.24466000  1
  Au  Au3  1  0.12767000  0.62767000  0.75534000  1
loop_
_geom_bond_atom_site_label_1
_geom_bond_atom_site_label_2
_geom_bond_distance
_geom_bond_site_symmetry_2
Dy0 Sb1 3.119752 1_555
Dy0 Sb0 3.119752 1_545
Dy1 Sb0 3.119752 1_556
Dy1 Sb1 3.119752 1_555
Dy2 Sb1 3.119752 1_656
Dy2 Sb0 3.119752 1_545
Dy3 Sb1 3.119752 1_566
Dy3 Sb0 3.119752 1_455
Dy4 Sb1 3.119752 1_555
Dy4 Sb0 3.119752 1_556
Dy6 Sb1 3.119752 1_656
Dy6 Sb0 3.119752 1_556
Dy8 Sb1 3.119752 1_566
Dy8 Sb0 3.119752 1_556
Dy9 Sb1 3.119752 1_555
Dy9 Sb0 3.119752 1_455
Au0 Au1 2.668091 1_565
Au0 Dy1 2.905796 1_555
Au0 Dy2 2.905796 1_565
Au0 Dy5 2.908262 1_555
Au0 Dy7 2.908262 1_666
Au1 Dy3 2.905796 1_545
Au1 Dy4 2.905796 1_555
Au1 Dy7 2.908262 1_555
Au1 Dy5 2.908262 1_556
Au2 Au3 2.668091 1_655
Au2 Dy9 2.905796 1_655
Au2 Dy0 2.905796 1_555
Au2 Dy7 2.908262 1_655
Au2 Dy5 2.908262 1_555
Au3 Dy6 2.905796 1_455
Au3 Dy8 2.905796 1_555
Au3 Dy5 2.908262 1_556
Au3 Dy7 2.908262 1_566
