# generated using pymatgen
data_LiY6B3O14
_symmetry_space_group_name_H-M   'P 1'
_cell_length_a   15.63134400
_cell_length_b   8.43057200
_cell_length_c   12.06558169
_cell_angle_alpha   47.55691667
_cell_angle_beta   90.00000000
_cell_angle_gamma   90.00000000
_symmetry_Int_Tables_number   1
_chemical_formula_structural   LiY6B3O14
_chemical_formula_sum   'Li4 Y24 B12 O56'
_cell_volume   1173.34963269
_cell_formula_units_Z   4
loop_
 _symmetry_equiv_pos_site_id
 _symmetry_equiv_pos_as_xyz
  1  'x, y, z'
loop_
 _atom_site_type_symbol
 _atom_site_label
 _atom_site_symmetry_multiplicity
 _atom_site_fract_x
 _atom_site_fract_y
 _atom_site_fract_z
 _atom_site_occupancy
  Li  Li0  1  0.89420500  0.88361900  0.93623500  1
  Li  Li1  1  0.10579500  0.11638100  0.06376500  1
  Li  Li2  1  0.39420500  0.11638100  0.56376500  1
  Li  Li3  1  0.60579500  0.88361900  0.43623500  1
  Y  Y0  1  0.66632400  0.41250200  0.16508000  1
  Y  Y1  1  0.82641300  0.01494200  0.44387100  1
  Y  Y2  1  0.17831400  0.45123200  0.69267900  1
  Y  Y3  1  0.51344400  0.66469000  0.28373800  1
  Y  Y4  1  0.82168600  0.54876800  0.30732100  1
  Y  Y5  1  0.64423900  0.14702400  0.57576600  1
  Y  Y6  1  0.67831400  0.54876800  0.80732100  1
  Y  Y7  1  0.83367600  0.41250200  0.66508000  1
  Y  Y8  1  0.35576100  0.85297600  0.42423400  1
  Y  Y9  1  0.32168600  0.45123200  0.19267900  1
  Y  Y10  1  0.85576100  0.14702400  0.07576600  1
  Y  Y11  1  0.01344400  0.33531000  0.21626200  1
  Y  Y12  1  0.98655600  0.66469000  0.78373800  1
  Y  Y13  1  0.50377300  0.23925200  0.06123500  1
  Y  Y14  1  0.14423900  0.85297600  0.92423400  1
  Y  Y15  1  0.32641300  0.98505800  0.05612900  1
  Y  Y16  1  0.17358700  0.98505800  0.55612900  1
  Y  Y17  1  0.49622700  0.76074800  0.93876500  1
  Y  Y18  1  0.16632400  0.58749800  0.33492000  1
  Y  Y19  1  0.67358700  0.01494200  0.94387100  1
  Y  Y20  1  0.00377300  0.76074800  0.43876500  1
  Y  Y21  1  0.99622700  0.23925200  0.56123500  1
  Y  Y22  1  0.33367600  0.58749800  0.83492000  1
  Y  Y23  1  0.48655600  0.33531000  0.71626200  1
  B  B0  1  0.80805400  0.95591500  0.72222200  1
  B  B1  1  0.67257400  0.54311200  0.52826200  1
  B  B2  1  0.32742600  0.45688800  0.47173800  1
  B  B3  1  0.00013900  0.21113700  0.85438100  1
  B  B4  1  0.82742600  0.54311200  0.02826200  1
  B  B5  1  0.69194600  0.95591500  0.22222200  1
  B  B6  1  0.17257400  0.45688800  0.97173800  1
  B  B7  1  0.49986100  0.21113700  0.35438100  1
  B  B8  1  0.30805400  0.04408500  0.77777800  1
  B  B9  1  0.50013900  0.78886300  0.64561900  1
  B  B10  1  0.99986100  0.78886300  0.14561900  1
  B  B11  1  0.19194600  0.04408500  0.27777800  1
  O  O0  1  0.39417000  0.05126900  0.80051600  1
  O  O1  1  0.58531800  0.84905100  0.61872300  1
  O  O2  1  0.41468200  0.15094900  0.38127700  1
  O  O3  1  0.26921000  0.55610800  0.49539700  1
  O  O4  1  0.73079000  0.44389200  0.50460300  1
  O  O5  1  0.20566500  0.36310200  0.92111900  1
  O  O6  1  0.58696100  0.53190300  0.50784000  1
  O  O7  1  0.03503000  0.69723800  0.09317400  1
  O  O8  1  0.90988600  0.52653100  0.46365400  1
  O  O9  1  0.55096300  0.18115400  0.27699300  1
  O  O10  1  0.09817200  0.29789800  0.39524500  1
  O  O11  1  0.77677100  0.04715100  0.77568100  1
  O  O12  1  0.41303900  0.46809700  0.49216000  1
  O  O13  1  0.91303900  0.53190300  0.00784000  1
  O  O14  1  0.27677100  0.95284900  0.72431900  1
  O  O15  1  0.24983800  0.11898300  0.82202400  1
  O  O16  1  0.75016200  0.88101700  0.17797600  1
  O  O17  1  0.79433500  0.63689800  0.07888100  1
  O  O18  1  0.96497000  0.30276200  0.90682600  1
  O  O19  1  0.59011400  0.52653100  0.96365400  1
  O  O20  1  0.57980100  0.06516900  0.77698400  1
  O  O21  1  0.72322900  0.04715100  0.27568100  1
  O  O22  1  0.29433500  0.36310200  0.42111900  1
  O  O23  1  0.09011400  0.47346900  0.53634600  1
  O  O24  1  0.94903700  0.18115400  0.77699300  1
  O  O25  1  0.23079000  0.55610800  0.99539700  1
  O  O26  1  0.44903700  0.81884600  0.72300700  1
  O  O27  1  0.89417000  0.94873100  0.69948400  1
  O  O28  1  0.92019900  0.06516900  0.27698400  1
  O  O29  1  0.91468200  0.84905100  0.11872300  1
  O  O30  1  0.25016200  0.11898300  0.32202400  1
  O  O31  1  0.42019900  0.93483100  0.22301600  1
  O  O32  1  0.90182800  0.70210200  0.60475500  1
  O  O33  1  0.41499100  0.71391000  0.12486200  1
  O  O34  1  0.58500900  0.28609000  0.87513800  1
  O  O35  1  0.76784700  0.27347700  0.87809600  1
  O  O36  1  0.60583000  0.94873100  0.19948400  1
  O  O37  1  0.59817200  0.70210200  0.10475500  1
  O  O38  1  0.05096300  0.81884600  0.22300700  1
  O  O39  1  0.70566500  0.63689800  0.57888100  1
  O  O40  1  0.74983800  0.88101700  0.67797600  1
  O  O41  1  0.23215300  0.72652300  0.12190400  1
  O  O42  1  0.73215300  0.27347700  0.37809600  1
  O  O43  1  0.26784700  0.72652300  0.62190400  1
  O  O44  1  0.91499100  0.28609000  0.37513800  1
  O  O45  1  0.40182800  0.29789800  0.89524500  1
  O  O46  1  0.10583000  0.05126900  0.30051600  1
  O  O47  1  0.46497000  0.69723800  0.59317400  1
  O  O48  1  0.40988600  0.47346900  0.03634600  1
  O  O49  1  0.53503000  0.30276200  0.40682600  1
  O  O50  1  0.07980100  0.93483100  0.72301600  1
  O  O51  1  0.76921000  0.44389200  0.00460300  1
  O  O52  1  0.08531800  0.15094900  0.88127700  1
  O  O53  1  0.08696100  0.46809700  0.99216000  1
  O  O54  1  0.08500900  0.71391000  0.62486200  1
  O  O55  1  0.22322900  0.95284900  0.22431900  1
loop_
_geom_bond_atom_site_label_1
_geom_bond_atom_site_label_2
_geom_bond_distance
_geom_bond_site_symmetry_2
Li0 O29 2.041895 1_556
Li0 O24 2.052627 1_565
Li0 O17 2.212194 1_556
Li0 O11 2.327720 1_565
Li1 O52 2.041895 1_554
Li1 O38 2.052627 1_545
Li1 O5 2.212194 1_554
Li1 O55 2.327720 1_545
Li2 O2 2.041895 1_555
Li2 O26 2.052627 1_545
Li2 O22 2.212194 1_555
Li2 O14 2.327720 1_545
Li3 O1 2.041895 1_555
Li3 O9 2.052627 1_565
Li3 O39 2.212194 1_555
Li3 O21 2.327720 1_565
B0 O27 1.383246 1_555
B0 O11 1.384346 1_565
B0 O40 1.402418 1_555
B1 O6 1.375491 1_555
B1 O39 1.384739 1_555
B1 O4 1.389808 1_555
B2 O12 1.375491 1_555
B2 O22 1.384739 1_555
B2 O3 1.389808 1_555
B3 O24 1.375639 1_455
B3 O52 1.383230 1_555
B3 O18 1.399654 1_455
B4 O13 1.375491 1_555
B4 O17 1.384739 1_555
B4 O51 1.389808 1_555
B5 O36 1.383246 1_555
B5 O21 1.384346 1_565
B5 O16 1.402418 1_555
B6 O53 1.375491 1_555
B6 O5 1.384739 1_555
B6 O25 1.389808 1_555
B7 O9 1.375639 1_555
B7 O2 1.383230 1_555
B7 O49 1.399654 1_555
B8 O0 1.383246 1_555
B8 O14 1.384346 1_545
B8 O15 1.402418 1_555
B9 O26 1.375639 1_555
B9 O1 1.383230 1_555
B9 O47 1.399654 1_555
B10 O38 1.375639 1_655
B10 O29 1.383230 1_555
B10 O7 1.399654 1_655
B11 O46 1.383246 1_555
B11 O55 1.384346 1_545
B11 O30 1.402418 1_555
O0 Y23 2.359557 1_555
O0 Y17 2.410801 1_545
O1 Y5 2.381200 1_565
O1 Y6 2.434076 1_555
O2 Y8 2.381200 1_545
O2 Y9 2.434076 1_555
O3 Y2 2.371882 1_555
O3 Y18 2.390387 1_555
O3 Y8 2.435362 1_555
O4 Y4 2.371882 1_555
O4 Y7 2.390387 1_555
O4 Y5 2.435362 1_555
O5 Y2 2.359609 1_555
O5 Y22 2.451299 1_555
O6 Y3 2.408207 1_555
O6 Y23 2.430756 1_555
O7 Y14 2.276112 1_554
O7 Y11 2.348062 1_555
O8 Y4 2.239770 1_555
O8 Y7 2.257507 1_555
O8 Y21 2.285760 1_555
O8 Y20 2.311409 1_655
O9 Y0 2.307470 1_555
O9 Y13 2.416595 1_555
O10 Y16 2.281156 1_545
O10 Y18 2.286269 1_555
O10 Y21 2.336319 1_455
O10 Y11 2.365969 1_555
O11 Y19 2.459583 1_555
O11 Y7 2.551742 1_555
O12 Y23 2.408207 1_555
O12 Y3 2.430756 1_555
O13 Y12 2.408207 1_554
O13 Y11 2.430756 1_655
O14 Y16 2.459583 1_555
O14 Y22 2.551742 1_555
O15 Y14 2.354129 1_545
O15 Y2 2.373028 1_555
O15 Y15 2.526162 1_546
O16 Y10 2.354129 1_565
O16 Y4 2.373028 1_555
O16 Y19 2.526162 1_564
O17 Y4 2.359609 1_555
O17 Y0 2.451299 1_555
O18 Y10 2.276112 1_556
O18 Y12 2.348062 1_555
O19 Y6 2.239770 1_555
O19 Y0 2.257507 1_556
O19 Y13 2.285760 1_556
O19 Y17 2.311409 1_555
O20 Y5 2.263568 1_555
O20 Y19 2.287397 1_555
O20 Y17 2.311250 1_545
O20 Y23 2.365560 1_555
O21 Y1 2.459583 1_555
O21 Y0 2.551742 1_555
O22 Y9 2.359609 1_555
O22 Y18 2.451299 1_555
O23 Y2 2.239770 1_555
O23 Y18 2.257507 1_555
O23 Y20 2.285760 1_555
O23 Y21 2.311409 1_455
O24 Y7 2.307470 1_555
O24 Y21 2.416595 1_555
O25 Y9 2.371882 1_556
O25 Y22 2.390387 1_555
O25 Y14 2.435362 1_555
O26 Y22 2.307470 1_555
O26 Y17 2.416595 1_555
O27 Y12 2.359557 1_555
O27 Y21 2.410801 1_565
O28 Y10 2.263568 1_555
O28 Y1 2.287397 1_555
O28 Y20 2.311250 1_645
O28 Y11 2.365560 1_655
O29 Y10 2.381200 1_565
O29 Y4 2.434076 1_555
O30 Y8 2.354129 1_545
O30 Y9 2.373028 1_555
O30 Y16 2.526162 1_545
O31 Y8 2.263568 1_555
O31 Y15 2.287397 1_555
O31 Y13 2.311250 1_565
O31 Y3 2.365560 1_555
O32 Y1 2.281156 1_565
O32 Y7 2.286269 1_555
O32 Y20 2.336319 1_655
O32 Y12 2.365969 1_555
O33 Y3 2.267504 1_555
O33 Y9 2.292399 1_555
O33 Y15 2.296004 1_555
O33 Y17 2.369254 1_554
O34 Y23 2.267504 1_555
O34 Y6 2.292399 1_555
O34 Y19 2.296004 1_555
O34 Y13 2.369254 1_556
O35 Y7 2.229894 1_555
O35 Y19 2.284016 1_555
O35 Y10 2.298141 1_556
O35 Y6 2.323639 1_555
O36 Y3 2.359557 1_555
O36 Y13 2.410801 1_565
O37 Y19 2.281156 1_564
O37 Y0 2.286269 1_555
O37 Y17 2.336319 1_554
O37 Y3 2.365969 1_555
O38 Y18 2.307470 1_555
O38 Y20 2.416595 1_555
O39 Y6 2.359609 1_555
O39 Y7 2.451299 1_555
O40 Y5 2.354129 1_565
O40 Y6 2.373028 1_555
O40 Y1 2.526162 1_565
O41 Y18 2.229894 1_555
O41 Y15 2.284016 1_555
O41 Y14 2.298141 1_554
O41 Y9 2.323639 1_555
O42 Y0 2.229894 1_555
O42 Y1 2.284016 1_555
O42 Y5 2.298141 1_555
O42 Y4 2.323639 1_555
O43 Y22 2.229894 1_555
O43 Y16 2.284016 1_555
O43 Y8 2.298141 1_555
O43 Y2 2.323639 1_555
O44 Y11 2.267504 1_655
O44 Y4 2.292399 1_555
O44 Y1 2.296004 1_555
O44 Y21 2.369254 1_555
O45 Y15 2.281156 1_546
O45 Y22 2.286269 1_555
O45 Y13 2.336319 1_556
O45 Y23 2.365969 1_555
O46 Y11 2.359557 1_555
O46 Y20 2.410801 1_545
O47 Y8 2.276112 1_555
O47 Y23 2.348062 1_555
O48 Y9 2.239770 1_555
O48 Y22 2.257507 1_554
O48 Y17 2.285760 1_554
O48 Y13 2.311409 1_555
O49 Y5 2.276112 1_555
O49 Y3 2.348062 1_555
O50 Y14 2.263568 1_555
O50 Y16 2.287397 1_555
O50 Y21 2.311250 1_465
O50 Y12 2.365560 1_455
O51 Y6 2.371882 1_554
O51 Y0 2.390387 1_555
O51 Y10 2.435362 1_555
O52 Y14 2.381200 1_545
O52 Y2 2.434076 1_555
O53 Y11 2.408207 1_556
O53 Y12 2.430756 1_455
O54 Y12 2.267504 1_455
O54 Y2 2.292399 1_555
O54 Y16 2.296004 1_555
O54 Y20 2.369254 1_555
O55 Y15 2.459583 1_555
O55 Y18 2.551742 1_555
