# generated using pymatgen
data_RbPO3
_symmetry_space_group_name_H-M   'P 1'
_cell_length_a   7.34814703
_cell_length_b   7.34814703
_cell_length_c   4.86253100
_cell_angle_alpha   90.00000000
_cell_angle_beta   90.00000000
_cell_angle_gamma   131.17722545
_symmetry_Int_Tables_number   1
_chemical_formula_structural   RbPO3
_chemical_formula_sum   'Rb2 P2 O6'
_cell_volume   197.61800657
_cell_formula_units_Z   2
loop_
 _symmetry_equiv_pos_site_id
 _symmetry_equiv_pos_as_xyz
  1  'x, y, z'
loop_
 _atom_site_type_symbol
 _atom_site_label
 _atom_site_symmetry_multiplicity
 _atom_site_fract_x
 _atom_site_fract_y
 _atom_site_fract_z
 _atom_site_occupancy
  Rb  Rb0  1  0.34388400  0.65611600  0.25000000  1
  Rb  Rb1  1  0.65611600  0.34388400  0.75000000  1
  P  P0  1  0.07760300  0.92239700  0.25000000  1
  P  P1  1  0.92239700  0.07760300  0.75000000  1
  O  O0  1  0.07888400  0.34767100  0.75000000  1
  O  O1  1  0.65232900  0.92111600  0.75000000  1
  O  O2  1  0.92111600  0.65232900  0.25000000  1
  O  O3  1  0.34767100  0.07888400  0.25000000  1
  O  O4  1  0.00000000  0.00000000  0.50000000  1
  O  O5  1  0.00000000  0.00000000  0.00000000  1
loop_
_geom_bond_atom_site_label_1
_geom_bond_atom_site_label_2
_geom_bond_distance
_geom_bond_site_symmetry_2
O0 P1 1.501882 1_455
O0 Rb0 3.004718 1_555
O0 Rb0 3.004718 1_556
O0 Rb1 3.088311 1_455
O1 P1 1.501882 1_565
O1 Rb0 3.004718 1_555
O1 Rb0 3.004718 1_556
O1 Rb1 3.088311 1_565
O2 P0 1.501882 1_655
O2 Rb1 3.004718 1_554
O2 Rb1 3.004718 1_555
O2 Rb0 3.088311 1_655
O3 P0 1.501882 1_545
O3 Rb1 3.004718 1_555
O3 Rb1 3.004718 1_554
O3 Rb0 3.088311 1_545
O4 P1 1.598839 1_455
O4 P0 1.598839 1_545
O5 P1 1.598839 1_454
O5 P0 1.598839 1_545
