# generated using pymatgen
data_NpAgSeO5
_symmetry_space_group_name_H-M   'P 1'
_cell_length_a   7.21154200
_cell_length_b   8.45458556
_cell_length_c   8.45853187
_cell_angle_alpha   89.34535471
_cell_angle_beta   102.64802460
_cell_angle_gamma   102.90715958
_symmetry_Int_Tables_number   1
_chemical_formula_structural   NpAgSeO5
_chemical_formula_sum   'Np4 Ag4 Se4 O20'
_cell_volume   490.11154655
_cell_formula_units_Z   4
loop_
 _symmetry_equiv_pos_site_id
 _symmetry_equiv_pos_as_xyz
  1  'x, y, z'
loop_
 _atom_site_type_symbol
 _atom_site_label
 _atom_site_symmetry_multiplicity
 _atom_site_fract_x
 _atom_site_fract_y
 _atom_site_fract_z
 _atom_site_occupancy
  Np  Np0  1  0.50358600  0.75601700  0.25694400  1
  Np  Np1  1  0.38696100  0.71780000  0.73729200  1
  Np  Np2  1  0.61303900  0.28220000  0.26270800  1
  Np  Np3  1  0.49641400  0.24398300  0.74305600  1
  Ag  Ag0  1  0.81058100  0.02537800  0.00750000  1
  Ag  Ag1  1  0.18941900  0.97462200  0.99250000  1
  Ag  Ag2  1  0.88278000  0.09460500  0.60001300  1
  Ag  Ag3  1  0.11722000  0.90539500  0.39998700  1
  Se  Se0  1  0.09426000  0.36875000  0.88302000  1
  Se  Se1  1  0.90574000  0.63125000  0.11698000  1
  Se  Se2  1  0.84870900  0.71249400  0.65327000  1
  Se  Se3  1  0.15129100  0.28750600  0.34673000  1
  O  O0  1  0.41164300  0.70608600  0.96432600  1
  O  O1  1  0.14741700  0.74522800  0.17258500  1
  O  O2  1  0.20452600  0.21457700  0.84070100  1
  O  O3  1  0.79547400  0.78542300  0.15929900  1
  O  O4  1  0.36637300  0.73517900  0.50993000  1
  O  O5  1  0.21910600  0.17290700  0.51517800  1
  O  O6  1  0.88565900  0.51133100  0.27930600  1
  O  O7  1  0.52212000  0.98279800  0.22939300  1
  O  O8  1  0.85258300  0.25477200  0.82741500  1
  O  O9  1  0.63362700  0.26482100  0.49007000  1
  O  O10  1  0.26164300  0.20964800  0.21166300  1
  O  O11  1  0.08759500  0.82034100  0.72075000  1
  O  O12  1  0.49294100  0.53253100  0.27655100  1
  O  O13  1  0.47788000  0.01720200  0.77060700  1
  O  O14  1  0.50705900  0.46746900  0.72344900  1
  O  O15  1  0.91240500  0.17965900  0.27925000  1
  O  O16  1  0.58835700  0.29391400  0.03567400  1
  O  O17  1  0.78089400  0.82709300  0.48482200  1
  O  O18  1  0.11434100  0.48866900  0.72069400  1
  O  O19  1  0.73835700  0.79035200  0.78833700  1
loop_
_geom_bond_atom_site_label_1
_geom_bond_atom_site_label_2
_geom_bond_distance
_geom_bond_site_symmetry_2
Np0 O12 1.880732 1_555
Np0 O7 1.907172 1_555
Np0 O3 2.386988 1_555
Np0 O17 2.424302 1_555
Np0 O0 2.433968 1_554
Np0 O1 2.491790 1_555
Np0 O4 2.535764 1_555
Np1 O0 1.892926 1_555
Np1 O4 1.902730 1_555
Np1 O19 2.411816 1_555
Np1 O18 2.412792 1_555
Np1 O13 2.472006 1_565
Np1 O14 2.472273 1_555
Np1 O11 2.476501 1_555
Np2 O16 1.892926 1_555
Np2 O9 1.902730 1_555
Np2 O10 2.411816 1_555
Np2 O6 2.412792 1_555
Np2 O7 2.472006 1_545
Np2 O12 2.472273 1_555
Np2 O15 2.476501 1_555
Np3 O14 1.880732 1_555
Np3 O13 1.907172 1_555
Np3 O2 2.386988 1_555
Np3 O5 2.424302 1_555
Np3 O16 2.433968 1_556
Np3 O8 2.491790 1_555
Np3 O9 2.535764 1_555
Ag0 O3 2.383111 1_545
Ag0 O8 2.458771 1_554
Ag0 O15 2.534889 1_555
Ag0 O19 2.618241 1_544
Ag0 O13 2.756837 1_554
Ag1 O2 2.383111 1_565
Ag1 O1 2.458771 1_556
Ag1 O11 2.534889 1_555
Ag1 O10 2.618241 1_566
Ag1 O7 2.756837 1_556
Ag2 O17 2.366213 1_545
Ag2 O8 2.440415 1_555
Ag2 O9 2.560685 1_555
Ag2 O5 2.621047 1_655
Ag2 O2 2.735769 1_655
Ag2 O15 2.839848 1_555
Ag3 O5 2.366213 1_565
Ag3 O1 2.440415 1_555
Ag3 O4 2.560685 1_555
Ag3 O17 2.621047 1_455
Ag3 O3 2.735769 1_455
Ag3 O11 2.839848 1_555
O1 Se1 1.757402 1_455
O2 Se0 1.748672 1_555
O3 Se1 1.748672 1_555
O5 Se3 1.755853 1_555
O6 Se1 1.709914 1_555
O8 Se0 1.757402 1_655
O10 Se3 1.738163 1_555
O11 Se2 1.733359 1_455
O15 Se3 1.733359 1_655
O17 Se2 1.755853 1_555
O18 Se0 1.709914 1_555
O19 Se2 1.738163 1_555
