# generated using pymatgen
data_Y4CdRu
_symmetry_space_group_name_H-M   'P 1'
_cell_length_a   9.63316257
_cell_length_b   9.63317902
_cell_length_c   9.63330615
_cell_angle_alpha   60.00083161
_cell_angle_beta   60.00084453
_cell_angle_gamma   60.00040817
_symmetry_Int_Tables_number   1
_chemical_formula_structural   Y4CdRu
_chemical_formula_sum   'Y16 Cd4 Ru4'
_cell_volume   632.12901736
_cell_formula_units_Z   4
loop_
 _symmetry_equiv_pos_site_id
 _symmetry_equiv_pos_as_xyz
  1  'x, y, z'
loop_
 _atom_site_type_symbol
 _atom_site_label
 _atom_site_symmetry_multiplicity
 _atom_site_fract_x
 _atom_site_fract_y
 _atom_site_fract_z
 _atom_site_occupancy
  Y  Y0  1  0.43903327  0.43903134  0.06095220  1
  Y  Y1  1  0.06095973  0.06097393  0.43904796  1
  Y  Y2  1  0.43903563  0.06097318  0.06096074  1
  Y  Y3  1  0.84688077  0.84688219  0.84687135  1
  Y  Y4  1  0.68969397  0.31032559  0.31031221  1
  Y  Y5  1  0.06095258  0.43901853  0.43904500  1
  Y  Y6  1  0.31030925  0.68968400  0.68968890  1
  Y  Y7  1  0.31031253  0.31031398  0.68969772  1
  Y  Y8  1  0.84687394  0.84687447  0.45937943  1
  Y  Y9  1  0.68968542  0.68967637  0.31030914  1
  Y  Y10  1  0.45937175  0.84687989  0.84687094  1
  Y  Y11  1  0.06096126  0.43903935  0.06096258  1
  Y  Y12  1  0.84688169  0.45936316  0.84687371  1
  Y  Y13  1  0.43901561  0.06096335  0.43904022  1
  Y  Y14  1  0.31032601  0.68968828  0.31031376  1
  Y  Y15  1  0.68968911  0.31030962  0.68968486  1
  Cd  Cd0  1  0.07943378  0.76169095  0.07942758  1
  Cd  Cd1  1  0.07943298  0.07944029  0.76167988  1
  Cd  Cd2  1  0.76168536  0.07943869  0.07942878  1
  Cd  Cd3  1  0.07943767  0.07944495  0.07943175  1
  Ru  Ru0  1  0.63932110  0.08208169  0.63931352  1
  Ru  Ru1  1  0.63930753  0.63928849  0.63930441  1
  Ru  Ru2  1  0.63932775  0.63930736  0.08207588  1
  Ru  Ru3  1  0.08207231  0.63931034  0.63932647  1
loop_
_geom_bond_atom_site_label_1
_geom_bond_atom_site_label_2
_geom_bond_distance
_geom_bond_site_symmetry_2
Y0 Y12 3.462766 1_554
Y0 Y10 3.462793 1_554
Y0 Y6 3.600605 1_554
Y0 Y15 3.600628 1_554
Y0 Y14 3.600871 1_555
Y0 Y4 3.600889 1_555
Y0 Y2 3.641849 1_555
Y0 Y11 3.641941 1_555
Y0 Y13 3.642163 1_555
Y0 Y5 3.642245 1_555
Y1 Y3 3.462660 1_445
Y1 Y8 3.462776 1_445
Y1 Y15 3.600537 1_455
Y1 Y4 3.600636 1_455
Y1 Y6 3.600684 1_545
Y1 Y14 3.600793 1_545
Y1 Y5 3.641723 1_555
Y1 Y13 3.641786 1_555
Y1 Y11 3.642138 1_555
Y1 Y2 3.642195 1_555
Y2 Y3 3.462759 1_544
Y2 Y7 3.600598 1_554
Y2 Y9 3.600743 1_545
Y5 Y8 3.462827 1_455
Y5 Y9 3.600648 1_455
Y5 Y7 3.600829 1_555
Y10 Y13 3.462743 1_565
Y10 Y2 3.462754 1_566
Y11 Y12 3.462692 1_454
Y11 Y3 3.462722 1_454
Y11 Y4 3.600557 1_455
Y11 Y9 3.600607 1_455
Y11 Y7 3.600625 1_554
Y11 Y6 3.600669 1_554
Y11 Y2 3.642038 1_555
Y11 Y5 3.642042 1_555
Y12 Y5 3.462690 1_655
Y13 Y8 3.462856 1_545
Y13 Y6 3.600621 1_545
Y13 Y9 3.600789 1_545
Y13 Y7 3.600802 1_555
Y13 Y4 3.600963 1_555
Y13 Y5 3.641930 1_555
Y13 Y2 3.642012 1_555
Y14 Y2 3.600681 1_565
Y14 Y5 3.600974 1_555
Y15 Y5 3.600503 1_655
Y15 Y2 3.600663 1_556
Cd0 Cd2 3.060940 1_465
Cd0 Cd1 3.060987 1_564
Cd0 Cd3 3.061020 1_565
Cd0 Y11 3.295690 1_555
Cd0 Y0 3.295799 1_555
Cd0 Y5 3.295999 1_555
Cd0 Y3 3.471692 1_454
Cd0 Y10 3.471859 1_554
Cd0 Y8 3.471987 1_455
Cd0 Y6 3.497890 1_554
Cd0 Y9 3.497960 1_455
Cd0 Y14 3.498124 1_555
Cd1 Cd2 3.060983 1_456
Cd1 Cd3 3.061046 1_556
Cd1 Y1 3.295550 1_555
Cd1 Y5 3.295621 1_555
Cd1 Y13 3.295662 1_555
Cd1 Y3 3.471684 1_445
Cd1 Y12 3.471745 1_455
Cd1 Y10 3.471858 1_545
Cd1 Y15 3.497828 1_455
Cd1 Y6 3.497920 1_545
Cd1 Y7 3.497986 1_555
Cd2 Cd3 3.061004 1_655
Cd2 Y2 3.295646 1_555
Cd2 Y0 3.295731 1_555
Cd2 Y13 3.295954 1_555
Cd2 Y3 3.471718 1_544
Cd2 Y12 3.471784 1_554
Cd2 Y8 3.471997 1_545
Cd2 Y15 3.497889 1_554
Cd2 Y9 3.498021 1_545
Cd2 Y4 3.498109 1_555
Cd3 Y11 3.295711 1_555
Cd3 Y2 3.295751 1_555
Cd3 Y1 3.295953 1_555
Cd3 Y12 3.471737 1_454
Cd3 Y10 3.471850 1_544
Cd3 Y8 3.471971 1_445
Cd3 Y7 3.497869 1_554
Cd3 Y4 3.497944 1_455
Cd3 Y14 3.498037 1_545
Ru0 Y15 2.770114 1_555
Ru0 Y7 2.770408 1_555
Ru0 Y4 2.770446 1_555
Ru0 Y3 2.840186 1_545
Ru0 Y8 2.840340 1_545
Ru0 Y10 2.840399 1_545
Ru0 Y1 3.462860 1_655
Ru0 Y2 3.462985 1_556
Ru0 Y13 3.463303 1_555
Ru1 Y15 2.770167 1_555
Ru1 Y6 2.770289 1_555
Ru1 Y9 2.770355 1_555
Ru1 Y12 2.840362 1_555
Ru1 Y8 2.840423 1_555
Ru1 Y10 2.840461 1_555
Ru1 Y5 3.462903 1_655
Ru1 Y0 3.462976 1_556
Ru1 Y13 3.463147 1_565
Ru2 Y9 2.770105 1_555
Ru2 Y4 2.770274 1_555
Ru2 Y14 2.770403 1_555
Ru2 Y3 2.840262 1_554
Ru2 Y12 2.840377 1_554
Ru2 Y10 2.840470 1_554
Ru2 Y11 3.462790 1_655
Ru2 Y2 3.463061 1_565
Ru2 Y0 3.463251 1_555
Ru3 Y6 2.770174 1_555
Ru3 Y7 2.770356 1_555
Ru3 Y14 2.770547 1_555
Ru3 Y3 2.840177 1_455
Ru3 Y12 2.840304 1_455
Ru3 Y8 2.840354 1_455
Ru3 Y11 3.462886 1_556
Ru3 Y1 3.463062 1_565
Ru3 Y5 3.463268 1_555
