# generated using pymatgen
data_Th2Al2C3
_symmetry_space_group_name_H-M   'P 1'
_cell_length_a   3.50814759
_cell_length_b   5.43421856
_cell_length_c   11.58934185
_cell_angle_alpha   90.00000000
_cell_angle_beta   90.00000000
_cell_angle_gamma   90.00000000
_symmetry_Int_Tables_number   1
_chemical_formula_structural   Th2Al2C3
_chemical_formula_sum   'Th4 Al4 C6'
_cell_volume   220.93968523
_cell_formula_units_Z   2
loop_
 _symmetry_equiv_pos_site_id
 _symmetry_equiv_pos_as_xyz
  1  'x, y, z'
loop_
 _atom_site_type_symbol
 _atom_site_label
 _atom_site_symmetry_multiplicity
 _atom_site_fract_x
 _atom_site_fract_y
 _atom_site_fract_z
 _atom_site_occupancy
  Th  Th0  1  0.50000000  0.82318806  0.14916450  1
  Th  Th1  1  0.00000000  0.32318806  0.35083550  1
  Th  Th2  1  -0.00000000  0.67681194  0.64916450  1
  Th  Th3  1  0.50000000  0.17681194  0.85083550  1
  Al  Al0  1  0.50000000  0.81380555  0.41467876  1
  Al  Al1  1  0.00000000  0.31380555  0.08532124  1
  Al  Al2  1  0.50000000  0.18619445  0.58532124  1
  Al  Al3  1  -0.00000000  0.68619445  0.91467876  1
  C  C0  1  0.00000000  0.16909729  0.68771366  1
  C  C1  1  0.50000000  0.66909729  0.81228634  1
  C  C2  1  -0.00000000  0.83090271  0.31228634  1
  C  C3  1  -0.00000000  -0.00000000  -0.00000000  1
  C  C4  1  0.50000000  0.33090271  0.18771366  1
  C  C5  1  0.50000000  0.50000000  0.50000000  1
loop_
_geom_bond_atom_site_label_1
_geom_bond_atom_site_label_2
_geom_bond_distance
_geom_bond_site_symmetry_2
Al0 C5 1.971235 1_555
Al0 C2 2.119804 1_655
Al0 C2 2.119804 1_555
Al1 C3 1.971235 1_555
Al1 C4 2.119804 1_455
Al1 C4 2.119804 1_555
Al2 C5 1.971235 1_555
Al2 C0 2.119804 1_555
Al2 C0 2.119804 1_655
Al3 C3 1.971235 1_566
Al3 C1 2.119804 1_555
Al3 C1 2.119804 1_455
C0 Th3 2.579230 1_555
C0 Th3 2.579230 1_455
C0 Th2 2.712234 1_545
C0 Th2 2.794969 1_555
C1 Th2 2.579230 1_555
C1 Th2 2.579230 1_655
C1 Th3 2.712234 1_555
C1 Th3 2.794969 1_565
C2 Th0 2.579230 1_455
C2 Th0 2.579230 1_555
C2 Th1 2.712234 1_565
C2 Th1 2.794969 1_555
C3 Th3 2.643567 1_554
C3 Th3 2.643567 1_454
C3 Th0 2.643567 1_445
C3 Th0 2.643567 1_545
C4 Th1 2.579230 1_555
C4 Th1 2.579230 1_655
C4 Th0 2.712234 1_555
C4 Th0 2.794969 1_545
C5 Th1 2.643567 1_555
C5 Th1 2.643567 1_655
C5 Th2 2.643567 1_655
C5 Th2 2.643567 1_555
