# generated using pymatgen
data_YbTlSe2
_symmetry_space_group_name_H-M   'P 1'
_cell_length_a   4.26357996
_cell_length_b   4.26357996
_cell_length_c   7.51267526
_cell_angle_alpha   73.51532169
_cell_angle_beta   73.51532169
_cell_angle_gamma   60.00000059
_symmetry_Int_Tables_number   1
_chemical_formula_structural   YbTlSe2
_chemical_formula_sum   'Yb1 Tl1 Se2'
_cell_volume   111.74099374
_cell_formula_units_Z   1
loop_
 _symmetry_equiv_pos_site_id
 _symmetry_equiv_pos_as_xyz
  1  'x, y, z'
loop_
 _atom_site_type_symbol
 _atom_site_label
 _atom_site_symmetry_multiplicity
 _atom_site_fract_x
 _atom_site_fract_y
 _atom_site_fract_z
 _atom_site_occupancy
  Yb  Yb0  1  0.00000000  0.00000000  0.00000000  1
  Tl  Tl0  1  0.50000000  0.50000000  0.50000000  1
  Se  Se0  1  0.74365200  0.74365200  0.76904400  1
  Se  Se1  1  0.25634800  0.25634800  0.23095600  1
loop_
_geom_bond_atom_site_label_1
_geom_bond_atom_site_label_2
_geom_bond_distance
_geom_bond_site_symmetry_2
Se0 Yb0 2.957486 1_666
Se0 Yb0 2.957486 1_566
Se0 Yb0 2.957486 1_656
Se0 Tl0 3.115474 1_555
Se0 Tl0 3.115474 1_565
Se0 Tl0 3.115474 1_655
Se1 Yb0 2.957486 1_555
Se1 Yb0 2.957486 1_655
Se1 Yb0 2.957486 1_565
Se1 Tl0 3.115474 1_555
Se1 Tl0 3.115474 1_545
Se1 Tl0 3.115474 1_455
