# generated using pymatgen
data_SiO2
_symmetry_space_group_name_H-M   'P 1'
_cell_length_a   9.51578833
_cell_length_b   9.51578833
_cell_length_c   9.51578833
_cell_angle_alpha   94.17638640
_cell_angle_beta   94.17638640
_cell_angle_gamma   148.68752275
_symmetry_Int_Tables_number   1
_chemical_formula_structural   SiO2
_chemical_formula_sum   'Si8 O16'
_cell_volume   431.19300717
_cell_formula_units_Z   8
loop_
 _symmetry_equiv_pos_site_id
 _symmetry_equiv_pos_as_xyz
  1  'x, y, z'
loop_
 _atom_site_type_symbol
 _atom_site_label
 _atom_site_symmetry_multiplicity
 _atom_site_fract_x
 _atom_site_fract_y
 _atom_site_fract_z
 _atom_site_occupancy
  Si  Si0  1  0.92872100  0.92872100  0.39962000  1
  Si  Si1  1  0.47089900  0.07127900  0.00000000  1
  Si  Si2  1  0.50000000  0.65439000  0.15439000  1
  Si  Si3  1  0.52910100  0.52910100  0.60038000  1
  Si  Si4  1  0.34561000  0.50000000  0.84561000  1
  Si  Si5  1  0.65439000  0.50000000  0.15439000  1
  Si  Si6  1  0.50000000  0.34561000  0.84561000  1
  Si  Si7  1  0.07127900  0.47089900  0.00000000  1
  O  O0  1  0.25338000  0.25338000  0.84112800  1
  O  O1  1  0.08797200  0.38569600  0.85264100  1
  O  O2  1  0.25235900  0.25235900  0.46782000  1
  O  O3  1  0.41225100  0.41225100  0.15887200  1
  O  O4  1  0.21546100  0.74764100  0.00000000  1
  O  O5  1  0.23533100  0.53305500  0.14735900  1
  O  O6  1  0.53305500  0.23533100  0.14735900  1
  O  O7  1  0.78453900  0.78453900  0.53218000  1
  O  O8  1  0.46694500  0.61430400  0.70227600  1
  O  O9  1  0.91202800  0.76466900  0.29772400  1
  O  O10  1  0.58774900  0.74662000  0.00000000  1
  O  O11  1  0.74662000  0.58774900  0.00000000  1
  O  O12  1  0.74764100  0.21546100  0.00000000  1
  O  O13  1  0.76466900  0.91202800  0.29772400  1
  O  O14  1  0.61430400  0.46694500  0.70227600  1
  O  O15  1  0.38569600  0.08797200  0.85264100  1
loop_
_geom_bond_atom_site_label_1
_geom_bond_atom_site_label_2
_geom_bond_distance
_geom_bond_site_symmetry_2
O0 Si6 1.655342 1_555
O0 Si4 1.655342 1_555
O1 Si4 1.635878 1_555
O1 Si7 1.654015 1_556
O2 Si0 1.613019 1_445
O2 Si3 1.625940 1_555
O3 Si5 1.655345 1_555
O3 Si2 1.655345 1_555
O4 Si1 1.613019 1_565
O4 Si7 1.625940 1_555
O5 Si2 1.635878 1_555
O5 Si7 1.654015 1_555
O6 Si5 1.635878 1_555
O6 Si1 1.654015 1_555
O7 Si3 1.613019 1_555
O7 Si0 1.625940 1_555
O8 Si4 1.635878 1_555
O8 Si3 1.654015 1_555
O9 Si5 1.635878 1_555
O9 Si0 1.654015 1_555
O10 Si2 1.655343 1_555
O10 Si4 1.655343 1_554
O11 Si5 1.655343 1_555
O11 Si6 1.655343 1_554
O12 Si7 1.613019 1_655
O12 Si1 1.625940 1_555
O13 Si2 1.635878 1_555
O13 Si0 1.654015 1_555
O14 Si6 1.635878 1_555
O14 Si3 1.654015 1_555
O15 Si6 1.635878 1_555
O15 Si1 1.654015 1_556
