# generated using pymatgen
data_Na2V2ZnO7
_symmetry_space_group_name_H-M   'P 1'
_cell_length_a   8.40488300
_cell_length_b   8.40488300
_cell_length_c   5.19202500
_cell_angle_alpha   90.00000000
_cell_angle_beta   90.00000000
_cell_angle_gamma   90.00000000
_symmetry_Int_Tables_number   1
_chemical_formula_structural   Na2V2ZnO7
_chemical_formula_sum   'Na4 V4 Zn2 O14'
_cell_volume   366.77533245
_cell_formula_units_Z   2
loop_
 _symmetry_equiv_pos_site_id
 _symmetry_equiv_pos_as_xyz
  1  'x, y, z'
loop_
 _atom_site_type_symbol
 _atom_site_label
 _atom_site_symmetry_multiplicity
 _atom_site_fract_x
 _atom_site_fract_y
 _atom_site_fract_z
 _atom_site_occupancy
  Na  Na0  1  0.16481700  0.33518300  0.49194800  1
  Na  Na1  1  0.33518300  0.83518300  0.50805200  1
  Na  Na2  1  0.66481700  0.16481700  0.50805200  1
  Na  Na3  1  0.83518300  0.66481700  0.49194800  1
  V  V0  1  0.14496900  0.64496900  0.92328800  1
  V  V1  1  0.64496900  0.85503100  0.07671200  1
  V  V2  1  0.35503100  0.14496900  0.07671200  1
  V  V3  1  0.85503100  0.35503100  0.92328800  1
  Zn  Zn0  1  0.00000000  0.00000000  0.00000000  1
  Zn  Zn1  1  0.50000000  0.50000000  0.00000000  1
  O  O0  1  0.64758000  0.85242000  0.75362500  1
  O  O1  1  0.00000000  0.50000000  0.79843600  1
  O  O2  1  0.82919300  0.90465200  0.20593000  1
  O  O3  1  0.40465200  0.32919300  0.20593000  1
  O  O4  1  0.14758000  0.64758000  0.24637500  1
  O  O5  1  0.17080700  0.09534800  0.20593000  1
  O  O6  1  0.85242000  0.35242000  0.24637500  1
  O  O7  1  0.50000000  0.00000000  0.20156400  1
  O  O8  1  0.59534800  0.67080700  0.20593000  1
  O  O9  1  0.67080700  0.40465200  0.79407000  1
  O  O10  1  0.90465200  0.17080700  0.79407000  1
  O  O11  1  0.35242000  0.14758000  0.75362500  1
  O  O12  1  0.32919300  0.59534800  0.79407000  1
  O  O13  1  0.09534800  0.82919300  0.79407000  1
loop_
_geom_bond_atom_site_label_1
_geom_bond_atom_site_label_2
_geom_bond_distance
_geom_bond_site_symmetry_2
Na0 O3 2.504234 1_555
Na0 O5 2.504234 1_555
Na0 O1 2.523915 1_555
Na0 O11 2.611200 1_555
Na0 O6 2.922458 1_455
Na0 O4 2.922458 1_555
Na0 O12 3.025023 1_555
Na0 O10 3.025023 1_455
Na1 O12 2.504234 1_555
Na1 O13 2.504234 1_555
Na1 O7 2.523915 1_565
Na1 O4 2.611200 1_555
Na1 O11 2.922458 1_565
Na1 O0 2.922458 1_555
Na1 O5 3.025023 1_565
Na1 O8 3.025023 1_555
Na2 O9 2.504234 1_555
Na2 O10 2.504234 1_555
Na2 O7 2.523915 1_555
Na2 O6 2.611200 1_555
Na2 O0 2.922458 1_545
Na2 O11 2.922458 1_555
Na2 O2 3.025023 1_545
Na2 O3 3.025023 1_555
Na3 O8 2.504234 1_555
Na3 O2 2.504234 1_555
Na3 O1 2.523915 1_655
Na3 O0 2.611200 1_555
Na3 O6 2.922458 1_555
Na3 O4 2.922458 1_655
Na3 O13 3.025023 1_655
Na3 O9 3.025023 1_555
O0 V1 1.677763 1_556
O1 V0 1.841042 1_555
O1 V3 1.841042 1_455
O2 V1 1.738256 1_555
O2 Zn0 1.961220 1_665
O3 V2 1.738256 1_555
O3 Zn1 1.961220 1_555
O4 V0 1.677763 1_554
O5 V2 1.738256 1_555
O5 Zn0 1.961220 1_555
O6 V3 1.677763 1_554
O7 V2 1.841042 1_555
O7 V1 1.841042 1_545
O8 V1 1.738256 1_555
O8 Zn1 1.961220 1_555
O9 V3 1.738256 1_555
O9 Zn1 1.961220 1_556
O10 V3 1.738256 1_555
O10 Zn0 1.961220 1_656
O11 V2 1.677763 1_556
O12 V0 1.738256 1_555
O12 Zn1 1.961220 1_556
O13 V0 1.738256 1_555
O13 Zn0 1.961220 1_566
