# generated using pymatgen
data_Ba6Na2As2Ru2O17
_symmetry_space_group_name_H-M   'P 1'
_cell_length_a   5.94111430
_cell_length_b   5.94111430
_cell_length_c   30.13460900
_cell_angle_alpha   90.00000000
_cell_angle_beta   90.00000000
_cell_angle_gamma   120.00000337
_symmetry_Int_Tables_number   1
_chemical_formula_structural   Ba6Na2As2Ru2O17
_chemical_formula_sum   'Ba12 Na4 As4 Ru4 O34'
_cell_volume   921.15347262
_cell_formula_units_Z   2
loop_
 _symmetry_equiv_pos_site_id
 _symmetry_equiv_pos_as_xyz
  1  'x, y, z'
loop_
 _atom_site_type_symbol
 _atom_site_label
 _atom_site_symmetry_multiplicity
 _atom_site_fract_x
 _atom_site_fract_y
 _atom_site_fract_z
 _atom_site_occupancy
  Ba  Ba0  1  0.33333300  0.66666700  0.59233000  1
  Ba  Ba1  1  0.66666700  0.33333300  0.40767000  1
  Ba  Ba2  1  0.66666700  0.33333300  0.68060400  1
  Ba  Ba3  1  0.00000000  0.00000000  0.00000000  1
  Ba  Ba4  1  0.66666700  0.33333300  0.81939600  1
  Ba  Ba5  1  0.66666700  0.33333300  0.09233000  1
  Ba  Ba6  1  0.33333300  0.66666700  0.90767000  1
  Ba  Ba7  1  0.00000000  0.00000000  0.25000000  1
  Ba  Ba8  1  0.33333300  0.66666700  0.31939600  1
  Ba  Ba9  1  0.33333300  0.66666700  0.18060400  1
  Ba  Ba10  1  0.00000000  0.00000000  0.75000000  1
  Ba  Ba11  1  0.00000000  0.00000000  0.50000000  1
  Na  Na0  1  0.00000000  0.00000000  0.37637900  1
  Na  Na1  1  0.00000000  0.00000000  0.87637900  1
  Na  Na2  1  0.00000000  0.00000000  0.12362100  1
  Na  Na3  1  0.00000000  0.00000000  0.62362100  1
  As  As0  1  0.33333300  0.66666700  0.05171200  1
  As  As1  1  0.66666700  0.33333300  0.94828800  1
  As  As2  1  0.66666700  0.33333300  0.55171200  1
  As  As3  1  0.33333300  0.66666700  0.44828800  1
  Ru  Ru0  1  0.33333300  0.66666700  0.70370200  1
  Ru  Ru1  1  0.66666700  0.33333300  0.29629800  1
  Ru  Ru2  1  0.33333300  0.66666700  0.79629800  1
  Ru  Ru3  1  0.66666700  0.33333300  0.20370200  1
  O  O0  1  0.35377300  0.17688600  0.16998700  1
  O  O1  1  0.02801900  0.51400900  0.75000000  1
  O  O2  1  0.64663900  0.82332000  0.42744600  1
  O  O3  1  0.33333300  0.66666700  0.99501300  1
  O  O4  1  0.64622700  0.82311400  0.83001300  1
  O  O5  1  0.17688600  0.82311400  0.83001300  1
  O  O6  1  0.48599100  0.51400900  0.75000000  1
  O  O7  1  0.66666700  0.33333300  0.00498700  1
  O  O8  1  0.17668000  0.82332000  0.42744600  1
  O  O9  1  0.64663900  0.82332000  0.07255400  1
  O  O10  1  0.17688600  0.35377300  0.83001300  1
  O  O11  1  0.51400900  0.02801900  0.25000000  1
  O  O12  1  0.17668000  0.35336100  0.42744600  1
  O  O13  1  0.51400900  0.48599100  0.25000000  1
  O  O14  1  0.82332000  0.64663900  0.92744600  1
  O  O15  1  0.97198100  0.48599100  0.25000000  1
  O  O16  1  0.82332000  0.17668000  0.92744600  1
  O  O17  1  0.35336100  0.17668000  0.57255400  1
  O  O18  1  0.17668000  0.82332000  0.07255400  1
  O  O19  1  0.35336100  0.17668000  0.92744600  1
  O  O20  1  0.82332000  0.17668000  0.57255400  1
  O  O21  1  0.82332000  0.64663900  0.57255400  1
  O  O22  1  0.82311400  0.64622700  0.16998700  1
  O  O23  1  0.82311400  0.64622700  0.33001300  1
  O  O24  1  0.17688600  0.35377300  0.66998700  1
  O  O25  1  0.82311400  0.17688600  0.16998700  1
  O  O26  1  0.48599100  0.97198100  0.75000000  1
  O  O27  1  0.17688600  0.82311400  0.66998700  1
  O  O28  1  0.64622700  0.82311400  0.66998700  1
  O  O29  1  0.66666700  0.33333300  0.49501300  1
  O  O30  1  0.82311400  0.17688600  0.33001300  1
  O  O31  1  0.33333300  0.66666700  0.50498700  1
  O  O32  1  0.35377300  0.17688600  0.33001300  1
  O  O33  1  0.17668000  0.35336100  0.07255400  1
loop_
_geom_bond_atom_site_label_1
_geom_bond_atom_site_label_2
_geom_bond_distance
_geom_bond_site_symmetry_2
Ba0 O31 2.632047 1_555
Ba0 O28 2.840441 1_555
Ba0 O24 2.840441 1_555
Ba0 O27 2.840441 1_555
Ba0 O17 3.031491 1_565
Ba0 O21 3.031491 1_455
Ba0 O20 3.031497 1_565
Ba0 O20 3.031497 1_455
Ba0 O17 3.031503 1_555
Ba0 O21 3.031503 1_555
Ba1 O29 2.632047 1_555
Ba1 O23 2.840441 1_555
Ba1 O32 2.840441 1_555
Ba1 O30 2.840441 1_555
Ba1 O12 3.031491 1_655
Ba1 O2 3.031491 1_545
Ba1 O8 3.031497 1_545
Ba1 O8 3.031497 1_655
Ba1 O12 3.031503 1_555
Ba1 O2 3.031503 1_555
Ba2 O26 2.798192 1_545
Ba2 O1 2.798192 1_655
Ba2 O6 2.798192 1_555
Ba2 O28 2.989581 1_545
Ba2 O24 2.989581 1_655
Ba2 O27 2.989587 1_545
Ba2 O27 2.989587 1_655
Ba2 O24 2.989593 1_555
Ba2 O28 2.989593 1_555
Ba3 O18 2.843544 1_545
Ba3 O16 2.843544 1_454
Ba3 O9 2.843548 1_445
Ba3 O33 2.843548 1_555
Ba3 O19 2.843548 1_554
Ba3 O14 2.843548 1_444
Ba4 O26 2.798192 1_545
Ba4 O1 2.798192 1_655
Ba4 O6 2.798192 1_555
Ba4 O4 2.989581 1_545
Ba4 O10 2.989581 1_655
Ba4 O5 2.989587 1_545
Ba4 O5 2.989587 1_655
Ba4 O10 2.989593 1_555
Ba4 O4 2.989593 1_555
Ba5 O7 2.632047 1_555
Ba5 O0 2.840441 1_555
Ba5 O22 2.840441 1_555
Ba5 O25 2.840441 1_555
Ba5 O9 3.031491 1_545
Ba5 O33 3.031491 1_655
Ba5 O18 3.031497 1_655
Ba5 O18 3.031497 1_545
Ba5 O33 3.031503 1_555
Ba5 O9 3.031503 1_555
Ba6 O3 2.632047 1_555
Ba6 O10 2.840441 1_555
Ba6 O4 2.840441 1_555
Ba6 O5 2.840441 1_555
Ba6 O19 3.031491 1_565
Ba6 O14 3.031491 1_455
Ba6 O16 3.031497 1_565
Ba6 O16 3.031497 1_455
Ba6 O19 3.031503 1_555
Ba6 O14 3.031503 1_555
Ba7 O15 2.974050 1_445
Ba7 O11 2.974050 1_555
Ba7 O13 2.974053 1_445
Ba7 O13 2.974053 1_555
Ba7 O11 2.974056 1_455
Ba7 O15 2.974056 1_455
Ba7 O30 3.021071 1_455
Ba7 O25 3.021071 1_455
Ba7 O0 3.021074 1_555
Ba7 O22 3.021074 1_445
Ba7 O32 3.021074 1_555
Ba7 O23 3.021074 1_445
Ba8 O15 2.798192 1_455
Ba8 O11 2.798192 1_565
Ba8 O13 2.798192 1_555
Ba8 O23 2.989581 1_455
Ba8 O32 2.989581 1_565
Ba8 O30 2.989587 1_455
Ba8 O30 2.989587 1_565
Ba8 O23 2.989593 1_555
Ba8 O32 2.989593 1_555
Ba9 O15 2.798192 1_455
Ba9 O11 2.798192 1_565
Ba9 O13 2.798192 1_555
Ba9 O22 2.989581 1_455
Ba9 O0 2.989581 1_565
Ba9 O25 2.989587 1_455
Ba9 O25 2.989587 1_565
Ba9 O22 2.989593 1_555
Ba9 O0 2.989593 1_555
Ba10 O26 2.974050 1_445
Ba10 O1 2.974050 1_555
Ba10 O6 2.974053 1_445
Ba10 O6 2.974053 1_555
Ba10 O1 2.974056 1_545
Ba10 O26 2.974056 1_545
Ba10 O27 3.021071 1_545
Ba10 O5 3.021071 1_545
Ba10 O10 3.021074 1_555
Ba10 O28 3.021074 1_445
Ba10 O24 3.021074 1_555
Ba10 O4 3.021074 1_445
Ba11 O20 2.843544 1_455
Ba11 O8 2.843544 1_545
Ba11 O17 2.843548 1_555
Ba11 O12 2.843548 1_555
Ba11 O2 2.843548 1_445
Ba11 O21 2.843548 1_445
Na0 O30 2.294646 1_455
Na0 O23 2.294650 1_445
Na0 O32 2.294650 1_555
Na0 O8 2.381937 1_545
Na0 O2 2.381941 1_445
Na0 O12 2.381941 1_555
Na1 O5 2.294646 1_545
Na1 O4 2.294650 1_445
Na1 O10 2.294650 1_555
Na1 O16 2.381937 1_455
Na1 O19 2.381941 1_555
Na1 O14 2.381941 1_445
Na2 O25 2.294646 1_455
Na2 O0 2.294650 1_555
Na2 O22 2.294650 1_445
Na2 O18 2.381937 1_545
Na2 O33 2.381941 1_555
Na2 O9 2.381941 1_445
Na3 O27 2.294646 1_545
Na3 O24 2.294650 1_555
Na3 O28 2.294650 1_445
Na3 O20 2.381937 1_455
Na3 O17 2.381941 1_555
Na3 O21 2.381941 1_445
As0 O3 1.708602 1_554
As0 O9 1.730039 1_555
As0 O33 1.730039 1_555
As0 O18 1.730040 1_555
As1 O7 1.708602 1_556
As1 O14 1.730039 1_555
As1 O19 1.730039 1_555
As1 O16 1.730040 1_555
As2 O29 1.708602 1_555
As2 O21 1.730039 1_555
As2 O17 1.730039 1_555
As2 O20 1.730040 1_555
As3 O31 1.708602 1_555
As3 O2 1.730039 1_555
As3 O12 1.730039 1_555
As3 O8 1.730040 1_555
O0 Ru3 1.903674 1_555
O1 Ru0 2.100998 1_555
O1 Ru2 2.100998 1_555
O4 Ru2 1.903674 1_555
O5 Ru2 1.903674 1_555
O6 Ru2 2.101006 1_555
O6 Ru0 2.101006 1_555
O10 Ru2 1.903674 1_555
O11 Ru3 2.100998 1_555
O11 Ru1 2.100998 1_555
O13 Ru3 2.101006 1_555
O13 Ru1 2.101006 1_555
O15 Ru3 2.100998 1_555
O15 Ru1 2.100998 1_555
O22 Ru3 1.903674 1_555
O23 Ru1 1.903674 1_555
O24 Ru0 1.903674 1_555
O25 Ru3 1.903674 1_555
O26 Ru0 2.100998 1_555
O26 Ru2 2.100998 1_555
O27 Ru0 1.903674 1_555
O28 Ru0 1.903674 1_555
O30 Ru1 1.903674 1_555
O32 Ru1 1.903674 1_555
