# generated using pymatgen
data_Ti11Fe13O36
_symmetry_space_group_name_H-M   'P 1'
_cell_length_a   5.59520100
_cell_length_b   10.32905781
_cell_length_c   11.71034273
_cell_angle_alpha   102.30725734
_cell_angle_beta   97.98894399
_cell_angle_gamma   89.22339505
_symmetry_Int_Tables_number   1
_chemical_formula_structural   Ti11Fe13O36
_chemical_formula_sum   'Ti11 Fe13 O36'
_cell_volume   654.71676068
_cell_formula_units_Z   1
loop_
 _symmetry_equiv_pos_site_id
 _symmetry_equiv_pos_as_xyz
  1  'x, y, z'
loop_
 _atom_site_type_symbol
 _atom_site_label
 _atom_site_symmetry_multiplicity
 _atom_site_fract_x
 _atom_site_fract_y
 _atom_site_fract_z
 _atom_site_occupancy
  Ti  Ti0  1  0.82752000  0.06123200  0.23765500  1
  Ti  Ti1  1  0.67044000  0.69269500  0.76491600  1
  Ti  Ti2  1  0.67089600  0.19229700  0.76443700  1
  Ti  Ti3  1  0.99407400  0.14066800  0.57250600  1
  Ti  Ti4  1  0.34337500  0.52031300  0.09393300  1
  Ti  Ti5  1  0.66165700  0.47646800  0.90077700  1
  Ti  Ti6  1  0.00966400  0.85715300  0.43670600  1
  Ti  Ti7  1  0.32635300  0.31607100  0.23906400  1
  Ti  Ti8  1  0.33313500  0.80496700  0.23043000  1
  Ti  Ti9  1  0.98566700  0.63731100  0.56863500  1
  Ti  Ti10  1  0.65267700  0.97753700  0.90286000  1
  Fe  Fe0  1  0.33784800  0.02363400  0.09768200  1
  Fe  Fe1  1  0.01506700  0.35942800  0.43132700  1
  Fe  Fe2  1  0.49885500  0.39260700  0.56846500  1
  Fe  Fe3  1  0.50580100  0.10741500  0.42830300  1
  Fe  Fe4  1  0.16311500  0.22366800  0.90474900  1
  Fe  Fe5  1  0.15873100  0.72835100  0.90593600  1
  Fe  Fe6  1  0.17257900  0.43976400  0.76097300  1
  Fe  Fe7  1  0.83563400  0.55720200  0.23851100  1
  Fe  Fe8  1  0.83407800  0.27120000  0.09487500  1
  Fe  Fe9  1  0.84036800  0.77487800  0.09741700  1
  Fe  Fe10  1  0.49255600  0.89411800  0.57222400  1
  Fe  Fe11  1  0.50392300  0.61101100  0.42843200  1
  Fe  Fe12  1  0.16958900  0.93813100  0.76410000  1
  O  O0  1  0.86235900  0.17326700  0.38801100  1
  O  O1  1  0.07482000  0.12940100  0.17156300  1
  O  O2  1  0.23419300  0.02861700  0.50780700  1
  O  O3  1  0.35278400  0.27755600  0.39003200  1
  O  O4  1  0.52792100  0.02330200  0.73825800  1
  O  O5  1  0.52939100  0.52214700  0.73902600  1
  O  O6  1  0.65988200  0.21959600  0.60903700  1
  O  O7  1  0.76142500  0.47698800  0.49719100  1
  O  O8  1  0.89897100  0.35931000  0.84009400  1
  O  O9  1  0.01523400  0.61577800  0.72587700  1
  O  O10  1  0.01556700  0.11119000  0.72367500  1
  O  O11  1  0.19996800  0.35268000  0.07291100  1
  O  O12  1  0.18595700  0.84602200  0.07353700  1
  O  O13  1  0.14030900  0.30897700  0.59345700  1
  O  O14  1  0.31830200  0.05375400  0.93822500  1
  O  O15  1  0.31818000  0.55158700  0.94056400  1
  O  O16  1  0.43433700  0.30450900  0.82588800  1
  O  O17  1  0.43381200  0.80470500  0.82892200  1
  O  O18  1  0.56144000  0.19162600  0.17654800  1
  O  O19  1  0.57748400  0.69669100  0.17300600  1
  O  O20  1  0.67674900  0.44898900  0.05656500  1
  O  O21  1  0.68712800  0.95361500  0.06150800  1
  O  O22  1  0.85739300  0.69254400  0.40281700  1
  O  O23  1  0.80548700  0.64472900  0.92787300  1
  O  O24  1  0.80358300  0.14671600  0.93026400  1
  O  O25  1  0.99167000  0.38488800  0.26686100  1
  O  O26  1  0.98058800  0.90627400  0.27771900  1
  O  O27  1  0.11512000  0.63778700  0.16397800  1
  O  O28  1  0.22816100  0.53179400  0.50491300  1
  O  O29  1  0.33971200  0.78124700  0.38778900  1
  O  O30  1  0.47883300  0.47828200  0.26271900  1
  O  O31  1  0.48992400  0.97512500  0.25985700  1
  O  O32  1  0.64858200  0.72334000  0.61037200  1
  O  O33  1  0.76960100  0.97315800  0.49499600  1
  O  O34  1  0.89083400  0.86312600  0.83987800  1
  O  O35  1  0.13069700  0.81256400  0.59334900  1
loop_
_geom_bond_atom_site_label_1
_geom_bond_atom_site_label_2
_geom_bond_distance
_geom_bond_site_symmetry_2
Fe0 O14 1.945641 1_554
Fe0 O12 1.980448 1_545
Fe0 O1 2.003823 1_555
Fe0 O18 2.117422 1_555
Fe0 O31 2.127598 1_545
Fe0 O21 2.140784 1_545
Fe1 O25 1.985067 1_455
Fe1 O7 1.985376 1_455
Fe1 O0 2.047689 1_455
Fe1 O13 2.099846 1_555
Fe1 O28 2.109932 1_555
Fe1 O3 2.134455 1_555
Fe2 O7 2.073715 1_555
Fe2 O6 2.104835 1_555
Fe2 O5 2.140296 1_555
Fe2 O3 2.222457 1_555
Fe2 O28 2.235735 1_555
Fe2 O13 2.274725 1_555
Fe3 O3 2.051981 1_555
Fe3 O31 2.138117 1_545
Fe3 O2 2.142100 1_555
Fe3 O33 2.190307 1_545
Fe3 O6 2.244927 1_555
Fe3 O0 2.258455 1_555
Fe4 O14 2.035979 1_555
Fe4 O11 2.114719 1_556
Fe4 O16 2.146076 1_555
Fe4 O8 2.192157 1_455
Fe4 O10 2.239814 1_555
Fe4 O24 2.253766 1_455
Fe5 O12 2.063369 1_556
Fe5 O15 2.113018 1_555
Fe5 O17 2.127495 1_555
Fe5 O34 2.205303 1_455
Fe5 O9 2.225353 1_555
Fe5 O23 2.236174 1_455
Fe6 O9 2.103303 1_555
Fe6 O13 2.117575 1_555
Fe6 O8 2.156311 1_455
Fe6 O16 2.182307 1_555
Fe6 O15 2.221352 1_555
Fe6 O5 2.248957 1_555
Fe7 O25 2.041931 1_555
Fe7 O22 2.112820 1_555
Fe7 O27 2.150446 1_655
Fe7 O19 2.203942 1_555
Fe7 O30 2.242835 1_555
Fe7 O20 2.250443 1_555
Fe8 O24 2.063038 1_554
Fe8 O20 2.132165 1_555
Fe8 O18 2.166101 1_555
Fe8 O25 2.176905 1_555
Fe8 O1 2.221958 1_655
Fe8 O11 2.291497 1_655
Fe9 O19 2.073191 1_555
Fe9 O21 2.123253 1_555
Fe9 O23 2.132777 1_554
Fe9 O12 2.152579 1_655
Fe9 O27 2.248194 1_655
Fe9 O26 2.293972 1_555
Fe10 O32 2.063756 1_555
Fe10 O4 2.096236 1_565
Fe10 O33 2.150818 1_555
Fe10 O2 2.162866 1_565
Fe10 O35 2.268125 1_555
Fe10 O29 2.279355 1_555
Fe11 O29 2.086629 1_555
Fe11 O30 2.111952 1_555
Fe11 O28 2.140811 1_555
Fe11 O7 2.176969 1_555
Fe11 O22 2.242407 1_555
Fe11 O32 2.243424 1_555
Fe12 O10 2.089891 1_565
Fe12 O35 2.123408 1_555
Fe12 O34 2.128579 1_455
Fe12 O17 2.177149 1_555
Fe12 O14 2.189432 1_565
Fe12 O4 2.283693 1_565
O0 Ti0 1.876000 1_555
O0 Ti3 2.277078 1_555
O1 Ti0 1.888338 1_455
O1 Ti7 2.331909 1_555
O2 Ti3 1.893557 1_455
O2 Ti6 2.132858 1_545
O3 Ti7 1.879127 1_555
O4 Ti2 1.876825 1_555
O4 Ti10 2.105145 1_545
O5 Ti1 1.887189 1_555
O5 Ti5 2.083272 1_555
O6 Ti2 1.892628 1_555
O6 Ti3 2.091986 1_555
O7 Ti9 2.047041 1_555
O8 Ti5 1.893310 1_555
O8 Ti2 2.117360 1_555
O9 Ti9 1.885831 1_455
O9 Ti1 2.147263 1_455
O10 Ti3 1.846764 1_455
O10 Ti2 2.165738 1_455
O11 Ti4 1.871774 1_555
O11 Ti7 2.086332 1_555
O12 Ti8 2.033630 1_555
O13 Ti3 1.884910 1_455
O14 Ti10 2.080378 1_545
O15 Ti4 1.877650 1_556
O15 Ti5 2.137025 1_555
O16 Ti2 1.865671 1_555
O16 Ti5 2.151456 1_555
O17 Ti1 1.875609 1_555
O17 Ti10 2.131153 1_555
O18 Ti7 1.933659 1_555
O18 Ti0 2.145433 1_555
O19 Ti8 1.861630 1_555
O19 Ti4 2.213737 1_555
O20 Ti5 1.895560 1_554
O20 Ti4 2.065370 1_555
O21 Ti10 1.909078 1_554
O21 Ti0 2.168722 1_565
O22 Ti6 1.852533 1_655
O22 Ti9 2.164464 1_555
O23 Ti5 1.871022 1_555
O23 Ti1 2.109516 1_555
O24 Ti10 1.896085 1_545
O24 Ti2 2.126810 1_555
O25 Ti7 2.037801 1_655
O26 Ti0 1.920083 1_565
O26 Ti6 2.016541 1_655
O26 Ti8 2.300720 1_655
O27 Ti4 1.897653 1_555
O27 Ti8 2.072638 1_555
O28 Ti9 1.865538 1_455
O29 Ti8 1.905362 1_555
O29 Ti6 2.101530 1_555
O30 Ti7 1.840398 1_555
O30 Ti4 2.147119 1_555
O31 Ti8 1.917543 1_555
O31 Ti0 2.169626 1_565
O32 Ti1 1.889982 1_555
O32 Ti9 2.147407 1_555
O33 Ti6 1.889024 1_655
O33 Ti3 2.113650 1_565
O34 Ti10 1.890793 1_555
O34 Ti1 2.118817 1_555
O35 Ti9 1.941717 1_455
O35 Ti6 2.010459 1_555
