# generated using pymatgen
data_Na2SrV3O9
_symmetry_space_group_name_H-M   'P 1'
_cell_length_a   15.21248000
_cell_length_b   5.51257400
_cell_length_c   10.25788011
_cell_angle_alpha   82.25751790
_cell_angle_beta   90.00000000
_cell_angle_gamma   90.00000000
_symmetry_Int_Tables_number   1
_chemical_formula_structural   Na2SrV3O9
_chemical_formula_sum   'Na8 Sr4 V12 O36'
_cell_volume   852.38285327
_cell_formula_units_Z   4
loop_
 _symmetry_equiv_pos_site_id
 _symmetry_equiv_pos_as_xyz
  1  'x, y, z'
loop_
 _atom_site_type_symbol
 _atom_site_label
 _atom_site_symmetry_multiplicity
 _atom_site_fract_x
 _atom_site_fract_y
 _atom_site_fract_z
 _atom_site_occupancy
  Na  Na0  1  0.29182500  0.76535800  0.53051100  1
  Na  Na1  1  0.93338500  0.75158400  0.97762800  1
  Na  Na2  1  0.20817500  0.76535800  0.03051100  1
  Na  Na3  1  0.79182500  0.23464200  0.96948900  1
  Na  Na4  1  0.06661500  0.24841600  0.02237200  1
  Na  Na5  1  0.43338500  0.24841600  0.52237200  1
  Na  Na6  1  0.56661500  0.75158400  0.47762800  1
  Na  Na7  1  0.70817500  0.23464200  0.46948900  1
  Sr  Sr0  1  0.11390900  0.25931700  0.46793500  1
  Sr  Sr1  1  0.38609100  0.25931700  0.96793500  1
  Sr  Sr2  1  0.88609100  0.74068300  0.53206500  1
  Sr  Sr3  1  0.61390900  0.74068300  0.03206500  1
  V  V0  1  0.40068500  0.70917100  0.21553400  1
  V  V1  1  0.09931500  0.70917100  0.71553400  1
  V  V2  1  0.95257100  0.21117100  0.70449700  1
  V  V3  1  0.76328400  0.78551000  0.25555600  1
  V  V4  1  0.90068500  0.29082900  0.28446600  1
  V  V5  1  0.23671600  0.21449000  0.74444400  1
  V  V6  1  0.73671600  0.78551000  0.75555600  1
  V  V7  1  0.45257100  0.78882900  0.79550300  1
  V  V8  1  0.54742900  0.21117100  0.20449700  1
  V  V9  1  0.04742900  0.78882900  0.29550300  1
  V  V10  1  0.26328400  0.21449000  0.24444400  1
  V  V11  1  0.59931500  0.29082900  0.78446600  1
  O  O0  1  0.08975100  0.65496600  0.87868600  1
  O  O1  1  0.68730400  0.51719700  0.84223900  1
  O  O2  1  0.84707000  0.74996800  0.77796600  1
  O  O3  1  0.06033800  0.82451100  0.12961400  1
  O  O4  1  0.98483500  0.03040500  0.35389700  1
  O  O5  1  0.41024900  0.65496600  0.37868600  1
  O  O6  1  0.91024900  0.34503400  0.12131400  1
  O  O7  1  0.15293000  0.25003200  0.22203400  1
  O  O8  1  0.01516500  0.96959500  0.64610300  1
  O  O9  1  0.35877400  0.74974200  0.88812300  1
  O  O10  1  0.85877400  0.25025800  0.61187700  1
  O  O11  1  0.64122600  0.25025800  0.11187700  1
  O  O12  1  0.65293000  0.74996800  0.27796600  1
  O  O13  1  0.48483500  0.96959500  0.14610300  1
  O  O14  1  0.31269600  0.48280300  0.15776100  1
  O  O15  1  0.01378600  0.48334500  0.64904800  1
  O  O16  1  0.58975100  0.34503400  0.62131400  1
  O  O17  1  0.80905500  0.03415700  0.32960200  1
  O  O18  1  0.81269600  0.51719700  0.34223900  1
  O  O19  1  0.48621400  0.48334500  0.14904800  1
  O  O20  1  0.28201300  0.18978400  0.40983800  1
  O  O21  1  0.93966200  0.17548900  0.87038600  1
  O  O22  1  0.71798700  0.81021600  0.59016200  1
  O  O23  1  0.21798700  0.18978400  0.90983800  1
  O  O24  1  0.98621400  0.51665500  0.35095200  1
  O  O25  1  0.51516500  0.03040500  0.85389700  1
  O  O26  1  0.43966200  0.82451100  0.62961400  1
  O  O27  1  0.30905500  0.96584300  0.17039800  1
  O  O28  1  0.14122600  0.74974200  0.38812300  1
  O  O29  1  0.78201300  0.81021600  0.09016200  1
  O  O30  1  0.19094500  0.96584300  0.67039800  1
  O  O31  1  0.18730400  0.48280300  0.65776100  1
  O  O32  1  0.56033800  0.17548900  0.37038600  1
  O  O33  1  0.51378600  0.51665500  0.85095200  1
  O  O34  1  0.34707000  0.25003200  0.72203400  1
  O  O35  1  0.69094500  0.03415700  0.82960200  1
loop_
_geom_bond_atom_site_label_1
_geom_bond_atom_site_label_2
_geom_bond_distance
_geom_bond_site_symmetry_2
Na0 O30 2.462298 1_555
Na0 O31 2.471910 1_555
Na0 O20 2.499660 1_565
Na0 O26 2.507380 1_555
Na0 O5 2.509318 1_555
Na0 O28 2.724564 1_555
Na1 O2 2.433903 1_555
Na1 O21 2.446898 1_565
Na1 O6 2.535539 1_556
Na1 O3 2.547734 1_656
Na1 O29 2.615372 1_556
Na1 O0 2.667903 1_655
Na2 O27 2.462298 1_555
Na2 O14 2.471910 1_555
Na2 O23 2.499660 1_564
Na2 O3 2.507380 1_555
Na2 O0 2.509318 1_554
Na2 O9 2.724564 1_554
Na3 O35 2.462298 1_555
Na3 O1 2.471910 1_555
Na3 O29 2.499660 1_546
Na3 O21 2.507380 1_555
Na3 O6 2.509318 1_556
Na3 O11 2.724564 1_556
Na4 O7 2.433903 1_555
Na4 O3 2.446898 1_545
Na4 O0 2.535539 1_554
Na4 O21 2.547734 1_454
Na4 O23 2.615372 1_554
Na4 O6 2.667903 1_455
Na5 O34 2.433903 1_555
Na5 O26 2.446898 1_545
Na5 O5 2.535539 1_555
Na5 O32 2.547734 1_555
Na5 O20 2.615372 1_555
Na5 O16 2.667903 1_555
Na6 O12 2.433903 1_555
Na6 O32 2.446898 1_565
Na6 O16 2.535539 1_555
Na6 O26 2.547734 1_555
Na6 O22 2.615372 1_555
Na6 O5 2.667903 1_555
Na7 O17 2.462298 1_555
Na7 O18 2.471910 1_555
Na7 O22 2.499660 1_545
Na7 O32 2.507380 1_555
Na7 O16 2.509318 1_555
Na7 O10 2.724564 1_555
O0 V1 1.666321 1_555
O1 V6 1.785784 1_555
O1 V11 1.974668 1_555
O1 Sr3 2.683730 1_556
O2 V6 1.702153 1_555
O2 Sr2 2.598537 1_555
O3 V9 1.697865 1_555
O4 V9 1.803850 1_645
O4 V4 1.982790 1_555
O4 Sr0 2.685887 1_655
O4 Sr2 2.713105 1_545
O5 V0 1.666321 1_555
O6 V4 1.666321 1_555
O7 V10 1.702153 1_555
O7 Sr0 2.598537 1_555
O8 V2 1.803850 1_465
O8 V1 1.982790 1_555
O8 Sr2 2.685887 1_455
O8 Sr0 2.713105 1_565
O9 V7 1.711704 1_555
O9 Sr1 2.748731 1_555
O9 Sr1 3.058349 1_565
O10 V2 1.711704 1_555
O10 Sr2 2.748731 1_555
O10 Sr2 3.058349 1_545
O11 V8 1.711704 1_555
O11 Sr3 2.748731 1_555
O11 Sr3 3.058349 1_545
O12 V3 1.702153 1_555
O12 Sr3 2.598537 1_555
O13 V8 1.803850 1_565
O13 V0 1.982790 1_555
O13 Sr3 2.685887 1_555
O13 Sr1 2.713105 1_564
O14 V10 1.785784 1_555
O14 V0 1.974668 1_555
O14 Sr1 2.683730 1_554
O15 V2 1.792180 1_455
O15 V1 1.984063 1_555
O15 Sr2 2.601396 1_455
O15 Sr0 2.813325 1_555
O16 V11 1.666321 1_555
O17 V3 1.794726 1_545
O17 V4 1.995714 1_555
O17 Sr2 2.720038 1_545
O18 V3 1.785784 1_555
O18 V4 1.974668 1_555
O18 Sr2 2.683730 1_555
O19 V8 1.792180 1_555
O19 V0 1.984063 1_555
O19 Sr3 2.601396 1_555
O19 Sr1 2.813325 1_554
O20 V10 1.707598 1_555
O20 Sr0 2.665203 1_555
O21 V2 1.697865 1_555
O22 V6 1.707598 1_555
O22 Sr2 2.665203 1_555
O23 V5 1.707598 1_555
O23 Sr1 2.665203 1_555
O24 V9 1.792180 1_655
O24 V4 1.984063 1_555
O24 Sr0 2.601396 1_655
O24 Sr2 2.813325 1_555
O25 V7 1.803850 1_545
O25 V11 1.982790 1_555
O25 Sr1 2.685887 1_555
O25 Sr3 2.713105 1_546
O26 V7 1.697865 1_555
O27 V10 1.794726 1_565
O27 V0 1.995714 1_555
O27 Sr1 2.720038 1_564
O28 V9 1.711704 1_555
O28 Sr0 2.748731 1_555
O28 Sr0 3.058349 1_565
O29 V3 1.707598 1_555
O29 Sr3 2.665203 1_555
O30 V5 1.794726 1_565
O30 V1 1.995714 1_555
O30 Sr0 2.720038 1_565
O31 V5 1.785784 1_555
O31 V1 1.974668 1_555
O31 Sr0 2.683730 1_555
O32 V8 1.697865 1_555
O33 V7 1.792180 1_555
O33 V11 1.984063 1_555
O33 Sr1 2.601396 1_555
O33 Sr3 2.813325 1_556
O34 V5 1.702153 1_555
O34 Sr1 2.598537 1_555
O35 V6 1.794726 1_545
O35 V11 1.995714 1_555
O35 Sr3 2.720038 1_546
