# generated using pymatgen
data_Dy5Sn13
_symmetry_space_group_name_H-M   'P 1'
_cell_length_a   4.36167411
_cell_length_b   4.40874792
_cell_length_c   24.66411010
_cell_angle_alpha   95.17236338
_cell_angle_beta   95.05117203
_cell_angle_gamma   89.97344457
_symmetry_Int_Tables_number   1
_chemical_formula_structural   Dy5Sn13
_chemical_formula_sum   'Dy5 Sn13'
_cell_volume   470.50003978
_cell_formula_units_Z   1
loop_
 _symmetry_equiv_pos_site_id
 _symmetry_equiv_pos_as_xyz
  1  'x, y, z'
loop_
 _atom_site_type_symbol
 _atom_site_label
 _atom_site_symmetry_multiplicity
 _atom_site_fract_x
 _atom_site_fract_y
 _atom_site_fract_z
 _atom_site_occupancy
  Dy  Dy0  1  0.67203818  0.67179918  0.34394498  1
  Dy  Dy1  1  0.89687603  0.39685724  0.79415386  1
  Dy  Dy2  1  0.32793509  0.32817495  0.65600718  1
  Dy  Dy3  1  0.10313205  0.60315485  0.20588940  1
  Dy  Dy4  1  0.49999902  0.00000110  0.00001260  1
  Sn  Sn0  1  0.77905711  0.27961578  0.55884466  1
  Sn  Sn1  1  0.15710093  0.15709472  0.31414324  1
  Sn  Sn2  1  0.38325573  0.88352426  0.76717746  1
  Sn  Sn3  1  0.27930810  0.77983168  0.55940540  1
  Sn  Sn4  1  0.61671886  0.11648544  0.23280377  1
  Sn  Sn5  1  0.05290583  0.05321655  0.10600200  1
  Sn  Sn6  1  0.72072214  0.22019383  0.44058412  1
  Sn  Sn7  1  0.22094933  0.72040624  0.44114191  1
  Sn  Sn8  1  0.44737744  0.44749846  0.89480474  1
  Sn  Sn9  1  0.55261914  0.55248080  0.10520165  1
  Sn  Sn10  1  0.84290195  0.84289184  0.68586470  1
  Sn  Sn11  1  -0.00000201  0.49999625  0.00001193  1
  Sn  Sn12  1  0.94710508  0.94677584  0.89400641  1
loop_
_geom_bond_atom_site_label_1
_geom_bond_atom_site_label_2
_geom_bond_distance
_geom_bond_site_symmetry_2
Dy0 Sn1 3.183446 1_655
Dy0 Sn1 3.185483 1_555
Dy0 Sn1 3.186030 1_565
Dy0 Sn1 3.186792 1_665
Dy0 Sn7 3.225130 1_555
Dy0 Sn7 3.228326 1_655
Dy0 Sn6 3.231717 1_565
Dy0 Sn6 3.233655 1_555
Dy0 Sn4 3.498614 1_555
Dy0 Sn4 3.502580 1_565
Dy1 Sn2 3.168221 1_645
Dy1 Sn2 3.170802 1_545
Dy1 Sn2 3.171028 1_555
Dy1 Sn2 3.171259 1_655
Dy1 Sn8 3.288312 1_555
Dy1 Sn12 3.289397 1_555
Dy1 Sn8 3.290705 1_655
Dy1 Sn12 3.291868 1_545
Dy1 Sn10 3.444906 1_545
Dy1 Sn10 3.448429 1_555
Dy2 Sn10 3.183706 1_455
Dy2 Sn10 3.185753 1_555
Dy2 Sn10 3.186396 1_545
Dy2 Sn10 3.187147 1_445
Dy2 Sn0 3.224556 1_555
Dy2 Sn0 3.227658 1_455
Dy2 Sn3 3.230950 1_545
Dy2 Sn3 3.233085 1_555
Dy2 Sn2 3.499225 1_555
Dy2 Sn2 3.503074 1_545
Dy3 Sn4 3.168002 1_465
Dy3 Sn4 3.170567 1_565
Dy3 Sn4 3.170616 1_555
Dy3 Sn4 3.170863 1_455
Dy3 Sn9 3.289008 1_555
Dy3 Sn5 3.290036 1_555
Dy3 Sn9 3.291361 1_455
Dy3 Sn5 3.292494 1_565
Dy3 Sn1 3.444219 1_565
Dy3 Sn1 3.447787 1_555
Dy4 Sn11 3.100126 1_555
Dy4 Sn11 3.100150 1_645
Dy4 Sn11 3.101559 1_655
Dy4 Sn11 3.101592 1_545
Dy4 Sn9 3.387134 1_555
Dy4 Sn8 3.387522 1_544
Dy4 Sn5 3.387948 1_555
Dy4 Sn12 3.388322 1_544
Dy4 Sn5 3.388860 1_655
Dy4 Sn12 3.389115 1_444
Dy4 Sn9 3.390275 1_545
Dy4 Sn8 3.390586 1_554
Sn0 Sn6 2.893552 1_555
Sn0 Sn3 3.100046 1_555
Sn0 Sn3 3.100292 1_645
Sn0 Sn3 3.101311 1_655
Sn0 Sn3 3.101901 1_545
Sn1 Sn4 2.952127 1_455
Sn1 Sn4 2.952743 1_555
Sn3 Sn7 2.893624 1_555
Sn5 Sn9 3.098817 1_455
Sn5 Sn9 3.100938 1_555
Sn5 Sn9 3.101584 1_545
Sn5 Sn9 3.102337 1_445
Sn6 Sn7 3.100108 1_555
Sn6 Sn7 3.100230 1_645
Sn6 Sn7 3.101235 1_655
Sn6 Sn7 3.101976 1_545
Sn10 Sn2 2.951638 1_655
Sn10 Sn2 2.952351 1_555
Sn11 Sn9 3.372680 1_455
Sn11 Sn8 3.373032 1_554
Sn11 Sn9 3.374228 1_555
Sn11 Sn8 3.374528 1_454
Sn11 Sn5 3.403011 1_565
Sn11 Sn12 3.403277 1_444
Sn11 Sn5 3.404215 1_555
Sn11 Sn12 3.404525 1_454
Sn12 Sn8 3.098814 1_655
Sn12 Sn8 3.101017 1_555
Sn12 Sn8 3.101586 1_565
Sn12 Sn8 3.102258 1_665
