# generated using pymatgen
data_NbTl(BO3)2
_symmetry_space_group_name_H-M   'P 1'
_cell_length_a   7.43269109
_cell_length_b   7.82888590
_cell_length_c   9.46590527
_cell_angle_alpha   90.00000000
_cell_angle_beta   90.00000000
_cell_angle_gamma   90.00000000
_symmetry_Int_Tables_number   1
_chemical_formula_structural   NbTl(BO3)2
_chemical_formula_sum   'Nb4 Tl4 B8 O24'
_cell_volume   550.81809771
_cell_formula_units_Z   4
loop_
 _symmetry_equiv_pos_site_id
 _symmetry_equiv_pos_as_xyz
  1  'x, y, z'
loop_
 _atom_site_type_symbol
 _atom_site_label
 _atom_site_symmetry_multiplicity
 _atom_site_fract_x
 _atom_site_fract_y
 _atom_site_fract_z
 _atom_site_occupancy
  Nb  Nb0  1  0.23794667  0.84123764  0.13396201  1
  Nb  Nb1  1  0.73794667  0.65876236  0.63396201  1
  Nb  Nb2  1  0.76205333  0.15876236  0.63396201  1
  Nb  Nb3  1  0.26205333  0.34123764  0.13396201  1
  Tl  Tl0  1  0.26220145  0.00773410  0.74549058  1
  Tl  Tl1  1  0.76220145  0.49226590  0.24549058  1
  Tl  Tl2  1  0.73779855  0.99226590  0.24549058  1
  Tl  Tl3  1  0.23779855  0.50773410  0.74549058  1
  B  B0  1  0.42204414  0.21016100  0.42095050  1
  B  B1  1  0.09322364  0.26582821  0.42404380  1
  B  B2  1  0.90677636  0.73417179  0.92404380  1
  B  B3  1  0.40677636  0.76582821  0.42404380  1
  B  B4  1  0.07795586  0.71016100  0.42095050  1
  B  B5  1  0.57795586  0.78983900  0.92095050  1
  B  B6  1  0.92204414  0.28983900  0.92095050  1
  B  B7  1  0.59322364  0.23417179  0.92404380  1
  O  O0  1  0.44021259  0.85859842  0.99724101  1
  O  O1  1  0.68590131  0.43210417  0.63469270  1
  O  O2  1  0.09092646  0.35120612  0.29938976  1
  O  O3  1  0.59092646  0.14879388  0.79938976  1
  O  O4  1  0.25378822  0.21423236  0.48729260  1
  O  O5  1  0.05978741  0.35859842  0.99724101  1
  O  O6  1  0.05500270  0.76729306  0.28671302  1
  O  O7  1  0.74621178  0.78576764  0.98729260  1
  O  O8  1  0.43760966  0.27232759  0.99002303  1
  O  O9  1  0.44499730  0.26729306  0.28671302  1
  O  O10  1  0.06239034  0.77232759  0.99002303  1
  O  O11  1  0.40907354  0.85120612  0.29938976  1
  O  O12  1  0.94499730  0.23270694  0.78671302  1
  O  O13  1  0.94021259  0.64140158  0.49724101  1
  O  O14  1  0.93760966  0.22767241  0.49002303  1
  O  O15  1  0.18590131  0.06789583  0.13469270  1
  O  O16  1  0.81409869  0.93210417  0.63469270  1
  O  O17  1  0.31409869  0.56789583  0.13469270  1
  O  O18  1  0.55500270  0.73270694  0.78671302  1
  O  O19  1  0.75378822  0.28576764  0.98729260  1
  O  O20  1  0.56239034  0.72767241  0.49002303  1
  O  O21  1  0.24621178  0.71423236  0.48729260  1
  O  O22  1  0.55978741  0.14140158  0.49724101  1
  O  O23  1  0.90907354  0.64879388  0.79938976  1
loop_
_geom_bond_atom_site_label_1
_geom_bond_atom_site_label_2
_geom_bond_distance
_geom_bond_site_symmetry_2
Nb0 O15 1.816170 1_565
Nb0 O10 1.962177 1_554
Nb0 O0 1.988353 1_554
Nb0 O11 2.018916 1_555
Nb0 O6 2.067558 1_555
Nb0 O17 2.213562 1_555
Nb1 O1 1.816170 1_555
Nb1 O20 1.962177 1_555
Nb1 O13 1.988353 1_555
Nb1 O23 2.018916 1_555
Nb1 O18 2.067558 1_555
Nb1 O16 2.213562 1_555
Nb2 O16 1.816170 1_545
Nb2 O14 1.962177 1_555
Nb2 O22 1.988353 1_555
Nb2 O3 2.018916 1_555
Nb2 O12 2.067558 1_555
Nb2 O1 2.213562 1_555
Nb3 O17 1.816170 1_555
Nb3 O8 1.962177 1_554
Nb3 O5 1.988353 1_554
Nb3 O2 2.018916 1_555
Nb3 O9 2.067558 1_555
Nb3 O15 2.213562 1_555
B0 O9 1.357863 1_555
B0 O22 1.363621 1_555
B0 O4 1.399775 1_555
B1 O14 1.347996 1_455
B1 O2 1.356238 1_555
B1 O4 1.394949 1_555
B2 O10 1.347996 1_655
B2 O23 1.356238 1_555
B2 O7 1.394949 1_555
B3 O20 1.347996 1_555
B3 O11 1.356238 1_555
B3 O21 1.394949 1_555
B4 O6 1.357863 1_555
B4 O13 1.363621 1_455
B4 O21 1.399775 1_555
B5 O18 1.357863 1_555
B5 O0 1.363621 1_555
B5 O7 1.399775 1_555
B6 O12 1.357863 1_555
B6 O5 1.363621 1_655
B6 O19 1.399775 1_555
B7 O8 1.347996 1_555
B7 O3 1.356238 1_555
B7 O19 1.394949 1_555
O2 Tl1 2.729404 1_455
O3 Tl0 2.729404 1_555
O11 Tl2 2.729404 1_555
O23 Tl3 2.729404 1_655
