# generated using pymatgen
data_Zr(MoO4)2
_symmetry_space_group_name_H-M   'P 1'
_cell_length_a   5.87978578
_cell_length_b   5.87978528
_cell_length_c   6.01198654
_cell_angle_alpha   90.00000000
_cell_angle_beta   90.00000000
_cell_angle_gamma   120.00000280
_symmetry_Int_Tables_number   1
_chemical_formula_structural   Zr(MoO4)2
_chemical_formula_sum   'Zr1 Mo2 O8'
_cell_volume   179.99962050
_cell_formula_units_Z   1
loop_
 _symmetry_equiv_pos_site_id
 _symmetry_equiv_pos_as_xyz
  1  'x, y, z'
loop_
 _atom_site_type_symbol
 _atom_site_label
 _atom_site_symmetry_multiplicity
 _atom_site_fract_x
 _atom_site_fract_y
 _atom_site_fract_z
 _atom_site_occupancy
  Zr  Zr0  1  0.00000000  0.00000000  -0.00000000  1
  Mo  Mo0  1  0.33333300  0.66666600  0.29500510  1
  Mo  Mo1  1  0.66666600  0.33333300  0.70499490  1
  O  O0  1  0.66666600  0.33333300  0.42271375  1
  O  O1  1  0.33333300  0.66666600  0.57728525  1
  O  O2  1  0.83230258  0.16769742  0.80255328  1
  O  O3  1  0.16769642  0.83230258  0.19744772  1
  O  O4  1  0.16769642  0.33539085  0.19744772  1
  O  O5  1  0.83230258  0.66460915  0.80255328  1
  O  O6  1  0.33539085  0.16769742  0.80255328  1
  O  O7  1  0.66460815  0.83230258  0.19744772  1
loop_
_geom_bond_atom_site_label_1
_geom_bond_atom_site_label_2
_geom_bond_distance
_geom_bond_site_symmetry_2
Mo0 O1 1.697064 1_555
Mo0 O3 1.785913 1_555
Mo0 O4 1.785923 1_555
Mo0 O7 1.785923 1_555
Mo1 O0 1.697070 1_555
Mo1 O2 1.785910 1_555
Mo1 O6 1.785925 1_555
Mo1 O5 1.785929 1_555
O2 Zr0 2.079860 1_656
O3 Zr0 2.079859 1_565
O4 Zr0 2.079846 1_555
O5 Zr0 2.079843 1_666
O6 Zr0 2.079843 1_556
O7 Zr0 2.079850 1_665
