# generated using pymatgen
data_SiO2
_symmetry_space_group_name_H-M   'P 1'
_cell_length_a   10.43603892
_cell_length_b   10.43603892
_cell_length_c   10.43603892
_cell_angle_alpha   90.00000000
_cell_angle_beta   90.00000000
_cell_angle_gamma   90.00000000
_symmetry_Int_Tables_number   1
_chemical_formula_structural   SiO2
_chemical_formula_sum   'Si24 O48'
_cell_volume   1136.59847825
_cell_formula_units_Z   24
loop_
 _symmetry_equiv_pos_site_id
 _symmetry_equiv_pos_as_xyz
  1  'x, y, z'
loop_
 _atom_site_type_symbol
 _atom_site_label
 _atom_site_symmetry_multiplicity
 _atom_site_fract_x
 _atom_site_fract_y
 _atom_site_fract_z
 _atom_site_occupancy
  Si  Si0  1  0.22075205  0.04819790  0.85353141  1
  Si  Si1  1  0.54819790  0.85353141  0.27924795  1
  Si  Si2  1  0.54819790  0.64646859  0.77924795  1
  Si  Si3  1  0.22075205  0.45180210  0.35353141  1
  Si  Si4  1  0.95180210  0.35353141  0.27924795  1
  Si  Si5  1  0.85353141  0.22075205  0.04819790  1
  Si  Si6  1  0.45180210  0.14646859  0.72075205  1
  Si  Si7  1  0.45180210  0.35353141  0.22075205  1
  Si  Si8  1  0.35353141  0.22075205  0.45180210  1
  Si  Si9  1  0.35353141  0.27924795  0.95180210  1
  Si  Si10  1  0.95180210  0.14646859  0.77924795  1
  Si  Si11  1  0.27924795  0.54819790  0.85353141  1
  Si  Si12  1  0.72075205  0.04819790  0.64646859  1
  Si  Si13  1  0.77924795  0.95180210  0.14646859  1
  Si  Si14  1  0.72075205  0.45180210  0.14646859  1
  Si  Si15  1  0.77924795  0.54819790  0.64646859  1
  Si  Si16  1  0.64646859  0.77924795  0.54819790  1
  Si  Si17  1  0.85353141  0.27924795  0.54819790  1
  Si  Si18  1  0.04819790  0.85353141  0.22075205  1
  Si  Si19  1  0.14646859  0.77924795  0.95180210  1
  Si  Si20  1  0.14646859  0.72075205  0.45180210  1
  Si  Si21  1  0.64646859  0.72075205  0.04819790  1
  Si  Si22  1  0.27924795  0.95180210  0.35353141  1
  Si  Si23  1  0.04819790  0.64646859  0.72075205  1
  O  O0  1  0.08559471  0.07045980  0.78226081  1
  O  O1  1  0.66455475  0.95299941  0.25134524  1
  O  O2  1  0.54700059  0.74865476  0.16455475  1
  O  O3  1  0.58559571  0.42954020  0.21773919  1
  O  O4  1  0.07045980  0.71773919  0.58559571  1
  O  O5  1  0.95299941  0.25134524  0.66455475  1
  O  O6  1  0.54700059  0.75134524  0.66455475  1
  O  O7  1  0.75134524  0.83544525  0.04700059  1
  O  O8  1  0.74865476  0.33544525  0.04700059  1
  O  O9  1  0.45299941  0.24865476  0.33544525  1
  O  O10  1  0.83544525  0.04700059  0.75134524  1
  O  O11  1  0.08559471  0.42954020  0.28226081  1
  O  O12  1  0.91440429  0.57045980  0.71773919  1
  O  O13  1  0.24865476  0.33544525  0.45299941  1
  O  O14  1  0.57045980  0.78226081  0.41440529  1
  O  O15  1  0.71773919  0.91440429  0.57045980  1
  O  O16  1  0.21773919  0.58559571  0.42954020  1
  O  O17  1  0.04700059  0.75134524  0.83544525  1
  O  O18  1  0.83544525  0.45299941  0.25134524  1
  O  O19  1  0.25134524  0.83544525  0.45299941  1
  O  O20  1  0.16455475  0.95299941  0.24865476  1
  O  O21  1  0.16455475  0.54700059  0.74865476  1
  O  O22  1  0.25134524  0.66455475  0.95299941  1
  O  O23  1  0.41440529  0.57045980  0.78226081  1
  O  O24  1  0.33544525  0.04700059  0.74865476  1
  O  O25  1  0.92954020  0.21773919  0.91440429  1
  O  O26  1  0.58559571  0.07045980  0.71773919  1
  O  O27  1  0.24865476  0.16455475  0.95299941  1
  O  O28  1  0.41440529  0.92954020  0.28226081  1
  O  O29  1  0.78226081  0.41440529  0.57045980  1
  O  O30  1  0.92954020  0.28226081  0.41440529  1
  O  O31  1  0.28226081  0.08559471  0.42954020  1
  O  O32  1  0.75134524  0.66455475  0.54700059  1
  O  O33  1  0.57045980  0.71773919  0.91440429  1
  O  O34  1  0.71773919  0.58559571  0.07045980  1
  O  O35  1  0.91440429  0.92954020  0.21773919  1
  O  O36  1  0.21773919  0.91440429  0.92954020  1
  O  O37  1  0.42954020  0.21773919  0.58559571  1
  O  O38  1  0.04700059  0.74865476  0.33544525  1
  O  O39  1  0.74865476  0.16455475  0.54700059  1
  O  O40  1  0.07045980  0.78226081  0.08559471  1
  O  O41  1  0.78226081  0.08559471  0.07045980  1
  O  O42  1  0.95299941  0.24865476  0.16455475  1
  O  O43  1  0.45299941  0.25134524  0.83544525  1
  O  O44  1  0.28226081  0.41440529  0.92954020  1
  O  O45  1  0.42954020  0.28226081  0.08559471  1
  O  O46  1  0.33544525  0.45299941  0.24865476  1
  O  O47  1  0.66455475  0.54700059  0.75134524  1
loop_
_geom_bond_atom_site_label_1
_geom_bond_atom_site_label_2
_geom_bond_distance
_geom_bond_site_symmetry_2
O0 Si10 1.606163 1_455
O0 Si0 1.611434 1_555
O1 Si13 1.621959 1_555
O1 Si1 1.623848 1_555
O2 Si1 1.621959 1_555
O2 Si21 1.623848 1_555
O3 Si7 1.606172 1_555
O3 Si14 1.611425 1_555
O4 Si20 1.606172 1_555
O4 Si23 1.611425 1_555
O5 Si10 1.621959 1_555
O5 Si17 1.623848 1_555
O6 Si2 1.621959 1_555
O6 Si16 1.623848 1_555
O7 Si21 1.621959 1_555
O7 Si13 1.623848 1_555
O8 Si5 1.621959 1_555
O8 Si14 1.623848 1_555
O9 Si7 1.621959 1_555
O9 Si8 1.623848 1_555
O10 Si12 1.621959 1_555
O10 Si10 1.623848 1_555
O11 Si4 1.606163 1_455
O11 Si3 1.611434 1_555
O12 Si23 1.606172 1_655
O12 Si15 1.611425 1_555
O13 Si8 1.621959 1_555
O13 Si3 1.623848 1_555
O14 Si16 1.606163 1_555
O14 Si1 1.611434 1_555
O15 Si12 1.606172 1_565
O15 Si16 1.611425 1_555
O16 Si3 1.606172 1_555
O16 Si20 1.611425 1_555
O17 Si23 1.621959 1_555
O17 Si19 1.623848 1_555
O18 Si14 1.621959 1_555
O18 Si4 1.623848 1_555
O19 Si20 1.621959 1_555
O19 Si22 1.623848 1_555
O20 Si22 1.621959 1_555
O20 Si18 1.623848 1_555
O21 Si11 1.621959 1_555
O21 Si23 1.623848 1_555
O22 Si19 1.621959 1_555
O22 Si11 1.623848 1_555
O23 Si2 1.606163 1_555
O23 Si11 1.611434 1_555
O24 Si0 1.621959 1_555
O24 Si6 1.623848 1_555
O25 Si5 1.606172 1_556
O25 Si10 1.611425 1_555
O26 Si6 1.606172 1_555
O26 Si12 1.611425 1_555
O27 Si9 1.621959 1_555
O27 Si0 1.623848 1_555
O28 Si1 1.606163 1_555
O28 Si22 1.611434 1_555
O29 Si15 1.606163 1_555
O29 Si17 1.611434 1_555
O30 Si17 1.606163 1_555
O30 Si4 1.611434 1_555
O31 Si22 1.606163 1_545
O31 Si8 1.611434 1_555
O32 Si16 1.621959 1_555
O32 Si15 1.623848 1_555
O33 Si21 1.606172 1_556
O33 Si2 1.611425 1_555
O34 Si14 1.606172 1_555
O34 Si21 1.611425 1_555
O35 Si18 1.606172 1_655
O35 Si13 1.611425 1_555
O36 Si0 1.606172 1_565
O36 Si19 1.611425 1_555
O37 Si8 1.606172 1_555
O37 Si6 1.611425 1_555
O38 Si18 1.621959 1_555
O38 Si20 1.623848 1_555
O39 Si17 1.621959 1_555
O39 Si12 1.623848 1_555
O40 Si19 1.606163 1_554
O40 Si18 1.611434 1_555
O41 Si13 1.606163 1_545
O41 Si5 1.611434 1_555
O42 Si4 1.621959 1_555
O42 Si5 1.623848 1_555
O43 Si6 1.621959 1_555
O43 Si9 1.623848 1_555
O44 Si11 1.606163 1_555
O44 Si9 1.611434 1_555
O45 Si9 1.606163 1_554
O45 Si7 1.611434 1_555
O46 Si3 1.621959 1_555
O46 Si7 1.623848 1_555
O47 Si15 1.621959 1_555
O47 Si2 1.623848 1_555
