# generated using pymatgen
data_Ag10Te4Br3
_symmetry_space_group_name_H-M   'P 1'
_cell_length_a   11.18513859
_cell_length_b   11.18513859
_cell_length_c   13.91523100
_cell_angle_alpha   90.00000000
_cell_angle_beta   90.00000000
_cell_angle_gamma   91.18424635
_symmetry_Int_Tables_number   1
_chemical_formula_structural   Ag10Te4Br3
_chemical_formula_sum   'Ag40 Te16 Br12'
_cell_volume   1740.52548359
_cell_formula_units_Z   4
loop_
 _symmetry_equiv_pos_site_id
 _symmetry_equiv_pos_as_xyz
  1  'x, y, z'
loop_
 _atom_site_type_symbol
 _atom_site_label
 _atom_site_symmetry_multiplicity
 _atom_site_fract_x
 _atom_site_fract_y
 _atom_site_fract_z
 _atom_site_occupancy
  Ag  Ag0  1  0.88189300  0.93411100  0.21643900  1
  Ag  Ag1  1  0.15217000  0.64734500  0.35857300  1
  Ag  Ag2  1  0.82502200  0.36505800  0.09813000  1
  Ag  Ag3  1  0.17497800  0.63494200  0.59813000  1
  Ag  Ag4  1  0.31350000  0.40187400  0.34027300  1
  Ag  Ag5  1  0.88610000  0.35786500  0.35974800  1
  Ag  Ag6  1  0.35265500  0.84783000  0.35857300  1
  Ag  Ag7  1  0.60455600  0.14774100  0.63188300  1
  Ag  Ag8  1  0.64213500  0.11390000  0.35974800  1
  Ag  Ag9  1  0.85225900  0.39544400  0.63188300  1
  Ag  Ag10  1  0.35762500  0.40061600  0.12491900  1
  Ag  Ag11  1  0.62583900  0.37416100  0.73797400  1
  Ag  Ag12  1  0.59812600  0.68650000  0.34027300  1
  Ag  Ag13  1  0.79810400  0.98839200  0.55287300  1
  Ag  Ag14  1  0.63494200  0.17497800  0.09813000  1
  Ag  Ag15  1  0.02578000  0.16358700  0.90809400  1
  Ag  Ag16  1  0.40061600  0.35762500  0.62491900  1
  Ag  Ag17  1  0.98839200  0.79810400  0.05287300  1
  Ag  Ag18  1  0.35786500  0.88610000  0.85974800  1
  Ag  Ag19  1  0.59938400  0.64237500  0.12491900  1
  Ag  Ag20  1  0.64734500  0.15217000  0.85857300  1
  Ag  Ag21  1  0.14774100  0.60455600  0.13188300  1
  Ag  Ag22  1  0.16358700  0.02578000  0.40809400  1
  Ag  Ag23  1  0.83641300  0.97422000  0.90809400  1
  Ag  Ag24  1  0.93411100  0.88189300  0.71643900  1
  Ag  Ag25  1  0.36505800  0.82502200  0.59813000  1
  Ag  Ag26  1  0.40187400  0.31350000  0.84027300  1
  Ag  Ag27  1  0.20189600  0.01160800  0.05287300  1
  Ag  Ag28  1  0.97422000  0.83641300  0.40809400  1
  Ag  Ag29  1  0.06588900  0.11810700  0.21643900  1
  Ag  Ag30  1  0.14604200  0.85395800  0.21988100  1
  Ag  Ag31  1  0.11390000  0.64213500  0.85974800  1
  Ag  Ag32  1  0.11810700  0.06588900  0.71643900  1
  Ag  Ag33  1  0.39544400  0.85225900  0.13188300  1
  Ag  Ag34  1  0.64237500  0.59938400  0.62491900  1
  Ag  Ag35  1  0.01160800  0.20189600  0.55287300  1
  Ag  Ag36  1  0.37416100  0.62583900  0.23797400  1
  Ag  Ag37  1  0.85395800  0.14604200  0.71988100  1
  Ag  Ag38  1  0.84783000  0.35265500  0.85857300  1
  Ag  Ag39  1  0.68650000  0.59812600  0.84027300  1
  Te  Te0  1  0.63062600  0.36937400  0.53802500  1
  Te  Te1  1  0.89106600  0.10893400  0.39219700  1
  Te  Te2  1  0.36937400  0.63062600  0.03802500  1
  Te  Te3  1  0.29184900  0.52450400  0.75173200  1
  Te  Te4  1  0.04940400  0.30859200  0.73983900  1
  Te  Te5  1  0.30859200  0.04940400  0.23983900  1
  Te  Te6  1  0.69140800  0.95059600  0.73983900  1
  Te  Te7  1  0.52450400  0.29184900  0.25173200  1
  Te  Te8  1  0.11905000  0.88095000  0.57270400  1
  Te  Te9  1  0.61911200  0.38088800  0.93877500  1
  Te  Te10  1  0.95059600  0.69140800  0.23983900  1
  Te  Te11  1  0.10893400  0.89106600  0.89219700  1
  Te  Te12  1  0.88095000  0.11905000  0.07270400  1
  Te  Te13  1  0.70815100  0.47549600  0.25173200  1
  Te  Te14  1  0.47549600  0.70815100  0.75173200  1
  Te  Te15  1  0.38088800  0.61911200  0.43877500  1
  Br  Br0  1  0.50558100  0.00514100  0.99120100  1
  Br  Br1  1  0.10279300  0.36289900  0.23834300  1
  Br  Br2  1  0.25147800  0.25253600  0.99061200  1
  Br  Br3  1  0.00514100  0.50558100  0.49120100  1
  Br  Br4  1  0.63710100  0.89720700  0.23834300  1
  Br  Br5  1  0.74852200  0.74746400  0.49061200  1
  Br  Br6  1  0.74746400  0.74852200  0.99061200  1
  Br  Br7  1  0.36289900  0.10279300  0.73834300  1
  Br  Br8  1  0.25253600  0.25147800  0.49061200  1
  Br  Br9  1  0.49441900  0.99485900  0.49120100  1
  Br  Br10  1  0.89720700  0.63710100  0.73834300  1
  Br  Br11  1  0.99485900  0.49441900  0.99120100  1
loop_
_geom_bond_atom_site_label_1
_geom_bond_atom_site_label_2
_geom_bond_distance
_geom_bond_site_symmetry_2
Ag0 Br4 2.777299 1_555
Ag0 Te10 2.855204 1_555
Ag0 Te12 2.877570 1_565
Ag0 Te1 3.131679 1_565
Ag1 Te15 2.814826 1_555
Ag1 Te10 2.846402 1_455
Ag1 Br3 2.918400 1_555
Ag1 Ag36 3.010660 1_555
Ag2 Br11 2.793315 1_554
Ag2 Te13 2.805344 1_555
Ag2 Te12 2.856422 1_555
Ag2 Te9 3.204647 1_554
Ag3 Br3 2.793315 1_555
Ag3 Te3 2.805344 1_555
Ag3 Te8 2.856422 1_555
Ag3 Te15 3.204647 1_555
Ag4 Br8 2.761128 1_555
Ag4 Br1 2.777377 1_555
Ag4 Te15 2.876681 1_555
Ag4 Te7 2.953413 1_555
Ag5 Br3 2.785273 1_655
Ag5 Te1 2.822383 1_555
Ag5 Te13 2.839050 1_555
Ag5 Br1 2.953989 1_655
Ag6 Te15 2.814826 1_555
Ag6 Te5 2.846402 1_565
Ag6 Br9 2.918400 1_555
Ag7 Te0 2.811823 1_555
Ag7 Te6 2.855067 1_545
Ag7 Br9 2.861277 1_545
Ag7 Br7 3.114034 1_555
Ag8 Br9 2.785273 1_545
Ag8 Te1 2.822383 1_555
Ag8 Te7 2.839050 1_555
Ag8 Br4 2.953989 1_545
Ag9 Te0 2.811823 1_555
Ag9 Te4 2.855067 1_655
Ag9 Br3 2.861277 1_655
Ag9 Br10 3.114034 1_555
Ag10 Br2 2.750359 1_554
Ag10 Te2 2.843254 1_555
Ag10 Te7 2.858655 1_555
Ag10 Ag36 2.972538 1_555
Ag10 Br1 3.277767 1_555
Ag11 Te0 2.783388 1_555
Ag11 Te9 2.796260 1_555
Ag11 Ag7 2.936819 1_555
Ag11 Ag9 2.936819 1_555
Ag11 Ag39 2.948207 1_555
Ag11 Ag26 2.948207 1_555
Ag11 Ag34 2.972538 1_555
Ag11 Ag16 2.972538 1_555
Ag11 Ag38 3.010660 1_555
Ag11 Ag20 3.010660 1_555
Ag12 Br5 2.761128 1_555
Ag12 Br4 2.777377 1_555
Ag12 Te15 2.876681 1_555
Ag12 Ag36 2.948207 1_555
Ag12 Te13 2.953413 1_555
Ag13 Te1 2.800013 1_565
Ag13 Br5 2.873745 1_555
Ag13 Te6 2.889776 1_555
Ag14 Br0 2.793315 1_554
Ag14 Te7 2.805344 1_555
Ag14 Te12 2.856422 1_555
Ag14 Te9 3.204647 1_554
Ag15 Te12 2.843554 1_456
Ag15 Te4 2.857339 1_555
Ag15 Br2 2.928725 1_555
Ag15 Te11 3.212884 1_545
Ag16 Br8 2.750359 1_555
Ag16 Te0 2.843254 1_555
Ag16 Te3 2.858655 1_555
Ag16 Br7 3.277767 1_555
Ag17 Te11 2.800013 1_654
Ag17 Br6 2.873745 1_554
Ag17 Te10 2.889776 1_555
Ag18 Br0 2.785273 1_565
Ag18 Te11 2.822383 1_555
Ag18 Te14 2.839050 1_555
Ag18 Br7 2.953989 1_565
Ag19 Br6 2.750359 1_554
Ag19 Te2 2.843254 1_555
Ag19 Te13 2.858655 1_555
Ag19 Ag36 2.972538 1_555
Ag19 Br4 3.277767 1_555
Ag20 Te9 2.814826 1_555
Ag20 Te6 2.846402 1_545
Ag20 Br0 2.918400 1_555
Ag21 Te2 2.811823 1_555
Ag21 Te10 2.855067 1_455
Ag21 Br11 2.861277 1_454
Ag21 Ag36 2.936819 1_555
Ag21 Br1 3.114034 1_555
Ag22 Te8 2.843554 1_545
Ag22 Te5 2.857339 1_555
Ag22 Br8 2.928725 1_555
Ag22 Te1 3.212884 1_455
Ag23 Te12 2.843554 1_566
Ag23 Te6 2.857339 1_555
Ag23 Br6 2.928725 1_555
Ag23 Te11 3.212884 1_655
Ag24 Br10 2.777299 1_555
Ag24 Te6 2.855204 1_555
Ag24 Te8 2.877570 1_655
Ag24 Te11 3.131679 1_655
Ag25 Br9 2.793315 1_555
Ag25 Te14 2.805344 1_555
Ag25 Te8 2.856422 1_555
Ag25 Te15 3.204647 1_555
Ag26 Br2 2.761128 1_555
Ag26 Br7 2.777377 1_555
Ag26 Te9 2.876681 1_555
Ag26 Te3 2.953413 1_555
Ag27 Te11 2.800013 1_544
Ag27 Br2 2.873745 1_554
Ag27 Te5 2.889776 1_555
Ag28 Te8 2.843554 1_655
Ag28 Te10 2.857339 1_555
Ag28 Br5 2.928725 1_555
Ag28 Te1 3.212884 1_565
Ag29 Br1 2.777299 1_555
Ag29 Te5 2.855204 1_555
Ag29 Te12 2.877570 1_455
Ag29 Te1 3.131679 1_455
Ag30 Te5 2.827981 1_565
Ag30 Te10 2.827981 1_455
Ag31 Br11 2.785273 1_455
Ag31 Te11 2.822383 1_555
Ag31 Te3 2.839050 1_555
Ag31 Br10 2.953989 1_455
Ag32 Br7 2.777299 1_555
Ag32 Te4 2.855204 1_555
Ag32 Te8 2.877570 1_545
Ag32 Te11 3.131679 1_545
Ag33 Te2 2.811823 1_555
Ag33 Te5 2.855067 1_565
Ag33 Br0 2.861277 1_564
Ag33 Ag36 2.936819 1_555
Ag33 Br4 3.114034 1_555
Ag34 Br5 2.750359 1_555
Ag34 Te0 2.843254 1_555
Ag34 Te14 2.858655 1_555
Ag34 Br10 3.277767 1_555
Ag35 Te1 2.800013 1_455
Ag35 Br8 2.873745 1_555
Ag35 Te4 2.889776 1_555
Ag36 Te2 2.783388 1_555
Ag36 Te15 2.796260 1_555
Ag36 Ag4 2.948207 1_555
Ag36 Ag6 3.010660 1_555
Ag37 Te6 2.827981 1_545
Ag37 Te4 2.827981 1_655
Ag38 Te9 2.814826 1_555
Ag38 Te4 2.846402 1_655
Ag38 Br11 2.918400 1_555
Ag39 Br6 2.761128 1_555
Ag39 Br10 2.777377 1_555
Ag39 Te9 2.876681 1_555
Ag39 Te14 2.953413 1_555
Te13 Te7 2.874784 1_555
Te14 Te3 2.874784 1_555
