# generated using pymatgen
data_Fe2(TeO3)3
_symmetry_space_group_name_H-M   'P 1'
_cell_length_a   7.50314256
_cell_length_b   9.49222854
_cell_length_c   11.03542825
_cell_angle_alpha   90.00000000
_cell_angle_beta   90.00000000
_cell_angle_gamma   90.00000000
_symmetry_Int_Tables_number   1
_chemical_formula_structural   Fe2(TeO3)3
_chemical_formula_sum   'Fe8 Te12 O36'
_cell_volume   785.96023809
_cell_formula_units_Z   4
loop_
 _symmetry_equiv_pos_site_id
 _symmetry_equiv_pos_as_xyz
  1  'x, y, z'
loop_
 _atom_site_type_symbol
 _atom_site_label
 _atom_site_symmetry_multiplicity
 _atom_site_fract_x
 _atom_site_fract_y
 _atom_site_fract_z
 _atom_site_occupancy
  Fe  Fe0  1  0.44541506  0.77519952  0.93877279  1
  Fe  Fe1  1  0.94541506  0.22480048  0.06122721  1
  Fe  Fe2  1  0.05458494  0.27519952  0.56122721  1
  Fe  Fe3  1  0.55458494  0.72480048  0.43877279  1
  Fe  Fe4  1  0.55458494  0.22480048  0.06122721  1
  Fe  Fe5  1  0.05458494  0.77519952  0.93877279  1
  Fe  Fe6  1  0.94541506  0.72480048  0.43877279  1
  Fe  Fe7  1  0.44541506  0.27519952  0.56122721  1
  Te  Te0  1  0.75000000  0.04054243  0.83586792  1
  Te  Te1  1  0.25000000  0.95945757  0.16413208  1
  Te  Te2  1  0.75000000  0.54054243  0.66413208  1
  Te  Te3  1  0.25000000  0.45945757  0.33586792  1
  Te  Te4  1  0.75000000  0.53698847  0.01104686  1
  Te  Te5  1  0.25000000  0.46301153  0.98895314  1
  Te  Te6  1  0.75000000  0.03698847  0.48895314  1
  Te  Te7  1  0.25000000  0.96301153  0.51104686  1
  Te  Te8  1  0.25000000  0.60687876  0.67730639  1
  Te  Te9  1  0.75000000  0.39312124  0.32269361  1
  Te  Te10  1  0.25000000  0.10687876  0.82269361  1
  Te  Te11  1  0.75000000  0.89312124  0.17730639  1
  O  O0  1  0.75000000  0.34664700  0.96228759  1
  O  O1  1  0.25000000  0.65335300  0.03771241  1
  O  O2  1  0.75000000  0.84664700  0.53771241  1
  O  O3  1  0.25000000  0.15335300  0.46228759  1
  O  O4  1  0.25000000  0.74154554  0.80931101  1
  O  O5  1  0.75000000  0.25845446  0.19068899  1
  O  O6  1  0.25000000  0.24154554  0.69068899  1
  O  O7  1  0.75000000  0.75845446  0.30931101  1
  O  O8  1  0.25000000  0.92275967  0.99099335  1
  O  O9  1  0.75000000  0.07724033  0.00900665  1
  O  O10  1  0.25000000  0.42275967  0.50900665  1
  O  O11  1  0.75000000  0.57724033  0.49099335  1
  O  O12  1  0.06382419  0.69749567  0.59420046  1
  O  O13  1  0.56382419  0.30250433  0.40579954  1
  O  O14  1  0.43617581  0.19749567  0.90579954  1
  O  O15  1  0.93617581  0.80250433  0.09420046  1
  O  O16  1  0.93617581  0.30250433  0.40579954  1
  O  O17  1  0.43617581  0.69749567  0.59420046  1
  O  O18  1  0.56382419  0.80250433  0.09420046  1
  O  O19  1  0.06382419  0.19749567  0.90579954  1
  O  O20  1  0.93530998  0.40847213  0.65981931  1
  O  O21  1  0.43530998  0.59152787  0.34018169  1
  O  O22  1  0.56469002  0.90847213  0.84018069  1
  O  O23  1  0.06469002  0.09152787  0.15981831  1
  O  O24  1  0.06469002  0.59152787  0.34018169  1
  O  O25  1  0.56469002  0.40847213  0.65981931  1
  O  O26  1  0.43530998  0.09152787  0.15981831  1
  O  O27  1  0.93530998  0.90847213  0.84018069  1
  O  O28  1  0.93478525  0.59646882  0.90421338  1
  O  O29  1  0.43478425  0.40353118  0.09578662  1
  O  O30  1  0.56521475  0.09646882  0.59578662  1
  O  O31  1  0.06521575  0.90353118  0.40421338  1
  O  O32  1  0.06521575  0.40353118  0.09578662  1
  O  O33  1  0.56521475  0.59646882  0.90421338  1
  O  O34  1  0.43478425  0.90353118  0.40421338  1
  O  O35  1  0.93478525  0.09646882  0.59578662  1
loop_
_geom_bond_atom_site_label_1
_geom_bond_atom_site_label_2
_geom_bond_distance
_geom_bond_site_symmetry_2
Fe0 O22 1.893418 1_555
Fe0 O18 1.948962 1_556
Fe0 O33 1.957477 1_555
Fe0 O4 2.071945 1_555
Fe0 O8 2.108034 1_555
Fe0 O1 2.163250 1_556
Fe1 O23 1.893412 1_655
Fe1 O19 1.948962 1_654
Fe1 O32 1.957480 1_655
Fe1 O5 2.071945 1_555
Fe1 O9 2.108034 1_555
Fe1 O0 2.163250 1_554
Fe2 O20 1.893418 1_455
Fe2 O16 1.948962 1_455
Fe2 O35 1.957477 1_455
Fe2 O6 2.071945 1_555
Fe2 O10 2.108034 1_555
Fe2 O3 2.163250 1_555
Fe3 O21 1.893412 1_555
Fe3 O17 1.948962 1_555
Fe3 O34 1.957480 1_555
Fe3 O7 2.071945 1_555
Fe3 O11 2.108034 1_555
Fe3 O2 2.163250 1_555
Fe4 O26 1.893412 1_555
Fe4 O14 1.948962 1_554
Fe4 O29 1.957480 1_555
Fe4 O5 2.071945 1_555
Fe4 O9 2.108034 1_555
Fe4 O0 2.163250 1_554
Fe5 O27 1.893418 1_455
Fe5 O15 1.948962 1_456
Fe5 O28 1.957477 1_455
Fe5 O4 2.071945 1_555
Fe5 O8 2.108034 1_555
Fe5 O1 2.163250 1_556
Fe6 O24 1.893412 1_655
Fe6 O12 1.948962 1_655
Fe6 O31 1.957480 1_655
Fe6 O7 2.071945 1_555
Fe6 O11 2.108034 1_555
Fe6 O2 2.163250 1_555
Fe7 O25 1.893418 1_555
Fe7 O13 1.948962 1_555
Fe7 O30 1.957477 1_555
Fe7 O6 2.071945 1_555
Fe7 O10 2.108034 1_555
Fe7 O3 2.163250 1_555
O0 Te4 1.885187 1_556
O1 Te5 1.885187 1_554
O2 Te6 1.885187 1_565
O3 Te7 1.885187 1_545
O4 Te8 1.938060 1_555
O5 Te9 1.938060 1_555
O6 Te10 1.938060 1_555
O7 Te11 1.938060 1_555
O8 Te1 1.942155 1_556
O8 Te10 2.550269 1_565
O9 Te0 1.942155 1_554
O9 Te11 2.550269 1_545
O10 Te3 1.942155 1_555
O10 Te8 2.550269 1_555
O11 Te2 1.942155 1_555
O11 Te9 2.550269 1_555
O12 Te8 1.879441 1_555
O13 Te9 1.879441 1_555
O14 Te10 1.879441 1_555
O15 Te11 1.879441 1_555
O16 Te9 1.879441 1_555
O17 Te8 1.879441 1_555
O18 Te11 1.879441 1_555
O19 Te10 1.879441 1_555
O20 Te2 1.872729 1_555
O21 Te3 1.872729 1_555
O22 Te0 1.872729 1_565
O23 Te1 1.872729 1_545
O24 Te3 1.872729 1_555
O25 Te2 1.872729 1_555
O26 Te1 1.872729 1_545
O27 Te0 1.872729 1_565
O28 Te4 1.905519 1_556
O29 Te5 1.905514 1_554
O30 Te6 1.905519 1_555
O31 Te7 1.905514 1_555
O32 Te5 1.905514 1_554
O33 Te4 1.905519 1_556
O34 Te7 1.905514 1_555
O35 Te6 1.905519 1_555
