# generated using pymatgen
data_K3NbAs2O9
_symmetry_space_group_name_H-M   'P 1'
_cell_length_a   5.53984200
_cell_length_b   8.02328600
_cell_length_c   22.94852200
_cell_angle_alpha   90.00000000
_cell_angle_beta   90.00000000
_cell_angle_gamma   90.00000000
_symmetry_Int_Tables_number   1
_chemical_formula_structural   K3NbAs2O9
_chemical_formula_sum   'K12 Nb4 As8 O36'
_cell_volume   1020.00986491
_cell_formula_units_Z   4
loop_
 _symmetry_equiv_pos_site_id
 _symmetry_equiv_pos_as_xyz
  1  'x, y, z'
loop_
 _atom_site_type_symbol
 _atom_site_label
 _atom_site_symmetry_multiplicity
 _atom_site_fract_x
 _atom_site_fract_y
 _atom_site_fract_z
 _atom_site_occupancy
  K  K0  1  0.25000000  0.47895100  0.79711100  1
  K  K1  1  0.75000000  0.84779600  0.40112100  1
  K  K2  1  0.75000000  0.12187200  0.03285800  1
  K  K3  1  0.75000000  0.37812800  0.53285800  1
  K  K4  1  0.75000000  0.52104900  0.20288900  1
  K  K5  1  0.25000000  0.15220400  0.59887900  1
  K  K6  1  0.25000000  0.02104900  0.29711100  1
  K  K7  1  0.25000000  0.62187200  0.46714200  1
  K  K8  1  0.75000000  0.97895100  0.70288900  1
  K  K9  1  0.75000000  0.65220400  0.90112100  1
  K  K10  1  0.25000000  0.87812800  0.96714200  1
  K  K11  1  0.25000000  0.34779600  0.09887900  1
  Nb  Nb0  1  0.25000000  0.81757700  0.14593300  1
  Nb  Nb1  1  0.25000000  0.68242300  0.64593300  1
  Nb  Nb2  1  0.75000000  0.31757700  0.35406700  1
  Nb  Nb3  1  0.75000000  0.18242300  0.85406700  1
  As  As0  1  0.75000000  0.85753100  0.56176200  1
  As  As1  1  0.75000000  0.45280000  0.70912300  1
  As  As2  1  0.25000000  0.54720000  0.29087700  1
  As  As3  1  0.75000000  0.04720000  0.20912300  1
  As  As4  1  0.25000000  0.35753100  0.93823800  1
  As  As5  1  0.25000000  0.14246900  0.43823800  1
  As  As6  1  0.75000000  0.64246900  0.06176200  1
  As  As7  1  0.25000000  0.95280000  0.79087700  1
  O  O0  1  0.75000000  0.29809700  0.65930000  1
  O  O1  1  0.25000000  0.90063800  0.71849600  1
  O  O2  1  0.99589200  0.66593400  0.11063700  1
  O  O3  1  0.25000000  0.97985500  0.09352900  1
  O  O4  1  0.75000000  0.47985500  0.40647100  1
  O  O5  1  0.00321500  0.08712300  0.79835500  1
  O  O6  1  0.50321500  0.91287700  0.20164500  1
  O  O7  1  0.99678500  0.91287700  0.20164500  1
  O  O8  1  0.49678500  0.41287700  0.29835500  1
  O  O9  1  0.75000000  0.20190300  0.15930000  1
  O  O10  1  0.75000000  0.70590700  0.51085300  1
  O  O11  1  0.00410800  0.16593400  0.38936300  1
  O  O12  1  0.50321500  0.58712300  0.70164500  1
  O  O13  1  0.25000000  0.52014500  0.59352900  1
  O  O14  1  0.75000000  0.40063800  0.78150400  1
  O  O15  1  0.50410800  0.83406600  0.61063700  1
  O  O16  1  0.49589200  0.33406600  0.88936300  1
  O  O17  1  0.99589200  0.83406600  0.61063700  1
  O  O18  1  0.00321500  0.41287700  0.29835500  1
  O  O19  1  0.75000000  0.09936200  0.28150400  1
  O  O20  1  0.00410800  0.33406600  0.88936300  1
  O  O21  1  0.25000000  0.79809700  0.84070000  1
  O  O22  1  0.99678500  0.58712300  0.70164500  1
  O  O23  1  0.75000000  0.02014500  0.90647100  1
  O  O24  1  0.49589200  0.16593400  0.38936300  1
  O  O25  1  0.75000000  0.79409300  0.01085300  1
  O  O26  1  0.75000000  0.44184800  0.04149900  1
  O  O27  1  0.25000000  0.70190300  0.34070000  1
  O  O28  1  0.25000000  0.20590700  0.98914700  1
  O  O29  1  0.25000000  0.94184800  0.45850100  1
  O  O30  1  0.25000000  0.59936200  0.21849600  1
  O  O31  1  0.25000000  0.55815200  0.95850100  1
  O  O32  1  0.49678500  0.08712300  0.79835500  1
  O  O33  1  0.50410800  0.66593400  0.11063700  1
  O  O34  1  0.25000000  0.29409300  0.48914700  1
  O  O35  1  0.75000000  0.05815200  0.54149900  1
loop_
_geom_bond_atom_site_label_1
_geom_bond_atom_site_label_2
_geom_bond_distance
_geom_bond_site_symmetry_2
K0 O22 2.742376 1_455
K0 O12 2.742376 1_555
K0 O21 2.749050 1_555
K0 O20 2.772866 1_555
K0 O16 2.772866 1_555
K0 O14 2.862784 1_455
K0 O14 2.862784 1_555
K1 O10 2.763559 1_555
K1 O24 2.927421 1_565
K1 O11 2.927421 1_665
K1 O4 2.954648 1_555
K1 O29 3.158452 1_655
K1 O29 3.158452 1_555
K1 O27 3.311376 1_555
K1 O27 3.311376 1_655
K2 O26 2.574906 1_555
K2 O25 2.677909 1_545
K2 O9 2.971855 1_555
K2 O23 3.013046 1_554
K2 O28 3.022131 1_654
K2 O28 3.022131 1_554
K2 O3 3.302926 1_645
K2 O3 3.302926 1_545
K3 O35 2.574906 1_555
K3 O10 2.677909 1_555
K3 O0 2.971855 1_555
K3 O4 3.013046 1_555
K3 O34 3.022131 1_555
K3 O34 3.022131 1_655
K3 O13 3.302926 1_555
K3 O13 3.302926 1_655
K4 O18 2.742376 1_655
K4 O8 2.742376 1_555
K4 O9 2.749050 1_555
K4 O33 2.772866 1_555
K4 O2 2.772866 1_555
K4 O30 2.862784 1_555
K4 O30 2.862784 1_655
K5 O34 2.763559 1_555
K5 O15 2.927421 1_545
K5 O17 2.927421 1_445
K5 O13 2.954648 1_555
K5 O35 3.158452 1_555
K5 O35 3.158452 1_455
K5 O0 3.311376 1_555
K5 O0 3.311376 1_455
K6 O7 2.742376 1_445
K6 O6 2.742376 1_545
K6 O27 2.749050 1_545
K6 O24 2.772866 1_555
K6 O11 2.772866 1_555
K6 O19 2.862784 1_555
K6 O19 2.862784 1_455
K7 O29 2.574906 1_555
K7 O34 2.677909 1_555
K7 O27 2.971855 1_555
K7 O13 3.013046 1_555
K7 O10 3.022131 1_555
K7 O10 3.022131 1_455
K7 O4 3.302926 1_555
K7 O4 3.302926 1_455
K8 O5 2.742376 1_665
K8 O32 2.742376 1_565
K8 O0 2.749050 1_565
K8 O15 2.772866 1_555
K8 O17 2.772866 1_555
K8 O1 2.862784 1_555
K8 O1 2.862784 1_655
K9 O25 2.763559 1_556
K9 O16 2.927421 1_555
K9 O20 2.927421 1_655
K9 O23 2.954648 1_565
K9 O31 3.158452 1_555
K9 O31 3.158452 1_655
K9 O21 3.311376 1_555
K9 O21 3.311376 1_655
K10 O31 2.574906 1_555
K10 O28 2.677909 1_565
K10 O21 2.971855 1_555
K10 O3 3.013046 1_556
K10 O25 3.022131 1_456
K10 O25 3.022131 1_556
K10 O23 3.302926 1_565
K10 O23 3.302926 1_465
K11 O28 2.763559 1_554
K11 O33 2.927421 1_555
K11 O2 2.927421 1_455
K11 O3 2.954648 1_545
K11 O26 3.158452 1_555
K11 O26 3.158452 1_455
K11 O9 3.311376 1_455
K11 O9 3.311376 1_555
Nb0 O3 1.772412 1_555
Nb0 O33 2.029299 1_555
Nb0 O2 2.029299 1_455
Nb0 O7 2.046214 1_455
Nb0 O6 2.046214 1_555
Nb0 O30 2.416245 1_555
Nb1 O13 1.772412 1_555
Nb1 O15 2.029299 1_555
Nb1 O17 2.029299 1_455
Nb1 O22 2.046214 1_455
Nb1 O12 2.046214 1_555
Nb1 O1 2.416245 1_555
Nb2 O4 1.772412 1_555
Nb2 O24 2.029299 1_555
Nb2 O11 2.029299 1_655
Nb2 O8 2.046214 1_555
Nb2 O18 2.046214 1_655
Nb2 O19 2.416245 1_555
Nb3 O23 1.772412 1_555
Nb3 O16 2.029299 1_555
Nb3 O20 2.029299 1_655
Nb3 O5 2.046214 1_655
Nb3 O32 2.046214 1_555
Nb3 O14 2.416245 1_555
As0 O35 1.675461 1_565
As0 O10 1.686660 1_555
As0 O15 1.774556 1_555
As0 O17 1.774556 1_555
As1 O0 1.687580 1_555
As1 O14 1.712949 1_555
As1 O12 1.749289 1_555
As1 O22 1.749289 1_555
As2 O27 1.687580 1_555
As2 O30 1.712949 1_555
As2 O8 1.749289 1_555
As2 O18 1.749289 1_555
As3 O9 1.687580 1_555
As3 O19 1.712949 1_555
As3 O7 1.749289 1_545
As3 O6 1.749289 1_545
As4 O31 1.675461 1_555
As4 O28 1.686660 1_555
As4 O20 1.774556 1_555
As4 O16 1.774556 1_555
As5 O29 1.675461 1_545
As5 O34 1.686660 1_555
As5 O11 1.774556 1_555
As5 O24 1.774556 1_555
As6 O26 1.675461 1_555
As6 O25 1.686660 1_555
As6 O33 1.774556 1_555
As6 O2 1.774556 1_555
As7 O21 1.687580 1_555
As7 O1 1.712949 1_555
As7 O5 1.749289 1_565
As7 O32 1.749289 1_565
