# generated using pymatgen
data_Rb5ErHf(MoO4)6
_symmetry_space_group_name_H-M   'P 1'
_cell_length_a   14.67324397
_cell_length_b   14.67324397
_cell_length_c   14.67324434
_cell_angle_alpha   43.87873346
_cell_angle_beta   43.87873346
_cell_angle_gamma   43.87873693
_symmetry_Int_Tables_number   1
_chemical_formula_structural   Rb5ErHf(MoO4)6
_chemical_formula_sum   'Rb10 Er2 Hf2 Mo12 O48'
_cell_volume   1378.22302426
_cell_formula_units_Z   2
loop_
 _symmetry_equiv_pos_site_id
 _symmetry_equiv_pos_as_xyz
  1  'x, y, z'
loop_
 _atom_site_type_symbol
 _atom_site_label
 _atom_site_symmetry_multiplicity
 _atom_site_fract_x
 _atom_site_fract_y
 _atom_site_fract_z
 _atom_site_occupancy
  Rb  Rb0  1  0.36031400  0.75000000  0.13968600  1
  Rb  Rb1  1  0.75000000  0.13968600  0.36031400  1
  Rb  Rb2  1  0.13968600  0.36031400  0.75000000  1
  Rb  Rb3  1  0.14669600  0.14669600  0.14669600  1
  Rb  Rb4  1  0.25000000  0.86031400  0.63968600  1
  Rb  Rb5  1  0.86031400  0.63968600  0.25000000  1
  Rb  Rb6  1  0.63968600  0.25000000  0.86031400  1
  Rb  Rb7  1  0.64669600  0.64669600  0.64669600  1
  Rb  Rb8  1  0.85330400  0.85330400  0.85330400  1
  Rb  Rb9  1  0.35330400  0.35330400  0.35330400  1
  Er  Er0  1  0.00000000  0.00000000  0.00000000  1
  Er  Er1  1  0.50000000  0.50000000  0.50000000  1
  Hf  Hf0  1  0.75000000  0.75000000  0.75000000  1
  Hf  Hf1  1  0.25000000  0.25000000  0.25000000  1
  Mo  Mo0  1  0.52747300  0.11257900  0.75955800  1
  Mo  Mo1  1  0.61257900  0.02747300  0.25955800  1
  Mo  Mo2  1  0.24044200  0.47252700  0.88742100  1
  Mo  Mo3  1  0.25955800  0.61257900  0.02747300  1
  Mo  Mo4  1  0.11257900  0.75955800  0.52747300  1
  Mo  Mo5  1  0.74044200  0.38742100  0.97252700  1
  Mo  Mo6  1  0.75955800  0.52747300  0.11257900  1
  Mo  Mo7  1  0.02747300  0.25955800  0.61257900  1
  Mo  Mo8  1  0.38742100  0.97252700  0.74044200  1
  Mo  Mo9  1  0.97252700  0.74044200  0.38742100  1
  Mo  Mo10  1  0.88742100  0.24044200  0.47252700  1
  Mo  Mo11  1  0.47252700  0.88742100  0.24044200  1
  O  O0  1  0.11070800  0.84351000  0.57314700  1
  O  O1  1  0.63795700  0.90467200  0.11741100  1
  O  O2  1  0.11741100  0.63795700  0.90467200  1
  O  O3  1  0.57314700  0.11070800  0.84351000  1
  O  O4  1  0.70448300  0.67785800  0.95882400  1
  O  O5  1  0.49331600  0.71379700  0.39641800  1
  O  O6  1  0.15649000  0.42685300  0.88929200  1
  O  O7  1  0.78620300  0.00668400  0.10358200  1
  O  O8  1  0.36204300  0.09532800  0.88258900  1
  O  O9  1  0.86204300  0.38258900  0.59532800  1
  O  O10  1  0.88258900  0.36204300  0.09532800  1
  O  O11  1  0.28620300  0.60358200  0.50668400  1
  O  O12  1  0.13795700  0.61741100  0.40467200  1
  O  O13  1  0.42685300  0.88929200  0.15649000  1
  O  O14  1  0.89641800  0.21379700  0.99331600  1
  O  O15  1  0.32214200  0.04117600  0.29551700  1
  O  O16  1  0.65649000  0.38929200  0.92685300  1
  O  O17  1  0.90467200  0.11741100  0.63795700  1
  O  O18  1  0.38258900  0.59532800  0.86204300  1
  O  O19  1  0.61070800  0.07314700  0.34351000  1
  O  O20  1  0.88929200  0.15649000  0.42685300  1
  O  O21  1  0.84351000  0.57314700  0.11070800  1
  O  O22  1  0.10358200  0.78620300  0.00668400  1
  O  O23  1  0.95882400  0.70448300  0.67785800  1
  O  O24  1  0.29551700  0.32214200  0.04117600  1
  O  O25  1  0.45882400  0.17785800  0.20448300  1
  O  O26  1  0.61741100  0.40467200  0.13795700  1
  O  O27  1  0.59532800  0.86204300  0.38258900  1
  O  O28  1  0.17785800  0.20448300  0.45882400  1
  O  O29  1  0.82214200  0.79551700  0.54117600  1
  O  O30  1  0.79551700  0.54117600  0.82214200  1
  O  O31  1  0.21379700  0.99331600  0.89641800  1
  O  O32  1  0.40467200  0.13795700  0.61741100  1
  O  O33  1  0.09532800  0.88258900  0.36204300  1
  O  O34  1  0.50668400  0.28620300  0.60358200  1
  O  O35  1  0.34351000  0.61070800  0.07314700  1
  O  O36  1  0.39641800  0.49331600  0.71379700  1
  O  O37  1  0.38929200  0.92685300  0.65649000  1
  O  O38  1  0.92685300  0.65649000  0.38929200  1
  O  O39  1  0.99331600  0.89641800  0.21379700  1
  O  O40  1  0.67785800  0.95882400  0.70448300  1
  O  O41  1  0.60358200  0.50668400  0.28620300  1
  O  O42  1  0.04117600  0.29551700  0.32214200  1
  O  O43  1  0.07314700  0.34351000  0.61070800  1
  O  O44  1  0.20448300  0.45882400  0.17785800  1
  O  O45  1  0.00668400  0.10358200  0.78620300  1
  O  O46  1  0.71379700  0.39641800  0.49331600  1
  O  O47  1  0.54117600  0.82214200  0.79551700  1
loop_
_geom_bond_atom_site_label_1
_geom_bond_atom_site_label_2
_geom_bond_distance
_geom_bond_site_symmetry_2
Er0 O31 2.249160 1_544
Er0 O7 2.249160 1_455
Er0 O39 2.249160 1_445
Er0 O45 2.249160 1_554
Er0 O14 2.249160 1_454
Er0 O22 2.249160 1_545
Er1 O5 2.249160 1_555
Er1 O34 2.249160 1_555
Er1 O41 2.249160 1_555
Er1 O36 2.249160 1_555
Er1 O11 2.249160 1_555
Er1 O46 2.249160 1_555
Hf0 O23 2.085304 1_555
Hf0 O30 2.085304 1_555
Hf0 O4 2.085304 1_555
Hf0 O29 2.085304 1_555
Hf0 O40 2.085304 1_555
Hf0 O47 2.085304 1_555
Hf1 O44 2.085304 1_555
Hf1 O42 2.085304 1_555
Hf1 O28 2.085304 1_555
Hf1 O24 2.085304 1_555
Hf1 O25 2.085304 1_555
Hf1 O15 2.085304 1_555
Mo0 O3 1.755627 1_555
Mo0 O8 1.767775 1_555
Mo0 O34 1.817138 1_555
Mo0 O40 1.868945 1_545
Mo1 O19 1.755627 1_555
Mo1 O27 1.767775 1_545
Mo1 O7 1.817138 1_555
Mo1 O25 1.868945 1_555
Mo2 O6 1.755627 1_555
Mo2 O2 1.767775 1_555
Mo2 O36 1.817138 1_555
Mo2 O24 1.868945 1_556
Mo3 O35 1.755627 1_555
Mo3 O18 1.767775 1_554
Mo3 O22 1.817138 1_555
Mo3 O44 1.868945 1_555
Mo4 O0 1.755627 1_555
Mo4 O33 1.767775 1_555
Mo4 O11 1.817138 1_555
Mo4 O23 1.868945 1_455
Mo5 O16 1.755627 1_555
Mo5 O26 1.767775 1_556
Mo5 O14 1.817138 1_555
Mo5 O30 1.868945 1_555
Mo6 O21 1.755627 1_555
Mo6 O10 1.767775 1_555
Mo6 O41 1.817138 1_555
Mo6 O4 1.868945 1_554
Mo7 O43 1.755627 1_555
Mo7 O9 1.767775 1_455
Mo7 O45 1.817138 1_555
Mo7 O28 1.868945 1_555
Mo8 O37 1.755627 1_555
Mo8 O32 1.767775 1_565
Mo8 O31 1.817138 1_555
Mo8 O47 1.868945 1_555
Mo9 O38 1.755627 1_555
Mo9 O12 1.767775 1_655
Mo9 O39 1.817138 1_555
Mo9 O29 1.868945 1_555
Mo10 O20 1.755627 1_555
Mo10 O17 1.767775 1_555
Mo10 O46 1.817138 1_555
Mo10 O42 1.868945 1_655
Mo11 O13 1.755627 1_555
Mo11 O1 1.767775 1_555
Mo11 O5 1.817138 1_555
Mo11 O15 1.868945 1_565
O0 Rb8 2.978410 1_455
O0 Rb4 3.023533 1_555
O1 Rb8 2.948734 1_554
O1 Rb5 3.083115 1_555
O1 Rb6 3.521042 1_564
O2 Rb8 2.948734 1_455
O2 Rb4 3.083114 1_555
O2 Rb5 3.521042 1_456
O3 Rb8 2.978411 1_545
O3 Rb6 3.023533 1_555
O4 Rb0 3.269443 1_556
O4 Rb8 3.358117 1_555
O5 Rb4 3.425766 1_555
O6 Rb3 2.978410 1_556
O6 Rb2 3.023533 1_555
O7 Rb6 3.425766 1_554
O8 Rb3 2.948734 1_556
O8 Rb2 3.083115 1_555
O8 Rb0 3.521042 1_546
O9 Rb7 2.948734 1_555
O9 Rb6 3.083114 1_555
O9 Rb5 3.521042 1_555
O10 Rb3 2.948734 1_655
O10 Rb1 3.083114 1_555
O10 Rb2 3.521042 1_654
O11 Rb2 3.425766 1_555
O12 Rb9 2.948734 1_555
O12 Rb0 3.083114 1_555
O12 Rb2 3.521042 1_555
O13 Rb3 2.978411 1_565
O13 Rb0 3.023533 1_555
O14 Rb2 3.425766 1_655
O15 Rb4 3.269443 1_545
O15 Rb3 3.358117 1_555
O16 Rb7 2.978410 1_555
O16 Rb6 3.023533 1_555
O17 Rb8 2.948733 1_545
O17 Rb6 3.083115 1_555
O17 Rb4 3.521042 1_645
O18 Rb7 2.948733 1_555
O18 Rb4 3.083115 1_555
O18 Rb6 3.521042 1_555
O19 Rb9 2.978411 1_555
O19 Rb1 3.023533 1_555
O20 Rb3 2.978410 1_655
O20 Rb1 3.023533 1_555
O21 Rb8 2.978410 1_554
O21 Rb5 3.023533 1_555
O22 Rb5 3.425766 1_455
O23 Rb2 3.269443 1_655
O23 Rb8 3.358117 1_555
O24 Rb6 3.269443 1_554
O24 Rb3 3.358117 1_555
O25 Rb6 3.269443 1_554
O25 Rb9 3.358117 1_555
O26 Rb9 2.948733 1_555
O26 Rb1 3.083115 1_555
O26 Rb0 3.521042 1_555
O27 Rb7 2.948734 1_555
O27 Rb5 3.083115 1_555
O27 Rb4 3.521042 1_555
O28 Rb4 3.269443 1_545
O28 Rb9 3.358117 1_555
O29 Rb1 3.269443 1_565
O29 Rb7 3.358117 1_555
O30 Rb2 3.269443 1_655
O30 Rb7 3.358117 1_555
O31 Rb0 3.425766 1_556
O32 Rb9 2.948734 1_555
O32 Rb2 3.083115 1_555
O32 Rb1 3.521042 1_555
O33 Rb3 2.948733 1_565
O33 Rb0 3.083115 1_555
O33 Rb1 3.521042 1_465
O34 Rb1 3.425766 1_555
O35 Rb9 2.978410 1_555
O35 Rb0 3.023533 1_555
O36 Rb6 3.425766 1_555
O37 Rb7 2.978411 1_555
O37 Rb4 3.023533 1_555
O38 Rb7 2.978410 1_555
O38 Rb5 3.023533 1_555
O39 Rb1 3.425766 1_565
O40 Rb1 3.269443 1_565
O40 Rb8 3.358117 1_555
O41 Rb0 3.425766 1_555
O42 Rb5 3.269443 1_455
O42 Rb3 3.358117 1_555
O43 Rb9 2.978410 1_555
O43 Rb2 3.023533 1_555
O44 Rb5 3.269443 1_455
O44 Rb9 3.358117 1_555
O45 Rb4 3.425766 1_545
O46 Rb5 3.425766 1_555
O47 Rb0 3.269443 1_556
O47 Rb7 3.358117 1_555
