# generated using pymatgen
data_Ge(PbS2)2
_symmetry_space_group_name_H-M   'P 1'
_cell_length_a   12.51248332
_cell_length_b   12.51248332
_cell_length_c   12.51248332
_cell_angle_alpha   110.09673042
_cell_angle_beta   110.09673042
_cell_angle_gamma   108.22731628
_symmetry_Int_Tables_number   1
_chemical_formula_structural   Ge(PbS2)2
_chemical_formula_sum   'Ge8 Pb16 S32'
_cell_volume   1507.49367833
_cell_formula_units_Z   8
loop_
 _symmetry_equiv_pos_site_id
 _symmetry_equiv_pos_as_xyz
  1  'x, y, z'
loop_
 _atom_site_type_symbol
 _atom_site_label
 _atom_site_symmetry_multiplicity
 _atom_site_fract_x
 _atom_site_fract_y
 _atom_site_fract_z
 _atom_site_occupancy
  Ge  Ge0  1  0.12083000  0.32077700  0.75199100  1
  Ge  Ge1  1  0.63116100  0.87917000  0.19994700  1
  Ge  Ge2  1  0.18121400  0.92922300  0.30005300  1
  Ge  Ge3  1  0.62917000  0.88116100  0.69994700  1
  Ge  Ge4  1  0.67922300  0.43121400  0.80005300  1
  Ge  Ge5  1  0.56878600  0.36883900  0.24800900  1
  Ge  Ge6  1  0.07077700  0.37083000  0.25199100  1
  Ge  Ge7  1  0.11883900  0.81878600  0.74800900  1
  Pb  Pb0  1  0.14393700  0.14393700  0.00000000  1
  Pb  Pb1  1  0.37500000  0.64530900  0.77030900  1
  Pb  Pb2  1  0.37500000  0.96017900  0.08517900  1
  Pb  Pb3  1  0.35469100  0.12500000  0.72969100  1
  Pb  Pb4  1  0.37500000  0.35469500  0.47969500  1
  Pb  Pb5  1  0.39530900  0.62500000  0.27030900  1
  Pb  Pb6  1  0.85606300  0.85606300  0.00000000  1
  Pb  Pb7  1  0.87500000  0.60469100  0.22969100  1
  Pb  Pb8  1  0.64530500  0.12500000  0.02030500  1
  Pb  Pb9  1  0.71017900  0.62500000  0.58517900  1
  Pb  Pb10  1  0.60606300  0.10606300  0.50000000  1
  Pb  Pb11  1  0.87500000  0.28982100  0.91482100  1
  Pb  Pb12  1  0.10469500  0.62500000  0.97969500  1
  Pb  Pb13  1  0.89393700  0.39393700  0.50000000  1
  Pb  Pb14  1  0.87500000  0.89530500  0.52030500  1
  Pb  Pb15  1  0.03982100  0.12500000  0.41482100  1
  S  S0  1  0.12643500  0.50331600  0.75138200  1
  S  S1  1  0.15050000  0.35148100  0.94858900  1
  S  S2  1  0.32159200  0.85486500  0.80068800  1
  S  S3  1  0.42840800  0.72909700  0.03327300  1
  S  S4  1  0.27090300  0.30417600  0.69931200  1
  S  S5  1  0.40289200  0.20191100  0.05141100  1
  S  S6  1  0.14513500  0.94582400  0.46672700  1
  S  S7  1  0.25331600  0.37643500  0.25138200  1
  S  S8  1  0.47909700  0.67840800  0.53327300  1
  S  S9  1  0.18167500  0.09542200  0.26695300  1
  S  S10  1  0.79808900  0.84950000  0.20098100  1
  S  S11  1  0.64851900  0.59710800  0.79901900  1
  S  S12  1  0.49668400  0.24806700  0.62311900  1
  S  S13  1  0.66472200  0.07846900  0.23304700  1
  S  S14  1  0.69582400  0.39513500  0.96672700  1
  S  S15  1  0.34710800  0.89851900  0.29901900  1
  S  S16  1  0.56832500  0.33527800  0.41374700  1
  S  S17  1  0.60486500  0.57159200  0.30068800  1
  S  S18  1  0.59950000  0.04808900  0.70098100  1
  S  S19  1  0.62356500  0.87494700  0.87688100  1
  S  S20  1  0.99806700  0.74668400  0.12311900  1
  S  S21  1  0.84542200  0.43167500  0.76695300  1
  S  S22  1  0.90457800  0.17153100  0.08625300  1
  S  S23  1  0.05417600  0.52090300  0.19931200  1
  S  S24  1  0.08527800  0.81832500  0.91374700  1
  S  S25  1  0.62494700  0.87356500  0.37688100  1
  S  S26  1  0.75193300  0.37505300  0.24861800  1
  S  S27  1  0.95191100  0.65289200  0.55141100  1
  S  S28  1  0.82846900  0.91472200  0.73304700  1
  S  S29  1  0.92153100  0.15457800  0.58625300  1
  S  S30  1  0.10148100  0.40050000  0.44858900  1
  S  S31  1  0.12505300  0.00193300  0.74861800  1
loop_
_geom_bond_atom_site_label_1
_geom_bond_atom_site_label_2
_geom_bond_distance
_geom_bond_site_symmetry_2
Ge0 S1 2.229440 1_555
Ge0 S4 2.237007 1_555
Ge0 S29 2.254365 1_455
Ge0 S0 2.265795 1_555
Ge1 S10 2.229440 1_555
Ge1 S3 2.237014 1_555
Ge1 S13 2.254365 1_565
Ge1 S25 2.265795 1_555
Ge2 S15 2.229440 1_555
Ge2 S6 2.237014 1_555
Ge2 S9 2.254365 1_565
Ge2 S20 2.265791 1_455
Ge3 S18 2.229440 1_565
Ge3 S8 2.237014 1_555
Ge3 S28 2.254365 1_555
Ge3 S19 2.265795 1_555
Ge4 S11 2.229440 1_555
Ge4 S14 2.237014 1_555
Ge4 S21 2.254365 1_555
Ge4 S12 2.265791 1_555
Ge5 S5 2.229440 1_555
Ge5 S17 2.237016 1_555
Ge5 S16 2.254365 1_555
Ge5 S26 2.265783 1_555
Ge6 S30 2.229440 1_555
Ge6 S23 2.237007 1_555
Ge6 S22 2.254365 1_455
Ge6 S7 2.265795 1_555
Ge7 S27 2.229440 1_455
Ge7 S2 2.237016 1_555
Ge7 S24 2.254365 1_555
Ge7 S31 2.265783 1_565
Pb0 S5 2.866234 1_555
Pb0 S1 2.866234 1_554
Pb0 S7 2.914177 1_555
Pb0 S31 2.914180 1_554
Pb1 S3 2.837618 1_556
Pb1 S2 2.837619 1_555
Pb1 S0 2.938316 1_555
Pb1 S19 2.938316 1_555
Pb2 S24 2.984594 1_554
Pb2 S13 2.984594 1_565
Pb2 S3 3.073297 1_555
Pb2 S2 3.073309 1_554
Pb2 S15 3.125406 1_555
Pb2 S5 3.125406 1_565
Pb3 S4 2.837615 1_555
Pb3 S6 2.837618 1_545
Pb3 S31 2.938319 1_555
Pb3 S12 2.938322 1_555
Pb4 S9 2.862340 1_555
Pb4 S16 2.862340 1_555
Pb4 S12 2.890893 1_555
Pb4 S7 2.890903 1_555
Pb5 S8 2.837618 1_555
Pb5 S17 2.837619 1_555
Pb5 S7 2.938316 1_555
Pb5 S25 2.938316 1_555
Pb6 S10 2.866234 1_555
Pb6 S11 2.866234 1_554
Pb6 S19 2.914177 1_554
Pb6 S20 2.914185 1_555
Pb7 S23 2.837615 1_655
Pb7 S14 2.837618 1_554
Pb7 S26 2.938319 1_555
Pb7 S20 2.938322 1_555
Pb8 S22 2.862340 1_555
Pb8 S13 2.862340 1_555
Pb8 S19 2.890903 1_544
Pb8 S26 2.890906 1_555
Pb9 S16 2.984594 1_555
Pb9 S28 2.984594 1_555
Pb9 S8 3.073297 1_555
Pb9 S17 3.073309 1_555
Pb9 S27 3.125406 1_555
Pb9 S11 3.125406 1_555
Pb10 S18 2.866234 1_555
Pb10 S15 2.866234 1_545
Pb10 S25 2.914177 1_545
Pb10 S12 2.914185 1_555
Pb11 S22 2.984594 1_556
Pb11 S21 2.984594 1_555
Pb11 S14 3.073297 1_555
Pb11 S23 3.073305 1_656
Pb11 S18 3.125406 1_555
Pb11 S1 3.125406 1_655
Pb12 S21 2.862340 1_455
Pb12 S24 2.862340 1_555
Pb12 S20 2.890893 1_456
Pb12 S0 2.890903 1_555
Pb13 S30 2.866234 1_655
Pb13 S27 2.866234 1_555
Pb13 S0 2.914177 1_655
Pb13 S26 2.914180 1_555
Pb14 S29 2.862340 1_565
Pb14 S28 2.862340 1_555
Pb14 S25 2.890903 1_555
Pb14 S31 2.890906 1_665
Pb15 S9 2.984594 1_555
Pb15 S29 2.984594 1_455
Pb15 S6 3.073297 1_545
Pb15 S4 3.073305 1_555
Pb15 S10 3.125406 1_445
Pb15 S30 3.125406 1_555
