# generated using pymatgen
data_Na5HfAs3
_symmetry_space_group_name_H-M   'P 1'
_cell_length_a   7.50226032
_cell_length_b   8.39969176
_cell_length_c   16.07074462
_cell_angle_alpha   59.11443679
_cell_angle_beta   90.00000000
_cell_angle_gamma   90.00000000
_symmetry_Int_Tables_number   1
_chemical_formula_structural   Na5HfAs3
_chemical_formula_sum   'Na20 Hf4 As12'
_cell_volume   869.11469236
_cell_formula_units_Z   4
loop_
 _symmetry_equiv_pos_site_id
 _symmetry_equiv_pos_as_xyz
  1  'x, y, z'
loop_
 _atom_site_type_symbol
 _atom_site_label
 _atom_site_symmetry_multiplicity
 _atom_site_fract_x
 _atom_site_fract_y
 _atom_site_fract_z
 _atom_site_occupancy
  Na  Na0  1  0.49340762  0.91681478  0.26250346  1
  Na  Na1  1  0.99340762  0.08318522  0.23749654  1
  Na  Na2  1  0.50659238  0.08318522  0.73749654  1
  Na  Na3  1  0.00659238  0.91681478  0.76250346  1
  Na  Na4  1  0.01196843  0.25990771  0.40588737  1
  Na  Na5  1  0.51196843  0.74009229  0.09411263  1
  Na  Na6  1  0.98803157  0.74009229  0.59411263  1
  Na  Na7  1  0.48803157  0.25990771  0.90588737  1
  Na  Na8  1  0.47257553  0.59719395  0.58403569  1
  Na  Na9  1  0.97257553  0.40280605  0.91596431  1
  Na  Na10  1  0.52742447  0.40280605  0.41596431  1
  Na  Na11  1  0.02742447  0.59719395  0.08403569  1
  Na  Na12  1  0.84673504  0.67980726  0.24266832  1
  Na  Na13  1  0.34673504  0.32019274  0.25733168  1
  Na  Na14  1  0.15326496  0.32019274  0.75733168  1
  Na  Na15  1  0.65326496  0.67980726  0.74266832  1
  Na  Na16  1  0.66156197  0.00147874  0.41948844  1
  Na  Na17  1  0.16156197  0.99852126  0.08051156  1
  Na  Na18  1  0.33843803  0.99852126  0.58051156  1
  Na  Na19  1  0.83843803  0.00147874  0.91948844  1
  Hf  Hf0  1  0.14166442  0.66176353  0.41352346  1
  Hf  Hf1  1  0.64166442  0.33823647  0.08647654  1
  Hf  Hf2  1  0.85833558  0.33823647  0.58647654  1
  Hf  Hf3  1  0.35833558  0.66176353  0.91352346  1
  As  As0  1  0.79235896  0.65682214  0.43037959  1
  As  As1  1  0.29235896  0.34317786  0.06962041  1
  As  As2  1  0.20764104  0.34317786  0.56962041  1
  As  As3  1  0.70764104  0.65682214  0.93037959  1
  As  As4  1  0.25794081  0.94494935  0.41705015  1
  As  As5  1  0.75794081  0.05505065  0.08294985  1
  As  As6  1  0.74205919  0.05505065  0.58294985  1
  As  As7  1  0.24205919  0.94494935  0.91705015  1
  As  As8  1  0.23724012  0.64811217  0.26434700  1
  As  As9  1  0.73724012  0.35188783  0.23565300  1
  As  As10  1  0.76275988  0.35188783  0.73565300  1
  As  As11  1  0.26275988  0.64811217  0.76434700  1
loop_
_geom_bond_atom_site_label_1
_geom_bond_atom_site_label_2
_geom_bond_distance
_geom_bond_site_symmetry_2
As0 Hf2 2.609057 1_555
As0 Hf0 2.632680 1_655
As0 Na12 2.950591 1_555
As0 Na16 2.975634 1_565
As0 Na10 3.010682 1_555
As0 Na8 3.291587 1_555
As0 Na0 3.321029 1_555
As0 Na6 3.384895 1_555
As1 Hf3 2.609057 1_554
As1 Hf1 2.632680 1_555
As1 Na13 2.950591 1_555
As1 Na17 2.975634 1_545
As1 Na11 3.010682 1_555
As1 Na9 3.291587 1_454
As1 Na1 3.321029 1_455
As1 Na7 3.384895 1_554
As2 Hf0 2.609057 1_555
As2 Hf2 2.632680 1_455
As2 Na14 2.950591 1_555
As2 Na18 2.975634 1_545
As2 Na8 3.010682 1_555
As2 Na10 3.291587 1_555
As2 Na2 3.321029 1_555
As2 Na4 3.384895 1_555
As3 Hf1 2.609057 1_556
As3 Hf3 2.632680 1_555
As3 Na15 2.950591 1_555
As3 Na19 2.975634 1_565
As3 Na9 3.010682 1_555
As3 Na11 3.291587 1_656
As3 Na3 3.321029 1_655
As3 Na5 3.384895 1_556
As4 Hf0 2.561382 1_555
As4 Na13 2.942940 1_565
As4 Na18 2.946463 1_555
As4 Na16 3.068438 1_565
As4 Na0 3.154005 1_555
As4 Na4 3.154235 1_565
As4 Na6 3.182986 1_455
As4 Na1 3.189592 1_465
As4 Na8 3.206122 1_555
As5 Hf1 2.561382 1_555
As5 Na12 2.942940 1_545
As5 Na19 2.946463 1_554
As5 Na17 3.068438 1_645
As5 Na1 3.154005 1_555
As5 Na5 3.154235 1_545
As5 Na7 3.182986 1_554
As5 Na0 3.189592 1_545
As5 Na9 3.206122 1_554
As6 Hf2 2.561382 1_555
As6 Na15 2.942940 1_545
As6 Na16 2.946463 1_555
As6 Na18 3.068438 1_545
As6 Na2 3.154005 1_555
As6 Na6 3.154235 1_545
As6 Na4 3.182986 1_655
As6 Na3 3.189592 1_645
As6 Na10 3.206122 1_555
As7 Hf3 2.561382 1_555
As7 Na14 2.942940 1_565
As7 Na17 2.946463 1_556
As7 Na19 3.068438 1_465
As7 Na3 3.154005 1_555
As7 Na7 3.154235 1_565
As7 Na5 3.182986 1_556
As7 Na2 3.189592 1_565
As7 Na11 3.206122 1_556
As8 Hf0 2.560650 1_555
As8 Na13 2.931409 1_555
As8 Na12 2.946184 1_455
As8 Na0 2.952933 1_555
As8 Na17 2.964189 1_555
As8 Na10 3.125342 1_555
As8 Na5 3.187402 1_555
As8 Na4 3.323893 1_555
As8 Na11 3.511403 1_555
As9 Hf1 2.560650 1_555
As9 Na12 2.931409 1_555
As9 Na13 2.946184 1_555
As9 Na1 2.952933 1_555
As9 Na16 2.964189 1_555
As9 Na11 3.125342 1_655
As9 Na4 3.187402 1_655
As9 Na5 3.323893 1_555
As9 Na10 3.511403 1_555
As10 Hf2 2.560650 1_555
As10 Na15 2.931409 1_555
As10 Na14 2.946184 1_655
As10 Na2 2.952933 1_555
As10 Na19 2.964189 1_555
As10 Na8 3.125342 1_555
As10 Na7 3.187402 1_555
As10 Na6 3.323893 1_555
As10 Na9 3.511403 1_555
As11 Hf3 2.560650 1_555
As11 Na14 2.931409 1_555
As11 Na15 2.946184 1_555
As11 Na3 2.952933 1_555
As11 Na18 2.964189 1_555
As11 Na9 3.125342 1_455
As11 Na6 3.187402 1_455
As11 Na7 3.323893 1_555
As11 Na8 3.511403 1_555
