# generated using pymatgen
data_Np5Ge3
_symmetry_space_group_name_H-M   'P 1'
_cell_length_a   8.14251062
_cell_length_b   8.14251062
_cell_length_c   8.14251062
_cell_angle_alpha   95.58295889
_cell_angle_beta   95.58295889
_cell_angle_gamma   143.65143751
_symmetry_Int_Tables_number   1
_chemical_formula_structural   Np5Ge3
_chemical_formula_sum   'Np10 Ge6'
_cell_volume   304.00582747
_cell_formula_units_Z   2
loop_
 _symmetry_equiv_pos_site_id
 _symmetry_equiv_pos_as_xyz
  1  'x, y, z'
loop_
 _atom_site_type_symbol
 _atom_site_label
 _atom_site_symmetry_multiplicity
 _atom_site_fract_x
 _atom_site_fract_y
 _atom_site_fract_z
 _atom_site_occupancy
  Np  Np0  1  0.75000000  0.25000000  0.50000000  1
  Np  Np1  1  0.25000000  0.75000000  0.50000000  1
  Np  Np2  1  0.92788200  0.24330700  0.17118900  1
  Np  Np3  1  0.24330700  0.07211800  0.31542500  1
  Np  Np4  1  0.75669300  0.92788200  0.68457500  1
  Np  Np5  1  0.07211800  0.75669300  0.82881100  1
  Np  Np6  1  0.74330700  0.42788200  0.17118900  1
  Np  Np7  1  0.25669300  0.57211800  0.82881100  1
  Np  Np8  1  0.57211800  0.74330700  0.31542500  1
  Np  Np9  1  0.42788200  0.25669300  0.68457500  1
  Ge  Ge0  1  0.75000000  0.75000000  0.00000000  1
  Ge  Ge1  1  0.25000000  0.25000000  0.00000000  1
  Ge  Ge2  1  0.82698900  0.67301100  0.50000000  1
  Ge  Ge3  1  0.67301100  0.17301100  0.84602100  1
  Ge  Ge4  1  0.32698900  0.82698900  0.15397900  1
  Ge  Ge5  1  0.17301100  0.32698900  0.50000000  1
loop_
_geom_bond_atom_site_label_1
_geom_bond_atom_site_label_2
_geom_bond_distance
_geom_bond_site_symmetry_2
Np0 Np1 2.539718 1_655
Np0 Np1 2.539718 1_545
Ge0 Ge1 2.539718 1_665
Ge0 Ge1 2.539718 1_555
Ge0 Np3 3.053061 1_665
Ge0 Np2 3.053061 1_565
Ge0 Np9 3.053061 1_554
Ge0 Np8 3.053061 1_555
Ge0 Np4 3.053061 1_554
Ge0 Np5 3.053061 1_654
Ge0 Np6 3.053061 1_555
Ge0 Np7 3.053061 1_554
Ge1 Np9 3.053061 1_554
Ge1 Np8 3.053061 1_555
Ge1 Np7 3.053061 1_554
Ge1 Np3 3.053061 1_555
Ge1 Np6 3.053061 1_555
Ge1 Np2 3.053061 1_455
Ge1 Np4 3.053061 1_444
Ge1 Np5 3.053061 1_544
Ge2 Np6 2.833871 1_555
Ge2 Np5 2.833871 1_655
Ge2 Np4 2.892605 1_555
Ge2 Np8 2.892605 1_555
Ge2 Np9 2.916654 1_665
Ge2 Np3 2.916654 1_665
Ge2 Np3 2.916654 1_555
Ge2 Np9 2.916654 1_555
Ge2 Np0 2.962852 1_555
Ge2 Np1 2.962852 1_655
Ge3 Np4 2.833867 1_545
Ge3 Np9 2.833867 1_555
Ge3 Np6 2.892612 1_556
Ge3 Np2 2.892612 1_556
Ge3 Np5 2.916652 1_655
Ge3 Np7 2.916652 1_655
Ge3 Np7 2.916656 1_545
Ge3 Np5 2.916656 1_545
Ge3 Np0 2.962844 1_555
Ge3 Np1 2.962846 1_545
Ge4 Np3 2.833867 1_565
Ge4 Np8 2.833867 1_555
Ge4 Np5 2.892612 1_554
Ge4 Np7 2.892612 1_554
Ge4 Np6 2.916652 1_455
Ge4 Np2 2.916652 1_455
Ge4 Np6 2.916656 1_565
Ge4 Np2 2.916656 1_565
Ge4 Np1 2.962844 1_555
Ge4 Np0 2.962846 1_565
Ge5 Np7 2.833871 1_555
Ge5 Np2 2.833871 1_455
Ge5 Np3 2.892605 1_555
Ge5 Np9 2.892605 1_555
Ge5 Np8 2.916654 1_445
Ge5 Np4 2.916654 1_555
Ge5 Np4 2.916654 1_445
Ge5 Np8 2.916654 1_555
Ge5 Np1 2.962852 1_555
Ge5 Np0 2.962852 1_455
