# generated using pymatgen
data_CeSiOs
_symmetry_space_group_name_H-M   'P 1'
_cell_length_a   4.21842103
_cell_length_b   4.21842103
_cell_length_c   6.92923962
_cell_angle_alpha   90.00000000
_cell_angle_beta   90.00000000
_cell_angle_gamma   90.00000000
_symmetry_Int_Tables_number   1
_chemical_formula_structural   CeSiOs
_chemical_formula_sum   'Ce2 Si2 Os2'
_cell_volume   123.30634557
_cell_formula_units_Z   2
loop_
 _symmetry_equiv_pos_site_id
 _symmetry_equiv_pos_as_xyz
  1  'x, y, z'
loop_
 _atom_site_type_symbol
 _atom_site_label
 _atom_site_symmetry_multiplicity
 _atom_site_fract_x
 _atom_site_fract_y
 _atom_site_fract_z
 _atom_site_occupancy
  Ce  Ce0  1  0.25000000  0.25000000  0.68014731  1
  Ce  Ce1  1  0.75000000  0.75000000  0.31985269  1
  Si  Si0  1  0.25000000  0.25000000  0.17667191  1
  Si  Si1  1  0.75000000  0.75000000  0.82332809  1
  Os  Os0  1  0.75000000  0.25000000  0.00000000  1
  Os  Os1  1  0.25000000  0.75000000  0.00000000  1
loop_
_geom_bond_atom_site_label_1
_geom_bond_atom_site_label_2
_geom_bond_distance
_geom_bond_site_symmetry_2
Ce0 Os0 3.059561 1_556
Ce0 Os1 3.059561 1_556
Ce0 Os1 3.059561 1_546
Ce0 Os0 3.059561 1_456
Ce0 Si1 3.143544 1_545
Ce0 Si1 3.143544 1_455
Ce0 Si1 3.143544 1_555
Ce0 Si1 3.143544 1_445
Ce0 Si0 3.488702 1_555
Ce1 Os1 3.059561 1_555
Ce1 Os0 3.059561 1_565
Ce1 Os1 3.059561 1_655
Ce1 Os0 3.059561 1_555
Ce1 Si0 3.143544 1_655
Ce1 Si0 3.143544 1_665
Ce1 Si0 3.143544 1_565
Ce1 Si0 3.143544 1_555
Ce1 Si1 3.488702 1_555
Os0 Si1 2.438737 1_554
Os0 Si1 2.438737 1_544
Os0 Si0 2.438737 1_655
Os0 Si0 2.438737 1_555
Os1 Si1 2.438737 1_554
Os1 Si1 2.438737 1_454
Os1 Si0 2.438737 1_565
Os1 Si0 2.438737 1_555
