# generated using pymatgen
data_ErZn5
_symmetry_space_group_name_H-M   'P 1'
_cell_length_a   5.20250470
_cell_length_b   5.20250604
_cell_length_c   4.17257486
_cell_angle_alpha   90.00000000
_cell_angle_beta   90.00000000
_cell_angle_gamma   119.99999795
_symmetry_Int_Tables_number   1
_chemical_formula_structural   ErZn5
_chemical_formula_sum   'Er1 Zn5'
_cell_volume   97.80472862
_cell_formula_units_Z   1
loop_
 _symmetry_equiv_pos_site_id
 _symmetry_equiv_pos_as_xyz
  1  'x, y, z'
loop_
 _atom_site_type_symbol
 _atom_site_label
 _atom_site_symmetry_multiplicity
 _atom_site_fract_x
 _atom_site_fract_y
 _atom_site_fract_z
 _atom_site_occupancy
  Er  Er0  1  0.00000000  -0.00000000  0.00000000  1
  Zn  Zn0  1  0.50000000  -0.00000000  0.50000000  1
  Zn  Zn1  1  0.00000000  0.50000000  0.50000000  1
  Zn  Zn2  1  0.66666700  0.33333300  0.00000000  1
  Zn  Zn3  1  0.50000000  0.50000000  0.50000000  1
  Zn  Zn4  1  0.33333300  0.66666700  -0.00000000  1
loop_
_geom_bond_atom_site_label_1
_geom_bond_atom_site_label_2
_geom_bond_distance
_geom_bond_site_symmetry_2
Er0 Zn4 3.003665 1_545
Er0 Zn2 3.003665 1_455
Er0 Zn2 3.003669 1_555
Er0 Zn4 3.003669 1_445
Er0 Zn2 3.003670 1_445
Er0 Zn4 3.003670 1_555
Er0 Zn0 3.334533 1_554
Er0 Zn0 3.334533 1_455
Er0 Zn0 3.334533 1_454
Er0 Zn0 3.334533 1_555
Er0 Zn3 3.334533 1_555
Er0 Zn3 3.334533 1_554
Er0 Zn3 3.334533 1_445
Er0 Zn3 3.334533 1_444
Er0 Zn1 3.334533 1_555
Er0 Zn1 3.334533 1_544
Er0 Zn1 3.334533 1_545
Er0 Zn1 3.334533 1_554
Zn0 Zn4 2.570622 1_545
Zn0 Zn2 2.570622 1_555
Zn0 Zn2 2.570622 1_556
Zn0 Zn4 2.570622 1_546
Zn0 Zn1 2.601253 1_655
Zn0 Zn1 2.601253 1_545
Zn0 Zn3 2.601253 1_545
Zn0 Zn3 2.601253 1_555
Zn1 Zn4 2.570622 1_555
Zn1 Zn2 2.570622 1_455
Zn1 Zn4 2.570622 1_556
Zn1 Zn2 2.570622 1_456
Zn1 Zn3 2.601252 1_455
Zn1 Zn3 2.601252 1_555
Zn2 Zn3 2.570624 1_555
Zn2 Zn3 2.570624 1_554
Zn2 Zn4 3.003665 1_655
Zn2 Zn4 3.003665 1_545
Zn2 Zn4 3.003674 1_555
Zn3 Zn4 2.570624 1_555
Zn3 Zn4 2.570624 1_556
