# generated using pymatgen
data_Pr(FeSi)2
_symmetry_space_group_name_H-M   'P 1'
_cell_length_a   4.01771900
_cell_length_b   4.01771903
_cell_length_c   5.66503140
_cell_angle_alpha   110.76934979
_cell_angle_beta   110.76934795
_cell_angle_gamma   90.00000433
_symmetry_Int_Tables_number   1
_chemical_formula_structural   Pr(FeSi)2
_chemical_formula_sum   'Pr1 Fe2 Si2'
_cell_volume   79.11515143
_cell_formula_units_Z   1
loop_
 _symmetry_equiv_pos_site_id
 _symmetry_equiv_pos_as_xyz
  1  'x, y, z'
loop_
 _atom_site_type_symbol
 _atom_site_label
 _atom_site_symmetry_multiplicity
 _atom_site_fract_x
 _atom_site_fract_y
 _atom_site_fract_z
 _atom_site_occupancy
  Pr  Pr0  1  -0.00000000  0.00000000  0.00000000  1
  Fe  Fe0  1  0.75000000  0.25000000  0.50000000  1
  Fe  Fe1  1  0.25000000  0.75000000  0.50000000  1
  Si  Si0  1  0.64537511  0.64537511  0.29075222  1
  Si  Si1  1  0.35462489  0.35462489  0.70924778  1
loop_
_geom_bond_atom_site_label_1
_geom_bond_atom_site_label_2
_geom_bond_distance
_geom_bond_site_symmetry_2
Pr0 Si0 3.178318 1_555
Pr0 Si1 3.178318 1_444
Pr0 Si0 3.178323 1_455
Pr0 Si1 3.178323 1_544
Pr0 Si0 3.178324 1_545
Pr0 Si1 3.178324 1_454
Pr0 Si1 3.178328 1_554
Pr0 Si0 3.178328 1_445
Fe0 Si1 2.255499 1_555
Fe0 Si0 2.255499 1_555
Fe0 Si0 2.255506 1_545
Fe0 Si1 2.255506 1_655
Fe0 Pr0 3.168738 1_655
Fe0 Pr0 3.168739 1_656
Fe0 Pr0 3.168739 1_666
Fe0 Pr0 3.168739 1_555
Fe1 Si0 2.255499 1_555
Fe1 Si1 2.255499 1_555
Fe1 Si1 2.255506 1_565
Fe1 Si0 2.255506 1_455
Fe1 Pr0 3.168738 1_566
Fe1 Pr0 3.168739 1_565
Fe1 Pr0 3.168739 1_555
Fe1 Pr0 3.168739 1_666
