# generated using pymatgen
data_Na4Th(MoO4)4
_symmetry_space_group_name_H-M   'P 1'
_cell_length_a   10.18177095
_cell_length_b   10.18177095
_cell_length_c   10.18177095
_cell_angle_alpha   110.81801909
_cell_angle_beta   110.81801909
_cell_angle_gamma   106.80995467
_symmetry_Int_Tables_number   1
_chemical_formula_structural   Na4Th(MoO4)4
_chemical_formula_sum   'Na8 Th2 Mo8 O32'
_cell_volume   811.23918266
_cell_formula_units_Z   2
loop_
 _symmetry_equiv_pos_site_id
 _symmetry_equiv_pos_as_xyz
  1  'x, y, z'
loop_
 _atom_site_type_symbol
 _atom_site_label
 _atom_site_symmetry_multiplicity
 _atom_site_fract_x
 _atom_site_fract_y
 _atom_site_fract_z
 _atom_site_occupancy
  Na  Na0  1  0.24570400  0.08655400  0.39596600  1
  Na  Na1  1  0.59973800  0.49570400  0.65915000  1
  Na  Na2  1  0.05941200  0.40026200  0.89596600  1
  Na  Na3  1  0.83655400  0.94058800  0.34085000  1
  Na  Na4  1  0.50429600  0.16344600  0.10403400  1
  Na  Na5  1  0.15026200  0.75429600  0.84085000  1
  Na  Na6  1  0.69058800  0.84973800  0.60403400  1
  Na  Na7  1  0.91344600  0.30941200  0.15915000  1
  Th  Th0  1  0.25000000  0.75000000  0.50000000  1
  Th  Th1  1  0.50000000  0.50000000  0.00000000  1
  Mo  Mo0  1  0.81443400  0.58459600  0.41221400  1
  Mo  Mo1  1  0.57761800  0.84778000  0.91221400  1
  Mo  Mo2  1  0.17238200  0.40222000  0.58778600  1
  Mo  Mo3  1  0.59778000  0.18556600  0.77016100  1
  Mo  Mo4  1  0.93556600  0.66540400  0.08778600  1
  Mo  Mo5  1  0.41540400  0.82761800  0.22983900  1
  Mo  Mo6  1  0.33459500  0.42238200  0.27016100  1
  Mo  Mo7  1  0.15222000  0.06443400  0.72983900  1
  O  O0  1  0.21592000  0.01854200  0.88515700  1
  O  O1  1  0.06908800  0.19094800  0.46479100  1
  O  O2  1  0.59852100  0.77113300  0.05212400  1
  O  O3  1  0.00968600  0.59834500  0.23225600  1
  O  O4  1  0.34834500  0.61608800  0.08865900  1
  O  O5  1  0.52113300  0.96900900  0.67261200  1
  O  O6  1  0.76854200  0.38338400  0.30262200  1
  O  O7  1  0.13338400  0.33076300  0.11484300  1
  O  O8  1  0.02384300  0.64570300  0.96479100  1
  O  O9  1  0.15147900  0.47886700  0.44787600  1
  O  O10  1  0.22886700  0.28099100  0.82738800  1
  O  O11  1  0.71900900  0.54639700  0.94787600  1
  O  O12  1  0.03099100  0.70360300  0.55212400  1
  O  O13  1  0.45360300  0.40147900  0.17261200  1
  O  O14  1  0.98145800  0.86661600  0.19737800  1
  O  O15  1  0.66923700  0.78408000  0.80262200  1
  O  O16  1  0.52742900  0.25968600  0.91134100  1
  O  O17  1  0.68091200  0.05905200  0.03520900  1
  O  O18  1  0.80905200  0.27384300  0.87814000  1
  O  O19  1  0.53408000  0.23145800  0.61484300  1
  O  O20  1  0.72615700  0.60429700  0.53520900  1
  O  O21  1  0.08076300  0.46592000  0.69737800  1
  O  O22  1  0.40165500  0.63391200  0.41134100  1
  O  O23  1  0.94094800  0.97615700  0.62186000  1
  O  O24  1  0.22257100  0.99031400  0.58865900  1
  O  O25  1  0.29639700  0.84852100  0.32738800  1
  O  O26  1  0.35429700  0.31908800  0.37814000  1
  O  O27  1  0.39570300  0.93091200  0.12186000  1
  O  O28  1  0.36608800  0.77742900  0.76774400  1
  O  O29  1  0.38391200  0.47257100  0.73225600  1
  O  O30  1  0.74031400  0.65165500  0.26774400  1
  O  O31  1  0.61661600  0.91923700  0.38515700  1
loop_
_geom_bond_atom_site_label_1
_geom_bond_atom_site_label_2
_geom_bond_distance
_geom_bond_site_symmetry_2
Na0 O14 2.402444 1_445
Na0 O26 2.407277 1_555
Na0 O19 2.504111 1_555
Na0 O1 2.515240 1_555
Na0 O25 2.530733 1_545
Na0 O24 2.535042 1_545
Na1 O19 2.402447 1_555
Na1 O20 2.407277 1_555
Na1 O15 2.504111 1_555
Na1 O26 2.515240 1_555
Na1 O11 2.530733 1_555
Na1 O29 2.535035 1_555
Na2 O21 2.402447 1_555
Na2 O18 2.407277 1_455
Na2 O7 2.504110 1_556
Na2 O8 2.515240 1_555
Na2 O10 2.530733 1_555
Na2 O4 2.535042 1_556
Na3 O31 2.402437 1_555
Na3 O1 2.407277 1_665
Na3 O14 2.504108 1_555
Na3 O23 2.515240 1_555
Na3 O2 2.530733 1_555
Na3 O30 2.535044 1_555
Na4 O6 2.402444 1_555
Na4 O27 2.407277 1_545
Na4 O0 2.504111 1_554
Na4 O17 2.515240 1_555
Na4 O13 2.530733 1_555
Na4 O16 2.535042 1_554
Na5 O0 2.402447 1_565
Na5 O8 2.407277 1_555
Na5 O21 2.504111 1_555
Na5 O27 2.515240 1_556
Na5 O12 2.530733 1_555
Na5 O28 2.535035 1_555
Na6 O15 2.402447 1_555
Na6 O23 2.407277 1_555
Na6 O31 2.504110 1_555
Na6 O20 2.515240 1_555
Na6 O5 2.530733 1_555
Na6 O22 2.535042 1_555
Na7 O7 2.402437 1_655
Na7 O17 2.407277 1_555
Na7 O6 2.504108 1_555
Na7 O18 2.515240 1_554
Na7 O9 2.530733 1_655
Na7 O3 2.535044 1_655
Mo0 O6 1.763913 1_555
Mo0 O20 1.772620 1_555
Mo0 O12 1.831497 1_655
Mo0 O30 1.849948 1_555
Mo1 O15 1.763904 1_555
Mo1 O17 1.772620 1_566
Mo1 O2 1.831497 1_556
Mo1 O28 1.849953 1_555
Mo2 O21 1.763904 1_555
Mo2 O1 1.772620 1_555
Mo2 O9 1.831497 1_555
Mo2 O29 1.849953 1_555
Mo3 O19 1.763895 1_555
Mo3 O18 1.772620 1_555
Mo3 O5 1.831498 1_545
Mo3 O16 1.849964 1_555
Mo4 O14 1.763913 1_555
Mo4 O8 1.772620 1_654
Mo4 O11 1.831497 1_554
Mo4 O3 1.849948 1_655
Mo5 O31 1.763908 1_555
Mo5 O27 1.772628 1_555
Mo5 O25 1.831490 1_555
Mo5 O4 1.849958 1_555
Mo6 O7 1.763901 1_555
Mo6 O26 1.772629 1_555
Mo6 O13 1.831499 1_555
Mo6 O22 1.849956 1_555
Mo7 O0 1.763895 1_555
Mo7 O23 1.772620 1_445
Mo7 O10 1.831498 1_555
Mo7 O24 1.849964 1_545
O2 Th1 2.426393 1_555
O3 Th0 2.425754 1_555
O4 Th1 2.425749 1_555
O5 Th0 2.426393 1_555
O9 Th0 2.426393 1_555
O10 Th1 2.426393 1_556
O11 Th1 2.426393 1_556
O12 Th0 2.426393 1_555
O13 Th1 2.426393 1_555
O16 Th1 2.425749 1_556
O22 Th0 2.425749 1_555
O24 Th0 2.425749 1_555
O25 Th0 2.426393 1_555
O28 Th0 2.425758 1_555
O29 Th1 2.425758 1_556
O30 Th1 2.425754 1_555
