# generated using pymatgen
data_MgGeH12(OF)6
_symmetry_space_group_name_H-M   'P 1'
_cell_length_a   9.74186000
_cell_length_b   6.67695300
_cell_length_c   8.56176521
_cell_angle_alpha   79.69821514
_cell_angle_beta   90.00000000
_cell_angle_gamma   90.00000000
_symmetry_Int_Tables_number   1
_chemical_formula_structural   MgGeH12(OF)6
_chemical_formula_sum   'Mg2 Ge2 H24 O12 F12'
_cell_volume   547.93042324
_cell_formula_units_Z   2
loop_
 _symmetry_equiv_pos_site_id
 _symmetry_equiv_pos_as_xyz
  1  'x, y, z'
loop_
 _atom_site_type_symbol
 _atom_site_label
 _atom_site_symmetry_multiplicity
 _atom_site_fract_x
 _atom_site_fract_y
 _atom_site_fract_z
 _atom_site_occupancy
  Mg  Mg0  1  0.00000000  0.00000000  0.00000000  1
  Mg  Mg1  1  0.50000000  0.00000000  0.50000000  1
  Ge  Ge0  1  0.00000000  0.50000000  0.50000000  1
  Ge  Ge1  1  0.50000000  0.50000000  0.00000000  1
  H  H0  1  0.77171800  0.24959000  0.96613800  1
  H  H1  1  0.27171800  0.75041000  0.53386200  1
  H  H2  1  0.22828200  0.75041000  0.03386200  1
  H  H3  1  0.72828200  0.24959000  0.46613800  1
  H  H4  1  0.88932900  0.36365000  0.85648600  1
  H  H5  1  0.38932900  0.63635000  0.64351400  1
  H  H6  1  0.11067100  0.63635000  0.14351400  1
  H  H7  1  0.61067100  0.36365000  0.35648600  1
  H  H8  1  0.22658900  0.25590300  0.97216100  1
  H  H9  1  0.72658900  0.74409700  0.52783900  1
  H  H10  1  0.77341100  0.74409700  0.02783900  1
  H  H11  1  0.27341100  0.25590300  0.47216100  1
  H  H12  1  0.16978600  0.25230900  0.79897800  1
  H  H13  1  0.66978600  0.74769100  0.70102200  1
  H  H14  1  0.83021400  0.74769100  0.20102200  1
  H  H15  1  0.33021400  0.25230900  0.29897800  1
  H  H16  1  0.94076000  0.03618400  0.68246600  1
  H  H17  1  0.44076000  0.96381600  0.81753400  1
  H  H18  1  0.05924000  0.96381600  0.31753400  1
  H  H19  1  0.55924000  0.03618400  0.18246600  1
  H  H20  1  0.97187000  0.80124800  0.74112100  1
  H  H21  1  0.47187000  0.19875200  0.75887900  1
  H  H22  1  0.02813000  0.19875200  0.25887900  1
  H  H23  1  0.52813000  0.80124800  0.24112100  1
  O  O0  1  0.87026400  0.24901400  0.94265200  1
  O  O1  1  0.37026400  0.75098600  0.55734800  1
  O  O2  1  0.12973600  0.75098600  0.05734800  1
  O  O3  1  0.62973600  0.24901400  0.44265200  1
  O  O4  1  0.16501900  0.18376900  0.91024300  1
  O  O5  1  0.66501900  0.81623100  0.58975700  1
  O  O6  1  0.83498100  0.81623100  0.08975700  1
  O  O7  1  0.33498100  0.18376900  0.41024300  1
  O  O8  1  0.96902500  0.93445200  0.77405200  1
  O  O9  1  0.46902500  0.06554800  0.72594800  1
  O  O10  1  0.03097500  0.06554800  0.22594800  1
  O  O11  1  0.53097500  0.93445200  0.27405200  1
  F  F0  1  0.94471800  0.55029400  0.69451200  1
  F  F1  1  0.44471800  0.44970600  0.80548800  1
  F  F2  1  0.05528200  0.44970600  0.30548800  1
  F  F3  1  0.55528200  0.55029400  0.19451200  1
  F  F4  1  0.90456500  0.25886900  0.53262800  1
  F  F5  1  0.40456500  0.74113100  0.96737200  1
  F  F6  1  0.09543500  0.74113100  0.46737200  1
  F  F7  1  0.59543500  0.25886900  0.03262800  1
  F  F8  1  0.15329700  0.36685700  0.59164300  1
  F  F9  1  0.65329700  0.63314300  0.90835700  1
  F  F10  1  0.84670300  0.63314300  0.40835700  1
  F  F11  1  0.34670300  0.36685700  0.09164300  1
loop_
_geom_bond_atom_site_label_1
_geom_bond_atom_site_label_2
_geom_bond_distance
_geom_bond_site_symmetry_2
Mg0 O0 2.076267 1_454
Mg0 O2 2.076267 1_545
Mg0 O10 2.080329 1_555
Mg0 O8 2.080329 1_444
Mg0 O6 2.084041 1_445
Mg0 O4 2.084041 1_554
Mg1 O3 2.076267 1_555
Mg1 O1 2.076267 1_545
Mg1 O9 2.080329 1_555
Mg1 O11 2.080329 1_545
Mg1 O5 2.084041 1_545
Mg1 O7 2.084041 1_555
H0 O0 0.981003 1_555
H1 O1 0.981003 1_555
H2 O2 0.981003 1_555
H3 O3 0.981003 1_555
H4 O0 0.981146 1_555
H5 O1 0.981146 1_555
H6 O2 0.981146 1_555
H7 O3 0.981146 1_555
H8 O4 0.981885 1_555
H9 O5 0.981885 1_555
H10 O6 0.981885 1_555
H11 O7 0.981885 1_555
H12 O4 0.981405 1_555
H13 O5 0.981405 1_555
H14 O6 0.981405 1_555
H15 O7 0.981405 1_555
H16 O8 0.980602 1_545
H17 O9 0.980602 1_565
H18 O10 0.980602 1_565
H19 O11 0.980602 1_545
H20 O8 0.980295 1_555
H21 O9 0.980295 1_555
H22 O10 0.980295 1_555
H23 O11 0.980295 1_555
F0 Ge0 1.837464 1_655
F1 Ge1 1.837464 1_556
F2 Ge0 1.837464 1_555
F3 Ge1 1.837464 1_555
F4 Ge0 1.836765 1_655
F5 Ge1 1.836765 1_556
F6 Ge0 1.836765 1_555
F7 Ge1 1.836765 1_555
F8 Ge0 1.840298 1_555
F9 Ge1 1.840298 1_556
F10 Ge0 1.840298 1_655
F11 Ge1 1.840298 1_555
