# generated using pymatgen
data_CrPbO4
_symmetry_space_group_name_H-M   'P 1'
_cell_length_a   5.87403500
_cell_length_b   7.73412600
_cell_length_c   8.30384600
_cell_angle_alpha   90.00000000
_cell_angle_beta   90.00000000
_cell_angle_gamma   90.00000000
_symmetry_Int_Tables_number   1
_chemical_formula_structural   CrPbO4
_chemical_formula_sum   'Cr4 Pb4 O16'
_cell_volume   377.24809840
_cell_formula_units_Z   4
loop_
 _symmetry_equiv_pos_site_id
 _symmetry_equiv_pos_as_xyz
  1  'x, y, z'
loop_
 _atom_site_type_symbol
 _atom_site_label
 _atom_site_symmetry_multiplicity
 _atom_site_fract_x
 _atom_site_fract_y
 _atom_site_fract_z
 _atom_site_occupancy
  Cr  Cr0  1  0.25000000  0.17017900  0.05055300  1
  Cr  Cr1  1  0.75000000  0.67017900  0.44944700  1
  Cr  Cr2  1  0.75000000  0.82982100  0.94944700  1
  Cr  Cr3  1  0.25000000  0.32982100  0.55055300  1
  Pb  Pb0  1  0.25000000  0.70199200  0.20456800  1
  Pb  Pb1  1  0.75000000  0.29800800  0.79543200  1
  Pb  Pb2  1  0.75000000  0.20199200  0.29543200  1
  Pb  Pb3  1  0.25000000  0.79800800  0.70456800  1
  O  O0  1  0.25000000  0.02161900  0.19465200  1
  O  O1  1  0.75000000  0.97838100  0.80534800  1
  O  O2  1  0.75000000  0.52161900  0.30534800  1
  O  O3  1  0.25000000  0.47838100  0.69465200  1
  O  O4  1  0.25000000  0.07790200  0.87224200  1
  O  O5  1  0.75000000  0.92209800  0.12775800  1
  O  O6  1  0.75000000  0.57790200  0.62775800  1
  O  O7  1  0.25000000  0.42209800  0.37224200  1
  O  O8  1  0.01029100  0.28937300  0.06711100  1
  O  O9  1  0.51029100  0.71062700  0.93288900  1
  O  O10  1  0.98970900  0.78937300  0.43288900  1
  O  O11  1  0.48970900  0.21062700  0.56711100  1
  O  O12  1  0.98970900  0.71062700  0.93288900  1
  O  O13  1  0.48970900  0.28937300  0.06711100  1
  O  O14  1  0.01029100  0.21062700  0.56711100  1
  O  O15  1  0.51029100  0.78937300  0.43288900  1
loop_
_geom_bond_atom_site_label_1
_geom_bond_atom_site_label_2
_geom_bond_distance
_geom_bond_site_symmetry_2
Cr0 O4 1.643690 1_554
Cr0 O0 1.658901 1_555
Cr0 O8 1.688598 1_555
Cr0 O13 1.688598 1_555
Cr1 O6 1.643690 1_555
Cr1 O2 1.658901 1_555
Cr1 O15 1.688598 1_555
Cr1 O10 1.688598 1_555
Cr2 O5 1.643690 1_556
Cr2 O1 1.658901 1_555
Cr2 O9 1.688598 1_555
Cr2 O12 1.688598 1_555
Cr3 O7 1.643690 1_555
Cr3 O3 1.658901 1_555
Cr3 O14 1.688598 1_555
Cr3 O11 1.688598 1_555
O0 Pb0 2.473406 1_545
O1 Pb1 2.473406 1_565
O2 Pb2 2.473406 1_555
O3 Pb3 2.473406 1_555
O4 Pb3 2.573847 1_545
O5 Pb2 2.573847 1_565
O6 Pb1 2.573847 1_555
O7 Pb0 2.573847 1_555
O8 Pb2 2.527655 1_455
O8 Pb1 2.726100 1_454
O9 Pb3 2.527655 1_555
O9 Pb0 2.726100 1_556
O10 Pb0 2.527655 1_655
O10 Pb3 2.726100 1_655
O11 Pb1 2.527655 1_555
O11 Pb2 2.726100 1_555
O12 Pb3 2.527655 1_655
O12 Pb0 2.726100 1_656
O13 Pb2 2.527655 1_555
O13 Pb1 2.726100 1_554
O14 Pb1 2.527655 1_455
O14 Pb2 2.726100 1_455
O15 Pb0 2.527655 1_555
O15 Pb3 2.726100 1_555
