# generated using pymatgen
data_LiPO3
_symmetry_space_group_name_H-M   'P 1'
_cell_length_a   5.51204800
_cell_length_b   13.30120500
_cell_length_c   19.62527469
_cell_angle_alpha   57.39720559
_cell_angle_beta   90.00000000
_cell_angle_gamma   90.00000000
_symmetry_Int_Tables_number   1
_chemical_formula_structural   LiPO3
_chemical_formula_sum   'Li20 P20 O60'
_cell_volume   1212.13654651
_cell_formula_units_Z   20
loop_
 _symmetry_equiv_pos_site_id
 _symmetry_equiv_pos_as_xyz
  1  'x, y, z'
loop_
 _atom_site_type_symbol
 _atom_site_label
 _atom_site_symmetry_multiplicity
 _atom_site_fract_x
 _atom_site_fract_y
 _atom_site_fract_z
 _atom_site_occupancy
  Li  Li0  1  0.50803000  0.61788600  0.44243300  1
  Li  Li1  1  0.49197000  0.61788600  0.94243300  1
  Li  Li2  1  0.49197000  0.38211400  0.55756700  1
  Li  Li3  1  0.00801600  0.00000000  0.75000000  1
  Li  Li4  1  0.47828600  0.64656200  0.67434700  1
  Li  Li5  1  0.03823500  0.50000000  0.25000000  1
  Li  Li6  1  0.52171400  0.64656200  0.17434700  1
  Li  Li7  1  0.50803000  0.38211400  0.05756700  1
  Li  Li8  1  0.52530400  0.88245300  0.55820800  1
  Li  Li9  1  0.99198400  0.00000000  0.25000000  1
  Li  Li10  1  0.96176500  0.50000000  0.75000000  1
  Li  Li11  1  0.47469600  0.88245300  0.05820800  1
  Li  Li12  1  0.49471000  0.85342200  0.82717700  1
  Li  Li13  1  0.50529000  0.85342200  0.32717700  1
  Li  Li14  1  0.50529000  0.14657800  0.17282300  1
  Li  Li15  1  0.47469600  0.11754700  0.44179200  1
  Li  Li16  1  0.47828600  0.35343800  0.82565300  1
  Li  Li17  1  0.49471000  0.14657800  0.67282300  1
  Li  Li18  1  0.52171400  0.35343800  0.32565300  1
  Li  Li19  1  0.52530400  0.11754700  0.94179200  1
  P  P0  1  0.82809900  0.86197400  0.18360300  1
  P  P1  1  0.81145500  0.67142700  0.79504800  1
  P  P2  1  0.15418100  0.47557900  0.89887700  1
  P  P3  1  0.18731700  0.26935200  0.49158700  1
  P  P4  1  0.18731700  0.73064800  0.00841300  1
  P  P5  1  0.15418100  0.52442100  0.60112300  1
  P  P6  1  0.15631700  0.93584600  0.41731800  1
  P  P7  1  0.17190100  0.13802600  0.81639700  1
  P  P8  1  0.18854500  0.32857300  0.20495200  1
  P  P9  1  0.81268300  0.26935200  0.99158700  1
  P  P10  1  0.82809900  0.13802600  0.31639700  1
  P  P11  1  0.84581900  0.47557900  0.39887700  1
  P  P12  1  0.84581900  0.52442100  0.10112300  1
  P  P13  1  0.17190100  0.86197400  0.68360300  1
  P  P14  1  0.81145500  0.32857300  0.70495200  1
  P  P15  1  0.15631700  0.06415400  0.08268200  1
  P  P16  1  0.18854500  0.67142700  0.29504800  1
  P  P17  1  0.81268300  0.73064800  0.50841300  1
  P  P18  1  0.84368300  0.93584600  0.91731800  1
  P  P19  1  0.84368300  0.06415400  0.58268200  1
  O  O0  1  0.65699700  0.20190700  0.33957400  1
  O  O1  1  0.67787600  0.73750700  0.57308700  1
  O  O2  1  0.05636900  0.80713300  0.48774300  1
  O  O3  1  0.32351500  0.75759900  0.93417600  1
  O  O4  1  0.35473700  0.03084400  0.04557000  1
  O  O5  1  0.25696300  0.09651800  0.76216000  1
  O  O6  1  0.67648500  0.24240100  0.06582400  1
  O  O7  1  0.64526300  0.96915600  0.95443000  1
  O  O8  1  0.08148100  0.59676400  0.04733400  1
  O  O9  1  0.35553800  0.29064300  0.16255700  1
  O  O10  1  0.95009100  0.38783800  0.14874200  1
  O  O11  1  0.21573900  0.06205900  0.15884200  1
  O  O12  1  0.64446200  0.70935700  0.83744300  1
  O  O13  1  0.65184400  0.52772000  0.04761700  1
  O  O14  1  0.35473700  0.96915600  0.45443000  1
  O  O15  1  0.65699700  0.79809300  0.16042600  1
  O  O16  1  0.72275200  0.40517400  0.73389000  1
  O  O17  1  0.20367600  0.44019200  0.83916400  1
  O  O18  1  0.64446200  0.29064300  0.66255700  1
  O  O19  1  0.34300300  0.20190700  0.83957400  1
  O  O20  1  0.08148100  0.40323600  0.45266600  1
  O  O21  1  0.04990900  0.61216200  0.85125800  1
  O  O22  1  0.79632400  0.55980800  0.16083600  1
  O  O23  1  0.67648500  0.75759900  0.43417600  1
  O  O24  1  0.91851900  0.40323600  0.95266600  1
  O  O25  1  0.94363100  0.80713300  0.98774300  1
  O  O26  1  0.07783700  0.02043200  0.90102400  1
  O  O27  1  0.32351500  0.24240100  0.56582400  1
  O  O28  1  0.07783700  0.97956800  0.59897600  1
  O  O29  1  0.78426100  0.06205900  0.65884200  1
  O  O30  1  0.21573900  0.93794100  0.34115800  1
  O  O31  1  0.35553800  0.70935700  0.33744300  1
  O  O32  1  0.78426100  0.93794100  0.84115800  1
  O  O33  1  0.95009100  0.61216200  0.35125800  1
  O  O34  1  0.79632400  0.44019200  0.33916400  1
  O  O35  1  0.92216300  0.97956800  0.09897600  1
  O  O36  1  0.74303700  0.90348200  0.23784000  1
  O  O37  1  0.05636900  0.19286700  0.01225700  1
  O  O38  1  0.92010800  0.78916600  0.71647400  1
  O  O39  1  0.04990900  0.38783800  0.64874200  1
  O  O40  1  0.94363100  0.19286700  0.51225700  1
  O  O41  1  0.92010800  0.21083400  0.78352600  1
  O  O42  1  0.27724800  0.40517400  0.23389000  1
  O  O43  1  0.32212400  0.73750700  0.07308700  1
  O  O44  1  0.34815600  0.52772000  0.54761700  1
  O  O45  1  0.20367600  0.55980800  0.66083600  1
  O  O46  1  0.34300300  0.79809300  0.66042600  1
  O  O47  1  0.67787600  0.26249300  0.92691300  1
  O  O48  1  0.34815600  0.47228000  0.95238300  1
  O  O49  1  0.07989200  0.21083400  0.28352600  1
  O  O50  1  0.07989200  0.78916600  0.21647400  1
  O  O51  1  0.64526300  0.03084400  0.54557000  1
  O  O52  1  0.92216300  0.02043200  0.40102400  1
  O  O53  1  0.32212400  0.26249300  0.42691300  1
  O  O54  1  0.91851900  0.59676400  0.54733400  1
  O  O55  1  0.65184400  0.47228000  0.45238300  1
  O  O56  1  0.27724800  0.59482600  0.26611000  1
  O  O57  1  0.25696300  0.90348200  0.73784000  1
  O  O58  1  0.74303700  0.09651800  0.26216000  1
  O  O59  1  0.72275200  0.59482600  0.76611000  1
loop_
_geom_bond_atom_site_label_1
_geom_bond_atom_site_label_2
_geom_bond_distance
_geom_bond_site_symmetry_2
Li0 O31 1.931526 1_555
Li0 O44 1.951471 1_555
Li0 O55 2.002478 1_555
Li0 O23 2.004342 1_555
Li1 O12 1.931526 1_555
Li1 O13 1.951471 1_556
Li1 O48 2.002478 1_555
Li1 O3 2.004342 1_555
Li2 O18 1.931526 1_555
Li2 O55 1.951471 1_555
Li2 O44 2.002478 1_555
Li2 O27 2.004342 1_555
Li3 O32 1.952352 1_445
Li3 O29 1.952352 1_455
Li3 O57 1.979448 1_545
Li3 O5 1.979448 1_555
Li4 O45 2.005685 1_555
Li4 O1 2.008057 1_555
Li4 O46 2.024775 1_555
Li4 O59 2.048660 1_555
Li5 O56 1.963733 1_555
Li5 O42 1.963733 1_555
Li5 O22 1.993189 1_455
Li5 O34 1.993189 1_455
Li6 O22 2.005685 1_555
Li6 O43 2.008057 1_555
Li6 O15 2.024775 1_555
Li6 O56 2.048660 1_555
Li7 O9 1.931526 1_555
Li7 O48 1.951471 1_554
Li7 O13 2.002478 1_555
Li7 O6 2.004342 1_555
Li8 O14 1.957251 1_555
Li8 O51 1.966465 1_565
Li8 O46 1.966563 1_555
Li8 O1 1.975567 1_555
Li9 O11 1.952352 1_655
Li9 O30 1.952352 1_645
Li9 O58 1.979448 1_555
Li9 O36 1.979448 1_545
Li10 O59 1.963733 1_555
Li10 O16 1.963733 1_555
Li10 O45 1.993189 1_655
Li10 O17 1.993189 1_655
Li11 O7 1.957251 1_554
Li11 O4 1.966465 1_565
Li11 O15 1.966563 1_555
Li11 O43 1.975567 1_555
Li12 O57 1.994140 1_555
Li12 O12 1.994461 1_555
Li12 O3 2.010046 1_555
Li12 O32 2.053972 1_555
Li13 O36 1.994140 1_555
Li13 O31 1.994461 1_555
Li13 O23 2.010046 1_555
Li13 O30 2.053972 1_555
Li14 O58 1.994140 1_555
Li14 O9 1.994461 1_555
Li14 O6 2.010046 1_555
Li14 O11 2.053972 1_555
Li15 O51 1.957251 1_555
Li15 O14 1.966465 1_545
Li15 O0 1.966563 1_555
Li15 O53 1.975567 1_555
Li16 O17 2.005685 1_555
Li16 O47 2.008057 1_555
Li16 O19 2.024775 1_555
Li16 O16 2.048660 1_555
Li17 O5 1.994140 1_555
Li17 O18 1.994461 1_555
Li17 O27 2.010046 1_555
Li17 O29 2.053972 1_555
Li18 O34 2.005685 1_555
Li18 O53 2.008057 1_555
Li18 O0 2.024775 1_555
Li18 O42 2.048660 1_555
Li19 O4 1.957251 1_556
Li19 O7 1.966465 1_545
Li19 O19 1.966563 1_555
Li19 O47 1.975567 1_555
O0 P10 1.494939 1_555
O1 P17 1.515333 1_555
O2 P17 1.599696 1_455
O2 P6 1.610873 1_555
O3 P4 1.500635 1_556
O4 P15 1.506885 1_555
O5 P7 1.513581 1_555
O6 P9 1.500635 1_554
O7 P18 1.506885 1_555
O8 P4 1.621494 1_555
O8 P12 1.622650 1_455
O9 P8 1.498799 1_555
O10 P8 1.621354 1_655
O10 P12 1.635416 1_555
O11 P15 1.515647 1_555
O12 P1 1.498799 1_555
O13 P12 1.482601 1_555
O14 P6 1.506885 1_555
O15 P0 1.494939 1_555
O16 P14 1.491064 1_555
O17 P2 1.504560 1_555
O18 P14 1.498799 1_555
O19 P7 1.494939 1_555
O20 P3 1.621494 1_555
O20 P11 1.622650 1_455
O21 P1 1.621354 1_455
O21 P2 1.635416 1_555
O22 P12 1.504560 1_555
O23 P17 1.500635 1_555
O24 P9 1.621494 1_555
O24 P2 1.622650 1_655
O25 P4 1.599696 1_656
O25 P18 1.610873 1_555
O26 P18 1.626719 1_445
O26 P7 1.635328 1_555
O27 P3 1.500635 1_555
O28 P19 1.626719 1_465
O28 P13 1.635328 1_555
O29 P19 1.515647 1_555
O30 P6 1.515647 1_555
O31 P16 1.498799 1_555
O32 P18 1.515647 1_555
O33 P16 1.621354 1_655
O33 P11 1.635416 1_555
O34 P11 1.504560 1_555
O35 P15 1.626719 1_665
O35 P0 1.635328 1_555
O36 P0 1.513581 1_555
O37 P9 1.599696 1_454
O37 P15 1.610873 1_555
O38 P1 1.608335 1_555
O38 P13 1.614633 1_655
O39 P14 1.621354 1_455
O39 P5 1.635416 1_555
O40 P3 1.599696 1_655
O40 P19 1.610873 1_555
O41 P14 1.608335 1_555
O41 P7 1.614633 1_655
O42 P8 1.491064 1_555
O43 P4 1.515333 1_555
O44 P5 1.482601 1_555
O45 P5 1.504560 1_555
O46 P13 1.494939 1_555
O47 P9 1.515333 1_555
O48 P2 1.482601 1_555
O49 P8 1.608335 1_555
O49 P10 1.614633 1_455
O50 P16 1.608335 1_555
O50 P0 1.614633 1_455
O51 P19 1.506885 1_555
O52 P6 1.626719 1_645
O52 P10 1.635328 1_555
O53 P3 1.515333 1_555
O54 P17 1.621494 1_555
O54 P5 1.622650 1_655
O55 P11 1.482601 1_555
O56 P16 1.491064 1_555
O57 P13 1.513581 1_555
O58 P10 1.513581 1_555
O59 P1 1.491064 1_555
