# generated using pymatgen
data_Rb4Fe2O5
_symmetry_space_group_name_H-M   'P 1'
_cell_length_a   9.48212520
_cell_length_b   9.48212520
_cell_length_c   7.25867354
_cell_angle_alpha   84.83184361
_cell_angle_beta   84.83184361
_cell_angle_gamma   135.91830631
_symmetry_Int_Tables_number   1
_chemical_formula_structural   Rb4Fe2O5
_chemical_formula_sum   'Rb8 Fe4 O10'
_cell_volume   440.75117283
_cell_formula_units_Z   2
loop_
 _symmetry_equiv_pos_site_id
 _symmetry_equiv_pos_as_xyz
  1  'x, y, z'
loop_
 _atom_site_type_symbol
 _atom_site_label
 _atom_site_symmetry_multiplicity
 _atom_site_fract_x
 _atom_site_fract_y
 _atom_site_fract_z
 _atom_site_occupancy
  Rb  Rb0  1  0.46244751  0.53755249  0.25000000  1
  Rb  Rb1  1  0.53755249  0.46244751  0.75000000  1
  Rb  Rb2  1  0.02057516  0.97942484  0.25000000  1
  Rb  Rb3  1  0.97942484  0.02057516  0.75000000  1
  Rb  Rb4  1  0.46717438  0.82719379  0.88612079  1
  Rb  Rb5  1  0.17280621  0.53282562  0.61387921  1
  Rb  Rb6  1  0.82719379  0.46717438  0.38612079  1
  Rb  Rb7  1  0.53282562  0.17280621  0.11387921  1
  Fe  Fe0  1  0.30491386  0.99729511  0.59463412  1
  Fe  Fe1  1  0.99729511  0.30491386  0.09463412  1
  Fe  Fe2  1  0.69508614  0.00270489  0.40536588  1
  Fe  Fe3  1  0.00270489  0.69508614  0.90536588  1
  O  O0  1  0.20701186  0.36063789  0.95621220  1
  O  O1  1  0.27398044  0.98169096  0.86638604  1
  O  O2  1  0.36063789  0.20701186  0.45621220  1
  O  O3  1  0.72601956  0.01830904  0.13361396  1
  O  O4  1  0.98169096  0.27398044  0.36638604  1
  O  O5  1  -0.00000000  0.50000000  0.00000000  1
  O  O6  1  0.63936211  0.79298814  0.54378780  1
  O  O7  1  0.01830904  0.72601956  0.63361396  1
  O  O8  1  0.79298814  0.63936211  0.04378780  1
  O  O9  1  0.50000000  -0.00000000  0.50000000  1
loop_
_geom_bond_atom_site_label_1
_geom_bond_atom_site_label_2
_geom_bond_distance
_geom_bond_site_symmetry_2
Fe0 O2 1.810505 1_565
Fe0 O9 1.895819 1_565
Fe0 O7 1.941463 1_555
Fe0 O1 1.944156 1_555
Fe1 O0 1.810505 1_654
Fe1 O5 1.895819 1_655
Fe1 O3 1.941463 1_555
Fe1 O4 1.944156 1_555
Fe2 O6 1.810505 1_545
Fe2 O9 1.895819 1_555
Fe2 O4 1.941463 1_555
Fe2 O3 1.944156 1_555
Fe3 O8 1.810505 1_456
Fe3 O5 1.895819 1_556
Fe3 O1 1.941463 1_555
Fe3 O7 1.944156 1_555
O0 Rb1 2.746505 1_555
O0 Rb3 2.957901 1_455
O0 Rb0 2.994281 1_556
O0 Rb5 3.020044 1_555
O0 Rb2 3.080632 1_546
O0 Rb4 3.099164 1_555
O1 Rb7 2.743375 1_566
O1 Rb4 3.063904 1_555
O1 Rb1 3.209080 1_565
O1 Rb3 3.240224 1_465
O1 Rb2 3.498180 1_556
O2 Rb0 2.746505 1_555
O2 Rb2 2.957901 1_545
O2 Rb1 2.994281 1_555
O2 Rb7 3.020044 1_555
O2 Rb3 3.080632 1_455
O2 Rb6 3.099164 1_555
O3 Rb4 2.743375 1_544
O3 Rb7 3.063904 1_555
O3 Rb0 3.209080 1_545
O3 Rb2 3.240224 1_645
O3 Rb3 3.498180 1_554
O4 Rb5 2.743375 1_655
O4 Rb6 3.063904 1_555
O4 Rb0 3.209080 1_655
O4 Rb2 3.240224 1_645
O4 Rb3 3.498180 1_555
O5 Rb5 2.986601 1_554
O5 Rb6 2.986601 1_455
O5 Rb7 3.010822 1_455
O5 Rb4 3.010822 1_554
O6 Rb1 2.746505 1_555
O6 Rb3 2.957901 1_565
O6 Rb0 2.994281 1_555
O6 Rb4 3.020044 1_555
O6 Rb2 3.080632 1_655
O6 Rb5 3.099164 1_555
O7 Rb6 2.743375 1_455
O7 Rb5 3.063904 1_555
O7 Rb1 3.209080 1_455
O7 Rb3 3.240224 1_465
O7 Rb2 3.498180 1_555
O8 Rb0 2.746505 1_555
O8 Rb2 2.957901 1_655
O8 Rb1 2.994281 1_554
O8 Rb6 3.020044 1_555
O8 Rb3 3.080632 1_564
O8 Rb7 3.099164 1_555
O9 Rb4 2.986601 1_545
O9 Rb7 2.986601 1_555
O9 Rb5 3.010822 1_545
O9 Rb6 3.010822 1_555
