# generated using pymatgen
data_Sn(SeO3)2
_symmetry_space_group_name_H-M   'P 1'
_cell_length_a   8.58887320
_cell_length_b   4.79768292
_cell_length_c   6.98774562
_cell_angle_alpha   69.22255086
_cell_angle_beta   90.00000000
_cell_angle_gamma   90.00000000
_symmetry_Int_Tables_number   1
_chemical_formula_structural   Sn(SeO3)2
_chemical_formula_sum   'Sn2 Se4 O12'
_cell_volume   269.21567617
_cell_formula_units_Z   2
loop_
 _symmetry_equiv_pos_site_id
 _symmetry_equiv_pos_as_xyz
  1  'x, y, z'
loop_
 _atom_site_type_symbol
 _atom_site_label
 _atom_site_symmetry_multiplicity
 _atom_site_fract_x
 _atom_site_fract_y
 _atom_site_fract_z
 _atom_site_occupancy
  Sn  Sn0  1  0.50000000  0.50000000  0.50000000  1
  Sn  Sn1  1  -0.00000000  0.50000000  0.00000000  1
  Se  Se0  1  0.15045433  0.86581539  0.31457623  1
  Se  Se1  1  0.34954567  0.86581539  0.81457623  1
  Se  Se2  1  0.84954567  0.13418461  0.68542377  1
  Se  Se3  1  0.65045433  0.13418461  0.18542377  1
  O  O0  1  0.06169388  0.58642975  0.25906343  1
  O  O1  1  0.65735967  0.22273091  0.69724520  1
  O  O2  1  0.84486697  0.84778797  0.91903478  1
  O  O3  1  0.34486697  0.15221203  0.58096522  1
  O  O4  1  0.93830612  0.41357025  0.74093657  1
  O  O5  1  0.43830612  0.58642975  0.75906343  1
  O  O6  1  0.15513303  0.15221203  0.08096522  1
  O  O7  1  0.15735967  0.77726909  0.80275480  1
  O  O8  1  0.84264033  0.22273091  0.19724520  1
  O  O9  1  0.56169388  0.41357025  0.24093657  1
  O  O10  1  0.34264033  0.77726909  0.30275480  1
  O  O11  1  0.65513303  0.84778797  0.41903478  1
loop_
_geom_bond_atom_site_label_1
_geom_bond_atom_site_label_2
_geom_bond_distance
_geom_bond_site_symmetry_2
O0 Se0 1.702126 1_555
O0 Sn1 2.064549 1_555
O1 Se2 1.713731 1_555
O1 Sn0 2.048200 1_555
O2 Se2 1.721342 1_565
O2 Sn1 2.051783 1_656
O3 Se1 1.721342 1_545
O3 Sn0 2.051783 1_555
O4 Se2 1.702126 1_555
O4 Sn1 2.064549 1_656
O5 Se1 1.702126 1_555
O5 Sn0 2.064549 1_555
O6 Se0 1.721342 1_545
O6 Sn1 2.051783 1_555
O7 Se1 1.713731 1_555
O7 Sn1 2.048200 1_556
O8 Se3 1.713731 1_555
O8 Sn1 2.048200 1_655
O9 Se3 1.702126 1_555
O9 Sn0 2.064549 1_555
O10 Se0 1.713731 1_555
O10 Sn0 2.048200 1_555
O11 Se3 1.721342 1_565
O11 Sn0 2.051783 1_555
