# generated using pymatgen
data_AlPO4
_symmetry_space_group_name_H-M   'P 1'
_cell_length_a   13.86563599
_cell_length_b   13.86563599
_cell_length_c   20.19726600
_cell_angle_alpha   90.00000000
_cell_angle_beta   90.00000000
_cell_angle_gamma   119.99999994
_symmetry_Int_Tables_number   1
_chemical_formula_structural   AlPO4
_chemical_formula_sum   'Al24 P24 O96'
_cell_volume   3362.81368579
_cell_formula_units_Z   24
loop_
 _symmetry_equiv_pos_site_id
 _symmetry_equiv_pos_as_xyz
  1  'x, y, z'
loop_
 _atom_site_type_symbol
 _atom_site_label
 _atom_site_symmetry_multiplicity
 _atom_site_fract_x
 _atom_site_fract_y
 _atom_site_fract_z
 _atom_site_occupancy
  Al  Al0  1  0.56307600  0.66817200  0.32682700  1
  Al  Al1  1  0.99656800  0.22750100  0.57606800  1
  Al  Al2  1  0.23093300  0.00343200  0.57606800  1
  Al  Al3  1  0.56307600  0.89490400  0.17317300  1
  Al  Al4  1  0.99656800  0.76906700  0.92393200  1
  Al  Al5  1  0.10509600  0.43692400  0.32682700  1
  Al  Al6  1  0.66817200  0.56307600  0.82682700  1
  Al  Al7  1  0.23093300  0.22750100  0.92393200  1
  Al  Al8  1  0.22750100  0.99656800  0.07606800  1
  Al  Al9  1  0.77249900  0.76906700  0.57606800  1
  Al  Al10  1  0.77249900  0.00343200  0.92393200  1
  Al  Al11  1  0.89490400  0.33182800  0.82682700  1
  Al  Al12  1  0.66817200  0.10509600  0.67317300  1
  Al  Al13  1  0.33182800  0.43692400  0.17317300  1
  Al  Al14  1  0.43692400  0.33182800  0.67317300  1
  Al  Al15  1  0.33182800  0.89490400  0.32682700  1
  Al  Al16  1  0.89490400  0.56307600  0.67317300  1
  Al  Al17  1  0.00343200  0.77249900  0.42393200  1
  Al  Al18  1  0.43692400  0.10509600  0.82682700  1
  Al  Al19  1  0.10509600  0.66817200  0.17317300  1
  Al  Al20  1  0.76906700  0.99656800  0.42393200  1
  Al  Al21  1  0.00343200  0.23093300  0.07606800  1
  Al  Al22  1  0.76906700  0.77249900  0.07606800  1
  Al  Al23  1  0.22750100  0.23093300  0.42393200  1
  P  P0  1  0.00374900  0.23083100  0.92055100  1
  P  P1  1  0.10417800  0.43950600  0.17010700  1
  P  P2  1  0.99625100  0.76916900  0.07944900  1
  P  P3  1  0.89582200  0.33532800  0.67010700  1
  P  P4  1  0.33532800  0.89582200  0.17010700  1
  P  P5  1  0.77291800  0.00374900  0.07944900  1
  P  P6  1  0.76916900  0.77291800  0.92055100  1
  P  P7  1  0.43950600  0.33532800  0.82989300  1
  P  P8  1  0.76916900  0.99625100  0.57944900  1
  P  P9  1  0.23083100  0.00374900  0.42055100  1
  P  P10  1  0.89582200  0.56049400  0.82989300  1
  P  P11  1  0.23083100  0.22708200  0.07944900  1
  P  P12  1  0.56049400  0.89582200  0.32989300  1
  P  P13  1  0.22708200  0.99625100  0.92055100  1
  P  P14  1  0.77291800  0.76916900  0.42055100  1
  P  P15  1  0.66467200  0.56049400  0.67010700  1
  P  P16  1  0.22708200  0.23083100  0.57944900  1
  P  P17  1  0.56049400  0.66467200  0.17010700  1
  P  P18  1  0.33532800  0.43950600  0.32989300  1
  P  P19  1  0.00374900  0.77291800  0.57944900  1
  P  P20  1  0.43950600  0.10417800  0.67010700  1
  P  P21  1  0.10417800  0.66467200  0.32989300  1
  P  P22  1  0.99625100  0.22708200  0.42055100  1
  P  P23  1  0.66467200  0.10417800  0.82989300  1
  O  O0  1  0.30875200  0.32236100  0.12549900  1
  O  O1  1  0.67763900  0.69124800  0.37450100  1
  O  O2  1  0.45902300  0.90650900  0.34835500  1
  O  O3  1  0.91071000  0.80173100  0.58929600  1
  O  O4  1  0.30875200  0.98639100  0.37450100  1
  O  O5  1  0.24001000  0.12439300  0.09686400  1
  O  O6  1  0.69124800  0.67763900  0.87450100  1
  O  O7  1  0.00423400  0.26720800  0.99272200  1
  O  O8  1  0.59376200  0.66518900  0.24291200  1
  O  O9  1  0.54097700  0.09349100  0.65164500  1
  O  O10  1  0.32236100  0.01360900  0.87450100  1
  O  O11  1  0.73702700  0.73279200  0.49272200  1
  O  O12  1  0.69124800  0.01360900  0.62549900  1
  O  O13  1  0.40623800  0.07142700  0.74291200  1
  O  O14  1  0.45902300  0.55251300  0.15164500  1
  O  O15  1  0.75747900  0.53190100  0.65853700  1
  O  O16  1  0.09349100  0.55251300  0.34835500  1
  O  O17  1  0.24001000  0.11561700  0.40313600  1
  O  O18  1  0.24252100  0.77442200  0.15853700  1
  O  O19  1  0.31792100  0.34221200  0.37404600  1
  O  O20  1  0.34221200  0.31792100  0.87404600  1
  O  O21  1  0.54097700  0.44748700  0.84835500  1
  O  O22  1  0.26297300  0.26720800  0.50727800  1
  O  O23  1  0.26720800  0.00423400  0.49272200  1
  O  O24  1  0.89102100  0.80173100  0.91070400  1
  O  O25  1  0.98639100  0.67763900  0.62549900  1
  O  O26  1  0.01360900  0.32236100  0.37450100  1
  O  O27  1  0.01360900  0.69124800  0.12549900  1
  O  O28  1  0.10897900  0.91071000  0.41070400  1
  O  O29  1  0.91071000  0.10897900  0.91070400  1
  O  O30  1  0.09349100  0.54097700  0.15164500  1
  O  O31  1  0.65778800  0.97571000  0.37404600  1
  O  O32  1  0.87560700  0.11561700  0.09686400  1
  O  O33  1  0.68207900  0.02429000  0.87404600  1
  O  O34  1  0.66518900  0.07142700  0.75708800  1
  O  O35  1  0.22557800  0.75747900  0.34146300  1
  O  O36  1  0.32236100  0.30875200  0.62549900  1
  O  O37  1  0.26720800  0.26297300  0.00727800  1
  O  O38  1  0.24252100  0.46809900  0.34146300  1
  O  O39  1  0.53190100  0.77442200  0.34146300  1
  O  O40  1  0.19827000  0.10897900  0.58929600  1
  O  O41  1  0.66518900  0.59376200  0.74291200  1
  O  O42  1  0.88438300  0.12439300  0.40313600  1
  O  O43  1  0.75999000  0.88438300  0.59686400  1
  O  O44  1  0.08929000  0.89102100  0.08929600  1
  O  O45  1  0.08929000  0.19827000  0.41070400  1
  O  O46  1  0.99576600  0.26297300  0.49272200  1
  O  O47  1  0.34221200  0.02429000  0.62595400  1
  O  O48  1  0.19827000  0.08929000  0.91070400  1
  O  O49  1  0.88438300  0.75999000  0.09686400  1
  O  O50  1  0.90650900  0.44748700  0.65164500  1
  O  O51  1  0.80173100  0.89102100  0.41070400  1
  O  O52  1  0.22557800  0.46809900  0.15853700  1
  O  O53  1  0.44748700  0.54097700  0.34835500  1
  O  O54  1  0.33481100  0.40623800  0.25708800  1
  O  O55  1  0.73279200  0.73702700  0.99272200  1
  O  O56  1  0.33481100  0.92857300  0.24291200  1
  O  O57  1  0.97571000  0.31792100  0.62595400  1
  O  O58  1  0.55251300  0.45902300  0.65164500  1
  O  O59  1  0.67763900  0.98639100  0.12549900  1
  O  O60  1  0.40623800  0.33481100  0.75708800  1
  O  O61  1  0.00423400  0.73702700  0.50727800  1
  O  O62  1  0.98639100  0.30875200  0.87450100  1
  O  O63  1  0.80173100  0.91071000  0.08929600  1
  O  O64  1  0.87560700  0.75999000  0.40313600  1
  O  O65  1  0.89102100  0.08929000  0.58929600  1
  O  O66  1  0.46809900  0.22557800  0.65853700  1
  O  O67  1  0.59376200  0.92857300  0.25708800  1
  O  O68  1  0.11561700  0.24001000  0.90313600  1
  O  O69  1  0.75747900  0.22557800  0.84146300  1
  O  O70  1  0.92857300  0.59376200  0.75708800  1
  O  O71  1  0.10897900  0.19827000  0.08929600  1
  O  O72  1  0.07142700  0.66518900  0.25708800  1
  O  O73  1  0.26297300  0.99576600  0.99272200  1
  O  O74  1  0.44748700  0.90650900  0.15164500  1
  O  O75  1  0.12439300  0.88438300  0.90313600  1
  O  O76  1  0.02429000  0.34221200  0.12595400  1
  O  O77  1  0.07142700  0.40623800  0.24291200  1
  O  O78  1  0.99576600  0.73279200  0.00727800  1
  O  O79  1  0.90650900  0.45902300  0.84835500  1
  O  O80  1  0.12439300  0.24001000  0.59686400  1
  O  O81  1  0.11561700  0.87560700  0.59686400  1
  O  O82  1  0.97571000  0.65778800  0.87404600  1
  O  O83  1  0.31792100  0.97571000  0.12595400  1
  O  O84  1  0.77442200  0.24252100  0.65853700  1
  O  O85  1  0.73279200  0.99576600  0.50727800  1
  O  O86  1  0.65778800  0.68207900  0.12595400  1
  O  O87  1  0.73702700  0.00423400  0.00727800  1
  O  O88  1  0.02429000  0.68207900  0.37404600  1
  O  O89  1  0.68207900  0.65778800  0.62595400  1
  O  O90  1  0.77442200  0.53190100  0.84146300  1
  O  O91  1  0.53190100  0.75747900  0.15853700  1
  O  O92  1  0.55251300  0.09349100  0.84835500  1
  O  O93  1  0.75999000  0.87560700  0.90313600  1
  O  O94  1  0.92857300  0.33481100  0.74291200  1
  O  O95  1  0.46809900  0.24252100  0.84146300  1
loop_
_geom_bond_atom_site_label_1
_geom_bond_atom_site_label_2
_geom_bond_distance
_geom_bond_site_symmetry_2
Al0 O53 1.744008 1_555
Al0 O1 1.744867 1_555
Al0 O8 1.752961 1_555
Al0 O39 1.755403 1_555
Al1 O57 1.741624 1_555
Al1 O80 1.743676 1_655
Al1 O65 1.755302 1_555
Al1 O46 1.755337 1_555
Al2 O47 1.741635 1_555
Al2 O81 1.743676 1_545
Al2 O40 1.755293 1_555
Al2 O23 1.755341 1_555
Al3 O74 1.744001 1_555
Al3 O59 1.744867 1_555
Al3 O67 1.752961 1_555
Al3 O91 1.755403 1_555
Al4 O82 1.741635 1_555
Al4 O75 1.743676 1_655
Al4 O24 1.755302 1_555
Al4 O78 1.755341 1_556
Al5 O16 1.744001 1_555
Al5 O26 1.744867 1_555
Al5 O77 1.752961 1_555
Al5 O38 1.755403 1_555
Al6 O21 1.744008 1_555
Al6 O6 1.744867 1_555
Al6 O41 1.752961 1_555
Al6 O90 1.755403 1_555
Al7 O20 1.741631 1_555
Al7 O68 1.743676 1_555
Al7 O48 1.755306 1_555
Al7 O37 1.755339 1_556
Al8 O83 1.741624 1_555
Al8 O5 1.743676 1_565
Al8 O44 1.755302 1_555
Al8 O73 1.755337 1_554
Al9 O89 1.741631 1_555
Al9 O43 1.743676 1_555
Al9 O3 1.755302 1_555
Al9 O11 1.755339 1_555
Al10 O33 1.741624 1_555
Al10 O93 1.743676 1_545
Al10 O29 1.755302 1_555
Al10 O87 1.755337 1_556
Al11 O79 1.744014 1_555
Al11 O62 1.744867 1_555
Al11 O94 1.752961 1_555
Al11 O69 1.755403 1_555
Al12 O9 1.744014 1_555
Al12 O12 1.744867 1_555
Al12 O34 1.752961 1_555
Al12 O84 1.755403 1_555
Al13 O14 1.744008 1_555
Al13 O0 1.744867 1_555
Al13 O54 1.752961 1_555
Al13 O52 1.755403 1_555
Al14 O58 1.744008 1_555
Al14 O36 1.744867 1_555
Al14 O60 1.752961 1_555
Al14 O66 1.755403 1_555
Al15 O2 1.744014 1_555
Al15 O4 1.744867 1_555
Al15 O56 1.752961 1_555
Al15 O35 1.755403 1_555
Al16 O50 1.744001 1_555
Al16 O25 1.744867 1_555
Al16 O70 1.752961 1_555
Al16 O15 1.755403 1_555
Al17 O88 1.741624 1_555
Al17 O64 1.743676 1_455
Al17 O28 1.755302 1_555
Al17 O61 1.755337 1_555
Al18 O92 1.744001 1_555
Al18 O10 1.744867 1_555
Al18 O13 1.752961 1_555
Al18 O95 1.755403 1_555
Al19 O30 1.744014 1_555
Al19 O27 1.744867 1_555
Al19 O72 1.752961 1_555
Al19 O18 1.755403 1_555
Al20 O31 1.741635 1_555
Al20 O42 1.743676 1_565
Al20 O51 1.755302 1_555
Al20 O85 1.755341 1_555
Al21 O76 1.741635 1_555
Al21 O32 1.743676 1_455
Al21 O71 1.755293 1_555
Al21 O7 1.755341 1_554
Al22 O86 1.741631 1_555
Al22 O49 1.743676 1_555
Al22 O63 1.755302 1_555
Al22 O55 1.755339 1_554
Al23 O19 1.741631 1_555
Al23 O17 1.743676 1_555
Al23 O45 1.755306 1_555
Al23 O22 1.755339 1_555
O0 P11 1.533081 1_555
O1 P14 1.533081 1_555
O2 P12 1.532652 1_555
O3 P19 1.542325 1_655
O4 P9 1.533081 1_565
O5 P11 1.532474 1_555
O6 P6 1.533081 1_555
O7 P0 1.541372 1_555
O8 P17 1.540060 1_555
O9 P20 1.532652 1_555
O10 P13 1.533081 1_545
O11 P14 1.541369 1_555
O12 P8 1.533081 1_545
O13 P20 1.540060 1_555
O14 P17 1.532659 1_555
O15 P15 1.542041 1_555
O16 P21 1.532665 1_555
O17 P9 1.532474 1_555
O18 P4 1.542041 1_555
O19 P18 1.532260 1_555
O20 P7 1.532260 1_555
O21 P7 1.532659 1_555
O22 P16 1.541369 1_555
O23 P9 1.541372 1_555
O24 P6 1.542325 1_555
O25 P19 1.533081 1_655
O26 P22 1.533081 1_455
O27 P2 1.533081 1_455
O28 P9 1.542325 1_565
O29 P0 1.542325 1_655
O30 P1 1.532652 1_555
O31 P12 1.532264 1_555
O32 P5 1.532474 1_555
O33 P23 1.532271 1_555
O34 P23 1.540060 1_555
O35 P21 1.542041 1_555
O36 P16 1.533081 1_555
O37 P11 1.541369 1_555
O38 P18 1.542041 1_555
O39 P12 1.542041 1_555
O40 P16 1.542329 1_555
O41 P15 1.540060 1_555
O42 P22 1.532474 1_555
O43 P8 1.532474 1_555
O44 P2 1.542325 1_455
O45 P22 1.542315 1_455
O46 P22 1.541367 1_555
O47 P20 1.532264 1_555
O48 P13 1.542315 1_545
O49 P2 1.532474 1_555
O50 P3 1.532665 1_555
O51 P14 1.542325 1_555
O52 P1 1.542041 1_555
O53 P18 1.532659 1_555
O54 P18 1.540060 1_555
O55 P6 1.541369 1_555
O56 P4 1.540060 1_555
O57 P3 1.532271 1_555
O58 P15 1.532659 1_555
O59 P5 1.533081 1_565
O60 P7 1.540060 1_555
O61 P19 1.541367 1_555
O62 P0 1.533081 1_655
O63 P5 1.542325 1_565
O64 P14 1.532474 1_555
O65 P8 1.542325 1_545
O66 P20 1.542041 1_555
O67 P12 1.540060 1_555
O68 P0 1.532474 1_555
O69 P23 1.542041 1_555
O70 P10 1.540060 1_555
O71 P11 1.542329 1_555
O72 P21 1.540060 1_555
O73 P13 1.541367 1_555
O74 P4 1.532665 1_555
O75 P13 1.532474 1_555
O76 P1 1.532264 1_555
O77 P1 1.540060 1_555
O78 P2 1.541372 1_555
O79 P10 1.532652 1_555
O80 P16 1.532474 1_555
O81 P19 1.532474 1_555
O82 P10 1.532264 1_555
O83 P4 1.532271 1_555
O84 P3 1.542041 1_555
O85 P8 1.541372 1_555
O86 P17 1.532260 1_555
O87 P5 1.541367 1_555
O88 P21 1.532271 1_555
O89 P15 1.532260 1_555
O90 P10 1.542041 1_555
O91 P17 1.542041 1_555
O92 P23 1.532665 1_555
O93 P6 1.532474 1_555
O94 P3 1.540060 1_555
O95 P7 1.542041 1_555
