# generated using pymatgen
data_Np(BH4)4
_symmetry_space_group_name_H-M   'P 1'
_cell_length_a   8.81390644
_cell_length_b   8.81507181
_cell_length_c   6.01689322
_cell_angle_alpha   90.00000000
_cell_angle_beta   90.00973819
_cell_angle_gamma   90.00000000
_symmetry_Int_Tables_number   1
_chemical_formula_structural   Np(BH4)4
_chemical_formula_sum   'Np2 B8 H32'
_cell_volume   467.48382455
_cell_formula_units_Z   2
loop_
 _symmetry_equiv_pos_site_id
 _symmetry_equiv_pos_as_xyz
  1  'x, y, z'
loop_
 _atom_site_type_symbol
 _atom_site_label
 _atom_site_symmetry_multiplicity
 _atom_site_fract_x
 _atom_site_fract_y
 _atom_site_fract_z
 _atom_site_occupancy
  Np  Np0  1  -0.00004667  -0.00000000  0.00003478  1
  Np  Np1  1  0.50004667  0.50000000  0.49996522  1
  B  B0  1  0.23172466  -0.00000000  0.22837391  1
  B  B1  1  0.49984976  0.26826376  0.72814348  1
  B  B2  1  0.49984976  0.73173624  0.72814348  1
  B  B3  1  0.76830709  -0.00000000  0.22822748  1
  B  B4  1  0.26827534  0.50000000  0.27162609  1
  B  B5  1  0.73169291  0.50000000  0.27177252  1
  B  B6  1  0.00015024  0.23173624  0.77185652  1
  B  B7  1  0.00015024  0.76826376  0.77185652  1
  H  H0  1  0.34422877  -0.00000000  0.33734068  1
  H  H1  1  0.49992429  0.15585706  0.83717811  1
  H  H2  1  0.49992429  0.84414294  0.83717811  1
  H  H3  1  0.65580749  -0.00000000  0.33694913  1
  H  H4  1  0.15577123  0.50000000  0.16265932  1
  H  H5  1  0.84419251  0.50000000  0.16305087  1
  H  H6  1  0.00007571  0.34414294  0.66282189  1
  H  H7  1  0.00007571  0.65585706  0.66282189  1
  H  H8  1  0.25407921  -0.00000000  0.02298725  1
  H  H9  1  0.49980632  0.24571438  0.52292288  1
  H  H10  1  0.49980632  0.75428562  0.52292288  1
  H  H11  1  0.74568397  -0.00000000  0.02308587  1
  H  H12  1  0.24592079  0.50000000  0.47701275  1
  H  H13  1  0.75431603  0.50000000  0.47691413  1
  H  H14  1  0.00019368  0.25428562  0.97707712  1
  H  H15  1  0.00019368  0.74571438  0.97707712  1
  H  H16  1  0.14727908  0.11265951  0.25801995  1
  H  H17  1  0.61247369  0.35259590  0.75817792  1
  H  H18  1  0.38713333  0.64750366  0.75770786  1
  H  H19  1  0.85257437  0.88742361  0.25828978  1
  H  H20  1  0.35272092  0.61265951  0.24198005  1
  H  H21  1  0.64742563  0.38742361  0.24171022  1
  H  H22  1  0.11286667  0.14750366  0.74229214  1
  H  H23  1  0.88752631  0.85259590  0.74182208  1
  H  H24  1  0.35272092  0.38734049  0.24198005  1
  H  H25  1  0.88752631  0.14740410  0.74182208  1
  H  H26  1  0.11286667  0.85249634  0.74229214  1
  H  H27  1  0.64742563  0.61257639  0.24171022  1
  H  H28  1  0.14727908  0.88734049  0.25801995  1
  H  H29  1  0.85257437  0.11257639  0.25828978  1
  H  H30  1  0.38713333  0.35249634  0.75770786  1
  H  H31  1  0.61247369  0.64740410  0.75817792  1
loop_
_geom_bond_atom_site_label_1
_geom_bond_atom_site_label_2
_geom_bond_distance
_geom_bond_site_symmetry_2
B0 H0 1.188662 1_555
B0 H8 1.251431 1_555
B0 H28 1.253830 1_545
B0 H16 1.253830 1_555
B1 H1 1.188373 1_555
B1 H9 1.250687 1_555
B1 H30 1.253005 1_555
B1 H17 1.253235 1_555
B2 H2 1.188373 1_555
B2 H10 1.250687 1_555
B2 H18 1.253005 1_555
B2 H31 1.253235 1_555
B3 H3 1.188001 1_555
B3 H11 1.250284 1_555
B3 H19 1.252640 1_545
B3 H29 1.252640 1_555
B4 H4 1.188662 1_555
B4 H12 1.251431 1_555
B4 H20 1.253830 1_555
B4 H24 1.253830 1_555
B5 H5 1.188001 1_555
B5 H13 1.250284 1_555
B5 H27 1.252640 1_555
B5 H21 1.252640 1_555
B6 H6 1.188373 1_555
B6 H14 1.250687 1_555
B6 H22 1.253005 1_555
B6 H25 1.253235 1_455
B7 H7 1.188373 1_555
B7 H15 1.250687 1_555
B7 H26 1.253005 1_555
B7 H23 1.253235 1_455
H8 Np0 2.244072 1_555
H9 Np1 2.245799 1_555
H10 Np1 2.245799 1_555
H11 Np0 2.245418 1_655
H12 Np1 2.244072 1_555
H13 Np1 2.245418 1_555
H14 Np0 2.245799 1_556
H15 Np0 2.245799 1_566
H16 Np0 2.254162 1_555
H17 Np1 2.254679 1_555
H18 Np1 2.255358 1_555
H19 Np0 2.255532 1_665
H20 Np1 2.254162 1_555
H21 Np1 2.255532 1_555
H22 Np0 2.255358 1_556
H23 Np0 2.254679 1_666
H24 Np1 2.254162 1_555
H25 Np0 2.254679 1_656
H26 Np0 2.255358 1_566
H27 Np1 2.255532 1_555
H28 Np0 2.254162 1_565
H29 Np0 2.255532 1_655
H30 Np1 2.255358 1_555
H31 Np1 2.254679 1_555
