# generated using pymatgen
data_SrGd2Al2O7
_symmetry_space_group_name_H-M   'P 1'
_cell_length_a   10.27591848
_cell_length_b   10.27591848
_cell_length_c   10.27591848
_cell_angle_alpha   159.00615157
_cell_angle_beta   159.00615157
_cell_angle_gamma   29.86077712
_symmetry_Int_Tables_number   1
_chemical_formula_structural   SrGd2Al2O7
_chemical_formula_sum   'Sr1 Gd2 Al2 O7'
_cell_volume   139.19422747
_cell_formula_units_Z   1
loop_
 _symmetry_equiv_pos_site_id
 _symmetry_equiv_pos_as_xyz
  1  'x, y, z'
loop_
 _atom_site_type_symbol
 _atom_site_label
 _atom_site_symmetry_multiplicity
 _atom_site_fract_x
 _atom_site_fract_y
 _atom_site_fract_z
 _atom_site_occupancy
  Sr  Sr0  1  0.50000000  0.50000000  0.00000000  1
  Gd  Gd0  1  0.68173400  0.68173400  0.00000000  1
  Gd  Gd1  1  0.31826600  0.31826600  0.00000000  1
  Al  Al0  1  0.09511900  0.09511900  0.00000000  1
  Al  Al1  1  0.90488100  0.90488100  0.00000000  1
  O  O0  1  0.39554000  0.89554000  0.50000000  1
  O  O1  1  0.89554000  0.39554000  0.50000000  1
  O  O2  1  0.60446000  0.10446000  0.50000000  1
  O  O3  1  0.10446000  0.60446000  0.50000000  1
  O  O4  1  0.79616000  0.79616000  0.00000000  1
  O  O5  1  0.20384000  0.20384000  0.00000000  1
  O  O6  1  0.00000000  0.00000000  0.00000000  1
loop_
_geom_bond_atom_site_label_1
_geom_bond_atom_site_label_2
_geom_bond_distance
_geom_bond_site_symmetry_2
Gd0 O4 2.272271 1_555
Gd0 O3 2.420630 1_554
Gd0 O2 2.420630 1_554
Gd0 O2 2.420630 1_565
Gd0 O3 2.420630 1_655
Gd0 O5 2.683688 1_655
Gd0 O5 2.683688 1_666
Gd0 O5 2.683688 1_565
Gd0 O5 2.683688 1_554
Gd1 O5 2.272271 1_555
Gd1 O1 2.420630 1_454
Gd1 O0 2.420630 1_544
Gd1 O1 2.420630 1_555
Gd1 O0 2.420630 1_555
Gd1 O4 2.683688 1_444
Gd1 O4 2.683688 1_545
Gd1 O4 2.683688 1_455
Gd1 O4 2.683688 1_556
Al0 O2 1.881262 1_454
Al0 O3 1.881262 1_544
Al0 O3 1.881262 1_555
Al0 O2 1.881262 1_555
Al0 O6 1.888873 1_555
Al0 O5 2.158981 1_555
Al1 O0 1.881262 1_554
Al1 O1 1.881262 1_554
Al1 O0 1.881262 1_655
Al1 O1 1.881262 1_565
Al1 O6 1.888873 1_665
Al1 O4 2.158981 1_555
O0 Sr0 2.794233 1_566
O0 Sr0 2.794233 1_555
O1 Sr0 2.794233 1_555
O1 Sr0 2.794233 1_656
O2 Sr0 2.794233 1_545
O2 Sr0 2.794233 1_556
O3 Sr0 2.794233 1_455
O3 Sr0 2.794233 1_556
O6 Sr0 2.647542 1_455
O6 Sr0 2.647542 1_556
O6 Sr0 2.647542 1_444
O6 Sr0 2.647542 1_545
