# generated using pymatgen
data_ZrCuH8C2NCl6
_symmetry_space_group_name_H-M   'P 1'
_cell_length_a   9.80709000
_cell_length_b   10.66930200
_cell_length_c   12.64673105
_cell_angle_alpha   70.25158296
_cell_angle_beta   90.00000000
_cell_angle_gamma   90.00000000
_symmetry_Int_Tables_number   1
_chemical_formula_structural   ZrCuH8C2NCl6
_chemical_formula_sum   'Zr4 Cu4 H32 C8 N4 Cl24'
_cell_volume   1245.45950328
_cell_formula_units_Z   4
loop_
 _symmetry_equiv_pos_site_id
 _symmetry_equiv_pos_as_xyz
  1  'x, y, z'
loop_
 _atom_site_type_symbol
 _atom_site_label
 _atom_site_symmetry_multiplicity
 _atom_site_fract_x
 _atom_site_fract_y
 _atom_site_fract_z
 _atom_site_occupancy
  Zr  Zr0  1  0.75285600  0.25053000  0.50066200  1
  Zr  Zr1  1  0.24714400  0.74947000  0.49933800  1
  Zr  Zr2  1  0.74714400  0.25053000  0.00066200  1
  Zr  Zr3  1  0.25285600  0.74947000  0.99933800  1
  Cu  Cu0  1  0.29960900  0.74433000  0.26075000  1
  Cu  Cu1  1  0.20039100  0.74433000  0.76075000  1
  Cu  Cu2  1  0.79960900  0.25567000  0.23925000  1
  Cu  Cu3  1  0.70039100  0.25567000  0.73925000  1
  H  H0  1  0.60706500  0.61602300  0.70292000  1
  H  H1  1  0.84283000  0.67367300  0.36283200  1
  H  H2  1  0.62584800  0.82556900  0.55660700  1
  H  H3  1  0.71326300  0.78785800  0.28534100  1
  H  H4  1  0.15717000  0.32632700  0.63716800  1
  H  H5  1  0.34283000  0.32632700  0.13716800  1
  H  H6  1  0.78673700  0.78785800  0.78534100  1
  H  H7  1  0.89293500  0.61602300  0.20292000  1
  H  H8  1  0.72622800  0.60199700  0.22368600  1
  H  H9  1  0.37415200  0.17443100  0.44339300  1
  H  H10  1  0.27377200  0.39800300  0.77631400  1
  H  H11  1  0.39293500  0.38397700  0.29708000  1
  H  H12  1  0.65717000  0.67367300  0.86283200  1
  H  H13  1  0.28673700  0.21214200  0.71465900  1
  H  H14  1  0.69239300  0.81979500  0.07554900  1
  H  H15  1  0.10706500  0.38397700  0.79708000  1
  H  H16  1  0.77674600  0.69883600  0.02738600  1
  H  H17  1  0.10967200  0.17740700  0.74861900  1
  H  H18  1  0.22622800  0.39800300  0.27631400  1
  H  H19  1  0.12584800  0.17443100  0.94339300  1
  H  H20  1  0.72325400  0.69883600  0.52738600  1
  H  H21  1  0.30760700  0.18020500  0.92445100  1
  H  H22  1  0.80760700  0.81979500  0.57554900  1
  H  H23  1  0.77377200  0.60199700  0.72368600  1
  H  H24  1  0.27674600  0.30116400  0.47261400  1
  H  H25  1  0.39032800  0.17740700  0.24861900  1
  H  H26  1  0.19239300  0.18020500  0.42445100  1
  H  H27  1  0.21326300  0.21214200  0.21465900  1
  H  H28  1  0.89032800  0.82259300  0.25138100  1
  H  H29  1  0.22325400  0.30116400  0.97261400  1
  H  H30  1  0.60967200  0.82259300  0.75138100  1
  H  H31  1  0.87415200  0.82556900  0.05660700  1
  C  C0  1  0.31330100  0.25578000  0.21911400  1
  C  C1  1  0.18669900  0.25578000  0.71911400  1
  C  C2  1  0.81330100  0.74422000  0.28088600  1
  C  C3  1  0.71512100  0.76054900  0.58076300  1
  C  C4  1  0.68669900  0.74422000  0.78088600  1
  C  C5  1  0.28487900  0.23945100  0.41923700  1
  C  C6  1  0.21512100  0.23945100  0.91923700  1
  C  C7  1  0.78487900  0.76054900  0.08076300  1
  N  N0  1  0.19539900  0.32917000  0.80075000  1
  N  N1  1  0.69539900  0.67083000  0.69925000  1
  N  N2  1  0.30460100  0.32917000  0.30075000  1
  N  N3  1  0.80460100  0.67083000  0.19925000  1
  Cl  Cl0  1  0.08084100  0.91728600  0.40648000  1
  Cl  Cl1  1  0.16131200  0.59832400  0.39547700  1
  Cl  Cl2  1  0.57311400  0.14822100  0.64536400  1
  Cl  Cl3  1  0.42688600  0.85177900  0.35463600  1
  Cl  Cl4  1  0.42793000  0.64518000  0.15552400  1
  Cl  Cl5  1  0.07311400  0.85177900  0.85463600  1
  Cl  Cl6  1  0.66305300  0.11516200  0.38652800  1
  Cl  Cl7  1  0.83868800  0.40167600  0.60452300  1
  Cl  Cl8  1  0.83694700  0.11516200  0.88652800  1
  Cl  Cl9  1  0.33694700  0.88483800  0.61347200  1
  Cl  Cl10  1  0.92793000  0.35482000  0.34447600  1
  Cl  Cl11  1  0.16305300  0.88483800  0.11347200  1
  Cl  Cl12  1  0.58084100  0.08271400  0.09352000  1
  Cl  Cl13  1  0.07207000  0.64518000  0.65552400  1
  Cl  Cl14  1  0.41915900  0.91728600  0.90648000  1
  Cl  Cl15  1  0.09625100  0.56378200  0.10533000  1
  Cl  Cl16  1  0.91915900  0.08271400  0.59352000  1
  Cl  Cl17  1  0.90374900  0.43621800  0.89467000  1
  Cl  Cl18  1  0.57207000  0.35482000  0.84447600  1
  Cl  Cl19  1  0.33868800  0.59832400  0.89547700  1
  Cl  Cl20  1  0.59625100  0.43621800  0.39467000  1
  Cl  Cl21  1  0.66131200  0.40167600  0.10452300  1
  Cl  Cl22  1  0.92688600  0.14822100  0.14536400  1
  Cl  Cl23  1  0.40374900  0.56378200  0.60533000  1
loop_
_geom_bond_atom_site_label_1
_geom_bond_atom_site_label_2
_geom_bond_distance
_geom_bond_site_symmetry_2
H0 N1 1.037412 1_555
H7 N3 1.037412 1_555
H8 N3 1.035489 1_555
H10 N0 1.035489 1_555
H11 N2 1.037412 1_555
H15 N0 1.037412 1_555
H18 N2 1.035489 1_555
H23 N1 1.035489 1_555
C0 H5 1.094203 1_555
C0 H25 1.094638 1_555
C0 H27 1.095534 1_555
C0 N2 1.494195 1_555
C1 H4 1.094203 1_555
C1 H17 1.094638 1_555
C1 H13 1.095534 1_555
C1 N0 1.494195 1_555
C2 H1 1.094203 1_555
C2 H28 1.094638 1_555
C2 H3 1.095534 1_555
C2 N3 1.494195 1_555
C3 H20 1.093595 1_555
C3 H2 1.094473 1_555
C3 H22 1.094728 1_555
C3 N1 1.493251 1_555
C4 H12 1.094203 1_555
C4 H30 1.094638 1_555
C4 H6 1.095534 1_555
C4 N1 1.494195 1_555
C5 H24 1.093595 1_555
C5 H9 1.094473 1_555
C5 H26 1.094728 1_555
C5 N2 1.493251 1_555
C6 H29 1.093595 1_555
C6 H19 1.094473 1_555
C6 H21 1.094728 1_555
C6 N0 1.493251 1_555
C7 H16 1.093595 1_555
C7 H31 1.094473 1_555
C7 H14 1.094728 1_555
C7 N3 1.493251 1_555
Cl0 Zr1 2.413292 1_555
Cl1 Cu0 2.318545 1_555
Cl1 Zr1 2.542800 1_555
Cl2 Cu3 2.280780 1_555
Cl2 Zr0 2.509540 1_555
Cl3 Cu0 2.280780 1_555
Cl3 Zr1 2.509540 1_555
Cl4 Cu0 2.329175 1_555
Cl4 Zr3 2.569512 1_554
Cl5 Cu1 2.280780 1_555
Cl5 Zr3 2.509540 1_555
Cl6 Cu2 2.371318 1_555
Cl6 Zr0 2.520688 1_555
Cl7 Cu3 2.318545 1_555
Cl7 Zr0 2.542800 1_555
Cl8 Cu3 2.371318 1_555
Cl8 Zr2 2.520688 1_556
Cl9 Cu1 2.371318 1_555
Cl9 Zr1 2.520688 1_555
Cl10 Cu2 2.329175 1_555
Cl10 Zr0 2.569512 1_555
Cl11 Cu0 2.371318 1_555
Cl11 Zr3 2.520688 1_554
Cl12 Zr2 2.413292 1_555
Cl13 Cu1 2.329175 1_555
Cl13 Zr1 2.569512 1_555
Cl14 Zr3 2.413292 1_555
Cl15 Zr3 2.507185 1_554
Cl16 Zr0 2.413292 1_555
Cl17 Zr2 2.507185 1_556
Cl18 Cu3 2.329175 1_555
Cl18 Zr2 2.569512 1_556
Cl19 Cu1 2.318545 1_555
Cl19 Zr3 2.542800 1_555
Cl20 Zr0 2.507185 1_555
Cl21 Cu2 2.318545 1_555
Cl21 Zr2 2.542800 1_555
Cl22 Cu2 2.280780 1_555
Cl22 Zr2 2.509540 1_555
Cl23 Zr1 2.507185 1_555
