# generated using pymatgen
data_TiHg6As4Cl7
_symmetry_space_group_name_H-M   'P 1'
_cell_length_a   12.53767100
_cell_length_b   12.53767100
_cell_length_c   12.53767100
_cell_angle_alpha   90.00000000
_cell_angle_beta   90.00000000
_cell_angle_gamma   90.00000000
_symmetry_Int_Tables_number   1
_chemical_formula_structural   TiHg6As4Cl7
_chemical_formula_sum   'Ti4 Hg24 As16 Cl28'
_cell_volume   1970.83655112
_cell_formula_units_Z   4
loop_
 _symmetry_equiv_pos_site_id
 _symmetry_equiv_pos_as_xyz
  1  'x, y, z'
loop_
 _atom_site_type_symbol
 _atom_site_label
 _atom_site_symmetry_multiplicity
 _atom_site_fract_x
 _atom_site_fract_y
 _atom_site_fract_z
 _atom_site_occupancy
  Ti  Ti0  1  0.50000000  0.50000000  0.50000000  1
  Ti  Ti1  1  0.50000000  0.00000000  0.00000000  1
  Ti  Ti2  1  0.00000000  0.50000000  0.00000000  1
  Ti  Ti3  1  0.00000000  0.00000000  0.50000000  1
  Hg  Hg0  1  0.18824200  0.30437600  0.45331000  1
  Hg  Hg1  1  0.19562400  0.54669000  0.68824200  1
  Hg  Hg2  1  0.04669000  0.68824200  0.30437600  1
  Hg  Hg3  1  0.45331000  0.31175800  0.80437600  1
  Hg  Hg4  1  0.68824200  0.30437600  0.04669000  1
  Hg  Hg5  1  0.31175800  0.80437600  0.45331000  1
  Hg  Hg6  1  0.30437600  0.04669000  0.68824200  1
  Hg  Hg7  1  0.95331000  0.18824200  0.19562400  1
  Hg  Hg8  1  0.81175800  0.80437600  0.04669000  1
  Hg  Hg9  1  0.68824200  0.19562400  0.54669000  1
  Hg  Hg10  1  0.81175800  0.69562400  0.54669000  1
  Hg  Hg11  1  0.18824200  0.19562400  0.95331000  1
  Hg  Hg12  1  0.30437600  0.45331000  0.18824200  1
  Hg  Hg13  1  0.69562400  0.95331000  0.31175800  1
  Hg  Hg14  1  0.45331000  0.18824200  0.30437600  1
  Hg  Hg15  1  0.31175800  0.69562400  0.95331000  1
  Hg  Hg16  1  0.69562400  0.54669000  0.81175800  1
  Hg  Hg17  1  0.54669000  0.81175800  0.69562400  1
  Hg  Hg18  1  0.80437600  0.45331000  0.31175800  1
  Hg  Hg19  1  0.04669000  0.81175800  0.80437600  1
  Hg  Hg20  1  0.19562400  0.95331000  0.18824200  1
  Hg  Hg21  1  0.80437600  0.04669000  0.81175800  1
  Hg  Hg22  1  0.54669000  0.68824200  0.19562400  1
  Hg  Hg23  1  0.95331000  0.31175800  0.69562400  1
  As  As0  1  0.26616500  0.26616500  0.26616500  1
  As  As1  1  0.34970700  0.65029300  0.15029300  1
  As  As2  1  0.73383500  0.73383500  0.73383500  1
  As  As3  1  0.65029300  0.15029300  0.34970700  1
  As  As4  1  0.15029300  0.34970700  0.65029300  1
  As  As5  1  0.76616500  0.23383500  0.73383500  1
  As  As6  1  0.73383500  0.76616500  0.23383500  1
  As  As7  1  0.84970700  0.65029300  0.34970700  1
  As  As8  1  0.84970700  0.84970700  0.84970700  1
  As  As9  1  0.26616500  0.23383500  0.76616500  1
  As  As10  1  0.65029300  0.34970700  0.84970700  1
  As  As11  1  0.76616500  0.26616500  0.23383500  1
  As  As12  1  0.23383500  0.76616500  0.26616500  1
  As  As13  1  0.23383500  0.73383500  0.76616500  1
  As  As14  1  0.34970700  0.84970700  0.65029300  1
  As  As15  1  0.15029300  0.15029300  0.15029300  1
  Cl  Cl0  1  0.31841800  0.53678000  0.45565000  1
  Cl  Cl1  1  0.45565000  0.31841800  0.53678000  1
  Cl  Cl2  1  0.50000000  0.00000000  0.50000000  1
  Cl  Cl3  1  0.81841800  0.96322000  0.54435000  1
  Cl  Cl4  1  0.81841800  0.53678000  0.04435000  1
  Cl  Cl5  1  0.96322000  0.95565000  0.31841800  1
  Cl  Cl6  1  0.00000000  0.00000000  0.00000000  1
  Cl  Cl7  1  0.18158200  0.46322000  0.95565000  1
  Cl  Cl8  1  0.45565000  0.18158200  0.03678000  1
  Cl  Cl9  1  0.00000000  0.50000000  0.50000000  1
  Cl  Cl10  1  0.54435000  0.68158200  0.46322000  1
  Cl  Cl11  1  0.04435000  0.81841800  0.53678000  1
  Cl  Cl12  1  0.46322000  0.54435000  0.68158200  1
  Cl  Cl13  1  0.53678000  0.45565000  0.31841800  1
  Cl  Cl14  1  0.54435000  0.81841800  0.96322000  1
  Cl  Cl15  1  0.46322000  0.95565000  0.18158200  1
  Cl  Cl16  1  0.95565000  0.18158200  0.46322000  1
  Cl  Cl17  1  0.31841800  0.96322000  0.95565000  1
  Cl  Cl18  1  0.53678000  0.04435000  0.81841800  1
  Cl  Cl19  1  0.03678000  0.45565000  0.18158200  1
  Cl  Cl20  1  0.04435000  0.68158200  0.03678000  1
  Cl  Cl21  1  0.50000000  0.50000000  0.00000000  1
  Cl  Cl22  1  0.03678000  0.04435000  0.68158200  1
  Cl  Cl23  1  0.18158200  0.03678000  0.45565000  1
  Cl  Cl24  1  0.68158200  0.46322000  0.54435000  1
  Cl  Cl25  1  0.68158200  0.03678000  0.04435000  1
  Cl  Cl26  1  0.96322000  0.54435000  0.81841800  1
  Cl  Cl27  1  0.95565000  0.31841800  0.96322000  1
loop_
_geom_bond_atom_site_label_1
_geom_bond_atom_site_label_2
_geom_bond_distance
_geom_bond_site_symmetry_2
As0 As15 2.516263 1_555
As0 Hg12 2.586389 1_555
As0 Hg14 2.586389 1_555
As0 Hg0 2.586389 1_555
As1 As12 2.516263 1_555
As1 Hg12 2.578537 1_555
As1 Hg22 2.578537 1_555
As1 Hg15 2.578537 1_554
As2 As8 2.516263 1_555
As2 Hg10 2.586389 1_555
As2 Hg16 2.586389 1_555
As2 Hg17 2.586389 1_555
As3 Hg14 2.578537 1_555
As3 Hg13 2.578537 1_545
As3 Hg9 2.578537 1_555
As4 As9 2.516263 1_555
As4 Hg1 2.578537 1_555
As4 Hg23 2.578537 1_455
As4 Hg0 2.578537 1_555
As5 Hg21 2.586389 1_555
As5 Hg9 2.586389 1_555
As5 Hg23 2.586389 1_555
As6 As7 2.516263 1_555
As6 Hg8 2.586389 1_555
As6 Hg13 2.586389 1_555
As6 Hg22 2.586389 1_555
As7 Hg2 2.578537 1_655
As7 Hg18 2.578537 1_555
As7 Hg10 2.578537 1_555
As8 Hg21 2.578537 1_565
As8 Hg8 2.578537 1_556
As8 Hg19 2.578537 1_655
As9 Hg6 2.586389 1_555
As9 Hg3 2.586389 1_555
As9 Hg11 2.586389 1_555
As10 As5 2.516263 1_555
As10 Hg4 2.578537 1_556
As10 Hg3 2.578537 1_555
As10 Hg16 2.578537 1_555
As11 As3 2.516263 1_555
As11 Hg4 2.586389 1_555
As11 Hg18 2.586389 1_555
As11 Hg7 2.586389 1_555
As12 Hg2 2.586389 1_555
As12 Hg20 2.586389 1_555
As12 Hg5 2.586389 1_555
As13 As14 2.516263 1_555
As13 Hg19 2.586389 1_555
As13 Hg1 2.586389 1_555
As13 Hg15 2.586389 1_555
As14 Hg6 2.578537 1_565
As14 Hg17 2.578537 1_555
As14 Hg5 2.578537 1_555
As15 Hg7 2.578537 1_455
As15 Hg11 2.578537 1_554
As15 Hg20 2.578537 1_545
Cl0 Ti0 2.388474 1_555
Cl1 Ti0 2.388474 1_555
Cl3 Ti3 2.388474 1_665
Cl4 Ti2 2.388474 1_655
Cl5 Ti3 2.388474 1_665
Cl7 Ti2 2.388474 1_556
Cl8 Ti1 2.388474 1_555
Cl10 Ti0 2.388474 1_555
Cl11 Ti3 2.388474 1_565
Cl12 Ti0 2.388474 1_555
Cl13 Ti0 2.388474 1_555
Cl14 Ti1 2.388474 1_566
Cl15 Ti1 2.388474 1_565
Cl16 Ti3 2.388474 1_655
Cl17 Ti1 2.388474 1_566
Cl18 Ti1 2.388474 1_556
Cl19 Ti2 2.388474 1_555
Cl20 Ti2 2.388474 1_555
Cl22 Ti3 2.388474 1_555
Cl23 Ti3 2.388474 1_555
Cl24 Ti0 2.388474 1_555
Cl25 Ti1 2.388474 1_555
Cl26 Ti2 2.388474 1_656
Cl27 Ti2 2.388474 1_656
