# generated using pymatgen
data_Rb2Te(WO4)3
_symmetry_space_group_name_H-M   'P 1'
_cell_length_a   7.42208598
_cell_length_b   7.42208598
_cell_length_c   12.49736900
_cell_angle_alpha   90.00000000
_cell_angle_beta   90.00000000
_cell_angle_gamma   119.99999981
_symmetry_Int_Tables_number   1
_chemical_formula_structural   Rb2Te(WO4)3
_chemical_formula_sum   'Rb4 Te2 W6 O24'
_cell_volume   596.21265166
_cell_formula_units_Z   2
loop_
 _symmetry_equiv_pos_site_id
 _symmetry_equiv_pos_as_xyz
  1  'x, y, z'
loop_
 _atom_site_type_symbol
 _atom_site_label
 _atom_site_symmetry_multiplicity
 _atom_site_fract_x
 _atom_site_fract_y
 _atom_site_fract_z
 _atom_site_occupancy
  Rb  Rb0  1  0.33333300  0.66666700  0.87829900  1
  Rb  Rb1  1  0.66666700  0.33333300  0.37829900  1
  Rb  Rb2  1  0.66666700  0.33333300  0.99670200  1
  Rb  Rb3  1  0.33333300  0.66666700  0.49670200  1
  Te  Te0  1  0.00000000  0.00000000  0.43115800  1
  Te  Te1  1  0.00000000  0.00000000  0.93115800  1
  W  W0  1  0.66229500  0.83114700  0.17028400  1
  W  W1  1  0.33770500  0.16885300  0.67028400  1
  W  W2  1  0.16885300  0.83114700  0.17028400  1
  W  W3  1  0.16885300  0.33770500  0.17028400  1
  W  W4  1  0.83114700  0.16885300  0.67028400  1
  W  W5  1  0.83114700  0.66229500  0.67028400  1
  O  O0  1  0.19397500  0.80602500  0.31102100  1
  O  O1  1  0.13130400  0.86869600  0.00387000  1
  O  O2  1  0.91155700  0.45577900  0.63276800  1
  O  O3  1  0.24802900  0.12401400  0.18042700  1
  O  O4  1  0.13130400  0.26260800  0.00387000  1
  O  O5  1  0.12401400  0.24802900  0.68042700  1
  O  O6  1  0.80602500  0.19397500  0.81102100  1
  O  O7  1  0.80602500  0.61205100  0.81102100  1
  O  O8  1  0.87598600  0.12401400  0.18042700  1
  O  O9  1  0.12401400  0.87598600  0.68042700  1
  O  O10  1  0.38794900  0.19397500  0.81102100  1
  O  O11  1  0.45577900  0.54422100  0.13276800  1
  O  O12  1  0.19397500  0.38794900  0.31102100  1
  O  O13  1  0.08844300  0.54422100  0.13276800  1
  O  O14  1  0.54422100  0.08844300  0.63276800  1
  O  O15  1  0.54422100  0.45577900  0.63276800  1
  O  O16  1  0.61205100  0.80602500  0.31102100  1
  O  O17  1  0.86869600  0.13130400  0.50387000  1
  O  O18  1  0.86869600  0.73739200  0.50387000  1
  O  O19  1  0.26260800  0.13130400  0.50387000  1
  O  O20  1  0.73739200  0.86869600  0.00387000  1
  O  O21  1  0.87598600  0.75197100  0.18042700  1
  O  O22  1  0.75197100  0.87598600  0.68042700  1
  O  O23  1  0.45577900  0.91155700  0.13276800  1
loop_
_geom_bond_atom_site_label_1
_geom_bond_atom_site_label_2
_geom_bond_distance
_geom_bond_site_symmetry_2
O0 W2 1.788246 1_555
O0 Rb3 2.931609 1_555
O1 Te1 1.917027 1_564
O1 W2 2.135021 1_555
O1 Rb0 3.034471 1_554
O2 W5 1.959641 1_555
O2 W4 1.959641 1_555
O2 Rb3 3.200221 1_655
O3 W3 1.951650 1_555
O3 W2 1.951650 1_545
O4 Te1 1.917027 1_554
O4 W3 2.135019 1_555
O4 Rb0 3.034477 1_554
O5 W1 1.951650 1_555
O5 W4 1.951650 1_455
O6 W4 1.788246 1_555
O6 Rb2 2.931609 1_555
O7 W5 1.788246 1_555
O7 Rb2 2.931616 1_555
O8 W3 1.951650 1_655
O8 W0 1.951650 1_545
O9 W1 1.951650 1_565
O9 W5 1.951650 1_455
O10 W1 1.788246 1_555
O10 Rb2 2.931616 1_555
O11 W3 1.959641 1_555
O11 W0 1.959641 1_555
O11 Rb2 3.200221 1_554
O12 W3 1.788246 1_555
O12 Rb3 2.931616 1_555
O13 W3 1.959641 1_555
O13 W2 1.959641 1_555
O13 Rb2 3.200221 1_454
O14 W1 1.959641 1_555
O14 W4 1.959641 1_555
O14 Rb3 3.200221 1_545
O15 W5 1.959641 1_555
O15 W1 1.959641 1_555
O15 Rb3 3.200221 1_555
O16 W0 1.788246 1_555
O16 Rb3 2.931616 1_555
O17 Te0 1.917027 1_655
O17 W4 2.135021 1_555
O17 Rb1 3.034471 1_555
O18 Te0 1.917027 1_665
O18 W5 2.135019 1_555
O18 Rb1 3.034477 1_555
O19 Te0 1.917027 1_555
O19 W1 2.135019 1_555
O19 Rb1 3.034477 1_555
O20 Te1 1.917027 1_664
O20 W0 2.135019 1_555
O20 Rb0 3.034477 1_554
O21 W0 1.951650 1_555
O21 W2 1.951650 1_655
O22 W5 1.951650 1_555
O22 W4 1.951650 1_565
O23 W0 1.959641 1_555
O23 W2 1.959641 1_555
O23 Rb2 3.200221 1_564
