# generated using pymatgen
data_Lu2(CN2)3
_symmetry_space_group_name_H-M   'P 1'
_cell_length_a   6.16302851
_cell_length_b   6.16302851
_cell_length_c   6.16302845
_cell_angle_alpha   60.77112448
_cell_angle_beta   60.77112448
_cell_angle_gamma   60.77112589
_symmetry_Int_Tables_number   1
_chemical_formula_structural   Lu2(CN2)3
_chemical_formula_sum   'Lu2 C3 N6'
_cell_volume   168.40603155
_cell_formula_units_Z   1
loop_
 _symmetry_equiv_pos_site_id
 _symmetry_equiv_pos_as_xyz
  1  'x, y, z'
loop_
 _atom_site_type_symbol
 _atom_site_label
 _atom_site_symmetry_multiplicity
 _atom_site_fract_x
 _atom_site_fract_y
 _atom_site_fract_z
 _atom_site_occupancy
  Lu  Lu0  1  0.17224800  0.17224800  0.17224800  1
  Lu  Lu1  1  0.82775200  0.82775200  0.82775200  1
  C  C0  1  0.28944800  0.71055200  0.00000000  1
  C  C1  1  0.00000000  0.28944800  0.71055200  1
  C  C2  1  0.71055200  0.00000000  0.28944800  1
  N  N0  1  0.16703800  0.59532800  0.00974400  1
  N  N1  1  0.83296200  0.99025600  0.40467200  1
  N  N2  1  0.40467200  0.83296200  0.99025600  1
  N  N3  1  0.00974400  0.16703800  0.59532800  1
  N  N4  1  0.99025600  0.40467200  0.83296200  1
  N  N5  1  0.59532800  0.00974400  0.16703800  1
loop_
_geom_bond_atom_site_label_1
_geom_bond_atom_site_label_2
_geom_bond_distance
_geom_bond_site_symmetry_2
Lu0 N3 2.280839 1_555
Lu0 N0 2.280839 1_555
Lu0 N5 2.280839 1_555
Lu0 N1 2.340629 1_445
Lu0 N4 2.340629 1_454
Lu0 N2 2.340629 1_544
Lu1 N1 2.280839 1_555
Lu1 N2 2.280839 1_555
Lu1 N4 2.280839 1_555
Lu1 N3 2.340629 1_665
Lu1 N5 2.340629 1_566
Lu1 N0 2.340629 1_656
C0 N2 1.230584 1_554
C0 N0 1.230584 1_555
C1 N4 1.230584 1_455
C1 N3 1.230584 1_555
C2 N5 1.230584 1_555
C2 N1 1.230584 1_545
