# generated using pymatgen
data_NaSr4(BO3)3
_symmetry_space_group_name_H-M   'P 1'
_cell_length_a   13.26186790
_cell_length_b   13.26186790
_cell_length_c   13.26186790
_cell_angle_alpha   109.47122063
_cell_angle_beta   109.47122063
_cell_angle_gamma   109.47122063
_symmetry_Int_Tables_number   1
_chemical_formula_structural   NaSr4(BO3)3
_chemical_formula_sum   'Na8 Sr32 B24 O72'
_cell_volume   1795.52808180
_cell_formula_units_Z   8
loop_
 _symmetry_equiv_pos_site_id
 _symmetry_equiv_pos_as_xyz
  1  'x, y, z'
loop_
 _atom_site_type_symbol
 _atom_site_label
 _atom_site_symmetry_multiplicity
 _atom_site_fract_x
 _atom_site_fract_y
 _atom_site_fract_z
 _atom_site_occupancy
  Na  Na0  1  0.25000000  0.25000000  0.25000000  1
  Na  Na1  1  0.25000000  0.50000000  0.00000000  1
  Na  Na2  1  0.75000000  0.75000000  0.75000000  1
  Na  Na3  1  0.50000000  0.00000000  0.25000000  1
  Na  Na4  1  0.50000000  0.00000000  0.75000000  1
  Na  Na5  1  0.00000000  0.25000000  0.50000000  1
  Na  Na6  1  0.00000000  0.75000000  0.50000000  1
  Na  Na7  1  0.75000000  0.50000000  0.00000000  1
  Sr  Sr0  1  0.50000000  0.50000000  0.50000000  1
  Sr  Sr1  1  0.49680300  0.24680300  0.25000000  1
  Sr  Sr2  1  0.75000000  0.00319700  0.25319700  1
  Sr  Sr3  1  0.75319700  0.50319700  0.25000000  1
  Sr  Sr4  1  0.99680300  0.74680300  0.25000000  1
  Sr  Sr5  1  0.25000000  0.75319700  0.50319700  1
  Sr  Sr6  1  0.50319700  0.25000000  0.75319700  1
  Sr  Sr7  1  0.25319700  0.00319700  0.25000000  1
  Sr  Sr8  1  0.75000000  0.74680300  0.99680300  1
  Sr  Sr9  1  0.49680300  0.75000000  0.24680300  1
  Sr  Sr10  1  0.00319700  0.25000000  0.25319700  1
  Sr  Sr11  1  0.24680300  0.25000000  0.49680300  1
  Sr  Sr12  1  0.00000000  0.00000000  0.00000000  1
  Sr  Sr13  1  0.00000000  0.50000000  0.50000000  1
  Sr  Sr14  1  0.75000000  0.24680300  0.49680300  1
  Sr  Sr15  1  0.25000000  0.25319700  0.00319700  1
  Sr  Sr16  1  0.25000000  0.49680300  0.24680300  1
  Sr  Sr17  1  0.99680300  0.75000000  0.74680300  1
  Sr  Sr18  1  0.25319700  0.75000000  0.00319700  1
  Sr  Sr19  1  0.00319700  0.25319700  0.75000000  1
  Sr  Sr20  1  0.00000000  0.00000000  0.50000000  1
  Sr  Sr21  1  0.74680300  0.99680300  0.75000000  1
  Sr  Sr22  1  0.24680300  0.49680300  0.75000000  1
  Sr  Sr23  1  0.00000000  0.50000000  0.00000000  1
  Sr  Sr24  1  0.50000000  0.50000000  0.00000000  1
  Sr  Sr25  1  0.75000000  0.50319700  0.75319700  1
  Sr  Sr26  1  0.50000000  0.00000000  0.00000000  1
  Sr  Sr27  1  0.25000000  0.99680300  0.74680300  1
  Sr  Sr28  1  0.50000000  0.00000000  0.50000000  1
  Sr  Sr29  1  0.74680300  0.25000000  0.99680300  1
  Sr  Sr30  1  0.75319700  0.75000000  0.50319700  1
  Sr  Sr31  1  0.50319700  0.75319700  0.75000000  1
  B  B0  1  0.02356900  0.26178400  0.01178400  1
  B  B1  1  0.26178400  0.01178400  0.02356900  1
  B  B2  1  0.48821600  0.75000000  0.01178400  1
  B  B3  1  0.01178400  0.48821600  0.75000000  1
  B  B4  1  0.73821600  0.25000000  0.76178400  1
  B  B5  1  0.52356900  0.51178400  0.76178400  1
  B  B6  1  0.76178400  0.73821600  0.25000000  1
  B  B7  1  0.73821600  0.98821600  0.97643100  1
  B  B8  1  0.25000000  0.98821600  0.51178400  1
  B  B9  1  0.75000000  0.01178400  0.48821600  1
  B  B10  1  0.01178400  0.02356900  0.26178400  1
  B  B11  1  0.98821600  0.97643100  0.73821600  1
  B  B12  1  0.26178400  0.75000000  0.23821600  1
  B  B13  1  0.98821600  0.51178400  0.25000000  1
  B  B14  1  0.25000000  0.76178400  0.73821600  1
  B  B15  1  0.51178400  0.76178400  0.52356900  1
  B  B16  1  0.47643100  0.48821600  0.23821600  1
  B  B17  1  0.48821600  0.23821600  0.47643100  1
  B  B18  1  0.75000000  0.23821600  0.26178400  1
  B  B19  1  0.23821600  0.26178400  0.75000000  1
  B  B20  1  0.23821600  0.47643100  0.48821600  1
  B  B21  1  0.97643100  0.73821600  0.98821600  1
  B  B22  1  0.51178400  0.25000000  0.98821600  1
  B  B23  1  0.76178400  0.52356900  0.51178400  1
  O  O0  1  0.44823000  0.25000000  0.05177000  1
  O  O1  1  0.49498300  0.85472600  0.59171900  1
  O  O2  1  0.35472600  0.99498300  0.09171900  1
  O  O3  1  0.14527400  0.23699300  0.64025700  1
  O  O4  1  0.59673600  0.35974300  0.00501700  1
  O  O5  1  0.90828100  0.64527400  0.00501700  1
  O  O6  1  0.35974300  0.85472600  0.76300700  1
  O  O7  1  0.90828100  0.76300700  0.90326400  1
  O  O8  1  0.59171900  0.59673600  0.73699300  1
  O  O9  1  0.40326400  0.26300700  0.40828100  1
  O  O10  1  0.09673600  0.09171900  0.23699300  1
  O  O11  1  0.59171900  0.49498300  0.85472600  1
  O  O12  1  0.09673600  0.50501700  0.85974300  1
  O  O13  1  0.39646100  0.44823000  0.69823000  1
  O  O14  1  0.73699300  0.64527400  0.14025700  1
  O  O15  1  0.19823000  0.94823000  0.89646100  1
  O  O16  1  0.94823000  0.55177000  0.75000000  1
  O  O17  1  0.14025700  0.90326400  0.49498300  1
  O  O18  1  0.64527400  0.14025700  0.73699300  1
  O  O19  1  0.30177000  0.60353900  0.55177000  1
  O  O20  1  0.59673600  0.73699300  0.59171900  1
  O  O21  1  0.40828100  0.50501700  0.14527400  1
  O  O22  1  0.55177000  0.30177000  0.60353900  1
  O  O23  1  0.64025700  0.14527400  0.23699300  1
  O  O24  1  0.09171900  0.35472600  0.99498300  1
  O  O25  1  0.89646100  0.19823000  0.94823000  1
  O  O26  1  0.69823000  0.80177000  0.25000000  1
  O  O27  1  0.10353900  0.80177000  0.05177000  1
  O  O28  1  0.75000000  0.30177000  0.19823000  1
  O  O29  1  0.05177000  0.10353900  0.80177000  1
  O  O30  1  0.85974300  0.09673600  0.50501700  1
  O  O31  1  0.76300700  0.35974300  0.85472600  1
  O  O32  1  0.23699300  0.09673600  0.09171900  1
  O  O33  1  0.64527400  0.00501700  0.90828100  1
  O  O34  1  0.19823000  0.75000000  0.30177000  1
  O  O35  1  0.26300700  0.40828100  0.40326400  1
  O  O36  1  0.85472600  0.76300700  0.35974300  1
  O  O37  1  0.35974300  0.00501700  0.59673600  1
  O  O38  1  0.05177000  0.44823000  0.25000000  1
  O  O39  1  0.60353900  0.55177000  0.30177000  1
  O  O40  1  0.80177000  0.25000000  0.69823000  1
  O  O41  1  0.49498300  0.14025700  0.90326400  1
  O  O42  1  0.55177000  0.75000000  0.94823000  1
  O  O43  1  0.76300700  0.90326400  0.90828100  1
  O  O44  1  0.85472600  0.59171900  0.49498300  1
  O  O45  1  0.40326400  0.64025700  0.99498300  1
  O  O46  1  0.40828100  0.40326400  0.26300700  1
  O  O47  1  0.30177000  0.19823000  0.75000000  1
  O  O48  1  0.73699300  0.59171900  0.59673600  1
  O  O49  1  0.35472600  0.85974300  0.26300700  1
  O  O50  1  0.90326400  0.49498300  0.14025700  1
  O  O51  1  0.26300700  0.35472600  0.85974300  1
  O  O52  1  0.25000000  0.05177000  0.44823000  1
  O  O53  1  0.69823000  0.39646100  0.44823000  1
  O  O54  1  0.14527400  0.40828100  0.50501700  1
  O  O55  1  0.99498300  0.40326400  0.64025700  1
  O  O56  1  0.94823000  0.89646100  0.19823000  1
  O  O57  1  0.90326400  0.90828100  0.76300700  1
  O  O58  1  0.44823000  0.69823000  0.39646100  1
  O  O59  1  0.23699300  0.64025700  0.14527400  1
  O  O60  1  0.80177000  0.05177000  0.10353900  1
  O  O61  1  0.50501700  0.14527400  0.40828100  1
  O  O62  1  0.50501700  0.85974300  0.09673600  1
  O  O63  1  0.09171900  0.23699300  0.09673600  1
  O  O64  1  0.00501700  0.90828100  0.64527400  1
  O  O65  1  0.00501700  0.59673600  0.35974300  1
  O  O66  1  0.14025700  0.73699300  0.64527400  1
  O  O67  1  0.64025700  0.99498300  0.40326400  1
  O  O68  1  0.25000000  0.69823000  0.80177000  1
  O  O69  1  0.85974300  0.26300700  0.35472600  1
  O  O70  1  0.99498300  0.09171900  0.35472600  1
  O  O71  1  0.75000000  0.94823000  0.55177000  1
loop_
_geom_bond_atom_site_label_1
_geom_bond_atom_site_label_2
_geom_bond_distance
_geom_bond_site_symmetry_2
Na0 O10 2.290808 1_555
Na0 O63 2.290808 1_555
Na0 O35 2.290808 1_555
Na0 O9 2.290808 1_555
Na0 O32 2.290808 1_555
Na0 O46 2.290808 1_555
Na1 O59 2.290808 1_555
Na1 O51 2.290808 1_554
Na1 O21 2.290808 1_555
Na1 O45 2.290808 1_554
Na1 O24 2.290808 1_554
Na1 O12 2.290808 1_554
Na2 O43 2.290808 1_555
Na2 O48 2.290808 1_555
Na2 O20 2.290808 1_555
Na2 O7 2.290808 1_555
Na2 O57 2.290808 1_555
Na2 O8 2.290808 1_555
Na3 O23 2.290808 1_555
Na3 O2 2.290808 1_545
Na3 O61 2.290808 1_555
Na3 O49 2.290808 1_545
Na3 O67 2.290808 1_545
Na3 O62 2.290808 1_545
Na4 O18 2.290808 1_555
Na4 O41 2.290808 1_555
Na4 O6 2.290808 1_545
Na4 O33 2.290808 1_555
Na4 O37 2.290808 1_555
Na4 O1 2.290808 1_545
Na5 O3 2.290808 1_555
Na5 O54 2.290808 1_555
Na5 O55 2.290808 1_455
Na5 O70 2.290808 1_455
Na5 O69 2.290808 1_455
Na5 O30 2.290808 1_455
Na6 O65 2.290808 1_555
Na6 O17 2.290808 1_555
Na6 O64 2.290808 1_555
Na6 O36 2.290808 1_455
Na6 O44 2.290808 1_455
Na6 O66 2.290808 1_555
Na7 O50 2.290808 1_555
Na7 O4 2.290808 1_555
Na7 O31 2.290808 1_554
Na7 O14 2.290808 1_555
Na7 O5 2.290808 1_555
Na7 O11 2.290808 1_554
B0 O25 1.376360 1_454
B0 O63 1.400153 1_555
B0 O24 1.400153 1_554
B1 O15 1.376360 1_544
B1 O32 1.400153 1_555
B1 O2 1.400153 1_545
B2 O42 1.376360 1_554
B2 O45 1.400159 1_554
B2 O62 1.400159 1_555
B3 O16 1.376360 1_455
B3 O55 1.400159 1_455
B3 O12 1.400159 1_555
B4 O40 1.376360 1_555
B4 O31 1.400159 1_555
B4 O18 1.400159 1_555
B5 O13 1.376360 1_555
B5 O8 1.400153 1_555
B5 O11 1.400153 1_555
B6 O26 1.376360 1_555
B6 O36 1.400159 1_555
B6 O14 1.400159 1_555
B7 O60 1.376360 1_566
B7 O43 1.400153 1_555
B7 O33 1.400153 1_565
B8 O52 1.376360 1_565
B8 O37 1.400159 1_565
B8 O17 1.400159 1_555
B9 O71 1.376360 1_545
B9 O30 1.400159 1_555
B9 O67 1.400159 1_545
B10 O56 1.376360 1_445
B10 O10 1.400153 1_555
B10 O70 1.400153 1_455
B11 O29 1.376360 1_665
B11 O57 1.400153 1_555
B11 O64 1.400153 1_655
B12 O34 1.376360 1_555
B12 O59 1.400159 1_555
B12 O49 1.400159 1_555
B13 O38 1.376360 1_655
B13 O65 1.400159 1_655
B13 O50 1.400159 1_555
B14 O68 1.376360 1_555
B14 O6 1.400159 1_555
B14 O66 1.400159 1_555
B15 O58 1.376360 1_555
B15 O20 1.400153 1_555
B15 O1 1.400153 1_555
B16 O39 1.376360 1_555
B16 O46 1.400153 1_555
B16 O21 1.400153 1_555
B17 O22 1.376360 1_555
B17 O9 1.400153 1_555
B17 O61 1.400153 1_555
B18 O28 1.376360 1_555
B18 O69 1.400159 1_555
B18 O23 1.400159 1_555
B19 O47 1.376360 1_555
B19 O51 1.400159 1_555
B19 O3 1.400159 1_555
B20 O19 1.376360 1_555
B20 O35 1.400153 1_555
B20 O54 1.400153 1_555
B21 O27 1.376360 1_656
B21 O7 1.400153 1_555
B21 O5 1.400153 1_556
B22 O0 1.376360 1_556
B22 O4 1.400159 1_556
B22 O41 1.400159 1_555
B23 O53 1.376360 1_555
B23 O48 1.400153 1_555
B23 O44 1.400153 1_555
O0 Sr1 2.508269 1_555
O0 Sr15 2.508269 1_555
O1 Sr28 2.593564 1_565
O1 Sr5 2.689569 1_555
O1 Sr21 2.757573 1_555
O1 Sr31 2.839128 1_555
O2 Sr26 2.593564 1_565
O2 Sr18 2.689569 1_555
O2 Sr1 2.757573 1_565
O2 Sr7 2.839128 1_565
O3 Sr20 2.593564 1_555
O3 Sr11 2.689569 1_555
O3 Sr19 2.757573 1_555
O3 Sr22 2.839128 1_555
O4 Sr24 2.593564 1_555
O4 Sr3 2.689569 1_555
O4 Sr6 2.757573 1_554
O4 Sr29 2.839128 1_554
O5 Sr23 2.593564 1_655
O5 Sr4 2.689569 1_555
O5 Sr25 2.757573 1_554
O5 Sr8 2.839128 1_554
O6 Sr26 2.593564 1_566
O6 Sr31 2.689569 1_555
O6 Sr27 2.757573 1_555
O6 Sr5 2.839128 1_555
O7 Sr12 2.593564 1_666
O7 Sr17 2.689569 1_555
O7 Sr8 2.757573 1_555
O7 Sr25 2.839128 1_555
O8 Sr0 2.593564 1_555
O8 Sr31 2.689569 1_555
O8 Sr25 2.757573 1_555
O8 Sr8 2.839128 1_555
O9 Sr0 2.593564 1_555
O9 Sr11 2.689569 1_555
O9 Sr1 2.757573 1_555
O9 Sr7 2.839128 1_555
O10 Sr12 2.593564 1_555
O10 Sr7 2.689569 1_555
O10 Sr10 2.757573 1_555
O10 Sr11 2.839128 1_555
O11 Sr24 2.593564 1_556
O11 Sr6 2.689569 1_555
O11 Sr8 2.757573 1_555
O11 Sr25 2.839128 1_555
O12 Sr23 2.593564 1_556
O12 Sr18 2.689569 1_556
O12 Sr19 2.757573 1_555
O12 Sr22 2.839128 1_555
O13 Sr11 2.508270 1_555
O13 Sr22 2.508281 1_555
O14 Sr24 2.593564 1_555
O14 Sr8 2.689569 1_554
O14 Sr3 2.757573 1_555
O14 Sr4 2.839128 1_555
O15 Sr17 2.508270 1_455
O15 Sr27 2.508281 1_555
O16 Sr17 2.508269 1_555
O16 Sr25 2.508269 1_555
O17 Sr20 2.593564 1_565
O17 Sr4 2.689569 1_455
O17 Sr27 2.757573 1_555
O17 Sr5 2.839128 1_555
O18 Sr28 2.593564 1_555
O18 Sr21 2.689569 1_545
O18 Sr6 2.757573 1_555
O18 Sr29 2.839128 1_555
O19 Sr31 2.508270 1_555
O19 Sr5 2.508281 1_555
O20 Sr0 2.593564 1_555
O20 Sr30 2.689569 1_555
O20 Sr31 2.757573 1_555
O20 Sr21 2.839128 1_555
O21 Sr24 2.593564 1_555
O21 Sr9 2.689569 1_555
O21 Sr15 2.757573 1_555
O21 Sr16 2.839128 1_555
O22 Sr25 2.508270 1_555
O22 Sr6 2.508281 1_555
O23 Sr26 2.593564 1_555
O23 Sr1 2.689569 1_555
O23 Sr2 2.757573 1_555
O23 Sr14 2.839128 1_555
O24 Sr23 2.593564 1_556
O24 Sr19 2.689569 1_555
O24 Sr16 2.757573 1_556
O24 Sr15 2.839128 1_556
O25 Sr21 2.508270 1_545
O25 Sr29 2.508281 1_555
O26 Sr2 2.508269 1_565
O26 Sr9 2.508269 1_555
O27 Sr7 2.508270 1_565
O27 Sr18 2.508281 1_555
O28 Sr29 2.508269 1_554
O28 Sr3 2.508269 1_555
O29 Sr15 2.508270 1_556
O29 Sr19 2.508281 1_555
O30 Sr20 2.593564 1_655
O30 Sr19 2.689569 1_655
O30 Sr2 2.757573 1_555
O30 Sr14 2.839128 1_555
O31 Sr23 2.593564 1_656
O31 Sr25 2.689569 1_555
O31 Sr29 2.757573 1_555
O31 Sr6 2.839128 1_555
O32 Sr12 2.593564 1_555
O32 Sr15 2.689569 1_555
O32 Sr7 2.757573 1_555
O32 Sr1 2.839128 1_555
O33 Sr26 2.593564 1_556
O33 Sr29 2.689569 1_555
O33 Sr31 2.757573 1_545
O33 Sr21 2.839128 1_545
O34 Sr4 2.508269 1_455
O34 Sr5 2.508269 1_555
O35 Sr0 2.593564 1_555
O35 Sr16 2.689569 1_555
O35 Sr11 2.757573 1_555
O35 Sr10 2.839128 1_555
O36 Sr20 2.593564 1_665
O36 Sr30 2.689569 1_555
O36 Sr4 2.757573 1_555
O36 Sr3 2.839128 1_555
O37 Sr28 2.593564 1_555
O37 Sr6 2.689569 1_555
O37 Sr5 2.757573 1_545
O37 Sr27 2.839128 1_545
O38 Sr10 2.508269 1_555
O38 Sr16 2.508269 1_555
O39 Sr30 2.508270 1_555
O39 Sr3 2.508281 1_555
O40 Sr19 2.508269 1_655
O40 Sr14 2.508269 1_555
O41 Sr26 2.593564 1_556
O41 Sr27 2.689569 1_545
O41 Sr29 2.757573 1_555
O41 Sr6 2.839128 1_555
O42 Sr8 2.508269 1_555
O42 Sr31 2.508269 1_555
O43 Sr12 2.593564 1_666
O43 Sr8 2.689569 1_555
O43 Sr21 2.757573 1_555
O43 Sr31 2.839128 1_555
O44 Sr13 2.593564 1_655
O44 Sr3 2.689569 1_555
O44 Sr17 2.757573 1_555
O44 Sr30 2.839128 1_555
O45 Sr24 2.593564 1_556
O45 Sr22 2.689569 1_555
O45 Sr9 2.757573 1_556
O45 Sr18 2.839128 1_556
O46 Sr0 2.593564 1_555
O46 Sr1 2.689569 1_555
O46 Sr16 2.757573 1_555
O46 Sr15 2.839128 1_555
O47 Sr27 2.508269 1_545
O47 Sr6 2.508269 1_555
O48 Sr0 2.593564 1_555
O48 Sr25 2.689569 1_555
O48 Sr30 2.757573 1_555
O48 Sr17 2.839128 1_555
O49 Sr28 2.593564 1_565
O49 Sr7 2.689569 1_565
O49 Sr9 2.757573 1_555
O49 Sr18 2.839128 1_555
O50 Sr23 2.593564 1_655
O50 Sr29 2.689569 1_554
O50 Sr4 2.757573 1_555
O50 Sr3 2.839128 1_555
O51 Sr24 2.593564 1_556
O51 Sr15 2.689569 1_556
O51 Sr22 2.757573 1_555
O51 Sr19 2.839128 1_555
O52 Sr11 2.508269 1_555
O52 Sr7 2.508269 1_555
O53 Sr1 2.508270 1_555
O53 Sr14 2.508281 1_555
O54 Sr13 2.593564 1_555
O54 Sr22 2.689569 1_555
O54 Sr10 2.757573 1_555
O54 Sr11 2.839128 1_555
O55 Sr13 2.593564 1_655
O55 Sr14 2.689569 1_555
O55 Sr22 2.757573 1_655
O55 Sr19 2.839128 1_655
O56 Sr8 2.508270 1_554
O56 Sr4 2.508281 1_555
O57 Sr12 2.593564 1_666
O57 Sr21 2.689569 1_555
O57 Sr17 2.757573 1_555
O57 Sr30 2.839128 1_555
O58 Sr16 2.508270 1_555
O58 Sr9 2.508281 1_555
O59 Sr23 2.593564 1_555
O59 Sr16 2.689569 1_555
O59 Sr18 2.757573 1_555
O59 Sr9 2.839128 1_555
O60 Sr10 2.508270 1_655
O60 Sr2 2.508281 1_555
O61 Sr28 2.593564 1_555
O61 Sr14 2.689569 1_555
O61 Sr7 2.757573 1_555
O61 Sr1 2.839128 1_555
O62 Sr26 2.593564 1_565
O62 Sr2 2.689569 1_565
O62 Sr18 2.757573 1_555
O62 Sr9 2.839128 1_555
O63 Sr12 2.593564 1_555
O63 Sr10 2.689569 1_555
O63 Sr15 2.757573 1_555
O63 Sr16 2.839128 1_555
O64 Sr20 2.593564 1_565
O64 Sr27 2.689569 1_555
O64 Sr30 2.757573 1_455
O64 Sr17 2.839128 1_455
O65 Sr13 2.593564 1_555
O65 Sr5 2.689569 1_555
O65 Sr3 2.757573 1_455
O65 Sr4 2.839128 1_455
O66 Sr13 2.593564 1_555
O66 Sr17 2.689569 1_455
O66 Sr5 2.757573 1_555
O66 Sr27 2.839128 1_555
O67 Sr28 2.593564 1_565
O67 Sr9 2.689569 1_555
O67 Sr14 2.757573 1_565
O67 Sr2 2.839128 1_565
O68 Sr18 2.508269 1_556
O68 Sr22 2.508269 1_555
O69 Sr13 2.593564 1_655
O69 Sr10 2.689569 1_655
O69 Sr14 2.757573 1_555
O69 Sr2 2.839128 1_555
O70 Sr20 2.593564 1_655
O70 Sr2 2.689569 1_555
O70 Sr11 2.757573 1_655
O70 Sr10 2.839128 1_655
O71 Sr21 2.508269 1_555
O71 Sr30 2.508269 1_555
