# generated using pymatgen
data_K2CaAs2O7
_symmetry_space_group_name_H-M   'P 1'
_cell_length_a   5.93171000
_cell_length_b   9.37101100
_cell_length_c   14.91904080
_cell_angle_alpha   74.06394500
_cell_angle_beta   90.00000000
_cell_angle_gamma   90.00000000
_symmetry_Int_Tables_number   1
_chemical_formula_structural   K2CaAs2O7
_chemical_formula_sum   'K8 Ca4 As8 O28'
_cell_volume   797.42085183
_cell_formula_units_Z   4
loop_
 _symmetry_equiv_pos_site_id
 _symmetry_equiv_pos_as_xyz
  1  'x, y, z'
loop_
 _atom_site_type_symbol
 _atom_site_label
 _atom_site_symmetry_multiplicity
 _atom_site_fract_x
 _atom_site_fract_y
 _atom_site_fract_z
 _atom_site_occupancy
  K  K0  1  0.23293200  0.46622500  0.33583700  1
  K  K1  1  0.75385000  0.96724000  0.11355900  1
  K  K2  1  0.24615000  0.03276000  0.88644100  1
  K  K3  1  0.73293200  0.53377500  0.16416300  1
  K  K4  1  0.26706800  0.46622500  0.83583700  1
  K  K5  1  0.25385000  0.03276000  0.38644100  1
  K  K6  1  0.74615000  0.96724000  0.61355900  1
  K  K7  1  0.76706800  0.53377500  0.66416300  1
  Ca  Ca0  1  0.27189700  0.26572500  0.13742300  1
  Ca  Ca1  1  0.72810300  0.73427500  0.86257700  1
  Ca  Ca2  1  0.77189700  0.73427500  0.36257700  1
  Ca  Ca3  1  0.22810300  0.26572500  0.63742300  1
  As  As0  1  0.70686700  0.31484400  0.47234900  1
  As  As1  1  0.26043600  0.82445700  0.19819800  1
  As  As2  1  0.29313300  0.68515600  0.52765100  1
  As  As3  1  0.73956400  0.17554300  0.80180200  1
  As  As4  1  0.23956400  0.82445700  0.69819800  1
  As  As5  1  0.76043600  0.17554300  0.30180200  1
  As  As6  1  0.79313300  0.31484400  0.97234900  1
  As  As7  1  0.20686700  0.68515600  0.02765100  1
  O  O0  1  0.98864200  0.27340600  0.24940300  1
  O  O1  1  0.51135800  0.27340600  0.74940300  1
  O  O2  1  0.24795300  0.52517800  0.61248000  1
  O  O3  1  0.25204700  0.52517800  0.11248000  1
  O  O4  1  0.42981100  0.27541900  0.49916700  1
  O  O5  1  0.26581300  0.00671800  0.19442500  1
  O  O6  1  0.13017000  0.71524400  0.43076100  1
  O  O7  1  0.92981100  0.72458100  0.00083300  1
  O  O8  1  0.80056200  0.16323300  0.42557400  1
  O  O9  1  0.01135800  0.72659400  0.75059700  1
  O  O10  1  0.00774900  0.73860500  0.22858300  1
  O  O11  1  0.57018900  0.72458100  0.50083300  1
  O  O12  1  0.99225100  0.26139500  0.77141700  1
  O  O13  1  0.74795300  0.47482200  0.88752000  1
  O  O14  1  0.86983000  0.28475600  0.56923900  1
  O  O15  1  0.23418700  0.00671800  0.69442500  1
  O  O16  1  0.07018900  0.27541900  0.99916700  1
  O  O17  1  0.48864200  0.72659400  0.25059700  1
  O  O18  1  0.49225100  0.73860500  0.72858300  1
  O  O19  1  0.50774900  0.26139500  0.27141700  1
  O  O20  1  0.76581300  0.99328200  0.30557500  1
  O  O21  1  0.73418700  0.99328200  0.80557500  1
  O  O22  1  0.19943800  0.83676700  0.57442600  1
  O  O23  1  0.36983000  0.71524400  0.93076100  1
  O  O24  1  0.30056200  0.83676700  0.07442600  1
  O  O25  1  0.69943800  0.16323300  0.92557400  1
  O  O26  1  0.63017000  0.28475600  0.06923900  1
  O  O27  1  0.75204700  0.47482200  0.38752000  1
loop_
_geom_bond_atom_site_label_1
_geom_bond_atom_site_label_2
_geom_bond_distance
_geom_bond_site_symmetry_2
K0 O4 2.847108 1_555
K0 O17 2.857839 1_555
K0 O19 2.877217 1_555
K0 O0 2.882190 1_455
K0 O10 2.935454 1_555
K0 O27 2.961710 1_455
K0 O6 3.104405 1_555
K0 O27 3.180700 1_555
K0 O3 3.226639 1_555
K1 O10 2.790076 1_655
K1 O25 2.917951 1_564
K1 O20 2.941932 1_555
K1 O26 2.957760 1_565
K1 O17 3.034526 1_555
K1 O24 3.075263 1_555
K1 O5 3.196540 1_565
K1 O5 3.325614 1_665
K1 O7 3.344944 1_555
K2 O12 2.790076 1_455
K2 O24 2.917951 1_546
K2 O15 2.941932 1_555
K2 O23 2.957760 1_545
K2 O1 3.034526 1_555
K2 O25 3.075263 1_555
K2 O21 3.196540 1_545
K2 O21 3.325614 1_445
K2 O16 3.344944 1_555
K3 O7 2.847108 1_555
K3 O0 2.857839 1_555
K3 O10 2.877217 1_655
K3 O17 2.882190 1_555
K3 O19 2.935454 1_555
K3 O3 2.961710 1_555
K3 O26 3.104405 1_555
K3 O3 3.180700 1_655
K3 O27 3.226639 1_555
K4 O16 2.847108 1_555
K4 O9 2.857839 1_555
K4 O12 2.877217 1_455
K4 O1 2.882190 1_555
K4 O18 2.935454 1_555
K4 O13 2.961710 1_555
K4 O23 3.104405 1_555
K4 O13 3.180700 1_455
K4 O2 3.226639 1_555
K5 O19 2.790076 1_555
K5 O22 2.917951 1_545
K5 O5 2.941932 1_555
K5 O6 2.957760 1_545
K5 O0 3.034526 1_455
K5 O8 3.075263 1_455
K5 O20 3.196540 1_445
K5 O20 3.325614 1_545
K5 O4 3.344944 1_555
K6 O18 2.790076 1_555
K6 O8 2.917951 1_565
K6 O21 2.941932 1_555
K6 O14 2.957760 1_565
K6 O9 3.034526 1_655
K6 O22 3.075263 1_655
K6 O15 3.196540 1_665
K6 O15 3.325614 1_565
K6 O11 3.344944 1_555
K7 O11 2.847108 1_555
K7 O1 2.857839 1_555
K7 O18 2.877217 1_555
K7 O9 2.882190 1_655
K7 O12 2.935454 1_555
K7 O2 2.961710 1_655
K7 O14 3.104405 1_555
K7 O2 3.180700 1_555
K7 O13 3.226639 1_555
Ca0 O5 2.341399 1_555
Ca0 O26 2.341648 1_555
Ca0 O3 2.359430 1_555
Ca0 O16 2.364618 1_554
Ca0 O0 2.384378 1_455
Ca0 O19 2.431166 1_555
Ca1 O21 2.341399 1_555
Ca1 O23 2.341648 1_555
Ca1 O13 2.359430 1_555
Ca1 O7 2.364618 1_556
Ca1 O9 2.384378 1_655
Ca1 O18 2.431166 1_555
Ca2 O20 2.341399 1_555
Ca2 O6 2.341648 1_655
Ca2 O27 2.359430 1_555
Ca2 O11 2.364618 1_555
Ca2 O17 2.384378 1_555
Ca2 O10 2.431166 1_655
Ca3 O15 2.341399 1_555
Ca3 O14 2.341648 1_455
Ca3 O2 2.359430 1_555
Ca3 O4 2.364618 1_555
Ca3 O1 2.384378 1_555
Ca3 O12 2.431166 1_455
As0 O27 1.696790 1_555
As0 O14 1.696935 1_555
As0 O4 1.707694 1_555
As0 O8 1.832709 1_555
As1 O5 1.693680 1_565
As1 O17 1.700248 1_555
As1 O10 1.702668 1_555
As1 O24 1.833785 1_555
As2 O2 1.696790 1_555
As2 O6 1.696935 1_555
As2 O11 1.707694 1_555
As2 O22 1.832709 1_555
As3 O21 1.693680 1_545
As3 O1 1.700248 1_555
As3 O12 1.702668 1_555
As3 O25 1.833785 1_555
As4 O15 1.693680 1_565
As4 O9 1.700248 1_555
As4 O18 1.702668 1_555
As4 O22 1.833785 1_555
As5 O20 1.693680 1_545
As5 O0 1.700248 1_555
As5 O19 1.702668 1_555
As5 O8 1.833785 1_555
As6 O13 1.696790 1_555
As6 O26 1.696935 1_556
As6 O16 1.707694 1_655
As6 O25 1.832709 1_555
As7 O3 1.696790 1_555
As7 O23 1.696935 1_554
As7 O7 1.707694 1_455
As7 O24 1.832709 1_555
