# generated using pymatgen
data_CeTl5Cu2(NO2)12
_symmetry_space_group_name_H-M   'P 1'
_cell_length_a   10.93082700
_cell_length_b   10.93082700
_cell_length_c   10.93082700
_cell_angle_alpha   90.00000000
_cell_angle_beta   90.00000000
_cell_angle_gamma   90.00000000
_symmetry_Int_Tables_number   1
_chemical_formula_structural   CeTl5Cu2(NO2)12
_chemical_formula_sum   'Ce2 Tl10 Cu4 N24 O48'
_cell_volume   1306.04777184
_cell_formula_units_Z   2
loop_
 _symmetry_equiv_pos_site_id
 _symmetry_equiv_pos_as_xyz
  1  'x, y, z'
loop_
 _atom_site_type_symbol
 _atom_site_label
 _atom_site_symmetry_multiplicity
 _atom_site_fract_x
 _atom_site_fract_y
 _atom_site_fract_z
 _atom_site_occupancy
  Ce  Ce0  1  0.25000000  0.25000000  0.25000000  1
  Ce  Ce1  1  0.75000000  0.75000000  0.75000000  1
  Tl  Tl0  1  0.50000000  0.50000000  0.00000000  1
  Tl  Tl1  1  0.50000000  0.00000000  0.50000000  1
  Tl  Tl2  1  0.25000000  0.75000000  0.75000000  1
  Tl  Tl3  1  0.75000000  0.25000000  0.25000000  1
  Tl  Tl4  1  0.75000000  0.25000000  0.75000000  1
  Tl  Tl5  1  0.00000000  0.00000000  0.00000000  1
  Tl  Tl6  1  0.75000000  0.75000000  0.25000000  1
  Tl  Tl7  1  0.25000000  0.75000000  0.25000000  1
  Tl  Tl8  1  0.00000000  0.50000000  0.50000000  1
  Tl  Tl9  1  0.25000000  0.25000000  0.75000000  1
  Cu  Cu0  1  0.00000000  0.00000000  0.50000000  1
  Cu  Cu1  1  0.50000000  0.00000000  0.00000000  1
  Cu  Cu2  1  0.00000000  0.50000000  0.00000000  1
  Cu  Cu3  1  0.50000000  0.50000000  0.50000000  1
  N  N0  1  0.50818900  0.50524800  0.69453200  1
  N  N1  1  0.80546800  0.99181100  0.50524800  1
  N  N2  1  0.69453200  0.99181100  0.99475200  1
  N  N3  1  0.50524800  0.80546800  0.99181100  1
  N  N4  1  0.99181100  0.99475200  0.69453200  1
  N  N5  1  0.00524800  0.30546800  0.00818900  1
  N  N6  1  0.30546800  0.00818900  0.00524800  1
  N  N7  1  0.80546800  0.50818900  0.99475200  1
  N  N8  1  0.50524800  0.69453200  0.50818900  1
  N  N9  1  0.00818900  0.49475200  0.19453200  1
  N  N10  1  0.99475200  0.80546800  0.50818900  1
  N  N11  1  0.49181100  0.49475200  0.30546800  1
  N  N12  1  0.50818900  0.99475200  0.80546800  1
  N  N13  1  0.00524800  0.19453200  0.49181100  1
  N  N14  1  0.69453200  0.50818900  0.50524800  1
  N  N15  1  0.49475200  0.19453200  0.00818900  1
  N  N16  1  0.49475200  0.30546800  0.49181100  1
  N  N17  1  0.19453200  0.00818900  0.49475200  1
  N  N18  1  0.99475200  0.69453200  0.99181100  1
  N  N19  1  0.99181100  0.50524800  0.80546800  1
  N  N20  1  0.49181100  0.00524800  0.19453200  1
  N  N21  1  0.00818900  0.00524800  0.30546800  1
  N  N22  1  0.19453200  0.49181100  0.00524800  1
  N  N23  1  0.30546800  0.49181100  0.49475200  1
  O  O0  1  0.50413900  0.25273200  0.90971100  1
  O  O1  1  0.00413900  0.75273200  0.09028900  1
  O  O2  1  0.40971100  0.00413900  0.74726800  1
  O  O3  1  0.24726800  0.59028900  0.50413900  1
  O  O4  1  0.90971100  0.50413900  0.25273200  1
  O  O5  1  0.25263100  0.10281300  0.46036400  1
  O  O6  1  0.39718700  0.46036400  0.24736900  1
  O  O7  1  0.96036400  0.74736900  0.60281300  1
  O  O8  1  0.59028900  0.99586100  0.25273200  1
  O  O9  1  0.03963600  0.25263100  0.39718700  1
  O  O10  1  0.09028900  0.00413900  0.75273200  1
  O  O11  1  0.39718700  0.03963600  0.25263100  1
  O  O12  1  0.74726800  0.40971100  0.00413900  1
  O  O13  1  0.89718700  0.96036400  0.75263100  1
  O  O14  1  0.03963600  0.24736900  0.10281300  1
  O  O15  1  0.90971100  0.99586100  0.24726800  1
  O  O16  1  0.89718700  0.53963600  0.74736900  1
  O  O17  1  0.25273200  0.90971100  0.50413900  1
  O  O18  1  0.09028900  0.49586100  0.74726800  1
  O  O19  1  0.10281300  0.03963600  0.24736900  1
  O  O20  1  0.53963600  0.74736900  0.89718700  1
  O  O21  1  0.25273200  0.59028900  0.99586100  1
  O  O22  1  0.25263100  0.39718700  0.03963600  1
  O  O23  1  0.74726800  0.09028900  0.49586100  1
  O  O24  1  0.00413900  0.74726800  0.40971100  1
  O  O25  1  0.24736900  0.39718700  0.46036400  1
  O  O26  1  0.40971100  0.49586100  0.75273200  1
  O  O27  1  0.99586100  0.25273200  0.59028900  1
  O  O28  1  0.59028900  0.50413900  0.24726800  1
  O  O29  1  0.53963600  0.75263100  0.60281300  1
  O  O30  1  0.74736900  0.60281300  0.96036400  1
  O  O31  1  0.60281300  0.96036400  0.74736900  1
  O  O32  1  0.24726800  0.90971100  0.99586100  1
  O  O33  1  0.75263100  0.89718700  0.96036400  1
  O  O34  1  0.75273200  0.09028900  0.00413900  1
  O  O35  1  0.50413900  0.24726800  0.59028900  1
  O  O36  1  0.74736900  0.89718700  0.53963600  1
  O  O37  1  0.75273200  0.40971100  0.49586100  1
  O  O38  1  0.99586100  0.24726800  0.90971100  1
  O  O39  1  0.49586100  0.74726800  0.09028900  1
  O  O40  1  0.10281300  0.46036400  0.25263100  1
  O  O41  1  0.24736900  0.10281300  0.03963600  1
  O  O42  1  0.46036400  0.24736900  0.39718700  1
  O  O43  1  0.60281300  0.53963600  0.75263100  1
  O  O44  1  0.49586100  0.75273200  0.40971100  1
  O  O45  1  0.96036400  0.75263100  0.89718700  1
  O  O46  1  0.75263100  0.60281300  0.53963600  1
  O  O47  1  0.46036400  0.25263100  0.10281300  1
loop_
_geom_bond_atom_site_label_1
_geom_bond_atom_site_label_2
_geom_bond_distance
_geom_bond_site_symmetry_2
Ce0 O22 2.806562 1_555
Ce0 O25 2.806562 1_555
Ce0 O6 2.806562 1_555
Ce0 O42 2.806562 1_555
Ce0 O11 2.806562 1_555
Ce0 O9 2.806562 1_555
Ce0 O19 2.806562 1_555
Ce0 O47 2.806562 1_555
Ce0 O41 2.806562 1_555
Ce0 O5 2.806562 1_555
Ce0 O14 2.806562 1_555
Ce0 O40 2.806562 1_555
Ce1 O20 2.806562 1_555
Ce1 O36 2.806562 1_555
Ce1 O33 2.806562 1_555
Ce1 O13 2.806562 1_555
Ce1 O45 2.806562 1_555
Ce1 O16 2.806562 1_555
Ce1 O29 2.806562 1_555
Ce1 O46 2.806562 1_555
Ce1 O43 2.806562 1_555
Ce1 O7 2.806562 1_555
Ce1 O30 2.806562 1_555
Ce1 O31 2.806562 1_555
Cu0 N13 2.129052 1_555
Cu0 N17 2.129052 1_555
Cu0 N4 2.129052 1_445
Cu0 N1 2.129052 1_445
Cu0 N10 2.129052 1_445
Cu0 N21 2.129052 1_555
Cu1 N20 2.129052 1_555
Cu1 N15 2.129052 1_555
Cu1 N2 2.129052 1_544
Cu1 N12 2.129052 1_544
Cu1 N3 2.129052 1_544
Cu1 N6 2.129052 1_555
Cu2 N22 2.129052 1_555
Cu2 N9 2.129052 1_555
Cu2 N18 2.129052 1_454
Cu2 N7 2.129052 1_454
Cu2 N19 2.129052 1_454
Cu2 N5 2.129052 1_555
Cu3 N8 2.129052 1_555
Cu3 N0 2.129052 1_555
Cu3 N14 2.129052 1_555
Cu3 N16 2.129052 1_555
Cu3 N23 2.129052 1_555
Cu3 N11 2.129052 1_555
N0 O26 1.254584 1_555
N0 O43 1.270599 1_555
N1 O23 1.254584 1_565
N1 O36 1.270599 1_555
N2 O34 1.254584 1_566
N2 O33 1.270599 1_555
N3 O39 1.254584 1_556
N3 O20 1.270599 1_555
N4 O10 1.254584 1_665
N4 O13 1.270599 1_555
N5 O38 1.254584 1_454
N5 O14 1.270599 1_555
N6 O32 1.254584 1_544
N6 O41 1.270599 1_555
N7 O12 1.254584 1_556
N7 O30 1.270599 1_555
N8 O44 1.254584 1_555
N8 O29 1.270599 1_555
N9 O4 1.254584 1_455
N9 O40 1.270599 1_555
N10 O24 1.254584 1_655
N10 O7 1.270599 1_555
N11 O28 1.254584 1_555
N11 O6 1.270599 1_555
N12 O2 1.254584 1_565
N12 O31 1.270599 1_555
N13 O27 1.254584 1_455
N13 O9 1.270599 1_555
N14 O37 1.254584 1_555
N14 O46 1.270599 1_555
N15 O0 1.254584 1_554
N15 O47 1.270599 1_555
N16 O35 1.254584 1_555
N16 O42 1.270599 1_555
N17 O17 1.254584 1_545
N17 O5 1.270599 1_555
N18 O1 1.254584 1_656
N18 O45 1.270599 1_555
N19 O18 1.254584 1_655
N19 O16 1.270599 1_555
N20 O8 1.254584 1_545
N20 O11 1.270599 1_555
N21 O15 1.254584 1_445
N21 O19 1.270599 1_555
N22 O21 1.254584 1_554
N22 O22 1.270599 1_555
N23 O3 1.254584 1_555
N23 O25 1.270599 1_555
