# generated using pymatgen
data_AuBr
_symmetry_space_group_name_H-M   'P 1'
_cell_length_a   4.24052030
_cell_length_b   4.24052030
_cell_length_c   13.06780925
_cell_angle_alpha   90.00000000
_cell_angle_beta   90.00000000
_cell_angle_gamma   90.00000000
_symmetry_Int_Tables_number   1
_chemical_formula_structural   AuBr
_chemical_formula_sum   'Au4 Br4'
_cell_volume   234.98550817
_cell_formula_units_Z   4
loop_
 _symmetry_equiv_pos_site_id
 _symmetry_equiv_pos_as_xyz
  1  'x, y, z'
loop_
 _atom_site_type_symbol
 _atom_site_label
 _atom_site_symmetry_multiplicity
 _atom_site_fract_x
 _atom_site_fract_y
 _atom_site_fract_z
 _atom_site_occupancy
  Au  Au0  1  0.00000000  -0.00000000  0.00000000  1
  Au  Au1  1  0.50000000  -0.00000000  0.50000000  1
  Au  Au2  1  0.00000000  0.50000000  0.50000000  1
  Au  Au3  1  0.50000000  0.50000000  0.00000000  1
  Br  Br0  1  0.25000000  0.25000000  0.15056009  1
  Br  Br1  1  0.25000000  0.25000000  0.65056009  1
  Br  Br2  1  0.75000000  0.75000000  0.34943991  1
  Br  Br3  1  0.75000000  0.75000000  0.84943991  1
loop_
_geom_bond_atom_site_label_1
_geom_bond_atom_site_label_2
_geom_bond_distance
_geom_bond_site_symmetry_2
Au0 Br3 2.473615 1_444
Au0 Br0 2.473615 1_555
Au1 Br2 2.473615 1_545
Au1 Br1 2.473615 1_555
Au2 Br2 2.473615 1_455
Au2 Br1 2.473615 1_555
Au3 Br3 2.473615 1_554
Au3 Br0 2.473615 1_555
