# generated using pymatgen
data_Sc6Ni18Ge11
_symmetry_space_group_name_H-M   'P 1'
_cell_length_a   11.85343106
_cell_length_b   11.85343106
_cell_length_c   11.85343106
_cell_angle_alpha   139.53360735
_cell_angle_beta   116.27161550
_cell_angle_gamma   78.26334051
_symmetry_Int_Tables_number   1
_chemical_formula_structural   Sc6Ni18Ge11
_chemical_formula_sum   'Sc12 Ni36 Ge22'
_cell_volume   943.45301229
_cell_formula_units_Z   2
loop_
 _symmetry_equiv_pos_site_id
 _symmetry_equiv_pos_as_xyz
  1  'x, y, z'
loop_
 _atom_site_type_symbol
 _atom_site_label
 _atom_site_symmetry_multiplicity
 _atom_site_fract_x
 _atom_site_fract_y
 _atom_site_fract_z
 _atom_site_occupancy
  Sc  Sc0  1  0.81817300  0.79548600  0.61365900  1
  Sc  Sc1  1  0.80968100  0.30968100  0.50000000  1
  Sc  Sc2  1  0.09812100  0.28090300  0.81721700  1
  Sc  Sc3  1  0.53631400  0.71909700  0.81721700  1
  Sc  Sc4  1  0.46368600  0.28090300  0.18278300  1
  Sc  Sc5  1  0.81817300  0.20451400  0.02268700  1
  Sc  Sc6  1  0.36995500  0.86995500  0.50000000  1
  Sc  Sc7  1  0.63004500  0.13004500  0.50000000  1
  Sc  Sc8  1  0.19031900  0.69031900  0.50000000  1
  Sc  Sc9  1  0.90187900  0.71909700  0.18278300  1
  Sc  Sc10  1  0.18182700  0.79548600  0.97731300  1
  Sc  Sc11  1  0.18182700  0.20451400  0.38634100  1
  Ni  Ni0  1  0.43543600  0.94800400  0.81904900  1
  Ni  Ni1  1  0.73504800  0.80480000  0.36784500  1
  Ni  Ni2  1  0.26495200  0.63279700  0.06975200  1
  Ni  Ni3  1  0.56304500  0.63279700  0.36784500  1
  Ni  Ni4  1  0.43282300  0.43282300  0.00000000  1
  Ni  Ni5  1  0.73504800  0.36720300  0.93024800  1
  Ni  Ni6  1  0.20786400  0.37170300  0.16384000  1
  Ni  Ni7  1  0.75545900  0.42319000  0.33226900  1
  Ni  Ni8  1  0.43695500  0.36720300  0.63215500  1
  Ni  Ni9  1  0.20786400  0.04402400  0.83616000  1
  Ni  Ni10  1  0.90907900  0.57681000  0.33226900  1
  Ni  Ni11  1  0.56456400  0.38361300  0.51256700  1
  Ni  Ni12  1  0.09092100  0.42319000  0.66773100  1
  Ni  Ni13  1  0.07589500  0.34238100  0.26648600  1
  Ni  Ni14  1  0.12895500  0.61638700  0.18095100  1
  Ni  Ni15  1  0.79213600  0.95597600  0.16384000  1
  Ni  Ni16  1  0.43695500  0.80480000  0.06975200  1
  Ni  Ni17  1  0.56304500  0.19520000  0.93024800  1
  Ni  Ni18  1  0.61786100  0.00000000  0.61786100  1
  Ni  Ni19  1  0.24454100  0.57681000  0.66773100  1
  Ni  Ni20  1  0.21345700  0.11392500  0.09953200  1
  Ni  Ni21  1  0.56717700  0.56717700  0.00000000  1
  Ni  Ni22  1  0.79213600  0.62829700  0.83616000  1
  Ni  Ni23  1  0.12895500  0.94800400  0.51256700  1
  Ni  Ni24  1  0.92410500  0.19059100  0.26648600  1
  Ni  Ni25  1  0.38213900  0.00000000  0.38213900  1
  Ni  Ni26  1  0.92410500  0.65761900  0.73351400  1
  Ni  Ni27  1  0.01439300  0.11392500  0.90046800  1
  Ni  Ni28  1  0.98560700  0.88607500  0.09953200  1
  Ni  Ni29  1  0.43543600  0.61638700  0.48743300  1
  Ni  Ni30  1  0.87104500  0.38361300  0.81904900  1
  Ni  Ni31  1  0.78654300  0.88607500  0.90046800  1
  Ni  Ni32  1  0.26495200  0.19520000  0.63215500  1
  Ni  Ni33  1  0.87104500  0.05199600  0.48743300  1
  Ni  Ni34  1  0.07589500  0.80940900  0.73351400  1
  Ni  Ni35  1  0.56456400  0.05199600  0.18095100  1
  Ge  Ge0  1  0.01111600  0.10987700  0.43450000  1
  Ge  Ge1  1  0.32462300  0.42338400  0.43450000  1
  Ge  Ge2  1  0.01111600  0.57661600  0.90123900  1
  Ge  Ge3  1  0.82871900  0.11403800  0.71468100  1
  Ge  Ge4  1  0.67822400  0.50000000  0.17822400  1
  Ge  Ge5  1  0.60064300  0.88596200  0.71468100  1
  Ge  Ge6  1  0.32462300  0.89012300  0.90123900  1
  Ge  Ge7  1  0.50000000  0.76918700  0.26918700  1
  Ge  Ge8  1  0.50000000  0.23081300  0.73081300  1
  Ge  Ge9  1  0.33075600  0.50776300  0.17700700  1
  Ge  Ge10  1  0.33075600  0.15375000  0.82299300  1
  Ge  Ge11  1  0.17128100  0.88596200  0.28531900  1
  Ge  Ge12  1  0.32177600  0.50000000  0.82177600  1
  Ge  Ge13  1  0.67537700  0.10987700  0.09876100  1
  Ge  Ge14  1  0.66924400  0.49223700  0.82299300  1
  Ge  Ge15  1  0.39935700  0.11403800  0.28531900  1
  Ge  Ge16  1  0.98888400  0.42338400  0.09876100  1
  Ge  Ge17  1  0.98888400  0.89012300  0.56550000  1
  Ge  Ge18  1  0.67537700  0.57661600  0.56550000  1
  Ge  Ge19  1  0.00000000  0.00000000  0.00000000  1
  Ge  Ge20  1  0.66924400  0.84625000  0.17700700  1
  Ge  Ge21  1  0.00000000  0.50000000  0.50000000  1
loop_
_geom_bond_atom_site_label_1
_geom_bond_atom_site_label_2
_geom_bond_distance
_geom_bond_site_symmetry_2
Ni0 Ni17 2.602405 1_565
Ni0 Sc3 2.721371 1_555
Ni0 Ni9 2.738093 1_565
Ni0 Sc4 2.764912 1_566
Ni0 Sc6 2.851410 1_555
Ni0 Sc8 2.894933 1_555
Ni1 Ni33 2.602398 1_565
Ni1 Ni21 2.610997 1_555
Ni1 Sc0 2.715990 1_555
Ni1 Ni18 2.822931 1_565
Ni1 Ni10 2.916269 1_555
Ni1 Sc9 3.063772 1_555
Ni1 Sc7 3.074223 1_565
Ni2 Ni4 2.610997 1_555
Ni2 Sc10 2.715990 1_554
Ni2 Ni25 2.822931 1_565
Ni2 Sc2 3.063777 1_554
Ni2 Sc6 3.074223 1_555
Ni3 Ni4 2.610997 1_555
Ni3 Sc0 2.715990 1_555
Ni3 Ni7 2.916269 1_555
Ni3 Sc4 3.063783 1_555
Ni3 Sc6 3.074223 1_555
Ni5 Sc5 2.715990 1_556
Ni5 Sc9 3.063777 1_556
Ni5 Sc7 3.074223 1_555
Ni6 Ni9 2.686587 1_554
Ni6 Sc8 2.774941 1_555
Ni6 Sc4 2.973428 1_555
Ni6 Sc2 2.973439 1_554
Ni7 Sc5 2.809878 1_555
Ni7 Sc0 2.809878 1_555
Ni7 Sc1 2.960326 1_555
Ni7 Sc4 3.216582 1_555
Ni8 Sc11 2.715990 1_555
Ni8 Sc3 3.063783 1_555
Ni8 Sc7 3.074223 1_555
Ni9 Sc8 2.774938 1_545
Ni9 Sc2 2.973428 1_555
Ni9 Sc4 2.973430 1_556
Ni10 Sc0 2.809878 1_555
Ni10 Sc5 2.809878 1_555
Ni10 Ni7 2.824973 1_555
Ni10 Ni34 2.841165 1_655
Ni10 Ni13 2.841165 1_655
Ni10 Ni5 2.916269 1_554
Ni10 Sc8 2.960326 1_655
Ni10 Sc9 3.216578 1_555
Ni11 Ni8 2.602415 1_555
Ni11 Sc4 2.721361 1_555
Ni11 Ni22 2.738098 1_555
Ni11 Sc3 2.764916 1_555
Ni11 Sc7 2.851418 1_555
Ni11 Sc1 2.894930 1_555
Ni12 Sc11 2.809878 1_555
Ni12 Sc10 2.809878 1_555
Ni12 Ni19 2.824973 1_555
Ni12 Ni24 2.841165 1_455
Ni12 Ni26 2.841165 1_455
Ni12 Ni32 2.916269 1_555
Ni12 Ni2 2.916269 1_556
Ni12 Sc1 2.960326 1_455
Ni12 Sc2 3.216578 1_555
Ni13 Ni6 2.568598 1_555
Ni13 Ni27 2.610438 1_554
Ni13 Ni20 2.610438 1_555
Ni13 Sc11 2.717399 1_555
Ni13 Sc5 2.717399 1_455
Ni13 Ni24 2.791321 1_455
Ni13 Ni19 2.841165 1_555
Ni13 Sc8 2.844830 1_555
Ni14 Ni2 2.602405 1_555
Ni14 Sc9 2.721382 1_455
Ni14 Ni6 2.738105 1_555
Ni14 Sc2 2.764916 1_554
Ni14 Sc6 2.851410 1_555
Ni14 Sc8 2.894933 1_555
Ni15 Ni31 2.517987 1_554
Ni15 Ni28 2.517987 1_555
Ni15 Ni24 2.568605 1_565
Ni15 Ni22 2.686587 1_554
Ni15 Ni35 2.738093 1_565
Ni15 Ni33 2.738105 1_565
Ni15 Sc1 2.774938 1_565
Ni15 Sc9 2.973428 1_555
Ni15 Sc3 2.973430 1_554
Ni16 Ni35 2.602405 1_565
Ni16 Ni21 2.610997 1_555
Ni16 Sc10 2.715990 1_554
Ni16 Ni25 2.822931 1_565
Ni16 Ni19 2.916269 1_554
Ni16 Sc3 3.063783 1_554
Ni16 Sc7 3.074223 1_565
Ni17 Ni4 2.610997 1_556
Ni17 Sc5 2.715990 1_556
Ni17 Ni18 2.822931 1_555
Ni17 Ni7 2.916269 1_556
Ni17 Sc4 3.063783 1_556
Ni17 Sc6 3.074223 1_545
Ni18 Sc7 2.809756 1_555
Ni18 Sc6 2.809756 1_545
Ni18 Ni3 2.822931 1_545
Ni18 Ni5 2.822931 1_555
Ni18 Sc5 3.015987 1_556
Ni18 Sc0 3.015987 1_545
Ni19 Sc10 2.809878 1_555
Ni19 Sc11 2.809878 1_555
Ni19 Ni34 2.841165 1_555
Ni19 Ni8 2.916269 1_555
Ni19 Sc8 2.960326 1_555
Ni19 Sc3 3.216582 1_555
Ni20 Ni27 2.491293 1_554
Ni20 Ni6 2.517975 1_555
Ni20 Ni9 2.517987 1_554
Ni20 Ni34 2.610438 1_544
Ni20 Sc10 2.874261 1_544
Ni20 Sc11 2.874261 1_555
Ni20 Sc4 3.242565 1_555
Ni21 Ni4 2.470684 1_555
Ni21 Ni8 2.610997 1_554
Ni21 Ni5 2.610997 1_554
Ni22 Ni31 2.517975 1_555
Ni22 Ni28 2.517981 1_556
Ni22 Ni26 2.568598 1_555
Ni22 Ni30 2.738105 1_555
Ni22 Sc1 2.774941 1_555
Ni22 Sc3 2.973428 1_555
Ni22 Sc9 2.973439 1_556
Ni23 Ni32 2.602398 1_565
Ni23 Sc9 2.721375 1_455
Ni23 Ni9 2.738105 1_565
Ni23 Sc2 2.764911 1_565
Ni23 Sc6 2.851407 1_555
Ni23 Sc8 2.894941 1_555
Ni24 Ni31 2.610438 1_544
Ni24 Ni28 2.610438 1_545
Ni24 Sc5 2.717399 1_555
Ni24 Sc11 2.717399 1_655
Ni24 Ni7 2.841165 1_555
Ni24 Sc1 2.844830 1_555
Ni25 Sc7 2.809756 1_555
Ni25 Sc6 2.809756 1_545
Ni25 Ni8 2.822931 1_555
Ni25 Ni32 2.822931 1_555
Ni25 Sc11 3.015987 1_555
Ni25 Sc10 3.015987 1_544
Ni26 Ni31 2.610438 1_555
Ni26 Ni28 2.610438 1_556
Ni26 Sc10 2.717399 1_655
Ni26 Sc0 2.717399 1_555
Ni26 Ni34 2.791321 1_655
Ni26 Ni7 2.841165 1_555
Ni26 Sc1 2.844830 1_555
Ni27 Ni6 2.517981 1_556
Ni27 Ni9 2.517987 1_555
Ni27 Ni34 2.610438 1_545
Ni27 Sc5 2.874261 1_456
Ni27 Sc0 2.874261 1_445
Ni27 Sc2 3.242572 1_555
Ni28 Ni31 2.491293 1_554
Ni28 Sc10 2.874261 1_654
Ni28 Sc11 2.874261 1_665
Ni28 Sc9 3.242572 1_555
Ni29 Ni3 2.602415 1_555
Ni29 Sc3 2.721361 1_555
Ni29 Ni6 2.738098 1_555
Ni29 Sc4 2.764916 1_555
Ni29 Sc6 2.851418 1_555
Ni29 Sc8 2.894930 1_555
Ni30 Ni5 2.602405 1_555
Ni30 Sc2 2.721382 1_655
Ni30 Sc9 2.764916 1_556
Ni30 Sc7 2.851410 1_555
Ni30 Sc1 2.894933 1_555
Ni31 Sc0 2.874261 1_555
Ni31 Sc5 2.874261 1_566
Ni31 Sc3 3.242565 1_555
Ni32 Ni4 2.610997 1_556
Ni32 Sc11 2.715990 1_555
Ni32 Sc2 3.063772 1_555
Ni32 Sc6 3.074223 1_545
Ni33 Sc2 2.721375 1_655
Ni33 Sc9 2.764911 1_545
Ni33 Sc7 2.851407 1_555
Ni33 Sc1 2.894941 1_555
Ni34 Ni9 2.568605 1_565
Ni34 Sc0 2.717399 1_455
Ni34 Sc10 2.717399 1_555
Ni34 Sc8 2.844830 1_555
Ni35 Sc4 2.721371 1_555
Ni35 Sc3 2.764912 1_544
Ni35 Sc7 2.851410 1_555
Ni35 Sc1 2.894933 1_555
Ge0 Ni33 2.379434 1_455
Ge0 Ni12 2.412914 1_555
Ge0 Ni15 2.450997 1_445
Ge0 Ni28 2.476002 1_445
Ge0 Ni24 2.573855 1_455
Ge0 Ni23 2.637420 1_545
Ge0 Ni32 2.637643 1_555
Ge0 Ge11 2.748897 1_545
Ge0 Sc1 2.907864 1_455
Ge0 Sc2 2.910116 1_555
Ge0 Sc11 2.932446 1_555
Ge0 Sc9 3.166374 1_445
Ge1 Ni29 2.379417 1_555
Ge1 Ni19 2.412914 1_555
Ge1 Ni6 2.450990 1_555
Ge1 Ni20 2.476002 1_555
Ge1 Ni13 2.573855 1_555
Ge1 Ni11 2.637427 1_555
Ge1 Ni8 2.637643 1_555
Ge1 Ge15 2.748897 1_555
Ge1 Sc8 2.907864 1_555
Ge1 Sc3 2.910118 1_555
Ge1 Sc11 2.932446 1_555
Ge1 Sc4 3.166371 1_555
Ge2 Ni30 2.379425 1_455
Ge2 Ni12 2.412914 1_555
Ge2 Ni22 2.451001 1_455
Ge2 Ni28 2.476002 1_456
Ge2 Ni26 2.573855 1_455
Ge2 Ni14 2.637428 1_556
Ge2 Ni2 2.637643 1_556
Ge2 Sc1 2.907864 1_455
Ge2 Sc2 2.910121 1_555
Ge2 Sc10 2.932446 1_555
Ge2 Sc9 3.166380 1_456
Ge3 Ni27 2.325132 1_655
Ge3 Ni18 2.421982 1_555
Ge3 Ni33 2.465864 1_555
Ge3 Ni30 2.465875 1_555
Ge3 Ni5 2.501195 1_555
Ge3 Ni1 2.501195 1_545
Ge3 Sc7 2.702817 1_555
Ge3 Sc5 2.981090 1_556
Ge3 Sc0 2.981090 1_545
Ge3 Sc2 3.326067 1_655
Ge4 Ni10 2.389944 1_555
Ge4 Ni7 2.389944 1_555
Ge4 Ni1 2.419208 1_555
Ge4 Ni3 2.419208 1_555
Ge4 Ni17 2.419208 1_554
Ge4 Ni5 2.419208 1_554
Ge4 Ni21 2.549727 1_555
Ge4 Ni4 2.549727 1_555
Ge4 Sc0 2.989450 1_555
Ge4 Sc5 2.989450 1_555
Ge5 Ni31 2.325132 1_555
Ge5 Ni18 2.421982 1_565
Ge5 Ni0 2.465875 1_555
Ge5 Ni29 2.465878 1_555
Ge5 Ni17 2.501195 1_565
Ge5 Ni3 2.501195 1_555
Ge5 Sc6 2.702817 1_555
Ge5 Sc0 2.981090 1_555
Ge5 Sc5 2.981090 1_566
Ge5 Sc3 3.326056 1_555
Ge6 Ni0 2.379425 1_555
Ge6 Ni19 2.412914 1_555
Ge6 Ni9 2.450997 1_565
Ge6 Ni20 2.476002 1_566
Ge6 Ni34 2.573855 1_555
Ge6 Ni35 2.637428 1_566
Ge6 Ni16 2.637643 1_556
Ge6 Sc8 2.907864 1_555
Ge6 Sc3 2.910118 1_555
Ge6 Sc10 2.932446 1_555
Ge6 Sc4 3.166371 1_566
Ge7 Ni18 2.399352 1_565
Ge7 Ni25 2.399352 1_565
Ge7 Ni3 2.480178 1_555
Ge7 Ni2 2.480178 1_555
Ge7 Ni16 2.480178 1_555
Ge7 Ni1 2.480178 1_555
Ge7 Ni4 2.529228 1_555
Ge7 Ni21 2.529228 1_555
Ge7 Sc6 3.049617 1_555
Ge7 Sc7 3.049617 1_565
Ge8 Ni18 2.399352 1_555
Ge8 Ni25 2.399352 1_555
Ge8 Ni17 2.480178 1_555
Ge8 Ni32 2.480178 1_555
Ge8 Ni5 2.480178 1_555
Ge8 Ni8 2.480178 1_555
Ge8 Ni4 2.529228 1_556
Ge8 Ni21 2.529228 1_556
Ge8 Sc6 3.049617 1_545
Ge8 Sc7 3.049617 1_555
Ge9 Ni6 2.262491 1_555
Ge9 Ni4 2.372563 1_555
Ge9 Ni3 2.437233 1_555
Ge9 Ni2 2.437233 1_555
Ge9 Ni14 2.477147 1_555
Ge9 Ni29 2.477158 1_555
Ge9 Sc6 2.744519 1_555
Ge9 Sc2 2.859959 1_554
Ge9 Sc4 2.859965 1_555
Ge10 Ni9 2.262491 1_555
Ge10 Ni4 2.372553 1_556
Ge10 Ni32 2.437223 1_555
Ge10 Ni17 2.437233 1_555
Ge10 Ni23 2.477152 1_545
Ge10 Ni0 2.477158 1_545
Ge10 Sc6 2.744521 1_545
Ge10 Sc2 2.859951 1_555
Ge10 Sc4 2.859971 1_556
Ge11 Ni28 2.325132 1_455
Ge11 Ni25 2.421982 1_565
Ge11 Ni23 2.465864 1_555
Ge11 Ni14 2.465875 1_555
Ge11 Ni32 2.501195 1_565
Ge11 Ni2 2.501195 1_555
Ge11 Sc6 2.702817 1_555
Ge11 Ge2 2.748897 1_554
Ge11 Sc10 2.981090 1_554
Ge11 Sc11 2.981090 1_565
Ge11 Sc9 3.326067 1_455
Ge12 Ni12 2.389944 1_555
Ge12 Ni19 2.389944 1_555
Ge12 Ni8 2.419208 1_555
Ge12 Ni16 2.419208 1_556
Ge12 Ni32 2.419208 1_555
Ge12 Ni2 2.419208 1_556
Ge12 Ni21 2.549727 1_556
Ge12 Ni4 2.549727 1_556
Ge12 Sc11 2.989450 1_555
Ge12 Sc10 2.989450 1_555
Ge13 Ni35 2.379425 1_555
Ge13 Ni7 2.412914 1_555
Ge13 Ni15 2.450997 1_545
Ge13 Ni31 2.476002 1_544
Ge13 Ni24 2.573855 1_555
Ge13 Ni0 2.637428 1_544
Ge13 Ni17 2.637643 1_554
Ge13 Ge5 2.748897 1_544
Ge13 Sc1 2.907864 1_555
Ge13 Sc4 2.910118 1_555
Ge13 Sc5 2.932446 1_555
Ge13 Sc3 3.166371 1_544
Ge14 Ni22 2.262491 1_555
Ge14 Ni21 2.372563 1_556
Ge14 Ni8 2.437233 1_555
Ge14 Ni5 2.437233 1_555
Ge14 Ni30 2.477147 1_555
Ge14 Ni11 2.477158 1_555
Ge14 Sc7 2.744519 1_555
Ge14 Sc9 2.859959 1_556
Ge14 Sc3 2.859965 1_555
Ge15 Ni20 2.325132 1_555
Ge15 Ni25 2.421982 1_555
Ge15 Ni35 2.465875 1_555
Ge15 Ni11 2.465878 1_555
Ge15 Ni16 2.501195 1_545
Ge15 Ni8 2.501195 1_555
Ge15 Sc7 2.702817 1_555
Ge15 Ge6 2.748897 1_544
Ge15 Sc10 2.981090 1_544
Ge15 Sc11 2.981090 1_555
Ge15 Sc4 3.326056 1_555
Ge16 Ni14 2.379425 1_655
Ge16 Ni10 2.412914 1_555
Ge16 Ni6 2.451001 1_655
Ge16 Ni27 2.476002 1_654
Ge16 Ni13 2.573855 1_655
Ge16 Ni30 2.637428 1_554
Ge16 Ni5 2.637643 1_554
Ge16 Ge3 2.748897 1_554
Ge16 Sc8 2.907864 1_655
Ge16 Sc9 2.910121 1_555
Ge16 Sc5 2.932446 1_555
Ge16 Sc2 3.166380 1_654
Ge17 Ni23 2.379434 1_655
Ge17 Ni10 2.412914 1_555
Ge17 Ni9 2.450997 1_665
Ge17 Ni27 2.476002 1_665
Ge17 Ni34 2.573855 1_655
Ge17 Ni33 2.637420 1_565
Ge17 Ni1 2.637643 1_555
Ge17 Ge3 2.748897 1_565
Ge17 Sc8 2.907864 1_655
Ge17 Sc9 2.910116 1_555
Ge17 Sc0 2.932446 1_555
Ge17 Sc2 3.166374 1_665
Ge18 Ni11 2.379417 1_555
Ge18 Ni7 2.412914 1_555
Ge18 Ni22 2.450990 1_555
Ge18 Ni31 2.476002 1_555
Ge18 Ni26 2.573855 1_555
Ge18 Ni29 2.637427 1_555
Ge18 Ni3 2.637643 1_555
Ge18 Ge5 2.748897 1_555
Ge18 Sc1 2.907864 1_555
Ge18 Sc4 2.910118 1_555
Ge18 Sc0 2.932446 1_555
Ge18 Sc3 3.166371 1_555
Ge19 Ni27 2.437353 1_554
Ge19 Ni20 2.437353 1_555
Ge19 Ni28 2.437353 1_445
Ge19 Ni31 2.437353 1_444
Ge19 Ni34 2.592592 1_544
Ge19 Ni13 2.592592 1_555
Ge19 Ni24 2.592592 1_455
Ge19 Ni26 2.592592 1_444
Ge19 Sc10 2.826623 1_544
Ge19 Sc11 2.826623 1_555
Ge19 Sc5 2.826623 1_455
Ge19 Sc0 2.826623 1_444
Ge20 Ni15 2.262491 1_555
Ge20 Ni21 2.372553 1_555
Ge20 Ni1 2.437223 1_555
Ge20 Ni16 2.437233 1_555
Ge20 Ni33 2.477152 1_565
Ge20 Ni35 2.477158 1_565
Ge20 Sc7 2.744521 1_565
Ge20 Sc9 2.859951 1_555
Ge20 Sc3 2.859971 1_554
Ge21 Ni24 2.369247 1_455
Ge21 Ni13 2.369247 1_555
Ge21 Ni34 2.369247 1_555
Ge21 Ni26 2.369247 1_455
Ge21 Ni12 2.530136 1_555
Ge21 Ni7 2.530136 1_455
Ge21 Ni19 2.530136 1_555
Ge21 Ni10 2.530136 1_455
