# generated using pymatgen
data_SnH18C6Br3N
_symmetry_space_group_name_H-M   'P 1'
_cell_length_a   6.59160800
_cell_length_b   12.04673800
_cell_length_c   19.24545500
_cell_angle_alpha   90.00000000
_cell_angle_beta   90.00000000
_cell_angle_gamma   90.00000000
_symmetry_Int_Tables_number   1
_chemical_formula_structural   SnH18C6Br3N
_chemical_formula_sum   'Sn4 H72 C24 Br12 N4'
_cell_volume   1528.23105405
_cell_formula_units_Z   4
loop_
 _symmetry_equiv_pos_site_id
 _symmetry_equiv_pos_as_xyz
  1  'x, y, z'
loop_
 _atom_site_type_symbol
 _atom_site_label
 _atom_site_symmetry_multiplicity
 _atom_site_fract_x
 _atom_site_fract_y
 _atom_site_fract_z
 _atom_site_occupancy
  Sn  Sn0  1  0.58146600  0.99952000  0.75000000  1
  Sn  Sn1  1  0.41853400  0.49952000  0.75000000  1
  Sn  Sn2  1  0.58146600  0.50048000  0.25000000  1
  Sn  Sn3  1  0.41853400  0.00048000  0.25000000  1
  H  H0  1  0.66702600  0.71697000  0.25000000  1
  H  H1  1  0.78678800  0.73857300  0.91979400  1
  H  H2  1  0.77365900  0.27504500  0.92070500  1
  H  H3  1  0.96004600  0.11656000  0.42911100  1
  H  H4  1  0.78360700  0.92943700  0.20316500  1
  H  H5  1  0.02752500  0.12867700  0.57894600  1
  H  H6  1  0.02752500  0.37132300  0.07894600  1
  H  H7  1  0.75973600  0.37113900  0.99221600  1
  H  H8  1  0.77143500  0.63154000  0.51539000  1
  H  H9  1  0.96004600  0.38344000  0.57088900  1
  H  H10  1  0.97247500  0.62867700  0.92105400  1
  H  H11  1  0.86361300  0.64564900  0.29705600  1
  H  H12  1  0.75973600  0.12886100  0.00778400  1
  H  H13  1  0.03995400  0.61656000  0.07088900  1
  H  H14  1  0.24026400  0.87113900  0.99221600  1
  H  H15  1  0.24026400  0.87113900  0.50778400  1
  H  H16  1  0.77365900  0.22495500  0.07929500  1
  H  H17  1  0.75973600  0.12886100  0.49221600  1
  H  H18  1  0.22634100  0.72495500  0.07929500  1
  H  H19  1  0.97247500  0.62867700  0.57894600  1
  H  H20  1  0.96004600  0.38344000  0.92911100  1
  H  H21  1  0.77143500  0.63154000  0.98461000  1
  H  H22  1  0.13638700  0.14564900  0.29705600  1
  H  H23  1  0.18803900  0.55756000  0.25000000  1
  H  H24  1  0.03995400  0.61656000  0.42911100  1
  H  H25  1  0.18803900  0.94244000  0.75000000  1
  H  H26  1  0.86361300  0.64564900  0.20294400  1
  H  H27  1  0.02752500  0.37132300  0.42105400  1
  H  H28  1  0.78678800  0.76142700  0.08020600  1
  H  H29  1  0.81196100  0.44244000  0.75000000  1
  H  H30  1  0.78678800  0.73857300  0.58020600  1
  H  H31  1  0.33297400  0.21697000  0.25000000  1
  H  H32  1  0.78360700  0.92943700  0.29683500  1
  H  H33  1  0.77365900  0.22495500  0.42070500  1
  H  H34  1  0.78360700  0.57056300  0.70316500  1
  H  H35  1  0.33297400  0.28303000  0.75000000  1
  H  H36  1  0.13638700  0.14564900  0.20294400  1
  H  H37  1  0.21321200  0.23857300  0.91979400  1
  H  H38  1  0.21639300  0.07056300  0.70316500  1
  H  H39  1  0.66702600  0.78303000  0.75000000  1
  H  H40  1  0.21321200  0.26142700  0.41979400  1
  H  H41  1  0.03995400  0.88344000  0.92911100  1
  H  H42  1  0.13638700  0.35435100  0.70294400  1
  H  H43  1  0.86361300  0.85435100  0.79705600  1
  H  H44  1  0.97247500  0.87132300  0.07894600  1
  H  H45  1  0.22634100  0.77504500  0.57929500  1
  H  H46  1  0.22856500  0.13154000  0.51539000  1
  H  H47  1  0.22856500  0.13154000  0.98461000  1
  H  H48  1  0.22634100  0.77504500  0.92070500  1
  H  H49  1  0.86361300  0.85435100  0.70294400  1
  H  H50  1  0.13638700  0.35435100  0.79705600  1
  H  H51  1  0.03995400  0.88344000  0.57088900  1
  H  H52  1  0.75973600  0.37113900  0.50778400  1
  H  H53  1  0.21639300  0.42943700  0.20316500  1
  H  H54  1  0.21639300  0.42943700  0.29683500  1
  H  H55  1  0.22634100  0.72495500  0.42070500  1
  H  H56  1  0.81196100  0.05756000  0.25000000  1
  H  H57  1  0.22856500  0.36846000  0.48461000  1
  H  H58  1  0.21639300  0.07056300  0.79683500  1
  H  H59  1  0.21321200  0.23857300  0.58020600  1
  H  H60  1  0.78678800  0.76142700  0.41979400  1
  H  H61  1  0.02752500  0.12867700  0.92105400  1
  H  H62  1  0.96004600  0.11656000  0.07088900  1
  H  H63  1  0.78360700  0.57056300  0.79683500  1
  H  H64  1  0.77143500  0.86846000  0.48461000  1
  H  H65  1  0.24026400  0.62886100  0.00778400  1
  H  H66  1  0.22856500  0.36846000  0.01539000  1
  H  H67  1  0.24026400  0.62886100  0.49221600  1
  H  H68  1  0.77143500  0.86846000  0.01539000  1
  H  H69  1  0.21321200  0.26142700  0.08020600  1
  H  H70  1  0.97247500  0.87132300  0.42105400  1
  H  H71  1  0.77365900  0.27504500  0.57929500  1
  C  C0  1  0.77080100  0.64577200  0.25000000  1
  C  C1  1  0.74106700  0.97527500  0.25000000  1
  C  C2  1  0.13855200  0.67441800  0.04271300  1
  C  C3  1  0.87425200  0.68186100  0.54723500  1
  C  C4  1  0.87425200  0.68186100  0.95276500  1
  C  C5  1  0.13855200  0.82558200  0.95728700  1
  C  C6  1  0.12574800  0.31813900  0.45276500  1
  C  C7  1  0.87425200  0.81813900  0.45276500  1
  C  C8  1  0.87425200  0.81813900  0.04723500  1
  C  C9  1  0.12574800  0.31813900  0.04723500  1
  C  C10  1  0.12574800  0.18186100  0.54723500  1
  C  C11  1  0.22919900  0.35422800  0.75000000  1
  C  C12  1  0.74106700  0.52472500  0.75000000  1
  C  C13  1  0.77080100  0.85422800  0.75000000  1
  C  C14  1  0.86144800  0.32558200  0.95728700  1
  C  C15  1  0.13855200  0.82558200  0.54271300  1
  C  C16  1  0.86144800  0.17441800  0.45728700  1
  C  C17  1  0.13855200  0.67441800  0.45728700  1
  C  C18  1  0.25893300  0.47527500  0.25000000  1
  C  C19  1  0.25893300  0.02472500  0.75000000  1
  C  C20  1  0.86144800  0.17441800  0.04271300  1
  C  C21  1  0.86144800  0.32558200  0.54271300  1
  C  C22  1  0.22919900  0.14577200  0.25000000  1
  C  C23  1  0.12574800  0.18186100  0.95276500  1
  Br  Br0  1  0.59245600  0.99652000  0.89509700  1
  Br  Br1  1  0.76280600  0.31181600  0.25000000  1
  Br  Br2  1  0.59245600  0.50348000  0.10490300  1
  Br  Br3  1  0.40754400  0.00348000  0.10490300  1
  Br  Br4  1  0.59245600  0.50348000  0.39509700  1
  Br  Br5  1  0.59245600  0.99652000  0.60490300  1
  Br  Br6  1  0.76280600  0.18818400  0.75000000  1
  Br  Br7  1  0.40754400  0.00348000  0.39509700  1
  Br  Br8  1  0.40754400  0.49652000  0.60490300  1
  Br  Br9  1  0.23719400  0.68818400  0.75000000  1
  Br  Br10  1  0.40754400  0.49652000  0.89509700  1
  Br  Br11  1  0.23719400  0.81181600  0.25000000  1
  N  N0  1  0.99353300  0.25000000  0.00000000  1
  N  N1  1  0.00646700  0.75000000  0.50000000  1
  N  N2  1  0.00646700  0.75000000  0.00000000  1
  N  N3  1  0.99353300  0.25000000  0.50000000  1
loop_
_geom_bond_atom_site_label_1
_geom_bond_atom_site_label_2
_geom_bond_distance
_geom_bond_site_symmetry_2
C0 H26 1.092893 1_555
C0 H11 1.092893 1_555
C0 H0 1.097074 1_555
C0 Sn2 2.149672 1_555
C1 H4 1.093619 1_555
C1 H32 1.093619 1_555
C1 H56 1.095893 1_565
C1 Sn3 2.147585 1_565
C2 H18 1.095980 1_555
C2 H13 1.096472 1_555
C2 H65 1.096622 1_555
C2 N2 1.504264 1_555
C3 H30 1.096259 1_555
C3 H19 1.096419 1_555
C3 H8 1.096545 1_555
C3 N1 1.503235 1_655
C4 H1 1.096259 1_555
C4 H10 1.096419 1_555
C4 H21 1.096545 1_555
C4 N2 1.503235 1_656
C5 H48 1.095980 1_555
C5 H41 1.096472 1_555
C5 H14 1.096622 1_555
C5 N2 1.504264 1_556
C6 H40 1.096259 1_555
C6 H27 1.096419 1_555
C6 H57 1.096545 1_555
C6 N3 1.503235 1_455
C7 H60 1.096259 1_555
C7 H70 1.096419 1_555
C7 H64 1.096545 1_555
C7 N1 1.503235 1_655
C8 H28 1.096259 1_555
C8 H44 1.096419 1_555
C8 H68 1.096545 1_555
C8 N2 1.503235 1_655
C9 H69 1.096259 1_555
C9 H6 1.096419 1_555
C9 H66 1.096545 1_555
C9 N0 1.503235 1_455
C10 H59 1.096259 1_555
C10 H5 1.096419 1_555
C10 H46 1.096545 1_555
C10 N3 1.503235 1_455
C11 H42 1.092893 1_555
C11 H50 1.092893 1_555
C11 H35 1.097074 1_555
C11 Sn1 2.149672 1_555
C12 H63 1.093619 1_555
C12 H34 1.093619 1_555
C12 H29 1.095893 1_555
C12 Sn1 2.147585 1_555
C13 H49 1.092893 1_555
C13 H43 1.092893 1_555
C13 H39 1.097074 1_555
C13 Sn0 2.149672 1_555
C14 H2 1.095980 1_555
C14 H20 1.096472 1_555
C14 H7 1.096622 1_555
C14 N0 1.504264 1_556
C15 H45 1.095980 1_555
C15 H51 1.096472 1_555
C15 H15 1.096622 1_555
C15 N1 1.504264 1_555
C16 H33 1.095980 1_555
C16 H3 1.096472 1_555
C16 H17 1.096622 1_555
C16 N3 1.504264 1_555
C17 H55 1.095980 1_555
C17 H24 1.096472 1_555
C17 H67 1.096622 1_555
C17 N1 1.504264 1_555
C18 H53 1.093619 1_555
C18 H54 1.093619 1_555
C18 H23 1.095893 1_555
C18 Sn2 2.147585 1_555
C19 H58 1.093619 1_555
C19 H38 1.093619 1_555
C19 H25 1.095893 1_545
C19 Sn0 2.147585 1_545
C20 H16 1.095980 1_555
C20 H62 1.096472 1_555
C20 H12 1.096622 1_555
C20 N0 1.504264 1_555
C21 H71 1.095980 1_555
C21 H9 1.096472 1_555
C21 H52 1.096622 1_555
C21 N3 1.504264 1_555
C22 H22 1.092893 1_555
C22 H36 1.092893 1_555
C22 H31 1.097074 1_555
C22 Sn3 2.149672 1_555
C23 H37 1.096259 1_555
C23 H61 1.096419 1_555
C23 H47 1.096545 1_555
C23 N0 1.503235 1_456
Br0 Sn0 2.793631 1_555
Br1 Sn2 2.567947 1_555
Br2 Sn2 2.793631 1_555
Br3 Sn3 2.793631 1_555
Br4 Sn2 2.793631 1_555
Br5 Sn0 2.793631 1_555
Br6 Sn0 2.567947 1_545
Br7 Sn3 2.793631 1_555
Br8 Sn1 2.793631 1_555
Br9 Sn1 2.567947 1_555
Br10 Sn1 2.793631 1_555
Br11 Sn3 2.567947 1_565
