# generated using pymatgen
data_SbCl(OF3)2
_symmetry_space_group_name_H-M   'P 1'
_cell_length_a   5.84145800
_cell_length_b   7.21132800
_cell_length_c   7.65241300
_cell_angle_alpha   90.00000000
_cell_angle_beta   90.00000000
_cell_angle_gamma   90.00000000
_symmetry_Int_Tables_number   1
_chemical_formula_structural   SbCl(OF3)2
_chemical_formula_sum   'Sb2 Cl2 O4 F12'
_cell_volume   322.35536954
_cell_formula_units_Z   2
loop_
 _symmetry_equiv_pos_site_id
 _symmetry_equiv_pos_as_xyz
  1  'x, y, z'
loop_
 _atom_site_type_symbol
 _atom_site_label
 _atom_site_symmetry_multiplicity
 _atom_site_fract_x
 _atom_site_fract_y
 _atom_site_fract_z
 _atom_site_occupancy
  Sb  Sb0  1  0.97936100  0.00000000  0.50000000  1
  Sb  Sb1  1  0.02063900  0.50000000  0.00000000  1
  Cl  Cl0  1  0.62655600  0.00000000  0.00000000  1
  Cl  Cl1  1  0.37344400  0.50000000  0.50000000  1
  O  O0  1  0.49996100  0.50000000  0.65905600  1
  O  O1  1  0.50003900  0.00000000  0.15905600  1
  O  O2  1  0.50003900  0.00000000  0.84094400  1
  O  O3  1  0.49996100  0.50000000  0.34094400  1
  F  F0  1  0.75205800  0.18973800  0.50000000  1
  F  F1  1  0.22405600  0.18380300  0.50000000  1
  F  F2  1  0.01392600  0.50000000  0.75012900  1
  F  F3  1  0.75205800  0.81026200  0.50000000  1
  F  F4  1  0.98607400  0.00000000  0.25012900  1
  F  F5  1  0.77594400  0.31619700  0.00000000  1
  F  F6  1  0.98607400  0.00000000  0.74987100  1
  F  F7  1  0.22405600  0.81619700  0.50000000  1
  F  F8  1  0.01392600  0.50000000  0.24987100  1
  F  F9  1  0.77594400  0.68380300  0.00000000  1
  F  F10  1  0.24794200  0.31026200  0.00000000  1
  F  F11  1  0.24794200  0.68973800  0.00000000  1
loop_
_geom_bond_atom_site_label_1
_geom_bond_atom_site_label_2
_geom_bond_distance
_geom_bond_site_symmetry_2
Cl0 O1 1.423963 1_555
Cl0 O2 1.423963 1_554
Cl1 O0 1.423963 1_555
Cl1 O3 1.423963 1_555
F0 Sb0 1.906606 1_555
F1 Sb0 1.949351 1_455
F2 Sb1 1.912518 1_556
F3 Sb0 1.906606 1_565
F4 Sb0 1.912518 1_555
F5 Sb1 1.949351 1_655
F6 Sb0 1.912518 1_555
F7 Sb0 1.949351 1_465
F8 Sb1 1.912518 1_555
F9 Sb1 1.949351 1_655
F10 Sb1 1.906606 1_555
F11 Sb1 1.906606 1_555
