# generated using pymatgen
data_Nd2Si3Rh
_symmetry_space_group_name_H-M   'P 1'
_cell_length_a   8.27759787
_cell_length_b   8.27759787
_cell_length_c   8.33580000
_cell_angle_alpha   90.00000000
_cell_angle_beta   90.00000000
_cell_angle_gamma   119.99999896
_symmetry_Int_Tables_number   1
_chemical_formula_structural   Nd2Si3Rh
_chemical_formula_sum   'Nd8 Si12 Rh4'
_cell_volume   494.63696754
_cell_formula_units_Z   4
loop_
 _symmetry_equiv_pos_site_id
 _symmetry_equiv_pos_as_xyz
  1  'x, y, z'
loop_
 _atom_site_type_symbol
 _atom_site_label
 _atom_site_symmetry_multiplicity
 _atom_site_fract_x
 _atom_site_fract_y
 _atom_site_fract_z
 _atom_site_occupancy
  Nd  Nd0  1  0.00000000  0.00000000  0.25000000  1
  Nd  Nd1  1  0.00000000  0.00000000  0.75000000  1
  Nd  Nd2  1  0.50546900  0.49453100  0.25000000  1
  Nd  Nd3  1  0.50546900  0.01093800  0.25000000  1
  Nd  Nd4  1  0.98906200  0.49453100  0.25000000  1
  Nd  Nd5  1  0.49453100  0.50546900  0.75000000  1
  Nd  Nd6  1  0.49453100  0.98906200  0.75000000  1
  Nd  Nd7  1  0.01093800  0.50546900  0.75000000  1
  Si  Si0  1  0.16677200  0.83322800  0.50244900  1
  Si  Si1  1  0.16677200  0.33354400  0.50244900  1
  Si  Si2  1  0.66645600  0.83322800  0.50244900  1
  Si  Si3  1  0.83322800  0.16677200  0.49755100  1
  Si  Si4  1  0.83322800  0.66645600  0.49755100  1
  Si  Si5  1  0.33354400  0.16677200  0.49755100  1
  Si  Si6  1  0.83322800  0.16677200  0.00244900  1
  Si  Si7  1  0.83322800  0.66645600  0.00244900  1
  Si  Si8  1  0.33354400  0.16677200  0.00244900  1
  Si  Si9  1  0.16677200  0.83322800  0.99755100  1
  Si  Si10  1  0.16677200  0.33354400  0.99755100  1
  Si  Si11  1  0.66645600  0.83322800  0.99755100  1
  Rh  Rh0  1  0.33333300  0.66666700  0.47594400  1
  Rh  Rh1  1  0.66666700  0.33333300  0.52405600  1
  Rh  Rh2  1  0.66666700  0.33333300  0.97594400  1
  Rh  Rh3  1  0.33333300  0.66666700  0.02405600  1
loop_
_geom_bond_atom_site_label_1
_geom_bond_atom_site_label_2
_geom_bond_distance
_geom_bond_site_symmetry_2
Nd0 Si3 3.158367 1_455
Nd0 Si6 3.158367 1_455
Nd0 Si5 3.158367 1_555
Nd0 Si4 3.158367 1_445
Nd0 Si8 3.158367 1_555
Nd0 Si7 3.158367 1_445
Nd0 Si0 3.185193 1_545
Nd0 Si9 3.185193 1_544
Nd0 Si1 3.185193 1_555
Nd0 Si10 3.185193 1_554
Nd0 Si2 3.185193 1_445
Nd0 Si11 3.185193 1_444
Nd1 Si9 3.158367 1_545
Nd1 Si0 3.158367 1_545
Nd1 Si10 3.158367 1_555
Nd1 Si11 3.158367 1_445
Nd1 Si1 3.158367 1_555
Nd1 Si2 3.158367 1_445
Nd1 Si6 3.185193 1_456
Nd1 Si3 3.185193 1_455
Nd1 Si8 3.185193 1_556
Nd1 Si7 3.185193 1_446
Nd1 Si5 3.185193 1_555
Nd1 Si4 3.185193 1_445
Nd2 Rh0 3.104524 1_555
Nd2 Rh3 3.104524 1_555
Nd2 Si4 3.127799 1_555
Nd2 Si5 3.127799 1_555
Nd2 Si8 3.127799 1_555
Nd2 Si7 3.127799 1_555
Nd2 Si1 3.213761 1_555
Nd2 Si2 3.213761 1_555
Nd2 Si10 3.213761 1_554
Nd2 Si11 3.213761 1_554
Nd2 Rh1 3.249640 1_555
Nd2 Rh2 3.249640 1_554
Nd3 Rh0 3.104519 1_545
Nd3 Rh3 3.104519 1_545
Nd3 Si5 3.127799 1_555
Nd3 Si8 3.127799 1_555
Nd3 Si3 3.127799 1_555
Nd3 Si6 3.127799 1_555
Nd3 Si2 3.213761 1_545
Nd3 Si11 3.213761 1_544
Nd3 Si0 3.213761 1_545
Nd3 Si9 3.213761 1_544
Nd3 Rh1 3.249635 1_555
Nd3 Rh2 3.249635 1_554
Nd4 Rh0 3.104519 1_655
Nd4 Rh3 3.104519 1_655
Nd4 Si4 3.127799 1_555
Nd4 Si7 3.127799 1_555
Nd4 Si3 3.127799 1_555
Nd4 Si6 3.127799 1_555
Nd4 Si1 3.213761 1_655
Nd4 Si10 3.213761 1_654
Nd4 Si0 3.213761 1_655
Nd4 Si9 3.213761 1_654
Nd4 Rh1 3.249635 1_555
Nd4 Rh2 3.249635 1_554
Nd5 Rh2 3.104524 1_555
Nd5 Rh1 3.104524 1_555
Nd5 Si11 3.127799 1_555
Nd5 Si10 3.127799 1_555
Nd5 Si1 3.127799 1_555
Nd5 Si2 3.127799 1_555
Nd5 Si8 3.213761 1_556
Nd5 Si7 3.213761 1_556
Nd5 Si5 3.213761 1_555
Nd5 Si4 3.213761 1_555
Nd5 Rh3 3.249640 1_556
Nd5 Rh0 3.249640 1_555
Nd6 Rh2 3.104519 1_565
Nd6 Rh1 3.104519 1_565
Nd6 Si11 3.127799 1_555
Nd6 Si2 3.127799 1_555
Nd6 Si9 3.127799 1_555
Nd6 Si0 3.127799 1_555
Nd6 Si8 3.213761 1_566
Nd6 Si5 3.213761 1_565
Nd6 Si6 3.213761 1_566
Nd6 Si3 3.213761 1_565
Nd6 Rh3 3.249635 1_556
Nd6 Rh0 3.249635 1_555
Nd7 Rh2 3.104519 1_455
Nd7 Rh1 3.104519 1_455
Nd7 Si10 3.127799 1_555
Nd7 Si1 3.127799 1_555
Nd7 Si9 3.127799 1_555
Nd7 Si0 3.127799 1_555
Nd7 Si7 3.213761 1_456
Nd7 Si4 3.213761 1_455
Nd7 Si6 3.213761 1_456
Nd7 Si3 3.213761 1_455
Nd7 Rh3 3.249635 1_556
Nd7 Rh0 3.249635 1_555
Si0 Si5 2.391395 1_565
Si0 Si4 2.391395 1_455
Si1 Si5 2.391395 1_555
Si1 Si3 2.391395 1_455
Si2 Si4 2.391395 1_555
Si2 Si3 2.391395 1_565
Si7 Si9 2.391395 1_654
Si8 Si9 2.391395 1_544
Si10 Si8 2.391395 1_556
Si10 Si6 2.391395 1_456
Si11 Si7 2.391395 1_556
Si11 Si6 2.391395 1_566
Rh0 Si0 2.398221 1_555
Rh0 Si2 2.398228 1_555
Rh0 Si1 2.398228 1_555
Rh1 Si3 2.398221 1_555
Rh1 Si4 2.398228 1_555
Rh1 Si5 2.398228 1_555
Rh2 Si6 2.398221 1_556
Rh2 Si7 2.398228 1_556
Rh2 Si8 2.398228 1_556
Rh3 Si9 2.398221 1_554
Rh3 Si11 2.398228 1_554
Rh3 Si10 2.398228 1_554
