# generated using pymatgen
data_SrMn2(PO4)2
_symmetry_space_group_name_H-M   'P 1'
_cell_length_a   8.97917400
_cell_length_b   9.20950755
_cell_length_c   9.22195536
_cell_angle_alpha   69.06094072
_cell_angle_beta   89.35392387
_cell_angle_gamma   89.68009535
_symmetry_Int_Tables_number   1
_chemical_formula_structural   SrMn2(PO4)2
_chemical_formula_sum   'Sr4 Mn8 P8 O32'
_cell_volume   712.19081861
_cell_formula_units_Z   4
loop_
 _symmetry_equiv_pos_site_id
 _symmetry_equiv_pos_as_xyz
  1  'x, y, z'
loop_
 _atom_site_type_symbol
 _atom_site_label
 _atom_site_symmetry_multiplicity
 _atom_site_fract_x
 _atom_site_fract_y
 _atom_site_fract_z
 _atom_site_occupancy
  Sr  Sr0  1  0.25676300  0.79780800  0.19151100  1
  Sr  Sr1  1  0.74323700  0.20219200  0.80848900  1
  Sr  Sr2  1  0.24961800  0.38820800  0.60913400  1
  Sr  Sr3  1  0.75038200  0.61179200  0.39086600  1
  Mn  Mn0  1  0.07146300  0.99259100  0.75215500  1
  Mn  Mn1  1  0.92853700  0.00740900  0.24784500  1
  Mn  Mn2  1  0.23834400  0.62667100  0.87653800  1
  Mn  Mn3  1  0.76165600  0.37332900  0.12346200  1
  Mn  Mn4  1  0.61012000  0.74515900  0.98269200  1
  Mn  Mn5  1  0.38988000  0.25484100  0.01730800  1
  Mn  Mn6  1  0.71605700  0.89401700  0.61085500  1
  Mn  Mn7  1  0.28394300  0.10598300  0.38914500  1
  P  P0  1  0.07071800  0.78084900  0.53029400  1
  P  P1  1  0.92928200  0.21915100  0.46970600  1
  P  P2  1  0.06163700  0.25503700  0.94607200  1
  P  P3  1  0.93836300  0.74496300  0.05392800  1
  P  P4  1  0.42656300  0.46880600  0.22485600  1
  P  P5  1  0.57343700  0.53119400  0.77514400  1
  P  P6  1  0.41949000  0.04448800  0.76601400  1
  P  P7  1  0.58051000  0.95551200  0.23398600  1
  O  O0  1  0.10851900  0.62395600  0.52112100  1
  O  O1  1  0.89148100  0.37604400  0.47887900  1
  O  O2  1  0.90119800  0.82040300  0.49652700  1
  O  O3  1  0.09880200  0.17959700  0.50347300  1
  O  O4  1  0.11220400  0.79189500  0.68954000  1
  O  O5  1  0.88779600  0.20810500  0.31046000  1
  O  O6  1  0.84443900  0.08855100  0.60422400  1
  O  O7  1  0.15556100  0.91144900  0.39577600  1
  O  O8  1  0.09204800  0.67989000  0.03232100  1
  O  O9  1  0.90795200  0.32011000  0.96767900  1
  O  O10  1  0.10982600  0.11524900  0.09063100  1
  O  O11  1  0.89017400  0.88475100  0.90936900  1
  O  O12  1  0.04885200  0.20410100  0.80235100  1
  O  O13  1  0.95114800  0.79589900  0.19764900  1
  O  O14  1  0.18673800  0.38123600  0.90771600  1
  O  O15  1  0.81326200  0.61876400  0.09228400  1
  O  O16  1  0.35289900  0.52469700  0.34687000  1
  O  O17  1  0.64710100  0.47530300  0.65313000  1
  O  O18  1  0.40641900  0.56660800  0.74014100  1
  O  O19  1  0.59358100  0.43339200  0.25985900  1
  O  O20  1  0.65495900  0.67687200  0.78432500  1
  O  O21  1  0.34504100  0.32312800  0.21567500  1
  O  O22  1  0.40942600  0.60462000  0.06108800  1
  O  O23  1  0.59057400  0.39538000  0.93891200  1
  O  O24  1  0.38799700  0.10951600  0.59048700  1
  O  O25  1  0.61200300  0.89048400  0.40951300  1
  O  O26  1  0.57637900  0.96359900  0.79414100  1
  O  O27  1  0.42362100  0.03640100  0.20585900  1
  O  O28  1  0.29680800  0.93059200  0.86078100  1
  O  O29  1  0.70319200  0.06940800  0.13921900  1
  O  O30  1  0.56873200  0.81348800  0.17963200  1
  O  O31  1  0.43126800  0.18651200  0.82036800  1
loop_
_geom_bond_atom_site_label_1
_geom_bond_atom_site_label_2
_geom_bond_distance
_geom_bond_site_symmetry_2
Mn0 O4 2.152679 1_555
Mn0 O11 2.161901 1_455
Mn0 O12 2.165128 1_565
Mn0 O28 2.246708 1_555
Mn0 O3 2.335539 1_565
Mn0 O6 2.445077 1_465
Mn1 O5 2.152679 1_555
Mn1 O10 2.161901 1_655
Mn1 O13 2.165128 1_545
Mn1 O29 2.246708 1_555
Mn1 O2 2.335539 1_545
Mn1 O7 2.445077 1_645
Mn2 O8 2.117361 1_556
Mn2 O18 2.147310 1_555
Mn2 O4 2.172867 1_555
Mn2 O14 2.225013 1_555
Mn2 O22 2.259651 1_556
Mn3 O9 2.117361 1_554
Mn3 O19 2.147310 1_555
Mn3 O5 2.172867 1_555
Mn3 O15 2.225013 1_555
Mn3 O23 2.259651 1_554
Mn4 O30 2.152119 1_556
Mn4 O26 2.160361 1_555
Mn4 O20 2.169539 1_555
Mn4 O22 2.184759 1_556
Mn4 O15 2.209198 1_556
Mn5 O31 2.152119 1_554
Mn5 O27 2.160361 1_555
Mn5 O21 2.169539 1_555
Mn5 O23 2.184759 1_554
Mn5 O14 2.209198 1_554
Mn6 O25 2.098628 1_555
Mn6 O6 2.117892 1_565
Mn6 O20 2.136629 1_555
Mn6 O2 2.189433 1_555
Mn6 O26 2.357541 1_555
Mn7 O24 2.098628 1_555
Mn7 O7 2.117892 1_545
Mn7 O21 2.136629 1_555
Mn7 O3 2.189433 1_555
Mn7 O27 2.357541 1_555
O0 P0 1.513724 1_555
O0 Sr2 2.389700 1_555
O0 Sr0 3.166836 1_555
O1 P1 1.513724 1_555
O1 Sr3 2.389700 1_555
O1 Sr1 3.166836 1_555
O2 P0 1.571631 1_655
O2 Sr3 2.805564 1_555
O3 P1 1.571631 1_455
O3 Sr2 2.805564 1_555
O4 P0 1.557344 1_555
O5 P1 1.557344 1_555
O6 P1 1.577457 1_555
O6 Sr1 2.613306 1_555
O7 P0 1.577457 1_555
O7 Sr0 2.613306 1_555
O8 P3 1.540477 1_455
O8 Sr0 2.593900 1_555
O9 P2 1.540477 1_655
O9 Sr1 2.593900 1_555
O10 P2 1.549802 1_554
O10 Sr0 3.032096 1_545
O11 P3 1.549802 1_556
O11 Sr1 3.032096 1_565
O12 P2 1.561506 1_555
O12 Sr2 2.664934 1_555
O12 Sr1 2.744141 1_455
O13 P3 1.561506 1_555
O13 Sr3 2.664934 1_555
O13 Sr0 2.744141 1_655
O14 P2 1.565085 1_555
O14 Sr2 2.782751 1_555
O15 P3 1.565085 1_555
O15 Sr3 2.782751 1_555
O16 P4 1.536855 1_555
O16 Sr2 2.465587 1_555
O16 Sr0 2.559712 1_555
O17 P5 1.536855 1_555
O17 Sr3 2.465587 1_555
O17 Sr1 2.559712 1_555
O18 P5 1.545907 1_555
O18 Sr2 2.761197 1_555
O19 P4 1.545907 1_555
O19 Sr3 2.761197 1_555
O20 P5 1.560928 1_555
O21 P4 1.560928 1_555
O22 P4 1.588063 1_555
O22 Sr0 2.820672 1_555
O23 P5 1.588063 1_555
O23 Sr1 2.820672 1_555
O24 P6 1.540898 1_555
O24 Sr2 2.904479 1_555
O25 P7 1.540898 1_555
O25 Sr3 2.904479 1_555
O26 P6 1.570086 1_565
O26 Sr1 2.709156 1_565
O27 P7 1.570086 1_545
O27 Sr0 2.709156 1_545
O28 P6 1.553538 1_565
O28 Sr0 2.870788 1_556
O29 P7 1.553538 1_545
O29 Sr1 2.870788 1_554
O30 P7 1.563512 1_555
O30 Sr3 2.712375 1_555
O30 Sr0 2.804639 1_555
O31 P6 1.563512 1_555
O31 Sr2 2.712375 1_555
O31 Sr1 2.804639 1_555
