# generated using pymatgen
data_K2LiAlF6
_symmetry_space_group_name_H-M   'P 1'
_cell_length_a   5.53334071
_cell_length_b   5.53334045
_cell_length_c   13.54714527
_cell_angle_alpha   90.00000000
_cell_angle_beta   90.00000000
_cell_angle_gamma   119.99999596
_symmetry_Int_Tables_number   1
_chemical_formula_structural   K2LiAlF6
_chemical_formula_sum   'K6 Li3 Al3 F18'
_cell_volume   359.21398938
_cell_formula_units_Z   3
loop_
 _symmetry_equiv_pos_site_id
 _symmetry_equiv_pos_as_xyz
  1  'x, y, z'
loop_
 _atom_site_type_symbol
 _atom_site_label
 _atom_site_symmetry_multiplicity
 _atom_site_fract_x
 _atom_site_fract_y
 _atom_site_fract_z
 _atom_site_occupancy
  K  K0  1  -0.00000000  -0.00000000  0.74494422  1
  K  K1  1  0.33333300  0.66666700  0.08125126  1
  K  K2  1  -0.00000000  -0.00000000  0.43853117  1
  K  K3  1  0.33333300  0.66666700  0.58548001  1
  K  K4  1  0.66666700  0.33333300  0.92169055  1
  K  K5  1  0.66666700  0.33333300  0.22815239  1
  Li  Li0  1  -0.00000000  -0.00000000  0.19107305  1
  Li  Li1  1  0.66666700  0.33333300  0.47559689  1
  Li  Li2  1  0.33333300  0.66666700  0.83326005  1
  Al  Al0  1  0.66666700  0.33333300  0.67202590  1
  Al  Al1  1  -0.00000000  -0.00000000  0.99464806  1
  Al  Al2  1  0.33333300  0.66666700  0.33332762  1
  F  F0  1  0.64347900  0.82174100  0.25684723  1
  F  F1  1  0.81634872  0.18365128  0.59030707  1
  F  F2  1  0.85030640  0.14969360  0.07635839  1
  F  F3  1  0.02317400  0.51158750  0.40981349  1
  F  F4  1  0.51112665  0.02225431  0.74719016  1
  F  F5  1  0.48841250  0.97682600  0.40981349  1
  F  F6  1  0.15555935  0.84444065  0.91949228  1
  F  F7  1  0.51112665  0.48887335  0.74719016  1
  F  F8  1  0.17825900  0.35652100  0.25684723  1
  F  F9  1  0.81634872  0.63269745  0.59030707  1
  F  F10  1  0.85030640  0.70061381  0.07635839  1
  F  F11  1  0.36730255  0.18365128  0.59030707  1
  F  F12  1  0.29938619  0.14969360  0.07635839  1
  F  F13  1  0.17825900  0.82174100  0.25684723  1
  F  F14  1  0.68888231  0.84444065  0.91949228  1
  F  F15  1  0.97774569  0.48887335  0.74719016  1
  F  F16  1  0.15555935  0.31111769  0.91949228  1
  F  F17  1  0.48841250  0.51158750  0.40981349  1
loop_
_geom_bond_atom_site_label_1
_geom_bond_atom_site_label_2
_geom_bond_distance
_geom_bond_site_symmetry_2
Al0 F4 1.805276 1_555
Al0 F15 1.805276 1_555
Al0 F7 1.805284 1_555
Al0 F1 1.812048 1_555
Al0 F9 1.812052 1_555
Al0 F11 1.812052 1_555
Al1 F16 1.805366 1_555
Al1 F14 1.805366 1_445
Al1 F6 1.805370 1_545
Al1 F10 1.812064 1_446
Al1 F12 1.812064 1_556
Al1 F2 1.812068 1_456
Al2 F8 1.811725 1_555
Al2 F0 1.811725 1_555
Al2 F13 1.811732 1_555
Al2 F17 1.811818 1_555
Al2 F5 1.811818 1_555
Al2 F3 1.811818 1_555
F0 Li0 1.926860 1_665
F0 K5 2.796044 1_565
F0 K5 2.796066 1_555
F0 K1 2.804936 1_555
F0 K2 2.996132 1_665
F1 Li1 2.114910 1_555
F1 K2 2.706601 1_655
F1 K0 2.736163 1_655
F1 K3 2.772226 1_545
F1 K3 2.772226 1_655
F2 Li0 2.115032 1_655
F2 K5 2.706713 1_555
F2 K4 2.736409 1_554
F2 K1 2.772241 1_655
F2 K1 2.772241 1_545
F3 Li1 1.926858 1_455
F3 K2 2.796093 1_565
F3 K2 2.796098 1_555
F3 K3 2.805780 1_555
F3 K5 2.995839 1_455
F4 Li2 2.064729 1_545
F4 K0 2.768889 1_555
F4 K0 2.768895 1_655
F4 K3 2.775385 1_545
F4 K4 2.794741 1_555
F5 Li1 1.926858 1_565
F5 K2 2.796093 1_565
F5 K2 2.796098 1_665
F5 K3 2.805780 1_555
F5 K5 2.995839 1_565
F6 Li2 2.065813 1_555
F6 K4 2.768878 1_455
F6 K4 2.768878 1_565
F6 K1 2.775789 1_556
F6 K0 2.795390 1_565
F7 Li2 2.064729 1_555
F7 K0 2.768892 1_665
F7 K0 2.768892 1_555
F7 K3 2.775384 1_555
F7 K4 2.794746 1_555
F8 Li0 1.926860 1_555
F8 K5 2.796044 1_455
F8 K5 2.796066 1_555
F8 K1 2.804936 1_555
F8 K2 2.996132 1_555
F9 Li1 2.114914 1_555
F9 K2 2.706601 1_665
F9 K0 2.736163 1_665
F9 K3 2.772224 1_655
F9 K3 2.772229 1_555
F10 Li0 2.115029 1_665
F10 K5 2.706720 1_555
F10 K4 2.736415 1_554
F10 K1 2.772241 1_555
F10 K1 2.772241 1_655
F11 Li1 2.114914 1_555
F11 K2 2.706601 1_555
F11 K0 2.736164 1_555
F11 K3 2.772224 1_545
F11 K3 2.772229 1_555
F12 Li0 2.115029 1_555
F12 K5 2.706720 1_555
F12 K4 2.736415 1_554
F12 K1 2.772241 1_555
F12 K1 2.772241 1_545
F13 Li0 1.926847 1_565
F13 K5 2.796055 1_565
F13 K5 2.796055 1_455
F13 K1 2.804941 1_555
F13 K2 2.996123 1_565
F14 Li2 2.065821 1_555
F14 K4 2.768878 1_555
F14 K4 2.768878 1_565
F14 K1 2.775795 1_556
F14 K0 2.795387 1_665
F15 Li2 2.064729 1_655
F15 K0 2.768889 1_665
F15 K0 2.768895 1_655
F15 K3 2.775385 1_655
F15 K4 2.794741 1_555
F16 Li2 2.065821 1_555
F16 K4 2.768878 1_555
F16 K4 2.768878 1_455
F16 K1 2.775795 1_556
F16 K0 2.795387 1_555
F17 Li1 1.926866 1_555
F17 K2 2.796096 1_555
F17 K2 2.796096 1_665
F17 K3 2.805779 1_555
F17 K5 2.995845 1_555
