# generated using pymatgen
data_CdI2
_symmetry_space_group_name_H-M   'P 1'
_cell_length_a   4.28711381
_cell_length_b   4.28711408
_cell_length_c   85.70391145
_cell_angle_alpha   90.00000000
_cell_angle_beta   90.00000000
_cell_angle_gamma   119.99999798
_symmetry_Int_Tables_number   1
_chemical_formula_structural   CdI2
_chemical_formula_sum   'Cd12 I24'
_cell_volume   1364.14751774
_cell_formula_units_Z   12
loop_
 _symmetry_equiv_pos_site_id
 _symmetry_equiv_pos_as_xyz
  1  'x, y, z'
loop_
 _atom_site_type_symbol
 _atom_site_label
 _atom_site_symmetry_multiplicity
 _atom_site_fract_x
 _atom_site_fract_y
 _atom_site_fract_z
 _atom_site_occupancy
  Cd  Cd0  1  0.00000000  0.00000000  0.27076494  1
  Cd  Cd1  1  0.66666700  0.33333300  0.02048054  1
  Cd  Cd2  1  0.66666700  0.33333300  0.18757474  1
  Cd  Cd3  1  0.00000000  0.00000000  0.85416212  1
  Cd  Cd4  1  0.00000000  0.00000000  0.10407322  1
  Cd  Cd5  1  0.66666700  0.33333300  0.35416126  1
  Cd  Cd6  1  0.00000000  0.00000000  0.52083742  1
  Cd  Cd7  1  0.00000000  0.00000000  0.77102146  1
  Cd  Cd8  1  0.66666700  0.33333300  0.93731747  1
  Cd  Cd9  1  0.66666700  0.33333300  0.68794310  1
  Cd  Cd10  1  0.00000000  0.00000000  0.43741623  1
  Cd  Cd11  1  0.66666700  0.33333300  0.60417217  1
  I  I0  1  0.00000000  0.00000000  0.16750924  1
  I  I1  1  0.66666700  0.33333300  0.83417860  1
  I  I2  1  0.33333300  0.66666700  0.79112654  1
  I  I3  1  0.66666700  0.33333300  0.08398558  1
  I  I4  1  0.33333300  0.66666700  0.45751226  1
  I  I5  1  0.33333300  0.66666700  0.20761341  1
  I  I6  1  0.33333300  0.66666700  0.95739142  1
  I  I7  1  0.00000000  0.00000000  0.66781112  1
  I  I8  1  0.66666700  0.33333300  0.50080508  1
  I  I9  1  0.66666700  0.33333300  0.75098263  1
  I  I10  1  0.00000000  0.00000000  0.91725133  1
  I  I11  1  0.00000000  0.00000000  0.58417510  1
  I  I12  1  0.33333300  0.66666700  0.54084303  1
  I  I13  1  0.33333300  0.66666700  0.12418479  1
  I  I14  1  0.33333300  0.66666700  0.04051045  1
  I  I15  1  0.00000000  0.00000000  0.00047997  1
  I  I16  1  0.33333300  0.66666700  0.29086327  1
  I  I17  1  0.33333300  0.66666700  0.37417829  1
  I  I18  1  0.00000000  -0.00000000  0.33413526  1
  I  I19  1  0.33333300  0.66666700  0.62420703  1
  I  I20  1  0.66666700  0.33333300  0.41738815  1
  I  I21  1  0.33333300  0.66666700  0.70801862  1
  I  I22  1  0.66666700  0.33333300  0.25075238  1
  I  I23  1  0.33333300  0.66666700  0.87417178  1
loop_
_geom_bond_atom_site_label_1
_geom_bond_atom_site_label_2
_geom_bond_distance
_geom_bond_site_symmetry_2
Cd0 I22 3.011344 1_455
Cd0 I22 3.011347 1_555
Cd0 I22 3.011347 1_445
Cd0 I16 3.015537 1_545
Cd0 I16 3.015540 1_445
Cd0 I16 3.015540 1_555
Cd1 I15 3.010759 1_655
Cd1 I15 3.010762 1_555
Cd1 I15 3.010762 1_665
Cd1 I14 3.012191 1_655
Cd1 I14 3.012191 1_545
Cd1 I14 3.012197 1_555
Cd2 I5 3.012619 1_655
Cd2 I5 3.012619 1_545
Cd2 I5 3.012625 1_555
Cd2 I0 3.013930 1_655
Cd2 I0 3.013933 1_555
Cd2 I0 3.013934 1_665
Cd3 I1 3.009927 1_455
Cd3 I1 3.009930 1_555
Cd3 I1 3.009930 1_445
Cd3 I23 3.011202 1_545
Cd3 I23 3.011205 1_445
Cd3 I23 3.011205 1_555
Cd4 I3 3.015013 1_455
Cd4 I3 3.015016 1_555
Cd4 I3 3.015017 1_445
Cd4 I13 3.016185 1_545
Cd4 I13 3.016188 1_445
Cd4 I13 3.016188 1_555
Cd5 I17 3.011562 1_655
Cd5 I17 3.011562 1_545
Cd5 I17 3.011568 1_555
Cd5 I18 3.012000 1_655
Cd5 I18 3.012003 1_555
Cd5 I18 3.012003 1_665
Cd6 I12 3.011005 1_545
Cd6 I12 3.011008 1_445
Cd6 I12 3.011008 1_555
Cd6 I8 3.012310 1_455
Cd6 I8 3.012313 1_555
Cd6 I8 3.012313 1_445
Cd7 I9 3.012627 1_455
Cd7 I9 3.012630 1_555
Cd7 I9 3.012630 1_445
Cd7 I2 3.015867 1_545
Cd7 I2 3.015870 1_445
Cd7 I2 3.015870 1_555
Cd8 I10 3.013962 1_655
Cd8 I10 3.013965 1_555
Cd8 I10 3.013965 1_665
Cd8 I6 3.014344 1_655
Cd8 I6 3.014344 1_545
Cd8 I6 3.014350 1_555
Cd9 I21 3.014420 1_655
Cd9 I21 3.014421 1_545
Cd9 I21 3.014427 1_555
Cd9 I7 3.017185 1_655
Cd9 I7 3.017188 1_555
Cd9 I7 3.017188 1_665
Cd10 I20 3.012102 1_455
Cd10 I20 3.012105 1_555
Cd10 I20 3.012105 1_445
Cd10 I4 3.015424 1_545
Cd10 I4 3.015427 1_445
Cd10 I4 3.015427 1_555
Cd11 I11 3.010588 1_655
Cd11 I11 3.010591 1_555
Cd11 I11 3.010591 1_665
Cd11 I19 3.012433 1_655
Cd11 I19 3.012433 1_545
Cd11 I19 3.012439 1_555
