# generated using pymatgen
data_Rb2Bi4O7
_symmetry_space_group_name_H-M   'P 1'
_cell_length_a   12.49483149
_cell_length_b   12.49483149
_cell_length_c   15.81216868
_cell_angle_alpha   86.32520062
_cell_angle_beta   86.32520062
_cell_angle_gamma   63.06514496
_symmetry_Int_Tables_number   1
_chemical_formula_structural   Rb2Bi4O7
_chemical_formula_sum   'Rb16 Bi32 O56'
_cell_volume   2194.58810657
_cell_formula_units_Z   8
loop_
 _symmetry_equiv_pos_site_id
 _symmetry_equiv_pos_as_xyz
  1  'x, y, z'
loop_
 _atom_site_type_symbol
 _atom_site_label
 _atom_site_symmetry_multiplicity
 _atom_site_fract_x
 _atom_site_fract_y
 _atom_site_fract_z
 _atom_site_occupancy
  Rb  Rb0  1  0.53934700  0.62842200  0.28909300  1
  Rb  Rb1  1  0.62858200  0.02172900  0.79180900  1
  Rb  Rb2  1  0.37157800  0.46065300  0.21090700  1
  Rb  Rb3  1  0.12673000  0.54633900  0.79022200  1
  Rb  Rb4  1  0.62842200  0.53934700  0.78909300  1
  Rb  Rb5  1  0.37141800  0.97827100  0.20819100  1
  Rb  Rb6  1  0.54633900  0.12673000  0.29022200  1
  Rb  Rb7  1  0.96785500  0.87238900  0.70930900  1
  Rb  Rb8  1  0.46065300  0.37157800  0.71090700  1
  Rb  Rb9  1  0.97827100  0.37141800  0.70819100  1
  Rb  Rb10  1  0.12761100  0.03214500  0.79069100  1
  Rb  Rb11  1  0.87327000  0.45366100  0.20977800  1
  Rb  Rb12  1  0.87238900  0.96785500  0.20930900  1
  Rb  Rb13  1  0.03214500  0.12761100  0.29069100  1
  Rb  Rb14  1  0.02172900  0.62858200  0.29180900  1
  Rb  Rb15  1  0.45366100  0.87327000  0.70977800  1
  Bi  Bi0  1  0.29865800  0.21414300  0.61432700  1
  Bi  Bi1  1  0.95691200  0.39811800  0.96118700  1
  Bi  Bi2  1  0.21681600  0.26403700  0.37309600  1
  Bi  Bi3  1  0.73596300  0.78318400  0.12690400  1
  Bi  Bi4  1  0.39510900  0.91014700  0.95792700  1
  Bi  Bi5  1  0.89056700  0.90899300  0.95693500  1
  Bi  Bi6  1  0.70134200  0.78585700  0.38567300  1
  Bi  Bi7  1  0.78456900  0.24313000  0.62105600  1
  Bi  Bi8  1  0.70997200  0.29683800  0.11875400  1
  Bi  Bi9  1  0.21543100  0.75687000  0.37894400  1
  Bi  Bi10  1  0.10943300  0.09100700  0.04306500  1
  Bi  Bi11  1  0.29683800  0.70997200  0.61875400  1
  Bi  Bi12  1  0.39811800  0.95691200  0.46118700  1
  Bi  Bi13  1  0.75687000  0.21543100  0.87894400  1
  Bi  Bi14  1  0.45246400  0.39986600  0.96524200  1
  Bi  Bi15  1  0.91014700  0.39510900  0.45792700  1
  Bi  Bi16  1  0.21414300  0.29865800  0.11432700  1
  Bi  Bi17  1  0.24313000  0.78456900  0.12105600  1
  Bi  Bi18  1  0.70316200  0.29002800  0.38124600  1
  Bi  Bi19  1  0.29002800  0.70316200  0.88124600  1
  Bi  Bi20  1  0.54753600  0.60013400  0.03475800  1
  Bi  Bi21  1  0.39986600  0.45246400  0.46524200  1
  Bi  Bi22  1  0.26403700  0.21681600  0.87309600  1
  Bi  Bi23  1  0.60013400  0.54753600  0.53475800  1
  Bi  Bi24  1  0.60489100  0.08985300  0.04207300  1
  Bi  Bi25  1  0.60188200  0.04308800  0.53881300  1
  Bi  Bi26  1  0.78585700  0.70134200  0.88567300  1
  Bi  Bi27  1  0.09100700  0.10943300  0.54306500  1
  Bi  Bi28  1  0.78318400  0.73596300  0.62690400  1
  Bi  Bi29  1  0.04308800  0.60188200  0.03881300  1
  Bi  Bi30  1  0.08985300  0.60489100  0.54207300  1
  Bi  Bi31  1  0.90899300  0.89056700  0.45693500  1
  O  O0  1  0.28535000  0.71465000  0.25000000  1
  O  O1  1  0.97095200  0.64904200  0.65616400  1
  O  O2  1  0.35095800  0.02904800  0.84383600  1
  O  O3  1  0.28135000  0.08939000  0.02841500  1
  O  O4  1  0.28403800  0.23948800  0.24194100  1
  O  O5  1  0.41694700  0.61481900  0.46763000  1
  O  O6  1  0.76673300  0.91352200  0.61336800  1
  O  O7  1  0.10963300  0.48601700  0.14980300  1
  O  O8  1  0.11620800  0.41939500  0.96879000  1
  O  O9  1  0.51398300  0.89036700  0.35019700  1
  O  O10  1  0.08647800  0.23326700  0.88663200  1
  O  O11  1  0.41768000  0.77526500  0.10241600  1
  O  O12  1  0.58060500  0.88379200  0.53121000  1
  O  O13  1  0.25521600  0.06806100  0.62249600  1
  O  O14  1  0.74478400  0.93193900  0.37750400  1
  O  O15  1  0.71596200  0.76051200  0.75805900  1
  O  O16  1  0.08939000  0.28135000  0.52841500  1
  O  O17  1  0.77526500  0.41768000  0.60241600  1
  O  O18  1  0.61481900  0.41694700  0.96763000  1
  O  O19  1  0.58305300  0.38518100  0.53237000  1
  O  O20  1  0.56084800  0.25957600  0.11979500  1
  O  O21  1  0.22286500  0.91159300  0.97118400  1
  O  O22  1  0.71865000  0.91061000  0.97158500  1
  O  O23  1  0.23693600  0.76306400  0.75000000  1
  O  O24  1  0.58232000  0.22473500  0.89758400  1
  O  O25  1  0.64904200  0.97095200  0.15616400  1
  O  O26  1  0.48655400  0.61040000  0.64796900  1
  O  O27  1  0.43915200  0.74042400  0.88020500  1
  O  O28  1  0.22473500  0.58232000  0.39758400  1
  O  O29  1  0.91352200  0.76673300  0.11336800  1
  O  O30  1  0.23948800  0.28403800  0.74194100  1
  O  O31  1  0.48601700  0.10963300  0.64980300  1
  O  O32  1  0.25957600  0.56084800  0.61979500  1
  O  O33  1  0.51344600  0.38960000  0.35203100  1
  O  O34  1  0.93193900  0.74478400  0.87750400  1
  O  O35  1  0.23326700  0.08647800  0.38663200  1
  O  O36  1  0.74042400  0.43915200  0.38020500  1
  O  O37  1  0.15111900  0.97250200  0.15545100  1
  O  O38  1  0.77713500  0.08840700  0.02881600  1
  O  O39  1  0.38518100  0.58305300  0.03237000  1
  O  O40  1  0.91061000  0.71865000  0.47158500  1
  O  O41  1  0.71465000  0.28535000  0.75000000  1
  O  O42  1  0.88379200  0.58060500  0.03121000  1
  O  O43  1  0.02904800  0.35095800  0.34383600  1
  O  O44  1  0.76051200  0.71596200  0.25805900  1
  O  O45  1  0.41939500  0.11620800  0.46879000  1
  O  O46  1  0.61040000  0.48655400  0.14796900  1
  O  O47  1  0.89036700  0.51398300  0.85019700  1
  O  O48  1  0.84888100  0.02749800  0.84454900  1
  O  O49  1  0.76306400  0.23693600  0.25000000  1
  O  O50  1  0.91159300  0.22286500  0.47118400  1
  O  O51  1  0.06806100  0.25521600  0.12249600  1
  O  O52  1  0.08840700  0.77713500  0.52881600  1
  O  O53  1  0.02749800  0.84888100  0.34454900  1
  O  O54  1  0.97250200  0.15111900  0.65545100  1
  O  O55  1  0.38960000  0.51344600  0.85203100  1
loop_
_geom_bond_atom_site_label_1
_geom_bond_atom_site_label_2
_geom_bond_distance
_geom_bond_site_symmetry_2
Bi0 O13 2.121626 1_555
Bi0 O31 2.192075 1_555
Bi0 O30 2.197896 1_555
Bi0 O45 2.704172 1_555
Bi0 O16 2.776229 1_555
Bi1 O8 2.135622 1_655
Bi1 O47 2.153615 1_555
Bi1 O10 2.301945 1_655
Bi1 O42 2.359315 1_556
Bi2 O35 2.131136 1_555
Bi2 O43 2.159684 1_555
Bi2 O4 2.173764 1_555
Bi2 O16 2.805033 1_555
Bi2 O45 2.829362 1_555
Bi3 O29 2.131136 1_555
Bi3 O25 2.159684 1_555
Bi3 O44 2.173764 1_555
Bi3 O22 2.805033 1_554
Bi3 O42 2.829362 1_555
Bi4 O21 2.140908 1_555
Bi4 O2 2.192603 1_565
Bi4 O27 2.345312 1_555
Bi4 O3 2.347637 1_566
Bi4 O11 2.701494 1_556
Bi5 O22 2.136770 1_555
Bi5 O48 2.168958 1_565
Bi5 O34 2.310986 1_555
Bi5 O38 2.359602 1_566
Bi6 O14 2.121626 1_555
Bi6 O9 2.192075 1_555
Bi6 O44 2.197896 1_555
Bi6 O12 2.704172 1_555
Bi6 O40 2.776229 1_555
Bi7 O17 2.132914 1_555
Bi7 O41 2.165776 1_555
Bi7 O54 2.183879 1_555
Bi7 O50 2.725765 1_555
Bi7 O19 2.746171 1_555
Bi8 O20 2.114204 1_555
Bi8 O46 2.185239 1_555
Bi8 O49 2.198776 1_555
Bi8 O18 2.768386 1_554
Bi8 O38 2.801943 1_555
Bi9 O28 2.132914 1_555
Bi9 O0 2.165776 1_555
Bi9 O53 2.183879 1_555
Bi9 O52 2.725765 1_555
Bi9 O5 2.746171 1_555
Bi10 O3 2.136770 1_555
Bi10 O37 2.168958 1_545
Bi10 O51 2.310986 1_555
Bi10 O21 2.359602 1_544
Bi11 O32 2.114204 1_555
Bi11 O26 2.185239 1_555
Bi11 O23 2.198776 1_555
Bi11 O5 2.768386 1_555
Bi11 O52 2.801943 1_555
Bi12 O45 2.135622 1_565
Bi12 O9 2.153615 1_555
Bi12 O35 2.301945 1_565
Bi12 O12 2.359315 1_555
Bi13 O24 2.132914 1_555
Bi13 O41 2.165776 1_555
Bi13 O48 2.183879 1_555
Bi13 O38 2.725765 1_556
Bi13 O18 2.746171 1_555
Bi14 O18 2.136650 1_555
Bi14 O55 2.163377 1_555
Bi14 O24 2.329483 1_555
Bi14 O39 2.350787 1_556
Bi15 O50 2.140908 1_555
Bi15 O43 2.192603 1_655
Bi15 O36 2.345312 1_555
Bi15 O16 2.347637 1_655
Bi15 O17 2.701494 1_555
Bi16 O51 2.121626 1_555
Bi16 O7 2.192075 1_555
Bi16 O4 2.197896 1_555
Bi16 O8 2.704172 1_554
Bi16 O3 2.776229 1_555
Bi17 O11 2.132914 1_555
Bi17 O0 2.165776 1_555
Bi17 O37 2.183879 1_555
Bi17 O21 2.725765 1_554
Bi17 O39 2.746171 1_555
Bi18 O36 2.114204 1_555
Bi18 O33 2.185239 1_555
Bi18 O49 2.198776 1_555
Bi18 O19 2.768386 1_555
Bi18 O50 2.801943 1_555
Bi19 O27 2.114204 1_555
Bi19 O55 2.185239 1_555
Bi19 O23 2.198776 1_555
Bi19 O39 2.768386 1_556
Bi19 O21 2.801943 1_555
Bi20 O39 2.136650 1_555
Bi20 O46 2.163377 1_555
Bi20 O11 2.329483 1_555
Bi20 O18 2.350787 1_554
Bi21 O5 2.136650 1_555
Bi21 O33 2.163377 1_555
Bi21 O28 2.329483 1_555
Bi21 O19 2.350787 1_555
Bi22 O10 2.131136 1_555
Bi22 O2 2.159684 1_555
Bi22 O30 2.173764 1_555
Bi22 O3 2.805033 1_556
Bi22 O8 2.829362 1_555
Bi23 O19 2.136650 1_555
Bi23 O26 2.163377 1_555
Bi23 O17 2.329483 1_555
Bi23 O5 2.350787 1_555
Bi24 O38 2.140908 1_555
Bi24 O25 2.192603 1_545
Bi24 O20 2.345312 1_555
Bi24 O22 2.347637 1_544
Bi24 O24 2.701494 1_554
Bi25 O12 2.135622 1_545
Bi25 O31 2.153615 1_555
Bi25 O6 2.301945 1_545
Bi25 O45 2.359315 1_555
Bi26 O34 2.121626 1_555
Bi26 O47 2.192075 1_555
Bi26 O15 2.197896 1_555
Bi26 O42 2.704172 1_556
Bi26 O22 2.776229 1_555
Bi27 O16 2.136770 1_555
Bi27 O54 2.168958 1_455
Bi27 O13 2.310986 1_555
Bi27 O50 2.359602 1_455
Bi28 O6 2.131136 1_555
Bi28 O1 2.159684 1_555
Bi28 O15 2.173764 1_555
Bi28 O40 2.805033 1_555
Bi28 O12 2.829362 1_555
Bi29 O42 2.135622 1_455
Bi29 O7 2.153615 1_555
Bi29 O29 2.301945 1_455
Bi29 O8 2.359315 1_554
Bi30 O52 2.140908 1_555
Bi30 O1 2.192603 1_455
Bi30 O32 2.345312 1_555
Bi30 O40 2.347637 1_455
Bi30 O28 2.701494 1_555
Bi31 O40 2.136770 1_555
Bi31 O53 2.168958 1_655
Bi31 O14 2.310986 1_555
Bi31 O52 2.359602 1_655
O0 Rb2 2.946748 1_555
O0 Rb0 2.946748 1_555
O1 Rb3 2.801066 1_655
O1 Rb7 2.948591 1_555
O1 Rb9 3.474853 1_555
O2 Rb15 2.801066 1_545
O2 Rb10 2.948591 1_555
O2 Rb1 3.474853 1_555
O3 Rb5 3.124649 1_545
O4 Rb5 3.008297 1_545
O4 Rb6 3.051032 1_555
O4 Rb2 3.401383 1_555
O5 Rb0 3.155638 1_555
O6 Rb7 2.845926 1_555
O6 Rb1 3.243311 1_565
O7 Rb14 2.800979 1_555
O7 Rb11 3.233942 1_455
O7 Rb2 3.342546 1_555
O8 Rb3 3.173768 1_555
O9 Rb5 2.800979 1_555
O9 Rb6 3.233942 1_565
O9 Rb0 3.342546 1_555
O10 Rb10 2.845926 1_555
O10 Rb9 3.243311 1_455
O11 Rb5 2.942284 1_555
O11 Rb0 3.427014 1_555
O12 Rb15 3.173768 1_555
O13 Rb15 2.918448 1_545
O13 Rb10 3.125423 1_555
O14 Rb6 2.918448 1_565
O14 Rb12 3.125423 1_555
O15 Rb1 3.008297 1_565
O15 Rb15 3.051032 1_555
O15 Rb4 3.401383 1_555
O16 Rb9 3.124649 1_455
O17 Rb9 2.942284 1_555
O17 Rb4 3.427014 1_555
O18 Rb4 3.155638 1_555
O19 Rb8 3.155638 1_555
O20 Rb2 2.936830 1_555
O20 Rb6 3.112355 1_555
O21 Rb10 3.176610 1_565
O22 Rb1 3.124649 1_565
O23 Rb7 3.096400 1_455
O23 Rb10 3.096400 1_565
O24 Rb1 2.942284 1_555
O24 Rb8 3.427014 1_555
O25 Rb6 2.801066 1_565
O25 Rb12 2.948591 1_555
O25 Rb5 3.474853 1_555
O26 Rb4 2.781586 1_555
O26 Rb8 3.233044 1_555
O26 Rb15 3.324032 1_555
O27 Rb4 2.936830 1_555
O27 Rb15 3.112355 1_555
O28 Rb14 2.942284 1_555
O28 Rb2 3.427014 1_555
O29 Rb12 2.845926 1_555
O29 Rb14 3.243311 1_655
O30 Rb9 3.008297 1_455
O30 Rb3 3.051032 1_555
O30 Rb8 3.401383 1_555
O31 Rb1 2.800979 1_555
O31 Rb15 3.233942 1_545
O31 Rb8 3.342546 1_555
O32 Rb8 2.936830 1_555
O32 Rb3 3.112355 1_555
O33 Rb2 2.781586 1_555
O33 Rb0 3.233044 1_555
O33 Rb6 3.324032 1_555
O34 Rb3 2.918448 1_655
O34 Rb7 3.125423 1_555
O35 Rb13 2.845926 1_555
O35 Rb5 3.243311 1_545
O36 Rb0 2.936830 1_555
O36 Rb11 3.112355 1_555
O37 Rb13 2.837698 1_565
O37 Rb5 2.959587 1_555
O38 Rb12 3.176610 1_545
O39 Rb2 3.155638 1_555
O40 Rb14 3.124649 1_655
O41 Rb4 2.946748 1_555
O41 Rb8 2.946748 1_555
O42 Rb11 3.173768 1_555
O43 Rb11 2.801066 1_455
O43 Rb13 2.948591 1_555
O43 Rb14 3.474853 1_555
O44 Rb14 3.008297 1_655
O44 Rb11 3.051032 1_555
O44 Rb0 3.401383 1_555
O45 Rb6 3.173768 1_555
O46 Rb0 2.781586 1_555
O46 Rb2 3.233044 1_555
O46 Rb11 3.324032 1_555
O47 Rb9 2.800979 1_555
O47 Rb3 3.233942 1_655
O47 Rb4 3.342546 1_555
O48 Rb7 2.837698 1_545
O48 Rb1 2.959587 1_555
O49 Rb12 3.096400 1_545
O49 Rb13 3.096400 1_655
O50 Rb13 3.176610 1_655
O51 Rb11 2.918448 1_455
O51 Rb13 3.125423 1_555
O52 Rb7 3.176610 1_455
O53 Rb12 2.837698 1_455
O53 Rb14 2.959587 1_555
O54 Rb10 2.837698 1_655
O54 Rb9 2.959587 1_555
O55 Rb8 2.781586 1_555
O55 Rb4 3.233044 1_555
O55 Rb3 3.324032 1_555
