# generated using pymatgen
data_Nd6Fe13Si
_symmetry_space_group_name_H-M   'P 1'
_cell_length_a   12.82482080
_cell_length_b   12.82482080
_cell_length_c   12.82482080
_cell_angle_alpha   143.54669727
_cell_angle_beta   143.54669727
_cell_angle_gamma   52.50568027
_symmetry_Int_Tables_number   1
_chemical_formula_structural   Nd6Fe13Si
_chemical_formula_sum   'Nd12 Fe26 Si2'
_cell_volume   740.29205883
_cell_formula_units_Z   2
loop_
 _symmetry_equiv_pos_site_id
 _symmetry_equiv_pos_as_xyz
  1  'x, y, z'
loop_
 _atom_site_type_symbol
 _atom_site_label
 _atom_site_symmetry_multiplicity
 _atom_site_fract_x
 _atom_site_fract_y
 _atom_site_fract_z
 _atom_site_occupancy
  Nd  Nd0  1  0.02258300  0.85514900  0.50000000  1
  Nd  Nd1  1  0.97741700  0.14485100  0.50000000  1
  Nd  Nd2  1  0.64485100  0.47741700  0.50000000  1
  Nd  Nd3  1  0.47741700  0.97741700  0.83256600  1
  Nd  Nd4  1  0.14485100  0.64485100  0.16743400  1
  Nd  Nd5  1  0.85514900  0.35514900  0.83256600  1
  Nd  Nd6  1  0.52258300  0.02258300  0.16743400  1
  Nd  Nd7  1  0.35514900  0.52258300  0.50000000  1
  Nd  Nd8  1  0.60879100  0.60879100  0.00000000  1
  Nd  Nd9  1  0.89120900  0.89120900  0.00000000  1
  Nd  Nd10  1  0.39120900  0.39120900  0.00000000  1
  Nd  Nd11  1  0.10879100  0.10879100  0.00000000  1
  Fe  Fe0  1  0.50000000  0.00000000  0.50000000  1
  Fe  Fe1  1  0.00000000  0.50000000  0.50000000  1
  Fe  Fe2  1  0.70879600  0.98242600  0.50000000  1
  Fe  Fe3  1  0.29120400  0.01757400  0.50000000  1
  Fe  Fe4  1  0.51757400  0.79120400  0.50000000  1
  Fe  Fe5  1  0.79120400  0.29120400  0.27362900  1
  Fe  Fe6  1  0.01757400  0.51757400  0.72637100  1
  Fe  Fe7  1  0.98242600  0.48242600  0.27362900  1
  Fe  Fe8  1  0.20879600  0.70879600  0.72637100  1
  Fe  Fe9  1  0.48242600  0.20879600  0.50000000  1
  Fe  Fe10  1  0.06622700  0.79091200  0.85713900  1
  Fe  Fe11  1  0.79091200  0.93377300  0.72468500  1
  Fe  Fe12  1  0.20908800  0.06622700  0.27531500  1
  Fe  Fe13  1  0.43377300  0.29091200  0.72468500  1
  Fe  Fe14  1  0.56622700  0.70908800  0.27531500  1
  Fe  Fe15  1  0.29091200  0.56622700  0.85713900  1
  Fe  Fe16  1  0.70908800  0.43377300  0.14286100  1
  Fe  Fe17  1  0.93377300  0.20908800  0.14286100  1
  Fe  Fe18  1  0.23912000  0.38100100  0.50000000  1
  Fe  Fe19  1  0.38100100  0.88100100  0.14188100  1
  Fe  Fe20  1  0.73912000  0.23912000  0.85811900  1
  Fe  Fe21  1  0.26088000  0.76088000  0.14188100  1
  Fe  Fe22  1  0.61899900  0.11899900  0.85811900  1
  Fe  Fe23  1  0.76088000  0.61899900  0.50000000  1
  Fe  Fe24  1  0.11899900  0.26088000  0.50000000  1
  Fe  Fe25  1  0.88100100  0.73912000  0.50000000  1
  Si  Si0  1  0.75000000  0.75000000  0.00000000  1
  Si  Si1  1  0.25000000  0.25000000  0.00000000  1
loop_
_geom_bond_atom_site_label_1
_geom_bond_atom_site_label_2
_geom_bond_distance
_geom_bond_site_symmetry_2
Nd0 Si0 3.305328 1_455
Nd0 Si1 3.305328 1_566
Nd1 Si0 3.305328 1_545
Nd1 Si1 3.305328 1_656
Nd2 Si1 3.305328 1_555
Nd2 Si0 3.305328 1_556
Nd3 Si1 3.305328 1_566
Nd3 Si0 3.305328 1_556
Nd4 Si0 3.305328 1_455
Nd4 Si1 3.305328 1_555
Nd5 Si0 3.305328 1_556
Nd5 Si1 3.305328 1_656
Nd6 Si0 3.305328 1_545
Nd6 Si1 3.305328 1_555
Nd7 Si1 3.305328 1_555
Nd7 Si0 3.305328 1_556
Nd8 Si0 3.248358 1_555
Nd9 Si0 3.248358 1_555
Nd10 Si1 3.248358 1_555
Nd11 Si1 3.248358 1_555
Fe0 Fe11 2.393588 1_545
Fe0 Fe12 2.393588 1_555
Fe0 Fe14 2.393588 1_545
Fe0 Fe13 2.393588 1_555
Fe0 Fe19 2.456847 1_545
Fe0 Fe21 2.456847 1_545
Fe0 Fe22 2.456847 1_555
Fe0 Fe20 2.456847 1_555
Fe0 Fe9 2.546870 1_555
Fe0 Fe2 2.546870 1_545
Fe0 Fe4 2.546870 1_545
Fe0 Fe3 2.546870 1_555
Fe1 Fe16 2.393588 1_455
Fe1 Fe10 2.393588 1_555
Fe1 Fe17 2.393588 1_455
Fe1 Fe15 2.393588 1_555
Fe1 Fe23 2.456847 1_455
Fe1 Fe25 2.456847 1_455
Fe1 Fe24 2.456847 1_555
Fe1 Fe18 2.456847 1_555
Fe1 Fe8 2.546863 1_555
Fe1 Fe5 2.546863 1_455
Fe1 Fe7 2.546883 1_455
Fe1 Fe6 2.546883 1_555
Fe2 Fe25 2.494966 1_555
Fe2 Fe20 2.538715 1_565
Fe2 Fe9 2.568323 1_565
Fe2 Nd5 3.132143 1_565
Fe2 Nd6 3.132143 1_565
Fe2 Nd8 3.247572 1_555
Fe2 Nd11 3.247572 1_666
Fe2 Nd0 3.295823 1_655
Fe3 Fe4 2.568323 1_545
Fe3 Nd3 3.132143 1_545
Fe3 Nd4 3.132143 1_545
Fe3 Nd10 3.247572 1_556
Fe3 Nd9 3.247572 1_445
Fe3 Nd1 3.295823 1_455
Fe4 Nd3 3.132143 1_555
Fe4 Nd4 3.132143 1_555
Fe4 Nd10 3.247572 1_555
Fe4 Nd9 3.247572 1_556
Fe4 Nd2 3.295823 1_555
Fe5 Fe6 2.568334 1_655
Fe5 Nd2 3.132153 1_555
Fe5 Nd1 3.132153 1_555
Fe5 Nd9 3.247570 1_545
Fe5 Nd10 3.247570 1_555
Fe5 Nd3 3.295826 1_544
Fe6 Nd2 3.132137 1_455
Fe6 Nd1 3.132137 1_455
Fe6 Nd10 3.247568 1_556
Fe6 Nd9 3.247568 1_456
Fe6 Nd4 3.295811 1_556
Fe7 Fe8 2.568334 1_655
Fe7 Nd0 3.132137 1_655
Fe7 Nd7 3.132137 1_655
Fe7 Nd8 3.247568 1_555
Fe7 Nd11 3.247568 1_655
Fe7 Nd5 3.295811 1_554
Fe8 Nd0 3.132153 1_555
Fe8 Nd7 3.132153 1_555
Fe8 Nd11 3.247570 1_566
Fe8 Nd8 3.247570 1_556
Fe8 Nd6 3.295826 1_566
Fe9 Nd5 3.132143 1_555
Fe9 Nd6 3.132143 1_555
Fe9 Nd11 3.247572 1_555
Fe9 Nd8 3.247572 1_556
Fe9 Nd7 3.295823 1_555
Fe10 Fe19 2.478444 1_556
Fe10 Fe21 2.478444 1_556
Fe10 Fe12 2.488402 1_566
Fe10 Fe11 2.488402 1_455
Fe10 Fe15 2.549206 1_555
Fe10 Fe25 2.566420 1_455
Fe10 Fe23 2.566420 1_455
Fe10 Fe8 2.648083 1_555
Fe10 Fe6 2.648102 1_555
Fe10 Nd11 3.059275 1_566
Fe10 Nd9 3.059275 1_456
Fe11 Fe25 2.478444 1_555
Fe11 Fe23 2.478444 1_555
Fe11 Fe17 2.488402 1_566
Fe11 Fe14 2.549206 1_555
Fe11 Fe20 2.566420 1_565
Fe11 Fe22 2.566420 1_565
Fe11 Fe2 2.648094 1_555
Fe11 Fe4 2.648094 1_555
Fe11 Nd11 3.059275 1_666
Fe11 Nd9 3.059275 1_556
Fe12 Fe18 2.478444 1_555
Fe12 Fe24 2.478444 1_555
Fe12 Fe17 2.488402 1_455
Fe12 Fe13 2.549206 1_555
Fe12 Fe19 2.566420 1_545
Fe12 Fe21 2.566420 1_545
Fe12 Fe9 2.648094 1_555
Fe12 Fe3 2.648094 1_555
Fe12 Nd11 3.059275 1_555
Fe12 Nd9 3.059275 1_445
Fe13 Fe18 2.478444 1_555
Fe13 Fe24 2.478444 1_555
Fe13 Fe15 2.488402 1_555
Fe13 Fe16 2.488402 1_556
Fe13 Fe22 2.566420 1_555
Fe13 Fe20 2.566420 1_555
Fe13 Fe9 2.648094 1_555
Fe13 Fe3 2.648094 1_555
Fe13 Nd8 3.059275 1_556
Fe13 Nd10 3.059275 1_556
Fe14 Fe23 2.478444 1_555
Fe14 Fe25 2.478444 1_555
Fe14 Fe15 2.488402 1_554
Fe14 Fe16 2.488402 1_555
Fe14 Fe21 2.566420 1_555
Fe14 Fe19 2.566420 1_555
Fe14 Fe4 2.648094 1_555
Fe14 Fe2 2.648094 1_555
Fe14 Nd10 3.059275 1_555
Fe14 Nd8 3.059275 1_555
Fe15 Fe21 2.478444 1_556
Fe15 Fe19 2.478444 1_556
Fe15 Fe24 2.566420 1_555
Fe15 Fe18 2.566420 1_555
Fe15 Fe8 2.648083 1_555
Fe15 Fe6 2.648102 1_555
Fe15 Nd10 3.059275 1_556
Fe15 Nd8 3.059275 1_556
Fe16 Fe22 2.478444 1_554
Fe16 Fe20 2.478444 1_554
Fe16 Fe17 2.549206 1_555
Fe16 Fe23 2.566420 1_555
Fe16 Fe25 2.566420 1_555
Fe16 Fe5 2.648083 1_555
Fe16 Fe7 2.648102 1_555
Fe16 Nd10 3.059275 1_555
Fe16 Nd8 3.059275 1_555
Fe17 Fe22 2.478444 1_554
Fe17 Fe20 2.478444 1_554
Fe17 Fe24 2.566420 1_655
Fe17 Fe18 2.566420 1_655
Fe17 Fe5 2.648083 1_555
Fe17 Fe7 2.648102 1_555
Fe17 Nd11 3.059275 1_655
Fe17 Nd9 3.059275 1_545
Fe18 Fe9 2.494966 1_555
Fe18 Fe8 2.538715 1_555
Fe18 Fe7 2.538722 1_455
Fe18 Fe24 2.763252 1_555
Fe18 Nd7 2.966573 1_555
Fe18 Nd11 3.154318 1_555
Fe18 Nd8 3.154318 1_556
Fe19 Fe8 2.494956 1_554
Fe19 Fe2 2.538715 1_555
Fe19 Fe9 2.538715 1_565
Fe19 Fe21 2.763252 1_555
Fe19 Nd6 2.966573 1_565
Fe19 Nd8 3.154318 1_555
Fe19 Nd11 3.154318 1_565
Fe20 Fe7 2.494964 1_556
Fe20 Fe9 2.538715 1_555
Fe20 Fe22 2.763252 1_555
Fe20 Nd5 2.966573 1_555
Fe20 Nd11 3.154318 1_656
Fe20 Nd8 3.154318 1_556
Fe21 Fe6 2.494964 1_554
Fe21 Fe4 2.538715 1_555
Fe21 Fe3 2.538715 1_565
Fe21 Nd4 2.966573 1_555
Fe21 Nd10 3.154318 1_555
Fe21 Nd9 3.154318 1_455
Fe22 Fe5 2.494956 1_556
Fe22 Fe4 2.538715 1_545
Fe22 Fe3 2.538715 1_555
Fe22 Nd3 2.966573 1_545
Fe22 Nd10 3.154318 1_556
Fe22 Nd9 3.154318 1_546
Fe23 Fe4 2.494966 1_555
Fe23 Fe5 2.538715 1_555
Fe23 Fe6 2.538722 1_655
Fe23 Fe25 2.763252 1_555
Fe23 Nd2 2.966573 1_555
Fe23 Nd10 3.154318 1_555
Fe23 Nd9 3.154318 1_556
Fe24 Fe3 2.494966 1_555
Fe24 Fe5 2.538715 1_455
Fe24 Fe6 2.538722 1_555
Fe24 Nd1 2.966573 1_455
Fe24 Nd10 3.154318 1_556
Fe24 Nd9 3.154318 1_445
Fe25 Fe8 2.538715 1_655
Fe25 Fe7 2.538722 1_555
Fe25 Nd0 2.966573 1_655
Fe25 Nd8 3.154318 1_555
Fe25 Nd11 3.154318 1_666
