# generated using pymatgen
data_Rb2Te
_symmetry_space_group_name_H-M   'P 1'
_cell_length_a   6.09333071
_cell_length_b   7.98326386
_cell_length_c   10.60336590
_cell_angle_alpha   90.00000000
_cell_angle_beta   90.00000000
_cell_angle_gamma   90.00000000
_symmetry_Int_Tables_number   1
_chemical_formula_structural   Rb2Te
_chemical_formula_sum   'Rb8 Te4'
_cell_volume   515.79720163
_cell_formula_units_Z   4
loop_
 _symmetry_equiv_pos_site_id
 _symmetry_equiv_pos_as_xyz
  1  'x, y, z'
loop_
 _atom_site_type_symbol
 _atom_site_label
 _atom_site_symmetry_multiplicity
 _atom_site_fract_x
 _atom_site_fract_y
 _atom_site_fract_z
 _atom_site_occupancy
  Rb  Rb0  1  0.25000000  0.00231699  0.24196358  1
  Rb  Rb1  1  0.75000000  0.99768301  0.75803642  1
  Rb  Rb2  1  0.75000000  0.26038456  0.08280751  1
  Rb  Rb3  1  0.25000000  0.23961544  0.58280751  1
  Rb  Rb4  1  0.25000000  0.73961544  0.91719249  1
  Rb  Rb5  1  0.25000000  0.50231699  0.25803642  1
  Rb  Rb6  1  0.75000000  0.76038456  0.41719249  1
  Rb  Rb7  1  0.75000000  0.49768301  0.74196358  1
  Te  Te0  1  0.25000000  0.24755981  0.91575628  1
  Te  Te1  1  0.75000000  0.25244019  0.41575628  1
  Te  Te2  1  0.25000000  0.74755981  0.58424372  1
  Te  Te3  1  0.75000000  0.75244019  0.08424372  1
loop_
_geom_bond_atom_site_label_1
_geom_bond_atom_site_label_2
_geom_bond_distance
_geom_bond_site_symmetry_2
Rb0 Te0 3.974555 1_554
Rb0 Te3 4.007283 1_445
Rb0 Te3 4.007283 1_545
Rb0 Te1 4.082309 1_555
Rb0 Te1 4.082309 1_455
Rb0 Te2 4.160324 1_545
Rb1 Te3 3.974555 1_556
Rb1 Te0 4.007283 1_665
Rb1 Te0 4.007283 1_565
Rb1 Te2 4.082309 1_555
Rb1 Te2 4.082309 1_655
Rb1 Te1 4.160324 1_565
Rb2 Te0 3.525645 1_654
Rb2 Te0 3.525645 1_554
Rb2 Te1 3.530947 1_555
Rb2 Te3 3.928239 1_555
Rb2 Te3 4.055083 1_545
Rb3 Te1 3.525645 1_455
Rb3 Te1 3.525645 1_555
Rb3 Te0 3.530947 1_555
Rb3 Te2 3.928239 1_545
Rb3 Te2 4.055083 1_555
Rb4 Te3 3.525645 1_556
Rb4 Te3 3.525645 1_456
Rb4 Te2 3.530947 1_555
Rb4 Te0 3.928239 1_555
Rb4 Te0 4.055083 1_565
Rb5 Te2 3.974555 1_555
Rb5 Te1 4.007283 1_455
Rb5 Te1 4.007283 1_555
Rb5 Te3 4.082309 1_455
Rb5 Te3 4.082309 1_555
Rb5 Te0 4.160324 1_554
Rb6 Te2 3.525645 1_555
Rb6 Te2 3.525645 1_655
Rb6 Te3 3.530947 1_555
Rb6 Te1 3.928239 1_565
Rb6 Te1 4.055083 1_555
Rb7 Te1 3.974555 1_555
Rb7 Te2 4.007283 1_555
Rb7 Te2 4.007283 1_655
Rb7 Te0 4.082309 1_555
Rb7 Te0 4.082309 1_655
Rb7 Te3 4.160324 1_556
