# generated using pymatgen
data_CsHg2
_symmetry_space_group_name_H-M   'P 1'
_cell_length_a   5.52472143
_cell_length_b   7.07538594
_cell_length_c   7.07538640
_cell_angle_alpha   77.63761155
_cell_angle_beta   67.01946124
_cell_angle_gamma   67.01946913
_symmetry_Int_Tables_number   1
_chemical_formula_structural   CsHg2
_chemical_formula_sum   'Cs2 Hg4'
_cell_volume   233.79513902
_cell_formula_units_Z   2
loop_
 _symmetry_equiv_pos_site_id
 _symmetry_equiv_pos_as_xyz
  1  'x, y, z'
loop_
 _atom_site_type_symbol
 _atom_site_label
 _atom_site_symmetry_multiplicity
 _atom_site_fract_x
 _atom_site_fract_y
 _atom_site_fract_z
 _atom_site_occupancy
  Cs  Cs0  1  0.94142268  0.30857632  0.30857632  1
  Cs  Cs1  1  0.05857632  0.69142268  0.69142268  1
  Hg  Hg0  1  0.66670352  0.90398880  0.26260117  1
  Hg  Hg1  1  0.33329648  0.09601120  0.73739883  1
  Hg  Hg2  1  0.66670352  0.26260117  0.90398880  1
  Hg  Hg3  1  0.33329648  0.73739883  0.09601120  1
loop_
_geom_bond_atom_site_label_1
_geom_bond_atom_site_label_2
_geom_bond_distance
_geom_bond_site_symmetry_2
Cs0 Hg2 3.844560 1_654
Cs0 Hg0 3.844560 1_645
Cs0 Hg0 3.844564 1_545
Cs0 Hg2 3.844564 1_554
Cs0 Hg0 3.868197 1_555
Cs0 Hg2 3.868197 1_555
Cs0 Hg3 4.063186 1_645
Cs0 Hg1 4.063186 1_654
Cs0 Hg1 4.097244 1_555
Cs0 Hg3 4.097245 1_555
Cs0 Hg3 4.097263 1_655
Cs0 Hg1 4.097263 1_655
Cs1 Hg3 3.844557 1_456
Cs1 Hg1 3.844557 1_465
Cs1 Hg1 3.844577 1_565
Cs1 Hg3 3.844577 1_556
Cs1 Hg1 3.868190 1_555
Cs1 Hg3 3.868190 1_555
Cs1 Hg2 4.063195 1_465
Cs1 Hg0 4.063195 1_456
Cs1 Hg0 4.097249 1_555
Cs1 Hg2 4.097250 1_555
Cs1 Hg2 4.097253 1_455
Cs1 Hg0 4.097254 1_455
Hg0 Hg2 3.181088 1_564
Hg0 Hg3 3.187001 1_555
Hg0 Hg3 3.187029 1_655
Hg1 Hg3 3.181088 1_546
Hg1 Hg2 3.187001 1_555
Hg1 Hg2 3.187029 1_455
