# generated using pymatgen
data_Sb2(KrF4)5
_symmetry_space_group_name_H-M   'P 1'
_cell_length_a   31.79981800
_cell_length_b   8.26421100
_cell_length_c   8.37953908
_cell_angle_alpha   68.46667869
_cell_angle_beta   90.00000000
_cell_angle_gamma   90.00000000
_symmetry_Int_Tables_number   1
_chemical_formula_structural   Sb2(KrF4)5
_chemical_formula_sum   'Sb8 Kr20 F80'
_cell_volume   2048.44585481
_cell_formula_units_Z   4
loop_
 _symmetry_equiv_pos_site_id
 _symmetry_equiv_pos_as_xyz
  1  'x, y, z'
loop_
 _atom_site_type_symbol
 _atom_site_label
 _atom_site_symmetry_multiplicity
 _atom_site_fract_x
 _atom_site_fract_y
 _atom_site_fract_z
 _atom_site_occupancy
  Sb  Sb0  1  0.57579800  0.78958000  0.55754900  1
  Sb  Sb1  1  0.92420200  0.78958000  0.05754900  1
  Sb  Sb2  1  0.82403600  0.31523700  0.53784400  1
  Sb  Sb3  1  0.32403600  0.68476300  0.96215600  1
  Sb  Sb4  1  0.07579800  0.21042000  0.94245100  1
  Sb  Sb5  1  0.67596400  0.31523700  0.03784400  1
  Sb  Sb6  1  0.17596400  0.68476300  0.46215600  1
  Sb  Sb7  1  0.42420200  0.21042000  0.44245100  1
  Kr  Kr0  1  0.78093600  0.75689900  0.98059600  1
  Kr  Kr1  1  0.21906400  0.24310100  0.01940400  1
  Kr  Kr2  1  0.19504600  0.85572900  0.90559400  1
  Kr  Kr3  1  0.71906400  0.75689900  0.48059600  1
  Kr  Kr4  1  0.96935100  0.24005800  0.51215200  1
  Kr  Kr5  1  0.62388800  0.80387300  0.04434400  1
  Kr  Kr6  1  0.46935100  0.75994200  0.98784800  1
  Kr  Kr7  1  0.53064900  0.24005800  0.01215200  1
  Kr  Kr8  1  0.28093600  0.24310100  0.51940400  1
  Kr  Kr9  1  0.37611200  0.19612700  0.95565600  1
  Kr  Kr10  1  0.30495400  0.85572900  0.40559400  1
  Kr  Kr11  1  0.44119400  0.65895900  0.60404800  1
  Kr  Kr12  1  0.05880600  0.65895900  0.10404800  1
  Kr  Kr13  1  0.69504600  0.14427100  0.59440600  1
  Kr  Kr14  1  0.12388800  0.19612700  0.45565600  1
  Kr  Kr15  1  0.55880600  0.34104100  0.39595200  1
  Kr  Kr16  1  0.87611200  0.80387300  0.54434400  1
  Kr  Kr17  1  0.94119400  0.34104100  0.89595200  1
  Kr  Kr18  1  0.80495400  0.14427100  0.09440600  1
  Kr  Kr19  1  0.03064900  0.75994200  0.48784800  1
  F  F0  1  0.78238300  0.62783400  0.84026200  1
  F  F1  1  0.88068700  0.91219600  0.12679400  1
  F  F2  1  0.32698100  0.46722600  0.15130100  1
  F  F3  1  0.63522100  0.39209900  0.16471400  1
  F  F4  1  0.57734500  0.60356300  0.77697200  1
  F  F5  1  0.77945300  0.40707100  0.63510600  1
  F  F6  1  0.71673500  0.23077300  0.91762900  1
  F  F7  1  0.22054700  0.59292900  0.36489400  1
  F  F8  1  0.52940400  0.39812400  0.15674600  1
  F  F9  1  0.92265500  0.60356300  0.27697200  1
  F  F10  1  0.91635000  0.29954700  0.10647000  1
  F  F11  1  0.42265500  0.39643700  0.22302800  1
  F  F12  1  0.22351500  0.09777300  0.86180700  1
  F  F13  1  0.42733200  0.01969400  0.66027800  1
  F  F14  1  0.67072300  0.35569400  0.56699500  1
  F  F15  1  0.21761700  0.37216600  0.15973800  1
  F  F16  1  0.27648500  0.09777300  0.36180700  1
  F  F17  1  0.82927700  0.35569400  0.06699500  1
  F  F18  1  0.46745400  0.33311800  0.51288500  1
  F  F19  1  0.78326500  0.23077300  0.41762900  1
  F  F20  1  0.81920600  0.09885100  0.73202200  1
  F  F21  1  0.21673500  0.76922700  0.58237100  1
  F  F22  1  0.31819500  0.13456800  0.01980600  1
  F  F23  1  0.07734500  0.39643700  0.72302800  1
  F  F24  1  0.81819500  0.86543200  0.48019400  1
  F  F25  1  0.38211400  0.31932800  0.53383600  1
  F  F26  1  0.28326500  0.76922700  0.08237100  1
  F  F27  1  0.57266800  0.98030600  0.33972200  1
  F  F28  1  0.41635000  0.70045300  0.39353000  1
  F  F29  1  0.18079400  0.90114900  0.26797800  1
  F  F30  1  0.53254600  0.66688200  0.48711500  1
  F  F31  1  0.47006800  0.89058500  0.12685700  1
  F  F32  1  0.82698100  0.53277400  0.34869900  1
  F  F33  1  0.32927700  0.64430600  0.43300500  1
  F  F34  1  0.06601100  0.25869800  0.39032900  1
  F  F35  1  0.38068700  0.08780400  0.37320600  1
  F  F36  1  0.72351500  0.90222700  0.63819300  1
  F  F37  1  0.07266800  0.01969400  0.16027800  1
  F  F38  1  0.18180500  0.13456800  0.51980600  1
  F  F39  1  0.86873000  0.21942000  0.44562500  1
  F  F40  1  0.17301900  0.46722600  0.65130100  1
  F  F41  1  0.96745400  0.66688200  0.98711500  1
  F  F42  1  0.56601100  0.74130200  0.10967100  1
  F  F43  1  0.36873000  0.78058000  0.05437500  1
  F  F44  1  0.63127000  0.21942000  0.94562500  1
  F  F45  1  0.92733200  0.98030600  0.83972200  1
  F  F46  1  0.13127000  0.78058000  0.55437500  1
  F  F47  1  0.97059600  0.39812400  0.65674600  1
  F  F48  1  0.31920600  0.90114900  0.76797800  1
  F  F49  1  0.96611500  0.90363400  0.14499200  1
  F  F50  1  0.93398900  0.74130200  0.60967100  1
  F  F51  1  0.13522100  0.60790100  0.33528600  1
  F  F52  1  0.02940400  0.60187600  0.34325400  1
  F  F53  1  0.17072300  0.64430600  0.93300500  1
  F  F54  1  0.77648500  0.90222700  0.13819300  1
  F  F55  1  0.71761700  0.62783400  0.34026200  1
  F  F56  1  0.11931300  0.08780400  0.87320600  1
  F  F57  1  0.47059600  0.60187600  0.84325400  1
  F  F58  1  0.61788600  0.68067200  0.46616400  1
  F  F59  1  0.11788600  0.31932800  0.03383600  1
  F  F60  1  0.03254600  0.33311800  0.01288500  1
  F  F61  1  0.02993200  0.89058500  0.62685700  1
  F  F62  1  0.52993200  0.10941500  0.87314300  1
  F  F63  1  0.43398900  0.25869800  0.89032900  1
  F  F64  1  0.28238300  0.37216600  0.65973800  1
  F  F65  1  0.46611500  0.09636600  0.35500800  1
  F  F66  1  0.68079400  0.09885100  0.23202200  1
  F  F67  1  0.68180500  0.86543200  0.98019400  1
  F  F68  1  0.36477900  0.60790100  0.83528600  1
  F  F69  1  0.61931300  0.91219600  0.62679400  1
  F  F70  1  0.72054700  0.40707100  0.13510600  1
  F  F71  1  0.67301900  0.53277400  0.84869900  1
  F  F72  1  0.86477900  0.39209900  0.66471400  1
  F  F73  1  0.53388500  0.90363400  0.64499200  1
  F  F74  1  0.97006800  0.10941500  0.37314300  1
  F  F75  1  0.08365000  0.70045300  0.89353000  1
  F  F76  1  0.88211400  0.68067200  0.96616400  1
  F  F77  1  0.58365000  0.29954700  0.60647000  1
  F  F78  1  0.03388500  0.09636600  0.85500800  1
  F  F79  1  0.27945300  0.59292900  0.86489400  1
loop_
_geom_bond_atom_site_label_1
_geom_bond_atom_site_label_2
_geom_bond_distance
_geom_bond_site_symmetry_2
F0 Kr0 1.855630 1_555
F1 Sb1 1.926122 1_555
F2 Sb3 1.913408 1_554
F3 Sb5 1.925628 1_555
F4 Sb0 1.916095 1_555
F5 Sb2 1.924643 1_555
F6 Sb5 1.923306 1_556
F7 Sb6 1.924643 1_555
F8 Kr7 2.082758 1_555
F8 Kr15 2.102464 1_555
F9 Sb1 1.916095 1_555
F10 Kr17 1.846493 1_554
F11 Sb7 1.916095 1_555
F12 Kr1 2.090633 1_556
F12 Kr2 2.101582 1_545
F13 Sb7 1.927179 1_555
F14 Kr13 1.846419 1_555
F15 Kr1 1.855630 1_555
F16 Kr8 2.090633 1_555
F16 Kr10 2.101582 1_545
F17 Kr18 1.846419 1_555
F18 Sb7 1.925515 1_555
F19 Sb2 1.923306 1_555
F20 Sb2 1.932100 1_555
F21 Sb6 1.923306 1_555
F22 Kr9 1.933666 1_554
F23 Sb4 1.916095 1_555
F24 Kr16 1.933666 1_555
F25 Sb7 1.921900 1_555
F26 Sb3 1.923306 1_554
F27 Sb0 1.927179 1_555
F28 Kr11 1.846493 1_555
F29 Sb6 1.932100 1_555
F30 Sb0 1.925515 1_555
F31 Kr6 1.856400 1_554
F32 Sb2 1.913408 1_555
F33 Kr10 1.846419 1_555
F34 Kr14 1.935618 1_555
F35 Sb7 1.926122 1_555
F36 Kr3 2.090633 1_555
F36 Kr13 2.101582 1_565
F37 Sb4 1.927179 1_554
F38 Kr14 1.933666 1_555
F39 Sb2 1.921809 1_555
F40 Sb6 1.913408 1_555
F41 Sb1 1.925515 1_556
F42 Kr5 1.935618 1_555
F43 Sb3 1.921809 1_554
F44 Sb5 1.921809 1_556
F45 Sb1 1.927179 1_556
F46 Sb6 1.921809 1_555
F47 Kr4 2.082758 1_555
F47 Kr17 2.102464 1_555
F48 Sb3 1.932100 1_555
F49 Sb1 1.925811 1_555
F50 Kr16 1.935618 1_555
F51 Sb6 1.925628 1_555
F52 Kr19 2.082758 1_555
F52 Kr12 2.102464 1_555
F53 Kr2 1.846419 1_555
F54 Kr0 2.090633 1_554
F54 Kr18 2.101582 1_565
F55 Kr3 1.855630 1_555
F56 Sb4 1.926122 1_555
F57 Kr6 2.082758 1_555
F57 Kr11 2.102464 1_555
F58 Sb0 1.921900 1_555
F59 Sb4 1.921900 1_554
F60 Sb4 1.925515 1_554
F61 Kr19 1.856400 1_555
F62 Kr7 1.856400 1_556
F63 Kr9 1.935618 1_555
F64 Kr8 1.855630 1_555
F65 Sb7 1.925811 1_555
F66 Sb5 1.932100 1_555
F67 Kr5 1.933666 1_556
F68 Sb3 1.925628 1_555
F69 Sb0 1.926122 1_555
F70 Sb5 1.924643 1_555
F71 Sb5 1.913408 1_556
F72 Sb2 1.925628 1_555
F73 Sb0 1.925811 1_555
F74 Kr4 1.856400 1_555
F75 Kr12 1.846493 1_556
F76 Sb1 1.921900 1_556
F77 Kr15 1.846493 1_555
F78 Sb4 1.925811 1_555
F79 Sb3 1.924643 1_555
