# generated using pymatgen
data_LaGaO3
_symmetry_space_group_name_H-M   'P 1'
_cell_length_a   5.55920300
_cell_length_b   5.58868800
_cell_length_c   7.87857500
_cell_angle_alpha   90.00000000
_cell_angle_beta   90.00000000
_cell_angle_gamma   90.00000000
_symmetry_Int_Tables_number   1
_chemical_formula_structural   LaGaO3
_chemical_formula_sum   'La4 Ga4 O12'
_cell_volume   244.77669781
_cell_formula_units_Z   4
loop_
 _symmetry_equiv_pos_site_id
 _symmetry_equiv_pos_as_xyz
  1  'x, y, z'
loop_
 _atom_site_type_symbol
 _atom_site_label
 _atom_site_symmetry_multiplicity
 _atom_site_fract_x
 _atom_site_fract_y
 _atom_site_fract_z
 _atom_site_occupancy
  La  La0  1  0.49229000  0.46653400  0.75000000  1
  La  La1  1  0.99229000  0.03346600  0.25000000  1
  La  La2  1  0.00771000  0.96653400  0.75000000  1
  La  La3  1  0.50771000  0.53346600  0.25000000  1
  Ga  Ga0  1  0.00000000  0.50000000  0.50000000  1
  Ga  Ga1  1  0.50000000  0.00000000  0.50000000  1
  Ga  Ga2  1  0.50000000  0.00000000  0.00000000  1
  Ga  Ga3  1  0.00000000  0.50000000  0.00000000  1
  O  O0  1  0.71621000  0.28477400  0.45881400  1
  O  O1  1  0.21621000  0.21522600  0.54118600  1
  O  O2  1  0.78379000  0.78477400  0.04118600  1
  O  O3  1  0.28379000  0.71522600  0.95881400  1
  O  O4  1  0.28379000  0.71522600  0.54118600  1
  O  O5  1  0.78379000  0.78477400  0.45881400  1
  O  O6  1  0.21621000  0.21522600  0.95881400  1
  O  O7  1  0.71621000  0.28477400  0.04118600  1
  O  O8  1  0.07662800  0.48455600  0.25000000  1
  O  O9  1  0.57662800  0.01544400  0.75000000  1
  O  O10  1  0.42337200  0.98455600  0.25000000  1
  O  O11  1  0.92337200  0.51544400  0.75000000  1
loop_
_geom_bond_atom_site_label_1
_geom_bond_atom_site_label_2
_geom_bond_distance
_geom_bond_site_symmetry_2
La0 O11 2.412011 1_555
La0 O3 2.445763 1_555
La0 O4 2.445763 1_555
La0 O9 2.564229 1_555
La0 O6 2.652296 1_555
La0 O1 2.652296 1_555
La0 O7 2.800795 1_556
La0 O0 2.800795 1_555
La1 O10 2.412011 1_645
La1 O5 2.445763 1_545
La1 O2 2.445763 1_545
La1 O8 2.564229 1_655
La1 O0 2.652296 1_555
La1 O7 2.652296 1_555
La1 O1 2.800795 1_655
La1 O6 2.800795 1_654
La2 O9 2.412011 1_465
La2 O6 2.445763 1_565
La2 O1 2.445763 1_565
La2 O11 2.564229 1_455
La2 O3 2.652296 1_555
La2 O4 2.652296 1_555
La2 O2 2.800795 1_456
La2 O5 2.800795 1_455
La3 O8 2.412011 1_555
La3 O7 2.445763 1_555
La3 O0 2.445763 1_555
La3 O10 2.564229 1_555
La3 O5 2.652296 1_555
La3 O2 2.652296 1_555
La3 O4 2.800795 1_555
La3 O3 2.800795 1_554
Ga0 O4 2.010239 1_555
Ga0 O0 2.010239 1_455
Ga0 O11 2.017031 1_455
Ga0 O8 2.017031 1_555
Ga0 O5 2.020619 1_455
Ga0 O1 2.020619 1_555
Ga1 O1 2.010239 1_555
Ga1 O5 2.010239 1_545
Ga1 O9 2.017031 1_555
Ga1 O10 2.017031 1_545
Ga1 O0 2.020619 1_555
Ga1 O4 2.020619 1_545
Ga2 O2 2.010239 1_545
Ga2 O6 2.010239 1_554
Ga2 O9 2.017031 1_554
Ga2 O10 2.017031 1_545
Ga2 O7 2.020619 1_555
Ga2 O3 2.020619 1_544
Ga3 O3 2.010239 1_554
Ga3 O7 2.010239 1_455
Ga3 O11 2.017031 1_454
Ga3 O8 2.017031 1_555
Ga3 O2 2.020619 1_455
Ga3 O6 2.020619 1_554
