# generated using pymatgen
data_Na3Al2(AsO4)3
_symmetry_space_group_name_H-M   'P 1'
_cell_length_a   10.01853562
_cell_length_b   10.01853562
_cell_length_c   9.92456069
_cell_angle_alpha   84.89288864
_cell_angle_beta   84.89288864
_cell_angle_gamma   84.84411288
_symmetry_Int_Tables_number   1
_chemical_formula_structural   Na3Al2(AsO4)3
_chemical_formula_sum   'Na12 Al8 As12 O48'
_cell_volume   984.86831377
_cell_formula_units_Z   4
loop_
 _symmetry_equiv_pos_site_id
 _symmetry_equiv_pos_as_xyz
  1  'x, y, z'
loop_
 _atom_site_type_symbol
 _atom_site_label
 _atom_site_symmetry_multiplicity
 _atom_site_fract_x
 _atom_site_fract_y
 _atom_site_fract_z
 _atom_site_occupancy
  Na  Na0  1  0.17363000  0.45552000  0.48377600  1
  Na  Na1  1  0.70141800  0.70210600  0.17360800  1
  Na  Na2  1  0.00142100  0.49983500  0.76588500  1
  Na  Na3  1  0.54448000  0.82637000  0.51622400  1
  Na  Na4  1  0.50016500  0.99857900  0.23411500  1
  Na  Na5  1  0.29789400  0.29858200  0.82639200  1
  Na  Na6  1  0.72884800  0.63977800  0.73609700  1
  Na  Na7  1  0.22695300  0.97395800  0.40944100  1
  Na  Na8  1  0.75757400  0.04023200  0.07415400  1
  Na  Na9  1  0.95976800  0.24242600  0.92584600  1
  Na  Na10  1  0.02604200  0.77304700  0.59055900  1
  Na  Na11  1  0.36022200  0.27115200  0.26390300  1
  Al  Al0  1  0.52893200  0.47106800  0.50000000  1
  Al  Al1  1  0.96906700  0.25534900  0.28005900  1
  Al  Al2  1  0.02945300  0.75267700  0.22204000  1
  Al  Al3  1  0.46824800  0.53175200  0.00000000  1
  Al  Al4  1  0.24708200  0.75291800  0.00000000  1
  Al  Al5  1  0.74465100  0.03093300  0.71994100  1
  Al  Al6  1  0.74672900  0.25327100  0.50000000  1
  Al  Al7  1  0.24732300  0.97054700  0.77796000  1
  As  As0  1  0.32546800  0.66117500  0.70242900  1
  As  As1  1  0.45105000  0.16144600  0.57341500  1
  As  As2  1  0.66250600  0.33616100  0.80124500  1
  As  As3  1  0.83855400  0.54895000  0.42658500  1
  As  As4  1  0.82897900  0.95818100  0.40576200  1
  As  As5  1  0.54145900  0.84162000  0.91695400  1
  As  As6  1  0.04181900  0.17102100  0.59423800  1
  As  As7  1  0.66383900  0.33749400  0.19875500  1
  As  As8  1  0.16767400  0.04906300  0.09054700  1
  As  As9  1  0.33882500  0.67453200  0.29757100  1
  As  As10  1  0.15838000  0.45854100  0.08304600  1
  As  As11  1  0.95093700  0.83232600  0.90945300  1
  O  O0  1  0.01595300  0.12911600  0.14812200  1
  O  O1  1  0.66761600  0.16433900  0.83365600  1
  O  O2  1  0.29471500  0.09231900  0.17066200  1
  O  O3  1  0.87701600  0.37243400  0.42269400  1
  O  O4  1  0.83013200  0.13517600  0.37023300  1
  O  O5  1  0.70074500  0.90653900  0.33106500  1
  O  O6  1  0.40665100  0.09642700  0.43533400  1
  O  O7  1  0.66660000  0.58761800  0.42611900  1
  O  O8  1  0.66288100  0.37824600  0.62084900  1
  O  O9  1  0.16492800  0.87167900  0.12855500  1
  O  O10  1  0.86482400  0.16986800  0.62976700  1
  O  O11  1  0.11950600  0.01686700  0.64802000  1
  O  O12  1  0.62068500  0.90027300  0.76496300  1
  O  O13  1  0.62175400  0.33711900  0.37915100  1
  O  O14  1  0.39897000  0.52287700  0.37489800  1
  O  O15  1  0.40154400  0.80895700  0.35008900  1
  O  O16  1  0.82073800  0.91972700  0.57970900  1
  O  O17  1  0.09346100  0.29925500  0.66893500  1
  O  O18  1  0.11783500  0.63487400  0.08127700  1
  O  O19  1  0.16655300  0.67487400  0.33461800  1
  O  O20  1  0.59450200  0.20413200  0.15219200  1
  O  O21  1  0.10649500  0.39895800  0.94606400  1
  O  O22  1  0.90768100  0.70528500  0.82933800  1
  O  O23  1  0.08027300  0.17926200  0.42029100  1
  O  O24  1  0.59587300  0.48800400  0.12738700  1
  O  O25  1  0.09972700  0.37931500  0.23503700  1
  O  O26  1  0.51199600  0.40412700  0.87261300  1
  O  O27  1  0.87088400  0.98404700  0.85187800  1
  O  O28  1  0.57290800  0.66927300  0.91623700  1
  O  O29  1  0.83566100  0.33238400  0.16634400  1
  O  O30  1  0.37685300  0.67599100  0.11930800  1
  O  O31  1  0.32512600  0.83344700  0.66538200  1
  O  O32  1  0.32400900  0.62314700  0.88069200  1
  O  O33  1  0.12832100  0.83507200  0.87144500  1
  O  O34  1  0.91388200  0.82824700  0.08359900  1
  O  O35  1  0.17175300  0.08611800  0.91640100  1
  O  O36  1  0.79586800  0.40549800  0.84780800  1
  O  O37  1  0.41238200  0.33340000  0.57388100  1
  O  O38  1  0.90306000  0.62908700  0.27854600  1
  O  O39  1  0.90357300  0.59334900  0.56466600  1
  O  O40  1  0.98313300  0.88049400  0.35198000  1
  O  O41  1  0.37091300  0.09694000  0.72145400  1
  O  O42  1  0.19104300  0.59845600  0.64991100  1
  O  O43  1  0.36512600  0.88216500  0.91872300  1
  O  O44  1  0.60104200  0.89350500  0.05393600  1
  O  O45  1  0.33072700  0.42709200  0.08376300  1
  O  O46  1  0.62756600  0.12298400  0.57730600  1
  O  O47  1  0.47712300  0.60103000  0.62510200  1
loop_
_geom_bond_atom_site_label_1
_geom_bond_atom_site_label_2
_geom_bond_distance
_geom_bond_site_symmetry_2
Na0 O42 2.305679 1_555
Na0 O17 2.433910 1_555
Na0 O14 2.535614 1_555
Na0 O19 2.537197 1_555
Na0 O37 2.770922 1_555
Na0 O25 2.826257 1_555
Na1 O44 2.357844 1_555
Na1 O38 2.382049 1_555
Na1 O24 2.568794 1_555
Na1 O34 2.621040 1_555
Na1 O7 2.668736 1_555
Na1 O5 2.683711 1_555
Na2 O21 2.269222 1_555
Na2 O22 2.300704 1_455
Na2 O42 2.378149 1_555
Na2 O17 2.380647 1_555
Na2 O39 2.382672 1_455
Na2 O36 2.389580 1_455
Na3 O15 2.305679 1_555
Na3 O5 2.433910 1_555
Na3 O47 2.535614 1_555
Na3 O31 2.537197 1_555
Na3 O7 2.770922 1_555
Na3 O12 2.826257 1_555
Na4 O44 2.269222 1_555
Na4 O2 2.300704 1_565
Na4 O15 2.378149 1_555
Na4 O5 2.380647 1_555
Na4 O6 2.382672 1_565
Na4 O20 2.389580 1_565
Na5 O21 2.357844 1_555
Na5 O41 2.382049 1_555
Na5 O26 2.568794 1_555
Na5 O35 2.621040 1_555
Na5 O37 2.668736 1_555
Na5 O17 2.683711 1_555
Na6 O22 2.260896 1_555
Na6 O28 2.288700 1_555
Na6 O39 2.374780 1_555
Na6 O36 2.564192 1_555
Na6 O12 2.763482 1_555
Na6 O47 2.910484 1_555
Na7 O6 2.312596 1_565
Na7 O15 2.368408 1_555
Na7 O23 2.422747 1_565
Na7 O11 2.567931 1_565
Na7 O2 2.615495 1_565
Na7 O40 2.814793 1_455
Na8 O44 2.276690 1_545
Na8 O20 2.341843 1_555
Na8 O27 2.476349 1_544
Na8 O34 2.522786 1_545
Na8 O1 2.776404 1_554
Na8 O5 2.808893 1_545
Na8 O0 2.983557 1_655
Na9 O21 2.276690 1_655
Na9 O36 2.341843 1_555
Na9 O0 2.476349 1_656
Na9 O35 2.522786 1_655
Na9 O29 2.776404 1_556
Na9 O17 2.808893 1_655
Na9 O27 2.983557 1_545
Na10 O39 2.312596 1_455
Na10 O42 2.368408 1_555
Na10 O16 2.422747 1_455
Na10 O40 2.567931 1_455
Na10 O22 2.615495 1_455
Na10 O11 2.814793 1_565
Na11 O2 2.260896 1_555
Na11 O45 2.288700 1_555
Na11 O6 2.374780 1_555
Na11 O20 2.564192 1_555
Na11 O25 2.763482 1_555
Na11 O14 2.910484 1_555
Al0 O14 1.886221 1_555
Al0 O47 1.886221 1_555
Al0 O37 1.939155 1_555
Al0 O7 1.939155 1_555
Al0 O13 1.991949 1_555
Al0 O8 1.991949 1_555
Al1 O25 1.882795 1_655
Al1 O29 1.893070 1_555
Al1 O0 1.900830 1_655
Al1 O23 1.921931 1_655
Al1 O4 2.018781 1_555
Al1 O3 2.024632 1_555
Al2 O38 1.866227 1_455
Al2 O40 1.897063 1_455
Al2 O19 1.915272 1_555
Al2 O34 1.934446 1_455
Al2 O9 1.998518 1_555
Al2 O18 2.003513 1_555
Al3 O24 1.874495 1_555
Al3 O26 1.874495 1_554
Al3 O45 1.894540 1_555
Al3 O28 1.894540 1_554
Al3 O32 2.049988 1_554
Al3 O30 2.049988 1_555
Al4 O32 1.902060 1_554
Al4 O30 1.902060 1_555
Al4 O9 1.904778 1_555
Al4 O33 1.904778 1_554
Al4 O18 1.909290 1_555
Al4 O43 1.909290 1_554
Al5 O12 1.882795 1_545
Al5 O1 1.893070 1_555
Al5 O27 1.900830 1_545
Al5 O16 1.921931 1_545
Al5 O10 2.018781 1_555
Al5 O46 2.024632 1_555
Al6 O13 1.900202 1_555
Al6 O8 1.900202 1_555
Al6 O3 1.912163 1_555
Al6 O46 1.912163 1_555
Al6 O10 1.912760 1_555
Al6 O4 1.912760 1_555
Al7 O41 1.866227 1_565
Al7 O11 1.897063 1_565
Al7 O31 1.915272 1_555
Al7 O35 1.934446 1_565
Al7 O33 1.998518 1_555
Al7 O43 2.003513 1_555
As0 O42 1.677970 1_555
As0 O47 1.723569 1_555
As0 O31 1.732096 1_555
As0 O32 1.775321 1_555
As1 O6 1.679191 1_555
As1 O41 1.713196 1_555
As1 O37 1.731773 1_555
As1 O46 1.778864 1_555
As2 O36 1.677835 1_555
As2 O26 1.717628 1_555
As2 O1 1.719836 1_555
As2 O8 1.802176 1_555
As3 O39 1.679191 1_555
As3 O38 1.713196 1_555
As3 O7 1.731773 1_555
As3 O3 1.778864 1_555
As4 O5 1.680793 1_555
As4 O40 1.728291 1_555
As4 O16 1.731313 1_555
As4 O4 1.777766 1_565
As5 O44 1.673559 1_556
As5 O12 1.721499 1_555
As5 O28 1.727629 1_555
As5 O43 1.775655 1_555
As6 O17 1.680793 1_555
As6 O11 1.728291 1_555
As6 O23 1.731313 1_555
As6 O10 1.777766 1_455
As7 O20 1.677835 1_555
As7 O24 1.717628 1_555
As7 O29 1.719836 1_555
As7 O13 1.802176 1_555
As8 O2 1.667506 1_555
As8 O0 1.728597 1_555
As8 O35 1.732774 1_554
As8 O9 1.785727 1_545
As9 O15 1.677970 1_555
As9 O14 1.723569 1_555
As9 O19 1.732096 1_555
As9 O30 1.775321 1_555
As10 O21 1.673559 1_554
As10 O25 1.721499 1_555
As10 O45 1.727629 1_555
As10 O18 1.775655 1_555
As11 O22 1.667506 1_555
As11 O27 1.728597 1_555
As11 O34 1.732774 1_556
As11 O33 1.785727 1_655
