# generated using pymatgen
data_NaCo(CO)4
_symmetry_space_group_name_H-M   'P 1'
_cell_length_a   5.64072800
_cell_length_b   9.31866000
_cell_length_c   13.93470200
_cell_angle_alpha   90.00000000
_cell_angle_beta   90.00000000
_cell_angle_gamma   90.00000000
_symmetry_Int_Tables_number   1
_chemical_formula_structural   NaCo(CO)4
_chemical_formula_sum   'Na4 Co4 C16 O16'
_cell_volume   732.46404359
_cell_formula_units_Z   4
loop_
 _symmetry_equiv_pos_site_id
 _symmetry_equiv_pos_as_xyz
  1  'x, y, z'
loop_
 _atom_site_type_symbol
 _atom_site_label
 _atom_site_symmetry_multiplicity
 _atom_site_fract_x
 _atom_site_fract_y
 _atom_site_fract_z
 _atom_site_occupancy
  Na  Na0  1  0.41322900  0.25000000  0.08420800  1
  Na  Na1  1  0.58677100  0.25000000  0.58420800  1
  Na  Na2  1  0.41322900  0.75000000  0.41579200  1
  Na  Na3  1  0.58677100  0.75000000  0.91579200  1
  Co  Co0  1  0.81231700  0.25000000  0.37736000  1
  Co  Co1  1  0.18768300  0.25000000  0.87736000  1
  Co  Co2  1  0.81231700  0.75000000  0.12264000  1
  Co  Co3  1  0.18768300  0.75000000  0.62264000  1
  C  C0  1  0.63693900  0.90427400  0.12315700  1
  C  C1  1  0.98758800  0.75000000  0.22533900  1
  C  C2  1  0.36306100  0.90427400  0.62315700  1
  C  C3  1  0.96999300  0.75000000  0.53448700  1
  C  C4  1  0.63693900  0.09572600  0.37684300  1
  C  C5  1  0.01241200  0.75000000  0.72533900  1
  C  C6  1  0.36306100  0.40427400  0.87684300  1
  C  C7  1  0.36306100  0.09572600  0.87684300  1
  C  C8  1  0.36306100  0.59572600  0.62315700  1
  C  C9  1  0.63693900  0.59572600  0.12315700  1
  C  C10  1  0.63693900  0.40427400  0.37684300  1
  C  C11  1  0.96999300  0.25000000  0.96551300  1
  C  C12  1  0.98758800  0.25000000  0.27466100  1
  C  C13  1  0.01241200  0.25000000  0.77466100  1
  C  C14  1  0.03000700  0.25000000  0.46551300  1
  C  C15  1  0.03000700  0.75000000  0.03448700  1
  O  O0  1  0.11644300  0.25000000  0.20853200  1
  O  O1  1  0.19180400  0.75000000  0.98122200  1
  O  O2  1  0.52137800  0.99077900  0.37446600  1
  O  O3  1  0.47862200  0.99077900  0.87446600  1
  O  O4  1  0.88355700  0.25000000  0.70853200  1
  O  O5  1  0.52137800  0.00922100  0.12553400  1
  O  O6  1  0.80819600  0.75000000  0.48122200  1
  O  O7  1  0.52137800  0.50922100  0.37446600  1
  O  O8  1  0.80819600  0.25000000  0.01877800  1
  O  O9  1  0.52137800  0.49077900  0.12553400  1
  O  O10  1  0.47862200  0.00922100  0.62553400  1
  O  O11  1  0.19180400  0.25000000  0.51877800  1
  O  O12  1  0.47862200  0.50922100  0.87446600  1
  O  O13  1  0.11644300  0.75000000  0.29146800  1
  O  O14  1  0.47862200  0.49077900  0.62553400  1
  O  O15  1  0.88355700  0.75000000  0.79146800  1
loop_
_geom_bond_atom_site_label_1
_geom_bond_atom_site_label_2
_geom_bond_distance
_geom_bond_site_symmetry_2
Na0 O5 2.395439 1_555
Na0 O9 2.395439 1_555
Na0 O8 2.407245 1_555
Na0 O0 2.409117 1_555
Na1 O14 2.395439 1_555
Na1 O10 2.395439 1_555
Na1 O11 2.407245 1_555
Na1 O4 2.409117 1_555
Na2 O7 2.395439 1_555
Na2 O2 2.395439 1_555
Na2 O6 2.407245 1_555
Na2 O13 2.409117 1_555
Na3 O12 2.395439 1_555
Na3 O3 2.395439 1_555
Na3 O1 2.407245 1_555
Na3 O15 2.409117 1_555
C0 O5 1.175763 1_565
C0 Co2 1.745124 1_555
C1 O13 1.173640 1_655
C1 Co2 1.739377 1_555
C2 O10 1.175763 1_565
C2 Co3 1.745124 1_555
C3 O6 1.176369 1_555
C3 Co3 1.736878 1_655
C4 O2 1.175763 1_545
C4 Co0 1.745124 1_555
C5 O15 1.173640 1_455
C5 Co3 1.739377 1_555
C6 O12 1.175763 1_555
C6 Co1 1.745124 1_555
C7 O3 1.175763 1_545
C7 Co1 1.745124 1_555
C8 O14 1.175763 1_555
C8 Co3 1.745124 1_555
C9 O9 1.175763 1_555
C9 Co2 1.745124 1_555
C10 O7 1.175763 1_555
C10 Co0 1.745124 1_555
C11 O8 1.176369 1_556
C11 Co1 1.736878 1_655
C12 O0 1.173640 1_655
C12 Co0 1.739377 1_555
C13 O4 1.173640 1_455
C13 Co1 1.739377 1_555
C14 O11 1.176369 1_555
C14 Co0 1.736878 1_455
C15 O1 1.176369 1_554
C15 Co2 1.736878 1_455
