# generated using pymatgen
data_SrBPO5
_symmetry_space_group_name_H-M   'P 1'
_cell_length_a   6.93536451
_cell_length_b   6.93536451
_cell_length_c   6.89567700
_cell_angle_alpha   90.00000000
_cell_angle_beta   90.00000000
_cell_angle_gamma   120.00000489
_symmetry_Int_Tables_number   1
_chemical_formula_structural   SrBPO5
_chemical_formula_sum   'Sr3 B3 P3 O15'
_cell_volume   287.24078476
_cell_formula_units_Z   3
loop_
 _symmetry_equiv_pos_site_id
 _symmetry_equiv_pos_as_xyz
  1  'x, y, z'
loop_
 _atom_site_type_symbol
 _atom_site_label
 _atom_site_symmetry_multiplicity
 _atom_site_fract_x
 _atom_site_fract_y
 _atom_site_fract_z
 _atom_site_occupancy
  Sr  Sr0  1  0.00000000  0.39411000  0.83333300  1
  Sr  Sr1  1  0.39411000  0.00000000  0.16666700  1
  Sr  Sr2  1  0.60589000  0.60589000  0.50000000  1
  B  B0  1  0.09846900  0.09846900  0.50000000  1
  B  B1  1  0.00000000  0.90153100  0.83333300  1
  B  B2  1  0.90153100  0.00000000  0.16666700  1
  P  P0  1  0.59551200  0.59551200  0.00000000  1
  P  P1  1  0.40448800  0.00000000  0.66666700  1
  P  P2  1  0.00000000  0.40448800  0.33333300  1
  O  O0  1  0.95683300  0.00000000  0.66666700  1
  O  O1  1  0.86201000  0.44883600  0.47758600  1
  O  O2  1  0.04316700  0.04316700  0.00000000  1
  O  O3  1  0.85074000  0.18753700  0.20476200  1
  O  O4  1  0.81246300  0.66320300  0.87142800  1
  O  O5  1  0.33679700  0.14926000  0.53809500  1
  O  O6  1  0.41317400  0.55116400  0.85574700  1
  O  O7  1  0.58682600  0.13799000  0.81091900  1
  O  O8  1  0.18753700  0.85074000  0.79523800  1
  O  O9  1  0.66320300  0.81246300  0.12857200  1
  O  O10  1  0.55116400  0.41317400  0.14425300  1
  O  O11  1  0.44883600  0.86201000  0.52241400  1
  O  O12  1  0.00000000  0.95683300  0.33333300  1
  O  O13  1  0.13799000  0.58682600  0.18908100  1
  O  O14  1  0.14926000  0.33679700  0.46190500  1
loop_
_geom_bond_atom_site_label_1
_geom_bond_atom_site_label_2
_geom_bond_distance
_geom_bond_site_symmetry_2
B0 O0 1.442673 1_455
B0 O12 1.442673 1_545
B0 O14 1.530654 1_555
B0 O5 1.530654 1_555
B1 O0 1.442667 1_465
B1 O2 1.442673 1_566
B1 O4 1.530654 1_455
B1 O8 1.530654 1_555
B2 O12 1.442667 1_645
B2 O2 1.442673 1_655
B2 O9 1.530654 1_545
B2 O3 1.530654 1_555
O0 Sr0 2.839556 1_655
O0 Sr2 2.839559 1_545
O1 P2 1.514691 1_655
O1 Sr2 2.510034 1_555
O1 Sr0 2.727807 1_655
O2 Sr0 2.839559 1_554
O2 Sr1 2.839559 1_555
O3 P2 1.601244 1_655
O3 Sr1 2.769640 1_555
O3 Sr0 2.863751 1_654
O4 P0 1.601248 1_556
O4 Sr0 2.769641 1_655
O4 Sr2 2.863745 1_555
O5 P1 1.601248 1_555
O5 Sr2 2.769640 1_555
O5 Sr1 2.863745 1_555
O6 P0 1.514691 1_556
O6 Sr0 2.510034 1_555
O6 Sr2 2.727807 1_555
O7 P1 1.514686 1_555
O7 Sr0 2.510034 1_655
O7 Sr1 2.727813 1_556
O8 P1 1.601244 1_565
O8 Sr0 2.769640 1_555
O8 Sr1 2.863751 1_566
O9 P0 1.601248 1_555
O9 Sr1 2.769641 1_565
O9 Sr2 2.863745 1_555
O10 P0 1.514691 1_555
O10 Sr1 2.510034 1_555
O10 Sr2 2.727807 1_555
O11 P1 1.514691 1_565
O11 Sr2 2.510034 1_555
O11 Sr1 2.727807 1_565
O12 Sr1 2.839556 1_565
O12 Sr2 2.839559 1_455
O13 P2 1.514686 1_555
O13 Sr1 2.510034 1_565
O13 Sr0 2.727813 1_554
O14 P2 1.601248 1_555
O14 Sr2 2.769640 1_555
O14 Sr0 2.863745 1_555
