# generated using pymatgen
data_Pr4Te3N2
_symmetry_space_group_name_H-M   'P 1'
_cell_length_a   7.46503285
_cell_length_b   11.50500034
_cell_length_c   11.87047371
_cell_angle_alpha   90.00000000
_cell_angle_beta   90.00000000
_cell_angle_gamma   90.00000000
_symmetry_Int_Tables_number   1
_chemical_formula_structural   Pr4Te3N2
_chemical_formula_sum   'Pr16 Te12 N8'
_cell_volume   1019.49807370
_cell_formula_units_Z   4
loop_
 _symmetry_equiv_pos_site_id
 _symmetry_equiv_pos_as_xyz
  1  'x, y, z'
loop_
 _atom_site_type_symbol
 _atom_site_label
 _atom_site_symmetry_multiplicity
 _atom_site_fract_x
 _atom_site_fract_y
 _atom_site_fract_z
 _atom_site_occupancy
  Pr  Pr0  1  0.85316074  0.60952229  0.45083809  1
  Pr  Pr1  1  0.14683926  0.39047771  0.54916191  1
  Pr  Pr2  1  0.09135837  0.65850084  0.75000000  1
  Pr  Pr3  1  0.22922714  0.03163920  0.75000000  1
  Pr  Pr4  1  0.27077286  0.53163920  0.25000000  1
  Pr  Pr5  1  0.40864163  0.15850084  0.25000000  1
  Pr  Pr6  1  0.14683926  0.39047771  0.95083809  1
  Pr  Pr7  1  0.77077286  0.96836080  0.25000000  1
  Pr  Pr8  1  0.72922714  0.46836080  0.75000000  1
  Pr  Pr9  1  0.59135837  0.84149916  0.75000000  1
  Pr  Pr10  1  0.35316074  0.89047771  0.45083809  1
  Pr  Pr11  1  0.64683926  0.10952229  0.95083809  1
  Pr  Pr12  1  0.35316074  0.89047771  0.04916191  1
  Pr  Pr13  1  0.90864163  0.34149916  0.25000000  1
  Pr  Pr14  1  0.85316074  0.60952229  0.04916191  1
  Pr  Pr15  1  0.64683926  0.10952229  0.54916191  1
  Te  Te0  1  0.91676965  0.22533828  0.75000000  1
  Te  Te1  1  0.08323035  0.77466172  0.25000000  1
  Te  Te2  1  0.56575076  0.36386015  0.42044254  1
  Te  Te3  1  0.06575076  0.13613985  0.07955746  1
  Te  Te4  1  0.41676965  0.27466172  0.75000000  1
  Te  Te5  1  0.58323035  0.72533828  0.25000000  1
  Te  Te6  1  0.56575076  0.36386015  0.07955746  1
  Te  Te7  1  0.43424924  0.63613985  0.57955746  1
  Te  Te8  1  0.93424924  0.86386015  0.92044254  1
  Te  Te9  1  0.93424924  0.86386015  0.57955746  1
  Te  Te10  1  0.06575076  0.13613985  0.42044254  1
  Te  Te11  1  0.43424924  0.63613985  0.92044254  1
  N  N0  1  0.05294247  0.46777216  0.37800940  1
  N  N1  1  0.55294247  0.03222784  0.12199060  1
  N  N2  1  0.44705753  0.96777216  0.62199060  1
  N  N3  1  0.94705753  0.53222784  0.62199060  1
  N  N4  1  0.94705753  0.53222784  0.87800940  1
  N  N5  1  0.44705753  0.96777216  0.87800940  1
  N  N6  1  0.55294247  0.03222784  0.37800940  1
  N  N7  1  0.05294247  0.46777216  0.12199060  1
loop_
_geom_bond_atom_site_label_1
_geom_bond_atom_site_label_2
_geom_bond_distance
_geom_bond_site_symmetry_2
Pr0 Te9 3.356111 1_555
Pr0 Te5 3.394039 1_555
Pr0 Te7 3.493959 1_555
Pr0 Te1 3.499017 1_655
Pr0 Te2 3.566746 1_555
Pr1 Te10 3.356111 1_555
Pr1 Te4 3.394039 1_555
Pr1 Te2 3.493959 1_555
Pr1 Te0 3.499017 1_455
Pr1 Te7 3.566746 1_555
Pr2 Te11 3.272870 1_555
Pr2 Te7 3.272870 1_555
Pr2 Te9 3.324327 1_455
Pr2 Te8 3.324327 1_455
Pr3 Te4 3.126900 1_555
Pr3 Te0 3.225962 1_455
Pr3 Te9 3.559272 1_445
Pr3 Te8 3.559272 1_445
Pr4 Te1 3.126900 1_555
Pr4 Te5 3.225962 1_555
Pr4 Te6 3.559272 1_555
Pr4 Te2 3.559272 1_555
Pr5 Te10 3.272870 1_555
Pr5 Te3 3.272870 1_555
Pr5 Te6 3.324327 1_555
Pr5 Te2 3.324327 1_555
Pr6 Te3 3.356111 1_556
Pr6 Te4 3.394039 1_555
Pr6 Te6 3.493959 1_556
Pr6 Te0 3.499017 1_455
Pr6 Te11 3.566746 1_555
Pr7 Te5 3.126900 1_555
Pr7 Te1 3.225962 1_655
Pr7 Te3 3.559272 1_665
Pr7 Te10 3.559272 1_665
Pr8 Te0 3.126900 1_555
Pr8 Te4 3.225962 1_555
Pr8 Te7 3.559272 1_555
Pr8 Te11 3.559272 1_555
Pr9 Te8 3.272870 1_555
Pr9 Te9 3.272870 1_555
Pr9 Te11 3.324327 1_555
Pr9 Te7 3.324327 1_555
Pr10 Te7 3.356111 1_555
Pr10 Te1 3.394039 1_555
Pr10 Te9 3.493959 1_455
Pr10 Te5 3.499017 1_555
Pr10 Te10 3.566746 1_565
Pr11 Te6 3.356111 1_556
Pr11 Te0 3.394039 1_555
Pr11 Te3 3.493959 1_656
Pr11 Te4 3.499017 1_555
Pr11 Te8 3.566746 1_545
Pr12 Te11 3.356111 1_554
Pr12 Te1 3.394039 1_555
Pr12 Te8 3.493959 1_454
Pr12 Te5 3.499017 1_555
Pr12 Te3 3.566746 1_565
Pr13 Te2 3.272870 1_555
Pr13 Te6 3.272870 1_555
Pr13 Te3 3.324327 1_655
Pr13 Te10 3.324327 1_655
Pr14 Te8 3.356111 1_554
Pr14 Te5 3.394039 1_555
Pr14 Te11 3.493959 1_554
Pr14 Te1 3.499017 1_655
Pr14 Te6 3.566746 1_555
Pr15 Te2 3.356111 1_555
Pr15 Te0 3.394039 1_555
Pr15 Te10 3.493959 1_655
Pr15 Te4 3.499017 1_555
Pr15 Te9 3.566746 1_545
N0 Pr1 2.325892 1_555
N0 Pr4 2.343743 1_555
N0 Pr13 2.362182 1_455
N0 Pr0 2.373017 1_455
N1 Pr11 2.325892 1_554
N1 Pr7 2.343743 1_545
N1 Pr5 2.362182 1_555
N1 Pr12 2.373017 1_545
N2 Pr10 2.325892 1_555
N2 Pr3 2.343743 1_565
N2 Pr9 2.362182 1_555
N2 Pr15 2.373017 1_565
N3 Pr0 2.325892 1_555
N3 Pr8 2.343743 1_555
N3 Pr2 2.362182 1_655
N3 Pr1 2.373017 1_655
N4 Pr14 2.325892 1_556
N4 Pr8 2.343743 1_555
N4 Pr2 2.362182 1_655
N4 Pr6 2.373017 1_655
N5 Pr12 2.325892 1_556
N5 Pr3 2.343743 1_565
N5 Pr9 2.362182 1_555
N5 Pr11 2.373017 1_565
N6 Pr15 2.325892 1_555
N6 Pr7 2.343743 1_545
N6 Pr5 2.362182 1_555
N6 Pr10 2.373017 1_545
N7 Pr6 2.325892 1_554
N7 Pr4 2.343743 1_555
N7 Pr13 2.362182 1_455
N7 Pr14 2.373017 1_455
