# generated using pymatgen
data_KCa10V7O28
_symmetry_space_group_name_H-M   'P 1'
_cell_length_a   14.23949873
_cell_length_b   14.23949873
_cell_length_c   14.23949853
_cell_angle_alpha   45.55360567
_cell_angle_beta   45.55360567
_cell_angle_gamma   45.55360905
_symmetry_Int_Tables_number   1
_chemical_formula_structural   KCa10V7O28
_chemical_formula_sum   'K2 Ca20 V14 O56'
_cell_volume   1340.92583073
_cell_formula_units_Z   2
loop_
 _symmetry_equiv_pos_site_id
 _symmetry_equiv_pos_as_xyz
  1  'x, y, z'
loop_
 _atom_site_type_symbol
 _atom_site_label
 _atom_site_symmetry_multiplicity
 _atom_site_fract_x
 _atom_site_fract_y
 _atom_site_fract_z
 _atom_site_occupancy
  K  K0  1  0.29688600  0.29688600  0.29688600  1
  K  K1  1  0.79688600  0.79688600  0.79688600  1
  Ca  Ca0  1  0.48027700  0.48027700  0.48027700  1
  Ca  Ca1  1  0.63705900  0.07477800  0.02728700  1
  Ca  Ca2  1  0.91124300  0.32440700  0.91452100  1
  Ca  Ca3  1  0.02728700  0.63705900  0.07477800  1
  Ca  Ca4  1  0.91452100  0.91124300  0.32440700  1
  Ca  Ca5  1  0.41919800  0.00225800  0.04473900  1
  Ca  Ca6  1  0.82440700  0.41124300  0.41452100  1
  Ca  Ca7  1  0.41124300  0.41452100  0.82440700  1
  Ca  Ca8  1  0.07477800  0.02728700  0.63705900  1
  Ca  Ca9  1  0.32440700  0.91452100  0.91124300  1
  Ca  Ca10  1  0.98027700  0.98027700  0.98027700  1
  Ca  Ca11  1  0.57477800  0.13705900  0.52728700  1
  Ca  Ca12  1  0.52728700  0.57477800  0.13705900  1
  Ca  Ca13  1  0.13705900  0.52728700  0.57477800  1
  Ca  Ca14  1  0.91919800  0.54473900  0.50225800  1
  Ca  Ca15  1  0.00225800  0.04473900  0.41919800  1
  Ca  Ca16  1  0.50225800  0.91919800  0.54473900  1
  Ca  Ca17  1  0.41452100  0.82440700  0.41124300  1
  Ca  Ca18  1  0.04473900  0.41919800  0.00225800  1
  Ca  Ca19  1  0.54473900  0.50225800  0.91919800  1
  V  V0  1  0.66956400  0.71116400  0.15752900  1
  V  V1  1  0.21116400  0.16956400  0.65752900  1
  V  V2  1  0.30197500  0.24762200  0.79682800  1
  V  V3  1  0.15752900  0.66956400  0.71116400  1
  V  V4  1  0.74762200  0.80197500  0.29682800  1
  V  V5  1  0.80197500  0.29682800  0.74762200  1
  V  V6  1  0.79682800  0.30197500  0.24762200  1
  V  V7  1  0.71184900  0.71184800  0.71184900  1
  V  V8  1  0.24762200  0.79682800  0.30197500  1
  V  V9  1  0.65752900  0.21116400  0.16956400  1
  V  V10  1  0.16956400  0.65752900  0.21116400  1
  V  V11  1  0.29682800  0.74762200  0.80197500  1
  V  V12  1  0.71116400  0.15752900  0.66956400  1
  V  V13  1  0.21184900  0.21184900  0.21184900  1
  O  O0  1  0.62089400  0.35985600  0.80322100  1
  O  O1  1  0.07205000  0.85658600  0.64235900  1
  O  O2  1  0.08313300  0.60065000  0.72537700  1
  O  O3  1  0.10386500  0.11608400  0.84323800  1
  O  O4  1  0.06192400  0.85027100  0.40436800  1
  O  O5  1  0.88183800  0.57931400  0.71543600  1
  O  O6  1  0.16619800  0.16619800  0.16619800  1
  O  O7  1  0.10826700  0.83238200  0.87081000  1
  O  O8  1  0.10065000  0.58313300  0.22537700  1
  O  O9  1  0.58313300  0.22537700  0.10065000  1
  O  O10  1  0.84323800  0.10386500  0.11608400  1
  O  O11  1  0.35658600  0.57205000  0.14235900  1
  O  O12  1  0.64235900  0.07205000  0.85658600  1
  O  O13  1  0.60386500  0.34323800  0.61608400  1
  O  O14  1  0.36734100  0.80026000  0.81210200  1
  O  O15  1  0.33238200  0.60826700  0.37081000  1
  O  O16  1  0.64821700  0.38514100  0.07676800  1
  O  O17  1  0.38514100  0.07676800  0.64821700  1
  O  O18  1  0.85985600  0.12089400  0.30322100  1
  O  O19  1  0.66619800  0.66619800  0.66619800  1
  O  O20  1  0.60065000  0.72537700  0.08313300  1
  O  O21  1  0.37081000  0.33238200  0.60826700  1
  O  O22  1  0.71543600  0.88183800  0.57931400  1
  O  O23  1  0.35985600  0.80322100  0.62089400  1
  O  O24  1  0.85027100  0.40436800  0.06192400  1
  O  O25  1  0.72537700  0.08313300  0.60065000  1
  O  O26  1  0.12089400  0.30322100  0.85985600  1
  O  O27  1  0.80322100  0.62089400  0.35985600  1
  O  O28  1  0.57931400  0.71543600  0.88183800  1
  O  O29  1  0.35027100  0.56192400  0.90436800  1
  O  O30  1  0.38183800  0.21543600  0.07931400  1
  O  O31  1  0.83238200  0.87081000  0.10826700  1
  O  O32  1  0.80026000  0.81210200  0.36734100  1
  O  O33  1  0.60826700  0.37081000  0.33238200  1
  O  O34  1  0.86734100  0.31210200  0.30026000  1
  O  O35  1  0.81210200  0.36734100  0.80026000  1
  O  O36  1  0.14235900  0.35658600  0.57205000  1
  O  O37  1  0.34323800  0.61608400  0.60386500  1
  O  O38  1  0.40436800  0.06192400  0.85027100  1
  O  O39  1  0.14821700  0.57676800  0.88514100  1
  O  O40  1  0.61608400  0.60386500  0.34323800  1
  O  O41  1  0.88514100  0.14821700  0.57676800  1
  O  O42  1  0.85658600  0.64235900  0.07205000  1
  O  O43  1  0.56192400  0.90436800  0.35027100  1
  O  O44  1  0.57676800  0.88514100  0.14821700  1
  O  O45  1  0.21543600  0.07931400  0.38183800  1
  O  O46  1  0.30322100  0.85985600  0.12089400  1
  O  O47  1  0.30026000  0.86734100  0.31210200  1
  O  O48  1  0.22537700  0.10065000  0.58313300  1
  O  O49  1  0.87081000  0.10826700  0.83238200  1
  O  O50  1  0.31210200  0.30026000  0.86734100  1
  O  O51  1  0.07931400  0.38183800  0.21543600  1
  O  O52  1  0.07676800  0.64821700  0.38514100  1
  O  O53  1  0.11608400  0.84323800  0.10386500  1
  O  O54  1  0.57205000  0.14235900  0.35658600  1
  O  O55  1  0.90436800  0.35027100  0.56192400  1
loop_
_geom_bond_atom_site_label_1
_geom_bond_atom_site_label_2
_geom_bond_distance
_geom_bond_site_symmetry_2
K0 O48 2.771301 1_555
K0 O9 2.771301 1_555
K0 O8 2.771301 1_555
K1 O20 2.771301 1_556
K1 O25 2.771301 1_565
K1 O2 2.771301 1_655
Ca0 O40 2.305735 1_555
Ca0 O13 2.305735 1_555
Ca0 O37 2.305735 1_555
Ca0 O21 2.330197 1_555
Ca0 O33 2.330197 1_555
Ca0 O15 2.330197 1_555
Ca1 O44 2.378705 1_545
Ca1 O12 2.405558 1_554
Ca1 O30 2.425153 1_555
Ca1 O9 2.446922 1_555
Ca1 O31 2.447231 1_545
Ca1 O49 2.537907 1_554
Ca1 O0 2.879670 1_554
Ca1 O43 3.049603 1_545
Ca2 O26 2.328573 1_655
Ca2 O35 2.372530 1_555
Ca2 O24 2.422017 1_556
Ca2 O16 2.501356 1_556
Ca2 O3 2.505197 1_655
Ca2 O5 2.551466 1_555
Ca2 O10 2.604031 1_556
Ca3 O39 2.378705 1_554
Ca3 O42 2.405558 1_455
Ca3 O51 2.425153 1_555
Ca3 O8 2.446922 1_555
Ca3 O7 2.447230 1_554
Ca3 O31 2.537907 1_455
Ca3 O27 2.879670 1_455
Ca3 O29 3.049603 1_554
Ca4 O18 2.328573 1_565
Ca4 O32 2.372530 1_555
Ca4 O4 2.422017 1_655
Ca4 O52 2.501356 1_655
Ca4 O10 2.505197 1_565
Ca4 O22 2.551466 1_555
Ca4 O53 2.604031 1_655
Ca5 O38 2.388992 1_554
Ca5 O44 2.436166 1_545
Ca5 O47 2.517301 1_545
Ca5 O6 2.563141 1_555
Ca5 O12 2.652181 1_554
Ca5 O46 2.667806 1_545
Ca5 O20 2.685558 1_545
Ca5 O50 2.834318 1_554
Ca5 O30 3.033901 1_555
Ca6 O27 2.328573 1_555
Ca6 O34 2.372530 1_555
Ca6 O55 2.422017 1_555
Ca6 O41 2.501356 1_555
Ca6 O40 2.505197 1_555
Ca6 O51 2.551466 1_655
Ca6 O13 2.604031 1_555
Ca7 O0 2.328573 1_555
Ca7 O50 2.372530 1_555
Ca7 O29 2.422017 1_555
Ca7 O39 2.501356 1_555
Ca7 O13 2.505197 1_555
Ca7 O30 2.551466 1_556
Ca7 O37 2.604031 1_555
Ca8 O41 2.378706 1_455
Ca8 O1 2.405558 1_545
Ca8 O45 2.425153 1_555
Ca8 O48 2.446922 1_555
Ca8 O49 2.447230 1_455
Ca8 O7 2.537907 1_545
Ca8 O23 2.879670 1_545
Ca8 O55 3.049603 1_455
Ca9 O46 2.328573 1_556
Ca9 O14 2.372530 1_555
Ca9 O38 2.422017 1_565
Ca9 O17 2.501356 1_565
Ca9 O53 2.505196 1_556
Ca9 O28 2.551467 1_555
Ca9 O3 2.604031 1_565
Ca10 O3 2.305735 1_665
Ca10 O10 2.305735 1_566
Ca10 O53 2.305735 1_656
Ca10 O31 2.330197 1_556
Ca10 O49 2.330197 1_565
Ca10 O7 2.330197 1_655
Ca11 O17 2.378705 1_555
Ca11 O54 2.405558 1_555
Ca11 O22 2.425153 1_545
Ca11 O25 2.446922 1_555
Ca11 O21 2.447231 1_555
Ca11 O33 2.537907 1_555
Ca11 O18 2.879670 1_555
Ca11 O38 3.049603 1_555
Ca12 O16 2.378706 1_555
Ca12 O11 2.405558 1_555
Ca12 O28 2.425153 1_554
Ca12 O20 2.446922 1_555
Ca12 O33 2.447230 1_555
Ca12 O15 2.537907 1_555
Ca12 O46 2.879670 1_555
Ca12 O24 3.049603 1_555
Ca13 O52 2.378705 1_555
Ca13 O36 2.405558 1_555
Ca13 O5 2.425153 1_455
Ca13 O2 2.446922 1_555
Ca13 O15 2.447230 1_555
Ca13 O21 2.537907 1_555
Ca13 O26 2.879670 1_555
Ca13 O4 3.049603 1_555
Ca14 O55 2.388992 1_555
Ca14 O52 2.436166 1_655
Ca14 O32 2.517301 1_555
Ca14 O19 2.563141 1_555
Ca14 O36 2.652181 1_655
Ca14 O27 2.667806 1_555
Ca14 O8 2.685558 1_655
Ca14 O35 2.834317 1_555
Ca14 O5 3.033901 1_555
Ca15 O4 2.388992 1_545
Ca15 O41 2.436166 1_455
Ca15 O34 2.517301 1_455
Ca15 O6 2.563141 1_555
Ca15 O1 2.652181 1_545
Ca15 O18 2.667806 1_455
Ca15 O25 2.685558 1_455
Ca15 O47 2.834318 1_545
Ca15 O45 3.033901 1_555
Ca16 O43 2.388992 1_555
Ca16 O17 2.436166 1_565
Ca16 O14 2.517301 1_555
Ca16 O19 2.563141 1_555
Ca16 O54 2.652181 1_565
Ca16 O23 2.667806 1_555
Ca16 O48 2.685558 1_565
Ca16 O32 2.834318 1_555
Ca16 O22 3.033901 1_555
Ca17 O23 2.328573 1_555
Ca17 O47 2.372530 1_555
Ca17 O43 2.422017 1_555
Ca17 O44 2.501356 1_555
Ca17 O37 2.505196 1_555
Ca17 O45 2.551467 1_565
Ca17 O40 2.604031 1_555
Ca18 O24 2.388992 1_455
Ca18 O39 2.436166 1_554
Ca18 O50 2.517301 1_554
Ca18 O6 2.563141 1_555
Ca18 O42 2.652181 1_455
Ca18 O26 2.667806 1_554
Ca18 O2 2.685558 1_554
Ca18 O34 2.834317 1_455
Ca18 O51 3.033901 1_555
Ca19 O29 2.388992 1_555
Ca19 O16 2.436166 1_556
Ca19 O35 2.517301 1_555
Ca19 O19 2.563141 1_555
Ca19 O11 2.652181 1_556
Ca19 O0 2.667806 1_555
Ca19 O9 2.685558 1_556
Ca19 O14 2.834318 1_555
Ca19 O28 3.033901 1_555
O0 V5 1.725149 1_555
O1 V3 1.734915 1_555
O2 V3 1.733099 1_555
O3 V1 1.748718 1_555
O4 V8 1.741657 1_555
O5 V7 1.750393 1_555
O6 V13 1.744436 1_555
O7 V11 1.749083 1_555
O8 V10 1.733099 1_555
O9 V9 1.733099 1_555
O10 V9 1.748719 1_555
O11 V10 1.734915 1_555
O12 V12 1.734915 1_555
O13 V12 1.748719 1_555
O14 V11 1.731732 1_555
O15 V8 1.749083 1_555
O16 V9 1.761167 1_555
O17 V1 1.761167 1_555
O18 V6 1.725149 1_555
O19 V7 1.744423 1_555
O20 V0 1.733099 1_555
O21 V2 1.749083 1_555
O22 V7 1.750404 1_555
O23 V11 1.725149 1_555
O24 V6 1.741657 1_555
O25 V12 1.733099 1_555
O26 V2 1.725149 1_555
O27 V4 1.725149 1_555
O28 V7 1.750398 1_555
O29 V11 1.741657 1_555
O30 V13 1.750395 1_555
O31 V4 1.749083 1_555
O32 V4 1.731732 1_555
O33 V6 1.749083 1_555
O34 V6 1.731732 1_555
O35 V5 1.731732 1_555
O36 V1 1.734915 1_555
O37 V3 1.748718 1_555
O38 V2 1.741657 1_555
O39 V3 1.761166 1_555
O40 V0 1.748718 1_555
O41 V12 1.761167 1_555
O42 V0 1.734915 1_555
O43 V4 1.741657 1_555
O44 V0 1.761167 1_555
O45 V13 1.750395 1_555
O46 V8 1.725149 1_555
O47 V8 1.731732 1_555
O48 V1 1.733099 1_555
O49 V5 1.749083 1_555
O50 V2 1.731732 1_555
O51 V13 1.750395 1_555
O52 V10 1.761166 1_555
O53 V10 1.748718 1_555
O54 V9 1.734915 1_555
O55 V5 1.741657 1_555
