# generated using pymatgen
data_Ba7B4S13
_symmetry_space_group_name_H-M   'P 1'
_cell_length_a   13.14206479
_cell_length_b   13.14206479
_cell_length_c   10.25851560
_cell_angle_alpha   89.96759804
_cell_angle_beta   89.96759804
_cell_angle_gamma   134.02326783
_symmetry_Int_Tables_number   1
_chemical_formula_structural   Ba7B4S13
_chemical_formula_sum   'Ba14 B8 S26'
_cell_volume   1274.01628895
_cell_formula_units_Z   2
loop_
 _symmetry_equiv_pos_site_id
 _symmetry_equiv_pos_as_xyz
  1  'x, y, z'
loop_
 _atom_site_type_symbol
 _atom_site_label
 _atom_site_symmetry_multiplicity
 _atom_site_fract_x
 _atom_site_fract_y
 _atom_site_fract_z
 _atom_site_occupancy
  Ba  Ba0  1  0.00853696  0.99146304  0.25000000  1
  Ba  Ba1  1  0.99146304  0.00853696  0.75000000  1
  Ba  Ba2  1  0.10478449  0.45437849  0.85589642  1
  Ba  Ba3  1  0.49775277  0.50224723  0.75000000  1
  Ba  Ba4  1  0.89521551  0.54562151  0.14410358  1
  Ba  Ba5  1  0.50224723  0.49775277  0.25000000  1
  Ba  Ba6  1  0.06623183  0.72201785  0.53008062  1
  Ba  Ba7  1  0.27798215  0.93376817  0.96991938  1
  Ba  Ba8  1  0.33170925  0.66829075  0.25000000  1
  Ba  Ba9  1  0.93376817  0.27798215  0.46991938  1
  Ba  Ba10  1  0.66829075  0.33170925  0.75000000  1
  Ba  Ba11  1  0.72201785  0.06623183  0.03008062  1
  Ba  Ba12  1  0.45437849  0.10478449  0.35589642  1
  Ba  Ba13  1  0.54562151  0.89521551  0.64410358  1
  B  B0  1  0.06777214  0.29198421  0.15006863  1
  B  B1  1  0.71616251  0.48186355  0.43232601  1
  B  B2  1  0.51813645  0.28383749  0.06767399  1
  B  B3  1  0.28383749  0.51813645  0.56767399  1
  B  B4  1  0.70801579  0.93222786  0.34993137  1
  B  B5  1  0.29198421  0.06777214  0.65006863  1
  B  B6  1  0.48186355  0.71616251  0.93232601  1
  B  B7  1  0.93222786  0.70801579  0.84993137  1
  S  S0  1  0.99835251  0.37616961  0.15230907  1
  S  S1  1  0.62383039  0.00164749  0.34769093  1
  S  S2  1  0.16529376  0.31938553  0.29245022  1
  S  S3  1  0.37489314  0.53984041  0.99814726  1
  S  S4  1  0.00164749  0.62383039  0.84769093  1
  S  S5  1  0.62510686  0.46015959  0.00185274  1
  S  S6  1  0.31938553  0.16529376  0.79245022  1
  S  S7  1  0.79563592  0.20436408  0.75000000  1
  S  S8  1  0.82292650  0.97522844  0.48387441  1
  S  S9  1  0.97522844  0.82292650  0.98387441  1
  S  S10  1  0.18651918  0.34827827  0.64667298  1
  S  S11  1  0.37616961  0.99835251  0.65230907  1
  S  S12  1  0.53984041  0.37489314  0.49814726  1
  S  S13  1  0.68061447  0.83470624  0.20754978  1
  S  S14  1  0.83470624  0.68061447  0.70754978  1
  S  S15  1  0.02477156  0.17707350  0.01612559  1
  S  S16  1  0.65172173  0.81348082  0.85332702  1
  S  S17  1  0.20436408  0.79563592  0.25000000  1
  S  S18  1  0.81348082  0.65172173  0.35332702  1
  S  S19  1  0.20811081  0.59530519  0.56144148  1
  S  S20  1  0.40469481  0.79188919  0.93855852  1
  S  S21  1  0.59530519  0.20811081  0.06144148  1
  S  S22  1  0.17707350  0.02477156  0.51612559  1
  S  S23  1  0.34827827  0.18651918  0.14667298  1
  S  S24  1  0.79188919  0.40469481  0.43855852  1
  S  S25  1  0.46015959  0.62510686  0.50185274  1
loop_
_geom_bond_atom_site_label_1
_geom_bond_atom_site_label_2
_geom_bond_distance
_geom_bond_site_symmetry_2
Ba0 S2 3.266416 1_565
Ba0 S13 3.266416 1_455
Ba0 S8 3.319842 1_455
Ba0 S15 3.319842 1_565
Ba0 S22 3.348323 1_565
Ba0 S9 3.348323 1_454
Ba0 S18 3.422512 1_455
Ba0 S23 3.422512 1_565
Ba1 S6 3.266416 1_655
Ba1 S14 3.266416 1_545
Ba1 S9 3.319842 1_545
Ba1 S22 3.319842 1_655
Ba1 S15 3.348323 1_656
Ba1 S8 3.348323 1_545
Ba1 S10 3.422512 1_655
Ba1 S16 3.422512 1_545
Ba2 S10 3.128476 1_555
Ba2 S7 3.152385 1_455
Ba2 S0 3.201957 1_456
Ba2 S3 3.233917 1_555
Ba2 S19 3.300309 1_555
Ba2 S4 3.316457 1_555
Ba2 S20 3.411367 1_555
Ba2 S15 3.428383 1_556
Ba3 S25 3.230607 1_555
Ba3 S3 3.230607 1_555
Ba3 S16 3.232950 1_555
Ba3 S10 3.232950 1_555
Ba3 S14 3.295912 1_555
Ba3 S6 3.295912 1_555
Ba3 S5 3.327514 1_556
Ba3 S12 3.327514 1_555
Ba4 S18 3.128476 1_555
Ba4 S17 3.152385 1_655
Ba4 S4 3.201957 1_654
Ba4 S5 3.233917 1_555
Ba4 S24 3.300309 1_555
Ba4 S0 3.316457 1_555
Ba4 S21 3.411367 1_555
Ba4 S9 3.428383 1_554
Ba5 S12 3.230607 1_555
Ba5 S5 3.230607 1_555
Ba5 S18 3.232950 1_555
Ba5 S23 3.232950 1_555
Ba5 S2 3.295912 1_555
Ba5 S13 3.295912 1_555
Ba5 S25 3.327514 1_555
Ba5 S3 3.327514 1_554
Ba6 S22 3.149090 1_565
Ba6 S17 3.168073 1_555
Ba6 S24 3.222118 1_455
Ba6 S14 3.249643 1_455
Ba6 S19 3.266348 1_555
Ba6 S11 3.286787 1_555
Ba6 S18 3.304287 1_455
Ba6 S4 3.386928 1_555
Ba7 S9 3.149090 1_455
Ba7 S17 3.168073 1_556
Ba7 S21 3.222118 1_566
Ba7 S6 3.249643 1_565
Ba7 S20 3.266348 1_555
Ba7 S4 3.286787 1_555
Ba7 S23 3.304287 1_566
Ba7 S11 3.386928 1_555
Ba8 S17 3.081340 1_555
Ba8 S25 3.343920 1_555
Ba8 S3 3.343920 1_554
Ba8 S0 3.401260 1_455
Ba8 S1 3.401260 1_565
Ba8 S20 3.404587 1_554
Ba8 S19 3.404587 1_555
Ba8 S13 3.472230 1_555
Ba8 S2 3.472230 1_555
Ba9 S8 3.149090 1_545
Ba9 S7 3.168073 1_555
Ba9 S19 3.222118 1_655
Ba9 S2 3.249643 1_655
Ba9 S24 3.266348 1_555
Ba9 S1 3.286787 1_555
Ba9 S10 3.304287 1_655
Ba9 S0 3.386928 1_555
Ba10 S7 3.081340 1_555
Ba10 S5 3.343920 1_556
Ba10 S12 3.343920 1_555
Ba10 S4 3.401260 1_655
Ba10 S11 3.401260 1_545
Ba10 S24 3.404587 1_555
Ba10 S21 3.404587 1_556
Ba10 S14 3.472230 1_555
Ba10 S6 3.472230 1_555
Ba11 S15 3.149090 1_655
Ba11 S7 3.168073 1_554
Ba11 S20 3.222118 1_544
Ba11 S13 3.249643 1_545
Ba11 S21 3.266348 1_555
Ba11 S0 3.286787 1_555
Ba11 S16 3.304287 1_544
Ba11 S1 3.386928 1_555
Ba12 S23 3.128476 1_555
Ba12 S17 3.152385 1_545
Ba12 S11 3.201957 1_545
Ba12 S12 3.233917 1_555
Ba12 S21 3.300309 1_555
Ba12 S1 3.316457 1_555
Ba12 S24 3.411367 1_555
Ba12 S22 3.428383 1_555
Ba13 S16 3.128476 1_555
Ba13 S7 3.152385 1_565
Ba13 S1 3.201957 1_565
Ba13 S25 3.233917 1_555
Ba13 S20 3.300309 1_555
Ba13 S11 3.316457 1_555
Ba13 S19 3.411367 1_555
Ba13 S8 3.428383 1_555
B0 S2 1.807463 1_555
B0 S15 1.817977 1_555
B0 S0 1.860060 1_455
B1 S12 1.808658 1_555
B1 S18 1.817751 1_555
B1 S24 1.850905 1_555
B2 S5 1.808658 1_555
B2 S23 1.817751 1_555
B2 S21 1.850905 1_555
B3 S25 1.808658 1_555
B3 S10 1.817751 1_555
B3 S19 1.850905 1_555
B4 S13 1.807463 1_555
B4 S8 1.817977 1_555
B4 S1 1.860060 1_565
B5 S6 1.807463 1_555
B5 S22 1.817977 1_555
B5 S11 1.860060 1_545
B6 S3 1.808658 1_555
B6 S16 1.817751 1_555
B6 S20 1.850905 1_555
B7 S14 1.807463 1_555
B7 S9 1.817977 1_555
B7 S4 1.860060 1_655
