# generated using pymatgen
data_Na2SbSO4F3
_symmetry_space_group_name_H-M   'P 1'
_cell_length_a   8.25681579
_cell_length_b   8.25681579
_cell_length_c   11.02966494
_cell_angle_alpha   90.00000000
_cell_angle_beta   90.00000000
_cell_angle_gamma   129.24259993
_symmetry_Int_Tables_number   1
_chemical_formula_structural   Na2SbSO4F3
_chemical_formula_sum   'Na8 Sb4 S4 O16 F12'
_cell_volume   582.36404228
_cell_formula_units_Z   4
loop_
 _symmetry_equiv_pos_site_id
 _symmetry_equiv_pos_as_xyz
  1  'x, y, z'
loop_
 _atom_site_type_symbol
 _atom_site_label
 _atom_site_symmetry_multiplicity
 _atom_site_fract_x
 _atom_site_fract_y
 _atom_site_fract_z
 _atom_site_occupancy
  Na  Na0  1  0.96880523  0.46880523  0.25000000  1
  Na  Na1  1  0.61677262  0.38322738  0.00000000  1
  Na  Na2  1  0.03119477  0.53119477  0.75000000  1
  Na  Na3  1  0.38322738  0.61677262  0.00000000  1
  Na  Na4  1  0.11677262  0.88322738  0.50000000  1
  Na  Na5  1  0.53119477  0.03119477  0.75000000  1
  Na  Na6  1  0.46880523  0.96880523  0.25000000  1
  Na  Na7  1  0.88322738  0.11677262  0.50000000  1
  Sb  Sb0  1  0.10830396  0.10830396  0.16514124  1
  Sb  Sb1  1  0.39169604  0.39169604  0.66514124  1
  Sb  Sb2  1  0.89169604  0.89169604  0.83485876  1
  Sb  Sb3  1  0.60830396  0.60830396  0.33485876  1
  S  S0  1  0.31710936  0.68289064  0.50000000  1
  S  S1  1  0.81710936  0.18289064  0.00000000  1
  S  S2  1  0.68289064  0.31710936  0.50000000  1
  S  S3  1  0.18289064  0.81710936  0.00000000  1
  O  O0  1  0.79629397  0.27504930  0.89338216  1
  O  O1  1  0.27504930  0.79629397  0.89338216  1
  O  O2  1  0.71063681  0.95861737  0.97575725  1
  O  O3  1  0.78936319  0.54138263  0.47575725  1
  O  O4  1  0.22495070  0.70370603  0.39338216  1
  O  O5  1  0.72495070  0.20370603  0.10661784  1
  O  O6  1  0.70370603  0.22495070  0.39338216  1
  O  O7  1  0.29629397  0.77504930  0.60661784  1
  O  O8  1  0.54138263  0.78936319  0.47575725  1
  O  O9  1  0.28936319  0.04138263  0.02424275  1
  O  O10  1  0.95861737  0.71063681  0.97575725  1
  O  O11  1  0.77504930  0.29629397  0.60661784  1
  O  O12  1  0.21063681  0.45861737  0.52424275  1
  O  O13  1  0.45861737  0.21063681  0.52424275  1
  O  O14  1  0.20370603  0.72495070  0.10661784  1
  O  O15  1  0.04138263  0.28936319  0.02424275  1
  F  F0  1  0.90325110  0.71654772  0.71786870  1
  F  F1  1  0.37989710  0.37989710  0.11946160  1
  F  F2  1  0.28345228  0.09674890  0.28213130  1
  F  F3  1  0.87989710  0.87989710  0.38053840  1
  F  F4  1  0.21654772  0.40325110  0.78213130  1
  F  F5  1  0.62010290  0.62010290  0.88053840  1
  F  F6  1  0.71654772  0.90325110  0.71786870  1
  F  F7  1  0.78345228  0.59674890  0.21786870  1
  F  F8  1  0.40325110  0.21654772  0.78213130  1
  F  F9  1  0.12010290  0.12010290  0.61946160  1
  F  F10  1  0.09674890  0.28345228  0.28213130  1
  F  F11  1  0.59674890  0.78345228  0.21786870  1
loop_
_geom_bond_atom_site_label_1
_geom_bond_atom_site_label_2
_geom_bond_distance
_geom_bond_site_symmetry_2
Na0 O4 2.354971 1_655
Na0 O14 2.354971 1_655
Na0 O5 2.402114 1_555
Na0 O6 2.402114 1_555
Na1 O10 2.385878 1_554
Na1 O9 2.385878 1_555
Na1 O5 2.460274 1_555
Na1 O0 2.460274 1_554
Na2 O11 2.354971 1_455
Na2 O0 2.354971 1_455
Na2 O1 2.402114 1_555
Na2 O7 2.402114 1_555
Na3 O2 2.385878 1_554
Na3 O15 2.385878 1_555
Na3 O14 2.460274 1_555
Na3 O1 2.460274 1_554
Na4 O3 2.385878 1_455
Na4 O13 2.385878 1_565
Na4 O7 2.460274 1_555
Na4 O4 2.460274 1_555
Na5 O7 2.354971 1_545
Na5 O1 2.354971 1_545
Na5 O0 2.402114 1_555
Na5 O11 2.402114 1_555
Na6 O6 2.354971 1_565
Na6 O5 2.354971 1_565
Na6 O4 2.402114 1_555
Na6 O14 2.402114 1_555
Na7 O12 2.385878 1_655
Na7 O8 2.385878 1_545
Na7 O11 2.460274 1_555
Na7 O6 2.460274 1_555
O0 S1 1.468642 1_556
O1 S3 1.468642 1_556
O2 S1 1.487871 1_566
O2 Sb2 2.449594 1_555
O3 S2 1.487871 1_555
O3 Sb3 2.449594 1_555
O4 S0 1.468642 1_555
O5 S1 1.468642 1_555
O6 S2 1.468642 1_555
O7 S0 1.468642 1_555
O8 S0 1.487871 1_555
O8 Sb3 2.449594 1_555
O9 S3 1.487871 1_545
O9 Sb0 2.449594 1_555
O10 S3 1.487871 1_656
O10 Sb2 2.449594 1_555
O11 S2 1.468642 1_555
O12 S0 1.487871 1_555
O12 Sb1 2.449594 1_555
O13 S2 1.487871 1_555
O13 Sb1 2.449594 1_555
O14 S3 1.468642 1_555
O15 S1 1.487871 1_455
O15 Sb0 2.449594 1_555
F0 Sb2 1.984969 1_555
F0 Na2 2.372620 1_655
F0 Na4 2.776135 1_655
F1 Sb0 1.987194 1_555
F1 Na3 2.343958 1_555
F1 Na1 2.343958 1_555
F2 Sb0 1.984969 1_555
F2 Na6 2.372620 1_545
F2 Na4 2.776135 1_545
F3 Sb3 1.987194 1_555
F3 Na4 2.343958 1_655
F3 Na7 2.343958 1_565
F4 Sb1 1.984969 1_555
F4 Na2 2.372620 1_555
F4 Na3 2.776135 1_556
F5 Sb2 1.987194 1_555
F5 Na1 2.343958 1_556
F5 Na3 2.343958 1_556
F6 Sb2 1.984969 1_555
F6 Na5 2.372620 1_565
F6 Na7 2.776135 1_565
F7 Sb3 1.984969 1_555
F7 Na0 2.372620 1_555
F7 Na1 2.776135 1_555
F8 Sb1 1.984969 1_555
F8 Na5 2.372620 1_555
F8 Na1 2.776135 1_556
F9 Sb1 1.987194 1_555
F9 Na7 2.343958 1_455
F9 Na4 2.343958 1_545
F10 Sb0 1.984969 1_555
F10 Na0 2.372620 1_455
F10 Na7 2.776135 1_455
F11 Sb3 1.984969 1_555
F11 Na6 2.372620 1_555
F11 Na3 2.776135 1_555
