# generated using pymatgen
data_Ba6(NiO3)5
_symmetry_space_group_name_H-M   'P 1'
_cell_length_a   7.16223875
_cell_length_b   7.16221367
_cell_length_c   7.16219675
_cell_angle_alpha   88.31105464
_cell_angle_beta   88.31100229
_cell_angle_gamma   88.31080540
_symmetry_Int_Tables_number   1
_chemical_formula_structural   Ba6(NiO3)5
_chemical_formula_sum   'Ba6 Ni5 O15'
_cell_volume   366.93299287
_cell_formula_units_Z   1
loop_
 _symmetry_equiv_pos_site_id
 _symmetry_equiv_pos_as_xyz
  1  'x, y, z'
loop_
 _atom_site_type_symbol
 _atom_site_label
 _atom_site_symmetry_multiplicity
 _atom_site_fract_x
 _atom_site_fract_y
 _atom_site_fract_z
 _atom_site_occupancy
  Ba  Ba0  1  0.33555335  0.66444867  0.99999752  1
  Ba  Ba1  1  -0.00000451  0.33555661  0.66444465  1
  Ba  Ba2  1  0.66444681  0.99999547  0.33555385  1
  Ba  Ba3  1  0.14871158  0.85127994  0.49999995  1
  Ba  Ba4  1  0.50000122  0.14871218  0.85128713  1
  Ba  Ba5  1  0.85128347  0.50000116  0.14871721  1
  Ni  Ni0  1  0.49998209  0.49998111  0.50000484  1
  Ni  Ni1  1  0.28939454  0.28939419  0.28939579  1
  Ni  Ni2  1  0.71060597  0.71060577  0.71059918  1
  Ni  Ni3  1  0.09489536  0.09489564  0.09489579  1
  Ni  Ni4  1  0.90510261  0.90510479  0.90510393  1
  O  O0  1  0.14330561  0.00000050  0.85669109  1
  O  O1  1  0.85669141  0.14330925  0.00000041  1
  O  O2  1  0.99999970  0.85669318  0.14330712  1
  O  O3  1  0.03702895  0.19317197  0.32829710  1
  O  O4  1  0.32829439  0.03702515  0.19317319  1
  O  O5  1  0.19317398  0.32829463  0.03703083  1
  O  O6  1  0.80682579  0.96297409  0.67170488  1
  O  O7  1  0.67170463  0.80682700  0.96297315  1
  O  O8  1  0.96297261  0.67170527  0.80682735  1
  O  O9  1  0.36306119  0.23568811  0.52875569  1
  O  O10  1  0.52875068  0.36306017  0.23569200  1
  O  O11  1  0.23567928  0.52874897  0.36305604  1
  O  O12  1  0.76434326  0.63695248  0.47124581  1
  O  O13  1  0.47125296  0.76432196  0.63693762  1
  O  O14  1  0.63694207  0.47125072  0.76430790  1
loop_
_geom_bond_atom_site_label_1
_geom_bond_atom_site_label_2
_geom_bond_distance
_geom_bond_site_symmetry_2
Ba0 O7 2.645351 1_555
Ba0 O5 2.645370 1_556
Ba0 O11 2.828463 1_556
Ba0 O13 2.828471 1_555
Ba0 O0 2.909988 1_565
Ba0 O2 2.909999 1_456
Ba0 O14 3.028308 1_555
Ba0 O10 3.028323 1_556
Ba0 O4 3.040214 1_566
Ba0 O8 3.040233 1_455
Ba1 O3 2.645332 1_555
Ba1 O8 2.645332 1_455
Ba1 O14 2.828407 1_455
Ba1 O9 2.828483 1_555
Ba1 O1 2.910004 1_456
Ba1 O0 2.910017 1_555
Ba1 O12 3.028198 1_455
Ba1 O11 3.028271 1_555
Ba1 O6 3.040242 1_445
Ba1 O5 3.040285 1_556
Ba2 O6 2.645335 1_555
Ba2 O4 2.645363 1_565
Ba2 O12 2.828384 1_555
Ba2 O10 2.828476 1_565
Ba2 O2 2.909984 1_555
Ba2 O1 2.910006 1_565
Ba2 O13 3.028211 1_555
Ba2 O9 3.028317 1_565
Ba2 O7 3.040213 1_554
Ba2 O3 3.040269 1_665
Ba3 O11 2.588237 1_555
Ba3 O13 2.588279 1_555
Ba3 O2 2.795461 1_455
Ba3 O0 2.795474 1_565
Ba3 O6 2.813059 1_455
Ba3 O3 2.813063 1_565
Ba3 O8 2.831095 1_455
Ba3 O4 2.831138 1_565
Ba3 O12 3.206038 1_455
Ba3 O9 3.206364 1_565
Ba4 O9 2.588240 1_555
Ba4 O14 2.588301 1_555
Ba4 O1 2.795461 1_556
Ba4 O0 2.795497 1_555
Ba4 O7 2.813029 1_545
Ba4 O4 2.813047 1_556
Ba4 O6 2.831100 1_545
Ba4 O5 2.831134 1_556
Ba4 O13 3.206236 1_545
Ba4 O10 3.206319 1_556
Ba5 O12 2.588200 1_555
Ba5 O10 2.588264 1_555
Ba5 O1 2.795473 1_555
Ba5 O2 2.795478 1_555
Ba5 O8 2.813066 1_554
Ba5 O5 2.813076 1_655
Ba5 O7 2.831113 1_554
Ba5 O3 2.831140 1_655
Ba5 O11 3.206241 1_655
Ba5 O14 3.206327 1_554
Ni0 O9 2.159123 1_555
Ni0 O10 2.159247 1_555
Ni0 O11 2.159287 1_555
Ni0 O14 2.159305 1_555
Ni0 O13 2.159452 1_555
Ni0 O12 2.159737 1_555
Ni1 O11 1.835120 1_555
Ni1 O10 1.835136 1_555
Ni1 O9 1.835155 1_555
Ni1 O5 1.962650 1_555
Ni1 O3 1.962670 1_555
Ni1 O4 1.962683 1_555
Ni2 O13 1.835118 1_555
Ni2 O12 1.835120 1_555
Ni2 O14 1.835126 1_555
Ni2 O6 1.962672 1_555
Ni2 O8 1.962689 1_555
Ni2 O7 1.962710 1_555
Ni3 O5 1.863596 1_555
Ni3 O3 1.863599 1_555
Ni3 O4 1.863600 1_555
Ni3 O2 1.874139 1_445
Ni3 O0 1.874144 1_554
Ni3 O1 1.874151 1_455
Ni4 O6 1.863591 1_555
Ni4 O8 1.863595 1_555
Ni4 O7 1.863597 1_555
Ni4 O2 1.874142 1_556
Ni4 O0 1.874149 1_665
Ni4 O1 1.874149 1_566
