# generated using pymatgen
data_Eu(Cu2Sn)2
_symmetry_space_group_name_H-M   'P 1'
_cell_length_a   8.20083977
_cell_length_b   8.20083977
_cell_length_c   8.20083977
_cell_angle_alpha   109.35526996
_cell_angle_beta   109.35526996
_cell_angle_gamma   109.70337171
_symmetry_Int_Tables_number   1
_chemical_formula_structural   Eu(Cu2Sn)2
_chemical_formula_sum   'Eu2 Cu8 Sn4'
_cell_volume   424.56847067
_cell_formula_units_Z   2
loop_
 _symmetry_equiv_pos_site_id
 _symmetry_equiv_pos_as_xyz
  1  'x, y, z'
loop_
 _atom_site_type_symbol
 _atom_site_label
 _atom_site_symmetry_multiplicity
 _atom_site_fract_x
 _atom_site_fract_y
 _atom_site_fract_z
 _atom_site_occupancy
  Eu  Eu0  1  0.75000000  0.75000000  0.00000000  1
  Eu  Eu1  1  0.25000000  0.25000000  0.00000000  1
  Cu  Cu0  1  0.20182700  0.70182700  0.22659900  1
  Cu  Cu1  1  0.29817300  0.52477200  0.50000000  1
  Cu  Cu2  1  0.79817300  0.29817300  0.77340100  1
  Cu  Cu3  1  0.70182700  0.47522800  0.50000000  1
  Cu  Cu4  1  0.47522800  0.97522800  0.77340100  1
  Cu  Cu5  1  0.02477200  0.79817300  0.50000000  1
  Cu  Cu6  1  0.97522800  0.20182700  0.50000000  1
  Cu  Cu7  1  0.52477200  0.02477200  0.22659900  1
  Sn  Sn0  1  0.16138400  0.66138400  0.82276700  1
  Sn  Sn1  1  0.66138400  0.83861600  0.50000000  1
  Sn  Sn2  1  0.83861600  0.33861600  0.17723300  1
  Sn  Sn3  1  0.33861600  0.16138400  0.50000000  1
loop_
_geom_bond_atom_site_label_1
_geom_bond_atom_site_label_2
_geom_bond_distance
_geom_bond_site_symmetry_2
Cu0 Cu7 3.049364 1_565
Cu0 Cu5 3.084956 1_555
Cu0 Cu1 3.084956 1_555
Cu0 Sn0 3.107643 1_554
Cu0 Sn2 3.213599 1_455
Cu0 Sn3 3.220245 1_565
Cu0 Sn1 3.220245 1_555
Cu0 Eu0 3.774729 1_455
Cu0 Eu1 3.774729 1_555
Cu1 Cu6 3.049364 1_455
Cu1 Cu4 3.084956 1_555
Cu1 Sn3 3.107635 1_555
Cu1 Sn1 3.213595 1_555
Cu1 Sn0 3.220239 1_555
Cu1 Sn2 3.220243 1_455
Cu1 Eu0 3.774729 1_556
Cu1 Eu1 3.774729 1_555
Cu2 Cu4 3.049364 1_545
Cu2 Cu3 3.084956 1_555
Cu2 Cu6 3.084956 1_555
Cu2 Sn2 3.107643 1_556
Cu2 Sn0 3.213599 1_655
Cu2 Sn3 3.220245 1_555
Cu2 Sn1 3.220245 1_545
Cu2 Eu0 3.774729 1_556
Cu2 Eu1 3.774729 1_656
Cu3 Cu5 3.049364 1_655
Cu3 Cu7 3.084956 1_555
Cu3 Sn1 3.107635 1_555
Cu3 Sn3 3.213595 1_555
Cu3 Sn2 3.220239 1_555
Cu3 Sn0 3.220243 1_655
Cu3 Eu1 3.774729 1_555
Cu3 Eu0 3.774729 1_556
Cu4 Cu5 3.084956 1_555
Cu4 Sn2 3.107639 1_566
Cu4 Sn0 3.213590 1_555
Cu4 Sn3 3.220245 1_565
Cu4 Sn1 3.220245 1_555
Cu4 Eu0 3.774729 1_556
Cu4 Eu1 3.774729 1_566
Cu5 Sn1 3.107635 1_455
Cu5 Sn3 3.213595 1_565
Cu5 Sn0 3.220239 1_555
Cu5 Sn2 3.220243 1_455
Cu5 Eu1 3.774729 1_566
Cu5 Eu0 3.774729 1_455
Cu6 Cu7 3.084956 1_555
Cu6 Sn3 3.107635 1_655
Cu6 Sn1 3.213595 1_545
Cu6 Sn2 3.220239 1_555
Cu6 Sn0 3.220243 1_655
Cu6 Eu0 3.774729 1_545
Cu6 Eu1 3.774729 1_656
Cu7 Sn0 3.107639 1_544
Cu7 Sn2 3.213590 1_555
Cu7 Sn3 3.220245 1_555
Cu7 Sn1 3.220245 1_545
Cu7 Eu0 3.774729 1_545
Cu7 Eu1 3.774729 1_555
