# generated using pymatgen
data_Ba2V(CuS2)3
_symmetry_space_group_name_H-M   'P 1'
_cell_length_a   8.83402148
_cell_length_b   8.83402148
_cell_length_c   10.75884389
_cell_angle_alpha   53.75309796
_cell_angle_beta   53.75309796
_cell_angle_gamma   61.11204268
_symmetry_Int_Tables_number   1
_chemical_formula_structural   Ba2V(CuS2)3
_chemical_formula_sum   'Ba4 V2 Cu6 S12'
_cell_volume   534.46443920
_cell_formula_units_Z   2
loop_
 _symmetry_equiv_pos_site_id
 _symmetry_equiv_pos_as_xyz
  1  'x, y, z'
loop_
 _atom_site_type_symbol
 _atom_site_label
 _atom_site_symmetry_multiplicity
 _atom_site_fract_x
 _atom_site_fract_y
 _atom_site_fract_z
 _atom_site_occupancy
  Ba  Ba0  1  0.85485000  0.78511000  0.05556700  1
  Ba  Ba1  1  0.21489000  0.14515000  0.44443300  1
  Ba  Ba2  1  0.14515000  0.21489000  0.94443300  1
  Ba  Ba3  1  0.78511000  0.85485000  0.55556700  1
  V  V0  1  0.36138300  0.63861700  0.25000000  1
  V  V1  1  0.63861700  0.36138300  0.75000000  1
  Cu  Cu0  1  0.32318400  0.65365100  0.50761700  1
  Cu  Cu1  1  0.65365100  0.32318400  0.00761700  1
  Cu  Cu2  1  0.33409800  0.66590200  0.75000000  1
  Cu  Cu3  1  0.66590200  0.33409800  0.25000000  1
  Cu  Cu4  1  0.67681600  0.34634900  0.49238300  1
  Cu  Cu5  1  0.34634900  0.67681600  0.99238300  1
  S  S0  1  0.61581500  0.61550600  0.01795900  1
  S  S1  1  0.69545000  0.06442800  0.23787700  1
  S  S2  1  0.38418400  0.38449400  0.98204100  1
  S  S3  1  0.65196500  0.10487200  0.75657500  1
  S  S4  1  0.30455000  0.93557200  0.76212300  1
  S  S5  1  0.06442800  0.69545000  0.73787700  1
  S  S6  1  0.34803500  0.89512800  0.24342500  1
  S  S7  1  0.38449400  0.38418500  0.48204100  1
  S  S8  1  0.10487200  0.65196500  0.25657500  1
  S  S9  1  0.93557200  0.30455000  0.26212300  1
  S  S10  1  0.61550600  0.61581500  0.51795900  1
  S  S11  1  0.89512800  0.34803500  0.74342500  1
loop_
_geom_bond_atom_site_label_1
_geom_bond_atom_site_label_2
_geom_bond_distance
_geom_bond_site_symmetry_2
Ba0 S5 3.168442 1_654
Ba0 S1 3.319443 1_565
Ba0 S8 3.327026 1_655
Ba0 S9 3.355917 1_555
Ba0 S0 3.413466 1_555
Ba0 S6 3.534517 1_555
Ba0 S3 3.566551 1_564
Ba0 S4 3.581087 1_654
Ba0 S10 3.643416 1_555
Ba1 S4 3.168442 1_545
Ba1 S9 3.319443 1_455
Ba1 S6 3.327026 1_545
Ba1 S1 3.355917 1_555
Ba1 S7 3.413466 1_555
Ba1 S8 3.534517 1_555
Ba1 S11 3.566551 1_455
Ba1 S5 3.581087 1_545
Ba1 S2 3.643417 1_554
Ba2 S9 3.168442 1_456
Ba2 S4 3.319443 1_545
Ba2 S11 3.327026 1_455
Ba2 S5 3.355917 1_555
Ba2 S2 3.413458 1_555
Ba2 S3 3.534517 1_555
Ba2 S6 3.566551 1_546
Ba2 S1 3.581087 1_456
Ba2 S7 3.643416 1_555
Ba3 S1 3.168442 1_565
Ba3 S5 3.319443 1_655
Ba3 S3 3.327026 1_565
Ba3 S4 3.355917 1_555
Ba3 S10 3.413466 1_555
Ba3 S11 3.534517 1_555
Ba3 S8 3.566551 1_655
Ba3 S9 3.581087 1_565
Ba3 S0 3.643416 1_556
Cu0 S5 2.251310 1_555
Cu0 S6 2.285255 1_555
Cu0 S7 2.321279 1_555
Cu0 S10 2.500923 1_555
Cu1 S1 2.251310 1_555
Cu1 S11 2.285255 1_554
Cu1 S2 2.321287 1_554
Cu1 S0 2.500923 1_555
Cu2 S4 2.342374 1_555
Cu2 S5 2.342374 1_555
Cu2 S2 2.347916 1_555
Cu2 S10 2.347919 1_555
Cu3 S9 2.342374 1_555
Cu3 S1 2.342374 1_555
Cu3 S7 2.347919 1_555
Cu3 S0 2.347919 1_555
Cu4 S9 2.251310 1_555
Cu4 S3 2.285255 1_555
Cu4 S10 2.321279 1_555
Cu4 S7 2.500923 1_555
Cu5 S4 2.251310 1_555
Cu5 S8 2.285255 1_556
Cu5 S0 2.321279 1_556
Cu5 S2 2.500927 1_555
S0 V0 2.202267 1_555
S2 V1 2.202269 1_555
S3 V1 2.171615 1_555
S6 V0 2.171615 1_555
S7 V0 2.202267 1_555
S8 V0 2.171615 1_555
S10 V1 2.202267 1_555
S11 V1 2.171615 1_555
