# generated using pymatgen
data_TiH8C4NO10
_symmetry_space_group_name_H-M   'P 1'
_cell_length_a   8.97252871
_cell_length_b   8.97252871
_cell_length_c   11.01895200
_cell_angle_alpha   90.00000000
_cell_angle_beta   90.00000000
_cell_angle_gamma   120.00000521
_symmetry_Int_Tables_number   1
_chemical_formula_structural   TiH8C4NO10
_chemical_formula_sum   'Ti3 H24 C12 N3 O30'
_cell_volume   768.24654020
_cell_formula_units_Z   3
loop_
 _symmetry_equiv_pos_site_id
 _symmetry_equiv_pos_as_xyz
  1  'x, y, z'
loop_
 _atom_site_type_symbol
 _atom_site_label
 _atom_site_symmetry_multiplicity
 _atom_site_fract_x
 _atom_site_fract_y
 _atom_site_fract_z
 _atom_site_occupancy
  Ti  Ti0  1  0.00000000  0.50000000  0.83333300  1
  Ti  Ti1  1  0.50000000  0.50000000  0.16666700  1
  Ti  Ti2  1  0.50000000  0.00000000  0.50000000  1
  H  H0  1  0.89538700  0.97482800  0.11229600  1
  H  H1  1  0.89878600  0.63860300  0.31986000  1
  H  H2  1  0.10461300  0.07944100  0.55437100  1
  H  H3  1  0.10121400  0.73981700  0.34680700  1
  H  H4  1  0.36139700  0.10121400  0.01347400  1
  H  H5  1  0.92055900  0.02517200  0.88770400  1
  H  H6  1  0.97482800  0.07944100  0.44562900  1
  H  H7  1  0.10461300  0.02517200  0.11229600  1
  H  H8  1  0.89538700  0.92055900  0.55437100  1
  H  H9  1  0.10121400  0.36139700  0.31986000  1
  H  H10  1  0.02517200  0.10461300  0.22103700  1
  H  H11  1  0.36139700  0.26018300  0.65319300  1
  H  H12  1  0.63860300  0.89878600  0.01347400  1
  H  H13  1  0.73981700  0.10121400  0.98652600  1
  H  H14  1  0.63860300  0.73981700  0.65319300  1
  H  H15  1  0.07944100  0.10461300  0.77896300  1
  H  H16  1  0.02517200  0.92055900  0.44562900  1
  H  H17  1  0.97482800  0.89538700  0.22103700  1
  H  H18  1  0.26018300  0.36139700  0.68014000  1
  H  H19  1  0.26018300  0.89878600  0.98652600  1
  H  H20  1  0.92055900  0.89538700  0.77896300  1
  H  H21  1  0.73981700  0.63860300  0.68014000  1
  H  H22  1  0.89878600  0.26018300  0.34680700  1
  H  H23  1  0.07944100  0.97482800  0.88770400  1
  C  C0  1  0.42859400  0.21429700  0.33333300  1
  C  C1  1  0.31068900  0.62137800  0.00000000  1
  C  C2  1  0.57140600  0.78570300  0.33333300  1
  C  C3  1  0.78570300  0.21429700  0.66666700  1
  C  C4  1  0.37862200  0.68931100  0.33333300  1
  C  C5  1  0.68931100  0.31068900  0.66666700  1
  C  C6  1  0.21429700  0.78570300  0.66666700  1
  C  C7  1  0.31068900  0.68931100  0.66666700  1
  C  C8  1  0.62137800  0.31068900  0.33333300  1
  C  C9  1  0.21429700  0.42859400  0.00000000  1
  C  C10  1  0.68931100  0.37862200  0.00000000  1
  C  C11  1  0.78570300  0.57140600  0.00000000  1
  N  N0  1  0.00000000  0.00000000  0.83333300  1
  N  N1  1  0.00000000  0.00000000  0.16666700  1
  N  N2  1  0.00000000  0.00000000  0.50000000  1
  O  O0  1  0.69228600  0.23999900  0.39135200  1
  O  O1  1  0.54771300  0.23999900  0.60864800  1
  O  O2  1  0.07728900  0.72273200  0.72933900  1
  O  O3  1  0.00000000  0.75338800  0.33333300  1
  O  O4  1  0.30771400  0.54771300  0.27531500  1
  O  O5  1  0.76000100  0.30771400  0.94198200  1
  O  O6  1  0.72273200  0.64544300  0.06267200  1
  O  O7  1  0.45228700  0.69228600  0.05801800  1
  O  O8  1  0.75338800  0.00000000  0.00000000  1
  O  O9  1  0.92271100  0.64544300  0.93732800  1
  O  O10  1  0.76000100  0.45228700  0.72468500  1
  O  O11  1  0.64544300  0.72273200  0.27066100  1
  O  O12  1  0.27726800  0.92271100  0.60399400  1
  O  O13  1  0.27726800  0.35455700  0.06267200  1
  O  O14  1  0.35455700  0.07728900  0.39600600  1
  O  O15  1  0.69228600  0.45228700  0.27531500  1
  O  O16  1  0.75338800  0.75338800  0.66666700  1
  O  O17  1  0.45228700  0.76000100  0.60864800  1
  O  O18  1  0.00000000  0.24661200  0.33333300  1
  O  O19  1  0.24661200  0.00000000  0.00000000  1
  O  O20  1  0.92271100  0.27726800  0.72933900  1
  O  O21  1  0.35455700  0.27726800  0.27066100  1
  O  O22  1  0.72273200  0.07728900  0.60399400  1
  O  O23  1  0.23999900  0.69228600  0.94198200  1
  O  O24  1  0.23999900  0.54771300  0.72468500  1
  O  O25  1  0.24661200  0.24661200  0.66666700  1
  O  O26  1  0.07728900  0.35455700  0.93732800  1
  O  O27  1  0.54771300  0.30771400  0.05801800  1
  O  O28  1  0.30771400  0.76000100  0.39135200  1
  O  O29  1  0.64544300  0.92271100  0.39600600  1
loop_
_geom_bond_atom_site_label_1
_geom_bond_atom_site_label_2
_geom_bond_distance
_geom_bond_site_symmetry_2
H0 N1 1.038748 1_665
H1 O3 0.985990 1_655
H2 N2 1.038748 1_555
H3 O3 0.985992 1_555
H4 O19 0.985992 1_555
H5 N0 1.038748 1_655
H6 N2 1.038748 1_655
H7 N1 1.038748 1_555
H8 N2 1.038748 1_665
H9 O18 0.985990 1_555
H10 N1 1.038742 1_555
H11 O25 0.985992 1_555
H12 O8 0.985992 1_565
H13 O8 0.985992 1_556
H14 O16 0.985992 1_555
H15 N0 1.038742 1_555
H16 N2 1.038748 1_565
H17 N1 1.038742 1_665
H18 O25 0.985990 1_555
H19 O19 0.985992 1_566
H20 N0 1.038742 1_665
H21 O16 0.985990 1_555
H22 O18 0.985992 1_655
H23 N0 1.038748 1_565
C0 O21 1.269946 1_555
C0 O14 1.269952 1_555
C1 O7 1.272523 1_555
C1 O23 1.272523 1_554
C2 O11 1.269946 1_555
C2 O29 1.269952 1_555
C3 O20 1.269946 1_555
C3 O22 1.269952 1_555
C4 O4 1.272523 1_555
C4 O28 1.272529 1_555
C5 O10 1.272523 1_555
C5 O1 1.272529 1_555
C6 O2 1.269946 1_555
C6 O12 1.269952 1_555
C7 O24 1.272523 1_555
C7 O17 1.272529 1_555
C8 O15 1.272523 1_555
C8 O0 1.272529 1_555
C9 O26 1.269946 1_554
C9 O13 1.269946 1_555
C10 O27 1.272523 1_555
C10 O5 1.272523 1_554
C11 O9 1.269946 1_554
C11 O6 1.269946 1_555
O0 Ti2 2.309063 1_555
O1 Ti2 2.309063 1_555
O2 Ti0 2.098093 1_555
O4 Ti1 2.309063 1_555
O5 Ti0 2.309068 1_655
O6 Ti1 2.098099 1_555
O7 Ti1 2.309069 1_555
O9 Ti0 2.098099 1_655
O10 Ti0 2.309063 1_655
O11 Ti1 2.098093 1_555
O12 Ti2 2.098093 1_565
O13 Ti1 2.098099 1_555
O14 Ti2 2.098093 1_555
O15 Ti1 2.309063 1_555
O17 Ti2 2.309063 1_565
O20 Ti0 2.098093 1_655
O21 Ti1 2.098093 1_555
O22 Ti2 2.098093 1_555
O23 Ti0 2.309068 1_555
O24 Ti0 2.309063 1_555
O26 Ti0 2.098099 1_555
O27 Ti1 2.309069 1_555
O28 Ti2 2.309063 1_565
O29 Ti2 2.098093 1_565
