# generated using pymatgen
data_DyFe2SiC
_symmetry_space_group_name_H-M   'P 1'
_cell_length_a   5.53104780
_cell_length_b   5.53104780
_cell_length_c   6.74100800
_cell_angle_alpha   90.00000000
_cell_angle_beta   90.00000000
_cell_angle_gamma   140.37123285
_symmetry_Int_Tables_number   1
_chemical_formula_structural   DyFe2SiC
_chemical_formula_sum   'Dy2 Fe4 Si2 C2'
_cell_volume   131.53202744
_cell_formula_units_Z   2
loop_
 _symmetry_equiv_pos_site_id
 _symmetry_equiv_pos_as_xyz
  1  'x, y, z'
loop_
 _atom_site_type_symbol
 _atom_site_label
 _atom_site_symmetry_multiplicity
 _atom_site_fract_x
 _atom_site_fract_y
 _atom_site_fract_z
 _atom_site_occupancy
  Dy  Dy0  1  0.05002800  0.94997200  0.25000000  1
  Dy  Dy1  1  0.94997200  0.05002800  0.75000000  1
  Fe  Fe0  1  0.33406900  0.66593100  0.06240500  1
  Fe  Fe1  1  0.66593100  0.33406900  0.56240500  1
  Fe  Fe2  1  0.33406900  0.66593100  0.43759500  1
  Fe  Fe3  1  0.66593100  0.33406900  0.93759500  1
  Si  Si0  1  0.76986600  0.23013400  0.25000000  1
  Si  Si1  1  0.23013400  0.76986600  0.75000000  1
  C  C0  1  0.50000000  0.50000000  0.00000000  1
  C  C1  1  0.50000000  0.50000000  0.50000000  1
loop_
_geom_bond_atom_site_label_1
_geom_bond_atom_site_label_2
_geom_bond_distance
_geom_bond_site_symmetry_2
Dy0 Si0 2.915694 1_465
Dy0 Si0 2.957978 1_455
Dy0 Si0 2.957978 1_565
Dy1 Si1 2.915694 1_645
Dy1 Si1 2.957978 1_545
Dy1 Si1 2.957978 1_655
Fe0 Si0 2.358134 1_565
Fe0 Si0 2.358134 1_455
Fe0 Si1 2.367473 1_554
Fe1 Si1 2.358134 1_655
Fe1 Si1 2.358134 1_545
Fe1 Si0 2.367473 1_555
Fe2 Si0 2.358134 1_565
Fe2 Si0 2.358134 1_455
Fe2 Si1 2.367473 1_555
Fe3 Si1 2.358134 1_655
Fe3 Si1 2.358134 1_545
Fe3 Si0 2.367473 1_556
C0 Fe0 1.777373 1_555
C0 Fe3 1.777373 1_554
C0 Dy1 2.574167 1_564
C0 Dy0 2.574167 1_655
C0 Dy0 2.574167 1_545
C0 Dy1 2.574167 1_454
C1 Fe1 1.777373 1_555
C1 Fe2 1.777373 1_555
C1 Dy0 2.574167 1_655
C1 Dy1 2.574167 1_565
C1 Dy0 2.574167 1_545
C1 Dy1 2.574167 1_455
