# generated using pymatgen
data_Rb2NaAl2(PO4)3
_symmetry_space_group_name_H-M   'P 1'
_cell_length_a   8.33589800
_cell_length_b   4.91172400
_cell_length_c   28.72906301
_cell_angle_alpha   89.50295811
_cell_angle_beta   90.00000000
_cell_angle_gamma   90.00000000
_symmetry_Int_Tables_number   1
_chemical_formula_structural   Rb2NaAl2(PO4)3
_chemical_formula_sum   'Rb8 Na4 Al8 P12 O48'
_cell_volume   1176.22787336
_cell_formula_units_Z   4
loop_
 _symmetry_equiv_pos_site_id
 _symmetry_equiv_pos_as_xyz
  1  'x, y, z'
loop_
 _atom_site_type_symbol
 _atom_site_label
 _atom_site_symmetry_multiplicity
 _atom_site_fract_x
 _atom_site_fract_y
 _atom_site_fract_z
 _atom_site_occupancy
  Rb  Rb0  1  0.47919400  0.26273400  0.82907300  1
  Rb  Rb1  1  0.14349800  0.27281000  0.95247500  1
  Rb  Rb2  1  0.52080600  0.73726600  0.17092700  1
  Rb  Rb3  1  0.02080600  0.26273400  0.32907300  1
  Rb  Rb4  1  0.35650200  0.27281000  0.45247500  1
  Rb  Rb5  1  0.85650200  0.72719000  0.04752500  1
  Rb  Rb6  1  0.97919400  0.73726600  0.67092700  1
  Rb  Rb7  1  0.64349800  0.72719000  0.54752500  1
  Na  Na0  1  0.55197700  0.22145300  0.04692000  1
  Na  Na1  1  0.44802300  0.77854700  0.95308000  1
  Na  Na2  1  0.05197700  0.77854700  0.45308000  1
  Na  Na3  1  0.94802300  0.22145300  0.54692000  1
  Al  Al0  1  0.03042700  0.26727500  0.79238300  1
  Al  Al1  1  0.18561500  0.18912300  0.10459000  1
  Al  Al2  1  0.68561500  0.81087700  0.39541000  1
  Al  Al3  1  0.53042700  0.73272500  0.70761700  1
  Al  Al4  1  0.46957300  0.26727500  0.29238300  1
  Al  Al5  1  0.96957300  0.73272500  0.20761700  1
  Al  Al6  1  0.81438500  0.81087700  0.89541000  1
  Al  Al7  1  0.31438500  0.18912300  0.60459000  1
  P  P0  1  0.83972500  0.24285400  0.14330300  1
  P  P1  1  0.16027500  0.75714600  0.85669700  1
  P  P2  1  0.69256400  0.30154700  0.95167800  1
  P  P3  1  0.33972500  0.75714600  0.35669700  1
  P  P4  1  0.66027500  0.24285400  0.64330300  1
  P  P5  1  0.71508400  0.77391200  0.29094000  1
  P  P6  1  0.28491600  0.22608800  0.70906000  1
  P  P7  1  0.30743600  0.69845300  0.04832200  1
  P  P8  1  0.80743600  0.30154700  0.45167800  1
  P  P9  1  0.78491600  0.77391200  0.79094000  1
  P  P10  1  0.19256400  0.69845300  0.54832200  1
  P  P11  1  0.21508400  0.22608800  0.20906000  1
  O  O0  1  0.75239500  0.14617200  0.90704000  1
  O  O1  1  0.37326900  0.24516700  0.23643700  1
  O  O2  1  0.58901000  0.57846700  0.27180300  1
  O  O3  1  0.71007300  0.22240600  0.49467600  1
  O  O4  1  0.12673100  0.24516700  0.73643700  1
  O  O5  1  0.25239500  0.85382800  0.59296000  1
  O  O6  1  0.17851300  0.76716600  0.38135100  1
  O  O7  1  0.91099000  0.57846700  0.77180300  1
  O  O8  1  0.34320000  0.92725000  0.70820200  1
  O  O9  1  0.48865600  0.73535600  0.04226800  1
  O  O10  1  0.62836500  0.53453300  0.66219500  1
  O  O11  1  0.74760500  0.14617200  0.40704000  1
  O  O12  1  0.98865600  0.26464400  0.45773200  1
  O  O13  1  0.72628900  0.61364100  0.94009000  1
  O  O14  1  0.24760500  0.85382800  0.09296000  1
  O  O15  1  0.73718100  0.69456300  0.84222900  1
  O  O16  1  0.26281900  0.30543700  0.15777100  1
  O  O17  1  0.87326900  0.75483300  0.26356300  1
  O  O18  1  0.62673100  0.75483300  0.76356300  1
  O  O19  1  0.35428200  0.96922200  0.31742600  1
  O  O20  1  0.41099000  0.42153300  0.72819700  1
  O  O21  1  0.76281900  0.69456300  0.34222900  1
  O  O22  1  0.37163500  0.46546700  0.33780500  1
  O  O23  1  0.67851300  0.23283400  0.11864900  1
  O  O24  1  0.27371100  0.38635900  0.05991000  1
  O  O25  1  0.64571800  0.03077800  0.68257400  1
  O  O26  1  0.78992700  0.22240600  0.99467600  1
  O  O27  1  0.82148700  0.23283400  0.61864900  1
  O  O28  1  0.21007300  0.77759400  0.00532400  1
  O  O29  1  0.47516100  0.80710800  0.39502400  1
  O  O30  1  0.15680000  0.92725000  0.20820200  1
  O  O31  1  0.65680000  0.07275000  0.29179800  1
  O  O32  1  0.02483900  0.80710800  0.89502400  1
  O  O33  1  0.32148700  0.76716600  0.88135100  1
  O  O34  1  0.23718100  0.30543700  0.65777100  1
  O  O35  1  0.01134400  0.73535600  0.54226800  1
  O  O36  1  0.22628900  0.38635900  0.55991000  1
  O  O37  1  0.28992700  0.77759400  0.50532400  1
  O  O38  1  0.87163500  0.53453300  0.16219500  1
  O  O39  1  0.77371100  0.61364100  0.44009000  1
  O  O40  1  0.08901000  0.42153300  0.22819700  1
  O  O41  1  0.84320000  0.07275000  0.79179800  1
  O  O42  1  0.97516100  0.19289200  0.10497600  1
  O  O43  1  0.52483900  0.19289200  0.60497600  1
  O  O44  1  0.51134400  0.26464400  0.95773200  1
  O  O45  1  0.12836500  0.46546700  0.83780500  1
  O  O46  1  0.85428200  0.03077800  0.18257400  1
  O  O47  1  0.14571800  0.96922200  0.81742600  1
loop_
_geom_bond_atom_site_label_1
_geom_bond_atom_site_label_2
_geom_bond_distance
_geom_bond_site_symmetry_2
Na0 O23 2.316079 1_555
Na0 O9 2.450004 1_545
Na0 O24 2.486182 1_555
Na0 O26 2.487377 1_554
Na0 O9 2.581076 1_555
Na0 O44 2.591451 1_554
Na1 O33 2.316079 1_555
Na1 O44 2.450004 1_565
Na1 O13 2.486182 1_555
Na1 O28 2.487377 1_556
Na1 O44 2.581076 1_555
Na1 O9 2.591451 1_556
Na2 O6 2.316079 1_555
Na2 O12 2.450004 1_465
Na2 O39 2.486182 1_455
Na2 O37 2.487377 1_555
Na2 O12 2.581076 1_455
Na2 O35 2.591451 1_555
Na3 O27 2.316079 1_555
Na3 O35 2.450004 1_645
Na3 O36 2.486182 1_655
Na3 O3 2.487377 1_555
Na3 O35 2.581076 1_655
Na3 O12 2.591451 1_555
Al0 O4 1.800726 1_555
Al0 O45 1.827301 1_555
Al0 O41 1.830096 1_455
Al0 O47 1.888422 1_545
Al0 O7 1.913483 1_455
Al1 O42 1.754457 1_455
Al1 O16 1.757840 1_555
Al1 O14 1.760797 1_545
Al1 O24 1.761785 1_555
Al2 O29 1.754457 1_555
Al2 O21 1.757840 1_555
Al2 O11 1.760797 1_565
Al2 O39 1.761785 1_555
Al3 O18 1.800726 1_555
Al3 O10 1.827301 1_555
Al3 O8 1.830096 1_555
Al3 O25 1.888422 1_565
Al3 O20 1.913483 1_555
Al4 O1 1.800726 1_555
Al4 O22 1.827301 1_555
Al4 O31 1.830096 1_555
Al4 O19 1.888422 1_545
Al4 O2 1.913483 1_555
Al5 O17 1.800726 1_555
Al5 O38 1.827301 1_555
Al5 O30 1.830096 1_655
Al5 O46 1.888422 1_565
Al5 O40 1.913483 1_655
Al6 O32 1.754457 1_655
Al6 O15 1.757840 1_555
Al6 O0 1.760797 1_565
Al6 O13 1.761785 1_555
Al7 O43 1.754457 1_555
Al7 O34 1.757840 1_555
Al7 O5 1.760797 1_545
Al7 O36 1.761785 1_555
O0 P2 1.578831 1_555
O0 Rb0 3.241791 1_555
O1 P11 1.538639 1_555
O1 Rb2 3.289049 1_555
O1 Rb2 3.370379 1_545
O2 P5 1.528870 1_555
O2 Rb2 3.048149 1_555
O3 P8 1.525590 1_555
O3 Rb7 2.909561 1_545
O3 Rb7 2.970818 1_555
O3 Rb4 3.195739 1_555
O4 P6 1.538639 1_555
O4 Rb6 3.289049 1_455
O4 Rb6 3.370379 1_445
O5 P10 1.578831 1_555
O5 Rb6 3.241791 1_455
O6 P3 1.520073 1_555
O6 Rb3 3.137727 1_565
O6 Rb3 3.191734 1_555
O7 P9 1.528870 1_555
O7 Rb6 3.048149 1_555
O8 P6 1.546529 1_565
O8 Rb6 3.352903 1_455
O9 P7 1.531197 1_555
O9 Rb5 3.070289 1_555
O10 P4 1.559262 1_555
O10 Rb6 3.100222 1_555
O10 Rb7 3.422001 1_555
O11 P8 1.578831 1_555
O11 Rb3 3.241791 1_655
O12 P8 1.531197 1_555
O12 Rb4 3.070289 1_655
O13 P2 1.590865 1_555
O13 Rb5 3.323496 1_556
O14 P7 1.578831 1_555
O14 Rb2 3.241791 1_555
O15 P9 1.572077 1_555
O15 Rb0 3.046373 1_555
O16 P11 1.572077 1_555
O16 Rb2 3.046373 1_555
O17 P5 1.538639 1_555
O17 Rb3 3.289049 1_655
O17 Rb3 3.370379 1_665
O18 P9 1.538639 1_555
O18 Rb0 3.289049 1_555
O18 Rb0 3.370379 1_565
O19 P3 1.533710 1_555
O19 Rb3 3.150571 1_565
O20 P6 1.528870 1_555
O20 Rb0 3.048149 1_555
O21 P5 1.572077 1_555
O21 Rb3 3.046373 1_655
O22 P3 1.559262 1_555
O22 Rb3 3.100222 1_555
O22 Rb4 3.422001 1_555
O23 P0 1.520073 1_555
O23 Rb2 3.137727 1_545
O23 Rb2 3.191734 1_555
O24 P7 1.590865 1_555
O24 Rb1 3.323496 1_554
O25 P4 1.533710 1_555
O25 Rb6 3.150571 1_545
O26 P2 1.525590 1_555
O26 Rb5 2.909561 1_546
O26 Rb5 2.970818 1_556
O26 Rb1 3.195739 1_655
O27 P4 1.520073 1_555
O27 Rb6 3.137727 1_545
O27 Rb6 3.191734 1_555
O28 P7 1.525590 1_555
O28 Rb1 2.909561 1_564
O28 Rb1 2.970818 1_554
O28 Rb5 3.195739 1_455
O29 P3 1.597475 1_555
O29 Rb4 3.000045 1_565
O29 Rb4 3.242607 1_555
O30 P11 1.546529 1_565
O30 Rb2 3.352903 1_555
O31 P5 1.546529 1_545
O31 Rb3 3.352903 1_655
O32 P1 1.597475 1_555
O32 Rb1 3.000045 1_565
O32 Rb1 3.242607 1_555
O33 P1 1.520073 1_555
O33 Rb0 3.137727 1_565
O33 Rb0 3.191734 1_555
O34 P6 1.572077 1_555
O34 Rb6 3.046373 1_455
O35 P10 1.531197 1_555
O35 Rb7 3.070289 1_455
O36 P10 1.590865 1_555
O36 Rb4 3.323496 1_555
O37 P10 1.525590 1_555
O37 Rb4 2.909561 1_565
O37 Rb4 2.970818 1_555
O37 Rb7 3.195739 1_555
O38 P0 1.559262 1_555
O38 Rb2 3.100222 1_555
O38 Rb5 3.422001 1_555
O39 P8 1.590865 1_555
O39 Rb7 3.323496 1_555
O40 P11 1.528870 1_555
O40 Rb3 3.048149 1_555
O41 P9 1.546529 1_545
O41 Rb0 3.352903 1_555
O42 P0 1.597475 1_555
O42 Rb5 3.000045 1_545
O42 Rb5 3.242607 1_555
O43 P4 1.597475 1_555
O43 Rb7 3.000045 1_545
O43 Rb7 3.242607 1_555
O44 P2 1.531197 1_555
O44 Rb1 3.070289 1_555
O45 P1 1.559262 1_555
O45 Rb0 3.100222 1_555
O45 Rb1 3.422001 1_555
O46 P0 1.533710 1_555
O46 Rb2 3.150571 1_545
O47 P1 1.533710 1_555
O47 Rb0 3.150571 1_565
