# generated using pymatgen
data_CaZn3Ni2
_symmetry_space_group_name_H-M   'P 1'
_cell_length_a   8.92711085
_cell_length_b   8.92656277
_cell_length_c   4.02635735
_cell_angle_alpha   90.00000000
_cell_angle_beta   90.00000000
_cell_angle_gamma   119.99796207
_symmetry_Int_Tables_number   1
_chemical_formula_structural   CaZn3Ni2
_chemical_formula_sum   'Ca3 Zn9 Ni6'
_cell_volume   277.87345253
_cell_formula_units_Z   3
loop_
 _symmetry_equiv_pos_site_id
 _symmetry_equiv_pos_as_xyz
  1  'x, y, z'
loop_
 _atom_site_type_symbol
 _atom_site_label
 _atom_site_symmetry_multiplicity
 _atom_site_fract_x
 _atom_site_fract_y
 _atom_site_fract_z
 _atom_site_occupancy
  Ca  Ca0  1  -0.00000000  -0.00000000  0.50000000  1
  Ca  Ca1  1  0.33335016  0.66667508  -0.00000000  1
  Ca  Ca2  1  0.66664984  0.33332492  -0.00000000  1
  Zn  Zn0  1  0.50000000  -0.00000000  0.50000000  1
  Zn  Zn1  1  0.50000000  0.50000000  0.50000000  1
  Zn  Zn2  1  -0.00000000  0.50000000  0.50000000  1
  Zn  Zn3  1  0.29197136  0.00002654  0.00000000  1
  Zn  Zn4  1  0.29197136  0.29194482  0.00000000  1
  Zn  Zn5  1  0.00000000  0.70807506  -0.00000000  1
  Zn  Zn6  1  -0.00000000  0.29192494  0.00000000  1
  Zn  Zn7  1  0.70802864  0.70805518  -0.00000000  1
  Zn  Zn8  1  0.70802864  0.99997346  -0.00000000  1
  Ni  Ni0  1  0.18164200  0.36320315  0.50000000  1
  Ni  Ni1  1  0.81835800  0.18156015  0.50000000  1
  Ni  Ni2  1  0.36323035  0.18161468  0.50000000  1
  Ni  Ni3  1  0.63676965  0.81838532  0.50000000  1
  Ni  Ni4  1  0.18164200  0.81843985  0.50000000  1
  Ni  Ni5  1  0.81835800  0.63679685  0.50000000  1
loop_
_geom_bond_atom_site_label_1
_geom_bond_atom_site_label_2
_geom_bond_distance
_geom_bond_site_symmetry_2
Ca0 Ni1 2.807839 1_455
Ca0 Ni4 2.807839 1_545
Ca0 Ni0 2.807847 1_555
Ca0 Ni5 2.807847 1_445
Ca0 Ni2 2.808230 1_555
Ca0 Ni3 2.808230 1_445
Ca1 Ni3 3.091236 1_554
Ca1 Ni3 3.091236 1_555
Ca1 Ni0 3.091435 1_555
Ca1 Ni0 3.091435 1_554
Ca1 Ni4 3.091440 1_554
Ca1 Ni4 3.091440 1_555
Ca1 Zn7 3.176267 1_555
Ca1 Zn8 3.176268 1_555
Ca1 Zn3 3.176518 1_565
Ca1 Zn4 3.176518 1_555
Ca1 Zn5 3.176786 1_555
Ca1 Zn6 3.176786 1_555
Ca1 Zn1 3.270033 1_555
Ca1 Zn1 3.270033 1_554
Ca1 Zn0 3.270034 1_564
Ca1 Zn0 3.270034 1_565
Ca1 Zn2 3.270312 1_554
Ca1 Zn2 3.270312 1_555
Ca2 Ni2 3.091236 1_555
Ca2 Ni2 3.091236 1_554
Ca2 Ni5 3.091435 1_554
Ca2 Ni5 3.091435 1_555
Ca2 Ni1 3.091440 1_555
Ca2 Ni1 3.091440 1_554
Ca2 Zn4 3.176267 1_555
Ca2 Zn3 3.176268 1_555
Ca2 Zn8 3.176518 1_545
Ca2 Zn7 3.176518 1_555
Ca2 Zn6 3.176786 1_655
Ca2 Zn5 3.176786 1_655
Ca2 Zn1 3.270033 1_555
Ca2 Zn1 3.270033 1_554
Ca2 Zn0 3.270034 1_555
Ca2 Zn0 3.270034 1_554
Ca2 Zn2 3.270312 1_654
Ca2 Zn2 3.270312 1_655
Ni0 Zn4 2.460495 1_555
Ni0 Zn4 2.460495 1_556
Ni0 Zn6 2.460781 1_556
Ni0 Zn6 2.460781 1_555
Ni0 Zn1 2.469405 1_555
Ni0 Zn2 2.469922 1_555
Ni1 Zn8 2.460491 1_545
Ni1 Zn8 2.460491 1_546
Ni1 Zn6 2.460781 1_656
Ni1 Zn6 2.460781 1_655
Ni1 Zn0 2.469405 1_555
Ni1 Zn2 2.469930 1_655
Ni2 Zn3 2.460483 1_556
Ni2 Zn3 2.460483 1_555
Ni2 Zn4 2.460487 1_556
Ni2 Zn4 2.460487 1_555
Ni2 Zn0 2.469473 1_555
Ni2 Zn1 2.469482 1_555
Ni3 Zn8 2.460483 1_555
Ni3 Zn8 2.460483 1_556
Ni3 Zn7 2.460487 1_555
Ni3 Zn7 2.460487 1_556
Ni3 Zn0 2.469473 1_565
Ni3 Zn1 2.469482 1_555
Ni4 Zn3 2.460491 1_565
Ni4 Zn3 2.460491 1_566
Ni4 Zn5 2.460781 1_555
Ni4 Zn5 2.460781 1_556
Ni4 Zn0 2.469405 1_565
Ni4 Zn2 2.469930 1_555
Ni5 Zn7 2.460495 1_555
Ni5 Zn7 2.460495 1_556
Ni5 Zn5 2.460781 1_655
Ni5 Zn5 2.460781 1_656
Ni5 Zn1 2.469405 1_555
Ni5 Zn2 2.469922 1_655
