# generated using pymatgen
data_NdOs2
_symmetry_space_group_name_H-M   'P 1'
_cell_length_a   5.33492559
_cell_length_b   5.33492636
_cell_length_c   9.14669030
_cell_angle_alpha   90.00000000
_cell_angle_beta   90.00000000
_cell_angle_gamma   119.99999531
_symmetry_Int_Tables_number   1
_chemical_formula_structural   NdOs2
_chemical_formula_sum   'Nd4 Os8'
_cell_volume   225.45061369
_cell_formula_units_Z   4
loop_
 _symmetry_equiv_pos_site_id
 _symmetry_equiv_pos_as_xyz
  1  'x, y, z'
loop_
 _atom_site_type_symbol
 _atom_site_label
 _atom_site_symmetry_multiplicity
 _atom_site_fract_x
 _atom_site_fract_y
 _atom_site_fract_z
 _atom_site_occupancy
  Nd  Nd0  1  0.33333300  0.66666700  0.43529568  1
  Nd  Nd1  1  0.66666700  0.33333300  0.56470432  1
  Nd  Nd2  1  0.66666700  0.33333300  0.93529568  1
  Nd  Nd3  1  0.33333300  0.66666700  0.06470432  1
  Os  Os0  1  0.16960088  0.33920376  0.75000000  1
  Os  Os1  1  0.16960088  0.83039912  0.75000000  1
  Os  Os2  1  0.33920376  0.16960088  0.25000000  1
  Os  Os3  1  0.83039912  0.66079624  0.25000000  1
  Os  Os4  1  0.66079624  0.83039912  0.75000000  1
  Os  Os5  1  -0.00000000  -0.00000000  0.00000000  1
  Os  Os6  1  0.83039912  0.16960088  0.25000000  1
  Os  Os7  1  -0.00000000  -0.00000000  0.50000000  1
loop_
_geom_bond_atom_site_label_1
_geom_bond_atom_site_label_2
_geom_bond_distance
_geom_bond_site_symmetry_2
Nd0 Os7 3.136461 1_565
Nd0 Os7 3.136466 1_665
Nd0 Os7 3.136466 1_555
Nd0 Os3 3.160465 1_455
Nd0 Os2 3.160466 1_565
Nd0 Os6 3.160472 1_455
Nd0 Os6 3.160472 1_565
Nd0 Os3 3.160479 1_555
Nd0 Os2 3.160479 1_555
Nd0 Os4 3.251886 1_555
Nd0 Os0 3.251887 1_555
Nd0 Os1 3.251889 1_555
Nd0 Nd1 3.299724 1_455
Nd0 Nd1 3.299724 1_565
Nd0 Nd1 3.299733 1_555
Nd0 Nd3 3.389684 1_555
Nd1 Os7 3.136461 1_655
Nd1 Os7 3.136466 1_555
Nd1 Os7 3.136466 1_665
Nd1 Os0 3.160465 1_655
Nd1 Os4 3.160466 1_545
Nd1 Os1 3.160472 1_655
Nd1 Os1 3.160472 1_545
Nd1 Os0 3.160479 1_555
Nd1 Os4 3.160479 1_555
Nd1 Os2 3.251886 1_555
Nd1 Os3 3.251887 1_555
Nd1 Os6 3.251889 1_555
Nd1 Nd2 3.389684 1_555
Nd2 Os5 3.136461 1_656
Nd2 Os5 3.136466 1_556
Nd2 Os5 3.136466 1_666
Nd2 Os0 3.160465 1_655
Nd2 Os4 3.160466 1_545
Nd2 Os1 3.160472 1_655
Nd2 Os1 3.160472 1_545
Nd2 Os0 3.160479 1_555
Nd2 Os4 3.160479 1_555
Nd2 Os2 3.251886 1_556
Nd2 Os3 3.251887 1_556
Nd2 Os6 3.251889 1_556
Nd2 Nd3 3.299724 1_656
Nd2 Nd3 3.299724 1_546
Nd2 Nd3 3.299733 1_556
Nd3 Os5 3.136461 1_565
Nd3 Os5 3.136466 1_665
Nd3 Os5 3.136466 1_555
Nd3 Os3 3.160465 1_455
Nd3 Os2 3.160466 1_565
Nd3 Os6 3.160472 1_455
Nd3 Os6 3.160472 1_565
Nd3 Os3 3.160479 1_555
Nd3 Os2 3.160479 1_555
Nd3 Os4 3.251886 1_554
Nd3 Os0 3.251887 1_554
Nd3 Os1 3.251889 1_554
Os0 Os4 2.620491 1_555
Os0 Os1 2.620491 1_555
Os0 Os4 2.714435 1_445
Os0 Os1 2.714435 1_545
Os0 Os7 2.772171 1_555
Os0 Os5 2.772171 1_556
Os1 Os4 2.620491 1_555
Os1 Os4 2.714435 1_455
Os1 Os5 2.772166 1_566
Os1 Os7 2.772166 1_565
Os2 Os6 2.620491 1_555
Os2 Os3 2.620491 1_555
Os2 Os6 2.714435 1_455
Os2 Os3 2.714435 1_445
Os2 Os7 2.772171 1_555
Os2 Os5 2.772171 1_555
Os3 Os6 2.620491 1_555
Os3 Os6 2.714435 1_565
Os3 Os7 2.772171 1_665
Os3 Os5 2.772171 1_665
Os4 Os5 2.772171 1_666
Os4 Os7 2.772171 1_665
Os5 Os6 2.772166 1_455
Os6 Os7 2.772166 1_655
