# generated using pymatgen
data_NbSe2SN2ClF6
_symmetry_space_group_name_H-M   'P 1'
_cell_length_a   8.54365700
_cell_length_b   10.67769700
_cell_length_c   13.71642766
_cell_angle_alpha   60.75704191
_cell_angle_beta   90.00000000
_cell_angle_gamma   90.00000000
_symmetry_Int_Tables_number   1
_chemical_formula_structural   NbSe2SN2ClF6
_chemical_formula_sum   'Nb4 Se8 S4 N8 Cl4 F24'
_cell_volume   1091.83182979
_cell_formula_units_Z   4
loop_
 _symmetry_equiv_pos_site_id
 _symmetry_equiv_pos_as_xyz
  1  'x, y, z'
loop_
 _atom_site_type_symbol
 _atom_site_label
 _atom_site_symmetry_multiplicity
 _atom_site_fract_x
 _atom_site_fract_y
 _atom_site_fract_z
 _atom_site_occupancy
  Nb  Nb0  1  0.19111000  0.76496100  0.32210800  1
  Nb  Nb1  1  0.80889000  0.23503900  0.67789200  1
  Nb  Nb2  1  0.69111000  0.23503900  0.17789200  1
  Nb  Nb3  1  0.30889000  0.76496100  0.82210800  1
  Se  Se0  1  0.17683500  0.30162100  0.97735000  1
  Se  Se1  1  0.09580900  0.31917000  0.36402300  1
  Se  Se2  1  0.59580900  0.68083000  0.13597700  1
  Se  Se3  1  0.67683500  0.69837900  0.52265000  1
  Se  Se4  1  0.32316500  0.30162100  0.47735000  1
  Se  Se5  1  0.90419100  0.68083000  0.63597700  1
  Se  Se6  1  0.40419100  0.31917000  0.86402300  1
  Se  Se7  1  0.82316500  0.69837900  0.02265000  1
  S  S0  1  0.22931800  0.05099400  0.95004600  1
  S  S1  1  0.72931800  0.94900600  0.54995400  1
  S  S2  1  0.27068200  0.05099400  0.45004600  1
  S  S3  1  0.77068200  0.94900600  0.04995400  1
  N  N0  1  0.11828900  0.14009600  0.38901000  1
  N  N1  1  0.62409500  0.87063800  0.50396800  1
  N  N2  1  0.88171100  0.85990400  0.61099000  1
  N  N3  1  0.38171100  0.14009600  0.88901000  1
  N  N4  1  0.87590500  0.87063800  0.00396800  1
  N  N5  1  0.61828900  0.85990400  0.11099000  1
  N  N6  1  0.37590500  0.12936200  0.49603200  1
  N  N7  1  0.12409500  0.12936200  0.99603200  1
  Cl  Cl0  1  0.81229200  0.54747400  0.81303500  1
  Cl  Cl1  1  0.68770800  0.54747400  0.31303500  1
  Cl  Cl2  1  0.31229200  0.45252600  0.68696500  1
  Cl  Cl3  1  0.18770800  0.45252600  0.18696500  1
  F  F0  1  0.65329400  0.44529500  0.10236000  1
  F  F1  1  0.76335600  0.03402100  0.74868700  1
  F  F2  1  0.48941800  0.20546400  0.24833300  1
  F  F3  1  0.01058200  0.20546400  0.74833300  1
  F  F4  1  0.28518900  0.75292800  0.19851500  1
  F  F5  1  0.59438300  0.22519600  0.05283200  1
  F  F6  1  0.71481100  0.24707200  0.80148500  1
  F  F7  1  0.09438300  0.77480400  0.44716800  1
  F  F8  1  0.39082100  0.71928800  0.39987600  1
  F  F9  1  0.15329400  0.55470500  0.39764000  1
  F  F10  1  0.60917900  0.28071200  0.60012400  1
  F  F11  1  0.73664400  0.03402100  0.24868700  1
  F  F12  1  0.34670600  0.55470500  0.89764000  1
  F  F13  1  0.98941800  0.79453600  0.25166700  1
  F  F14  1  0.10917900  0.71928800  0.89987600  1
  F  F15  1  0.78518900  0.24707200  0.30148500  1
  F  F16  1  0.23664400  0.96597900  0.25131300  1
  F  F17  1  0.84670600  0.44529500  0.60236000  1
  F  F18  1  0.51058200  0.79453600  0.75166700  1
  F  F19  1  0.90561700  0.22519600  0.55283200  1
  F  F20  1  0.89082100  0.28071200  0.10012400  1
  F  F21  1  0.26335600  0.96597900  0.75131300  1
  F  F22  1  0.40561700  0.77480400  0.94716800  1
  F  F23  1  0.21481100  0.75292800  0.69851500  1
loop_
_geom_bond_atom_site_label_1
_geom_bond_atom_site_label_2
_geom_bond_distance
_geom_bond_site_symmetry_2
N0 S2 1.588408 1_555
N0 Se1 1.780502 1_555
N1 S1 1.556263 1_555
N1 Se3 1.786429 1_555
N2 S1 1.588408 1_555
N2 Se5 1.780502 1_555
N3 S0 1.588408 1_555
N3 Se6 1.780502 1_555
N4 S3 1.556263 1_555
N4 Se7 1.786429 1_555
N5 S3 1.588408 1_555
N5 Se2 1.780502 1_555
N6 S2 1.556263 1_555
N6 Se4 1.786429 1_555
N7 S0 1.556263 1_555
N7 Se0 1.786429 1_555
Cl0 Se5 2.272320 1_555
Cl1 Se2 2.272320 1_555
Cl2 Se6 2.272320 1_555
Cl3 Se1 2.272320 1_555
F0 Nb2 1.986324 1_555
F1 Nb1 1.914409 1_555
F2 Nb2 1.924716 1_555
F3 Nb1 1.924716 1_455
F4 Nb0 1.936302 1_555
F5 Nb2 1.952601 1_555
F6 Nb1 1.936302 1_555
F7 Nb0 1.952601 1_555
F8 Nb0 1.943901 1_555
F9 Nb0 1.986324 1_555
F10 Nb1 1.943901 1_555
F11 Nb2 1.914409 1_555
F12 Nb3 1.986324 1_555
F13 Nb0 1.924716 1_655
F14 Nb3 1.943901 1_555
F15 Nb2 1.936302 1_555
F16 Nb0 1.914409 1_555
F17 Nb1 1.986324 1_555
F18 Nb3 1.924716 1_555
F19 Nb1 1.952601 1_555
F20 Nb2 1.943901 1_555
F21 Nb3 1.914409 1_555
F22 Nb3 1.952601 1_555
F23 Nb3 1.936302 1_555
