# generated using pymatgen
data_FeH4C3O5
_symmetry_space_group_name_H-M   'P 1'
_cell_length_a   6.28927700
_cell_length_b   9.68011900
_cell_length_c   9.81336103
_cell_angle_alpha   77.15003307
_cell_angle_beta   90.00000000
_cell_angle_gamma   90.00000000
_symmetry_Int_Tables_number   1
_chemical_formula_structural   FeH4C3O5
_chemical_formula_sum   'Fe4 H16 C12 O20'
_cell_volume   582.48414899
_cell_formula_units_Z   4
loop_
 _symmetry_equiv_pos_site_id
 _symmetry_equiv_pos_as_xyz
  1  'x, y, z'
loop_
 _atom_site_type_symbol
 _atom_site_label
 _atom_site_symmetry_multiplicity
 _atom_site_fract_x
 _atom_site_fract_y
 _atom_site_fract_z
 _atom_site_occupancy
  Fe  Fe0  1  0.22290700  0.66204300  0.63616800  1
  Fe  Fe1  1  0.27655900  0.22318800  0.36598100  1
  Fe  Fe2  1  0.72344100  0.72318800  0.36598100  1
  Fe  Fe3  1  0.77709300  0.16204300  0.63616800  1
  H  H0  1  0.68258900  0.52352600  0.93351800  1
  H  H1  1  0.10903700  0.84550500  0.07809100  1
  H  H2  1  0.10626800  0.61806500  0.28427300  1
  H  H3  1  0.88064100  0.16638600  0.05760600  1
  H  H4  1  0.59937900  0.51854900  0.71395700  1
  H  H5  1  0.89373200  0.11806500  0.28427300  1
  H  H6  1  0.59125900  0.96747300  0.94542200  1
  H  H7  1  0.40874100  0.46747300  0.94542200  1
  H  H8  1  0.47365000  0.64953900  0.93384000  1
  H  H9  1  0.52635000  0.14953900  0.93384000  1
  H  H10  1  0.13155800  0.25526300  0.05324700  1
  H  H11  1  0.31741100  0.02352600  0.93351800  1
  H  H12  1  0.86844200  0.75526300  0.05324700  1
  H  H13  1  0.89096300  0.34550500  0.07809100  1
  H  H14  1  0.11935900  0.66638600  0.05760600  1
  H  H15  1  0.40062100  0.01854900  0.71395700  1
  C  C0  1  0.39947100  0.92583200  0.42406200  1
  C  C1  1  0.47247800  0.49845400  0.29197400  1
  C  C2  1  0.60052900  0.42583200  0.42406200  1
  C  C3  1  0.02719300  0.74277500  0.10052000  1
  C  C4  1  0.51933100  0.55326600  0.90005400  1
  C  C5  1  0.48066900  0.05326600  0.90005400  1
  C  C6  1  0.02628900  0.90302000  0.71116400  1
  C  C7  1  0.89935200  0.89054200  0.57849500  1
  C  C8  1  0.97371100  0.40302000  0.71116400  1
  C  C9  1  0.97280700  0.24277500  0.10052000  1
  C  C10  1  0.10064800  0.39054200  0.57849500  1
  C  C11  1  0.52752200  0.99845400  0.29197400  1
  O  O0  1  0.50914700  0.58528600  0.74877600  1
  O  O1  1  0.49085300  0.08528600  0.74877600  1
  O  O2  1  0.97659400  0.00606200  0.76424300  1
  O  O3  1  0.21967400  0.49418100  0.52678500  1
  O  O4  1  0.28093700  0.00605800  0.47623500  1
  O  O5  1  0.99804900  0.19220600  0.25001700  1
  O  O6  1  0.71906300  0.50605800  0.47623500  1
  O  O7  1  0.67301800  0.92865600  0.24780600  1
  O  O8  1  0.47984300  0.12601100  0.23974300  1
  O  O9  1  0.92418100  0.77917300  0.53067500  1
  O  O10  1  0.00195100  0.69220600  0.25001700  1
  O  O11  1  0.02340600  0.50606200  0.76424300  1
  O  O12  1  0.52015700  0.62601100  0.23974300  1
  O  O13  1  0.42342700  0.79272900  0.47118500  1
  O  O14  1  0.57657300  0.29272900  0.47118500  1
  O  O15  1  0.07581900  0.27917300  0.53067500  1
  O  O16  1  0.78032600  0.99418100  0.52678500  1
  O  O17  1  0.82777200  0.31352300  0.75499200  1
  O  O18  1  0.17222800  0.81352300  0.75499200  1
  O  O19  1  0.32698200  0.42865600  0.24780600  1
loop_
_geom_bond_atom_site_label_1
_geom_bond_atom_site_label_2
_geom_bond_distance
_geom_bond_site_symmetry_2
Fe0 O18 2.090932 1_555
Fe0 O3 2.137483 1_555
Fe0 O11 2.142362 1_555
Fe0 O0 2.156130 1_555
Fe0 O13 2.213835 1_555
Fe0 O9 2.316243 1_455
Fe1 O19 2.091755 1_555
Fe1 O8 2.138337 1_555
Fe1 O4 2.139539 1_555
Fe1 O5 2.145923 1_455
Fe1 O15 2.211183 1_555
Fe1 O14 2.321297 1_555
Fe2 O7 2.091755 1_555
Fe2 O12 2.138337 1_555
Fe2 O6 2.139539 1_555
Fe2 O10 2.145923 1_655
Fe2 O9 2.211183 1_555
Fe2 O13 2.321297 1_555
Fe3 O17 2.090932 1_555
Fe3 O16 2.137483 1_545
Fe3 O2 2.142362 1_555
Fe3 O1 2.156130 1_555
Fe3 O14 2.213835 1_555
Fe3 O15 2.316243 1_655
H2 O10 0.975304 1_555
H4 O0 0.976899 1_555
H5 O5 0.975304 1_555
H15 O1 0.976899 1_555
C0 O4 1.264063 1_565
C0 O13 1.277355 1_555
C1 O12 1.263241 1_555
C1 O19 1.269637 1_555
C2 O6 1.264063 1_555
C2 O14 1.277355 1_555
C3 H14 1.094833 1_555
C3 H12 1.096239 1_455
C3 H1 1.097704 1_555
C3 O10 1.448338 1_555
C4 H8 1.094718 1_555
C4 H0 1.096785 1_555
C4 H7 1.098738 1_555
C4 O0 1.448924 1_555
C5 H9 1.094718 1_555
C5 H11 1.096785 1_555
C5 H6 1.098738 1_545
C5 O1 1.448924 1_555
C6 O2 1.262944 1_465
C6 O18 1.269743 1_555
C7 O16 1.264093 1_555
C7 O9 1.277441 1_555
C8 O11 1.262944 1_655
C8 O17 1.269743 1_555
C9 H3 1.094833 1_555
C9 H10 1.096239 1_655
C9 H13 1.097704 1_555
C9 O5 1.448338 1_555
C10 O3 1.264093 1_555
C10 O15 1.277441 1_555
C11 O8 1.263241 1_565
C11 O7 1.269637 1_555
