# generated using pymatgen
data_CaAl2O4
_symmetry_space_group_name_H-M   'P 1'
_cell_length_a   8.83602601
_cell_length_b   8.83602601
_cell_length_c   8.20259700
_cell_angle_alpha   90.00000000
_cell_angle_beta   90.00000000
_cell_angle_gamma   120.00000010
_symmetry_Int_Tables_number   1
_chemical_formula_structural   CaAl2O4
_chemical_formula_sum   'Ca6 Al12 O24'
_cell_volume   554.62057615
_cell_formula_units_Z   6
loop_
 _symmetry_equiv_pos_site_id
 _symmetry_equiv_pos_as_xyz
  1  'x, y, z'
loop_
 _atom_site_type_symbol
 _atom_site_label
 _atom_site_symmetry_multiplicity
 _atom_site_fract_x
 _atom_site_fract_y
 _atom_site_fract_z
 _atom_site_occupancy
  Ca  Ca0  1  0.00000000  0.00000000  0.22625900  1
  Ca  Ca1  1  0.00000000  0.00000000  0.72625900  1
  Ca  Ca2  1  0.33333300  0.66666700  0.73688900  1
  Ca  Ca3  1  0.33333300  0.66666700  0.30423300  1
  Ca  Ca4  1  0.66666700  0.33333300  0.80423300  1
  Ca  Ca5  1  0.66666700  0.33333300  0.23688900  1
  Al  Al0  1  0.02813400  0.34308400  0.04423200  1
  Al  Al1  1  0.31828100  0.97913500  0.43679700  1
  Al  Al2  1  0.31495000  0.97186600  0.04423200  1
  Al  Al3  1  0.66085400  0.68171900  0.43679700  1
  Al  Al4  1  0.97186600  0.65691600  0.54423200  1
  Al  Al5  1  0.68171900  0.02086500  0.93679700  1
  Al  Al6  1  0.34308400  0.31495000  0.54423200  1
  Al  Al7  1  0.65691600  0.68505000  0.04423200  1
  Al  Al8  1  0.97913500  0.66085400  0.93679700  1
  Al  Al9  1  0.33914600  0.31828100  0.93679700  1
  Al  Al10  1  0.02086500  0.33914600  0.43679700  1
  Al  Al11  1  0.68505000  0.02813400  0.54423200  1
  O  O0  1  0.79060600  0.58277300  0.41001300  1
  O  O1  1  0.90186400  0.44761100  0.01922400  1
  O  O2  1  0.38503600  0.26407700  0.74134400  1
  O  O3  1  0.58277300  0.79216700  0.91001300  1
  O  O4  1  0.77429300  0.88661700  0.53536300  1
  O  O5  1  0.41722700  0.20783300  0.41001300  1
  O  O6  1  0.44761100  0.54574800  0.51922400  1
  O  O7  1  0.09813600  0.55238900  0.51922400  1
  O  O8  1  0.73592300  0.12096000  0.74134400  1
  O  O9  1  0.11338300  0.88767600  0.53536300  1
  O  O10  1  0.11232400  0.22570700  0.53536300  1
  O  O11  1  0.79216700  0.20939400  0.41001300  1
  O  O12  1  0.22570700  0.11338300  0.03536300  1
  O  O13  1  0.88661700  0.11232400  0.03536300  1
  O  O14  1  0.20783300  0.79060600  0.91001300  1
  O  O15  1  0.45425200  0.90186400  0.51922400  1
  O  O16  1  0.55238900  0.45425200  0.01922400  1
  O  O17  1  0.61496400  0.73592300  0.24134400  1
  O  O18  1  0.88767600  0.77429300  0.03536300  1
  O  O19  1  0.54574800  0.09813600  0.01922400  1
  O  O20  1  0.87904000  0.61496400  0.74134400  1
  O  O21  1  0.20939400  0.41722700  0.91001300  1
  O  O22  1  0.12096000  0.38503600  0.24134400  1
  O  O23  1  0.26407700  0.87904000  0.24134400  1
loop_
_geom_bond_atom_site_label_1
_geom_bond_atom_site_label_2
_geom_bond_distance
_geom_bond_site_symmetry_2
Ca0 O12 2.331302 1_555
Ca0 O18 2.331302 1_445
Ca0 O13 2.331302 1_455
Ca1 O4 2.331302 1_445
Ca1 O10 2.331302 1_555
Ca1 O9 2.331302 1_545
Ca2 O14 2.379078 1_555
Ca2 O3 2.379084 1_555
Ca2 O21 2.379084 1_555
Ca2 O15 2.535308 1_555
Ca2 O7 2.535308 1_555
Ca2 O6 2.535308 1_555
Ca3 O23 2.304409 1_555
Ca3 O22 2.304421 1_555
Ca3 O17 2.304426 1_555
Ca3 O15 2.519910 1_555
Ca3 O7 2.519910 1_555
Ca3 O6 2.519910 1_555
Ca4 O8 2.304409 1_555
Ca4 O20 2.304421 1_555
Ca4 O2 2.304426 1_555
Ca4 O19 2.519910 1_556
Ca4 O1 2.519910 1_556
Ca4 O16 2.519910 1_556
Ca5 O11 2.379078 1_555
Ca5 O5 2.379084 1_555
Ca5 O0 2.379084 1_555
Ca5 O19 2.535308 1_555
Ca5 O1 2.535308 1_555
Ca5 O16 2.535308 1_555
Al0 O22 1.766425 1_555
Al0 O21 1.776847 1_554
Al0 O1 1.780576 1_455
Al0 O13 1.782351 1_455
Al1 O9 1.766773 1_555
Al1 O5 1.769028 1_565
Al1 O23 1.777174 1_555
Al1 O15 1.785239 1_555
Al2 O23 1.766424 1_555
Al2 O14 1.776847 1_554
Al2 O19 1.780583 1_565
Al2 O12 1.782351 1_565
Al3 O4 1.766773 1_555
Al3 O0 1.769028 1_555
Al3 O17 1.777171 1_555
Al3 O6 1.785245 1_555
Al4 O20 1.766425 1_555
Al4 O0 1.776847 1_555
Al4 O7 1.780576 1_655
Al4 O9 1.782351 1_655
Al5 O13 1.766773 1_556
Al5 O3 1.769028 1_545
Al5 O8 1.777174 1_555
Al5 O19 1.785239 1_556
Al6 O2 1.766421 1_555
Al6 O5 1.776847 1_555
Al6 O6 1.780584 1_555
Al6 O10 1.782351 1_555
Al7 O17 1.766421 1_555
Al7 O3 1.776847 1_554
Al7 O16 1.780584 1_555
Al7 O18 1.782351 1_555
Al8 O18 1.766773 1_556
Al8 O14 1.769028 1_655
Al8 O20 1.777174 1_555
Al8 O1 1.785247 1_556
Al9 O12 1.766773 1_556
Al9 O21 1.769028 1_555
Al9 O2 1.777171 1_555
Al9 O16 1.785245 1_556
Al10 O10 1.766773 1_555
Al10 O11 1.769028 1_455
Al10 O22 1.777174 1_555
Al10 O7 1.785247 1_555
Al11 O8 1.766424 1_555
Al11 O11 1.776847 1_555
Al11 O15 1.780583 1_545
Al11 O4 1.782351 1_545
