# generated using pymatgen
data_Ho2CdS4
_symmetry_space_group_name_H-M   'P 1'
_cell_length_a   7.94845272
_cell_length_b   7.94845272
_cell_length_c   33.03095421
_cell_angle_alpha   82.79262785
_cell_angle_beta   82.79262785
_cell_angle_gamma   60.58567434
_symmetry_Int_Tables_number   1
_chemical_formula_structural   Ho2CdS4
_chemical_formula_sum   'Ho20 Cd10 S40'
_cell_volume   1798.52432276
_cell_formula_units_Z   10
loop_
 _symmetry_equiv_pos_site_id
 _symmetry_equiv_pos_as_xyz
  1  'x, y, z'
loop_
 _atom_site_type_symbol
 _atom_site_label
 _atom_site_symmetry_multiplicity
 _atom_site_fract_x
 _atom_site_fract_y
 _atom_site_fract_z
 _atom_site_occupancy
  Ho  Ho0  1  0.00394300  0.00394300  0.99931400  1
  Ho  Ho1  1  0.38031400  0.87270200  0.87538300  1
  Ho  Ho2  1  0.40439400  0.40439400  0.79938700  1
  Ho  Ho3  1  0.87270200  0.38031400  0.87538300  1
  Ho  Ho4  1  0.67584900  0.67584900  0.97388300  1
  Ho  Ho5  1  0.78040400  0.27271400  0.67550300  1
  Ho  Ho6  1  0.27271400  0.78040400  0.67550300  1
  Ho  Ho7  1  0.80438000  0.80438000  0.59950200  1
  Ho  Ho8  1  0.07580900  0.07580900  0.77391400  1
  Ho  Ho9  1  0.18065300  0.67274200  0.47563000  1
  Ho  Ho10  1  0.67274200  0.18065300  0.47563000  1
  Ho  Ho11  1  0.47551900  0.47551900  0.57421100  1
  Ho  Ho12  1  0.57779400  0.07418500  0.27377700  1
  Ho  Ho13  1  0.07418500  0.57779400  0.27377700  1
  Ho  Ho14  1  0.87276100  0.87276100  0.37421100  1
  Ho  Ho15  1  0.07444200  0.07444200  0.27380900  1
  Ho  Ho16  1  0.97714800  0.47290700  0.07590800  1
  Ho  Ho17  1  0.20295800  0.20295800  0.40029700  1
  Ho  Ho18  1  0.27806400  0.27806400  0.17411300  1
  Ho  Ho19  1  0.47290700  0.97714800  0.07590800  1
  Cd  Cd0  1  0.34615700  0.34615700  0.95123100  1
  Cd  Cd1  1  0.74590300  0.74590300  0.75066400  1
  Cd  Cd2  1  0.87081900  0.87081900  0.87568400  1
  Cd  Cd3  1  0.14584400  0.14584400  0.55094400  1
  Cd  Cd4  1  0.27058200  0.27058200  0.67586900  1
  Cd  Cd5  1  0.54818500  0.54818500  0.35041700  1
  Cd  Cd6  1  0.67027500  0.67027500  0.47608600  1
  Cd  Cd7  1  0.94770300  0.94770300  0.14893100  1
  Cd  Cd8  1  0.60194300  0.60194300  0.19826900  1
  Cd  Cd9  1  0.47281200  0.47281200  0.07674300  1
  S  S0  1  0.53511800  0.53511800  0.92346000  1
  S  S1  1  0.53245700  0.00618300  0.92396200  1
  S  S2  1  0.72180400  0.72180400  0.82928100  1
  S  S3  1  0.00618300  0.53245700  0.92396200  1
  S  S4  1  0.74753100  0.21460100  0.82635800  1
  S  S5  1  0.93506600  0.93506600  0.72339500  1
  S  S6  1  0.93257400  0.40586100  0.72385100  1
  S  S7  1  0.12179800  0.12179800  0.62920300  1
  S  S8  1  0.02780100  0.02780100  0.91979300  1
  S  S9  1  0.21460100  0.74753100  0.82635800  1
  S  S10  1  0.21500600  0.21500600  0.82639400  1
  S  S11  1  0.40586100  0.93257400  0.72385100  1
  S  S12  1  0.33507200  0.33507200  0.52332000  1
  S  S13  1  0.14753300  0.61487100  0.62620800  1
  S  S14  1  0.33276800  0.80600100  0.52372200  1
  S  S15  1  0.42786300  0.42786300  0.71977100  1
  S  S16  1  0.52144200  0.52144200  0.42886700  1
  S  S17  1  0.61487100  0.14753300  0.62620800  1
  S  S18  1  0.80600100  0.33276800  0.52372200  1
  S  S19  1  0.61498200  0.61498200  0.62628100  1
  S  S20  1  0.73526700  0.73526700  0.32318500  1
  S  S21  1  0.54662600  0.01519100  0.42636200  1
  S  S22  1  0.92362800  0.92362800  0.22953300  1
  S  S23  1  0.82782600  0.82782600  0.51971000  1
  S  S24  1  0.73666200  0.20341200  0.32350000  1
  S  S25  1  0.01519100  0.54662600  0.42636200  1
  S  S26  1  0.01391000  0.01391000  0.42627600  1
  S  S27  1  0.20341200  0.73666200  0.32350000  1
  S  S28  1  0.94544500  0.41376100  0.22696500  1
  S  S29  1  0.13579800  0.13579800  0.12419200  1
  S  S30  1  0.22688700  0.22688700  0.32024400  1
  S  S31  1  0.32274100  0.32274100  0.03007200  1
  S  S32  1  0.13126700  0.60613200  0.12429800  1
  S  S33  1  0.41376100  0.94544500  0.22696500  1
  S  S34  1  0.41486500  0.41486500  0.22729800  1
  S  S35  1  0.60613200  0.13126700  0.12429800  1
  S  S36  1  0.34705400  0.81538400  0.02625800  1
  S  S37  1  0.62724000  0.62724000  0.12025800  1
  S  S38  1  0.81538400  0.34705400  0.02625800  1
  S  S39  1  0.81467000  0.81467000  0.02662100  1
loop_
_geom_bond_atom_site_label_1
_geom_bond_atom_site_label_2
_geom_bond_distance
_geom_bond_site_symmetry_2
Ho0 S36 2.595279 1_546
Ho0 S38 2.595279 1_456
Ho0 S8 2.599344 1_555
Ho0 S39 2.623413 1_446
Ho1 S1 2.708720 1_565
Ho1 S2 2.710790 1_555
Ho1 S0 2.722843 1_555
Ho1 S8 2.748087 1_565
Ho1 S9 2.752036 1_555
Ho1 S10 2.768546 1_565
Ho2 S9 2.596004 1_555
Ho2 S4 2.596004 1_555
Ho2 S15 2.602575 1_555
Ho2 S10 2.622937 1_555
Ho3 S3 2.708720 1_655
Ho3 S2 2.710790 1_555
Ho3 S0 2.722843 1_555
Ho3 S8 2.748087 1_655
Ho3 S4 2.752036 1_555
Ho3 S10 2.768546 1_655
Ho4 S1 2.712526 1_565
Ho4 S3 2.712526 1_655
Ho4 S0 2.727718 1_555
Ho4 S36 2.748241 1_556
Ho4 S38 2.748241 1_556
Ho4 S39 2.762256 1_556
Ho5 S6 2.701736 1_555
Ho5 S7 2.713471 1_655
Ho5 S5 2.719999 1_545
Ho5 S15 2.746092 1_555
Ho5 S17 2.757242 1_555
Ho5 S19 2.772428 1_555
Ho6 S11 2.701736 1_555
Ho6 S7 2.713471 1_565
Ho6 S5 2.719999 1_455
Ho6 S15 2.746092 1_555
Ho6 S13 2.757242 1_555
Ho6 S19 2.772428 1_555
Ho7 S13 2.592550 1_655
Ho7 S17 2.592550 1_565
Ho7 S23 2.608352 1_555
Ho7 S19 2.621600 1_555
Ho8 S11 2.713498 1_545
Ho8 S6 2.713498 1_455
Ho8 S5 2.730113 1_445
Ho8 S4 2.746665 1_455
Ho8 S9 2.746665 1_545
Ho8 S10 2.760076 1_555
Ho9 S14 2.696153 1_555
Ho9 S12 2.716617 1_555
Ho9 S16 2.717715 1_555
Ho9 S23 2.744898 1_455
Ho9 S25 2.761191 1_555
Ho9 S26 2.769556 1_565
Ho10 S18 2.696153 1_555
Ho10 S12 2.716617 1_555
Ho10 S16 2.717715 1_555
Ho10 S23 2.744898 1_545
Ho10 S21 2.761191 1_555
Ho10 S26 2.769556 1_655
Ho11 S18 2.723385 1_555
Ho11 S14 2.723385 1_555
Ho11 S12 2.735673 1_555
Ho11 S17 2.736892 1_555
Ho11 S13 2.736892 1_555
Ho11 S19 2.753093 1_555
Ho12 S22 2.706231 1_545
Ho12 S33 2.711320 1_545
Ho12 S34 2.716231 1_555
Ho12 S24 2.750415 1_555
Ho12 S20 2.753994 1_545
Ho12 S30 2.770638 1_555
Ho13 S22 2.706231 1_455
Ho13 S28 2.711320 1_455
Ho13 S34 2.716231 1_555
Ho13 S27 2.750415 1_555
Ho13 S20 2.753994 1_455
Ho13 S30 2.770638 1_555
Ho14 S20 2.706829 1_555
Ho14 S27 2.727759 1_655
Ho14 S24 2.727759 1_565
Ho14 S21 2.730405 1_565
Ho14 S25 2.730405 1_655
Ho14 S26 2.771203 1_665
Ho15 S22 2.702599 1_445
Ho15 S28 2.711874 1_455
Ho15 S33 2.711874 1_545
Ho15 S24 2.750678 1_455
Ho15 S27 2.750678 1_545
Ho15 S30 2.768355 1_555
Ho16 S32 2.714210 1_655
Ho16 S29 2.725236 1_655
Ho16 S31 2.729817 1_655
Ho16 S37 2.731932 1_555
Ho16 S38 2.747283 1_555
Ho16 S39 2.769382 1_555
Ho17 S21 2.587222 1_555
Ho17 S25 2.587222 1_555
Ho17 S26 2.612076 1_555
Ho17 S30 2.616759 1_555
Ho18 S35 2.699109 1_555
Ho18 S32 2.699109 1_555
Ho18 S29 2.732787 1_555
Ho18 S34 2.751516 1_555
Ho18 S28 2.777433 1_455
Ho18 S33 2.777433 1_545
Ho19 S35 2.714210 1_565
Ho19 S29 2.725236 1_565
Ho19 S31 2.729817 1_565
Ho19 S37 2.731932 1_555
Ho19 S36 2.747283 1_555
Ho19 S39 2.769382 1_555
Cd0 S31 2.577187 1_556
Cd0 S3 2.579131 1_555
Cd0 S1 2.579131 1_555
Cd0 S0 2.622502 1_555
Cd1 S2 2.569657 1_555
Cd1 S6 2.573501 1_555
Cd1 S11 2.573501 1_555
Cd1 S5 2.621743 1_555
Cd2 S2 2.728390 1_555
Cd2 S3 2.728707 1_655
Cd2 S1 2.728707 1_565
Cd2 S8 2.770950 1_665
Cd2 S4 2.781173 1_565
Cd2 S9 2.781173 1_655
Cd3 S7 2.557942 1_555
Cd3 S18 2.577738 1_455
Cd3 S14 2.577738 1_545
Cd3 S12 2.624947 1_555
Cd4 S11 2.721717 1_545
Cd4 S6 2.721717 1_455
Cd4 S7 2.731593 1_555
Cd4 S15 2.770097 1_555
Cd4 S17 2.789864 1_555
Cd4 S13 2.789864 1_555
Cd5 S16 2.563796 1_555
Cd5 S20 2.594649 1_555
Cd5 S24 2.605626 1_555
Cd5 S27 2.605626 1_555
Cd6 S14 2.712998 1_555
Cd6 S18 2.712998 1_555
Cd6 S16 2.744474 1_555
Cd6 S23 2.767435 1_555
Cd6 S25 2.794314 1_655
Cd6 S21 2.794314 1_565
Cd7 S35 2.554869 1_565
Cd7 S32 2.554869 1_655
Cd7 S29 2.592412 1_665
Cd7 S22 2.634710 1_555
Cd8 S37 2.549577 1_555
Cd8 S34 2.607287 1_555
Cd8 S33 2.621559 1_555
Cd8 S28 2.621559 1_555
Cd9 S37 2.728478 1_555
Cd9 S35 2.735353 1_555
Cd9 S32 2.735353 1_555
Cd9 S31 2.746378 1_555
Cd9 S38 2.792791 1_555
Cd9 S36 2.792791 1_555
