# generated using pymatgen
data_MnCu(Te2O5)2
_symmetry_space_group_name_H-M   'P 1'
_cell_length_a   8.96855300
_cell_length_b   8.96855300
_cell_length_c   12.88854700
_cell_angle_alpha   90.00000000
_cell_angle_beta   90.00000000
_cell_angle_gamma   90.00000000
_symmetry_Int_Tables_number   1
_chemical_formula_structural   MnCu(Te2O5)2
_chemical_formula_sum   'Mn4 Cu4 Te16 O40'
_cell_volume   1036.68954219
_cell_formula_units_Z   4
loop_
 _symmetry_equiv_pos_site_id
 _symmetry_equiv_pos_as_xyz
  1  'x, y, z'
loop_
 _atom_site_type_symbol
 _atom_site_label
 _atom_site_symmetry_multiplicity
 _atom_site_fract_x
 _atom_site_fract_y
 _atom_site_fract_z
 _atom_site_occupancy
  Mn  Mn0  1  0.50000000  0.00000000  0.75000000  1
  Mn  Mn1  1  0.50000000  0.00000000  0.25000000  1
  Mn  Mn2  1  0.00000000  0.50000000  0.75000000  1
  Mn  Mn3  1  0.00000000  0.50000000  0.25000000  1
  Cu  Cu0  1  0.50000000  0.00000000  0.00000000  1
  Cu  Cu1  1  0.50000000  0.00000000  0.50000000  1
  Cu  Cu2  1  0.00000000  0.50000000  0.50000000  1
  Cu  Cu3  1  0.00000000  0.50000000  0.00000000  1
  Te  Te0  1  0.28424100  0.67971500  0.36673900  1
  Te  Te1  1  0.82028500  0.78424100  0.86673900  1
  Te  Te2  1  0.71575900  0.67971500  0.13326100  1
  Te  Te3  1  0.71575900  0.32028500  0.36673900  1
  Te  Te4  1  0.17971500  0.21575900  0.86673900  1
  Te  Te5  1  0.82028500  0.21575900  0.63326100  1
  Te  Te6  1  0.17971500  0.78424100  0.63326100  1
  Te  Te7  1  0.28424100  0.32028500  0.13326100  1
  Te  Te8  1  0.21575900  0.17971500  0.36673900  1
  Te  Te9  1  0.32028500  0.71575900  0.86673900  1
  Te  Te10  1  0.67971500  0.28424100  0.86673900  1
  Te  Te11  1  0.21575900  0.82028500  0.13326100  1
  Te  Te12  1  0.78424100  0.17971500  0.13326100  1
  Te  Te13  1  0.78424100  0.82028500  0.36673900  1
  Te  Te14  1  0.67971500  0.71575900  0.63326100  1
  Te  Te15  1  0.32028500  0.28424100  0.63326100  1
  O  O0  1  0.29396400  0.79396400  0.50000000  1
  O  O1  1  0.70603600  0.79396400  0.00000000  1
  O  O2  1  0.29396400  0.20603600  0.00000000  1
  O  O3  1  0.70603600  0.20603600  0.50000000  1
  O  O4  1  0.20603600  0.70603600  0.00000000  1
  O  O5  1  0.79396400  0.70603600  0.50000000  1
  O  O6  1  0.20603600  0.29396400  0.50000000  1
  O  O7  1  0.79396400  0.29396400  0.00000000  1
  O  O8  1  0.12848400  0.26675900  0.70085700  1
  O  O9  1  0.87151600  0.73324100  0.70085700  1
  O  O10  1  0.76675900  0.62848400  0.29914300  1
  O  O11  1  0.76675900  0.37151600  0.20085700  1
  O  O12  1  0.23324100  0.62848400  0.20085700  1
  O  O13  1  0.87151600  0.26675900  0.79914300  1
  O  O14  1  0.12848400  0.73324100  0.79914300  1
  O  O15  1  0.86694400  0.42324400  0.61364000  1
  O  O16  1  0.37151600  0.23324100  0.79914300  1
  O  O17  1  0.62848400  0.76675900  0.79914300  1
  O  O18  1  0.73324100  0.87151600  0.20085700  1
  O  O19  1  0.73324100  0.12848400  0.29914300  1
  O  O20  1  0.26675900  0.87151600  0.29914300  1
  O  O21  1  0.62848400  0.23324100  0.70085700  1
  O  O22  1  0.37151600  0.76675900  0.70085700  1
  O  O23  1  0.26675900  0.12848400  0.20085700  1
  O  O24  1  0.42324400  0.86694400  0.11364000  1
  O  O25  1  0.63305600  0.92324400  0.61364000  1
  O  O26  1  0.36694400  0.07675600  0.61364000  1
  O  O27  1  0.42324400  0.13305600  0.38636000  1
  O  O28  1  0.57675600  0.86694400  0.38636000  1
  O  O29  1  0.57675600  0.13305600  0.11364000  1
  O  O30  1  0.36694400  0.92324400  0.88636000  1
  O  O31  1  0.63305600  0.07675600  0.88636000  1
  O  O32  1  0.07675600  0.63305600  0.38636000  1
  O  O33  1  0.86694400  0.57675600  0.88636000  1
  O  O34  1  0.13305600  0.42324400  0.88636000  1
  O  O35  1  0.07675600  0.36694400  0.11364000  1
  O  O36  1  0.92324400  0.63305600  0.11364000  1
  O  O37  1  0.92324400  0.36694400  0.38636000  1
  O  O38  1  0.13305600  0.57675600  0.61364000  1
  O  O39  1  0.23324100  0.37151600  0.29914300  1
loop_
_geom_bond_atom_site_label_1
_geom_bond_atom_site_label_2
_geom_bond_distance
_geom_bond_site_symmetry_2
Mn0 O26 2.233078 1_555
Mn0 O31 2.233078 1_555
Mn0 O25 2.233078 1_545
Mn0 O30 2.233078 1_545
Mn0 O21 2.470784 1_555
Mn0 O17 2.470784 1_545
Mn0 O16 2.470784 1_555
Mn0 O22 2.470784 1_545
Mn1 O29 2.233078 1_555
Mn1 O28 2.233078 1_545
Mn1 O27 2.233078 1_555
Mn1 O24 2.233078 1_545
Mn1 O19 2.470784 1_555
Mn1 O18 2.470784 1_545
Mn1 O20 2.470784 1_545
Mn1 O23 2.470784 1_555
Mn2 O38 2.233078 1_555
Mn2 O33 2.233078 1_455
Mn2 O34 2.233078 1_555
Mn2 O15 2.233078 1_455
Mn2 O14 2.470784 1_555
Mn2 O9 2.470784 1_455
Mn2 O13 2.470784 1_455
Mn2 O8 2.470784 1_555
Mn3 O35 2.233078 1_555
Mn3 O32 2.233078 1_555
Mn3 O36 2.233078 1_455
Mn3 O37 2.233078 1_455
Mn3 O12 2.470784 1_555
Mn3 O10 2.470784 1_455
Mn3 O39 2.470784 1_555
Mn3 O11 2.470784 1_455
Cu0 O31 2.010748 1_554
Cu0 O29 2.010748 1_555
Cu0 O30 2.010748 1_544
Cu0 O24 2.010748 1_545
Cu0 O2 2.613247 1_555
Cu0 O1 2.613247 1_545
Cu1 O26 2.010748 1_555
Cu1 O25 2.010748 1_545
Cu1 O28 2.010748 1_545
Cu1 O27 2.010748 1_555
Cu1 O0 2.613247 1_545
Cu1 O3 2.613247 1_555
Cu2 O32 2.010748 1_555
Cu2 O38 2.010748 1_555
Cu2 O37 2.010748 1_455
Cu2 O15 2.010748 1_455
Cu2 O6 2.613247 1_555
Cu2 O5 2.613247 1_455
Cu3 O35 2.010748 1_555
Cu3 O36 2.010748 1_455
Cu3 O33 2.010748 1_454
Cu3 O34 2.010748 1_554
Cu3 O7 2.613247 1_455
Cu3 O4 2.613247 1_555
O0 Te0 2.001863 1_555
O0 Te6 2.001863 1_555
O1 Te2 2.001863 1_555
O1 Te1 2.001863 1_554
O2 Te7 2.001863 1_555
O2 Te4 2.001863 1_554
O3 Te5 2.001863 1_555
O3 Te3 2.001863 1_555
O4 Te11 2.001863 1_555
O4 Te9 2.001863 1_554
O5 Te13 2.001863 1_555
O5 Te14 2.001863 1_555
O6 Te15 2.001863 1_555
O6 Te8 2.001863 1_555
O7 Te12 2.001863 1_555
O7 Te10 2.001863 1_554
O8 Te15 1.934582 1_555
O8 Te4 2.234115 1_555
O9 Te14 1.934582 1_555
O9 Te1 2.234115 1_555
O10 Te13 1.934582 1_555
O10 Te2 2.234115 1_555
O11 Te12 1.934582 1_555
O11 Te3 2.234115 1_555
O12 Te11 1.934582 1_555
O12 Te0 2.234115 1_555
O13 Te10 1.934582 1_555
O13 Te5 2.234115 1_555
O14 Te9 1.934582 1_555
O14 Te6 2.234115 1_555
O15 Te5 1.924004 1_555
O16 Te4 1.934582 1_555
O16 Te15 2.234115 1_555
O17 Te1 1.934582 1_555
O17 Te14 2.234115 1_555
O18 Te2 1.934582 1_555
O18 Te13 2.234115 1_555
O19 Te3 1.934582 1_555
O19 Te12 2.234115 1_555
O20 Te0 1.934582 1_555
O20 Te11 2.234115 1_555
O21 Te5 1.934582 1_555
O21 Te10 2.234115 1_555
O22 Te6 1.934582 1_555
O22 Te9 2.234115 1_555
O23 Te7 1.934582 1_555
O23 Te8 2.234115 1_555
O24 Te11 1.924004 1_555
O25 Te14 1.924004 1_555
O26 Te15 1.924004 1_555
O27 Te8 1.924004 1_555
O28 Te13 1.924004 1_555
O29 Te12 1.924004 1_555
O30 Te9 1.924004 1_555
O31 Te10 1.924004 1_555
O32 Te0 1.924004 1_555
O33 Te1 1.924004 1_555
O34 Te4 1.924004 1_555
O35 Te7 1.924004 1_555
O36 Te2 1.924004 1_555
O37 Te3 1.924004 1_555
O38 Te6 1.924004 1_555
O39 Te8 1.934582 1_555
O39 Te7 2.234115 1_555
