# generated using pymatgen
data_YbNdS3
_symmetry_space_group_name_H-M   'P 1'
_cell_length_a   6.57131683
_cell_length_b   6.57131683
_cell_length_c   9.49537834
_cell_angle_alpha   90.00000000
_cell_angle_beta   90.00000000
_cell_angle_gamma   145.75260437
_symmetry_Int_Tables_number   1
_chemical_formula_structural   YbNdS3
_chemical_formula_sum   'Yb2 Nd2 S6'
_cell_volume   230.75227080
_cell_formula_units_Z   2
loop_
 _symmetry_equiv_pos_site_id
 _symmetry_equiv_pos_as_xyz
  1  'x, y, z'
loop_
 _atom_site_type_symbol
 _atom_site_label
 _atom_site_symmetry_multiplicity
 _atom_site_fract_x
 _atom_site_fract_y
 _atom_site_fract_z
 _atom_site_occupancy
  Yb  Yb0  1  0.00000000  0.00000000  0.50000000  1
  Yb  Yb1  1  0.00000000  0.00000000  0.00000000  1
  Nd  Nd0  1  0.74684296  0.25315704  0.25000000  1
  Nd  Nd1  1  0.25315704  0.74684296  0.75000000  1
  S  S0  1  0.64181557  0.35818443  0.56301605  1
  S  S1  1  0.64181557  0.35818443  0.93698395  1
  S  S2  1  0.35818443  0.64181557  0.06301605  1
  S  S3  1  0.35818443  0.64181557  0.43698395  1
  S  S4  1  0.08634158  0.91365842  0.25000000  1
  S  S5  1  0.91365842  0.08634158  0.75000000  1
loop_
_geom_bond_atom_site_label_1
_geom_bond_atom_site_label_2
_geom_bond_distance
_geom_bond_site_symmetry_2
Nd0 S4 2.794178 1_545
Nd0 S4 2.794178 1_655
Nd0 S2 2.975160 1_545
Nd0 S2 2.975160 1_655
Nd0 S3 2.975160 1_545
Nd0 S3 2.975160 1_655
Nd0 S1 3.251793 1_554
Nd0 S0 3.251793 1_555
Nd1 S5 2.794178 1_565
Nd1 S5 2.794178 1_455
Nd1 S0 2.975160 1_455
Nd1 S0 2.975160 1_565
Nd1 S1 2.975160 1_565
Nd1 S1 2.975160 1_455
Nd1 S3 3.251793 1_555
Nd1 S2 3.251793 1_556
S0 Yb0 2.697092 1_555
S0 Yb0 2.697092 1_665
S1 Yb1 2.697092 1_556
S1 Yb1 2.697092 1_666
S2 Yb1 2.697092 1_555
S2 Yb1 2.697092 1_665
S3 Yb0 2.697092 1_555
S3 Yb0 2.697092 1_665
S4 Yb0 2.609823 1_565
S4 Yb1 2.609823 1_565
S5 Yb0 2.609823 1_655
S5 Yb1 2.609823 1_656
