# generated using pymatgen
data_SiC
_symmetry_space_group_name_H-M   'P 1'
_cell_length_a   3.07652583
_cell_length_b   3.07652580
_cell_length_c   12.58369976
_cell_angle_alpha   90.00000000
_cell_angle_beta   90.00000000
_cell_angle_gamma   119.99998963
_symmetry_Int_Tables_number   1
_chemical_formula_structural   SiC
_chemical_formula_sum   'Si5 C5'
_cell_volume   103.14784347
_cell_formula_units_Z   5
loop_
 _symmetry_equiv_pos_site_id
 _symmetry_equiv_pos_as_xyz
  1  'x, y, z'
loop_
 _atom_site_type_symbol
 _atom_site_label
 _atom_site_symmetry_multiplicity
 _atom_site_fract_x
 _atom_site_fract_y
 _atom_site_fract_z
 _atom_site_occupancy
  Si  Si0  1  0.66666700  0.33333300  0.39973251  1
  Si  Si1  1  0.66666700  0.33333300  0.80007769  1
  Si  Si2  1  -0.00000000  0.00000000  0.00008288  1
  Si  Si3  1  0.33333300  0.66666700  0.19990901  1
  Si  Si4  1  -0.00000000  0.00000000  0.59978169  1
  C  C0  1  0.66666700  0.33333300  0.95044399  1
  C  C1  1  0.33333300  0.66666700  0.35002157  1
  C  C2  1  0.00000000  -0.00000000  0.15011150  1
  C  C3  1  0.66666700  0.33333300  0.54972738  1
  C  C4  1  -0.00000000  -0.00000000  0.75011177  1
loop_
_geom_bond_atom_site_label_1
_geom_bond_atom_site_label_2
_geom_bond_distance
_geom_bond_site_symmetry_2
C0 Si2 1.882863 1_656
C0 Si2 1.882866 1_666
C0 Si2 1.882866 1_556
C0 Si1 1.892164 1_555
C1 Si0 1.883164 1_565
C1 Si0 1.883164 1_455
C1 Si0 1.883169 1_555
C1 Si3 1.888971 1_555
C2 Si3 1.883526 1_545
C2 Si3 1.883529 1_555
C2 Si3 1.883529 1_445
C2 Si2 1.887915 1_555
C3 Si4 1.884604 1_655
C3 Si4 1.884607 1_665
C3 Si4 1.884607 1_555
C3 Si0 1.887490 1_555
C4 Si1 1.884232 1_455
C4 Si1 1.884235 1_445
C4 Si1 1.884235 1_555
C4 Si4 1.891709 1_555
