# generated using pymatgen
data_KV3Cu5O13
_symmetry_space_group_name_H-M   'P 1'
_cell_length_a   6.15158300
_cell_length_b   8.30599131
_cell_length_c   10.90224523
_cell_angle_alpha   97.90928123
_cell_angle_beta   92.74881973
_cell_angle_gamma   90.59062806
_symmetry_Int_Tables_number   1
_chemical_formula_structural   KV3Cu5O13
_chemical_formula_sum   'K2 V6 Cu10 O26'
_cell_volume   551.03570868
_cell_formula_units_Z   2
loop_
 _symmetry_equiv_pos_site_id
 _symmetry_equiv_pos_as_xyz
  1  'x, y, z'
loop_
 _atom_site_type_symbol
 _atom_site_label
 _atom_site_symmetry_multiplicity
 _atom_site_fract_x
 _atom_site_fract_y
 _atom_site_fract_z
 _atom_site_occupancy
  K  K0  1  0.75231500  0.47914400  0.59850000  1
  K  K1  1  0.24768500  0.52085600  0.40150000  1
  V  V0  1  0.24006200  0.12521500  0.49439700  1
  V  V1  1  0.75993800  0.87478500  0.50560300  1
  V  V2  1  0.25923400  0.17950100  0.12181800  1
  V  V3  1  0.25682000  0.47192300  0.78819500  1
  V  V4  1  0.74318000  0.52807700  0.21180500  1
  V  V5  1  0.74076600  0.82049900  0.87818200  1
  Cu  Cu0  1  0.00069000  0.10525000  0.77127600  1
  Cu  Cu1  1  0.74258200  0.19212600  0.35465200  1
  Cu  Cu2  1  0.26759500  0.85447600  0.93879600  1
  Cu  Cu3  1  0.22544500  0.60489000  0.10408000  1
  Cu  Cu4  1  0.49150600  0.89363700  0.23262800  1
  Cu  Cu5  1  0.73240500  0.14552400  0.06120400  1
  Cu  Cu6  1  0.50849400  0.10636300  0.76737200  1
  Cu  Cu7  1  0.25741800  0.80787400  0.64534800  1
  Cu  Cu8  1  0.77455500  0.39511000  0.89592000  1
  Cu  Cu9  1  0.99931000  0.89475000  0.22872400  1
  O  O0  1  0.24334900  0.05153900  0.65668400  1
  O  O1  1  0.45491600  0.25010600  0.48083700  1
  O  O2  1  0.25125200  0.57687800  0.66313200  1
  O  O3  1  0.98007600  0.65651400  0.22222900  1
  O  O4  1  0.75665100  0.94846100  0.34331600  1
  O  O5  1  0.02103000  0.11856100  0.18956300  1
  O  O6  1  0.00292500  0.23082000  0.46734600  1
  O  O7  1  0.23668800  0.38270400  0.12142100  1
  O  O8  1  0.25601700  0.96272600  0.38141900  1
  O  O9  1  0.27106600  0.61744300  0.92465800  1
  O  O10  1  0.23268200  0.84370800  0.11635700  1
  O  O11  1  0.74874800  0.42312200  0.33686800  1
  O  O12  1  0.51356200  0.13208300  0.20360500  1
  O  O13  1  0.76331200  0.61729600  0.87857900  1
  O  O14  1  0.48105600  0.34434600  0.77909800  1
  O  O15  1  0.72753000  0.91203500  0.03188600  1
  O  O16  1  0.72893400  0.38255700  0.07534200  1
  O  O17  1  0.54508400  0.74989400  0.51916300  1
  O  O18  1  0.99707500  0.76918000  0.53265400  1
  O  O19  1  0.74398300  0.03727400  0.61858100  1
  O  O20  1  0.97897000  0.88143900  0.81043700  1
  O  O21  1  0.76731800  0.15629200  0.88364300  1
  O  O22  1  0.48643800  0.86791700  0.79639500  1
  O  O23  1  0.51894400  0.65565400  0.22090200  1
  O  O24  1  0.01992400  0.34348600  0.77777100  1
  O  O25  1  0.27247000  0.08796500  0.96811400  1
loop_
_geom_bond_atom_site_label_1
_geom_bond_atom_site_label_2
_geom_bond_distance
_geom_bond_site_symmetry_2
K0 O1 2.764624 1_555
K0 O17 2.814113 1_555
K0 O11 2.825166 1_555
K0 O24 2.852240 1_655
K0 O6 2.853204 1_655
K0 O14 2.966143 1_555
K0 O18 3.015069 1_555
K0 O13 3.107958 1_555
K0 O2 3.187409 1_655
K0 O2 3.280051 1_555
K1 O17 2.764624 1_555
K1 O1 2.814113 1_555
K1 O2 2.825166 1_555
K1 O3 2.852240 1_455
K1 O18 2.853204 1_455
K1 O23 2.966143 1_555
K1 O6 3.015069 1_555
K1 O7 3.107958 1_555
K1 O11 3.187409 1_455
K1 O11 3.280051 1_555
Cu0 O21 1.944160 1_455
Cu0 O20 1.968423 1_445
Cu0 O24 1.972414 1_555
Cu0 O0 2.006808 1_555
Cu0 O19 2.248243 1_455
Cu1 O11 1.954951 1_555
Cu1 O6 1.967144 1_655
Cu1 O4 2.013617 1_545
Cu1 O12 2.117144 1_555
Cu1 O1 2.307531 1_555
Cu1 O5 2.561525 1_655
Cu2 O25 1.921316 1_565
Cu2 O9 1.953978 1_555
Cu2 O10 1.971961 1_556
Cu2 O22 2.116623 1_555
Cu2 O20 2.239870 1_455
Cu3 O7 1.882472 1_555
Cu3 O10 1.969565 1_555
Cu3 O9 2.006028 1_554
Cu3 O3 2.041854 1_455
Cu3 O23 2.162319 1_555
Cu4 O23 1.972693 1_555
Cu4 O10 1.990475 1_555
Cu4 O4 1.992142 1_555
Cu4 O12 2.052333 1_565
Cu4 O8 2.246234 1_555
Cu5 O15 1.921316 1_545
Cu5 O16 1.953978 1_555
Cu5 O21 1.971961 1_554
Cu5 O12 2.116623 1_555
Cu5 O5 2.239870 1_655
Cu6 O14 1.972693 1_555
Cu6 O21 1.990475 1_555
Cu6 O0 1.992142 1_555
Cu6 O22 2.052333 1_545
Cu6 O19 2.246234 1_555
Cu7 O2 1.954951 1_555
Cu7 O18 1.967144 1_455
Cu7 O0 2.013617 1_565
Cu7 O22 2.117144 1_555
Cu7 O17 2.307531 1_555
Cu7 O20 2.561525 1_455
Cu8 O13 1.882472 1_555
Cu8 O21 1.969565 1_555
Cu8 O16 2.006028 1_556
Cu8 O24 2.041854 1_655
Cu8 O14 2.162319 1_555
Cu9 O10 1.944160 1_655
Cu9 O5 1.968423 1_665
Cu9 O3 1.972414 1_555
Cu9 O4 2.006808 1_555
Cu9 O8 2.248243 1_655
O0 V0 1.949382 1_555
O1 V0 1.696316 1_555
O2 V3 1.715642 1_555
O3 V4 1.786995 1_555
O4 V1 1.949382 1_555
O5 V2 1.772086 1_555
O6 V0 1.743757 1_555
O7 V2 1.695497 1_555
O8 V0 1.704432 1_565
O9 V3 1.781133 1_555
O11 V4 1.715642 1_555
O12 V2 1.836696 1_555
O13 V5 1.695497 1_555
O14 V3 1.746367 1_555
O15 V5 1.748270 1_554
O16 V4 1.781133 1_555
O17 V1 1.696316 1_555
O18 V1 1.743757 1_555
O19 V1 1.704432 1_545
O20 V5 1.772086 1_555
O22 V5 1.836696 1_555
O23 V4 1.746367 1_555
O24 V3 1.786995 1_555
O25 V2 1.748270 1_556
