# generated using pymatgen
data_ZrVSi
_symmetry_space_group_name_H-M   'P 1'
_cell_length_a   3.68185515
_cell_length_b   3.68185515
_cell_length_c   7.22645824
_cell_angle_alpha   90.00000000
_cell_angle_beta   90.00000000
_cell_angle_gamma   90.00000000
_symmetry_Int_Tables_number   1
_chemical_formula_structural   ZrVSi
_chemical_formula_sum   'Zr2 V2 Si2'
_cell_volume   97.96228231
_cell_formula_units_Z   2
loop_
 _symmetry_equiv_pos_site_id
 _symmetry_equiv_pos_as_xyz
  1  'x, y, z'
loop_
 _atom_site_type_symbol
 _atom_site_label
 _atom_site_symmetry_multiplicity
 _atom_site_fract_x
 _atom_site_fract_y
 _atom_site_fract_z
 _atom_site_occupancy
  Zr  Zr0  1  0.25000000  0.25000000  0.64108012  1
  Zr  Zr1  1  0.75000000  0.75000000  0.35891988  1
  V  V0  1  0.25000000  0.75000000  -0.00000000  1
  V  V1  1  0.75000000  0.25000000  0.00000000  1
  Si  Si0  1  0.25000000  0.25000000  0.24415562  1
  Si  Si1  1  0.75000000  0.75000000  0.75584438  1
loop_
_geom_bond_atom_site_label_1
_geom_bond_atom_site_label_2
_geom_bond_distance
_geom_bond_site_symmetry_2
Si0 V1 2.549912 1_555
Si0 V1 2.549912 1_455
Si0 V0 2.549912 1_555
Si0 V0 2.549912 1_545
Si0 Zr1 2.732367 1_445
Si0 Zr1 2.732367 1_555
Si0 Zr1 2.732367 1_455
Si0 Zr1 2.732367 1_545
Si0 Zr0 2.868358 1_555
Si1 V0 2.549912 1_556
Si1 V1 2.549912 1_566
Si1 V1 2.549912 1_556
Si1 V0 2.549912 1_656
Si1 Zr0 2.732367 1_655
Si1 Zr0 2.732367 1_665
Si1 Zr0 2.732367 1_565
Si1 Zr0 2.732367 1_555
Si1 Zr1 2.868358 1_555
