# generated using pymatgen
data_Bi6Cl3O7F
_symmetry_space_group_name_H-M   'P 1'
_cell_length_a   3.85596400
_cell_length_b   15.65218500
_cell_length_c   20.62387900
_cell_angle_alpha   90.00000000
_cell_angle_beta   90.00000000
_cell_angle_gamma   90.00000000
_symmetry_Int_Tables_number   1
_chemical_formula_structural   Bi6Cl3O7F
_chemical_formula_sum   'Bi24 Cl12 O28 F4'
_cell_volume   1244.73899418
_cell_formula_units_Z   4
loop_
 _symmetry_equiv_pos_site_id
 _symmetry_equiv_pos_as_xyz
  1  'x, y, z'
loop_
 _atom_site_type_symbol
 _atom_site_label
 _atom_site_symmetry_multiplicity
 _atom_site_fract_x
 _atom_site_fract_y
 _atom_site_fract_z
 _atom_site_occupancy
  Bi  Bi0  1  0.75000000  0.56061900  0.56307700  1
  Bi  Bi1  1  0.75000000  0.08809000  0.24168900  1
  Bi  Bi2  1  0.25000000  0.06233600  0.55602100  1
  Bi  Bi3  1  0.25000000  0.58809000  0.25831100  1
  Bi  Bi4  1  0.75000000  0.27048700  0.92213000  1
  Bi  Bi5  1  0.25000000  0.28609700  0.27000500  1
  Bi  Bi6  1  0.25000000  0.43938100  0.43692300  1
  Bi  Bi7  1  0.25000000  0.21390300  0.77000500  1
  Bi  Bi8  1  0.75000000  0.93938100  0.06307700  1
  Bi  Bi9  1  0.25000000  0.72951300  0.07787000  1
  Bi  Bi10  1  0.75000000  0.93766400  0.44397900  1
  Bi  Bi11  1  0.75000000  0.41191000  0.74168900  1
  Bi  Bi12  1  0.25000000  0.06061900  0.93692300  1
  Bi  Bi13  1  0.75000000  0.22951300  0.42213000  1
  Bi  Bi14  1  0.25000000  0.34320500  0.59768800  1
  Bi  Bi15  1  0.75000000  0.71390300  0.72999500  1
  Bi  Bi16  1  0.75000000  0.65679500  0.40231200  1
  Bi  Bi17  1  0.75000000  0.78609700  0.22999500  1
  Bi  Bi18  1  0.75000000  0.56233600  0.94397900  1
  Bi  Bi19  1  0.75000000  0.84320500  0.90231200  1
  Bi  Bi20  1  0.25000000  0.43766400  0.05602100  1
  Bi  Bi21  1  0.25000000  0.77048700  0.57787000  1
  Bi  Bi22  1  0.25000000  0.15679500  0.09768800  1
  Bi  Bi23  1  0.25000000  0.91191000  0.75831100  1
  Cl  Cl0  1  0.75000000  0.94738600  0.63955100  1
  Cl  Cl1  1  0.25000000  0.44738600  0.86044900  1
  Cl  Cl2  1  0.75000000  0.31267100  0.14308100  1
  Cl  Cl3  1  0.25000000  0.56273800  0.69726000  1
  Cl  Cl4  1  0.25000000  0.81267100  0.35691900  1
  Cl  Cl5  1  0.75000000  0.43726200  0.30274000  1
  Cl  Cl6  1  0.25000000  0.93726200  0.19726000  1
  Cl  Cl7  1  0.75000000  0.18732900  0.64308100  1
  Cl  Cl8  1  0.75000000  0.55261400  0.13955100  1
  Cl  Cl9  1  0.25000000  0.68732900  0.85691900  1
  Cl  Cl10  1  0.75000000  0.06273800  0.80274000  1
  Cl  Cl11  1  0.25000000  0.05261400  0.36044900  1
  O  O0  1  0.75000000  0.53422400  0.45697400  1
  O  O1  1  0.25000000  0.03422400  0.04302600  1
  O  O2  1  0.75000000  0.35224500  0.47089000  1
  O  O3  1  0.25000000  0.90488200  0.86793500  1
  O  O4  1  0.25000000  0.15585600  0.21263900  1
  O  O5  1  0.75000000  0.71401800  0.62178900  1
  O  O6  1  0.75000000  0.09511800  0.13206500  1
  O  O7  1  0.25000000  0.78363700  0.70407100  1
  O  O8  1  0.25000000  0.93855100  0.50138200  1
  O  O9  1  0.25000000  0.71636300  0.20407100  1
  O  O10  1  0.75000000  0.84414400  0.78736100  1
  O  O11  1  0.75000000  0.28363700  0.79592900  1
  O  O12  1  0.75000000  0.14775500  0.97089000  1
  O  O13  1  0.25000000  0.59511800  0.36793500  1
  O  O14  1  0.75000000  0.40488200  0.63206500  1
  O  O15  1  0.25000000  0.56144900  0.00138200  1
  O  O16  1  0.25000000  0.85224500  0.02911000  1
  O  O17  1  0.25000000  0.64775500  0.52911000  1
  O  O18  1  0.75000000  0.65585600  0.28736100  1
  O  O19  1  0.75000000  0.78598200  0.12178900  1
  O  O20  1  0.25000000  0.21401800  0.87821100  1
  O  O21  1  0.75000000  0.06144900  0.49861800  1
  O  O22  1  0.25000000  0.46577600  0.54302600  1
  O  O23  1  0.75000000  0.43855100  0.99861800  1
  O  O24  1  0.25000000  0.34414400  0.71263900  1
  O  O25  1  0.75000000  0.96577600  0.95697400  1
  O  O26  1  0.75000000  0.21636300  0.29592900  1
  O  O27  1  0.25000000  0.28598200  0.37821100  1
  F  F0  1  0.75000000  0.69745900  0.99577900  1
  F  F1  1  0.25000000  0.30254100  0.00422100  1
  F  F2  1  0.25000000  0.19745900  0.50422100  1
  F  F3  1  0.75000000  0.80254100  0.49577900  1
loop_
_geom_bond_atom_site_label_1
_geom_bond_atom_site_label_2
_geom_bond_distance
_geom_bond_site_symmetry_2
Bi0 O0 2.226914 1_555
Bi0 O17 2.463330 1_555
Bi0 O17 2.463330 1_655
Bi0 O22 2.468170 1_655
Bi0 O22 2.468170 1_555
Bi0 O5 2.689079 1_555
Bi0 O14 2.822476 1_555
Bi1 O6 2.263547 1_555
Bi1 O4 2.280596 1_555
Bi1 O4 2.280596 1_655
Bi1 O26 2.298353 1_555
Bi1 Cl11 3.166146 1_555
Bi1 Cl11 3.166146 1_655
Bi1 Cl6 3.182772 1_645
Bi1 Cl6 3.182772 1_545
Bi2 O8 2.241375 1_545
Bi2 O21 2.262490 1_555
Bi2 O21 2.262490 1_455
Bi2 F2 2.369473 1_555
Bi2 Cl0 3.149927 1_545
Bi2 Cl0 3.149927 1_445
Bi2 Cl7 3.281546 1_455
Bi2 Cl7 3.281546 1_555
Bi3 O13 2.263547 1_555
Bi3 O18 2.280596 1_455
Bi3 O18 2.280596 1_555
Bi3 O9 2.298353 1_555
Bi3 Cl8 3.166146 1_555
Bi3 Cl8 3.166146 1_455
Bi3 Cl5 3.182772 1_455
Bi3 Cl5 3.182772 1_555
Bi4 O12 2.168319 1_555
Bi4 O20 2.306245 1_555
Bi4 O20 2.306245 1_655
Bi4 O11 2.610880 1_555
Bi4 F1 2.614421 1_656
Bi4 F1 2.614421 1_556
Bi5 O27 2.231628 1_555
Bi5 O26 2.279105 1_555
Bi5 O26 2.279105 1_455
Bi5 O4 2.357002 1_555
Bi5 Cl5 3.125885 1_455
Bi5 Cl5 3.125885 1_555
Bi5 Cl2 3.277544 1_455
Bi5 Cl2 3.277544 1_555
Bi6 O22 2.226914 1_555
Bi6 O2 2.463330 1_455
Bi6 O2 2.463330 1_555
Bi6 O0 2.468170 1_555
Bi6 O0 2.468170 1_455
Bi6 O27 2.689079 1_555
Bi6 O13 2.822476 1_555
Bi7 O20 2.231628 1_555
Bi7 O11 2.279105 1_555
Bi7 O11 2.279105 1_455
Bi7 O24 2.357002 1_555
Bi7 Cl10 3.125885 1_455
Bi7 Cl10 3.125885 1_555
Bi7 Cl7 3.277544 1_455
Bi7 Cl7 3.277544 1_555
Bi8 O25 2.226914 1_554
Bi8 O16 2.463330 1_655
Bi8 O16 2.463330 1_555
Bi8 O1 2.468170 1_565
Bi8 O1 2.468170 1_665
Bi8 O19 2.689079 1_555
Bi8 O6 2.822476 1_565
Bi9 O16 2.168319 1_555
Bi9 O19 2.306245 1_455
Bi9 O19 2.306245 1_555
Bi9 O9 2.610880 1_555
Bi9 F0 2.614421 1_554
Bi9 F0 2.614421 1_454
Bi10 O21 2.241375 1_565
Bi10 O8 2.262490 1_555
Bi10 O8 2.262490 1_655
Bi10 F3 2.369473 1_555
Bi10 Cl11 3.149927 1_565
Bi10 Cl11 3.149927 1_665
Bi10 Cl4 3.281546 1_555
Bi10 Cl4 3.281546 1_655
Bi11 O14 2.263547 1_555
Bi11 O24 2.280596 1_555
Bi11 O24 2.280596 1_655
Bi11 O11 2.298353 1_555
Bi11 Cl1 3.166146 1_655
Bi11 Cl1 3.166146 1_555
Bi11 Cl3 3.182772 1_655
Bi11 Cl3 3.182772 1_555
Bi12 O1 2.226914 1_556
Bi12 O12 2.463330 1_455
Bi12 O12 2.463330 1_555
Bi12 O25 2.468170 1_545
Bi12 O25 2.468170 1_445
Bi12 O20 2.689079 1_555
Bi12 O3 2.822476 1_545
Bi13 O2 2.168319 1_555
Bi13 O27 2.306245 1_555
Bi13 O27 2.306245 1_655
Bi13 O26 2.610880 1_555
Bi13 F2 2.614421 1_555
Bi13 F2 2.614421 1_655
Bi14 O22 2.225210 1_555
Bi14 O14 2.269743 1_455
Bi14 O14 2.269743 1_555
Bi14 O24 2.370781 1_555
Bi14 Cl7 3.247487 1_455
Bi14 Cl7 3.247487 1_555
Bi15 O5 2.231628 1_555
Bi15 O7 2.279105 1_555
Bi15 O7 2.279105 1_655
Bi15 O10 2.357002 1_555
Bi15 Cl3 3.125885 1_655
Bi15 Cl3 3.125885 1_555
Bi15 Cl9 3.277544 1_655
Bi15 Cl9 3.277544 1_555
Bi16 O0 2.225210 1_555
Bi16 O13 2.269743 1_655
Bi16 O13 2.269743 1_555
Bi16 O18 2.370781 1_555
Bi16 Cl4 3.247487 1_555
Bi16 Cl4 3.247487 1_655
Bi17 O19 2.231628 1_555
Bi17 O9 2.279105 1_555
Bi17 O9 2.279105 1_655
Bi17 O18 2.357002 1_555
Bi17 Cl6 3.125885 1_555
Bi17 Cl6 3.125885 1_655
Bi17 Cl4 3.277544 1_555
Bi17 Cl4 3.277544 1_655
Bi18 O23 2.241375 1_555
Bi18 O15 2.262490 1_656
Bi18 O15 2.262490 1_556
Bi18 F0 2.369473 1_555
Bi18 Cl1 3.149927 1_655
Bi18 Cl1 3.149927 1_555
Bi18 Cl9 3.281546 1_655
Bi18 Cl9 3.281546 1_555
Bi19 O25 2.225210 1_555
Bi19 O3 2.269743 1_655
Bi19 O3 2.269743 1_555
Bi19 O10 2.370781 1_555
Bi19 Cl9 3.247487 1_555
Bi19 Cl9 3.247487 1_655
Bi20 O15 2.241375 1_555
Bi20 O23 2.262490 1_554
Bi20 O23 2.262490 1_454
Bi20 F1 2.369473 1_555
Bi20 Cl8 3.149927 1_455
Bi20 Cl8 3.149927 1_555
Bi20 Cl2 3.281546 1_455
Bi20 Cl2 3.281546 1_555
Bi21 O17 2.168319 1_555
Bi21 O5 2.306245 1_555
Bi21 O5 2.306245 1_455
Bi21 O7 2.610880 1_555
Bi21 F3 2.614421 1_455
Bi21 F3 2.614421 1_555
Bi22 O1 2.225210 1_555
Bi22 O6 2.269743 1_555
Bi22 O6 2.269743 1_455
Bi22 O4 2.370781 1_555
Bi22 Cl2 3.247487 1_455
Bi22 Cl2 3.247487 1_555
Bi23 O3 2.263547 1_555
Bi23 O10 2.280596 1_555
Bi23 O10 2.280596 1_455
Bi23 O7 2.298353 1_555
Bi23 Cl0 3.166146 1_455
Bi23 Cl0 3.166146 1_555
Bi23 Cl10 3.182772 1_465
Bi23 Cl10 3.182772 1_565
