# generated using pymatgen
data_Y5U2O12
_symmetry_space_group_name_H-M   'P 1'
_cell_length_a   6.59357200
_cell_length_b   6.59804100
_cell_length_c   25.78126387
_cell_angle_alpha   92.98314752
_cell_angle_beta   92.64184638
_cell_angle_gamma   99.01110435
_symmetry_Int_Tables_number   1
_chemical_formula_structural   Y5U2O12
_chemical_formula_sum   'Y20 U8 O48'
_cell_volume   1104.58683631
_cell_formula_units_Z   4
loop_
 _symmetry_equiv_pos_site_id
 _symmetry_equiv_pos_as_xyz
  1  'x, y, z'
loop_
 _atom_site_type_symbol
 _atom_site_label
 _atom_site_symmetry_multiplicity
 _atom_site_fract_x
 _atom_site_fract_y
 _atom_site_fract_z
 _atom_site_occupancy
  Y  Y0  1  0.75836700  0.59362100  0.90264400  1
  Y  Y1  1  0.52849500  0.06385400  0.92313900  1
  Y  Y2  1  0.50919500  0.34314300  0.65260500  1
  Y  Y3  1  0.47146900  0.17755100  0.78343000  1
  Y  Y4  1  0.27826100  0.81252100  0.67326800  1
  Y  Y5  1  0.25887300  0.09339600  0.40248200  1
  Y  Y6  1  0.22136400  0.92739200  0.53344800  1
  Y  Y7  1  0.02839300  0.56239000  0.42340300  1
  Y  Y8  1  0.00946300  0.83516300  0.15259500  1
  Y  Y9  1  0.27922300  0.57145400  0.96405200  1
  Y  Y10  1  0.97014000  0.67707900  0.28378100  1
  Y  Y11  1  0.22181000  0.68539700  0.82825100  1
  Y  Y12  1  0.78250200  0.31566100  0.17239300  1
  Y  Y13  1  0.02979700  0.32320400  0.71396300  1
  Y  Y14  1  0.73053800  0.42947600  0.03449400  1
  Y  Y15  1  0.97189200  0.43505200  0.57823700  1
  Y  Y16  1  0.77974700  0.07307100  0.46397600  1
  Y  Y17  1  0.72164000  0.18536300  0.32818600  1
  Y  Y18  1  0.52663800  0.82264400  0.21451600  1
  Y  Y19  1  0.23366400  0.41096400  0.09872000  1
  U  U0  1  0.50064100  0.49821700  0.50090600  1
  U  U1  1  0.24990200  0.24784400  0.25000800  1
  U  U2  1  0.00376400  0.00045500  0.00024700  1
  U  U3  1  0.98722300  0.15876000  0.84904900  1
  U  U4  1  0.73735100  0.90804000  0.59919100  1
  U  U5  1  0.75054700  0.74839500  0.75093400  1
  U  U6  1  0.48679000  0.65820100  0.34922100  1
  U  U7  1  0.47507000  0.93841900  0.07774600  1
  O  O0  1  0.86359100  0.99954900  0.92062700  1
  O  O1  1  0.91132600  0.67416400  0.98553100  1
  O  O2  1  0.61437600  0.74867200  0.67088200  1
  O  O3  1  0.68873300  0.26963900  0.85568900  1
  O  O4  1  0.65865800  0.42100500  0.73595800  1
  O  O5  1  0.36438400  0.49763400  0.42072500  1
  O  O6  1  0.45311800  0.82515400  0.76934500  1
  O  O7  1  0.54228000  0.38758200  0.95539800  1
  O  O8  1  0.43951800  0.01841900  0.60552700  1
  O  O9  1  0.40859300  0.17124000  0.48599000  1
  O  O10  1  0.11642100  0.24922500  0.17167600  1
  O  O11  1  0.46399800  0.72083100  0.89542800  1
  O  O12  1  0.20317200  0.57485300  0.51921500  1
  O  O13  1  0.29274500  0.13623900  0.70456300  1
  O  O14  1  0.18938800  0.76799700  0.35570600  1
  O  O15  1  0.15838100  0.92036800  0.23663400  1
  O  O16  1  0.27671900  0.04178100  0.85449100  1
  O  O17  1  0.21447200  0.47047100  0.64539700  1
  O  O18  1  0.95419600  0.32460200  0.26972000  1
  O  O19  1  0.04295100  0.88638600  0.45451600  1
  O  O20  1  0.92559500  0.52041900  0.10745300  1
  O  O21  1  0.20507800  0.36369100  0.79456100  1
  O  O22  1  0.30194100  0.92393700  0.98199700  1
  O  O23  1  0.02697100  0.79150300  0.60425500  1
  O  O24  1  0.96404400  0.22050600  0.39543900  1
  O  O25  1  0.70174700  0.07574900  0.01900100  1
  O  O26  1  0.78972900  0.63580800  0.20566000  1
  O  O27  1  0.07018600  0.46814000  0.89289100  1
  O  O28  1  0.95500700  0.11344000  0.54454900  1
  O  O29  1  0.04420500  0.67584300  0.73071500  1
  O  O30  1  0.77601500  0.54156300  0.35451900  1
  O  O31  1  0.71468700  0.96665900  0.14405000  1
  O  O32  1  0.84287300  0.07757700  0.76419200  1
  O  O33  1  0.81987900  0.21762000  0.64271700  1
  O  O34  1  0.70349200  0.86366800  0.29504900  1
  O  O35  1  0.79420600  0.42576200  0.48076700  1
  O  O36  1  0.52740800  0.26842800  0.10254400  1
  O  O37  1  0.88885100  0.75695300  0.83002600  1
  O  O38  1  0.59315700  0.82697000  0.51411800  1
  O  O39  1  0.56916100  0.96793000  0.39281400  1
  O  O40  1  0.46352700  0.62372600  0.04621500  1
  O  O41  1  0.54354700  0.17541700  0.22990700  1
  O  O42  1  0.63899000  0.50692000  0.57997600  1
  O  O43  1  0.34287100  0.57687000  0.26390900  1
  O  O44  1  0.32190500  0.72869900  0.14233300  1
  O  O45  1  0.38758100  0.25601200  0.32915800  1
  O  O46  1  0.09036300  0.32914500  0.01434200  1
  O  O47  1  0.13720200  0.99850500  0.07894100  1
loop_
_geom_bond_atom_site_label_1
_geom_bond_atom_site_label_2
_geom_bond_distance
_geom_bond_site_symmetry_2
O0 U2 2.211323 1_666
O0 U3 2.290331 1_565
O0 Y1 2.317327 1_565
O0 Y0 2.669975 1_555
O1 U2 2.152430 1_666
O1 Y14 2.317088 1_556
O1 Y0 2.319760 1_555
O1 Y9 2.692567 1_655
O2 U5 2.212616 1_555
O2 U4 2.291871 1_555
O2 Y4 2.322742 1_555
O2 Y2 2.668280 1_555
O3 U3 2.215187 1_555
O3 Y3 2.292461 1_555
O3 Y0 2.370182 1_555
O3 Y1 2.439164 1_555
O4 U5 2.159626 1_555
O4 Y3 2.307456 1_555
O4 Y2 2.320423 1_555
O4 Y13 2.703870 1_655
O5 U0 2.215229 1_555
O5 U6 2.290138 1_555
O5 Y7 2.324386 1_555
O5 Y5 2.660274 1_555
O6 U5 2.167882 1_555
O6 Y3 2.317902 1_565
O6 Y11 2.324107 1_555
O6 Y4 2.675221 1_555
O7 Y1 2.238222 1_555
O7 Y9 2.279633 1_555
O7 Y14 2.318628 1_556
O7 Y0 2.343553 1_555
O8 U4 2.208784 1_545
O8 Y6 2.291242 1_545
O8 Y2 2.375770 1_555
O8 Y4 2.447824 1_545
O9 U0 2.156991 1_555
O9 Y6 2.309026 1_545
O9 Y5 2.324576 1_555
O9 Y16 2.704979 1_555
O10 U1 2.166481 1_555
O10 Y12 2.311988 1_455
O10 Y19 2.314898 1_555
O10 Y8 2.725391 1_545
O11 Y0 2.235988 1_555
O11 Y11 2.278191 1_555
O11 Y1 2.305619 1_565
O11 Y9 2.364295 1_555
O12 U0 2.167186 1_555
O12 Y6 2.319337 1_555
O12 Y15 2.326194 1_455
O12 Y7 2.668941 1_555
O13 Y4 2.229755 1_545
O13 Y3 2.284311 1_555
O13 Y13 2.294351 1_555
O13 Y2 2.334767 1_555
O14 U6 2.204693 1_555
O14 Y10 2.292082 1_455
O14 Y5 2.375972 1_565
O14 Y7 2.445296 1_555
O15 U1 2.155574 1_565
O15 Y10 2.304952 1_455
O15 Y8 2.340654 1_555
O15 Y18 2.686360 1_555
O16 U3 2.169578 1_455
O16 Y1 2.352880 1_555
O16 Y11 2.379738 1_545
O16 Y3 2.415600 1_555
O17 Y2 2.238531 1_555
O17 Y15 2.279560 1_455
O17 Y4 2.300573 1_555
O17 Y13 2.357598 1_555
O18 U1 2.165687 1_655
O18 Y17 2.320175 1_555
O18 Y10 2.320193 1_555
O18 Y12 2.698710 1_555
O19 Y7 2.229956 1_555
O19 Y6 2.284835 1_555
O19 Y16 2.294751 1_465
O19 Y5 2.334471 1_565
O20 Y14 2.229349 1_555
O20 Y19 2.276640 1_655
O20 Y8 2.302673 1_655
O20 Y12 2.345252 1_555
O21 Y11 2.235633 1_555
O21 Y13 2.312778 1_555
O21 Y3 2.315479 1_555
O21 U3 2.374939 1_455
O22 U2 2.170970 1_566
O22 Y1 2.304144 1_565
O22 Y9 2.327625 1_555
O22 U7 2.662216 1_556
O23 U4 2.168500 1_455
O23 Y4 2.358140 1_555
O23 Y15 2.378854 1_455
O23 Y6 2.409409 1_555
O24 Y5 2.238173 1_655
O24 Y17 2.280623 1_555
O24 Y7 2.300213 1_655
O24 Y16 2.356203 1_555
O25 U2 2.195403 1_655
O25 U7 2.296943 1_545
O25 Y14 2.323765 1_555
O25 Y1 2.666574 1_554
O26 Y12 2.230692 1_555
O26 Y10 2.272928 1_555
O26 Y18 2.293058 1_555
O26 Y8 2.339651 1_655
O27 Y9 2.252250 1_555
O27 U3 2.257607 1_455
O27 Y0 2.352667 1_455
O27 Y11 2.405174 1_555
O28 Y15 2.234926 1_555
O28 Y16 2.312164 1_555
O28 Y6 2.314798 1_645
O28 U4 2.378371 1_545
O29 U5 2.146482 1_455
O29 Y4 2.302653 1_555
O29 Y13 2.330578 1_555
O29 Y11 2.717990 1_555
O30 U6 2.166638 1_555
O30 Y7 2.360601 1_655
O30 Y17 2.379186 1_555
O30 Y10 2.406277 1_555
O31 U7 2.253579 1_555
O31 Y8 2.255580 1_655
O31 Y12 2.347052 1_565
O31 Y18 2.399785 1_555
O32 U5 2.166606 1_545
O32 U3 2.346339 1_555
O32 Y13 2.358471 1_655
O32 Y3 2.694819 1_555
O33 U4 2.254904 1_545
O33 Y13 2.259503 1_655
O33 Y2 2.346265 1_555
O33 Y15 2.403676 1_555
O34 Y17 2.229729 1_565
O34 Y18 2.315875 1_555
O34 Y10 2.319286 1_555
O34 U6 2.367330 1_555
O35 U0 2.145113 1_555
O35 Y7 2.301614 1_655
O35 Y16 2.331005 1_555
O35 Y15 2.716819 1_555
O36 U7 2.206431 1_545
O36 Y19 2.282126 1_555
O36 Y12 2.380591 1_555
O36 Y14 2.442497 1_555
O37 U5 2.189325 1_555
O37 Y11 2.318714 1_655
O37 Y0 2.339809 1_555
O37 U3 2.643191 1_565
O38 U0 2.163953 1_555
O38 U4 2.350941 1_555
O38 Y16 2.358122 1_565
O38 Y6 2.698893 1_555
O39 U6 2.256413 1_555
O39 Y16 2.259669 1_565
O39 Y5 2.342912 1_565
O39 Y17 2.407605 1_565
O40 U7 2.178757 1_555
O40 Y14 2.355657 1_555
O40 Y9 2.374476 1_554
O40 Y19 2.412586 1_555
O41 U1 2.145282 1_555
O41 Y18 2.325113 1_545
O41 Y12 2.332120 1_555
O41 Y17 2.736314 1_555
O42 U0 2.188835 1_555
O42 Y15 2.319020 1_555
O42 Y2 2.339850 1_555
O42 U4 2.639467 1_555
O43 U1 2.167725 1_555
O43 Y18 2.336899 1_555
O43 U6 2.356114 1_555
O43 Y10 2.707288 1_455
O44 Y18 2.248544 1_555
O44 Y8 2.300370 1_555
O44 Y19 2.304356 1_555
O44 U7 2.380002 1_555
O45 U1 2.189396 1_555
O45 Y17 2.322726 1_555
O45 Y5 2.349200 1_555
O45 U6 2.649441 1_555
O46 U2 2.161557 1_555
O46 Y19 2.333441 1_555
O46 Y9 2.351315 1_554
O46 Y14 2.628095 1_455
O47 U2 2.175347 1_565
O47 U7 2.324380 1_555
O47 Y8 2.356439 1_555
O47 Y19 2.711853 1_565
