# generated using pymatgen
data_CdI2
_symmetry_space_group_name_H-M   'P 1'
_cell_length_a   4.28674767
_cell_length_b   4.28674881
_cell_length_c   35.91525574
_cell_angle_alpha   90.00000000
_cell_angle_beta   90.00000000
_cell_angle_gamma   119.99999929
_symmetry_Int_Tables_number   1
_chemical_formula_structural   CdI2
_chemical_formula_sum   'Cd5 I10'
_cell_volume   571.56490479
_cell_formula_units_Z   5
loop_
 _symmetry_equiv_pos_site_id
 _symmetry_equiv_pos_as_xyz
  1  'x, y, z'
loop_
 _atom_site_type_symbol
 _atom_site_label
 _atom_site_symmetry_multiplicity
 _atom_site_fract_x
 _atom_site_fract_y
 _atom_site_fract_z
 _atom_site_occupancy
  Cd  Cd0  1  0.66666700  0.33333300  0.45036398  1
  Cd  Cd1  1  -0.00000000  -0.00000000  0.64993055  1
  Cd  Cd2  1  0.66666700  0.33333300  0.04998092  1
  Cd  Cd3  1  -0.00000000  -0.00000000  0.84967601  1
  Cd  Cd4  1  -0.00000000  -0.00000000  0.24994129  1
  I  I0  1  0.66666700  0.33333300  0.20213408  1
  I  I1  1  0.33333300  0.66666700  0.29785432  1
  I  I2  1  0.66666700  0.33333300  0.80167716  1
  I  I3  1  0.33333300  0.66666700  0.69785883  1
  I  I4  1  0.33333300  0.66666700  0.09785688  1
  I  I5  1  0.66666700  0.33333300  0.60212802  1
  I  I6  1  -0.00000000  0.00000000  0.00213436  1
  I  I7  1  0.33333300  0.66666700  0.89776274  1
  I  I8  1  -0.00000000  0.00000000  0.40238130  1
  I  I9  1  0.33333300  0.66666700  0.49832156  1
loop_
_geom_bond_atom_site_label_1
_geom_bond_atom_site_label_2
_geom_bond_distance
_geom_bond_site_symmetry_2
Cd0 I9 3.015308 1_655
Cd0 I9 3.015308 1_545
Cd0 I9 3.015314 1_555
Cd0 I8 3.015823 1_655
Cd0 I8 3.015826 1_555
Cd0 I8 3.015826 1_665
Cd1 I5 3.012131 1_455
Cd1 I5 3.012133 1_555
Cd1 I5 3.012134 1_445
Cd1 I3 3.014707 1_545
Cd1 I3 3.014710 1_445
Cd1 I3 3.014710 1_555
Cd2 I6 3.013032 1_655
Cd2 I6 3.013035 1_555
Cd2 I6 3.013036 1_665
Cd2 I4 3.013634 1_655
Cd2 I4 3.013635 1_545
Cd2 I4 3.013641 1_555
Cd3 I2 3.016155 1_455
Cd3 I2 3.016158 1_555
Cd3 I2 3.016158 1_445
Cd3 I7 3.017960 1_545
Cd3 I7 3.017963 1_445
Cd3 I7 3.017963 1_555
Cd4 I0 3.012226 1_455
Cd4 I0 3.012229 1_555
Cd4 I0 3.012230 1_445
Cd4 I1 3.014394 1_545
Cd4 I1 3.014397 1_445
Cd4 I1 3.014398 1_555
