# generated using pymatgen
data_Ca2B5BrO9
_symmetry_space_group_name_H-M   'P 1'
_cell_length_a   6.33787800
_cell_length_b   11.38144100
_cell_length_c   11.52693500
_cell_angle_alpha   90.00000000
_cell_angle_beta   90.00000000
_cell_angle_gamma   90.00000000
_symmetry_Int_Tables_number   1
_chemical_formula_structural   Ca2B5BrO9
_chemical_formula_sum   'Ca8 B20 Br4 O36'
_cell_volume   831.48605627
_cell_formula_units_Z   4
loop_
 _symmetry_equiv_pos_site_id
 _symmetry_equiv_pos_as_xyz
  1  'x, y, z'
loop_
 _atom_site_type_symbol
 _atom_site_label
 _atom_site_symmetry_multiplicity
 _atom_site_fract_x
 _atom_site_fract_y
 _atom_site_fract_z
 _atom_site_occupancy
  Ca  Ca0  1  0.79249900  0.03759600  0.75296000  1
  Ca  Ca1  1  0.29249900  0.46240400  0.25296000  1
  Ca  Ca2  1  0.46040400  0.24519500  0.53400700  1
  Ca  Ca3  1  0.96040400  0.25480500  0.03400700  1
  Ca  Ca4  1  0.46040400  0.75480500  0.46599300  1
  Ca  Ca5  1  0.79249900  0.96240400  0.24704000  1
  Ca  Ca6  1  0.96040400  0.74519500  0.96599300  1
  Ca  Ca7  1  0.29249900  0.53759600  0.74704000  1
  B  B0  1  0.59945700  0.32072700  0.77440000  1
  B  B1  1  0.33422300  0.01321700  0.23555600  1
  B  B2  1  0.99874800  0.75161200  0.52703300  1
  B  B3  1  0.09945700  0.17927300  0.27440000  1
  B  B4  1  0.09945700  0.82072700  0.72560000  1
  B  B5  1  0.95826100  0.72055000  0.30586100  1
  B  B6  1  0.95826100  0.27945000  0.69413900  1
  B  B7  1  0.99874800  0.24838800  0.47296700  1
  B  B8  1  0.83422300  0.51321700  0.26444400  1
  B  B9  1  0.83422300  0.48678300  0.73555600  1
  B  B10  1  0.45826100  0.77945000  0.80586100  1
  B  B11  1  0.77233300  0.70899000  0.69332500  1
  B  B12  1  0.77233300  0.29101000  0.30667500  1
  B  B13  1  0.27233300  0.79101000  0.19332500  1
  B  B14  1  0.27233300  0.20899000  0.80667500  1
  B  B15  1  0.45826100  0.22055000  0.19413900  1
  B  B16  1  0.59945700  0.67927300  0.22560000  1
  B  B17  1  0.33422300  0.98678300  0.76444400  1
  B  B18  1  0.49874800  0.74838800  0.02703300  1
  B  B19  1  0.49874800  0.25161200  0.97296700  1
  Br  Br0  1  0.87716600  0.00000000  0.00000000  1
  Br  Br1  1  0.37716600  0.50000000  0.50000000  1
  Br  Br2  1  0.13871300  0.50000000  0.00000000  1
  Br  Br3  1  0.63871300  0.00000000  0.50000000  1
  O  O0  1  0.80065500  0.71887000  0.56303300  1
  O  O1  1  0.04647200  0.20600600  0.78748100  1
  O  O2  1  0.37734000  0.30758900  0.74808500  1
  O  O3  1  0.04647200  0.79399400  0.21251900  1
  O  O4  1  0.65497000  0.28310500  0.89456600  1
  O  O5  1  0.13516900  0.04977000  0.26394400  1
  O  O6  1  0.22899500  0.24529600  0.18864700  1
  O  O7  1  0.89256100  0.39765400  0.26687800  1
  O  O8  1  0.49376100  0.90779800  0.78613000  1
  O  O9  1  0.54647200  0.29399400  0.28748100  1
  O  O10  1  0.56596400  0.74478500  0.91453400  1
  O  O11  1  0.37734000  0.69241100  0.25191500  1
  O  O12  1  0.30065500  0.21887000  0.93696700  1
  O  O13  1  0.99376100  0.59220200  0.28613000  1
  O  O14  1  0.56596400  0.25521500  0.08546600  1
  O  O15  1  0.72899500  0.74529600  0.31135300  1
  O  O16  1  0.63516900  0.54977000  0.23605600  1
  O  O17  1  0.99376100  0.40779800  0.71387000  1
  O  O18  1  0.06596400  0.24478500  0.58546600  1
  O  O19  1  0.06596400  0.75521500  0.41453400  1
  O  O20  1  0.72899500  0.25470400  0.68864700  1
  O  O21  1  0.65497000  0.71689500  0.10543400  1
  O  O22  1  0.15497000  0.78310500  0.60543400  1
  O  O23  1  0.87734000  0.19241100  0.24808500  1
  O  O24  1  0.54647200  0.70600600  0.71251900  1
  O  O25  1  0.87734000  0.80758900  0.75191500  1
  O  O26  1  0.89256100  0.60234600  0.73312200  1
  O  O27  1  0.22899500  0.75470400  0.81135300  1
  O  O28  1  0.49376100  0.09220200  0.21387000  1
  O  O29  1  0.30065500  0.78113000  0.06303300  1
  O  O30  1  0.39256100  0.10234600  0.76687800  1
  O  O31  1  0.63516900  0.45023000  0.76394400  1
  O  O32  1  0.80065500  0.28113000  0.43696700  1
  O  O33  1  0.13516900  0.95023000  0.73605600  1
  O  O34  1  0.39256100  0.89765400  0.23312200  1
  O  O35  1  0.15497000  0.21689500  0.39456600  1
loop_
_geom_bond_atom_site_label_1
_geom_bond_atom_site_label_2
_geom_bond_distance
_geom_bond_site_symmetry_2
Ca0 O33 2.396543 1_645
Ca0 O8 2.431749 1_545
Ca0 O1 2.534411 1_655
Ca0 O20 2.611018 1_555
Ca0 O30 2.644585 1_555
Ca0 O25 2.672492 1_545
Ca1 O16 2.396543 1_555
Ca1 O13 2.431749 1_455
Ca1 O9 2.534411 1_555
Ca1 O6 2.611018 1_555
Ca1 O7 2.644585 1_455
Ca1 O11 2.672492 1_555
Ca2 O32 2.463502 1_555
Ca2 O20 2.467169 1_555
Ca2 O35 2.536648 1_555
Ca2 O18 2.569325 1_555
Ca2 O2 2.621221 1_555
Ca2 O9 2.946392 1_555
Ca3 O12 2.463502 1_654
Ca3 O6 2.467169 1_655
Ca3 O4 2.536648 1_554
Ca3 O14 2.569325 1_555
Ca3 O23 2.621221 1_555
Ca3 O1 2.946392 1_654
Ca4 O0 2.463502 1_555
Ca4 O15 2.467169 1_555
Ca4 O22 2.536648 1_555
Ca4 O19 2.569325 1_555
Ca4 O11 2.621221 1_555
Ca4 O24 2.946392 1_555
Ca5 O5 2.396543 1_665
Ca5 O28 2.431749 1_565
Ca5 O3 2.534411 1_655
Ca5 O15 2.611018 1_555
Ca5 O34 2.644585 1_555
Ca5 O23 2.672492 1_565
Ca6 O29 2.463502 1_656
Ca6 O27 2.467169 1_655
Ca6 O21 2.536648 1_556
Ca6 O10 2.569325 1_555
Ca6 O25 2.621221 1_555
Ca6 O3 2.946392 1_656
Ca7 O31 2.396543 1_555
Ca7 O17 2.431749 1_455
Ca7 O24 2.534411 1_555
Ca7 O27 2.611018 1_555
Ca7 O26 2.644585 1_455
Ca7 O2 2.672492 1_555
B0 O2 1.447802 1_555
B0 O20 1.488544 1_555
B0 O4 1.491900 1_555
B0 O31 1.496071 1_555
B1 O34 1.366543 1_545
B1 O5 1.368115 1_555
B1 O28 1.375867 1_555
B2 O19 1.365567 1_655
B2 O0 1.373798 1_555
B2 O22 1.387632 1_655
B3 O23 1.447802 1_455
B3 O6 1.488544 1_555
B3 O35 1.491900 1_555
B3 O5 1.496071 1_555
B4 O25 1.447802 1_455
B4 O27 1.488544 1_555
B4 O22 1.491900 1_555
B4 O33 1.496071 1_555
B5 O3 1.472735 1_655
B5 O19 1.480131 1_655
B5 O15 1.481457 1_555
B5 O13 1.495408 1_555
B6 O1 1.472735 1_655
B6 O18 1.480131 1_655
B6 O20 1.481457 1_555
B6 O17 1.495408 1_555
B7 O18 1.365567 1_655
B7 O32 1.373798 1_555
B7 O35 1.387632 1_655
B8 O7 1.366543 1_555
B8 O16 1.368115 1_555
B8 O13 1.375867 1_555
B9 O26 1.366543 1_555
B9 O31 1.368115 1_555
B9 O17 1.375867 1_555
B10 O24 1.472735 1_555
B10 O10 1.480131 1_555
B10 O27 1.481457 1_555
B10 O8 1.495408 1_555
B11 O24 1.448875 1_555
B11 O25 1.469137 1_555
B11 O26 1.504755 1_555
B11 O0 1.516730 1_555
B12 O9 1.448875 1_555
B12 O23 1.469137 1_555
B12 O7 1.504755 1_555
B12 O32 1.516730 1_555
B13 O3 1.448875 1_555
B13 O11 1.469137 1_555
B13 O34 1.504755 1_555
B13 O29 1.516730 1_555
B14 O1 1.448875 1_555
B14 O2 1.469137 1_555
B14 O30 1.504755 1_555
B14 O12 1.516730 1_555
B15 O9 1.472735 1_555
B15 O14 1.480131 1_555
B15 O6 1.481457 1_555
B15 O28 1.495408 1_555
B16 O11 1.447802 1_555
B16 O15 1.488544 1_555
B16 O21 1.491900 1_555
B16 O16 1.496071 1_555
B17 O30 1.366543 1_565
B17 O33 1.368115 1_555
B17 O8 1.375867 1_555
B18 O10 1.365567 1_554
B18 O29 1.373798 1_555
B18 O21 1.387632 1_555
B19 O14 1.365567 1_556
B19 O12 1.373798 1_555
B19 O4 1.387632 1_555
Br0 Ca5 2.929155 1_545
Br0 Ca0 2.929155 1_554
Br0 Ca6 2.973592 1_544
Br0 Ca3 2.973592 1_555
Br1 Ca1 2.929155 1_555
Br1 Ca7 2.929155 1_555
Br1 Ca4 2.973592 1_555
Br1 Ca2 2.973592 1_555
Br2 Ca3 3.036222 1_455
Br2 Ca6 3.036222 1_454
Br2 Ca7 3.104077 1_554
Br2 Ca1 3.104077 1_555
Br3 Ca2 3.036222 1_555
Br3 Ca4 3.036222 1_545
Br3 Ca5 3.104077 1_545
Br3 Ca0 3.104077 1_555
