# generated using pymatgen
data_Ta2CuO6
_symmetry_space_group_name_H-M   'P 1'
_cell_length_a   7.58869399
_cell_length_b   7.58608754
_cell_length_c   30.39835104
_cell_angle_alpha   90.00000000
_cell_angle_beta   90.00000000
_cell_angle_gamma   90.00000000
_symmetry_Int_Tables_number   1
_chemical_formula_structural   Ta2CuO6
_chemical_formula_sum   'Ta32 Cu16 O96'
_cell_volume   1749.98737829
_cell_formula_units_Z   16
loop_
 _symmetry_equiv_pos_site_id
 _symmetry_equiv_pos_as_xyz
  1  'x, y, z'
loop_
 _atom_site_type_symbol
 _atom_site_label
 _atom_site_symmetry_multiplicity
 _atom_site_fract_x
 _atom_site_fract_y
 _atom_site_fract_z
 _atom_site_occupancy
  Cu  Cu0  1  0.00000000  0.50000000  0.00031865  1
  Cu  Cu1  1  0.00000000  0.00000000  0.12527269  1
  Cu  Cu2  1  0.00000000  0.50000000  0.24970049  1
  Cu  Cu3  1  0.00000000  0.50000000  0.37538780  1
  Cu  Cu4  1  0.00000000  0.00000000  0.37477591  1
  Cu  Cu5  1  0.00000000  0.00000000  0.62560323  1
  Cu  Cu6  1  0.00000000  0.50000000  0.62458959  1
  Cu  Cu7  1  0.00000000  0.50000000  0.87599327  1
  Cu  Cu8  1  0.00000000  0.00000000  0.87498849  1
  Cu  Cu9  1  0.50000000  0.00000000  0.24881665  1
  Cu  Cu10  1  0.50000000  0.00000000  0.75032512  1
  Cu  Cu11  1  0.50000000  0.00000000  0.12488228  1
  Cu  Cu12  1  0.50000000  0.00000000  0.62521216  1
  Cu  Cu13  1  0.50000000  0.50000000  0.49992624  1
  Cu  Cu14  1  0.50000000  0.00000000  0.37628397  1
  Cu  Cu15  1  0.50000000  0.00000000  0.87362866  1
  O  O0  1  0.00000000  0.68876206  0.04600796  1
  O  O1  1  0.00000000  0.30745863  0.29481994  1
  O  O2  1  0.00000000  0.69115032  0.20560688  1
  O  O3  1  0.00000000  0.69254137  0.29481994  1
  O  O4  1  0.00000000  0.29642742  0.44959376  1
  O  O5  1  0.00000000  0.29543063  0.55001383  1
  O  O6  1  0.00000000  0.70357258  0.44959376  1
  O  O7  1  0.00000000  0.70456937  0.55001383  1
  O  O8  1  0.00000000  0.28615464  0.79676210  1
  O  O9  1  0.00000000  0.71416599  0.70174177  1
  O  O10  1  0.00000000  0.71384536  0.79676210  1
  O  O11  1  0.00000000  0.68786962  0.95402538  1
  O  O12  1  0.17849806  0.00000000  0.07726096  1
  O  O13  1  0.17832767  0.00000000  0.17411926  1
  O  O14  1  0.18151088  0.00000000  0.32798045  1
  O  O15  1  0.18607678  0.00000000  0.42134289  1
  O  O16  1  0.18593963  0.00000000  0.57811341  1
  O  O17  1  0.18877799  0.00000000  0.67018491  1
  O  O18  1  0.18729036  0.00000000  0.82979071  1
  O  O19  1  0.18017958  0.00000000  0.92213750  1
  O  O20  1  0.20295502  0.70091809  0.12535603  1
  O  O21  1  0.20295502  0.29908191  0.12535603  1
  O  O22  1  0.18922370  0.68331726  0.37457195  1
  O  O23  1  0.18922370  0.31668274  0.37457195  1
  O  O24  1  0.19127397  0.31921053  0.62458803  1
  O  O25  1  0.19127397  0.68078947  0.62458803  1
  O  O26  1  0.18524587  0.31440806  0.87490913  1
  O  O27  1  0.18524587  0.68559194  0.87490913  1
  O  O28  1  0.29616182  0.19509237  0.99984309  1
  O  O29  1  0.31229518  0.18230393  0.25090593  1
  O  O30  1  0.29616182  0.80490763  0.99984309  1
  O  O31  1  0.29354601  0.19344782  0.49980011  1
  O  O32  1  0.31229518  0.81769607  0.25090593  1
  O  O33  1  0.31128309  0.18128610  0.74993566  1
  O  O34  1  0.29354601  0.80655218  0.49980011  1
  O  O35  1  0.31128309  0.81871390  0.74993566  1
  O  O36  1  0.30907536  0.50000000  0.05341694  1
  O  O37  1  0.30673687  0.50000000  0.19918771  1
  O  O38  1  0.30593937  0.50000000  0.30144446  1
  O  O39  1  0.32109072  0.50000000  0.45170236  1
  O  O40  1  0.32115265  0.50000000  0.54748362  1
  O  O41  1  0.30446361  0.50000000  0.80158621  1
  O  O42  1  0.30383688  0.50000000  0.69856160  1
  O  O43  1  0.30905388  0.50000000  0.94671142  1
  O  O44  1  0.50000000  0.18492118  0.07865968  1
  O  O45  1  0.50000000  0.18435077  0.17211898  1
  O  O46  1  0.50000000  0.18852610  0.33027454  1
  O  O47  1  0.50000000  0.18864837  0.57940070  1
  O  O48  1  0.50000000  0.81507882  0.07865968  1
  O  O49  1  0.50000000  0.18911699  0.42053257  1
  O  O50  1  0.50000000  0.81147390  0.33027454  1
  O  O51  1  0.50000000  0.18876412  0.67054082  1
  O  O52  1  0.50000000  0.18891443  0.82893515  1
  O  O53  1  0.50000000  0.81088301  0.42053257  1
  O  O54  1  0.50000000  0.81135163  0.57940070  1
  O  O55  1  0.50000000  0.18738886  0.91997049  1
  O  O56  1  0.50000000  0.81564923  0.17211898  1
  O  O57  1  0.50000000  0.81108557  0.82893515  1
  O  O58  1  0.50000000  0.81261114  0.91997049  1
  O  O59  1  0.50000000  0.81123588  0.67054082  1
  O  O60  1  0.69092464  0.50000000  0.05341694  1
  O  O61  1  0.69326313  0.50000000  0.19918771  1
  O  O62  1  0.69406063  0.50000000  0.30144446  1
  O  O63  1  0.67890928  0.50000000  0.45170236  1
  O  O64  1  0.67884735  0.50000000  0.54748362  1
  O  O65  1  0.69616312  0.50000000  0.69856160  1
  O  O66  1  0.69553639  0.50000000  0.80158621  1
  O  O67  1  0.69094612  0.50000000  0.94671142  1
  O  O68  1  0.70383818  0.19509237  0.99984309  1
  O  O69  1  0.70383818  0.80490763  0.99984309  1
  O  O70  1  0.68770482  0.18230393  0.25090593  1
  O  O71  1  0.70645399  0.19344782  0.49980011  1
  O  O72  1  0.68770482  0.81769607  0.25090593  1
  O  O73  1  0.70645399  0.80655218  0.49980011  1
  O  O74  1  0.68871691  0.18128610  0.74993566  1
  O  O75  1  0.68871691  0.81871390  0.74993566  1
  O  O76  1  0.79704498  0.29908191  0.12535603  1
  O  O77  1  0.79704498  0.70091809  0.12535603  1
  O  O78  1  0.81077630  0.31668274  0.37457195  1
  O  O79  1  0.80872603  0.31921053  0.62458803  1
  O  O80  1  0.81077630  0.68331726  0.37457195  1
  O  O81  1  0.80872603  0.68078947  0.62458803  1
  O  O82  1  0.81475413  0.31440806  0.87490913  1
  O  O83  1  0.81475413  0.68559194  0.87490913  1
  O  O84  1  0.82150194  0.00000000  0.07726096  1
  O  O85  1  0.81848912  0.00000000  0.32798045  1
  O  O86  1  0.81406037  0.00000000  0.57811341  1
  O  O87  1  0.82167233  0.00000000  0.17411926  1
  O  O88  1  0.81392322  0.00000000  0.42134289  1
  O  O89  1  0.81122201  0.00000000  0.67018491  1
  O  O90  1  0.81270964  0.00000000  0.82979071  1
  O  O91  1  0.81982042  0.00000000  0.92213750  1
  O  O92  1  0.00000000  0.31123794  0.04600796  1
  O  O93  1  0.00000000  0.30884968  0.20560688  1
  O  O94  1  0.00000000  0.28583401  0.70174177  1
  O  O95  1  0.00000000  0.31213038  0.95402538  1
  Ta  Ta0  1  0.24833301  0.74286093  0.18533453  1
  Ta  Ta1  1  0.24774099  0.75057406  0.43925527  1
  Ta  Ta2  1  0.24815242  0.74488271  0.68862636  1
  Ta  Ta3  1  0.25519423  0.74852628  0.93969362  1
  Ta  Ta4  1  0.25224221  0.74678849  0.06164094  1
  Ta  Ta5  1  0.24833301  0.25713907  0.18533453  1
  Ta  Ta6  1  0.25294854  0.74666850  0.31146527  1
  Ta  Ta7  1  0.24774099  0.24942594  0.43925527  1
  Ta  Ta8  1  0.24776528  0.75034229  0.56149029  1
  Ta  Ta9  1  0.24566435  0.74350416  0.81239302  1
  Ta  Ta10  1  0.24815242  0.25511729  0.68862636  1
  Ta  Ta11  1  0.25519423  0.25147372  0.93969362  1
  Ta  Ta12  1  0.25224221  0.25321151  0.06164094  1
  Ta  Ta13  1  0.25294854  0.25333150  0.31146527  1
  Ta  Ta14  1  0.24776528  0.24965771  0.56149029  1
  Ta  Ta15  1  0.24566435  0.25649584  0.81239302  1
  Ta  Ta16  1  0.75166699  0.74286093  0.18533453  1
  Ta  Ta17  1  0.75225901  0.75057406  0.43925527  1
  Ta  Ta18  1  0.75184758  0.74488271  0.68862636  1
  Ta  Ta19  1  0.74480577  0.74852628  0.93969362  1
  Ta  Ta20  1  0.75166699  0.25713907  0.18533453  1
  Ta  Ta21  1  0.74775779  0.74678849  0.06164094  1
  Ta  Ta22  1  0.74705146  0.74666850  0.31146527  1
  Ta  Ta23  1  0.75223472  0.75034229  0.56149029  1
  Ta  Ta24  1  0.75433565  0.74350416  0.81239302  1
  Ta  Ta25  1  0.75225901  0.24942594  0.43925527  1
  Ta  Ta26  1  0.75184758  0.25511729  0.68862636  1
  Ta  Ta27  1  0.74480577  0.25147372  0.93969362  1
  Ta  Ta28  1  0.74775779  0.25321151  0.06164094  1
  Ta  Ta29  1  0.74705146  0.25333150  0.31146527  1
  Ta  Ta30  1  0.75223472  0.24965771  0.56149029  1
  Ta  Ta31  1  0.75433565  0.25649584  0.81239302  1
loop_
_geom_bond_atom_site_label_1
_geom_bond_atom_site_label_2
_geom_bond_distance
_geom_bond_site_symmetry_2
Cu0 O0 1.994871 1_555
Cu0 O92 1.994871 1_555
Cu0 O11 2.002874 1_554
Cu0 O95 2.002874 1_554
Cu1 O12 1.991212 1_555
Cu1 O84 1.991212 1_455
Cu1 O13 2.009016 1_555
Cu1 O87 2.009016 1_455
Cu2 O93 1.974675 1_555
Cu2 O2 1.974675 1_555
Cu2 O3 2.003653 1_555
Cu2 O1 2.003653 1_555
Cu3 O78 1.999134 1_455
Cu3 O22 1.999134 1_555
Cu3 O80 1.999134 1_455
Cu3 O23 1.999134 1_555
Cu4 O14 1.980110 1_555
Cu4 O85 1.980110 1_455
Cu4 O15 1.999444 1_555
Cu4 O88 1.999444 1_455
Cu5 O89 1.972023 1_455
Cu5 O17 1.972023 1_555
Cu5 O16 2.018675 1_555
Cu5 O86 2.018675 1_455
Cu6 O81 1.996968 1_455
Cu6 O25 1.996968 1_555
Cu6 O79 1.996968 1_455
Cu6 O24 1.996968 1_555
Cu7 O27 1.989853 1_555
Cu7 O83 1.989853 1_455
Cu7 O26 1.989853 1_555
Cu7 O82 1.989853 1_455
Cu8 O90 1.976808 1_455
Cu8 O18 1.976808 1_555
Cu8 O19 1.980858 1_555
Cu8 O91 1.980858 1_455
Cu9 O32 1.986369 1_545
Cu9 O72 1.986369 1_545
Cu9 O29 1.986369 1_555
Cu9 O70 1.986369 1_555
Cu10 O33 1.985551 1_555
Cu10 O35 1.985551 1_545
Cu10 O75 1.985551 1_545
Cu10 O74 1.985551 1_555
Cu11 O44 1.985499 1_555
Cu11 O48 1.985499 1_545
Cu11 O45 2.004411 1_555
Cu11 O56 2.004411 1_545
Cu12 O51 1.987265 1_555
Cu12 O59 1.987265 1_545
Cu12 O54 1.996840 1_545
Cu12 O47 1.996840 1_555
Cu13 O64 1.982925 1_555
Cu13 O40 1.982925 1_555
Cu13 O63 1.998063 1_555
Cu13 O39 1.998063 1_555
Cu14 O53 1.966595 1_545
Cu14 O49 1.966595 1_555
Cu14 O46 2.000378 1_555
Cu14 O50 2.000378 1_545
Cu15 O57 1.974755 1_545
Cu15 O52 1.974755 1_555
Cu15 O55 2.001319 1_555
Cu15 O58 2.001319 1_545
O0 Ta21 2.020822 1_455
O0 Ta4 2.020822 1_555
O1 Ta13 2.027140 1_555
O1 Ta29 2.027140 1_455
O2 Ta0 2.021156 1_555
O2 Ta16 2.021156 1_455
O3 Ta6 2.027140 1_555
O3 Ta22 2.027140 1_455
O4 Ta7 1.939179 1_555
O4 Ta25 1.939179 1_455
O5 Ta30 1.943576 1_455
O5 Ta14 1.943576 1_555
O6 Ta1 1.939179 1_555
O6 Ta17 1.939179 1_455
O7 Ta23 1.943576 1_455
O7 Ta8 1.943576 1_555
O8 Ta31 1.936983 1_455
O8 Ta15 1.936983 1_555
O9 Ta2 1.938947 1_555
O9 Ta18 1.938947 1_455
O10 Ta24 1.936983 1_455
O10 Ta9 1.936983 1_555
O11 Ta19 2.037626 1_455
O11 Ta3 2.037626 1_555
O12 Ta12 2.056315 1_555
O12 Ta4 2.056315 1_545
O13 Ta0 2.050270 1_545
O13 Ta5 2.050270 1_555
O14 Ta13 2.058938 1_555
O14 Ta6 2.058938 1_545
O15 Ta1 2.023799 1_545
O15 Ta7 2.023799 1_555
O16 Ta14 2.015545 1_555
O16 Ta8 2.015545 1_545
O17 Ta10 2.064661 1_555
O17 Ta2 2.064661 1_545
O18 Ta15 2.064477 1_555
O18 Ta9 2.064477 1_545
O19 Ta11 2.061116 1_555
O19 Ta3 2.061116 1_545
O20 Ta0 1.882566 1_555
O20 Ta4 2.003075 1_555
O21 Ta5 1.882566 1_555
O21 Ta12 2.003075 1_555
O22 Ta6 2.035890 1_555
O22 Ta1 2.079356 1_555
O23 Ta13 2.035890 1_555
O23 Ta7 2.079356 1_555
O24 Ta14 2.034984 1_555
O24 Ta10 2.052364 1_555
O25 Ta8 2.034984 1_555
O25 Ta2 2.052364 1_555
O26 Ta15 2.003671 1_555
O26 Ta11 2.094757 1_555
O27 Ta9 2.003671 1_555
O27 Ta3 2.094757 1_555
O28 Ta11 1.903366 1_555
O28 Ta12 1.958171 1_556
O29 Ta13 1.970300 1_555
O29 Ta5 2.128612 1_555
O30 Ta3 1.903366 1_555
O30 Ta4 1.958171 1_556
O31 Ta7 1.920537 1_555
O31 Ta14 1.954277 1_555
O32 Ta6 1.970300 1_555
O32 Ta0 2.128612 1_555
O33 Ta10 2.004146 1_555
O33 Ta15 2.044058 1_555
O34 Ta1 1.920537 1_555
O34 Ta8 1.954277 1_555
O35 Ta2 2.004146 1_555
O35 Ta9 2.044058 1_555
O36 Ta12 1.937392 1_555
O36 Ta4 1.937392 1_555
O37 Ta5 1.941154 1_555
O37 Ta0 1.941154 1_555
O38 Ta6 1.938059 1_555
O38 Ta13 1.938059 1_555
O39 Ta7 2.016515 1_555
O39 Ta1 2.016515 1_555
O40 Ta8 2.024375 1_555
O40 Ta14 2.024375 1_555
O41 Ta9 1.928557 1_555
O41 Ta15 1.928557 1_555
O42 Ta2 1.928947 1_555
O42 Ta10 1.928947 1_555
O43 Ta3 1.940897 1_555
O43 Ta11 1.940897 1_555
O44 Ta28 2.017677 1_555
O44 Ta12 2.017677 1_555
O45 Ta20 2.028230 1_555
O45 Ta5 2.028230 1_555
O46 Ta13 2.020762 1_555
O46 Ta29 2.020762 1_555
O47 Ta14 2.043166 1_555
O47 Ta30 2.043166 1_555
O48 Ta21 2.017677 1_555
O48 Ta4 2.017677 1_555
O49 Ta25 2.048863 1_555
O49 Ta7 2.048863 1_555
O50 Ta22 2.020762 1_555
O50 Ta6 2.020762 1_555
O51 Ta10 2.051410 1_555
O51 Ta26 2.051410 1_555
O52 Ta31 2.059343 1_555
O52 Ta15 2.059343 1_555
O53 Ta17 2.048863 1_555
O53 Ta1 2.048863 1_555
O54 Ta8 2.043166 1_555
O54 Ta23 2.043166 1_555
O55 Ta11 2.011732 1_555
O55 Ta27 2.011732 1_555
O56 Ta0 2.028230 1_555
O56 Ta16 2.028230 1_555
O57 Ta9 2.059343 1_555
O57 Ta24 2.059343 1_555
O58 Ta3 2.011732 1_555
O58 Ta19 2.011732 1_555
O59 Ta18 2.051410 1_555
O59 Ta2 2.051410 1_555
O60 Ta28 1.937392 1_555
O60 Ta21 1.937392 1_555
O61 Ta16 1.941154 1_555
O61 Ta20 1.941154 1_555
O62 Ta22 1.938059 1_555
O62 Ta29 1.938059 1_555
O63 Ta25 2.016515 1_555
O63 Ta17 2.016515 1_555
O64 Ta23 2.024375 1_555
O64 Ta30 2.024375 1_555
O65 Ta18 1.928947 1_555
O65 Ta26 1.928947 1_555
O66 Ta24 1.928557 1_555
O66 Ta31 1.928557 1_555
O67 Ta27 1.940897 1_555
O67 Ta19 1.940897 1_555
O68 Ta27 1.903366 1_555
O68 Ta28 1.958171 1_556
O69 Ta19 1.903366 1_555
O69 Ta21 1.958171 1_556
O70 Ta29 1.970300 1_555
O70 Ta20 2.128612 1_555
O71 Ta25 1.920537 1_555
O71 Ta30 1.954277 1_555
O72 Ta22 1.970300 1_555
O72 Ta16 2.128612 1_555
O73 Ta17 1.920537 1_555
O73 Ta23 1.954277 1_555
O74 Ta26 2.004146 1_555
O74 Ta31 2.044058 1_555
O75 Ta18 2.004146 1_555
O75 Ta24 2.044058 1_555
O76 Ta20 1.882566 1_555
O76 Ta28 2.003075 1_555
O77 Ta16 1.882566 1_555
O77 Ta21 2.003075 1_555
O78 Ta29 2.035890 1_555
O78 Ta25 2.079356 1_555
O79 Ta30 2.034984 1_555
O79 Ta26 2.052364 1_555
O80 Ta22 2.035890 1_555
O80 Ta17 2.079356 1_555
O81 Ta23 2.034984 1_555
O81 Ta18 2.052364 1_555
O82 Ta31 2.003671 1_555
O82 Ta27 2.094757 1_555
O83 Ta24 2.003671 1_555
O83 Ta19 2.094757 1_555
O84 Ta28 2.056315 1_555
O84 Ta21 2.056315 1_545
O85 Ta29 2.058938 1_555
O85 Ta22 2.058938 1_545
O86 Ta30 2.015545 1_555
O86 Ta23 2.015545 1_545
O87 Ta20 2.050270 1_555
O87 Ta16 2.050270 1_545
O88 Ta17 2.023799 1_545
O88 Ta25 2.023799 1_555
O89 Ta26 2.064661 1_555
O89 Ta18 2.064661 1_545
O90 Ta31 2.064477 1_555
O90 Ta24 2.064477 1_545
O91 Ta19 2.061116 1_545
O91 Ta27 2.061116 1_555
O92 Ta28 2.020822 1_455
O92 Ta12 2.020822 1_555
O93 Ta5 2.021156 1_555
O93 Ta20 2.021156 1_455
O94 Ta10 1.938947 1_555
O94 Ta26 1.938947 1_455
O95 Ta27 2.037626 1_455
O95 Ta11 2.037626 1_555
