# generated using pymatgen
data_Zn(SbO2)2
_symmetry_space_group_name_H-M   'P 1'
_cell_length_a   8.53360343
_cell_length_b   8.53360343
_cell_length_c   5.95225320
_cell_angle_alpha   90.00000000
_cell_angle_beta   90.00000000
_cell_angle_gamma   90.00000000
_symmetry_Int_Tables_number   1
_chemical_formula_structural   Zn(SbO2)2
_chemical_formula_sum   'Zn4 Sb8 O16'
_cell_volume   433.45728903
_cell_formula_units_Z   4
loop_
 _symmetry_equiv_pos_site_id
 _symmetry_equiv_pos_as_xyz
  1  'x, y, z'
loop_
 _atom_site_type_symbol
 _atom_site_label
 _atom_site_symmetry_multiplicity
 _atom_site_fract_x
 _atom_site_fract_y
 _atom_site_fract_z
 _atom_site_occupancy
  Zn  Zn0  1  0.50000000  0.00000000  0.25000000  1
  Zn  Zn1  1  0.00000000  0.50000000  0.75000000  1
  Zn  Zn2  1  0.50000000  0.00000000  0.75000000  1
  Zn  Zn3  1  0.00000000  0.50000000  0.25000000  1
  Sb  Sb0  1  0.83665861  0.82284939  -0.00000000  1
  Sb  Sb1  1  0.82284939  0.16334139  0.50000000  1
  Sb  Sb2  1  0.17715061  0.83665861  0.50000000  1
  Sb  Sb3  1  0.16334139  0.17715061  -0.00000000  1
  Sb  Sb4  1  0.33665861  0.67715061  0.00000000  1
  Sb  Sb5  1  0.66334139  0.32284939  -0.00000000  1
  Sb  Sb6  1  0.67715061  0.66334139  0.50000000  1
  Sb  Sb7  1  0.32284939  0.33665861  0.50000000  1
  O  O0  1  0.40473687  0.85988564  0.50000000  1
  O  O1  1  0.59526313  0.14011436  0.50000000  1
  O  O2  1  0.14011436  0.40473687  -0.00000000  1
  O  O3  1  0.85988564  0.59526313  0.00000000  1
  O  O4  1  0.35988564  0.90473687  0.00000000  1
  O  O5  1  0.90473687  0.64011436  0.50000000  1
  O  O6  1  0.09526313  0.35988564  0.50000000  1
  O  O7  1  0.64011436  0.09526313  -0.00000000  1
  O  O8  1  0.18008774  0.68008774  0.75000000  1
  O  O9  1  0.68008774  0.81991226  0.25000000  1
  O  O10  1  0.31991226  0.18008774  0.25000000  1
  O  O11  1  0.81991226  0.31991226  0.75000000  1
  O  O12  1  0.18008774  0.68008774  0.25000000  1
  O  O13  1  0.68008774  0.81991226  0.75000000  1
  O  O14  1  0.31991226  0.18008774  0.75000000  1
  O  O15  1  0.81991226  0.31991226  0.25000000  1
loop_
_geom_bond_atom_site_label_1
_geom_bond_atom_site_label_2
_geom_bond_distance
_geom_bond_site_symmetry_2
O0 Sb2 1.952219 1_555
O0 Zn0 2.074814 1_565
O0 Zn2 2.074814 1_565
O1 Sb1 1.952219 1_555
O1 Zn2 2.074814 1_555
O1 Zn0 2.074814 1_555
O2 Sb3 1.952219 1_555
O2 Zn3 2.074814 1_555
O2 Zn1 2.074814 1_554
O3 Sb0 1.952219 1_555
O3 Zn1 2.074814 1_654
O3 Zn3 2.074814 1_655
O4 Sb4 1.952219 1_555
O4 Zn0 2.074814 1_565
O4 Zn2 2.074814 1_564
O5 Sb6 1.952219 1_555
O5 Zn1 2.074814 1_655
O5 Zn3 2.074814 1_655
O6 Sb7 1.952219 1_555
O6 Zn3 2.074814 1_555
O6 Zn1 2.074814 1_555
O7 Sb5 1.952219 1_555
O7 Zn2 2.074814 1_554
O7 Zn0 2.074814 1_555
O8 Sb2 2.000040 1_555
O8 Sb4 2.000040 1_556
O8 Zn1 2.173360 1_555
O9 Sb0 2.000040 1_555
O9 Sb6 2.000040 1_555
O9 Zn0 2.173360 1_565
O10 Sb3 2.000040 1_555
O10 Sb7 2.000040 1_555
O10 Zn0 2.173360 1_555
O11 Sb5 2.000040 1_556
O11 Sb1 2.000040 1_555
O11 Zn1 2.173360 1_655
O12 Sb2 2.000040 1_555
O12 Sb4 2.000040 1_555
O12 Zn3 2.173360 1_555
O13 Sb0 2.000040 1_556
O13 Sb6 2.000040 1_555
O13 Zn2 2.173360 1_565
O14 Sb7 2.000040 1_555
O14 Sb3 2.000040 1_556
O14 Zn2 2.173360 1_555
O15 Sb5 2.000040 1_555
O15 Sb1 2.000040 1_555
O15 Zn3 2.173360 1_655
