# generated using pymatgen
data_Na2Li3GaO4
_symmetry_space_group_name_H-M   'P 1'
_cell_length_a   6.59212400
_cell_length_b   8.03495600
_cell_length_c   8.34437500
_cell_angle_alpha   90.00000000
_cell_angle_beta   90.00000000
_cell_angle_gamma   90.00000000
_symmetry_Int_Tables_number   1
_chemical_formula_structural   Na2Li3GaO4
_chemical_formula_sum   'Na8 Li12 Ga4 O16'
_cell_volume   441.98006772
_cell_formula_units_Z   4
loop_
 _symmetry_equiv_pos_site_id
 _symmetry_equiv_pos_as_xyz
  1  'x, y, z'
loop_
 _atom_site_type_symbol
 _atom_site_label
 _atom_site_symmetry_multiplicity
 _atom_site_fract_x
 _atom_site_fract_y
 _atom_site_fract_z
 _atom_site_occupancy
  Na  Na0  1  0.00000000  0.25942200  0.75457000  1
  Na  Na1  1  0.00000000  0.74057800  0.24543000  1
  Na  Na2  1  0.50000000  0.75942200  0.74543000  1
  Na  Na3  1  0.50000000  0.24057800  0.25457000  1
  Na  Na4  1  0.74159700  0.50000000  0.00000000  1
  Na  Na5  1  0.75840300  0.00000000  0.50000000  1
  Na  Na6  1  0.25840300  0.50000000  0.00000000  1
  Na  Na7  1  0.24159700  0.00000000  0.50000000  1
  Li  Li0  1  0.75474400  0.48461100  0.35216700  1
  Li  Li1  1  0.75474400  0.51538900  0.64783300  1
  Li  Li2  1  0.74525600  0.98461100  0.14783300  1
  Li  Li3  1  0.74525600  0.01538900  0.85216700  1
  Li  Li4  1  0.24525600  0.51538900  0.64783300  1
  Li  Li5  1  0.24525600  0.48461100  0.35216700  1
  Li  Li6  1  0.25474400  0.01538900  0.85216700  1
  Li  Li7  1  0.25474400  0.98461100  0.14783300  1
  Li  Li8  1  0.00000000  0.26483100  0.41805700  1
  Li  Li9  1  0.00000000  0.73516900  0.58194300  1
  Li  Li10  1  0.50000000  0.76483100  0.08194300  1
  Li  Li11  1  0.50000000  0.23516900  0.91805700  1
  Ga  Ga0  1  0.00000000  0.77458800  0.87439200  1
  Ga  Ga1  1  0.00000000  0.22541200  0.12560800  1
  Ga  Ga2  1  0.50000000  0.27458800  0.62560800  1
  Ga  Ga3  1  0.50000000  0.72541200  0.37439200  1
  O  O0  1  0.00000000  0.56409800  0.77400700  1
  O  O1  1  0.00000000  0.43590200  0.22599300  1
  O  O2  1  0.50000000  0.06409800  0.72599300  1
  O  O3  1  0.50000000  0.93590200  0.27400700  1
  O  O4  1  0.75873300  0.80304700  0.98812200  1
  O  O5  1  0.75873300  0.19695300  0.01187800  1
  O  O6  1  0.74126700  0.30304700  0.51187800  1
  O  O7  1  0.74126700  0.69695300  0.48812200  1
  O  O8  1  0.24126700  0.19695300  0.01187800  1
  O  O9  1  0.24126700  0.80304700  0.98812200  1
  O  O10  1  0.25873300  0.69695300  0.48812200  1
  O  O11  1  0.25873300  0.30304700  0.51187800  1
  O  O12  1  0.00000000  0.95104000  0.72160500  1
  O  O13  1  0.00000000  0.04896000  0.27839500  1
  O  O14  1  0.50000000  0.45104000  0.77839500  1
  O  O15  1  0.50000000  0.54896000  0.22160500  1
loop_
_geom_bond_atom_site_label_1
_geom_bond_atom_site_label_2
_geom_bond_distance
_geom_bond_site_symmetry_2
Na0 O0 2.453425 1_555
Na0 O12 2.493057 1_545
Na0 O11 2.670772 1_555
Na0 O6 2.670772 1_455
Na0 O8 2.718720 1_556
Na0 O5 2.718720 1_456
Na1 O1 2.453425 1_555
Na1 O13 2.493057 1_565
Na1 O7 2.670772 1_455
Na1 O10 2.670772 1_555
Na1 O9 2.718720 1_554
Na1 O4 2.718720 1_454
Na2 O2 2.453425 1_565
Na2 O14 2.493057 1_555
Na2 O4 2.670772 1_555
Na2 O9 2.670772 1_555
Na2 O10 2.718720 1_555
Na2 O7 2.718720 1_555
Na3 O3 2.453425 1_545
Na3 O15 2.493057 1_555
Na3 O5 2.670772 1_555
Na3 O8 2.670772 1_555
Na3 O6 2.718720 1_555
Na3 O11 2.718720 1_555
Na4 O4 2.439602 1_554
Na4 O5 2.439602 1_555
Na4 O15 2.471968 1_555
Na4 O14 2.471968 1_554
Na4 O0 2.592882 1_654
Na4 O1 2.592882 1_655
Na5 O6 2.439602 1_555
Na5 O7 2.439602 1_545
Na5 O12 2.471968 1_645
Na5 O13 2.471968 1_655
Na5 O2 2.592882 1_555
Na5 O3 2.592882 1_545
Na6 O9 2.439602 1_554
Na6 O8 2.439602 1_555
Na6 O15 2.471968 1_555
Na6 O14 2.471968 1_554
Na6 O0 2.592882 1_554
Na6 O1 2.592882 1_555
Na7 O11 2.439602 1_555
Na7 O10 2.439602 1_545
Na7 O12 2.471968 1_545
Na7 O13 2.471968 1_555
Na7 O2 2.592882 1_555
Na7 O3 2.592882 1_545
Li0 O1 1.968644 1_655
Li0 O6 1.977933 1_555
Li0 O7 2.050821 1_555
Li0 O15 2.067441 1_555
Li1 O0 1.968644 1_655
Li1 O7 1.977933 1_555
Li1 O6 2.050821 1_555
Li1 O14 2.067441 1_555
Li2 O3 1.968644 1_555
Li2 O4 1.977933 1_554
Li2 O5 2.050821 1_565
Li2 O13 2.067441 1_665
Li3 O2 1.968644 1_555
Li3 O5 1.977933 1_556
Li3 O4 2.050821 1_545
Li3 O12 2.067441 1_645
Li4 O0 1.968644 1_555
Li4 O10 1.977933 1_555
Li4 O11 2.050821 1_555
Li4 O14 2.067441 1_555
Li5 O1 1.968644 1_555
Li5 O11 1.977933 1_555
Li5 O10 2.050821 1_555
Li5 O15 2.067441 1_555
Li6 O2 1.968644 1_555
Li6 O8 1.977933 1_556
Li6 O9 2.050821 1_545
Li6 O12 2.067441 1_545
Li7 O3 1.968644 1_555
Li7 O9 1.977933 1_554
Li7 O8 2.050821 1_565
Li7 O13 2.067441 1_565
Li8 O11 1.901646 1_555
Li8 O6 1.901646 1_455
Li8 O13 2.089660 1_555
Li8 O1 2.111370 1_555
Li9 O7 1.901646 1_455
Li9 O10 1.901646 1_555
Li9 O12 2.089660 1_555
Li9 O0 2.111370 1_555
Li10 O4 1.901646 1_554
Li10 O9 1.901646 1_554
Li10 O15 2.089660 1_555
Li10 O3 2.111370 1_555
Li11 O5 1.901646 1_556
Li11 O8 1.901646 1_556
Li11 O14 2.089660 1_555
Li11 O2 2.111370 1_555
Ga0 O9 1.866138 1_555
Ga0 O4 1.866138 1_455
Ga0 O0 1.887347 1_555
Ga0 O12 1.906702 1_555
Ga1 O8 1.866138 1_555
Ga1 O5 1.866138 1_455
Ga1 O1 1.887347 1_555
Ga1 O13 1.906702 1_555
Ga2 O11 1.866138 1_555
Ga2 O6 1.866138 1_555
Ga2 O2 1.887347 1_555
Ga2 O14 1.906702 1_555
Ga3 O10 1.866138 1_555
Ga3 O7 1.866138 1_555
Ga3 O3 1.887347 1_555
Ga3 O15 1.906702 1_555
