# generated using pymatgen
data_Ca3ScCoO6
_symmetry_space_group_name_H-M   'P 1'
_cell_length_a   6.39639983
_cell_length_b   6.39639983
_cell_length_c   6.39639912
_cell_angle_alpha   92.46592049
_cell_angle_beta   92.46592049
_cell_angle_gamma   92.46591895
_symmetry_Int_Tables_number   1
_chemical_formula_structural   Ca3ScCoO6
_chemical_formula_sum   'Ca6 Sc2 Co2 O12'
_cell_volume   260.95323748
_cell_formula_units_Z   2
loop_
 _symmetry_equiv_pos_site_id
 _symmetry_equiv_pos_as_xyz
  1  'x, y, z'
loop_
 _atom_site_type_symbol
 _atom_site_label
 _atom_site_symmetry_multiplicity
 _atom_site_fract_x
 _atom_site_fract_y
 _atom_site_fract_z
 _atom_site_occupancy
  Ca  Ca0  1  0.38162900  0.75000000  0.11837100  1
  Ca  Ca1  1  0.75000000  0.11837100  0.38162900  1
  Ca  Ca2  1  0.11837100  0.38162900  0.75000000  1
  Ca  Ca3  1  0.88162900  0.61837100  0.25000000  1
  Ca  Ca4  1  0.25000000  0.88162900  0.61837100  1
  Ca  Ca5  1  0.61837100  0.25000000  0.88162900  1
  Sc  Sc0  1  0.25000000  0.25000000  0.25000000  1
  Sc  Sc1  1  0.75000000  0.75000000  0.75000000  1
  Co  Co0  1  0.50000000  0.50000000  0.50000000  1
  Co  Co1  1  0.00000000  0.00000000  0.00000000  1
  O  O0  1  0.08838300  0.95761200  0.29044500  1
  O  O1  1  0.91161700  0.04238800  0.70955500  1
  O  O2  1  0.70955500  0.91161700  0.04238800  1
  O  O3  1  0.95761200  0.29044500  0.08838300  1
  O  O4  1  0.20955500  0.54238800  0.41161700  1
  O  O5  1  0.04238800  0.70955500  0.91161700  1
  O  O6  1  0.45761200  0.58838300  0.79044500  1
  O  O7  1  0.41161700  0.20955500  0.54238800  1
  O  O8  1  0.54238800  0.41161700  0.20955500  1
  O  O9  1  0.79044500  0.45761200  0.58838300  1
  O  O10  1  0.29044500  0.08838300  0.95761200  1
  O  O11  1  0.58838300  0.79044500  0.45761200  1
loop_
_geom_bond_atom_site_label_1
_geom_bond_atom_site_label_2
_geom_bond_distance
_geom_bond_site_symmetry_2
Ca0 O6 2.376753 1_554
Ca0 O2 2.376753 1_555
Ca0 O11 2.489931 1_555
Ca0 O5 2.489931 1_554
Ca0 O10 2.516117 1_564
Ca0 O8 2.516117 1_555
Ca0 O4 2.599900 1_555
Ca0 O0 2.599901 1_555
Ca1 O1 2.376753 1_555
Ca1 O11 2.376753 1_545
Ca1 O2 2.489931 1_545
Ca1 O9 2.489931 1_555
Ca1 O7 2.516117 1_555
Ca1 O0 2.516117 1_645
Ca1 O3 2.599900 1_555
Ca1 O8 2.599901 1_555
Ca2 O9 2.376753 1_455
Ca2 O5 2.376753 1_555
Ca2 O6 2.489931 1_555
Ca2 O1 2.489931 1_455
Ca2 O3 2.516117 1_456
Ca2 O4 2.516117 1_555
Ca2 O7 2.599901 1_555
Ca2 O10 2.599901 1_555
Ca3 O4 2.376753 1_655
Ca3 O3 2.376753 1_555
Ca3 O0 2.489931 1_655
Ca3 O8 2.489931 1_555
Ca3 O5 2.516117 1_654
Ca3 O9 2.516117 1_555
Ca3 O11 2.599901 1_555
Ca3 O2 2.599901 1_555
Ca4 O0 2.376753 1_555
Ca4 O7 2.376753 1_565
Ca4 O10 2.489931 1_565
Ca4 O4 2.489931 1_555
Ca4 O11 2.516117 1_555
Ca4 O1 2.516117 1_465
Ca4 O5 2.599900 1_555
Ca4 O6 2.599901 1_555
Ca5 O8 2.376753 1_556
Ca5 O10 2.376753 1_555
Ca5 O7 2.489931 1_555
Ca5 O3 2.489931 1_556
Ca5 O2 2.516117 1_546
Ca5 O6 2.516117 1_555
Ca5 O9 2.599900 1_555
Ca5 O1 2.599901 1_555
Co0 O6 1.952101 1_555
Co0 O8 1.952101 1_555
Co0 O9 1.952101 1_555
Co0 O4 1.952101 1_555
Co0 O11 1.952101 1_555
Co0 O7 1.952101 1_555
Co1 O0 1.952101 1_545
Co1 O1 1.952101 1_454
Co1 O3 1.952101 1_455
Co1 O5 1.952101 1_544
Co1 O10 1.952101 1_554
Co1 O2 1.952101 1_445
O0 Sc0 2.128765 1_565
O1 Sc1 2.128765 1_545
O2 Sc1 2.128765 1_554
O3 Sc0 2.128765 1_655
O4 Sc0 2.128765 1_555
O5 Sc1 2.128765 1_455
O6 Sc1 2.128765 1_555
O7 Sc0 2.128765 1_555
O8 Sc0 2.128765 1_555
O9 Sc1 2.128765 1_555
O10 Sc0 2.128765 1_556
O11 Sc1 2.128765 1_555
