# generated using pymatgen
data_TaCo2
_symmetry_space_group_name_H-M   'P 1'
_cell_length_a   4.78638883
_cell_length_b   4.78639778
_cell_length_c   7.75973698
_cell_angle_alpha   90.00022330
_cell_angle_beta   90.00000001
_cell_angle_gamma   119.99998000
_symmetry_Int_Tables_number   1
_chemical_formula_structural   TaCo2
_chemical_formula_sum   'Ta4 Co8'
_cell_volume   153.95524332
_cell_formula_units_Z   4
loop_
 _symmetry_equiv_pos_site_id
 _symmetry_equiv_pos_as_xyz
  1  'x, y, z'
loop_
 _atom_site_type_symbol
 _atom_site_label
 _atom_site_symmetry_multiplicity
 _atom_site_fract_x
 _atom_site_fract_y
 _atom_site_fract_z
 _atom_site_occupancy
  Ta  Ta0  1  0.33334084  0.66668069  0.05806612  1
  Ta  Ta1  1  0.66666057  0.33332214  0.94192154  1
  Ta  Ta2  1  0.33334004  0.66667909  0.44187268  1
  Ta  Ta3  1  0.66665946  0.33331992  0.55808400  1
  Co  Co0  1  0.82976923  0.17022289  0.24992216  1
  Co  Co1  1  0.34045266  0.17022289  0.24992216  1
  Co  Co2  1  0.17024211  0.82976708  0.75009063  1
  Co  Co3  1  0.17024637  0.34049174  0.75009143  1
  Co  Co4  1  0.82976587  0.65953375  0.24992222  1
  Co  Co5  1  0.99999814  0.99999629  0.99998972  1
  Co  Co6  1  0.65952597  0.82976708  0.75009063  1
  Co  Co7  1  0.99999873  0.99999746  0.50002672  1
loop_
_geom_bond_atom_site_label_1
_geom_bond_atom_site_label_2
_geom_bond_distance
_geom_bond_site_symmetry_2
Ta0 Ta1 2.906585 1_564
Ta0 Ta1 2.906721 1_554
Ta0 Ta1 2.906727 1_454
Ta0 Ta2 2.978238 1_555
Ta1 Ta3 2.978478 1_555
Ta2 Ta3 2.906735 1_565
Ta2 Ta3 2.906887 1_555
Ta2 Ta3 2.906893 1_455
Co0 Co4 2.342044 1_555
Co0 Co1 2.342059 1_555
Co0 Co5 2.398517 1_544
Co0 Co7 2.399601 1_545
Co0 Co1 2.444329 1_655
Co0 Co4 2.444353 1_545
Co0 Ta1 2.746000 1_554
Co0 Ta3 2.747081 1_555
Co0 Ta0 2.818560 1_545
Co0 Ta0 2.818690 1_655
Co0 Ta2 2.818962 1_545
Co0 Ta2 2.819062 1_655
Co1 Co4 2.342041 1_555
Co1 Co5 2.398514 1_444
Co1 Co7 2.399598 1_445
Co1 Co4 2.444354 1_445
Co1 Ta1 2.745999 1_554
Co1 Ta3 2.747081 1_555
Co1 Ta0 2.818566 1_545
Co1 Ta0 2.818687 1_555
Co1 Ta2 2.818968 1_545
Co1 Ta2 2.819059 1_555
Co2 Co3 2.341877 1_555
Co2 Co6 2.341903 1_555
Co2 Co5 2.398351 1_455
Co2 Co7 2.399391 1_455
Co2 Co6 2.444486 1_455
Co2 Co3 2.444521 1_565
Co2 Ta0 2.745784 1_556
Co2 Ta2 2.747418 1_555
Co2 Ta1 2.818464 1_565
Co2 Ta1 2.818582 1_455
Co2 Ta3 2.819188 1_565
Co2 Ta3 2.819299 1_455
Co3 Co6 2.341875 1_555
Co3 Co5 2.398409 1_445
Co3 Co7 2.399440 1_445
Co3 Co6 2.444520 1_445
Co3 Ta0 2.745779 1_556
Co3 Ta2 2.747435 1_555
Co3 Ta1 2.818515 1_555
Co3 Ta1 2.818523 1_455
Co3 Ta3 2.819242 1_555
Co3 Ta3 2.819250 1_455
Co4 Co5 2.398543 1_554
Co4 Co7 2.399615 1_555
Co4 Ta1 2.746001 1_554
Co4 Ta3 2.747104 1_555
Co4 Ta0 2.818618 1_555
Co4 Ta0 2.818630 1_655
Co4 Ta2 2.819005 1_555
Co4 Ta2 2.819017 1_655
Co5 Co6 2.398348 1_555
Co5 Ta0 2.799891 1_556
Co5 Ta0 2.799897 1_656
Co5 Ta1 2.799902 1_665
Co5 Ta1 2.799908 1_565
Co5 Ta1 2.799952 1_555
Co5 Ta0 2.800004 1_666
Co6 Co7 2.399388 1_555
Co6 Ta0 2.745783 1_556
Co6 Ta2 2.747417 1_555
Co6 Ta1 2.818470 1_565
Co6 Ta1 2.818579 1_555
Co6 Ta3 2.819193 1_565
Co6 Ta3 2.819296 1_555
Co7 Ta3 2.799880 1_665
Co7 Ta3 2.799885 1_565
Co7 Ta3 2.799957 1_555
Co7 Ta2 2.799992 1_555
Co7 Ta2 2.799998 1_655
Co7 Ta2 2.800094 1_665
