# generated using pymatgen
data_CaLa2B10O19
_symmetry_space_group_name_H-M   'P 1'
_cell_length_a   6.48009191
_cell_length_b   6.48009191
_cell_length_c   9.18774776
_cell_angle_alpha   88.56450808
_cell_angle_beta   88.56450808
_cell_angle_gamma   61.51215719
_symmetry_Int_Tables_number   1
_chemical_formula_structural   CaLa2B10O19
_chemical_formula_sum   'Ca1 La2 B10 O19'
_cell_volume   338.94974238
_cell_formula_units_Z   1
loop_
 _symmetry_equiv_pos_site_id
 _symmetry_equiv_pos_as_xyz
  1  'x, y, z'
loop_
 _atom_site_type_symbol
 _atom_site_label
 _atom_site_symmetry_multiplicity
 _atom_site_fract_x
 _atom_site_fract_y
 _atom_site_fract_z
 _atom_site_occupancy
  Ca  Ca0  1  0.18840400  0.81159600  0.50000000  1
  La  La0  1  0.16480200  0.15988500  0.85571300  1
  La  La1  1  0.84011500  0.83519800  0.14428700  1
  B  B0  1  0.55545000  0.67407600  0.72999900  1
  B  B1  1  0.63735300  0.28408300  0.83902500  1
  B  B2  1  0.16064400  0.18551900  0.20757800  1
  B  B3  1  0.24115200  0.62531900  0.87395200  1
  B  B4  1  0.74665900  0.78823700  0.52902200  1
  B  B5  1  0.37468100  0.75884800  0.12604800  1
  B  B6  1  0.71591700  0.36264700  0.16097500  1
  B  B7  1  0.21176300  0.25334100  0.47097800  1
  B  B8  1  0.32592400  0.44455000  0.27000100  1
  B  B9  1  0.81448100  0.83935600  0.79242200  1
  O  O0  1  0.40998100  0.36671500  0.88663000  1
  O  O1  1  0.59485900  0.70226000  0.57310900  1
  O  O2  1  0.30796300  0.72467700  0.74620700  1
  O  O3  1  0.85579900  0.85335400  0.63557500  1
  O  O4  1  0.29774000  0.40514100  0.42689100  1
  O  O5  1  0.94793300  0.19597200  0.13357200  1
  O  O6  1  0.23498300  0.76501700  0.00000000  1
  O  O7  1  0.16044000  0.40825800  0.18085600  1
  O  O8  1  0.14664600  0.14420100  0.36442500  1
  O  O9  1  0.80402800  0.05206700  0.86642800  1
  O  O10  1  0.27532300  0.69203700  0.25379300  1
  O  O11  1  0.80488600  0.80687000  0.38888600  1
  O  O12  1  0.59174200  0.83956000  0.81914400  1
  O  O13  1  0.19313000  0.19511400  0.61111400  1
  O  O14  1  0.71882200  0.42530100  0.77789100  1
  O  O15  1  0.36508900  0.98959300  0.13622300  1
  O  O16  1  0.63328500  0.59001900  0.11337000  1
  O  O17  1  0.01040700  0.63491100  0.86377700  1
  O  O18  1  0.57469900  0.28117800  0.22210900  1
loop_
_geom_bond_atom_site_label_1
_geom_bond_atom_site_label_2
_geom_bond_distance
_geom_bond_site_symmetry_2
Ca0 O8 2.365628 1_565
Ca0 O3 2.365628 1_455
Ca0 O2 2.375336 1_555
Ca0 O10 2.375336 1_555
Ca0 O4 2.484965 1_555
Ca0 O1 2.484965 1_555
Ca0 O13 2.724117 1_565
Ca0 O11 2.724117 1_455
La0 O13 2.264914 1_555
La0 O0 2.544462 1_555
La0 O12 2.566282 1_545
La0 O14 2.668651 1_455
La0 O6 2.694765 1_546
La0 O2 2.725061 1_545
La0 O9 2.739809 1_455
La0 O17 2.748033 1_555
La0 O5 2.843166 1_456
La0 O15 2.864141 1_546
La1 O11 2.264914 1_555
La1 O16 2.544462 1_555
La1 O7 2.566282 1_655
La1 O18 2.668651 1_565
La1 O6 2.694765 1_655
La1 O10 2.725061 1_655
La1 O5 2.739809 1_565
La1 O15 2.748033 1_555
La1 O9 2.843166 1_564
La1 O17 2.864141 1_654
B0 O12 1.473196 1_555
B0 O1 1.479613 1_555
B0 O2 1.480036 1_555
B0 O14 1.507630 1_555
B1 O14 1.360832 1_555
B1 O0 1.369577 1_555
B1 O9 1.391397 1_555
B2 O7 1.457407 1_555
B2 O8 1.467613 1_555
B2 O15 1.480040 1_545
B2 O5 1.523959 1_455
B3 O17 1.471878 1_555
B3 O6 1.475792 1_556
B3 O2 1.477198 1_555
B3 O0 1.505453 1_555
B4 O11 1.351304 1_555
B4 O1 1.390552 1_555
B4 O3 1.405957 1_555
B5 O15 1.471878 1_555
B5 O6 1.475792 1_555
B5 O10 1.477198 1_555
B5 O16 1.505453 1_555
B6 O18 1.360832 1_555
B6 O16 1.369577 1_555
B6 O5 1.391397 1_555
B7 O13 1.351304 1_555
B7 O4 1.390552 1_555
B7 O8 1.405957 1_555
B8 O7 1.473196 1_555
B8 O4 1.479613 1_555
B8 O10 1.480036 1_555
B8 O18 1.507630 1_555
B9 O12 1.457407 1_555
B9 O3 1.467613 1_555
B9 O17 1.480040 1_655
B9 O9 1.523959 1_565
