# generated using pymatgen
data_Ge2S3Br2
_symmetry_space_group_name_H-M   'P 1'
_cell_length_a   9.14535501
_cell_length_b   10.18258229
_cell_length_c   10.37074279
_cell_angle_alpha   93.83824842
_cell_angle_beta   116.04644014
_cell_angle_gamma   89.95436794
_symmetry_Int_Tables_number   1
_chemical_formula_structural   Ge2S3Br2
_chemical_formula_sum   'Ge8 S12 Br8'
_cell_volume   865.28738160
_cell_formula_units_Z   4
loop_
 _symmetry_equiv_pos_site_id
 _symmetry_equiv_pos_as_xyz
  1  'x, y, z'
loop_
 _atom_site_type_symbol
 _atom_site_label
 _atom_site_symmetry_multiplicity
 _atom_site_fract_x
 _atom_site_fract_y
 _atom_site_fract_z
 _atom_site_occupancy
  Ge  Ge0  1  0.74180655  0.82117397  0.74151394  1
  Ge  Ge1  1  0.25819345  0.17882603  0.25848606  1
  Ge  Ge2  1  0.69796244  0.50885665  0.82287313  1
  Ge  Ge3  1  0.30203756  0.49114335  0.17712687  1
  Ge  Ge4  1  0.36503008  0.69751668  0.66709816  1
  Ge  Ge5  1  0.63496992  0.30248332  0.33290184  1
  Ge  Ge6  1  0.64166598  0.77299692  0.01588652  1
  Ge  Ge7  1  0.35833402  0.22700308  0.98411348  1
  S  S0  1  0.78653080  0.91165539  0.95705199  1
  S  S1  1  0.21346920  0.08834461  0.04294801  1
  S  S2  1  0.84822419  0.62429366  0.74717172  1
  S  S3  1  0.15177581  0.37570634  0.25282828  1
  S  S4  1  0.48495912  0.82982751  0.57721922  1
  S  S5  1  0.51504088  0.17017249  0.42278078  1
  S  S6  1  0.73713059  0.57119506  0.04549983  1
  S  S7  1  0.26286941  0.42880494  0.95450017  1
  S  S8  1  0.43688247  0.48946502  0.66569090  1
  S  S9  1  0.56311753  0.51053498  0.33430910  1
  S  S10  1  0.37536206  0.77703565  0.87612951  1
  S  S11  1  0.62463794  0.22296435  0.12387049  1
  Br  Br0  1  0.88409609  0.95657267  0.66588772  1
  Br  Br1  1  0.11590391  0.04342733  0.33411228  1
  Br  Br2  1  0.09454036  0.69340061  0.50871401  1
  Br  Br3  1  0.90545964  0.30659939  0.49128599  1
  Br  Br4  1  0.67656305  0.85238312  0.23974854  1
  Br  Br5  1  0.32343695  0.14761688  0.76025146  1
  Br  Br6  1  0.79138734  0.29968113  0.83448525  1
  Br  Br7  1  0.20861266  0.70031887  0.16551475  1
loop_
_geom_bond_atom_site_label_1
_geom_bond_atom_site_label_2
_geom_bond_distance
_geom_bond_site_symmetry_2
Ge0 S2 2.220839 1_555
Ge0 S4 2.221142 1_555
Ge0 S0 2.221405 1_555
Ge1 S3 2.220839 1_555
Ge1 S5 2.221142 1_555
Ge1 S1 2.221405 1_555
Ge2 S8 2.221882 1_555
Ge2 S6 2.222538 1_556
Ge2 S2 2.227108 1_555
Ge3 S9 2.221882 1_555
Ge3 S7 2.222538 1_554
Ge3 S3 2.227108 1_555
Ge4 S8 2.218588 1_555
Ge4 S10 2.224679 1_555
Ge4 S4 2.226029 1_555
Ge5 S9 2.218588 1_555
Ge5 S11 2.224679 1_555
Ge5 S5 2.226029 1_555
Ge6 S6 2.219274 1_555
Ge6 S10 2.222985 1_554
Ge6 S0 2.224674 1_554
Ge7 S7 2.219274 1_555
Ge7 S11 2.222985 1_556
Ge7 S1 2.224674 1_556
Br0 Ge0 2.291993 1_555
Br1 Ge1 2.291993 1_555
Br2 Ge4 2.289473 1_555
Br3 Ge5 2.289473 1_555
Br4 Ge6 2.289905 1_555
Br5 Ge7 2.289905 1_555
Br6 Ge2 2.285227 1_555
Br7 Ge3 2.285227 1_555
