# generated using pymatgen
data_CaSeO3
_symmetry_space_group_name_H-M   'P 1'
_cell_length_a   6.39345180
_cell_length_b   6.69446549
_cell_length_c   6.80623043
_cell_angle_alpha   90.00000000
_cell_angle_beta   90.00000000
_cell_angle_gamma   102.65814086
_symmetry_Int_Tables_number   1
_chemical_formula_structural   CaSeO3
_chemical_formula_sum   'Ca4 Se4 O12'
_cell_volume   284.23135479
_cell_formula_units_Z   4
loop_
 _symmetry_equiv_pos_site_id
 _symmetry_equiv_pos_as_xyz
  1  'x, y, z'
loop_
 _atom_site_type_symbol
 _atom_site_label
 _atom_site_symmetry_multiplicity
 _atom_site_fract_x
 _atom_site_fract_y
 _atom_site_fract_z
 _atom_site_occupancy
  Ca  Ca0  1  0.72529979  0.87598870  0.87168102  1
  Ca  Ca1  1  0.22529979  0.37598870  0.62831898  1
  Ca  Ca2  1  0.77470021  0.62401130  0.37168102  1
  Ca  Ca3  1  0.27470021  0.12401130  0.12831898  1
  Se  Se0  1  0.74090767  0.09619100  0.33726491  1
  Se  Se1  1  0.24090767  0.59619100  0.16273509  1
  Se  Se2  1  0.75909233  0.40380900  0.83726491  1
  Se  Se3  1  0.25909233  0.90380900  0.66273509  1
  O  O0  1  0.91409617  0.31186199  0.41730824  1
  O  O1  1  0.58590383  0.18813801  0.91730824  1
  O  O2  1  0.60483528  0.52019194  0.68624573  1
  O  O3  1  0.41409617  0.81186199  0.08269176  1
  O  O4  1  0.78264815  0.57095471  0.02782874  1
  O  O5  1  0.08590383  0.68813801  0.58269176  1
  O  O6  1  0.21735185  0.42904529  0.97217126  1
  O  O7  1  0.10483528  0.02019194  0.81375427  1
  O  O8  1  0.28264815  0.07095471  0.47217126  1
  O  O9  1  0.39516472  0.47980806  0.31375427  1
  O  O10  1  0.89516472  0.97980806  0.18624573  1
  O  O11  1  0.71735185  0.92904529  0.52782874  1
loop_
_geom_bond_atom_site_label_1
_geom_bond_atom_site_label_2
_geom_bond_distance
_geom_bond_site_symmetry_2
Ca0 O11 2.369352 1_555
Ca0 O4 2.400416 1_556
Ca0 O3 2.414819 1_556
Ca0 O10 2.432194 1_556
Ca0 O7 2.439024 1_665
Ca0 O1 2.464480 1_565
Ca0 O2 2.656206 1_555
Ca1 O6 2.369352 1_555
Ca1 O8 2.400416 1_555
Ca1 O0 2.414819 1_455
Ca1 O9 2.432194 1_555
Ca1 O2 2.439024 1_555
Ca1 O5 2.464480 1_555
Ca1 O7 2.656206 1_555
Ca2 O4 2.369352 1_555
Ca2 O11 2.400416 1_555
Ca2 O5 2.414819 1_655
Ca2 O2 2.432194 1_555
Ca2 O9 2.439024 1_555
Ca2 O0 2.464480 1_555
Ca2 O10 2.656206 1_555
Ca3 O8 2.369352 1_555
Ca3 O6 2.400416 1_554
Ca3 O1 2.414819 1_554
Ca3 O7 2.432194 1_554
Ca3 O10 2.439024 1_445
Ca3 O3 2.464480 1_545
Ca3 O9 2.656206 1_555
O0 Se0 1.704924 1_555
O1 Se2 1.704924 1_555
O2 Se2 1.724231 1_555
O3 Se1 1.704924 1_555
O4 Se2 1.697982 1_554
O5 Se3 1.704924 1_555
O6 Se1 1.697982 1_556
O7 Se3 1.724231 1_545
O8 Se3 1.697982 1_545
O9 Se1 1.724231 1_555
O10 Se0 1.724231 1_565
O11 Se0 1.697982 1_565
