# generated using pymatgen
data_Li3Mo2P5O18
_symmetry_space_group_name_H-M   'P 1'
_cell_length_a   6.64260100
_cell_length_b   9.56500206
_cell_length_c   10.66950240
_cell_angle_alpha   96.59671124
_cell_angle_beta   92.49590328
_cell_angle_gamma   92.45094564
_symmetry_Int_Tables_number   1
_chemical_formula_structural   Li3Mo2P5O18
_chemical_formula_sum   'Li6 Mo4 P10 O36'
_cell_volume   671.99604392
_cell_formula_units_Z   2
loop_
 _symmetry_equiv_pos_site_id
 _symmetry_equiv_pos_as_xyz
  1  'x, y, z'
loop_
 _atom_site_type_symbol
 _atom_site_label
 _atom_site_symmetry_multiplicity
 _atom_site_fract_x
 _atom_site_fract_y
 _atom_site_fract_z
 _atom_site_occupancy
  Li  Li0  1  0.98008800  0.06777100  0.86334100  1
  Li  Li1  1  0.12671900  0.19475600  0.66761900  1
  Li  Li2  1  0.54631400  0.24890400  0.59307100  1
  Li  Li3  1  0.45368600  0.75109600  0.40692900  1
  Li  Li4  1  0.87328100  0.80524400  0.33238100  1
  Li  Li5  1  0.01991200  0.93222900  0.13665900  1
  Mo  Mo0  1  0.67014800  0.23170000  0.04729900  1
  Mo  Mo1  1  0.22892900  0.35585400  0.40709800  1
  Mo  Mo2  1  0.77107100  0.64414600  0.59290200  1
  Mo  Mo3  1  0.32985200  0.76830000  0.95270100  1
  P  P0  1  0.48414800  0.03798700  0.79328000  1
  P  P1  1  0.22349600  0.01584600  0.39946600  1
  P  P2  1  0.16548100  0.27892900  0.09764800  1
  P  P3  1  0.82765000  0.41659200  0.82146300  1
  P  P4  1  0.72415300  0.40834500  0.35576800  1
  P  P5  1  0.27584700  0.59165500  0.64423200  1
  P  P6  1  0.17235000  0.58340800  0.17853700  1
  P  P7  1  0.83451900  0.72107100  0.90235200  1
  P  P8  1  0.77650400  0.98415400  0.60053400  1
  P  P9  1  0.51585200  0.96201300  0.20672000  1
  O  O0  1  0.96311000  0.01669900  0.68768800  1
  O  O1  1  0.66045600  0.08051300  0.89692000  1
  O  O2  1  0.41171900  0.05727700  0.31218700  1
  O  O3  1  0.71402000  0.10168700  0.52879100  1
  O  O4  1  0.66946900  0.06302800  0.15157200  1
  O  O5  1  0.39538600  0.16273900  0.74248100  1
  O  O6  1  0.21747800  0.16327700  0.48360200  1
  O  O7  1  0.98651000  0.18299200  0.03714900  1
  O  O8  1  0.99511700  0.31860300  0.80114200  1
  O  O9  1  0.19973100  0.25315800  0.23615200  1
  O  O10  1  0.35601100  0.25369200  0.02778700  1
  O  O11  1  0.67341100  0.36954600  0.91717200  1
  O  O12  1  0.92200700  0.35280900  0.40881900  1
  O  O13  1  0.53987500  0.34349100  0.41857300  1
  O  O14  1  0.69889000  0.37318300  0.21121000  1
  O  O15  1  0.26600300  0.42964100  0.59864400  1
  O  O16  1  0.72382000  0.45642900  0.69794500  1
  O  O17  1  0.08658100  0.43361100  0.09906400  1
  O  O18  1  0.91341900  0.56638900  0.90093600  1
  O  O19  1  0.27618000  0.54357100  0.30205500  1
  O  O20  1  0.73399700  0.57035900  0.40135600  1
  O  O21  1  0.30111000  0.62681700  0.78879000  1
  O  O22  1  0.46012500  0.65650900  0.58142700  1
  O  O23  1  0.07799300  0.64719100  0.59118100  1
  O  O24  1  0.32658900  0.63045400  0.08282800  1
  O  O25  1  0.64398900  0.74630800  0.97221300  1
  O  O26  1  0.80026900  0.74684200  0.76384800  1
  O  O27  1  0.00488300  0.68139700  0.19885800  1
  O  O28  1  0.01349000  0.81700800  0.96285100  1
  O  O29  1  0.78252200  0.83672300  0.51639800  1
  O  O30  1  0.60461400  0.83726100  0.25751900  1
  O  O31  1  0.33053100  0.93697200  0.84842800  1
  O  O32  1  0.28598000  0.89831300  0.47120900  1
  O  O33  1  0.58828100  0.94272300  0.68781300  1
  O  O34  1  0.33954400  0.91948700  0.10308000  1
  O  O35  1  0.03689000  0.98330100  0.31231200  1
loop_
_geom_bond_atom_site_label_1
_geom_bond_atom_site_label_2
_geom_bond_distance
_geom_bond_site_symmetry_2
Li0 O0 1.878895 1_555
Li0 O7 2.043257 1_556
Li0 O1 2.174739 1_555
Li1 O5 1.973710 1_555
Li1 O8 2.001575 1_455
Li1 O0 2.018246 1_455
Li1 O6 2.071649 1_555
Li1 O15 2.589702 1_555
Li2 O3 1.916514 1_555
Li2 O5 2.143832 1_555
Li2 O13 2.161034 1_555
Li2 O16 2.399388 1_555
Li2 O6 2.492239 1_555
Li2 O15 2.592386 1_555
Li3 O32 1.916514 1_555
Li3 O30 2.143832 1_555
Li3 O22 2.161034 1_555
Li3 O19 2.399388 1_555
Li3 O29 2.492239 1_555
Li3 O20 2.592386 1_555
Li4 O30 1.973710 1_555
Li4 O27 2.001575 1_655
Li4 O35 2.018246 1_655
Li4 O29 2.071649 1_555
Li4 O20 2.589702 1_555
Li5 O35 1.878895 1_555
Li5 O28 2.043257 1_554
Li5 O34 2.174739 1_555
Mo0 O11 2.021709 1_554
Mo0 O1 2.029686 1_554
Mo0 O4 2.062250 1_555
Mo0 O14 2.081190 1_555
Mo0 O10 2.109886 1_555
Mo0 O7 2.176445 1_555
Mo1 O9 1.967335 1_555
Mo1 O12 2.038635 1_455
Mo1 O13 2.073021 1_555
Mo1 O15 2.084555 1_555
Mo1 O6 2.098549 1_555
Mo1 O19 2.241265 1_555
Mo2 O26 1.967335 1_555
Mo2 O23 2.038635 1_655
Mo2 O22 2.073021 1_555
Mo2 O20 2.084555 1_555
Mo2 O29 2.098549 1_555
Mo2 O16 2.241265 1_555
Mo3 O24 2.021709 1_556
Mo3 O34 2.029686 1_556
Mo3 O31 2.062250 1_555
Mo3 O21 2.081190 1_555
Mo3 O25 2.109886 1_555
Mo3 O28 2.176445 1_555
O0 P8 1.515975 1_545
O1 P0 1.582061 1_555
O2 P9 1.568797 1_545
O2 P1 1.652654 1_555
O3 P8 1.493985 1_545
O4 P9 1.555512 1_545
O5 P0 1.498731 1_555
O6 P1 1.585288 1_555
O7 P2 1.541367 1_655
O8 P3 1.492124 1_555
O9 P2 1.534774 1_555
O10 P2 1.510827 1_555
O11 P3 1.565965 1_555
O12 P4 1.547210 1_555
O13 P4 1.560201 1_555
O14 P4 1.540650 1_555
O15 P5 1.567706 1_555
O16 P3 1.554466 1_555
O17 P2 1.589278 1_555
O17 P6 1.644838 1_555
O18 P7 1.589278 1_555
O18 P3 1.644838 1_555
O19 P6 1.554466 1_555
O20 P4 1.567706 1_555
O21 P5 1.540650 1_555
O22 P5 1.560201 1_555
O23 P5 1.547210 1_555
O24 P6 1.565965 1_555
O25 P7 1.510827 1_555
O26 P7 1.534774 1_555
O27 P6 1.492124 1_555
O28 P7 1.541367 1_455
O29 P8 1.585288 1_555
O30 P9 1.498731 1_555
O31 P0 1.555512 1_565
O32 P1 1.493985 1_565
O33 P0 1.568797 1_565
O33 P8 1.652654 1_555
O34 P9 1.582061 1_555
O35 P1 1.515975 1_565
