# generated using pymatgen
data_Hg7Cl2O3
_symmetry_space_group_name_H-M   'P 1'
_cell_length_a   6.54487876
_cell_length_b   11.93104701
_cell_length_c   14.10438313
_cell_angle_alpha   90.00000000
_cell_angle_beta   90.00000000
_cell_angle_gamma   90.00000000
_symmetry_Int_Tables_number   1
_chemical_formula_structural   Hg7Cl2O3
_chemical_formula_sum   'Hg28 Cl8 O12'
_cell_volume   1101.37257846
_cell_formula_units_Z   4
loop_
 _symmetry_equiv_pos_site_id
 _symmetry_equiv_pos_as_xyz
  1  'x, y, z'
loop_
 _atom_site_type_symbol
 _atom_site_label
 _atom_site_symmetry_multiplicity
 _atom_site_fract_x
 _atom_site_fract_y
 _atom_site_fract_z
 _atom_site_occupancy
  Hg  Hg0  1  0.47177007  0.11540721  0.58085526  1
  Hg  Hg1  1  0.47177007  0.38459279  0.41914474  1
  Hg  Hg2  1  0.52822993  0.61540721  0.91914474  1
  Hg  Hg3  1  0.52822993  0.88459279  0.08085526  1
  Hg  Hg4  1  0.52822993  0.88459279  0.41914474  1
  Hg  Hg5  1  0.52822993  0.61540721  0.58085526  1
  Hg  Hg6  1  0.47177007  0.38459279  0.08085526  1
  Hg  Hg7  1  0.47177007  0.11540721  0.91914474  1
  Hg  Hg8  1  0.68042390  0.28976928  0.63026632  1
  Hg  Hg9  1  0.68042390  0.21023072  0.36973368  1
  Hg  Hg10  1  0.31957610  0.78976928  0.86973368  1
  Hg  Hg11  1  0.31957610  0.71023072  0.13026632  1
  Hg  Hg12  1  0.31957610  0.71023072  0.36973368  1
  Hg  Hg13  1  0.31957610  0.78976928  0.63026632  1
  Hg  Hg14  1  0.68042390  0.21023072  0.13026632  1
  Hg  Hg15  1  0.68042390  0.28976928  0.86973368  1
  Hg  Hg16  1  0.13467792  0.04030879  0.75000000  1
  Hg  Hg17  1  0.13467792  0.45969121  0.25000000  1
  Hg  Hg18  1  0.86532208  0.54030879  0.75000000  1
  Hg  Hg19  1  0.86532208  0.95969121  0.25000000  1
  Hg  Hg20  1  0.15937385  0.24339854  0.25000000  1
  Hg  Hg21  1  0.15937385  0.25660146  0.75000000  1
  Hg  Hg22  1  0.84062615  0.74339854  0.25000000  1
  Hg  Hg23  1  0.84062615  0.75660146  0.75000000  1
  Hg  Hg24  1  0.00000000  -0.00000000  0.50000000  1
  Hg  Hg25  1  0.00000000  0.50000000  0.50000000  1
  Hg  Hg26  1  0.00000000  0.50000000  -0.00000000  1
  Hg  Hg27  1  0.00000000  0.00000000  -0.00000000  1
  Cl  Cl0  1  0.07560710  0.25000000  0.50000000  1
  Cl  Cl1  1  0.92439290  0.75000000  -0.00000000  1
  Cl  Cl2  1  0.92439290  0.75000000  0.50000000  1
  Cl  Cl3  1  0.07560710  0.25000000  -0.00000000  1
  Cl  Cl4  1  0.33580223  0.44572853  0.75000000  1
  Cl  Cl5  1  0.33580223  0.05427147  0.25000000  1
  Cl  Cl6  1  0.66419777  0.94572853  0.75000000  1
  Cl  Cl7  1  0.66419777  0.55427147  0.25000000  1
  O  O0  1  0.86092673  0.36432588  0.75000000  1
  O  O1  1  0.86092673  0.13567412  0.25000000  1
  O  O2  1  0.13907327  0.86432588  0.75000000  1
  O  O3  1  0.13907327  0.63567412  0.25000000  1
  O  O4  1  0.28477770  0.97044063  0.55425303  1
  O  O5  1  0.28477770  0.52955937  0.44574697  1
  O  O6  1  0.71522230  0.47044063  0.94574697  1
  O  O7  1  0.71522230  0.02955937  0.05425303  1
  O  O8  1  0.71522230  0.02955937  0.44574697  1
  O  O9  1  0.71522230  0.47044063  0.55425303  1
  O  O10  1  0.28477770  0.52955937  0.05425303  1
  O  O11  1  0.28477770  0.97044063  0.94574697  1
loop_
_geom_bond_atom_site_label_1
_geom_bond_atom_site_label_2
_geom_bond_distance
_geom_bond_site_symmetry_2
Hg0 O4 2.151766 1_545
Hg0 O8 2.686875 1_555
Hg1 O5 2.151766 1_555
Hg1 O9 2.686875 1_555
Hg2 O6 2.151766 1_555
Hg2 O10 2.686875 1_556
Hg3 O7 2.151766 1_565
Hg3 O11 2.686875 1_554
Hg4 O8 2.151766 1_565
Hg4 O4 2.686875 1_555
Hg5 O9 2.151766 1_555
Hg5 O5 2.686875 1_555
Hg6 O10 2.151766 1_555
Hg6 O6 2.686875 1_554
Hg7 O11 2.151766 1_545
Hg7 O7 2.686875 1_556
Hg8 O0 2.244739 1_555
Hg8 O9 2.418247 1_555
Hg9 O1 2.244739 1_555
Hg9 O8 2.418247 1_555
Hg10 O2 2.244739 1_555
Hg10 O11 2.418247 1_555
Hg11 O3 2.244739 1_555
Hg11 O10 2.418247 1_555
Hg12 O3 2.244739 1_555
Hg12 O5 2.418247 1_555
Hg13 O2 2.244739 1_555
Hg13 O4 2.418247 1_555
Hg14 O1 2.244739 1_555
Hg14 O7 2.418247 1_555
Hg15 O0 2.244739 1_555
Hg15 O6 2.418247 1_555
Hg16 O2 2.099857 1_545
Hg17 O3 2.099857 1_555
Hg18 O0 2.099857 1_555
Hg19 O1 2.099857 1_565
Hg20 O1 2.338223 1_455
Hg21 O0 2.338223 1_455
Hg22 O3 2.338223 1_655
Hg23 O2 2.338223 1_655
Hg24 O4 2.045434 1_545
Hg24 O8 2.045434 1_455
Hg25 O5 2.045434 1_555
Hg25 O9 2.045434 1_455
Hg26 O10 2.045434 1_555
Hg26 O6 2.045434 1_454
Hg27 O11 2.045434 1_544
Hg27 O7 2.045434 1_455
Cl0 Hg24 3.023530 1_555
Cl0 Hg25 3.023530 1_555
Cl1 Hg26 3.023530 1_655
Cl1 Hg27 3.023530 1_665
Cl2 Hg24 3.023530 1_665
Cl2 Hg25 3.023530 1_655
Cl3 Hg27 3.023530 1_555
Cl3 Hg26 3.023530 1_555
Cl4 Hg21 2.534770 1_555
Cl5 Hg20 2.534770 1_555
Cl6 Hg23 2.534770 1_555
Cl7 Hg22 2.534770 1_555
