# generated using pymatgen
data_Pr2Co3Ge5
_symmetry_space_group_name_H-M   'P 1'
_cell_length_a   8.27710068
_cell_length_b   8.27710068
_cell_length_c   8.27710068
_cell_angle_alpha   137.95028187
_cell_angle_beta   106.91937941
_cell_angle_gamma   88.07508900
_symmetry_Int_Tables_number   1
_chemical_formula_structural   Pr2Co3Ge5
_chemical_formula_sum   'Pr4 Co6 Ge10'
_cell_volume   348.31624502
_cell_formula_units_Z   2
loop_
 _symmetry_equiv_pos_site_id
 _symmetry_equiv_pos_as_xyz
  1  'x, y, z'
loop_
 _atom_site_type_symbol
 _atom_site_label
 _atom_site_symmetry_multiplicity
 _atom_site_fract_x
 _atom_site_fract_y
 _atom_site_fract_z
 _atom_site_occupancy
  Pr  Pr0  1  0.12849100  0.86665800  0.26183300  1
  Pr  Pr1  1  0.87150900  0.13334200  0.73816700  1
  Pr  Pr2  1  0.39517500  0.63334200  0.76183300  1
  Pr  Pr3  1  0.60482500  0.36665800  0.23816700  1
  Co  Co0  1  0.74466000  0.63564500  0.10901600  1
  Co  Co1  1  0.25534000  0.36435500  0.89098400  1
  Co  Co2  1  0.47337100  0.86435500  0.60901600  1
  Co  Co3  1  0.52662900  0.13564500  0.39098400  1
  Co  Co4  1  0.00000000  0.75000000  0.75000000  1
  Co  Co5  1  0.00000000  0.25000000  0.25000000  1
  Ge  Ge0  1  0.76410000  0.51410000  0.75000000  1
  Ge  Ge1  1  0.23590000  0.98590000  0.75000000  1
  Ge  Ge2  1  0.23590000  0.48590000  0.25000000  1
  Ge  Ge3  1  0.76410000  0.01410000  0.25000000  1
  Ge  Ge4  1  0.94274300  0.59861400  0.34412900  1
  Ge  Ge5  1  0.05725700  0.40138600  0.65587100  1
  Ge  Ge6  1  0.74551500  0.90138600  0.84412900  1
  Ge  Ge7  1  0.25448500  0.09861400  0.15587100  1
  Ge  Ge8  1  0.50000000  0.75000000  0.25000000  1
  Ge  Ge9  1  0.50000000  0.25000000  0.75000000  1
loop_
_geom_bond_atom_site_label_1
_geom_bond_atom_site_label_2
_geom_bond_distance
_geom_bond_site_symmetry_2
Co0 Ge4 2.358850 1_555
Co0 Ge3 2.386634 1_565
Co0 Ge0 2.386637 1_554
Co0 Ge8 2.442316 1_555
Co0 Ge9 2.442320 1_554
Co0 Pr0 3.134752 1_655
Co0 Pr1 3.231042 1_565
Co0 Pr1 3.231048 1_554
Co0 Pr2 3.422002 1_554
Co0 Pr3 3.444902 1_555
Co1 Ge5 2.358850 1_555
Co1 Ge1 2.386634 1_545
Co1 Ge2 2.386637 1_556
Co1 Ge9 2.442316 1_555
Co1 Ge8 2.442320 1_556
Co1 Pr1 3.134752 1_455
Co1 Pr0 3.231042 1_545
Co1 Pr0 3.231048 1_556
Co1 Pr3 3.422002 1_556
Co1 Pr2 3.444902 1_555
Co2 Ge6 2.358846 1_555
Co2 Ge2 2.386634 1_555
Co2 Ge1 2.386634 1_555
Co2 Ge8 2.442324 1_555
Co2 Ge9 2.442324 1_565
Co2 Pr2 3.134744 1_555
Co2 Pr3 3.231043 1_555
Co2 Pr3 3.231043 1_566
Co2 Pr0 3.422007 1_555
Co2 Pr1 3.444906 1_565
Co3 Ge7 2.358846 1_555
Co3 Ge0 2.386634 1_555
Co3 Ge3 2.386634 1_555
Co3 Ge9 2.442324 1_555
Co3 Ge8 2.442324 1_545
Co3 Pr3 3.134744 1_555
Co3 Pr2 3.231043 1_544
Co3 Pr2 3.231043 1_555
Co3 Pr1 3.422007 1_555
Co3 Pr0 3.444906 1_545
Co4 Ge5 2.437636 1_555
Co4 Ge4 2.437636 1_455
Co4 Ge6 2.437636 1_455
Co4 Ge7 2.437636 1_566
Co4 Pr2 3.373807 1_555
Co4 Pr0 3.373807 1_556
Co4 Pr1 3.373807 1_465
Co4 Pr3 3.373807 1_455
Co5 Ge5 2.437636 1_555
Co5 Ge4 2.437636 1_455
Co5 Ge6 2.437636 1_444
Co5 Ge7 2.437636 1_555
Co5 Pr0 3.373807 1_545
Co5 Pr2 3.373807 1_555
Co5 Pr1 3.373807 1_454
Co5 Pr3 3.373807 1_455
Ge0 Ge5 2.689621 1_655
Ge0 Ge6 2.689621 1_555
Ge0 Pr2 3.183774 1_555
Ge0 Pr1 3.183774 1_555
Ge0 Pr3 3.217781 1_555
Ge0 Pr0 3.217781 1_656
Ge1 Ge4 2.689621 1_455
Ge1 Ge7 2.689621 1_566
Ge1 Pr3 3.183774 1_566
Ge1 Pr0 3.183774 1_555
Ge1 Pr2 3.217781 1_555
Ge1 Pr1 3.217781 1_465
Ge2 Ge4 2.689621 1_455
Ge2 Ge7 2.689621 1_555
Ge2 Pr3 3.183774 1_555
Ge2 Pr0 3.183774 1_555
Ge2 Pr2 3.217781 1_555
Ge2 Pr1 3.217781 1_454
Ge3 Ge5 2.689621 1_655
Ge3 Ge6 2.689621 1_544
Ge3 Pr1 3.183774 1_555
Ge3 Pr2 3.183774 1_544
Ge3 Pr0 3.217781 1_645
Ge3 Pr3 3.217781 1_555
Ge4 Pr3 2.951368 1_555
Ge4 Pr1 3.174910 1_554
Ge4 Pr1 3.174910 1_565
Ge4 Pr0 3.291385 1_655
Ge5 Pr2 2.951368 1_555
Ge5 Pr0 3.174910 1_556
Ge5 Pr0 3.174910 1_545
Ge5 Pr1 3.291385 1_455
Ge6 Pr1 2.951368 1_565
Ge6 Pr3 3.174910 1_566
Ge6 Pr3 3.174910 1_555
Ge6 Pr2 3.291385 1_555
Ge7 Pr0 2.951368 1_545
Ge7 Pr2 3.174910 1_544
Ge7 Pr2 3.174910 1_555
Ge7 Pr3 3.291385 1_555
Ge8 Pr2 3.198917 1_554
Ge8 Pr3 3.198917 1_555
Ge8 Pr0 3.198917 1_555
Ge8 Pr1 3.198917 1_565
Ge9 Pr2 3.198917 1_555
Ge9 Pr0 3.198917 1_545
Ge9 Pr1 3.198917 1_555
Ge9 Pr3 3.198917 1_556
