# generated using pymatgen
data_RbFeF3
_symmetry_space_group_name_H-M   'P 1'
_cell_length_a   4.22069500
_cell_length_b   4.22069500
_cell_length_c   4.22069500
_cell_angle_alpha   90.00000000
_cell_angle_beta   90.00000000
_cell_angle_gamma   90.00000000
_symmetry_Int_Tables_number   1
_chemical_formula_structural   RbFeF3
_chemical_formula_sum   'Rb1 Fe1 F3'
_cell_volume   75.18858463
_cell_formula_units_Z   1
loop_
 _symmetry_equiv_pos_site_id
 _symmetry_equiv_pos_as_xyz
  1  'x, y, z'
loop_
 _atom_site_type_symbol
 _atom_site_label
 _atom_site_symmetry_multiplicity
 _atom_site_fract_x
 _atom_site_fract_y
 _atom_site_fract_z
 _atom_site_occupancy
  Rb  Rb0  1  0.00000000  0.00000000  0.00000000  1
  Fe  Fe0  1  0.50000000  0.50000000  0.50000000  1
  F  F0  1  0.00000000  0.50000000  0.50000000  1
  F  F1  1  0.50000000  0.00000000  0.50000000  1
  F  F2  1  0.50000000  0.50000000  0.00000000  1
loop_
_geom_bond_atom_site_label_1
_geom_bond_atom_site_label_2
_geom_bond_distance
_geom_bond_site_symmetry_2
F0 Fe0 2.110348 1_555
F0 Fe0 2.110348 1_455
F0 Rb0 2.984482 1_556
F0 Rb0 2.984482 1_565
F0 Rb0 2.984482 1_566
F0 Rb0 2.984482 1_555
F1 Fe0 2.110348 1_555
F1 Fe0 2.110348 1_545
F1 Rb0 2.984482 1_556
F1 Rb0 2.984482 1_656
F1 Rb0 2.984482 1_655
F1 Rb0 2.984482 1_555
F2 Fe0 2.110348 1_554
F2 Fe0 2.110348 1_555
F2 Rb0 2.984482 1_565
F2 Rb0 2.984482 1_655
F2 Rb0 2.984482 1_665
F2 Rb0 2.984482 1_555
