# generated using pymatgen
data_U2Zn17
_symmetry_space_group_name_H-M   'P 1'
_cell_length_a   6.71648386
_cell_length_b   6.71650938
_cell_length_c   6.71648166
_cell_angle_alpha   83.10362551
_cell_angle_beta   83.10391437
_cell_angle_gamma   83.10360459
_symmetry_Int_Tables_number   1
_chemical_formula_structural   U2Zn17
_chemical_formula_sum   'U2 Zn17'
_cell_volume   296.90024950
_cell_formula_units_Z   1
loop_
 _symmetry_equiv_pos_site_id
 _symmetry_equiv_pos_as_xyz
  1  'x, y, z'
loop_
 _atom_site_type_symbol
 _atom_site_label
 _atom_site_symmetry_multiplicity
 _atom_site_fract_x
 _atom_site_fract_y
 _atom_site_fract_z
 _atom_site_occupancy
  U  U0  1  0.66236022  0.66236022  0.66235822  1
  U  U1  1  0.33763978  0.33763978  0.33764178  1
  Zn  Zn0  1  0.35077467  0.35077467  0.84047098  1
  Zn  Zn1  1  0.35077467  0.84046998  0.35077467  1
  Zn  Zn2  1  0.10012441  0.10012441  0.10012441  1
  Zn  Zn3  1  0.89987559  0.89987559  0.89987559  1
  Zn  Zn4  1  -0.00000000  0.00000000  0.50000000  1
  Zn  Zn5  1  0.50000000  0.00000000  -0.00000000  1
  Zn  Zn6  1  -0.00000000  0.50000000  -0.00000000  1
  Zn  Zn7  1  0.70561546  0.00000000  0.29438354  1
  Zn  Zn8  1  0.29438454  0.70561546  0.00000000  1
  Zn  Zn9  1  -0.00000000  0.29438354  0.70561646  1
  Zn  Zn10  1  0.29438454  -0.00000000  0.70561646  1
  Zn  Zn11  1  0.70561546  0.29438454  -0.00000000  1
  Zn  Zn12  1  0.00000000  0.70561646  0.29438354  1
  Zn  Zn13  1  0.64922533  0.15953002  0.64922533  1
  Zn  Zn14  1  0.64922533  0.64922533  0.15952902  1
  Zn  Zn15  1  0.15953002  0.64922533  0.64922533  1
  Zn  Zn16  1  0.84046998  0.35077467  0.35077467  1
loop_
_geom_bond_atom_site_label_1
_geom_bond_atom_site_label_2
_geom_bond_distance
_geom_bond_site_symmetry_2
U0 Zn3 3.077034 1_555
U0 Zn7 3.158362 1_565
U0 Zn12 3.158365 1_655
U0 Zn10 3.158368 1_565
U0 Zn9 3.158372 1_655
U0 Zn11 3.158374 1_556
U0 Zn8 3.158378 1_556
U0 Zn1 3.168530 1_555
U0 Zn16 3.168546 1_555
U0 Zn0 3.168561 1_555
U0 Zn15 3.320607 1_655
U0 Zn14 3.320612 1_556
U0 Zn13 3.320619 1_565
U0 Zn6 3.394383 1_656
U0 Zn4 3.394389 1_665
U0 Zn5 3.394400 1_566
U0 Zn14 3.400927 1_555
U0 Zn15 3.400933 1_555
U0 Zn13 3.400946 1_555
U1 Zn2 3.077034 1_555
U1 Zn10 3.158362 1_555
U1 Zn9 3.158365 1_555
U1 Zn7 3.158368 1_555
U1 Zn12 3.158372 1_555
U1 Zn8 3.158374 1_555
U1 Zn11 3.158378 1_555
U1 Zn13 3.168530 1_555
U1 Zn15 3.168546 1_555
U1 Zn14 3.168561 1_555
U1 Zn16 3.320607 1_455
U1 Zn0 3.320612 1_554
U1 Zn1 3.320619 1_545
U1 Zn6 3.394383 1_555
U1 Zn4 3.394389 1_555
U1 Zn5 3.394400 1_555
U1 Zn0 3.400927 1_555
U1 Zn16 3.400933 1_555
U1 Zn1 3.400946 1_555
Zn0 Zn15 2.545111 1_555
Zn0 Zn13 2.545116 1_555
Zn0 Zn5 2.605348 1_556
Zn0 Zn6 2.605349 1_556
Zn0 Zn11 2.696393 1_556
Zn0 Zn8 2.696407 1_556
Zn0 Zn9 2.706205 1_555
Zn0 Zn10 2.706215 1_555
Zn0 Zn2 2.824925 1_556
Zn1 Zn15 2.545113 1_555
Zn1 Zn14 2.545116 1_555
Zn1 Zn5 2.605352 1_565
Zn1 Zn4 2.605352 1_565
Zn1 Zn7 2.696405 1_565
Zn1 Zn10 2.696410 1_565
Zn1 Zn12 2.706206 1_555
Zn1 Zn8 2.706206 1_555
Zn1 Zn2 2.824917 1_565
Zn2 Zn3 2.594235 1_444
Zn2 Zn4 2.712731 1_555
Zn2 Zn5 2.712731 1_555
Zn2 Zn6 2.712736 1_555
Zn2 Zn9 2.926171 1_554
Zn2 Zn7 2.926186 1_455
Zn2 Zn8 2.926192 1_545
Zn3 Zn4 2.712731 1_665
Zn3 Zn5 2.712731 1_566
Zn3 Zn6 2.712736 1_656
Zn3 Zn8 2.926180 1_656
Zn3 Zn7 2.926182 1_566
Zn3 Zn9 2.926184 1_665
Zn4 Zn7 2.544085 1_455
Zn4 Zn9 2.544091 1_555
Zn5 Zn7 2.544075 1_555
Zn5 Zn8 2.544093 1_545
Zn6 Zn9 2.544088 1_554
Zn6 Zn8 2.544090 1_555
Zn10 Zn5 2.544075 1_556
Zn10 Zn4 2.544085 1_555
Zn10 Zn9 2.622980 1_555
Zn10 Zn8 2.622980 1_546
Zn10 Zn13 2.696405 1_555
Zn10 Zn15 2.706217 1_545
Zn10 Zn2 2.926182 1_556
Zn10 Zn3 2.926186 1_445
Zn11 Zn6 2.544090 1_655
Zn11 Zn5 2.544093 1_555
Zn11 Zn7 2.622980 1_555
Zn11 Zn9 2.622983 1_654
Zn11 Zn14 2.696407 1_555
Zn11 Zn16 2.706203 1_555
Zn11 Zn13 2.706206 1_554
Zn11 Zn2 2.926180 1_655
Zn11 Zn3 2.926192 1_544
Zn12 Zn6 2.544088 1_555
Zn12 Zn4 2.544091 1_565
Zn12 Zn7 2.622980 1_465
Zn12 Zn8 2.622983 1_555
Zn12 Zn15 2.696402 1_555
Zn12 Zn16 2.696416 1_455
Zn12 Zn14 2.706205 1_455
Zn12 Zn3 2.926171 1_454
Zn12 Zn2 2.926184 1_565
Zn13 Zn16 2.545113 1_555
Zn13 Zn5 2.605352 1_556
Zn13 Zn4 2.605352 1_655
Zn13 Zn7 2.696410 1_555
Zn13 Zn9 2.706206 1_655
Zn13 Zn3 2.824917 1_545
Zn14 Zn16 2.545111 1_555
Zn14 Zn5 2.605348 1_565
Zn14 Zn6 2.605349 1_655
Zn14 Zn8 2.696393 1_555
Zn14 Zn7 2.706215 1_565
Zn14 Zn3 2.824925 1_554
Zn15 Zn4 2.605351 1_565
Zn15 Zn6 2.605352 1_556
Zn15 Zn9 2.696416 1_555
Zn15 Zn8 2.706203 1_556
Zn15 Zn3 2.824928 1_455
Zn16 Zn4 2.605351 1_655
Zn16 Zn6 2.605352 1_655
Zn16 Zn9 2.696402 1_655
Zn16 Zn7 2.706217 1_555
Zn16 Zn2 2.824928 1_655
