# generated using pymatgen
data_CsAlF4
_symmetry_space_group_name_H-M   'P 1'
_cell_length_a   9.43621492
_cell_length_b   9.43621492
_cell_length_c   3.70666684
_cell_angle_alpha   90.00000000
_cell_angle_beta   90.00000000
_cell_angle_gamma   119.99999790
_symmetry_Int_Tables_number   1
_chemical_formula_structural   CsAlF4
_chemical_formula_sum   'Cs3 Al3 F12'
_cell_volume   285.83133746
_cell_formula_units_Z   3
loop_
 _symmetry_equiv_pos_site_id
 _symmetry_equiv_pos_as_xyz
  1  'x, y, z'
loop_
 _atom_site_type_symbol
 _atom_site_label
 _atom_site_symmetry_multiplicity
 _atom_site_fract_x
 _atom_site_fract_y
 _atom_site_fract_z
 _atom_site_occupancy
  Cs  Cs0  1  -0.00000000  0.56978805  0.50000000  1
  Cs  Cs1  1  0.43021195  0.43021195  0.50000000  1
  Cs  Cs2  1  0.56978805  -0.00000000  0.50000000  1
  Al  Al0  1  0.21791699  0.00000000  -0.00000000  1
  Al  Al1  1  0.78208301  0.78208301  0.00000000  1
  Al  Al2  1  0.00000000  0.21791699  0.00000000  1
  F  F0  1  0.21010614  0.00000000  0.50000000  1
  F  F1  1  0.00000000  0.21010614  0.50000000  1
  F  F2  1  0.42302090  0.15808699  0.00000000  1
  F  F3  1  -0.00000000  0.84521099  -0.00000000  1
  F  F4  1  0.84521099  -0.00000000  -0.00000000  1
  F  F5  1  0.15808699  0.42302090  0.00000000  1
  F  F6  1  0.73506608  0.57697910  -0.00000000  1
  F  F7  1  0.84191301  0.26493392  0.00000000  1
  F  F8  1  0.78989386  0.78989386  0.50000000  1
  F  F9  1  0.57697910  0.73506608  0.00000000  1
  F  F10  1  0.26493392  0.84191301  0.00000000  1
  F  F11  1  0.15478901  0.15478901  -0.00000000  1
loop_
_geom_bond_atom_site_label_1
_geom_bond_atom_site_label_2
_geom_bond_distance
_geom_bond_site_symmetry_2
Cs0 F5 3.105498 1_555
Cs0 F5 3.105498 1_556
Cs0 F7 3.105498 1_456
Cs0 F7 3.105498 1_455
Cs0 F6 3.139897 1_455
Cs0 F6 3.139897 1_456
Cs0 F10 3.139897 1_556
Cs0 F10 3.139897 1_555
Cs0 F3 3.192082 1_555
Cs0 F3 3.192082 1_556
Cs1 F9 3.105498 1_555
Cs1 F6 3.105498 1_556
Cs1 F6 3.105498 1_555
Cs1 F9 3.105498 1_556
Cs1 F2 3.139897 1_556
Cs1 F2 3.139897 1_555
Cs1 F5 3.139897 1_555
Cs1 F5 3.139897 1_556
Cs1 F11 3.192082 1_556
Cs1 F11 3.192082 1_555
Cs2 F2 3.105498 1_556
Cs2 F2 3.105498 1_555
Cs2 F10 3.105498 1_546
Cs2 F10 3.105498 1_545
Cs2 F9 3.139897 1_546
Cs2 F9 3.139897 1_545
Cs2 F7 3.139897 1_555
Cs2 F7 3.139897 1_556
Cs2 F4 3.192082 1_555
Cs2 F4 3.192082 1_556
Al0 F10 1.756121 1_545
Al0 F2 1.756121 1_555
Al0 F11 1.832577 1_555
Al0 F3 1.832578 1_545
Al0 F0 1.854798 1_554
Al0 F0 1.854798 1_555
Al1 F6 1.756121 1_555
Al1 F9 1.756121 1_555
Al1 F3 1.832578 1_655
Al1 F4 1.832578 1_565
Al1 F8 1.854798 1_554
Al1 F8 1.854798 1_555
Al2 F7 1.756121 1_455
Al2 F5 1.756121 1_555
Al2 F11 1.832577 1_555
Al2 F4 1.832578 1_455
Al2 F1 1.854798 1_555
Al2 F1 1.854798 1_554
