# generated using pymatgen
data_K3Na2LiTeO6
_symmetry_space_group_name_H-M   'P 1'
_cell_length_a   7.64216596
_cell_length_b   7.64216596
_cell_length_c   6.88720157
_cell_angle_alpha   87.70050657
_cell_angle_beta   87.70050657
_cell_angle_gamma   104.03164419
_symmetry_Int_Tables_number   1
_chemical_formula_structural   K3Na2LiTeO6
_chemical_formula_sum   'K6 Na4 Li2 Te2 O12'
_cell_volume   389.39922467
_cell_formula_units_Z   2
loop_
 _symmetry_equiv_pos_site_id
 _symmetry_equiv_pos_as_xyz
  1  'x, y, z'
loop_
 _atom_site_type_symbol
 _atom_site_label
 _atom_site_symmetry_multiplicity
 _atom_site_fract_x
 _atom_site_fract_y
 _atom_site_fract_z
 _atom_site_occupancy
  K  K0  1  0.38255200  0.40115000  0.23957000  1
  K  K1  1  0.01409900  0.10790200  0.57379300  1
  K  K2  1  0.78271900  0.70307300  0.75427000  1
  K  K3  1  0.40115000  0.38255200  0.73957000  1
  K  K4  1  0.10790200  0.01409900  0.07379300  1
  K  K5  1  0.70307300  0.78271900  0.25427000  1
  Na  Na0  1  0.07371000  0.61001600  0.10184000  1
  Na  Na1  1  0.61001600  0.07371000  0.60184000  1
  Na  Na2  1  0.86049800  0.42912800  0.40445800  1
  Na  Na3  1  0.42912800  0.86049800  0.90445800  1
  Li  Li0  1  0.02966700  0.47386300  0.75082600  1
  Li  Li1  1  0.47386300  0.02966700  0.25082600  1
  Te  Te0  1  0.75711100  0.24316700  0.00003400  1
  Te  Te1  1  0.24316700  0.75711100  0.50003400  1
  O  O0  1  0.32200000  0.02754300  0.48577200  1
  O  O1  1  0.00706400  0.76611700  0.39994500  1
  O  O2  1  0.74507000  0.48017300  0.09736100  1
  O  O3  1  0.14255300  0.74411500  0.77352700  1
  O  O4  1  0.76611700  0.00706400  0.89994500  1
  O  O5  1  0.74411500  0.14255300  0.27352700  1
  O  O6  1  0.02754300  0.32200000  0.98577200  1
  O  O7  1  0.16383400  0.48783600  0.50384400  1
  O  O8  1  0.48783600  0.16383400  0.00384400  1
  O  O9  1  0.76629700  0.34554100  0.72696200  1
  O  O10  1  0.48017300  0.74507000  0.59736100  1
  O  O11  1  0.34554100  0.76629700  0.22696200  1
loop_
_geom_bond_atom_site_label_1
_geom_bond_atom_site_label_2
_geom_bond_distance
_geom_bond_site_symmetry_2
K0 O7 2.633454 1_555
K0 O8 2.722376 1_555
K0 O2 2.814731 1_555
K0 O11 2.870500 1_555
K0 O0 3.185777 1_555
K0 O6 3.232867 1_554
K1 O0 2.626313 1_555
K1 O4 2.835911 1_455
K1 O7 2.864318 1_555
K1 O1 2.906362 1_545
K1 O5 3.027732 1_455
K2 O4 2.596049 1_565
K2 O10 2.673797 1_555
K2 O3 2.700433 1_655
K2 O9 2.719107 1_555
K2 O2 2.820060 1_556
K2 O1 2.880284 1_655
K3 O8 2.633454 1_556
K3 O7 2.722376 1_555
K3 O10 2.814731 1_555
K3 O9 2.870500 1_555
K3 O6 3.185777 1_555
K3 O0 3.232867 1_555
K4 O6 2.626313 1_554
K4 O1 2.835911 1_545
K4 O8 2.864318 1_555
K4 O4 2.906362 1_454
K4 O3 3.027732 1_544
K5 O1 2.596049 1_655
K5 O2 2.673797 1_555
K5 O5 2.700433 1_565
K5 O11 2.719107 1_555
K5 O10 2.820060 1_555
K5 O4 2.880284 1_564
Na0 O6 2.322808 1_554
Na0 O11 2.346837 1_555
Na0 O3 2.428373 1_554
Na0 O2 2.468504 1_455
Na0 O1 2.510987 1_555
Na1 O0 2.322808 1_555
Na1 O9 2.346837 1_555
Na1 O5 2.428373 1_555
Na1 O10 2.468504 1_545
Na1 O4 2.510987 1_555
Na2 O9 2.322638 1_555
Na2 O2 2.377829 1_555
Na2 O5 2.383030 1_555
Na2 O7 2.385634 1_655
Na2 O1 2.545557 1_655
Na3 O11 2.322638 1_556
Na3 O10 2.377829 1_555
Na3 O3 2.383030 1_555
Na3 O8 2.385634 1_566
Na3 O4 2.545557 1_565
Li0 O7 1.936110 1_555
Li0 O6 1.950267 1_555
Li0 O9 2.030294 1_455
Li0 O3 2.051082 1_555
Li1 O8 1.936110 1_555
Li1 O0 1.950267 1_555
Li1 O11 2.030294 1_545
Li1 O5 2.051082 1_555
O0 Te1 2.004742 1_545
O1 Te1 1.972758 1_555
O2 Te0 1.977794 1_555
O3 Te1 1.995188 1_555
O4 Te0 1.972758 1_556
O5 Te0 1.995188 1_555
O6 Te0 2.004742 1_456
O7 Te1 1.998094 1_555
O8 Te0 1.998094 1_555
O9 Te0 1.999688 1_556
O10 Te1 1.977794 1_555
O11 Te1 1.999688 1_555
