# generated using pymatgen
data_Ba5Ta2Cl2O9
_symmetry_space_group_name_H-M   'P 1'
_cell_length_a   6.04537087
_cell_length_b   6.04537087
_cell_length_c   25.09961000
_cell_angle_alpha   90.00000000
_cell_angle_beta   90.00000000
_cell_angle_gamma   120.00000952
_symmetry_Int_Tables_number   1
_chemical_formula_structural   Ba5Ta2Cl2O9
_chemical_formula_sum   'Ba10 Ta4 Cl4 O18'
_cell_volume   794.40773013
_cell_formula_units_Z   2
loop_
 _symmetry_equiv_pos_site_id
 _symmetry_equiv_pos_as_xyz
  1  'x, y, z'
loop_
 _atom_site_type_symbol
 _atom_site_label
 _atom_site_symmetry_multiplicity
 _atom_site_fract_x
 _atom_site_fract_y
 _atom_site_fract_z
 _atom_site_occupancy
  Ba  Ba0  1  0.33333300  0.66666700  0.41828600  1
  Ba  Ba1  1  0.33333300  0.66666700  0.08171400  1
  Ba  Ba2  1  0.33333300  0.66666700  0.82786700  1
  Ba  Ba3  1  0.66666700  0.33333300  0.58171400  1
  Ba  Ba4  1  0.66666700  0.33333300  0.91828600  1
  Ba  Ba5  1  0.66666700  0.33333300  0.32786700  1
  Ba  Ba6  1  0.66666700  0.33333300  0.17213300  1
  Ba  Ba7  1  0.33333300  0.66666700  0.25000000  1
  Ba  Ba8  1  0.66666700  0.33333300  0.75000000  1
  Ba  Ba9  1  0.33333300  0.66666700  0.67213300  1
  Ta  Ta0  1  0.00000000  0.00000000  0.81041100  1
  Ta  Ta1  1  0.00000000  0.00000000  0.31041100  1
  Ta  Ta2  1  0.00000000  0.00000000  0.18958900  1
  Ta  Ta3  1  0.00000000  0.00000000  0.68958900  1
  Cl  Cl0  1  0.33333300  0.66666700  0.54671100  1
  Cl  Cl1  1  0.33333300  0.66666700  0.95328900  1
  Cl  Cl2  1  0.66666700  0.33333300  0.04671100  1
  Cl  Cl3  1  0.66666700  0.33333300  0.45328900  1
  O  O0  1  0.16192100  0.32384200  0.15503300  1
  O  O1  1  0.70433600  0.85216800  0.75000000  1
  O  O2  1  0.83807900  0.67615800  0.65503300  1
  O  O3  1  0.85216800  0.14783200  0.25000000  1
  O  O4  1  0.16192100  0.83807900  0.34496700  1
  O  O5  1  0.16192100  0.83807900  0.15503300  1
  O  O6  1  0.83807900  0.16192100  0.65503300  1
  O  O7  1  0.32384200  0.16192100  0.65503300  1
  O  O8  1  0.83807900  0.16192100  0.84496700  1
  O  O9  1  0.85216800  0.70433600  0.25000000  1
  O  O10  1  0.29566400  0.14783200  0.25000000  1
  O  O11  1  0.32384200  0.16192100  0.84496700  1
  O  O12  1  0.14783200  0.29566400  0.75000000  1
  O  O13  1  0.83807900  0.67615800  0.84496700  1
  O  O14  1  0.16192100  0.32384200  0.34496700  1
  O  O15  1  0.67615800  0.83807900  0.15503300  1
  O  O16  1  0.14783200  0.85216800  0.75000000  1
  O  O17  1  0.67615800  0.83807900  0.34496700  1
loop_
_geom_bond_atom_site_label_1
_geom_bond_atom_site_label_2
_geom_bond_distance
_geom_bond_site_symmetry_2
Ba0 O4 2.570615 1_555
Ba0 O17 2.570618 1_555
Ba0 O14 2.570618 1_555
Ba0 Cl0 3.223417 1_555
Ba0 Cl3 3.599168 1_455
Ba0 Cl3 3.599168 1_565
Ba0 Cl3 3.599179 1_555
Ba1 O5 2.570615 1_555
Ba1 O15 2.570618 1_555
Ba1 O0 2.570618 1_555
Ba1 Cl1 3.223417 1_554
Ba1 Cl2 3.599168 1_455
Ba1 Cl2 3.599168 1_565
Ba1 Cl2 3.599179 1_555
Ba2 O16 2.755461 1_555
Ba2 O12 2.755465 1_555
Ba2 O1 2.755465 1_555
Ba2 O11 3.053407 1_565
Ba2 O13 3.053407 1_455
Ba2 O8 3.053410 1_565
Ba2 O8 3.053410 1_455
Ba2 O13 3.053413 1_555
Ba2 O11 3.053413 1_555
Ba2 Cl1 3.148043 1_555
Ba3 O6 2.570615 1_555
Ba3 O2 2.570618 1_555
Ba3 O7 2.570618 1_555
Ba3 Cl3 3.223417 1_555
Ba3 Cl0 3.599168 1_545
Ba3 Cl0 3.599168 1_655
Ba3 Cl0 3.599179 1_555
Ba4 O8 2.570615 1_555
Ba4 O13 2.570618 1_555
Ba4 O11 2.570618 1_555
Ba4 Cl2 3.223417 1_556
Ba4 Cl1 3.599168 1_545
Ba4 Cl1 3.599168 1_655
Ba4 Cl1 3.599179 1_555
Ba5 O3 2.755461 1_555
Ba5 O10 2.755465 1_555
Ba5 O9 2.755465 1_555
Ba5 O14 3.053407 1_655
Ba5 O17 3.053407 1_545
Ba5 O4 3.053410 1_655
Ba5 O4 3.053410 1_545
Ba5 O17 3.053413 1_555
Ba5 O14 3.053413 1_555
Ba5 Cl3 3.148043 1_555
Ba6 O3 2.755461 1_555
Ba6 O9 2.755465 1_555
Ba6 O10 2.755465 1_555
Ba6 O0 3.053407 1_655
Ba6 O15 3.053407 1_545
Ba6 O5 3.053410 1_655
Ba6 O5 3.053410 1_545
Ba6 O15 3.053413 1_555
Ba6 O0 3.053413 1_555
Ba6 Cl2 3.148043 1_555
Ba7 O4 2.983815 1_555
Ba7 O5 2.983815 1_555
Ba7 O17 2.983818 1_555
Ba7 O14 2.983818 1_555
Ba7 O15 2.983818 1_555
Ba7 O0 2.983818 1_555
Ba7 O10 3.029109 1_565
Ba7 O9 3.029109 1_455
Ba7 O3 3.029112 1_565
Ba7 O3 3.029112 1_455
Ba7 O9 3.029115 1_555
Ba7 O10 3.029115 1_555
Ba8 O8 2.983815 1_555
Ba8 O6 2.983815 1_555
Ba8 O13 2.983818 1_555
Ba8 O11 2.983818 1_555
Ba8 O2 2.983818 1_555
Ba8 O7 2.983818 1_555
Ba8 O12 3.029109 1_655
Ba8 O1 3.029109 1_545
Ba8 O16 3.029112 1_655
Ba8 O16 3.029112 1_545
Ba8 O1 3.029115 1_555
Ba8 O12 3.029115 1_555
Ba9 O16 2.755461 1_555
Ba9 O12 2.755465 1_555
Ba9 O1 2.755465 1_555
Ba9 O7 3.053407 1_565
Ba9 O2 3.053407 1_455
Ba9 O6 3.053410 1_565
Ba9 O6 3.053410 1_455
Ba9 O2 3.053413 1_555
Ba9 O7 3.053413 1_555
Ba9 Cl0 3.148043 1_555
O0 Ta2 1.904431 1_555
O1 Ta3 2.166850 1_665
O1 Ta0 2.166850 1_665
O2 Ta3 1.904431 1_665
O3 Ta1 2.166850 1_655
O3 Ta2 2.166850 1_655
O4 Ta1 1.904431 1_565
O5 Ta2 1.904431 1_565
O6 Ta3 1.904431 1_655
O7 Ta3 1.904431 1_555
O8 Ta0 1.904431 1_655
O9 Ta1 2.166850 1_665
O9 Ta2 2.166850 1_665
O10 Ta1 2.166850 1_555
O10 Ta2 2.166850 1_555
O11 Ta0 1.904431 1_555
O12 Ta0 2.166850 1_555
O12 Ta3 2.166850 1_555
O13 Ta0 1.904431 1_665
O14 Ta1 1.904431 1_555
O15 Ta2 1.904431 1_665
O16 Ta3 2.166850 1_565
O16 Ta0 2.166850 1_565
O17 Ta1 1.904431 1_665
