# generated using pymatgen
data_HfZn2
_symmetry_space_group_name_H-M   'P 1'
_cell_length_a   5.14944400
_cell_length_b   5.14944484
_cell_length_c   5.14944415
_cell_angle_alpha   60.00000450
_cell_angle_beta   59.99999911
_cell_angle_gamma   60.00000098
_symmetry_Int_Tables_number   1
_chemical_formula_structural   HfZn2
_chemical_formula_sum   'Hf2 Zn4'
_cell_volume   96.55307721
_cell_formula_units_Z   2
loop_
 _symmetry_equiv_pos_site_id
 _symmetry_equiv_pos_as_xyz
  1  'x, y, z'
loop_
 _atom_site_type_symbol
 _atom_site_label
 _atom_site_symmetry_multiplicity
 _atom_site_fract_x
 _atom_site_fract_y
 _atom_site_fract_z
 _atom_site_occupancy
  Hf  Hf0  1  0.12500000  0.12500000  0.12500000  1
  Hf  Hf1  1  0.87500000  0.87500000  0.87500000  1
  Zn  Zn0  1  0.50000000  0.00000000  0.50000000  1
  Zn  Zn1  1  0.00000000  0.50000000  0.50000000  1
  Zn  Zn2  1  0.50000000  0.50000000  0.50000000  1
  Zn  Zn3  1  0.50000000  0.50000000  -0.00000000  1
loop_
_geom_bond_atom_site_label_1
_geom_bond_atom_site_label_2
_geom_bond_distance
_geom_bond_site_symmetry_2
Hf0 Zn0 3.019129 1_455
Hf0 Zn0 3.019129 1_555
Hf0 Zn0 3.019129 1_554
Hf0 Zn3 3.019129 1_455
Hf0 Zn2 3.019129 1_455
Hf0 Zn1 3.019129 1_555
Hf0 Zn1 3.019129 1_554
Hf0 Zn3 3.019129 1_555
Hf0 Zn2 3.019129 1_554
Hf0 Zn3 3.019130 1_545
Hf0 Zn2 3.019130 1_545
Hf0 Zn1 3.019130 1_545
Hf0 Hf1 3.153378 1_544
Hf0 Hf1 3.153378 1_444
Hf0 Hf1 3.153378 1_445
Hf0 Hf1 3.153378 1_454
Hf1 Zn0 3.019129 1_665
Hf1 Zn0 3.019129 1_565
Hf1 Zn0 3.019129 1_566
Hf1 Zn3 3.019129 1_656
Hf1 Zn2 3.019129 1_655
Hf1 Zn1 3.019129 1_655
Hf1 Zn1 3.019129 1_656
Hf1 Zn3 3.019129 1_556
Hf1 Zn2 3.019129 1_556
Hf1 Zn3 3.019130 1_566
Hf1 Zn2 3.019130 1_565
Hf1 Zn1 3.019130 1_665
Zn0 Zn1 2.574722 1_645
Zn0 Zn1 2.574722 1_555
Zn0 Zn2 2.574722 1_545
Zn0 Zn2 2.574722 1_555
Zn0 Zn3 2.574722 1_555
Zn0 Zn3 2.574722 1_546
Zn1 Zn2 2.574722 1_455
Zn1 Zn2 2.574722 1_555
Zn1 Zn3 2.574722 1_555
Zn1 Zn3 2.574722 1_456
Zn2 Zn3 2.574722 1_555
Zn2 Zn3 2.574722 1_556
