# generated using pymatgen
data_Pr2CBr
_symmetry_space_group_name_H-M   'P 1'
_cell_length_a   3.84572021
_cell_length_b   3.84571944
_cell_length_c   14.97003036
_cell_angle_alpha   90.00000000
_cell_angle_beta   90.00000000
_cell_angle_gamma   119.99999758
_symmetry_Int_Tables_number   1
_chemical_formula_structural   Pr2CBr
_chemical_formula_sum   'Pr4 C2 Br2'
_cell_volume   191.73818233
_cell_formula_units_Z   2
loop_
 _symmetry_equiv_pos_site_id
 _symmetry_equiv_pos_as_xyz
  1  'x, y, z'
loop_
 _atom_site_type_symbol
 _atom_site_label
 _atom_site_symmetry_multiplicity
 _atom_site_fract_x
 _atom_site_fract_y
 _atom_site_fract_z
 _atom_site_occupancy
  Pr  Pr0  1  0.33333300  0.66666700  0.09258652  1
  Pr  Pr1  1  0.66666700  0.33333300  0.59258307  1
  Pr  Pr2  1  0.66666700  0.33333300  0.90740500  1
  Pr  Pr3  1  0.33333300  0.66666700  0.40742433  1
  C  C0  1  -0.00000000  -0.00000000  0.00000755  1
  C  C1  1  -0.00000000  -0.00000000  0.49999315  1
  Br  Br0  1  0.66666700  0.33333300  0.24999494  1
  Br  Br1  1  0.33333300  0.66666700  0.75000543  1
loop_
_geom_bond_atom_site_label_1
_geom_bond_atom_site_label_2
_geom_bond_distance
_geom_bond_site_symmetry_2
C0 Pr0 2.617363 1_545
C0 Pr0 2.617366 1_555
C0 Pr0 2.617366 1_445
C0 Pr2 2.617550 1_454
C0 Pr2 2.617553 1_444
C0 Pr2 2.617553 1_554
C1 Pr3 2.617283 1_545
C1 Pr3 2.617285 1_555
C1 Pr3 2.617286 1_445
C1 Pr1 2.617450 1_455
C1 Pr1 2.617453 1_445
C1 Pr1 2.617453 1_555
Br0 Pr0 3.237670 1_545
Br0 Pr0 3.237670 1_655
Br0 Pr0 3.237674 1_555
Br0 Pr3 3.237898 1_545
Br0 Pr3 3.237899 1_655
Br0 Pr3 3.237903 1_555
Br1 Pr2 3.237573 1_565
Br1 Pr2 3.237574 1_455
Br1 Pr2 3.237578 1_555
Br1 Pr1 3.237822 1_565
Br1 Pr1 3.237822 1_455
Br1 Pr1 3.237826 1_555
