# generated using pymatgen
data_SrP2(XeF6)3
_symmetry_space_group_name_H-M   'P 1'
_cell_length_a   8.78796768
_cell_length_b   8.78796768
_cell_length_c   11.18358266
_cell_angle_alpha   83.72253934
_cell_angle_beta   83.72253934
_cell_angle_gamma   88.45671863
_symmetry_Int_Tables_number   1
_chemical_formula_structural   SrP2(XeF6)3
_chemical_formula_sum   'Sr2 P4 Xe6 F36'
_cell_volume   853.26565276
_cell_formula_units_Z   2
loop_
 _symmetry_equiv_pos_site_id
 _symmetry_equiv_pos_as_xyz
  1  'x, y, z'
loop_
 _atom_site_type_symbol
 _atom_site_label
 _atom_site_symmetry_multiplicity
 _atom_site_fract_x
 _atom_site_fract_y
 _atom_site_fract_z
 _atom_site_occupancy
  Sr  Sr0  1  0.71536000  0.71536000  0.77408000  1
  Sr  Sr1  1  0.28464000  0.28464000  0.22592000  1
  P  P0  1  0.20043500  0.20043500  0.90660800  1
  P  P1  1  0.79956500  0.79956500  0.09339200  1
  P  P2  1  0.00000000  0.50000000  0.50000000  1
  P  P3  1  0.50000000  0.00000000  0.50000000  1
  Xe  Xe0  1  0.79277100  0.31846900  0.16546700  1
  Xe  Xe1  1  0.68153100  0.20722900  0.83453300  1
  Xe  Xe2  1  0.20722900  0.68153100  0.83453300  1
  Xe  Xe3  1  0.00000000  0.00000000  0.50000000  1
  Xe  Xe4  1  0.50000000  0.50000000  0.50000000  1
  Xe  Xe5  1  0.31846900  0.79277100  0.16546700  1
  F  F0  1  0.37058900  0.99162100  0.61523000  1
  F  F1  1  0.89718500  0.89718500  0.17159000  1
  F  F2  1  0.33496000  0.06887100  0.90954000  1
  F  F3  1  0.60184700  0.86202000  0.57235000  1
  F  F4  1  0.10281500  0.10281500  0.82841000  1
  F  F5  1  0.40924900  0.87015300  0.44279600  1
  F  F6  1  0.70944500  0.70944500  0.21429400  1
  F  F7  1  0.69741500  0.69741500  0.00888600  1
  F  F8  1  0.01591600  0.36355000  0.18963000  1
  F  F9  1  0.11703600  0.11703600  0.03500100  1
  F  F10  1  0.63645000  0.98408400  0.81037000  1
  F  F11  1  0.99162100  0.37058900  0.61523000  1
  F  F12  1  0.56715900  0.27831300  0.13652300  1
  F  F13  1  0.66504000  0.93112900  0.09046000  1
  F  F14  1  0.27831300  0.56715900  0.13652300  1
  F  F15  1  0.30258500  0.30258500  0.99111400  1
  F  F16  1  0.98408400  0.63645000  0.81037000  1
  F  F17  1  0.29055500  0.29055500  0.78570600  1
  F  F18  1  0.43284100  0.72168700  0.86347700  1
  F  F19  1  0.59075100  0.12984700  0.55720400  1
  F  F20  1  0.72168700  0.43284100  0.86347700  1
  F  F21  1  0.91293500  0.91293500  0.67300600  1
  F  F22  1  0.87015300  0.40924900  0.44279600  1
  F  F23  1  0.54060000  0.54060000  0.67359400  1
  F  F24  1  0.88296400  0.88296400  0.96499900  1
  F  F25  1  0.06887100  0.33496000  0.90954000  1
  F  F26  1  0.13798000  0.39815300  0.42765000  1
  F  F27  1  0.39815300  0.13798000  0.42765000  1
  F  F28  1  0.08706500  0.08706500  0.32699400  1
  F  F29  1  0.86202000  0.60184700  0.57235000  1
  F  F30  1  0.45940000  0.45940000  0.32640600  1
  F  F31  1  0.62941100  0.00837900  0.38477000  1
  F  F32  1  0.12984700  0.59075100  0.55720400  1
  F  F33  1  0.00837900  0.62941100  0.38477000  1
  F  F34  1  0.36355000  0.01591600  0.18963000  1
  F  F35  1  0.93112900  0.66504000  0.09046000  1
loop_
_geom_bond_atom_site_label_1
_geom_bond_atom_site_label_2
_geom_bond_distance
_geom_bond_site_symmetry_2
F0 P3 1.619490 1_565
F1 P1 1.613849 1_555
F2 P0 1.631561 1_555
F3 P3 1.676734 1_565
F3 Sr0 2.744645 1_555
F4 P0 1.613849 1_555
F5 P3 1.633289 1_565
F6 P1 1.627295 1_555
F7 P1 1.708609 1_555
F7 Sr0 2.601093 1_554
F8 Xe0 2.063154 1_455
F8 Sr1 2.506452 1_555
F9 P0 1.644612 1_554
F10 Xe1 2.063154 1_565
F10 Sr0 2.506452 1_555
F11 P2 1.619490 1_655
F12 Xe0 2.088854 1_555
F12 Sr1 2.574622 1_555
F13 P1 1.631561 1_555
F14 Xe5 2.088854 1_555
F14 Sr1 2.574622 1_555
F15 P0 1.708609 1_555
F15 Sr1 2.601093 1_556
F16 Xe2 2.063154 1_655
F16 Sr0 2.506452 1_555
F17 P0 1.627295 1_555
F18 Xe2 2.088854 1_555
F18 Sr0 2.574622 1_555
F19 P3 1.633289 1_555
F20 Xe1 2.088854 1_555
F20 Sr0 2.574622 1_555
F21 Xe3 2.073268 1_665
F21 Sr0 2.571200 1_555
F22 P2 1.633289 1_655
F23 Xe4 2.081696 1_555
F23 Sr0 2.619560 1_555
F24 P1 1.644612 1_556
F25 P0 1.631561 1_555
F26 P2 1.676734 1_555
F26 Sr1 2.744645 1_555
F27 P3 1.676734 1_555
F27 Sr1 2.744645 1_555
F28 Xe3 2.073268 1_555
F28 Sr1 2.571200 1_555
F29 P2 1.676734 1_655
F29 Sr0 2.744645 1_555
F30 Xe4 2.081696 1_555
F30 Sr1 2.619560 1_555
F31 P3 1.619490 1_555
F32 P2 1.633289 1_555
F33 P2 1.619490 1_555
F34 Xe5 2.063154 1_545
F34 Sr1 2.506452 1_555
F35 P1 1.631561 1_555
