# generated using pymatgen
data_K5In3(SiO3)7
_symmetry_space_group_name_H-M   'P 1'
_cell_length_a   10.41993400
_cell_length_b   12.69873300
_cell_length_c   17.11805500
_cell_angle_alpha   90.00000000
_cell_angle_beta   90.00000000
_cell_angle_gamma   90.00000000
_symmetry_Int_Tables_number   1
_chemical_formula_structural   K5In3(SiO3)7
_chemical_formula_sum   'K20 In12 Si28 O84'
_cell_volume   2265.06034849
_cell_formula_units_Z   4
loop_
 _symmetry_equiv_pos_site_id
 _symmetry_equiv_pos_as_xyz
  1  'x, y, z'
loop_
 _atom_site_type_symbol
 _atom_site_label
 _atom_site_symmetry_multiplicity
 _atom_site_fract_x
 _atom_site_fract_y
 _atom_site_fract_z
 _atom_site_occupancy
  K  K0  1  0.40774900  0.56807400  0.89584700  1
  K  K1  1  0.04071000  0.38610300  0.34574800  1
  K  K2  1  0.26306800  0.82412000  0.55303100  1
  K  K3  1  0.88736400  0.90617400  0.86534000  1
  K  K4  1  0.90774900  0.93192600  0.39584700  1
  K  K5  1  0.90774900  0.43192600  0.10415300  1
  K  K6  1  0.43003400  0.76188100  0.15914000  1
  K  K7  1  0.93003400  0.23811900  0.84086000  1
  K  K8  1  0.38736400  0.09382600  0.13466000  1
  K  K9  1  0.38736400  0.59382600  0.36534000  1
  K  K10  1  0.40774900  0.06807400  0.60415300  1
  K  K11  1  0.93003400  0.73811900  0.65914000  1
  K  K12  1  0.54071000  0.11389700  0.84574800  1
  K  K13  1  0.76306800  0.17588000  0.44696900  1
  K  K14  1  0.76306800  0.67588000  0.05303100  1
  K  K15  1  0.43003400  0.26188100  0.34086000  1
  K  K16  1  0.54071000  0.61389700  0.65425200  1
  K  K17  1  0.88736400  0.40617400  0.63466000  1
  K  K18  1  0.04071000  0.88610300  0.15425200  1
  K  K19  1  0.26306800  0.32412000  0.94696900  1
  In  In0  1  0.77602900  0.56752300  0.85987700  1
  In  In1  1  0.79262600  0.14115800  0.04895900  1
  In  In2  1  0.28982700  0.31208700  0.73241700  1
  In  In3  1  0.77602900  0.06752300  0.64012300  1
  In  In4  1  0.78982700  0.68791300  0.26758300  1
  In  In5  1  0.28982700  0.81208700  0.76758300  1
  In  In6  1  0.29262600  0.35884200  0.54895900  1
  In  In7  1  0.79262600  0.64115800  0.45104100  1
  In  In8  1  0.29262600  0.85884200  0.95104100  1
  In  In9  1  0.27602900  0.43247700  0.14012300  1
  In  In10  1  0.27602900  0.93247700  0.35987700  1
  In  In11  1  0.78982700  0.18791300  0.23241700  1
  Si  Si0  1  0.56588900  0.32594500  0.10680600  1
  Si  Si1  1  0.06588900  0.17405500  0.60680600  1
  Si  Si2  1  0.70258700  0.35969800  0.95783100  1
  Si  Si3  1  0.71689900  0.42820600  0.33626600  1
  Si  Si4  1  0.08804200  0.11501300  0.29292600  1
  Si  Si5  1  0.08502200  0.05285400  0.99377900  1
  Si  Si6  1  0.58804200  0.38498700  0.79292600  1
  Si  Si7  1  0.06194200  0.98035600  0.70394100  1
  Si  Si8  1  0.58502200  0.94714600  0.00622100  1
  Si  Si9  1  0.08211500  0.21400100  0.13096500  1
  Si  Si10  1  0.71689900  0.92820600  0.16373400  1
  Si  Si11  1  0.58211500  0.28599900  0.63096500  1
  Si  Si12  1  0.56588900  0.82594500  0.39319400  1
  Si  Si13  1  0.58804200  0.88498700  0.70707400  1
  Si  Si14  1  0.06194200  0.48035600  0.79605900  1
  Si  Si15  1  0.20258700  0.64030200  0.04216900  1
  Si  Si16  1  0.08804200  0.61501300  0.20707400  1
  Si  Si17  1  0.21689900  0.57179400  0.66373400  1
  Si  Si18  1  0.58502200  0.44714600  0.49377900  1
  Si  Si19  1  0.08502200  0.55285400  0.50622100  1
  Si  Si20  1  0.70258700  0.85969800  0.54216900  1
  Si  Si21  1  0.08211500  0.71400100  0.36903500  1
  Si  Si22  1  0.06588900  0.67405500  0.89319400  1
  Si  Si23  1  0.56194200  0.01964400  0.29605900  1
  Si  Si24  1  0.21689900  0.07179400  0.83626600  1
  Si  Si25  1  0.20258700  0.14030200  0.45783100  1
  Si  Si26  1  0.58211500  0.78599900  0.86903500  1
  Si  Si27  1  0.56194200  0.51964400  0.20394100  1
  O  O0  1  0.79809600  0.83685100  0.20672300  1
  O  O1  1  0.66780000  0.38396900  0.42349300  1
  O  O2  1  0.42583300  0.77726200  0.86314100  1
  O  O3  1  0.06947900  0.16291100  0.50983700  1
  O  O4  1  0.79809600  0.33685100  0.29327700  1
  O  O5  1  0.62610200  0.88862900  0.92281900  1
  O  O6  1  0.24724900  0.01763900  0.46467900  1
  O  O7  1  0.24724900  0.51763900  0.03532100  1
  O  O8  1  0.92583300  0.72273800  0.36314100  1
  O  O9  1  0.63717900  0.13131200  0.30265900  1
  O  O10  1  0.16465200  0.67260000  0.13329300  1
  O  O11  1  0.16465200  0.17260000  0.36670700  1
  O  O12  1  0.29809600  0.16314900  0.79327700  1
  O  O13  1  0.43275800  0.43445000  0.47648600  1
  O  O14  1  0.29809600  0.66314900  0.70672300  1
  O  O15  1  0.40898600  0.03822200  0.30579700  1
  O  O16  1  0.12610200  0.11137100  0.07718100  1
  O  O17  1  0.13052000  0.49200400  0.21672500  1
  O  O18  1  0.14071800  0.68848500  0.28114100  1
  O  O19  1  0.13717900  0.36868800  0.80265900  1
  O  O20  1  0.62628600  0.43919600  0.13860400  1
  O  O21  1  0.74724900  0.98236100  0.53532100  1
  O  O22  1  0.12904500  0.93106000  0.00166100  1
  O  O23  1  0.80161900  0.53574000  0.34760100  1
  O  O24  1  0.62610200  0.38862900  0.57718100  1
  O  O25  1  0.30161900  0.46426000  0.65239900  1
  O  O26  1  0.93275800  0.56555000  0.52351400  1
  O  O27  1  0.62628600  0.93919600  0.36139600  1
  O  O28  1  0.12904500  0.43106000  0.49833900  1
  O  O29  1  0.56947900  0.83708900  0.49016300  1
  O  O30  1  0.15831400  0.77162500  0.86611000  1
  O  O31  1  0.64071800  0.81151500  0.78114100  1
  O  O32  1  0.43499600  0.87255900  0.69165600  1
  O  O33  1  0.64071800  0.31151500  0.71885900  1
  O  O34  1  0.63052000  0.50799600  0.78327500  1
  O  O35  1  0.66780000  0.88396900  0.07650700  1
  O  O36  1  0.93499600  0.12744100  0.30834400  1
  O  O37  1  0.16780000  0.61603100  0.57650700  1
  O  O38  1  0.12610200  0.61137100  0.42281900  1
  O  O39  1  0.30161900  0.96426000  0.84760100  1
  O  O40  1  0.13717900  0.86868800  0.69734100  1
  O  O41  1  0.63717900  0.63131200  0.19734100  1
  O  O42  1  0.92583300  0.22273800  0.13685900  1
  O  O43  1  0.62904500  0.06894000  0.99833900  1
  O  O44  1  0.16780000  0.11603100  0.92349300  1
  O  O45  1  0.93499600  0.62744100  0.19165600  1
  O  O46  1  0.91861500  0.68942100  0.86379900  1
  O  O47  1  0.43499600  0.37255900  0.80834400  1
  O  O48  1  0.64379300  0.68050500  0.90531800  1
  O  O49  1  0.56947900  0.33708900  0.00983700  1
  O  O50  1  0.65831400  0.72837500  0.36611000  1
  O  O51  1  0.41861500  0.81057900  0.36379900  1
  O  O52  1  0.14379300  0.81949500  0.40531800  1
  O  O53  1  0.91861500  0.18942100  0.63620100  1
  O  O54  1  0.43275800  0.93445000  0.02351400  1
  O  O55  1  0.81689500  0.78123700  0.51608300  1
  O  O56  1  0.31689500  0.71876300  0.01608300  1
  O  O57  1  0.81689500  0.28123700  0.98391700  1
  O  O58  1  0.14071800  0.18848500  0.21885900  1
  O  O59  1  0.90898600  0.96177800  0.69420300  1
  O  O60  1  0.74724900  0.48236100  0.96467900  1
  O  O61  1  0.58097100  0.45979300  0.29047500  1
  O  O62  1  0.66465200  0.32740000  0.86670700  1
  O  O63  1  0.65831400  0.22837500  0.13389000  1
  O  O64  1  0.15831400  0.27162500  0.63389000  1
  O  O65  1  0.08097100  0.54020700  0.70952500  1
  O  O66  1  0.58097100  0.95979300  0.20952500  1
  O  O67  1  0.31689500  0.21876300  0.48391700  1
  O  O68  1  0.80161900  0.03574000  0.15239900  1
  O  O69  1  0.12628600  0.56080400  0.86139600  1
  O  O70  1  0.12628600  0.06080400  0.63860400  1
  O  O71  1  0.62904500  0.56894000  0.50166100  1
  O  O72  1  0.64379300  0.18050500  0.59468200  1
  O  O73  1  0.06947900  0.66291100  0.99016300  1
  O  O74  1  0.14379300  0.31949500  0.09468200  1
  O  O75  1  0.42583300  0.27726200  0.63685900  1
  O  O76  1  0.13052000  0.99200400  0.28327500  1
  O  O77  1  0.08097100  0.04020700  0.79047500  1
  O  O78  1  0.63052000  0.00799600  0.71672500  1
  O  O79  1  0.40898600  0.53822200  0.19420300  1
  O  O80  1  0.93275800  0.06555000  0.97648600  1
  O  O81  1  0.41861500  0.31057900  0.13620100  1
  O  O82  1  0.66465200  0.82740000  0.63329300  1
  O  O83  1  0.90898600  0.46177800  0.80579700  1
loop_
_geom_bond_atom_site_label_1
_geom_bond_atom_site_label_2
_geom_bond_distance
_geom_bond_site_symmetry_2
K0 O2 2.721311 1_555
K0 O48 2.848535 1_555
K0 O47 2.913505 1_555
K0 O56 2.965493 1_556
K0 O7 2.984523 1_556
K0 O69 2.992955 1_555
K0 O34 3.111859 1_555
K1 O17 2.749959 1_555
K1 O4 2.754784 1_455
K1 O28 2.827721 1_555
K1 O11 3.024452 1_555
K1 O23 3.133433 1_455
K1 O38 3.273440 1_555
K2 O52 2.818103 1_555
K2 O37 2.851237 1_555
K2 O40 2.853668 1_555
K2 O6 2.890261 1_565
K2 O32 3.036255 1_555
K3 O46 2.771809 1_555
K3 O80 2.817746 1_565
K3 O5 2.903248 1_555
K3 O77 2.934129 1_665
K3 O59 3.021837 1_555
K3 O31 3.182360 1_555
K3 O30 3.300062 1_655
K4 O8 2.721311 1_555
K4 O52 2.848535 1_655
K4 O36 2.913505 1_565
K4 O55 2.965493 1_555
K4 O21 2.984523 1_555
K4 O27 2.992955 1_555
K4 O76 3.111859 1_655
K5 O42 2.721311 1_555
K5 O74 2.848535 1_655
K5 O45 2.913505 1_555
K5 O57 2.965493 1_554
K5 O60 2.984523 1_554
K5 O20 2.992955 1_555
K5 O17 3.111859 1_655
K6 O56 2.772457 1_555
K6 O41 2.799221 1_555
K6 O79 2.911187 1_555
K6 O10 3.021232 1_555
K6 O66 3.087682 1_555
K6 O54 3.192671 1_555
K6 O35 3.246924 1_555
K7 O57 2.772457 1_555
K7 O19 2.799221 1_655
K7 O83 2.911187 1_555
K7 O62 3.021232 1_555
K7 O77 3.087682 1_655
K7 O80 3.192671 1_555
K7 O44 3.246924 1_655
K8 O81 2.771809 1_555
K8 O54 2.817746 1_545
K8 O16 2.903248 1_555
K8 O66 2.934129 1_545
K8 O15 3.021837 1_555
K8 O58 3.182360 1_555
K8 O63 3.300062 1_555
K9 O51 2.771809 1_555
K9 O13 2.817746 1_555
K9 O38 2.903248 1_555
K9 O61 2.934129 1_555
K9 O79 3.021837 1_555
K9 O18 3.182360 1_555
K9 O50 3.300062 1_555
K10 O75 2.721311 1_555
K10 O72 2.848535 1_555
K10 O32 2.913505 1_545
K10 O67 2.965493 1_555
K10 O6 2.984523 1_555
K10 O70 2.992955 1_555
K10 O78 3.111859 1_555
K11 O55 2.772457 1_555
K11 O40 2.799221 1_655
K11 O59 2.911187 1_555
K11 O82 3.021232 1_555
K11 O65 3.087682 1_655
K11 O26 3.192671 1_555
K11 O37 3.246924 1_655
K12 O78 2.749959 1_555
K12 O12 2.754784 1_555
K12 O43 2.827721 1_555
K12 O62 3.024452 1_555
K12 O39 3.133433 1_545
K12 O5 3.273440 1_545
K13 O72 2.818103 1_555
K13 O1 2.851237 1_555
K13 O9 2.853668 1_555
K13 O21 2.890261 1_545
K13 O36 3.036255 1_555
K14 O48 2.818103 1_554
K14 O35 2.851237 1_555
K14 O41 2.853668 1_555
K14 O60 2.890261 1_554
K14 O45 3.036255 1_555
K15 O67 2.772457 1_555
K15 O9 2.799221 1_555
K15 O15 2.911187 1_555
K15 O11 3.021232 1_555
K15 O61 3.087682 1_555
K15 O13 3.192671 1_555
K15 O1 3.246924 1_555
K16 O34 2.749959 1_555
K16 O14 2.754784 1_555
K16 O71 2.827721 1_555
K16 O82 3.024452 1_555
K16 O25 3.133433 1_555
K16 O24 3.273440 1_555
K17 O53 2.771809 1_555
K17 O26 2.817746 1_555
K17 O24 2.903248 1_555
K17 O65 2.934129 1_655
K17 O83 3.021837 1_555
K17 O33 3.182360 1_555
K17 O64 3.300062 1_655
K18 O76 2.749959 1_555
K18 O0 2.754784 1_455
K18 O22 2.827721 1_555
K18 O10 3.024452 1_555
K18 O68 3.133433 1_465
K18 O16 3.273440 1_565
K19 O74 2.818103 1_556
K19 O44 2.851237 1_555
K19 O19 2.853668 1_555
K19 O7 2.890261 1_556
K19 O47 3.036255 1_555
In0 O60 2.116110 1_555
In0 O48 2.135906 1_555
In0 O83 2.139984 1_555
In0 O34 2.142359 1_555
In0 O46 2.146642 1_555
In1 O57 2.113720 1_554
In1 O43 2.120663 1_554
In1 O80 2.143130 1_554
In1 O68 2.221752 1_555
In1 O42 2.294306 1_555
In1 O63 2.301958 1_555
In2 O19 2.119516 1_555
In2 O47 2.137075 1_555
In2 O12 2.160992 1_555
In2 O75 2.209001 1_555
In2 O64 2.233041 1_555
In2 O25 2.371815 1_555
In3 O21 2.116110 1_545
In3 O72 2.135906 1_555
In3 O59 2.139984 1_545
In3 O78 2.142359 1_555
In3 O53 2.146642 1_555
In4 O41 2.119516 1_555
In4 O45 2.137075 1_555
In4 O0 2.160992 1_555
In4 O8 2.209001 1_555
In4 O50 2.233041 1_555
In4 O23 2.371815 1_555
In5 O40 2.119516 1_555
In5 O32 2.137075 1_555
In5 O14 2.160992 1_555
In5 O2 2.209001 1_555
In5 O30 2.233041 1_555
In5 O39 2.371815 1_555
In6 O67 2.113720 1_555
In6 O28 2.120663 1_555
In6 O13 2.143130 1_555
In6 O25 2.221752 1_555
In6 O75 2.294306 1_555
In6 O64 2.301958 1_555
In7 O55 2.113720 1_555
In7 O71 2.120663 1_555
In7 O26 2.143130 1_555
In7 O23 2.221752 1_555
In7 O8 2.294306 1_555
In7 O50 2.301958 1_555
In8 O56 2.113720 1_556
In8 O22 2.120663 1_556
In8 O54 2.143130 1_556
In8 O39 2.221752 1_555
In8 O2 2.294306 1_555
In8 O30 2.301958 1_555
In9 O7 2.116110 1_555
In9 O74 2.135906 1_555
In9 O79 2.139984 1_555
In9 O17 2.142359 1_555
In9 O81 2.146642 1_555
In10 O6 2.116110 1_565
In10 O52 2.135906 1_555
In10 O15 2.139984 1_565
In10 O76 2.142359 1_555
In10 O51 2.146642 1_555
In11 O9 2.119516 1_555
In11 O36 2.137075 1_555
In11 O4 2.160992 1_555
In11 O42 2.209001 1_555
In11 O63 2.233041 1_555
In11 O68 2.371815 1_555
O0 Si10 1.613436 1_555
O1 Si3 1.675359 1_555
O1 Si18 1.683806 1_555
O2 Si26 1.635339 1_555
O3 Si1 1.666362 1_555
O3 Si25 1.672921 1_555
O4 Si3 1.613436 1_555
O5 Si26 1.660193 1_555
O5 Si8 1.665438 1_556
O6 Si25 1.629919 1_555
O7 Si15 1.629919 1_555
O8 Si21 1.635339 1_655
O9 Si23 1.624256 1_555
O10 Si15 1.660616 1_555
O10 Si16 1.663474 1_555
O11 Si25 1.660616 1_555
O11 Si4 1.663474 1_555
O12 Si24 1.613436 1_555
O13 Si18 1.621993 1_555
O14 Si17 1.613436 1_555
O15 Si23 1.619758 1_555
O16 Si9 1.660193 1_555
O16 Si5 1.665438 1_554
O17 Si16 1.631941 1_555
O18 Si21 1.655782 1_555
O18 Si16 1.667120 1_555
O19 Si14 1.624256 1_555
O20 Si27 1.656524 1_555
O20 Si0 1.661506 1_555
O21 Si20 1.629919 1_555
O22 Si5 1.618854 1_564
O23 Si3 1.637577 1_555
O24 Si11 1.660193 1_555
O24 Si18 1.665438 1_555
O25 Si17 1.637577 1_555
O26 Si19 1.621993 1_655
O27 Si23 1.656524 1_565
O27 Si12 1.661506 1_555
O28 Si19 1.618854 1_555
O29 Si12 1.666362 1_555
O29 Si20 1.672921 1_555
O30 Si22 1.636336 1_555
O31 Si26 1.655782 1_555
O31 Si13 1.667120 1_555
O32 Si13 1.624108 1_555
O33 Si11 1.655782 1_555
O33 Si6 1.667120 1_555
O34 Si6 1.631941 1_555
O35 Si10 1.675359 1_555
O35 Si8 1.683806 1_555
O36 Si4 1.624108 1_655
O37 Si17 1.675359 1_555
O37 Si19 1.683806 1_555
O38 Si21 1.660193 1_555
O38 Si19 1.665438 1_555
O39 Si24 1.637577 1_565
O40 Si7 1.624256 1_555
O41 Si27 1.624256 1_555
O42 Si9 1.635339 1_655
O43 Si8 1.618854 1_546
O44 Si24 1.675359 1_555
O44 Si5 1.683806 1_555
O45 Si16 1.624108 1_655
O46 Si22 1.626721 1_655
O47 Si6 1.624108 1_555
O48 Si26 1.610414 1_555
O49 Si0 1.666362 1_555
O49 Si2 1.672921 1_554
O50 Si12 1.636336 1_555
O51 Si12 1.626721 1_555
O52 Si21 1.610414 1_555
O53 Si1 1.626721 1_655
O54 Si8 1.621993 1_555
O55 Si20 1.615797 1_555
O56 Si15 1.615797 1_555
O57 Si2 1.615797 1_555
O58 Si9 1.655782 1_555
O58 Si4 1.667120 1_555
O59 Si7 1.619758 1_655
O60 Si2 1.629919 1_555
O61 Si3 1.667752 1_555
O61 Si27 1.676662 1_555
O62 Si2 1.660616 1_555
O62 Si6 1.663474 1_555
O63 Si0 1.636336 1_555
O64 Si1 1.636336 1_555
O65 Si17 1.667752 1_555
O65 Si14 1.676662 1_555
O66 Si10 1.667752 1_555
O66 Si23 1.676662 1_565
O67 Si25 1.615797 1_555
O68 Si10 1.637577 1_545
O69 Si14 1.656524 1_555
O69 Si22 1.661506 1_555
O70 Si7 1.656524 1_545
O70 Si1 1.661506 1_555
O71 Si18 1.618854 1_555
O72 Si11 1.610414 1_555
O73 Si22 1.666362 1_555
O73 Si15 1.672921 1_556
O74 Si9 1.610414 1_555
O75 Si11 1.635339 1_555
O76 Si4 1.631941 1_565
O77 Si24 1.667752 1_555
O77 Si7 1.676662 1_545
O78 Si13 1.631941 1_545
O79 Si27 1.619758 1_555
O80 Si5 1.621993 1_655
O81 Si0 1.626721 1_555
O82 Si20 1.660616 1_555
O82 Si13 1.663474 1_555
O83 Si14 1.619758 1_655
