# generated using pymatgen
data_As2W2O11
_symmetry_space_group_name_H-M   'P 1'
_cell_length_a   6.57607800
_cell_length_b   8.37263400
_cell_length_c   16.64248600
_cell_angle_alpha   90.00000000
_cell_angle_beta   90.00000000
_cell_angle_gamma   90.00000000
_symmetry_Int_Tables_number   1
_chemical_formula_structural   As2W2O11
_chemical_formula_sum   'As8 W8 O44'
_cell_volume   916.32020522
_cell_formula_units_Z   4
loop_
 _symmetry_equiv_pos_site_id
 _symmetry_equiv_pos_as_xyz
  1  'x, y, z'
loop_
 _atom_site_type_symbol
 _atom_site_label
 _atom_site_symmetry_multiplicity
 _atom_site_fract_x
 _atom_site_fract_y
 _atom_site_fract_z
 _atom_site_occupancy
  As  As0  1  0.75000000  0.91238700  0.91090800  1
  As  As1  1  0.25000000  0.08761300  0.08909200  1
  As  As2  1  0.25000000  0.41238700  0.58909200  1
  As  As3  1  0.75000000  0.58761300  0.41090800  1
  As  As4  1  0.75000000  0.98903200  0.24396500  1
  As  As5  1  0.25000000  0.01096800  0.75603500  1
  As  As6  1  0.25000000  0.48903200  0.25603500  1
  As  As7  1  0.75000000  0.51096800  0.74396500  1
  W  W0  1  0.75000000  0.26878700  0.56272200  1
  W  W1  1  0.25000000  0.73121300  0.43727800  1
  W  W2  1  0.25000000  0.76878700  0.93727800  1
  W  W3  1  0.75000000  0.23121300  0.06272200  1
  W  W4  1  0.75000000  0.91894300  0.69675900  1
  W  W5  1  0.25000000  0.08105700  0.30324100  1
  W  W6  1  0.25000000  0.41894300  0.80324100  1
  W  W7  1  0.75000000  0.58105700  0.19675900  1
  O  O0  1  0.54903400  0.71367900  0.42939900  1
  O  O1  1  0.04903400  0.28632100  0.57060100  1
  O  O2  1  0.45096600  0.21367900  0.07060100  1
  O  O3  1  0.95096600  0.78632100  0.92939900  1
  O  O4  1  0.45096600  0.28632100  0.57060100  1
  O  O5  1  0.95096600  0.71367900  0.42939900  1
  O  O6  1  0.54903400  0.78632100  0.92939900  1
  O  O7  1  0.04903400  0.21367900  0.07060100  1
  O  O8  1  0.54910700  0.07467900  0.29474500  1
  O  O9  1  0.04910700  0.92532100  0.70525500  1
  O  O10  1  0.45089300  0.57467900  0.20525500  1
  O  O11  1  0.95089300  0.42532100  0.79474500  1
  O  O12  1  0.45089300  0.92532100  0.70525500  1
  O  O13  1  0.95089300  0.07467900  0.29474500  1
  O  O14  1  0.75000000  0.47041100  0.64523100  1
  O  O15  1  0.04910700  0.57467900  0.20525500  1
  O  O16  1  0.75000000  0.49452700  0.32049100  1
  O  O17  1  0.25000000  0.50547300  0.67950900  1
  O  O18  1  0.25000000  0.99452700  0.17950900  1
  O  O19  1  0.75000000  0.00547300  0.82049100  1
  O  O20  1  0.75000000  0.78780300  0.26399500  1
  O  O21  1  0.25000000  0.21219700  0.73600500  1
  O  O22  1  0.25000000  0.28780300  0.23600500  1
  O  O23  1  0.75000000  0.71219700  0.76399500  1
  O  O24  1  0.75000000  0.68451600  0.10686900  1
  O  O25  1  0.25000000  0.31548400  0.89313100  1
  O  O26  1  0.25000000  0.18451600  0.39313100  1
  O  O27  1  0.75000000  0.81548400  0.60686900  1
  O  O28  1  0.75000000  0.36525700  0.15835600  1
  O  O29  1  0.25000000  0.63474300  0.84164400  1
  O  O30  1  0.25000000  0.86525700  0.34164400  1
  O  O31  1  0.75000000  0.13474300  0.65835600  1
  O  O32  1  0.75000000  0.11333800  0.49433200  1
  O  O33  1  0.25000000  0.88666200  0.50566800  1
  O  O34  1  0.25000000  0.61333800  0.00566800  1
  O  O35  1  0.75000000  0.38666200  0.99433200  1
  O  O36  1  0.75000000  0.44548600  0.48415200  1
  O  O37  1  0.25000000  0.55451400  0.51584800  1
  O  O38  1  0.25000000  0.94548600  0.01584800  1
  O  O39  1  0.75000000  0.05451400  0.98415200  1
  O  O40  1  0.75000000  0.02958900  0.14523100  1
  O  O41  1  0.25000000  0.97041100  0.85476900  1
  O  O42  1  0.25000000  0.52958900  0.35476900  1
  O  O43  1  0.54910700  0.42532100  0.79474500  1
loop_
_geom_bond_atom_site_label_1
_geom_bond_atom_site_label_2
_geom_bond_distance
_geom_bond_site_symmetry_2
As0 O19 1.694621 1_565
As0 O39 1.703501 1_565
As0 O6 1.719108 1_555
As0 O3 1.719108 1_555
As1 O18 1.694621 1_545
As1 O38 1.703501 1_545
As1 O7 1.719108 1_555
As1 O2 1.719108 1_555
As2 O17 1.694621 1_555
As2 O37 1.703501 1_555
As2 O1 1.719108 1_555
As2 O4 1.719108 1_555
As3 O16 1.694621 1_555
As3 O36 1.703501 1_555
As3 O0 1.719108 1_555
As3 O5 1.719108 1_555
As4 O40 1.677899 1_565
As4 O20 1.717478 1_555
As4 O8 1.724441 1_565
As4 O13 1.724441 1_565
As5 O41 1.677899 1_545
As5 O21 1.717478 1_555
As5 O12 1.724441 1_545
As5 O9 1.724441 1_545
As6 O42 1.677899 1_555
As6 O22 1.717478 1_555
As6 O15 1.724441 1_555
As6 O10 1.724441 1_555
As7 O14 1.677899 1_555
As7 O23 1.717478 1_555
As7 O11 1.724441 1_555
As7 O43 1.724441 1_555
O0 W1 1.976298 1_555
O1 W0 1.976298 1_455
O2 W3 1.976298 1_555
O3 W2 1.976298 1_655
O4 W0 1.976298 1_555
O5 W1 1.976298 1_655
O6 W2 1.976298 1_555
O7 W3 1.976298 1_455
O8 W5 1.972749 1_555
O9 W4 1.972749 1_455
O10 W7 1.972749 1_555
O11 W6 1.972749 1_655
O12 W4 1.972749 1_555
O13 W5 1.972749 1_655
O14 W0 2.176078 1_555
O15 W7 1.972749 1_455
O16 W7 2.182937 1_555
O17 W6 2.182937 1_555
O18 W5 2.182937 1_565
O19 W4 2.182937 1_545
O20 W7 2.061188 1_555
O21 W6 2.061188 1_555
O22 W5 2.061188 1_555
O23 W4 2.061188 1_555
O24 W7 1.728682 1_555
O25 W6 1.728682 1_555
O26 W5 1.728682 1_555
O27 W4 1.728682 1_555
O28 W7 1.916521 1_555
O28 W3 1.947488 1_555
O29 W6 1.916521 1_555
O29 W2 1.947488 1_555
O30 W5 1.916521 1_565
O30 W1 1.947488 1_555
O31 W4 1.916521 1_545
O31 W0 1.947488 1_555
O32 W0 1.728988 1_555
O33 W1 1.728988 1_555
O34 W2 1.728988 1_554
O35 W3 1.728988 1_556
O36 W0 1.974474 1_555
O37 W1 1.974474 1_555
O38 W2 1.974474 1_554
O39 W3 1.974474 1_556
O40 W3 2.176078 1_555
O41 W2 2.176078 1_555
O42 W1 2.176078 1_555
O43 W6 1.972749 1_555
