# generated using pymatgen
data_K2Zn2Si8O19
_symmetry_space_group_name_H-M   'P 1'
_cell_length_a   7.45424133
_cell_length_b   7.45424133
_cell_length_c   12.57837842
_cell_angle_alpha   73.87323661
_cell_angle_beta   73.87323661
_cell_angle_gamma   40.53634380
_symmetry_Int_Tables_number   1
_chemical_formula_structural   K2Zn2Si8O19
_chemical_formula_sum   'K2 Zn2 Si8 O19'
_cell_volume   433.88379275
_cell_formula_units_Z   1
loop_
 _symmetry_equiv_pos_site_id
 _symmetry_equiv_pos_as_xyz
  1  'x, y, z'
loop_
 _atom_site_type_symbol
 _atom_site_label
 _atom_site_symmetry_multiplicity
 _atom_site_fract_x
 _atom_site_fract_y
 _atom_site_fract_z
 _atom_site_occupancy
  K  K0  1  0.59077900  0.65530300  0.35130300  1
  K  K1  1  0.34469700  0.40922100  0.64869700  1
  Zn  Zn0  1  0.70326100  0.69581100  0.58869500  1
  Zn  Zn1  1  0.30418900  0.29673900  0.41130500  1
  Si  Si0  1  0.14200600  0.85330200  0.16734300  1
  Si  Si1  1  0.92294400  0.93106100  0.42462900  1
  Si  Si2  1  0.78072800  0.47110500  0.07327700  1
  Si  Si3  1  0.06893900  0.07705600  0.57537100  1
  Si  Si4  1  0.61260800  0.79536300  0.84051900  1
  Si  Si5  1  0.14669800  0.85799400  0.83265700  1
  Si  Si6  1  0.52889500  0.21927200  0.92672300  1
  Si  Si7  1  0.20463700  0.38739200  0.15948100  1
  O  O0  1  0.80326700  0.54642200  0.93957500  1
  O  O1  1  0.45357800  0.19673300  0.06042500  1
  O  O2  1  0.09543200  0.87783000  0.29910700  1
  O  O3  1  0.28874100  0.22206700  0.28107800  1
  O  O4  1  0.12217000  0.90456800  0.70089300  1
  O  O5  1  0.09417900  0.90582100  0.50000000  1
  O  O6  1  0.10924000  0.67605400  0.14544600  1
  O  O7  1  0.45698900  0.69867300  0.12594100  1
  O  O8  1  0.91930700  0.16130700  0.10061300  1
  O  O9  1  0.30132700  0.54301100  0.87405900  1
  O  O10  1  0.60274400  0.23130000  0.42842800  1
  O  O11  1  0.92956000  0.48822000  0.13656100  1
  O  O12  1  0.96490100  0.67256900  0.46648200  1
  O  O13  1  0.32394600  0.89076000  0.85455400  1
  O  O14  1  0.83869300  0.08069300  0.89938700  1
  O  O15  1  0.76870000  0.39725600  0.57157200  1
  O  O16  1  0.77793300  0.71125900  0.71892200  1
  O  O17  1  0.32743100  0.03509900  0.53351800  1
  O  O18  1  0.51178000  0.07044000  0.86343900  1
loop_
_geom_bond_atom_site_label_1
_geom_bond_atom_site_label_2
_geom_bond_distance
_geom_bond_site_symmetry_2
K0 O2 2.872038 1_555
K0 O3 2.876078 1_565
K0 O5 2.876696 1_555
K0 O15 2.887626 1_555
K0 O11 2.919474 1_555
K0 O10 2.975710 1_555
K0 O7 3.115432 1_555
K0 O17 3.127226 1_565
K1 O4 2.872038 1_555
K1 O16 2.876078 1_455
K1 O5 2.876696 1_555
K1 O10 2.887626 1_555
K1 O18 2.919474 1_555
K1 O15 2.975710 1_555
K1 O9 3.115432 1_555
K1 O12 3.127226 1_455
O0 Si2 1.622842 1_556
O0 Si4 1.645114 1_555
O1 Si6 1.622842 1_554
O1 Si7 1.645114 1_555
O2 Si0 1.628824 1_555
O2 Si1 1.657787 1_455
O3 Si7 1.600732 1_555
O3 Zn1 1.927435 1_555
O4 Si5 1.628824 1_555
O4 Si3 1.657787 1_565
O5 Si3 1.664807 1_565
O5 Si1 1.664807 1_455
O6 Si0 1.615941 1_555
O6 Si7 1.643113 1_555
O7 Si0 1.628884 1_555
O7 Si2 1.629090 1_555
O8 Si0 1.625386 1_645
O8 Si2 1.627414 1_555
O9 Si5 1.628884 1_555
O9 Si6 1.629090 1_555
O10 Si1 1.607684 1_545
O10 Zn1 1.948079 1_555
O11 Si2 1.625698 1_555
O11 Si7 1.648646 1_655
O12 Si1 1.643076 1_555
O12 Zn1 2.015442 1_655
O12 Zn0 2.041010 1_555
O13 Si5 1.615941 1_555
O13 Si4 1.643113 1_555
O14 Si5 1.625386 1_645
O14 Si6 1.627414 1_555
O15 Si3 1.607684 1_655
O15 Zn0 1.948079 1_555
O16 Si4 1.600732 1_555
O16 Zn0 1.927435 1_555
O17 Si3 1.643076 1_555
O17 Zn0 2.015442 1_545
O17 Zn1 2.041010 1_555
O18 Si6 1.625698 1_555
O18 Si4 1.648646 1_545
