# generated using pymatgen
data_Sr2FeCuSO3
_symmetry_space_group_name_H-M   'P 1'
_cell_length_a   3.95193000
_cell_length_b   3.95193000
_cell_length_c   15.75036400
_cell_angle_alpha   90.00000000
_cell_angle_beta   90.00000000
_cell_angle_gamma   90.00000000
_symmetry_Int_Tables_number   1
_chemical_formula_structural   Sr2FeCuSO3
_chemical_formula_sum   'Sr4 Fe2 Cu2 S2 O6'
_cell_volume   245.98525878
_cell_formula_units_Z   2
loop_
 _symmetry_equiv_pos_site_id
 _symmetry_equiv_pos_as_xyz
  1  'x, y, z'
loop_
 _atom_site_type_symbol
 _atom_site_label
 _atom_site_symmetry_multiplicity
 _atom_site_fract_x
 _atom_site_fract_y
 _atom_site_fract_z
 _atom_site_occupancy
  Sr  Sr0  1  0.00000000  0.50000000  0.18416100  1
  Sr  Sr1  1  0.50000000  0.00000000  0.81583900  1
  Sr  Sr2  1  0.00000000  0.50000000  0.41233000  1
  Sr  Sr3  1  0.50000000  0.00000000  0.58767000  1
  Fe  Fe0  1  0.50000000  0.00000000  0.30958400  1
  Fe  Fe1  1  0.00000000  0.50000000  0.69041600  1
  Cu  Cu0  1  0.00000000  0.00000000  0.00000000  1
  Cu  Cu1  1  0.50000000  0.50000000  0.00000000  1
  S  S0  1  0.50000000  0.00000000  0.08965500  1
  S  S1  1  0.00000000  0.50000000  0.91034500  1
  O  O0  1  0.00000000  0.00000000  0.28833200  1
  O  O1  1  0.50000000  0.50000000  0.28833200  1
  O  O2  1  0.50000000  0.50000000  0.71166800  1
  O  O3  1  0.00000000  0.00000000  0.71166800  1
  O  O4  1  0.50000000  0.00000000  0.43214400  1
  O  O5  1  0.00000000  0.50000000  0.56785600  1
loop_
_geom_bond_atom_site_label_1
_geom_bond_atom_site_label_2
_geom_bond_distance
_geom_bond_site_symmetry_2
Fe0 O4 1.930365 1_555
Fe0 O1 2.004116 1_545
Fe0 O0 2.004116 1_555
Fe0 O1 2.004116 1_555
Fe0 O0 2.004116 1_655
Fe1 O5 1.930365 1_555
Fe1 O3 2.004116 1_565
Fe1 O2 2.004116 1_555
Fe1 O2 2.004116 1_455
Fe1 O3 2.004116 1_555
Cu0 S0 2.428675 1_455
Cu0 S0 2.428675 1_555
Cu0 S1 2.428675 1_554
Cu0 S1 2.428675 1_544
Cu1 S0 2.428675 1_555
Cu1 S0 2.428675 1_565
Cu1 S1 2.428675 1_654
Cu1 S1 2.428675 1_554
S0 Sr0 3.166152 1_645
S0 Sr0 3.166152 1_555
S0 Sr0 3.166152 1_655
S0 Sr0 3.166152 1_545
S1 Sr1 3.166152 1_455
S1 Sr1 3.166152 1_555
S1 Sr1 3.166152 1_565
S1 Sr1 3.166152 1_465
O0 Sr0 2.568353 1_555
O0 Sr0 2.568353 1_545
O0 Sr2 2.778255 1_555
O0 Sr2 2.778255 1_545
O1 Sr0 2.568353 1_555
O1 Sr0 2.568353 1_655
O1 Sr2 2.778255 1_555
O1 Sr2 2.778255 1_655
O2 Sr1 2.568353 1_555
O2 Sr1 2.568353 1_565
O2 Sr3 2.778255 1_565
O2 Sr3 2.778255 1_555
O3 Sr1 2.568353 1_555
O3 Sr1 2.568353 1_455
O3 Sr3 2.778255 1_455
O3 Sr3 2.778255 1_555
O4 Sr3 2.449591 1_555
O4 Sr2 2.811809 1_645
O4 Sr2 2.811809 1_545
O4 Sr2 2.811809 1_555
O4 Sr2 2.811809 1_655
O5 Sr2 2.449591 1_555
O5 Sr3 2.811809 1_565
O5 Sr3 2.811809 1_465
O5 Sr3 2.811809 1_455
O5 Sr3 2.811809 1_555
