# generated using pymatgen
data_V2Cd6Se5O21
_symmetry_space_group_name_H-M   'P 1'
_cell_length_a   5.54938700
_cell_length_b   15.62895300
_cell_length_c   24.50141836
_cell_angle_alpha   85.65136676
_cell_angle_beta   90.00000000
_cell_angle_gamma   90.00000000
_symmetry_Int_Tables_number   1
_chemical_formula_structural   V2Cd6Se5O21
_chemical_formula_sum   'V8 Cd24 Se20 O84'
_cell_volume   2118.91747998
_cell_formula_units_Z   4
loop_
 _symmetry_equiv_pos_site_id
 _symmetry_equiv_pos_as_xyz
  1  'x, y, z'
loop_
 _atom_site_type_symbol
 _atom_site_label
 _atom_site_symmetry_multiplicity
 _atom_site_fract_x
 _atom_site_fract_y
 _atom_site_fract_z
 _atom_site_occupancy
  V  V0  1  0.26111200  0.79115400  0.31328000  1
  V  V1  1  0.23888800  0.79115400  0.81328000  1
  V  V2  1  0.73888800  0.20884600  0.68672000  1
  V  V3  1  0.77685900  0.90303100  0.27190800  1
  V  V4  1  0.72314100  0.90303100  0.77190800  1
  V  V5  1  0.76111200  0.20884600  0.18672000  1
  V  V6  1  0.27685900  0.09696900  0.22809200  1
  V  V7  1  0.22314100  0.09696900  0.72809200  1
  Cd  Cd0  1  0.21728600  0.22713700  0.41453700  1
  Cd  Cd1  1  0.68071200  0.37640900  0.35561900  1
  Cd  Cd2  1  0.18071200  0.62359100  0.14438100  1
  Cd  Cd3  1  0.28271400  0.22713700  0.91453700  1
  Cd  Cd4  1  0.28980400  0.54458400  0.79699200  1
  Cd  Cd5  1  0.26279800  0.91262500  0.52738700  1
  Cd  Cd6  1  0.78271400  0.77286300  0.58546300  1
  Cd  Cd7  1  0.29755800  0.98794000  0.87530800  1
  Cd  Cd8  1  0.74424000  0.53073500  0.04274200  1
  Cd  Cd9  1  0.81928800  0.37640900  0.85561900  1
  Cd  Cd10  1  0.21019600  0.54458400  0.29699200  1
  Cd  Cd11  1  0.79755800  0.01206000  0.62469200  1
  Cd  Cd12  1  0.24424000  0.46926500  0.45725800  1
  Cd  Cd13  1  0.70244200  0.01206000  0.12469200  1
  Cd  Cd14  1  0.23720200  0.91262500  0.02738700  1
  Cd  Cd15  1  0.20244200  0.98794000  0.37530800  1
  Cd  Cd16  1  0.31928800  0.62359100  0.64438100  1
  Cd  Cd17  1  0.71728600  0.77286300  0.08546300  1
  Cd  Cd18  1  0.25576000  0.46926500  0.95725800  1
  Cd  Cd19  1  0.76279800  0.08737500  0.97261300  1
  Cd  Cd20  1  0.71019600  0.45541600  0.20300800  1
  Cd  Cd21  1  0.78980400  0.45541600  0.70300800  1
  Cd  Cd22  1  0.75576000  0.53073500  0.54274200  1
  Cd  Cd23  1  0.73720200  0.08737500  0.47261300  1
  Se  Se0  1  0.71952800  0.57484900  0.38977000  1
  Se  Se1  1  0.21952800  0.42515100  0.11023000  1
  Se  Se2  1  0.28551700  0.68211900  0.50119900  1
  Se  Se3  1  0.70515800  0.88120600  0.44365400  1
  Se  Se4  1  0.28047200  0.42515100  0.61023000  1
  Se  Se5  1  0.29484200  0.11879400  0.55634600  1
  Se  Se6  1  0.78047200  0.57484900  0.88977000  1
  Se  Se7  1  0.31457400  0.33912100  0.77884300  1
  Se  Se8  1  0.21448300  0.68211900  0.00119900  1
  Se  Se9  1  0.79484200  0.88120600  0.94365400  1
  Se  Se10  1  0.18542600  0.33912100  0.27884300  1
  Se  Se11  1  0.26020000  0.85808600  0.15814900  1
  Se  Se12  1  0.23980000  0.85808600  0.65814900  1
  Se  Se13  1  0.71448300  0.31788100  0.49880100  1
  Se  Se14  1  0.81457400  0.66087900  0.72115700  1
  Se  Se15  1  0.68542600  0.66087900  0.22115700  1
  Se  Se16  1  0.76020000  0.14191400  0.34185100  1
  Se  Se17  1  0.78551700  0.31788100  0.99880100  1
  Se  Se18  1  0.20515800  0.11879400  0.05634600  1
  Se  Se19  1  0.73980000  0.14191400  0.84185100  1
  O  O0  1  0.02007100  0.89304600  0.60688000  1
  O  O1  1  0.94874100  0.41188900  0.28509100  1
  O  O2  1  0.46894600  0.49298800  0.11323100  1
  O  O3  1  0.29253400  0.03030700  0.28568900  1
  O  O4  1  0.01886800  0.48871500  0.14417000  1
  O  O5  1  0.44874100  0.58811100  0.21490900  1
  O  O6  1  0.61098500  0.24246500  0.96968700  1
  O  O7  1  0.75635600  0.16098200  0.62743200  1
  O  O8  1  0.20746600  0.03030700  0.78568900  1
  O  O9  1  0.60620700  0.83252700  0.50544300  1
  O  O10  1  0.25635600  0.83901800  0.87256800  1
  O  O11  1  0.39077700  0.41735900  0.25631700  1
  O  O12  1  0.47992900  0.89304600  0.10688000  1
  O  O13  1  0.41100300  0.59637600  0.99807200  1
  O  O14  1  0.99579400  0.03415700  0.05772300  1
  O  O15  1  0.48728200  0.86539300  0.61597000  1
  O  O16  1  0.48055700  0.64863700  0.55669300  1
  O  O17  1  0.28412300  0.68340200  0.32450900  1
  O  O18  1  0.54265700  0.93951000  0.96032000  1
  O  O19  1  0.99073200  0.83730000  0.77381500  1
  O  O20  1  0.60922300  0.58264100  0.74368300  1
  O  O21  1  0.10922300  0.41735900  0.75631700  1
  O  O22  1  0.51886800  0.51128500  0.35583000  1
  O  O23  1  0.81703900  0.95376000  0.32932200  1
  O  O24  1  0.98728200  0.13460700  0.88403000  1
  O  O25  1  0.49570800  0.81935700  0.77037300  1
  O  O26  1  0.74364400  0.16098200  0.12743200  1
  O  O27  1  0.31703900  0.04624000  0.17067800  1
  O  O28  1  0.16259500  0.75170400  0.66364500  1
  O  O29  1  0.89379300  0.83252700  0.00544300  1
  O  O30  1  0.88901500  0.24246500  0.46968700  1
  O  O31  1  0.48113200  0.48871500  0.64417000  1
  O  O32  1  0.90694800  0.55753000  0.95388600  1
  O  O33  1  0.01944300  0.64863700  0.05669300  1
  O  O34  1  0.71587700  0.31659800  0.67549100  1
  O  O35  1  0.10620700  0.16747300  0.99455700  1
  O  O36  1  0.50429200  0.18064300  0.22962700  1
  O  O37  1  0.11098500  0.75753500  0.53031300  1
  O  O38  1  0.95734300  0.93951000  0.46032000  1
  O  O39  1  0.96894600  0.50701200  0.38676900  1
  O  O40  1  0.00420600  0.96584300  0.94227700  1
  O  O41  1  0.58899700  0.40362400  0.00192800  1
  O  O42  1  0.91100300  0.40362400  0.50192800  1
  O  O43  1  0.24364400  0.83901800  0.37256800  1
  O  O44  1  0.52007100  0.10695400  0.89312000  1
  O  O45  1  0.97992900  0.10695400  0.39312000  1
  O  O46  1  0.09305200  0.44247000  0.04611400  1
  O  O47  1  0.70746600  0.96969300  0.71431100  1
  O  O48  1  0.40694800  0.44247000  0.54611400  1
  O  O49  1  0.29011900  0.32733100  0.34585400  1
  O  O50  1  0.00429200  0.81935700  0.27037300  1
  O  O51  1  0.21587700  0.68340200  0.82450900  1
  O  O52  1  0.68296100  0.95376000  0.82932200  1
  O  O53  1  0.38901500  0.75753500  0.03031300  1
  O  O54  1  0.03105400  0.49298800  0.61323100  1
  O  O55  1  0.33740500  0.75170400  0.16364500  1
  O  O56  1  0.49579400  0.96584300  0.44227700  1
  O  O57  1  0.98113200  0.51128500  0.85583000  1
  O  O58  1  0.01271800  0.86539300  0.11597000  1
  O  O59  1  0.89077700  0.58264100  0.24368300  1
  O  O60  1  0.83740500  0.24829600  0.33635500  1
  O  O61  1  0.18296100  0.04624000  0.67067800  1
  O  O62  1  0.04265700  0.06049000  0.53968000  1
  O  O63  1  0.59305200  0.55753000  0.45388600  1
  O  O64  1  0.50926800  0.83730000  0.27381500  1
  O  O65  1  0.51944300  0.35136300  0.44330700  1
  O  O66  1  0.50420600  0.03415700  0.55772300  1
  O  O67  1  0.49073200  0.16270000  0.72618500  1
  O  O68  1  0.51271800  0.13460700  0.38403000  1
  O  O69  1  0.45734300  0.06049000  0.03968000  1
  O  O70  1  0.79011900  0.67266900  0.15414600  1
  O  O71  1  0.39379300  0.16747300  0.49455700  1
  O  O72  1  0.08899700  0.59637600  0.49807200  1
  O  O73  1  0.99570800  0.18064300  0.72962700  1
  O  O74  1  0.70988100  0.67266900  0.65414600  1
  O  O75  1  0.55125900  0.41188900  0.78509100  1
  O  O76  1  0.79253400  0.96969300  0.21431100  1
  O  O77  1  0.78412300  0.31659800  0.17549100  1
  O  O78  1  0.66259500  0.24829600  0.83635500  1
  O  O79  1  0.53105400  0.50701200  0.88676900  1
  O  O80  1  0.05125900  0.58811100  0.71490900  1
  O  O81  1  0.00926800  0.16270000  0.22618500  1
  O  O82  1  0.20988100  0.32733100  0.84585400  1
  O  O83  1  0.98055700  0.35136300  0.94330700  1
loop_
_geom_bond_atom_site_label_1
_geom_bond_atom_site_label_2
_geom_bond_distance
_geom_bond_site_symmetry_2
Cd0 O49 2.246727 1_555
Cd0 O30 2.291499 1_455
Cd0 O71 2.322859 1_555
Cd0 O68 2.345596 1_555
Cd0 O45 2.384943 1_455
Cd0 O65 2.699178 1_555
Cd1 O60 2.265239 1_555
Cd1 O22 2.291695 1_555
Cd1 O1 2.315303 1_555
Cd1 O49 2.317693 1_555
Cd1 O65 2.332934 1_555
Cd1 O39 2.746575 1_555
Cd2 O55 2.265239 1_555
Cd2 O4 2.291695 1_555
Cd2 O5 2.315303 1_555
Cd2 O70 2.317693 1_455
Cd2 O33 2.332934 1_555
Cd2 O2 2.746575 1_555
Cd3 O82 2.246727 1_555
Cd3 O6 2.291499 1_555
Cd3 O35 2.322859 1_555
Cd3 O24 2.345596 1_455
Cd3 O44 2.384943 1_555
Cd3 O83 2.699178 1_455
Cd4 O20 2.254777 1_555
Cd4 O57 2.273650 1_455
Cd4 O51 2.356217 1_555
Cd4 O80 2.460166 1_555
Cd4 O21 2.500331 1_555
Cd4 O75 2.565713 1_555
Cd4 O79 2.603808 1_555
Cd5 O9 2.364318 1_555
Cd5 O0 2.368782 1_555
Cd5 O38 2.376004 1_455
Cd5 O66 2.483757 1_565
Cd5 O56 2.539511 1_555
Cd5 O37 2.561992 1_555
Cd5 O15 2.562131 1_555
Cd5 O62 2.651284 1_565
Cd6 O74 2.246727 1_555
Cd6 O37 2.291499 1_655
Cd6 O9 2.322859 1_555
Cd6 O15 2.345596 1_555
Cd6 O0 2.384943 1_655
Cd6 O16 2.699178 1_555
Cd7 O8 2.299873 1_565
Cd7 O44 2.301774 1_565
Cd7 O40 2.318579 1_555
Cd7 O10 2.344721 1_555
Cd7 O52 2.494073 1_555
Cd7 O18 2.553892 1_555
Cd8 O13 2.345175 1_554
Cd8 O2 2.347389 1_555
Cd8 O32 2.364773 1_554
Cd8 O46 2.374750 1_655
Cd8 O33 2.437255 1_655
Cd8 O41 2.447465 1_555
Cd9 O78 2.265239 1_555
Cd9 O57 2.291695 1_555
Cd9 O75 2.315303 1_555
Cd9 O82 2.317693 1_655
Cd9 O83 2.332934 1_555
Cd9 O79 2.746575 1_555
Cd10 O59 2.254777 1_455
Cd10 O22 2.273650 1_555
Cd10 O17 2.356217 1_555
Cd10 O5 2.460166 1_555
Cd10 O11 2.500331 1_555
Cd10 O1 2.565713 1_455
Cd10 O39 2.603808 1_455
Cd11 O47 2.299873 1_545
Cd11 O0 2.301774 1_645
Cd11 O66 2.318579 1_555
Cd11 O7 2.344721 1_555
Cd11 O61 2.494073 1_655
Cd11 O62 2.553892 1_655
Cd12 O42 2.345175 1_455
Cd12 O39 2.347389 1_455
Cd12 O48 2.364773 1_555
Cd12 O63 2.374750 1_555
Cd12 O65 2.437255 1_555
Cd12 O72 2.447465 1_555
Cd13 O76 2.299873 1_545
Cd13 O12 2.301774 1_545
Cd13 O14 2.318579 1_555
Cd13 O26 2.344721 1_555
Cd13 O27 2.494073 1_555
Cd13 O69 2.553892 1_555
Cd14 O29 2.364318 1_455
Cd14 O12 2.368782 1_555
Cd14 O18 2.376004 1_554
Cd14 O14 2.483757 1_465
Cd14 O40 2.539511 1_554
Cd14 O53 2.561992 1_555
Cd14 O58 2.562131 1_555
Cd14 O69 2.651284 1_565
Cd15 O3 2.299873 1_565
Cd15 O45 2.301774 1_465
Cd15 O56 2.318579 1_555
Cd15 O43 2.344721 1_555
Cd15 O23 2.494073 1_455
Cd15 O38 2.553892 1_455
Cd16 O28 2.265239 1_555
Cd16 O31 2.291695 1_555
Cd16 O80 2.315303 1_555
Cd16 O74 2.317693 1_555
Cd16 O16 2.332934 1_555
Cd16 O54 2.746575 1_555
Cd17 O70 2.246727 1_555
Cd17 O53 2.291499 1_555
Cd17 O29 2.322859 1_555
Cd17 O58 2.345596 1_655
Cd17 O12 2.384943 1_555
Cd17 O33 2.699178 1_655
Cd18 O41 2.345175 1_556
Cd18 O79 2.347389 1_555
Cd18 O46 2.364773 1_556
Cd18 O32 2.374750 1_455
Cd18 O83 2.437255 1_455
Cd18 O13 2.447465 1_555
Cd19 O35 2.364318 1_655
Cd19 O44 2.368782 1_555
Cd19 O69 2.376004 1_556
Cd19 O40 2.483757 1_645
Cd19 O14 2.539511 1_556
Cd19 O6 2.561992 1_555
Cd19 O24 2.562131 1_555
Cd19 O18 2.651284 1_545
Cd20 O11 2.254777 1_555
Cd20 O4 2.273650 1_655
Cd20 O77 2.356217 1_555
Cd20 O1 2.460166 1_555
Cd20 O59 2.500331 1_555
Cd20 O5 2.565713 1_555
Cd20 O2 2.603808 1_555
Cd21 O21 2.254777 1_655
Cd21 O31 2.273650 1_555
Cd21 O34 2.356217 1_555
Cd21 O75 2.460166 1_555
Cd21 O20 2.500331 1_555
Cd21 O80 2.565713 1_655
Cd21 O54 2.603808 1_655
Cd22 O72 2.345175 1_655
Cd22 O54 2.347389 1_655
Cd22 O63 2.364773 1_555
Cd22 O48 2.374750 1_555
Cd22 O16 2.437255 1_555
Cd22 O42 2.447465 1_555
Cd23 O71 2.364318 1_555
Cd23 O45 2.368782 1_555
Cd23 O62 2.376004 1_655
Cd23 O56 2.483757 1_545
Cd23 O66 2.539511 1_555
Cd23 O30 2.561992 1_555
Cd23 O68 2.562131 1_555
Cd23 O38 2.651284 1_545
O0 Se12 1.805337 1_555
O1 Se10 1.751693 1_655
O2 Se1 1.748450 1_555
O3 V6 1.691619 1_555
O4 Se1 1.744619 1_555
O5 Se15 1.751693 1_555
O6 Se17 1.721541 1_555
O7 V2 1.686403 1_555
O8 V7 1.691619 1_555
O9 Se3 1.731366 1_555
O10 V1 1.686403 1_555
O11 Se10 1.730919 1_555
O12 Se11 1.805337 1_555
O13 Se8 1.733946 1_556
O14 Se18 1.758981 1_655
O15 Se12 1.717355 1_555
O16 Se2 1.784980 1_555
O17 V0 1.690493 1_555
O18 Se9 1.735521 1_555
O19 V1 1.801617 1_655
O19 V4 1.804269 1_555
O20 Se14 1.730919 1_555
O21 Se7 1.730919 1_555
O22 Se0 1.744619 1_555
O23 V3 1.681168 1_555
O24 Se19 1.717355 1_555
O25 V1 1.805655 1_555
O25 V4 1.819885 1_555
O26 V5 1.686403 1_555
O27 V6 1.681168 1_555
O28 Se12 1.712341 1_555
O29 Se9 1.731366 1_554
O30 Se13 1.721541 1_555
O31 Se4 1.744619 1_555
O32 Se6 1.723144 1_555
O33 Se8 1.784980 1_555
O34 V2 1.690493 1_555
O35 Se18 1.731366 1_556
O36 V5 1.805655 1_555
O36 V6 1.819885 1_555
O37 Se2 1.721541 1_555
O38 Se3 1.735521 1_555
O39 Se0 1.748450 1_555
O40 Se9 1.758981 1_455
O41 Se17 1.733946 1_554
O42 Se13 1.733946 1_555
O43 V0 1.686403 1_555
O44 Se19 1.805337 1_555
O45 Se16 1.805337 1_555
O46 Se1 1.723144 1_555
O47 V4 1.691619 1_555
O48 Se4 1.723144 1_555
O49 Se10 1.738198 1_555
O50 V0 1.805655 1_555
O50 V3 1.819885 1_455
O51 V1 1.690493 1_555
O52 V4 1.681168 1_555
O53 Se8 1.721541 1_555
O54 Se4 1.748450 1_555
O55 Se11 1.712341 1_555
O56 Se3 1.758981 1_555
O57 Se6 1.744619 1_555
O58 Se11 1.717355 1_555
O59 Se15 1.730919 1_555
O60 Se16 1.712341 1_555
O61 V7 1.681168 1_555
O62 Se5 1.735521 1_555
O63 Se0 1.723144 1_555
O64 V0 1.801617 1_555
O64 V3 1.804269 1_555
O65 Se13 1.784980 1_555
O66 Se5 1.758981 1_555
O67 V2 1.801617 1_555
O67 V7 1.804269 1_555
O68 Se16 1.717355 1_555
O69 Se18 1.735521 1_555
O70 Se15 1.738198 1_555
O71 Se5 1.731366 1_555
O72 Se2 1.733946 1_555
O73 V2 1.805655 1_555
O73 V7 1.819885 1_655
O74 Se14 1.738198 1_555
O75 Se7 1.751693 1_555
O76 V3 1.691619 1_555
O77 V5 1.690493 1_555
O78 Se19 1.712341 1_555
O79 Se6 1.748450 1_555
O80 Se14 1.751693 1_455
O81 V5 1.801617 1_455
O81 V6 1.804269 1_555
O82 Se7 1.738198 1_555
O83 Se17 1.784980 1_555
