# generated using pymatgen
data_BaLi(B3O5)3
_symmetry_space_group_name_H-M   'P 1'
_cell_length_a   8.63070759
_cell_length_b   8.63070759
_cell_length_c   8.63070774
_cell_angle_alpha   80.72285465
_cell_angle_beta   80.72285465
_cell_angle_gamma   80.72285003
_symmetry_Int_Tables_number   1
_chemical_formula_structural   BaLi(B3O5)3
_chemical_formula_sum   'Ba2 Li2 B18 O30'
_cell_volume   620.12198535
_cell_formula_units_Z   2
loop_
 _symmetry_equiv_pos_site_id
 _symmetry_equiv_pos_as_xyz
  1  'x, y, z'
loop_
 _atom_site_type_symbol
 _atom_site_label
 _atom_site_symmetry_multiplicity
 _atom_site_fract_x
 _atom_site_fract_y
 _atom_site_fract_z
 _atom_site_occupancy
  Ba  Ba0  1  0.00000000  0.00000000  0.00000000  1
  Ba  Ba1  1  0.50000000  0.50000000  0.50000000  1
  Li  Li0  1  0.75000000  0.75000000  0.75000000  1
  Li  Li1  1  0.25000000  0.25000000  0.25000000  1
  B  B0  1  0.75000000  0.31963700  0.18036300  1
  B  B1  1  0.58074600  0.10676400  0.24439300  1
  B  B2  1  0.25000000  0.68036300  0.81963700  1
  B  B3  1  0.24439300  0.58074600  0.10676400  1
  B  B4  1  0.89323600  0.75560700  0.41925400  1
  B  B5  1  0.08074600  0.74439300  0.60676400  1
  B  B6  1  0.68036300  0.81963700  0.25000000  1
  B  B7  1  0.25560700  0.39323600  0.91925400  1
  B  B8  1  0.91925400  0.25560700  0.39323600  1
  B  B9  1  0.39323600  0.91925400  0.25560700  1
  B  B10  1  0.18036300  0.75000000  0.31963700  1
  B  B11  1  0.10676400  0.24439300  0.58074600  1
  B  B12  1  0.81963700  0.25000000  0.68036300  1
  B  B13  1  0.74439300  0.60676400  0.08074600  1
  B  B14  1  0.75560700  0.41925400  0.89323600  1
  B  B15  1  0.41925400  0.89323600  0.75560700  1
  B  B16  1  0.31963700  0.18036300  0.75000000  1
  B  B17  1  0.60676400  0.08074600  0.74439300  1
  O  O0  1  0.29651600  0.01209700  0.77652800  1
  O  O1  1  0.89820800  0.24214600  0.24338700  1
  O  O2  1  0.60179200  0.25661300  0.25785400  1
  O  O3  1  0.24338700  0.89820800  0.24214600  1
  O  O4  1  0.51209700  0.79651600  0.27652800  1
  O  O5  1  0.92360800  0.75000000  0.57639200  1
  O  O6  1  0.07639200  0.25000000  0.42360800  1
  O  O7  1  0.24214600  0.24338700  0.89820800  1
  O  O8  1  0.27652800  0.51209700  0.79651600  1
  O  O9  1  0.74338700  0.74214600  0.39820800  1
  O  O10  1  0.74214600  0.39820800  0.74338700  1
  O  O11  1  0.75785400  0.75661300  0.10179200  1
  O  O12  1  0.57639200  0.92360800  0.75000000  1
  O  O13  1  0.75000000  0.57639200  0.92360800  1
  O  O14  1  0.98790300  0.22347200  0.70348400  1
  O  O15  1  0.25661300  0.25785400  0.60179200  1
  O  O16  1  0.72347200  0.48790300  0.20348400  1
  O  O17  1  0.01209700  0.77652800  0.29651600  1
  O  O18  1  0.75661300  0.10179200  0.75785400  1
  O  O19  1  0.77652800  0.29651600  0.01209700  1
  O  O20  1  0.25000000  0.42360800  0.07639200  1
  O  O21  1  0.79651600  0.27652800  0.51209700  1
  O  O22  1  0.20348400  0.72347200  0.48790300  1
  O  O23  1  0.70348400  0.98790300  0.22347200  1
  O  O24  1  0.42360800  0.07639200  0.25000000  1
  O  O25  1  0.10179200  0.75785400  0.75661300  1
  O  O26  1  0.25785400  0.60179200  0.25661300  1
  O  O27  1  0.22347200  0.70348400  0.98790300  1
  O  O28  1  0.39820800  0.74338700  0.74214600  1
  O  O29  1  0.48790300  0.20348400  0.72347200  1
loop_
_geom_bond_atom_site_label_1
_geom_bond_atom_site_label_2
_geom_bond_distance
_geom_bond_site_symmetry_2
Ba0 O27 2.951250 1_544
Ba0 O19 2.951250 1_455
Ba0 O23 2.951250 1_445
Ba0 O0 2.951250 1_554
Ba0 O14 2.951250 1_454
Ba0 O17 2.951250 1_545
Ba0 O3 3.127370 1_545
Ba0 O18 3.127370 1_454
Ba0 O1 3.127370 1_455
Ba0 O25 3.127370 1_544
Ba0 O7 3.127370 1_554
Ba0 O11 3.127370 1_445
Ba1 O22 2.951250 1_555
Ba1 O21 2.951250 1_555
Ba1 O4 2.951250 1_555
Ba1 O29 2.951250 1_555
Ba1 O8 2.951250 1_555
Ba1 O16 2.951250 1_555
Ba1 O28 3.127370 1_555
Ba1 O2 3.127370 1_555
Ba1 O10 3.127370 1_555
Ba1 O26 3.127370 1_555
Ba1 O15 3.127370 1_555
Ba1 O9 3.127370 1_555
Li0 O12 1.940697 1_555
Li0 O5 1.940697 1_555
Li0 O13 1.940697 1_555
Li1 O24 1.940697 1_555
Li1 O20 1.940697 1_555
Li1 O6 1.940697 1_555
B0 O16 1.474037 1_555
B0 O19 1.474037 1_555
B0 O1 1.486802 1_555
B0 O2 1.486802 1_555
B1 O2 1.360189 1_555
B1 O23 1.361913 1_545
B1 O24 1.414121 1_555
B2 O8 1.474037 1_555
B2 O27 1.474037 1_555
B2 O25 1.486802 1_555
B2 O28 1.486802 1_555
B3 O26 1.360189 1_555
B3 O27 1.361913 1_554
B3 O20 1.414121 1_555
B4 O9 1.360189 1_555
B4 O17 1.361913 1_655
B4 O5 1.414121 1_555
B5 O25 1.360189 1_555
B5 O22 1.361913 1_555
B5 O5 1.414121 1_455
B6 O4 1.474037 1_555
B6 O23 1.474037 1_555
B6 O11 1.486802 1_555
B6 O9 1.486802 1_555
B7 O7 1.360189 1_555
B7 O8 1.361913 1_555
B7 O20 1.414121 1_556
B8 O1 1.360189 1_555
B8 O21 1.361913 1_555
B8 O6 1.414121 1_655
B9 O3 1.360189 1_555
B9 O4 1.361913 1_555
B9 O24 1.414121 1_565
B10 O17 1.474037 1_555
B10 O22 1.474037 1_555
B10 O26 1.486802 1_555
B10 O3 1.486802 1_555
B11 O15 1.360189 1_555
B11 O14 1.361913 1_455
B11 O6 1.414121 1_555
B12 O14 1.474037 1_555
B12 O21 1.474037 1_555
B12 O10 1.486802 1_555
B12 O18 1.486802 1_555
B13 O11 1.360189 1_555
B13 O16 1.361913 1_555
B13 O13 1.414121 1_554
B14 O10 1.360189 1_555
B14 O19 1.361913 1_556
B14 O13 1.414121 1_555
B15 O28 1.360189 1_555
B15 O0 1.361913 1_565
B15 O12 1.414121 1_555
B16 O29 1.474037 1_555
B16 O0 1.474037 1_555
B16 O7 1.486802 1_555
B16 O15 1.486802 1_555
B17 O18 1.360189 1_555
B17 O29 1.361913 1_555
B17 O12 1.414121 1_545
