# generated using pymatgen
data_FeSiP3O11
_symmetry_space_group_name_H-M   'P 1'
_cell_length_a   13.89553608
_cell_length_b   13.89553608
_cell_length_c   13.89553600
_cell_angle_alpha   34.78048733
_cell_angle_beta   34.78048733
_cell_angle_gamma   34.78048466
_symmetry_Int_Tables_number   1
_chemical_formula_structural   FeSiP3O11
_chemical_formula_sum   'Fe4 Si4 P12 O44'
_cell_volume   779.23334395
_cell_formula_units_Z   4
loop_
 _symmetry_equiv_pos_site_id
 _symmetry_equiv_pos_as_xyz
  1  'x, y, z'
loop_
 _atom_site_type_symbol
 _atom_site_label
 _atom_site_symmetry_multiplicity
 _atom_site_fract_x
 _atom_site_fract_y
 _atom_site_fract_z
 _atom_site_occupancy
  Fe  Fe0  1  0.15756332  0.15756332  0.15756332  1
  Fe  Fe1  1  0.34243668  0.34243668  0.34243668  1
  Fe  Fe2  1  0.84243668  0.84243668  0.84243668  1
  Fe  Fe3  1  0.65756332  0.65756332  0.65756332  1
  Si  Si0  1  0.04023008  0.04023008  0.04023008  1
  Si  Si1  1  0.45976992  0.45976992  0.45976992  1
  Si  Si2  1  0.95976992  0.95976992  0.95976992  1
  Si  Si3  1  0.54023008  0.54023008  0.54023008  1
  P  P0  1  0.78623557  0.49387761  0.08000031  1
  P  P1  1  0.49387761  0.08000031  0.78623557  1
  P  P2  1  0.08000031  0.78623557  0.49387761  1
  P  P3  1  0.00612239  0.71376443  0.41999969  1
  P  P4  1  0.71376443  0.41999969  0.00612239  1
  P  P5  1  0.41999969  0.00612239  0.71376443  1
  P  P6  1  0.21376443  0.50612239  0.91999969  1
  P  P7  1  0.50612239  0.91999969  0.21376443  1
  P  P8  1  0.91999969  0.21376443  0.50612239  1
  P  P9  1  0.99387761  0.28623557  0.58000031  1
  P  P10  1  0.28623557  0.58000031  0.99387761  1
  P  P11  1  0.58000031  0.99387761  0.28623557  1
  O  O0  1  0.21314485  0.09536239  0.85192140  1
  O  O1  1  0.09536239  0.85192140  0.21314485  1
  O  O2  1  0.85192140  0.21314485  0.09536239  1
  O  O3  1  0.40463761  0.28685515  0.64807860  1
  O  O4  1  0.28685515  0.64807860  0.40463761  1
  O  O5  1  0.64807860  0.40463761  0.28685515  1
  O  O6  1  0.78685515  0.90463761  0.14807860  1
  O  O7  1  0.90463761  0.14807860  0.78685515  1
  O  O8  1  0.14807860  0.78685515  0.90463761  1
  O  O9  1  0.59536239  0.71314485  0.35192140  1
  O  O10  1  0.71314485  0.35192140  0.59536239  1
  O  O11  1  0.35192140  0.59536239  0.71314485  1
  O  O12  1  0.98532520  0.34842970  0.05027513  1
  O  O13  1  0.34842970  0.05027513  0.98532520  1
  O  O14  1  0.05027513  0.98532520  0.34842970  1
  O  O15  1  0.15157030  0.51467480  0.44972487  1
  O  O16  1  0.51467480  0.44972487  0.15157030  1
  O  O17  1  0.44972487  0.15157030  0.51467480  1
  O  O18  1  0.01467480  0.65157030  0.94972487  1
  O  O19  1  0.65157030  0.94972487  0.01467480  1
  O  O20  1  0.94972487  0.01467480  0.65157030  1
  O  O21  1  0.84842970  0.48532520  0.55027513  1
  O  O22  1  0.48532520  0.55027513  0.84842970  1
  O  O23  1  0.55027513  0.84842970  0.48532520  1
  O  O24  1  0.27796818  0.32374217  0.96388852  1
  O  O25  1  0.32374217  0.96388852  0.27796818  1
  O  O26  1  0.96388852  0.27796818  0.32374217  1
  O  O27  1  0.17625783  0.22203182  0.53611148  1
  O  O28  1  0.22203182  0.53611148  0.17625783  1
  O  O29  1  0.53611148  0.17625783  0.22203182  1
  O  O30  1  0.72203182  0.67625783  0.03611148  1
  O  O31  1  0.67625783  0.03611148  0.72203182  1
  O  O32  1  0.03611148  0.72203182  0.67625783  1
  O  O33  1  0.82374217  0.77796818  0.46388852  1
  O  O34  1  0.77796818  0.46388852  0.82374217  1
  O  O35  1  0.46388852  0.82374217  0.77796818  1
  O  O36  1  0.54090834  0.95909166  0.75000000  1
  O  O37  1  0.95909166  0.75000000  0.54090834  1
  O  O38  1  0.75000000  0.54090834  0.95909166  1
  O  O39  1  0.45909166  0.04090834  0.25000000  1
  O  O40  1  0.04090834  0.25000000  0.45909166  1
  O  O41  1  0.25000000  0.45909166  0.04090834  1
  O  O42  1  -0.00000000  0.00000000  0.00000000  1
  O  O43  1  0.50000000  0.50000000  0.50000000  1
loop_
_geom_bond_atom_site_label_1
_geom_bond_atom_site_label_2
_geom_bond_distance
_geom_bond_site_symmetry_2
Fe0 O12 1.980842 1_455
Fe0 O13 1.980842 1_554
Fe0 O14 1.980842 1_545
Fe0 O25 2.028700 1_545
Fe0 O26 2.028700 1_455
Fe0 O24 2.028701 1_554
Fe1 O15 1.980842 1_555
Fe1 O17 1.980842 1_555
Fe1 O16 1.980842 1_555
Fe1 O29 2.028700 1_555
Fe1 O28 2.028700 1_555
Fe1 O27 2.028701 1_555
Fe2 O18 1.980842 1_655
Fe2 O19 1.980842 1_556
Fe2 O20 1.980842 1_565
Fe2 O31 2.028700 1_565
Fe2 O32 2.028700 1_655
Fe2 O30 2.028701 1_556
Fe3 O21 1.980842 1_555
Fe3 O23 1.980842 1_555
Fe3 O22 1.980842 1_555
Fe3 O35 2.028700 1_555
Fe3 O34 2.028700 1_555
Fe3 O33 2.028701 1_555
O0 P5 1.573572 1_555
O0 Si0 1.615531 1_556
O1 P3 1.573572 1_555
O1 Si0 1.615531 1_565
O2 P4 1.573571 1_555
O2 Si0 1.615531 1_655
O3 P1 1.573572 1_555
O3 Si1 1.615531 1_555
O4 P2 1.573571 1_555
O4 Si1 1.615531 1_555
O5 P0 1.573572 1_555
O5 Si1 1.615531 1_555
O6 P11 1.573572 1_555
O6 Si2 1.615531 1_554
O7 P9 1.573572 1_555
O7 Si2 1.615531 1_545
O8 P10 1.573571 1_555
O8 Si2 1.615531 1_455
O9 P7 1.573572 1_555
O9 Si3 1.615531 1_555
O10 P8 1.573571 1_555
O10 Si3 1.615531 1_555
O11 P6 1.573572 1_555
O11 Si3 1.615531 1_555
O12 P0 1.489386 1_555
O13 P1 1.489386 1_555
O14 P2 1.489386 1_555
O15 P3 1.489386 1_555
O16 P4 1.489386 1_555
O17 P5 1.489386 1_555
O18 P6 1.489386 1_555
O19 P7 1.489386 1_555
O20 P8 1.489386 1_555
O21 P9 1.489386 1_555
O22 P10 1.489386 1_555
O23 P11 1.489386 1_555
O24 P6 1.493745 1_555
O25 P7 1.493745 1_555
O26 P8 1.493745 1_555
O27 P9 1.493745 1_455
O28 P10 1.493745 1_554
O29 P11 1.493745 1_545
O30 P0 1.493745 1_555
O31 P1 1.493745 1_555
O32 P2 1.493745 1_555
O33 P3 1.493745 1_655
O34 P4 1.493745 1_556
O35 P5 1.493745 1_565
O36 P1 1.596493 1_565
O36 P5 1.596493 1_565
O37 P3 1.596493 1_655
O37 P2 1.596493 1_655
O38 P0 1.596493 1_556
O38 P4 1.596493 1_556
O39 P11 1.596493 1_545
O39 P7 1.596493 1_545
O40 P9 1.596493 1_455
O40 P8 1.596493 1_455
O41 P6 1.596493 1_554
O41 P10 1.596493 1_554
O42 Si2 1.574018 1_444
O42 Si0 1.574018 1_555
O43 Si3 1.574018 1_555
O43 Si1 1.574018 1_555
