# generated using pymatgen
data_Ce4Co2Sn5
_symmetry_space_group_name_H-M   'P 1'
_cell_length_a   7.50467191
_cell_length_b   7.50467191
_cell_length_c   11.06457077
_cell_angle_alpha   53.53366448
_cell_angle_beta   53.53366448
_cell_angle_gamma   35.71149721
_symmetry_Int_Tables_number   1
_chemical_formula_structural   Ce4Co2Sn5
_chemical_formula_sum   'Ce4 Co2 Sn5'
_cell_volume   284.11067522
_cell_formula_units_Z   1
loop_
 _symmetry_equiv_pos_site_id
 _symmetry_equiv_pos_as_xyz
  1  'x, y, z'
loop_
 _atom_site_type_symbol
 _atom_site_label
 _atom_site_symmetry_multiplicity
 _atom_site_fract_x
 _atom_site_fract_y
 _atom_site_fract_z
 _atom_site_occupancy
  Ce  Ce0  1  0.06661505  0.06661505  0.77514763  1
  Ce  Ce1  1  0.93338495  0.93338495  0.22485237  1
  Ce  Ce2  1  0.33268578  0.33268578  0.78150036  1
  Ce  Ce3  1  0.66731422  0.66731422  0.21849964  1
  Co  Co0  1  0.76877907  0.76877907  0.64942030  1
  Co  Co1  1  0.23122093  0.23122093  0.35057970  1
  Sn  Sn0  1  0.37618496  0.37618496  0.04926152  1
  Sn  Sn1  1  0.62381504  0.62381504  0.95073848  1
  Sn  Sn2  1  0.00000000  0.00000000  0.50000000  1
  Sn  Sn3  1  0.34901889  0.34901889  0.47608396  1
  Sn  Sn4  1  0.65098111  0.65098111  0.52391604  1
loop_
_geom_bond_atom_site_label_1
_geom_bond_atom_site_label_2
_geom_bond_distance
_geom_bond_site_symmetry_2
Ce0 Sn4 3.207909 1_545
Ce0 Sn4 3.207909 1_455
Ce0 Co0 3.248725 1_545
Ce0 Co0 3.248725 1_455
Ce0 Sn3 3.248747 1_555
Ce0 Sn0 3.404489 1_546
Ce0 Sn0 3.404489 1_456
Ce0 Sn1 3.423475 1_545
Ce0 Sn1 3.423475 1_455
Ce1 Sn3 3.207909 1_655
Ce1 Sn3 3.207909 1_565
Ce1 Co1 3.248725 1_655
Ce1 Co1 3.248725 1_565
Ce1 Sn4 3.248747 1_555
Ce1 Sn1 3.404489 1_564
Ce1 Sn1 3.404489 1_654
Ce1 Sn0 3.423475 1_655
Ce1 Sn0 3.423475 1_565
Ce2 Co0 3.151287 1_455
Ce2 Co0 3.151287 1_545
Ce2 Sn3 3.238729 1_555
Ce2 Sn1 3.275291 1_545
Ce2 Sn1 3.275291 1_455
Ce2 Sn2 3.378173 1_565
Ce2 Sn2 3.378173 1_655
Ce2 Sn0 3.385686 1_556
Ce2 Sn4 3.551818 1_555
Ce3 Co1 3.151287 1_565
Ce3 Co1 3.151287 1_655
Ce3 Sn4 3.238729 1_555
Ce3 Sn0 3.275291 1_655
Ce3 Sn0 3.275291 1_565
Ce3 Sn2 3.378173 1_655
Ce3 Sn2 3.378173 1_565
Ce3 Sn1 3.385686 1_554
Ce3 Sn3 3.551818 1_555
Co0 Sn1 2.604117 1_555
Co0 Sn2 2.612434 1_665
Co0 Sn3 2.746227 1_655
Co0 Sn3 2.746227 1_565
Co0 Sn4 2.771111 1_555
Co1 Sn0 2.604117 1_555
Co1 Sn2 2.612434 1_555
Co1 Sn4 2.746227 1_455
Co1 Sn4 2.746227 1_545
Co1 Sn3 2.771111 1_555
Sn0 Sn1 2.981217 1_554
Sn2 Sn3 3.275730 1_455
Sn2 Sn3 3.275730 1_545
Sn2 Sn4 3.275730 1_545
Sn2 Sn4 3.275730 1_455
