# generated using pymatgen
data_Ga3Os
_symmetry_space_group_name_H-M   'P 1'
_cell_length_a   6.48603931
_cell_length_b   6.48603931
_cell_length_c   6.79483224
_cell_angle_alpha   90.00000000
_cell_angle_beta   90.00000000
_cell_angle_gamma   90.00000000
_symmetry_Int_Tables_number   1
_chemical_formula_structural   Ga3Os
_chemical_formula_sum   'Ga12 Os4'
_cell_volume   285.84979935
_cell_formula_units_Z   4
loop_
 _symmetry_equiv_pos_site_id
 _symmetry_equiv_pos_as_xyz
  1  'x, y, z'
loop_
 _atom_site_type_symbol
 _atom_site_label
 _atom_site_symmetry_multiplicity
 _atom_site_fract_x
 _atom_site_fract_y
 _atom_site_fract_z
 _atom_site_occupancy
  Ga  Ga0  1  0.15438456  0.34561544  0.98390463  1
  Ga  Ga1  1  0.15438456  0.34561544  0.51609537  1
  Ga  Ga2  1  0.34561544  0.84561544  0.01609537  1
  Ga  Ga3  1  0.65438456  0.15438456  0.01609537  1
  Ga  Ga4  1  0.50000000  0.50000000  0.25000000  1
  Ga  Ga5  1  -0.00000000  0.00000000  0.75000000  1
  Ga  Ga6  1  0.34561544  0.84561544  0.48390463  1
  Ga  Ga7  1  0.84561544  0.65438456  0.98390463  1
  Ga  Ga8  1  0.65438456  0.15438456  0.48390463  1
  Ga  Ga9  1  -0.00000000  0.00000000  0.25000000  1
  Ga  Ga10  1  0.84561544  0.65438456  0.51609537  1
  Ga  Ga11  1  0.50000000  0.50000000  0.75000000  1
  Os  Os0  1  0.33877359  0.16122641  0.25000000  1
  Os  Os1  1  0.16122641  0.66122641  0.75000000  1
  Os  Os2  1  0.66122641  0.83877359  0.25000000  1
  Os  Os3  1  0.83877359  0.33877359  0.75000000  1
loop_
_geom_bond_atom_site_label_1
_geom_bond_atom_site_label_2
_geom_bond_distance
_geom_bond_site_symmetry_2
Ga0 Os0 2.475832 1_556
Ga0 Os1 2.591998 1_555
Ga0 Os3 2.591998 1_455
Ga0 Ga7 2.832229 1_455
Ga0 Ga5 2.924690 1_555
Ga0 Ga11 2.924690 1_555
Ga0 Ga4 3.049086 1_556
Ga0 Ga9 3.049086 1_556
Ga1 Os0 2.475832 1_555
Ga1 Os1 2.591998 1_555
Ga1 Os3 2.591998 1_455
Ga1 Ga10 2.832229 1_455
Ga1 Ga11 2.924690 1_555
Ga1 Ga5 2.924690 1_555
Ga1 Ga9 3.049086 1_555
Ga1 Ga4 3.049086 1_555
Ga2 Os1 2.475832 1_554
Ga2 Os0 2.591998 1_565
Ga2 Os2 2.591998 1_555
Ga2 Ga3 2.832229 1_565
Ga2 Ga9 2.924690 1_565
Ga2 Ga4 2.924690 1_555
Ga2 Ga5 3.049086 1_564
Ga3 Os3 2.475832 1_554
Ga3 Os2 2.591998 1_545
Ga3 Os0 2.591998 1_555
Ga3 Ga9 2.924690 1_655
Ga3 Ga4 2.924690 1_555
Ga3 Ga5 3.049086 1_654
Ga4 Os0 2.433445 1_555
Ga4 Os2 2.433445 1_555
Ga4 Ga6 2.924690 1_555
Ga4 Ga8 2.924690 1_555
Ga4 Ga7 3.049086 1_554
Ga5 Os1 2.433445 1_545
Ga5 Os3 2.433445 1_455
Ga5 Ga7 2.924690 1_445
Ga5 Ga8 3.049086 1_455
Ga5 Ga6 3.049086 1_545
Ga6 Os1 2.475832 1_555
Ga6 Os0 2.591998 1_565
Ga6 Os2 2.591998 1_555
Ga6 Ga8 2.832229 1_565
Ga6 Ga9 2.924690 1_565
Ga7 Os2 2.475832 1_556
Ga7 Os3 2.591998 1_555
Ga7 Os1 2.591998 1_655
Ga7 Ga9 3.049086 1_666
Ga8 Os3 2.475832 1_555
Ga8 Os2 2.591998 1_545
Ga8 Os0 2.591998 1_555
Ga8 Ga9 2.924690 1_655
Ga9 Os2 2.433445 1_445
Ga9 Os0 2.433445 1_555
Ga10 Os2 2.475832 1_555
Ga10 Os1 2.591998 1_655
Ga10 Os3 2.591998 1_555
Ga10 Ga11 2.924690 1_555
Ga10 Ga5 2.924690 1_665
Ga10 Ga4 3.049086 1_555
Ga10 Ga9 3.049086 1_665
Ga11 Os1 2.433445 1_555
Ga11 Os3 2.433445 1_555
Ga11 Ga7 2.924690 1_555
Ga11 Ga3 3.049086 1_556
Ga11 Ga8 3.049086 1_555
Ga11 Ga6 3.049086 1_555
Ga11 Ga2 3.049086 1_556
