# generated using pymatgen
data_Hg3SbAsS3
_symmetry_space_group_name_H-M   'P 1'
_cell_length_a   4.57962200
_cell_length_b   11.97738700
_cell_length_c   19.72718090
_cell_angle_alpha   54.30147007
_cell_angle_beta   90.00000000
_cell_angle_gamma   90.00000000
_symmetry_Int_Tables_number   1
_chemical_formula_structural   Hg3SbAsS3
_chemical_formula_sum   'Hg12 Sb4 As4 S12'
_cell_volume   878.75022691
_cell_formula_units_Z   4
loop_
 _symmetry_equiv_pos_site_id
 _symmetry_equiv_pos_as_xyz
  1  'x, y, z'
loop_
 _atom_site_type_symbol
 _atom_site_label
 _atom_site_symmetry_multiplicity
 _atom_site_fract_x
 _atom_site_fract_y
 _atom_site_fract_z
 _atom_site_occupancy
  Hg  Hg0  1  0.73209500  0.94238000  0.42390200  1
  Hg  Hg1  1  0.87631500  0.70103400  0.17936600  1
  Hg  Hg2  1  0.62368500  0.70103400  0.67936600  1
  Hg  Hg3  1  0.77872200  0.20644900  0.68771300  1
  Hg  Hg4  1  0.23209500  0.05762000  0.07609800  1
  Hg  Hg5  1  0.22127800  0.79355100  0.31228700  1
  Hg  Hg6  1  0.37631500  0.29896600  0.32063400  1
  Hg  Hg7  1  0.76790500  0.94238000  0.92390200  1
  Hg  Hg8  1  0.26790500  0.05762000  0.57609800  1
  Hg  Hg9  1  0.12368500  0.29896600  0.82063400  1
  Hg  Hg10  1  0.72127800  0.20644900  0.18771300  1
  Hg  Hg11  1  0.27872200  0.79355100  0.81228700  1
  Sb  Sb0  1  0.69177400  0.40376800  0.95034900  1
  Sb  Sb1  1  0.80822600  0.40376800  0.45034900  1
  Sb  Sb2  1  0.30822600  0.59623200  0.04965100  1
  Sb  Sb3  1  0.19177400  0.59623200  0.54965100  1
  As  As0  1  0.36255000  0.09839700  0.30823700  1
  As  As1  1  0.13745000  0.09839700  0.80823700  1
  As  As2  1  0.63745000  0.90160300  0.69176300  1
  As  As3  1  0.86255000  0.90160300  0.19176300  1
  S  S0  1  0.60347700  0.18384600  0.96548900  1
  S  S1  1  0.44229100  0.31003200  0.56925300  1
  S  S2  1  0.10347700  0.81615400  0.53451100  1
  S  S3  1  0.54367200  0.51087000  0.66558700  1
  S  S4  1  0.89652300  0.18384600  0.46548900  1
  S  S5  1  0.55770900  0.68996800  0.43074700  1
  S  S6  1  0.04367200  0.48913000  0.83441300  1
  S  S7  1  0.94229100  0.68996800  0.93074700  1
  S  S8  1  0.05770900  0.31003200  0.06925300  1
  S  S9  1  0.95632800  0.51087000  0.16558700  1
  S  S10  1  0.45632800  0.48913000  0.33441300  1
  S  S11  1  0.39652300  0.81615400  0.03451100  1
loop_
_geom_bond_atom_site_label_1
_geom_bond_atom_site_label_2
_geom_bond_distance
_geom_bond_site_symmetry_2
Hg0 S2 2.467714 1_655
Hg0 S5 3.052796 1_555
Hg1 S9 2.473553 1_555
Hg2 S3 2.473553 1_555
Hg3 S1 2.447554 1_555
Hg4 S0 2.467714 1_554
Hg4 S8 3.052796 1_555
Hg5 S5 2.447554 1_555
Hg6 S10 2.473553 1_555
Hg7 S11 2.467714 1_556
Hg7 S7 3.052796 1_555
Hg8 S4 2.467714 1_455
Hg8 S1 3.052796 1_555
Hg9 S6 2.473553 1_555
Hg10 S8 2.447554 1_655
Hg11 S7 2.447554 1_455
As0 Hg10 2.536881 1_555
As0 Hg6 2.553513 1_555
As0 Hg0 2.566392 1_545
As1 Hg3 2.536881 1_455
As1 Hg9 2.553513 1_555
As1 Hg7 2.566392 1_445
As2 Hg11 2.536881 1_555
As2 Hg2 2.553513 1_555
As2 Hg8 2.566392 1_565
As3 Hg5 2.536881 1_655
As3 Hg1 2.553513 1_555
As3 Hg4 2.566392 1_665
S0 Sb0 2.504598 1_555
S1 Sb1 2.549037 1_555
S2 Sb3 2.504598 1_555
S3 Sb3 2.478767 1_555
S4 Sb1 2.504598 1_555
S5 Sb3 2.549037 1_555
S6 Sb0 2.478767 1_455
S7 Sb2 2.549037 1_656
S8 Sb0 2.549037 1_454
S9 Sb2 2.478767 1_655
S10 Sb1 2.478767 1_555
S11 Sb2 2.504598 1_555
