# generated using pymatgen
data_In7GeIrO8
_symmetry_space_group_name_H-M   'P 1'
_cell_length_a   7.28747501
_cell_length_b   7.28747501
_cell_length_c   7.28747501
_cell_angle_alpha   60.00000000
_cell_angle_beta   60.00000000
_cell_angle_gamma   60.00000000
_symmetry_Int_Tables_number   1
_chemical_formula_structural   In7GeIrO8
_chemical_formula_sum   'In7 Ge1 Ir1 O8'
_cell_volume   273.66309754
_cell_formula_units_Z   1
loop_
 _symmetry_equiv_pos_site_id
 _symmetry_equiv_pos_as_xyz
  1  'x, y, z'
loop_
 _atom_site_type_symbol
 _atom_site_label
 _atom_site_symmetry_multiplicity
 _atom_site_fract_x
 _atom_site_fract_y
 _atom_site_fract_z
 _atom_site_occupancy
  In  In0  1  0.25003400  0.74996600  0.74996600  1
  In  In1  1  0.74996600  0.25003400  0.25003400  1
  In  In2  1  0.25003400  0.25003400  0.74996600  1
  In  In3  1  0.25003400  0.74996600  0.25003400  1
  In  In4  1  0.74996600  0.74996600  0.25003400  1
  In  In5  1  0.74996600  0.25003400  0.74996600  1
  In  In6  1  0.75000000  0.75000000  0.75000000  1
  Ge  Ge0  1  0.25000000  0.25000000  0.25000000  1
  Ir  Ir0  1  0.00000000  0.00000000  0.00000000  1
  O  O0  1  0.35102500  0.94692500  0.35102500  1
  O  O1  1  0.62970100  0.62970100  0.62970100  1
  O  O2  1  0.94692500  0.35102500  0.35102500  1
  O  O3  1  0.62970100  0.11089800  0.62970100  1
  O  O4  1  0.35102500  0.35102500  0.35102500  1
  O  O5  1  0.11089800  0.62970100  0.62970100  1
  O  O6  1  0.35102500  0.35102500  0.94692500  1
  O  O7  1  0.62970100  0.62970100  0.11089800  1
loop_
_geom_bond_atom_site_label_1
_geom_bond_atom_site_label_2
_geom_bond_distance
_geom_bond_site_symmetry_2
In0 O5 2.260483 1_555
In0 O1 2.260489 1_555
In0 O0 2.407874 1_555
In0 O6 2.407874 1_555
In0 Ir0 2.576862 1_566
In1 O3 2.260489 1_555
In1 O7 2.260489 1_555
In1 O2 2.407874 1_555
In1 O4 2.407874 1_555
In1 Ir0 2.576862 1_655
In2 O5 2.260489 1_555
In2 O3 2.260489 1_555
In2 O6 2.407874 1_555
In2 O4 2.407874 1_555
In2 Ir0 2.576862 1_556
In3 O5 2.260489 1_555
In3 O7 2.260489 1_555
In3 O0 2.407874 1_555
In3 O4 2.407874 1_555
In3 Ir0 2.576862 1_565
In4 O7 2.260483 1_555
In4 O1 2.260489 1_555
In4 O0 2.407874 1_555
In4 O2 2.407874 1_555
In4 Ir0 2.576862 1_665
In5 O3 2.260483 1_555
In5 O1 2.260489 1_555
In5 O6 2.407874 1_555
In5 O2 2.407874 1_555
In5 Ir0 2.576862 1_656
In6 O1 2.147409 1_555
In6 O3 2.147415 1_565
In6 O7 2.147415 1_556
In6 O5 2.147415 1_655
Ge0 O4 1.803356 1_555
Ge0 O2 1.803356 1_455
Ge0 O6 1.803356 1_554
Ge0 O0 1.803356 1_545
