# generated using pymatgen
data_Tb2SnS5
_symmetry_space_group_name_H-M   'P 1'
_cell_length_a   3.81002083
_cell_length_b   7.75935277
_cell_length_c   11.32777656
_cell_angle_alpha   90.00000000
_cell_angle_beta   90.00000000
_cell_angle_gamma   90.00000000
_symmetry_Int_Tables_number   1
_chemical_formula_structural   Tb2SnS5
_chemical_formula_sum   'Tb4 Sn2 S10'
_cell_volume   334.88640785
_cell_formula_units_Z   2
loop_
 _symmetry_equiv_pos_site_id
 _symmetry_equiv_pos_as_xyz
  1  'x, y, z'
loop_
 _atom_site_type_symbol
 _atom_site_label
 _atom_site_symmetry_multiplicity
 _atom_site_fract_x
 _atom_site_fract_y
 _atom_site_fract_z
 _atom_site_occupancy
  Tb  Tb0  1  0.50000000  0.97205940  0.32692236  1
  Tb  Tb1  1  0.50000000  0.47205940  0.17307764  1
  Tb  Tb2  1  0.50000000  0.52794060  0.82692236  1
  Tb  Tb3  1  0.50000000  0.02794060  0.67307764  1
  Sn  Sn0  1  -0.00000000  0.50000000  0.50000000  1
  Sn  Sn1  1  -0.00000000  -0.00000000  0.00000000  1
  S  S0  1  0.50000000  0.66900800  0.59606212  1
  S  S1  1  0.00000000  0.17595180  0.19431912  1
  S  S2  1  0.50000000  0.16900800  0.90393788  1
  S  S3  1  0.00000000  -0.00000000  0.50000000  1
  S  S4  1  0.50000000  0.83099200  0.09606212  1
  S  S5  1  -0.00000000  0.67595180  0.30568088  1
  S  S6  1  -0.00000000  0.32404820  0.69431912  1
  S  S7  1  0.00000000  0.82404820  0.80568088  1
  S  S8  1  0.50000000  0.33099200  0.40393788  1
  S  S9  1  0.00000000  0.50000000  0.00000000  1
loop_
_geom_bond_atom_site_label_1
_geom_bond_atom_site_label_2
_geom_bond_distance
_geom_bond_site_symmetry_2
S0 Sn0 2.555960 1_555
S0 Sn0 2.555960 1_655
S0 Tb2 2.834970 1_555
S0 Tb3 2.918528 1_565
S1 Sn1 2.590225 1_555
S1 Tb0 2.896260 1_545
S1 Tb0 2.896260 1_445
S1 Tb1 2.994318 1_555
S1 Tb1 2.994318 1_455
S2 Sn1 2.555960 1_556
S2 Sn1 2.555960 1_656
S2 Tb3 2.834970 1_555
S2 Tb2 2.918528 1_555
S3 Tb0 2.742255 1_545
S3 Tb3 2.742255 1_455
S3 Tb3 2.742255 1_555
S3 Tb0 2.742255 1_445
S4 Sn1 2.555960 1_665
S4 Sn1 2.555960 1_565
S4 Tb0 2.834970 1_555
S4 Tb1 2.918528 1_555
S5 Sn0 2.590225 1_555
S5 Tb1 2.896260 1_455
S5 Tb1 2.896260 1_555
S5 Tb0 2.994318 1_555
S5 Tb0 2.994318 1_455
S6 Sn0 2.590225 1_555
S6 Tb2 2.896260 1_455
S6 Tb2 2.896260 1_555
S6 Tb3 2.994318 1_455
S6 Tb3 2.994318 1_555
S7 Sn1 2.590225 1_566
S7 Tb3 2.896260 1_465
S7 Tb3 2.896260 1_565
S7 Tb2 2.994318 1_555
S7 Tb2 2.994318 1_455
S8 Sn0 2.555960 1_555
S8 Sn0 2.555960 1_655
S8 Tb1 2.834970 1_555
S8 Tb0 2.918528 1_545
S9 Tb2 2.742255 1_554
S9 Tb2 2.742255 1_454
S9 Tb1 2.742255 1_555
S9 Tb1 2.742255 1_455
