# generated using pymatgen
data_MnB4O7
_symmetry_space_group_name_H-M   'P 1'
_cell_length_a   6.43544000
_cell_length_b   8.30243324
_cell_length_c   8.30217047
_cell_angle_alpha   78.36459566
_cell_angle_beta   110.67159263
_cell_angle_gamma   110.66851619
_symmetry_Int_Tables_number   1
_chemical_formula_structural   MnB4O7
_chemical_formula_sum   'Mn4 B16 O28'
_cell_volume   386.80494775
_cell_formula_units_Z   4
loop_
 _symmetry_equiv_pos_site_id
 _symmetry_equiv_pos_as_xyz
  1  'x, y, z'
loop_
 _atom_site_type_symbol
 _atom_site_label
 _atom_site_symmetry_multiplicity
 _atom_site_fract_x
 _atom_site_fract_y
 _atom_site_fract_z
 _atom_site_occupancy
  Mn  Mn0  1  0.77763300  0.51380800  0.26382100  1
  Mn  Mn1  1  0.22237400  0.48619300  0.73618600  1
  Mn  Mn2  1  0.77759000  0.01379900  0.76379400  1
  Mn  Mn3  1  0.22240600  0.98620400  0.23620100  1
  B  B0  1  0.32361700  0.66745000  0.41742100  1
  B  B1  1  0.32359600  0.16742800  0.91743000  1
  B  B2  1  0.91512800  0.21316700  0.46319500  1
  B  B3  1  0.91513800  0.71319400  0.96319400  1
  B  B4  1  0.08487400  0.78683500  0.53680400  1
  B  B5  1  0.08486200  0.28680500  0.03680700  1
  B  B6  1  0.67638300  0.33254900  0.58257800  1
  B  B7  1  0.67640400  0.83257100  0.08257000  1
  B  B8  1  0.70678300  0.14659100  0.14659400  1
  B  B9  1  0.70680000  0.64660900  0.64660500  1
  B  B10  1  0.29319800  0.35339000  0.35339500  1
  B  B11  1  0.29321400  0.85340700  0.85340700  1
  B  B12  1  0.29320500  0.10339700  0.60340100  1
  B  B13  1  0.29320600  0.60340600  0.10339900  1
  B  B14  1  0.70679300  0.89660200  0.39659700  1
  B  B15  1  0.70679500  0.39659400  0.89660300  1
  O  O0  1  0.90072200  0.32532700  0.57539700  1
  O  O1  1  0.90072600  0.82532600  0.07540100  1
  O  O2  1  0.09927800  0.67467400  0.42460300  1
  O  O3  1  0.09927000  0.17467400  0.92460000  1
  O  O4  1  0.24281100  0.03066100  0.78065300  1
  O  O5  1  0.24280800  0.53065800  0.28065400  1
  O  O6  1  0.18868400  0.25359000  0.50359200  1
  O  O7  1  0.18868800  0.75358800  0.00359100  1
  O  O8  1  0.81132000  0.74641100  0.49640800  1
  O  O9  1  0.81130900  0.24641100  0.99640600  1
  O  O10  1  0.75719200  0.96934300  0.21934900  1
  O  O11  1  0.75719000  0.46934100  0.71934200  1
  O  O12  1  0.18973300  0.96574700  0.49005400  1
  O  O13  1  0.18973700  0.46575500  0.99005600  1
  O  O14  1  0.54420400  0.16729800  0.64296900  1
  O  O15  1  0.54419300  0.66728800  0.14297300  1
  O  O16  1  0.18972600  0.74004600  0.71574400  1
  O  O17  1  0.18973500  0.24005000  0.21574800  1
  O  O18  1  0.45579900  0.83270300  0.35703400  1
  O  O19  1  0.45580500  0.33271100  0.85702800  1
  O  O20  1  0.81027000  0.03425500  0.50994400  1
  O  O21  1  0.81026300  0.53424600  0.00994600  1
  O  O22  1  0.45579200  0.60702900  0.58270300  1
  O  O23  1  0.45579300  0.10702800  0.08270600  1
  O  O24  1  0.54421100  0.39297100  0.41729500  1
  O  O25  1  0.54420100  0.89296900  0.91729100  1
  O  O26  1  0.81027500  0.25995400  0.28425900  1
  O  O27  1  0.81026500  0.75994700  0.78425000  1
loop_
_geom_bond_atom_site_label_1
_geom_bond_atom_site_label_2
_geom_bond_distance
_geom_bond_site_symmetry_2
Mn0 O26 2.158250 1_555
Mn0 O24 2.158329 1_555
Mn0 O21 2.158335 1_555
Mn0 O15 2.158408 1_555
Mn0 O2 2.160318 1_655
Mn1 O16 2.158252 1_555
Mn1 O13 2.158312 1_555
Mn1 O22 2.158365 1_555
Mn1 O19 2.158373 1_555
Mn1 O0 2.160365 1_455
Mn2 O20 2.158239 1_555
Mn2 O14 2.158249 1_555
Mn2 O27 2.158298 1_545
Mn2 O25 2.158308 1_545
Mn2 O3 2.160546 1_655
Mn3 O17 2.158242 1_565
Mn3 O12 2.158244 1_555
Mn3 O23 2.158281 1_565
Mn3 O18 2.158301 1_555
Mn3 O1 2.160536 1_455
B0 O18 1.434261 1_555
B0 O22 1.434431 1_555
B0 O2 1.488229 1_555
B0 O5 1.592446 1_555
B1 O23 1.434387 1_556
B1 O19 1.434541 1_555
B1 O3 1.488178 1_555
B1 O4 1.592381 1_555
B2 O20 1.434296 1_555
B2 O26 1.434444 1_555
B2 O0 1.488378 1_555
B2 O6 1.592414 1_655
B3 O27 1.434459 1_555
B3 O21 1.434567 1_556
B3 O1 1.488249 1_556
B3 O7 1.592410 1_656
B4 O12 1.434299 1_555
B4 O16 1.434473 1_555
B4 O2 1.488371 1_555
B4 O8 1.592402 1_455
B5 O17 1.434443 1_555
B5 O13 1.434579 1_554
B5 O3 1.488230 1_554
B5 O9 1.592424 1_454
B6 O14 1.434255 1_555
B6 O24 1.434432 1_555
B6 O0 1.488219 1_555
B6 O11 1.592430 1_555
B7 O25 1.434412 1_554
B7 O15 1.434549 1_555
B7 O1 1.488146 1_555
B7 O10 1.592421 1_555
B8 O23 1.445362 1_555
B8 O26 1.445561 1_555
B8 O10 1.573459 1_545
B8 O9 1.573484 1_554
B9 O27 1.445309 1_555
B9 O22 1.445456 1_555
B9 O8 1.573495 1_555
B9 O11 1.573546 1_555
B10 O17 1.445333 1_555
B10 O24 1.445484 1_555
B10 O6 1.573471 1_555
B10 O5 1.573550 1_555
B11 O25 1.445345 1_555
B11 O16 1.445539 1_555
B11 O7 1.573455 1_556
B11 O4 1.573489 1_565
B12 O12 1.445400 1_545
B12 O14 1.445425 1_555
B12 O4 1.573412 1_555
B12 O6 1.573466 1_555
B13 O15 1.445348 1_555
B13 O13 1.445386 1_554
B13 O7 1.573377 1_555
B13 O5 1.573458 1_555
B14 O18 1.445400 1_555
B14 O20 1.445417 1_565
B14 O10 1.573399 1_555
B14 O8 1.573475 1_555
B15 O19 1.445365 1_555
B15 O21 1.445392 1_556
B15 O9 1.573362 1_555
B15 O11 1.573496 1_555
