# generated using pymatgen
data_KNa9In2O8
_symmetry_space_group_name_H-M   'P 1'
_cell_length_a   7.36590300
_cell_length_b   9.20003500
_cell_length_c   18.22382300
_cell_angle_alpha   90.00000000
_cell_angle_beta   90.00000000
_cell_angle_gamma   90.00000000
_symmetry_Int_Tables_number   1
_chemical_formula_structural   KNa9In2O8
_chemical_formula_sum   'K4 Na36 In8 O32'
_cell_volume   1234.96589329
_cell_formula_units_Z   4
loop_
 _symmetry_equiv_pos_site_id
 _symmetry_equiv_pos_as_xyz
  1  'x, y, z'
loop_
 _atom_site_type_symbol
 _atom_site_label
 _atom_site_symmetry_multiplicity
 _atom_site_fract_x
 _atom_site_fract_y
 _atom_site_fract_z
 _atom_site_occupancy
  K  K0  1  0.75000000  0.85887000  0.03234400  1
  K  K1  1  0.25000000  0.35887000  0.46765600  1
  K  K2  1  0.25000000  0.14113000  0.96765600  1
  K  K3  1  0.75000000  0.64113000  0.53234400  1
  Na  Na0  1  0.25000000  0.15328600  0.61383400  1
  Na  Na1  1  0.75000000  0.17728100  0.80308500  1
  Na  Na2  1  0.75000000  0.65328600  0.88616600  1
  Na  Na3  1  0.75000000  0.17645700  0.64655300  1
  Na  Na4  1  0.25000000  0.34671400  0.11383400  1
  Na  Na5  1  0.99565900  0.90074400  0.88153000  1
  Na  Na6  1  0.75000000  0.84671400  0.38616600  1
  Na  Na7  1  0.75000000  0.32271900  0.30308500  1
  Na  Na8  1  0.25000000  0.67645700  0.85344700  1
  Na  Na9  1  0.49565900  0.40074400  0.61847000  1
  Na  Na10  1  0.03687100  0.04470300  0.42909800  1
  Na  Na11  1  0.75000000  0.32354300  0.14655300  1
  Na  Na12  1  0.50434100  0.90074400  0.88153000  1
  Na  Na13  1  0.49565900  0.09925600  0.11847000  1
  Na  Na14  1  0.45770200  0.95076200  0.72506000  1
  Na  Na15  1  0.25000000  0.82354300  0.35344700  1
  Na  Na16  1  0.54229800  0.04923800  0.27494000  1
  Na  Na17  1  0.96312900  0.54470300  0.07090200  1
  Na  Na18  1  0.95770200  0.04923800  0.27494000  1
  Na  Na19  1  0.53687100  0.95529700  0.57090200  1
  Na  Na20  1  0.54229800  0.45076200  0.77494000  1
  Na  Na21  1  0.03687100  0.45529700  0.92909800  1
  Na  Na22  1  0.46312900  0.04470300  0.42909800  1
  Na  Na23  1  0.25000000  0.67728100  0.69691500  1
  Na  Na24  1  0.96312900  0.95529700  0.57090200  1
  Na  Na25  1  0.04229800  0.95076200  0.72506000  1
  Na  Na26  1  0.99565900  0.59925600  0.38153000  1
  Na  Na27  1  0.50434100  0.59925600  0.38153000  1
  Na  Na28  1  0.46312900  0.45529700  0.92909800  1
  Na  Na29  1  0.53687100  0.54470300  0.07090200  1
  Na  Na30  1  0.25000000  0.82271900  0.19691500  1
  Na  Na31  1  0.45770200  0.54923800  0.22506000  1
  Na  Na32  1  0.00434100  0.40074400  0.61847000  1
  Na  Na33  1  0.04229800  0.54923800  0.22506000  1
  Na  Na34  1  0.00434100  0.09925600  0.11847000  1
  Na  Na35  1  0.95770200  0.45076200  0.77494000  1
  In  In0  1  0.75000000  0.78378000  0.21569200  1
  In  In1  1  0.25000000  0.21622000  0.78430800  1
  In  In2  1  0.75000000  0.25732600  0.46709600  1
  In  In3  1  0.75000000  0.71622000  0.71569200  1
  In  In4  1  0.25000000  0.75732600  0.03290400  1
  In  In5  1  0.75000000  0.24267400  0.96709600  1
  In  In6  1  0.25000000  0.28378000  0.28430800  1
  In  In7  1  0.25000000  0.74267400  0.53290400  1
  O  O0  1  0.51670700  0.78335800  0.28308500  1
  O  O1  1  0.25000000  0.41269900  0.84223400  1
  O  O2  1  0.01670700  0.21664200  0.71691500  1
  O  O3  1  0.75000000  0.51049900  0.66676200  1
  O  O4  1  0.75000000  0.98950100  0.16676200  1
  O  O5  1  0.02267900  0.70121300  0.96768600  1
  O  O6  1  0.25000000  0.89618700  0.62250900  1
  O  O7  1  0.47732100  0.70121300  0.96768600  1
  O  O8  1  0.48329300  0.21664200  0.71691500  1
  O  O9  1  0.75000000  0.04086300  0.91502700  1
  O  O10  1  0.98329300  0.71664200  0.78308500  1
  O  O11  1  0.02267900  0.79878700  0.46768600  1
  O  O12  1  0.25000000  0.48950100  0.33323800  1
  O  O13  1  0.52267900  0.20121300  0.53231400  1
  O  O14  1  0.25000000  0.01049900  0.83323800  1
  O  O15  1  0.75000000  0.58730100  0.15776600  1
  O  O16  1  0.48329300  0.28335800  0.21691500  1
  O  O17  1  0.75000000  0.39618700  0.87749100  1
  O  O18  1  0.52267900  0.29878700  0.03231400  1
  O  O19  1  0.97732100  0.20121300  0.53231400  1
  O  O20  1  0.25000000  0.95913700  0.08497300  1
  O  O21  1  0.75000000  0.10381300  0.37749100  1
  O  O22  1  0.25000000  0.08730100  0.34223400  1
  O  O23  1  0.75000000  0.91269900  0.65776600  1
  O  O24  1  0.98329300  0.78335800  0.28308500  1
  O  O25  1  0.75000000  0.45913700  0.41502700  1
  O  O26  1  0.25000000  0.60381300  0.12250900  1
  O  O27  1  0.25000000  0.54086300  0.58497300  1
  O  O28  1  0.01670700  0.28335800  0.21691500  1
  O  O29  1  0.97732100  0.29878700  0.03231400  1
  O  O30  1  0.47732100  0.79878700  0.46768600  1
  O  O31  1  0.51670700  0.71664200  0.78308500  1
loop_
_geom_bond_atom_site_label_1
_geom_bond_atom_site_label_2
_geom_bond_distance
_geom_bond_site_symmetry_2
K0 O9 2.715568 1_564
K0 O4 2.728541 1_555
K0 O5 2.743431 1_654
K0 O7 2.743431 1_554
K1 O27 2.715568 1_555
K1 O12 2.728541 1_555
K1 O19 2.743431 1_455
K1 O13 2.743431 1_555
K2 O20 2.715568 1_546
K2 O14 2.728541 1_555
K2 O18 2.743431 1_556
K2 O29 2.743431 1_456
K3 O25 2.715568 1_555
K3 O3 2.728541 1_555
K3 O11 2.743431 1_655
K3 O30 2.743431 1_555
Na0 O6 2.370597 1_545
Na0 O13 2.536853 1_555
Na0 O19 2.536853 1_455
Na0 O8 2.611813 1_555
Na0 O2 2.611813 1_555
Na1 O9 2.395161 1_555
Na1 O17 2.427879 1_555
Na1 O2 2.540970 1_655
Na1 O8 2.540970 1_555
Na2 O17 2.370597 1_555
Na2 O5 2.536853 1_655
Na2 O7 2.536853 1_555
Na2 O10 2.611813 1_555
Na2 O31 2.611813 1_555
Na3 O8 2.374930 1_555
Na3 O2 2.374930 1_655
Na3 O23 2.435172 1_545
Na3 O13 2.681372 1_555
Na3 O19 2.681372 1_555
Na4 O26 2.370597 1_555
Na4 O18 2.536853 1_555
Na4 O29 2.536853 1_455
Na4 O28 2.611813 1_555
Na4 O16 2.611813 1_555
Na5 O14 2.303026 1_665
Na5 O9 2.304064 1_565
Na5 O5 2.423750 1_655
Na5 O10 2.468940 1_555
Na6 O21 2.370597 1_565
Na6 O11 2.536853 1_655
Na6 O30 2.536853 1_555
Na6 O24 2.611813 1_555
Na6 O0 2.611813 1_555
Na7 O25 2.395161 1_555
Na7 O21 2.427879 1_555
Na7 O28 2.540970 1_655
Na7 O16 2.540970 1_555
Na8 O31 2.374930 1_555
Na8 O10 2.374930 1_455
Na8 O1 2.435172 1_555
Na8 O7 2.681372 1_555
Na8 O5 2.681372 1_555
Na9 O3 2.303026 1_555
Na9 O27 2.304064 1_555
Na9 O13 2.423750 1_555
Na9 O8 2.468940 1_555
Na10 O22 2.263627 1_555
Na10 O11 2.371511 1_545
Na10 O21 2.375978 1_455
Na10 O19 2.409115 1_455
Na11 O28 2.374930 1_655
Na11 O16 2.374930 1_555
Na11 O15 2.435172 1_555
Na11 O29 2.681372 1_555
Na11 O18 2.681372 1_555
Na12 O14 2.303026 1_565
Na12 O9 2.304064 1_565
Na12 O7 2.423750 1_555
Na12 O31 2.468940 1_555
Na13 O4 2.303026 1_545
Na13 O20 2.304064 1_545
Na13 O18 2.423750 1_555
Na13 O16 2.468940 1_555
Na14 O31 2.438526 1_555
Na14 O8 2.457844 1_565
Na14 O6 2.466862 1_555
Na14 O23 2.502428 1_555
Na14 O14 2.555222 1_565
Na15 O0 2.374930 1_555
Na15 O24 2.374930 1_455
Na15 O22 2.435172 1_565
Na15 O30 2.681372 1_555
Na15 O11 2.681372 1_555
Na16 O16 2.438526 1_555
Na16 O0 2.457844 1_545
Na16 O21 2.466862 1_555
Na16 O22 2.502428 1_555
Na16 O4 2.555222 1_545
Na17 O15 2.263627 1_555
Na17 O29 2.371511 1_555
Na17 O26 2.375978 1_655
Na17 O5 2.409115 1_654
Na18 O28 2.438526 1_655
Na18 O24 2.457844 1_545
Na18 O21 2.466862 1_555
Na18 O22 2.502428 1_655
Na18 O4 2.555222 1_545
Na19 O23 2.263627 1_555
Na19 O13 2.371511 1_565
Na19 O6 2.375978 1_555
Na19 O30 2.409115 1_555
Na20 O8 2.438526 1_555
Na20 O31 2.457844 1_555
Na20 O17 2.466862 1_555
Na20 O1 2.502428 1_555
Na20 O3 2.555222 1_555
Na21 O1 2.263627 1_555
Na21 O5 2.371511 1_555
Na21 O17 2.375978 1_455
Na21 O29 2.409115 1_456
Na22 O22 2.263627 1_555
Na22 O30 2.371511 1_545
Na22 O21 2.375978 1_555
Na22 O13 2.409115 1_555
Na23 O27 2.395161 1_555
Na23 O6 2.427879 1_555
Na23 O10 2.540970 1_455
Na23 O31 2.540970 1_555
Na24 O23 2.263627 1_555
Na24 O19 2.371511 1_565
Na24 O6 2.375978 1_655
Na24 O11 2.409115 1_655
Na25 O10 2.438526 1_455
Na25 O2 2.457844 1_565
Na25 O6 2.466862 1_555
Na25 O23 2.502428 1_455
Na25 O14 2.555222 1_565
Na26 O12 2.303026 1_655
Na26 O25 2.304064 1_555
Na26 O11 2.423750 1_655
Na26 O24 2.468940 1_555
Na27 O12 2.303026 1_555
Na27 O25 2.304064 1_555
Na27 O30 2.423750 1_555
Na27 O0 2.468940 1_555
Na28 O1 2.263627 1_555
Na28 O7 2.371511 1_555
Na28 O17 2.375978 1_555
Na28 O18 2.409115 1_556
Na29 O15 2.263627 1_555
Na29 O18 2.371511 1_555
Na29 O26 2.375978 1_555
Na29 O7 2.409115 1_554
Na30 O20 2.395161 1_555
Na30 O26 2.427879 1_555
Na30 O24 2.540970 1_455
Na30 O0 2.540970 1_555
Na31 O0 2.438526 1_555
Na31 O16 2.457844 1_555
Na31 O26 2.466862 1_555
Na31 O15 2.502428 1_555
Na31 O12 2.555222 1_555
Na32 O3 2.303026 1_455
Na32 O27 2.304064 1_555
Na32 O19 2.423750 1_455
Na32 O2 2.468940 1_555
Na33 O24 2.438526 1_455
Na33 O28 2.457844 1_555
Na33 O26 2.466862 1_555
Na33 O15 2.502428 1_455
Na33 O12 2.555222 1_555
Na34 O4 2.303026 1_445
Na34 O20 2.304064 1_545
Na34 O29 2.423750 1_455
Na34 O28 2.468940 1_555
Na35 O2 2.438526 1_655
Na35 O10 2.457844 1_555
Na35 O17 2.466862 1_555
Na35 O1 2.502428 1_655
Na35 O3 2.555222 1_555
In0 O4 2.092176 1_555
In0 O15 2.093282 1_555
In0 O0 2.112187 1_555
In0 O24 2.112187 1_555
In1 O14 2.092176 1_555
In1 O1 2.093282 1_555
In1 O8 2.112187 1_555
In1 O2 2.112187 1_555
In2 O25 2.085095 1_555
In2 O13 2.117259 1_555
In2 O19 2.117259 1_555
In2 O21 2.158975 1_555
In3 O3 2.092176 1_555
In3 O23 2.093282 1_555
In3 O31 2.112187 1_555
In3 O10 2.112187 1_555
In4 O20 2.085095 1_555
In4 O7 2.117259 1_554
In4 O5 2.117259 1_554
In4 O26 2.158975 1_555
In5 O9 2.085095 1_555
In5 O29 2.117259 1_556
In5 O18 2.117259 1_556
In5 O17 2.158975 1_555
In6 O12 2.092176 1_555
In6 O22 2.093282 1_555
In6 O16 2.112187 1_555
In6 O28 2.112187 1_555
In7 O27 2.085095 1_555
In7 O30 2.117259 1_555
In7 O11 2.117259 1_555
In7 O6 2.158975 1_555
