# generated using pymatgen
data_CaH2(CO2)2
_symmetry_space_group_name_H-M   'P 1'
_cell_length_a   6.88376200
_cell_length_b   6.88376200
_cell_length_c   9.49941200
_cell_angle_alpha   90.00000000
_cell_angle_beta   90.00000000
_cell_angle_gamma   90.00000000
_symmetry_Int_Tables_number   1
_chemical_formula_structural   CaH2(CO2)2
_chemical_formula_sum   'Ca4 H8 C8 O16'
_cell_volume   450.14084002
_cell_formula_units_Z   4
loop_
 _symmetry_equiv_pos_site_id
 _symmetry_equiv_pos_as_xyz
  1  'x, y, z'
loop_
 _atom_site_type_symbol
 _atom_site_label
 _atom_site_symmetry_multiplicity
 _atom_site_fract_x
 _atom_site_fract_y
 _atom_site_fract_z
 _atom_site_occupancy
  Ca  Ca0  1  0.78632300  0.78632300  0.00000000  1
  Ca  Ca1  1  0.71367700  0.28632300  0.75000000  1
  Ca  Ca2  1  0.21367700  0.21367700  0.50000000  1
  Ca  Ca3  1  0.28632300  0.71367700  0.25000000  1
  H  H0  1  0.12994500  0.67154100  0.67449800  1
  H  H1  1  0.37005500  0.17154100  0.07550200  1
  H  H2  1  0.17154100  0.37005500  0.92449800  1
  H  H3  1  0.62994500  0.82845900  0.57550200  1
  H  H4  1  0.32845900  0.87005500  0.82550200  1
  H  H5  1  0.82845900  0.62994500  0.42449800  1
  H  H6  1  0.67154100  0.12994500  0.32550200  1
  H  H7  1  0.87005500  0.32845900  0.17449800  1
  C  C0  1  0.29629800  0.81037200  0.93139600  1
  C  C1  1  0.81037200  0.29629800  0.06860400  1
  C  C2  1  0.79629800  0.68962800  0.31860400  1
  C  C3  1  0.68962800  0.79629800  0.68139600  1
  C  C4  1  0.31037200  0.20370200  0.18139600  1
  C  C5  1  0.70370200  0.18962800  0.43139600  1
  C  C6  1  0.20370200  0.31037200  0.81860400  1
  C  C7  1  0.18962800  0.70370200  0.56860400  1
  O  O0  1  0.37849600  0.28110000  0.78492100  1
  O  O1  1  0.06101800  0.27722500  0.73653600  1
  O  O2  1  0.77722500  0.43898200  0.98653600  1
  O  O3  1  0.28110000  0.37849600  0.21507900  1
  O  O4  1  0.21890000  0.87849600  0.53492100  1
  O  O5  1  0.56101800  0.22277500  0.51346400  1
  O  O6  1  0.87849600  0.21890000  0.46507900  1
  O  O7  1  0.27722500  0.06101800  0.26346400  1
  O  O8  1  0.62150400  0.71890000  0.28492100  1
  O  O9  1  0.22277500  0.56101800  0.48653600  1
  O  O10  1  0.12150400  0.78110000  0.96507900  1
  O  O11  1  0.72277500  0.93898200  0.76346400  1
  O  O12  1  0.78110000  0.12150400  0.03492100  1
  O  O13  1  0.71890000  0.62150400  0.71507900  1
  O  O14  1  0.43898200  0.77722500  0.01346400  1
  O  O15  1  0.93898200  0.72277500  0.23653600  1
loop_
_geom_bond_atom_site_label_1
_geom_bond_atom_site_label_2
_geom_bond_distance
_geom_bond_site_symmetry_2
Ca0 O12 2.331308 1_565
Ca0 O10 2.331308 1_654
Ca0 O14 2.395250 1_555
Ca0 O2 2.395250 1_554
Ca0 O15 2.518826 1_555
Ca0 O11 2.518826 1_554
Ca1 O0 2.331308 1_555
Ca1 O13 2.331308 1_555
Ca1 O1 2.395250 1_655
Ca1 O11 2.395250 1_545
Ca1 O2 2.518826 1_555
Ca1 O5 2.518826 1_555
Ca2 O4 2.331308 1_545
Ca2 O6 2.331308 1_455
Ca2 O5 2.395250 1_555
Ca2 O9 2.395250 1_555
Ca2 O1 2.518826 1_555
Ca2 O7 2.518826 1_555
Ca3 O3 2.331308 1_555
Ca3 O8 2.331308 1_555
Ca3 O7 2.395250 1_565
Ca3 O15 2.395250 1_455
Ca3 O9 2.518826 1_555
Ca3 O14 2.518826 1_555
C0 H4 1.108919 1_555
C0 O10 1.261257 1_555
C0 O14 1.274582 1_556
C1 H7 1.108919 1_555
C1 O12 1.261257 1_555
C1 O2 1.274582 1_554
C2 H5 1.108919 1_555
C2 O8 1.261257 1_555
C2 O15 1.274582 1_555
C3 H3 1.108919 1_555
C3 O13 1.261257 1_555
C3 O11 1.274582 1_555
C4 H1 1.108919 1_555
C4 O3 1.261257 1_555
C4 O7 1.274582 1_555
C5 H6 1.108919 1_555
C5 O6 1.261257 1_555
C5 O5 1.274582 1_555
C6 H2 1.108919 1_555
C6 O0 1.261257 1_555
C6 O1 1.274582 1_555
C7 H0 1.108919 1_555
C7 O4 1.261257 1_555
C7 O9 1.274582 1_555
