# generated using pymatgen
data_BaBi12Mo4WO34
_symmetry_space_group_name_H-M   'P 1'
_cell_length_a   5.92530700
_cell_length_b   11.96990800
_cell_length_c   25.57168778
_cell_angle_alpha   77.14437591
_cell_angle_beta   90.00000000
_cell_angle_gamma   90.00000000
_symmetry_Int_Tables_number   1
_chemical_formula_structural   BaBi12Mo4WO34
_chemical_formula_sum   'Ba2 Bi24 Mo8 W2 O68'
_cell_volume   1768.21957551
_cell_formula_units_Z   2
loop_
 _symmetry_equiv_pos_site_id
 _symmetry_equiv_pos_as_xyz
  1  'x, y, z'
loop_
 _atom_site_type_symbol
 _atom_site_label
 _atom_site_symmetry_multiplicity
 _atom_site_fract_x
 _atom_site_fract_y
 _atom_site_fract_z
 _atom_site_occupancy
  Ba  Ba0  1  0.50000000  0.50000000  0.50000000  1
  Ba  Ba1  1  0.50000000  0.50000000  0.00000000  1
  Bi  Bi0  1  0.47363800  0.63853900  0.32149600  1
  Bi  Bi1  1  0.52559700  0.26345700  0.84133500  1
  Bi  Bi2  1  0.02795600  0.07868300  0.90687700  1
  Bi  Bi3  1  0.96591500  0.24501500  0.10244200  1
  Bi  Bi4  1  0.52559700  0.73654300  0.65866500  1
  Bi  Bi5  1  0.07138100  0.84404700  0.24509000  1
  Bi  Bi6  1  0.02795600  0.92131700  0.59312300  1
  Bi  Bi7  1  0.03408500  0.75498500  0.89755800  1
  Bi  Bi8  1  0.57016000  0.04233200  0.17496100  1
  Bi  Bi9  1  0.42984000  0.04233200  0.67496100  1
  Bi  Bi10  1  0.96591500  0.75498500  0.39755800  1
  Bi  Bi11  1  0.52636200  0.36146100  0.67850400  1
  Bi  Bi12  1  0.47363800  0.36146100  0.17850400  1
  Bi  Bi13  1  0.47440300  0.73654300  0.15866500  1
  Bi  Bi14  1  0.97204400  0.07868300  0.40687700  1
  Bi  Bi15  1  0.42984000  0.95766800  0.82503900  1
  Bi  Bi16  1  0.97204400  0.92131700  0.09312300  1
  Bi  Bi17  1  0.47440300  0.26345700  0.34133500  1
  Bi  Bi18  1  0.92861900  0.15595300  0.75491000  1
  Bi  Bi19  1  0.07138100  0.15595300  0.25491000  1
  Bi  Bi20  1  0.03408500  0.24501500  0.60244200  1
  Bi  Bi21  1  0.92861900  0.84404700  0.74509000  1
  Bi  Bi22  1  0.57016000  0.95766800  0.32503900  1
  Bi  Bi23  1  0.52636200  0.63853900  0.82149600  1
  Mo  Mo0  1  0.52354600  0.84526400  0.98634000  1
  Mo  Mo1  1  0.99168000  0.42327100  0.42007300  1
  Mo  Mo2  1  0.99168000  0.57672900  0.07992700  1
  Mo  Mo3  1  0.00832000  0.42327100  0.92007300  1
  Mo  Mo4  1  0.47645400  0.15473600  0.01366000  1
  Mo  Mo5  1  0.47645400  0.84526400  0.48634000  1
  Mo  Mo6  1  0.00832000  0.57672900  0.57992700  1
  Mo  Mo7  1  0.52354600  0.15473600  0.51366000  1
  W  W0  1  0.02189200  0.50000000  0.75000000  1
  W  W1  1  0.97810800  0.50000000  0.25000000  1
  O  O0  1  0.74588600  0.49800100  0.58526400  1
  O  O1  1  0.74588600  0.50199900  0.91473600  1
  O  O2  1  0.41341700  0.26996700  0.54164500  1
  O  O3  1  0.21617400  0.76429400  0.33375200  1
  O  O4  1  0.75611200  0.00000000  0.25000000  1
  O  O5  1  0.62343600  0.26521600  0.75830500  1
  O  O6  1  0.72427400  0.13374000  0.34090000  1
  O  O7  1  0.79017800  0.11352800  0.54719000  1
  O  O8  1  0.76474800  0.12324000  0.84492100  1
  O  O9  1  0.91064700  0.93534700  0.36747500  1
  O  O10  1  0.37656400  0.26521600  0.25830500  1
  O  O11  1  0.23525200  0.12324000  0.34492100  1
  O  O12  1  0.54521500  0.20489100  0.44194400  1
  O  O13  1  0.15831300  0.50689500  0.19215900  1
  O  O14  1  0.32241100  0.95888700  0.96948300  1
  O  O15  1  0.84168700  0.49310500  0.80784100  1
  O  O16  1  0.37656400  0.73478400  0.24169500  1
  O  O17  1  0.25411400  0.49800100  0.08526400  1
  O  O18  1  0.15831300  0.49310500  0.30784100  1
  O  O19  1  0.91064700  0.06465300  0.13252500  1
  O  O20  1  0.25411400  0.50199900  0.41473600  1
  O  O21  1  0.41341700  0.73003300  0.95835500  1
  O  O22  1  0.67758900  0.95888700  0.46948300  1
  O  O23  1  0.07659100  0.37870500  0.98953800  1
  O  O24  1  0.84168700  0.50689500  0.69215900  1
  O  O25  1  0.76474800  0.87676000  0.65507900  1
  O  O26  1  0.58658300  0.26996700  0.04164500  1
  O  O27  1  0.23316500  0.47690400  0.60581000  1
  O  O28  1  0.54521500  0.79510900  0.05805600  1
  O  O29  1  0.92340900  0.37870500  0.48953800  1
  O  O30  1  0.28593900  0.22839000  0.66794400  1
  O  O31  1  0.08935300  0.06465300  0.63252500  1
  O  O32  1  0.79017800  0.88647200  0.95281000  1
  O  O33  1  0.07659100  0.62129500  0.51046200  1
  O  O34  1  0.26824100  0.00000000  0.25000000  1
  O  O35  1  0.01040000  0.70262700  0.10774100  1
  O  O36  1  0.23316500  0.52309600  0.89419000  1
  O  O37  1  0.20323400  0.37364800  0.75896100  1
  O  O38  1  0.92340900  0.62129500  0.01046200  1
  O  O39  1  0.67758900  0.04111300  0.03051700  1
  O  O40  1  0.71406100  0.77161000  0.33205600  1
  O  O41  1  0.76683500  0.52309600  0.39419000  1
  O  O42  1  0.24388800  0.00000000  0.75000000  1
  O  O43  1  0.08935300  0.93534700  0.86747500  1
  O  O44  1  0.20982200  0.11352800  0.04719000  1
  O  O45  1  0.73175900  0.00000000  0.75000000  1
  O  O46  1  0.78382600  0.76429400  0.83375200  1
  O  O47  1  0.72427400  0.86626000  0.15910000  1
  O  O48  1  0.01040000  0.29737300  0.39225900  1
  O  O49  1  0.27572600  0.86626000  0.65910000  1
  O  O50  1  0.45478500  0.20489100  0.94194400  1
  O  O51  1  0.27572600  0.13374000  0.84090000  1
  O  O52  1  0.28593900  0.77161000  0.83205600  1
  O  O53  1  0.21617400  0.23570600  0.16624800  1
  O  O54  1  0.58658300  0.73003300  0.45835500  1
  O  O55  1  0.79676600  0.62635200  0.24103900  1
  O  O56  1  0.45478500  0.79510900  0.55805600  1
  O  O57  1  0.32241100  0.04111300  0.53051700  1
  O  O58  1  0.98960000  0.70262700  0.60774100  1
  O  O59  1  0.78382600  0.23570600  0.66624800  1
  O  O60  1  0.62343600  0.73478400  0.74169500  1
  O  O61  1  0.20982200  0.88647200  0.45281000  1
  O  O62  1  0.20323400  0.62635200  0.74103900  1
  O  O63  1  0.23525200  0.87676000  0.15507900  1
  O  O64  1  0.79676600  0.37364800  0.25896100  1
  O  O65  1  0.98960000  0.29737300  0.89225900  1
  O  O66  1  0.76683500  0.47690400  0.10581000  1
  O  O67  1  0.71406100  0.22839000  0.16794400  1
loop_
_geom_bond_atom_site_label_1
_geom_bond_atom_site_label_2
_geom_bond_distance
_geom_bond_site_symmetry_2
Ba0 O20 2.618007 1_555
Ba0 O0 2.618007 1_555
Ba0 O2 2.770212 1_555
Ba0 O54 2.770212 1_555
Ba0 O29 2.940514 1_555
Ba0 O33 2.940514 1_555
Ba0 O27 3.092638 1_555
Ba0 O41 3.092638 1_555
Ba1 O1 2.618007 1_554
Ba1 O17 2.618007 1_555
Ba1 O26 2.770212 1_555
Ba1 O21 2.770212 1_554
Ba1 O23 2.940514 1_554
Ba1 O38 2.940514 1_555
Ba1 O36 3.092638 1_554
Ba1 O66 3.092638 1_555
Bi0 O16 2.185442 1_555
Bi0 O40 2.197934 1_555
Bi0 O3 2.213893 1_555
Bi0 O18 2.629415 1_555
Bi0 O41 2.690748 1_555
Bi1 O51 2.147267 1_555
Bi1 O8 2.182867 1_555
Bi1 O5 2.196516 1_555
Bi1 O50 2.546355 1_555
Bi2 O8 2.202460 1_455
Bi2 O43 2.204656 1_545
Bi2 O51 2.222915 1_555
Bi2 O65 2.570662 1_455
Bi2 O14 2.577164 1_545
Bi2 O32 2.730487 1_445
Bi3 O19 2.149629 1_555
Bi3 O53 2.189200 1_655
Bi3 O67 2.218983 1_555
Bi3 O26 2.711380 1_555
Bi3 O44 2.748014 1_655
Bi4 O49 2.147267 1_555
Bi4 O25 2.182867 1_555
Bi4 O60 2.196516 1_555
Bi4 O56 2.546355 1_555
Bi5 O34 2.228320 1_565
Bi5 O16 2.244670 1_555
Bi5 O3 2.413427 1_555
Bi5 O63 2.448071 1_555
Bi5 O4 2.663543 1_465
Bi6 O25 2.202460 1_455
Bi6 O31 2.204656 1_565
Bi6 O49 2.222915 1_555
Bi6 O58 2.570662 1_455
Bi6 O57 2.577164 1_565
Bi6 O7 2.730487 1_465
Bi7 O43 2.149629 1_555
Bi7 O46 2.189200 1_455
Bi7 O52 2.218983 1_555
Bi7 O21 2.711380 1_555
Bi7 O32 2.748014 1_455
Bi8 O4 2.172597 1_555
Bi8 O19 2.278202 1_555
Bi8 O67 2.354008 1_555
Bi8 O47 2.412593 1_545
Bi8 O34 2.589701 1_555
Bi9 O42 2.172597 1_555
Bi9 O31 2.278202 1_555
Bi9 O30 2.354008 1_555
Bi9 O49 2.412593 1_545
Bi9 O45 2.589701 1_555
Bi10 O9 2.149629 1_555
Bi10 O3 2.189200 1_655
Bi10 O40 2.218983 1_555
Bi10 O54 2.711380 1_555
Bi10 O61 2.748014 1_655
Bi11 O5 2.185442 1_555
Bi11 O30 2.197934 1_555
Bi11 O59 2.213893 1_555
Bi11 O24 2.629415 1_555
Bi11 O27 2.690748 1_555
Bi12 O10 2.185442 1_555
Bi12 O67 2.197934 1_555
Bi12 O53 2.213893 1_555
Bi12 O13 2.629415 1_555
Bi12 O66 2.690748 1_555
Bi13 O47 2.147267 1_555
Bi13 O63 2.182867 1_555
Bi13 O16 2.196516 1_555
Bi13 O28 2.546355 1_555
Bi14 O11 2.202460 1_655
Bi14 O9 2.204656 1_545
Bi14 O6 2.222915 1_555
Bi14 O48 2.570662 1_655
Bi14 O22 2.577164 1_545
Bi14 O61 2.730487 1_645
Bi15 O42 2.172597 1_565
Bi15 O43 2.278202 1_555
Bi15 O52 2.354008 1_555
Bi15 O51 2.412593 1_565
Bi15 O45 2.589701 1_565
Bi16 O63 2.202460 1_655
Bi16 O19 2.204656 1_565
Bi16 O47 2.222915 1_555
Bi16 O35 2.570662 1_655
Bi16 O39 2.577164 1_565
Bi16 O44 2.730487 1_665
Bi17 O6 2.147267 1_555
Bi17 O11 2.182867 1_555
Bi17 O10 2.196516 1_555
Bi17 O12 2.546355 1_555
Bi18 O45 2.228320 1_555
Bi18 O5 2.244670 1_555
Bi18 O59 2.413427 1_555
Bi18 O8 2.448071 1_555
Bi18 O42 2.663543 1_655
Bi19 O34 2.228320 1_555
Bi19 O10 2.244670 1_555
Bi19 O53 2.413427 1_555
Bi19 O11 2.448071 1_555
Bi19 O4 2.663543 1_455
Bi20 O31 2.149629 1_555
Bi20 O59 2.189200 1_455
Bi20 O30 2.218983 1_555
Bi20 O2 2.711380 1_555
Bi20 O7 2.748014 1_455
Bi21 O45 2.228320 1_565
Bi21 O60 2.244670 1_555
Bi21 O46 2.413427 1_555
Bi21 O25 2.448071 1_555
Bi21 O42 2.663543 1_665
Bi22 O4 2.172597 1_565
Bi22 O9 2.278202 1_555
Bi22 O40 2.354008 1_555
Bi22 O6 2.412593 1_565
Bi22 O34 2.589701 1_565
Bi23 O60 2.185442 1_555
Bi23 O52 2.197934 1_555
Bi23 O46 2.213893 1_555
Bi23 O15 2.629415 1_555
Bi23 O36 2.690748 1_555
Mo0 O14 1.787468 1_555
Mo0 O28 1.802822 1_556
Mo0 O21 1.810981 1_555
Mo0 O32 1.812810 1_555
Mo1 O29 1.783793 1_555
Mo1 O48 1.807250 1_655
Mo1 O20 1.807618 1_655
Mo1 O41 1.813527 1_555
Mo2 O38 1.783793 1_555
Mo2 O35 1.807250 1_655
Mo2 O17 1.807618 1_655
Mo2 O66 1.813527 1_555
Mo3 O23 1.783793 1_555
Mo3 O65 1.807250 1_455
Mo3 O1 1.807618 1_455
Mo3 O36 1.813527 1_555
Mo4 O39 1.787468 1_555
Mo4 O50 1.802822 1_554
Mo4 O26 1.810981 1_555
Mo4 O44 1.812810 1_555
Mo5 O22 1.787468 1_555
Mo5 O56 1.802822 1_555
Mo5 O54 1.810981 1_555
Mo5 O61 1.812810 1_555
Mo6 O33 1.783793 1_555
Mo6 O58 1.807250 1_455
Mo6 O0 1.807618 1_455
Mo6 O27 1.813527 1_555
Mo7 O57 1.787468 1_555
Mo7 O12 1.802822 1_555
Mo7 O2 1.810981 1_555
Mo7 O7 1.812810 1_555
O13 W1 1.811170 1_455
O15 W0 1.811170 1_655
O18 W1 1.811170 1_455
O24 W0 1.811170 1_655
O37 W0 1.827642 1_555
O55 W1 1.827642 1_555
O62 W0 1.827642 1_555
O64 W1 1.827642 1_555
