# generated using pymatgen
data_Ti3Fe9O16
_symmetry_space_group_name_H-M   'P 1'
_cell_length_a   6.04585552
_cell_length_b   12.08126773
_cell_length_c   15.94356903
_cell_angle_alpha   40.92860352
_cell_angle_beta   55.37109306
_cell_angle_gamma   59.75695670
_symmetry_Int_Tables_number   1
_chemical_formula_structural   Ti3Fe9O16
_chemical_formula_sum   'Ti6 Fe18 O32'
_cell_volume   621.76620205
_cell_formula_units_Z   2
loop_
 _symmetry_equiv_pos_site_id
 _symmetry_equiv_pos_as_xyz
  1  'x, y, z'
loop_
 _atom_site_type_symbol
 _atom_site_label
 _atom_site_symmetry_multiplicity
 _atom_site_fract_x
 _atom_site_fract_y
 _atom_site_fract_z
 _atom_site_occupancy
  Ti  Ti0  1  0.00000000  0.62500000  0.25000000  1
  Ti  Ti1  1  0.51360300  0.36692800  0.24908900  1
  Ti  Ti2  1  0.01609000  0.37009300  0.74730800  1
  Ti  Ti3  1  0.48639700  0.88307200  0.25091100  1
  Ti  Ti4  1  0.98391000  0.87990700  0.75269200  1
  Ti  Ti5  1  0.50000000  0.62500000  0.75000000  1
  Fe  Fe0  1  0.12188400  0.02728600  0.06456200  1
  Fe  Fe1  1  0.00000000  0.12500000  0.25000000  1
  Fe  Fe2  1  0.12118900  0.52910300  0.06425100  1
  Fe  Fe3  1  0.50000000  0.12500000  0.25000000  1
  Fe  Fe4  1  0.12232000  0.27791000  0.56174800  1
  Fe  Fe5  1  0.50771400  0.00031000  0.49730700  1
  Fe  Fe6  1  0.50000000  0.62500000  0.25000000  1
  Fe  Fe7  1  0.50000000  0.12500000  0.75000000  1
  Fe  Fe8  1  0.49898100  0.49686600  0.50252700  1
  Fe  Fe9  1  0.11922900  0.77901500  0.56727500  1
  Fe  Fe10  1  0.87811600  0.22271400  0.43543800  1
  Fe  Fe11  1  0.50226100  0.37231900  0.74885200  1
  Fe  Fe12  1  0.49228600  0.24969000  0.00269300  1
  Fe  Fe13  1  0.87881100  0.72089700  0.43574900  1
  Fe  Fe14  1  0.49773900  0.87768100  0.75114800  1
  Fe  Fe15  1  0.50101900  0.75313400  0.99747300  1
  Fe  Fe16  1  0.88077100  0.47098500  0.93272500  1
  Fe  Fe17  1  0.87768000  0.97209000  0.93825200  1
  O  O0  1  0.27116600  0.05011400  0.13081300  1
  O  O1  1  0.25431100  0.29906300  0.12997800  1
  O  O2  1  0.72777300  0.05165200  0.13370900  1
  O  O3  1  0.27222700  0.19834700  0.36629100  1
  O  O4  1  0.24722600  0.55891300  0.13658000  1
  O  O5  1  0.24853900  0.44630900  0.36117400  1
  O  O6  1  0.24042600  0.79526500  0.13390100  1
  O  O7  1  0.24387200  0.04315800  0.63334300  1
  O  O8  1  0.73390400  0.31739800  0.13039100  1
  O  O9  1  0.72883400  0.19988500  0.36918700  1
  O  O10  1  0.72136600  0.55541700  0.13320100  1
  O  O11  1  0.27863400  0.69458300  0.36679900  1
  O  O12  1  0.23329500  0.31886100  0.62946500  1
  O  O13  1  0.26609600  0.93260200  0.36960900  1
  O  O14  1  0.75957400  0.45473500  0.36609900  1
  O  O15  1  0.23231200  0.20178700  0.86752500  1
  O  O16  1  0.23672800  0.54808800  0.63389800  1
  O  O17  1  0.75146100  0.80369100  0.13882600  1
  O  O18  1  0.76768800  0.04821400  0.63247500  1
  O  O19  1  0.75277400  0.69108700  0.36342000  1
  O  O20  1  0.72903000  0.31239000  0.62830700  1
  O  O21  1  0.27677900  0.44654000  0.86497600  1
  O  O22  1  0.25467100  0.80556300  0.63771400  1
  O  O23  1  0.74568900  0.95093700  0.37002200  1
  O  O24  1  0.25420700  0.69191000  0.86280400  1
  O  O25  1  0.75612800  0.20684200  0.86665700  1
  O  O26  1  0.74579300  0.55809000  0.63719600  1
  O  O27  1  0.74532900  0.44443600  0.86228600  1
  O  O28  1  0.72322100  0.80345900  0.63502400  1
  O  O29  1  0.27097000  0.93761100  0.87169300  1
  O  O30  1  0.76327200  0.70191200  0.86610200  1
  O  O31  1  0.76670500  0.93114000  0.87053500  1
loop_
_geom_bond_atom_site_label_1
_geom_bond_atom_site_label_2
_geom_bond_distance
_geom_bond_site_symmetry_2
Fe0 O2 1.943670 1_455
Fe0 O0 1.944417 1_555
Fe0 O15 1.945704 1_554
Fe0 O6 1.946133 1_545
Fe1 O1 2.068948 1_555
Fe1 O23 2.068948 1_445
Fe1 O13 2.156290 1_545
Fe1 O8 2.156290 1_455
Fe1 O9 2.163393 1_455
Fe1 O0 2.163401 1_555
Fe2 O1 1.942765 1_555
Fe2 O10 1.971451 1_455
Fe2 O4 1.985665 1_555
Fe2 O24 1.985732 1_554
Fe3 O23 2.072128 1_545
Fe3 O1 2.072128 1_555
Fe3 O3 2.114429 1_555
Fe3 O2 2.114438 1_555
Fe3 O8 2.141877 1_555
Fe3 O13 2.141877 1_545
Fe4 O20 1.938020 1_455
Fe4 O12 1.955848 1_555
Fe4 O7 1.961776 1_555
Fe4 O5 1.976700 1_555
Fe5 O23 2.047056 1_545
Fe5 O28 2.100986 1_545
Fe5 O7 2.109335 1_555
Fe5 O9 2.115294 1_555
Fe5 O3 2.124018 1_555
Fe5 O22 2.159249 1_545
Fe6 O11 2.089324 1_555
Fe6 O10 2.089324 1_555
Fe6 O6 2.101575 1_555
Fe6 O14 2.101575 1_555
Fe6 O17 2.138924 1_555
Fe6 O5 2.138924 1_555
Fe7 O29 2.067418 1_545
Fe7 O20 2.067426 1_555
Fe7 O18 2.158360 1_555
Fe7 O15 2.158369 1_555
Fe7 O31 2.166789 1_545
Fe7 O12 2.166789 1_555
Fe8 O20 2.053543 1_555
Fe8 O11 2.103208 1_555
Fe8 O14 2.107821 1_555
Fe8 O16 2.116545 1_555
Fe8 O12 2.123519 1_555
Fe8 O19 2.162068 1_555
Fe9 O16 1.949270 1_555
Fe9 O13 1.951030 1_555
Fe9 O28 1.953658 1_455
Fe9 O22 1.971968 1_555
Fe10 O3 1.943670 1_655
Fe10 O9 1.944427 1_555
Fe10 O18 1.945704 1_555
Fe10 O14 1.946133 1_555
Fe11 O20 2.050772 1_555
Fe11 O25 2.095646 1_555
Fe11 O16 2.115329 1_555
Fe11 O15 2.115537 1_555
Fe11 O21 2.121076 1_555
Fe11 O26 2.164864 1_555
Fe12 O1 2.047056 1_555
Fe12 O21 2.100986 1_554
Fe12 O25 2.109335 1_554
Fe12 O0 2.115303 1_555
Fe12 O2 2.124019 1_555
Fe12 O27 2.159241 1_554
Fe13 O23 1.942765 1_555
Fe13 O11 1.971451 1_655
Fe13 O19 1.985665 1_555
Fe13 O26 1.985732 1_555
Fe14 O29 2.050780 1_555
Fe14 O7 2.095646 1_565
Fe14 O30 2.115329 1_555
Fe14 O18 2.115545 1_565
Fe14 O28 2.121085 1_555
Fe14 O24 2.164864 1_555
Fe15 O29 2.053543 1_555
Fe15 O10 2.103208 1_556
Fe15 O6 2.107821 1_556
Fe15 O30 2.116545 1_555
Fe15 O31 2.123528 1_555
Fe15 O4 2.162068 1_556
Fe16 O30 1.949270 1_555
Fe16 O8 1.951030 1_556
Fe16 O21 1.953657 1_655
Fe16 O27 1.971978 1_555
Fe17 O29 1.938020 1_655
Fe17 O31 1.955838 1_555
Fe17 O25 1.961776 1_565
Fe17 O17 1.976700 1_556
O0 Ti3 1.944171 1_545
O2 Ti3 1.978240 1_545
O3 Ti1 1.978249 1_555
O4 Ti0 2.012267 1_555
O4 Ti1 2.103492 1_555
O5 Ti0 2.009335 1_555
O5 Ti1 2.113789 1_555
O6 Ti0 1.992757 1_555
O7 Ti4 2.008387 1_445
O8 Ti1 1.938323 1_555
O9 Ti1 1.944170 1_555
O10 Ti1 2.015736 1_555
O11 Ti3 2.015736 1_555
O12 Ti2 1.942150 1_555
O13 Ti3 1.938323 1_555
O14 Ti0 1.992757 1_655
O15 Ti2 1.948877 1_555
O16 Ti2 1.986457 1_555
O17 Ti0 2.009335 1_655
O17 Ti3 2.113789 1_555
O18 Ti4 1.948877 1_545
O19 Ti0 2.012267 1_655
O19 Ti3 2.103492 1_555
O21 Ti5 1.994345 1_555
O22 Ti5 2.005241 1_555
O22 Ti4 2.107897 1_455
O24 Ti5 2.011367 1_555
O24 Ti4 2.099471 1_455
O25 Ti2 2.008387 1_655
O26 Ti5 2.011367 1_555
O26 Ti2 2.099471 1_655
O27 Ti5 2.005242 1_555
O27 Ti2 2.107888 1_655
O28 Ti5 1.994336 1_555
O30 Ti4 1.986457 1_555
O31 Ti4 1.942158 1_555
