# generated using pymatgen
data_NaSbCO2F3
_symmetry_space_group_name_H-M   'P 1'
_cell_length_a   9.33602665
_cell_length_b   9.33602665
_cell_length_c   8.52205207
_cell_angle_alpha   83.66704115
_cell_angle_beta   83.66704115
_cell_angle_gamma   40.27946280
_symmetry_Int_Tables_number   1
_chemical_formula_structural   NaSbCO2F3
_chemical_formula_sum   'Na4 Sb4 C4 O8 F12'
_cell_volume   476.90241041
_cell_formula_units_Z   4
loop_
 _symmetry_equiv_pos_site_id
 _symmetry_equiv_pos_as_xyz
  1  'x, y, z'
loop_
 _atom_site_type_symbol
 _atom_site_label
 _atom_site_symmetry_multiplicity
 _atom_site_fract_x
 _atom_site_fract_y
 _atom_site_fract_z
 _atom_site_occupancy
  Na  Na0  1  0.72123500  0.49072800  0.56862600  1
  Na  Na1  1  0.06680500  0.30336100  0.21788700  1
  Na  Na2  1  0.49072800  0.72123500  0.06862600  1
  Na  Na3  1  0.30336100  0.06680500  0.71788700  1
  Sb  Sb0  1  0.12467100  0.87753400  0.49630700  1
  Sb  Sb1  1  0.66087200  0.91765200  0.28981700  1
  Sb  Sb2  1  0.91765200  0.66087200  0.78981700  1
  Sb  Sb3  1  0.87753400  0.12467100  0.99630700  1
  C  C0  1  0.49756700  0.35477100  0.42425900  1
  C  C1  1  0.43742400  0.28836900  0.86990000  1
  C  C2  1  0.35477100  0.49756700  0.92425900  1
  C  C3  1  0.28836900  0.43742400  0.36990000  1
  O  O0  1  0.15786600  0.68402200  0.89628200  1
  O  O1  1  0.32106300  0.30165100  0.29655500  1
  O  O2  1  0.30165100  0.32106300  0.79655500  1
  O  O3  1  0.68402200  0.15786600  0.39628200  1
  O  O4  1  0.63234200  0.10132700  0.90140300  1
  O  O5  1  0.10132700  0.63234200  0.40140300  1
  O  O6  1  0.46527500  0.49256200  0.49367600  1
  O  O7  1  0.49256200  0.46527500  0.99367600  1
  F  F0  1  0.97346000  0.43123200  0.69504800  1
  F  F1  1  0.22219100  0.83395100  0.27058000  1
  F  F2  1  0.35522500  0.82516400  0.58359800  1
  F  F3  1  0.62033400  0.78240800  0.84434300  1
  F  F4  1  0.43123200  0.97346000  0.19504800  1
  F  F5  1  0.82516400  0.35522500  0.08359800  1
  F  F6  1  0.99810700  0.17626200  0.43560300  1
  F  F7  1  0.56271800  0.95605000  0.51461700  1
  F  F8  1  0.78240800  0.62033400  0.34434300  1
  F  F9  1  0.95605000  0.56271800  0.01461700  1
  F  F10  1  0.17626200  0.99810700  0.93560300  1
  F  F11  1  0.83395100  0.22219100  0.77058000  1
loop_
_geom_bond_atom_site_label_1
_geom_bond_atom_site_label_2
_geom_bond_distance
_geom_bond_site_symmetry_2
Na0 O6 2.527959 1_555
Na1 O1 2.524944 1_555
Na2 O7 2.527959 1_554
Na3 O2 2.524944 1_555
C0 O3 1.260536 1_555
C0 O6 1.277702 1_555
C1 O4 1.260441 1_555
C1 O2 1.277879 1_555
C2 O0 1.260536 1_555
C2 O7 1.277702 1_555
C3 O5 1.260441 1_555
C3 O1 1.277879 1_555
O0 Sb2 2.670406 1_455
O1 Sb1 2.360504 1_545
O2 Sb2 2.360504 1_455
O3 Sb1 2.670406 1_545
O6 Sb0 2.365099 1_555
O7 Sb3 2.365099 1_555
F0 Sb2 2.026060 1_555
F0 Na3 2.257668 1_655
F0 Na0 2.333711 1_555
F1 Sb0 1.978888 1_555
F1 Na2 2.403550 1_555
F2 Sb0 2.023060 1_555
F2 Na0 2.270283 1_555
F2 Na3 2.326832 1_565
F3 Sb2 2.057775 1_555
F3 Na3 2.247682 1_565
F3 Na2 2.397271 1_556
F4 Sb1 2.026060 1_555
F4 Na1 2.257668 1_565
F4 Na2 2.333711 1_555
F5 Sb3 2.023060 1_554
F5 Na2 2.270283 1_555
F5 Na1 2.326832 1_655
F6 Sb0 2.056786 1_645
F6 Na0 2.257148 1_555
F6 Na1 2.382186 1_655
F7 Sb1 1.975184 1_555
F7 Na3 2.362753 1_565
F8 Sb1 2.057775 1_555
F8 Na1 2.247682 1_655
F8 Na0 2.397271 1_555
F9 Sb2 1.975184 1_554
F9 Na1 2.362753 1_655
F10 Sb3 2.056786 1_465
F10 Na2 2.257148 1_556
F10 Na3 2.382186 1_565
F11 Sb3 1.978888 1_555
F11 Na0 2.403550 1_555
