# generated using pymatgen
data_BaSr2(PN2)6
_symmetry_space_group_name_H-M   'P 1'
_cell_length_a   10.15848400
_cell_length_b   10.15848400
_cell_length_c   10.15848400
_cell_angle_alpha   90.00000000
_cell_angle_beta   90.00000000
_cell_angle_gamma   90.00000000
_symmetry_Int_Tables_number   1
_chemical_formula_structural   BaSr2(PN2)6
_chemical_formula_sum   'Ba4 Sr8 P24 N48'
_cell_volume   1048.30269602
_cell_formula_units_Z   4
loop_
 _symmetry_equiv_pos_site_id
 _symmetry_equiv_pos_as_xyz
  1  'x, y, z'
loop_
 _atom_site_type_symbol
 _atom_site_label
 _atom_site_symmetry_multiplicity
 _atom_site_fract_x
 _atom_site_fract_y
 _atom_site_fract_z
 _atom_site_occupancy
  Ba  Ba0  1  0.50000000  0.00000000  0.50000000  1
  Ba  Ba1  1  0.00000000  0.50000000  0.50000000  1
  Ba  Ba2  1  0.00000000  0.00000000  0.00000000  1
  Ba  Ba3  1  0.50000000  0.50000000  0.00000000  1
  Sr  Sr0  1  0.12849000  0.87151000  0.37151000  1
  Sr  Sr1  1  0.37151000  0.12849000  0.87151000  1
  Sr  Sr2  1  0.37151000  0.37151000  0.37151000  1
  Sr  Sr3  1  0.12849000  0.62849000  0.87151000  1
  Sr  Sr4  1  0.62849000  0.62849000  0.62849000  1
  Sr  Sr5  1  0.87151000  0.37151000  0.12849000  1
  Sr  Sr6  1  0.87151000  0.12849000  0.62849000  1
  Sr  Sr7  1  0.62849000  0.87151000  0.12849000  1
  P  P0  1  0.83996200  0.38677800  0.81282900  1
  P  P1  1  0.81282900  0.66003800  0.88677800  1
  P  P2  1  0.16003800  0.88677800  0.68717100  1
  P  P3  1  0.88677800  0.81282900  0.66003800  1
  P  P4  1  0.33996200  0.38677800  0.68717100  1
  P  P5  1  0.18717100  0.16003800  0.61322200  1
  P  P6  1  0.81282900  0.83996200  0.38677800  1
  P  P7  1  0.38677800  0.81282900  0.83996200  1
  P  P8  1  0.11322200  0.18717100  0.33996200  1
  P  P9  1  0.61322200  0.18717100  0.16003800  1
  P  P10  1  0.61322200  0.31282900  0.66003800  1
  P  P11  1  0.38677800  0.68717100  0.33996200  1
  P  P12  1  0.68717100  0.33996200  0.38677800  1
  P  P13  1  0.18717100  0.33996200  0.11322200  1
  P  P14  1  0.33996200  0.11322200  0.18717100  1
  P  P15  1  0.66003800  0.61322200  0.31282900  1
  P  P16  1  0.11322200  0.31282900  0.83996200  1
  P  P17  1  0.16003800  0.61322200  0.18717100  1
  P  P18  1  0.83996200  0.11322200  0.31282900  1
  P  P19  1  0.66003800  0.88677800  0.81282900  1
  P  P20  1  0.31282900  0.66003800  0.61322200  1
  P  P21  1  0.68717100  0.16003800  0.88677800  1
  P  P22  1  0.31282900  0.83996200  0.11322200  1
  P  P23  1  0.88677800  0.68717100  0.16003800  1
  N  N0  1  0.82736600  0.24108400  0.88478600  1
  N  N1  1  0.11521400  0.32736600  0.25891600  1
  N  N2  1  0.67263400  0.75891600  0.38478600  1
  N  N3  1  0.00202100  0.91081000  0.71763100  1
  N  N4  1  0.71763100  0.00202100  0.91081000  1
  N  N5  1  0.25891600  0.38478600  0.82736600  1
  N  N6  1  0.41081000  0.78236900  0.99797900  1
  N  N7  1  0.99797900  0.08919000  0.28236900  1
  N  N8  1  0.58919000  0.21763100  0.00202100  1
  N  N9  1  0.61521400  0.32736600  0.24108400  1
  N  N10  1  0.17263400  0.74108400  0.61521400  1
  N  N11  1  0.08919000  0.28236900  0.99797900  1
  N  N12  1  0.74108400  0.61521400  0.17263400  1
  N  N13  1  0.25891600  0.11521400  0.32736600  1
  N  N14  1  0.91081000  0.78236900  0.50202100  1
  N  N15  1  0.32736600  0.24108400  0.61521400  1
  N  N16  1  0.82736600  0.25891600  0.38478600  1
  N  N17  1  0.00202100  0.58919000  0.21763100  1
  N  N18  1  0.75891600  0.38478600  0.67263400  1
  N  N19  1  0.74108400  0.88478600  0.67263400  1
  N  N20  1  0.99797900  0.41081000  0.78236900  1
  N  N21  1  0.28236900  0.99797900  0.08919000  1
  N  N22  1  0.17263400  0.75891600  0.11521400  1
  N  N23  1  0.49797900  0.08919000  0.21763100  1
  N  N24  1  0.24108400  0.61521400  0.32736600  1
  N  N25  1  0.71763100  0.49797900  0.41081000  1
  N  N26  1  0.58919000  0.28236900  0.50202100  1
  N  N27  1  0.28236900  0.50202100  0.58919000  1
  N  N28  1  0.91081000  0.71763100  0.00202100  1
  N  N29  1  0.88478600  0.67263400  0.74108400  1
  N  N30  1  0.75891600  0.11521400  0.17263400  1
  N  N31  1  0.21763100  0.49797900  0.08919000  1
  N  N32  1  0.21763100  0.00202100  0.58919000  1
  N  N33  1  0.67263400  0.74108400  0.88478600  1
  N  N34  1  0.78236900  0.99797900  0.41081000  1
  N  N35  1  0.50202100  0.58919000  0.28236900  1
  N  N36  1  0.61521400  0.17263400  0.74108400  1
  N  N37  1  0.32736600  0.25891600  0.11521400  1
  N  N38  1  0.78236900  0.50202100  0.91081000  1
  N  N39  1  0.49797900  0.41081000  0.71763100  1
  N  N40  1  0.38478600  0.82736600  0.25891600  1
  N  N41  1  0.88478600  0.82736600  0.24108400  1
  N  N42  1  0.08919000  0.21763100  0.49797900  1
  N  N43  1  0.11521400  0.17263400  0.75891600  1
  N  N44  1  0.38478600  0.67263400  0.75891600  1
  N  N45  1  0.24108400  0.88478600  0.82736600  1
  N  N46  1  0.50202100  0.91081000  0.78236900  1
  N  N47  1  0.41081000  0.71763100  0.49797900  1
loop_
_geom_bond_atom_site_label_1
_geom_bond_atom_site_label_2
_geom_bond_distance
_geom_bond_site_symmetry_2
Ba0 N32 3.008201 1_555
Ba0 N34 3.008201 1_545
Ba0 N46 3.008201 1_545
Ba0 N23 3.008201 1_555
Ba0 N26 3.008201 1_555
Ba0 N47 3.008201 1_545
Ba0 N2 3.231584 1_545
Ba0 N19 3.231584 1_545
Ba0 N36 3.231584 1_555
Ba0 N15 3.231584 1_555
Ba0 N40 3.231584 1_545
Ba0 N13 3.231584 1_555
Ba1 N27 3.008201 1_555
Ba1 N17 3.008201 1_555
Ba1 N20 3.008201 1_455
Ba1 N14 3.008201 1_455
Ba1 N42 3.008201 1_555
Ba1 N25 3.008201 1_455
Ba1 N18 3.231584 1_455
Ba1 N29 3.231584 1_455
Ba1 N10 3.231584 1_555
Ba1 N1 3.231584 1_555
Ba1 N16 3.231584 1_455
Ba1 N24 3.231584 1_555
Ba2 N21 3.008201 1_545
Ba2 N3 3.008201 1_544
Ba2 N7 3.008201 1_455
Ba2 N11 3.008201 1_554
Ba2 N4 3.008201 1_454
Ba2 N28 3.008201 1_445
Ba2 N22 3.231584 1_545
Ba2 N0 3.231584 1_454
Ba2 N41 3.231584 1_445
Ba2 N45 3.231584 1_544
Ba2 N43 3.231584 1_554
Ba2 N30 3.231584 1_455
Ba3 N6 3.008201 1_554
Ba3 N38 3.008201 1_554
Ba3 N8 3.008201 1_555
Ba3 N35 3.008201 1_555
Ba3 N31 3.008201 1_555
Ba3 N39 3.008201 1_554
Ba3 N44 3.231584 1_554
Ba3 N33 3.231584 1_554
Ba3 N12 3.231584 1_555
Ba3 N5 3.231584 1_554
Ba3 N9 3.231584 1_555
Ba3 N37 3.231584 1_555
N0 P21 1.645143 1_555
N0 P0 1.655652 1_555
N0 Sr5 2.843491 1_556
N0 Sr6 2.878882 1_555
N1 P8 1.645143 1_555
N1 P13 1.655652 1_555
N1 Sr5 2.843491 1_455
N1 Sr2 2.878882 1_555
N2 P6 1.645143 1_555
N2 P15 1.655652 1_555
N2 Sr4 2.843491 1_555
N2 Sr7 2.878882 1_555
N3 P3 1.644237 1_455
N3 P2 1.652892 1_555
N3 Sr6 2.732685 1_465
N4 P19 1.644237 1_545
N4 P21 1.652892 1_555
N4 Sr7 2.732685 1_546
N5 P4 1.645143 1_555
N5 P16 1.655652 1_555
N5 Sr3 2.843491 1_555
N5 Sr1 2.878882 1_555
N6 P22 1.644237 1_556
N6 P7 1.652892 1_555
N6 Sr7 2.732685 1_556
N7 P8 1.644237 1_655
N7 P18 1.652892 1_555
N7 Sr0 2.732685 1_645
N8 P21 1.644237 1_554
N8 P9 1.652892 1_555
N8 Sr1 2.732685 1_554
N9 P9 1.645143 1_555
N9 P12 1.655652 1_555
N9 Sr2 2.843491 1_555
N9 Sr5 2.878882 1_555
N10 P20 1.645143 1_555
N10 P2 1.655652 1_555
N10 Sr0 2.843491 1_555
N10 Sr3 2.878882 1_555
N11 P13 1.644237 1_556
N11 P16 1.652892 1_555
N11 Sr5 2.732685 1_456
N12 P15 1.645143 1_555
N12 P23 1.655652 1_555
N12 Sr5 2.843491 1_555
N12 Sr7 2.878882 1_555
N13 P14 1.645143 1_555
N13 P8 1.655652 1_555
N13 Sr0 2.843491 1_545
N13 Sr2 2.878882 1_555
N14 P6 1.644237 1_555
N14 P3 1.652892 1_555
N14 Sr0 2.732685 1_655
N15 P5 1.645143 1_555
N15 P4 1.655652 1_555
N15 Sr2 2.843491 1_555
N15 Sr1 2.878882 1_555
N16 P12 1.645143 1_555
N16 P18 1.655652 1_555
N16 Sr6 2.843491 1_555
N16 Sr5 2.878882 1_555
N17 P23 1.644237 1_455
N17 P17 1.652892 1_555
N17 Sr5 2.732685 1_455
N18 P0 1.645143 1_555
N18 P10 1.655652 1_555
N18 Sr4 2.843491 1_555
N18 Sr6 2.878882 1_555
N19 P19 1.645143 1_555
N19 P3 1.655652 1_555
N19 Sr6 2.843491 1_565
N19 Sr4 2.878882 1_555
N20 P16 1.644237 1_655
N20 P0 1.652892 1_555
N20 Sr3 2.732685 1_655
N21 P14 1.644237 1_565
N21 P22 1.652892 1_555
N21 Sr1 2.732685 1_564
N22 P22 1.645143 1_555
N22 P17 1.655652 1_555
N22 Sr3 2.843491 1_554
N22 Sr0 2.878882 1_555
N23 P9 1.644237 1_555
N23 P14 1.652892 1_555
N23 Sr7 2.732685 1_545
N24 P17 1.645143 1_555
N24 P11 1.655652 1_555
N24 Sr2 2.843491 1_555
N24 Sr0 2.878882 1_555
N25 P15 1.644237 1_555
N25 P12 1.652892 1_555
N25 Sr4 2.732685 1_555
N26 P12 1.644237 1_555
N26 P10 1.652892 1_555
N26 Sr2 2.732685 1_555
N27 P4 1.644237 1_555
N27 P20 1.652892 1_555
N27 Sr2 2.732685 1_555
N28 P1 1.644237 1_554
N28 P23 1.652892 1_555
N28 Sr3 2.732685 1_654
N29 P3 1.645143 1_555
N29 P1 1.655652 1_555
N29 Sr3 2.843491 1_655
N29 Sr4 2.878882 1_555
N30 P18 1.645143 1_555
N30 P9 1.655652 1_555
N30 Sr7 2.843491 1_545
N30 Sr5 2.878882 1_555
N31 P17 1.644237 1_555
N31 P13 1.652892 1_555
N31 Sr3 2.732685 1_554
N32 P2 1.644237 1_545
N32 P5 1.652892 1_555
N32 Sr0 2.732685 1_545
N33 P1 1.645143 1_555
N33 P19 1.655652 1_555
N33 Sr7 2.843491 1_556
N33 Sr4 2.878882 1_555
N34 P18 1.644237 1_565
N34 P6 1.652892 1_555
N34 Sr6 2.732685 1_565
N35 P11 1.644237 1_555
N35 P15 1.652892 1_555
N35 Sr2 2.732685 1_555
N36 P10 1.645143 1_555
N36 P21 1.655652 1_555
N36 Sr1 2.843491 1_555
N36 Sr6 2.878882 1_555
N37 P13 1.645143 1_555
N37 P14 1.655652 1_555
N37 Sr1 2.843491 1_554
N37 Sr2 2.878882 1_555
N38 P0 1.644237 1_555
N38 P1 1.652892 1_555
N38 Sr5 2.732685 1_556
N39 P10 1.644237 1_555
N39 P4 1.652892 1_555
N39 Sr4 2.732685 1_555
N40 P11 1.645143 1_555
N40 P22 1.655652 1_555
N40 Sr7 2.843491 1_555
N40 Sr0 2.878882 1_555
N41 P23 1.645143 1_555
N41 P6 1.655652 1_555
N41 Sr0 2.843491 1_655
N41 Sr7 2.878882 1_555
N42 P5 1.644237 1_555
N42 P8 1.652892 1_555
N42 Sr6 2.732685 1_455
N43 P16 1.645143 1_555
N43 P5 1.655652 1_555
N43 Sr6 2.843491 1_455
N43 Sr1 2.878882 1_555
N44 P7 1.645143 1_555
N44 P20 1.655652 1_555
N44 Sr4 2.843491 1_555
N44 Sr3 2.878882 1_555
N45 P2 1.645143 1_555
N45 P7 1.655652 1_555
N45 Sr1 2.843491 1_565
N45 Sr3 2.878882 1_555
N46 P7 1.644237 1_555
N46 P19 1.652892 1_555
N46 Sr1 2.732685 1_565
N47 P20 1.644237 1_555
N47 P11 1.652892 1_555
N47 Sr4 2.732685 1_555
