# generated using pymatgen
data_CeH16C4Cl3O4
_symmetry_space_group_name_H-M   'P 1'
_cell_length_a   18.61141700
_cell_length_b   8.37506200
_cell_length_c   8.88182290
_cell_angle_alpha   70.64309058
_cell_angle_beta   90.00000000
_cell_angle_gamma   90.00000000
_symmetry_Int_Tables_number   1
_chemical_formula_structural   CeH16C4Cl3O4
_chemical_formula_sum   'Ce4 H64 C16 Cl12 O16'
_cell_volume   1306.16694302
_cell_formula_units_Z   4
loop_
 _symmetry_equiv_pos_site_id
 _symmetry_equiv_pos_as_xyz
  1  'x, y, z'
loop_
 _atom_site_type_symbol
 _atom_site_label
 _atom_site_symmetry_multiplicity
 _atom_site_fract_x
 _atom_site_fract_y
 _atom_site_fract_z
 _atom_site_occupancy
  Ce  Ce0  1  0.59022800  0.36797300  0.18088800  1
  Ce  Ce1  1  0.09022800  0.13202700  0.81911200  1
  Ce  Ce2  1  0.40977200  0.63202700  0.81911200  1
  Ce  Ce3  1  0.90977200  0.86797300  0.18088800  1
  H  H0  1  0.40948300  0.46232300  0.44252400  1
  H  H1  1  0.68279300  0.07562600  0.62999200  1
  H  H2  1  0.93331900  0.60088200  0.52301600  1
  H  H3  1  0.62526600  0.74301400  0.44994400  1
  H  H4  1  0.43418400  0.93283400  0.04836600  1
  H  H5  1  0.68970500  0.30030100  0.54013100  1
  H  H6  1  0.09881000  0.80989000  0.10487900  1
  H  H7  1  0.56581600  0.06716600  0.95163400  1
  H  H8  1  0.40119000  0.30989000  0.10487900  1
  H  H9  1  0.95999500  0.17906800  0.39639000  1
  H  H10  1  0.69450600  0.75942300  0.75572500  1
  H  H11  1  0.94239200  0.41642400  0.14767400  1
  H  H12  1  0.55760800  0.91642400  0.14767400  1
  H  H13  1  0.63459000  0.91098800  0.02827000  1
  H  H14  1  0.19450600  0.74057700  0.24427500  1
  H  H15  1  0.56668100  0.10088200  0.52301600  1
  H  H16  1  0.20522100  0.96549900  0.18165200  1
  H  H17  1  0.82190200  0.55558500  0.16868100  1
  H  H18  1  0.67302100  0.63528500  0.28759400  1
  H  H19  1  0.90119000  0.19011000  0.89512100  1
  H  H20  1  0.82697900  0.13528500  0.28759400  1
  H  H21  1  0.09051700  0.96232300  0.44252400  1
  H  H22  1  0.32697900  0.36471500  0.71240600  1
  H  H23  1  0.81029500  0.80030100  0.54013100  1
  H  H24  1  0.36541000  0.08901200  0.97173000  1
  H  H25  1  0.86541000  0.41098800  0.02827000  1
  H  H26  1  0.93418400  0.56716600  0.95163400  1
  H  H27  1  0.62732300  0.21150600  0.70108000  1
  H  H28  1  0.31029500  0.69969900  0.45986900  1
  H  H29  1  0.87267700  0.71150600  0.70108000  1
  H  H30  1  0.31720700  0.92437400  0.37000800  1
  H  H31  1  0.37473400  0.25698600  0.55005600  1
  H  H32  1  0.44239200  0.08357600  0.85232600  1
  H  H33  1  0.80549400  0.25942300  0.75572500  1
  H  H34  1  0.05760800  0.58357600  0.85232600  1
  H  H35  1  0.30549400  0.24057700  0.24427500  1
  H  H36  1  0.17302100  0.86471500  0.71240600  1
  H  H37  1  0.59881000  0.69011000  0.89512100  1
  H  H38  1  0.70522100  0.53450100  0.81834800  1
  H  H39  1  0.12732300  0.28849400  0.29892000  1
  H  H40  1  0.79477900  0.03450100  0.81834800  1
  H  H41  1  0.54000500  0.67906800  0.39639000  1
  H  H42  1  0.43331900  0.89911800  0.47698400  1
  H  H43  1  0.06668100  0.39911800  0.47698400  1
  H  H44  1  0.37267700  0.78849400  0.29892000  1
  H  H45  1  0.25125800  0.34615000  0.07303300  1
  H  H46  1  0.90948300  0.03767700  0.55747600  1
  H  H47  1  0.74874200  0.65385000  0.92696700  1
  H  H48  1  0.17809800  0.44441500  0.83131900  1
  H  H49  1  0.18970500  0.19969900  0.45986900  1
  H  H50  1  0.81720700  0.57562600  0.62999200  1
  H  H51  1  0.45999500  0.32093200  0.60361000  1
  H  H52  1  0.04000500  0.82093200  0.60361000  1
  H  H53  1  0.29477900  0.46549900  0.18165200  1
  H  H54  1  0.75125800  0.15385000  0.92696700  1
  H  H55  1  0.12526600  0.75698600  0.55005600  1
  H  H56  1  0.67809800  0.05558500  0.16868100  1
  H  H57  1  0.18279300  0.42437400  0.37000800  1
  H  H58  1  0.24874200  0.84615000  0.07303300  1
  H  H59  1  0.32190200  0.94441500  0.83131900  1
  H  H60  1  0.13459000  0.58901200  0.97173000  1
  H  H61  1  0.06581600  0.43283400  0.04836600  1
  H  H62  1  0.59051700  0.53767700  0.55747600  1
  H  H63  1  0.87473400  0.24301400  0.44994400  1
  C  C0  1  0.59542700  0.99335800  0.05823800  1
  C  C1  1  0.29947900  0.35583200  0.14020000  1
  C  C2  1  0.20052100  0.85583200  0.14020000  1
  C  C3  1  0.15281900  0.30452100  0.40461400  1
  C  C4  1  0.09542700  0.50664200  0.94176200  1
  C  C5  1  0.84718100  0.69547900  0.59538600  1
  C  C6  1  0.90574400  0.13578600  0.43962200  1
  C  C7  1  0.59425600  0.63578600  0.43962200  1
  C  C8  1  0.40574400  0.36421400  0.56037800  1
  C  C9  1  0.40457300  0.00664200  0.94176200  1
  C  C10  1  0.34718100  0.80452100  0.40461400  1
  C  C11  1  0.79947900  0.14416800  0.85980000  1
  C  C12  1  0.09425600  0.86421400  0.56037800  1
  C  C13  1  0.90457300  0.49335800  0.05823800  1
  C  C14  1  0.70052100  0.64416800  0.85980000  1
  C  C15  1  0.65281900  0.19547900  0.59538600  1
  Cl  Cl0  1  0.97636300  0.88949700  0.87426400  1
  Cl  Cl1  1  0.75717300  0.83381300  0.22530300  1
  Cl  Cl2  1  0.52363700  0.38949700  0.87426400  1
  Cl  Cl3  1  0.47636300  0.61050300  0.12573600  1
  Cl  Cl4  1  0.25717300  0.66618700  0.77469700  1
  Cl  Cl5  1  0.02363700  0.11050300  0.12573600  1
  Cl  Cl6  1  0.53117900  0.84949100  0.71440900  1
  Cl  Cl7  1  0.03117900  0.65050900  0.28559100  1
  Cl  Cl8  1  0.24282700  0.16618700  0.77469700  1
  Cl  Cl9  1  0.96882100  0.34949100  0.71440900  1
  Cl  Cl10  1  0.46882100  0.15050900  0.28559100  1
  Cl  Cl11  1  0.74282700  0.33381300  0.22530300  1
  O  O0  1  0.09923700  0.30205400  0.52256300  1
  O  O1  1  0.40076300  0.80205400  0.52256300  1
  O  O2  1  0.13309900  0.38900100  0.88086700  1
  O  O3  1  0.13909200  0.87329500  0.03726200  1
  O  O4  1  0.12929200  0.93208600  0.67144000  1
  O  O5  1  0.36090800  0.37329500  0.03726200  1
  O  O6  1  0.63309900  0.11099900  0.11913300  1
  O  O7  1  0.86690100  0.61099900  0.11913300  1
  O  O8  1  0.37070800  0.43208600  0.67144000  1
  O  O9  1  0.90076300  0.69794600  0.47743700  1
  O  O10  1  0.86090800  0.12670500  0.96273800  1
  O  O11  1  0.59923700  0.19794600  0.47743700  1
  O  O12  1  0.87070800  0.06791400  0.32856000  1
  O  O13  1  0.36690100  0.88900100  0.88086700  1
  O  O14  1  0.63909200  0.62670500  0.96273800  1
  O  O15  1  0.62929200  0.56791400  0.32856000  1
loop_
_geom_bond_atom_site_label_1
_geom_bond_atom_site_label_2
_geom_bond_distance
_geom_bond_site_symmetry_2
Ce0 O6 2.520289 1_555
Ce0 O14 2.548228 1_554
Ce0 O11 2.550873 1_555
Ce0 O15 2.551237 1_555
Ce0 Cl10 2.857392 1_555
Ce0 Cl3 2.863062 1_555
Ce0 Cl11 2.868576 1_555
Ce0 Cl2 2.942762 1_554
Ce1 O2 2.520289 1_555
Ce1 O3 2.548228 1_546
Ce1 O0 2.550873 1_555
Ce1 O4 2.551237 1_545
Ce1 Cl9 2.857392 1_455
Ce1 Cl0 2.863062 1_445
Ce1 Cl8 2.868576 1_555
Ce1 Cl5 2.942762 1_556
Ce2 O13 2.520289 1_555
Ce2 O5 2.548228 1_556
Ce2 O1 2.550873 1_555
Ce2 O8 2.551237 1_555
Ce2 Cl6 2.857392 1_555
Ce2 Cl2 2.863062 1_555
Ce2 Cl4 2.868576 1_555
Ce2 Cl3 2.942762 1_556
Ce3 O7 2.520289 1_555
Ce3 O10 2.548228 1_564
Ce3 O9 2.550873 1_555
Ce3 O12 2.551237 1_565
Ce3 Cl7 2.857392 1_655
Ce3 Cl5 2.863062 1_665
Ce3 Cl1 2.868576 1_555
Ce3 Cl0 2.942762 1_554
H2 O9 0.986759 1_555
H6 O3 0.996649 1_555
H8 O5 0.996649 1_555
H15 O11 0.986759 1_555
H17 O7 0.987452 1_555
H18 O15 0.988445 1_555
H19 O10 0.996649 1_555
H20 O12 0.988445 1_555
H22 O8 0.988445 1_555
H36 O4 0.988445 1_555
H37 O14 0.996649 1_555
H42 O1 0.986759 1_555
H43 O0 0.986759 1_555
H48 O2 0.987452 1_555
H56 O6 0.987452 1_555
H59 O13 0.987452 1_555
C0 H7 1.092856 1_564
C0 H13 1.095322 1_555
C0 H12 1.096491 1_555
C0 O6 1.451922 1_565
C1 H45 1.095431 1_555
C1 H35 1.098752 1_555
C1 H53 1.100430 1_555
C1 O5 1.440744 1_555
C2 H58 1.095431 1_555
C2 H14 1.098752 1_555
C2 H16 1.100430 1_555
C2 O3 1.440744 1_555
C3 H49 1.094176 1_555
C3 H39 1.099079 1_555
C3 H57 1.099420 1_555
C3 O0 1.441537 1_555
C4 H61 1.092856 1_556
C4 H60 1.095322 1_555
C4 H34 1.096491 1_555
C4 O2 1.451922 1_555
C5 H23 1.094176 1_555
C5 H29 1.099079 1_555
C5 H50 1.099420 1_555
C5 O9 1.441537 1_555
C6 H63 1.096609 1_555
C6 H46 1.097966 1_555
C6 H9 1.098198 1_555
C6 O12 1.446742 1_555
C7 H3 1.096609 1_555
C7 H62 1.097966 1_555
C7 H41 1.098198 1_555
C7 O15 1.446742 1_555
C8 H31 1.096609 1_555
C8 H0 1.097966 1_555
C8 H51 1.098198 1_555
C8 O8 1.446742 1_555
C9 H4 1.092856 1_546
C9 H24 1.095322 1_555
C9 H32 1.096491 1_555
C9 O13 1.451922 1_545
C10 H28 1.094176 1_555
C10 H44 1.099079 1_555
C10 H30 1.099420 1_555
C10 O1 1.441537 1_555
C11 H54 1.095431 1_555
C11 H33 1.098752 1_555
C11 H40 1.100430 1_555
C11 O10 1.440744 1_555
C12 H55 1.096609 1_555
C12 H21 1.097966 1_555
C12 H52 1.098198 1_555
C12 O4 1.446742 1_555
C13 H26 1.092856 1_554
C13 H25 1.095322 1_555
C13 H11 1.096491 1_555
C13 O7 1.451922 1_555
C14 H47 1.095431 1_555
C14 H10 1.098752 1_555
C14 H38 1.100430 1_555
C14 O14 1.440744 1_555
C15 H5 1.094176 1_555
C15 H27 1.099079 1_555
C15 H1 1.099420 1_555
C15 O11 1.441537 1_555
Cl6 H37 2.126512 1_555
Cl7 H6 2.126512 1_555
Cl9 H19 2.126512 1_555
Cl10 H8 2.126512 1_555
