# generated using pymatgen
data_ReI3
_symmetry_space_group_name_H-M   'P 1'
_cell_length_a   9.08663881
_cell_length_b   9.82904721
_cell_length_c   11.38253715
_cell_angle_alpha   90.00000000
_cell_angle_beta   90.00000000
_cell_angle_gamma   108.68012977
_symmetry_Int_Tables_number   1
_chemical_formula_structural   ReI3
_chemical_formula_sum   'Re6 I18'
_cell_volume   963.05505508
_cell_formula_units_Z   6
loop_
 _symmetry_equiv_pos_site_id
 _symmetry_equiv_pos_as_xyz
  1  'x, y, z'
loop_
 _atom_site_type_symbol
 _atom_site_label
 _atom_site_symmetry_multiplicity
 _atom_site_fract_x
 _atom_site_fract_y
 _atom_site_fract_z
 _atom_site_occupancy
  Re  Re0  1  0.84186316  0.65101857  0.75000000  1
  Re  Re1  1  0.83786710  0.86389422  0.85934862  1
  Re  Re2  1  0.16213290  0.13610578  0.35934862  1
  Re  Re3  1  0.16213290  0.13610578  0.14065138  1
  Re  Re4  1  0.83786710  0.86389422  0.64065138  1
  Re  Re5  1  0.15813684  0.34898143  0.25000000  1
  I  I0  1  0.45965676  0.19331224  0.41109681  1
  I  I1  1  0.85004142  0.01611460  0.41023445  1
  I  I2  1  0.88236632  0.37907041  0.25000000  1
  I  I3  1  0.84353653  0.63032309  0.99256675  1
  I  I4  1  0.43156739  0.53855407  0.25000000  1
  I  I5  1  0.14995858  0.98388540  0.58976555  1
  I  I6  1  0.84310003  0.11574826  0.75000000  1
  I  I7  1  0.15646347  0.36967691  0.00743325  1
  I  I8  1  0.15689997  0.88425174  0.25000000  1
  I  I9  1  0.56843261  0.46144593  0.75000000  1
  I  I10  1  0.15646347  0.36967691  0.49256675  1
  I  I11  1  0.54034324  0.80668776  0.58890319  1
  I  I12  1  0.45965676  0.19331224  0.08890319  1
  I  I13  1  0.85004142  0.01611460  0.08976555  1
  I  I14  1  0.14995858  0.98388540  0.91023445  1
  I  I15  1  0.84353653  0.63032309  0.50743325  1
  I  I16  1  0.54034324  0.80668776  0.91109681  1
  I  I17  1  0.11763368  0.62092959  0.75000000  1
loop_
_geom_bond_atom_site_label_1
_geom_bond_atom_site_label_2
_geom_bond_distance
_geom_bond_site_symmetry_2
Re0 Re4 2.444824 1_555
Re0 Re1 2.444824 1_555
Re1 Re4 2.489329 1_555
Re2 Re5 2.444824 1_555
Re2 Re3 2.489329 1_555
Re3 Re5 2.444824 1_555
I0 Re2 2.645418 1_555
I1 Re2 2.761544 1_655
I1 Re4 3.003911 1_545
I2 Re5 2.615598 1_655
I3 Re1 2.765570 1_555
I3 Re0 2.768908 1_555
I4 Re5 2.584469 1_555
I5 Re4 2.761544 1_455
I5 Re2 3.003911 1_565
I6 Re1 2.757549 1_545
I6 Re4 2.757549 1_545
I7 Re3 2.765570 1_555
I7 Re5 2.768908 1_555
I8 Re2 2.757549 1_565
I8 Re3 2.757549 1_565
I9 Re0 2.584469 1_555
I10 Re2 2.765570 1_555
I10 Re5 2.768908 1_555
I11 Re4 2.645418 1_555
I12 Re3 2.645418 1_555
I13 Re3 2.761544 1_655
I13 Re1 3.003911 1_544
I14 Re1 2.761544 1_455
I14 Re3 3.003911 1_566
I15 Re4 2.765570 1_555
I15 Re0 2.768908 1_555
I16 Re1 2.645418 1_555
I17 Re0 2.615598 1_455
