# generated using pymatgen
data_SiO2
_symmetry_space_group_name_H-M   'P 1'
_cell_length_a   12.77384700
_cell_length_b   12.77384700
_cell_length_c   13.35445000
_cell_angle_alpha   90.00000000
_cell_angle_beta   90.00000000
_cell_angle_gamma   90.00000000
_symmetry_Int_Tables_number   1
_chemical_formula_structural   SiO2
_chemical_formula_sum   'Si32 O64'
_cell_volume   2179.06119354
_cell_formula_units_Z   32
loop_
 _symmetry_equiv_pos_site_id
 _symmetry_equiv_pos_as_xyz
  1  'x, y, z'
loop_
 _atom_site_type_symbol
 _atom_site_label
 _atom_site_symmetry_multiplicity
 _atom_site_fract_x
 _atom_site_fract_y
 _atom_site_fract_z
 _atom_site_occupancy
  Si  Si0  1  0.62225900  0.12461600  0.11460800  1
  Si  Si1  1  0.87538400  0.37774100  0.38539200  1
  Si  Si2  1  0.12461600  0.37774100  0.61460800  1
  Si  Si3  1  0.19415300  0.80584700  0.75000000  1
  Si  Si4  1  0.37774100  0.87538400  0.11460800  1
  Si  Si5  1  0.87538400  0.62225900  0.38539200  1
  Si  Si6  1  0.87348300  0.00000000  0.61813900  1
  Si  Si7  1  0.87348300  0.00000000  0.38186100  1
  Si  Si8  1  0.19415300  0.80584700  0.25000000  1
  Si  Si9  1  0.12461600  0.62225900  0.61460800  1
  Si  Si10  1  0.37774100  0.12461600  0.11460800  1
  Si  Si11  1  0.62225900  0.87538400  0.11460800  1
  Si  Si12  1  0.80584700  0.19415300  0.75000000  1
  Si  Si13  1  0.87538400  0.37774100  0.61460800  1
  Si  Si14  1  0.00000000  0.12651700  0.11813900  1
  Si  Si15  1  0.80584700  0.80584700  0.75000000  1
  Si  Si16  1  0.00000000  0.87348300  0.11813900  1
  Si  Si17  1  0.00000000  0.12651700  0.88186100  1
  Si  Si18  1  0.12461600  0.37774100  0.38539200  1
  Si  Si19  1  0.80584700  0.19415300  0.25000000  1
  Si  Si20  1  0.00000000  0.87348300  0.88186100  1
  Si  Si21  1  0.80584700  0.80584700  0.25000000  1
  Si  Si22  1  0.12651700  0.00000000  0.61813900  1
  Si  Si23  1  0.87538400  0.62225900  0.61460800  1
  Si  Si24  1  0.19415300  0.19415300  0.25000000  1
  Si  Si25  1  0.19415300  0.19415300  0.75000000  1
  Si  Si26  1  0.62225900  0.87538400  0.88539200  1
  Si  Si27  1  0.12651700  0.00000000  0.38186100  1
  Si  Si28  1  0.37774100  0.12461600  0.88539200  1
  Si  Si29  1  0.62225900  0.12461600  0.88539200  1
  Si  Si30  1  0.37774100  0.87538400  0.88539200  1
  Si  Si31  1  0.12461600  0.62225900  0.38539200  1
  O  O0  1  0.16034800  0.34980400  0.50000000  1
  O  O1  1  0.35378400  0.00000000  0.87296500  1
  O  O2  1  0.10309100  0.18045600  0.83374400  1
  O  O3  1  0.18854800  0.30713900  0.69453200  1
  O  O4  1  0.18854800  0.69286100  0.69453200  1
  O  O5  1  0.50000000  0.85090400  0.13881600  1
  O  O6  1  0.81954400  0.89690900  0.33374400  1
  O  O7  1  0.89690900  0.18045600  0.16625600  1
  O  O8  1  0.81145200  0.69286100  0.69453200  1
  O  O9  1  0.18045600  0.10309100  0.33374400  1
  O  O10  1  0.50000000  0.14909600  0.86118400  1
  O  O11  1  0.18045600  0.89690900  0.66625600  1
  O  O12  1  0.10309100  0.81954400  0.16625600  1
  O  O13  1  0.81954400  0.89690900  0.66625600  1
  O  O14  1  0.81145200  0.30713900  0.30546800  1
  O  O15  1  0.81954400  0.10309100  0.66625600  1
  O  O16  1  0.18045600  0.10309100  0.66625600  1
  O  O17  1  0.83965200  0.65019600  0.50000000  1
  O  O18  1  0.81954400  0.10309100  0.33374400  1
  O  O19  1  0.69286100  0.18854800  0.80546800  1
  O  O20  1  0.64621600  0.00000000  0.87296500  1
  O  O21  1  0.15210500  0.00000000  0.50000000  1
  O  O22  1  0.00000000  0.35378400  0.62703500  1
  O  O23  1  0.18045600  0.89690900  0.33374400  1
  O  O24  1  0.30713900  0.81145200  0.80546800  1
  O  O25  1  0.18854800  0.69286100  0.30546800  1
  O  O26  1  0.30713900  0.18854800  0.80546800  1
  O  O27  1  0.35378400  0.00000000  0.12703500  1
  O  O28  1  0.00000000  0.35378400  0.37296500  1
  O  O29  1  0.00000000  0.84789500  0.00000000  1
  O  O30  1  0.69286100  0.18854800  0.19453200  1
  O  O31  1  0.83965200  0.34980400  0.50000000  1
  O  O32  1  0.89690900  0.81954400  0.83374400  1
  O  O33  1  0.85090400  0.50000000  0.36118400  1
  O  O34  1  0.00000000  0.64621600  0.62703500  1
  O  O35  1  0.50000000  0.85090400  0.86118400  1
  O  O36  1  0.30713900  0.81145200  0.19453200  1
  O  O37  1  0.00000000  0.15210500  0.00000000  1
  O  O38  1  0.89690900  0.18045600  0.83374400  1
  O  O39  1  0.00000000  0.00000000  0.36362200  1
  O  O40  1  0.89690900  0.81954400  0.16625600  1
  O  O41  1  0.18854800  0.30713900  0.30546800  1
  O  O42  1  0.14909600  0.50000000  0.36118400  1
  O  O43  1  0.00000000  0.00000000  0.86362200  1
  O  O44  1  0.84789500  0.00000000  0.50000000  1
  O  O45  1  0.10309100  0.18045600  0.16625600  1
  O  O46  1  0.64621600  0.00000000  0.12703500  1
  O  O47  1  0.81145200  0.69286100  0.30546800  1
  O  O48  1  0.00000000  0.00000000  0.63637800  1
  O  O49  1  0.34980400  0.16034800  0.00000000  1
  O  O50  1  0.00000000  0.64621600  0.37296500  1
  O  O51  1  0.14909600  0.50000000  0.63881600  1
  O  O52  1  0.50000000  0.14909600  0.13881600  1
  O  O53  1  0.30713900  0.18854800  0.19453200  1
  O  O54  1  0.81145200  0.30713900  0.69453200  1
  O  O55  1  0.69286100  0.81145200  0.19453200  1
  O  O56  1  0.00000000  0.00000000  0.13637800  1
  O  O57  1  0.16034800  0.65019600  0.50000000  1
  O  O58  1  0.69286100  0.81145200  0.80546800  1
  O  O59  1  0.85090400  0.50000000  0.63881600  1
  O  O60  1  0.65019600  0.83965200  0.00000000  1
  O  O61  1  0.10309100  0.81954400  0.83374400  1
  O  O62  1  0.34980400  0.83965200  0.00000000  1
  O  O63  1  0.65019600  0.16034800  0.00000000  1
loop_
_geom_bond_atom_site_label_1
_geom_bond_atom_site_label_2
_geom_bond_distance
_geom_bond_site_symmetry_2
O0 Si18 1.636520 1_555
O0 Si2 1.636520 1_555
O1 Si30 1.629448 1_545
O1 Si28 1.629448 1_555
O2 Si17 1.619191 1_555
O2 Si25 1.623081 1_555
O3 Si2 1.618486 1_555
O3 Si25 1.623837 1_555
O4 Si9 1.618486 1_555
O4 Si3 1.623837 1_555
O5 Si11 1.625195 1_555
O5 Si4 1.625195 1_555
O6 Si7 1.619191 1_565
O6 Si21 1.623081 1_555
O7 Si14 1.619191 1_655
O7 Si19 1.623081 1_555
O8 Si23 1.618486 1_555
O8 Si15 1.623837 1_555
O9 Si27 1.619191 1_555
O9 Si24 1.623081 1_555
O10 Si28 1.625195 1_555
O10 Si29 1.625195 1_555
O11 Si22 1.619191 1_565
O11 Si3 1.623081 1_555
O12 Si16 1.619191 1_555
O12 Si8 1.623081 1_555
O13 Si6 1.619191 1_565
O13 Si15 1.623081 1_555
O14 Si1 1.618486 1_555
O14 Si19 1.623837 1_555
O15 Si6 1.619191 1_555
O15 Si12 1.623081 1_555
O16 Si22 1.619191 1_555
O16 Si25 1.623081 1_555
O17 Si5 1.636520 1_555
O17 Si23 1.636520 1_555
O18 Si7 1.619191 1_555
O18 Si19 1.623081 1_555
O19 Si29 1.618486 1_555
O19 Si12 1.623837 1_555
O20 Si26 1.629448 1_545
O20 Si29 1.629448 1_555
O21 Si22 1.611184 1_555
O21 Si27 1.611184 1_555
O22 Si13 1.629448 1_455
O22 Si2 1.629448 1_555
O23 Si27 1.619191 1_565
O23 Si8 1.623081 1_555
O24 Si30 1.618486 1_555
O24 Si3 1.623837 1_555
O25 Si31 1.618486 1_555
O25 Si8 1.623837 1_555
O26 Si28 1.618486 1_555
O26 Si25 1.623837 1_555
O27 Si4 1.629448 1_545
O27 Si10 1.629448 1_555
O28 Si1 1.629448 1_455
O28 Si18 1.629448 1_555
O29 Si20 1.611184 1_554
O29 Si16 1.611184 1_555
O30 Si0 1.618486 1_555
O30 Si19 1.623837 1_555
O31 Si1 1.636520 1_555
O31 Si13 1.636520 1_555
O32 Si20 1.619191 1_655
O32 Si15 1.623081 1_555
O33 Si1 1.625195 1_555
O33 Si5 1.625195 1_555
O34 Si23 1.629448 1_455
O34 Si9 1.629448 1_555
O35 Si30 1.625195 1_555
O35 Si26 1.625195 1_555
O36 Si4 1.618486 1_555
O36 Si8 1.623837 1_555
O37 Si17 1.611184 1_554
O37 Si14 1.611184 1_555
O38 Si17 1.619191 1_655
O38 Si12 1.623081 1_555
O39 Si27 1.634361 1_555
O39 Si7 1.634361 1_455
O40 Si16 1.619191 1_655
O40 Si21 1.623081 1_555
O41 Si18 1.618486 1_555
O41 Si24 1.623837 1_555
O42 Si18 1.625195 1_555
O42 Si31 1.625195 1_555
O43 Si20 1.634361 1_545
O43 Si17 1.634361 1_555
O44 Si7 1.611184 1_555
O44 Si6 1.611184 1_555
O45 Si14 1.619191 1_555
O45 Si24 1.623081 1_555
O46 Si11 1.629448 1_545
O46 Si0 1.629448 1_555
O47 Si5 1.618486 1_555
O47 Si21 1.623837 1_555
O48 Si6 1.634361 1_455
O48 Si22 1.634361 1_555
O49 Si10 1.636520 1_555
O49 Si28 1.636520 1_554
O50 Si5 1.629448 1_455
O50 Si31 1.629448 1_555
O51 Si9 1.625195 1_555
O51 Si2 1.625195 1_555
O52 Si10 1.625195 1_555
O52 Si0 1.625195 1_555
O53 Si10 1.618486 1_555
O53 Si24 1.623837 1_555
O54 Si13 1.618486 1_555
O54 Si12 1.623837 1_555
O55 Si11 1.618486 1_555
O55 Si21 1.623837 1_555
O56 Si14 1.634361 1_555
O56 Si16 1.634361 1_545
O57 Si31 1.636520 1_555
O57 Si9 1.636520 1_555
O58 Si26 1.618486 1_555
O58 Si15 1.623837 1_555
O59 Si13 1.625195 1_555
O59 Si23 1.625195 1_555
O60 Si11 1.636520 1_555
O60 Si26 1.636520 1_554
O61 Si20 1.619191 1_555
O61 Si3 1.623081 1_555
O62 Si4 1.636520 1_555
O62 Si30 1.636520 1_554
O63 Si0 1.636520 1_555
O63 Si29 1.636520 1_554
