# generated using pymatgen
data_Fe(SbO2)2
_symmetry_space_group_name_H-M   'P 1'
_cell_length_a   8.80255400
_cell_length_b   5.87809200
_cell_length_c   8.76092153
_cell_angle_alpha   88.30695915
_cell_angle_beta   90.00000000
_cell_angle_gamma   90.00000000
_symmetry_Int_Tables_number   1
_chemical_formula_structural   Fe(SbO2)2
_chemical_formula_sum   'Fe4 Sb8 O16'
_cell_volume   453.11165921
_cell_formula_units_Z   4
loop_
 _symmetry_equiv_pos_site_id
 _symmetry_equiv_pos_as_xyz
  1  'x, y, z'
loop_
 _atom_site_type_symbol
 _atom_site_label
 _atom_site_symmetry_multiplicity
 _atom_site_fract_x
 _atom_site_fract_y
 _atom_site_fract_z
 _atom_site_occupancy
  Fe  Fe0  1  0.99948900  0.22703300  0.50262700  1
  Fe  Fe1  1  0.49948900  0.77296700  0.99737300  1
  Fe  Fe2  1  0.50051100  0.22703300  0.00262700  1
  Fe  Fe3  1  0.00051100  0.77296700  0.49737300  1
  Sb  Sb0  1  0.32788500  0.98270400  0.33455100  1
  Sb  Sb1  1  0.82788500  0.01729600  0.16544900  1
  Sb  Sb2  1  0.83158500  0.51205000  0.81929300  1
  Sb  Sb3  1  0.33158500  0.48795000  0.68070700  1
  Sb  Sb4  1  0.17211500  0.98270400  0.83455100  1
  Sb  Sb5  1  0.66841500  0.51205000  0.31929300  1
  Sb  Sb6  1  0.67211500  0.01729600  0.66544900  1
  Sb  Sb7  1  0.16841500  0.48795000  0.18070700  1
  O  O0  1  0.35988700  0.50308700  0.90251400  1
  O  O1  1  0.68414800  0.24436600  0.83316500  1
  O  O2  1  0.10478000  0.01265800  0.34801700  1
  O  O3  1  0.16095600  0.25401900  0.68877200  1
  O  O4  1  0.14011300  0.50308700  0.40251400  1
  O  O5  1  0.89522000  0.98734200  0.65198300  1
  O  O6  1  0.81585200  0.24436600  0.33316500  1
  O  O7  1  0.66095600  0.74598100  0.81122800  1
  O  O8  1  0.33904400  0.25401900  0.18877200  1
  O  O9  1  0.60478000  0.98734200  0.15198300  1
  O  O10  1  0.83904400  0.74598100  0.31122800  1
  O  O11  1  0.39522000  0.01265800  0.84801700  1
  O  O12  1  0.64011300  0.49691300  0.09748600  1
  O  O13  1  0.31585200  0.75563400  0.16683500  1
  O  O14  1  0.85988700  0.49691300  0.59748600  1
  O  O15  1  0.18414800  0.75563400  0.66683500  1
loop_
_geom_bond_atom_site_label_1
_geom_bond_atom_site_label_2
_geom_bond_distance
_geom_bond_site_symmetry_2
Fe0 O2 2.093443 1_655
Fe0 O5 2.104927 1_545
Fe0 O3 2.172583 1_655
Fe0 O14 2.189802 1_555
Fe0 O6 2.195131 1_555
Fe0 O4 2.202387 1_655
Fe1 O9 2.093443 1_556
Fe1 O11 2.104927 1_565
Fe1 O7 2.172583 1_555
Fe1 O0 2.189802 1_555
Fe1 O13 2.195131 1_556
Fe1 O12 2.202387 1_556
Fe2 O11 2.093443 1_554
Fe2 O9 2.104927 1_545
Fe2 O8 2.172583 1_555
Fe2 O12 2.189802 1_555
Fe2 O1 2.195131 1_554
Fe2 O0 2.202387 1_554
Fe3 O5 2.093443 1_455
Fe3 O2 2.104927 1_565
Fe3 O10 2.172583 1_455
Fe3 O4 2.189802 1_555
Fe3 O15 2.195131 1_555
Fe3 O14 2.202387 1_455
O0 Sb3 1.963761 1_555
O1 Sb6 2.016832 1_555
O1 Sb2 2.040496 1_555
O2 Sb0 1.975608 1_545
O3 Sb4 2.015902 1_545
O3 Sb3 2.036168 1_555
O4 Sb7 1.963761 1_555
O5 Sb6 1.975608 1_565
O6 Sb1 2.016832 1_555
O6 Sb5 2.040496 1_555
O7 Sb6 2.015902 1_565
O7 Sb2 2.036168 1_555
O8 Sb0 2.015902 1_545
O8 Sb7 2.036168 1_555
O9 Sb1 1.975608 1_565
O10 Sb1 2.015902 1_565
O10 Sb5 2.036168 1_555
O11 Sb4 1.975608 1_545
O12 Sb5 1.963761 1_555
O13 Sb0 2.016832 1_555
O13 Sb7 2.040496 1_555
O14 Sb2 1.963761 1_555
O15 Sb4 2.016832 1_555
O15 Sb3 2.040496 1_555
