# generated using pymatgen
data_Mg8BRh4
_symmetry_space_group_name_H-M   'P 1'
_cell_length_a   8.58420683
_cell_length_b   8.58420416
_cell_length_c   8.58420454
_cell_angle_alpha   59.99885013
_cell_angle_beta   59.99886165
_cell_angle_gamma   59.99886021
_symmetry_Int_Tables_number   1
_chemical_formula_structural   Mg8BRh4
_chemical_formula_sum   'Mg16 B2 Rh8'
_cell_volume   447.27437656
_cell_formula_units_Z   2
loop_
 _symmetry_equiv_pos_site_id
 _symmetry_equiv_pos_as_xyz
  1  'x, y, z'
loop_
 _atom_site_type_symbol
 _atom_site_label
 _atom_site_symmetry_multiplicity
 _atom_site_fract_x
 _atom_site_fract_y
 _atom_site_fract_z
 _atom_site_occupancy
  Mg  Mg0  1  0.94974119  0.94974135  0.55025736  1
  Mg  Mg1  1  0.30025611  0.69974652  0.30025639  1
  Mg  Mg2  1  0.69974071  0.30025814  0.69974260  1
  Mg  Mg3  1  0.30025633  0.30025632  0.69974641  1
  Mg  Mg4  1  0.69974610  0.30025630  0.30025521  1
  Mg  Mg5  1  0.69974060  0.69974174  0.30025811  1
  Mg  Mg6  1  0.12499834  0.12499865  0.62500450  1
  Mg  Mg7  1  0.94973858  0.55026142  0.55026297  1
  Mg  Mg8  1  0.55025753  0.94974116  0.94974121  1
  Mg  Mg9  1  0.55026222  0.94973850  0.55026136  1
  Mg  Mg10  1  0.12499832  0.62500459  0.12499765  1
  Mg  Mg11  1  0.55026216  0.55026139  0.94973849  1
  Mg  Mg12  1  0.94974118  0.55025758  0.94974023  1
  Mg  Mg13  1  0.12499911  0.12499928  0.12499855  1
  Mg  Mg14  1  0.62500401  0.12499835  0.12499834  1
  Mg  Mg15  1  0.30025806  0.69974115  0.69974117  1
  B  B0  1  0.25000102  0.24999930  0.24999934  1
  B  B1  1  -0.00000028  0.00000056  -0.00000026  1
  Rh  Rh0  1  0.90428543  0.90428857  0.90428667  1
  Rh  Rh1  1  0.90428650  0.28713989  0.90428722  1
  Rh  Rh2  1  0.28713893  0.90428827  0.90428751  1
  Rh  Rh3  1  0.34571583  0.34571315  0.96285451  1
  Rh  Rh4  1  0.96285604  0.34571400  0.34571432  1
  Rh  Rh5  1  0.90428669  0.90428820  0.28713882  1
  Rh  Rh6  1  0.34571581  0.96285438  0.34571415  1
  Rh  Rh7  1  0.34571549  0.34571426  0.34571417  1
loop_
_geom_bond_atom_site_label_1
_geom_bond_atom_site_label_2
_geom_bond_distance
_geom_bond_site_symmetry_2
Mg0 Rh0 2.705723 1_555
Mg0 Rh5 2.705726 1_555
Mg0 Rh4 2.977600 1_565
Mg0 Rh6 2.977611 1_655
Mg1 Rh6 2.705689 1_555
Mg1 Rh7 2.705722 1_555
Mg1 Rh2 2.977579 1_554
Mg1 Rh5 2.977585 1_455
Mg2 Rh3 2.705642 1_555
Mg2 Rh4 2.705670 1_555
Mg2 Rh0 2.977572 1_545
Mg2 Rh1 2.977656 1_555
Mg3 Rh3 2.705685 1_555
Mg3 Rh7 2.705722 1_555
Mg3 Rh2 2.977573 1_545
Mg3 Rh1 2.977585 1_455
Mg4 Rh4 2.705704 1_555
Mg4 Rh7 2.705710 1_555
Mg4 Rh1 2.977570 1_554
Mg4 Rh5 2.977571 1_545
Mg5 Rh6 2.705643 1_555
Mg5 Rh4 2.705667 1_555
Mg5 Rh0 2.977588 1_554
Mg5 Rh5 2.977667 1_555
Mg6 Rh0 2.726145 1_445
Mg6 Rh2 2.726160 1_545
Mg6 Rh1 2.726162 1_455
Mg6 Rh7 2.726209 1_555
Mg6 Rh4 2.726217 1_455
Mg6 Rh6 2.726229 1_545
Mg7 Rh1 2.705666 1_555
Mg7 Rh5 2.705687 1_555
Mg7 Rh7 2.977627 1_655
Mg7 Rh4 2.977701 1_555
Mg8 Rh0 2.705716 1_555
Mg8 Rh2 2.705721 1_555
Mg8 Rh3 2.977592 1_565
Mg8 Rh6 2.977599 1_556
Mg9 Rh5 2.705671 1_555
Mg9 Rh2 2.705682 1_555
Mg9 Rh7 2.977615 1_565
Mg9 Rh6 2.977691 1_555
Mg10 Rh0 2.726152 1_454
Mg10 Rh2 2.726164 1_554
Mg10 Rh5 2.726167 1_455
Mg10 Rh7 2.726213 1_555
Mg10 Rh4 2.726220 1_455
Mg10 Rh3 2.726230 1_554
Mg11 Rh1 2.705667 1_555
Mg11 Rh2 2.705686 1_555
Mg11 Rh7 2.977614 1_556
Mg11 Rh3 2.977697 1_555
Mg12 Rh1 2.705719 1_555
Mg12 Rh0 2.705735 1_555
Mg12 Rh4 2.977611 1_556
Mg12 Rh3 2.977615 1_655
Mg13 Rh2 2.726164 1_544
Mg13 Rh5 2.726174 1_445
Mg13 Rh1 2.726176 1_454
Mg13 Rh3 2.726216 1_554
Mg13 Rh4 2.726216 1_455
Mg13 Rh6 2.726226 1_545
Mg14 Rh0 2.726136 1_544
Mg14 Rh5 2.726157 1_545
Mg14 Rh1 2.726162 1_554
Mg14 Rh7 2.726201 1_555
Mg14 Rh3 2.726212 1_554
Mg14 Rh6 2.726213 1_545
Mg15 Rh6 2.705656 1_555
Mg15 Rh3 2.705662 1_555
Mg15 Rh0 2.977598 1_455
Mg15 Rh2 2.977674 1_555
B0 Rh3 2.012562 1_554
B0 Rh6 2.012562 1_545
B0 Rh4 2.012563 1_455
B0 Rh7 2.012604 1_555
B0 Mg14 2.628349 1_555
B0 Mg6 2.628363 1_555
B0 Mg10 2.628364 1_555
B0 Mg13 2.628407 1_555
B1 Rh5 2.012521 1_445
B1 Rh1 2.012523 1_454
B1 Rh2 2.012523 1_544
B1 Rh0 2.012570 1_444
B1 Mg6 2.628294 1_554
B1 Mg14 2.628298 1_455
B1 Mg10 2.628299 1_545
B1 Mg13 2.628366 1_555
