# generated using pymatgen
data_Li13Mn21O48
_symmetry_space_group_name_H-M   'P 1'
_cell_length_a   5.86965220
_cell_length_b   5.86965220
_cell_length_c   28.71341589
_cell_angle_alpha   89.93861494
_cell_angle_beta   89.93861494
_cell_angle_gamma   59.64227082
_symmetry_Int_Tables_number   1
_chemical_formula_structural   Li13Mn21O48
_chemical_formula_sum   'Li13 Mn21 O48'
_cell_volume   853.61704048
_cell_formula_units_Z   1
loop_
 _symmetry_equiv_pos_site_id
 _symmetry_equiv_pos_as_xyz
  1  'x, y, z'
loop_
 _atom_site_type_symbol
 _atom_site_label
 _atom_site_symmetry_multiplicity
 _atom_site_fract_x
 _atom_site_fract_y
 _atom_site_fract_z
 _atom_site_occupancy
  Li  Li0  1  0.83292900  0.83292900  0.35797000  1
  Li  Li1  1  0.16925400  0.16925400  0.14478900  1
  Li  Li2  1  0.16638800  0.16638800  0.33338100  1
  Li  Li3  1  0.15857300  0.15857300  0.52281600  1
  Li  Li4  1  0.49960200  0.49960200  0.30756000  1
  Li  Li5  1  0.49771500  0.49771500  0.68475800  1
  Li  Li6  1  0.66663300  0.66663300  0.58329500  1
  Li  Li7  1  0.83559200  0.83559200  0.48182700  1
  Li  Li8  1  0.83378400  0.83378400  0.85695100  1
  Li  Li9  1  0.17467000  0.17467000  0.64375500  1
  Li  Li10  1  0.16693400  0.16693400  0.83284300  1
  Li  Li11  1  0.50037000  0.50037000  0.80881100  1
  Li  Li12  1  0.83498800  0.83498800  0.97947700  1
  Mn  Mn0  1  0.49962400  0.49962400  0.00069200  1
  Mn  Mn1  1  0.66497000  0.16849000  0.08326500  1
  Mn  Mn2  1  0.66568500  0.66568500  0.08361800  1
  Mn  Mn3  1  0.83419800  0.83419800  0.16784600  1
  Mn  Mn4  1  0.00191700  0.49602900  0.25014900  1
  Mn  Mn5  1  0.16849000  0.66497000  0.08326500  1
  Mn  Mn6  1  0.00192900  0.00192900  0.25017400  1
  Mn  Mn7  1  0.33048300  0.83643600  0.41669800  1
  Mn  Mn8  1  0.49602900  0.00191700  0.25014900  1
  Mn  Mn9  1  0.33088400  0.33088400  0.41654300  1
  Mn  Mn10  1  0.49999900  0.49999900  0.50185900  1
  Mn  Mn11  1  0.66670500  0.16664700  0.58330300  1
  Mn  Mn12  1  0.83643600  0.33048300  0.41669800  1
  Mn  Mn13  1  0.83327900  0.83327900  0.66472100  1
  Mn  Mn14  1  0.00289200  0.49676700  0.74990500  1
  Mn  Mn15  1  0.16664700  0.66670500  0.58330300  1
  Mn  Mn16  1  0.00243500  0.00243500  0.75005600  1
  Mn  Mn17  1  0.33066300  0.83942900  0.91667000  1
  Mn  Mn18  1  0.33064600  0.33064600  0.91658100  1
  Mn  Mn19  1  0.49676700  0.00289200  0.74990500  1
  Mn  Mn20  1  0.83942900  0.33066300  0.91667000  1
  O  O0  1  0.35266200  0.35266200  0.04387600  1
  O  O1  1  0.48262700  0.48262700  0.11919700  1
  O  O2  1  0.34967700  0.79082300  0.04421300  1
  O  O3  1  0.79082300  0.34967700  0.04421300  1
  O  O4  1  0.53765200  0.98437500  0.12270500  1
  O  O5  1  0.68892300  0.68892300  0.20992700  1
  O  O6  1  0.84722700  0.84722700  0.04699400  1
  O  O7  1  0.98437500  0.53765200  0.12270500  1
  O  O8  1  0.83335300  0.83335300  0.28517300  1
  O  O9  1  0.68779700  0.12414400  0.21036700  1
  O  O10  1  0.12414400  0.68779700  0.21036700  1
  O  O11  1  0.98262300  0.98262300  0.12274700  1
  O  O12  1  0.86003100  0.32054400  0.28447400  1
  O  O13  1  0.01320200  0.01320200  0.38208600  1
  O  O14  1  0.16651300  0.16651300  0.21421600  1
  O  O15  1  0.32054400  0.86003100  0.28447400  1
  O  O16  1  0.16626700  0.16626700  0.45237700  1
  O  O17  1  0.01082600  0.47327200  0.38228700  1
  O  O18  1  0.47327200  0.01082600  0.38228700  1
  O  O19  1  0.31938600  0.31938600  0.28465300  1
  O  O20  1  0.20311100  0.64641700  0.45572400  1
  O  O21  1  0.34794800  0.34794800  0.54384800  1
  O  O22  1  0.49961300  0.49961300  0.38171900  1
  O  O23  1  0.64641700  0.20311100  0.45572400  1
  O  O24  1  0.49040300  0.49040300  0.61771000  1
  O  O25  1  0.33370400  0.79257500  0.54064300  1
  O  O26  1  0.79257500  0.33370400  0.54064300  1
  O  O27  1  0.64625100  0.64625100  0.45705900  1
  O  O28  1  0.68702400  0.68702400  0.70958400  1
  O  O29  1  0.54070100  0.99961000  0.62598600  1
  O  O30  1  0.84287900  0.84287900  0.54890300  1
  O  O31  1  0.99961000  0.54070100  0.62598600  1
  O  O32  1  0.83373700  0.83373700  0.78493400  1
  O  O33  1  0.68684900  0.13024900  0.71091900  1
  O  O34  1  0.13024900  0.68684900  0.71091900  1
  O  O35  1  0.98529900  0.98529900  0.62276200  1
  O  O36  1  0.86012200  0.32240400  0.78446300  1
  O  O37  1  0.01329900  0.01329900  0.88214000  1
  O  O38  1  0.16698100  0.16698100  0.71420800  1
  O  O39  1  0.32240400  0.86012200  0.78446300  1
  O  O40  1  0.16714000  0.16714000  0.95178600  1
  O  O41  1  0.01209000  0.47506600  0.88230900  1
  O  O42  1  0.32006500  0.32006500  0.78466300  1
  O  O43  1  0.47506600  0.01209000  0.88230900  1
  O  O44  1  0.20543800  0.64763600  0.95669800  1
  O  O45  1  0.50014800  0.50014800  0.88191700  1
  O  O46  1  0.64763600  0.20543800  0.95669800  1
  O  O47  1  0.64710900  0.64710900  0.95730600  1
loop_
_geom_bond_atom_site_label_1
_geom_bond_atom_site_label_2
_geom_bond_distance
_geom_bond_site_symmetry_2
Li0 O17 1.950561 1_655
Li0 O18 1.950561 1_565
Li0 O13 1.963083 1_665
Li0 O8 2.090250 1_555
Li1 O4 1.970328 1_545
Li1 O7 1.970328 1_455
Li1 O14 1.993647 1_555
Li1 O11 2.004141 1_445
Li2 O19 2.092938 1_555
Li2 O15 2.093405 1_545
Li2 O12 2.093405 1_455
Li2 O13 2.093922 1_555
Li2 O17 2.095360 1_555
Li2 O18 2.095360 1_555
Li3 O26 1.923646 1_455
Li3 O25 1.923646 1_545
Li3 O21 2.021792 1_555
Li3 O16 2.023965 1_555
Li4 O15 1.941839 1_555
Li4 O12 1.941839 1_555
Li4 O19 1.950522 1_555
Li4 O22 2.129358 1_555
Li5 O24 1.926709 1_555
Li5 O34 2.006711 1_555
Li5 O33 2.006711 1_555
Li5 O28 2.056456 1_555
Li6 O30 2.047667 1_555
Li6 O24 2.047842 1_555
Li6 O25 2.099554 1_555
Li6 O26 2.099554 1_555
Li6 O31 2.100428 1_555
Li6 O29 2.100428 1_555
Li7 O30 1.927502 1_555
Li7 O23 2.006339 1_565
Li7 O20 2.006339 1_655
Li7 O27 2.056183 1_555
Li8 O41 1.956976 1_655
Li8 O43 1.956976 1_565
Li8 O37 1.967016 1_665
Li8 O32 2.067855 1_555
Li9 O29 1.923381 1_545
Li9 O31 1.923381 1_455
Li9 O35 2.021418 1_445
Li9 O38 2.024365 1_555
Li10 O42 2.083479 1_555
Li10 O39 2.084989 1_545
Li10 O36 2.084989 1_455
Li10 O37 2.108684 1_555
Li10 O41 2.110859 1_555
Li10 O43 2.110859 1_555
Li11 O36 1.951327 1_555
Li11 O39 1.951327 1_555
Li11 O42 1.963714 1_555
Li11 O45 2.099121 1_555
Li12 O6 1.942801 1_556
Li12 O46 1.986628 1_565
Li12 O44 1.986628 1_655
Li12 O47 2.017375 1_555
Mn0 O3 1.933738 1_555
Mn0 O2 1.933738 1_555
Mn0 O0 1.942490 1_555
Mn0 O47 1.950288 1_554
Mn0 O44 1.954016 1_554
Mn0 O46 1.954016 1_554
Mn1 O1 1.901786 1_555
Mn1 O3 1.929732 1_555
Mn1 O6 1.935900 1_545
Mn1 O0 1.951133 1_555
Mn1 O4 1.954667 1_545
Mn1 O11 1.974237 1_545
Mn2 O3 1.971238 1_555
Mn2 O2 1.971238 1_555
Mn2 O4 1.976172 1_555
Mn2 O7 1.976172 1_555
Mn2 O1 2.124848 1_555
Mn2 O6 2.125971 1_555
Mn3 O5 1.909125 1_555
Mn3 O10 1.910352 1_655
Mn3 O9 1.910352 1_565
Mn3 O7 1.984511 1_555
Mn3 O4 1.984511 1_555
Mn3 O11 1.989279 1_555
Mn4 O19 1.891501 1_555
Mn4 O12 1.894495 1_455
Mn4 O14 1.962698 1_555
Mn4 O5 1.972343 1_455
Mn4 O10 1.974401 1_555
Mn4 O8 1.983069 1_455
Mn5 O1 1.901786 1_555
Mn5 O2 1.929732 1_555
Mn5 O6 1.935900 1_455
Mn5 O0 1.951133 1_555
Mn5 O7 1.954667 1_455
Mn5 O11 1.974237 1_455
Mn6 O12 1.894441 1_455
Mn6 O15 1.894441 1_545
Mn6 O14 1.967631 1_555
Mn6 O9 1.971443 1_455
Mn6 O10 1.971443 1_545
Mn6 O8 1.988326 1_445
Mn7 O13 1.892383 1_565
Mn7 O18 1.894652 1_565
Mn7 O16 1.960253 1_565
Mn7 O20 1.974086 1_555
Mn7 O22 1.980202 1_555
Mn7 O27 1.983671 1_555
Mn8 O19 1.891501 1_555
Mn8 O15 1.894495 1_545
Mn8 O14 1.962698 1_555
Mn8 O5 1.972343 1_545
Mn8 O9 1.974401 1_555
Mn8 O8 1.983069 1_545
Mn9 O17 1.900102 1_555
Mn9 O18 1.900102 1_555
Mn9 O20 1.963911 1_555
Mn9 O23 1.963911 1_555
Mn9 O16 1.966055 1_555
Mn9 O22 1.987143 1_555
Mn10 O26 1.857285 1_555
Mn10 O25 1.857285 1_555
Mn10 O21 1.961420 1_555
Mn10 O27 1.966913 1_555
Mn10 O23 2.004710 1_555
Mn10 O20 2.004710 1_555
Mn11 O30 1.916232 1_545
Mn11 O24 1.916314 1_555
Mn11 O26 1.932753 1_555
Mn11 O29 1.933590 1_545
Mn11 O35 1.975776 1_545
Mn11 O21 1.976340 1_555
Mn12 O13 1.892383 1_655
Mn12 O17 1.894652 1_655
Mn12 O16 1.960253 1_655
Mn12 O23 1.974086 1_555
Mn12 O22 1.980202 1_555
Mn12 O27 1.983671 1_555
Mn13 O31 1.856461 1_555
Mn13 O29 1.856461 1_555
Mn13 O35 1.960643 1_555
Mn13 O28 1.968118 1_555
Mn13 O33 2.006220 1_565
Mn13 O34 2.006220 1_655
Mn14 O42 1.894123 1_555
Mn14 O36 1.896652 1_455
Mn14 O38 1.960334 1_555
Mn14 O34 1.973656 1_555
Mn14 O32 1.981574 1_455
Mn14 O28 1.983420 1_455
Mn15 O30 1.916232 1_455
Mn15 O24 1.916314 1_555
Mn15 O25 1.932753 1_555
Mn15 O31 1.933590 1_455
Mn15 O35 1.975776 1_455
Mn15 O21 1.976340 1_555
Mn16 O39 1.901979 1_545
Mn16 O36 1.901979 1_455
Mn16 O34 1.963398 1_545
Mn16 O33 1.963398 1_455
Mn16 O38 1.965649 1_555
Mn16 O32 1.987649 1_445
Mn17 O37 1.890714 1_565
Mn17 O43 1.892956 1_565
Mn17 O40 1.942642 1_565
Mn17 O45 1.987698 1_555
Mn17 O44 1.990074 1_555
Mn17 O47 1.992032 1_555
Mn18 O41 1.892931 1_555
Mn18 O43 1.892931 1_555
Mn18 O40 1.947003 1_555
Mn18 O46 1.987332 1_555
Mn18 O44 1.987332 1_555
Mn18 O45 1.991655 1_555
Mn19 O42 1.894123 1_555
Mn19 O39 1.896652 1_545
Mn19 O38 1.960334 1_555
Mn19 O33 1.973656 1_555
Mn19 O32 1.981574 1_545
Mn19 O28 1.983420 1_545
Mn20 O37 1.890714 1_655
Mn20 O41 1.892956 1_655
Mn20 O40 1.942642 1_655
Mn20 O45 1.987698 1_555
Mn20 O46 1.990074 1_555
Mn20 O47 1.992032 1_555
