# generated using pymatgen
data_Lu5(Si5Ir2)2
_symmetry_space_group_name_H-M   'P 1'
_cell_length_a   12.48991695
_cell_length_b   12.48988786
_cell_length_c   4.18194040
_cell_angle_alpha   90.00000000
_cell_angle_beta   90.00000000
_cell_angle_gamma   89.99913757
_symmetry_Int_Tables_number   1
_chemical_formula_structural   Lu5(Si5Ir2)2
_chemical_formula_sum   'Lu10 Si20 Ir8'
_cell_volume   652.37292535
_cell_formula_units_Z   2
loop_
 _symmetry_equiv_pos_site_id
 _symmetry_equiv_pos_as_xyz
  1  'x, y, z'
loop_
 _atom_site_type_symbol
 _atom_site_label
 _atom_site_symmetry_multiplicity
 _atom_site_fract_x
 _atom_site_fract_y
 _atom_site_fract_z
 _atom_site_occupancy
  Lu  Lu0  1  0.49999033  0.49994230  -0.00000000  1
  Lu  Lu1  1  0.00000913  0.00005807  -0.00000000  1
  Lu  Lu2  1  0.67410617  0.82592529  0.50000000  1
  Lu  Lu3  1  0.32588630  0.17412864  0.50000000  1
  Lu  Lu4  1  0.17410771  0.67408212  0.50000000  1
  Lu  Lu5  1  0.82590211  0.32586361  0.50000000  1
  Lu  Lu6  1  0.38443587  0.88448972  0.50000000  1
  Lu  Lu7  1  0.61554899  0.11559442  0.50000000  1
  Lu  Lu8  1  0.88446475  0.61550491  0.50000000  1
  Lu  Lu9  1  0.11554704  0.38441205  0.50000000  1
  Si  Si0  1  0.56608410  0.93393435  -0.00000000  1
  Si  Si1  1  0.43390816  0.06610571  -0.00000000  1
  Si  Si2  1  0.06608636  0.56606580  -0.00000000  1
  Si  Si3  1  0.93391858  0.43389207  0.00000000  1
  Si  Si4  1  0.70116958  0.66513748  0.00000000  1
  Si  Si5  1  0.29882988  0.33483941  0.00000000  1
  Si  Si6  1  0.20116979  0.83485748  0.00000000  1
  Si  Si7  1  0.79883162  0.16516607  -0.00000000  1
  Si  Si8  1  0.33484418  0.70116691  -0.00000000  1
  Si  Si9  1  0.66515668  0.29882272  0.00000000  1
  Si  Si10  1  0.16514853  0.20117266  -0.00000000  1
  Si  Si11  1  0.83485434  0.79883923  -0.00000000  1
  Si  Si12  1  0.50360488  0.65482600  0.50000000  1
  Si  Si13  1  0.49639712  0.34514534  0.50000000  1
  Si  Si14  1  0.00361127  0.84517530  0.50000000  1
  Si  Si15  1  0.99639276  0.15485154  0.50000000  1
  Si  Si16  1  0.34515930  0.50357889  0.50000000  1
  Si  Si17  1  0.65483510  0.49636213  0.50000000  1
  Si  Si18  1  0.15484113  0.00362914  0.50000000  1
  Si  Si19  1  0.84516419  0.99642533  0.50000000  1
  Ir  Ir0  1  0.51942156  0.74518286  0.00000000  1
  Ir  Ir1  1  0.48057238  0.25481638  0.00000000  1
  Ir  Ir2  1  0.01943647  0.75482466  0.00000000  1
  Ir  Ir3  1  0.98057012  0.24517455  0.00000000  1
  Ir  Ir4  1  0.25481903  0.51940960  -0.00000000  1
  Ir  Ir5  1  0.74517754  0.48054281  -0.00000000  1
  Ir  Ir6  1  0.24517745  0.01945086  0.00000000  1
  Ir  Ir7  1  0.75482146  0.98060056  -0.00000000  1
loop_
_geom_bond_atom_site_label_1
_geom_bond_atom_site_label_2
_geom_bond_distance
_geom_bond_site_symmetry_2
Lu0 Si13 2.848192 1_554
Lu0 Si13 2.848192 1_555
Lu0 Si16 2.848491 1_554
Lu0 Si16 2.848491 1_555
Lu0 Si17 2.848597 1_554
Lu0 Si17 2.848597 1_555
Lu0 Si12 2.848931 1_554
Lu0 Si12 2.848931 1_555
Lu0 Si5 3.250388 1_555
Lu0 Si9 3.250447 1_555
Lu0 Si8 3.251301 1_555
Lu0 Si4 3.251301 1_555
Lu1 Si15 2.848166 1_455
Lu1 Si15 2.848166 1_454
Lu1 Si18 2.848487 1_555
Lu1 Si18 2.848487 1_554
Lu1 Si19 2.848609 1_444
Lu1 Si19 2.848609 1_445
Lu1 Si14 2.848920 1_545
Lu1 Si14 2.848920 1_544
Lu1 Si10 3.250233 1_555
Lu1 Si7 3.250545 1_455
Lu1 Si6 3.251116 1_545
Lu1 Si11 3.251362 1_445
Lu2 Si0 2.830594 1_556
Lu2 Si0 2.830594 1_555
Lu2 Si11 2.918487 1_556
Lu2 Si11 2.918487 1_555
Lu2 Si4 2.918792 1_556
Lu2 Si4 2.918792 1_555
Lu2 Si19 3.016563 1_555
Lu2 Si12 3.016939 1_555
Lu3 Si1 2.830676 1_555
Lu3 Si1 2.830676 1_556
Lu3 Si5 2.918120 1_555
Lu3 Si5 2.918120 1_556
Lu3 Si10 2.918337 1_555
Lu3 Si10 2.918337 1_556
Lu3 Si13 3.016293 1_555
Lu3 Si18 3.016445 1_555
Lu4 Si2 2.830653 1_556
Lu4 Si2 2.830653 1_555
Lu4 Si8 2.918392 1_556
Lu4 Si8 2.918392 1_555
Lu4 Si6 2.918690 1_555
Lu4 Si6 2.918690 1_556
Lu4 Si16 3.016489 1_555
Lu4 Si14 3.016797 1_555
Lu5 Si3 2.830696 1_555
Lu5 Si3 2.830696 1_556
Lu5 Si7 2.918034 1_555
Lu5 Si7 2.918034 1_556
Lu5 Si9 2.918406 1_556
Lu5 Si9 2.918406 1_555
Lu5 Si15 3.016029 1_555
Lu5 Si17 3.016584 1_555
Lu6 Si1 3.146343 1_565
Lu6 Si1 3.146343 1_566
Lu6 Si0 3.146569 1_556
Lu6 Si0 3.146569 1_555
Lu6 Si6 3.161629 1_555
Lu6 Si6 3.161629 1_556
Lu6 Si8 3.162039 1_556
Lu6 Si8 3.162039 1_555
Lu6 Si18 3.230692 1_565
Lu6 Si12 3.231622 1_555
Lu7 Si1 3.146611 1_555
Lu7 Si1 3.146611 1_556
Lu7 Si0 3.146722 1_545
Lu7 Si0 3.146722 1_546
Lu7 Si9 3.161224 1_555
Lu7 Si9 3.161224 1_556
Lu7 Si7 3.161630 1_556
Lu7 Si7 3.161630 1_555
Lu7 Si13 3.230273 1_555
Lu7 Si19 3.231089 1_545
Lu8 Si3 3.146256 1_556
Lu8 Si3 3.146256 1_555
Lu8 Si2 3.146303 1_655
Lu8 Si2 3.146303 1_656
Lu8 Si4 3.161879 1_555
Lu8 Si4 3.161879 1_556
Lu8 Si11 3.162175 1_555
Lu8 Si11 3.162175 1_556
Lu8 Si17 3.231138 1_555
Lu8 Si14 3.231607 1_655
Lu9 Si3 3.146465 1_455
Lu9 Si3 3.146465 1_456
Lu9 Si2 3.146642 1_556
Lu9 Si2 3.146642 1_555
Lu9 Si10 3.161295 1_555
Lu9 Si10 3.161295 1_556
Lu9 Si5 3.161621 1_555
Lu9 Si5 3.161621 1_556
Lu9 Si15 3.230433 1_455
Lu9 Si16 3.231083 1_555
Si0 Si1 2.334617 1_565
Si2 Si3 2.334601 1_455
Si6 Si8 2.361268 1_555
Si7 Si9 2.360973 1_555
Si10 Si5 2.361155 1_555
Si11 Si4 2.361494 1_555
Si12 Si17 2.735849 1_555
Si12 Si16 2.735871 1_555
Si13 Si17 2.735541 1_555
Si13 Si16 2.735641 1_555
Si14 Si18 2.735796 1_565
Si14 Si19 2.735868 1_455
Si15 Si19 2.735536 1_545
Si15 Si18 2.735642 1_655
Ir0 Si8 2.370007 1_555
Ir0 Si12 2.384283 1_554
Ir0 Si12 2.384283 1_555
Ir0 Si0 2.428466 1_555
Ir0 Si4 2.480409 1_555
Ir0 Lu2 3.020237 1_555
Ir0 Lu2 3.020237 1_554
Ir0 Lu0 3.072630 1_555
Ir0 Lu6 3.200293 1_555
Ir0 Lu6 3.200293 1_554
Ir1 Si9 2.370064 1_555
Ir1 Si13 2.384127 1_555
Ir1 Si13 2.384127 1_554
Ir1 Si1 2.427976 1_555
Ir1 Si5 2.480233 1_555
Ir1 Lu3 3.020021 1_555
Ir1 Lu3 3.020021 1_554
Ir1 Lu0 3.071190 1_555
Ir1 Lu7 3.199657 1_554
Ir1 Lu7 3.199657 1_555
Ir2 Si11 2.370045 1_455
Ir2 Si14 2.384253 1_554
Ir2 Si14 2.384253 1_555
Ir2 Si2 2.428500 1_555
Ir2 Si6 2.480205 1_555
Ir2 Lu4 3.020111 1_555
Ir2 Lu4 3.020111 1_554
Ir2 Lu1 3.072530 1_565
Ir2 Lu8 3.200316 1_454
Ir2 Lu8 3.200316 1_455
Ir3 Si10 2.369963 1_655
Ir3 Si15 2.384087 1_555
Ir3 Si15 2.384087 1_554
Ir3 Si3 2.428004 1_555
Ir3 Si7 2.480142 1_555
Ir3 Lu5 3.019862 1_555
Ir3 Lu5 3.019862 1_554
Ir3 Lu1 3.071086 1_655
Ir3 Lu9 3.199792 1_655
Ir3 Lu9 3.199792 1_654
Ir4 Si5 2.369884 1_555
Ir4 Si16 2.384198 1_554
Ir4 Si16 2.384198 1_555
Ir4 Si2 2.428206 1_555
Ir4 Si8 2.480437 1_555
Ir4 Lu4 3.019989 1_555
Ir4 Lu4 3.019989 1_554
Ir4 Lu0 3.071804 1_555
Ir4 Lu9 3.200162 1_554
Ir4 Lu9 3.200162 1_555
Ir5 Si4 2.370173 1_555
Ir5 Si17 2.384199 1_554
Ir5 Si17 2.384199 1_555
Ir5 Si3 2.428292 1_555
Ir5 Si9 2.479990 1_555
Ir5 Lu5 3.020098 1_554
Ir5 Lu5 3.020098 1_555
Ir5 Lu0 3.071935 1_555
Ir5 Lu8 3.200032 1_554
Ir5 Lu8 3.200032 1_555
Ir6 Si6 2.370173 1_545
Ir6 Si18 2.384168 1_555
Ir6 Si18 2.384168 1_554
Ir6 Si1 2.428196 1_555
Ir6 Si10 2.480022 1_555
Ir6 Lu3 3.020040 1_555
Ir6 Lu3 3.020040 1_554
Ir6 Lu1 3.071700 1_555
Ir6 Lu6 3.199803 1_545
Ir6 Lu6 3.199803 1_544
Ir7 Si7 2.369841 1_565
Ir7 Si19 2.384209 1_555
Ir7 Si19 2.384209 1_554
Ir7 Si0 2.428310 1_555
Ir7 Si11 2.480494 1_555
Ir7 Lu2 3.020047 1_555
Ir7 Lu2 3.020047 1_554
Ir7 Lu1 3.072005 1_665
Ir7 Lu7 3.200113 1_564
Ir7 Lu7 3.200113 1_565
