# generated using pymatgen
data_KBi(PO3)4
_symmetry_space_group_name_H-M   'P 1'
_cell_length_a   9.12823900
_cell_length_b   10.62004100
_cell_length_c   12.96811954
_cell_angle_alpha   54.02561658
_cell_angle_beta   90.00000000
_cell_angle_gamma   90.00000000
_symmetry_Int_Tables_number   1
_chemical_formula_structural   KBi(PO3)4
_chemical_formula_sum   'K4 Bi4 P16 O48'
_cell_volume   1017.39325070
_cell_formula_units_Z   4
loop_
 _symmetry_equiv_pos_site_id
 _symmetry_equiv_pos_as_xyz
  1  'x, y, z'
loop_
 _atom_site_type_symbol
 _atom_site_label
 _atom_site_symmetry_multiplicity
 _atom_site_fract_x
 _atom_site_fract_y
 _atom_site_fract_z
 _atom_site_occupancy
  K  K0  1  0.92834200  0.24796400  0.04573500  1
  K  K1  1  0.57165800  0.24796400  0.54573500  1
  K  K2  1  0.42834200  0.75203600  0.45426500  1
  K  K3  1  0.07165800  0.75203600  0.95426500  1
  Bi  Bi0  1  0.22468600  0.18496000  0.31483900  1
  Bi  Bi1  1  0.77531400  0.81504000  0.68516100  1
  Bi  Bi2  1  0.72468600  0.81504000  0.18516100  1
  Bi  Bi3  1  0.27531400  0.18496000  0.81483900  1
  P  P0  1  0.10612300  0.30372800  0.51707800  1
  P  P1  1  0.97636000  0.48067400  0.26582500  1
  P  P2  1  0.89387700  0.69627200  0.48292200  1
  P  P3  1  0.67106800  0.18256500  0.85655800  1
  P  P4  1  0.82893200  0.18256500  0.35655800  1
  P  P5  1  0.52364000  0.48067400  0.76582500  1
  P  P6  1  0.60612300  0.69627200  0.98292200  1
  P  P7  1  0.17106800  0.81743500  0.64344200  1
  P  P8  1  0.40600100  0.88370200  0.76045900  1
  P  P9  1  0.09399900  0.88370200  0.26045900  1
  P  P10  1  0.90600100  0.11629800  0.73954100  1
  P  P11  1  0.47636000  0.51932600  0.23417500  1
  P  P12  1  0.39387700  0.30372800  0.01707800  1
  P  P13  1  0.02364000  0.51932600  0.73417500  1
  P  P14  1  0.32893200  0.81743500  0.14344200  1
  P  P15  1  0.59399900  0.11629800  0.23954100  1
  O  O0  1  0.15338000  0.64846300  0.67064000  1
  O  O1  1  0.20539900  0.77231600  0.24967000  1
  O  O2  1  0.03493700  0.86147100  0.68087200  1
  O  O3  1  0.31782000  0.01074100  0.74845400  1
  O  O4  1  0.54674800  0.53681800  0.11139600  1
  O  O5  1  0.46514000  0.07011500  0.32723300  1
  O  O6  1  0.45325200  0.46318200  0.88860400  1
  O  O7  1  0.76328600  0.07916700  0.48738400  1
  O  O8  1  0.96514000  0.92988500  0.17276700  1
  O  O9  1  0.29460100  0.77231600  0.74967000  1
  O  O10  1  0.54804200  0.24321500  0.09352200  1
  O  O11  1  0.34757400  0.19468100  0.98513700  1
  O  O12  1  0.03486000  0.07011500  0.82723300  1
  O  O13  1  0.84662000  0.35153700  0.32936000  1
  O  O14  1  0.53493700  0.13852900  0.81912800  1
  O  O15  1  0.96506300  0.13852900  0.31912800  1
  O  O16  1  0.53486000  0.92988500  0.67276700  1
  O  O17  1  0.91338700  0.55908600  0.79766600  1
  O  O18  1  0.95195800  0.24321500  0.59352200  1
  O  O19  1  0.09076800  0.36024800  0.81664000  1
  O  O20  1  0.95325200  0.53681800  0.61139600  1
  O  O21  1  0.65338000  0.35153700  0.82936000  1
  O  O22  1  0.79460100  0.22768400  0.75033000  1
  O  O23  1  0.78761100  0.65726300  0.41709200  1
  O  O24  1  0.26328600  0.92083300  0.01261600  1
  O  O25  1  0.73671400  0.07916700  0.98738400  1
  O  O26  1  0.59076800  0.63975200  0.68336000  1
  O  O27  1  0.68218000  0.98925900  0.25154600  1
  O  O28  1  0.04804200  0.75678500  0.40647800  1
  O  O29  1  0.65242600  0.80531900  0.01486300  1
  O  O30  1  0.41338700  0.44091400  0.70233400  1
  O  O31  1  0.21238900  0.34273700  0.58290800  1
  O  O32  1  0.58661300  0.55908600  0.29766600  1
  O  O33  1  0.28761100  0.34273700  0.08290800  1
  O  O34  1  0.34662000  0.64846300  0.17064000  1
  O  O35  1  0.23671400  0.92083300  0.51261600  1
  O  O36  1  0.71238900  0.65726300  0.91709200  1
  O  O37  1  0.40923200  0.36024800  0.31664000  1
  O  O38  1  0.04674800  0.46318200  0.38860400  1
  O  O39  1  0.08661300  0.44091400  0.20233400  1
  O  O40  1  0.81782000  0.98925900  0.75154600  1
  O  O41  1  0.70539900  0.22768400  0.25033000  1
  O  O42  1  0.18218000  0.01074100  0.24845400  1
  O  O43  1  0.46506300  0.86147100  0.18087200  1
  O  O44  1  0.90923200  0.63975200  0.18336000  1
  O  O45  1  0.45195800  0.75678500  0.90647800  1
  O  O46  1  0.15242600  0.19468100  0.48513700  1
  O  O47  1  0.84757400  0.80531900  0.51486300  1
loop_
_geom_bond_atom_site_label_1
_geom_bond_atom_site_label_2
_geom_bond_distance
_geom_bond_site_symmetry_2
K0 O8 2.774850 1_545
K0 O19 2.878287 1_654
K0 O25 2.905096 1_554
K0 O17 2.965984 1_554
K0 O15 3.031826 1_555
K1 O16 2.774850 1_545
K1 O37 2.878287 1_555
K1 O7 2.905096 1_555
K1 O32 2.965984 1_555
K1 O14 3.031826 1_555
K2 O5 2.774850 1_565
K2 O26 2.878287 1_555
K2 O35 2.905096 1_555
K2 O30 2.965984 1_555
K2 O43 3.031826 1_555
K3 O12 2.774850 1_565
K3 O44 2.878287 1_456
K3 O24 2.905096 1_556
K3 O39 2.965984 1_556
K3 O2 3.031826 1_555
Bi0 O46 2.364493 1_555
Bi0 O15 2.414632 1_455
Bi0 O35 2.450758 1_545
Bi0 O5 2.469974 1_555
Bi0 O42 2.487226 1_555
Bi0 O33 2.502595 1_555
Bi0 O37 2.520885 1_555
Bi0 O39 2.539035 1_555
Bi1 O47 2.364493 1_555
Bi1 O2 2.414632 1_655
Bi1 O7 2.450758 1_565
Bi1 O16 2.469974 1_555
Bi1 O40 2.487226 1_555
Bi1 O36 2.502595 1_555
Bi1 O26 2.520885 1_555
Bi1 O17 2.539035 1_555
Bi2 O29 2.364493 1_555
Bi2 O43 2.414632 1_555
Bi2 O25 2.450758 1_564
Bi2 O8 2.469974 1_555
Bi2 O27 2.487226 1_555
Bi2 O23 2.502595 1_555
Bi2 O44 2.520885 1_555
Bi2 O32 2.539035 1_555
Bi3 O11 2.364493 1_555
Bi3 O14 2.414632 1_555
Bi3 O24 2.450758 1_546
Bi3 O12 2.469974 1_555
Bi3 O3 2.487226 1_555
Bi3 O31 2.502595 1_555
Bi3 O19 2.520885 1_555
Bi3 O30 2.539035 1_555
O0 P7 1.620824 1_555
O0 P13 1.623184 1_555
O1 P14 1.619687 1_555
O1 P9 1.627079 1_555
O2 P7 1.505044 1_555
O3 P8 1.498542 1_545
O4 P6 1.619422 1_554
O4 P11 1.623264 1_555
O5 P15 1.504021 1_555
O6 P12 1.619422 1_556
O6 P5 1.623264 1_555
O7 P4 1.501500 1_555
O8 P9 1.504021 1_655
O9 P7 1.619687 1_555
O9 P8 1.627079 1_555
O10 P15 1.606190 1_555
O10 P12 1.620999 1_555
O11 P12 1.501648 1_556
O12 P10 1.504021 1_455
O13 P4 1.620824 1_555
O13 P1 1.623184 1_555
O14 P3 1.505044 1_555
O15 P4 1.505044 1_555
O16 P8 1.504021 1_555
O17 P13 1.509153 1_655
O18 P10 1.606190 1_555
O18 P0 1.620999 1_655
O19 P13 1.500222 1_555
O20 P2 1.619422 1_555
O20 P13 1.623264 1_655
O21 P3 1.620824 1_555
O21 P5 1.623184 1_555
O22 P3 1.619687 1_555
O22 P10 1.627079 1_555
O23 P2 1.502284 1_555
O24 P14 1.501500 1_555
O25 P3 1.501500 1_555
O26 P5 1.500222 1_555
O27 P15 1.498542 1_565
O28 P9 1.606190 1_555
O28 P2 1.620999 1_455
O29 P6 1.501648 1_554
O30 P5 1.509153 1_555
O31 P0 1.502284 1_555
O32 P11 1.509153 1_555
O33 P12 1.502284 1_555
O34 P14 1.620824 1_555
O34 P11 1.623184 1_555
O35 P7 1.501500 1_555
O36 P6 1.502284 1_555
O37 P11 1.500222 1_555
O38 P0 1.619422 1_555
O38 P1 1.623264 1_455
O39 P1 1.509153 1_455
O40 P10 1.498542 1_565
O41 P4 1.619687 1_555
O41 P15 1.627079 1_555
O42 P9 1.498542 1_545
O43 P14 1.505044 1_555
O44 P1 1.500222 1_555
O45 P8 1.606190 1_555
O45 P6 1.620999 1_555
O46 P0 1.501648 1_555
O47 P2 1.501648 1_555
