# generated using pymatgen
data_GdBi2ClO4
_symmetry_space_group_name_H-M   'P 1'
_cell_length_a   3.92150900
_cell_length_b   3.92150900
_cell_length_c   9.05858400
_cell_angle_alpha   90.00000000
_cell_angle_beta   90.00000000
_cell_angle_gamma   90.00000000
_symmetry_Int_Tables_number   1
_chemical_formula_structural   GdBi2ClO4
_chemical_formula_sum   'Gd1 Bi2 Cl1 O4'
_cell_volume   139.30501393
_cell_formula_units_Z   1
loop_
 _symmetry_equiv_pos_site_id
 _symmetry_equiv_pos_as_xyz
  1  'x, y, z'
loop_
 _atom_site_type_symbol
 _atom_site_label
 _atom_site_symmetry_multiplicity
 _atom_site_fract_x
 _atom_site_fract_y
 _atom_site_fract_z
 _atom_site_occupancy
  Gd  Gd0  1  0.00000000  0.00000000  0.00000000  1
  Bi  Bi0  1  0.50000000  0.50000000  0.28036800  1
  Bi  Bi1  1  0.50000000  0.50000000  0.71963200  1
  Cl  Cl0  1  0.00000000  0.00000000  0.50000000  1
  O  O0  1  0.50000000  0.00000000  0.84267400  1
  O  O1  1  0.50000000  0.00000000  0.15732600  1
  O  O2  1  0.00000000  0.50000000  0.84267400  1
  O  O3  1  0.00000000  0.50000000  0.15732600  1
loop_
_geom_bond_atom_site_label_1
_geom_bond_atom_site_label_2
_geom_bond_distance
_geom_bond_site_symmetry_2
Gd0 O2 2.423966 1_554
Gd0 O0 2.423966 1_554
Gd0 O2 2.423966 1_544
Gd0 O0 2.423966 1_454
Gd0 O1 2.423966 1_455
Gd0 O1 2.423966 1_555
Gd0 O3 2.423966 1_545
Gd0 O3 2.423966 1_555
Bi0 O3 2.255407 1_555
Bi0 O1 2.255407 1_555
Bi0 O1 2.255407 1_565
Bi0 O3 2.255407 1_655
Bi1 O2 2.255407 1_655
Bi1 O0 2.255407 1_565
Bi1 O0 2.255407 1_555
Bi1 O2 2.255407 1_555
