# generated using pymatgen
data_Sn3WO6
_symmetry_space_group_name_H-M   'P 1'
_cell_length_a   7.78445855
_cell_length_b   7.78445855
_cell_length_c   14.18806700
_cell_angle_alpha   70.82285548
_cell_angle_beta   70.82285548
_cell_angle_gamma   63.85474283
_symmetry_Int_Tables_number   1
_chemical_formula_structural   Sn3WO6
_chemical_formula_sum   'Sn12 W4 O24'
_cell_volume   711.64217317
_cell_formula_units_Z   4
loop_
 _symmetry_equiv_pos_site_id
 _symmetry_equiv_pos_as_xyz
  1  'x, y, z'
loop_
 _atom_site_type_symbol
 _atom_site_label
 _atom_site_symmetry_multiplicity
 _atom_site_fract_x
 _atom_site_fract_y
 _atom_site_fract_z
 _atom_site_occupancy
  Sn  Sn0  1  0.32032800  0.01026400  0.61527300  1
  Sn  Sn1  1  0.95521700  0.20444700  0.88573300  1
  Sn  Sn2  1  0.67967200  0.98973600  0.38472700  1
  Sn  Sn3  1  0.98973600  0.67967200  0.88472700  1
  Sn  Sn4  1  0.59394100  0.72400600  0.12203900  1
  Sn  Sn5  1  0.01026400  0.32032800  0.11527300  1
  Sn  Sn6  1  0.72400600  0.59394100  0.62203900  1
  Sn  Sn7  1  0.04478300  0.79555300  0.11426700  1
  Sn  Sn8  1  0.79555300  0.04478300  0.61426700  1
  Sn  Sn9  1  0.20444700  0.95521700  0.38573300  1
  Sn  Sn10  1  0.27599400  0.40605900  0.37796100  1
  Sn  Sn11  1  0.40605900  0.27599400  0.87796100  1
  W  W0  1  0.29278100  0.55564800  0.58891600  1
  W  W1  1  0.44435200  0.70721900  0.91108400  1
  W  W2  1  0.70721900  0.44435200  0.41108400  1
  W  W3  1  0.55564800  0.29278100  0.08891600  1
  O  O0  1  0.42421300  0.20499500  0.03428500  1
  O  O1  1  0.82580100  0.50807500  0.28000900  1
  O  O2  1  0.10289400  0.81436100  0.54349500  1
  O  O3  1  0.57578700  0.79500500  0.96571500  1
  O  O4  1  0.49192500  0.17419900  0.21999100  1
  O  O5  1  0.64874100  0.92443500  0.55834800  1
  O  O6  1  0.64424600  0.44261200  0.92316300  1
  O  O7  1  0.79500500  0.57578700  0.46571500  1
  O  O8  1  0.70517300  0.41979500  0.11795700  1
  O  O9  1  0.50807500  0.82580100  0.78000900  1
  O  O10  1  0.89710600  0.18563900  0.45650500  1
  O  O11  1  0.07556500  0.35125900  0.94165200  1
  O  O12  1  0.29482700  0.58020500  0.88204300  1
  O  O13  1  0.35125900  0.07556500  0.44165200  1
  O  O14  1  0.17419900  0.49192500  0.71999100  1
  O  O15  1  0.41979500  0.70517300  0.61795700  1
  O  O16  1  0.35575400  0.55738800  0.07683700  1
  O  O17  1  0.55738800  0.35575400  0.57683700  1
  O  O18  1  0.58020500  0.29482700  0.38204300  1
  O  O19  1  0.20499500  0.42421300  0.53428500  1
  O  O20  1  0.81436100  0.10289400  0.04349500  1
  O  O21  1  0.18563900  0.89710600  0.95650500  1
  O  O22  1  0.44261200  0.64424600  0.42316300  1
  O  O23  1  0.92443500  0.64874100  0.05834800  1
loop_
_geom_bond_atom_site_label_1
_geom_bond_atom_site_label_2
_geom_bond_distance
_geom_bond_site_symmetry_2
O0 W3 1.897319 1_555
O0 Sn11 2.139256 1_554
O1 W2 1.796194 1_555
O2 W0 1.950853 1_555
O2 Sn9 2.196897 1_555
O2 Sn8 2.402625 1_465
O3 W1 1.897319 1_555
O3 Sn4 2.139256 1_556
O4 W3 1.796194 1_555
O5 Sn8 2.200190 1_565
O5 Sn0 2.264321 1_565
O5 Sn6 2.295817 1_555
O5 Sn2 2.297820 1_555
O6 W1 1.952463 1_555
O6 W3 2.282084 1_556
O6 Sn1 2.329433 1_555
O7 W2 1.897319 1_555
O7 Sn6 2.139256 1_555
O8 W3 2.024644 1_555
O8 Sn5 2.140273 1_655
O8 Sn4 2.147356 1_555
O9 W1 1.796194 1_555
O10 W2 1.950853 1_555
O10 Sn8 2.196897 1_555
O10 Sn9 2.402625 1_645
O11 Sn1 2.200190 1_455
O11 Sn3 2.264321 1_455
O11 Sn11 2.295817 1_555
O11 Sn5 2.297820 1_556
O12 W1 2.024644 1_555
O12 Sn3 2.140273 1_455
O12 Sn11 2.147356 1_555
O13 Sn9 2.200190 1_545
O13 Sn2 2.264321 1_545
O13 Sn10 2.295817 1_555
O13 Sn0 2.297820 1_555
O14 W0 1.796194 1_555
O15 W0 2.024644 1_555
O15 Sn0 2.140273 1_565
O15 Sn6 2.147356 1_555
O16 W3 1.952463 1_555
O16 W1 2.282084 1_554
O16 Sn7 2.329433 1_555
O17 W0 1.952463 1_555
O17 W2 2.282084 1_555
O17 Sn8 2.329433 1_555
O18 W2 2.024644 1_555
O18 Sn2 2.140273 1_545
O18 Sn10 2.147356 1_555
O19 W0 1.897319 1_555
O19 Sn10 2.139256 1_555
O20 W3 1.950853 1_555
O20 Sn1 2.196897 1_554
O20 Sn7 2.402625 1_645
O21 W1 1.950853 1_555
O21 Sn7 2.196897 1_556
O21 Sn1 2.402625 1_465
O22 W2 1.952463 1_555
O22 W0 2.282084 1_555
O22 Sn9 2.329433 1_555
O23 Sn7 2.200190 1_655
O23 Sn5 2.264321 1_655
O23 Sn4 2.295817 1_555
O23 Sn3 2.297820 1_554
