# generated using pymatgen
data_PrScO3
_symmetry_space_group_name_H-M   'P 1'
_cell_length_a   5.61768640
_cell_length_b   5.82086436
_cell_length_c   8.06007464
_cell_angle_alpha   90.00000000
_cell_angle_beta   90.00000000
_cell_angle_gamma   90.00000000
_symmetry_Int_Tables_number   1
_chemical_formula_structural   PrScO3
_chemical_formula_sum   'Pr4 Sc4 O12'
_cell_volume   263.56275256
_cell_formula_units_Z   4
loop_
 _symmetry_equiv_pos_site_id
 _symmetry_equiv_pos_as_xyz
  1  'x, y, z'
loop_
 _atom_site_type_symbol
 _atom_site_label
 _atom_site_symmetry_multiplicity
 _atom_site_fract_x
 _atom_site_fract_y
 _atom_site_fract_z
 _atom_site_occupancy
  Pr  Pr0  1  0.98541153  0.05414031  0.75000000  1
  Pr  Pr1  1  0.51458847  0.55414031  0.75000000  1
  Pr  Pr2  1  0.48541153  0.44585969  0.25000000  1
  Pr  Pr3  1  0.01458847  0.94585969  0.25000000  1
  Sc  Sc0  1  0.00000000  0.50000000  0.50000000  1
  Sc  Sc1  1  0.50000000  0.00000000  0.00000000  1
  Sc  Sc2  1  0.50000000  0.00000000  0.50000000  1
  Sc  Sc3  1  0.00000000  0.50000000  0.00000000  1
  O  O0  1  0.70066601  0.29843376  0.55565636  1
  O  O1  1  0.89487559  0.53777632  0.25000000  1
  O  O2  1  0.79933399  0.79843376  0.94434364  1
  O  O3  1  0.10512441  0.46222368  0.75000000  1
  O  O4  1  0.29933399  0.70156624  0.05565636  1
  O  O5  1  0.20066601  0.20156624  0.44434364  1
  O  O6  1  0.79933399  0.79843376  0.55565636  1
  O  O7  1  0.39487559  0.96222368  0.75000000  1
  O  O8  1  0.29933399  0.70156624  0.44434364  1
  O  O9  1  0.20066601  0.20156624  0.05565636  1
  O  O10  1  0.70066601  0.29843376  0.94434364  1
  O  O11  1  0.60512441  0.03777632  0.25000000  1
loop_
_geom_bond_atom_site_label_1
_geom_bond_atom_site_label_2
_geom_bond_distance
_geom_bond_site_symmetry_2
O0 Sc0 2.098929 1_655
O0 Sc2 2.118881 1_555
O0 Pr1 2.400380 1_555
O0 Pr0 2.652267 1_555
O0 Pr2 2.875421 1_555
O1 Sc3 2.111258 1_655
O1 Sc0 2.111258 1_655
O1 Pr2 2.361645 1_555
O1 Pr3 2.468762 1_655
O2 Sc1 2.098929 1_566
O2 Sc3 2.118881 1_656
O2 Pr0 2.400380 1_565
O2 Pr1 2.652267 1_555
O2 Pr3 2.875421 1_656
O3 Sc0 2.111258 1_555
O3 Sc3 2.111258 1_556
O3 Pr1 2.361645 1_555
O3 Pr0 2.468762 1_455
O4 Sc3 2.098929 1_555
O4 Sc1 2.118881 1_565
O4 Pr2 2.400380 1_555
O4 Pr3 2.652267 1_555
O4 Pr1 2.875421 1_554
O5 Sc2 2.098929 1_555
O5 Sc0 2.118881 1_555
O5 Pr3 2.400380 1_545
O5 Pr2 2.652267 1_555
O5 Pr0 2.875421 1_455
O6 Sc2 2.098929 1_565
O6 Sc0 2.118881 1_655
O6 Pr0 2.400380 1_565
O6 Pr1 2.652267 1_555
O6 Pr3 2.875421 1_655
O7 Sc2 2.111258 1_565
O7 Sc1 2.111258 1_566
O7 Pr0 2.361645 1_465
O7 Pr1 2.468762 1_555
O8 Sc0 2.098929 1_555
O8 Sc2 2.118881 1_565
O8 Pr2 2.400380 1_555
O8 Pr3 2.652267 1_555
O8 Pr1 2.875421 1_555
O9 Sc1 2.098929 1_555
O9 Sc3 2.118881 1_555
O9 Pr3 2.400380 1_545
O9 Pr2 2.652267 1_555
O9 Pr0 2.875421 1_454
O10 Sc3 2.098929 1_656
O10 Sc1 2.118881 1_556
O10 Pr1 2.400380 1_555
O10 Pr0 2.652267 1_555
O10 Pr2 2.875421 1_556
O11 Sc1 2.111258 1_555
O11 Sc2 2.111258 1_555
O11 Pr3 2.361645 1_645
O11 Pr2 2.468762 1_555
