# generated using pymatgen
data_TaBe12
_symmetry_space_group_name_H-M   'P 1'
_cell_length_a   4.20847300
_cell_length_b   5.57845015
_cell_length_c   5.57845129
_cell_angle_alpha   81.81985304
_cell_angle_beta   67.83914366
_cell_angle_gamma   67.83914815
_symmetry_Int_Tables_number   1
_chemical_formula_structural   TaBe12
_chemical_formula_sum   'Ta1 Be12'
_cell_volume   112.32961311
_cell_formula_units_Z   1
loop_
 _symmetry_equiv_pos_site_id
 _symmetry_equiv_pos_as_xyz
  1  'x, y, z'
loop_
 _atom_site_type_symbol
 _atom_site_label
 _atom_site_symmetry_multiplicity
 _atom_site_fract_x
 _atom_site_fract_y
 _atom_site_fract_z
 _atom_site_occupancy
  Ta  Ta0  1  -0.00000000  0.00000000  -0.00000000  1
  Be  Be0  1  -0.00000000  0.64820009  0.35179991  1
  Be  Be1  1  -0.00000000  0.50000000  -0.00000000  1
  Be  Be2  1  0.64820009  0.35179991  0.35179991  1
  Be  Be3  1  0.50000000  0.21532261  0.78467739  1
  Be  Be4  1  0.00000000  0.35179991  0.64820009  1
  Be  Be5  1  0.50000000  0.00000000  0.50000000  1
  Be  Be6  1  0.35179991  0.64820009  0.64820009  1
  Be  Be7  1  0.28467739  0.21532261  0.21532261  1
  Be  Be8  1  0.50000000  0.78467739  0.21532261  1
  Be  Be9  1  -0.00000000  0.00000000  0.50000000  1
  Be  Be10  1  0.71532261  0.78467739  0.78467739  1
  Be  Be11  1  0.50000000  0.50000000  -0.00000000  1
loop_
_geom_bond_atom_site_label_1
_geom_bond_atom_site_label_2
_geom_bond_distance
_geom_bond_site_symmetry_2
Be0 Be4 2.165600 1_555
Be0 Be5 2.235303 1_465
Be0 Be9 2.235303 1_565
Be0 Be11 2.235303 1_555
Be0 Be1 2.235304 1_555
Be0 Be8 2.328544 1_555
Be0 Be8 2.328544 1_455
Be0 Be7 2.344919 1_555
Be0 Be10 2.344920 1_455
Be0 Ta0 2.570370 1_565
Be1 Be11 2.104237 1_555
Be1 Be11 2.104237 1_455
Be1 Be8 2.123101 1_455
Be1 Be3 2.123101 1_554
Be1 Be10 2.123101 1_454
Be1 Be7 2.123101 1_555
Be1 Be6 2.235303 1_554
Be1 Be2 2.235303 1_455
Be1 Be4 2.235304 1_554
Be1 Ta0 2.789225 1_555
Be1 Ta0 2.789225 1_565
Be2 Be6 2.165600 1_555
Be2 Be5 2.235303 1_555
Be2 Be9 2.235303 1_655
Be2 Be7 2.328544 1_655
Be2 Be7 2.328544 1_555
Be2 Be8 2.344919 1_555
Be2 Be3 2.344920 1_555
Be2 Ta0 2.570370 1_655
Be3 Be9 2.123101 1_655
Be3 Be5 2.123101 1_555
Be3 Be7 2.224869 1_556
Be3 Be4 2.328544 1_655
Be3 Be4 2.328544 1_555
Be3 Be6 2.344919 1_555
Be3 Ta0 2.627324 1_556
Be3 Ta0 2.627324 1_656
Be4 Be5 2.235303 1_555
Be4 Be9 2.235303 1_555
Be4 Be7 2.344920 1_555
Be4 Ta0 2.570370 1_556
Be5 Be9 2.104237 1_655
Be5 Be9 2.104237 1_555
Be5 Be8 2.123101 1_545
Be5 Be7 2.123101 1_555
Be5 Be6 2.235303 1_545
Be5 Ta0 2.789225 1_556
Be5 Ta0 2.789225 1_655
Be6 Be9 2.235303 1_565
Be6 Be8 2.344920 1_555
Be6 Ta0 2.570370 1_566
Be7 Be9 2.123101 1_555
Be7 Be8 2.224869 1_545
Be7 Ta0 2.627324 1_655
Be7 Ta0 2.627324 1_555
Be8 Be9 2.123101 1_565
Be8 Ta0 2.627324 1_665
Be8 Ta0 2.627324 1_565
Be9 Ta0 2.789226 1_556
Be9 Ta0 2.789226 1_555
Be10 Be11 2.123101 1_556
Be10 Be9 2.123101 1_665
Be10 Be5 2.123101 1_565
Be10 Be3 2.224869 1_565
Be10 Be8 2.224869 1_556
Be10 Be6 2.328544 1_655
Be10 Be6 2.328544 1_555
Be10 Be4 2.344919 1_655
Be10 Ta0 2.627324 1_566
Be10 Ta0 2.627324 1_666
Be11 Be7 2.123101 1_555
Be11 Be3 2.123101 1_554
Be11 Be8 2.123101 1_555
Be11 Be4 2.235303 1_654
Be11 Be6 2.235304 1_554
Be11 Be2 2.235304 1_555
Be11 Ta0 2.789225 1_565
Be11 Ta0 2.789225 1_655
