# generated using pymatgen
data_Hf5Sb9
_symmetry_space_group_name_H-M   'P 1'
_cell_length_a   8.69366838
_cell_length_b   8.80861888
_cell_length_c   8.80861888
_cell_angle_alpha   90.00000000
_cell_angle_beta   90.00000000
_cell_angle_gamma   90.00000000
_symmetry_Int_Tables_number   1
_chemical_formula_structural   Hf5Sb9
_chemical_formula_sum   'Hf10 Sb18'
_cell_volume   674.55708763
_cell_formula_units_Z   2
loop_
 _symmetry_equiv_pos_site_id
 _symmetry_equiv_pos_as_xyz
  1  'x, y, z'
loop_
 _atom_site_type_symbol
 _atom_site_label
 _atom_site_symmetry_multiplicity
 _atom_site_fract_x
 _atom_site_fract_y
 _atom_site_fract_z
 _atom_site_occupancy
  Hf  Hf0  1  0.25616358  0.75000000  0.75000000  1
  Hf  Hf1  1  0.74383642  0.25000000  0.25000000  1
  Hf  Hf2  1  0.26685099  0.54307628  0.35540163  1
  Hf  Hf3  1  0.73314901  0.45692372  0.64459837  1
  Hf  Hf4  1  0.26685099  0.14459837  0.54307628  1
  Hf  Hf5  1  0.26685099  0.95692372  0.14459837  1
  Hf  Hf6  1  0.73314901  0.04307628  0.85540163  1
  Hf  Hf7  1  0.73314901  0.85540163  0.45692372  1
  Hf  Hf8  1  0.26685099  0.35540163  0.95692372  1
  Hf  Hf9  1  0.73314901  0.64459837  0.04307628  1
  Sb  Sb0  1  0.00249682  0.98007466  0.66936463  1
  Sb  Sb1  1  0.99750318  0.16936463  0.01992534  1
  Sb  Sb2  1  0.38156203  0.84684341  0.44649122  1
  Sb  Sb3  1  0.61843797  0.55350878  0.34684341  1
  Sb  Sb4  1  0.61843797  0.15315659  0.55350878  1
  Sb  Sb5  1  0.38156203  0.44649122  0.65315659  1
  Sb  Sb6  1  0.00249682  0.51992534  0.83063537  1
  Sb  Sb7  1  0.39218083  0.25000000  0.25000000  1
  Sb  Sb8  1  0.61843797  0.34684341  0.94649122  1
  Sb  Sb9  1  0.99750318  0.48007466  0.16936463  1
  Sb  Sb10  1  0.99750318  0.33063537  0.48007466  1
  Sb  Sb11  1  0.99750318  0.01992534  0.33063537  1
  Sb  Sb12  1  0.38156203  0.05350878  0.84684341  1
  Sb  Sb13  1  0.60781917  0.75000000  0.75000000  1
  Sb  Sb14  1  0.00249682  0.83063537  0.98007466  1
  Sb  Sb15  1  0.61843797  0.94649122  0.15315659  1
  Sb  Sb16  1  0.00249682  0.66936463  0.51992534  1
  Sb  Sb17  1  0.38156203  0.65315659  0.05350878  1
loop_
_geom_bond_atom_site_label_1
_geom_bond_atom_site_label_2
_geom_bond_distance
_geom_bond_site_symmetry_2
Hf0 Sb2 3.010606 1_555
Hf0 Sb5 3.010606 1_555
Hf0 Sb17 3.010606 1_556
Hf0 Sb12 3.010606 1_565
Hf0 Sb13 3.057177 1_555
Hf0 Sb14 3.078165 1_555
Hf0 Sb0 3.078165 1_555
Hf0 Sb16 3.078165 1_555
Hf0 Sb6 3.078165 1_555
Hf1 Sb4 3.010606 1_555
Hf1 Sb8 3.010606 1_554
Hf1 Sb15 3.010606 1_545
Hf1 Sb3 3.010606 1_555
Hf1 Sb7 3.057177 1_555
Hf1 Sb10 3.078165 1_555
Hf1 Sb1 3.078165 1_555
Hf1 Sb11 3.078165 1_555
Hf1 Sb9 3.078165 1_555
Hf2 Sb9 2.911460 1_455
Hf2 Sb5 2.932147 1_555
Hf2 Sb16 2.935900 1_555
Hf2 Sb7 2.951919 1_555
Hf2 Sb2 2.966154 1_555
Hf2 Sb17 3.001069 1_555
Hf2 Sb3 3.058891 1_555
Hf2 Sb10 3.192339 1_455
Hf3 Sb6 2.911460 1_655
Hf3 Sb3 2.932147 1_555
Hf3 Sb10 2.935900 1_555
Hf3 Sb13 2.951919 1_555
Hf3 Sb4 2.966154 1_555
Hf3 Sb8 3.001069 1_555
Hf3 Sb5 3.058891 1_555
Hf3 Sb16 3.192339 1_655
Hf4 Sb10 2.911460 1_455
Hf4 Sb2 2.932147 1_545
Hf4 Sb0 2.935900 1_545
Hf4 Sb7 2.951919 1_555
Hf4 Sb12 2.966154 1_555
Hf4 Sb5 3.001069 1_555
Hf4 Sb4 3.058891 1_555
Hf4 Sb11 3.192339 1_455
Hf5 Sb11 2.911460 1_465
Hf5 Sb12 2.932147 1_564
Hf5 Sb14 2.935900 1_554
Hf5 Sb7 2.951919 1_565
Hf5 Sb17 2.966154 1_555
Hf5 Sb2 3.001069 1_555
Hf5 Sb15 3.058891 1_555
Hf5 Sb1 3.192339 1_465
Hf6 Sb0 2.911460 1_645
Hf6 Sb15 2.932147 1_546
Hf6 Sb1 2.935900 1_556
Hf6 Sb13 2.951919 1_545
Hf6 Sb8 2.966154 1_555
Hf6 Sb4 3.001069 1_555
Hf6 Sb12 3.058891 1_555
Hf6 Sb14 3.192339 1_645
Hf7 Sb16 2.911460 1_655
Hf7 Sb4 2.932147 1_565
Hf7 Sb11 2.935900 1_565
Hf7 Sb13 2.951919 1_555
Hf7 Sb15 2.966154 1_555
Hf7 Sb3 3.001069 1_555
Hf7 Sb2 3.058891 1_555
Hf7 Sb0 3.192339 1_655
Hf8 Sb1 2.911460 1_456
Hf8 Sb17 2.932147 1_556
Hf8 Sb6 2.935900 1_555
Hf8 Sb7 2.951919 1_556
Hf8 Sb5 2.966154 1_555
Hf8 Sb12 3.001069 1_555
Hf8 Sb8 3.058891 1_555
Hf8 Sb9 3.192339 1_456
Hf9 Sb14 2.911460 1_654
Hf9 Sb8 2.932147 1_554
Hf9 Sb9 2.935900 1_555
Hf9 Sb13 2.951919 1_554
Hf9 Sb3 2.966154 1_555
Hf9 Sb15 3.001069 1_555
Hf9 Sb17 3.058891 1_555
Hf9 Sb6 3.192339 1_654
