# generated using pymatgen
data_RuF5
_symmetry_space_group_name_H-M   'P 1'
_cell_length_a   9.81334160
_cell_length_b   5.39148427
_cell_length_c   12.28704434
_cell_angle_alpha   80.53806088
_cell_angle_beta   90.00000000
_cell_angle_gamma   90.00000000
_symmetry_Int_Tables_number   1
_chemical_formula_structural   RuF5
_chemical_formula_sum   'Ru8 F40'
_cell_volume   641.24435812
_cell_formula_units_Z   8
loop_
 _symmetry_equiv_pos_site_id
 _symmetry_equiv_pos_as_xyz
  1  'x, y, z'
loop_
 _atom_site_type_symbol
 _atom_site_label
 _atom_site_symmetry_multiplicity
 _atom_site_fract_x
 _atom_site_fract_y
 _atom_site_fract_z
 _atom_site_occupancy
  Ru  Ru0  1  0.74289616  0.00540732  0.00197110  1
  Ru  Ru1  1  0.24289616  0.99459268  0.49802890  1
  Ru  Ru2  1  0.25710384  0.99459268  0.99802890  1
  Ru  Ru3  1  0.75710384  0.00540732  0.50197110  1
  Ru  Ru4  1  0.99633551  0.69251355  0.20276548  1
  Ru  Ru5  1  0.49633551  0.30748645  0.29723452  1
  Ru  Ru6  1  0.00366449  0.30748645  0.79723452  1
  Ru  Ru7  1  0.50366449  0.69251355  0.70276548  1
  F  F0  1  0.90961266  0.80160658  0.05421448  1
  F  F1  1  0.40961266  0.19839342  0.44578552  1
  F  F2  1  0.09038734  0.19839342  0.94578552  1
  F  F3  1  0.59038734  0.80160658  0.55421448  1
  F  F4  1  0.66586903  0.90566783  0.13657891  1
  F  F5  1  0.16586903  0.09433217  0.36342109  1
  F  F6  1  0.33413097  0.09433217  0.86342109  1
  F  F7  1  0.83413097  0.90566783  0.63657891  1
  F  F8  1  0.08459960  0.60768310  0.33343113  1
  F  F9  1  0.58459960  0.39231690  0.16656887  1
  F  F10  1  0.91540040  0.39231690  0.66656887  1
  F  F11  1  0.41540040  0.60768310  0.83343113  1
  F  F12  1  0.84454565  0.51267696  0.24813584  1
  F  F13  1  0.34454565  0.48732304  0.25186416  1
  F  F14  1  0.15545435  0.48732304  0.75186416  1
  F  F15  1  0.65545435  0.51267696  0.74813584  1
  F  F16  1  0.59785198  0.19485596  0.94739674  1
  F  F17  1  0.09785198  0.80514404  0.55260326  1
  F  F18  1  0.40214802  0.80514404  0.05260326  1
  F  F19  1  0.90214802  0.19485596  0.44739674  1
  F  F20  1  0.84226100  0.09619198  0.85765500  1
  F  F21  1  0.34226100  0.90380802  0.64234500  1
  F  F22  1  0.15773900  0.90380802  0.14234500  1
  F  F23  1  0.65773900  0.09619198  0.35765500  1
  F  F24  1  0.82779892  0.27602978  0.04735207  1
  F  F25  1  0.32779892  0.72397022  0.45264793  1
  F  F26  1  0.17220108  0.72397022  0.95264793  1
  F  F27  1  0.67220108  0.27602978  0.54735207  1
  F  F28  1  0.07366977  0.42957215  0.14636245  1
  F  F29  1  0.57366977  0.57042785  0.35363755  1
  F  F30  1  0.92633023  0.57042785  0.85363755  1
  F  F31  1  0.42633023  0.42957215  0.64636245  1
  F  F32  1  0.92466785  0.98034731  0.24331526  1
  F  F33  1  0.42466785  0.01965269  0.25668474  1
  F  F34  1  0.07533215  0.01965269  0.75668474  1
  F  F35  1  0.57533215  0.98034731  0.74331526  1
  F  F36  1  0.67768483  0.72683368  0.95002938  1
  F  F37  1  0.17768483  0.27316632  0.54997062  1
  F  F38  1  0.32231517  0.27316632  0.04997062  1
  F  F39  1  0.82231517  0.72683368  0.45002938  1
loop_
_geom_bond_atom_site_label_1
_geom_bond_atom_site_label_2
_geom_bond_distance
_geom_bond_site_symmetry_2
F0 Ru4 2.012162 1_555
F0 Ru0 2.015971 1_565
F1 Ru5 2.012162 1_555
F1 Ru1 2.015971 1_545
F2 Ru6 2.012162 1_555
F2 Ru2 2.015971 1_545
F3 Ru7 2.012162 1_555
F3 Ru3 2.015971 1_565
F4 Ru0 1.817585 1_565
F5 Ru1 1.817585 1_545
F6 Ru2 1.817585 1_545
F7 Ru3 1.817585 1_565
F8 Ru4 1.815382 1_455
F9 Ru5 1.815382 1_555
F10 Ru6 1.815382 1_655
F11 Ru7 1.815382 1_555
F12 Ru4 1.814376 1_555
F13 Ru5 1.814376 1_555
F14 Ru6 1.814376 1_555
F15 Ru7 1.814376 1_555
F16 Ru0 1.814859 1_556
F17 Ru1 1.814859 1_555
F18 Ru2 1.814859 1_554
F19 Ru3 1.814859 1_555
F20 Ru0 2.012297 1_556
F20 Ru6 2.019802 1_655
F21 Ru1 2.012297 1_555
F21 Ru7 2.019802 1_555
F22 Ru2 2.012297 1_554
F22 Ru4 2.019802 1_455
F23 Ru3 2.012297 1_555
F23 Ru5 2.019802 1_555
F24 Ru0 1.844299 1_555
F25 Ru1 1.844299 1_555
F26 Ru2 1.844299 1_555
F27 Ru3 1.844299 1_555
F28 Ru4 1.840913 1_455
F29 Ru5 1.840913 1_555
F30 Ru6 1.840913 1_655
F31 Ru7 1.840913 1_555
F32 Ru4 1.845352 1_555
F33 Ru5 1.845352 1_555
F34 Ru6 1.845352 1_555
F35 Ru7 1.845352 1_555
F36 Ru0 1.840590 1_566
F37 Ru1 1.840590 1_545
F38 Ru2 1.840590 1_544
F39 Ru3 1.840590 1_565
