# generated using pymatgen
data_MoSO6
_symmetry_space_group_name_H-M   'P 1'
_cell_length_a   14.95973994
_cell_length_b   14.95973994
_cell_length_c   8.84136733
_cell_angle_alpha   76.73788926
_cell_angle_beta   76.73788926
_cell_angle_gamma   48.92295345
_symmetry_Int_Tables_number   1
_chemical_formula_structural   MoSO6
_chemical_formula_sum   'Mo12 S12 O72'
_cell_volume   1443.40662971
_cell_formula_units_Z   12
loop_
 _symmetry_equiv_pos_site_id
 _symmetry_equiv_pos_as_xyz
  1  'x, y, z'
loop_
 _atom_site_type_symbol
 _atom_site_label
 _atom_site_symmetry_multiplicity
 _atom_site_fract_x
 _atom_site_fract_y
 _atom_site_fract_z
 _atom_site_occupancy
  Mo  Mo0  1  0.45770900  0.70073400  0.89187200  1
  Mo  Mo1  1  0.95813300  0.20981200  0.90158300  1
  Mo  Mo2  1  0.64032100  0.87315500  0.26139100  1
  Mo  Mo3  1  0.87315500  0.64032100  0.76139100  1
  Mo  Mo4  1  0.54229100  0.29926600  0.10812800  1
  Mo  Mo5  1  0.70073400  0.45770900  0.39187200  1
  Mo  Mo6  1  0.29926600  0.54229100  0.60812800  1
  Mo  Mo7  1  0.79018800  0.04186700  0.59841700  1
  Mo  Mo8  1  0.12684500  0.35967900  0.23860900  1
  Mo  Mo9  1  0.35967900  0.12684500  0.73860900  1
  Mo  Mo10  1  0.04186700  0.79018800  0.09841700  1
  Mo  Mo11  1  0.20981200  0.95813300  0.40158300  1
  S  S0  1  0.58359100  0.84246200  0.68327300  1
  S  S1  1  0.18059500  0.92895600  0.02820400  1
  S  S2  1  0.25042000  0.50472000  0.24120800  1
  S  S3  1  0.49528000  0.74958000  0.25879200  1
  S  S4  1  0.92895600  0.18059500  0.52820400  1
  S  S5  1  0.41640900  0.15753800  0.31672700  1
  S  S6  1  0.07104400  0.81940500  0.47179600  1
  S  S7  1  0.84246200  0.58359100  0.18327300  1
  S  S8  1  0.81940500  0.07104400  0.97179600  1
  S  S9  1  0.74958000  0.49528000  0.75879200  1
  S  S10  1  0.15753800  0.41640900  0.81672700  1
  S  S11  1  0.50472000  0.25042000  0.74120800  1
  O  O0  1  0.36899000  0.80380000  0.32671000  1
  O  O1  1  0.64363100  0.90748200  0.06354100  1
  O  O2  1  0.09251800  0.35636900  0.43645900  1
  O  O3  1  0.02841600  0.47287800  0.82218500  1
  O  O4  1  0.63877900  0.57119900  0.86895000  1
  O  O5  1  0.19620000  0.63101000  0.17329000  1
  O  O6  1  0.58028800  0.37521400  0.97682500  1
  O  O7  1  0.97158400  0.52712200  0.17781500  1
  O  O8  1  0.17739100  0.49717700  0.72327200  1
  O  O9  1  0.74869200  0.95585700  0.64548700  1
  O  O10  1  0.35636900  0.09251800  0.93645900  1
  O  O11  1  0.90748200  0.64363100  0.56354100  1
  O  O12  1  0.69194300  0.43482000  0.21767400  1
  O  O13  1  0.30147700  0.86830700  0.93448900  1
  O  O14  1  0.62478600  0.41971200  0.52317500  1
  O  O15  1  0.84524700  0.15810200  0.58354300  1
  O  O16  1  0.72001000  0.51619100  0.60191600  1
  O  O17  1  0.49717700  0.17739100  0.22327200  1
  O  O18  1  0.13169300  0.69852300  0.56551100  1
  O  O19  1  0.82972800  0.51834300  0.76385400  1
  O  O20  1  0.63101000  0.19620000  0.67329000  1
  O  O21  1  0.69852300  0.13169300  0.06551100  1
  O  O22  1  0.98269300  0.17492400  0.65319100  1
  O  O23  1  0.36122100  0.42880100  0.13105000  1
  O  O24  1  0.51834300  0.82972800  0.26385400  1
  O  O25  1  0.17027200  0.48165700  0.23614600  1
  O  O26  1  0.71700700  0.90782300  0.31159700  1
  O  O27  1  0.97296200  0.90694600  0.58509100  1
  O  O28  1  0.02703800  0.09305400  0.41490900  1
  O  O29  1  0.92141400  0.21923600  0.09785100  1
  O  O30  1  0.82260900  0.50282300  0.27672800  1
  O  O31  1  0.19063900  0.38290400  0.97538000  1
  O  O32  1  0.41971200  0.62478600  0.02317500  1
  O  O33  1  0.48380900  0.27999000  0.89808400  1
  O  O34  1  0.84189800  0.15475300  0.91645700  1
  O  O35  1  0.48165700  0.17027200  0.73614600  1
  O  O36  1  0.61709600  0.80936100  0.52462000  1
  O  O37  1  0.47287800  0.02841600  0.32218500  1
  O  O38  1  0.30805700  0.56518000  0.78232600  1
  O  O39  1  0.01730700  0.82507600  0.34680900  1
  O  O40  1  0.80936100  0.61709600  0.02462000  1
  O  O41  1  0.25130800  0.04414300  0.35451300  1
  O  O42  1  0.15810200  0.84524700  0.08354300  1
  O  O43  1  0.78076400  0.07858600  0.40214900  1
  O  O44  1  0.57119900  0.63877900  0.36895000  1
  O  O45  1  0.21923600  0.92141400  0.59785100  1
  O  O46  1  0.43482000  0.69194300  0.71767400  1
  O  O47  1  0.90694600  0.97296200  0.08509100  1
  O  O48  1  0.38290400  0.19063900  0.47538000  1
  O  O49  1  0.52712200  0.97158400  0.67781500  1
  O  O50  1  0.42880100  0.36122100  0.63105000  1
  O  O51  1  0.04414300  0.25130800  0.85451300  1
  O  O52  1  0.30717300  0.22644600  0.23265600  1
  O  O53  1  0.95585700  0.74869200  0.14548700  1
  O  O54  1  0.17492400  0.98269300  0.15319100  1
  O  O55  1  0.82507600  0.01730700  0.84680900  1
  O  O56  1  0.37521400  0.58028800  0.47682500  1
  O  O57  1  0.28299300  0.09217700  0.68840300  1
  O  O58  1  0.80380000  0.36899000  0.82671000  1
  O  O59  1  0.56518000  0.30805700  0.28232600  1
  O  O60  1  0.09305400  0.02703800  0.91490900  1
  O  O61  1  0.07858600  0.78076400  0.90214900  1
  O  O62  1  0.69282700  0.77355400  0.76734400  1
  O  O63  1  0.77355400  0.69282700  0.26734400  1
  O  O64  1  0.50282300  0.82260900  0.77672800  1
  O  O65  1  0.90782300  0.71700700  0.81159700  1
  O  O66  1  0.51619100  0.72001000  0.10191600  1
  O  O67  1  0.27999000  0.48380900  0.39808400  1
  O  O68  1  0.86830700  0.30147700  0.43448900  1
  O  O69  1  0.15475300  0.84189800  0.41645700  1
  O  O70  1  0.22644600  0.30717300  0.73265600  1
  O  O71  1  0.09217700  0.28299300  0.18840300  1
loop_
_geom_bond_atom_site_label_1
_geom_bond_atom_site_label_2
_geom_bond_distance
_geom_bond_site_symmetry_2
Mo0 O46 1.703136 1_555
Mo0 O32 1.703655 1_556
Mo0 O4 2.040548 1_555
Mo0 O13 2.053896 1_555
Mo0 O64 2.294818 1_555
Mo0 O66 2.370647 1_556
Mo1 O51 1.702808 1_655
Mo1 O29 1.704681 1_556
Mo1 O58 2.047474 1_555
Mo1 O60 2.067055 1_655
Mo1 O22 2.265841 1_555
Mo1 O34 2.333850 1_555
Mo2 O26 1.703885 1_555
Mo2 O1 1.705173 1_555
Mo2 O63 2.042011 1_555
Mo2 O37 2.065794 1_565
Mo2 O24 2.299006 1_555
Mo2 O36 2.343828 1_555
Mo3 O65 1.703885 1_555
Mo3 O11 1.705173 1_555
Mo3 O62 2.042011 1_555
Mo3 O3 2.065794 1_655
Mo3 O19 2.299006 1_555
Mo3 O40 2.343828 1_556
Mo4 O59 1.703136 1_555
Mo4 O6 1.703655 1_554
Mo4 O23 2.040548 1_555
Mo4 O21 2.053896 1_555
Mo4 O17 2.294818 1_555
Mo4 O33 2.370647 1_554
Mo5 O12 1.703136 1_555
Mo5 O14 1.703655 1_555
Mo5 O44 2.040548 1_555
Mo5 O68 2.053896 1_555
Mo5 O30 2.294818 1_555
Mo5 O16 2.370647 1_555
Mo6 O38 1.703136 1_555
Mo6 O56 1.703655 1_555
Mo6 O50 2.040548 1_555
Mo6 O18 2.053896 1_555
Mo6 O8 2.294818 1_555
Mo6 O67 2.370647 1_555
Mo7 O9 1.702808 1_545
Mo7 O43 1.704681 1_555
Mo7 O20 2.047474 1_555
Mo7 O27 2.067055 1_545
Mo7 O55 2.265841 1_555
Mo7 O15 2.333850 1_555
Mo8 O71 1.703885 1_555
Mo8 O2 1.705173 1_555
Mo8 O52 2.042011 1_555
Mo8 O7 2.065794 1_455
Mo8 O25 2.299006 1_555
Mo8 O31 2.343828 1_554
Mo9 O57 1.703885 1_555
Mo9 O10 1.705173 1_555
Mo9 O70 2.042011 1_555
Mo9 O49 2.065794 1_545
Mo9 O35 2.299006 1_555
Mo9 O48 2.343828 1_555
Mo10 O53 1.702808 1_455
Mo10 O61 1.704681 1_554
Mo10 O5 2.047474 1_555
Mo10 O47 2.067055 1_455
Mo10 O39 2.265841 1_555
Mo10 O42 2.333850 1_555
Mo11 O41 1.702808 1_565
Mo11 O45 1.704681 1_555
Mo11 O0 2.047474 1_555
Mo11 O28 2.067055 1_565
Mo11 O54 2.265841 1_555
Mo11 O69 2.333850 1_555
O0 S3 1.508960 1_555
O3 S10 1.509538 1_555
O4 S9 1.509581 1_555
O5 S2 1.508960 1_555
O7 S7 1.509538 1_555
O8 S10 1.460059 1_555
O13 S1 1.510363 1_556
O15 S4 1.455293 1_555
O16 S9 1.455296 1_555
O17 S5 1.460059 1_555
O18 S6 1.510363 1_555
O19 S9 1.460806 1_555
O20 S11 1.508960 1_555
O21 S8 1.510363 1_554
O22 S4 1.466129 1_555
O23 S2 1.509581 1_555
O24 S3 1.460806 1_555
O25 S2 1.460806 1_555
O27 S6 1.507865 1_655
O28 S4 1.507865 1_455
O30 S7 1.460059 1_555
O31 S10 1.460811 1_555
O33 S11 1.455296 1_555
O34 S8 1.455293 1_555
O35 S11 1.460806 1_555
O36 S0 1.460811 1_555
O37 S5 1.509538 1_555
O39 S6 1.466129 1_555
O40 S7 1.460811 1_555
O42 S1 1.455293 1_555
O44 S3 1.509581 1_555
O47 S8 1.507865 1_564
O48 S5 1.460811 1_555
O49 S0 1.509538 1_555
O50 S11 1.509581 1_555
O52 S5 1.509160 1_555
O54 S1 1.466129 1_555
O55 S8 1.466129 1_555
O58 S9 1.508960 1_555
O60 S1 1.507865 1_546
O62 S0 1.509160 1_555
O63 S7 1.509160 1_555
O64 S0 1.460059 1_555
O66 S3 1.455296 1_555
O67 S2 1.455296 1_555
O68 S4 1.510363 1_555
O69 S6 1.455293 1_555
O70 S10 1.509160 1_555
