# generated using pymatgen
data_CdB2F8
_symmetry_space_group_name_H-M   'P 1'
_cell_length_a   8.67965693
_cell_length_b   9.11331221
_cell_length_c   13.08373600
_cell_angle_alpha   90.00000000
_cell_angle_beta   90.00000000
_cell_angle_gamma   90.00000000
_symmetry_Int_Tables_number   1
_chemical_formula_structural   CdB2F8
_chemical_formula_sum   'Cd8 B16 F64'
_cell_volume   1034.92905828
_cell_formula_units_Z   8
loop_
 _symmetry_equiv_pos_site_id
 _symmetry_equiv_pos_as_xyz
  1  'x, y, z'
loop_
 _atom_site_type_symbol
 _atom_site_label
 _atom_site_symmetry_multiplicity
 _atom_site_fract_x
 _atom_site_fract_y
 _atom_site_fract_z
 _atom_site_occupancy
  Cd  Cd0  1  0.78157688  0.53309094  0.60369709  1
  Cd  Cd1  1  0.21842312  0.96690906  0.10369709  1
  Cd  Cd2  1  0.71842312  0.03309094  0.39630291  1
  Cd  Cd3  1  0.28157688  0.46690906  0.89630291  1
  Cd  Cd4  1  0.21842312  0.46690906  0.39630291  1
  Cd  Cd5  1  0.28157688  0.96690906  0.60369709  1
  Cd  Cd6  1  0.71842312  0.53309094  0.10369709  1
  Cd  Cd7  1  0.78157688  0.03309094  0.89630291  1
  B  B0  1  0.99560706  0.72300472  0.93778742  1
  B  B1  1  0.18768872  0.60611762  0.65606581  1
  B  B2  1  0.81231128  0.39388238  0.34393419  1
  B  B3  1  0.18768872  0.10611762  0.84393419  1
  B  B4  1  0.00439294  0.27699528  0.06221258  1
  B  B5  1  0.68768872  0.89388238  0.65606581  1
  B  B6  1  0.49560706  0.27699528  0.56221258  1
  B  B7  1  0.68768872  0.39388238  0.84393419  1
  B  B8  1  0.50439294  0.72300472  0.43778742  1
  B  B9  1  0.31231128  0.10611762  0.34393419  1
  B  B10  1  0.31231128  0.60611762  0.15606581  1
  B  B11  1  0.81231128  0.89388238  0.15606581  1
  B  B12  1  0.00439294  0.77699528  0.43778742  1
  B  B13  1  0.49560706  0.77699528  0.93778742  1
  B  B14  1  0.99560706  0.22300472  0.56221258  1
  B  B15  1  0.50439294  0.22300472  0.06221258  1
  F  F0  1  0.97267978  0.41484970  0.33787854  1
  F  F1  1  0.26278021  0.50734663  0.72130040  1
  F  F2  1  0.42524798  0.62212546  0.37593046  1
  F  F3  1  0.92538081  0.64862175  0.01915679  1
  F  F4  1  0.73828721  0.41664215  0.94493354  1
  F  F5  1  0.47267978  0.58515030  0.16212146  1
  F  F6  1  0.76278021  0.99265337  0.72130040  1
  F  F7  1  0.07475202  0.62212546  0.87593046  1
  F  F8  1  0.38642716  0.70240601  0.87805434  1
  F  F9  1  0.26171279  0.08335785  0.44493354  1
  F  F10  1  0.73721979  0.49265337  0.27869960  1
  F  F11  1  0.73721979  0.99265337  0.22130040  1
  F  F12  1  0.11357284  0.20240601  0.12194566  1
  F  F13  1  0.57461919  0.64862175  0.51915679  1
  F  F14  1  0.27495864  0.25049761  0.31492430  1
  F  F15  1  0.07461919  0.85137825  0.51915679  1
  F  F16  1  0.40024357  0.82776405  0.47723179  1
  F  F17  1  0.42538081  0.85137825  0.01915679  1
  F  F18  1  0.97267978  0.91484970  0.16212146  1
  F  F19  1  0.72504136  0.24950239  0.81492430  1
  F  F20  1  0.92538081  0.14862175  0.48084321  1
  F  F21  1  0.90024357  0.17223595  0.02276821  1
  F  F22  1  0.27495864  0.75049761  0.18507570  1
  F  F23  1  0.47267978  0.08515030  0.33787854  1
  F  F24  1  0.88642716  0.29759399  0.62194566  1
  F  F25  1  0.22504136  0.25049761  0.81492430  1
  F  F26  1  0.23828721  0.58335785  0.55506646  1
  F  F27  1  0.42524798  0.12212546  0.12406954  1
  F  F28  1  0.52732022  0.41484970  0.83787854  1
  F  F29  1  0.73828721  0.91664215  0.55506646  1
  F  F30  1  0.77495864  0.24950239  0.31492430  1
  F  F31  1  0.11357284  0.70240601  0.37805434  1
  F  F32  1  0.61357284  0.79759399  0.37805434  1
  F  F33  1  0.02732022  0.08515030  0.83787854  1
  F  F34  1  0.76171279  0.41664215  0.44493354  1
  F  F35  1  0.07475202  0.12212546  0.62406954  1
  F  F36  1  0.90024357  0.67223595  0.47723179  1
  F  F37  1  0.23828721  0.08335785  0.94493354  1
  F  F38  1  0.23721979  0.00734663  0.27869960  1
  F  F39  1  0.57475202  0.87787454  0.87593046  1
  F  F40  1  0.07461919  0.35137825  0.98084321  1
  F  F41  1  0.57475202  0.37787454  0.62406954  1
  F  F42  1  0.26171279  0.58335785  0.05506646  1
  F  F43  1  0.09975643  0.32776405  0.52276821  1
  F  F44  1  0.61357284  0.29759399  0.12194566  1
  F  F45  1  0.88642716  0.79759399  0.87805434  1
  F  F46  1  0.38642716  0.20240601  0.62194566  1
  F  F47  1  0.22504136  0.75049761  0.68507570  1
  F  F48  1  0.59975643  0.67223595  0.97723179  1
  F  F49  1  0.59975643  0.17223595  0.52276821  1
  F  F50  1  0.92524798  0.37787454  0.12406954  1
  F  F51  1  0.09975643  0.82776405  0.97723179  1
  F  F52  1  0.92524798  0.87787454  0.37593046  1
  F  F53  1  0.42538081  0.35137825  0.48084321  1
  F  F54  1  0.72504136  0.74950239  0.68507570  1
  F  F55  1  0.23721979  0.50734663  0.22130040  1
  F  F56  1  0.26278021  0.00734663  0.77869960  1
  F  F57  1  0.57461919  0.14862175  0.98084321  1
  F  F58  1  0.40024357  0.32776405  0.02276821  1
  F  F59  1  0.52732022  0.91484970  0.66212146  1
  F  F60  1  0.76171279  0.91664215  0.05506646  1
  F  F61  1  0.77495864  0.74950239  0.18507570  1
  F  F62  1  0.02732022  0.58515030  0.66212146  1
  F  F63  1  0.76278021  0.49265337  0.77869960  1
loop_
_geom_bond_atom_site_label_1
_geom_bond_atom_site_label_2
_geom_bond_distance
_geom_bond_site_symmetry_2
Cd0 F54 2.294369 1_555
Cd0 F41 2.300998 1_555
Cd0 F62 2.314943 1_655
Cd0 F63 2.324885 1_555
Cd0 F36 2.325233 1_555
Cd0 F34 2.338972 1_555
Cd0 F24 2.343334 1_555
Cd0 F13 2.357704 1_555
Cd1 F22 2.294369 1_555
Cd1 F27 2.300998 1_565
Cd1 F18 2.314943 1_455
Cd1 F38 2.324885 1_565
Cd1 F51 2.325233 1_554
Cd1 F37 2.338972 1_564
Cd1 F12 2.343334 1_565
Cd1 F17 2.357704 1_555
Cd2 F30 2.294369 1_555
Cd2 F52 2.300998 1_545
Cd2 F23 2.314943 1_555
Cd2 F11 2.324885 1_545
Cd2 F49 2.325233 1_555
Cd2 F29 2.338972 1_545
Cd2 F32 2.343334 1_545
Cd2 F20 2.357704 1_555
Cd3 F25 2.294369 1_555
Cd3 F7 2.300998 1_555
Cd3 F28 2.314943 1_555
Cd3 F1 2.324885 1_555
Cd3 F58 2.325233 1_556
Cd3 F42 2.338972 1_556
Cd3 F8 2.343334 1_555
Cd3 F40 2.357704 1_555
Cd4 F14 2.294369 1_555
Cd4 F2 2.300998 1_555
Cd4 F0 2.314943 1_455
Cd4 F55 2.324885 1_555
Cd4 F43 2.325233 1_555
Cd4 F26 2.338972 1_555
Cd4 F31 2.343334 1_555
Cd4 F53 2.357704 1_555
Cd5 F47 2.294369 1_555
Cd5 F35 2.300998 1_565
Cd5 F59 2.314943 1_555
Cd5 F56 2.324885 1_565
Cd5 F16 2.325233 1_555
Cd5 F9 2.338972 1_565
Cd5 F46 2.343334 1_565
Cd5 F15 2.357704 1_555
Cd6 F61 2.294369 1_555
Cd6 F50 2.300998 1_555
Cd6 F5 2.314943 1_555
Cd6 F10 2.324885 1_555
Cd6 F48 2.325233 1_554
Cd6 F4 2.338972 1_554
Cd6 F44 2.343334 1_555
Cd6 F3 2.357704 1_555
Cd7 F19 2.294369 1_555
Cd7 F39 2.300998 1_545
Cd7 F33 2.314943 1_655
Cd7 F6 2.324885 1_545
Cd7 F21 2.325233 1_556
Cd7 F60 2.338972 1_546
Cd7 F45 2.343334 1_545
Cd7 F57 2.357704 1_555
B0 F3 1.401592 1_556
B0 F45 1.403883 1_555
B0 F7 1.404313 1_655
B0 F51 1.412438 1_655
B1 F1 1.401257 1_555
B1 F62 1.407230 1_555
B1 F47 1.407285 1_555
B1 F26 1.407880 1_555
B2 F10 1.401257 1_555
B2 F0 1.407230 1_555
B2 F30 1.407285 1_555
B2 F34 1.407880 1_555
B3 F56 1.401257 1_555
B3 F33 1.407230 1_555
B3 F25 1.407285 1_555
B3 F37 1.407880 1_555
B4 F40 1.401592 1_554
B4 F12 1.403883 1_555
B4 F50 1.404313 1_455
B4 F21 1.412438 1_455
B5 F6 1.401257 1_555
B5 F59 1.407230 1_555
B5 F54 1.407285 1_555
B5 F29 1.407880 1_555
B6 F53 1.401592 1_555
B6 F46 1.403883 1_555
B6 F41 1.404313 1_555
B6 F49 1.412438 1_555
B7 F63 1.401257 1_555
B7 F28 1.407230 1_555
B7 F19 1.407285 1_555
B7 F4 1.407880 1_555
B8 F13 1.401592 1_555
B8 F32 1.403883 1_555
B8 F2 1.404313 1_555
B8 F16 1.412438 1_555
B9 F38 1.401257 1_555
B9 F23 1.407230 1_555
B9 F14 1.407285 1_555
B9 F9 1.407880 1_555
B10 F55 1.401257 1_555
B10 F5 1.407230 1_555
B10 F22 1.407285 1_555
B10 F42 1.407880 1_555
B11 F11 1.401257 1_555
B11 F18 1.407230 1_555
B11 F61 1.407285 1_555
B11 F60 1.407880 1_555
B12 F15 1.401592 1_555
B12 F31 1.403883 1_555
B12 F52 1.404313 1_455
B12 F36 1.412438 1_455
B13 F17 1.401592 1_556
B13 F8 1.403883 1_555
B13 F39 1.404313 1_555
B13 F48 1.412438 1_555
B14 F20 1.401592 1_555
B14 F24 1.403883 1_555
B14 F35 1.404313 1_655
B14 F43 1.412438 1_655
B15 F57 1.401592 1_554
B15 F44 1.403883 1_555
B15 F27 1.404313 1_555
B15 F58 1.412438 1_555
