# generated using pymatgen
data_ZnWO4
_symmetry_space_group_name_H-M   'P 1'
_cell_length_a   7.42901262
_cell_length_b   7.42901262
_cell_length_c   4.88081435
_cell_angle_alpha   73.05668919
_cell_angle_beta   73.05668919
_cell_angle_gamma   127.92280724
_symmetry_Int_Tables_number   1
_chemical_formula_structural   ZnWO4
_chemical_formula_sum   'Zn2 W2 O8'
_cell_volume   158.91103533
_cell_formula_units_Z   2
loop_
 _symmetry_equiv_pos_site_id
 _symmetry_equiv_pos_as_xyz
  1  'x, y, z'
loop_
 _atom_site_type_symbol
 _atom_site_label
 _atom_site_symmetry_multiplicity
 _atom_site_fract_x
 _atom_site_fract_y
 _atom_site_fract_z
 _atom_site_occupancy
  Zn  Zn0  1  0.61536900  0.38463100  0.25000000  1
  Zn  Zn1  1  0.38463100  0.61536900  0.75000000  1
  W  W0  1  0.08270600  0.91729400  0.25000000  1
  W  W1  1  0.91729400  0.08270600  0.75000000  1
  O  O0  1  0.59704100  0.93088400  0.78589100  1
  O  O1  1  0.26373600  0.17663300  0.73954000  1
  O  O2  1  0.93088400  0.59704100  0.28589100  1
  O  O3  1  0.17663300  0.26373600  0.23954000  1
  O  O4  1  0.40295900  0.06911600  0.21410900  1
  O  O5  1  0.06911600  0.40295900  0.71410900  1
  O  O6  1  0.73626400  0.82336700  0.26046000  1
  O  O7  1  0.82336700  0.73626400  0.76046000  1
loop_
_geom_bond_atom_site_label_1
_geom_bond_atom_site_label_2
_geom_bond_distance
_geom_bond_site_symmetry_2
O0 W1 1.818431 1_565
O0 Zn1 1.966940 1_555
O1 W0 1.947385 1_546
O1 Zn0 2.041845 1_555
O1 W1 2.192871 1_455
O2 W0 1.818431 1_655
O2 Zn0 1.966940 1_555
O3 W1 1.947385 1_455
O3 Zn1 2.041845 1_554
O3 W0 2.192871 1_545
O4 W0 1.818431 1_545
O4 Zn0 1.966940 1_555
O5 W1 1.818431 1_455
O5 Zn1 1.966940 1_555
O6 W1 1.947385 1_564
O6 Zn1 2.041845 1_555
O6 W0 2.192871 1_655
O7 W0 1.947385 1_655
O7 Zn0 2.041845 1_556
O7 W1 2.192871 1_565
