# generated using pymatgen
data_Li2PdO3
_symmetry_space_group_name_H-M   'P 1'
_cell_length_a   5.19563700
_cell_length_b   5.20071820
_cell_length_c   25.93400363
_cell_angle_alpha   85.56134017
_cell_angle_beta   86.64309579
_cell_angle_gamma   79.55371669
_symmetry_Int_Tables_number   1
_chemical_formula_structural   Li2PdO3
_chemical_formula_sum   'Li24 Pd12 O36'
_cell_volume   686.37322798
_cell_formula_units_Z   12
loop_
 _symmetry_equiv_pos_site_id
 _symmetry_equiv_pos_as_xyz
  1  'x, y, z'
loop_
 _atom_site_type_symbol
 _atom_site_label
 _atom_site_symmetry_multiplicity
 _atom_site_fract_x
 _atom_site_fract_y
 _atom_site_fract_z
 _atom_site_occupancy
  Li  Li0  1  0.51563300  0.13289800  0.94037800  1
  Li  Li1  1  0.50187700  0.32925900  0.83857600  1
  Li  Li2  1  0.99980600  0.66313800  0.66844100  1
  Li  Li3  1  0.73192500  0.77484300  0.86720600  1
  Li  Li4  1  0.73826900  0.54700200  0.97175300  1
  Li  Li5  1  0.27964400  0.69151800  0.91442300  1
  Li  Li6  1  0.49923900  0.99764000  0.50145700  1
  Li  Li7  1  0.24195200  0.10104000  0.69891400  1
  Li  Li8  1  0.25655200  0.88258100  0.81166700  1
  Li  Li9  1  0.74655500  0.00663400  0.75388300  1
  Li  Li10  1  0.49747900  0.44819200  0.27417800  1
  Li  Li11  1  0.74026900  0.42993500  0.53169900  1
  Li  Li12  1  0.74722600  0.20891200  0.64354700  1
  Li  Li13  1  0.24987300  0.33612600  0.58826800  1
  Li  Li14  1  0.97933600  0.77297700  0.11070200  1
  Li  Li15  1  0.27237000  0.78313900  0.35518900  1
  Li  Li16  1  0.25626600  0.54945000  0.47729300  1
  Li  Li17  1  0.72921400  0.66219500  0.42031100  1
  Li  Li18  1  0.74308900  0.10572700  0.18584200  1
  Li  Li19  1  0.74458000  0.90321100  0.29698200  1
  Li  Li20  1  0.25913100  0.01955500  0.24266000  1
  Li  Li21  1  0.74262400  0.30398500  0.08174300  1
  Li  Li22  1  0.26271200  0.20743700  0.13578400  1
  Li  Li23  1  0.49966300  0.90317000  0.05571000  1
  Pd  Pd0  1  0.50203600  0.55872100  0.72205000  1
  Pd  Pd1  1  0.00431400  0.44988800  0.77800900  1
  Pd  Pd2  1  0.00008900  0.88699200  0.55567100  1
  Pd  Pd3  1  0.50121800  0.77797000  0.61107200  1
  Pd  Pd4  1  0.50023900  0.22205700  0.38864000  1
  Pd  Pd5  1  0.00021200  0.10688100  0.44536100  1
  Pd  Pd6  1  0.99935800  0.33768700  0.33193100  1
  Pd  Pd7  1  0.99514500  0.55737300  0.22111300  1
  Pd  Pd8  1  0.49266100  0.66676300  0.16398100  1
  Pd  Pd9  1  0.00575200  0.23174400  0.88904000  1
  Pd  Pd10  1  0.99801900  0.00284800  0.00083300  1
  Pd  Pd11  1  0.25718500  0.44855900  0.02918400  1
  O  O0  1  0.11239200  0.32138900  0.96299000  1
  O  O1  1  0.64437300  0.44917900  0.90268700  1
  O  O2  1  0.11318700  0.54860100  0.84635300  1
  O  O3  1  0.63685600  0.66351900  0.78745100  1
  O  O4  1  0.13525000  0.76097100  0.73787600  1
  O  O5  1  0.61138300  0.87655700  0.67918000  1
  O  O6  1  0.13338100  0.99153600  0.62150300  1
  O  O7  1  0.63474600  0.09085300  0.57124300  1
  O  O8  1  0.11015800  0.20426300  0.51305800  1
  O  O9  1  0.63189300  0.32171200  0.45619900  1
  O  O10  1  0.89650300  0.91362400  0.93037700  1
  O  O11  1  0.35418700  0.76980900  0.99072700  1
  O  O12  1  0.63293800  0.53503800  0.34927000  1
  O  O13  1  0.12468900  0.42360400  0.40281000  1
  O  O14  1  0.10549100  0.65262000  0.29206000  1
  O  O15  1  0.36773300  0.01406400  0.87591500  1
  O  O16  1  0.37390600  0.25113300  0.76162600  1
  O  O17  1  0.89579400  0.13905300  0.82074600  1
  O  O18  1  0.62348900  0.77183700  0.23167600  1
  O  O19  1  0.12450700  0.86336900  0.18083300  1
  O  O20  1  0.61244200  0.97259200  0.12570000  1
  O  O21  1  0.86923900  0.34007000  0.71084500  1
  O  O22  1  0.86990700  0.57918300  0.59495900  1
  O  O23  1  0.38895900  0.46465500  0.65209800  1
  O  O24  1  0.11907000  0.12759000  0.06634600  1
  O  O25  1  0.61641800  0.20489000  0.01232000  1
  O  O26  1  0.36762100  0.67049100  0.54390600  1
  O  O27  1  0.36642400  0.90822700  0.42812400  1
  O  O28  1  0.89037900  0.79233500  0.48542400  1
  O  O29  1  0.87590100  0.01950100  0.37517000  1
  O  O30  1  0.88821700  0.24009400  0.26463600  1
  O  O31  1  0.36888200  0.12399700  0.32138400  1
  O  O32  1  0.35751400  0.35140900  0.20698600  1
  O  O33  1  0.39263300  0.50637600  0.09940300  1
  O  O34  1  0.86076700  0.45242000  0.15588900  1
  O  O35  1  0.90125800  0.67539400  0.03873900  1
loop_
_geom_bond_atom_site_label_1
_geom_bond_atom_site_label_2
_geom_bond_distance
_geom_bond_site_symmetry_2
Li0 O1 2.045011 1_555
Li0 O25 2.046710 1_556
Li0 O15 2.061526 1_555
Li0 O10 2.109736 1_545
Li0 O0 2.212375 1_555
Li0 O11 2.457403 1_545
Li1 O1 2.042943 1_555
Li1 O15 2.049422 1_555
Li1 O2 2.138418 1_555
Li1 O17 2.146376 1_555
Li1 O16 2.229021 1_555
Li1 O3 2.290899 1_555
Li2 O4 2.101613 1_655
Li2 O21 2.128975 1_555
Li2 O23 2.131613 1_655
Li2 O5 2.133545 1_555
Li2 O22 2.159640 1_555
Li2 O6 2.211215 1_655
Li3 O1 1.977710 1_555
Li3 O15 2.078238 1_565
Li3 O10 2.122957 1_555
Li3 O2 2.174557 1_655
Li3 O3 2.294782 1_555
Li3 O17 2.424023 1_565
Li4 O1 2.009590 1_555
Li4 O0 2.090276 1_655
Li4 O11 2.168365 1_555
Li4 O25 2.171183 1_556
Li4 O35 2.176646 1_556
Li4 O10 2.368808 1_555
Li5 O15 1.996570 1_565
Li5 O1 2.097108 1_555
Li5 O11 2.122112 1_555
Li5 O10 2.147530 1_455
Li5 O2 2.243166 1_555
Li5 O0 2.479932 1_555
Li6 O7 2.101181 1_565
Li6 O8 2.126709 1_565
Li6 O26 2.148997 1_555
Li6 O28 2.150761 1_555
Li6 O9 2.171071 1_565
Li6 O27 2.171697 1_555
Li7 O16 2.060482 1_555
Li7 O4 2.114150 1_545
Li7 O5 2.115173 1_545
Li7 O21 2.123083 1_455
Li7 O6 2.258093 1_545
Li7 O23 2.386080 1_555
Li8 O15 2.002458 1_565
Li8 O17 2.106689 1_465
Li8 O2 2.128337 1_555
Li8 O3 2.178470 1_555
Li8 O4 2.220939 1_555
Li8 O16 2.382424 1_565
Li9 O3 2.082597 1_545
Li9 O16 2.122995 1_555
Li9 O17 2.149020 1_555
Li9 O21 2.162671 1_555
Li9 O4 2.220670 1_645
Li9 O5 2.288816 1_545
Li10 O32 2.058054 1_555
Li10 O18 2.122411 1_555
Li10 O30 2.130690 1_555
Li10 O14 2.161890 1_555
Li10 O31 2.186585 1_555
Li10 O12 2.214444 1_555
Li11 O22 2.064890 1_555
Li11 O8 2.113203 1_655
Li11 O7 2.113519 1_555
Li11 O26 2.127248 1_555
Li11 O9 2.209593 1_555
Li11 O28 2.382032 1_555
Li12 O23 2.093474 1_555
Li12 O21 2.093777 1_555
Li12 O5 2.111526 1_545
Li12 O7 2.161317 1_555
Li12 O6 2.184816 1_645
Li12 O22 2.382808 1_555
Li13 O23 2.048364 1_555
Li13 O6 2.100966 1_545
Li13 O22 2.148073 1_455
Li13 O26 2.171515 1_555
Li13 O7 2.208967 1_555
Li13 O8 2.314099 1_555
Li14 O20 2.029988 1_555
Li14 O35 2.053065 1_555
Li14 O34 2.125466 1_555
Li14 O19 2.125895 1_655
Li14 O24 2.304545 1_665
Li14 O33 2.351363 1_655
Li15 O31 2.047642 1_565
Li15 O12 2.078083 1_555
Li15 O14 2.108217 1_555
Li15 O27 2.157258 1_555
Li15 O29 2.253479 1_465
Li15 O13 2.379525 1_555
Li16 O26 2.032941 1_555
Li16 O28 2.092234 1_455
Li16 O9 2.155908 1_555
Li16 O8 2.193944 1_555
Li16 O13 2.267052 1_555
Li16 O27 2.317039 1_555
Li17 O9 2.066874 1_555
Li17 O27 2.086152 1_555
Li17 O12 2.120935 1_555
Li17 O28 2.135128 1_555
Li17 O13 2.240773 1_655
Li17 O29 2.340255 1_565
Li18 O20 1.958186 1_545
Li18 O34 2.087006 1_555
Li18 O19 2.149922 1_645
Li18 O18 2.190815 1_545
Li18 O32 2.235642 1_555
Li18 O30 2.413526 1_555
Li19 O18 2.047157 1_555
Li19 O14 2.083872 1_655
Li19 O30 2.122167 1_565
Li19 O31 2.164313 1_565
Li19 O29 2.333337 1_565
Li19 O12 2.397992 1_555
Li20 O32 2.028119 1_555
Li20 O19 2.063726 1_545
Li20 O18 2.105674 1_545
Li20 O30 2.127253 1_455
Li20 O31 2.282268 1_555
Li20 O14 2.444270 1_545
Li21 O33 1.976703 1_555
Li21 O24 2.034961 1_655
Li21 O25 2.083625 1_555
Li21 O20 2.180768 1_545
Li21 O34 2.282565 1_555
Li21 O35 2.406327 1_555
Li22 O33 1.960069 1_555
Li22 O20 2.012678 1_545
Li22 O24 2.087546 1_555
Li22 O32 2.160387 1_555
Li22 O19 2.264201 1_545
Li22 O34 2.294962 1_455
Li23 O20 2.017690 1_555
Li23 O25 2.021985 1_565
Li23 O11 2.100635 1_554
Li23 O24 2.120742 1_565
Li23 O35 2.242205 1_555
Li23 O33 2.414981 1_555
O0 Pd10 2.024303 1_456
O0 Pd11 2.111335 1_556
O0 Pd9 2.135155 1_555
O1 Pd9 2.035573 1_655
O2 Pd1 2.022033 1_555
O2 Pd9 2.057054 1_555
O3 Pd0 2.021181 1_555
O3 Pd1 2.038992 1_655
O4 Pd0 2.038337 1_555
O4 Pd1 2.054044 1_555
O5 Pd3 2.018752 1_555
O5 Pd0 2.067194 1_555
O6 Pd2 2.027003 1_555
O6 Pd3 2.043409 1_555
O7 Pd2 2.033961 1_645
O7 Pd3 2.064307 1_545
O8 Pd5 2.006271 1_555
O8 Pd2 2.063224 1_545
O9 Pd5 2.049308 1_655
O9 Pd4 2.053226 1_555
O10 Pd10 2.040846 1_566
O10 Pd9 2.050222 1_665
O11 Pd11 2.007137 1_556
O11 Pd10 2.034960 1_466
O12 Pd6 2.035349 1_555
O12 Pd4 2.057815 1_555
O13 Pd4 2.067606 1_555
O13 Pd5 2.090603 1_555
O13 Pd6 2.091746 1_455
O14 Pd6 2.013580 1_455
O14 Pd7 2.080154 1_455
O15 Pd9 2.036466 1_555
O16 Pd0 2.026721 1_555
O16 Pd1 2.046719 1_555
O17 Pd9 2.011520 1_655
O17 Pd1 2.034606 1_655
O18 Pd7 2.062072 1_555
O18 Pd8 2.065368 1_555
O19 Pd7 2.030729 1_455
O19 Pd8 2.038949 1_555
O20 Pd8 1.986173 1_555
O21 Pd0 2.053519 1_555
O21 Pd1 2.072482 1_655
O22 Pd2 2.029225 1_655
O22 Pd3 2.041529 1_555
O23 Pd3 2.032482 1_555
O23 Pd0 2.059610 1_555
O24 Pd10 2.036368 1_455
O24 Pd11 2.081972 1_555
O25 Pd10 2.085092 1_555
O25 Pd11 2.100787 1_555
O26 Pd2 2.052455 1_555
O26 Pd3 2.064317 1_555
O27 Pd5 2.036305 1_565
O27 Pd4 2.065243 1_565
O28 Pd5 2.021685 1_665
O28 Pd2 2.061152 1_655
O29 Pd4 2.067078 1_555
O29 Pd5 2.075921 1_655
O29 Pd6 2.102545 1_555
O30 Pd6 1.999573 1_555
O30 Pd7 2.067881 1_555
O31 Pd4 2.042417 1_555
O31 Pd6 2.051288 1_455
O32 Pd7 2.018653 1_455
O32 Pd8 2.114123 1_555
O33 Pd11 2.052680 1_555
O33 Pd8 2.060599 1_555
O34 Pd7 2.016440 1_555
O34 Pd8 2.039755 1_555
O35 Pd11 2.018261 1_655
O35 Pd10 2.028002 1_565
