# generated using pymatgen
data_KMnCl3
_symmetry_space_group_name_H-M   'P 1'
_cell_length_a   3.86265975
_cell_length_b   8.80346841
_cell_length_c   14.36243149
_cell_angle_alpha   90.00000000
_cell_angle_beta   90.00000000
_cell_angle_gamma   90.00000000
_symmetry_Int_Tables_number   1
_chemical_formula_structural   KMnCl3
_chemical_formula_sum   'K4 Mn4 Cl12'
_cell_volume   488.39165468
_cell_formula_units_Z   4
loop_
 _symmetry_equiv_pos_site_id
 _symmetry_equiv_pos_as_xyz
  1  'x, y, z'
loop_
 _atom_site_type_symbol
 _atom_site_label
 _atom_site_symmetry_multiplicity
 _atom_site_fract_x
 _atom_site_fract_y
 _atom_site_fract_z
 _atom_site_occupancy
  K  K0  1  0.75000000  0.56306421  0.82478556  1
  K  K1  1  0.25000000  0.93693579  0.32478556  1
  K  K2  1  0.25000000  0.43693579  0.17521444  1
  K  K3  1  0.75000000  0.06306421  0.67521444  1
  Mn  Mn0  1  0.25000000  0.16468404  0.94477696  1
  Mn  Mn1  1  0.25000000  0.66468404  0.55522304  1
  Mn  Mn2  1  0.75000000  0.33531596  0.44477696  1
  Mn  Mn3  1  0.75000000  0.83531596  0.05522304  1
  Cl  Cl0  1  0.25000000  0.52214831  0.39989103  1
  Cl  Cl1  1  0.25000000  0.67297509  0.99394665  1
  Cl  Cl2  1  0.75000000  0.47785169  0.60010897  1
  Cl  Cl3  1  0.75000000  0.72071720  0.20800283  1
  Cl  Cl4  1  0.25000000  0.27928280  0.79199717  1
  Cl  Cl5  1  0.75000000  0.97785169  0.89989103  1
  Cl  Cl6  1  0.25000000  0.02214831  0.10010897  1
  Cl  Cl7  1  0.75000000  0.22071720  0.29199717  1
  Cl  Cl8  1  0.75000000  0.32702491  0.00605335  1
  Cl  Cl9  1  0.25000000  0.77928280  0.70800283  1
  Cl  Cl10  1  0.75000000  0.82702491  0.49394665  1
  Cl  Cl11  1  0.25000000  0.17297509  0.50605335  1
loop_
_geom_bond_atom_site_label_1
_geom_bond_atom_site_label_2
_geom_bond_distance
_geom_bond_site_symmetry_2
Cl0 Mn1 2.559622 1_555
Cl0 Mn2 2.617425 1_455
Cl0 Mn2 2.617425 1_555
Cl0 K2 3.312951 1_555
Cl1 Mn3 2.558726 1_456
Cl1 Mn3 2.558726 1_556
Cl1 K0 3.251010 1_455
Cl1 K0 3.251010 1_555
Cl1 K2 3.331046 1_556
Cl2 Mn2 2.559622 1_555
Cl2 Mn1 2.617425 1_555
Cl2 Mn1 2.617425 1_655
Cl2 K0 3.312951 1_555
Cl3 Mn3 2.415102 1_555
Cl3 K1 3.188499 1_555
Cl3 K1 3.188499 1_655
Cl3 K2 3.192665 1_655
Cl3 K2 3.192665 1_555
Cl4 Mn0 2.415102 1_555
Cl4 K3 3.188499 1_455
Cl4 K3 3.188499 1_555
Cl4 K0 3.192665 1_555
Cl4 K0 3.192665 1_455
Cl5 Mn3 2.559622 1_556
Cl5 Mn0 2.617425 1_665
Cl5 Mn0 2.617425 1_565
Cl5 K3 3.312951 1_565
Cl6 Mn0 2.559622 1_554
Cl6 Mn3 2.617425 1_445
Cl6 Mn3 2.617425 1_545
Cl6 K1 3.312951 1_545
Cl7 Mn2 2.415102 1_555
Cl7 K2 3.188499 1_555
Cl7 K2 3.188499 1_655
Cl7 K1 3.192665 1_645
Cl7 K1 3.192665 1_545
Cl8 Mn0 2.558726 1_654
Cl8 Mn0 2.558726 1_554
Cl8 K2 3.251010 1_555
Cl8 K2 3.251010 1_655
Cl8 K0 3.331046 1_554
Cl9 Mn1 2.415102 1_555
Cl9 K0 3.188499 1_455
Cl9 K0 3.188499 1_555
Cl9 K3 3.192665 1_465
Cl9 K3 3.192665 1_565
Cl10 Mn1 2.558726 1_555
Cl10 Mn1 2.558726 1_655
Cl10 K1 3.251010 1_555
Cl10 K1 3.251010 1_655
Cl10 K3 3.331046 1_565
Cl11 Mn2 2.558726 1_455
Cl11 Mn2 2.558726 1_555
Cl11 K3 3.251010 1_455
Cl11 K3 3.251010 1_555
Cl11 K1 3.331046 1_545
