# generated using pymatgen
data_CaV2(PO5)2
_symmetry_space_group_name_H-M   'P 1'
_cell_length_a   9.96072795
_cell_length_b   8.82580855
_cell_length_c   6.92945479
_cell_angle_alpha   77.39341821
_cell_angle_beta   59.84837324
_cell_angle_gamma   42.75820855
_symmetry_Int_Tables_number   1
_chemical_formula_structural   CaV2(PO5)2
_chemical_formula_sum   'Ca2 V4 P4 O20'
_cell_volume   345.65993973
_cell_formula_units_Z   2
loop_
 _symmetry_equiv_pos_site_id
 _symmetry_equiv_pos_as_xyz
  1  'x, y, z'
loop_
 _atom_site_type_symbol
 _atom_site_label
 _atom_site_symmetry_multiplicity
 _atom_site_fract_x
 _atom_site_fract_y
 _atom_site_fract_z
 _atom_site_occupancy
  Ca  Ca0  1  0.50075800  0.99924200  0.99924200  1
  Ca  Ca1  1  0.25075800  0.74924200  0.74924200  1
  V  V0  1  0.87654800  0.38368600  0.39523800  1
  V  V1  1  0.34452900  0.39523800  0.38368600  1
  V  V2  1  0.86631400  0.37345200  0.90547100  1
  V  V3  1  0.85476200  0.90547100  0.37345200  1
  P  P0  1  0.03859800  0.54583000  0.96219600  1
  P  P1  1  0.70417000  0.21140200  0.79662400  1
  P  P2  1  0.45337600  0.96219600  0.54583000  1
  P  P3  1  0.28780400  0.79662400  0.21140200  1
  O  O0  1  0.58016300  0.72147000  0.44792300  1
  O  O1  1  0.65827300  0.17259600  0.33981700  1
  O  O2  1  0.31607700  0.65244000  0.39366500  1
  O  O3  1  0.80207700  0.99955700  0.66983700  1
  O  O4  1  0.21689100  0.07963100  0.75845900  1
  O  O5  1  0.41981300  0.10766600  0.36434100  1
  O  O6  1  0.07740400  0.59172700  0.42068600  1
  O  O7  1  0.82931400  0.33981700  0.17259600  1
  O  O8  1  0.91018300  0.42068600  0.59172700  1
  O  O9  1  0.17036900  0.03310900  0.30498100  1
  O  O10  1  0.25044300  0.44792300  0.72147000  1
  O  O11  1  0.49154100  0.30498100  0.03310900  1
  O  O12  1  0.94501900  0.75845900  0.07963100  1
  O  O13  1  0.14233400  0.83018700  0.14182000  1
  O  O14  1  0.10818000  0.36434100  0.10766600  1
  O  O15  1  0.88565900  0.14182000  0.83018700  1
  O  O16  1  0.85633500  0.61218200  0.93392300  1
  O  O17  1  0.63781800  0.39366500  0.65244000  1
  O  O18  1  0.52853000  0.66983700  0.99955700  1
  O  O19  1  0.59756000  0.93392300  0.61218200  1
loop_
_geom_bond_atom_site_label_1
_geom_bond_atom_site_label_2
_geom_bond_distance
_geom_bond_site_symmetry_2
Ca0 O16 2.390919 1_555
Ca0 O19 2.390919 1_555
Ca0 O14 2.416819 1_566
Ca0 O5 2.416819 1_566
Ca0 O9 2.689949 1_566
Ca0 O11 2.689949 1_566
Ca0 O18 2.710273 1_555
Ca0 O3 2.710280 1_555
Ca1 O2 2.390919 1_555
Ca1 O17 2.390919 1_555
Ca1 O13 2.416819 1_556
Ca1 O15 2.416819 1_465
Ca1 O12 2.689949 1_456
Ca1 O4 2.689949 1_565
Ca1 O0 2.710274 1_555
Ca1 O10 2.710282 1_555
O0 P2 1.548394 1_555
O0 V0 2.050549 1_555
O1 V3 1.698747 1_545
O1 V1 2.002211 1_555
O2 P3 1.556693 1_555
O2 V1 2.083796 1_555
O3 P1 1.548386 1_565
O3 V3 2.050556 1_555
O4 P2 1.545547 1_545
O4 V2 2.058774 1_455
O5 P2 1.558529 1_545
O5 V1 2.067542 1_555
O6 V1 1.698749 1_555
O6 V3 2.002214 1_455
O7 V2 1.698749 1_554
O7 V0 2.002219 1_555
O8 V0 1.698742 1_555
O8 V2 2.002212 1_555
O9 P3 1.545547 1_545
O9 V0 2.058774 1_455
O10 P0 1.548390 1_555
O10 V1 2.050543 1_555
O11 P1 1.545547 1_554
O11 V1 2.058775 1_555
O12 P0 1.545547 1_654
O12 V3 2.058769 1_555
O13 P3 1.558529 1_555
O13 V3 2.067541 1_455
O14 P0 1.558529 1_554
O14 V0 2.067536 1_455
O15 P1 1.558529 1_555
O15 V2 2.067533 1_555
O16 P0 1.556693 1_655
O16 V2 2.083805 1_555
O17 P1 1.556693 1_555
O17 V0 2.083803 1_555
O18 P3 1.548391 1_556
O18 V2 2.050546 1_555
O19 P2 1.556693 1_555
O19 V3 2.083797 1_555
