# generated using pymatgen
data_LiGa(MoO4)2
_symmetry_space_group_name_H-M   'P 1'
_cell_length_a   6.83020600
_cell_length_b   7.18987850
_cell_length_c   7.49834185
_cell_angle_alpha   91.14344133
_cell_angle_beta   110.59998403
_cell_angle_gamma   104.74849139
_symmetry_Int_Tables_number   1
_chemical_formula_structural   LiGa(MoO4)2
_chemical_formula_sum   'Li2 Ga2 Mo4 O16'
_cell_volume   330.88096834
_cell_formula_units_Z   2
loop_
 _symmetry_equiv_pos_site_id
 _symmetry_equiv_pos_as_xyz
  1  'x, y, z'
loop_
 _atom_site_type_symbol
 _atom_site_label
 _atom_site_symmetry_multiplicity
 _atom_site_fract_x
 _atom_site_fract_y
 _atom_site_fract_z
 _atom_site_occupancy
  Li  Li0  1  0.23096200  0.55295000  0.75191700  1
  Li  Li1  1  0.76903800  0.44705000  0.24808300  1
  Ga  Ga0  1  0.40557700  0.09954200  0.31948200  1
  Ga  Ga1  1  0.59442300  0.90045800  0.68051800  1
  Mo  Mo0  1  0.82275700  0.96712600  0.21170000  1
  Mo  Mo1  1  0.17724300  0.03287400  0.78830000  1
  Mo  Mo2  1  0.66829200  0.42365300  0.71114500  1
  Mo  Mo3  1  0.33170800  0.57634700  0.28885500  1
  O  O0  1  0.24488200  0.03971600  0.04283900  1
  O  O1  1  0.75511800  0.96028400  0.95716100  1
  O  O2  1  0.25266700  0.57720000  0.04181300  1
  O  O3  1  0.68800900  0.13201200  0.27423900  1
  O  O4  1  0.57527200  0.15746700  0.60894700  1
  O  O5  1  0.27655300  0.27219500  0.74350500  1
  O  O6  1  0.72344700  0.72780500  0.25649500  1
  O  O7  1  0.48269600  0.38358900  0.34601900  1
  O  O8  1  0.11443000  0.05321100  0.34015000  1
  O  O9  1  0.51730400  0.61641100  0.65398100  1
  O  O10  1  0.88557000  0.94678900  0.65985000  1
  O  O11  1  0.09031200  0.48411700  0.32842600  1
  O  O12  1  0.90968800  0.51588300  0.67157400  1
  O  O13  1  0.31199100  0.86798800  0.72576100  1
  O  O14  1  0.42472800  0.84253300  0.39105300  1
  O  O15  1  0.74733300  0.42280000  0.95818700  1
loop_
_geom_bond_atom_site_label_1
_geom_bond_atom_site_label_2
_geom_bond_distance
_geom_bond_site_symmetry_2
Li0 O12 2.003694 1_455
Li0 O5 2.122370 1_555
Li0 O2 2.126609 1_556
Li0 O13 2.220634 1_555
Li0 O9 2.267642 1_555
Li1 O11 2.003694 1_655
Li1 O6 2.122370 1_555
Li1 O15 2.126609 1_554
Li1 O3 2.220634 1_555
Li1 O7 2.267642 1_555
Ga0 O0 1.953092 1_555
Ga0 O14 1.957796 1_545
Ga0 O7 1.962192 1_555
Ga0 O8 1.992771 1_555
Ga0 O3 2.031077 1_555
Ga0 O4 2.043483 1_555
Ga1 O1 1.953092 1_555
Ga1 O4 1.957796 1_565
Ga1 O9 1.962192 1_555
Ga1 O10 1.992771 1_555
Ga1 O13 2.031077 1_555
Ga1 O14 2.043483 1_555
Mo0 O6 1.767151 1_555
Mo0 O1 1.795240 1_554
Mo0 O8 1.810456 1_665
Mo0 O3 1.819187 1_565
Mo1 O5 1.767151 1_555
Mo1 O0 1.795240 1_556
Mo1 O10 1.810456 1_445
Mo1 O13 1.819187 1_545
Mo2 O15 1.738194 1_555
Mo2 O12 1.744045 1_555
Mo2 O9 1.899569 1_555
Mo2 O4 1.906164 1_555
Mo3 O2 1.738194 1_555
Mo3 O11 1.744045 1_555
Mo3 O7 1.899569 1_555
Mo3 O14 1.906164 1_555
