# generated using pymatgen
data_Cs2KFe(CN)6
_symmetry_space_group_name_H-M   'P 1'
_cell_length_a   8.21964500
_cell_length_b   7.75450100
_cell_length_c   13.64661673
_cell_angle_alpha   55.62669048
_cell_angle_beta   90.00000000
_cell_angle_gamma   90.00000000
_symmetry_Int_Tables_number   1
_chemical_formula_structural   Cs2KFe(CN)6
_chemical_formula_sum   'Cs4 K2 Fe2 C12 N12'
_cell_volume   717.93323670
_cell_formula_units_Z   2
loop_
 _symmetry_equiv_pos_site_id
 _symmetry_equiv_pos_as_xyz
  1  'x, y, z'
loop_
 _atom_site_type_symbol
 _atom_site_label
 _atom_site_symmetry_multiplicity
 _atom_site_fract_x
 _atom_site_fract_y
 _atom_site_fract_z
 _atom_site_occupancy
  Cs  Cs0  1  0.43264000  0.27080300  0.74933500  1
  Cs  Cs1  1  0.93264000  0.72919700  0.75066500  1
  Cs  Cs2  1  0.56736000  0.72919700  0.25066500  1
  Cs  Cs3  1  0.06736000  0.27080300  0.24933500  1
  K  K0  1  0.50000000  0.50000000  0.00000000  1
  K  K1  1  0.00000000  0.50000000  0.50000000  1
  Fe  Fe0  1  0.50000000  0.00000000  0.50000000  1
  Fe  Fe1  1  0.00000000  0.00000000  0.00000000  1
  C  C0  1  0.52286700  0.90822300  0.66192600  1
  C  C1  1  0.02286700  0.09177700  0.83807400  1
  C  C2  1  0.47713300  0.09177700  0.33807400  1
  C  C3  1  0.97713300  0.90822300  0.16192600  1
  C  C4  1  0.12439100  0.23433500  0.96877600  1
  C  C5  1  0.62439100  0.76566500  0.53122400  1
  C  C6  1  0.87560900  0.76566500  0.03122400  1
  C  C7  1  0.37560900  0.23433500  0.46877600  1
  C  C8  1  0.19544800  0.83896800  0.03981400  1
  C  C9  1  0.69544800  0.16103200  0.46018600  1
  C  C10  1  0.80455200  0.16103200  0.96018600  1
  C  C11  1  0.30455200  0.83896800  0.53981400  1
  N  N0  1  0.53967200  0.85251700  0.76147700  1
  N  N1  1  0.03967200  0.14748300  0.73852300  1
  N  N2  1  0.46032800  0.14748300  0.23852300  1
  N  N3  1  0.96032800  0.85251700  0.26147700  1
  N  N4  1  0.20014800  0.38053500  0.94783900  1
  N  N5  1  0.70014800  0.61946500  0.55216100  1
  N  N6  1  0.79985200  0.61946500  0.05216100  1
  N  N7  1  0.29985200  0.38053500  0.44783900  1
  N  N8  1  0.31517500  0.73874300  0.06489800  1
  N  N9  1  0.81517500  0.26125700  0.43510200  1
  N  N10  1  0.68482500  0.26125700  0.93510200  1
  N  N11  1  0.18482500  0.73874300  0.56489800  1
loop_
_geom_bond_atom_site_label_1
_geom_bond_atom_site_label_2
_geom_bond_distance
_geom_bond_site_symmetry_2
Cs0 N10 3.243002 1_555
Cs0 N0 3.273454 1_545
Cs0 N5 3.342201 1_555
Cs0 N1 3.395415 1_555
Cs0 N11 3.652184 1_555
Cs1 N11 3.243002 1_655
Cs1 N1 3.273454 1_665
Cs1 N4 3.342201 1_655
Cs1 N0 3.395415 1_555
Cs1 N10 3.652184 1_555
Cs2 N8 3.243002 1_555
Cs2 N2 3.273454 1_565
Cs2 N7 3.342201 1_555
Cs2 N3 3.395415 1_555
Cs2 N9 3.652184 1_555
Cs3 N9 3.243002 1_455
Cs3 N3 3.273454 1_445
Cs3 N6 3.342201 1_455
Cs3 N2 3.395415 1_555
Cs3 N8 3.652184 1_555
K0 N0 2.850765 1_554
K0 N2 2.850765 1_555
K0 N6 2.860791 1_555
K0 N4 2.860791 1_554
K0 N8 2.893292 1_555
K0 N10 2.893292 1_554
K1 N3 2.850765 1_455
K1 N1 2.850765 1_555
K1 N5 2.860791 1_455
K1 N7 2.860791 1_555
K1 N11 2.893292 1_555
K1 N9 2.893292 1_455
C0 N0 1.178408 1_555
C0 Fe0 1.910239 1_565
C1 N1 1.178408 1_555
C1 Fe1 1.910239 1_556
C2 N2 1.178408 1_555
C2 Fe0 1.910239 1_555
C3 N3 1.178408 1_555
C3 Fe1 1.910239 1_665
C4 N4 1.178524 1_555
C4 Fe1 1.911727 1_556
C5 N5 1.178524 1_555
C5 Fe0 1.911727 1_565
C6 N6 1.178524 1_555
C6 Fe1 1.911727 1_665
C7 N7 1.178524 1_555
C7 Fe0 1.911727 1_555
C8 N8 1.178678 1_555
C8 Fe1 1.915541 1_565
C9 N9 1.178678 1_555
C9 Fe0 1.915541 1_555
C10 N10 1.178678 1_555
C10 Fe1 1.915541 1_656
C11 N11 1.178678 1_555
C11 Fe0 1.915541 1_565
