# generated using pymatgen
data_Er2Ni12As7
_symmetry_space_group_name_H-M   'P 1'
_cell_length_a   9.27427494
_cell_length_b   9.27418530
_cell_length_c   3.78551989
_cell_angle_alpha   90.00000000
_cell_angle_beta   90.00000000
_cell_angle_gamma   119.99306382
_symmetry_Int_Tables_number   1
_chemical_formula_structural   Er2Ni12As7
_chemical_formula_sum   'Er2 Ni12 As7'
_cell_volume   281.99554680
_cell_formula_units_Z   1
loop_
 _symmetry_equiv_pos_site_id
 _symmetry_equiv_pos_as_xyz
  1  'x, y, z'
loop_
 _atom_site_type_symbol
 _atom_site_label
 _atom_site_symmetry_multiplicity
 _atom_site_fract_x
 _atom_site_fract_y
 _atom_site_fract_z
 _atom_site_occupancy
  Er  Er0  1  0.66667283  0.33334069  0.50000000  1
  Er  Er1  1  0.33332839  0.66666491  0.00000000  1
  Ni  Ni0  1  0.43810852  0.05843405  0.00000000  1
  Ni  Ni1  1  0.62034418  0.56190915  -0.00000000  1
  Ni  Ni2  1  0.94156239  0.37967297  -0.00000000  1
  Ni  Ni3  1  0.15106885  0.27969794  0.00000000  1
  Ni  Ni4  1  0.12860879  0.84893367  -0.00000000  1
  Ni  Ni5  1  0.72031627  0.87139345  0.00000000  1
  Ni  Ni6  1  0.37623993  0.42612314  0.50000000  1
  Ni  Ni7  1  0.04988397  0.62377384  0.50000000  1
  Ni  Ni8  1  0.57388227  0.95012255  0.50000000  1
  Ni  Ni9  1  0.21050553  0.09492220  0.50000000  1
  Ni  Ni10  1  0.88441141  0.78949231  0.50000000  1
  Ni  Ni11  1  0.90507046  0.11555432  0.50000000  1
  As  As0  1  0.00003143  -0.00002719  0.00000000  1
  As  As1  1  0.40488173  0.28832352  -0.00000000  1
  As  As2  1  0.88344115  0.59511505  0.00000000  1
  As  As3  1  0.71166473  0.11656237  -0.00000000  1
  As  As4  1  0.10966652  0.40795067  0.50000000  1
  As  As5  1  0.29828875  0.89032953  0.50000000  1
  As  As6  1  0.59202192  0.70171187  0.50000000  1
loop_
_geom_bond_atom_site_label_1
_geom_bond_atom_site_label_2
_geom_bond_distance
_geom_bond_site_symmetry_2
Er0 Ni1 3.028407 1_556
Er0 Ni1 3.028407 1_555
Er0 Ni2 3.028431 1_555
Er0 Ni2 3.028431 1_556
Er0 Ni0 3.028663 1_556
Er0 Ni0 3.028663 1_555
Er0 Ni6 3.211376 1_555
Er0 Ni8 3.211527 1_545
Er0 Ni7 3.211736 1_655
Er1 Ni6 3.099217 1_554
Er1 Ni6 3.099217 1_555
Er1 Ni7 3.099292 1_554
Er1 Ni7 3.099292 1_555
Er1 Ni8 3.099503 1_555
Er1 Ni8 3.099503 1_554
Er1 Ni4 3.109818 1_555
Er1 Ni3 3.109942 1_555
Er1 Ni5 3.110168 1_555
Er1 Ni1 3.258051 1_555
Er1 Ni0 3.258141 1_565
Er1 Ni2 3.258352 1_455
As0 Ni4 2.248136 1_545
As0 Ni5 2.249183 1_445
As0 Ni3 2.249222 1_555
As0 Ni9 2.539629 1_554
As0 Ni9 2.539629 1_555
As0 Ni10 2.539701 1_445
As0 Ni10 2.539701 1_444
As0 Ni11 2.539887 1_455
As0 Ni11 2.539887 1_454
As1 Ni0 2.301609 1_555
As1 Ni3 2.314978 1_555
As1 Ni1 2.315547 1_555
As1 Ni6 2.371863 1_555
As1 Ni6 2.371863 1_554
As1 Ni9 2.610879 1_554
As1 Ni9 2.610879 1_555
As1 Er0 2.939084 1_554
As1 Er0 2.939084 1_555
As2 Ni1 2.301593 1_555
As2 Ni2 2.315069 1_555
As2 Ni4 2.315141 1_655
As2 Ni7 2.371878 1_654
As2 Ni7 2.371878 1_655
As2 Ni10 2.610766 1_555
As2 Ni10 2.610766 1_554
As2 Er0 2.939120 1_554
As2 Er0 2.939120 1_555
As3 Ni2 2.301881 1_555
As3 Ni5 2.314895 1_545
As3 Ni0 2.315115 1_555
As3 Ni8 2.371927 1_544
As3 Ni8 2.371927 1_545
As3 Ni11 2.610890 1_554
As3 Ni11 2.610890 1_555
As3 Er0 2.938919 1_554
As3 Er0 2.938919 1_555
As4 Ni7 2.328791 1_555
As4 Ni3 2.366721 1_556
As4 Ni3 2.366721 1_555
As4 Ni2 2.381839 1_455
As4 Ni2 2.381839 1_456
As4 Ni6 2.392482 1_555
As4 Ni11 2.410304 1_455
As4 Er1 2.943850 1_556
As4 Er1 2.943850 1_555
As5 Ni8 2.328784 1_555
As5 Ni4 2.366920 1_556
As5 Ni4 2.366920 1_555
As5 Ni0 2.381892 1_566
As5 Ni0 2.381892 1_565
As5 Ni7 2.392625 1_555
As5 Ni9 2.409868 1_565
As5 Er1 2.943609 1_556
As5 Er1 2.943609 1_555
As6 Ni6 2.328850 1_555
As6 Ni5 2.366992 1_556
As6 Ni5 2.366992 1_555
As6 Ni1 2.381824 1_555
As6 Ni1 2.381824 1_556
As6 Ni8 2.392346 1_555
As6 Ni10 2.410177 1_555
As6 Er1 2.943581 1_556
As6 Er1 2.943581 1_555
