# generated using pymatgen
data_Li5Mo2P5O18
_symmetry_space_group_name_H-M   'P 1'
_cell_length_a   6.62626700
_cell_length_b   9.33687773
_cell_length_c   10.91265095
_cell_angle_alpha   96.14779320
_cell_angle_beta   92.33660296
_cell_angle_gamma   91.01212155
_symmetry_Int_Tables_number   1
_chemical_formula_structural   Li5Mo2P5O18
_chemical_formula_sum   'Li10 Mo4 P10 O36'
_cell_volume   670.54504107
_cell_formula_units_Z   2
loop_
 _symmetry_equiv_pos_site_id
 _symmetry_equiv_pos_as_xyz
  1  'x, y, z'
loop_
 _atom_site_type_symbol
 _atom_site_label
 _atom_site_symmetry_multiplicity
 _atom_site_fract_x
 _atom_site_fract_y
 _atom_site_fract_z
 _atom_site_occupancy
  Li  Li0  1  0.34754200  0.37783600  0.86004000  1
  Li  Li1  1  0.55500100  0.27714700  0.59095400  1
  Li  Li2  1  0.12636300  0.22073000  0.66200700  1
  Li  Li3  1  0.82150500  0.12403000  0.35996500  1
  Li  Li4  1  0.17849500  0.87597000  0.64003500  1
  Li  Li5  1  0.01215800  0.94336500  0.13387800  1
  Li  Li6  1  0.44499900  0.72285300  0.40904600  1
  Li  Li7  1  0.98784200  0.05663500  0.86612200  1
  Li  Li8  1  0.87363700  0.77927000  0.33799300  1
  Li  Li9  1  0.65245800  0.62216400  0.13996000  1
  Mo  Mo0  1  0.22970000  0.35679300  0.39996400  1
  Mo  Mo1  1  0.66705700  0.23161800  0.05309700  1
  Mo  Mo2  1  0.77030000  0.64320700  0.60003600  1
  Mo  Mo3  1  0.33294300  0.76838200  0.94690300  1
  P  P0  1  0.77809600  0.99200200  0.59715400  1
  P  P1  1  0.27882300  0.58217600  0.65356900  1
  P  P2  1  0.83074400  0.72972900  0.90076000  1
  P  P3  1  0.48782600  0.05460000  0.79379900  1
  P  P4  1  0.22190400  0.00799800  0.40284600  1
  P  P5  1  0.72117700  0.41782400  0.34643100  1
  P  P6  1  0.51217400  0.94540000  0.20620100  1
  P  P7  1  0.83603900  0.41923300  0.82631800  1
  P  P8  1  0.16396100  0.58076700  0.17368200  1
  P  P9  1  0.16925600  0.27027100  0.09924000  1
  O  O0  1  0.00987100  0.83124500  0.95161800  1
  O  O1  1  0.67707900  0.05276100  0.17212300  1
  O  O2  1  0.66733100  0.41009400  0.20557900  1
  O  O3  1  0.76314700  0.57752600  0.39952200  1
  O  O4  1  0.75249200  0.75796100  0.77453400  1
  O  O5  1  0.55077900  0.35508300  0.41997100  1
  O  O6  1  0.90898400  0.32620500  0.36878100  1
  O  O7  1  0.78117200  0.84511600  0.51537800  1
  O  O8  1  0.73652400  0.11929900  0.52612400  1
  O  O9  1  0.44922100  0.64491700  0.58002900  1
  O  O10  1  0.09101600  0.67379500  0.63121900  1
  O  O11  1  0.98857400  0.68263500  0.18175300  1
  O  O12  1  0.21882800  0.15488400  0.48462200  1
  O  O13  1  0.66168100  0.07661000  0.89336100  1
  O  O14  1  0.74173600  0.44688600  0.69891600  1
  O  O15  1  0.67151200  0.38354000  0.91574800  1
  O  O16  1  0.34547900  0.26439000  0.01136700  1
  O  O17  1  0.93088700  0.57347800  0.89204500  1
  O  O18  1  0.41903500  0.03135800  0.32404400  1
  O  O19  1  0.96720600  0.01605400  0.68330400  1
  O  O20  1  0.25826400  0.55311400  0.30108400  1
  O  O21  1  0.58096500  0.96864200  0.67595600  1
  O  O22  1  0.33266900  0.58990600  0.79442100  1
  O  O23  1  0.32848800  0.61646000  0.08425200  1
  O  O24  1  0.23685300  0.42247400  0.60047800  1
  O  O25  1  0.99012900  0.16875500  0.04838200  1
  O  O26  1  0.59817300  0.80841900  0.25022700  1
  O  O27  1  0.24750800  0.24203900  0.22546600  1
  O  O28  1  0.01142600  0.31736500  0.81824700  1
  O  O29  1  0.03279400  0.98394600  0.31669600  1
  O  O30  1  0.65452100  0.73561000  0.98863300  1
  O  O31  1  0.26347600  0.88070100  0.47387600  1
  O  O32  1  0.06911300  0.42652200  0.10795500  1
  O  O33  1  0.32292100  0.94723900  0.82787700  1
  O  O34  1  0.33831900  0.92339000  0.10663900  1
  O  O35  1  0.40182700  0.19158100  0.74977300  1
loop_
_geom_bond_atom_site_label_1
_geom_bond_atom_site_label_2
_geom_bond_distance
_geom_bond_site_symmetry_2
Li0 O35 2.052018 1_555
Li0 O16 2.055527 1_556
Li0 O22 2.178989 1_555
Li0 O15 2.205310 1_555
Li0 O28 2.303210 1_555
Li1 O8 2.007008 1_555
Li1 O5 2.073421 1_555
Li1 O14 2.200617 1_555
Li1 O35 2.254676 1_555
Li1 O24 2.526841 1_555
Li1 O12 2.650916 1_555
Li2 O28 2.025288 1_555
Li2 O35 2.062503 1_555
Li2 O12 2.087003 1_555
Li2 O24 2.190273 1_555
Li2 O19 2.205039 1_455
Li3 O8 1.925200 1_555
Li3 O6 1.956146 1_555
Li3 O29 1.969812 1_645
Li3 O1 2.255204 1_555
Li4 O31 1.925200 1_555
Li4 O10 1.956146 1_555
Li4 O19 1.969812 1_465
Li4 O33 2.255204 1_555
Li5 O29 1.989076 1_555
Li5 O0 2.145466 1_554
Li5 O34 2.202000 1_555
Li5 O25 2.395980 1_465
Li5 O1 2.492325 1_465
Li5 O11 2.547414 1_455
Li6 O31 2.007008 1_555
Li6 O9 2.073421 1_555
Li6 O20 2.200617 1_555
Li6 O26 2.254676 1_555
Li6 O3 2.526841 1_555
Li6 O7 2.650916 1_555
Li7 O19 1.989076 1_555
Li7 O25 2.145466 1_556
Li7 O13 2.202000 1_555
Li7 O0 2.395980 1_645
Li7 O33 2.492325 1_645
Li7 O28 2.547414 1_655
Li8 O11 2.025288 1_555
Li8 O26 2.062503 1_555
Li8 O7 2.087003 1_555
Li8 O3 2.190273 1_555
Li8 O29 2.205039 1_655
Li9 O26 2.052018 1_555
Li9 O30 2.055527 1_554
Li9 O2 2.178989 1_555
Li9 O23 2.205310 1_555
Li9 O11 2.303210 1_555
Mo0 O27 2.091367 1_555
Mo0 O5 2.130372 1_555
Mo0 O6 2.147650 1_455
Mo0 O12 2.187765 1_555
Mo0 O24 2.206668 1_555
Mo0 O20 2.233423 1_555
Mo1 O13 2.141781 1_554
Mo1 O15 2.171861 1_554
Mo1 O16 2.194386 1_555
Mo1 O1 2.223013 1_555
Mo1 O2 2.225195 1_555
Mo1 O25 2.230900 1_555
Mo2 O4 2.091367 1_555
Mo2 O9 2.130372 1_555
Mo2 O10 2.147650 1_655
Mo2 O7 2.187765 1_555
Mo2 O3 2.206668 1_555
Mo2 O14 2.233423 1_555
Mo3 O34 2.141781 1_556
Mo3 O23 2.171861 1_556
Mo3 O30 2.194386 1_555
Mo3 O33 2.223013 1_555
Mo3 O22 2.225195 1_555
Mo3 O0 2.230900 1_555
O0 P2 1.552136 1_455
O1 P6 1.552875 1_545
O2 P5 1.557467 1_555
O3 P5 1.556796 1_555
O4 P2 1.503364 1_555
O5 P5 1.553475 1_555
O6 P5 1.548380 1_555
O7 P0 1.554994 1_555
O8 P0 1.510249 1_545
O9 P1 1.553475 1_555
O10 P1 1.548380 1_555
O11 P8 1.514092 1_655
O12 P4 1.554994 1_555
O13 P3 1.546468 1_555
O14 P7 1.549773 1_555
O15 P7 1.547771 1_555
O16 P9 1.538952 1_555
O17 P2 1.608534 1_555
O17 P7 1.641204 1_555
O18 P6 1.593713 1_545
O18 P4 1.617108 1_555
O19 P0 1.534043 1_545
O20 P8 1.549773 1_555
O21 P3 1.593713 1_565
O21 P0 1.617108 1_555
O22 P1 1.557467 1_555
O23 P8 1.547771 1_555
O24 P1 1.556796 1_555
O25 P9 1.552136 1_655
O26 P6 1.525243 1_555
O27 P9 1.503364 1_555
O28 P7 1.514092 1_455
O29 P4 1.534043 1_565
O30 P2 1.538952 1_555
O31 P4 1.510249 1_565
O32 P9 1.608534 1_555
O32 P8 1.641204 1_555
O33 P3 1.552875 1_565
O34 P6 1.546468 1_555
O35 P3 1.525243 1_555
