# generated using pymatgen
data_VP3(HO5)2
_symmetry_space_group_name_H-M   'P 1'
_cell_length_a   8.98563100
_cell_length_b   7.56760500
_cell_length_c   12.54663002
_cell_angle_alpha   67.55712515
_cell_angle_beta   90.00000000
_cell_angle_gamma   90.00000000
_symmetry_Int_Tables_number   1
_chemical_formula_structural   VP3(HO5)2
_chemical_formula_sum   'V4 P12 H8 O40'
_cell_volume   788.54879964
_cell_formula_units_Z   4
loop_
 _symmetry_equiv_pos_site_id
 _symmetry_equiv_pos_as_xyz
  1  'x, y, z'
loop_
 _atom_site_type_symbol
 _atom_site_label
 _atom_site_symmetry_multiplicity
 _atom_site_fract_x
 _atom_site_fract_y
 _atom_site_fract_z
 _atom_site_occupancy
  V  V0  1  0.07240800  0.74566500  0.79200500  1
  V  V1  1  0.57240800  0.25433500  0.70799500  1
  V  V2  1  0.92759200  0.25433500  0.20799500  1
  V  V3  1  0.42759200  0.74566500  0.29200500  1
  P  P0  1  0.39129600  0.85535400  0.86443100  1
  P  P1  1  0.89129600  0.14464600  0.63556900  1
  P  P2  1  0.60870400  0.14464600  0.13556900  1
  P  P3  1  0.10870400  0.85535400  0.36443100  1
  P  P4  1  0.39261300  0.64417000  0.70751800  1
  P  P5  1  0.89261300  0.35583000  0.79248200  1
  P  P6  1  0.60738700  0.35583000  0.29248200  1
  P  P7  1  0.10738700  0.64417000  0.20751800  1
  P  P8  1  0.11913100  0.29514900  0.97630300  1
  P  P9  1  0.61913100  0.70485100  0.52369700  1
  P  P10  1  0.88086900  0.70485100  0.02369700  1
  P  P11  1  0.38086900  0.29514900  0.47630300  1
  H  H0  1  0.14484200  0.72572200  0.55379100  1
  H  H1  1  0.64484200  0.27427800  0.94620900  1
  H  H2  1  0.85515800  0.27427800  0.44620900  1
  H  H3  1  0.35515800  0.72572200  0.05379100  1
  H  H4  1  0.32030200  0.25507500  0.89091800  1
  H  H5  1  0.82030200  0.74492500  0.60908200  1
  H  H6  1  0.67969800  0.74492500  0.10908200  1
  H  H7  1  0.17969800  0.25507500  0.39091800  1
  O  O0  1  0.45967300  0.72993600  0.79508300  1
  O  O1  1  0.95967300  0.27006400  0.70491700  1
  O  O2  1  0.54032700  0.27006400  0.20491700  1
  O  O3  1  0.04032700  0.72993600  0.29508300  1
  O  O4  1  0.08277600  0.71248900  0.49124800  1
  O  O5  1  0.58277600  0.28751100  0.00875200  1
  O  O6  1  0.91722400  0.28751100  0.50875200  1
  O  O7  1  0.41722400  0.71248900  0.99124800  1
  O  O8  1  0.48040500  0.75630000  0.59121000  1
  O  O9  1  0.98040500  0.24370000  0.90879000  1
  O  O10  1  0.51959500  0.24370000  0.40879000  1
  O  O11  1  0.01959500  0.75630000  0.09121000  1
  O  O12  1  0.98805400  0.96953000  0.66233700  1
  O  O13  1  0.48805400  0.03047000  0.83766300  1
  O  O14  1  0.01194600  0.03047000  0.33766300  1
  O  O15  1  0.51194600  0.96953000  0.16233700  1
  O  O16  1  0.22832300  0.89741400  0.83320600  1
  O  O17  1  0.72832300  0.10258600  0.66679400  1
  O  O18  1  0.77167700  0.10258600  0.16679400  1
  O  O19  1  0.27167700  0.89741400  0.33320600  1
  O  O20  1  0.14349800  0.50920800  0.92245000  1
  O  O21  1  0.64349800  0.49079200  0.57755000  1
  O  O22  1  0.85650200  0.49079200  0.07755000  1
  O  O23  1  0.35650200  0.50920800  0.42245000  1
  O  O24  1  0.22976600  0.70007300  0.68259700  1
  O  O25  1  0.72976600  0.29992700  0.81740300  1
  O  O26  1  0.77023400  0.29992700  0.31740300  1
  O  O27  1  0.27023400  0.70007300  0.18259700  1
  O  O28  1  0.42480700  0.43173200  0.75224200  1
  O  O29  1  0.92480700  0.56826800  0.74775800  1
  O  O30  1  0.57519300  0.56826800  0.24775800  1
  O  O31  1  0.07519300  0.43173200  0.25224200  1
  O  O32  1  0.41886000  0.20934300  0.60234200  1
  O  O33  1  0.91886000  0.79065700  0.89765800  1
  O  O34  1  0.58114000  0.79065700  0.39765800  1
  O  O35  1  0.08114000  0.20934300  0.10234200  1
  O  O36  1  0.25627700  0.18290700  0.95745300  1
  O  O37  1  0.75627700  0.81709300  0.54254700  1
  O  O38  1  0.74372300  0.81709300  0.04254700  1
  O  O39  1  0.24372300  0.18290700  0.45745300  1
loop_
_geom_bond_atom_site_label_1
_geom_bond_atom_site_label_2
_geom_bond_distance
_geom_bond_site_symmetry_2
H0 O4 0.998408 1_555
H0 O24 1.729799 1_555
H1 O5 0.998408 1_556
H1 O25 1.729799 1_555
H2 O6 0.998408 1_555
H2 O26 1.729799 1_555
H3 O7 0.998408 1_554
H3 O27 1.729799 1_555
H4 O36 0.988948 1_555
H5 O37 0.988948 1_555
H6 O38 0.988948 1_555
H7 O39 0.988948 1_555
O0 P4 1.592427 1_555
O0 P0 1.632755 1_555
O1 P5 1.592427 1_555
O1 P1 1.632755 1_555
O2 P6 1.592427 1_555
O2 P2 1.632755 1_555
O3 P7 1.592427 1_555
O3 P3 1.632755 1_555
O4 P3 1.562496 1_555
O5 P2 1.562496 1_555
O6 P1 1.562496 1_555
O7 P0 1.562496 1_555
O8 P4 1.589460 1_555
O8 P9 1.635474 1_555
O9 P5 1.589460 1_555
O9 P8 1.635474 1_655
O10 P6 1.589460 1_555
O10 P11 1.635474 1_555
O11 P7 1.589460 1_555
O11 P10 1.635474 1_455
O12 P1 1.511642 1_565
O12 V0 1.996740 1_655
O13 P0 1.511642 1_545
O13 V1 1.996740 1_555
O14 P3 1.511642 1_545
O14 V2 1.996740 1_455
O15 P2 1.511642 1_565
O15 V3 1.996740 1_555
O16 P0 1.517925 1_555
O16 V0 2.000507 1_555
O17 P1 1.517925 1_555
O17 V1 2.000507 1_555
O18 P2 1.517925 1_555
O18 V2 2.000507 1_555
O19 P3 1.517925 1_555
O19 V3 2.000507 1_555
O20 P8 1.514230 1_555
O20 V0 2.013101 1_555
O21 P9 1.514230 1_555
O21 V1 2.013101 1_555
O22 P10 1.514230 1_555
O22 V2 2.013101 1_555
O23 P11 1.514230 1_555
O23 V3 2.013101 1_555
O24 P4 1.522149 1_555
O24 V0 2.089079 1_555
O25 P5 1.522149 1_555
O25 V1 2.089079 1_555
O26 P6 1.522149 1_555
O26 V2 2.089079 1_555
O27 P7 1.522149 1_555
O27 V3 2.089079 1_555
O28 P4 1.514696 1_555
O28 V1 2.106773 1_555
O29 P5 1.514696 1_555
O29 V0 2.106773 1_655
O30 P6 1.514696 1_555
O30 V3 2.106773 1_555
O31 P7 1.514696 1_555
O31 V2 2.106773 1_455
O32 P11 1.501623 1_555
O32 V1 2.030115 1_555
O33 P10 1.501623 1_556
O33 V0 2.030115 1_655
O34 P9 1.501623 1_555
O34 V3 2.030115 1_555
O35 P8 1.501623 1_554
O35 V2 2.030115 1_455
O36 P8 1.565079 1_555
O37 P9 1.565079 1_555
O38 P10 1.565079 1_555
O39 P11 1.565079 1_555
