# generated using pymatgen
data_La4C2Cl5
_symmetry_space_group_name_H-M   'P 1'
_cell_length_a   3.94959287
_cell_length_b   7.99921215
_cell_length_c   9.77743267
_cell_angle_alpha   114.04636852
_cell_angle_beta   101.57745348
_cell_angle_gamma   90.01408465
_symmetry_Int_Tables_number   1
_chemical_formula_structural   La4C2Cl5
_chemical_formula_sum   'La4 C2 Cl5'
_cell_volume   275.19321494
_cell_formula_units_Z   1
loop_
 _symmetry_equiv_pos_site_id
 _symmetry_equiv_pos_as_xyz
  1  'x, y, z'
loop_
 _atom_site_type_symbol
 _atom_site_label
 _atom_site_symmetry_multiplicity
 _atom_site_fract_x
 _atom_site_fract_y
 _atom_site_fract_z
 _atom_site_occupancy
  La  La0  1  0.32910594  0.32834127  0.65437935  1
  La  La1  1  0.00046983  0.71305855  0.00037205  1
  La  La2  1  0.67089406  0.67165873  0.34562065  1
  La  La3  1  0.99953017  0.28694145  0.99962795  1
  C  C0  1  0.45961101  0.45936201  0.91821980  1
  C  C1  1  0.54038899  0.54063799  0.08178020  1
  Cl  Cl0  1  0.83428896  0.60811963  0.66470670  1
  Cl  Cl1  1  0.16571104  0.39188037  0.33529330  1
  Cl  Cl2  1  0.83352623  0.05925479  0.66422208  1
  Cl  Cl3  1  0.50000000  -0.00000000  0.00000000  1
  Cl  Cl4  1  0.16647377  0.94074521  0.33577792  1
loop_
_geom_bond_atom_site_label_1
_geom_bond_atom_site_label_2
_geom_bond_distance
_geom_bond_site_symmetry_2
C0 C1 1.424679 1_556
C0 La0 2.298160 1_555
C0 La3 2.701488 1_555
C0 La1 2.703238 1_656
C0 La1 2.703716 1_556
C0 La3 2.704031 1_455
C1 La2 2.298160 1_555
C1 La1 2.701488 1_555
C1 La3 2.703238 1_454
C1 La3 2.703716 1_554
C1 La1 2.704031 1_655
Cl0 La0 2.955120 1_555
Cl0 La0 2.955580 1_655
Cl0 La1 2.965897 1_656
Cl0 La2 3.300380 1_555
Cl1 La2 2.955120 1_555
Cl1 La2 2.955580 1_455
Cl1 La3 2.965897 1_454
Cl1 La0 3.300380 1_555
Cl2 La0 2.950505 1_555
Cl2 La0 2.952280 1_655
Cl2 La3 2.961484 1_555
Cl2 La2 3.324785 1_545
Cl3 La1 3.027936 1_545
Cl3 La3 3.027936 1_554
Cl3 La1 3.030139 1_645
Cl3 La3 3.030139 1_454
Cl4 La2 2.950505 1_555
Cl4 La2 2.952280 1_455
Cl4 La1 2.961484 1_555
Cl4 La0 3.324785 1_565
