# generated using pymatgen
data_NClOF4
_symmetry_space_group_name_H-M   'P 1'
_cell_length_a   7.01942949
_cell_length_b   7.01942949
_cell_length_c   7.01942949
_cell_angle_alpha   127.92200107
_cell_angle_beta   127.92200107
_cell_angle_gamma   76.75141734
_symmetry_Int_Tables_number   1
_chemical_formula_structural   NClOF4
_chemical_formula_sum   'N2 Cl2 O2 F8'
_cell_volume   209.00303573
_cell_formula_units_Z   2
loop_
 _symmetry_equiv_pos_site_id
 _symmetry_equiv_pos_as_xyz
  1  'x, y, z'
loop_
 _atom_site_type_symbol
 _atom_site_label
 _atom_site_symmetry_multiplicity
 _atom_site_fract_x
 _atom_site_fract_y
 _atom_site_fract_z
 _atom_site_occupancy
  N  N0  1  0.32921400  0.32921400  0.00000000  1
  N  N1  1  0.82921400  0.82921400  0.00000000  1
  Cl  Cl0  1  0.50005300  0.00005300  0.50000000  1
  Cl  Cl1  1  0.00005300  0.50005300  0.50000000  1
  O  O0  1  0.72857100  0.72857100  0.00000000  1
  O  O1  1  0.22857100  0.22857100  0.00000000  1
  F  F0  1  0.97058000  0.75559600  0.50000000  1
  F  F1  1  0.53476800  0.03476800  0.81305100  1
  F  F2  1  0.25559600  0.47058000  0.50000000  1
  F  F3  1  0.03476800  0.22171700  0.50000000  1
  F  F4  1  0.47058000  0.97058000  0.21498400  1
  F  F5  1  0.72171700  0.53476800  0.50000000  1
  F  F6  1  0.75559600  0.25559600  0.78501600  1
  F  F7  1  0.22171700  0.72171700  0.18694900  1
loop_
_geom_bond_atom_site_label_1
_geom_bond_atom_site_label_2
_geom_bond_distance
_geom_bond_site_symmetry_2
N0 O1 1.107663 1_555
N1 O0 1.107663 1_555
Cl0 F6 1.757926 1_555
Cl0 F4 1.757926 1_545
Cl0 F1 1.912679 1_555
Cl0 F7 1.912679 1_545
Cl1 F0 1.757926 1_455
Cl1 F2 1.757926 1_555
Cl1 F3 1.912679 1_555
Cl1 F5 1.912679 1_455
