# generated using pymatgen
data_ErNi3Ge2
_symmetry_space_group_name_H-M   'P 1'
_cell_length_a   17.99684702
_cell_length_b   17.99684702
_cell_length_c   3.79588900
_cell_angle_alpha   90.00000000
_cell_angle_beta   90.00000000
_cell_angle_gamma   120.00000374
_symmetry_Int_Tables_number   1
_chemical_formula_structural   ErNi3Ge2
_chemical_formula_sum   'Er12 Ni36 Ge24'
_cell_volume   1064.72381820
_cell_formula_units_Z   12
loop_
 _symmetry_equiv_pos_site_id
 _symmetry_equiv_pos_as_xyz
  1  'x, y, z'
loop_
 _atom_site_type_symbol
 _atom_site_label
 _atom_site_symmetry_multiplicity
 _atom_site_fract_x
 _atom_site_fract_y
 _atom_site_fract_z
 _atom_site_occupancy
  Er  Er0  1  0.50000000  0.00000000  0.00000000  1
  Er  Er1  1  0.00000000  0.50000000  0.00000000  1
  Er  Er2  1  0.23447000  0.32688100  0.00000000  1
  Er  Er3  1  0.32688100  0.09241100  0.00000000  1
  Er  Er4  1  0.50000000  0.50000000  0.00000000  1
  Er  Er5  1  0.33333300  0.66666700  0.50000000  1
  Er  Er6  1  0.67311900  0.90758900  0.00000000  1
  Er  Er7  1  0.90758900  0.23447000  0.00000000  1
  Er  Er8  1  0.09241100  0.76553000  0.00000000  1
  Er  Er9  1  0.76553000  0.67311900  0.00000000  1
  Er  Er10  1  0.00000000  0.00000000  0.00000000  1
  Er  Er11  1  0.66666700  0.33333300  0.50000000  1
  Ni  Ni0  1  0.83946300  0.95241100  0.50000000  1
  Ni  Ni1  1  0.61142300  0.70121600  0.00000000  1
  Ni  Ni2  1  0.48791000  0.73206000  0.00000000  1
  Ni  Ni3  1  0.72321100  0.78998900  0.50000000  1
  Ni  Ni4  1  0.51337600  0.37922600  0.50000000  1
  Ni  Ni5  1  0.16053700  0.04758900  0.50000000  1
  Ni  Ni6  1  0.06677800  0.27678900  0.50000000  1
  Ni  Ni7  1  0.51817100  0.85836700  0.50000000  1
  Ni  Ni8  1  0.70121600  0.08979300  0.00000000  1
  Ni  Ni9  1  0.38857700  0.29878400  0.00000000  1
  Ni  Ni10  1  0.78998900  0.06677800  0.50000000  1
  Ni  Ni11  1  0.24415000  0.51209000  0.00000000  1
  Ni  Ni12  1  0.75585000  0.48791000  0.00000000  1
  Ni  Ni13  1  0.34019600  0.48182900  0.50000000  1
  Ni  Ni14  1  0.21001100  0.93322200  0.50000000  1
  Ni  Ni15  1  0.48182900  0.14163300  0.50000000  1
  Ni  Ni16  1  0.62077400  0.13415000  0.50000000  1
  Ni  Ni17  1  0.26794000  0.75585000  0.00000000  1
  Ni  Ni18  1  0.73206000  0.24415000  0.00000000  1
  Ni  Ni19  1  0.29878400  0.91020700  0.00000000  1
  Ni  Ni20  1  0.27678900  0.21001100  0.50000000  1
  Ni  Ni21  1  0.95241100  0.11294800  0.50000000  1
  Ni  Ni22  1  0.93322200  0.72321100  0.50000000  1
  Ni  Ni23  1  0.65980400  0.51817100  0.50000000  1
  Ni  Ni24  1  0.86585000  0.48662400  0.50000000  1
  Ni  Ni25  1  0.11294800  0.16053700  0.50000000  1
  Ni  Ni26  1  0.91020700  0.61142300  0.00000000  1
  Ni  Ni27  1  0.51209000  0.26794000  0.00000000  1
  Ni  Ni28  1  0.85836700  0.34019600  0.50000000  1
  Ni  Ni29  1  0.37922600  0.86585000  0.50000000  1
  Ni  Ni30  1  0.13415000  0.51337600  0.50000000  1
  Ni  Ni31  1  0.14163300  0.65980400  0.50000000  1
  Ni  Ni32  1  0.88705200  0.83946300  0.50000000  1
  Ni  Ni33  1  0.48662400  0.62077400  0.50000000  1
  Ni  Ni34  1  0.04758900  0.88705200  0.50000000  1
  Ni  Ni35  1  0.08979300  0.38857700  0.00000000  1
  Ge  Ge0  1  0.81146800  0.58060300  0.50000000  1
  Ge  Ge1  1  0.63124500  0.00369200  0.50000000  1
  Ge  Ge2  1  0.85665300  0.04680500  0.00000000  1
  Ge  Ge3  1  0.41943800  0.81216900  0.00000000  1
  Ge  Ge4  1  0.14334700  0.95319500  0.00000000  1
  Ge  Ge5  1  0.58060300  0.76913500  0.50000000  1
  Ge  Ge6  1  0.76913500  0.18853200  0.50000000  1
  Ge  Ge7  1  0.95319500  0.80984900  0.00000000  1
  Ge  Ge8  1  0.39273100  0.58056200  0.00000000  1
  Ge  Ge9  1  0.81216900  0.39273100  0.00000000  1
  Ge  Ge10  1  0.19015100  0.14334700  0.00000000  1
  Ge  Ge11  1  0.99630800  0.62755300  0.50000000  1
  Ge  Ge12  1  0.36875500  0.99630800  0.50000000  1
  Ge  Ge13  1  0.04680500  0.19015100  0.00000000  1
  Ge  Ge14  1  0.23086500  0.81146800  0.50000000  1
  Ge  Ge15  1  0.18783100  0.60726900  0.00000000  1
  Ge  Ge16  1  0.37244700  0.36875500  0.50000000  1
  Ge  Ge17  1  0.41939700  0.23086500  0.50000000  1
  Ge  Ge18  1  0.62755300  0.63124500  0.50000000  1
  Ge  Ge19  1  0.80984900  0.85665300  0.00000000  1
  Ge  Ge20  1  0.18853200  0.41939700  0.50000000  1
  Ge  Ge21  1  0.00369200  0.37244700  0.50000000  1
  Ge  Ge22  1  0.60726900  0.41943800  0.00000000  1
  Ge  Ge23  1  0.58056200  0.18783100  0.00000000  1
loop_
_geom_bond_atom_site_label_1
_geom_bond_atom_site_label_2
_geom_bond_distance
_geom_bond_site_symmetry_2
Er0 Ge23 2.937330 1_555
Er0 Ge3 2.937330 1_545
Er0 Ni16 2.984576 1_555
Er0 Ni16 2.984576 1_554
Er0 Ni29 2.984576 1_544
Er0 Ni29 2.984576 1_545
Er0 Ge1 3.004778 1_555
Er0 Ge1 3.004778 1_554
Er0 Ge12 3.004778 1_544
Er0 Ge12 3.004778 1_545
Er0 Ni8 3.142132 1_555
Er0 Ni19 3.142132 1_545
Er0 Ni7 3.322624 1_544
Er0 Ni7 3.322624 1_545
Er0 Ni15 3.322624 1_555
Er0 Ni15 3.322624 1_554
Er1 Ge15 2.937330 1_555
Er1 Ge9 2.937330 1_455
Er1 Ni24 2.984577 1_455
Er1 Ni24 2.984577 1_454
Er1 Ni30 2.984577 1_554
Er1 Ni30 2.984577 1_555
Er1 Ge11 3.004778 1_455
Er1 Ge11 3.004778 1_454
Er1 Ge21 3.004778 1_554
Er1 Ge21 3.004778 1_555
Er1 Ni26 3.142132 1_455
Er1 Ni35 3.142132 1_555
Er1 Ni31 3.322623 1_555
Er1 Ni31 3.322623 1_554
Er1 Ni28 3.322623 1_455
Er1 Ni28 3.322623 1_454
Er2 Ge20 2.904208 1_554
Er2 Ge20 2.904208 1_555
Er2 Ge16 2.909440 1_554
Er2 Ge16 2.909440 1_555
Er2 Ge10 2.985246 1_555
Er2 Ge13 3.025066 1_555
Er2 Ni9 3.057788 1_555
Er2 Ni13 3.113330 1_555
Er2 Ni13 3.113330 1_554
Er2 Ni20 3.194990 1_555
Er2 Ni20 3.194990 1_554
Er2 Ni11 3.249577 1_555
Er2 Ni25 3.286347 1_555
Er2 Ni25 3.286347 1_554
Er2 Ni6 3.286658 1_554
Er2 Ni6 3.286658 1_555
Er2 Ni35 3.302008 1_555
Er3 Ge17 2.904207 1_555
Er3 Ge17 2.904207 1_554
Er3 Ge12 2.909440 1_544
Er3 Ge12 2.909440 1_545
Er3 Ge4 2.985251 1_545
Er3 Ge10 3.025079 1_555
Er3 Ni19 3.057788 1_545
Er3 Ni15 3.113330 1_554
Er3 Ni15 3.113330 1_555
Er3 Ni14 3.194990 1_544
Er3 Ni14 3.194990 1_545
Er3 Ni27 3.249577 1_555
Er3 Ni5 3.286347 1_554
Er3 Ni5 3.286347 1_555
Er3 Ni20 3.286658 1_554
Er3 Ni20 3.286658 1_555
Er3 Ni9 3.302008 1_555
Er4 Ge22 2.937330 1_555
Er4 Ge8 2.937330 1_555
Er4 Ni33 2.984577 1_554
Er4 Ni33 2.984577 1_555
Er4 Ni4 2.984577 1_554
Er4 Ni4 2.984577 1_555
Er4 Ge18 3.004778 1_555
Er4 Ge18 3.004778 1_554
Er4 Ge16 3.004778 1_554
Er4 Ge16 3.004778 1_555
Er4 Ni1 3.142132 1_555
Er4 Ni9 3.142132 1_555
Er4 Ni13 3.322624 1_554
Er4 Ni13 3.322624 1_555
Er4 Ni23 3.322624 1_554
Er4 Ni23 3.322624 1_555
Er5 Ge15 2.966927 1_556
Er5 Ge15 2.966927 1_555
Er5 Ge3 2.966928 1_556
Er5 Ge3 2.966928 1_555
Er5 Ge8 2.966939 1_556
Er5 Ge8 2.966939 1_555
Er5 Ni17 3.074437 1_555
Er5 Ni17 3.074437 1_556
Er5 Ni11 3.074449 1_556
Er5 Ni11 3.074449 1_555
Er5 Ni2 3.074450 1_556
Er5 Ni2 3.074450 1_555
Er5 Ni29 3.251355 1_555
Er5 Ni30 3.251360 1_555
Er5 Ni33 3.251373 1_555
Er5 Ni31 3.389927 1_555
Er5 Ni7 3.389936 1_555
Er5 Ni13 3.389945 1_555
Er6 Ge5 2.904207 1_555
Er6 Ge5 2.904207 1_554
Er6 Ge1 2.909440 1_565
Er6 Ge1 2.909440 1_564
Er6 Ge2 2.985251 1_565
Er6 Ge19 3.025079 1_555
Er6 Ni8 3.057788 1_565
Er6 Ni7 3.113330 1_554
Er6 Ni7 3.113330 1_555
Er6 Ni10 3.194990 1_565
Er6 Ni10 3.194990 1_564
Er6 Ni2 3.249577 1_555
Er6 Ni0 3.286347 1_554
Er6 Ni0 3.286347 1_555
Er6 Ni3 3.286658 1_555
Er6 Ni3 3.286658 1_554
Er6 Ni1 3.302008 1_555
Er7 Ge6 2.904207 1_555
Er7 Ge6 2.904207 1_554
Er7 Ge21 2.909440 1_655
Er7 Ge21 2.909440 1_654
Er7 Ge13 2.985263 1_655
Er7 Ge2 3.025062 1_555
Er7 Ni35 3.057788 1_655
Er7 Ni28 3.113330 1_554
Er7 Ni28 3.113330 1_555
Er7 Ni6 3.194990 1_654
Er7 Ni6 3.194990 1_655
Er7 Ni18 3.249577 1_555
Er7 Ni21 3.286347 1_555
Er7 Ni21 3.286347 1_554
Er7 Ni10 3.286658 1_555
Er7 Ni10 3.286658 1_554
Er7 Ni8 3.302008 1_555
Er8 Ge14 2.904207 1_555
Er8 Ge14 2.904207 1_554
Er8 Ge11 2.909440 1_455
Er8 Ge11 2.909440 1_454
Er8 Ge7 2.985263 1_455
Er8 Ge4 3.025062 1_555
Er8 Ni26 3.057788 1_455
Er8 Ni31 3.113330 1_555
Er8 Ni31 3.113330 1_554
Er8 Ni22 3.194990 1_455
Er8 Ni22 3.194990 1_454
Er8 Ni17 3.249577 1_555
Er8 Ni34 3.286347 1_555
Er8 Ni34 3.286347 1_554
Er8 Ni14 3.286658 1_554
Er8 Ni14 3.286658 1_555
Er8 Ni19 3.302008 1_555
Er9 Ge0 2.904208 1_554
Er9 Ge0 2.904208 1_555
Er9 Ge18 2.909440 1_555
Er9 Ge18 2.909440 1_554
Er9 Ge19 2.985246 1_555
Er9 Ge7 3.025066 1_555
Er9 Ni1 3.057788 1_555
Er9 Ni23 3.113330 1_554
Er9 Ni23 3.113330 1_555
Er9 Ni3 3.194990 1_555
Er9 Ni3 3.194990 1_554
Er9 Ni12 3.249577 1_555
Er9 Ni32 3.286347 1_555
Er9 Ni32 3.286347 1_554
Er9 Ni22 3.286658 1_554
Er9 Ni22 3.286658 1_555
Er9 Ni26 3.302008 1_555
Er10 Ge13 3.088339 1_555
Er10 Ge7 3.088339 1_445
Er10 Ge10 3.088344 1_555
Er10 Ge19 3.088344 1_445
Er10 Ge2 3.088357 1_455
Er10 Ge4 3.088357 1_545
Er10 Ni25 3.195078 1_555
Er10 Ni25 3.195078 1_554
Er10 Ni32 3.195078 1_445
Er10 Ni32 3.195078 1_444
Er10 Ni5 3.195078 1_555
Er10 Ni5 3.195078 1_554
Er10 Ni0 3.195078 1_445
Er10 Ni0 3.195078 1_444
Er10 Ni21 3.195078 1_455
Er10 Ni21 3.195078 1_454
Er10 Ni34 3.195078 1_544
Er10 Ni34 3.195078 1_545
Er11 Ge9 2.966927 1_556
Er11 Ge9 2.966927 1_555
Er11 Ge23 2.966928 1_555
Er11 Ge23 2.966928 1_556
Er11 Ge22 2.966939 1_556
Er11 Ge22 2.966939 1_555
Er11 Ni18 3.074437 1_556
Er11 Ni18 3.074437 1_555
Er11 Ni12 3.074449 1_556
Er11 Ni12 3.074449 1_555
Er11 Ni27 3.074450 1_556
Er11 Ni27 3.074450 1_555
Er11 Ni16 3.251355 1_555
Er11 Ni24 3.251360 1_555
Er11 Ni4 3.251373 1_555
Er11 Ni28 3.389927 1_555
Er11 Ni15 3.389936 1_555
Er11 Ni23 3.389945 1_555
Ni0 Ni21 2.570278 1_565
Ni0 Ni32 2.570278 1_555
Ni0 Ni3 2.608832 1_555
Ni0 Ni10 2.619495 1_565
Ni1 Ni2 2.546185 1_555
Ni1 Ni3 2.643468 1_554
Ni1 Ni3 2.643468 1_555
Ni1 Ni33 2.736965 1_554
Ni1 Ni33 2.736965 1_555
Ni2 Ni33 2.750922 1_554
Ni2 Ni33 2.750922 1_555
Ni2 Ni7 2.797846 1_554
Ni2 Ni7 2.797846 1_555
Ni3 Ni32 2.619495 1_555
Ni4 Ni9 2.736965 1_555
Ni4 Ni9 2.736965 1_556
Ni10 Ni21 2.608832 1_555
Ni10 Ni8 2.643468 1_555
Ni10 Ni8 2.643468 1_556
Ni11 Ni35 2.546185 1_555
Ni11 Ni30 2.750922 1_554
Ni11 Ni30 2.750922 1_555
Ni11 Ni13 2.797846 1_555
Ni11 Ni13 2.797846 1_554
Ni12 Ni26 2.546185 1_555
Ni12 Ni24 2.750922 1_555
Ni12 Ni24 2.750922 1_554
Ni12 Ni23 2.797846 1_554
Ni12 Ni23 2.797846 1_555
Ni13 Ni33 2.570554 1_555
Ni14 Ni34 2.608832 1_555
Ni14 Ni5 2.619495 1_565
Ni14 Ni19 2.643468 1_556
Ni14 Ni19 2.643468 1_555
Ni15 Ni16 2.570554 1_555
Ni15 Ni27 2.797846 1_556
Ni15 Ni27 2.797846 1_555
Ni16 Ni8 2.736965 1_555
Ni16 Ni8 2.736965 1_556
Ni16 Ni18 2.750922 1_555
Ni16 Ni18 2.750922 1_556
Ni17 Ni19 2.546185 1_555
Ni17 Ni29 2.750922 1_555
Ni17 Ni29 2.750922 1_554
Ni17 Ni31 2.797846 1_555
Ni17 Ni31 2.797846 1_554
Ni18 Ni8 2.546185 1_555
Ni18 Ni28 2.797846 1_554
Ni18 Ni28 2.797846 1_555
Ni19 Ni29 2.736965 1_555
Ni19 Ni29 2.736965 1_554
Ni20 Ni5 2.608832 1_555
Ni20 Ni25 2.619495 1_555
Ni20 Ni9 2.643468 1_555
Ni20 Ni9 2.643468 1_556
Ni21 Ni25 2.570278 1_655
Ni21 Ni6 2.619495 1_655
Ni22 Ni32 2.608832 1_555
Ni22 Ni34 2.619495 1_655
Ni22 Ni26 2.643468 1_555
Ni22 Ni26 2.643468 1_556
Ni23 Ni4 2.570554 1_555
Ni24 Ni28 2.570554 1_555
Ni24 Ni26 2.736965 1_556
Ni24 Ni26 2.736965 1_555
Ni25 Ni5 2.570278 1_555
Ni25 Ni6 2.608832 1_555
Ni27 Ni9 2.546185 1_555
Ni27 Ni4 2.750922 1_554
Ni27 Ni4 2.750922 1_555
Ni29 Ni7 2.570554 1_555
Ni30 Ni31 2.570554 1_555
Ni30 Ni35 2.736965 1_555
Ni30 Ni35 2.736965 1_556
Ni32 Ni34 2.570278 1_655
Ni34 Ni5 2.570278 1_565
Ni35 Ni6 2.643468 1_555
Ni35 Ni6 2.643468 1_554
Ge0 Ni24 2.339605 1_555
Ge0 Ni23 2.376063 1_555
Ge0 Ni12 2.391058 1_556
Ge0 Ni12 2.391058 1_555
Ge0 Ni22 2.400943 1_555
Ge0 Ni26 2.466153 1_555
Ge0 Ni26 2.466153 1_556
Ge1 Ni8 2.374392 1_555
Ge1 Ni8 2.374392 1_556
Ge1 Ni7 2.378895 1_545
Ge1 Ni16 2.447502 1_555
Ge1 Ni10 2.491441 1_555
Ge2 Ni10 2.366860 1_554
Ge2 Ni10 2.366860 1_555
Ge2 Ni21 2.436732 1_554
Ge2 Ni21 2.436732 1_555
Ge2 Ni0 2.461352 1_545
Ge2 Ni0 2.461352 1_544
Ge3 Ni2 2.318109 1_555
Ge3 Ni17 2.386958 1_555
Ge3 Ni29 2.399666 1_555
Ge3 Ni29 2.399666 1_554
Ge3 Ni7 2.444060 1_555
Ge3 Ni7 2.444060 1_554
Ge4 Ni14 2.366860 1_554
Ge4 Ni14 2.366860 1_555
Ge4 Ni34 2.436732 1_554
Ge4 Ni34 2.436732 1_555
Ge4 Ni5 2.461352 1_564
Ge4 Ni5 2.461352 1_565
Ge5 Ni33 2.339605 1_555
Ge5 Ni7 2.376063 1_555
Ge5 Ni2 2.391058 1_555
Ge5 Ni2 2.391058 1_556
Ge5 Ni3 2.400943 1_555
Ge5 Ni1 2.466153 1_555
Ge5 Ni1 2.466153 1_556
Ge6 Ni16 2.339605 1_555
Ge6 Ni28 2.376063 1_555
Ge6 Ni18 2.391058 1_556
Ge6 Ni18 2.391058 1_555
Ge6 Ni10 2.400943 1_555
Ge6 Ni8 2.466153 1_555
Ge6 Ni8 2.466153 1_556
Ge7 Ni22 2.366871 1_554
Ge7 Ni22 2.366871 1_555
Ge7 Ni32 2.436724 1_554
Ge7 Ni32 2.436724 1_555
Ge7 Ni34 2.461348 1_654
Ge7 Ni34 2.461348 1_655
Ge8 Ni11 2.318109 1_555
Ge8 Ni2 2.386958 1_555
Ge8 Ni33 2.399666 1_554
Ge8 Ni33 2.399666 1_555
Ge8 Ni13 2.444060 1_554
Ge8 Ni13 2.444060 1_555
Ge9 Ni18 2.318109 1_555
Ge9 Ni12 2.386959 1_555
Ge9 Ni24 2.399666 1_555
Ge9 Ni24 2.399666 1_554
Ge9 Ni28 2.444060 1_555
Ge9 Ni28 2.444060 1_554
Ge10 Ni20 2.366867 1_555
Ge10 Ni20 2.366867 1_554
Ge10 Ni5 2.436735 1_555
Ge10 Ni5 2.436735 1_554
Ge10 Ni25 2.461341 1_555
Ge10 Ni25 2.461341 1_554
Ge11 Ni26 2.374392 1_555
Ge11 Ni26 2.374392 1_556
Ge11 Ni31 2.378895 1_655
Ge11 Ni24 2.447502 1_555
Ge11 Ni22 2.491441 1_555
Ge12 Ni19 2.374392 1_556
Ge12 Ni19 2.374392 1_555
Ge12 Ni15 2.378895 1_565
Ge12 Ni29 2.447502 1_555
Ge12 Ni14 2.491441 1_555
Ge13 Ni6 2.366871 1_555
Ge13 Ni6 2.366871 1_554
Ge13 Ni25 2.436724 1_554
Ge13 Ni25 2.436724 1_555
Ge13 Ni21 2.461348 1_455
Ge13 Ni21 2.461348 1_454
Ge14 Ni29 2.339605 1_555
Ge14 Ni31 2.376063 1_555
Ge14 Ni17 2.391058 1_556
Ge14 Ni17 2.391058 1_555
Ge14 Ni14 2.400943 1_555
Ge14 Ni19 2.466153 1_556
Ge14 Ni19 2.466153 1_555
Ge15 Ni17 2.318109 1_555
Ge15 Ni11 2.386959 1_555
Ge15 Ni30 2.399666 1_554
Ge15 Ni30 2.399666 1_555
Ge15 Ni31 2.444060 1_554
Ge15 Ni31 2.444060 1_555
Ge16 Ni9 2.374392 1_555
Ge16 Ni9 2.374392 1_556
Ge16 Ni13 2.378895 1_555
Ge16 Ni4 2.447502 1_555
Ge16 Ni20 2.491441 1_555
Ge17 Ni4 2.339605 1_555
Ge17 Ni15 2.376063 1_555
Ge17 Ni27 2.391058 1_556
Ge17 Ni27 2.391058 1_555
Ge17 Ni20 2.400943 1_555
Ge17 Ni9 2.466153 1_555
Ge17 Ni9 2.466153 1_556
Ge18 Ni1 2.374392 1_555
Ge18 Ni1 2.374392 1_556
Ge18 Ni23 2.378895 1_555
Ge18 Ni33 2.447502 1_555
Ge18 Ni3 2.491441 1_555
Ge19 Ni3 2.366867 1_554
Ge19 Ni3 2.366867 1_555
Ge19 Ni0 2.436735 1_554
Ge19 Ni0 2.436735 1_555
Ge19 Ni32 2.461341 1_554
Ge19 Ni32 2.461341 1_555
Ge20 Ni30 2.339605 1_555
Ge20 Ni13 2.376063 1_555
Ge20 Ni11 2.391058 1_556
Ge20 Ni11 2.391058 1_555
Ge20 Ni6 2.400943 1_555
Ge20 Ni35 2.466153 1_555
Ge20 Ni35 2.466153 1_556
Ge21 Ni35 2.374392 1_555
Ge21 Ni35 2.374392 1_556
Ge21 Ni28 2.378895 1_455
Ge21 Ni30 2.447502 1_555
Ge21 Ni6 2.491441 1_555
Ge22 Ni12 2.318109 1_555
Ge22 Ni27 2.386958 1_555
Ge22 Ni4 2.399666 1_554
Ge22 Ni4 2.399666 1_555
Ge22 Ni23 2.444060 1_554
Ge22 Ni23 2.444060 1_555
Ge23 Ni27 2.318109 1_555
Ge23 Ni18 2.386958 1_555
Ge23 Ni16 2.399666 1_555
Ge23 Ni16 2.399666 1_554
Ge23 Ni15 2.444060 1_555
Ge23 Ni15 2.444060 1_554
