# generated using pymatgen
data_CeTl5Ni2(NO2)12
_symmetry_space_group_name_H-M   'P 1'
_cell_length_a   10.93336200
_cell_length_b   10.93336200
_cell_length_c   10.93336200
_cell_angle_alpha   90.00000000
_cell_angle_beta   90.00000000
_cell_angle_gamma   90.00000000
_symmetry_Int_Tables_number   1
_chemical_formula_structural   CeTl5Ni2(NO2)12
_chemical_formula_sum   'Ce2 Tl10 Ni4 N24 O48'
_cell_volume   1306.95665065
_cell_formula_units_Z   2
loop_
 _symmetry_equiv_pos_site_id
 _symmetry_equiv_pos_as_xyz
  1  'x, y, z'
loop_
 _atom_site_type_symbol
 _atom_site_label
 _atom_site_symmetry_multiplicity
 _atom_site_fract_x
 _atom_site_fract_y
 _atom_site_fract_z
 _atom_site_occupancy
  Ce  Ce0  1  0.25000000  0.25000000  0.25000000  1
  Ce  Ce1  1  0.75000000  0.75000000  0.75000000  1
  Tl  Tl0  1  0.50000000  0.50000000  0.00000000  1
  Tl  Tl1  1  0.50000000  0.00000000  0.50000000  1
  Tl  Tl2  1  0.25000000  0.75000000  0.75000000  1
  Tl  Tl3  1  0.75000000  0.25000000  0.25000000  1
  Tl  Tl4  1  0.75000000  0.25000000  0.75000000  1
  Tl  Tl5  1  0.00000000  0.00000000  0.00000000  1
  Tl  Tl6  1  0.75000000  0.75000000  0.25000000  1
  Tl  Tl7  1  0.25000000  0.75000000  0.25000000  1
  Tl  Tl8  1  0.00000000  0.50000000  0.50000000  1
  Tl  Tl9  1  0.25000000  0.25000000  0.75000000  1
  Ni  Ni0  1  0.00000000  0.00000000  0.50000000  1
  Ni  Ni1  1  0.50000000  0.00000000  0.00000000  1
  Ni  Ni2  1  0.00000000  0.50000000  0.00000000  1
  Ni  Ni3  1  0.50000000  0.50000000  0.50000000  1
  N  N0  1  0.50500100  0.50939700  0.69191900  1
  N  N1  1  0.80808100  0.99499900  0.50939700  1
  N  N2  1  0.69191900  0.99499900  0.99060300  1
  N  N3  1  0.50939700  0.80808100  0.99499900  1
  N  N4  1  0.99499900  0.99060300  0.69191900  1
  N  N5  1  0.00939700  0.30808100  0.00500100  1
  N  N6  1  0.30808100  0.00500100  0.00939700  1
  N  N7  1  0.80808100  0.50500100  0.99060300  1
  N  N8  1  0.50939700  0.69191900  0.50500100  1
  N  N9  1  0.00500100  0.49060300  0.19191900  1
  N  N10  1  0.99060300  0.80808100  0.50500100  1
  N  N11  1  0.49499900  0.49060300  0.30808100  1
  N  N12  1  0.50500100  0.99060300  0.80808100  1
  N  N13  1  0.00939700  0.19191900  0.49499900  1
  N  N14  1  0.69191900  0.50500100  0.50939700  1
  N  N15  1  0.49060300  0.19191900  0.00500100  1
  N  N16  1  0.49060300  0.30808100  0.49499900  1
  N  N17  1  0.19191900  0.00500100  0.49060300  1
  N  N18  1  0.99060300  0.69191900  0.99499900  1
  N  N19  1  0.99499900  0.50939700  0.80808100  1
  N  N20  1  0.49499900  0.00939700  0.19191900  1
  N  N21  1  0.00500100  0.00939700  0.30808100  1
  N  N22  1  0.19191900  0.49499900  0.00939700  1
  N  N23  1  0.30808100  0.49499900  0.49060300  1
  O  O0  1  0.50504200  0.24990300  0.90710900  1
  O  O1  1  0.00504200  0.74990300  0.09289100  1
  O  O2  1  0.40710900  0.00504200  0.75009700  1
  O  O3  1  0.25009700  0.59289100  0.50504200  1
  O  O4  1  0.90710900  0.50504200  0.24990300  1
  O  O5  1  0.25210400  0.09966600  0.45982700  1
  O  O6  1  0.40033400  0.45982700  0.24789600  1
  O  O7  1  0.95982700  0.74789600  0.59966600  1
  O  O8  1  0.59289100  0.99495800  0.24990300  1
  O  O9  1  0.04017300  0.25210400  0.40033400  1
  O  O10  1  0.09289100  0.00504200  0.74990300  1
  O  O11  1  0.40033400  0.04017300  0.25210400  1
  O  O12  1  0.75009700  0.40710900  0.00504200  1
  O  O13  1  0.90033400  0.95982700  0.75210400  1
  O  O14  1  0.04017300  0.24789600  0.09966600  1
  O  O15  1  0.90710900  0.99495800  0.25009700  1
  O  O16  1  0.90033400  0.54017300  0.74789600  1
  O  O17  1  0.24990300  0.90710900  0.50504200  1
  O  O18  1  0.09289100  0.49495800  0.75009700  1
  O  O19  1  0.09966600  0.04017300  0.24789600  1
  O  O20  1  0.54017300  0.74789600  0.90033400  1
  O  O21  1  0.24990300  0.59289100  0.99495800  1
  O  O22  1  0.25210400  0.40033400  0.04017300  1
  O  O23  1  0.75009700  0.09289100  0.49495800  1
  O  O24  1  0.00504200  0.75009700  0.40710900  1
  O  O25  1  0.24789600  0.40033400  0.45982700  1
  O  O26  1  0.40710900  0.49495800  0.74990300  1
  O  O27  1  0.99495800  0.24990300  0.59289100  1
  O  O28  1  0.59289100  0.50504200  0.25009700  1
  O  O29  1  0.54017300  0.75210400  0.59966600  1
  O  O30  1  0.74789600  0.59966600  0.95982700  1
  O  O31  1  0.59966600  0.95982700  0.74789600  1
  O  O32  1  0.25009700  0.90710900  0.99495800  1
  O  O33  1  0.75210400  0.90033400  0.95982700  1
  O  O34  1  0.74990300  0.09289100  0.00504200  1
  O  O35  1  0.50504200  0.25009700  0.59289100  1
  O  O36  1  0.74789600  0.90033400  0.54017300  1
  O  O37  1  0.74990300  0.40710900  0.49495800  1
  O  O38  1  0.99495800  0.25009700  0.90710900  1
  O  O39  1  0.49495800  0.75009700  0.09289100  1
  O  O40  1  0.09966600  0.45982700  0.25210400  1
  O  O41  1  0.24789600  0.09966600  0.04017300  1
  O  O42  1  0.45982700  0.24789600  0.40033400  1
  O  O43  1  0.59966600  0.54017300  0.75210400  1
  O  O44  1  0.49495800  0.74990300  0.40710900  1
  O  O45  1  0.95982700  0.75210400  0.90033400  1
  O  O46  1  0.75210400  0.59966600  0.54017300  1
  O  O47  1  0.45982700  0.25210400  0.09966600  1
loop_
_geom_bond_atom_site_label_1
_geom_bond_atom_site_label_2
_geom_bond_distance
_geom_bond_site_symmetry_2
Ce0 O19 2.822250 1_555
Ce0 O9 2.822250 1_555
Ce0 O47 2.822250 1_555
Ce0 O25 2.822250 1_555
Ce0 O6 2.822250 1_555
Ce0 O42 2.822250 1_555
Ce0 O41 2.822250 1_555
Ce0 O5 2.822250 1_555
Ce0 O14 2.822250 1_555
Ce0 O11 2.822250 1_555
Ce0 O40 2.822250 1_555
Ce0 O22 2.822250 1_555
Ce1 O43 2.822250 1_555
Ce1 O31 2.822250 1_555
Ce1 O13 2.822250 1_555
Ce1 O45 2.822250 1_555
Ce1 O29 2.822250 1_555
Ce1 O7 2.822250 1_555
Ce1 O30 2.822250 1_555
Ce1 O46 2.822250 1_555
Ce1 O16 2.822250 1_555
Ce1 O20 2.822250 1_555
Ce1 O36 2.822250 1_555
Ce1 O33 2.822250 1_555
N0 O26 1.253932 1_555
N0 O43 1.271793 1_555
N0 Ni3 2.101545 1_555
N1 O23 1.253932 1_565
N1 O36 1.271793 1_555
N1 Ni0 2.101545 1_665
N2 O34 1.253932 1_566
N2 O33 1.271793 1_555
N2 Ni1 2.101545 1_566
N3 O39 1.253932 1_556
N3 O20 1.271793 1_555
N3 Ni1 2.101545 1_566
N4 O10 1.253932 1_665
N4 O13 1.271793 1_555
N4 Ni0 2.101545 1_665
N5 O38 1.253932 1_454
N5 O14 1.271793 1_555
N5 Ni2 2.101545 1_555
N6 O32 1.253932 1_544
N6 O41 1.271793 1_555
N6 Ni1 2.101545 1_555
N7 O12 1.253932 1_556
N7 O30 1.271793 1_555
N7 Ni2 2.101545 1_656
N8 O44 1.253932 1_555
N8 O29 1.271793 1_555
N8 Ni3 2.101545 1_555
N9 O4 1.253932 1_455
N9 O40 1.271793 1_555
N9 Ni2 2.101545 1_555
N10 O24 1.253932 1_655
N10 O7 1.271793 1_555
N10 Ni0 2.101545 1_665
N11 O28 1.253932 1_555
N11 O6 1.271793 1_555
N11 Ni3 2.101545 1_555
N12 O2 1.253932 1_565
N12 O31 1.271793 1_555
N12 Ni1 2.101545 1_566
N13 O27 1.253932 1_455
N13 O9 1.271793 1_555
N13 Ni0 2.101545 1_555
N14 O37 1.253932 1_555
N14 O46 1.271793 1_555
N14 Ni3 2.101545 1_555
N15 O0 1.253932 1_554
N15 O47 1.271793 1_555
N15 Ni1 2.101545 1_555
N16 O35 1.253932 1_555
N16 O42 1.271793 1_555
N16 Ni3 2.101545 1_555
N17 O17 1.253932 1_545
N17 O5 1.271793 1_555
N17 Ni0 2.101545 1_555
N18 O1 1.253932 1_656
N18 O45 1.271793 1_555
N18 Ni2 2.101545 1_656
N19 O18 1.253932 1_655
N19 O16 1.271793 1_555
N19 Ni2 2.101545 1_656
N20 O8 1.253932 1_545
N20 O11 1.271793 1_555
N20 Ni1 2.101545 1_555
N21 O15 1.253932 1_445
N21 O19 1.271793 1_555
N21 Ni0 2.101545 1_555
N22 O21 1.253932 1_554
N22 O22 1.271793 1_555
N22 Ni2 2.101545 1_555
N23 O3 1.253932 1_555
N23 O25 1.271793 1_555
N23 Ni3 2.101545 1_555
