# generated using pymatgen
data_ZnCoPHO5
_symmetry_space_group_name_H-M   'P 1'
_cell_length_a   5.54403562
_cell_length_b   9.77004181
_cell_length_c   8.27179241
_cell_angle_alpha   70.50113821
_cell_angle_beta   96.00911369
_cell_angle_gamma   91.87740720
_symmetry_Int_Tables_number   1
_chemical_formula_structural   ZnCoPHO5
_chemical_formula_sum   'Zn4 Co4 P4 H4 O20'
_cell_volume   420.02735362
_cell_formula_units_Z   4
loop_
 _symmetry_equiv_pos_site_id
 _symmetry_equiv_pos_as_xyz
  1  'x, y, z'
loop_
 _atom_site_type_symbol
 _atom_site_label
 _atom_site_symmetry_multiplicity
 _atom_site_fract_x
 _atom_site_fract_y
 _atom_site_fract_z
 _atom_site_occupancy
  Zn  Zn0  1  0.20671199  0.00936259  0.62553732  1
  Zn  Zn1  1  0.20667557  0.50935417  0.12555402  1
  Zn  Zn2  1  0.79331827  0.99063749  0.37446740  1
  Zn  Zn3  1  0.79334532  0.49064329  0.87445231  1
  Co  Co0  1  0.99997564  0.50001601  0.49996675  1
  Co  Co1  1  0.49997676  -0.00000729  0.00003293  1
  Co  Co2  1  0.99997850  0.00001637  -0.00003310  1
  Co  Co3  1  0.49997590  0.49999132  0.50003400  1
  P  P0  1  0.29901263  0.83085047  0.38693332  1
  P  P1  1  0.29904612  0.33086484  0.88693435  1
  P  P2  1  0.70100173  0.16914758  0.61306477  1
  P  P3  1  0.70096396  0.66913521  0.11306430  1
  H  H0  1  0.26139431  0.31164059  0.41200760  1
  H  H1  1  0.26134885  0.81164672  0.91198927  1
  H  H2  1  0.73858884  0.68835959  0.58799719  1
  H  H3  1  0.73863452  0.18835662  0.08801579  1
  O  O0  1  0.44699591  0.15073412  0.52916303  1
  O  O1  1  0.44696499  0.65071617  0.02916711  1
  O  O2  1  0.55302763  0.84925779  0.47082882  1
  O  O3  1  0.55304888  0.34927987  0.97082711  1
  O  O4  1  0.22549375  0.91566414  0.86799233  1
  O  O5  1  0.22549899  0.41565440  0.36800907  1
  O  O6  1  0.77449894  0.08434015  0.13200692  1
  O  O7  1  0.77449221  0.58434622  0.63199314  1
  O  O8  1  0.27428082  0.92303611  0.19524299  1
  O  O9  1  0.27430426  0.42303913  0.69524518  1
  O  O10  1  0.72572486  0.07695798  0.80475270  1
  O  O11  1  0.72569529  0.57695846  0.30475251  1
  O  O12  1  0.11073953  0.88762490  0.47687922  1
  O  O13  1  0.11075681  0.38764009  0.97686619  1
  O  O14  1  0.88928187  0.11237931  0.52311924  1
  O  O15  1  0.88925927  0.61236141  0.02313402  1
  O  O16  1  0.25043520  0.67064811  0.41297621  1
  O  O17  1  0.25047687  0.17065467  0.91300023  1
  O  O18  1  0.74955835  0.32934867  0.58702636  1
  O  O19  1  0.74951666  0.82934473  0.08700043  1
loop_
_geom_bond_atom_site_label_1
_geom_bond_atom_site_label_2
_geom_bond_distance
_geom_bond_site_symmetry_2
Co0 O11 2.057987 1_555
Co0 O9 2.058520 1_655
Co0 O5 2.094729 1_655
Co0 O7 2.094808 1_555
Co0 O16 2.117014 1_655
Co0 O18 2.117166 1_555
Co1 O8 2.071052 1_545
Co1 O10 2.071672 1_554
Co1 O17 2.086395 1_554
Co1 O19 2.086438 1_545
Co1 O6 2.087513 1_555
Co1 O4 2.087587 1_544
Co2 O10 2.057887 1_554
Co2 O8 2.058415 1_645
Co2 O4 2.094745 1_644
Co2 O6 2.094837 1_555
Co2 O17 2.117168 1_654
Co2 O19 2.117326 1_545
Co3 O9 2.070964 1_555
Co3 O11 2.071574 1_555
Co3 O16 2.086509 1_555
Co3 O18 2.086558 1_555
Co3 O7 2.087460 1_555
Co3 O5 2.087534 1_555
H0 O5 0.977725 1_555
H1 O4 0.977713 1_555
H2 O7 0.977729 1_555
H3 O6 0.977714 1_555
O0 P2 1.535977 1_555
O0 Zn0 1.919525 1_555
O1 P3 1.535942 1_555
O1 Zn1 1.919521 1_555
O2 P0 1.535986 1_555
O2 Zn2 1.919570 1_555
O3 P1 1.535936 1_555
O3 Zn3 1.919531 1_555
O4 Zn0 1.899457 1_565
O5 Zn1 1.899450 1_555
O6 Zn2 1.899495 1_545
O7 Zn3 1.899478 1_555
O8 P0 1.534075 1_555
O9 P1 1.534040 1_555
O10 P2 1.534068 1_555
O11 P3 1.534040 1_555
O12 P0 1.557813 1_555
O12 Zn0 2.001931 1_565
O12 Zn2 2.015484 1_455
O13 P1 1.557805 1_555
O13 Zn1 2.001888 1_556
O13 Zn3 2.015406 1_455
O14 P2 1.557807 1_555
O14 Zn2 2.001913 1_545
O14 Zn0 2.015550 1_655
O15 P3 1.557813 1_555
O15 Zn3 2.001874 1_554
O15 Zn1 2.015452 1_655
O16 P0 1.525836 1_555
O17 P1 1.525868 1_555
O18 P2 1.525812 1_555
O19 P3 1.525851 1_555
