# generated using pymatgen
data_Cu5As2
_symmetry_space_group_name_H-M   'P 1'
_cell_length_a   5.52799106
_cell_length_b   5.93938116
_cell_length_c   7.00875337
_cell_angle_alpha   115.11232004
_cell_angle_beta   113.11144404
_cell_angle_gamma   89.98494727
_symmetry_Int_Tables_number   1
_chemical_formula_structural   Cu5As2
_chemical_formula_sum   'Cu10 As4'
_cell_volume   187.78256820
_cell_formula_units_Z   2
loop_
 _symmetry_equiv_pos_site_id
 _symmetry_equiv_pos_as_xyz
  1  'x, y, z'
loop_
 _atom_site_type_symbol
 _atom_site_label
 _atom_site_symmetry_multiplicity
 _atom_site_fract_x
 _atom_site_fract_y
 _atom_site_fract_z
 _atom_site_occupancy
  Cu  Cu0  1  0.39472464  0.70095735  0.78917868  1
  Cu  Cu1  1  0.60527536  0.29904265  0.21082132  1
  Cu  Cu2  1  0.10454927  0.91151973  0.20909225  1
  Cu  Cu3  1  0.89545073  0.08848027  0.79090775  1
  Cu  Cu4  1  0.51955518  0.26951075  0.53936384  1
  Cu  Cu5  1  0.98034437  0.73061760  0.46065628  1
  Cu  Cu6  1  0.48044482  0.73048925  0.46063616  1
  Cu  Cu7  1  0.01965563  0.26938240  0.53934372  1
  Cu  Cu8  1  0.25026568  0.50010502  0.00036256  1
  Cu  Cu9  1  0.74973432  0.49989498  -0.00036256  1
  As  As0  1  0.11649747  0.34005099  0.23404368  1
  As  As1  1  0.88350253  0.65994901  0.76595632  1
  As  As2  1  0.38294185  0.10618621  0.76655226  1
  As  As3  1  0.61705815  0.89381379  0.23344774  1
loop_
_geom_bond_atom_site_label_1
_geom_bond_atom_site_label_2
_geom_bond_distance
_geom_bond_site_symmetry_2
Cu0 Cu9 2.583527 1_556
Cu0 Cu8 2.584326 1_556
Cu0 Cu6 2.599437 1_555
Cu0 Cu5 2.604498 1_455
Cu0 Cu4 2.692148 1_555
Cu0 Cu7 2.697854 1_555
Cu1 Cu8 2.583527 1_555
Cu1 Cu9 2.584326 1_555
Cu1 Cu4 2.599437 1_555
Cu1 Cu7 2.604498 1_655
Cu1 Cu6 2.692148 1_555
Cu1 Cu5 2.697854 1_555
Cu2 Cu8 2.578728 1_555
Cu2 Cu9 2.583607 1_455
Cu2 Cu7 2.602291 1_565
Cu2 Cu4 2.607362 1_565
Cu2 Cu5 2.700604 1_455
Cu2 Cu6 2.704437 1_555
Cu3 Cu9 2.578728 1_556
Cu3 Cu8 2.583607 1_656
Cu3 Cu5 2.602291 1_545
Cu3 Cu6 2.607362 1_545
Cu3 Cu7 2.700604 1_655
Cu3 Cu4 2.704437 1_555
As0 Cu2 2.475129 1_545
As0 Cu5 2.506095 1_455
As0 Cu6 2.513099 1_555
As0 Cu8 2.530926 1_555
As0 Cu9 2.533572 1_455
As0 Cu3 2.540583 1_454
As0 Cu7 2.589033 1_555
As0 Cu4 2.595505 1_555
As0 Cu1 2.770900 1_455
As0 Cu1 2.774463 1_555
As1 Cu3 2.475129 1_565
As1 Cu7 2.506095 1_655
As1 Cu4 2.513099 1_555
As1 Cu9 2.530926 1_556
As1 Cu8 2.533572 1_656
As1 Cu2 2.540583 1_656
As1 Cu5 2.589033 1_555
As1 Cu6 2.595505 1_555
As1 Cu0 2.770900 1_655
As1 Cu0 2.774463 1_555
As2 Cu0 2.477477 1_545
As2 Cu4 2.510420 1_555
As2 Cu7 2.511369 1_555
As2 Cu8 2.526972 1_556
As2 Cu9 2.531357 1_556
As2 Cu1 2.547008 1_556
As2 Cu6 2.590856 1_545
As2 Cu5 2.592866 1_445
As2 Cu3 2.771085 1_455
As2 Cu3 2.775306 1_555
As3 Cu1 2.477477 1_565
As3 Cu6 2.510420 1_555
As3 Cu5 2.511369 1_555
As3 Cu9 2.526972 1_555
As3 Cu8 2.531357 1_555
As3 Cu0 2.547008 1_554
As3 Cu4 2.590856 1_565
As3 Cu7 2.592866 1_665
As3 Cu2 2.771085 1_655
As3 Cu2 2.775306 1_555
