# generated using pymatgen
data_Pr2SiTeO4
_symmetry_space_group_name_H-M   'P 1'
_cell_length_a   6.49168813
_cell_length_b   8.76350459
_cell_length_c   9.91719864
_cell_angle_alpha   85.54095370
_cell_angle_beta   90.00000000
_cell_angle_gamma   90.00000000
_symmetry_Int_Tables_number   1
_chemical_formula_structural   Pr2SiTeO4
_chemical_formula_sum   'Pr8 Si4 Te4 O16'
_cell_volume   562.48111330
_cell_formula_units_Z   4
loop_
 _symmetry_equiv_pos_site_id
 _symmetry_equiv_pos_as_xyz
  1  'x, y, z'
loop_
 _atom_site_type_symbol
 _atom_site_label
 _atom_site_symmetry_multiplicity
 _atom_site_fract_x
 _atom_site_fract_y
 _atom_site_fract_z
 _atom_site_occupancy
  Pr  Pr0  1  0.69510962  0.33502286  0.15361762  1
  Pr  Pr1  1  0.19510962  0.16497714  0.84638238  1
  Pr  Pr2  1  0.30489038  0.66497714  0.84638238  1
  Pr  Pr3  1  0.80489038  0.83502286  0.15361762  1
  Pr  Pr4  1  0.15156982  0.19308645  0.39591139  1
  Pr  Pr5  1  0.65156982  0.30691355  0.60408861  1
  Pr  Pr6  1  0.84843018  0.80691355  0.60408861  1
  Pr  Pr7  1  0.34843018  0.69308645  0.39591139  1
  Si  Si0  1  0.69008711  0.05714489  0.37516517  1
  Si  Si1  1  0.19008711  0.44285511  0.62483483  1
  Si  Si2  1  0.30991289  0.94285511  0.62483483  1
  Si  Si3  1  0.80991289  0.55714489  0.37516517  1
  Te  Te0  1  0.21358552  0.38563678  0.09613164  1
  Te  Te1  1  0.71358552  0.11436322  0.90386836  1
  Te  Te2  1  0.78641448  0.61436322  0.90386836  1
  Te  Te3  1  0.28641448  0.88563678  0.09613164  1
  O  O0  1  0.30793959  0.42121578  0.48234084  1
  O  O1  1  0.80793959  0.07878422  0.51765916  1
  O  O2  1  0.69206041  0.57878422  0.51765916  1
  O  O3  1  0.19206041  0.92121578  0.48234084  1
  O  O4  1  0.86697723  0.37741578  0.37488993  1
  O  O5  1  0.36697723  0.12258422  0.62511007  1
  O  O6  1  0.13302277  0.62258422  0.62511007  1
  O  O7  1  0.63302277  0.87741578  0.37488993  1
  O  O8  1  0.51264494  0.18443164  0.34839034  1
  O  O9  1  0.01264494  0.31556836  0.65160966  1
  O  O10  1  0.48735506  0.81556836  0.65160966  1
  O  O11  1  0.98735506  0.68443164  0.34839034  1
  O  O12  1  0.85618355  0.09045801  0.25178351  1
  O  O13  1  0.35618355  0.40954199  0.74821649  1
  O  O14  1  0.14381645  0.90954199  0.74821649  1
  O  O15  1  0.64381645  0.59045801  0.25178351  1
loop_
_geom_bond_atom_site_label_1
_geom_bond_atom_site_label_2
_geom_bond_distance
_geom_bond_site_symmetry_2
Pr0 Te0 3.202142 1_555
Pr0 Te1 3.260847 1_554
Pr0 Te2 3.396445 1_554
Pr0 Te0 3.436704 1_655
Pr1 Te1 3.202142 1_455
Pr1 Te0 3.260847 1_556
Pr1 Te3 3.396445 1_546
Pr1 Te1 3.436704 1_555
Pr2 Te2 3.202142 1_555
Pr2 Te3 3.260847 1_556
Pr2 Te0 3.396445 1_556
Pr2 Te2 3.436704 1_455
Pr3 Te3 3.202142 1_655
Pr3 Te2 3.260847 1_554
Pr3 Te1 3.396445 1_564
Pr3 Te3 3.436704 1_555
Pr4 Te0 3.326857 1_555
Pr5 Te1 3.326857 1_555
Pr6 Te2 3.326857 1_555
Pr7 Te3 3.326857 1_555
O0 Si1 1.630926 1_555
O0 Pr4 2.455285 1_555
O0 Pr7 2.482485 1_555
O0 Pr5 2.692458 1_555
O1 Si0 1.630926 1_555
O1 Pr5 2.455285 1_555
O1 Pr6 2.482485 1_545
O1 Pr4 2.692458 1_655
O2 Si3 1.630926 1_555
O2 Pr6 2.455285 1_555
O2 Pr5 2.482485 1_555
O2 Pr7 2.692458 1_555
O3 Si2 1.630926 1_555
O3 Pr7 2.455285 1_555
O3 Pr4 2.482485 1_565
O3 Pr6 2.692458 1_455
O4 Si3 1.618243 1_555
O4 Pr4 2.452290 1_655
O4 Pr0 2.514954 1_555
O4 Pr5 2.699137 1_555
O5 Si2 1.618243 1_545
O5 Pr5 2.452290 1_555
O5 Pr1 2.514954 1_555
O5 Pr4 2.699137 1_555
O6 Si1 1.618243 1_555
O6 Pr6 2.452290 1_455
O6 Pr2 2.514954 1_555
O6 Pr7 2.699137 1_555
O7 Si0 1.618243 1_565
O7 Pr7 2.452290 1_555
O7 Pr3 2.514954 1_555
O7 Pr6 2.699137 1_555
O8 Si0 1.611091 1_555
O8 Pr4 2.393259 1_555
O8 Pr0 2.545462 1_555
O8 Pr5 2.969686 1_555
O9 Si1 1.611091 1_555
O9 Pr5 2.393259 1_455
O9 Pr1 2.545462 1_555
O9 Pr4 2.969686 1_555
O10 Si2 1.611091 1_555
O10 Pr6 2.393259 1_555
O10 Pr2 2.545462 1_555
O10 Pr7 2.969686 1_555
O11 Si3 1.611091 1_555
O11 Pr7 2.393259 1_655
O11 Pr3 2.545462 1_555
O11 Pr6 2.969686 1_555
O12 Si0 1.639969 1_555
O12 Pr0 2.512009 1_555
O12 Pr3 2.531484 1_545
O12 Pr4 2.593999 1_655
O13 Si1 1.639969 1_555
O13 Pr1 2.512009 1_555
O13 Pr2 2.531484 1_555
O13 Pr5 2.593999 1_555
O14 Si2 1.639969 1_555
O14 Pr2 2.512009 1_555
O14 Pr1 2.531484 1_565
O14 Pr6 2.593999 1_455
O15 Si3 1.639969 1_555
O15 Pr3 2.512009 1_555
O15 Pr0 2.531484 1_555
O15 Pr7 2.593999 1_555
