# generated using pymatgen
data_ThBC
_symmetry_space_group_name_H-M   'P 1'
_cell_length_a   3.78995310
_cell_length_b   3.78995310
_cell_length_c   25.37223003
_cell_angle_alpha   90.00000000
_cell_angle_beta   90.00000000
_cell_angle_gamma   90.00000000
_symmetry_Int_Tables_number   1
_chemical_formula_structural   ThBC
_chemical_formula_sum   'Th8 B8 C8'
_cell_volume   364.44022955
_cell_formula_units_Z   8
loop_
 _symmetry_equiv_pos_site_id
 _symmetry_equiv_pos_as_xyz
  1  'x, y, z'
loop_
 _atom_site_type_symbol
 _atom_site_label
 _atom_site_symmetry_multiplicity
 _atom_site_fract_x
 _atom_site_fract_y
 _atom_site_fract_z
 _atom_site_occupancy
  Th  Th0  1  0.31118511  0.19499507  0.57076365  1
  Th  Th1  1  0.80500493  0.31118511  0.82076365  1
  Th  Th2  1  0.68881489  0.19499507  0.42923635  1
  Th  Th3  1  0.19499507  0.31118511  0.17923635  1
  Th  Th4  1  0.68881489  0.80500493  0.07076365  1
  Th  Th5  1  0.31118511  0.80500493  0.92923635  1
  Th  Th6  1  0.19499507  0.68881489  0.32076365  1
  Th  Th7  1  0.80500493  0.68881489  0.67923635  1
  B  B0  1  0.14936980  0.30183177  0.02307002  1
  B  B1  1  0.30183177  0.14936980  0.72692998  1
  B  B2  1  0.69816823  0.14936980  0.27307002  1
  B  B3  1  0.85063020  0.30183177  0.97692998  1
  B  B4  1  0.14936980  0.69816823  0.47692998  1
  B  B5  1  0.30183177  0.85063020  0.77307002  1
  B  B6  1  0.69816823  0.85063020  0.22692998  1
  B  B7  1  0.85063020  0.69816823  0.52307002  1
  C  C0  1  0.31250598  0.19548341  0.66828920  1
  C  C1  1  0.80451659  0.31250598  0.91828920  1
  C  C2  1  0.19548341  0.31250598  0.08171080  1
  C  C3  1  0.31250598  0.80451659  0.83171080  1
  C  C4  1  0.19548341  0.68749402  0.41828920  1
  C  C5  1  0.80451659  0.68749402  0.58171080  1
  C  C6  1  0.68749402  0.80451659  0.16828920  1
  C  C7  1  0.68749402  0.19548341  0.33171080  1
loop_
_geom_bond_atom_site_label_1
_geom_bond_atom_site_label_2
_geom_bond_distance
_geom_bond_site_symmetry_2
B0 C2 1.498623 1_555
B1 C0 1.498623 1_555
B2 C7 1.498623 1_555
B3 C1 1.498623 1_555
B4 C4 1.498623 1_555
B5 C3 1.498623 1_555
B6 C6 1.498623 1_555
B7 C5 1.498623 1_555
C0 Th0 2.474446 1_555
C0 Th7 2.656490 1_555
C0 Th7 2.692305 1_545
C0 Th7 2.696743 1_455
C0 Th7 2.732031 1_445
C1 Th1 2.474446 1_555
C1 Th5 2.656490 1_555
C1 Th5 2.692305 1_655
C1 Th5 2.696743 1_545
C1 Th5 2.732031 1_645
C2 Th3 2.474446 1_555
C2 Th4 2.656490 1_555
C2 Th4 2.692305 1_455
C2 Th4 2.696743 1_545
C2 Th4 2.732031 1_445
C3 Th5 2.474446 1_555
C3 Th1 2.656490 1_555
C3 Th1 2.692305 1_565
C3 Th1 2.696743 1_455
C3 Th1 2.732031 1_465
C4 Th6 2.474446 1_555
C4 Th2 2.656490 1_555
C4 Th2 2.692305 1_455
C4 Th2 2.696743 1_565
C4 Th2 2.732031 1_465
C5 Th7 2.474446 1_555
C5 Th0 2.656490 1_555
C5 Th0 2.692305 1_655
C5 Th0 2.696743 1_565
C5 Th0 2.732031 1_665
C6 Th4 2.474446 1_555
C6 Th3 2.656490 1_555
C6 Th3 2.692305 1_565
C6 Th3 2.696743 1_655
C6 Th3 2.732031 1_665
C7 Th2 2.474446 1_555
C7 Th6 2.656490 1_555
C7 Th6 2.692305 1_545
C7 Th6 2.696743 1_655
C7 Th6 2.732031 1_645
