# generated using pymatgen
data_LiYSn
_symmetry_space_group_name_H-M   'P 1'
_cell_length_a   9.32270191
_cell_length_b   9.32269011
_cell_length_c   7.38957132
_cell_angle_alpha   90.00002628
_cell_angle_beta   89.99997185
_cell_angle_gamma   119.99944184
_symmetry_Int_Tables_number   1
_chemical_formula_structural   LiYSn
_chemical_formula_sum   'Li8 Y8 Sn8'
_cell_volume   556.20561083
_cell_formula_units_Z   8
loop_
 _symmetry_equiv_pos_site_id
 _symmetry_equiv_pos_as_xyz
  1  'x, y, z'
loop_
 _atom_site_type_symbol
 _atom_site_label
 _atom_site_symmetry_multiplicity
 _atom_site_fract_x
 _atom_site_fract_y
 _atom_site_fract_z
 _atom_site_occupancy
  Li  Li0  1  0.16739108  0.83260931  0.18997721  1
  Li  Li1  1  0.33476885  0.16738717  0.68993720  1
  Li  Li2  1  0.83261249  0.66522991  0.68994107  1
  Li  Li3  1  0.16738735  0.33476935  0.18994093  1
  Li  Li4  1  0.66523032  0.83261208  0.18994098  1
  Li  Li5  1  0.83260971  0.16739051  0.68997368  1
  Li  Li6  1  0.33333130  0.66666793  0.81708609  1
  Li  Li7  1  0.66666759  0.33333229  0.31708907  1
  Y  Y0  1  0.51282333  0.48717695  0.99205432  1
  Y  Y1  1  0.02564519  0.51282113  0.49205635  1
  Y  Y2  1  0.48717964  0.97435622  0.49205804  1
  Y  Y3  1  0.51282139  0.02564439  0.99205674  1
  Y  Y4  1  0.97435633  0.48718038  0.99205690  1
  Y  Y5  1  0.48717727  0.51282230  0.49205462  1
  Y  Y6  1  0.00000054  -0.00000048  0.98570731  1
  Y  Y7  1  -0.00000161  0.00000090  0.48570724  1
  Sn  Sn0  1  0.16667264  0.83332585  0.75707411  1
  Sn  Sn1  1  0.33335063  0.16667638  0.25707647  1
  Sn  Sn2  1  0.83332445  0.66664896  0.25707675  1
  Sn  Sn3  1  0.16667560  0.33335133  0.75707589  1
  Sn  Sn4  1  0.66664938  0.83332399  0.75707640  1
  Sn  Sn5  1  0.83332744  0.16667410  0.25707452  1
  Sn  Sn6  1  0.33333372  0.66666509  0.22495538  1
  Sn  Sn7  1  0.66666637  0.33333497  0.72495471  1
loop_
_geom_bond_atom_site_label_1
_geom_bond_atom_site_label_2
_geom_bond_distance
_geom_bond_site_symmetry_2
Li0 Sn6 2.691982 1_555
Li0 Sn1 2.742383 1_565
Li0 Sn2 2.742383 1_455
Li0 Y6 3.095838 1_564
Li0 Y4 3.154822 1_454
Li0 Y3 3.154835 1_564
Li0 Sn0 3.198989 1_554
Li0 Y1 3.417253 1_555
Li0 Y2 3.417266 1_555
Li0 Y7 3.475842 1_565
Li1 Sn7 2.692120 1_555
Li1 Sn3 2.742338 1_555
Li1 Sn0 2.742388 1_545
Li1 Y7 3.095642 1_555
Li1 Y5 3.154728 1_555
Li1 Y2 3.154746 1_545
Li1 Sn1 3.198676 1_555
Li1 Y0 3.417453 1_555
Li1 Y3 3.417482 1_555
Li1 Y6 3.475948 1_555
Li2 Sn7 2.692093 1_555
Li2 Sn4 2.742332 1_555
Li2 Sn0 2.742377 1_655
Li2 Y7 3.095657 1_665
Li2 Y5 3.154746 1_555
Li2 Y1 3.154764 1_655
Li2 Sn2 3.198702 1_555
Li2 Y0 3.417433 1_555
Li2 Y4 3.417451 1_555
Li2 Y6 3.475935 1_665
Li3 Sn6 2.692100 1_555
Li3 Sn1 2.742325 1_555
Li3 Sn5 2.742376 1_455
Li3 Y6 3.095647 1_554
Li3 Y0 3.154751 1_554
Li3 Y4 3.154766 1_454
Li3 Sn3 3.198708 1_554
Li3 Y5 3.417440 1_555
Li3 Y1 3.417451 1_555
Li3 Y7 3.475929 1_555
Li4 Sn6 2.692110 1_555
Li4 Sn2 2.742334 1_555
Li4 Sn5 2.742389 1_565
Li4 Y6 3.095653 1_664
Li4 Y0 3.154742 1_554
Li4 Y3 3.154762 1_564
Li4 Sn4 3.198704 1_554
Li4 Y5 3.417437 1_555
Li4 Y2 3.417464 1_555
Li4 Y7 3.475929 1_665
Li5 Sn7 2.691992 1_555
Li5 Sn3 2.742381 1_655
Li5 Sn4 2.742384 1_545
Li5 Y7 3.095807 1_655
Li5 Y2 3.154818 1_545
Li5 Y1 3.154825 1_655
Li5 Sn5 3.198960 1_555
Li5 Y3 3.417274 1_555
Li5 Y4 3.417282 1_555
Li5 Y6 3.475845 1_655
Li6 Sn0 2.727382 1_555
Li6 Sn3 2.727401 1_555
Li6 Sn4 2.727415 1_555
Li6 Sn6 3.013979 1_556
Li6 Y4 3.173597 1_455
Li6 Y3 3.173604 1_565
Li6 Y0 3.173626 1_555
Li6 Y1 3.455421 1_555
Li6 Y2 3.455423 1_555
Li6 Y5 3.455444 1_555
Li7 Sn5 2.727396 1_555
Li7 Sn2 2.727404 1_555
Li7 Sn1 2.727410 1_555
Li7 Sn7 3.013952 1_555
Li7 Y5 3.173596 1_555
Li7 Y2 3.173597 1_545
Li7 Y1 3.173607 1_655
Li7 Y3 3.455442 1_554
Li7 Y0 3.455447 1_554
Li7 Y4 3.455448 1_554
Y0 Y5 3.717918 1_555
Y0 Y5 3.717922 1_556
Y1 Y4 3.717914 1_454
Y1 Y4 3.717922 1_455
Y2 Y3 3.717908 1_565
Y2 Y3 3.717927 1_564
Y6 Y7 3.694785 1_556
Y6 Y7 3.694786 1_555
Sn0 Y6 3.177677 1_565
Sn0 Y1 3.250130 1_555
Sn0 Y2 3.250139 1_555
Sn0 Y4 3.295091 1_455
Sn0 Y3 3.295116 1_565
Sn0 Y7 3.356270 1_565
Sn1 Y7 3.177733 1_555
Sn1 Y3 3.250109 1_554
Sn1 Y0 3.250125 1_554
Sn1 Y5 3.295074 1_555
Sn1 Y2 3.295093 1_545
Sn1 Y6 3.356304 1_554
Sn2 Y7 3.177727 1_665
Sn2 Y4 3.250094 1_554
Sn2 Y0 3.250132 1_554
Sn2 Y1 3.295082 1_655
Sn2 Y5 3.295085 1_555
Sn2 Y6 3.356306 1_664
Sn3 Y6 3.177730 1_555
Sn3 Y1 3.250093 1_555
Sn3 Y5 3.250129 1_555
Sn3 Y4 3.295084 1_455
Sn3 Y0 3.295093 1_555
Sn3 Y7 3.356301 1_555
Sn4 Y6 3.177727 1_665
Sn4 Y2 3.250099 1_555
Sn4 Y5 3.250130 1_555
Sn4 Y3 3.295082 1_565
Sn4 Y0 3.295082 1_555
Sn4 Y7 3.356296 1_665
Sn5 Y7 3.177666 1_655
Sn5 Y4 3.250140 1_554
Sn5 Y3 3.250142 1_554
Sn5 Y1 3.295098 1_655
Sn5 Y2 3.295112 1_545
Sn5 Y6 3.356259 1_654
Sn6 Y5 3.172811 1_555
Sn6 Y1 3.172849 1_555
Sn6 Y2 3.172871 1_555
Sn6 Y0 3.370745 1_554
Sn6 Y4 3.370757 1_454
Sn6 Y3 3.370768 1_564
Sn7 Y0 3.172803 1_555
Sn7 Y4 3.172865 1_555
Sn7 Y3 3.172865 1_555
Sn7 Y5 3.370734 1_555
Sn7 Y2 3.370756 1_545
Sn7 Y1 3.370766 1_655
