# generated using pymatgen
data_SrCa(CO3)2
_symmetry_space_group_name_H-M   'P 1'
_cell_length_a   5.31334800
_cell_length_b   6.47241100
_cell_length_c   7.44243100
_cell_angle_alpha   90.00000000
_cell_angle_beta   90.00000000
_cell_angle_gamma   90.00000000
_symmetry_Int_Tables_number   1
_chemical_formula_structural   SrCa(CO3)2
_chemical_formula_sum   'Sr2 Ca2 C4 O12'
_cell_volume   255.94648250
_cell_formula_units_Z   2
loop_
 _symmetry_equiv_pos_site_id
 _symmetry_equiv_pos_as_xyz
  1  'x, y, z'
loop_
 _atom_site_type_symbol
 _atom_site_label
 _atom_site_symmetry_multiplicity
 _atom_site_fract_x
 _atom_site_fract_y
 _atom_site_fract_z
 _atom_site_occupancy
  Sr  Sr0  1  0.00000000  0.11180000  0.25364700  1
  Sr  Sr1  1  0.00000000  0.88820000  0.75364700  1
  Ca  Ca0  1  0.50000000  0.47910700  0.55042300  1
  Ca  Ca1  1  0.50000000  0.52089300  0.05042300  1
  C  C0  1  0.50000000  0.96398000  0.07675100  1
  C  C1  1  0.50000000  0.03602000  0.57675100  1
  C  C2  1  0.00000000  0.58770000  0.33832400  1
  C  C3  1  0.00000000  0.41230000  0.83832400  1
  O  O0  1  0.78938200  0.49336900  0.29689300  1
  O  O1  1  0.28912900  0.86534300  0.05024300  1
  O  O2  1  0.78938200  0.50663100  0.79689300  1
  O  O3  1  0.21061800  0.49336900  0.29689300  1
  O  O4  1  0.00000000  0.75868400  0.42282500  1
  O  O5  1  0.71087100  0.86534300  0.05024300  1
  O  O6  1  0.71087100  0.13465700  0.55024300  1
  O  O7  1  0.50000000  0.15106500  0.13775700  1
  O  O8  1  0.21061800  0.50663100  0.79689300  1
  O  O9  1  0.00000000  0.24131600  0.92282500  1
  O  O10  1  0.50000000  0.84893500  0.63775700  1
  O  O11  1  0.28912900  0.13465700  0.55024300  1
loop_
_geom_bond_atom_site_label_1
_geom_bond_atom_site_label_2
_geom_bond_distance
_geom_bond_site_symmetry_2
Ca0 O2 2.400146 1_555
Ca0 O8 2.400146 1_555
Ca0 O0 2.435777 1_555
Ca0 O3 2.435777 1_555
Ca0 O10 2.480357 1_555
Ca0 O6 2.495133 1_555
Ca0 O11 2.495133 1_555
Ca1 O0 2.400146 1_555
Ca1 O3 2.400146 1_555
Ca1 O2 2.435777 1_554
Ca1 O8 2.435777 1_554
Ca1 O7 2.480357 1_555
Ca1 O5 2.495133 1_555
Ca1 O1 2.495133 1_555
C0 O7 1.293214 1_565
C0 O5 1.304556 1_555
C0 O1 1.304556 1_555
C1 O10 1.293214 1_545
C1 O6 1.304556 1_555
C1 O11 1.304556 1_555
C2 O4 1.272888 1_555
C2 O3 1.311565 1_555
C2 O0 1.311565 1_455
C3 O9 1.272888 1_555
C3 O8 1.311565 1_555
C3 O2 1.311565 1_455
O0 Sr0 2.730425 1_655
O1 Sr0 2.682585 1_565
O1 Sr1 2.693422 1_554
O2 Sr1 2.730425 1_655
O3 Sr0 2.730425 1_555
O4 Sr1 2.600913 1_555
O4 Sr0 2.609384 1_565
O5 Sr0 2.682585 1_665
O5 Sr1 2.693422 1_654
O6 Sr1 2.682585 1_645
O6 Sr0 2.693422 1_655
O7 Sr0 2.804713 1_655
O7 Sr0 2.804713 1_555
O8 Sr1 2.730425 1_555
O9 Sr0 2.600913 1_556
O9 Sr1 2.609384 1_545
O10 Sr1 2.804713 1_655
O10 Sr1 2.804713 1_555
O11 Sr1 2.682585 1_545
O11 Sr0 2.693422 1_555
