# generated using pymatgen
data_Ba6Mg23
_symmetry_space_group_name_H-M   'P 1'
_cell_length_a   10.74371109
_cell_length_b   10.74371125
_cell_length_c   10.74371024
_cell_angle_alpha   60.00000312
_cell_angle_beta   60.00000262
_cell_angle_gamma   60.00000223
_symmetry_Int_Tables_number   1
_chemical_formula_structural   Ba6Mg23
_chemical_formula_sum   'Ba6 Mg23'
_cell_volume   876.89574750
_cell_formula_units_Z   1
loop_
 _symmetry_equiv_pos_site_id
 _symmetry_equiv_pos_as_xyz
  1  'x, y, z'
loop_
 _atom_site_type_symbol
 _atom_site_label
 _atom_site_symmetry_multiplicity
 _atom_site_fract_x
 _atom_site_fract_y
 _atom_site_fract_z
 _atom_site_occupancy
  Ba  Ba0  1  0.78918471  0.21081529  0.78918471  1
  Ba  Ba1  1  0.78918471  0.78918471  0.21081529  1
  Ba  Ba2  1  0.78918471  0.21081529  0.21081529  1
  Ba  Ba3  1  0.21081529  0.21081529  0.78918471  1
  Ba  Ba4  1  0.21081529  0.78918471  0.78918471  1
  Ba  Ba5  1  0.21081529  0.78918471  0.21081529  1
  Mg  Mg0  1  0.37696014  0.86911858  0.37696014  1
  Mg  Mg1  1  0.82252426  0.82252426  0.82252426  1
  Mg  Mg2  1  -0.00000000  0.00000000  0.50000000  1
  Mg  Mg3  1  0.50000000  0.50000000  0.50000000  1
  Mg  Mg4  1  0.17747574  0.46757278  0.17747574  1
  Mg  Mg5  1  0.17747574  0.17747574  0.46757278  1
  Mg  Mg6  1  0.82252426  0.82252426  0.53242722  1
  Mg  Mg7  1  0.37696014  0.37696014  0.86911858  1
  Mg  Mg8  1  0.62303886  0.62303886  0.62303886  1
  Mg  Mg9  1  0.50000000  0.00000000  0.00000000  1
  Mg  Mg10  1  0.86911858  0.37696014  0.37696014  1
  Mg  Mg11  1  0.13088042  0.62303886  0.62303886  1
  Mg  Mg12  1  0.17747574  0.17747574  0.17747574  1
  Mg  Mg13  1  0.82252426  0.53242722  0.82252426  1
  Mg  Mg14  1  0.53242722  0.82252426  0.82252426  1
  Mg  Mg15  1  0.50000000  0.00000000  0.50000000  1
  Mg  Mg16  1  0.37696014  0.37696014  0.37696014  1
  Mg  Mg17  1  0.62303886  0.13088042  0.62303886  1
  Mg  Mg18  1  0.62303886  0.62303886  0.13088042  1
  Mg  Mg19  1  0.50000000  0.50000000  0.00000000  1
  Mg  Mg20  1  0.46757278  0.17747574  0.17747574  1
  Mg  Mg21  1  -0.00000000  0.50000000  0.00000000  1
  Mg  Mg22  1  -0.00000000  0.50000000  0.50000000  1
loop_
_geom_bond_atom_site_label_1
_geom_bond_atom_site_label_2
_geom_bond_distance
_geom_bond_site_symmetry_2
Ba0 Mg8 3.655438 1_555
Ba0 Mg10 3.655445 1_555
Ba0 Mg7 3.655445 1_555
Ba0 Mg17 3.655461 1_555
Ba0 Mg2 3.844851 1_655
Ba0 Mg19 3.844851 1_556
Ba0 Mg9 3.844851 1_556
Ba0 Mg22 3.844851 1_655
Ba0 Mg20 3.846993 1_556
Ba0 Mg13 3.846993 1_555
Ba0 Mg5 3.846993 1_655
Ba0 Mg1 3.846993 1_545
Ba1 Mg8 3.655438 1_555
Ba1 Mg0 3.655445 1_555
Ba1 Mg10 3.655445 1_555
Ba1 Mg18 3.655461 1_555
Ba1 Mg15 3.844851 1_565
Ba1 Mg9 3.844851 1_565
Ba1 Mg21 3.844851 1_655
Ba1 Mg22 3.844851 1_655
Ba1 Mg6 3.846993 1_555
Ba1 Mg1 3.846993 1_554
Ba1 Mg4 3.846993 1_655
Ba1 Mg20 3.846993 1_565
Ba2 Mg17 3.655434 1_555
Ba2 Mg18 3.655434 1_555
Ba2 Mg10 3.655435 1_555
Ba2 Mg16 3.655443 1_555
Ba2 Mg2 3.844851 1_655
Ba2 Mg19 3.844851 1_555
Ba2 Mg15 3.844851 1_555
Ba2 Mg21 3.844851 1_655
Ba2 Mg20 3.846993 1_555
Ba2 Mg13 3.846993 1_554
Ba2 Mg12 3.846993 1_655
Ba2 Mg6 3.846993 1_545
Ba3 Mg17 3.655434 1_555
Ba3 Mg11 3.655434 1_555
Ba3 Mg7 3.655435 1_555
Ba3 Mg16 3.655443 1_555
Ba3 Mg9 3.844851 1_556
Ba3 Mg15 3.844851 1_555
Ba3 Mg21 3.844851 1_556
Ba3 Mg22 3.844851 1_555
Ba3 Mg12 3.846993 1_556
Ba3 Mg5 3.846993 1_555
Ba3 Mg13 3.846993 1_455
Ba3 Mg14 3.846993 1_545
Ba4 Mg8 3.655438 1_555
Ba4 Mg0 3.655444 1_555
Ba4 Mg7 3.655445 1_555
Ba4 Mg11 3.655461 1_555
Ba4 Mg2 3.844851 1_565
Ba4 Mg19 3.844851 1_556
Ba4 Mg15 3.844851 1_565
Ba4 Mg21 3.844851 1_556
Ba4 Mg14 3.846993 1_555
Ba4 Mg4 3.846993 1_556
Ba4 Mg1 3.846993 1_455
Ba4 Mg5 3.846993 1_565
Ba5 Mg11 3.655434 1_555
Ba5 Mg18 3.655434 1_555
Ba5 Mg0 3.655435 1_555
Ba5 Mg16 3.655443 1_555
Ba5 Mg2 3.844851 1_565
Ba5 Mg19 3.844851 1_555
Ba5 Mg9 3.844851 1_565
Ba5 Mg22 3.844851 1_555
Ba5 Mg14 3.846993 1_554
Ba5 Mg4 3.846993 1_555
Ba5 Mg6 3.846993 1_455
Ba5 Mg12 3.846993 1_565
Mg0 Mg3 3.237983 1_555
Mg0 Mg12 3.248820 1_565
Mg0 Mg5 3.248825 1_565
Mg0 Mg20 3.248825 1_565
Mg0 Mg9 3.307129 1_565
Mg0 Mg2 3.307129 1_565
Mg0 Mg15 3.307137 1_565
Mg1 Mg2 3.114460 1_665
Mg1 Mg9 3.114460 1_566
Mg1 Mg21 3.114460 1_656
Mg1 Mg6 3.116719 1_555
Mg1 Mg14 3.116719 1_555
Mg1 Mg13 3.116719 1_555
Mg1 Mg11 3.248826 1_655
Mg1 Mg17 3.248826 1_565
Mg1 Mg18 3.248826 1_556
Mg2 Mg5 3.114460 1_555
Mg2 Mg6 3.114460 1_445
Mg3 Mg8 3.237966 1_555
Mg3 Mg7 3.237983 1_555
Mg4 Mg5 3.116719 1_555
Mg4 Mg7 3.248825 1_554
Mg6 Mg8 3.248838 1_555
Mg7 Mg9 3.307129 1_556
Mg10 Mg3 3.237983 1_555
Mg10 Mg12 3.248820 1_655
Mg10 Mg5 3.248825 1_655
Mg10 Mg4 3.248825 1_655
Mg10 Mg21 3.307129 1_655
Mg10 Mg2 3.307129 1_655
Mg10 Mg22 3.307137 1_655
Mg11 Mg3 3.237992 1_555
Mg11 Mg6 3.248811 1_455
Mg11 Mg13 3.248811 1_455
Mg11 Mg22 3.307111 1_555
Mg11 Mg21 3.307137 1_556
Mg11 Mg2 3.307138 1_565
Mg12 Mg2 3.114460 1_555
Mg12 Mg9 3.114460 1_555
Mg12 Mg21 3.114460 1_555
Mg12 Mg5 3.116719 1_555
Mg12 Mg20 3.116719 1_555
Mg12 Mg4 3.116719 1_555
Mg12 Mg7 3.248820 1_554
Mg13 Mg21 3.114460 1_656
Mg13 Mg22 3.114460 1_655
Mg13 Mg19 3.114460 1_556
Mg13 Mg6 3.116719 1_555
Mg13 Mg14 3.116719 1_555
Mg13 Mg18 3.248810 1_556
Mg13 Mg8 3.248837 1_555
Mg14 Mg9 3.114460 1_566
Mg14 Mg15 3.114460 1_565
Mg14 Mg19 3.114460 1_556
Mg14 Mg6 3.116719 1_555
Mg14 Mg18 3.248810 1_556
Mg14 Mg17 3.248811 1_565
Mg14 Mg8 3.248837 1_555
Mg15 Mg20 3.114460 1_555
Mg15 Mg6 3.114460 1_545
Mg15 Mg5 3.114460 1_555
Mg15 Mg17 3.307111 1_555
Mg15 Mg16 3.307129 1_555
Mg15 Mg8 3.307138 1_545
Mg16 Mg3 3.237992 1_555
Mg16 Mg4 3.248816 1_555
Mg16 Mg20 3.248816 1_555
Mg16 Mg5 3.248816 1_555
Mg16 Mg19 3.307128 1_555
Mg16 Mg22 3.307129 1_555
Mg17 Mg3 3.237992 1_555
Mg17 Mg6 3.248811 1_545
Mg17 Mg9 3.307137 1_556
Mg17 Mg2 3.307137 1_655
Mg18 Mg3 3.237992 1_555
Mg18 Mg19 3.307111 1_555
Mg18 Mg21 3.307137 1_655
Mg18 Mg9 3.307138 1_565
Mg19 Mg4 3.114460 1_555
Mg19 Mg20 3.114460 1_555
Mg19 Mg7 3.307137 1_554
Mg19 Mg8 3.307138 1_554
Mg20 Mg9 3.114460 1_555
Mg20 Mg5 3.116719 1_555
Mg20 Mg4 3.116719 1_555
Mg20 Mg7 3.248825 1_554
Mg21 Mg4 3.114460 1_555
Mg21 Mg7 3.307129 1_554
Mg22 Mg4 3.114460 1_555
Mg22 Mg5 3.114460 1_555
Mg22 Mg6 3.114460 1_455
Mg22 Mg8 3.307138 1_455
