# generated using pymatgen
data_Ca12Al14O33
_symmetry_space_group_name_H-M   'P 1'
_cell_length_a   10.44952100
_cell_length_b   10.46028919
_cell_length_c   10.46896361
_cell_angle_alpha   109.32709100
_cell_angle_beta   109.91832318
_cell_angle_gamma   109.09723593
_symmetry_Int_Tables_number   1
_chemical_formula_structural   Ca12Al14O33
_chemical_formula_sum   'Ca12 Al14 O33'
_cell_volume   881.62534184
_cell_formula_units_Z   1
loop_
 _symmetry_equiv_pos_site_id
 _symmetry_equiv_pos_as_xyz
  1  'x, y, z'
loop_
 _atom_site_type_symbol
 _atom_site_label
 _atom_site_symmetry_multiplicity
 _atom_site_fract_x
 _atom_site_fract_y
 _atom_site_fract_z
 _atom_site_occupancy
  Ca  Ca0  1  0.45553100  0.74650000  0.69914000  1
  Ca  Ca1  1  0.75582800  0.61135700  0.36205300  1
  Ca  Ca2  1  0.13634300  0.39189400  0.25093300  1
  Ca  Ca3  1  0.75059600  0.13499600  0.88574900  1
  Ca  Ca4  1  0.36153700  0.10732100  0.74655900  1
  Ca  Ca5  1  0.80353400  0.74674400  0.05192600  1
  Ca  Ca6  1  0.24910400  0.88408900  0.14055500  1
  Ca  Ca7  1  0.61374400  0.86299600  0.25072700  1
  Ca  Ca8  1  0.11056800  0.24682700  0.85907500  1
  Ca  Ca9  1  0.87674300  0.64453600  0.75745600  1
  Ca  Ca10  1  0.64080200  0.25181600  0.39225100  1
  Ca  Ca11  1  0.25621400  0.36596800  0.61464500  1
  Al  Al0  1  0.37394400  0.24821300  0.12595900  1
  Al  Al1  1  0.12509200  0.74853900  0.37510500  1
  Al  Al2  1  0.75109400  0.87437900  0.62293900  1
  Al  Al3  1  0.46078700  0.46051100  0.96489900  1
  Al  Al4  1  0.00182900  0.03730600  0.00203200  1
  Al  Al5  1  0.00113300  0.53602500  0.00109700  1
  Al  Al6  1  0.96617800  0.96374000  0.46095700  1
  Al  Al7  1  0.62487000  0.37506800  0.75158600  1
  Al  Al8  1  0.49798500  0.99645000  0.53531400  1
  Al  Al9  1  0.24845500  0.62454300  0.87411900  1
  Al  Al10  1  0.53693700  0.49973400  0.49985200  1
  Al  Al11  1  0.03845000  0.50241400  0.50310800  1
  Al  Al12  1  0.87684800  0.12666600  0.25207500  1
  Al  Al13  1  0.50098900  0.00173600  0.03861500  1
  O  O0  1  0.70587400  0.68118400  0.57236100  1
  O  O1  1  0.87155600  0.49851700  0.50808400  1
  O  O2  1  0.52425500  0.40144900  0.31395500  1
  O  O3  1  0.36109500  0.48533700  0.48422400  1
  O  O4  1  0.09409800  0.58107300  0.39289100  1
  O  O5  1  0.98439700  0.79503600  0.39916800  1
  O  O6  1  0.59539000  0.90745300  0.61739000  1
  O  O7  1  0.31062100  0.91466700  0.51561000  1
  O  O8  1  0.91365000  0.12155100  0.09876300  1
  O  O9  1  0.38022800  0.28794700  0.97708000  1
  O  O10  1  0.50826400  0.01162900  0.87865700  1
  O  O11  1  0.18585700  0.21021700  0.09294600  1
  O  O12  1  0.10878600  0.70143400  0.19031100  1
  O  O13  1  0.79688300  0.89685600  0.48202200  1
  O  O14  1  0.99682100  0.36417100  0.99133100  1
  O  O15  1  0.90925000  0.01853100  0.81310100  1
  O  O16  1  0.47692900  0.37450700  0.79611400  1
  O  O17  1  0.81422700  0.52025000  0.90867400  1
  O  O18  1  0.59608800  0.18570900  0.70592100  1
  O  O19  1  0.01556700  0.87755200  0.00571800  1
  O  O20  1  0.62145100  0.62606300  0.13590100  1
  O  O21  1  0.09036300  0.61361200  0.90417200  1
  O  O22  1  0.88270500  0.97556200  0.28782400  1
  O  O23  1  0.28946700  0.47655300  0.88516700  1
  O  O24  1  0.40477800  0.81429300  0.02038200  1
  O  O25  1  0.61309500  0.40434100  0.59261600  1
  O  O26  1  0.13104600  0.13376200  0.62760500  1
  O  O27  1  0.50464200  0.99929400  0.37131600  1
  O  O28  1  0.21331900  0.59256800  0.68683600  1
  O  O29  1  0.64039100  0.72115400  0.84034300  1
  O  O30  1  0.02170100  0.31343500  0.41203200  1
  O  O31  1  0.68741900  0.09471300  0.21088300  1
  O  O32  1  0.40549200  0.09111300  0.11581300  1
loop_
_geom_bond_atom_site_label_1
_geom_bond_atom_site_label_2
_geom_bond_distance
_geom_bond_site_symmetry_2
Ca0 O29 2.153106 1_555
Ca0 O6 2.428751 1_555
Ca0 O28 2.447264 1_555
Ca0 O3 2.480669 1_555
Ca0 O10 2.524163 1_565
Ca1 O5 2.327632 1_555
Ca1 O0 2.370987 1_555
Ca1 O20 2.391240 1_555
Ca1 O2 2.427238 1_555
Ca1 O1 2.462027 1_555
Ca1 O13 2.644216 1_555
Ca2 O4 2.321939 1_555
Ca2 O3 2.333565 1_555
Ca2 O11 2.400149 1_555
Ca2 O14 2.469376 1_454
Ca2 O8 2.477097 1_455
Ca2 O30 2.569543 1_555
Ca3 O18 2.362794 1_555
Ca3 O8 2.381467 1_556
Ca3 O10 2.398610 1_555
Ca3 O14 2.420922 1_555
Ca3 O6 2.476240 1_545
Ca3 O15 2.525564 1_555
Ca4 O7 2.320928 1_545
Ca4 O10 2.396037 1_555
Ca4 O9 2.418940 1_555
Ca4 O16 2.437850 1_555
Ca4 O26 2.459373 1_555
Ca4 O18 2.546924 1_555
Ca5 O29 2.149503 1_554
Ca5 O17 2.410436 1_554
Ca5 O22 2.431425 1_555
Ca5 O19 2.489979 1_655
Ca5 O20 2.507841 1_555
Ca6 O12 2.327609 1_555
Ca6 O19 2.330745 1_555
Ca6 O32 2.402337 1_565
Ca6 O27 2.447590 1_555
Ca6 O24 2.515076 1_555
Ca6 O21 2.525474 1_554
Ca7 O13 2.341464 1_555
Ca7 O24 2.390378 1_555
Ca7 O27 2.403960 1_555
Ca7 O20 2.412150 1_555
Ca7 O22 2.494881 1_555
Ca7 O31 2.511700 1_565
Ca8 O23 2.371047 1_555
Ca8 O15 2.371070 1_455
Ca8 O14 2.405728 1_455
Ca8 O26 2.436918 1_555
Ca8 O9 2.476813 1_555
Ca8 O11 2.503100 1_556
Ca9 O0 2.381600 1_555
Ca9 O19 2.392611 1_656
Ca9 O21 2.431437 1_655
Ca9 O17 2.476764 1_555
Ca9 O25 2.498405 1_555
Ca9 O1 2.522192 1_555
Ca10 O25 2.351622 1_555
Ca10 O31 2.373121 1_555
Ca10 O1 2.410135 1_555
Ca10 O27 2.448430 1_545
Ca10 O2 2.453830 1_555
Ca10 O32 2.544367 1_555
Ca11 O30 2.368977 1_555
Ca11 O16 2.388291 1_555
Ca11 O3 2.424267 1_555
Ca11 O26 2.426755 1_555
Ca11 O28 2.476022 1_555
Ca11 O23 2.525376 1_555
Al0 O2 1.751562 1_555
Al0 O11 1.753679 1_555
Al0 O32 1.755914 1_555
Al0 O9 1.756984 1_554
Al1 O4 1.758955 1_555
Al1 O5 1.760863 1_455
Al1 O7 1.761393 1_555
Al1 O12 1.761815 1_555
Al2 O0 1.756125 1_555
Al2 O6 1.757136 1_555
Al2 O13 1.759979 1_555
Al2 O15 1.763195 1_565
Al3 O20 1.737818 1_556
Al3 O23 1.789100 1_555
Al3 O16 1.791714 1_555
Al3 O9 1.792873 1_555
Al4 O19 1.735069 1_545
Al4 O15 1.789244 1_454
Al4 O11 1.792418 1_555
Al4 O8 1.796526 1_455
Al5 O14 1.751059 1_454
Al5 O12 1.767049 1_555
Al5 O17 1.781510 1_454
Al5 O21 1.803406 1_554
Al6 O26 1.751609 1_665
Al6 O5 1.765494 1_555
Al6 O22 1.789716 1_555
Al6 O13 1.796032 1_555
Al7 O17 1.757685 1_555
Al7 O16 1.759000 1_555
Al7 O25 1.760987 1_555
Al7 O18 1.768559 1_555
Al8 O27 1.751360 1_555
Al8 O7 1.766258 1_555
Al8 O6 1.787325 1_555
Al8 O18 1.801165 1_565
Al9 O28 1.756684 1_555
Al9 O21 1.759395 1_555
Al9 O23 1.764154 1_555
Al9 O24 1.764944 1_556
Al10 O3 1.738825 1_555
Al10 O25 1.790691 1_555
Al10 O0 1.798848 1_555
Al10 O2 1.809079 1_555
Al11 O1 1.750020 1_455
Al11 O4 1.766078 1_555
Al11 O28 1.790243 1_555
Al11 O30 1.805465 1_555
Al12 O22 1.755372 1_545
Al12 O30 1.756292 1_655
Al12 O8 1.761820 1_555
Al12 O31 1.762366 1_555
Al13 O10 1.736967 1_554
Al13 O32 1.784056 1_555
Al13 O31 1.788539 1_555
Al13 O24 1.795332 1_545
