# generated using pymatgen
data_RbAg(NO3)2
_symmetry_space_group_name_H-M   'P 1'
_cell_length_a   5.13311100
_cell_length_b   8.53448000
_cell_length_c   14.64608543
_cell_angle_alpha   81.80364233
_cell_angle_beta   90.00000000
_cell_angle_gamma   90.00000000
_symmetry_Int_Tables_number   1
_chemical_formula_structural   RbAg(NO3)2
_chemical_formula_sum   'Rb4 Ag4 N8 O24'
_cell_volume   635.06807524
_cell_formula_units_Z   4
loop_
 _symmetry_equiv_pos_site_id
 _symmetry_equiv_pos_as_xyz
  1  'x, y, z'
loop_
 _atom_site_type_symbol
 _atom_site_label
 _atom_site_symmetry_multiplicity
 _atom_site_fract_x
 _atom_site_fract_y
 _atom_site_fract_z
 _atom_site_occupancy
  Rb  Rb0  1  0.95282500  0.73370500  0.06172200  1
  Rb  Rb1  1  0.45282500  0.26629500  0.43827800  1
  Rb  Rb2  1  0.54717500  0.73370500  0.56172200  1
  Rb  Rb3  1  0.04717500  0.26629500  0.93827800  1
  Ag  Ag0  1  0.07078100  0.80746600  0.77953500  1
  Ag  Ag1  1  0.57078100  0.19253400  0.72046500  1
  Ag  Ag2  1  0.92921900  0.19253400  0.22046500  1
  Ag  Ag3  1  0.42921900  0.80746600  0.27953500  1
  N  N0  1  0.86685100  0.56865600  0.33338300  1
  N  N1  1  0.53105700  0.94049200  0.89516200  1
  N  N2  1  0.13314900  0.43134400  0.66661700  1
  N  N3  1  0.36685100  0.43134400  0.16661700  1
  N  N4  1  0.03105700  0.05950800  0.60483800  1
  N  N5  1  0.63314900  0.56865600  0.83338300  1
  N  N6  1  0.96894300  0.94049200  0.39516200  1
  N  N7  1  0.46894300  0.05950800  0.10483800  1
  O  O0  1  0.73348100  0.98377100  0.38875500  1
  O  O1  1  0.13923500  0.40838100  0.13318200  1
  O  O2  1  0.86076500  0.59161900  0.86681800  1
  O  O3  1  0.52016500  0.43933300  0.85869800  1
  O  O4  1  0.95681300  0.16880400  0.54381500  1
  O  O5  1  0.76651900  0.98377100  0.88875500  1
  O  O6  1  0.63641200  0.99012700  0.16308400  1
  O  O7  1  0.47983500  0.56066700  0.14130200  1
  O  O8  1  0.63923500  0.59161900  0.36681800  1
  O  O9  1  0.26651900  0.01622900  0.61124500  1
  O  O10  1  0.46738800  0.32349900  0.22414900  1
  O  O11  1  0.54318700  0.16880400  0.04381500  1
  O  O12  1  0.36076500  0.40838100  0.63318200  1
  O  O13  1  0.96738800  0.67650100  0.27585100  1
  O  O14  1  0.13641200  0.00987300  0.33691600  1
  O  O15  1  0.97983500  0.43933300  0.35869800  1
  O  O16  1  0.04318700  0.83119600  0.45618500  1
  O  O17  1  0.03261200  0.32349900  0.72414900  1
  O  O18  1  0.02016500  0.56066700  0.64130200  1
  O  O19  1  0.86358800  0.99012700  0.66308400  1
  O  O20  1  0.45681300  0.83119600  0.95618500  1
  O  O21  1  0.53261200  0.67650100  0.77585100  1
  O  O22  1  0.36358800  0.00987300  0.83691600  1
  O  O23  1  0.23348100  0.01622900  0.11124500  1
loop_
_geom_bond_atom_site_label_1
_geom_bond_atom_site_label_2
_geom_bond_distance
_geom_bond_site_symmetry_2
Ag0 O2 2.349123 1_455
Ag0 O19 2.390009 1_455
Ag0 O22 2.522560 1_565
Ag0 O21 2.624745 1_555
Ag1 O12 2.349123 1_555
Ag1 O22 2.390009 1_555
Ag1 O19 2.522560 1_545
Ag1 O17 2.624745 1_655
Ag2 O1 2.349123 1_655
Ag2 O14 2.390009 1_655
Ag2 O6 2.522560 1_545
Ag2 O10 2.624745 1_555
Ag3 O8 2.349123 1_555
Ag3 O6 2.390009 1_555
Ag3 O14 2.522560 1_565
Ag3 O13 2.624745 1_455
N0 O15 1.255111 1_555
N0 O13 1.265834 1_555
N0 O8 1.292547 1_555
N1 O20 1.255550 1_555
N1 O5 1.263405 1_555
N1 O22 1.293562 1_565
N2 O18 1.255111 1_555
N2 O17 1.265834 1_555
N2 O12 1.292547 1_555
N3 O7 1.255111 1_555
N3 O10 1.265834 1_555
N3 O1 1.292547 1_555
N4 O4 1.255550 1_455
N4 O9 1.263405 1_555
N4 O19 1.293562 1_445
N5 O3 1.255111 1_555
N5 O21 1.265834 1_555
N5 O2 1.292547 1_555
N6 O16 1.255550 1_655
N6 O0 1.263405 1_555
N6 O14 1.293562 1_665
N7 O11 1.255550 1_555
N7 O23 1.263405 1_555
N7 O6 1.293562 1_545
O0 Rb1 2.985641 1_565
O0 Rb2 3.216410 1_555
O1 Rb0 2.981813 1_455
O1 Rb3 3.290807 1_554
O2 Rb3 2.981813 1_655
O2 Rb0 3.290807 1_556
O3 Rb3 2.990542 1_555
O3 Rb3 3.219737 1_655
O4 Rb1 3.032710 1_655
O4 Rb1 3.067162 1_555
O5 Rb3 2.985641 1_665
O5 Rb0 3.216410 1_556
O6 Rb0 3.249223 1_555
O7 Rb0 2.990542 1_555
O7 Rb0 3.219737 1_455
O8 Rb1 2.981813 1_555
O8 Rb2 3.290807 1_555
O9 Rb2 2.985641 1_545
O9 Rb1 3.216410 1_555
O10 Rb1 3.105289 1_555
O11 Rb3 3.032710 1_554
O11 Rb3 3.067162 1_654
O12 Rb2 2.981813 1_555
O12 Rb1 3.290807 1_555
O13 Rb0 3.105289 1_555
O14 Rb1 3.249223 1_555
O15 Rb1 2.990542 1_655
O15 Rb1 3.219737 1_555
O16 Rb2 3.032710 1_455
O16 Rb2 3.067162 1_555
O17 Rb3 3.105289 1_555
O18 Rb2 2.990542 1_455
O18 Rb2 3.219737 1_555
O19 Rb2 3.249223 1_555
O20 Rb0 3.032710 1_556
O20 Rb0 3.067162 1_456
O21 Rb2 3.105289 1_555
O22 Rb3 3.249223 1_555
O23 Rb0 2.985641 1_445
O23 Rb3 3.216410 1_554
