# generated using pymatgen
data_YMn2
_symmetry_space_group_name_H-M   'P 1'
_cell_length_a   5.12041193
_cell_length_b   5.12041193
_cell_length_c   5.12041193
_cell_angle_alpha   60.00000000
_cell_angle_beta   60.00000000
_cell_angle_gamma   60.00000000
_symmetry_Int_Tables_number   1
_chemical_formula_structural   YMn2
_chemical_formula_sum   'Y2 Mn4'
_cell_volume   94.92917468
_cell_formula_units_Z   2
loop_
 _symmetry_equiv_pos_site_id
 _symmetry_equiv_pos_as_xyz
  1  'x, y, z'
loop_
 _atom_site_type_symbol
 _atom_site_label
 _atom_site_symmetry_multiplicity
 _atom_site_fract_x
 _atom_site_fract_y
 _atom_site_fract_z
 _atom_site_occupancy
  Y  Y0  1  0.75000000  0.75000000  0.75000000  1
  Y  Y1  1  0.00000000  0.00000000  0.00000000  1
  Mn  Mn0  1  0.37500000  0.37500000  0.37500000  1
  Mn  Mn1  1  0.37500000  0.37500000  0.87500000  1
  Mn  Mn2  1  0.37500000  0.87500000  0.37500000  1
  Mn  Mn3  1  0.87500000  0.37500000  0.37500000  1
loop_
_geom_bond_atom_site_label_1
_geom_bond_atom_site_label_2
_geom_bond_distance
_geom_bond_site_symmetry_2
Y0 Y1 3.135599 1_666
Y0 Y1 3.135599 1_656
Y0 Y1 3.135599 1_566
Y0 Y1 3.135599 1_665
Mn0 Mn3 2.560206 1_455
Mn0 Mn1 2.560206 1_554
Mn0 Mn3 2.560206 1_555
Mn0 Mn2 2.560206 1_545
Mn0 Mn1 2.560206 1_555
Mn0 Mn2 2.560206 1_555
Mn0 Y1 3.002108 1_565
Mn0 Y0 3.002108 1_554
Mn0 Y0 3.002108 1_455
Mn0 Y1 3.002108 1_655
Mn0 Y1 3.002108 1_556
Mn0 Y0 3.002108 1_545
Mn1 Mn3 2.560206 1_456
Mn1 Mn2 2.560206 1_546
Mn1 Mn3 2.560206 1_555
Mn1 Mn2 2.560206 1_555
Mn1 Y0 3.002108 1_455
Mn1 Y1 3.002108 1_566
Mn1 Y0 3.002108 1_555
Mn1 Y1 3.002108 1_556
Mn1 Y0 3.002108 1_545
Mn1 Y1 3.002108 1_656
Mn2 Mn3 2.560206 1_555
Mn2 Mn3 2.560206 1_465
Mn2 Y0 3.002108 1_554
Mn2 Y1 3.002108 1_665
Mn2 Y0 3.002108 1_455
Mn2 Y0 3.002108 1_555
Mn2 Y1 3.002108 1_565
Mn2 Y1 3.002108 1_566
Mn3 Y0 3.002108 1_554
Mn3 Y1 3.002108 1_665
Mn3 Y1 3.002108 1_655
Mn3 Y0 3.002108 1_555
Mn3 Y0 3.002108 1_545
Mn3 Y1 3.002108 1_656
