# generated using pymatgen
data_Ce4In8Ni7
_symmetry_space_group_name_H-M   'P 1'
_cell_length_a   4.40930500
_cell_length_b   13.99196186
_cell_length_c   13.99196171
_cell_angle_alpha   117.57479010
_cell_angle_beta   90.00000000
_cell_angle_gamma   90.00000000
_symmetry_Int_Tables_number   1
_chemical_formula_structural   Ce4In8Ni7
_chemical_formula_sum   'Ce8 In16 Ni14'
_cell_volume   765.17488335
_cell_formula_units_Z   2
loop_
 _symmetry_equiv_pos_site_id
 _symmetry_equiv_pos_as_xyz
  1  'x, y, z'
loop_
 _atom_site_type_symbol
 _atom_site_label
 _atom_site_symmetry_multiplicity
 _atom_site_fract_x
 _atom_site_fract_y
 _atom_site_fract_z
 _atom_site_occupancy
  Ce  Ce0  1  0.00000000  0.99717100  0.34736700  1
  Ce  Ce1  1  0.50000000  0.39636300  0.60363700  1
  Ce  Ce2  1  0.00000000  0.65263300  0.00282900  1
  Ce  Ce3  1  0.00000000  0.80949300  0.80949300  1
  Ce  Ce4  1  0.00000000  0.00282900  0.65263300  1
  Ce  Ce5  1  0.50000000  0.60363700  0.39636300  1
  Ce  Ce6  1  0.00000000  0.34736700  0.99717100  1
  Ce  Ce7  1  0.00000000  0.19050700  0.19050700  1
  In  In0  1  0.50000000  0.18101600  0.37018500  1
  In  In1  1  0.50000000  0.87763000  0.44153300  1
  In  In2  1  0.00000000  0.72097200  0.27902800  1
  In  In3  1  0.00000000  0.91522300  0.08477700  1
  In  In4  1  0.50000000  0.44153300  0.87763000  1
  In  In5  1  0.50000000  0.37018500  0.18101600  1
  In  In6  1  0.50000000  0.62981500  0.81898400  1
  In  In7  1  0.50000000  0.80908200  0.19091800  1
  In  In8  1  0.50000000  0.12237000  0.55846700  1
  In  In9  1  0.50000000  0.81898400  0.62981500  1
  In  In10  1  0.00000000  0.27902800  0.72097200  1
  In  In11  1  0.00000000  0.08477700  0.91522300  1
  In  In12  1  0.50000000  0.00000000  0.00000000  1
  In  In13  1  0.50000000  0.19091800  0.80908200  1
  In  In14  1  0.50000000  0.55846700  0.12237000  1
  In  In15  1  0.00000000  0.50000000  0.50000000  1
  Ni  Ni0  1  0.00000000  0.40347800  0.29639600  1
  Ni  Ni1  1  0.50000000  0.61706500  0.61706500  1
  Ni  Ni2  1  0.00000000  0.29639600  0.40347800  1
  Ni  Ni3  1  0.00000000  0.51006600  0.20100800  1
  Ni  Ni4  1  0.00000000  0.48993400  0.79899200  1
  Ni  Ni5  1  0.50000000  0.19371700  0.00115500  1
  Ni  Ni6  1  0.50000000  0.38293500  0.38293500  1
  Ni  Ni7  1  0.50000000  0.99884500  0.80628300  1
  Ni  Ni8  1  0.50000000  0.80628300  0.99884500  1
  Ni  Ni9  1  0.50000000  0.00115500  0.19371700  1
  Ni  Ni10  1  0.00000000  0.79899200  0.48993400  1
  Ni  Ni11  1  0.00000000  0.20100800  0.51006600  1
  Ni  Ni12  1  0.00000000  0.70360400  0.59652200  1
  Ni  Ni13  1  0.00000000  0.59652200  0.70360400  1
loop_
_geom_bond_atom_site_label_1
_geom_bond_atom_site_label_2
_geom_bond_distance
_geom_bond_site_symmetry_2
Ce0 Ni11 2.702905 1_565
Ce0 Ni9 3.097817 1_565
Ce0 Ni9 3.097817 1_465
Ce0 In0 3.289237 1_565
Ce0 In0 3.289237 1_465
Ce0 In3 3.303605 1_555
Ce0 In7 3.353329 1_455
Ce0 In7 3.353329 1_555
Ce0 In1 3.381478 1_555
Ce0 In1 3.381478 1_455
Ce0 In8 3.444302 1_565
Ce0 In8 3.444302 1_465
Ce0 In2 3.525343 1_555
Ce1 Ni6 3.005699 1_555
Ce1 Ni1 3.005699 1_555
Ce1 In0 3.261377 1_555
Ce1 In6 3.261377 1_555
Ce1 Ni4 3.276110 1_555
Ce1 Ni4 3.276110 1_655
Ce1 Ni11 3.276110 1_555
Ce1 Ni11 3.276110 1_655
Ce1 In15 3.318544 1_555
Ce1 In15 3.318544 1_655
Ce1 Ni2 3.321702 1_655
Ce1 Ni2 3.321702 1_555
Ce1 Ni13 3.321702 1_655
Ce1 Ni13 3.321702 1_555
Ce1 In10 3.570228 1_655
Ce1 In10 3.570228 1_555
Ce1 In4 3.585176 1_555
Ce1 In8 3.585176 1_555
Ce2 Ni4 2.702905 1_554
Ce2 Ni8 3.097817 1_554
Ce2 Ni8 3.097817 1_454
Ce2 In6 3.289237 1_554
Ce2 In6 3.289237 1_454
Ce2 In3 3.303605 1_555
Ce2 In7 3.353329 1_455
Ce2 In7 3.353329 1_555
Ce2 In14 3.381478 1_455
Ce2 In14 3.381478 1_555
Ce2 In4 3.444302 1_454
Ce2 In4 3.444302 1_554
Ce2 In2 3.525343 1_555
Ce3 Ni12 2.643365 1_555
Ce3 Ni13 2.643365 1_555
Ce3 In9 3.392293 1_455
Ce3 In9 3.392293 1_555
Ce3 In6 3.392294 1_455
Ce3 In6 3.392294 1_555
Ce3 In3 3.427706 1_556
Ce3 In11 3.427706 1_565
Ce3 Ni8 3.462951 1_555
Ce3 Ni8 3.462951 1_455
Ce3 Ni7 3.462951 1_555
Ce3 Ni7 3.462951 1_455
Ce3 In12 3.534524 1_466
Ce3 In12 3.534524 1_566
Ce4 Ni10 2.702905 1_545
Ce4 Ni7 3.097817 1_445
Ce4 Ni7 3.097817 1_545
Ce4 In9 3.289237 1_545
Ce4 In9 3.289237 1_445
Ce4 In11 3.303605 1_555
Ce4 In13 3.353329 1_455
Ce4 In13 3.353329 1_555
Ce4 In8 3.381478 1_555
Ce4 In8 3.381478 1_455
Ce4 In1 3.444302 1_545
Ce4 In1 3.444302 1_445
Ce4 In10 3.525343 1_555
Ce5 Ni1 3.005699 1_555
Ce5 Ni6 3.005699 1_555
Ce5 In9 3.261377 1_555
Ce5 In5 3.261377 1_555
Ce5 Ni3 3.276110 1_555
Ce5 Ni3 3.276110 1_655
Ce5 Ni10 3.276110 1_555
Ce5 Ni10 3.276110 1_655
Ce5 In15 3.318544 1_555
Ce5 In15 3.318544 1_655
Ce5 Ni12 3.321702 1_555
Ce5 Ni12 3.321702 1_655
Ce5 Ni0 3.321702 1_555
Ce5 Ni0 3.321702 1_655
Ce5 In2 3.570228 1_555
Ce5 In2 3.570228 1_655
Ce5 In14 3.585176 1_555
Ce5 In1 3.585176 1_555
Ce6 Ni3 2.702905 1_556
Ce6 Ni5 3.097817 1_456
Ce6 Ni5 3.097817 1_556
Ce6 In5 3.289237 1_556
Ce6 In5 3.289237 1_456
Ce6 In11 3.303605 1_555
Ce6 In13 3.353329 1_455
Ce6 In13 3.353329 1_555
Ce6 In4 3.381478 1_555
Ce6 In4 3.381478 1_455
Ce6 In14 3.444302 1_456
Ce6 In14 3.444302 1_556
Ce6 In10 3.525343 1_555
Ce7 Ni2 2.643365 1_555
Ce7 Ni0 2.643365 1_555
Ce7 In0 3.392293 1_555
Ce7 In0 3.392293 1_455
Ce7 In5 3.392294 1_555
Ce7 In5 3.392294 1_455
Ce7 In11 3.427706 1_554
Ce7 In3 3.427706 1_545
Ce7 Ni5 3.462951 1_555
Ce7 Ni5 3.462951 1_455
Ce7 Ni9 3.462951 1_455
Ce7 Ni9 3.462951 1_555
Ce7 In12 3.534524 1_555
Ce7 In12 3.534524 1_455
In0 Ni9 2.584006 1_555
In0 Ni2 2.643390 1_655
In0 Ni2 2.643390 1_555
In0 Ni6 2.747217 1_555
In0 Ni11 2.874464 1_655
In0 Ni11 2.874464 1_555
In0 In8 3.100799 1_555
In1 Ni10 2.686942 1_555
In1 Ni10 2.686942 1_655
In1 In8 3.035835 1_565
In1 In9 3.100799 1_555
In1 In7 3.178425 1_555
In1 In2 3.197017 1_555
In1 In2 3.197017 1_655
In2 Ni10 2.630129 1_555
In2 Ni3 2.630129 1_555
In2 In7 3.050796 1_455
In2 In7 3.050796 1_555
In3 Ni9 2.633027 1_565
In3 Ni9 2.633027 1_465
In3 Ni8 2.633027 1_454
In3 Ni8 2.633027 1_554
In3 In7 3.363572 1_455
In3 In7 3.363572 1_555
In4 Ni4 2.686942 1_555
In4 Ni4 2.686942 1_655
In4 In6 3.100799 1_555
In5 Ni5 2.584006 1_555
In5 Ni0 2.643390 1_555
In5 Ni0 2.643390 1_655
In5 Ni6 2.747217 1_555
In5 Ni3 2.874464 1_555
In5 Ni3 2.874464 1_655
In6 Ni8 2.584006 1_555
In6 Ni13 2.643390 1_555
In6 Ni13 2.643390 1_655
In6 Ni1 2.747217 1_555
In6 Ni4 2.874464 1_555
In6 Ni4 2.874464 1_655
In7 Ni8 2.669575 1_554
In7 Ni9 2.669575 1_565
In8 Ni11 2.686942 1_555
In8 Ni11 2.686942 1_655
In9 Ni7 2.584006 1_555
In9 Ni12 2.643390 1_555
In9 Ni12 2.643390 1_655
In9 Ni1 2.747217 1_555
In9 Ni10 2.874464 1_655
In9 Ni10 2.874464 1_555
In10 Ni11 2.630129 1_555
In10 Ni4 2.630129 1_555
In10 In13 3.050796 1_455
In10 In13 3.050796 1_555
In10 In8 3.197017 1_555
In10 In8 3.197017 1_455
In10 In4 3.197017 1_555
In10 In4 3.197017 1_455
In11 Ni7 2.633027 1_445
In11 Ni7 2.633027 1_545
In11 Ni5 2.633027 1_456
In11 Ni5 2.633027 1_556
In11 In12 2.996213 1_556
In11 In12 2.996213 1_456
In11 In13 3.363572 1_455
In11 In13 3.363572 1_555
In12 Ni7 2.703038 1_544
In12 Ni9 2.703038 1_555
In12 Ni5 2.703038 1_555
In12 Ni8 2.703038 1_544
In12 In3 2.996213 1_645
In12 In3 2.996213 1_545
In13 Ni5 2.669575 1_556
In13 Ni7 2.669575 1_545
In13 In8 3.178425 1_555
In13 In4 3.178425 1_555
In14 Ni3 2.686942 1_555
In14 Ni3 2.686942 1_655
In14 In4 3.035835 1_554
In14 In5 3.100799 1_555
In14 In7 3.178425 1_555
In14 In2 3.197017 1_555
In14 In2 3.197017 1_655
In15 Ni0 2.525415 1_555
In15 Ni13 2.525415 1_555
In15 Ni2 2.525415 1_555
In15 Ni12 2.525415 1_555
In15 Ni1 2.782531 1_555
In15 Ni1 2.782531 1_455
In15 Ni6 2.782531 1_555
In15 Ni6 2.782531 1_455
Ni0 Ni3 2.418336 1_555
Ni0 Ni2 2.562821 1_555
Ni0 Ni6 2.594512 1_555
Ni0 Ni6 2.594512 1_455
Ni1 Ni13 2.594512 1_655
Ni1 Ni13 2.594512 1_555
Ni1 Ni12 2.594512 1_655
Ni1 Ni12 2.594512 1_555
Ni2 Ni6 2.594512 1_555
Ni2 Ni6 2.594512 1_455
Ni5 Ni7 2.825974 1_544
Ni8 Ni9 2.825974 1_566
Ni10 Ni12 2.418336 1_555
Ni11 Ni2 2.418336 1_555
Ni12 Ni13 2.562821 1_555
Ni13 Ni4 2.418336 1_555
