# generated using pymatgen
data_MoPCl8O
_symmetry_space_group_name_H-M   'P 1'
_cell_length_a   8.42120000
_cell_length_b   9.30231400
_cell_length_c   17.23894500
_cell_angle_alpha   90.00000000
_cell_angle_beta   90.00000000
_cell_angle_gamma   90.00000000
_symmetry_Int_Tables_number   1
_chemical_formula_structural   MoPCl8O
_chemical_formula_sum   'Mo4 P4 Cl32 O4'
_cell_volume   1350.44114320
_cell_formula_units_Z   4
loop_
 _symmetry_equiv_pos_site_id
 _symmetry_equiv_pos_as_xyz
  1  'x, y, z'
loop_
 _atom_site_type_symbol
 _atom_site_label
 _atom_site_symmetry_multiplicity
 _atom_site_fract_x
 _atom_site_fract_y
 _atom_site_fract_z
 _atom_site_occupancy
  Mo  Mo0  1  0.75000000  0.07804100  0.85300600  1
  Mo  Mo1  1  0.25000000  0.92195900  0.14699400  1
  Mo  Mo2  1  0.25000000  0.57804100  0.64699400  1
  Mo  Mo3  1  0.75000000  0.42195900  0.35300600  1
  P  P0  1  0.75000000  0.71886600  0.92384400  1
  P  P1  1  0.25000000  0.21886600  0.57615600  1
  P  P2  1  0.25000000  0.28113400  0.07615600  1
  P  P3  1  0.75000000  0.78113400  0.42384400  1
  Cl  Cl0  1  0.47828000  0.05012300  0.86154900  1
  Cl  Cl1  1  0.25000000  0.43316200  0.76118800  1
  Cl  Cl2  1  0.25000000  0.71745100  0.22114400  1
  Cl  Cl3  1  0.47828000  0.44987700  0.36154900  1
  Cl  Cl4  1  0.25000000  0.06683800  0.26118800  1
  Cl  Cl5  1  0.25000000  0.71522600  0.53225000  1
  Cl  Cl6  1  0.75000000  0.93316200  0.73881200  1
  Cl  Cl7  1  0.25000000  0.78477400  0.03225000  1
  Cl  Cl8  1  0.56158900  0.63547400  0.87153700  1
  Cl  Cl9  1  0.02172000  0.05012300  0.86154900  1
  Cl  Cl10  1  0.06158900  0.13547400  0.62846300  1
  Cl  Cl11  1  0.75000000  0.28477400  0.46775000  1
  Cl  Cl12  1  0.75000000  0.56683800  0.23881200  1
  Cl  Cl13  1  0.75000000  0.85843800  0.53105500  1
  Cl  Cl14  1  0.06158900  0.36452600  0.12846300  1
  Cl  Cl15  1  0.75000000  0.21745100  0.27885600  1
  Cl  Cl16  1  0.25000000  0.35843800  0.96894500  1
  Cl  Cl17  1  0.02172000  0.44987700  0.36154900  1
  Cl  Cl18  1  0.97828000  0.94987700  0.13845100  1
  Cl  Cl19  1  0.75000000  0.64156200  0.03105500  1
  Cl  Cl20  1  0.52172000  0.55012300  0.63845100  1
  Cl  Cl21  1  0.93841100  0.86452600  0.37153700  1
  Cl  Cl22  1  0.93841100  0.63547400  0.87153700  1
  Cl  Cl23  1  0.43841100  0.36452600  0.12846300  1
  Cl  Cl24  1  0.97828000  0.55012300  0.63845100  1
  Cl  Cl25  1  0.56158900  0.86452600  0.37153700  1
  Cl  Cl26  1  0.75000000  0.28254900  0.77885600  1
  Cl  Cl27  1  0.75000000  0.21522600  0.96775000  1
  Cl  Cl28  1  0.52172000  0.94987700  0.13845100  1
  Cl  Cl29  1  0.25000000  0.14156200  0.46894500  1
  Cl  Cl30  1  0.25000000  0.78254900  0.72114400  1
  Cl  Cl31  1  0.43841100  0.13547400  0.62846300  1
  O  O0  1  0.75000000  0.87932500  0.92555600  1
  O  O1  1  0.25000000  0.12067500  0.07444400  1
  O  O2  1  0.25000000  0.37932500  0.57444400  1
  O  O3  1  0.75000000  0.62067500  0.42555600  1
loop_
_geom_bond_atom_site_label_1
_geom_bond_atom_site_label_2
_geom_bond_distance
_geom_bond_site_symmetry_2
Mo0 O0 2.231868 1_545
Mo1 O1 2.231868 1_565
Mo2 O2 2.231868 1_555
Mo3 O3 2.231868 1_555
Cl0 Mo0 2.307603 1_555
Cl1 Mo2 2.385717 1_555
Cl2 Mo1 2.291961 1_555
Cl3 Mo3 2.307603 1_555
Cl4 Mo1 2.385717 1_545
Cl5 Mo2 2.353990 1_555
Cl6 Mo0 2.385717 1_565
Cl7 Mo1 2.353990 1_555
Cl8 P0 1.983006 1_555
Cl9 Mo0 2.307603 1_455
Cl10 P1 1.983006 1_555
Cl11 Mo3 2.353990 1_555
Cl12 Mo3 2.385717 1_555
Cl13 P3 1.983173 1_555
Cl14 P2 1.983006 1_555
Cl15 Mo3 2.291961 1_555
Cl16 P2 1.983173 1_556
Cl17 Mo3 2.307603 1_455
Cl18 Mo1 2.307603 1_655
Cl19 P0 1.983173 1_554
Cl20 Mo2 2.307603 1_555
Cl21 P3 1.983006 1_555
Cl22 P0 1.983006 1_555
Cl23 P2 1.983006 1_555
Cl24 Mo2 2.307603 1_655
Cl25 P3 1.983006 1_555
Cl26 Mo0 2.291961 1_555
Cl27 Mo0 2.353990 1_555
Cl28 Mo1 2.307603 1_555
Cl29 P1 1.983173 1_555
Cl30 Mo2 2.291961 1_555
Cl31 P1 1.983006 1_555
O0 P0 1.492932 1_555
O1 P2 1.492932 1_555
O2 P1 1.492932 1_555
O3 P3 1.492932 1_555
