# generated using pymatgen
data_Rb6U5V2O23
_symmetry_space_group_name_H-M   'P 1'
_cell_length_a   13.11040492
_cell_length_b   13.11040492
_cell_length_c   14.82861876
_cell_angle_alpha   75.77433041
_cell_angle_beta   75.77433041
_cell_angle_gamma   31.80542308
_symmetry_Int_Tables_number   1
_chemical_formula_structural   Rb6U5V2O23
_chemical_formula_sum   'Rb12 U10 V4 O46'
_cell_volume   1298.70829506
_cell_formula_units_Z   2
loop_
 _symmetry_equiv_pos_site_id
 _symmetry_equiv_pos_as_xyz
  1  'x, y, z'
loop_
 _atom_site_type_symbol
 _atom_site_label
 _atom_site_symmetry_multiplicity
 _atom_site_fract_x
 _atom_site_fract_y
 _atom_site_fract_z
 _atom_site_occupancy
  Rb  Rb0  1  0.78768000  0.28572400  0.45156800  1
  Rb  Rb1  1  0.62305800  0.11678400  0.61361600  1
  Rb  Rb2  1  0.93240100  0.48648200  0.32662200  1
  Rb  Rb3  1  0.06759900  0.51351800  0.67337800  1
  Rb  Rb4  1  0.71427600  0.21232000  0.04843200  1
  Rb  Rb5  1  0.37694200  0.88321600  0.38638400  1
  Rb  Rb6  1  0.88321600  0.37694200  0.88638400  1
  Rb  Rb7  1  0.11678400  0.62305800  0.11361600  1
  Rb  Rb8  1  0.48648200  0.93240100  0.82662200  1
  Rb  Rb9  1  0.51351800  0.06759900  0.17337800  1
  Rb  Rb10  1  0.28572400  0.78768000  0.95156800  1
  Rb  Rb11  1  0.21232000  0.71427600  0.54843200  1
  U  U0  1  0.81368700  0.89349600  0.88350200  1
  U  U1  1  0.52748100  0.63825800  0.67184600  1
  U  U2  1  0.10650400  0.18631300  0.61649800  1
  U  U3  1  0.18631300  0.10650400  0.11649800  1
  U  U4  1  0.36174200  0.47251900  0.82815400  1
  U  U5  1  0.47251900  0.36174200  0.32815400  1
  U  U6  1  0.08390800  0.91609200  0.25000000  1
  U  U7  1  0.91609200  0.08390800  0.75000000  1
  U  U8  1  0.63825800  0.52748100  0.17184600  1
  U  U9  1  0.89349600  0.81368700  0.38350200  1
  V  V0  1  0.32967100  0.23461500  0.42997300  1
  V  V1  1  0.67032900  0.76538500  0.57002700  1
  V  V2  1  0.23461500  0.32967100  0.92997300  1
  V  V3  1  0.76538500  0.67032900  0.07002700  1
  O  O0  1  0.15524300  0.17754200  0.72735500  1
  O  O1  1  0.80281200  0.06566200  0.31688300  1
  O  O2  1  0.46015200  0.32397900  0.21900000  1
  O  O3  1  0.68624700  0.15925600  0.81956200  1
  O  O4  1  0.24733000  0.23619300  0.54254600  1
  O  O5  1  0.51006000  0.48994000  0.25000000  1
  O  O6  1  0.15925600  0.68624700  0.31956200  1
  O  O7  1  0.75267000  0.76380700  0.45745400  1
  O  O8  1  0.06935300  0.88504200  0.13869700  1
  O  O9  1  0.32397900  0.46015200  0.71900000  1
  O  O10  1  0.85524400  0.65919900  0.14257600  1
  O  O11  1  0.11495800  0.93064700  0.36130300  1
  O  O12  1  0.76380700  0.75267000  0.95745400  1
  O  O13  1  0.65919900  0.85524400  0.64257600  1
  O  O14  1  0.79862300  0.94035300  0.99864900  1
  O  O15  1  0.51495800  0.61071700  0.55792400  1
  O  O16  1  0.84475700  0.82245800  0.27264500  1
  O  O17  1  0.23619300  0.24733000  0.04254600  1
  O  O18  1  0.34080100  0.14475600  0.35742400  1
  O  O19  1  0.83256400  0.52644500  0.61056000  1
  O  O20  1  0.67602100  0.53984800  0.28100000  1
  O  O21  1  0.12531900  0.55022200  0.91851100  1
  O  O22  1  0.93433800  0.19718800  0.18311700  1
  O  O23  1  0.31375300  0.84074400  0.18043800  1
  O  O24  1  0.14475600  0.34080100  0.85742400  1
  O  O25  1  0.88504200  0.06935300  0.63869700  1
  O  O26  1  0.52644500  0.83256400  0.11056000  1
  O  O27  1  0.55022200  0.12531900  0.41851100  1
  O  O28  1  0.48994000  0.51006000  0.75000000  1
  O  O29  1  0.06566200  0.80281200  0.81688300  1
  O  O30  1  0.19718800  0.93433800  0.68311700  1
  O  O31  1  0.93064700  0.11495800  0.86130300  1
  O  O32  1  0.16743600  0.47355500  0.38944000  1
  O  O33  1  0.38928300  0.48504200  0.94207600  1
  O  O34  1  0.47355500  0.16743600  0.88944000  1
  O  O35  1  0.20137700  0.05964700  0.00135100  1
  O  O36  1  0.05964700  0.20137700  0.50135100  1
  O  O37  1  0.44977800  0.87468100  0.58148900  1
  O  O38  1  0.48504200  0.38928300  0.44207600  1
  O  O39  1  0.82245800  0.84475700  0.77264500  1
  O  O40  1  0.61071700  0.51495800  0.05792400  1
  O  O41  1  0.94035300  0.79862300  0.49864900  1
  O  O42  1  0.84074400  0.31375300  0.68043800  1
  O  O43  1  0.53984800  0.67602100  0.78100000  1
  O  O44  1  0.87468100  0.44977800  0.08148900  1
  O  O45  1  0.17754200  0.15524300  0.22735500  1
loop_
_geom_bond_atom_site_label_1
_geom_bond_atom_site_label_2
_geom_bond_distance
_geom_bond_site_symmetry_2
O0 U2 1.849933 1_555
O0 Rb6 2.857270 1_455
O0 Rb8 2.906716 1_545
O0 Rb3 3.388166 1_555
O1 U5 2.289160 1_555
O1 U6 2.299295 1_645
O1 U9 2.366473 1_545
O2 U5 1.884289 1_555
O2 Rb7 2.919948 1_555
O2 Rb4 3.004786 1_555
O2 Rb9 3.022081 1_555
O3 U7 2.243616 1_555
O3 U0 2.256259 1_545
O3 U4 2.296968 1_555
O4 V0 1.745195 1_555
O4 U2 2.396577 1_555
O4 Rb3 3.032133 1_555
O5 U8 2.139747 1_555
O5 U5 2.139747 1_555
O6 U6 2.243616 1_555
O6 U9 2.256259 1_455
O6 U5 2.296968 1_555
O7 V1 1.745195 1_555
O7 U9 2.396577 1_555
O7 Rb2 3.032133 1_555
O8 U6 1.882342 1_555
O8 Rb4 2.857053 1_465
O8 Rb10 3.015595 1_554
O8 Rb7 3.034170 1_555
O9 U4 1.884289 1_555
O9 Rb1 2.919948 1_555
O9 Rb11 3.004786 1_555
O9 Rb3 3.022081 1_555
O10 V3 1.679314 1_555
O10 Rb2 2.832889 1_555
O10 Rb9 2.893599 1_565
O10 Rb7 2.963289 1_655
O11 U6 1.882342 1_555
O11 Rb0 2.857053 1_465
O11 Rb11 3.015595 1_555
O11 Rb5 3.034170 1_555
O12 V3 1.745195 1_556
O12 U0 2.396577 1_555
O12 Rb8 3.032133 1_555
O13 V1 1.679314 1_555
O13 Rb8 2.832889 1_555
O13 Rb3 2.893599 1_655
O13 Rb1 2.963289 1_565
O14 U0 1.864249 1_555
O14 Rb7 2.850782 1_656
O14 Rb4 2.944829 1_566
O14 Rb9 3.199004 1_566
O15 U1 1.883599 1_555
O15 Rb0 2.839581 1_555
O15 Rb11 2.937734 1_555
O15 Rb5 3.052235 1_555
O16 U9 1.849933 1_555
O16 Rb7 2.857270 1_655
O16 Rb9 2.906716 1_565
O16 Rb2 3.388166 1_555
O17 V2 1.745195 1_554
O17 U3 2.396577 1_555
O17 Rb9 3.032133 1_555
O18 V0 1.679314 1_555
O18 Rb9 2.832889 1_555
O18 Rb2 2.893599 1_455
O18 Rb5 2.963289 1_545
O19 V1 1.753985 1_555
O19 U2 2.352213 1_655
O19 U1 2.806307 1_555
O19 Rb3 3.291957 1_655
O20 U8 1.884289 1_555
O20 Rb5 2.919948 1_555
O20 Rb0 3.004786 1_555
O20 Rb2 3.022081 1_555
O21 V2 1.810757 1_555
O21 U4 2.388157 1_555
O21 U0 2.420265 1_455
O21 Rb7 3.211185 1_556
O22 U8 2.289160 1_555
O22 U6 2.299295 1_645
O22 U3 2.366473 1_655
O23 U6 2.243616 1_555
O23 U3 2.256259 1_565
O23 U8 2.296968 1_555
O24 V2 1.679314 1_555
O24 Rb3 2.832889 1_555
O24 Rb8 2.893599 1_545
O24 Rb6 2.963289 1_455
O25 U7 1.882342 1_555
O25 Rb11 2.857053 1_645
O25 Rb0 3.015595 1_555
O25 Rb1 3.034170 1_555
O26 V3 1.753985 1_555
O26 U3 2.352213 1_565
O26 U8 2.806307 1_555
O26 Rb9 3.291957 1_565
O27 V0 1.810757 1_555
O27 U5 2.388157 1_555
O27 U9 2.420265 1_545
O27 Rb1 3.211185 1_555
O28 U1 2.139747 1_555
O28 U4 2.139747 1_555
O29 U4 2.289160 1_555
O29 U7 2.299295 1_465
O29 U0 2.366473 1_455
O30 U1 2.289160 1_555
O30 U7 2.299295 1_465
O30 U2 2.366473 1_565
O31 U7 1.882342 1_555
O31 Rb10 2.857053 1_645
O31 Rb4 3.015595 1_556
O31 Rb6 3.034170 1_555
O32 V0 1.753985 1_555
O32 U9 2.352213 1_455
O32 U5 2.806307 1_555
O32 Rb2 3.291957 1_455
O33 U4 1.883599 1_555
O33 Rb4 2.839581 1_556
O33 Rb10 2.937734 1_555
O33 Rb7 3.052235 1_556
O34 V2 1.753985 1_555
O34 U0 2.352213 1_545
O34 U4 2.806307 1_555
O34 Rb8 3.291957 1_545
O35 U3 1.864249 1_555
O35 Rb6 2.850782 1_454
O35 Rb10 2.944829 1_544
O35 Rb8 3.199004 1_544
O36 U2 1.864249 1_555
O36 Rb5 2.850782 1_545
O36 Rb0 2.944829 1_455
O36 Rb2 3.199004 1_455
O37 V1 1.810757 1_555
O37 U1 2.388157 1_555
O37 U2 2.420265 1_565
O37 Rb5 3.211185 1_555
O38 U5 1.883599 1_555
O38 Rb11 2.839581 1_555
O38 Rb0 2.937734 1_555
O38 Rb1 3.052235 1_555
O39 U0 1.849933 1_555
O39 Rb1 2.857270 1_565
O39 Rb3 2.906716 1_655
O39 Rb8 3.388166 1_555
O40 U8 1.883599 1_555
O40 Rb10 2.839581 1_554
O40 Rb4 2.937734 1_555
O40 Rb6 3.052235 1_554
O41 U9 1.864249 1_555
O41 Rb1 2.850782 1_565
O41 Rb11 2.944829 1_655
O41 Rb3 3.199004 1_655
O42 U7 2.243616 1_555
O42 U2 2.256259 1_655
O42 U1 2.296968 1_555
O43 U1 1.884289 1_555
O43 Rb6 2.919948 1_555
O43 Rb10 3.004786 1_555
O43 Rb8 3.022081 1_555
O44 V3 1.810757 1_555
O44 U8 2.388157 1_555
O44 U3 2.420265 1_655
O44 Rb6 3.211185 1_554
O45 U3 1.849933 1_555
O45 Rb5 2.857270 1_545
O45 Rb2 2.906716 1_455
O45 Rb9 3.388166 1_555
