# generated using pymatgen
data_K2Na3SiP3
_symmetry_space_group_name_H-M   'P 1'
_cell_length_a   4.80082200
_cell_length_b   13.22247500
_cell_length_c   14.66371500
_cell_angle_alpha   90.00000000
_cell_angle_beta   90.00000000
_cell_angle_gamma   90.00000000
_symmetry_Int_Tables_number   1
_chemical_formula_structural   K2Na3SiP3
_chemical_formula_sum   'K8 Na12 Si4 P12'
_cell_volume   930.83428205
_cell_formula_units_Z   4
loop_
 _symmetry_equiv_pos_site_id
 _symmetry_equiv_pos_as_xyz
  1  'x, y, z'
loop_
 _atom_site_type_symbol
 _atom_site_label
 _atom_site_symmetry_multiplicity
 _atom_site_fract_x
 _atom_site_fract_y
 _atom_site_fract_z
 _atom_site_occupancy
  K  K0  1  0.25000000  0.94057000  0.29826100  1
  K  K1  1  0.75000000  0.05943000  0.70173900  1
  K  K2  1  0.75000000  0.44057000  0.20173900  1
  K  K3  1  0.25000000  0.55943000  0.79826100  1
  K  K4  1  0.25000000  0.13620200  0.51198900  1
  K  K5  1  0.75000000  0.86379800  0.48801100  1
  K  K6  1  0.75000000  0.63620200  0.98801100  1
  K  K7  1  0.25000000  0.36379800  0.01198900  1
  Na  Na0  1  0.25000000  0.42885500  0.55909700  1
  Na  Na1  1  0.75000000  0.57114500  0.44090300  1
  Na  Na2  1  0.75000000  0.92885500  0.94090300  1
  Na  Na3  1  0.25000000  0.07114500  0.05909700  1
  Na  Na4  1  0.25000000  0.81711800  0.08402200  1
  Na  Na5  1  0.75000000  0.18288200  0.91597800  1
  Na  Na6  1  0.75000000  0.31711800  0.41597800  1
  Na  Na7  1  0.25000000  0.68288200  0.58402200  1
  Na  Na8  1  0.25000000  0.23381400  0.25752600  1
  Na  Na9  1  0.75000000  0.76618600  0.74247400  1
  Na  Na10  1  0.75000000  0.73381400  0.24247400  1
  Na  Na11  1  0.25000000  0.26618600  0.75752600  1
  Si  Si0  1  0.25000000  0.58436000  0.29678000  1
  Si  Si1  1  0.75000000  0.41564000  0.70322000  1
  Si  Si2  1  0.75000000  0.08436000  0.20322000  1
  Si  Si3  1  0.25000000  0.91564000  0.79678000  1
  P  P0  1  0.25000000  0.60406600  0.14806300  1
  P  P1  1  0.75000000  0.39593400  0.85193700  1
  P  P2  1  0.75000000  0.10406600  0.35193700  1
  P  P3  1  0.25000000  0.89593400  0.64806300  1
  P  P4  1  0.25000000  0.43276600  0.35941900  1
  P  P5  1  0.75000000  0.56723400  0.64058100  1
  P  P6  1  0.75000000  0.93276600  0.14058100  1
  P  P7  1  0.25000000  0.06723400  0.85941900  1
  P  P8  1  0.25000000  0.71617000  0.38650800  1
  P  P9  1  0.75000000  0.28383000  0.61349200  1
  P  P10  1  0.75000000  0.21617000  0.11349200  1
  P  P11  1  0.25000000  0.78383000  0.88650800  1
loop_
_geom_bond_atom_site_label_1
_geom_bond_atom_site_label_2
_geom_bond_distance
_geom_bond_site_symmetry_2
K0 P8 3.237025 1_555
K0 P2 3.324899 1_565
K0 P2 3.324899 1_465
K0 P6 3.334482 1_455
K0 P6 3.334482 1_555
K0 Si2 3.364377 1_465
K0 Si2 3.364377 1_565
K1 P9 3.237025 1_555
K1 P3 3.324899 1_545
K1 P3 3.324899 1_645
K1 P7 3.334482 1_555
K1 P7 3.334482 1_655
K1 Si3 3.364377 1_545
K1 Si3 3.364377 1_645
K2 P10 3.237025 1_555
K2 P0 3.324899 1_555
K2 P0 3.324899 1_655
K2 P4 3.334482 1_555
K2 P4 3.334482 1_655
K2 Si0 3.364377 1_555
K2 Si0 3.364377 1_655
K3 P11 3.237025 1_555
K3 P1 3.324899 1_555
K3 P1 3.324899 1_455
K3 P5 3.334482 1_455
K3 P5 3.334482 1_555
K3 Si1 3.364377 1_555
K3 Si1 3.364377 1_455
K4 P2 3.383893 1_555
K4 P2 3.383893 1_455
K4 P9 3.433318 1_555
K4 P9 3.433318 1_455
K4 P3 3.751580 1_545
K5 P3 3.383893 1_655
K5 P3 3.383893 1_555
K5 P8 3.433318 1_655
K5 P8 3.433318 1_555
K5 P2 3.751580 1_565
K6 P0 3.383893 1_556
K6 P0 3.383893 1_656
K6 P11 3.433318 1_555
K6 P11 3.433318 1_655
K6 P1 3.751580 1_555
K7 P1 3.383893 1_554
K7 P1 3.383893 1_454
K7 P10 3.433318 1_555
K7 P10 3.433318 1_455
K7 P0 3.751580 1_555
Na0 P4 2.928478 1_555
Na0 P9 3.174168 1_455
Na0 P9 3.174168 1_555
Na0 Si1 3.202948 1_555
Na0 Si1 3.202948 1_455
Na0 P5 3.246153 1_555
Na0 P5 3.246153 1_455
Na1 P5 2.928478 1_555
Na1 P8 3.174168 1_555
Na1 P8 3.174168 1_655
Na1 Si0 3.202948 1_655
Na1 Si0 3.202948 1_555
Na1 P4 3.246153 1_555
Na1 P4 3.246153 1_655
Na2 P6 2.928478 1_556
Na2 P11 3.174168 1_655
Na2 P11 3.174168 1_555
Na2 Si3 3.202948 1_555
Na2 Si3 3.202948 1_655
Na2 P7 3.246153 1_565
Na2 P7 3.246153 1_665
Na3 P7 2.928478 1_554
Na3 P10 3.174168 1_455
Na3 P10 3.174168 1_555
Na3 Si2 3.202948 1_455
Na3 Si2 3.202948 1_555
Na3 P6 3.246153 1_445
Na3 P6 3.246153 1_545
Na4 P11 2.929543 1_554
Na4 P6 2.964478 1_455
Na4 P6 2.964478 1_555
Na4 P0 2.969475 1_555
Na5 P10 2.929543 1_556
Na5 P7 2.964478 1_655
Na5 P7 2.964478 1_555
Na5 P1 2.969475 1_555
Na6 P9 2.929543 1_555
Na6 P4 2.964478 1_655
Na6 P4 2.964478 1_555
Na6 P2 2.969475 1_555
Na7 P8 2.929543 1_555
Na7 P5 2.964478 1_455
Na7 P5 2.964478 1_555
Na7 P3 2.969475 1_555
Na8 P4 3.025340 1_555
Na8 P10 3.205816 1_455
Na8 P10 3.205816 1_555
Na8 Si2 3.209562 1_455
Na8 Si2 3.209562 1_555
Na8 P2 3.259115 1_555
Na8 P2 3.259115 1_455
Na9 P5 3.025340 1_555
Na9 P11 3.205816 1_555
Na9 P11 3.205816 1_655
Na9 Si3 3.209562 1_555
Na9 Si3 3.209562 1_655
Na9 P3 3.259115 1_655
Na9 P3 3.259115 1_555
Na10 P6 3.025340 1_555
Na10 P8 3.205816 1_655
Na10 P8 3.205816 1_555
Na10 Si0 3.209562 1_555
Na10 Si0 3.209562 1_655
Na10 P0 3.259115 1_555
Na10 P0 3.259115 1_655
Na11 P7 3.025340 1_555
Na11 P9 3.205816 1_555
Na11 P9 3.205816 1_455
Na11 Si1 3.209562 1_555
Na11 Si1 3.209562 1_455
Na11 P1 3.259115 1_555
Na11 P1 3.259115 1_455
P0 Si0 2.196255 1_555
P1 Si1 2.196255 1_555
P2 Si2 2.196255 1_555
P3 Si3 2.196255 1_555
P4 Si0 2.204879 1_555
P5 Si1 2.204879 1_555
P6 Si2 2.204879 1_565
P7 Si3 2.204879 1_545
P8 Si0 2.183742 1_555
P9 Si1 2.183742 1_555
P10 Si2 2.183742 1_555
P11 Si3 2.183742 1_555
