# generated using pymatgen
data_Sc3B2Rh5
_symmetry_space_group_name_H-M   'P 1'
_cell_length_a   3.10043992
_cell_length_b   9.45435228
_cell_length_c   9.45435228
_cell_angle_alpha   90.00000000
_cell_angle_beta   90.00000000
_cell_angle_gamma   90.00000000
_symmetry_Int_Tables_number   1
_chemical_formula_structural   Sc3B2Rh5
_chemical_formula_sum   'Sc6 B4 Rh10'
_cell_volume   277.13213096
_cell_formula_units_Z   2
loop_
 _symmetry_equiv_pos_site_id
 _symmetry_equiv_pos_as_xyz
  1  'x, y, z'
loop_
 _atom_site_type_symbol
 _atom_site_label
 _atom_site_symmetry_multiplicity
 _atom_site_fract_x
 _atom_site_fract_y
 _atom_site_fract_z
 _atom_site_occupancy
  Sc  Sc0  1  0.00000000  0.32521142  0.82521142  1
  Sc  Sc1  1  0.00000000  0.17478858  0.32521142  1
  Sc  Sc2  1  0.00000000  0.82521142  0.67478858  1
  Sc  Sc3  1  0.00000000  0.67478858  0.17478858  1
  Sc  Sc4  1  -0.00000000  -0.00000000  0.00000000  1
  Sc  Sc5  1  -0.00000000  0.50000000  0.50000000  1
  B  B0  1  -0.00000000  0.12344413  0.62344413  1
  B  B1  1  0.00000000  0.37655587  0.12344413  1
  B  B2  1  -0.00000000  0.62344413  0.87655587  1
  B  B3  1  0.00000000  0.87655587  0.37655587  1
  Rh  Rh0  1  0.50000000  0.22324450  0.07152308  1
  Rh  Rh1  1  0.50000000  0.92847692  0.22324450  1
  Rh  Rh2  1  0.50000000  0.07152308  0.77675550  1
  Rh  Rh3  1  0.50000000  0.77675550  0.92847692  1
  Rh  Rh4  1  0.50000000  0.72324450  0.42847692  1
  Rh  Rh5  1  0.50000000  0.27675550  0.57152308  1
  Rh  Rh6  1  0.50000000  0.57152308  0.72324450  1
  Rh  Rh7  1  0.50000000  0.42847692  0.27675550  1
  Rh  Rh8  1  0.50000000  -0.00000000  0.50000000  1
  Rh  Rh9  1  0.50000000  0.50000000  -0.00000000  1
loop_
_geom_bond_atom_site_label_1
_geom_bond_atom_site_label_2
_geom_bond_distance
_geom_bond_site_symmetry_2
B0 Rh5 2.178320 1_555
B0 Rh5 2.178320 1_455
B0 Rh2 2.178320 1_455
B0 Rh2 2.178320 1_555
B0 Rh8 2.264366 1_455
B0 Rh8 2.264366 1_555
B0 Sc0 2.697724 1_555
B0 Sc2 2.861078 1_545
B0 Sc1 2.861078 1_555
B1 Rh0 2.178320 1_455
B1 Rh0 2.178320 1_555
B1 Rh7 2.178320 1_455
B1 Rh7 2.178320 1_555
B1 Rh9 2.264366 1_455
B1 Rh9 2.264366 1_555
B1 Sc1 2.697724 1_555
B1 Sc0 2.861078 1_554
B1 Sc3 2.861078 1_555
B2 Rh6 2.178320 1_555
B2 Rh3 2.178320 1_555
B2 Rh3 2.178320 1_455
B2 Rh6 2.178320 1_455
B2 Rh9 2.264366 1_456
B2 Rh9 2.264366 1_556
B2 Sc2 2.697724 1_555
B2 Sc3 2.861078 1_556
B2 Sc0 2.861078 1_555
B3 Rh1 2.178320 1_555
B3 Rh4 2.178320 1_555
B3 Rh4 2.178320 1_455
B3 Rh1 2.178320 1_455
B3 Rh8 2.264366 1_565
B3 Rh8 2.264366 1_465
B3 Sc3 2.697724 1_555
B3 Sc1 2.861078 1_565
B3 Sc2 2.861078 1_555
Rh0 Sc4 2.704663 1_655
Rh0 Sc4 2.704663 1_555
Rh0 Sc1 2.892345 1_655
Rh0 Sc1 2.892345 1_555
Rh0 Sc0 2.958963 1_554
Rh0 Sc0 2.958963 1_654
Rh1 Sc4 2.704663 1_665
Rh1 Sc4 2.704663 1_565
Rh1 Sc3 2.892345 1_555
Rh1 Sc3 2.892345 1_655
Rh1 Sc1 2.958963 1_565
Rh1 Sc1 2.958963 1_665
Rh2 Sc4 2.704663 1_656
Rh2 Sc4 2.704663 1_556
Rh2 Sc0 2.892345 1_555
Rh2 Sc0 2.892345 1_655
Rh2 Sc2 2.958963 1_645
Rh2 Sc2 2.958963 1_545
Rh3 Sc4 2.704663 1_566
Rh3 Sc4 2.704663 1_666
Rh3 Sc2 2.892345 1_655
Rh3 Sc2 2.892345 1_555
Rh3 Sc3 2.958963 1_556
Rh3 Sc3 2.958963 1_656
Rh4 Sc5 2.704663 1_555
Rh4 Sc5 2.704663 1_655
Rh4 Sc3 2.892345 1_655
Rh4 Sc3 2.892345 1_555
Rh4 Sc2 2.958963 1_655
Rh4 Sc2 2.958963 1_555
Rh5 Sc5 2.704663 1_655
Rh5 Sc5 2.704663 1_555
Rh5 Sc0 2.892345 1_655
Rh5 Sc0 2.892345 1_555
Rh5 Sc1 2.958963 1_655
Rh5 Sc1 2.958963 1_555
Rh6 Sc5 2.704663 1_555
Rh6 Sc5 2.704663 1_655
Rh6 Sc2 2.892345 1_655
Rh6 Sc2 2.892345 1_555
Rh6 Sc0 2.958963 1_655
Rh6 Sc0 2.958963 1_555
Rh7 Sc5 2.704663 1_555
Rh7 Sc5 2.704663 1_655
Rh7 Sc1 2.892345 1_655
Rh7 Sc1 2.892345 1_555
Rh7 Sc3 2.958963 1_555
Rh7 Sc3 2.958963 1_655
Rh8 Sc2 2.804421 1_645
Rh8 Sc2 2.804421 1_545
Rh8 Sc1 2.804421 1_655
Rh8 Sc1 2.804421 1_555
Rh9 Sc3 2.804421 1_655
Rh9 Sc0 2.804421 1_654
Rh9 Sc3 2.804421 1_555
Rh9 Sc0 2.804421 1_554
