# generated using pymatgen
data_Al5C3N
_symmetry_space_group_name_H-M   'P 1'
_cell_length_a   3.34566175
_cell_length_b   3.34566175
_cell_length_c   20.97145600
_cell_angle_alpha   90.00000000
_cell_angle_beta   90.00000000
_cell_angle_gamma   119.99999513
_symmetry_Int_Tables_number   1
_chemical_formula_structural   Al5C3N
_chemical_formula_sum   'Al10 C6 N2'
_cell_volume   203.29340966
_cell_formula_units_Z   2
loop_
 _symmetry_equiv_pos_site_id
 _symmetry_equiv_pos_as_xyz
  1  'x, y, z'
loop_
 _atom_site_type_symbol
 _atom_site_label
 _atom_site_symmetry_multiplicity
 _atom_site_fract_x
 _atom_site_fract_y
 _atom_site_fract_z
 _atom_site_occupancy
  Al  Al0  1  0.33333300  0.66666700  0.25000000  1
  Al  Al1  1  0.66666700  0.33333300  0.75000000  1
  Al  Al2  1  0.00000000  0.00000000  0.84519000  1
  Al  Al3  1  0.00000000  0.00000000  0.34519000  1
  Al  Al4  1  0.66666700  0.33333300  0.95092100  1
  Al  Al5  1  0.33333300  0.66666700  0.45092100  1
  Al  Al6  1  0.66666700  0.33333300  0.54907900  1
  Al  Al7  1  0.33333300  0.66666700  0.04907900  1
  Al  Al8  1  0.00000000  0.00000000  0.65481000  1
  Al  Al9  1  0.00000000  0.00000000  0.15481000  1
  C  C0  1  0.33333300  0.66666700  0.13864900  1
  C  C1  1  0.66666700  0.33333300  0.63864900  1
  C  C2  1  0.66666700  0.33333300  0.86135100  1
  C  C3  1  0.33333300  0.66666700  0.36135100  1
  C  C4  1  0.00000000  0.00000000  0.50000000  1
  C  C5  1  0.00000000  0.00000000  0.00000000  1
  N  N0  1  0.00000000  0.00000000  0.25000000  1
  N  N1  1  0.00000000  0.00000000  0.75000000  1
loop_
_geom_bond_atom_site_label_1
_geom_bond_atom_site_label_2
_geom_bond_distance
_geom_bond_site_symmetry_2
Al0 N0 1.931617 1_565
Al0 N0 1.931620 1_555
Al0 N0 1.931620 1_665
Al0 C3 2.335193 1_555
Al0 C0 2.335193 1_555
Al1 N1 1.931617 1_655
Al1 N1 1.931620 1_665
Al1 N1 1.931620 1_555
Al1 C1 2.335193 1_555
Al1 C2 2.335193 1_555
Al2 C2 1.961125 1_455
Al2 C2 1.961128 1_445
Al2 C2 1.961128 1_555
Al2 N1 1.996273 1_555
Al3 C3 1.961125 1_545
Al3 C3 1.961128 1_555
Al3 C3 1.961128 1_445
Al3 N0 1.996273 1_555
Al4 C2 1.878413 1_555
Al4 C5 2.188725 1_656
Al4 C5 2.188727 1_666
Al4 C5 2.188727 1_556
Al5 C3 1.878413 1_555
Al5 C4 2.188725 1_565
Al5 C4 2.188727 1_555
Al5 C4 2.188727 1_665
Al6 C1 1.878413 1_555
Al6 C4 2.188725 1_655
Al6 C4 2.188727 1_665
Al6 C4 2.188727 1_555
Al7 C0 1.878413 1_555
Al7 C5 2.188725 1_565
Al7 C5 2.188727 1_555
Al7 C5 2.188727 1_665
Al8 C1 1.961125 1_455
Al8 C1 1.961128 1_555
Al8 C1 1.961128 1_445
Al8 N1 1.996273 1_555
Al9 C0 1.961125 1_545
Al9 C0 1.961128 1_555
Al9 C0 1.961128 1_445
Al9 N0 1.996273 1_555
