# generated using pymatgen
data_PH10C2NO4
_symmetry_space_group_name_H-M   'P 1'
_cell_length_a   9.49445100
_cell_length_b   6.85902600
_cell_length_c   9.65962917
_cell_angle_alpha   87.05721434
_cell_angle_beta   90.00000000
_cell_angle_gamma   90.00000000
_symmetry_Int_Tables_number   1
_chemical_formula_structural   PH10C2NO4
_chemical_formula_sum   'P4 H40 C8 N4 O16'
_cell_volume   628.23145602
_cell_formula_units_Z   4
loop_
 _symmetry_equiv_pos_site_id
 _symmetry_equiv_pos_as_xyz
  1  'x, y, z'
loop_
 _atom_site_type_symbol
 _atom_site_label
 _atom_site_symmetry_multiplicity
 _atom_site_fract_x
 _atom_site_fract_y
 _atom_site_fract_z
 _atom_site_occupancy
  P  P0  1  0.67536100  0.74478600  0.52073500  1
  P  P1  1  0.82463900  0.74478600  0.02073500  1
  P  P2  1  0.17536100  0.25521400  0.97926500  1
  P  P3  1  0.32463900  0.25521400  0.47926500  1
  H  H0  1  0.70608300  0.07297500  0.68811200  1
  H  H1  1  0.34258700  0.87966700  0.07196300  1
  H  H2  1  0.84258700  0.12033300  0.42803700  1
  H  H3  1  0.10008500  0.80372200  0.17884000  1
  H  H4  1  0.65562500  0.30811700  0.64453600  1
  H  H5  1  0.00000000  0.00000000  0.00000000  1
  H  H6  1  0.78749600  0.75841200  0.31578200  1
  H  H7  1  0.60008500  0.19627800  0.32116000  1
  H  H8  1  0.79391700  0.07297500  0.18811200  1
  H  H9  1  0.29391700  0.92702500  0.31188800  1
  H  H10  1  0.61275600  0.37091900  0.88385600  1
  H  H11  1  0.20608300  0.92702500  0.81188800  1
  H  H12  1  0.50581600  0.17672700  0.82313900  1
  H  H13  1  0.15741300  0.87966700  0.57196300  1
  H  H14  1  0.89991500  0.19627800  0.82116000  1
  H  H15  1  0.65736200  0.43980800  0.27374300  1
  H  H16  1  0.34437500  0.69188300  0.35546400  1
  H  H17  1  0.34263800  0.56019200  0.72625700  1
  H  H18  1  0.11275600  0.62908100  0.61614400  1
  H  H19  1  0.71250400  0.75841200  0.81578200  1
  H  H20  1  0.00581600  0.82327300  0.67686100  1
  H  H21  1  0.15562500  0.69188300  0.85546400  1
  H  H22  1  0.84437500  0.30811700  0.14453600  1
  H  H23  1  0.99418400  0.17672700  0.32313900  1
  H  H24  1  0.15736200  0.56019200  0.22625700  1
  H  H25  1  0.00000000  0.50000000  0.00000000  1
  H  H26  1  0.38724400  0.62908100  0.11614400  1
  H  H27  1  0.40585700  0.71552100  0.85607400  1
  H  H28  1  0.50000000  0.00000000  0.50000000  1
  H  H29  1  0.88724400  0.37091900  0.38385600  1
  H  H30  1  0.65741300  0.12033300  0.92803700  1
  H  H31  1  0.84263800  0.43980800  0.77374300  1
  H  H32  1  0.21250400  0.24158800  0.68421800  1
  H  H33  1  0.09414300  0.71552100  0.35607400  1
  H  H34  1  0.28749600  0.24158800  0.18421800  1
  H  H35  1  0.49418400  0.82327300  0.17686100  1
  H  H36  1  0.59414300  0.28447900  0.14392600  1
  H  H37  1  0.90585700  0.28447900  0.64392600  1
  H  H38  1  0.39991500  0.80372200  0.67884000  1
  H  H39  1  0.50000000  0.50000000  0.50000000  1
  C  C0  1  0.38690200  0.77828500  0.15170800  1
  C  C1  1  0.84780800  0.28941300  0.74158600  1
  C  C2  1  0.61309800  0.22171500  0.84829200  1
  C  C3  1  0.88690200  0.22171500  0.34829200  1
  C  C4  1  0.15219200  0.71058700  0.25841400  1
  C  C5  1  0.65219200  0.28941300  0.24158600  1
  C  C6  1  0.34780800  0.71058700  0.75841400  1
  C  C7  1  0.11309800  0.77828500  0.65170800  1
  N  N0  1  0.70198000  0.21709800  0.72148800  1
  N  N1  1  0.20198000  0.78290200  0.77851200  1
  N  N2  1  0.29802000  0.78290200  0.27851200  1
  N  N3  1  0.79802000  0.21709800  0.22148800  1
  O  O0  1  0.69340600  0.72911100  0.91856000  1
  O  O1  1  0.77083900  0.82774700  0.15453700  1
  O  O2  1  0.56342700  0.87439400  0.44372400  1
  O  O3  1  0.19340600  0.27088900  0.58144000  1
  O  O4  1  0.22916100  0.17225300  0.84546300  1
  O  O5  1  0.06342700  0.12560600  0.05627600  1
  O  O6  1  0.30659400  0.27088900  0.08144000  1
  O  O7  1  0.80659400  0.72911100  0.41856000  1
  O  O8  1  0.38568400  0.46527100  0.45218200  1
  O  O9  1  0.11431600  0.46527100  0.95218200  1
  O  O10  1  0.27083900  0.17225300  0.34546300  1
  O  O11  1  0.93657300  0.87439400  0.94372400  1
  O  O12  1  0.72916100  0.82774700  0.65453700  1
  O  O13  1  0.88568400  0.53472900  0.04781800  1
  O  O14  1  0.61431600  0.53472900  0.54781800  1
  O  O15  1  0.43657300  0.12560600  0.55627600  1
loop_
_geom_bond_atom_site_label_1
_geom_bond_atom_site_label_2
_geom_bond_distance
_geom_bond_site_symmetry_2
H0 N0 1.056126 1_555
H0 O12 1.743105 1_545
H4 N0 1.043236 1_555
H5 O11 1.203531 1_444
H5 O5 1.203531 1_555
H6 O7 1.019034 1_555
H6 O1 1.612804 1_555
H8 N3 1.056126 1_555
H8 O1 1.743105 1_545
H9 N2 1.056126 1_555
H9 O10 1.743105 1_565
H11 N1 1.056126 1_555
H11 O4 1.743105 1_565
H16 N2 1.043236 1_555
H19 O0 1.019034 1_555
H19 O12 1.612804 1_555
H21 N1 1.043236 1_555
H22 N3 1.043236 1_555
H25 O13 1.208064 1_455
H25 O9 1.208064 1_554
H28 O2 1.203531 1_545
H28 O15 1.203531 1_555
H32 O3 1.019034 1_555
H32 O4 1.612804 1_555
H34 O6 1.019034 1_555
H34 O10 1.612804 1_555
H39 O8 1.208064 1_555
H39 O14 1.208064 1_555
C0 H1 1.094969 1_555
C0 H35 1.095200 1_555
C0 H26 1.096112 1_555
C0 N2 1.489113 1_555
C1 H14 1.092362 1_555
C1 H31 1.093582 1_555
C1 H37 1.094582 1_555
C1 N0 1.486809 1_555
C2 H30 1.094969 1_555
C2 H12 1.095200 1_555
C2 H10 1.096112 1_555
C2 N0 1.489113 1_555
C3 H2 1.094969 1_555
C3 H23 1.095200 1_555
C3 H29 1.096112 1_555
C3 N3 1.489113 1_555
C4 H3 1.092362 1_555
C4 H24 1.093582 1_555
C4 H33 1.094582 1_555
C4 N2 1.486809 1_555
C5 H7 1.092362 1_555
C5 H15 1.093582 1_555
C5 H36 1.094582 1_555
C5 N3 1.486809 1_555
C6 H38 1.092362 1_555
C6 H17 1.093582 1_555
C6 H27 1.094582 1_555
C6 N1 1.486809 1_555
C7 H13 1.094969 1_555
C7 H20 1.095200 1_555
C7 H18 1.096112 1_555
C7 N1 1.489113 1_555
O0 P1 1.596574 1_556
O1 P1 1.526673 1_555
O2 P0 1.550876 1_555
O3 P3 1.596574 1_555
O4 P2 1.526673 1_555
O5 P2 1.550876 1_554
O6 P2 1.596574 1_554
O7 P0 1.596574 1_555
O8 P3 1.562539 1_555
O9 P2 1.562539 1_555
O10 P3 1.526673 1_555
O11 P1 1.550876 1_556
O12 P0 1.526673 1_555
O13 P1 1.562539 1_555
O14 P0 1.562539 1_555
O15 P3 1.550876 1_555
