# generated using pymatgen
data_Pr5Tl3
_symmetry_space_group_name_H-M   'P 1'
_cell_length_a   6.36229245
_cell_length_b   9.51488650
_cell_length_c   9.51492551
_cell_angle_alpha   83.59895496
_cell_angle_beta   70.46806593
_cell_angle_gamma   70.46798067
_symmetry_Int_Tables_number   1
_chemical_formula_structural   Pr5Tl3
_chemical_formula_sum   'Pr10 Tl6'
_cell_volume   511.61574133
_cell_formula_units_Z   2
loop_
 _symmetry_equiv_pos_site_id
 _symmetry_equiv_pos_as_xyz
  1  'x, y, z'
loop_
 _atom_site_type_symbol
 _atom_site_label
 _atom_site_symmetry_multiplicity
 _atom_site_fract_x
 _atom_site_fract_y
 _atom_site_fract_z
 _atom_site_occupancy
  Pr  Pr0  1  0.58597533  0.69705875  0.13099058  1
  Pr  Pr1  1  0.41402467  0.30294125  0.86900942  1
  Pr  Pr2  1  0.28299480  0.13108352  0.30292588  1
  Pr  Pr3  1  0.91402667  0.86900842  0.30293925  1
  Pr  Pr4  1  0.78299480  0.30292788  0.13108252  1
  Pr  Pr5  1  0.75000000  0.50000000  0.50000000  1
  Pr  Pr6  1  0.25000000  0.50000000  0.50000000  1
  Pr  Pr7  1  0.08597333  0.13099158  0.69706075  1
  Pr  Pr8  1  0.71700520  0.86891648  0.69707412  1
  Pr  Pr9  1  0.21700520  0.69707212  0.86891748  1
  Tl  Tl0  1  0.34001766  0.82010075  0.49986493  1
  Tl  Tl1  1  0.15998334  0.50013407  0.17989925  1
  Tl  Tl2  1  0.25000000  -0.00000000  0.00000000  1
  Tl  Tl3  1  0.84001666  0.49986593  0.82010075  1
  Tl  Tl4  1  0.65998234  0.17989925  0.50013507  1
  Tl  Tl5  1  0.75000000  0.00000000  0.00000000  1
loop_
_geom_bond_atom_site_label_1
_geom_bond_atom_site_label_2
_geom_bond_distance
_geom_bond_site_symmetry_2
Pr0 Tl3 3.300888 1_554
Pr0 Tl2 3.360300 1_565
Pr0 Tl5 3.360300 1_565
Pr0 Tl0 3.486663 1_555
Pr0 Tl1 3.664824 1_555
Pr0 Tl1 3.664824 1_655
Pr1 Tl1 3.300888 1_556
Pr1 Tl5 3.360300 1_556
Pr1 Tl2 3.360300 1_556
Pr1 Tl4 3.486663 1_555
Pr1 Tl3 3.664824 1_555
Pr1 Tl3 3.664824 1_455
Pr2 Tl0 3.301347 1_545
Pr2 Tl2 3.359863 1_555
Pr2 Tl5 3.359866 1_555
Pr2 Tl1 3.488793 1_555
Pr2 Tl4 3.665819 1_555
Pr2 Tl4 3.665819 1_455
Pr3 Tl4 3.300904 1_565
Pr3 Tl2 3.360295 1_665
Pr3 Tl5 3.360298 1_565
Pr3 Tl1 3.486645 1_655
Pr3 Tl0 3.664830 1_655
Pr3 Tl0 3.664831 1_555
Pr4 Tl3 3.301341 1_554
Pr4 Tl5 3.359868 1_555
Pr4 Tl2 3.359868 1_655
Pr4 Tl4 3.488828 1_555
Pr4 Tl1 3.665803 1_655
Pr4 Tl1 3.665803 1_555
Pr5 Pr6 3.181146 1_655
Pr5 Pr6 3.181146 1_555
Pr5 Tl0 3.281681 1_555
Pr5 Tl4 3.281684 1_555
Pr5 Tl3 3.281694 1_555
Pr5 Tl1 3.281694 1_655
Pr6 Tl4 3.281681 1_555
Pr6 Tl0 3.281684 1_555
Pr6 Tl1 3.281694 1_555
Pr6 Tl3 3.281694 1_455
Pr7 Tl0 3.300904 1_545
Pr7 Tl5 3.360295 1_456
Pr7 Tl2 3.360298 1_556
Pr7 Tl3 3.486645 1_455
Pr7 Tl4 3.664830 1_455
Pr7 Tl4 3.664831 1_555
Pr8 Tl4 3.301347 1_565
Pr8 Tl5 3.359863 1_566
Pr8 Tl2 3.359866 1_566
Pr8 Tl3 3.488793 1_555
Pr8 Tl0 3.665819 1_555
Pr8 Tl0 3.665819 1_655
Pr9 Tl1 3.301341 1_556
Pr9 Tl2 3.359868 1_566
Pr9 Tl5 3.359868 1_466
Pr9 Tl0 3.488828 1_555
Pr9 Tl3 3.665803 1_455
Pr9 Tl3 3.665803 1_555
Tl2 Tl5 3.181146 1_555
Tl2 Tl5 3.181146 1_455
