# generated using pymatgen
data_Tb4Ga12Pd
_symmetry_space_group_name_H-M   'P 1'
_cell_length_a   7.42993527
_cell_length_b   7.42993516
_cell_length_c   7.42993472
_cell_angle_alpha   109.47122231
_cell_angle_beta   109.47122195
_cell_angle_gamma   109.47121556
_symmetry_Int_Tables_number   1
_chemical_formula_structural   Tb4Ga12Pd
_chemical_formula_sum   'Tb4 Ga12 Pd1'
_cell_volume   315.74259365
_cell_formula_units_Z   1
loop_
 _symmetry_equiv_pos_site_id
 _symmetry_equiv_pos_as_xyz
  1  'x, y, z'
loop_
 _atom_site_type_symbol
 _atom_site_label
 _atom_site_symmetry_multiplicity
 _atom_site_fract_x
 _atom_site_fract_y
 _atom_site_fract_z
 _atom_site_occupancy
  Tb  Tb0  1  0.50000000  0.00000000  0.00000000  1
  Tb  Tb1  1  0.50000000  0.50000000  0.50000000  1
  Tb  Tb2  1  0.00000000  0.00000000  0.50000000  1
  Tb  Tb3  1  0.00000000  0.50000000  0.00000000  1
  Ga  Ga0  1  0.00000000  0.29728685  0.29728685  1
  Ga  Ga1  1  0.25000000  0.50000000  0.75000000  1
  Ga  Ga2  1  0.70271315  1.00000000  0.70271315  1
  Ga  Ga3  1  1.00000000  0.70271315  0.70271315  1
  Ga  Ga4  1  0.50000000  0.75000000  0.25000000  1
  Ga  Ga5  1  0.25000000  0.75000000  0.50000000  1
  Ga  Ga6  1  0.75000000  0.25000000  0.50000000  1
  Ga  Ga7  1  0.29728685  0.29728685  0.00000000  1
  Ga  Ga8  1  0.50000000  0.25000000  0.75000000  1
  Ga  Ga9  1  0.75000000  0.50000000  0.25000000  1
  Ga  Ga10  1  0.70271315  0.70271315  1.00000000  1
  Ga  Ga11  1  0.29728685  0.00000000  0.29728685  1
  Pd  Pd0  1  0.00000000  0.00000000  0.00000000  1
loop_
_geom_bond_atom_site_label_1
_geom_bond_atom_site_label_2
_geom_bond_distance
_geom_bond_site_symmetry_2
Ga0 Pd0 2.550528 1_555
Ga0 Ga1 2.761333 1_555
Ga0 Ga9 2.761333 1_455
Ga0 Ga6 2.761333 1_455
Ga0 Ga5 2.761333 1_555
Ga0 Tb3 3.060268 1_555
Ga0 Tb2 3.060268 1_555
Ga0 Tb1 3.060268 1_555
Ga0 Tb0 3.060268 1_455
Ga1 Ga7 2.761333 1_556
Ga1 Ga3 2.761333 1_455
Ga1 Ga10 2.761333 1_555
Ga1 Ga4 3.033258 1_556
Ga1 Ga8 3.033258 1_555
Ga1 Ga5 3.033258 1_555
Ga1 Tb3 3.033258 1_556
Ga1 Tb1 3.033258 1_555
Ga1 Tb0 3.033258 1_566
Ga1 Tb2 3.033258 1_555
Ga1 Ga6 3.033258 1_455
Ga2 Pd0 2.550528 1_666
Ga2 Ga4 2.761333 1_555
Ga2 Ga8 2.761333 1_565
Ga2 Ga6 2.761333 1_565
Ga2 Ga5 2.761333 1_555
Ga2 Tb0 3.060268 1_566
Ga2 Tb2 3.060268 1_665
Ga2 Tb1 3.060268 1_555
Ga2 Tb3 3.060268 1_666
Ga3 Pd0 2.550528 1_666
Ga3 Ga9 2.761333 1_555
Ga3 Ga5 2.761333 1_655
Ga3 Ga6 2.761333 1_555
Ga3 Tb3 3.060268 1_656
Ga3 Tb2 3.060268 1_665
Ga3 Tb1 3.060268 1_555
Ga3 Tb0 3.060268 1_666
Ga4 Ga7 2.761333 1_555
Ga4 Ga9 3.033258 1_555
Ga4 Tb1 3.033258 1_555
Ga4 Tb0 3.033258 1_565
Ga4 Ga5 3.033258 1_555
Ga4 Ga6 3.033258 1_565
Ga4 Tb3 3.033258 1_555
Ga4 Tb2 3.033258 1_665
Ga5 Tb3 3.033258 1_555
Ga5 Tb0 3.033258 1_566
Ga5 Tb2 3.033258 1_565
Ga5 Tb1 3.033258 1_555
Ga5 Ga8 3.033258 1_565
Ga5 Ga9 3.033258 1_455
Ga6 Tb0 3.033258 1_555
Ga6 Tb3 3.033258 1_656
Ga6 Tb1 3.033258 1_555
Ga6 Tb2 3.033258 1_655
Ga6 Ga9 3.033258 1_555
Ga6 Ga8 3.033258 1_555
Ga7 Pd0 2.550528 1_555
Ga7 Ga8 2.761333 1_554
Ga7 Ga9 2.761333 1_555
Ga7 Tb1 3.060268 1_555
Ga7 Tb2 3.060268 1_554
Ga7 Tb0 3.060268 1_555
Ga7 Tb3 3.060268 1_555
Ga8 Ga9 3.033258 1_556
Ga8 Tb0 3.033258 1_556
Ga8 Tb1 3.033258 1_555
Ga8 Tb3 3.033258 1_656
Ga8 Tb2 3.033258 1_555
Ga9 Tb3 3.033258 1_655
Ga9 Tb1 3.033258 1_555
Ga9 Tb2 3.033258 1_665
Ga9 Tb0 3.033258 1_555
Ga10 Pd0 2.550528 1_666
Ga10 Ga9 2.761333 1_556
Ga10 Ga4 2.761333 1_556
Ga10 Ga8 2.761333 1_555
Ga10 Tb1 3.060268 1_555
Ga10 Tb2 3.060268 1_666
Ga10 Tb0 3.060268 1_566
Ga10 Tb3 3.060268 1_656
Ga11 Pd0 2.550528 1_555
Ga11 Ga8 2.761333 1_555
Ga11 Ga4 2.761333 1_545
Ga11 Ga5 2.761333 1_545
Ga11 Ga6 2.761333 1_555
Ga11 Tb0 3.060268 1_555
Ga11 Tb2 3.060268 1_555
Ga11 Tb1 3.060268 1_555
Ga11 Tb3 3.060268 1_545
