# generated using pymatgen
data_BaCr2O7
_symmetry_space_group_name_H-M   'P 1'
_cell_length_a   11.63949680
_cell_length_b   11.63950220
_cell_length_c   9.51354671
_cell_angle_alpha   88.05362494
_cell_angle_beta   88.05366180
_cell_angle_gamma   91.17092715
_symmetry_Int_Tables_number   1
_chemical_formula_structural   BaCr2O7
_chemical_formula_sum   'Ba8 Cr16 O56'
_cell_volume   1287.08828699
_cell_formula_units_Z   8
loop_
 _symmetry_equiv_pos_site_id
 _symmetry_equiv_pos_as_xyz
  1  'x, y, z'
loop_
 _atom_site_type_symbol
 _atom_site_label
 _atom_site_symmetry_multiplicity
 _atom_site_fract_x
 _atom_site_fract_y
 _atom_site_fract_z
 _atom_site_occupancy
  Ba  Ba0  1  0.46155015  0.53845054  0.24999985  1
  Ba  Ba1  1  0.53845021  0.46155047  0.75000027  1
  Ba  Ba2  1  0.04261237  0.95738879  0.25000054  1
  Ba  Ba3  1  0.95738618  0.04261119  0.74999888  1
  Ba  Ba4  1  0.55040684  0.03877112  0.71547159  1
  Ba  Ba5  1  0.96123016  0.44959345  0.78453017  1
  Ba  Ba6  1  0.44959247  0.96122887  0.28452819  1
  Ba  Ba7  1  0.03877133  0.55040704  0.21546902  1
  Cr  Cr0  1  0.24936601  0.40711966  0.50098481  1
  Cr  Cr1  1  0.59288177  0.75063318  0.99901616  1
  Cr  Cr2  1  0.75063376  0.59288064  0.49901592  1
  Cr  Cr3  1  0.40711865  0.24936678  0.00098330  1
  Cr  Cr4  1  0.13528999  0.25222419  0.00580083  1
  Cr  Cr5  1  0.74777730  0.86470744  0.49419861  1
  Cr  Cr6  1  0.86471047  0.74777629  0.99419948  1
  Cr  Cr7  1  0.25222170  0.13529024  0.50580234  1
  Cr  Cr8  1  0.90749125  0.25604972  0.45997882  1
  Cr  Cr9  1  0.74395069  0.09250704  0.04002012  1
  Cr  Cr10  1  0.09250768  0.74395013  0.54002062  1
  Cr  Cr11  1  0.25604817  0.90749237  0.95997916  1
  Cr  Cr12  1  0.75453593  0.37226431  0.06184170  1
  Cr  Cr13  1  0.62773367  0.24546412  0.43815709  1
  Cr  Cr14  1  0.24546527  0.62773799  0.93815716  1
  Cr  Cr15  1  0.37226707  0.75453609  0.56184260  1
  O  O0  1  0.61789719  0.57551220  0.45558908  1
  O  O1  1  0.42448514  0.38210504  0.04441392  1
  O  O2  1  0.38210512  0.42448704  0.54441171  1
  O  O3  1  0.57551565  0.61789513  0.95558560  1
  O  O4  1  0.22578700  0.50145533  0.37592833  1
  O  O5  1  0.49854375  0.77421154  0.12407187  1
  O  O6  1  0.77421532  0.49854469  0.62406985  1
  O  O7  1  0.50145644  0.22578828  0.87592709  1
  O  O8  1  0.83713947  0.58224508  0.36487933  1
  O  O9  1  0.41775015  0.16285737  0.13511954  1
  O  O10  1  0.16286126  0.41775559  0.63512241  1
  O  O11  1  0.58225006  0.83714232  0.86487968  1
  O  O12  1  0.23273621  0.27179042  0.42752511  1
  O  O13  1  0.72820939  0.76726202  0.07248254  1
  O  O14  1  0.76726298  0.72820882  0.57247515  1
  O  O15  1  0.27179087  0.23273827  0.92751711  1
  O  O16  1  0.96183232  0.76506447  0.11201035  1
  O  O17  1  0.23493617  0.03817028  0.38799055  1
  O  O18  1  0.03816898  0.23493665  0.88798867  1
  O  O19  1  0.76506141  0.96182850  0.61200907  1
  O  O20  1  0.13233012  0.38212750  0.05907733  1
  O  O21  1  0.61787487  0.86766970  0.44092085  1
  O  O22  1  0.86767036  0.61787291  0.94092322  1
  O  O23  1  0.38212495  0.13232898  0.55907903  1
  O  O24  1  0.11625037  0.16172273  0.13616602  1
  O  O25  1  0.83827544  0.88375145  0.36383265  1
  O  O26  1  0.88374957  0.83827718  0.86383298  1
  O  O27  1  0.16172369  0.11624678  0.63616827  1
  O  O28  1  0.10231587  0.74013712  0.36888806  1
  O  O29  1  0.25986048  0.89768618  0.13111113  1
  O  O30  1  0.89768510  0.25986322  0.63111072  1
  O  O31  1  0.74013861  0.10231402  0.86888841  1
  O  O32  1  0.95336614  0.12987737  0.42122861  1
  O  O33  1  0.87012316  0.04663128  0.07877437  1
  O  O34  1  0.04663273  0.87012295  0.57877400  1
  O  O35  1  0.12987638  0.95336898  0.92122858  1
  O  O36  1  0.99219165  0.35782318  0.39743246  1
  O  O37  1  0.64217539  0.00780844  0.10256699  1
  O  O38  1  0.00780807  0.64217515  0.60256740  1
  O  O39  1  0.35782229  0.99219337  0.89743501  1
  O  O40  1  0.77220058  0.28012896  0.39096399  1
  O  O41  1  0.71987199  0.22779899  0.10903700  1
  O  O42  1  0.22780005  0.71986984  0.60903826  1
  O  O43  1  0.28012723  0.77220184  0.89096406  1
  O  O44  1  0.89045987  0.39859168  0.08209702  1
  O  O45  1  0.60140825  0.10954131  0.41790242  1
  O  O46  1  0.10954230  0.60140935  0.91790181  1
  O  O47  1  0.39859156  0.89045945  0.58209879  1
  O  O48  1  0.26943092  0.60949149  0.10468452  1
  O  O49  1  0.39051184  0.73056937  0.39531423  1
  O  O50  1  0.73056887  0.39051026  0.89531320  1
  O  O51  1  0.60948752  0.26943114  0.60468471  1
  O  O52  1  0.67594385  0.45524559  0.15362713  1
  O  O53  1  0.54475321  0.32405513  0.34637077  1
  O  O54  1  0.32405715  0.54475654  0.84637311  1
  O  O55  1  0.45524756  0.67594386  0.65362870  1
loop_
_geom_bond_atom_site_label_1
_geom_bond_atom_site_label_2
_geom_bond_distance
_geom_bond_site_symmetry_2
Ba0 O1 2.755012 1_555
Ba0 O0 2.755040 1_555
Ba0 O49 2.793425 1_555
Ba0 O48 2.793441 1_555
Ba0 O52 2.830089 1_555
Ba0 O53 2.830093 1_555
Ba0 O5 2.973940 1_555
Ba0 O4 2.973966 1_555
Ba0 O2 3.159308 1_555
Ba0 O3 3.159335 1_554
Ba1 O3 2.755002 1_555
Ba1 O2 2.755023 1_555
Ba1 O50 2.793421 1_555
Ba1 O51 2.793432 1_555
Ba1 O55 2.830072 1_555
Ba1 O54 2.830087 1_555
Ba1 O7 2.973949 1_555
Ba1 O6 2.973992 1_555
Ba1 O0 3.159300 1_555
Ba1 O1 3.159330 1_556
Ba2 O24 2.691219 1_565
Ba2 O25 2.691238 1_455
Ba2 O17 2.795714 1_565
Ba2 O16 2.795715 1_455
Ba2 O33 2.820597 1_465
Ba2 O32 2.820620 1_465
Ba2 O29 2.843807 1_555
Ba2 O28 2.843840 1_555
Ba2 O35 3.257759 1_554
Ba2 O34 3.257778 1_555
Ba3 O26 2.691214 1_545
Ba3 O27 2.691233 1_655
Ba3 O19 2.795727 1_545
Ba3 O18 2.795735 1_655
Ba3 O34 2.820601 1_645
Ba3 O35 2.820625 1_645
Ba3 O31 2.843803 1_555
Ba3 O30 2.843838 1_555
Ba3 O32 3.257750 1_555
Ba3 O33 3.257788 1_556
Ba4 O23 2.722349 1_555
Ba4 O11 2.740482 1_545
Ba4 O7 2.758724 1_555
Ba4 O31 2.789218 1_555
Ba4 O47 2.808718 1_545
Ba4 O39 2.817515 1_545
Ba4 O19 2.827990 1_545
Ba4 O51 2.911156 1_555
Ba4 O45 2.958479 1_555
Ba5 O22 2.722341 1_555
Ba5 O10 2.740492 1_655
Ba5 O6 2.758728 1_555
Ba5 O30 2.789226 1_555
Ba5 O46 2.808720 1_655
Ba5 O38 2.817487 1_655
Ba5 O18 2.827985 1_655
Ba5 O50 2.911163 1_555
Ba5 O44 2.958459 1_556
Ba6 O21 2.722360 1_555
Ba6 O9 2.740480 1_565
Ba6 O5 2.758732 1_555
Ba6 O29 2.789221 1_555
Ba6 O45 2.808733 1_565
Ba6 O37 2.817492 1_565
Ba6 O17 2.828003 1_565
Ba6 O49 2.911148 1_555
Ba6 O47 2.958489 1_555
Ba7 O20 2.722330 1_555
Ba7 O8 2.740512 1_455
Ba7 O4 2.758732 1_555
Ba7 O28 2.789221 1_555
Ba7 O44 2.808713 1_455
Ba7 O36 2.817513 1_455
Ba7 O16 2.827993 1_455
Ba7 O48 2.911153 1_555
Ba7 O46 2.958465 1_554
Cr0 O10 1.608153 1_555
Cr0 O2 1.623236 1_555
Cr0 O4 1.625480 1_555
Cr0 O12 1.754572 1_555
Cr1 O11 1.608170 1_555
Cr1 O3 1.623233 1_555
Cr1 O5 1.625492 1_556
Cr1 O13 1.754581 1_556
Cr2 O8 1.608152 1_555
Cr2 O0 1.623209 1_555
Cr2 O6 1.625471 1_555
Cr2 O14 1.754559 1_555
Cr3 O9 1.608169 1_555
Cr3 O1 1.623236 1_555
Cr3 O7 1.625494 1_554
Cr3 O15 1.754581 1_554
Cr4 O24 1.606230 1_555
Cr4 O20 1.611601 1_555
Cr4 O18 1.633000 1_554
Cr4 O15 1.753915 1_554
Cr5 O25 1.606216 1_555
Cr5 O21 1.611595 1_555
Cr5 O19 1.632984 1_555
Cr5 O14 1.753864 1_555
Cr6 O26 1.606234 1_555
Cr6 O22 1.611601 1_555
Cr6 O16 1.632999 1_556
Cr6 O13 1.753914 1_556
Cr7 O27 1.606214 1_555
Cr7 O23 1.611600 1_555
Cr7 O17 1.632986 1_555
Cr7 O12 1.753883 1_555
Cr8 O36 1.610531 1_555
Cr8 O32 1.622717 1_555
Cr8 O30 1.630370 1_555
Cr8 O40 1.750754 1_555
Cr9 O37 1.610535 1_555
Cr9 O33 1.622730 1_555
Cr9 O31 1.630368 1_554
Cr9 O41 1.750776 1_555
Cr10 O38 1.610539 1_555
Cr10 O34 1.622729 1_555
Cr10 O28 1.630377 1_555
Cr10 O42 1.750785 1_555
Cr11 O39 1.610533 1_555
Cr11 O35 1.622717 1_555
Cr11 O29 1.630370 1_556
Cr11 O43 1.750755 1_555
Cr12 O52 1.603535 1_555
Cr12 O44 1.624481 1_555
Cr12 O50 1.625559 1_554
Cr12 O41 1.760830 1_555
Cr13 O53 1.603526 1_555
Cr13 O45 1.624464 1_555
Cr13 O51 1.625552 1_555
Cr13 O40 1.760845 1_555
Cr14 O54 1.603528 1_555
Cr14 O46 1.624473 1_555
Cr14 O48 1.625546 1_556
Cr14 O43 1.760805 1_555
Cr15 O55 1.603533 1_555
Cr15 O47 1.624471 1_555
Cr15 O49 1.625556 1_555
Cr15 O42 1.760855 1_555
