# generated using pymatgen
data_Cs6Na2Nb6H36O37
_symmetry_space_group_name_H-M   'P 1'
_cell_length_a   10.61342355
_cell_length_b   10.61342320
_cell_length_c   10.61342333
_cell_angle_alpha   73.96925462
_cell_angle_beta   73.96925516
_cell_angle_gamma   73.96925108
_symmetry_Int_Tables_number   1
_chemical_formula_structural   Cs6Na2Nb6H36O37
_chemical_formula_sum   'Cs6 Na2 Nb6 H36 O37'
_cell_volume   1078.20629251
_cell_formula_units_Z   1
loop_
 _symmetry_equiv_pos_site_id
 _symmetry_equiv_pos_as_xyz
  1  'x, y, z'
loop_
 _atom_site_type_symbol
 _atom_site_label
 _atom_site_symmetry_multiplicity
 _atom_site_fract_x
 _atom_site_fract_y
 _atom_site_fract_z
 _atom_site_occupancy
  Cs  Cs0  1  0.52843120  0.94566605  0.27244182  1
  Cs  Cs1  1  0.94566605  0.27244182  0.52843120  1
  Cs  Cs2  1  0.27244182  0.52843120  0.94566605  1
  Cs  Cs3  1  0.47156880  0.05433395  0.72755818  1
  Cs  Cs4  1  0.72755818  0.47156880  0.05433395  1
  Cs  Cs5  1  0.05433395  0.72755818  0.47156880  1
  Na  Na0  1  0.28276902  0.28276902  0.28276902  1
  Na  Na1  1  0.71723098  0.71723098  0.71723098  1
  Nb  Nb0  1  0.78502961  0.09303696  0.93919816  1
  Nb  Nb1  1  0.21497039  0.90696304  0.06080184  1
  Nb  Nb2  1  0.09303696  0.93919816  0.78502961  1
  Nb  Nb3  1  0.93919816  0.78502961  0.09303696  1
  Nb  Nb4  1  0.06080184  0.21497039  0.90696304  1
  Nb  Nb5  1  0.90696304  0.06080184  0.21497039  1
  H  H0  1  0.39478378  0.78582166  0.78783563  1
  H  H1  1  0.37593165  0.42138892  0.66793096  1
  H  H2  1  0.71227468  0.21626329  0.43697992  1
  H  H3  1  0.21417834  0.21216437  0.60521622  1
  H  H4  1  0.72586138  0.65772110  0.45494634  1
  H  H5  1  0.68487758  0.82588527  0.96482349  1
  H  H6  1  0.42138892  0.66793096  0.37593165  1
  H  H7  1  0.60521622  0.21417834  0.21216437  1
  H  H8  1  0.66793096  0.37593165  0.42138892  1
  H  H9  1  0.34227890  0.54505366  0.27413862  1
  H  H10  1  0.45494634  0.72586138  0.65772110  1
  H  H11  1  0.57861108  0.33206904  0.62406835  1
  H  H12  1  0.62406835  0.57861108  0.33206904  1
  H  H13  1  0.78783563  0.39478378  0.78582166  1
  H  H14  1  0.43697992  0.71227468  0.21626329  1
  H  H15  1  0.54505366  0.27413862  0.34227890  1
  H  H16  1  0.00779555  0.46185619  0.19816521  1
  H  H17  1  0.33206904  0.62406835  0.57861108  1
  H  H18  1  0.21626329  0.43697992  0.71227468  1
  H  H19  1  0.82588527  0.96482349  0.68487758  1
  H  H20  1  0.99220445  0.53814381  0.80183479  1
  H  H21  1  0.31512242  0.17411473  0.03517651  1
  H  H22  1  0.46185619  0.19816521  0.00779555  1
  H  H23  1  0.03517651  0.31512242  0.17411473  1
  H  H24  1  0.56302008  0.28772532  0.78373671  1
  H  H25  1  0.78373671  0.56302008  0.28772532  1
  H  H26  1  0.53814381  0.80183479  0.99220445  1
  H  H27  1  0.96482349  0.68487758  0.82588527  1
  H  H28  1  0.17411473  0.03517651  0.31512242  1
  H  H29  1  0.19816521  0.00779555  0.46185619  1
  H  H30  1  0.27413862  0.34227890  0.54505366  1
  H  H31  1  0.78582166  0.78783563  0.39478378  1
  H  H32  1  0.21216437  0.60521622  0.21417834  1
  H  H33  1  0.65772110  0.45494634  0.72586138  1
  H  H34  1  0.80183479  0.99220445  0.53814381  1
  H  H35  1  0.28772532  0.78373671  0.56302008  1
  O  O0  1  0.12744964  0.12598980  0.74738420  1
  O  O1  1  0.16590694  0.89596906  0.62005124  1
  O  O2  1  0.62932969  0.78281164  0.93430327  1
  O  O3  1  0.63587941  0.29120933  0.46704679  1
  O  O4  1  0.10403094  0.37994876  0.83409306  1
  O  O5  1  0.70879067  0.53295321  0.36412059  1
  O  O6  1  0.25261580  0.87255036  0.87401020  1
  O  O7  1  0.12598980  0.74738420  0.12744964  1
  O  O8  1  0.53295321  0.36412059  0.70879067  1
  O  O9  1  0.52004405  0.26091662  0.26472813  1
  O  O10  1  0.93430327  0.62932969  0.78281164  1
  O  O11  1  0.74738420  0.12744964  0.12598980  1
  O  O12  1  0.47995595  0.73908338  0.73527187  1
  O  O13  1  0.73908338  0.73527187  0.47995595  1
  O  O14  1  0.46704679  0.63587941  0.29120933  1
  O  O15  1  0.21718836  0.06569673  0.37067031  1
  O  O16  1  0.26472813  0.52004405  0.26091662  1
  O  O17  1  0.90073542  0.02737014  0.77398461  1
  O  O18  1  0.97262986  0.22601539  0.09926458  1
  O  O19  1  0.26091662  0.26472813  0.52004405  1
  O  O20  1  0.87255036  0.87401020  0.25261580  1
  O  O21  1  0.02737014  0.77398461  0.90073542  1
  O  O22  1  0.77398461  0.90073542  0.02737014  1
  O  O23  1  0.83409306  0.10403094  0.37994876  1
  O  O24  1  0.36412059  0.70879067  0.53295321  1
  O  O25  1  0.73527187  0.47995595  0.73908338  1
  O  O26  1  0.78281164  0.93430327  0.62932969  1
  O  O27  1  0.89596906  0.62005124  0.16590694  1
  O  O28  1  0.87401020  0.25261580  0.87255036  1
  O  O29  1  0.29120933  0.46704679  0.63587941  1
  O  O30  1  0.37994876  0.83409306  0.10403094  1
  O  O31  1  0.00000000  0.00000000  0.00000000  1
  O  O32  1  0.37067031  0.21718836  0.06569673  1
  O  O33  1  0.62005124  0.16590694  0.89596906  1
  O  O34  1  0.09926458  0.97262986  0.22601539  1
  O  O35  1  0.06569673  0.37067031  0.21718836  1
  O  O36  1  0.22601539  0.09926458  0.97262986  1
loop_
_geom_bond_atom_site_label_1
_geom_bond_atom_site_label_2
_geom_bond_distance
_geom_bond_site_symmetry_2
Cs0 H7 3.030313 1_565
Cs0 H14 3.145917 1_555
Cs0 O22 3.168540 1_555
Cs0 O15 3.182633 1_565
Cs0 H31 3.191416 1_555
Cs0 O11 3.219258 1_565
Cs0 H6 3.249365 1_555
Cs0 O30 3.291813 1_555
Cs0 O9 3.301186 1_565
Cs0 H22 3.385759 1_565
Cs0 O32 3.434357 1_565
Cs0 O13 3.475852 1_555
Cs0 O20 3.477306 1_555
Cs0 O24 3.595226 1_555
Cs1 H3 3.030313 1_655
Cs1 H2 3.145917 1_555
Cs1 O17 3.168540 1_555
Cs1 O35 3.182633 1_655
Cs1 H13 3.191416 1_555
Cs1 O0 3.219258 1_655
Cs1 H8 3.249365 1_555
Cs1 O23 3.291813 1_555
Cs1 O19 3.301186 1_655
Cs1 H29 3.385759 1_655
Cs1 O15 3.434357 1_655
Cs1 O25 3.475852 1_555
Cs1 O28 3.477306 1_555
Cs1 O5 3.595226 1_555
Cs2 H32 3.030313 1_556
Cs2 H18 3.145917 1_555
Cs2 O21 3.168540 1_555
Cs2 O32 3.182632 1_556
Cs2 H0 3.191416 1_555
Cs2 O7 3.219258 1_556
Cs2 H1 3.249365 1_555
Cs2 O4 3.291814 1_555
Cs2 O16 3.301186 1_556
Cs2 H16 3.385759 1_556
Cs2 O35 3.434357 1_556
Cs2 O12 3.475852 1_555
Cs2 O6 3.477306 1_555
Cs2 O8 3.595226 1_555
Cs3 H0 3.030313 1_545
Cs3 H24 3.145917 1_555
Cs3 O36 3.168540 1_555
Cs3 O26 3.182633 1_545
Cs3 H3 3.191416 1_555
Cs3 O6 3.219258 1_545
Cs3 H11 3.249365 1_555
Cs3 O33 3.291813 1_555
Cs3 O12 3.301186 1_545
Cs3 H26 3.385759 1_545
Cs3 O2 3.434357 1_545
Cs3 O19 3.475852 1_555
Cs3 O0 3.477306 1_555
Cs3 O3 3.595226 1_555
Cs4 H13 3.030313 1_554
Cs4 H25 3.145917 1_555
Cs4 O18 3.168540 1_555
Cs4 O2 3.182632 1_554
Cs4 H7 3.191416 1_555
Cs4 O28 3.219258 1_554
Cs4 H12 3.249365 1_555
Cs4 O27 3.291814 1_555
Cs4 O25 3.301186 1_554
Cs4 H20 3.385759 1_554
Cs4 O10 3.434357 1_554
Cs4 O9 3.475852 1_555
Cs4 O11 3.477306 1_555
Cs4 O14 3.595226 1_555
Cs5 H31 3.030313 1_455
Cs5 H35 3.145917 1_555
Cs5 O34 3.168540 1_555
Cs5 O10 3.182633 1_455
Cs5 H32 3.191416 1_555
Cs5 O20 3.219258 1_455
Cs5 H17 3.249365 1_555
Cs5 O1 3.291813 1_555
Cs5 O13 3.301186 1_455
Cs5 H34 3.385759 1_455
Cs5 O26 3.434357 1_455
Cs5 O16 3.475852 1_555
Cs5 O7 3.477306 1_555
Cs5 O29 3.595226 1_555
Na0 O16 2.422378 1_555
Na0 O19 2.422378 1_555
Na0 O9 2.422378 1_555
Na0 O35 2.450023 1_555
Na0 O32 2.450023 1_555
Na0 O15 2.450023 1_555
Na1 O25 2.422378 1_555
Na1 O13 2.422378 1_555
Na1 O12 2.422378 1_555
Na1 O10 2.450023 1_555
Na1 O2 2.450023 1_555
Na1 O26 2.450023 1_555
Nb0 O33 1.836950 1_555
Nb0 O22 2.017854 1_546
Nb0 O17 2.020263 1_555
Nb0 O11 2.026122 1_556
Nb0 O28 2.028187 1_555
Nb0 O31 2.411221 1_656
Nb1 O30 1.836950 1_555
Nb1 O36 2.017854 1_564
Nb1 O34 2.020263 1_555
Nb1 O6 2.026122 1_554
Nb1 O7 2.028187 1_555
Nb1 O31 2.411221 1_565
Nb2 O1 1.836950 1_555
Nb2 O17 2.017854 1_465
Nb2 O21 2.020263 1_555
Nb2 O0 2.026122 1_565
Nb2 O6 2.028187 1_555
Nb2 O31 2.411221 1_566
Nb3 O27 1.836950 1_555
Nb3 O21 2.017854 1_654
Nb3 O22 2.020263 1_555
Nb3 O7 2.026122 1_655
Nb3 O20 2.028187 1_555
Nb3 O31 2.411221 1_665
Nb4 O4 1.836950 1_555
Nb4 O18 2.017854 1_456
Nb4 O36 2.020263 1_555
Nb4 O28 2.026122 1_455
Nb4 O0 2.028187 1_555
Nb4 O31 2.411221 1_556
Nb5 O23 1.836950 1_555
Nb5 O34 2.017854 1_645
Nb5 O18 2.020263 1_555
Nb5 O20 2.026122 1_545
Nb5 O11 2.028187 1_555
Nb5 O31 2.411221 1_655
H0 O12 1.000554 1_555
H0 O6 1.701828 1_555
H1 O29 0.998164 1_555
H2 O3 1.016390 1_555
H2 O23 1.603832 1_555
H3 O19 1.000554 1_555
H3 O0 1.701828 1_555
H4 O13 0.986226 1_555
H5 O2 0.998806 1_555
H6 O14 0.998164 1_555
H7 O9 1.000554 1_555
H7 O11 1.701828 1_555
H8 O3 0.998164 1_555
H9 O16 0.986226 1_555
H10 O12 0.986226 1_555
H11 O8 0.998164 1_555
H12 O5 0.998164 1_555
H13 O25 1.000554 1_555
H13 O28 1.701828 1_555
H14 O14 1.016390 1_555
H14 O30 1.603832 1_555
H15 O9 0.986226 1_555
H16 O35 0.993562 1_555
H17 O24 0.998164 1_555
H18 O29 1.016390 1_555
H18 O4 1.603832 1_555
H19 O26 0.998806 1_555
H20 O10 0.993562 1_555
H21 O32 0.998806 1_555
H22 O32 0.993562 1_555
H23 O35 0.998806 1_555
H24 O8 1.016390 1_555
H24 O33 1.603832 1_555
H25 O5 1.016390 1_555
H25 O27 1.603832 1_555
H26 O2 0.993562 1_555
H27 O10 0.998806 1_555
H28 O15 0.998806 1_555
H29 O15 0.993562 1_555
H30 O19 0.986226 1_555
H31 O13 1.000554 1_555
H31 O20 1.701828 1_555
H32 O16 1.000554 1_555
H32 O7 1.701828 1_555
H33 O25 0.986226 1_555
H34 O26 0.993562 1_555
H35 O24 1.016390 1_555
H35 O1 1.603832 1_555
