# generated using pymatgen
data_La9Mn10O30
_symmetry_space_group_name_H-M   'P 1'
_cell_length_a   11.04170617
_cell_length_b   27.62256373
_cell_length_c   18.22499315
_cell_angle_alpha   25.49764277
_cell_angle_beta   41.63479942
_cell_angle_gamma   60.71021777
_symmetry_Int_Tables_number   1
_chemical_formula_structural   La9Mn10O30
_chemical_formula_sum   'La18 Mn20 O60'
_cell_volume   1210.60280519
_cell_formula_units_Z   2
loop_
 _symmetry_equiv_pos_site_id
 _symmetry_equiv_pos_as_xyz
  1  'x, y, z'
loop_
 _atom_site_type_symbol
 _atom_site_label
 _atom_site_symmetry_multiplicity
 _atom_site_fract_x
 _atom_site_fract_y
 _atom_site_fract_z
 _atom_site_occupancy
  La  La0  1  0.99356227  0.14415919  0.26388969  1
  La  La1  1  0.00021265  0.35015747  0.24967014  1
  La  La2  1  0.01210307  0.05751257  0.73742406  1
  La  La3  1  0.48789693  0.14248743  0.26257594  1
  La  La4  1  0.00083244  0.74909270  0.25108956  1
  La  La5  1  0.00129412  0.24820209  0.74824691  1
  La  La6  1  0.98619789  0.44334491  0.76876161  1
  La  La7  1  0.50964749  0.55428575  0.24218316  1
  La  La8  1  0.50643773  0.05584081  0.73611031  1
  La  La9  1  0.99035251  0.64571425  0.75781684  1
  La  La10  1  0.51380211  0.75665509  0.23123839  1
  La  La11  1  0.50308106  0.25446520  0.74309191  1
  La  La12  1  0.49870588  0.95179791  0.25175309  1
  La  La13  1  0.49916756  0.45090730  0.74891044  1
  La  La14  1  0.99925142  0.55739510  0.23741688  1
  La  La15  1  0.50074858  0.64260490  0.76258312  1
  La  La16  1  0.49978735  0.84984253  0.75032986  1
  La  La17  1  0.99691894  0.94553480  0.25690809  1
  Mn  Mn0  1  0.00307578  0.00225865  0.99582841  1
  Mn  Mn1  1  0.00074801  0.19982432  0.99965964  1
  Mn  Mn2  1  0.99802790  0.40054602  0.99962762  1
  Mn  Mn3  1  0.49925199  0.00017568  0.00034036  1
  Mn  Mn4  1  0.00169950  0.60283087  0.99517965  1
  Mn  Mn5  1  0.00059182  0.09826031  0.50232957  1
  Mn  Mn6  1  0.49692422  0.19774135  0.00417159  1
  Mn  Mn7  1  0.99904673  0.80125021  0.99785716  1
  Mn  Mn8  1  0.00408901  0.30086984  0.49710893  1
  Mn  Mn9  1  0.50095327  0.39874979  0.00214284  1
  Mn  Mn10  1  0.49830050  0.59716913  0.00482035  1
  Mn  Mn11  1  0.49940818  0.10173969  0.49767043  1
  Mn  Mn12  1  0.99635668  0.69686571  0.50530644  1
  Mn  Mn13  1  0.50197210  0.79945398  0.00037238  1
  Mn  Mn14  1  0.49906341  0.29991415  0.49792437  1
  Mn  Mn15  1  0.50364332  0.50313429  0.49469356  1
  Mn  Mn16  1  0.50044943  0.70164819  0.49769896  1
  Mn  Mn17  1  0.49591099  0.89913016  0.50289107  1
  Mn  Mn18  1  0.99955057  0.49835181  0.50230104  1
  Mn  Mn19  1  0.00093659  0.90008585  0.50207563  1
  O  O0  1  0.23808735  0.07770753  0.21333000  1
  O  O1  1  0.28469992  0.18819066  0.18607705  1
  O  O2  1  0.22404538  0.26454386  0.24436717  1
  O  O3  1  0.48351271  0.04038655  0.26687600  1
  O  O4  1  0.26503671  0.38293288  0.19481919  1
  O  O5  1  0.21447335  0.46486858  0.24880290  1
  O  O6  1  0.44467973  0.22009341  0.30684941  1
  O  O7  1  0.72102045  0.06160908  0.25007586  1
  O  O8  1  0.01648729  0.15961345  0.73312400  1
  O  O9  1  0.27593676  0.58829431  0.18891471  1
  O  O10  1  0.21530008  0.01180934  0.81392295  1
  O  O11  1  0.77601819  0.18298416  0.19386040  1
  O  O12  1  0.21048799  0.65588190  0.26390050  1
  O  O13  1  0.43673197  0.43295179  0.31130562  1
  O  O14  1  0.73763105  0.25087490  0.25576756  1
  O  O15  1  0.93835613  0.02566555  0.31099195  1
  O  O16  1  0.06799778  0.37659502  0.68284358  1
  O  O17  1  0.26191265  0.12229247  0.78667000  1
  O  O18  1  0.28214005  0.79001301  0.18209931  1
  O  O19  1  0.22142851  0.21291333  0.81265378  1
  O  O20  1  0.79849392  0.38705233  0.18528403  1
  O  O21  1  0.22621540  0.86412816  0.24242266  1
  O  O22  1  0.42714847  0.62244210  0.32347603  1
  O  O23  1  0.72536027  0.46335486  0.24424813  1
  O  O24  1  0.94973433  0.23201560  0.30044673  1
  O  O25  1  0.07285153  0.57755790  0.67652397  1
  O  O26  1  0.27378460  0.33587184  0.75757734  1
  O  O27  1  0.56164387  0.17433445  0.68900805  1
  O  O28  1  0.27857149  0.98708667  0.18734622  1
  O  O29  1  0.21785995  0.40998699  0.81790069  1
  O  O30  1  0.75893233  0.56247896  0.22990710  1
  O  O31  1  0.72398181  0.01701584  0.80613960  1
  O  O32  1  0.43200222  0.82340498  0.31715642  1
  O  O33  1  0.70561347  0.65154645  0.27895416  1
  O  O34  1  0.94422051  0.42809752  0.30381323  1
  O  O35  1  0.06326803  0.76704821  0.68869438  1
  O  O36  1  0.28951201  0.54411810  0.73609950  1
  O  O37  1  0.56103234  0.37784537  0.68775390  1
  O  O38  1  0.77897955  0.13839092  0.74992414  1
  O  O39  1  0.22406324  0.61170569  0.81108529  1
  O  O40  1  0.78351741  0.79161711  0.18355902  1
  O  O41  1  0.71634859  0.21989399  0.80007467  1
  O  O42  1  0.71282339  0.86019927  0.25704056  1
  O  O43  1  0.93845309  0.62545875  0.31322851  1
  O  O44  1  0.05532027  0.97990659  0.69315059  1
  O  O45  1  0.28552665  0.73513142  0.75119710  1
  O  O46  1  0.56154691  0.57454125  0.68677149  1
  O  O47  1  0.78717661  0.33980073  0.74295944  1
  O  O48  1  0.23496329  0.81706712  0.80518081  1
  O  O49  1  0.78365141  0.98010601  0.19992533  1
  O  O50  1  0.71648259  0.40838289  0.81644098  1
  O  O51  1  0.93896766  0.82215463  0.31224610  1
  O  O52  1  0.27595462  0.93545614  0.75563283  1
  O  O53  1  0.55577949  0.77190248  0.69618677  1
  O  O54  1  0.79438653  0.54845355  0.72104584  1
  O  O55  1  0.74106767  0.63752104  0.77009290  1
  O  O56  1  0.55026567  0.96798440  0.69955327  1
  O  O57  1  0.77463973  0.73664514  0.75575187  1
  O  O58  1  0.70150608  0.81294767  0.81471597  1
  O  O59  1  0.76236895  0.94912510  0.74423244  1
loop_
_geom_bond_atom_site_label_1
_geom_bond_atom_site_label_2
_geom_bond_distance
_geom_bond_site_symmetry_2
La0 O0 2.448153 1_655
La0 O29 2.465640 1_654
La0 O56 2.478893 1_545
La0 O59 2.662889 1_545
La0 O1 2.778832 1_655
La0 O24 2.802722 1_555
La0 O26 2.811880 1_654
La0 O15 2.814158 1_555
La0 O11 2.853081 1_555
La0 O14 2.895507 1_555
La0 O58 3.091704 1_545
La0 O37 3.171087 1_654
La1 O39 2.426741 1_554
La1 O27 2.449981 1_455
La1 O2 2.459054 1_555
La1 O20 2.627451 1_455
La1 O4 2.637508 1_555
La1 O24 2.715471 1_455
La1 O34 2.758917 1_455
La1 O38 2.779107 1_455
La1 O36 2.835984 1_554
La2 O6 2.429993 1_555
La2 O40 2.466505 1_446
La2 O38 2.466634 1_455
La2 O44 2.649552 1_545
La2 O10 2.701575 1_555
La2 O8 2.773344 1_555
La2 O2 2.796820 1_555
La2 O31 2.817512 1_455
La2 O42 2.824335 1_446
La2 O4 3.034095 1_555
La2 O52 3.127227 1_545
La2 O32 3.241239 1_446
La3 O44 2.429993 1_545
La3 O50 2.466505 1_554
La3 O7 2.466634 1_555
La3 O6 2.649552 1_555
La3 O1 2.701575 1_555
La3 O3 2.773344 1_555
La3 O52 2.796820 1_545
La3 O11 2.817512 1_555
La3 O47 2.824335 1_554
La3 O48 3.034095 1_545
La3 O2 3.127227 1_555
La3 O16 3.241239 1_654
La4 O12 2.435880 1_555
La4 O10 2.446872 1_564
La4 O46 2.454288 1_455
La4 O54 2.599432 1_455
La4 O51 2.712106 1_455
La4 O18 2.745607 1_555
La4 O43 2.752024 1_455
La4 O52 2.765895 1_554
La4 O40 2.774721 1_455
La5 O13 2.447209 1_555
La5 O47 2.459280 1_455
La5 O49 2.485041 1_446
La5 O8 2.615122 1_555
La5 O5 2.761919 1_555
La5 O7 2.827001 1_456
La5 O41 2.834490 1_455
La5 O19 2.849067 1_555
La5 O16 2.855424 1_555
La5 O3 2.892492 1_456
La5 O17 3.112939 1_555
La5 O9 3.186780 1_555
La6 O54 2.418682 1_555
La6 O11 2.450080 1_556
La6 O22 2.463523 1_655
La6 O25 2.702173 1_655
La6 O29 2.796883 1_655
La7 O58 2.426437 1_554
La7 O16 2.467608 1_555
La7 O23 2.468422 1_555
La7 O13 2.640157 1_555
La7 O30 2.697273 1_555
La7 O57 2.749696 1_554
La7 O22 2.812299 1_555
La7 O26 2.813847 1_555
La7 O9 2.865454 1_555
La7 O35 3.101768 1_654
La7 O12 3.150256 1_555
La7 O19 3.172481 1_555
La8 O17 2.448153 1_555
La8 O18 2.465640 1_546
La8 O24 2.478893 1_555
La8 O14 2.662889 1_555
La8 O10 2.778832 1_555
La8 O56 2.802722 1_545
La8 O21 2.811880 1_546
La8 O27 2.814158 1_555
La8 O31 2.853081 1_555
La8 O59 2.895507 1_545
La8 O20 3.091704 1_555
La8 O51 3.171087 1_446
La9 O20 2.426437 1_556
La9 O32 2.467608 1_655
La9 O57 2.468422 1_555
La9 O35 2.640157 1_655
La9 O55 2.697273 1_555
La9 O23 2.749696 1_556
La9 O25 2.812299 1_655
La9 O21 2.813847 1_655
La9 O39 2.865454 1_655
La9 O13 3.101768 1_556
La9 O36 3.150256 1_655
La9 O28 3.172481 1_655
La10 O33 2.418682 1_555
La10 O31 2.450080 1_564
La10 O25 2.463523 1_555
La10 O22 2.702173 1_555
La10 O18 2.796883 1_555
La11 O26 2.457293 1_555
La11 O34 2.464820 1_555
La11 O28 2.492260 1_546
La11 O0 2.608753 1_556
La11 O41 2.683408 1_555
La11 O19 2.751110 1_555
La11 O23 2.788619 1_555
La11 O27 2.806098 1_555
La11 O37 2.829472 1_555
La11 O30 2.866632 1_555
La11 O38 3.140920 1_555
La11 O15 3.154951 1_456
La12 O35 2.447209 1_555
La12 O42 2.459280 1_555
La12 O41 2.485041 1_564
La12 O3 2.615122 1_565
La12 O45 2.761919 1_555
La12 O38 2.827001 1_564
La12 O49 2.834490 1_555
La12 O28 2.849067 1_555
La12 O32 2.855424 1_555
La12 O8 2.892492 1_664
La12 O0 3.112939 1_565
La12 O39 3.186780 1_555
La13 O36 2.435880 1_555
La13 O1 2.446872 1_556
La13 O43 2.454288 1_555
La13 O33 2.599432 1_555
La13 O37 2.712106 1_555
La13 O29 2.745607 1_555
La13 O46 2.752024 1_555
La13 O2 2.765895 1_556
La13 O50 2.774721 1_555
La14 O48 2.428235 1_654
La14 O37 2.451228 1_555
La14 O5 2.461610 1_655
La14 O30 2.687613 1_555
La14 O45 2.719910 1_654
La14 O34 2.794978 1_555
La14 O43 2.821757 1_555
La14 O9 2.827725 1_655
La14 O47 2.837464 1_555
La14 O33 3.079558 1_555
La14 O53 3.111347 1_654
La14 O41 3.140172 1_555
La15 O4 2.428235 1_556
La15 O51 2.451228 1_555
La15 O45 2.461610 1_555
La15 O55 2.687613 1_555
La15 O5 2.719910 1_556
La15 O53 2.794978 1_555
La15 O46 2.821757 1_555
La15 O39 2.827725 1_555
La15 O42 2.837464 1_555
La15 O54 3.079558 1_555
La15 O34 3.111347 1_456
La15 O49 3.140172 1_555
La16 O9 2.426741 1_556
La16 O15 2.449981 1_565
La16 O52 2.459054 1_555
La16 O58 2.627451 1_555
La16 O48 2.637508 1_555
La16 O56 2.715471 1_555
La16 O53 2.758917 1_555
La16 O7 2.779107 1_565
La16 O12 2.835984 1_556
La17 O21 2.457293 1_655
La17 O53 2.464820 1_555
La17 O19 2.492260 1_664
La17 O17 2.608753 1_664
La17 O49 2.683408 1_555
La17 O28 2.751110 1_655
La17 O57 2.788619 1_555
La17 O15 2.806098 1_565
La17 O51 2.829472 1_555
La17 O55 2.866632 1_555
La17 O7 3.140920 1_565
La17 O27 3.154951 1_664
Mn0 O8 1.959677 1_555
Mn0 O17 1.965572 1_555
Mn0 O49 1.987713 1_446
Mn0 O10 1.991240 1_555
Mn0 O51 2.015026 1_446
Mn0 O42 2.027046 1_446
Mn1 O19 1.976789 1_555
Mn1 O11 1.982394 1_456
Mn1 O15 1.984135 1_456
Mn1 O26 1.987309 1_555
Mn1 O7 1.989392 1_456
Mn1 O16 1.994034 1_555
Mn2 O20 1.955834 1_556
Mn2 O14 1.969579 1_556
Mn2 O25 1.992393 1_655
Mn2 O29 1.993065 1_655
Mn2 O24 1.999760 1_556
Mn2 O36 2.037719 1_655
Mn3 O28 1.976789 1_545
Mn3 O31 1.982394 1_554
Mn3 O27 1.984135 1_554
Mn3 O21 1.987309 1_545
Mn3 O38 1.989392 1_554
Mn3 O32 1.994034 1_545
Mn4 O35 1.959723 1_555
Mn4 O30 1.975602 1_456
Mn4 O23 1.996720 1_456
Mn4 O34 1.997364 1_456
Mn4 O45 1.997542 1_555
Mn4 O39 2.033660 1_555
Mn5 O59 1.951499 1_445
Mn5 O44 1.957478 1_545
Mn5 O1 1.995835 1_555
Mn5 O31 2.004772 1_455
Mn5 O24 2.005482 1_455
Mn5 O2 2.013757 1_555
Mn6 O3 1.959677 1_555
Mn6 O0 1.965572 1_555
Mn6 O41 1.987713 1_554
Mn6 O1 1.991240 1_555
Mn6 O37 2.015026 1_554
Mn6 O47 2.027046 1_554
Mn7 O33 1.974361 1_556
Mn7 O44 1.987258 1_655
Mn7 O52 1.987749 1_655
Mn7 O48 1.994526 1_655
Mn7 O43 2.027362 1_556
Mn7 O40 2.035445 1_556
Mn8 O8 1.950694 1_555
Mn8 O4 1.977526 1_555
Mn8 O5 1.993086 1_555
Mn8 O38 2.004174 1_455
Mn8 O41 2.005125 1_455
Mn8 O34 2.014095 1_455
Mn9 O54 1.974361 1_554
Mn9 O6 1.987258 1_555
Mn9 O2 1.987749 1_555
Mn9 O4 1.994526 1_555
Mn9 O46 2.027362 1_554
Mn9 O50 2.035445 1_554
Mn10 O13 1.959723 1_555
Mn10 O55 1.975602 1_554
Mn10 O57 1.996720 1_554
Mn10 O53 1.997364 1_554
Mn10 O5 1.997542 1_555
Mn10 O9 2.033660 1_555
Mn11 O14 1.951499 1_555
Mn11 O6 1.957478 1_555
Mn11 O10 1.995835 1_555
Mn11 O11 2.004772 1_555
Mn11 O56 2.005482 1_545
Mn11 O52 2.013757 1_545
Mn12 O55 1.956555 1_555
Mn12 O25 1.990829 1_655
Mn12 O51 1.990947 1_555
Mn12 O54 1.994920 1_555
Mn12 O18 2.018687 1_655
Mn12 O21 2.019873 1_655
Mn13 O58 1.955834 1_554
Mn13 O59 1.969579 1_554
Mn13 O22 1.992393 1_555
Mn13 O18 1.993065 1_555
Mn13 O56 1.999760 1_554
Mn13 O12 2.037719 1_555
Mn14 O17 1.996445 1_555
Mn14 O13 2.001892 1_555
Mn14 O20 2.014860 1_555
Mn14 O27 2.020534 1_555
Mn14 O23 2.022584 1_555
Mn14 O19 2.028362 1_555
Mn15 O30 1.956555 1_555
Mn15 O22 1.990829 1_555
Mn15 O37 1.990947 1_555
Mn15 O33 1.994920 1_555
Mn15 O29 2.018687 1_555
Mn15 O26 2.019873 1_555
Mn16 O39 1.963505 1_555
Mn16 O40 1.972359 1_555
Mn16 O36 1.974174 1_555
Mn16 O42 1.978753 1_555
Mn16 O32 1.990554 1_555
Mn16 O46 1.993323 1_555
Mn17 O3 1.950694 1_565
Mn17 O48 1.977526 1_555
Mn17 O45 1.993086 1_555
Mn17 O7 2.004174 1_565
Mn17 O49 2.005125 1_555
Mn17 O53 2.014095 1_555
Mn18 O9 1.963505 1_655
Mn18 O50 1.972359 1_555
Mn18 O12 1.974174 1_655
Mn18 O47 1.978753 1_555
Mn18 O16 1.990554 1_655
Mn18 O43 1.993323 1_555
Mn19 O0 1.996445 1_565
Mn19 O35 2.001892 1_555
Mn19 O58 2.014860 1_455
Mn19 O15 2.020534 1_465
Mn19 O57 2.022584 1_455
Mn19 O28 2.028362 1_555
