# generated using pymatgen
data_U3Ni3Sn4
_symmetry_space_group_name_H-M   'P 1'
_cell_length_a   8.08991222
_cell_length_b   8.08991222
_cell_length_c   8.08991222
_cell_angle_alpha   109.47122063
_cell_angle_beta   109.47122063
_cell_angle_gamma   109.47122063
_symmetry_Int_Tables_number   1
_chemical_formula_structural   U3Ni3Sn4
_chemical_formula_sum   'U6 Ni6 Sn8'
_cell_volume   407.57687744
_cell_formula_units_Z   2
loop_
 _symmetry_equiv_pos_site_id
 _symmetry_equiv_pos_as_xyz
  1  'x, y, z'
loop_
 _atom_site_type_symbol
 _atom_site_label
 _atom_site_symmetry_multiplicity
 _atom_site_fract_x
 _atom_site_fract_y
 _atom_site_fract_z
 _atom_site_occupancy
  U  U0  1  0.87500000  0.12500000  0.75000000  1
  U  U1  1  0.12500000  0.75000000  0.87500000  1
  U  U2  1  0.37500000  0.25000000  0.62500000  1
  U  U3  1  0.62500000  0.37500000  0.25000000  1
  U  U4  1  0.25000000  0.62500000  0.37500000  1
  U  U5  1  0.75000000  0.87500000  0.12500000  1
  Ni  Ni0  1  0.87500000  0.25000000  0.12500000  1
  Ni  Ni1  1  0.75000000  0.37500000  0.62500000  1
  Ni  Ni2  1  0.25000000  0.12500000  0.87500000  1
  Ni  Ni3  1  0.62500000  0.75000000  0.37500000  1
  Ni  Ni4  1  0.12500000  0.87500000  0.25000000  1
  Ni  Ni5  1  0.37500000  0.62500000  0.75000000  1
  Sn  Sn0  1  0.50000000  0.00000000  0.83128600  1
  Sn  Sn1  1  0.16871400  0.16871400  0.16871400  1
  Sn  Sn2  1  0.50000000  0.00000000  0.33128600  1
  Sn  Sn3  1  0.83128600  0.50000000  0.00000000  1
  Sn  Sn4  1  0.00000000  0.33128600  0.50000000  1
  Sn  Sn5  1  0.33128600  0.50000000  0.00000000  1
  Sn  Sn6  1  0.00000000  0.83128600  0.50000000  1
  Sn  Sn7  1  0.66871400  0.66871400  0.66871400  1
loop_
_geom_bond_atom_site_label_1
_geom_bond_atom_site_label_2
_geom_bond_distance
_geom_bond_site_symmetry_2
Ni0 Sn3 2.615333 1_555
Ni0 Sn1 2.615333 1_655
Ni0 Sn0 2.615333 1_554
Ni0 Sn4 2.615333 1_655
Ni0 U5 2.860216 1_545
Ni0 U0 2.860216 1_554
Ni0 U3 2.860216 1_555
Ni0 U4 2.860216 1_655
Ni1 Sn7 2.615333 1_555
Ni1 Sn3 2.615333 1_556
Ni1 Sn2 2.615333 1_555
Ni1 Sn4 2.615333 1_655
Ni1 U0 2.860216 1_555
Ni1 U3 2.860216 1_555
Ni1 U2 2.860216 1_555
Ni1 U1 2.860216 1_655
Ni2 Sn6 2.615333 1_545
Ni2 Sn0 2.615333 1_555
Ni2 Sn1 2.615333 1_556
Ni2 Sn5 2.615333 1_556
Ni2 U0 2.860216 1_455
Ni2 U3 2.860216 1_556
Ni2 U2 2.860216 1_555
Ni2 U1 2.860216 1_545
Ni3 Sn7 2.615333 1_555
Ni3 Sn6 2.615333 1_655
Ni3 Sn5 2.615333 1_555
Ni3 Sn2 2.615333 1_565
Ni3 U0 2.860216 1_565
Ni3 U4 2.860216 1_555
Ni3 U5 2.860216 1_555
Ni3 U3 2.860216 1_555
Ni4 Sn3 2.615333 1_455
Ni4 Sn6 2.615333 1_555
Ni4 Sn1 2.615333 1_565
Ni4 Sn2 2.615333 1_565
Ni4 U2 2.860216 1_565
Ni4 U1 2.860216 1_554
Ni4 U5 2.860216 1_455
Ni4 U4 2.860216 1_555
Ni5 Sn7 2.615333 1_555
Ni5 Sn0 2.615333 1_565
Ni5 Sn5 2.615333 1_556
Ni5 Sn4 2.615333 1_555
Ni5 U4 2.860216 1_555
Ni5 U5 2.860216 1_556
Ni5 U2 2.860216 1_555
Ni5 U1 2.860216 1_555
Sn0 U2 3.222820 1_555
Sn0 U4 3.222820 1_545
Sn0 U0 3.222820 1_555
Sn0 U3 3.243541 1_556
Sn0 U5 3.243541 1_546
Sn0 U1 3.243541 1_545
Sn1 U3 3.222820 1_555
Sn1 U4 3.222820 1_555
Sn1 U2 3.222820 1_555
Sn1 U0 3.243541 1_454
Sn1 U5 3.243541 1_445
Sn1 U1 3.243541 1_544
Sn2 U5 3.222820 1_545
Sn2 U3 3.222820 1_555
Sn2 U1 3.222820 1_544
Sn2 U4 3.243541 1_545
Sn2 U0 3.243541 1_555
Sn2 U2 3.243541 1_555
Sn3 U3 3.222820 1_555
Sn3 U2 3.222820 1_554
Sn3 U5 3.222820 1_555
Sn3 U0 3.243541 1_554
Sn3 U1 3.243541 1_654
Sn3 U4 3.243541 1_655
Sn4 U5 3.222820 1_445
Sn4 U0 3.222820 1_455
Sn4 U2 3.222820 1_555
Sn4 U1 3.243541 1_555
Sn4 U4 3.243541 1_555
Sn4 U3 3.243541 1_455
Sn5 U0 3.222820 1_454
Sn5 U4 3.222820 1_555
Sn5 U1 3.222820 1_554
Sn5 U3 3.243541 1_555
Sn5 U2 3.243541 1_554
Sn5 U5 3.243541 1_555
Sn6 U3 3.222820 1_455
Sn6 U1 3.222820 1_555
Sn6 U4 3.222820 1_555
Sn6 U0 3.243541 1_465
Sn6 U5 3.243541 1_455
Sn6 U2 3.243541 1_565
Sn7 U1 3.222820 1_655
Sn7 U5 3.222820 1_556
Sn7 U0 3.222820 1_565
Sn7 U2 3.243541 1_555
Sn7 U4 3.243541 1_555
Sn7 U3 3.243541 1_555
