# generated using pymatgen
data_SmSi2Rh3
_symmetry_space_group_name_H-M   'P 1'
_cell_length_a   5.53383616
_cell_length_b   5.53383631
_cell_length_c   3.64973037
_cell_angle_alpha   90.00000000
_cell_angle_beta   90.00000000
_cell_angle_gamma   120.00000532
_symmetry_Int_Tables_number   1
_chemical_formula_structural   SmSi2Rh3
_chemical_formula_sum   'Sm1 Si2 Rh3'
_cell_volume   96.79300991
_cell_formula_units_Z   1
loop_
 _symmetry_equiv_pos_site_id
 _symmetry_equiv_pos_as_xyz
  1  'x, y, z'
loop_
 _atom_site_type_symbol
 _atom_site_label
 _atom_site_symmetry_multiplicity
 _atom_site_fract_x
 _atom_site_fract_y
 _atom_site_fract_z
 _atom_site_occupancy
  Sm  Sm0  1  0.00000000  -0.00000000  0.00000000  1
  Si  Si0  1  0.66666700  0.33333300  0.00000000  1
  Si  Si1  1  0.33333300  0.66666700  0.00000000  1
  Rh  Rh0  1  0.50000000  0.50000000  0.50000000  1
  Rh  Rh1  1  0.50000000  -0.00000000  0.50000000  1
  Rh  Rh2  1  0.00000000  0.50000000  0.50000000  1
loop_
_geom_bond_atom_site_label_1
_geom_bond_atom_site_label_2
_geom_bond_distance
_geom_bond_site_symmetry_2
Si0 Sm0 3.194959 1_655
Si0 Sm0 3.194963 1_555
Si0 Sm0 3.194963 1_665
Si1 Sm0 3.194959 1_565
Si1 Sm0 3.194963 1_665
Si1 Sm0 3.194963 1_555
Rh0 Si0 2.425302 1_555
Rh0 Si0 2.425302 1_556
Rh0 Si1 2.425302 1_555
Rh0 Si1 2.425302 1_556
Rh0 Sm0 3.314509 1_556
Rh0 Sm0 3.314509 1_555
Rh0 Sm0 3.314509 1_665
Rh0 Sm0 3.314509 1_666
Rh1 Si1 2.425299 1_546
Rh1 Si0 2.425299 1_556
Rh1 Si0 2.425299 1_555
Rh1 Si1 2.425299 1_545
Rh1 Sm0 3.314509 1_655
Rh1 Sm0 3.314509 1_556
Rh1 Sm0 3.314509 1_555
Rh1 Sm0 3.314509 1_656
Rh2 Si0 2.425298 1_456
Rh2 Si1 2.425298 1_555
Rh2 Si1 2.425298 1_556
Rh2 Si0 2.425298 1_455
Rh2 Sm0 3.314509 1_565
Rh2 Sm0 3.314509 1_556
Rh2 Sm0 3.314509 1_555
Rh2 Sm0 3.314509 1_566
