# generated using pymatgen
data_Ca(BO2)2
_symmetry_space_group_name_H-M   'P 1'
_cell_length_a   6.44680400
_cell_length_b   11.43188900
_cell_length_c   11.46615800
_cell_angle_alpha   90.00000000
_cell_angle_beta   90.00000000
_cell_angle_gamma   90.00000000
_symmetry_Int_Tables_number   1
_chemical_formula_structural   Ca(BO2)2
_chemical_formula_sum   'Ca12 B24 O48'
_cell_volume   845.04607237
_cell_formula_units_Z   12
loop_
 _symmetry_equiv_pos_site_id
 _symmetry_equiv_pos_as_xyz
  1  'x, y, z'
loop_
 _atom_site_type_symbol
 _atom_site_label
 _atom_site_symmetry_multiplicity
 _atom_site_fract_x
 _atom_site_fract_y
 _atom_site_fract_z
 _atom_site_occupancy
  Ca  Ca0  1  0.44927100  0.00139200  0.57243800  1
  Ca  Ca1  1  0.11269700  0.27919800  0.25340000  1
  Ca  Ca2  1  0.61269700  0.77919800  0.24660000  1
  Ca  Ca3  1  0.84109200  0.23468400  0.53253400  1
  Ca  Ca4  1  0.55072900  0.50139200  0.42756200  1
  Ca  Ca5  1  0.15890800  0.73468400  0.46746600  1
  Ca  Ca6  1  0.88730300  0.77919800  0.74660000  1
  Ca  Ca7  1  0.05072900  0.00139200  0.07243800  1
  Ca  Ca8  1  0.38730300  0.27919800  0.75340000  1
  Ca  Ca9  1  0.94927100  0.50139200  0.92756200  1
  Ca  Ca10  1  0.65890800  0.23468400  0.03253400  1
  Ca  Ca11  1  0.34109200  0.73468400  0.96746600  1
  B  B0  1  0.74693400  0.03936100  0.85970800  1
  B  B1  1  0.88116300  0.24009600  0.78747900  1
  B  B2  1  0.38116300  0.74009600  0.71252100  1
  B  B3  1  0.92038200  0.55104600  0.24927100  1
  B  B4  1  0.75306600  0.03936100  0.35970800  1
  B  B5  1  0.24693400  0.53936100  0.64029200  1
  B  B6  1  0.12332900  0.24757000  0.97498500  1
  B  B7  1  0.42038200  0.05104600  0.25072900  1
  B  B8  1  0.11883700  0.74009600  0.21252100  1
  B  B9  1  0.01808300  0.47986900  0.46607400  1
  B  B10  1  0.51808300  0.97986900  0.03392600  1
  B  B11  1  0.98191700  0.97986900  0.53392600  1
  B  B12  1  0.39972900  0.94407400  0.82206900  1
  B  B13  1  0.37667100  0.24757000  0.47498500  1
  B  B14  1  0.10027100  0.94407400  0.32206900  1
  B  B15  1  0.25306600  0.53936100  0.14029200  1
  B  B16  1  0.07961800  0.05104600  0.75072900  1
  B  B17  1  0.57961800  0.55104600  0.74927100  1
  B  B18  1  0.60027100  0.44407400  0.17793100  1
  B  B19  1  0.89972900  0.44407400  0.67793100  1
  B  B20  1  0.87667100  0.74757000  0.02501500  1
  B  B21  1  0.62332900  0.74757000  0.52501500  1
  B  B22  1  0.48191700  0.47986900  0.96607400  1
  B  B23  1  0.61883700  0.24009600  0.28747900  1
  O  O0  1  0.17154100  0.25579700  0.45374300  1
  O  O1  1  0.32845900  0.25579700  0.95374300  1
  O  O2  1  0.67154100  0.75579700  0.04625700  1
  O  O3  1  0.53104400  0.70010900  0.42788700  1
  O  O4  1  0.79865800  0.33272200  0.71248300  1
  O  O5  1  0.53321400  0.01148900  0.35436700  1
  O  O6  1  0.52188800  0.29850400  0.39339500  1
  O  O7  1  0.12356400  0.45004900  0.70103400  1
  O  O8  1  0.20134200  0.83272200  0.28751700  1
  O  O9  1  0.96895600  0.70010900  0.92788700  1
  O  O10  1  0.46857900  0.17277200  0.21804500  1
  O  O11  1  0.02188800  0.79850400  0.10660500  1
  O  O12  1  0.03142100  0.17277200  0.71804500  1
  O  O13  1  0.96678600  0.01148900  0.85436700  1
  O  O14  1  0.97811200  0.29850400  0.89339500  1
  O  O15  1  0.30355500  0.04400100  0.76545700  1
  O  O16  1  0.69644500  0.54400100  0.23454300  1
  O  O17  1  0.69895500  0.03035000  0.99359500  1
  O  O18  1  0.96857900  0.67277200  0.28195500  1
  O  O19  1  0.19895500  0.53035000  0.50640500  1
  O  O20  1  0.62356400  0.95004900  0.79896600  1
  O  O21  1  0.02215400  0.96819400  0.65005500  1
  O  O22  1  0.29398800  0.66377100  0.17336700  1
  O  O23  1  0.20601200  0.66377100  0.67336700  1
  O  O24  1  0.87643600  0.95004900  0.29896600  1
  O  O25  1  0.03104400  0.20010900  0.07211300  1
  O  O26  1  0.47811200  0.79850400  0.60660500  1
  O  O27  1  0.47784600  0.96819400  0.15005500  1
  O  O28  1  0.52215400  0.46819400  0.84994500  1
  O  O29  1  0.46895600  0.20010900  0.57211300  1
  O  O30  1  0.86385500  0.44645900  0.54357200  1
  O  O31  1  0.37643600  0.45004900  0.20103400  1
  O  O32  1  0.03321400  0.51148900  0.14563300  1
  O  O33  1  0.30104500  0.53035000  0.00640500  1
  O  O34  1  0.29865800  0.83272200  0.78751700  1
  O  O35  1  0.79398800  0.16377100  0.32663300  1
  O  O36  1  0.97784600  0.46819400  0.34994500  1
  O  O37  1  0.63614500  0.44645900  0.04357200  1
  O  O38  1  0.46678600  0.51148900  0.64563300  1
  O  O39  1  0.19644500  0.04400100  0.26545700  1
  O  O40  1  0.70134200  0.33272200  0.21248300  1
  O  O41  1  0.80355500  0.54400100  0.73454300  1
  O  O42  1  0.53142100  0.67277200  0.78195500  1
  O  O43  1  0.13614500  0.94645900  0.45642800  1
  O  O44  1  0.80104500  0.03035000  0.49359500  1
  O  O45  1  0.82845900  0.75579700  0.54625700  1
  O  O46  1  0.70601200  0.16377100  0.82663300  1
  O  O47  1  0.36385500  0.94645900  0.95642800  1
loop_
_geom_bond_atom_site_label_1
_geom_bond_atom_site_label_2
_geom_bond_distance
_geom_bond_site_symmetry_2
Ca0 O29 2.275256 1_555
Ca0 O26 2.359584 1_545
Ca0 O15 2.453149 1_555
Ca0 O44 2.463707 1_555
Ca0 O43 2.497753 1_545
Ca0 O5 2.560930 1_555
Ca1 O25 2.327104 1_555
Ca1 O0 2.343596 1_555
Ca1 O36 2.578632 1_455
Ca1 O35 2.582230 1_455
Ca1 O10 2.628383 1_555
Ca1 O31 2.658242 1_555
Ca1 O39 2.745900 1_555
Ca1 O40 2.761741 1_455
Ca1 O32 2.973427 1_555
Ca2 O3 2.327104 1_555
Ca2 O2 2.343596 1_555
Ca2 O27 2.578632 1_555
Ca2 O22 2.582230 1_555
Ca2 O18 2.628383 1_555
Ca2 O24 2.658242 1_555
Ca2 O16 2.745900 1_555
Ca2 O8 2.761741 1_555
Ca2 O5 2.973427 1_565
Ca3 O0 2.326540 1_655
Ca3 O4 2.363947 1_555
Ca3 O44 2.392183 1_555
Ca3 O30 2.428732 1_555
Ca3 O29 2.473419 1_555
Ca3 O35 2.514601 1_555
Ca3 O12 2.555592 1_655
Ca3 O6 2.704124 1_555
Ca4 O3 2.275256 1_555
Ca4 O6 2.359584 1_555
Ca4 O16 2.453149 1_555
Ca4 O19 2.463707 1_555
Ca4 O30 2.497753 1_555
Ca4 O38 2.560930 1_555
Ca5 O45 2.326540 1_455
Ca5 O8 2.363947 1_555
Ca5 O19 2.392183 1_555
Ca5 O43 2.428732 1_555
Ca5 O3 2.473419 1_555
Ca5 O23 2.514601 1_555
Ca5 O18 2.555592 1_455
Ca5 O26 2.704124 1_555
Ca6 O9 2.327104 1_555
Ca6 O45 2.343596 1_555
Ca6 O21 2.578632 1_655
Ca6 O23 2.582230 1_655
Ca6 O42 2.628383 1_555
Ca6 O20 2.658242 1_555
Ca6 O41 2.745900 1_555
Ca6 O34 2.761741 1_655
Ca6 O13 2.973427 1_565
Ca7 O25 2.275256 1_555
Ca7 O11 2.359584 1_545
Ca7 O39 2.453149 1_555
Ca7 O17 2.463707 1_454
Ca7 O47 2.497753 1_544
Ca7 O13 2.560930 1_454
Ca8 O29 2.327104 1_555
Ca8 O1 2.343596 1_555
Ca8 O28 2.578632 1_555
Ca8 O46 2.582230 1_555
Ca8 O12 2.628383 1_555
Ca8 O7 2.658242 1_555
Ca8 O15 2.745900 1_555
Ca8 O4 2.761741 1_555
Ca8 O38 2.973427 1_555
Ca9 O9 2.275256 1_555
Ca9 O14 2.359584 1_555
Ca9 O41 2.453149 1_555
Ca9 O33 2.463707 1_656
Ca9 O37 2.497753 1_556
Ca9 O32 2.560930 1_656
Ca10 O1 2.326540 1_554
Ca10 O40 2.363947 1_555
Ca10 O17 2.392183 1_554
Ca10 O37 2.428732 1_555
Ca10 O25 2.473419 1_655
Ca10 O46 2.514601 1_554
Ca10 O10 2.555592 1_555
Ca10 O14 2.704124 1_554
Ca11 O2 2.326540 1_556
Ca11 O34 2.363947 1_555
Ca11 O33 2.392183 1_556
Ca11 O47 2.428732 1_555
Ca11 O9 2.473419 1_455
Ca11 O22 2.514601 1_556
Ca11 O42 2.555592 1_555
Ca11 O11 2.704124 1_556
B0 O13 1.454007 1_555
B0 O20 1.469728 1_545
B0 O46 1.495391 1_555
B0 O17 1.569404 1_555
B1 O4 1.464109 1_555
B1 O12 1.471236 1_655
B1 O46 1.495957 1_555
B1 O14 1.520319 1_555
B2 O34 1.464109 1_555
B2 O42 1.471236 1_555
B2 O23 1.495957 1_555
B2 O26 1.520319 1_555
B3 O16 1.455751 1_555
B3 O32 1.464835 1_655
B3 O18 1.474254 1_555
B3 O36 1.538458 1_555
B4 O5 1.454007 1_555
B4 O24 1.469728 1_545
B4 O35 1.495391 1_555
B4 O44 1.569404 1_555
B5 O38 1.454007 1_555
B5 O7 1.469728 1_555
B5 O23 1.495391 1_555
B5 O19 1.569404 1_555
B6 O1 1.347961 1_555
B6 O25 1.374275 1_556
B6 O14 1.445921 1_455
B7 O39 1.455751 1_555
B7 O5 1.464835 1_555
B7 O10 1.474254 1_555
B7 O27 1.538458 1_545
B8 O8 1.464109 1_555
B8 O18 1.471236 1_455
B8 O22 1.495957 1_555
B8 O11 1.520319 1_555
B9 O36 1.363135 1_455
B9 O19 1.380780 1_555
B9 O30 1.387113 1_455
B10 O27 1.363135 1_555
B10 O17 1.380780 1_564
B10 O47 1.387113 1_554
B11 O21 1.363135 1_655
B11 O44 1.380780 1_565
B11 O43 1.387113 1_655
B12 O15 1.452843 1_565
B12 O20 1.468723 1_555
B12 O34 1.483899 1_555
B12 O47 1.558083 1_555
B13 O0 1.347961 1_555
B13 O29 1.374275 1_555
B13 O6 1.445921 1_555
B14 O39 1.452843 1_565
B14 O24 1.468723 1_455
B14 O8 1.483899 1_555
B14 O43 1.558083 1_555
B15 O32 1.454007 1_555
B15 O31 1.469728 1_555
B15 O22 1.495391 1_555
B15 O33 1.569404 1_555
B16 O15 1.455751 1_555
B16 O13 1.464835 1_455
B16 O12 1.474254 1_555
B16 O21 1.538458 1_545
B17 O41 1.455751 1_555
B17 O38 1.464835 1_555
B17 O42 1.474254 1_555
B17 O28 1.538458 1_555
B18 O16 1.452843 1_555
B18 O31 1.468723 1_555
B18 O40 1.483899 1_555
B18 O37 1.558083 1_555
B19 O41 1.452843 1_555
B19 O7 1.468723 1_655
B19 O4 1.483899 1_555
B19 O30 1.558083 1_555
B20 O2 1.347961 1_555
B20 O9 1.374275 1_554
B20 O11 1.445921 1_655
B21 O45 1.347961 1_555
B21 O3 1.374275 1_555
B21 O26 1.445921 1_555
B22 O28 1.363135 1_555
B22 O33 1.380780 1_556
B22 O37 1.387113 1_556
B23 O40 1.464109 1_555
B23 O10 1.471236 1_555
B23 O35 1.495957 1_555
B23 O6 1.520319 1_555
