# generated using pymatgen
data_Li20(CoO2)21
_symmetry_space_group_name_H-M   'P 1'
_cell_length_a   8.58143000
_cell_length_b   9.52037743
_cell_length_c   10.29829975
_cell_angle_alpha   97.16759054
_cell_angle_beta   108.85161103
_cell_angle_gamma   113.87899761
_symmetry_Int_Tables_number   1
_chemical_formula_structural   Li20(CoO2)21
_chemical_formula_sum   'Li20 Co21 O42'
_cell_volume   695.59152006
_cell_formula_units_Z   1
loop_
 _symmetry_equiv_pos_site_id
 _symmetry_equiv_pos_as_xyz
  1  'x, y, z'
loop_
 _atom_site_type_symbol
 _atom_site_label
 _atom_site_symmetry_multiplicity
 _atom_site_fract_x
 _atom_site_fract_y
 _atom_site_fract_z
 _atom_site_occupancy
  Li  Li0  1  0.14289300  0.57151900  0.14287900  1
  Li  Li1  1  0.36857200  0.18427100  0.04618900  1
  Li  Li2  1  0.27642900  0.13816800  0.27632200  1
  Li  Li3  1  0.52472500  0.76275900  0.19027600  1
  Li  Li4  1  0.43001300  0.71506800  0.42979800  1
  Li  Li5  1  0.76047900  0.38031000  0.09497600  1
  Li  Li6  1  0.66510900  0.33277400  0.33279700  1
  Li  Li7  1  0.56998700  0.28493200  0.57020200  1
  Li  Li8  1  0.90792300  0.95398300  0.23047800  1
  Li  Li9  1  0.80999400  0.90522000  0.47620600  1
  Li  Li10  1  0.72357100  0.86183200  0.72367800  1
  Li  Li11  1  0.04771900  0.52376900  0.38089900  1
  Li  Li12  1  0.95228100  0.47623100  0.61910100  1
  Li  Li13  1  0.85710700  0.42848100  0.85712100  1
  Li  Li14  1  0.19000600  0.09478000  0.52379400  1
  Li  Li15  1  0.09207700  0.04601700  0.76952200  1
  Li  Li16  1  0.33489100  0.66722600  0.66720300  1
  Li  Li17  1  0.23952100  0.61969000  0.90502400  1
  Li  Li18  1  0.47527500  0.23724100  0.80972400  1
  Li  Li19  1  0.63142800  0.81572900  0.95381100  1
  Co  Co0  1  0.26082100  0.88116700  0.09488200  1
  Co  Co1  1  0.40484400  0.45408600  0.23834800  1
  Co  Co2  1  0.64219600  0.07257200  0.14285000  1
  Co  Co3  1  0.54721300  0.02412100  0.38070600  1
  Co  Co4  1  0.88134400  0.69109000  0.04739800  1
  Co  Co5  1  0.78590900  0.64334300  0.28579900  1
  Co  Co6  1  0.69067400  0.59563600  0.52402100  1
  Co  Co7  1  0.02361300  0.26138400  0.18972700  1
  Co  Co8  1  0.92828600  0.21438900  0.42822400  1
  Co  Co9  1  0.83305800  0.16795700  0.66649800  1
  Co  Co10  1  0.16694200  0.83204300  0.33350200  1
  Co  Co11  1  0.07171400  0.78561100  0.57177600  1
  Co  Co12  1  0.97638700  0.73861600  0.81027300  1
  Co  Co13  1  0.30932600  0.40436400  0.47597900  1
  Co  Co14  1  0.21409100  0.35665700  0.71420100  1
  Co  Co15  1  0.11865600  0.30891000  0.95260200  1
  Co  Co16  1  0.45278700  0.97587900  0.61929400  1
  Co  Co17  1  0.35780400  0.92742800  0.85715000  1
  Co  Co18  1  0.59515600  0.54591400  0.76165200  1
  Co  Co19  1  0.50000000  0.50000000  0.00000000  1
  Co  Co20  1  0.73917900  0.11883300  0.90511800  1
  O  O0  1  0.20263900  0.24842500  0.12229900  1
  O  O1  1  0.43883800  0.86127200  0.02546300  1
  O  O2  1  0.34320500  0.81284900  0.26323600  1
  O  O3  1  0.32448500  0.52129500  0.07017800  1
  O  O4  1  0.58023500  0.43308000  0.16809300  1
  O  O5  1  0.48524800  0.38549700  0.40545000  1
  O  O6  1  0.46425200  0.09153700  0.21322100  1
  O  O7  1  0.81546600  0.05464600  0.07397200  1
  O  O8  1  0.72315800  0.00455000  0.31017600  1
  O  O9  1  0.62892500  0.95718400  0.54875500  1
  O  O10  1  0.70544000  0.71087200  0.11768000  1
  O  O11  1  0.61198900  0.66560300  0.35739500  1
  O  O12  1  0.96119200  0.62175100  0.21546300  1
  O  O13  1  0.86628300  0.57541600  0.45343700  1
  O  O14  1  0.77104600  0.52654800  0.69100300  1
  O  O15  1  0.94311900  0.33002800  0.02270900  1
  O  O16  1  0.84774700  0.28290100  0.26093400  1
  O  O17  1  0.75173100  0.23533400  0.49723700  1
  O  O18  1  0.10398200  0.19389200  0.35746900  1
  O  O19  1  0.00828300  0.14666500  0.59616600  1
  O  O20  1  0.91256200  0.10320400  0.83189400  1
  O  O21  1  0.08743800  0.89679600  0.16810600  1
  O  O22  1  0.99171700  0.85333500  0.40383400  1
  O  O23  1  0.89601800  0.80610800  0.64253100  1
  O  O24  1  0.24826900  0.76466600  0.50276300  1
  O  O25  1  0.15225300  0.71709900  0.73906600  1
  O  O26  1  0.05688100  0.66997200  0.97729100  1
  O  O27  1  0.22895400  0.47345200  0.30899700  1
  O  O28  1  0.13371700  0.42458400  0.54656300  1
  O  O29  1  0.03880800  0.37824900  0.78453700  1
  O  O30  1  0.38801100  0.33439700  0.64260500  1
  O  O31  1  0.29456000  0.28912800  0.88232000  1
  O  O32  1  0.37107500  0.04281600  0.45124500  1
  O  O33  1  0.27684200  0.99545000  0.68982400  1
  O  O34  1  0.18453400  0.94535400  0.92602800  1
  O  O35  1  0.53574800  0.90846300  0.78677900  1
  O  O36  1  0.51475200  0.61450300  0.59455000  1
  O  O37  1  0.41976500  0.56692000  0.83190700  1
  O  O38  1  0.67551500  0.47870500  0.92982200  1
  O  O39  1  0.65679500  0.18715100  0.73676400  1
  O  O40  1  0.56116200  0.13872800  0.97453700  1
  O  O41  1  0.79736100  0.75157500  0.87770100  1
loop_
_geom_bond_atom_site_label_1
_geom_bond_atom_site_label_2
_geom_bond_distance
_geom_bond_site_symmetry_2
Li0 O26 2.115867 1_554
Li0 O27 2.117556 1_555
Li0 O15 2.117596 1_455
Li0 O2 2.117750 1_555
Li0 O3 2.117881 1_555
Li0 O12 2.118120 1_455
Li1 O0 2.078682 1_555
Li1 O34 2.079792 1_544
Li1 O6 2.113206 1_555
Li1 O31 2.118706 1_554
Li1 O40 2.179979 1_554
Li1 O4 2.187961 1_555
Li2 O0 2.079258 1_555
Li2 O21 2.080494 1_545
Li2 O6 2.097957 1_555
Li2 O18 2.119879 1_555
Li2 O5 2.187802 1_555
Li2 O32 2.188223 1_555
Li3 O1 2.110003 1_555
Li3 O8 2.116983 1_565
Li3 O10 2.117832 1_555
Li3 O3 2.118011 1_555
Li3 O2 2.118192 1_555
Li3 O11 2.122140 1_555
Li4 O11 2.115799 1_555
Li4 O24 2.117793 1_555
Li4 O9 2.118048 1_555
Li4 O36 2.120336 1_555
Li4 O2 2.120839 1_555
Li4 O27 2.121649 1_555
Li5 O38 2.109745 1_554
Li5 O16 2.114824 1_555
Li5 O40 2.118006 1_554
Li5 O12 2.119356 1_555
Li5 O4 2.121131 1_555
Li5 O15 2.124106 1_555
Li6 O17 2.101837 1_555
Li6 O5 2.115145 1_555
Li6 O6 2.116520 1_555
Li6 O4 2.118576 1_555
Li6 O16 2.119889 1_555
Li6 O13 2.128192 1_555
Li7 O30 2.115799 1_555
Li7 O17 2.117793 1_555
Li7 O32 2.118048 1_555
Li7 O5 2.120336 1_555
Li7 O39 2.120839 1_555
Li7 O14 2.121649 1_555
Li8 O21 2.076858 1_655
Li8 O7 2.078538 1_565
Li8 O18 2.116432 1_665
Li8 O10 2.119964 1_555
Li8 O22 2.185760 1_555
Li8 O8 2.186258 1_565
Li9 O11 2.100004 1_555
Li9 O19 2.114614 1_665
Li9 O9 2.120775 1_555
Li9 O22 2.124672 1_555
Li9 O23 2.125874 1_555
Li9 O8 2.126898 1_565
Li10 O41 2.079258 1_555
Li10 O20 2.080494 1_565
Li10 O35 2.097957 1_555
Li10 O23 2.119879 1_555
Li10 O36 2.187802 1_555
Li10 O9 2.188223 1_555
Li11 O27 2.110799 1_555
Li11 O12 2.112813 1_455
Li11 O16 2.113453 1_455
Li11 O24 2.118283 1_555
Li11 O28 2.121198 1_555
Li11 O13 2.122210 1_455
Li12 O14 2.110799 1_555
Li12 O29 2.112813 1_655
Li12 O25 2.113453 1_655
Li12 O17 2.118283 1_555
Li12 O13 2.121198 1_555
Li12 O28 2.122210 1_655
Li13 O15 2.115867 1_556
Li13 O14 2.117556 1_555
Li13 O26 2.117596 1_655
Li13 O39 2.117750 1_555
Li13 O38 2.117881 1_555
Li13 O29 2.118120 1_655
Li14 O30 2.100004 1_555
Li14 O22 2.114614 1_445
Li14 O32 2.120775 1_555
Li14 O19 2.124672 1_555
Li14 O18 2.125874 1_555
Li14 O33 2.126898 1_545
Li15 O20 2.076858 1_455
Li15 O34 2.078538 1_545
Li15 O23 2.116432 1_445
Li15 O31 2.119964 1_555
Li15 O19 2.185760 1_555
Li15 O33 2.186258 1_545
Li16 O24 2.101837 1_555
Li16 O36 2.115145 1_555
Li16 O35 2.116520 1_555
Li16 O37 2.118576 1_555
Li16 O25 2.119889 1_555
Li16 O28 2.128192 1_555
Li17 O3 2.109745 1_556
Li17 O25 2.114824 1_555
Li17 O1 2.118006 1_556
Li17 O29 2.119356 1_555
Li17 O37 2.121131 1_555
Li17 O26 2.124106 1_555
Li18 O40 2.110003 1_555
Li18 O33 2.116983 1_545
Li18 O31 2.117832 1_555
Li18 O38 2.118011 1_555
Li18 O39 2.118192 1_555
Li18 O30 2.122140 1_555
Li19 O41 2.078682 1_555
Li19 O7 2.079792 1_566
Li19 O35 2.113206 1_555
Li19 O10 2.118706 1_556
Li19 O1 2.179979 1_556
Li19 O37 2.187961 1_555
Co0 O34 1.918121 1_554
Co0 O21 1.918555 1_555
Co0 O6 1.931151 1_565
Co0 O26 1.935448 1_554
Co0 O1 1.945988 1_555
Co0 O2 1.946881 1_555
Co1 O0 1.896881 1_555
Co1 O4 1.933936 1_555
Co1 O5 1.934354 1_555
Co1 O27 1.934711 1_555
Co1 O3 1.935533 1_555
Co1 O11 1.948196 1_555
Co2 O7 1.897361 1_555
Co2 O40 1.932044 1_554
Co2 O8 1.934030 1_555
Co2 O1 1.934215 1_545
Co2 O16 1.935560 1_555
Co2 O6 1.948146 1_555
Co3 O32 1.933696 1_555
Co3 O17 1.934767 1_555
Co3 O8 1.935112 1_555
Co3 O9 1.935358 1_545
Co3 O6 1.935562 1_555
Co3 O2 1.935795 1_545
Co4 O21 1.917303 1_655
Co4 O41 1.917879 1_554
Co4 O10 1.933946 1_555
Co4 O26 1.934579 1_654
Co4 O12 1.945720 1_555
Co4 O38 1.946748 1_554
Co5 O22 1.934216 1_555
Co5 O4 1.934705 1_555
Co5 O11 1.935012 1_555
Co5 O13 1.935087 1_555
Co5 O12 1.935655 1_555
Co5 O10 1.937080 1_555
Co6 O36 1.932482 1_555
Co6 O13 1.935008 1_555
Co6 O11 1.935144 1_555
Co6 O5 1.935223 1_555
Co6 O14 1.936110 1_555
Co6 O23 1.936751 1_555
Co7 O7 1.917715 1_455
Co7 O0 1.918097 1_555
Co7 O18 1.933517 1_555
Co7 O15 1.934118 1_455
Co7 O16 1.945595 1_455
Co7 O27 1.947332 1_555
Co8 O8 1.931695 1_555
Co8 O28 1.935053 1_655
Co8 O17 1.935327 1_555
Co8 O16 1.935739 1_555
Co8 O19 1.935861 1_655
Co8 O18 1.937764 1_655
Co9 O20 1.896919 1_555
Co9 O9 1.933850 1_545
Co9 O19 1.934095 1_655
Co9 O39 1.934698 1_555
Co9 O29 1.935754 1_655
Co9 O17 1.947367 1_555
Co10 O21 1.896919 1_555
Co10 O32 1.933850 1_565
Co10 O22 1.934095 1_455
Co10 O2 1.934698 1_555
Co10 O12 1.935754 1_455
Co10 O24 1.947367 1_555
Co11 O33 1.931695 1_555
Co11 O13 1.935053 1_455
Co11 O24 1.935327 1_555
Co11 O25 1.935739 1_555
Co11 O22 1.935861 1_455
Co11 O23 1.937764 1_455
Co12 O34 1.917715 1_655
Co12 O41 1.918097 1_555
Co12 O23 1.933517 1_555
Co12 O26 1.934118 1_655
Co12 O25 1.945595 1_655
Co12 O14 1.947332 1_555
Co13 O5 1.932482 1_555
Co13 O28 1.935008 1_555
Co13 O30 1.935144 1_555
Co13 O36 1.935223 1_555
Co13 O27 1.936110 1_555
Co13 O18 1.936751 1_555
Co14 O19 1.934216 1_555
Co14 O37 1.934705 1_555
Co14 O30 1.935012 1_555
Co14 O28 1.935087 1_555
Co14 O29 1.935655 1_555
Co14 O31 1.937080 1_555
Co15 O20 1.917303 1_455
Co15 O0 1.917879 1_556
Co15 O31 1.933946 1_555
Co15 O15 1.934579 1_456
Co15 O29 1.945720 1_555
Co15 O3 1.946748 1_556
Co16 O9 1.933696 1_555
Co16 O24 1.934767 1_555
Co16 O33 1.935112 1_555
Co16 O32 1.935358 1_565
Co16 O35 1.935562 1_555
Co16 O39 1.935795 1_565
Co17 O34 1.897361 1_555
Co17 O1 1.932044 1_556
Co17 O33 1.934030 1_555
Co17 O40 1.934215 1_565
Co17 O25 1.935560 1_555
Co17 O35 1.948146 1_555
Co18 O41 1.896881 1_555
Co18 O37 1.933936 1_555
Co18 O36 1.934354 1_555
Co18 O14 1.934711 1_555
Co18 O38 1.935533 1_555
Co18 O30 1.948196 1_555
Co19 O4 1.933056 1_555
Co19 O37 1.933056 1_554
Co19 O38 1.935476 1_554
Co19 O3 1.935476 1_555
Co19 O10 1.937481 1_555
Co19 O31 1.937481 1_554
Co20 O7 1.918121 1_556
Co20 O20 1.918555 1_555
Co20 O35 1.931151 1_545
Co20 O15 1.935448 1_556
Co20 O40 1.945988 1_555
Co20 O39 1.946881 1_555
