# generated using pymatgen
data_Ba2V2ZnO8
_symmetry_space_group_name_H-M   'P 1'
_cell_length_a   16.44960200
_cell_length_b   6.27053100
_cell_length_c   8.06773148
_cell_angle_alpha   89.67164439
_cell_angle_beta   90.00000000
_cell_angle_gamma   90.00000000
_symmetry_Int_Tables_number   1
_chemical_formula_structural   Ba2V2ZnO8
_chemical_formula_sum   'Ba8 V8 Zn4 O32'
_cell_volume   832.15459826
_cell_formula_units_Z   4
loop_
 _symmetry_equiv_pos_site_id
 _symmetry_equiv_pos_as_xyz
  1  'x, y, z'
loop_
 _atom_site_type_symbol
 _atom_site_label
 _atom_site_symmetry_multiplicity
 _atom_site_fract_x
 _atom_site_fract_y
 _atom_site_fract_z
 _atom_site_occupancy
  Ba  Ba0  1  0.54251200  0.26296400  0.63879900  1
  Ba  Ba1  1  0.04251200  0.23703600  0.36120100  1
  Ba  Ba2  1  0.95748800  0.76296400  0.63879900  1
  Ba  Ba3  1  0.62925900  0.22266300  0.14371600  1
  Ba  Ba4  1  0.12925900  0.27733700  0.85628400  1
  Ba  Ba5  1  0.45748800  0.73703600  0.36120100  1
  Ba  Ba6  1  0.37074100  0.77733700  0.85628400  1
  Ba  Ba7  1  0.87074100  0.72266300  0.14371600  1
  V  V0  1  0.33028600  0.23587300  0.59500600  1
  V  V1  1  0.83028600  0.26412700  0.40499400  1
  V  V2  1  0.90895000  0.24635900  0.87640300  1
  V  V3  1  0.66971400  0.76412700  0.40499400  1
  V  V4  1  0.59105000  0.74635900  0.87640300  1
  V  V5  1  0.09105000  0.75364100  0.12359700  1
  V  V6  1  0.16971400  0.73587300  0.59500600  1
  V  V7  1  0.40895000  0.25364100  0.12359700  1
  Zn  Zn0  1  0.75003900  0.00222300  0.72702400  1
  Zn  Zn1  1  0.25003900  0.49777700  0.27297600  1
  Zn  Zn2  1  0.74996100  0.50222300  0.72702400  1
  Zn  Zn3  1  0.24996100  0.99777700  0.27297600  1
  O  O0  1  0.61273800  0.53293200  0.39680600  1
  O  O1  1  0.64643500  0.99140900  0.85041100  1
  O  O2  1  0.02362800  0.77398800  0.28429500  1
  O  O3  1  0.78256700  0.31371900  0.22110500  1
  O  O4  1  0.65197800  0.50873900  0.86890400  1
  O  O5  1  0.52362800  0.72601200  0.71570500  1
  O  O6  1  0.47637200  0.27398800  0.28429500  1
  O  O7  1  0.28256700  0.18628100  0.77889500  1
  O  O8  1  0.03350300  0.73938900  0.94765800  1
  O  O9  1  0.14643500  0.50859100  0.14958900  1
  O  O10  1  0.39938300  0.02887900  0.57590300  1
  O  O11  1  0.15197800  0.99126100  0.13109600  1
  O  O12  1  0.38726200  0.46706800  0.60319400  1
  O  O13  1  0.96649700  0.26061100  0.05234200  1
  O  O14  1  0.88726200  0.03293200  0.39680600  1
  O  O15  1  0.24283700  0.74668700  0.42194600  1
  O  O16  1  0.46649700  0.23938900  0.94765800  1
  O  O17  1  0.11273800  0.96706800  0.60319400  1
  O  O18  1  0.34802200  0.49126100  0.13109600  1
  O  O19  1  0.74283700  0.75331300  0.57805400  1
  O  O20  1  0.25716300  0.24668700  0.42194600  1
  O  O21  1  0.89938300  0.47112100  0.42409700  1
  O  O22  1  0.21743300  0.68628100  0.77889500  1
  O  O23  1  0.35356500  0.00859100  0.14958900  1
  O  O24  1  0.97637200  0.22601200  0.71570500  1
  O  O25  1  0.75716300  0.25331300  0.57805400  1
  O  O26  1  0.53350300  0.76061100  0.05234200  1
  O  O27  1  0.85356500  0.49140900  0.85041100  1
  O  O28  1  0.84802200  0.00873900  0.86890400  1
  O  O29  1  0.60061700  0.97112100  0.42409700  1
  O  O30  1  0.10061700  0.52887900  0.57590300  1
  O  O31  1  0.71743300  0.81371900  0.22110500  1
loop_
_geom_bond_atom_site_label_1
_geom_bond_atom_site_label_2
_geom_bond_distance
_geom_bond_site_symmetry_2
Ba0 O29 2.701704 1_545
Ba0 O16 2.791092 1_555
Ba0 O10 2.822027 1_555
Ba0 O0 2.823811 1_555
Ba0 O12 2.870225 1_555
Ba0 O1 2.950115 1_545
Ba0 O5 2.988771 1_555
Ba0 O4 3.016064 1_555
Ba0 O6 3.060401 1_555
Ba1 O30 2.701704 1_555
Ba1 O13 2.791092 1_455
Ba1 O21 2.822027 1_455
Ba1 O17 2.823811 1_545
Ba1 O14 2.870225 1_455
Ba1 O9 2.950115 1_555
Ba1 O2 2.988771 1_545
Ba1 O11 3.016064 1_545
Ba1 O24 3.060401 1_455
Ba2 O21 2.701704 1_555
Ba2 O8 2.791092 1_655
Ba2 O30 2.822027 1_655
Ba2 O14 2.823811 1_565
Ba2 O17 2.870225 1_655
Ba2 O27 2.950115 1_555
Ba2 O24 2.988771 1_565
Ba2 O28 3.016064 1_565
Ba2 O2 3.060401 1_655
Ba3 O3 2.660764 1_555
Ba3 O6 2.778298 1_555
Ba3 O29 2.790302 1_545
Ba3 O1 2.796660 1_544
Ba3 O0 2.841436 1_555
Ba3 O4 2.868370 1_554
Ba3 O31 3.008458 1_545
Ba3 O16 3.111161 1_554
Ba3 O26 3.382813 1_545
Ba4 O7 2.660764 1_555
Ba4 O24 2.778298 1_455
Ba4 O30 2.790302 1_555
Ba4 O9 2.796660 1_556
Ba4 O17 2.841436 1_545
Ba4 O11 2.868370 1_546
Ba4 O22 3.008458 1_555
Ba4 O13 3.111161 1_456
Ba4 O8 3.382813 1_555
Ba5 O10 2.701704 1_565
Ba5 O26 2.791092 1_555
Ba5 O29 2.822027 1_555
Ba5 O12 2.823811 1_555
Ba5 O0 2.870225 1_555
Ba5 O23 2.950115 1_565
Ba5 O6 2.988771 1_555
Ba5 O18 3.016064 1_555
Ba5 O5 3.060401 1_555
Ba6 O22 2.660764 1_555
Ba6 O5 2.778298 1_555
Ba6 O10 2.790302 1_565
Ba6 O23 2.796660 1_566
Ba6 O12 2.841436 1_555
Ba6 O18 2.868370 1_556
Ba6 O7 3.008458 1_565
Ba6 O26 3.111161 1_556
Ba6 O16 3.382813 1_565
Ba7 O31 2.660764 1_555
Ba7 O2 2.778298 1_655
Ba7 O21 2.790302 1_555
Ba7 O27 2.796660 1_554
Ba7 O14 2.841436 1_565
Ba7 O28 2.868370 1_564
Ba7 O3 3.008458 1_555
Ba7 O8 3.111161 1_654
Ba7 O13 3.382813 1_555
O0 V3 1.727872 1_555
O1 V4 1.797618 1_555
O1 Zn0 1.974639 1_565
O2 V5 1.711441 1_555
O3 V1 1.705446 1_555
O4 V4 1.797023 1_555
O4 Zn2 1.977440 1_555
O5 V4 1.711441 1_555
O6 V7 1.711441 1_555
O7 V0 1.705446 1_555
O8 V5 1.708894 1_556
O9 V5 1.797618 1_555
O9 Zn1 1.974639 1_555
O10 V0 1.732816 1_555
O11 V5 1.797023 1_555
O11 Zn3 1.977440 1_555
O12 V0 1.727872 1_555
O13 V2 1.708894 1_554
O14 V1 1.727872 1_555
O15 V6 1.843835 1_555
O15 Zn3 1.978746 1_555
O15 Zn1 1.978906 1_555
O16 V7 1.708894 1_556
O17 V6 1.727872 1_555
O18 V7 1.797023 1_555
O18 Zn1 1.977440 1_555
O19 V3 1.843835 1_555
O19 Zn2 1.978746 1_555
O19 Zn0 1.978906 1_565
O20 V0 1.843835 1_555
O20 Zn1 1.978746 1_555
O20 Zn3 1.978906 1_545
O21 V1 1.732816 1_555
O22 V6 1.705446 1_555
O23 V7 1.797618 1_555
O23 Zn3 1.974639 1_545
O24 V2 1.711441 1_555
O25 V1 1.843835 1_555
O25 Zn0 1.978746 1_555
O25 Zn2 1.978906 1_555
O26 V4 1.708894 1_554
O27 V2 1.797618 1_555
O27 Zn2 1.974639 1_555
O28 V2 1.797023 1_555
O28 Zn0 1.977440 1_555
O29 V3 1.732816 1_555
O30 V6 1.732816 1_555
O31 V3 1.705446 1_555
