# generated using pymatgen
data_BaMo2(PO4)4
_symmetry_space_group_name_H-M   'P 1'
_cell_length_a   12.60619000
_cell_length_b   6.54752000
_cell_length_c   9.34999362
_cell_angle_alpha   56.52812069
_cell_angle_beta   90.00000000
_cell_angle_gamma   90.00000000
_symmetry_Int_Tables_number   1
_chemical_formula_structural   BaMo2(PO4)4
_chemical_formula_sum   'Ba2 Mo4 P8 O32'
_cell_volume   643.75348528
_cell_formula_units_Z   2
loop_
 _symmetry_equiv_pos_site_id
 _symmetry_equiv_pos_as_xyz
  1  'x, y, z'
loop_
 _atom_site_type_symbol
 _atom_site_label
 _atom_site_symmetry_multiplicity
 _atom_site_fract_x
 _atom_site_fract_y
 _atom_site_fract_z
 _atom_site_occupancy
  Ba  Ba0  1  0.00000000  0.00000000  0.50000000  1
  Ba  Ba1  1  0.50000000  0.00000000  0.00000000  1
  Mo  Mo0  1  0.31049300  0.54061200  0.66279900  1
  Mo  Mo1  1  0.68950700  0.45938800  0.33720100  1
  Mo  Mo2  1  0.18950700  0.54061200  0.16279900  1
  Mo  Mo3  1  0.81049300  0.45938800  0.83720100  1
  P  P0  1  0.69316400  0.87295100  0.43617400  1
  P  P1  1  0.55660400  0.65593700  0.74890700  1
  P  P2  1  0.05660400  0.34406300  0.75109300  1
  P  P3  1  0.94339600  0.65593700  0.24890700  1
  P  P4  1  0.44339600  0.34406300  0.25109300  1
  P  P5  1  0.80683600  0.87295100  0.93617400  1
  P  P6  1  0.30683600  0.12704900  0.56382600  1
  P  P7  1  0.19316400  0.12704900  0.06382600  1
  O  O0  1  0.46843600  0.18002700  0.19239500  1
  O  O1  1  0.03156400  0.18002700  0.69239500  1
  O  O2  1  0.28387700  0.27325600  0.94027800  1
  O  O3  1  0.32866400  0.19529100  0.69426700  1
  O  O4  1  0.14731800  0.53381200  0.65459700  1
  O  O5  1  0.58733500  0.81660900  0.54748800  1
  O  O6  1  0.41266500  0.18339100  0.45251200  1
  O  O7  1  0.65636500  0.31839000  0.54739200  1
  O  O8  1  0.71045800  0.15020700  0.33662400  1
  O  O9  1  0.84363500  0.31839000  0.04739200  1
  O  O10  1  0.85268200  0.46618800  0.34540300  1
  O  O11  1  0.15636500  0.68161000  0.95260800  1
  O  O12  1  0.71612300  0.72674400  0.05972200  1
  O  O13  1  0.96257500  0.50516500  0.74291600  1
  O  O14  1  0.53156400  0.81997300  0.80760500  1
  O  O15  1  0.28954200  0.84979300  0.66337600  1
  O  O16  1  0.34363500  0.68161000  0.45260800  1
  O  O17  1  0.82866400  0.80470900  0.80573300  1
  O  O18  1  0.46257500  0.49483500  0.75708400  1
  O  O19  1  0.08733500  0.18339100  0.95251200  1
  O  O20  1  0.91266500  0.81660900  0.04748800  1
  O  O21  1  0.78387700  0.72674400  0.55972200  1
  O  O22  1  0.21045800  0.84979300  0.16337600  1
  O  O23  1  0.67133600  0.80470900  0.30573300  1
  O  O24  1  0.96843600  0.81997300  0.30760500  1
  O  O25  1  0.53742500  0.50516500  0.24291600  1
  O  O26  1  0.03742500  0.49483500  0.25708400  1
  O  O27  1  0.35268200  0.53381200  0.15459700  1
  O  O28  1  0.78954200  0.15020700  0.83662400  1
  O  O29  1  0.17133600  0.19529100  0.19426700  1
  O  O30  1  0.64731800  0.46618800  0.84540300  1
  O  O31  1  0.21612300  0.27325600  0.44027800  1
loop_
_geom_bond_atom_site_label_1
_geom_bond_atom_site_label_2
_geom_bond_distance
_geom_bond_site_symmetry_2
Ba0 O1 2.668833 1_555
Ba0 O24 2.668833 1_445
Ba0 O26 2.785915 1_555
Ba0 O13 2.785915 1_445
Ba0 O31 3.135870 1_555
Ba0 O21 3.135870 1_445
Ba0 O4 3.160452 1_545
Ba0 O10 3.160452 1_455
Ba0 O17 3.231075 1_445
Ba0 O29 3.231075 1_555
Ba1 O0 2.668833 1_555
Ba1 O14 2.668833 1_544
Ba1 O18 2.785915 1_554
Ba1 O25 2.785915 1_545
Ba1 O12 3.135870 1_545
Ba1 O2 3.135870 1_554
Ba1 O30 3.160452 1_554
Ba1 O27 3.160452 1_545
Ba1 O23 3.231075 1_545
Ba1 O3 3.231075 1_554
Mo0 O16 1.699373 1_555
Mo0 O15 2.044480 1_555
Mo0 O4 2.059840 1_555
Mo0 O18 2.061818 1_555
Mo0 O3 2.125404 1_555
Mo0 O2 2.213214 1_555
Mo1 O7 1.699373 1_555
Mo1 O8 2.044480 1_555
Mo1 O10 2.059840 1_555
Mo1 O25 2.061818 1_555
Mo1 O23 2.125404 1_555
Mo1 O12 2.213214 1_555
Mo2 O11 1.699373 1_554
Mo2 O22 2.044480 1_555
Mo2 O27 2.059840 1_555
Mo2 O26 2.061818 1_555
Mo2 O29 2.125404 1_555
Mo2 O31 2.213214 1_555
Mo3 O9 1.699373 1_556
Mo3 O28 2.044480 1_555
Mo3 O30 2.059840 1_555
Mo3 O13 2.061818 1_555
Mo3 O17 2.125404 1_555
Mo3 O21 2.213214 1_555
O0 P4 1.484786 1_555
O1 P2 1.484786 1_555
O2 P7 1.529290 1_556
O3 P6 1.537513 1_555
O4 P2 1.558472 1_555
O5 P0 1.604877 1_555
O5 P1 1.618056 1_555
O6 P6 1.604877 1_555
O6 P4 1.618056 1_555
O8 P0 1.531510 1_545
O10 P3 1.558472 1_555
O12 P5 1.529290 1_554
O13 P2 1.560314 1_655
O14 P1 1.484786 1_555
O15 P6 1.531510 1_565
O17 P5 1.537513 1_555
O18 P1 1.560314 1_555
O19 P7 1.604877 1_556
O19 P2 1.618056 1_555
O20 P5 1.604877 1_554
O20 P3 1.618056 1_555
O21 P0 1.529290 1_555
O22 P7 1.531510 1_565
O23 P0 1.537513 1_555
O24 P3 1.484786 1_555
O25 P4 1.560314 1_555
O26 P3 1.560314 1_455
O27 P4 1.558472 1_555
O28 P5 1.531510 1_545
O29 P7 1.537513 1_555
O30 P1 1.558472 1_555
O31 P6 1.529290 1_555
