# generated using pymatgen
data_La9Sb16Br3
_symmetry_space_group_name_H-M   'P 1'
_cell_length_a   21.48567307
_cell_length_b   21.48567307
_cell_length_c   4.35348300
_cell_angle_alpha   90.00000000
_cell_angle_beta   90.00000000
_cell_angle_gamma   120.00000328
_symmetry_Int_Tables_number   1
_chemical_formula_structural   La9Sb16Br3
_chemical_formula_sum   'La18 Sb32 Br6'
_cell_volume   1740.46540927
_cell_formula_units_Z   2
loop_
 _symmetry_equiv_pos_site_id
 _symmetry_equiv_pos_as_xyz
  1  'x, y, z'
loop_
 _atom_site_type_symbol
 _atom_site_label
 _atom_site_symmetry_multiplicity
 _atom_site_fract_x
 _atom_site_fract_y
 _atom_site_fract_z
 _atom_site_occupancy
  La  La0  1  0.23288200  0.54190800  0.75000000  1
  La  La1  1  0.09455200  0.84895600  0.25000000  1
  La  La2  1  0.99273900  0.39417000  0.75000000  1
  La  La3  1  0.76711800  0.45809200  0.25000000  1
  La  La4  1  0.40143000  0.00726100  0.75000000  1
  La  La5  1  0.24559600  0.09455200  0.75000000  1
  La  La6  1  0.30902600  0.76711800  0.75000000  1
  La  La7  1  0.54190800  0.30902600  0.25000000  1
  La  La8  1  0.59857000  0.99273900  0.25000000  1
  La  La9  1  0.60583000  0.59857000  0.75000000  1
  La  La10  1  0.00726100  0.60583000  0.25000000  1
  La  La11  1  0.84895600  0.75440400  0.75000000  1
  La  La12  1  0.15104400  0.24559600  0.25000000  1
  La  La13  1  0.75440400  0.90544800  0.25000000  1
  La  La14  1  0.69097400  0.23288200  0.25000000  1
  La  La15  1  0.45809200  0.69097400  0.75000000  1
  La  La16  1  0.39417000  0.40143000  0.25000000  1
  La  La17  1  0.90544800  0.15104400  0.75000000  1
  Sb  Sb0  1  0.48444900  0.58807600  0.25000000  1
  Sb  Sb1  1  0.72439100  0.01002600  0.75000000  1
  Sb  Sb2  1  0.77383300  0.13111600  0.25000000  1
  Sb  Sb3  1  0.22616700  0.86888400  0.75000000  1
  Sb  Sb4  1  0.25025100  0.42833500  0.25000000  1
  Sb  Sb5  1  0.27560900  0.98997400  0.25000000  1
  Sb  Sb6  1  0.71436500  0.72439100  0.25000000  1
  Sb  Sb7  1  0.64271700  0.77383300  0.75000000  1
  Sb  Sb8  1  0.13717900  0.62849400  0.75000000  1
  Sb  Sb9  1  0.58807600  0.10362700  0.75000000  1
  Sb  Sb10  1  0.82191600  0.25025100  0.75000000  1
  Sb  Sb11  1  0.37150600  0.50868500  0.75000000  1
  Sb  Sb12  1  0.28563500  0.27560900  0.75000000  1
  Sb  Sb13  1  0.74974900  0.57166500  0.75000000  1
  Sb  Sb14  1  0.10362700  0.51555100  0.25000000  1
  Sb  Sb15  1  0.01002600  0.28563500  0.25000000  1
  Sb  Sb16  1  0.49131500  0.86282100  0.75000000  1
  Sb  Sb17  1  0.13111600  0.35728300  0.75000000  1
  Sb  Sb18  1  0.57166500  0.82191600  0.25000000  1
  Sb  Sb19  1  0.35728300  0.22616700  0.25000000  1
  Sb  Sb20  1  0.41192400  0.89637300  0.25000000  1
  Sb  Sb21  1  0.42833500  0.17808400  0.75000000  1
  Sb  Sb22  1  0.51555100  0.41192400  0.75000000  1
  Sb  Sb23  1  0.62849400  0.49131500  0.25000000  1
  Sb  Sb24  1  0.86282100  0.37150600  0.25000000  1
  Sb  Sb25  1  0.98997400  0.71436500  0.75000000  1
  Sb  Sb26  1  0.17808400  0.74974900  0.25000000  1
  Sb  Sb27  1  0.89637300  0.48444900  0.75000000  1
  Sb  Sb28  1  0.66666700  0.33333300  0.75000000  1
  Sb  Sb29  1  0.50868500  0.13717900  0.25000000  1
  Sb  Sb30  1  0.33333300  0.66666700  0.25000000  1
  Sb  Sb31  1  0.86888400  0.64271700  0.25000000  1
  Br  Br0  1  0.05056700  0.14935100  0.75000000  1
  Br  Br1  1  0.09878400  0.94943300  0.75000000  1
  Br  Br2  1  0.94943300  0.85064900  0.25000000  1
  Br  Br3  1  0.85064900  0.90121600  0.75000000  1
  Br  Br4  1  0.90121600  0.05056700  0.25000000  1
  Br  Br5  1  0.14935100  0.09878400  0.25000000  1
loop_
_geom_bond_atom_site_label_1
_geom_bond_atom_site_label_2
_geom_bond_distance
_geom_bond_site_symmetry_2
La0 Sb30 3.285765 1_555
La0 Sb30 3.285765 1_556
La0 Sb14 3.346441 1_556
La0 Sb14 3.346441 1_555
La0 Sb11 3.392144 1_555
La0 Sb8 3.393291 1_555
La0 Sb4 3.426755 1_555
La0 Sb4 3.426755 1_556
La0 Sb17 3.441342 1_555
La1 Sb26 3.404417 1_555
La1 Sb25 3.413452 1_455
La1 Sb25 3.413452 1_454
La1 Sb3 3.421609 1_555
La1 Sb3 3.421609 1_554
La1 Sb5 3.539299 1_555
La2 Sb14 3.317000 1_655
La2 Sb14 3.317000 1_656
La2 Sb15 3.343692 1_656
La2 Sb15 3.343692 1_655
La2 Sb24 3.377549 1_555
La2 Sb24 3.377549 1_556
La2 Sb10 3.418079 1_555
La2 Sb17 3.438591 1_655
La2 Sb27 3.473545 1_555
La3 Sb28 3.285765 1_555
La3 Sb28 3.285765 1_554
La3 Sb27 3.346441 1_555
La3 Sb27 3.346441 1_554
La3 Sb23 3.392144 1_555
La3 Sb24 3.393291 1_555
La3 Sb13 3.426755 1_554
La3 Sb13 3.426755 1_555
La3 Sb31 3.441342 1_555
La4 Sb20 3.317009 1_546
La4 Sb20 3.317009 1_545
La4 Sb5 3.343676 1_545
La4 Sb5 3.343676 1_546
La4 Sb29 3.377555 1_556
La4 Sb29 3.377555 1_555
La4 Sb21 3.418072 1_555
La4 Sb3 3.438577 1_545
La4 Sb9 3.473563 1_555
La5 Sb21 3.404417 1_555
La5 Sb5 3.413452 1_545
La5 Sb5 3.413452 1_546
La5 Sb19 3.421609 1_556
La5 Sb19 3.421609 1_555
La5 Sb12 3.539299 1_555
La6 Sb30 3.285754 1_555
La6 Sb30 3.285754 1_556
La6 Sb20 3.346441 1_555
La6 Sb20 3.346441 1_556
La6 Sb8 3.392144 1_555
La6 Sb16 3.393290 1_555
La6 Sb26 3.426755 1_556
La6 Sb26 3.426755 1_555
La6 Sb3 3.441342 1_555
La7 Sb28 3.285770 1_555
La7 Sb28 3.285770 1_554
La7 Sb22 3.346441 1_554
La7 Sb22 3.346441 1_555
La7 Sb29 3.392144 1_555
La7 Sb23 3.393290 1_555
La7 Sb21 3.426755 1_555
La7 Sb21 3.426755 1_554
La7 Sb19 3.441342 1_555
La8 Sb9 3.317009 1_565
La8 Sb9 3.317009 1_564
La8 Sb1 3.343676 1_565
La8 Sb1 3.343676 1_564
La8 Sb16 3.377555 1_554
La8 Sb16 3.377555 1_555
La8 Sb18 3.418072 1_555
La8 Sb2 3.438577 1_565
La8 Sb20 3.473563 1_555
La9 Sb0 3.316993 1_555
La9 Sb0 3.316993 1_556
La9 Sb6 3.343682 1_555
La9 Sb6 3.343682 1_556
La9 Sb23 3.377566 1_555
La9 Sb23 3.377566 1_556
La9 Sb13 3.418093 1_555
La9 Sb7 3.438570 1_555
La9 Sb22 3.473564 1_555
La10 Sb27 3.317000 1_455
La10 Sb27 3.317000 1_454
La10 Sb25 3.343692 1_455
La10 Sb25 3.343692 1_454
La10 Sb8 3.377549 1_554
La10 Sb8 3.377549 1_555
La10 Sb26 3.418079 1_555
La10 Sb31 3.438591 1_455
La10 Sb14 3.473545 1_555
La11 Sb13 3.404417 1_555
La11 Sb6 3.413452 1_555
La11 Sb6 3.413452 1_556
La11 Sb31 3.421609 1_556
La11 Sb31 3.421609 1_555
La11 Sb25 3.539299 1_555
La12 Sb4 3.404417 1_555
La12 Sb12 3.413452 1_554
La12 Sb12 3.413452 1_555
La12 Sb17 3.421609 1_555
La12 Sb17 3.421609 1_554
La12 Sb15 3.539299 1_555
La13 Sb18 3.404417 1_555
La13 Sb1 3.413452 1_565
La13 Sb1 3.413452 1_564
La13 Sb7 3.421609 1_554
La13 Sb7 3.421609 1_555
La13 Sb6 3.539299 1_555
La14 Sb28 3.285754 1_555
La14 Sb28 3.285754 1_554
La14 Sb9 3.346441 1_554
La14 Sb9 3.346441 1_555
La14 Sb24 3.392144 1_555
La14 Sb29 3.393290 1_555
La14 Sb10 3.426755 1_555
La14 Sb10 3.426755 1_554
La14 Sb2 3.441342 1_555
La15 Sb30 3.285770 1_555
La15 Sb30 3.285770 1_556
La15 Sb0 3.346441 1_556
La15 Sb0 3.346441 1_555
La15 Sb16 3.392144 1_555
La15 Sb11 3.393290 1_555
La15 Sb18 3.426755 1_555
La15 Sb18 3.426755 1_556
La15 Sb7 3.441342 1_555
La16 Sb22 3.316993 1_555
La16 Sb22 3.316993 1_554
La16 Sb12 3.343682 1_554
La16 Sb12 3.343682 1_555
La16 Sb11 3.377566 1_554
La16 Sb11 3.377566 1_555
La16 Sb4 3.418093 1_555
La16 Sb19 3.438570 1_555
La16 Sb0 3.473564 1_555
La17 Sb10 3.404417 1_555
La17 Sb15 3.413452 1_656
La17 Sb15 3.413452 1_655
La17 Sb2 3.421609 1_556
La17 Sb2 3.421609 1_555
La17 Sb1 3.539299 1_555
Sb0 Sb11 3.065485 1_555
Sb0 Sb11 3.065485 1_554
Sb1 Sb2 3.141933 1_555
Sb1 Sb2 3.141933 1_556
Sb3 Sb5 3.141933 1_556
Sb3 Sb5 3.141933 1_555
Sb6 Sb7 3.141933 1_554
Sb6 Sb7 3.141933 1_555
Sb10 Sb2 3.116588 1_556
Sb10 Sb2 3.116588 1_555
Sb10 Sb24 3.163581 1_556
Sb10 Sb24 3.163581 1_555
Sb11 Sb4 3.163581 1_555
Sb11 Sb4 3.163581 1_556
Sb12 Sb19 3.141933 1_556
Sb12 Sb19 3.141933 1_555
Sb13 Sb31 3.116588 1_556
Sb13 Sb31 3.116588 1_555
Sb13 Sb23 3.163581 1_556
Sb13 Sb23 3.163581 1_555
Sb14 Sb8 3.065485 1_554
Sb14 Sb8 3.065485 1_555
Sb15 Sb17 3.141933 1_554
Sb15 Sb17 3.141933 1_555
Sb16 Sb20 3.065485 1_555
Sb16 Sb20 3.065485 1_556
Sb16 Sb18 3.163581 1_555
Sb16 Sb18 3.163581 1_556
Sb17 Sb4 3.116588 1_556
Sb17 Sb4 3.116588 1_555
Sb18 Sb7 3.116588 1_555
Sb18 Sb7 3.116588 1_554
Sb19 Sb21 3.116588 1_554
Sb19 Sb21 3.116588 1_555
Sb21 Sb29 3.163581 1_556
Sb21 Sb29 3.163581 1_555
Sb22 Sb23 3.065485 1_555
Sb22 Sb23 3.065485 1_556
Sb24 Sb27 3.065485 1_554
Sb24 Sb27 3.065485 1_555
Sb25 Sb31 3.141933 1_556
Sb25 Sb31 3.141933 1_555
Sb26 Sb3 3.116588 1_555
Sb26 Sb3 3.116588 1_554
Sb26 Sb8 3.163581 1_555
Sb26 Sb8 3.163581 1_554
Sb29 Sb9 3.065485 1_555
Sb29 Sb9 3.065485 1_554
Br0 La12 3.034907 1_556
Br0 La12 3.034907 1_555
Br0 La17 3.136325 1_455
Br1 La1 3.034907 1_555
Br1 La1 3.034907 1_556
Br1 La5 3.136325 1_565
Br2 La11 3.034907 1_555
Br2 La11 3.034907 1_554
Br2 La1 3.136325 1_655
Br3 La13 3.034907 1_556
Br3 La13 3.034907 1_555
Br3 La11 3.136325 1_555
Br4 La17 3.034907 1_554
Br4 La17 3.034907 1_555
Br4 La13 3.136325 1_545
Br5 La5 3.034907 1_555
Br5 La5 3.034907 1_554
Br5 La12 3.136325 1_555
