# generated using pymatgen
data_V9O17
_symmetry_space_group_name_H-M   'P 1'
_cell_length_a   5.56470467
_cell_length_b   7.11667897
_cell_length_c   14.73043698
_cell_angle_alpha   83.70899207
_cell_angle_beta   90.45317811
_cell_angle_gamma   71.76294715
_symmetry_Int_Tables_number   1
_chemical_formula_structural   V9O17
_chemical_formula_sum   'V18 O34'
_cell_volume   550.16883633
_cell_formula_units_Z   2
loop_
 _symmetry_equiv_pos_site_id
 _symmetry_equiv_pos_as_xyz
  1  'x, y, z'
loop_
 _atom_site_type_symbol
 _atom_site_label
 _atom_site_symmetry_multiplicity
 _atom_site_fract_x
 _atom_site_fract_y
 _atom_site_fract_z
 _atom_site_occupancy
  V  V0  1  0.32542100  0.91059900  0.72945700  1
  V  V1  1  0.67404700  0.08901300  0.27026800  1
  V  V2  1  0.74340000  0.10988800  0.84286300  1
  V  V3  1  0.25664900  0.89005800  0.15733900  1
  V  V4  1  0.34201500  0.41111800  0.72597800  1
  V  V5  1  0.65772600  0.58794300  0.27436500  1
  V  V6  1  0.91610400  0.20134000  0.61801500  1
  V  V7  1  0.08425000  0.79827700  0.38189000  1
  V  V8  1  0.24962300  0.38684400  0.16209600  1
  V  V9  1  0.74929600  0.61302900  0.83802900  1
  V  V10  1  0.80966700  0.68610600  0.04466800  1
  V  V11  1  0.19097900  0.31542600  0.95511900  1
  V  V12  1  0.92918000  0.69864900  0.61027600  1
  V  V13  1  0.07141000  0.30069900  0.38978000  1
  V  V14  1  0.80729200  0.18977000  0.04165700  1
  V  V15  1  0.19303000  0.81216300  0.95838300  1
  V  V16  1  0.50082700  0.99964600  0.49989200  1
  V  V17  1  0.50005700  0.49964100  0.50023700  1
  O  O0  1  0.15194500  0.18422400  0.09616200  1
  O  O1  1  0.84818700  0.81694800  0.90430500  1
  O  O2  1  0.97372400  0.06123900  0.75003300  1
  O  O3  1  0.02557300  0.93906500  0.24990300  1
  O  O4  1  0.20212600  0.02134300  0.41935300  1
  O  O5  1  0.79852100  0.97834500  0.58035500  1
  O  O6  1  0.20939200  0.52582600  0.02410400  1
  O  O7  1  0.79148600  0.47492900  0.97553800  1
  O  O8  1  0.70506800  0.97269100  0.39186900  1
  O  O9  1  0.29561100  0.02637400  0.60818300  1
  O  O10  1  0.55003500  0.36966800  0.62812400  1
  O  O11  1  0.45038200  0.62994600  0.37212200  1
  O  O12  1  0.79183400  0.30251500  0.30706900  1
  O  O13  1  0.20821200  0.69674800  0.69311400  1
  O  O14  1  0.62981800  0.39462900  0.80671700  1
  O  O15  1  0.36889200  0.60548700  0.19359300  1
  O  O16  1  0.14672800  0.66730400  0.50895200  1
  O  O17  1  0.85357300  0.33267800  0.49112900  1
  O  O18  1  0.46100700  0.81987500  0.04771400  1
  O  O19  1  0.53902400  0.18191500  0.95237900  1
  O  O20  1  0.03493300  0.11799300  0.93037400  1
  O  O21  1  0.96439500  0.88451200  0.06949200  1
  O  O22  1  0.44886000  0.12255100  0.77198600  1
  O  O23  1  0.55126900  0.87657000  0.22819700  1
  O  O24  1  0.39260100  0.77184500  0.85347800  1
  O  O25  1  0.60644300  0.22684900  0.14658400  1
  O  O26  1  0.03078900  0.42472300  0.65286800  1
  O  O27  1  0.96988300  0.57477000  0.34653900  1
  O  O28  1  0.37603600  0.29098500  0.46650700  1
  O  O29  1  0.62441000  0.70854700  0.53363100  1
  O  O30  1  0.30184600  0.26003500  0.27549600  1
  O  O31  1  0.69852000  0.74028200  0.72494600  1
  O  O32  1  0.11436100  0.45244300  0.83758300  1
  O  O33  1  0.88354200  0.54593300  0.16128600  1
loop_
_geom_bond_atom_site_label_1
_geom_bond_atom_site_label_2
_geom_bond_distance
_geom_bond_site_symmetry_2
O0 V8 2.026625 1_555
O0 V14 2.060535 1_455
O0 V3 2.085436 1_545
O0 V11 2.223618 1_554
O1 V9 2.040551 1_555
O1 V15 2.060840 1_655
O1 V2 2.079100 1_565
O1 V10 2.213145 1_556
O2 V2 1.867131 1_555
O2 V0 1.959276 1_645
O2 V6 2.060054 1_555
O3 V3 1.866953 1_555
O3 V1 1.956564 1_465
O3 V7 2.061261 1_555
O4 V13 1.889820 1_555
O4 V16 1.990527 1_545
O4 V7 2.023101 1_545
O5 V12 1.892577 1_555
O5 V16 1.986064 1_555
O5 V6 2.022749 1_565
O6 V11 1.926919 1_554
O6 V15 2.132637 1_554
O6 V8 2.138647 1_555
O6 V10 2.199759 1_455
O7 V10 1.932558 1_556
O7 V14 2.128026 1_556
O7 V9 2.129727 1_555
O7 V11 2.197035 1_655
O8 V1 1.871982 1_565
O8 V16 1.954372 1_555
O8 V7 2.102421 1_655
O9 V0 1.866780 1_545
O9 V16 1.960664 1_545
O9 V6 2.104712 1_455
O10 V4 1.846772 1_555
O10 V17 1.982566 1_555
O10 V6 2.030614 1_555
O11 V5 1.843633 1_555
O11 V17 1.986359 1_555
O11 V7 2.030180 1_555
O12 V5 1.935518 1_555
O12 V1 1.957131 1_555
O12 V13 1.964422 1_655
O13 V4 1.937031 1_555
O13 V0 1.955132 1_555
O13 V12 1.963009 1_455
O14 V2 1.935432 1_555
O14 V4 1.953160 1_555
O14 V9 1.967137 1_555
O15 V3 1.934614 1_555
O15 V5 1.956056 1_555
O15 V8 1.968922 1_555
O16 V12 1.917163 1_455
O16 V17 1.968559 1_555
O16 V7 1.974182 1_555
O17 V13 1.918445 1_655
O17 V17 1.968725 1_555
O17 V6 1.972684 1_555
O18 V10 1.878114 1_555
O18 V15 1.998573 1_554
O18 V3 2.000159 1_555
O19 V11 1.874390 1_555
O19 V14 1.999615 1_556
O19 V2 2.001007 1_555
O20 V11 1.931838 1_555
O20 V15 2.068894 1_545
O20 V2 2.082946 1_455
O20 V14 2.089039 1_456
O21 V10 1.933363 1_555
O21 V14 2.064517 1_565
O21 V3 2.083029 1_655
O21 V15 2.090494 1_654
O22 V2 1.909040 1_555
O22 V4 1.988621 1_555
O22 V0 1.997084 1_545
O23 V3 1.907620 1_555
O23 V5 1.989597 1_555
O23 V1 1.995452 1_565
O24 V15 1.904856 1_555
O24 V0 1.953238 1_555
O24 V9 1.982028 1_555
O25 V14 1.907844 1_555
O25 V1 1.946705 1_555
O25 V8 1.985049 1_555
O26 V12 1.884171 1_455
O26 V6 2.001712 1_455
O26 V4 2.002818 1_555
O27 V13 1.887215 1_655
O27 V5 2.000872 1_555
O27 V7 2.004040 1_655
O28 V17 1.930259 1_555
O28 V16 1.973040 1_545
O28 V13 2.008718 1_555
O29 V17 1.931310 1_555
O29 V16 1.972041 1_555
O29 V12 2.008335 1_555
O30 V8 1.785223 1_555
O30 V1 2.054840 1_555
O30 V13 2.114410 1_555
O31 V9 1.782283 1_555
O31 V0 2.056422 1_555
O31 V12 2.120009 1_555
O32 V11 1.867706 1_555
O32 V9 1.995437 1_455
O32 V4 2.073587 1_555
O33 V10 1.863246 1_555
O33 V8 1.996239 1_655
O33 V5 2.085689 1_555
