# generated using pymatgen
data_KV4O10
_symmetry_space_group_name_H-M   'P 1'
_cell_length_a   3.71258700
_cell_length_b   6.16626203
_cell_length_c   19.30783400
_cell_angle_alpha   90.00000000
_cell_angle_beta   90.00000000
_cell_angle_gamma   107.52009304
_symmetry_Int_Tables_number   1
_chemical_formula_structural   KV4O10
_chemical_formula_sum   'K2 V8 O20'
_cell_volume   421.50586610
_cell_formula_units_Z   2
loop_
 _symmetry_equiv_pos_site_id
 _symmetry_equiv_pos_as_xyz
  1  'x, y, z'
loop_
 _atom_site_type_symbol
 _atom_site_label
 _atom_site_symmetry_multiplicity
 _atom_site_fract_x
 _atom_site_fract_y
 _atom_site_fract_z
 _atom_site_occupancy
  K  K0  1  0.08027400  0.16054700  0.25000000  1
  K  K1  1  0.91972600  0.83945300  0.75000000  1
  V  V0  1  0.43529600  0.87059300  0.07883800  1
  V  V1  1  0.56470400  0.12940700  0.92116200  1
  V  V2  1  0.43529600  0.87059300  0.42116200  1
  V  V3  1  0.56470400  0.12940700  0.57883800  1
  V  V4  1  0.73119800  0.46239600  0.08026200  1
  V  V5  1  0.26880200  0.53760400  0.91973800  1
  V  V6  1  0.73119800  0.46239600  0.41973800  1
  V  V7  1  0.26880200  0.53760400  0.58026200  1
  O  O0  1  0.57942200  0.15884300  0.45218600  1
  O  O1  1  0.42057800  0.84115700  0.54781400  1
  O  O2  1  0.57942200  0.15884300  0.04781400  1
  O  O3  1  0.42057800  0.84115700  0.95218600  1
  O  O4  1  0.45248400  0.90496800  0.16282300  1
  O  O5  1  0.54751600  0.09503200  0.83717700  1
  O  O6  1  0.45248400  0.90496800  0.33717700  1
  O  O7  1  0.54751600  0.09503200  0.66282300  1
  O  O8  1  0.71063600  0.42127200  0.16380900  1
  O  O9  1  0.28936400  0.57872800  0.83619100  1
  O  O10  1  0.71063600  0.42127200  0.33619100  1
  O  O11  1  0.28936400  0.57872800  0.66380900  1
  O  O12  1  0.26037600  0.52075100  0.05836200  1
  O  O13  1  0.73962400  0.47924900  0.94163800  1
  O  O14  1  0.26037600  0.52075100  0.44163800  1
  O  O15  1  0.73962400  0.47924900  0.55836200  1
  O  O16  1  0.89909600  0.79819300  0.43441700  1
  O  O17  1  0.10090400  0.20180700  0.56558300  1
  O  O18  1  0.89909600  0.79819300  0.06558300  1
  O  O19  1  0.10090400  0.20180700  0.93441700  1
loop_
_geom_bond_atom_site_label_1
_geom_bond_atom_site_label_2
_geom_bond_distance
_geom_bond_site_symmetry_2
K0 O4 2.921911 1_545
K0 O6 2.921911 1_545
K0 O6 2.921914 1_445
K0 O4 2.921914 1_445
K0 O8 2.926723 1_555
K0 O10 2.926723 1_555
K0 O8 2.926725 1_455
K0 O10 2.926725 1_455
K1 O5 2.921911 1_565
K1 O7 2.921911 1_565
K1 O7 2.921914 1_665
K1 O5 2.921914 1_665
K1 O11 2.926723 1_555
K1 O9 2.926723 1_555
K1 O9 2.926725 1_655
K1 O11 2.926725 1_655
O0 V2 1.797704 1_545
O0 V6 1.891713 1_555
O0 V3 2.451494 1_555
O1 V3 1.797704 1_565
O1 V7 1.891713 1_555
O1 V2 2.451494 1_555
O2 V0 1.797704 1_545
O2 V4 1.891713 1_555
O2 V1 2.451494 1_554
O3 V1 1.797704 1_565
O3 V5 1.891713 1_555
O3 V0 2.451494 1_556
O4 V0 1.634118 1_555
O5 V1 1.634118 1_555
O6 V2 1.634118 1_555
O7 V3 1.634118 1_555
O8 V4 1.631136 1_555
O9 V5 1.631136 1_555
O10 V6 1.631136 1_555
O11 V7 1.631136 1_555
O12 V4 1.934518 1_555
O12 V4 1.934521 1_455
O12 V0 2.094792 1_555
O13 V5 1.934518 1_555
O13 V5 1.934521 1_655
O13 V1 2.094792 1_555
O14 V6 1.934518 1_555
O14 V6 1.934521 1_455
O14 V2 2.094792 1_555
O15 V7 1.934518 1_555
O15 V7 1.934521 1_655
O15 V3 2.094792 1_555
O16 V2 1.921605 1_555
O16 V2 1.921605 1_655
O16 V6 1.994796 1_555
O17 V3 1.921605 1_555
O17 V3 1.921605 1_455
O17 V7 1.994796 1_555
O18 V0 1.921605 1_555
O18 V0 1.921605 1_655
O18 V4 1.994796 1_555
O19 V1 1.921605 1_555
O19 V1 1.921605 1_455
O19 V5 1.994796 1_555
