# generated using pymatgen
data_CdBr2
_symmetry_space_group_name_H-M   'P 1'
_cell_length_a   13.42933307
_cell_length_b   13.42933307
_cell_length_c   13.42933374
_cell_angle_alpha   17.20940267
_cell_angle_beta   17.20940267
_cell_angle_gamma   17.20940332
_symmetry_Int_Tables_number   1
_chemical_formula_structural   CdBr2
_chemical_formula_sum   'Cd2 Br4'
_cell_volume   184.98349765
_cell_formula_units_Z   2
loop_
 _symmetry_equiv_pos_site_id
 _symmetry_equiv_pos_as_xyz
  1  'x, y, z'
loop_
 _atom_site_type_symbol
 _atom_site_label
 _atom_site_symmetry_multiplicity
 _atom_site_fract_x
 _atom_site_fract_y
 _atom_site_fract_z
 _atom_site_occupancy
  Cd  Cd0  1  0.00000000  0.00000000  -0.00000000  1
  Cd  Cd1  1  0.50000000  0.50000000  0.50000000  1
  Br  Br0  1  0.20607552  0.20607552  0.20607552  1
  Br  Br1  1  0.79392448  0.79392448  0.79392448  1
  Br  Br2  1  0.62725662  0.62725662  0.62725662  1
  Br  Br3  1  0.37274338  0.37274338  0.37274338  1
loop_
_geom_bond_atom_site_label_1
_geom_bond_atom_site_label_2
_geom_bond_distance
_geom_bond_site_symmetry_2
Br0 Cd1 2.797918 1_545
Br0 Cd1 2.797918 1_455
Br0 Cd1 2.797918 1_554
Br1 Cd1 2.797918 1_655
Br1 Cd1 2.797918 1_565
Br1 Cd1 2.797918 1_556
Br2 Cd0 2.797944 1_665
Br2 Cd0 2.797944 1_656
Br2 Cd0 2.797944 1_566
Br3 Cd0 2.797944 1_556
Br3 Cd0 2.797944 1_655
Br3 Cd0 2.797944 1_565
