# generated using pymatgen
data_V3S
_symmetry_space_group_name_H-M   'P 1'
_cell_length_a   4.62939379
_cell_length_b   9.28968059
_cell_length_c   9.28968059
_cell_angle_alpha   90.00000000
_cell_angle_beta   90.00000000
_cell_angle_gamma   90.00000000
_symmetry_Int_Tables_number   1
_chemical_formula_structural   V3S
_chemical_formula_sum   'V24 S8'
_cell_volume   399.50819129
_cell_formula_units_Z   8
loop_
 _symmetry_equiv_pos_site_id
 _symmetry_equiv_pos_as_xyz
  1  'x, y, z'
loop_
 _atom_site_type_symbol
 _atom_site_label
 _atom_site_symmetry_multiplicity
 _atom_site_fract_x
 _atom_site_fract_y
 _atom_site_fract_z
 _atom_site_occupancy
  V  V0  1  0.75000000  0.83960213  0.83960213  1
  V  V1  1  0.25000000  0.16039787  0.16039787  1
  V  V2  1  0.25000000  0.54691665  0.54691665  1
  V  V3  1  0.75000000  0.45308335  0.45308335  1
  V  V4  1  0.00000000  0.75000000  0.10236478  1
  V  V5  1  0.00000000  0.75000000  0.39763522  1
  V  V6  1  0.75000000  0.33960213  0.16039787  1
  V  V7  1  0.25000000  0.66039787  0.83960213  1
  V  V8  1  0.75000000  0.54691665  0.95308335  1
  V  V9  1  0.75000000  0.04691665  0.04691665  1
  V  V10  1  0.00000000  0.25000000  0.60236478  1
  V  V11  1  0.25000000  0.33960213  0.33960213  1
  V  V12  1  0.00000000  0.25000000  0.89763522  1
  V  V13  1  0.75000000  0.66039787  0.66039787  1
  V  V14  1  0.50000000  0.89763522  0.25000000  1
  V  V15  1  0.75000000  0.16039787  0.33960213  1
  V  V16  1  0.25000000  0.04691665  0.45308335  1
  V  V17  1  0.25000000  0.83960213  0.66039787  1
  V  V18  1  0.50000000  0.10236478  0.75000000  1
  V  V19  1  0.50000000  0.60236478  0.25000000  1
  V  V20  1  0.25000000  0.95308335  0.95308335  1
  V  V21  1  0.25000000  0.45308335  0.04691665  1
  V  V22  1  0.50000000  0.39763522  0.75000000  1
  V  V23  1  0.75000000  0.95308335  0.54691665  1
  S  S0  1  0.50000000  0.75000000  0.45904881  1
  S  S1  1  0.50000000  0.75000000  0.04095119  1
  S  S2  1  0.50000000  0.25000000  0.95904881  1
  S  S3  1  0.50000000  0.25000000  0.54095119  1
  S  S4  1  0.00000000  0.04095119  0.75000000  1
  S  S5  1  -0.00000000  0.95904881  0.25000000  1
  S  S6  1  -0.00000000  0.45904881  0.75000000  1
  S  S7  1  0.00000000  0.54095119  0.25000000  1
loop_
_geom_bond_atom_site_label_1
_geom_bond_atom_site_label_2
_geom_bond_distance
_geom_bond_site_symmetry_2
S0 V13 2.351798 1_555
S0 V17 2.351798 1_555
S0 V23 2.359009 1_555
S0 V2 2.359009 1_555
S0 V19 2.377461 1_555
S0 V14 2.377461 1_555
S0 V5 2.383969 1_655
S0 V5 2.383969 1_555
S1 V7 2.351798 1_554
S1 V0 2.351798 1_554
S1 V8 2.359009 1_554
S1 V20 2.359009 1_554
S1 V19 2.377461 1_555
S1 V14 2.377461 1_555
S1 V4 2.383969 1_555
S1 V4 2.383969 1_655
S2 V1 2.351798 1_556
S2 V6 2.351798 1_556
S2 V9 2.359009 1_556
S2 V21 2.359009 1_556
S2 V22 2.377461 1_555
S2 V18 2.377461 1_555
S2 V12 2.383969 1_655
S2 V12 2.383969 1_555
S3 V11 2.351798 1_555
S3 V15 2.351798 1_555
S3 V16 2.359009 1_555
S3 V3 2.359009 1_555
S3 V22 2.377461 1_555
S3 V18 2.377461 1_555
S3 V10 2.383969 1_555
S3 V10 2.383969 1_655
S4 V0 2.351798 1_445
S4 V17 2.351798 1_545
S4 V23 2.359009 1_445
S4 V20 2.359009 1_545
S4 V10 2.377461 1_555
S4 V12 2.377461 1_555
S4 V18 2.383969 1_555
S4 V18 2.383969 1_455
S5 V15 2.351798 1_465
S5 V1 2.351798 1_565
S5 V9 2.359009 1_465
S5 V16 2.359009 1_565
S5 V4 2.377461 1_555
S5 V5 2.377461 1_555
S5 V14 2.383969 1_455
S5 V14 2.383969 1_555
S6 V13 2.351798 1_455
S6 V7 2.351798 1_555
S6 V8 2.359009 1_455
S6 V2 2.359009 1_555
S6 V10 2.377461 1_555
S6 V12 2.377461 1_555
S6 V22 2.383969 1_455
S6 V22 2.383969 1_555
S7 V11 2.351798 1_555
S7 V6 2.351798 1_455
S7 V3 2.359009 1_455
S7 V21 2.359009 1_555
S7 V4 2.377461 1_555
S7 V5 2.377461 1_555
S7 V19 2.383969 1_555
S7 V19 2.383969 1_455
