# generated using pymatgen
data_Ce3(AgSn)4
_symmetry_space_group_name_H-M   'P 1'
_cell_length_a   9.55778251
_cell_length_b   9.55778251
_cell_length_c   9.55778251
_cell_angle_alpha   153.77132869
_cell_angle_beta   127.34916203
_cell_angle_gamma   59.75437275
_symmetry_Int_Tables_number   1
_chemical_formula_structural   Ce3(AgSn)4
_chemical_formula_sum   'Ce3 Ag4 Sn4'
_cell_volume   304.70967119
_cell_formula_units_Z   1
loop_
 _symmetry_equiv_pos_site_id
 _symmetry_equiv_pos_as_xyz
  1  'x, y, z'
loop_
 _atom_site_type_symbol
 _atom_site_label
 _atom_site_symmetry_multiplicity
 _atom_site_fract_x
 _atom_site_fract_y
 _atom_site_fract_z
 _atom_site_occupancy
  Ce  Ce0  1  0.17990200  0.17990200  0.00000000  1
  Ce  Ce1  1  0.82009800  0.82009800  0.00000000  1
  Ce  Ce2  1  0.50000000  0.00000000  0.50000000  1
  Ag  Ag0  1  0.58335200  0.37751700  0.20583500  1
  Ag  Ag1  1  0.82831900  0.62248300  0.20583500  1
  Ag  Ag2  1  0.41664800  0.62248300  0.79416500  1
  Ag  Ag3  1  0.17168100  0.37751700  0.79416500  1
  Sn  Sn0  1  0.31160700  0.81160700  0.50000000  1
  Sn  Sn1  1  0.15968100  0.00000000  0.15968100  1
  Sn  Sn2  1  0.84031900  0.00000000  0.84031900  1
  Sn  Sn3  1  0.68839300  0.18839300  0.50000000  1
loop_
_geom_bond_atom_site_label_1
_geom_bond_atom_site_label_2
_geom_bond_distance
_geom_bond_site_symmetry_2
Ce0 Sn0 3.077081 1_544
Ce0 Sn0 3.077081 1_555
Ce0 Sn1 3.274743 1_555
Ce0 Sn2 3.274743 1_454
Ce1 Sn3 3.077081 1_554
Ce1 Sn3 3.077081 1_565
Ce1 Sn1 3.274743 1_665
Ce1 Sn2 3.274743 1_564
Ce2 Sn2 2.884938 1_555
Ce2 Sn1 2.884938 1_555
Ce2 Sn3 3.122617 1_555
Ce2 Sn0 3.122617 1_545
Ag0 Sn0 2.990152 1_544
Ag0 Sn0 2.990152 1_555
Ag0 Sn2 3.181842 1_554
Ag0 Sn2 3.181842 1_565
Ag0 Ce1 3.439057 1_556
Ag0 Ce1 3.439057 1_545
Ag0 Ce2 3.445154 1_554
Ag0 Ce2 3.445154 1_565
Ag0 Ag3 3.489796 1_554
Ag0 Ce0 3.711250 1_555
Ag1 Sn3 2.990150 1_554
Ag1 Sn3 2.990153 1_565
Ag1 Sn2 3.181844 1_554
Ag1 Sn2 3.181847 1_565
Ag1 Ce0 3.439050 1_655
Ag1 Ce0 3.439053 1_666
Ag1 Ce2 3.445159 1_554
Ag1 Ce2 3.445162 1_565
Ag1 Ag2 3.489796 1_554
Ag1 Ce1 3.711244 1_555
Ag2 Sn3 2.990152 1_555
Ag2 Sn3 2.990152 1_566
Ag2 Sn1 3.181842 1_566
Ag2 Sn1 3.181842 1_555
Ag2 Ce0 3.439057 1_566
Ag2 Ce0 3.439057 1_555
Ag2 Ce2 3.445154 1_566
Ag2 Ce2 3.445154 1_555
Ag2 Ce1 3.711250 1_556
Ag3 Sn0 2.990150 1_556
Ag3 Sn0 2.990153 1_545
Ag3 Sn1 3.181844 1_566
Ag3 Sn1 3.181847 1_555
Ag3 Ce1 3.439050 1_456
Ag3 Ce1 3.439053 1_445
Ag3 Ce2 3.445159 1_566
Ag3 Ce2 3.445162 1_555
Ag3 Ce0 3.711244 1_556
Sn1 Sn2 2.707282 1_454
