# generated using pymatgen
data_Mn(PO3)3
_symmetry_space_group_name_H-M   'P 1'
_cell_length_a   6.54660327
_cell_length_b   9.63419879
_cell_length_c   6.54167157
_cell_angle_alpha   88.95923758
_cell_angle_beta   59.97239697
_cell_angle_gamma   89.99648382
_symmetry_Int_Tables_number   1
_chemical_formula_structural   Mn(PO3)3
_chemical_formula_sum   'Mn2 P6 O18'
_cell_volume   357.13700827
_cell_formula_units_Z   2
loop_
 _symmetry_equiv_pos_site_id
 _symmetry_equiv_pos_as_xyz
  1  'x, y, z'
loop_
 _atom_site_type_symbol
 _atom_site_label
 _atom_site_symmetry_multiplicity
 _atom_site_fract_x
 _atom_site_fract_y
 _atom_site_fract_z
 _atom_site_occupancy
  Mn  Mn0  1  0.31274771  -0.00013493  0.33352538  1
  Mn  Mn1  1  0.35372145  0.49985138  0.33353934  1
  P  P0  1  0.72154288  0.73487704  0.06640773  1
  P  P1  1  0.21209125  0.23490521  0.06636073  1
  P  P2  1  0.70543116  0.24834662  0.21881655  1
  P  P3  1  0.07574220  0.74842580  0.21884000  1
  P  P4  1  0.22774273  0.76700614  0.71267022  1
  P  P5  1  0.05959596  0.26701464  0.71266699  1
  O  O0  1  0.93345259  0.23544561  0.24072135  1
  O  O1  1  0.82580716  0.73543726  0.24077410  1
  O  O2  1  0.57251733  0.85663467  0.10472349  1
  O  O3  1  0.32270723  0.35667528  0.10470253  1
  O  O4  1  0.61563266  0.59413818  0.07884273  1
  O  O5  1  0.30564304  0.09416881  0.07878250  1
  O  O6  1  0.57499447  0.11423719  0.29842491  1
  O  O7  1  0.12673050  0.61437396  0.29844005  1
  O  O8  1  0.57834078  0.37481445  0.34889963  1
  O  O9  1  0.07262487  0.87494497  0.34888136  1
  O  O10  1  0.95224399  0.74382139  0.81490252  1
  O  O11  1  0.23290591  0.24388083  0.81485571  1
  O  O12  1  0.80757105  0.27159492  0.94382790  1
  O  O13  1  0.24857984  0.77167096  0.94383078  1
  O  O14  1  0.35947746  0.64872807  0.56729730  1
  O  O15  1  0.07324215  0.14872397  0.56730144  1
  O  O16  1  0.29621603  0.91019596  0.60421618  1
  O  O17  1  0.09946159  0.41019661  0.60421858  1
loop_
_geom_bond_atom_site_label_1
_geom_bond_atom_site_label_2
_geom_bond_distance
_geom_bond_site_symmetry_2
Mn0 O5 1.904525 1_555
Mn0 O16 1.909524 1_545
Mn0 O9 1.940995 1_545
Mn0 O6 1.952143 1_555
Mn0 O15 2.129197 1_555
Mn0 O2 2.136284 1_545
Mn1 O4 1.904506 1_555
Mn1 O17 1.909681 1_555
Mn1 O8 1.940837 1_555
Mn1 O7 1.952025 1_555
Mn1 O14 2.129405 1_555
Mn1 O3 2.136378 1_555
O0 P2 1.574085 1_555
O0 P1 1.595727 1_655
O1 P3 1.574129 1_655
O1 P0 1.595766 1_555
O2 P0 1.468489 1_555
O3 P1 1.468398 1_555
O4 P0 1.505157 1_555
O5 P1 1.505262 1_555
O6 P2 1.483362 1_555
O7 P3 1.483230 1_555
O8 P2 1.493270 1_555
O9 P3 1.493359 1_555
O10 P0 1.582178 1_556
O10 P4 1.592949 1_655
O11 P1 1.582211 1_556
O11 P5 1.592950 1_555
O12 P2 1.585810 1_556
O12 P5 1.586255 1_655
O13 P3 1.585883 1_556
O13 P4 1.586262 1_555
O14 P4 1.471407 1_555
O15 P5 1.471516 1_555
O16 P4 1.501196 1_555
O17 P5 1.501153 1_555
