# generated using pymatgen
data_CsSiTe3
_symmetry_space_group_name_H-M   'P 1'
_cell_length_a   8.28514190
_cell_length_b   8.28514190
_cell_length_c   13.56096589
_cell_angle_alpha   84.53407253
_cell_angle_beta   84.53407253
_cell_angle_gamma   117.89889324
_symmetry_Int_Tables_number   1
_chemical_formula_structural   CsSiTe3
_chemical_formula_sum   'Cs4 Si4 Te12'
_cell_volume   808.53187510
_cell_formula_units_Z   4
loop_
 _symmetry_equiv_pos_site_id
 _symmetry_equiv_pos_as_xyz
  1  'x, y, z'
loop_
 _atom_site_type_symbol
 _atom_site_label
 _atom_site_symmetry_multiplicity
 _atom_site_fract_x
 _atom_site_fract_y
 _atom_site_fract_z
 _atom_site_occupancy
  Cs  Cs0  1  0.72315972  0.22221994  0.18840327  1
  Cs  Cs1  1  0.47598911  0.65904915  0.41361103  1
  Cs  Cs2  1  0.22221994  0.72315972  0.68840327  1
  Cs  Cs3  1  0.65904915  0.47598911  0.91361103  1
  Si  Si0  1  0.16841932  0.05786720  0.38838361  1
  Si  Si1  1  0.05167717  0.89860149  0.13241168  1
  Si  Si2  1  0.89860149  0.05167717  0.63241168  1
  Si  Si3  1  0.05786720  0.16841932  0.88838361  1
  Te  Te0  1  0.20978409  0.19901427  0.20395797  1
  Te  Te1  1  0.14560461  0.68656711  0.22527016  1
  Te  Te2  1  0.45678913  0.15395259  0.45533311  1
  Te  Te3  1  0.96649060  0.70344271  0.41530719  1
  Te  Te4  1  0.15395259  0.45678913  0.95533311  1
  Te  Te5  1  0.71406246  0.76370538  0.13447415  1
  Te  Te6  1  0.19901427  0.20978409  0.70395797  1
  Te  Te7  1  0.76370538  0.71406246  0.63447415  1
  Te  Te8  1  0.68656711  0.14560461  0.72527016  1
  Te  Te9  1  0.20103130  0.97056964  0.95074782  1
  Te  Te10  1  0.97056964  0.20103130  0.45074782  1
  Te  Te11  1  0.70344271  0.96649060  0.91530719  1
loop_
_geom_bond_atom_site_label_1
_geom_bond_atom_site_label_2
_geom_bond_distance
_geom_bond_site_symmetry_2
Cs0 Te2 3.900443 1_555
Cs0 Te5 3.904314 1_545
Cs0 Te1 3.924229 1_655
Cs0 Te4 4.085964 1_654
Cs0 Te0 4.149239 1_655
Cs0 Te0 4.150765 1_555
Cs0 Te10 4.300757 1_555
Cs1 Te3 3.907878 1_555
Cs1 Te5 3.914487 1_555
Cs1 Te7 3.932466 1_555
Cs1 Te1 3.984095 1_555
Cs1 Te10 4.068436 1_455
Cs1 Te2 4.094723 1_555
Cs1 Te2 4.265381 1_565
Cs2 Te4 3.900443 1_555
Cs2 Te7 3.904314 1_455
Cs2 Te8 3.924229 1_565
Cs2 Te2 4.085964 1_565
Cs2 Te6 4.149239 1_565
Cs2 Te6 4.150765 1_555
Cs2 Te9 4.300757 1_555
Cs3 Te11 3.907878 1_555
Cs3 Te7 3.914487 1_555
Cs3 Te5 3.932466 1_556
Cs3 Te8 3.984095 1_555
Cs3 Te9 4.068436 1_545
Cs3 Te4 4.094723 1_555
Cs3 Te4 4.265381 1_655
Si0 Te2 2.436644 1_555
Si0 Te10 2.560416 1_455
Si0 Te3 2.576234 1_445
Si0 Te0 2.577679 1_555
Si1 Te5 2.475413 1_455
Si1 Te1 2.514367 1_555
Si1 Te9 2.530748 1_554
Si1 Te0 2.550149 1_565
Si2 Te7 2.475413 1_545
Si2 Te8 2.514367 1_555
Si2 Te10 2.530748 1_555
Si2 Te6 2.550149 1_655
Si3 Te4 2.436644 1_555
Si3 Te9 2.560416 1_545
Si3 Te11 2.576234 1_445
Si3 Te6 2.577679 1_555
Te1 Te3 2.897823 1_455
Te11 Te8 2.897823 1_565
