# generated using pymatgen
data_CoBC8(OF2)5
_symmetry_space_group_name_H-M   'P 1'
_cell_length_a   14.32881300
_cell_length_b   8.22644500
_cell_length_c   13.08193906
_cell_angle_alpha   81.01477559
_cell_angle_beta   90.00000000
_cell_angle_gamma   90.00000000
_symmetry_Int_Tables_number   1
_chemical_formula_structural   CoBC8(OF2)5
_chemical_formula_sum   'Co4 B4 C32 O20 F40'
_cell_volume   1523.11321393
_cell_formula_units_Z   4
loop_
 _symmetry_equiv_pos_site_id
 _symmetry_equiv_pos_as_xyz
  1  'x, y, z'
loop_
 _atom_site_type_symbol
 _atom_site_label
 _atom_site_symmetry_multiplicity
 _atom_site_fract_x
 _atom_site_fract_y
 _atom_site_fract_z
 _atom_site_occupancy
  Co  Co0  1  0.60228700  0.22411300  0.76086800  1
  Co  Co1  1  0.39771300  0.77588700  0.23913200  1
  Co  Co2  1  0.89771300  0.22411300  0.26086800  1
  Co  Co3  1  0.10228700  0.77588700  0.73913200  1
  B  B0  1  0.75841900  0.77796700  0.49919200  1
  B  B1  1  0.24158100  0.22203300  0.50080800  1
  B  B2  1  0.25841900  0.22203300  0.00080800  1
  B  B3  1  0.74158100  0.77796700  0.99919200  1
  C  C0  1  0.91183000  0.19774500  0.39916400  1
  C  C1  1  0.61240500  0.25251500  0.62187700  1
  C  C2  1  0.19294900  0.40173300  0.50821100  1
  C  C3  1  0.78203800  0.83238400  0.61239200  1
  C  C4  1  0.22869100  0.76874700  0.72350800  1
  C  C5  1  0.08817000  0.80225500  0.60083600  1
  C  C6  1  0.30705100  0.40173300  0.00821100  1
  C  C7  1  0.38759500  0.74748500  0.37812300  1
  C  C8  1  0.88759500  0.25251500  0.12187700  1
  C  C9  1  0.05061600  0.97761300  0.74092000  1
  C  C10  1  0.71796200  0.83238400  0.11239200  1
  C  C11  1  0.41183000  0.80225500  0.10083600  1
  C  C12  1  0.46995300  0.59252500  0.24963300  1
  C  C13  1  0.55061600  0.02238700  0.75908000  1
  C  C14  1  0.69294900  0.59826700  0.99178900  1
  C  C15  1  0.28203800  0.16761600  0.88760800  1
  C  C16  1  0.11240500  0.74748500  0.87812300  1
  C  C17  1  0.14438700  0.23087600  0.01600900  1
  C  C18  1  0.35561300  0.23087600  0.51600900  1
  C  C19  1  0.96995300  0.40747500  0.25036700  1
  C  C20  1  0.27130900  0.76874700  0.22350800  1
  C  C21  1  0.77130900  0.23125300  0.27649200  1
  C  C22  1  0.94938400  0.02238700  0.25908000  1
  C  C23  1  0.72869100  0.23125300  0.77649200  1
  C  C24  1  0.53004700  0.40747500  0.75036700  1
  C  C25  1  0.80705100  0.59826700  0.49178900  1
  C  C26  1  0.64438700  0.76912400  0.48399100  1
  C  C27  1  0.21796200  0.16761600  0.38760800  1
  C  C28  1  0.44938400  0.97761300  0.24092000  1
  C  C29  1  0.85561300  0.76912400  0.98399100  1
  C  C30  1  0.58817000  0.19774500  0.89916400  1
  C  C31  1  0.03004700  0.59252500  0.74963300  1
  O  O0  1  0.69222600  0.23364000  0.28826800  1
  O  O1  1  0.51631100  0.47814100  0.25515600  1
  O  O2  1  0.61697400  0.26947500  0.53363700  1
  O  O3  1  0.98368900  0.47814100  0.75515600  1
  O  O4  1  0.01631100  0.52185900  0.24484400  1
  O  O5  1  0.98212400  0.89573800  0.25807800  1
  O  O6  1  0.88302600  0.26947500  0.03363700  1
  O  O7  1  0.57763200  0.18280700  0.98677600  1
  O  O8  1  0.48368900  0.52185900  0.74484400  1
  O  O9  1  0.51787600  0.89573800  0.75807800  1
  O  O10  1  0.30777400  0.76636000  0.71173200  1
  O  O11  1  0.11697400  0.73052500  0.96636300  1
  O  O12  1  0.19222600  0.76636000  0.21173200  1
  O  O13  1  0.92236800  0.18280700  0.48677600  1
  O  O14  1  0.48212400  0.10426200  0.24192200  1
  O  O15  1  0.07763200  0.81719300  0.51322400  1
  O  O16  1  0.80777400  0.23364000  0.78826800  1
  O  O17  1  0.42236800  0.81719300  0.01322400  1
  O  O18  1  0.38302600  0.73052500  0.46636300  1
  O  O19  1  0.01787600  0.10426200  0.74192200  1
  F  F0  1  0.10212600  0.36375900  0.95526800  1
  F  F1  1  0.76069200  0.99649200  0.61491100  1
  F  F2  1  0.88161800  0.75782300  0.88370800  1
  F  F3  1  0.37641500  0.17994500  0.86262300  1
  F  F4  1  0.12358500  0.17994500  0.36262300  1
  F  F5  1  0.23930800  0.00350800  0.38508900  1
  F  F6  1  0.26069200  0.00350800  0.88508900  1
  F  F7  1  0.20369000  0.10056300  0.58012800  1
  F  F8  1  0.29434600  0.51862600  0.92074700  1
  F  F9  1  0.90243800  0.60956700  0.47766100  1
  F  F10  1  0.38161800  0.24217700  0.61629200  1
  F  F11  1  0.60212600  0.63624100  0.54473200  1
  F  F12  1  0.22512000  0.47592600  0.58945000  1
  F  F13  1  0.40221900  0.09389600  0.49302200  1
  F  F14  1  0.70369000  0.89943700  0.91987200  1
  F  F15  1  0.87641500  0.82005500  0.63737700  1
  F  F16  1  0.40243800  0.39043300  0.02233900  1
  F  F17  1  0.62358500  0.82005500  0.13737700  1
  F  F18  1  0.73613700  0.74464100  0.69487600  1
  F  F19  1  0.76386300  0.74464100  0.19487600  1
  F  F20  1  0.09778100  0.09389600  0.99302200  1
  F  F21  1  0.79434600  0.48137400  0.57925300  1
  F  F22  1  0.70565400  0.48137400  0.07925300  1
  F  F23  1  0.20565400  0.51862600  0.42074700  1
  F  F24  1  0.73930800  0.99649200  0.11491100  1
  F  F25  1  0.79631000  0.89943700  0.41987200  1
  F  F26  1  0.27488000  0.47592600  0.08945000  1
  F  F27  1  0.11838200  0.24217700  0.11629200  1
  F  F28  1  0.77488000  0.52407400  0.41055000  1
  F  F29  1  0.26386300  0.25535900  0.30512400  1
  F  F30  1  0.29631000  0.10056300  0.08012800  1
  F  F31  1  0.09756200  0.39043300  0.52233900  1
  F  F32  1  0.89787400  0.63624100  0.04473200  1
  F  F33  1  0.90221900  0.90610400  0.00697800  1
  F  F34  1  0.23613700  0.25535900  0.80512400  1
  F  F35  1  0.61838200  0.75782300  0.38370800  1
  F  F36  1  0.59778100  0.90610400  0.50697800  1
  F  F37  1  0.39787400  0.36375900  0.45526800  1
  F  F38  1  0.72511900  0.52407400  0.91055000  1
  F  F39  1  0.59756200  0.60956700  0.97766100  1
loop_
_geom_bond_atom_site_label_1
_geom_bond_atom_site_label_2
_geom_bond_distance
_geom_bond_site_symmetry_2
B0 F25 1.430441 1_555
B0 C3 1.647725 1_555
B0 C26 1.648977 1_555
B0 C25 1.650767 1_555
B1 F7 1.430441 1_555
B1 C27 1.647725 1_555
B1 C18 1.648977 1_555
B1 C2 1.650767 1_555
B2 F30 1.430441 1_555
B2 C15 1.647725 1_554
B2 C17 1.648977 1_555
B2 C6 1.650767 1_555
B3 F14 1.430441 1_555
B3 C10 1.647725 1_556
B3 C29 1.648977 1_555
B3 C14 1.650767 1_555
C0 O13 1.143474 1_555
C0 Co2 1.799589 1_555
C1 O2 1.142790 1_555
C1 Co0 1.802504 1_555
C2 F31 1.380409 1_555
C2 F12 1.384592 1_555
C2 F23 1.386849 1_555
C3 F18 1.369180 1_555
C3 F1 1.389641 1_555
C3 F15 1.391225 1_555
C4 O10 1.144171 1_555
C4 Co3 1.824689 1_555
C5 O15 1.143474 1_555
C5 Co3 1.799589 1_555
C6 F16 1.380409 1_555
C6 F26 1.384592 1_555
C6 F8 1.386849 1_554
C7 O18 1.142790 1_555
C7 Co1 1.802504 1_555
C8 O6 1.142790 1_555
C8 Co2 1.802504 1_555
C9 O19 1.144557 1_565
C9 Co3 1.820643 1_555
C10 F19 1.369180 1_555
C10 F24 1.389641 1_555
C10 F17 1.391225 1_555
C11 O17 1.143474 1_555
C11 Co1 1.799589 1_555
C12 O1 1.144836 1_555
C12 Co1 1.816846 1_555
C13 O9 1.144557 1_545
C13 Co0 1.820643 1_555
C14 F39 1.380409 1_555
C14 F38 1.384587 1_555
C14 F22 1.386849 1_556
C15 F34 1.369180 1_555
C15 F6 1.389641 1_555
C15 F3 1.391225 1_555
C16 O11 1.142790 1_555
C16 Co3 1.802504 1_555
C17 F27 1.380817 1_555
C17 F20 1.382771 1_554
C17 F0 1.386275 1_554
C18 F10 1.380817 1_555
C18 F13 1.382771 1_555
C18 F37 1.386275 1_555
C19 O4 1.144836 1_655
C19 Co2 1.816846 1_555
C20 O12 1.144171 1_555
C20 Co1 1.824689 1_555
C21 O0 1.144171 1_555
C21 Co2 1.824689 1_555
C22 O5 1.144557 1_545
C22 Co2 1.820643 1_555
C23 O16 1.144171 1_555
C23 Co0 1.824689 1_555
C24 O8 1.144836 1_555
C24 Co0 1.816846 1_555
C25 F9 1.380409 1_555
C25 F28 1.384592 1_555
C25 F21 1.386849 1_555
C26 F35 1.380817 1_555
C26 F36 1.382771 1_555
C26 F11 1.386275 1_555
C27 F29 1.369180 1_555
C27 F5 1.389641 1_555
C27 F4 1.391225 1_555
C28 O14 1.144557 1_565
C28 Co1 1.820643 1_555
C29 F2 1.380817 1_555
C29 F33 1.382771 1_556
C29 F32 1.386275 1_556
C30 O7 1.143474 1_555
C30 Co0 1.799589 1_555
C31 O3 1.144836 1_455
C31 Co3 1.816846 1_555
