# generated using pymatgen
data_Sm4Ga16Co3
_symmetry_space_group_name_H-M   'P 1'
_cell_length_a   6.02796014
_cell_length_b   6.02796014
_cell_length_c   11.13362441
_cell_angle_alpha   90.00000000
_cell_angle_beta   90.00000000
_cell_angle_gamma   90.00000000
_symmetry_Int_Tables_number   1
_chemical_formula_structural   Sm4Ga16Co3
_chemical_formula_sum   'Sm4 Ga16 Co3'
_cell_volume   404.55475505
_cell_formula_units_Z   1
loop_
 _symmetry_equiv_pos_site_id
 _symmetry_equiv_pos_as_xyz
  1  'x, y, z'
loop_
 _atom_site_type_symbol
 _atom_site_label
 _atom_site_symmetry_multiplicity
 _atom_site_fract_x
 _atom_site_fract_y
 _atom_site_fract_z
 _atom_site_occupancy
  Sm  Sm0  1  0.50000000  -0.00000000  0.80403510  1
  Sm  Sm1  1  0.00000000  0.50000000  0.19596490  1
  Sm  Sm2  1  0.00000000  0.50000000  0.80403510  1
  Sm  Sm3  1  0.50000000  -0.00000000  0.19596490  1
  Ga  Ga0  1  0.00000000  -0.00000000  0.78038218  1
  Ga  Ga1  1  0.28118664  0.28118664  0.00000000  1
  Ga  Ga2  1  0.50000000  0.50000000  0.80784554  1
  Ga  Ga3  1  0.71881336  0.28118664  0.00000000  1
  Ga  Ga4  1  0.50000000  0.50000000  0.19215446  1
  Ga  Ga5  1  0.71881336  0.71881336  0.00000000  1
  Ga  Ga6  1  0.00000000  -0.00000000  0.21961782  1
  Ga  Ga7  1  0.75134773  0.75134773  0.61309076  1
  Ga  Ga8  1  0.75134773  0.24865227  0.38690924  1
  Ga  Ga9  1  0.24865227  0.24865227  0.61309076  1
  Ga  Ga10  1  0.24865227  0.75134773  0.38690924  1
  Ga  Ga11  1  0.28118664  0.71881336  0.00000000  1
  Ga  Ga12  1  0.75134773  0.75134773  0.38690924  1
  Ga  Ga13  1  0.75134773  0.24865227  0.61309076  1
  Ga  Ga14  1  0.24865227  0.24865227  0.38690924  1
  Ga  Ga15  1  0.24865227  0.75134773  0.61309076  1
  Co  Co0  1  0.00000000  0.50000000  0.50000000  1
  Co  Co1  1  0.00000000  -0.00000000  0.00000000  1
  Co  Co2  1  0.50000000  -0.00000000  0.50000000  1
loop_
_geom_bond_atom_site_label_1
_geom_bond_atom_site_label_2
_geom_bond_distance
_geom_bond_site_symmetry_2
Ga0 Ga7 2.821760 1_445
Ga0 Ga13 2.821760 1_455
Ga0 Ga15 2.821760 1_545
Ga0 Ga9 2.821760 1_555
Ga0 Sm2 3.025463 1_555
Ga0 Sm0 3.025463 1_455
Ga0 Sm0 3.025463 1_555
Ga0 Sm2 3.025463 1_545
Ga1 Ga3 2.637996 1_555
Ga1 Ga11 2.637996 1_555
Ga1 Ga2 2.838387 1_554
Ga1 Ga4 2.838387 1_555
Ga1 Sm3 3.061531 1_555
Ga1 Sm0 3.061531 1_554
Ga1 Sm2 3.061531 1_554
Ga1 Sm1 3.061531 1_555
Ga2 Ga3 2.838387 1_556
Ga2 Ga5 2.838387 1_556
Ga2 Sm0 3.014279 1_555
Ga2 Sm0 3.014279 1_565
Ga2 Sm2 3.014279 1_555
Ga2 Sm2 3.014279 1_655
Ga2 Ga9 3.048406 1_555
Ga2 Ga7 3.048406 1_555
Ga3 Ga5 2.637996 1_555
Ga3 Ga4 2.838387 1_555
Ga3 Sm2 3.061531 1_654
Ga3 Sm1 3.061531 1_655
Ga3 Sm3 3.061531 1_555
Ga3 Sm0 3.061531 1_554
Ga4 Ga5 2.838387 1_555
Ga4 Sm3 3.014279 1_565
Ga4 Sm3 3.014279 1_555
Ga4 Sm1 3.014279 1_655
Ga4 Sm1 3.014279 1_555
Ga4 Ga8 3.048406 1_555
Ga5 Sm0 3.061531 1_564
Ga5 Sm3 3.061531 1_565
Ga5 Sm2 3.061531 1_654
Ga5 Sm1 3.061531 1_655
Ga6 Ga8 2.821760 1_455
Ga6 Sm3 3.025463 1_455
Ga6 Sm1 3.025463 1_545
Ga6 Sm1 3.025463 1_555
Ga6 Sm3 3.025463 1_555
Ga7 Sm2 3.010254 1_655
Ga7 Sm0 3.010254 1_565
Ga8 Sm1 3.010254 1_655
Ga8 Sm3 3.010254 1_555
Ga9 Sm2 3.010254 1_555
Ga9 Sm0 3.010254 1_555
Ga10 Ga15 2.518220 1_555
Ga10 Ga6 2.821760 1_565
Ga10 Ga14 2.997732 1_565
Ga10 Ga12 2.997732 1_455
Ga10 Sm1 3.010254 1_555
Ga10 Sm3 3.010254 1_565
Ga10 Ga12 3.030228 1_555
Ga10 Ga14 3.030228 1_555
Ga10 Ga4 3.048406 1_555
Ga11 Ga5 2.637996 1_555
Ga11 Ga4 2.838387 1_555
Ga11 Ga2 2.838387 1_554
Ga11 Sm0 3.061531 1_564
Ga11 Sm3 3.061531 1_565
Ga11 Sm2 3.061531 1_554
Ga11 Sm1 3.061531 1_555
Ga12 Ga7 2.518220 1_555
Ga12 Ga6 2.821760 1_665
Ga12 Ga8 2.997732 1_565
Ga12 Sm1 3.010254 1_655
Ga12 Sm3 3.010254 1_565
Ga12 Ga8 3.030228 1_555
Ga12 Ga4 3.048406 1_555
Ga13 Ga8 2.518220 1_555
Ga13 Ga7 2.997732 1_545
Ga13 Ga9 2.997732 1_655
Ga13 Sm2 3.010254 1_655
Ga13 Sm0 3.010254 1_555
Ga13 Ga9 3.030228 1_555
Ga13 Ga7 3.030228 1_555
Ga13 Ga2 3.048406 1_555
Ga14 Ga9 2.518220 1_555
Ga14 Ga6 2.821760 1_555
Ga14 Ga8 2.997732 1_455
Ga14 Sm1 3.010254 1_555
Ga14 Sm3 3.010254 1_555
Ga14 Ga8 3.030228 1_555
Ga14 Ga4 3.048406 1_555
Ga15 Ga7 2.997732 1_455
Ga15 Ga9 2.997732 1_565
Ga15 Sm2 3.010254 1_555
Ga15 Sm0 3.010254 1_565
Ga15 Ga9 3.030228 1_555
Ga15 Ga7 3.030228 1_555
Ga15 Ga2 3.048406 1_555
Co0 Ga8 2.475384 1_455
Co0 Ga14 2.475384 1_555
Co0 Ga12 2.475384 1_455
Co0 Ga10 2.475384 1_555
Co0 Ga13 2.475384 1_455
Co0 Ga7 2.475384 1_455
Co0 Ga15 2.475384 1_555
Co0 Ga9 2.475384 1_555
Co1 Ga11 2.397066 1_545
Co1 Ga5 2.397066 1_445
Co1 Ga3 2.397066 1_455
Co1 Ga1 2.397066 1_555
Co1 Ga0 2.445142 1_554
Co1 Ga6 2.445142 1_555
Co2 Ga12 2.475384 1_545
Co2 Ga14 2.475384 1_555
Co2 Ga10 2.475384 1_545
Co2 Ga8 2.475384 1_555
Co2 Ga7 2.475384 1_545
Co2 Ga15 2.475384 1_545
Co2 Ga9 2.475384 1_555
Co2 Ga13 2.475384 1_555
