# generated using pymatgen
data_NdSbPd
_symmetry_space_group_name_H-M   'P 1'
_cell_length_a   4.54421800
_cell_length_b   8.07438600
_cell_length_c   8.16529300
_cell_angle_alpha   90.00000000
_cell_angle_beta   90.00000000
_cell_angle_gamma   90.00000000
_symmetry_Int_Tables_number   1
_chemical_formula_structural   NdSbPd
_chemical_formula_sum   'Nd4 Sb4 Pd4'
_cell_volume   299.59905437
_cell_formula_units_Z   4
loop_
 _symmetry_equiv_pos_site_id
 _symmetry_equiv_pos_as_xyz
  1  'x, y, z'
loop_
 _atom_site_type_symbol
 _atom_site_label
 _atom_site_symmetry_multiplicity
 _atom_site_fract_x
 _atom_site_fract_y
 _atom_site_fract_z
 _atom_site_occupancy
  Nd  Nd0  1  0.50000000  0.75000000  0.49273100  1
  Nd  Nd1  1  0.00000000  0.75000000  0.00877100  1
  Nd  Nd2  1  0.50000000  0.25000000  0.50726900  1
  Nd  Nd3  1  0.00000000  0.25000000  0.99122900  1
  Sb  Sb0  1  0.50000000  0.49696300  0.17838000  1
  Sb  Sb1  1  0.50000000  0.99696300  0.82162000  1
  Sb  Sb2  1  0.50000000  0.50303700  0.82162000  1
  Sb  Sb3  1  0.50000000  0.00303700  0.17838000  1
  Pd  Pd0  1  0.00000000  0.51703700  0.66612200  1
  Pd  Pd1  1  0.00000000  0.48296300  0.33387800  1
  Pd  Pd2  1  0.00000000  0.98296300  0.66612200  1
  Pd  Pd3  1  0.00000000  0.01703700  0.33387800  1
loop_
_geom_bond_atom_site_label_1
_geom_bond_atom_site_label_2
_geom_bond_distance
_geom_bond_site_symmetry_2
Nd0 Pd2 3.271884 1_555
Nd0 Pd2 3.271884 1_655
Nd0 Pd0 3.271884 1_555
Nd0 Pd0 3.271884 1_655
Nd0 Sb3 3.280645 1_565
Nd0 Sb0 3.280645 1_555
Nd0 Sb1 3.344863 1_555
Nd0 Sb2 3.344863 1_555
Nd0 Pd3 3.390269 1_565
Nd0 Pd3 3.390269 1_665
Nd0 Pd1 3.390269 1_555
Nd0 Pd1 3.390269 1_655
Nd1 Sb3 3.354814 1_565
Nd1 Sb3 3.354814 1_465
Nd1 Sb0 3.354814 1_455
Nd1 Sb0 3.354814 1_555
Nd1 Pd2 3.371370 1_554
Nd1 Pd0 3.371370 1_554
Nd1 Sb1 3.387334 1_454
Nd1 Sb1 3.387334 1_554
Nd1 Sb2 3.387334 1_454
Nd1 Sb2 3.387334 1_554
Nd1 Pd3 3.419926 1_565
Nd1 Pd1 3.419926 1_555
Nd2 Pd3 3.271884 1_655
Nd2 Pd1 3.271884 1_655
Nd2 Pd3 3.271884 1_555
Nd2 Pd1 3.271884 1_555
Nd2 Sb2 3.280645 1_555
Nd2 Sb1 3.280645 1_545
Nd2 Sb0 3.344863 1_555
Nd2 Sb3 3.344863 1_555
Nd2 Pd0 3.390269 1_555
Nd2 Pd0 3.390269 1_655
Nd2 Pd2 3.390269 1_645
Nd2 Pd2 3.390269 1_545
Nd3 Sb2 3.354814 1_555
Nd3 Sb2 3.354814 1_455
Nd3 Sb1 3.354814 1_545
Nd3 Sb1 3.354814 1_445
Nd3 Pd1 3.371370 1_556
Nd3 Pd3 3.371370 1_556
Nd3 Sb0 3.387334 1_556
Nd3 Sb0 3.387334 1_456
Nd3 Sb3 3.387334 1_556
Nd3 Sb3 3.387334 1_456
Nd3 Pd0 3.419926 1_555
Nd3 Pd2 3.419926 1_545
Sb0 Sb2 2.913463 1_554
Sb1 Sb3 2.913463 1_566
Pd0 Sb2 2.605257 1_455
Pd0 Sb2 2.605257 1_555
Pd0 Pd1 2.726785 1_555
Pd1 Sb0 2.605257 1_455
Pd1 Sb0 2.605257 1_555
Pd2 Sb1 2.605257 1_455
Pd2 Sb1 2.605257 1_555
Pd2 Pd3 2.726785 1_565
Pd3 Sb3 2.605257 1_555
Pd3 Sb3 2.605257 1_455
