# generated using pymatgen
data_Re2Te5
_symmetry_space_group_name_H-M   'P 1'
_cell_length_a   13.40349600
_cell_length_b   13.46490700
_cell_length_c   14.50695700
_cell_angle_alpha   90.00000000
_cell_angle_beta   90.00000000
_cell_angle_gamma   90.00000000
_symmetry_Int_Tables_number   1
_chemical_formula_structural   Re2Te5
_chemical_formula_sum   'Re24 Te60'
_cell_volume   2618.16957045
_cell_formula_units_Z   12
loop_
 _symmetry_equiv_pos_site_id
 _symmetry_equiv_pos_as_xyz
  1  'x, y, z'
loop_
 _atom_site_type_symbol
 _atom_site_label
 _atom_site_symmetry_multiplicity
 _atom_site_fract_x
 _atom_site_fract_y
 _atom_site_fract_z
 _atom_site_occupancy
  Re  Re0  1  0.05433600  0.54639900  0.11421100  1
  Re  Re1  1  0.05433600  0.04639900  0.38578900  1
  Re  Re2  1  0.94566400  0.45360100  0.88578900  1
  Re  Re3  1  0.13185200  0.97778900  0.54635200  1
  Re  Re4  1  0.55433600  0.95360100  0.11421100  1
  Re  Re5  1  0.49701000  0.63234700  0.45204700  1
  Re  Re6  1  0.86814800  0.02221100  0.45364800  1
  Re  Re7  1  0.44566400  0.04639900  0.88578900  1
  Re  Re8  1  0.36814800  0.97778900  0.04635200  1
  Re  Re9  1  0.49701000  0.13234700  0.04795300  1
  Re  Re10  1  0.55433600  0.45360100  0.38578900  1
  Re  Re11  1  0.63185200  0.02221100  0.95364800  1
  Re  Re12  1  0.99701000  0.86765300  0.45204700  1
  Re  Re13  1  0.36814800  0.47778900  0.45364800  1
  Re  Re14  1  0.50299000  0.36765300  0.54795300  1
  Re  Re15  1  0.00299000  0.13234700  0.54795300  1
  Re  Re16  1  0.63185200  0.52221100  0.54635200  1
  Re  Re17  1  0.99701000  0.36765300  0.04795300  1
  Re  Re18  1  0.50299000  0.86765300  0.95204700  1
  Re  Re19  1  0.86814800  0.52221100  0.04635200  1
  Re  Re20  1  0.94566400  0.95360100  0.61421100  1
  Re  Re21  1  0.44566400  0.54639900  0.61421100  1
  Re  Re22  1  0.00299000  0.63234700  0.95204700  1
  Re  Re23  1  0.13185200  0.47778900  0.95364800  1
  Te  Te0  1  0.57312300  0.20330600  0.88801100  1
  Te  Te1  1  0.69197100  0.84284700  0.02028000  1
  Te  Te2  1  0.68040900  0.06314100  0.38314900  1
  Te  Te3  1  0.81959100  0.06314100  0.88314900  1
  Te  Te4  1  0.03566800  0.81912000  0.87920100  1
  Te  Te5  1  0.31959100  0.43685900  0.88314900  1
  Te  Te6  1  0.19197100  0.15715300  0.47972000  1
  Te  Te7  1  0.19197100  0.65715300  0.02028000  1
  Te  Te8  1  0.53566800  0.18088000  0.62079900  1
  Te  Te9  1  0.81959100  0.56314100  0.61685100  1
  Te  Te10  1  0.68409400  0.60931000  0.38393200  1
  Te  Te11  1  0.08062600  0.56253400  0.78996100  1
  Te  Te12  1  0.13650000  0.61439100  0.27605400  1
  Te  Te13  1  0.30802900  0.65715300  0.52028000  1
  Te  Te14  1  0.92687700  0.70330600  0.11198900  1
  Te  Te15  1  0.68040900  0.56314100  0.11685100  1
  Te  Te16  1  0.96433200  0.18088000  0.12079900  1
  Te  Te17  1  0.18040900  0.93685900  0.11685100  1
  Te  Te18  1  0.80802900  0.84284700  0.52028000  1
  Te  Te19  1  0.46433200  0.31912000  0.12079900  1
  Te  Te20  1  0.63650000  0.38560900  0.22394600  1
  Te  Te21  1  0.13650000  0.11439100  0.22394600  1
  Te  Te22  1  0.91937400  0.93746600  0.28996100  1
  Te  Te23  1  0.96433200  0.68088000  0.37920100  1
  Te  Te24  1  0.41937400  0.06253400  0.21003900  1
  Te  Te25  1  0.00000000  0.50000000  0.50000000  1
  Te  Te26  1  0.57312300  0.70330600  0.61198900  1
  Te  Te27  1  0.86350000  0.88560900  0.77605400  1
  Te  Te28  1  0.30802900  0.15715300  0.97972000  1
  Te  Te29  1  0.18409400  0.89069000  0.38393200  1
  Te  Te30  1  0.31959100  0.93685900  0.61685100  1
  Te  Te31  1  0.18409400  0.39069000  0.11606800  1
  Te  Te32  1  0.36350000  0.11439100  0.72394600  1
  Te  Te33  1  0.42687700  0.79669400  0.11198900  1
  Te  Te34  1  0.03566800  0.31912000  0.62079900  1
  Te  Te35  1  0.00000000  0.00000000  0.00000000  1
  Te  Te36  1  0.80802900  0.34284700  0.97972000  1
  Te  Te37  1  0.53566800  0.68088000  0.87920100  1
  Te  Te38  1  0.46433200  0.81912000  0.37920100  1
  Te  Te39  1  0.08062600  0.06253400  0.71003900  1
  Te  Te40  1  0.41937400  0.56253400  0.28996100  1
  Te  Te41  1  0.50000000  0.50000000  0.00000000  1
  Te  Te42  1  0.07312300  0.29669400  0.88801100  1
  Te  Te43  1  0.31590600  0.39069000  0.61606800  1
  Te  Te44  1  0.58062600  0.93746600  0.78996100  1
  Te  Te45  1  0.69197100  0.34284700  0.47972000  1
  Te  Te46  1  0.91937400  0.43746600  0.21003900  1
  Te  Te47  1  0.07312300  0.79669400  0.61198900  1
  Te  Te48  1  0.86350000  0.38560900  0.72394600  1
  Te  Te49  1  0.63650000  0.88560900  0.27605400  1
  Te  Te50  1  0.58062600  0.43746600  0.71003900  1
  Te  Te51  1  0.42687700  0.29669400  0.38801100  1
  Te  Te52  1  0.31590600  0.89069000  0.88393200  1
  Te  Te53  1  0.81590600  0.10931000  0.61606800  1
  Te  Te54  1  0.36350000  0.61439100  0.77605400  1
  Te  Te55  1  0.68409400  0.10931000  0.11606800  1
  Te  Te56  1  0.81590600  0.60931000  0.88393200  1
  Te  Te57  1  0.18040900  0.43685900  0.38314900  1
  Te  Te58  1  0.92687700  0.20330600  0.38801100  1
  Te  Te59  1  0.50000000  0.00000000  0.50000000  1
loop_
_geom_bond_atom_site_label_1
_geom_bond_atom_site_label_2
_geom_bond_distance
_geom_bond_site_symmetry_2
Re0 Re19 2.702414 1_455
Re0 Re17 2.703142 1_455
Re0 Re22 2.710577 1_554
Re0 Te46 2.712259 1_455
Re0 Re23 2.712655 1_554
Re0 Te14 2.717226 1_455
Re0 Te31 2.724214 1_555
Re0 Te7 2.735695 1_555
Re0 Te12 2.750159 1_555
Re1 Re6 2.702414 1_455
Re1 Re12 2.703142 1_445
Re1 Re15 2.710577 1_555
Re1 Te22 2.712259 1_445
Re1 Re3 2.712655 1_545
Re1 Te58 2.717226 1_455
Re1 Te29 2.724214 1_545
Re1 Te6 2.735695 1_555
Re1 Te21 2.750159 1_555
Re2 Re23 2.702414 1_655
Re2 Re22 2.703142 1_655
Re2 Te11 2.712259 1_655
Re2 Te42 2.717226 1_655
Re2 Te56 2.724214 1_555
Re2 Te36 2.735695 1_555
Re2 Te48 2.750159 1_555
Re3 Te39 2.722541 1_565
Re3 Te6 2.723324 1_565
Re3 Te29 2.723509 1_555
Re3 Te47 2.733540 1_555
Re3 Te30 2.771599 1_555
Re4 Re8 2.702414 1_555
Re4 Re9 2.703142 1_565
Re4 Te24 2.712259 1_565
Re4 Te33 2.717226 1_555
Re4 Te55 2.724214 1_565
Re4 Te1 2.735695 1_555
Re4 Te49 2.750159 1_555
Re5 Te26 2.708750 1_555
Re5 Te10 2.713042 1_555
Re5 Te40 2.737781 1_555
Re5 Te13 2.739980 1_555
Re5 Te38 2.762832 1_555
Re6 Te22 2.722541 1_545
Re6 Te18 2.723324 1_545
Re6 Te53 2.723509 1_555
Re6 Te58 2.733540 1_555
Re6 Te2 2.771599 1_555
Re7 Re9 2.710577 1_556
Re7 Te44 2.712259 1_545
Re7 Re8 2.712655 1_546
Re7 Te0 2.717226 1_555
Re7 Te52 2.724214 1_545
Re7 Te28 2.735695 1_555
Re7 Te32 2.750159 1_555
Re8 Re9 2.704585 1_565
Re8 Te24 2.722541 1_565
Re8 Te28 2.723324 1_564
Re8 Te52 2.723509 1_554
Re8 Te33 2.733540 1_555
Re8 Te17 2.771599 1_555
Re9 Te0 2.708750 1_554
Re9 Te55 2.713042 1_555
Re9 Te24 2.737781 1_555
Re9 Te28 2.739980 1_554
Re9 Te19 2.762832 1_555
Re10 Re13 2.702414 1_555
Re10 Re5 2.703142 1_555
Re10 Re14 2.710577 1_555
Re10 Te40 2.712259 1_555
Re10 Re16 2.712655 1_555
Re10 Te51 2.717226 1_555
Re10 Te10 2.724214 1_555
Re10 Te45 2.735695 1_555
Re10 Te20 2.750159 1_555
Re11 Re7 2.702414 1_555
Re11 Re18 2.704585 1_545
Re11 Re9 2.708758 1_556
Re11 Re4 2.712655 1_546
Re11 Te44 2.722541 1_545
Re11 Te1 2.723324 1_546
Re11 Te55 2.723509 1_556
Re11 Te0 2.733540 1_555
Re11 Te3 2.771599 1_555
Re12 Re6 2.704585 1_565
Re12 Te47 2.708750 1_655
Re12 Re3 2.708758 1_655
Re12 Re20 2.710577 1_555
Re12 Te29 2.713042 1_655
Re12 Te22 2.737781 1_555
Re12 Te18 2.739980 1_555
Re12 Te23 2.762832 1_555
Re13 Re5 2.704585 1_555
Re13 Re14 2.708758 1_555
Re13 Re21 2.712655 1_555
Re13 Te40 2.722541 1_555
Re13 Te13 2.723324 1_555
Re13 Te43 2.723509 1_555
Re13 Te51 2.733540 1_555
Re13 Te57 2.771599 1_555
Re14 Re21 2.703142 1_555
Re14 Re16 2.704585 1_555
Re14 Te51 2.708750 1_555
Re14 Te43 2.713042 1_555
Re14 Te50 2.737781 1_555
Re14 Te45 2.739980 1_555
Re14 Te8 2.762832 1_555
Re15 Re20 2.703142 1_445
Re15 Re3 2.704585 1_545
Re15 Te58 2.708750 1_455
Re15 Re6 2.708758 1_455
Re15 Te53 2.713042 1_455
Re15 Te39 2.737781 1_555
Re15 Te6 2.739980 1_555
Re15 Te34 2.762832 1_555
Re16 Re21 2.702414 1_555
Re16 Re5 2.708758 1_555
Re16 Te50 2.722541 1_555
Re16 Te45 2.723324 1_555
Re16 Te10 2.723509 1_555
Re16 Te26 2.733540 1_555
Re16 Te9 2.771599 1_555
Re17 Re19 2.704585 1_555
Re17 Te42 2.708750 1_654
Re17 Re23 2.708758 1_654
Re17 Re2 2.710577 1_554
Re17 Te31 2.713042 1_655
Re17 Te46 2.737781 1_555
Re17 Te36 2.739980 1_554
Re17 Te16 2.762832 1_555
Re18 Re7 2.703142 1_565
Re18 Te33 2.708750 1_556
Re18 Re8 2.708758 1_556
Re18 Re4 2.710577 1_556
Re18 Te52 2.713042 1_555
Re18 Te44 2.737781 1_555
Re18 Te1 2.739980 1_556
Re18 Te37 2.762832 1_555
Re19 Re22 2.708758 1_654
Re19 Re2 2.712655 1_554
Re19 Te46 2.722541 1_555
Re19 Te36 2.723324 1_554
Re19 Te56 2.723509 1_554
Re19 Te14 2.733540 1_555
Re19 Te15 2.771599 1_555
Re20 Re3 2.702414 1_655
Re20 Te39 2.712259 1_665
Re20 Re6 2.712655 1_565
Re20 Te47 2.717226 1_655
Re20 Te53 2.724214 1_565
Re20 Te18 2.735695 1_555
Re20 Te27 2.750159 1_555
Re21 Re5 2.710577 1_555
Re21 Te50 2.712259 1_555
Re21 Te26 2.717226 1_555
Re21 Te43 2.724214 1_555
Re21 Te13 2.735695 1_555
Re21 Te54 2.750159 1_555
Re22 Re23 2.704585 1_555
Re22 Te14 2.708750 1_456
Re22 Te56 2.713042 1_455
Re22 Te11 2.737781 1_555
Re22 Te7 2.739980 1_556
Re22 Te4 2.762832 1_555
Re23 Te11 2.722541 1_555
Re23 Te7 2.723324 1_556
Re23 Te31 2.723509 1_556
Re23 Te42 2.733540 1_555
Re23 Te5 2.771599 1_555
Te2 Te49 2.911078 1_545
Te2 Te59 3.073048 1_555
Te3 Te35 3.073048 1_656
Te5 Te54 2.911078 1_555
Te12 Te23 2.892374 1_455
Te12 Te57 2.911078 1_555
Te15 Te20 2.911078 1_555
Te15 Te41 3.073048 1_555
Te16 Te21 2.892374 1_655
Te16 Te35 3.038317 1_655
Te17 Te21 2.911078 1_565
Te17 Te35 3.073048 1_565
Te19 Te20 2.892374 1_555
Te19 Te41 3.038317 1_555
Te23 Te25 3.038317 1_655
Te25 Te34 3.038317 1_555
Te25 Te9 3.073048 1_455
Te25 Te57 3.073048 1_555
Te27 Te4 2.892374 1_655
Te27 Te3 2.911078 1_565
Te30 Te32 2.911078 1_565
Te30 Te59 3.073048 1_565
Te32 Te8 2.892374 1_555
Te34 Te48 2.892374 1_455
Te35 Te4 3.038317 1_544
Te37 Te54 2.892374 1_555
Te37 Te41 3.038317 1_556
Te38 Te49 2.892374 1_555
Te38 Te59 3.038317 1_565
Te41 Te5 3.073048 1_554
Te48 Te9 2.911078 1_555
Te59 Te8 3.038317 1_555
