# generated using pymatgen
data_La5Ti2CuS5O7
_symmetry_space_group_name_H-M   'P 1'
_cell_length_a   3.96748400
_cell_length_b   18.24929200
_cell_length_c   19.53965200
_cell_angle_alpha   90.00000000
_cell_angle_beta   90.00000000
_cell_angle_gamma   90.00000000
_symmetry_Int_Tables_number   1
_chemical_formula_structural   La5Ti2CuS5O7
_chemical_formula_sum   'La20 Ti8 Cu4 S20 O28'
_cell_volume   1414.74454786
_cell_formula_units_Z   4
loop_
 _symmetry_equiv_pos_site_id
 _symmetry_equiv_pos_as_xyz
  1  'x, y, z'
loop_
 _atom_site_type_symbol
 _atom_site_label
 _atom_site_symmetry_multiplicity
 _atom_site_fract_x
 _atom_site_fract_y
 _atom_site_fract_z
 _atom_site_occupancy
  La  La0  1  0.75000000  0.37760100  0.51296000  1
  La  La1  1  0.75000000  0.99868300  0.60661700  1
  La  La2  1  0.75000000  0.69652600  0.95835100  1
  La  La3  1  0.25000000  0.96970900  0.18136300  1
  La  La4  1  0.75000000  0.80347400  0.45835100  1
  La  La5  1  0.75000000  0.46970900  0.31863700  1
  La  La6  1  0.25000000  0.53029100  0.68136300  1
  La  La7  1  0.25000000  0.00131700  0.39338300  1
  La  La8  1  0.75000000  0.12239900  0.01296000  1
  La  La9  1  0.25000000  0.71091100  0.30485200  1
  La  La10  1  0.75000000  0.28908900  0.69514800  1
  La  La11  1  0.25000000  0.78908900  0.80485200  1
  La  La12  1  0.25000000  0.30347400  0.04164900  1
  La  La13  1  0.75000000  0.50131700  0.10661700  1
  La  La14  1  0.75000000  0.21091100  0.19514800  1
  La  La15  1  0.25000000  0.19652600  0.54164900  1
  La  La16  1  0.75000000  0.03029100  0.81863700  1
  La  La17  1  0.25000000  0.62239900  0.48704000  1
  La  La18  1  0.25000000  0.87760100  0.98704000  1
  La  La19  1  0.25000000  0.49868300  0.89338300  1
  Ti  Ti0  1  0.25000000  0.11309400  0.69716300  1
  Ti  Ti1  1  0.25000000  0.17282500  0.87836500  1
  Ti  Ti2  1  0.75000000  0.88690600  0.30283700  1
  Ti  Ti3  1  0.75000000  0.67282500  0.62163500  1
  Ti  Ti4  1  0.25000000  0.38690600  0.19716300  1
  Ti  Ti5  1  0.25000000  0.32717500  0.37836500  1
  Ti  Ti6  1  0.75000000  0.82717500  0.12163500  1
  Ti  Ti7  1  0.75000000  0.61309400  0.80283700  1
  Cu  Cu0  1  0.25000000  0.64638400  0.14127400  1
  Cu  Cu1  1  0.25000000  0.85361600  0.64127400  1
  Cu  Cu2  1  0.75000000  0.35361600  0.85872600  1
  Cu  Cu3  1  0.75000000  0.14638400  0.35872600  1
  S  S0  1  0.25000000  0.90526500  0.53120400  1
  S  S1  1  0.25000000  0.20885500  0.32715400  1
  S  S2  1  0.25000000  0.46709200  0.43241700  1
  S  S3  1  0.25000000  0.59473500  0.03120400  1
  S  S4  1  0.25000000  0.54640400  0.21954100  1
  S  S5  1  0.25000000  0.38110500  0.63024100  1
  S  S6  1  0.75000000  0.96709200  0.06758300  1
  S  S7  1  0.75000000  0.09473500  0.46879600  1
  S  S8  1  0.75000000  0.61889500  0.36975900  1
  S  S9  1  0.75000000  0.70885500  0.17284600  1
  S  S10  1  0.75000000  0.79114500  0.67284600  1
  S  S11  1  0.25000000  0.95359600  0.71954100  1
  S  S12  1  0.75000000  0.40526500  0.96879600  1
  S  S13  1  0.25000000  0.11889500  0.13024100  1
  S  S14  1  0.25000000  0.29114500  0.82715400  1
  S  S15  1  0.75000000  0.45359600  0.78045900  1
  S  S16  1  0.75000000  0.88110500  0.86975900  1
  S  S17  1  0.75000000  0.53290800  0.56758300  1
  S  S18  1  0.25000000  0.03290800  0.93241700  1
  S  S19  1  0.75000000  0.04640400  0.28045900  1
  O  O0  1  0.25000000  0.39237200  0.29564400  1
  O  O1  1  0.25000000  0.07619300  0.60578000  1
  O  O2  1  0.25000000  0.74562500  0.42535300  1
  O  O3  1  0.75000000  0.80615000  0.02786700  1
  O  O4  1  0.25000000  0.42380700  0.10578000  1
  O  O5  1  0.75000000  0.92380700  0.39422000  1
  O  O6  1  0.75000000  0.60762800  0.70435600  1
  O  O7  1  0.75000000  0.69385000  0.52786700  1
  O  O8  1  0.25000000  0.10762800  0.79564400  1
  O  O9  1  0.25000000  0.19385000  0.97213300  1
  O  O10  1  0.75000000  0.70982100  0.82434500  1
  O  O11  1  0.25000000  0.84252400  0.11943900  1
  O  O12  1  0.25000000  0.59604200  0.79962400  1
  O  O13  1  0.75000000  0.57619300  0.89422000  1
  O  O14  1  0.75000000  0.89237200  0.20435600  1
  O  O15  1  0.25000000  0.29017900  0.17565500  1
  O  O16  1  0.25000000  0.30615000  0.47213300  1
  O  O17  1  0.75000000  0.34252400  0.38056100  1
  O  O18  1  0.75000000  0.24562500  0.07464700  1
  O  O19  1  0.25000000  0.90395800  0.29962400  1
  O  O20  1  0.75000000  0.40395800  0.20037600  1
  O  O21  1  0.75000000  0.15747600  0.88056100  1
  O  O22  1  0.75000000  0.09604200  0.70037600  1
  O  O23  1  0.75000000  0.25437500  0.57464700  1
  O  O24  1  0.25000000  0.75437500  0.92535300  1
  O  O25  1  0.25000000  0.20982100  0.67565500  1
  O  O26  1  0.25000000  0.65747600  0.61943900  1
  O  O27  1  0.75000000  0.79017900  0.32434500  1
loop_
_geom_bond_atom_site_label_1
_geom_bond_atom_site_label_2
_geom_bond_distance
_geom_bond_site_symmetry_2
La0 O16 2.504369 1_555
La0 O16 2.504369 1_655
La0 O23 2.551450 1_555
La0 O17 2.665050 1_555
La0 S2 3.013170 1_555
La0 S2 3.013170 1_655
La0 S17 3.028546 1_555
La0 S5 3.031648 1_555
La0 S5 3.031648 1_655
La1 O1 2.436456 1_565
La1 O1 2.436456 1_665
La1 O22 2.552072 1_565
La1 S0 3.002157 1_555
La1 S0 3.002157 1_655
La1 S11 3.079101 1_555
La1 S11 3.079101 1_655
La1 S7 3.213208 1_565
La2 O24 2.337834 1_555
La2 O24 2.337834 1_655
La2 O3 2.418113 1_556
La2 O13 2.528366 1_555
La2 O10 2.629647 1_555
La2 S3 3.067960 1_556
La2 S3 3.067960 1_656
La3 O14 2.475677 1_455
La3 O14 2.475677 1_555
La3 O19 2.603744 1_555
La3 O11 2.617488 1_555
La3 S13 2.900005 1_565
La3 S6 2.979971 1_555
La3 S6 2.979971 1_455
La3 S19 3.105392 1_565
La3 S19 3.105392 1_465
La4 O2 2.337834 1_555
La4 O2 2.337834 1_655
La4 O7 2.418113 1_555
La4 O5 2.528366 1_555
La4 O27 2.629647 1_555
La4 S0 3.067960 1_555
La4 S0 3.067960 1_655
La5 O0 2.475677 1_555
La5 O0 2.475677 1_655
La5 O20 2.603744 1_555
La5 O17 2.617488 1_555
La5 S8 2.900005 1_555
La5 S2 2.979971 1_655
La5 S2 2.979971 1_555
La5 S4 3.105392 1_555
La5 S4 3.105392 1_655
La6 O6 2.475677 1_455
La6 O6 2.475677 1_555
La6 O12 2.603744 1_555
La6 O26 2.617488 1_555
La6 S5 2.900005 1_555
La6 S17 2.979971 1_555
La6 S17 2.979971 1_455
La6 S15 3.105392 1_555
La6 S15 3.105392 1_455
La7 O5 2.436456 1_545
La7 O5 2.436456 1_445
La7 O19 2.552072 1_545
La7 S7 3.002157 1_455
La7 S7 3.002157 1_555
La7 S19 3.079101 1_455
La7 S19 3.079101 1_555
La7 S0 3.213208 1_545
La8 O9 2.504369 1_654
La8 O9 2.504369 1_554
La8 O18 2.551450 1_555
La8 O21 2.665050 1_554
La8 S18 3.013170 1_554
La8 S18 3.013170 1_654
La8 S6 3.028546 1_545
La8 S13 3.031648 1_555
La8 S13 3.031648 1_655
La9 O2 2.438283 1_555
La9 O27 2.484535 1_455
La9 O27 2.484535 1_555
La9 S8 2.891975 1_455
La9 S8 2.891975 1_555
La9 S9 3.254181 1_455
La9 S9 3.254181 1_555
La9 S4 3.433881 1_555
La10 O23 2.438283 1_555
La10 O25 2.484535 1_555
La10 O25 2.484535 1_655
La10 S5 2.891975 1_555
La10 S5 2.891975 1_655
La10 S14 3.254181 1_555
La10 S14 3.254181 1_655
La10 S15 3.433881 1_555
La11 O24 2.438283 1_555
La11 O10 2.484535 1_455
La11 O10 2.484535 1_555
La11 S16 2.891975 1_455
La11 S16 2.891975 1_555
La11 S10 3.254181 1_555
La11 S10 3.254181 1_455
La11 S11 3.433881 1_555
La12 O18 2.337834 1_455
La12 O18 2.337834 1_555
La12 O9 2.418113 1_554
La12 O4 2.528366 1_555
La12 O15 2.629647 1_555
La12 S12 3.067960 1_554
La12 S12 3.067960 1_454
La13 O4 2.436456 1_555
La13 O4 2.436456 1_655
La13 O20 2.552072 1_555
La13 S3 3.002157 1_555
La13 S3 3.002157 1_655
La13 S4 3.079101 1_555
La13 S4 3.079101 1_655
La13 S12 3.213208 1_554
La14 O18 2.438283 1_555
La14 O15 2.484535 1_655
La14 O15 2.484535 1_555
La14 S13 2.891975 1_555
La14 S13 2.891975 1_655
La14 S1 3.254181 1_555
La14 S1 3.254181 1_655
La14 S19 3.433881 1_555
La15 O23 2.337834 1_455
La15 O23 2.337834 1_555
La15 O16 2.418113 1_555
La15 O1 2.528366 1_555
La15 O25 2.629647 1_555
La15 S7 3.067960 1_455
La15 S7 3.067960 1_555
La16 O8 2.475677 1_555
La16 O8 2.475677 1_655
La16 O22 2.603744 1_555
La16 O21 2.617488 1_555
La16 S16 2.900005 1_545
La16 S18 2.979971 1_555
La16 S18 2.979971 1_655
La16 S11 3.105392 1_545
La16 S11 3.105392 1_645
La17 O7 2.504369 1_455
La17 O7 2.504369 1_555
La17 O2 2.551450 1_555
La17 O26 2.665050 1_555
La17 S17 3.013170 1_555
La17 S17 3.013170 1_455
La17 S2 3.028546 1_555
La17 S8 3.031648 1_455
La17 S8 3.031648 1_555
La18 O3 2.504369 1_456
La18 O3 2.504369 1_556
La18 O24 2.551450 1_555
La18 O11 2.665050 1_556
La18 S6 3.013170 1_456
La18 S6 3.013170 1_556
La18 S18 3.028546 1_565
La18 S16 3.031648 1_555
La18 S16 3.031648 1_455
La19 O13 2.436456 1_555
La19 O13 2.436456 1_455
La19 O12 2.552072 1_555
La19 S12 3.002157 1_555
La19 S12 3.002157 1_455
La19 S15 3.079101 1_455
La19 S15 3.079101 1_555
La19 S3 3.213208 1_556
Cu0 S3 2.348202 1_555
Cu0 S9 2.369709 1_555
Cu0 S9 2.369709 1_455
Cu0 S4 2.380719 1_555
Cu1 S0 2.348202 1_555
Cu1 S10 2.369709 1_555
Cu1 S10 2.369709 1_455
Cu1 S11 2.380719 1_555
Cu2 S12 2.348202 1_555
Cu2 S14 2.369709 1_555
Cu2 S14 2.369709 1_655
Cu2 S15 2.380719 1_555
Cu3 S7 2.348202 1_555
Cu3 S1 2.369709 1_655
Cu3 S1 2.369709 1_555
Cu3 S19 2.380719 1_555
S1 Ti5 2.379848 1_555
S2 Ti5 2.763195 1_555
S4 Ti4 2.943386 1_555
S6 Ti6 2.763195 1_555
S9 Ti6 2.379848 1_555
S10 Ti3 2.379848 1_555
S11 Ti0 2.943386 1_565
S14 Ti1 2.379848 1_555
S15 Ti7 2.943386 1_555
S17 Ti3 2.763195 1_555
S18 Ti1 2.763195 1_555
S19 Ti2 2.943386 1_545
O0 Ti4 1.926868 1_555
O0 Ti5 2.007031 1_555
O1 Ti0 1.908358 1_555
O3 Ti6 1.871939 1_555
O4 Ti4 1.908358 1_555
O5 Ti2 1.908358 1_555
O6 Ti7 1.926868 1_555
O6 Ti3 2.007031 1_555
O7 Ti3 1.871939 1_555
O8 Ti0 1.926868 1_555
O8 Ti1 2.007031 1_555
O9 Ti1 1.871939 1_555
O10 Ti7 1.814537 1_555
O11 Ti6 2.003880 1_455
O11 Ti6 2.003880 1_555
O12 Ti7 2.008983 1_455
O12 Ti7 2.008983 1_555
O13 Ti7 1.908358 1_555
O14 Ti2 1.926868 1_555
O14 Ti6 2.007031 1_555
O15 Ti4 1.814537 1_555
O16 Ti5 1.871939 1_555
O17 Ti5 2.003880 1_655
O17 Ti5 2.003880 1_555
O19 Ti2 2.008983 1_555
O19 Ti2 2.008983 1_455
O20 Ti4 2.008983 1_555
O20 Ti4 2.008983 1_655
O21 Ti1 2.003880 1_555
O21 Ti1 2.003880 1_655
O22 Ti0 2.008983 1_655
O22 Ti0 2.008983 1_555
O25 Ti0 1.814537 1_555
O26 Ti3 2.003880 1_555
O26 Ti3 2.003880 1_455
O27 Ti2 1.814537 1_555
