# generated using pymatgen
data_Al3Mo
_symmetry_space_group_name_H-M   'P 1'
_cell_length_a   3.58254296
_cell_length_b   8.33972385
_cell_length_c   8.37563272
_cell_angle_alpha   101.73822546
_cell_angle_beta   102.34783339
_cell_angle_gamma   89.99732798
_symmetry_Int_Tables_number   1
_chemical_formula_structural   Al3Mo
_chemical_formula_sum   'Al12 Mo4'
_cell_volume   239.09414953
_cell_formula_units_Z   4
loop_
 _symmetry_equiv_pos_site_id
 _symmetry_equiv_pos_as_xyz
  1  'x, y, z'
loop_
 _atom_site_type_symbol
 _atom_site_label
 _atom_site_symmetry_multiplicity
 _atom_site_fract_x
 _atom_site_fract_y
 _atom_site_fract_z
 _atom_site_occupancy
  Al  Al0  1  0.12615453  0.65604361  0.25268457  1
  Al  Al1  1  0.12525083  0.14595466  0.25027024  1
  Al  Al2  1  0.62500897  0.39673638  0.24995247  1
  Al  Al3  1  0.74859536  0.69611652  0.49733861  1
  Al  Al4  1  0.50295301  0.59642955  0.00607856  1
  Al  Al5  1  0.74993788  0.20613430  0.49979988  1
  Al  Al6  1  0.37189996  0.75586868  0.74393593  1
  Al  Al7  1  0.00319460  0.85404389  0.00637518  1
  Al  Al8  1  0.49762458  0.09215581  0.99517000  1
  Al  Al9  1  0.25001788  0.95533715  0.50001090  1
  Al  Al10  1  0.37743144  0.26019729  0.75474909  1
  Al  Al11  1  0.87193816  0.49832241  0.74367757  1
  Mo  Mo0  1  0.01071629  0.35503731  0.02150023  1
  Mo  Mo1  1  0.63277349  0.90429648  0.26562644  1
  Mo  Mo2  1  0.24222976  0.44789255  0.48437715  1
  Mo  Mo3  1  0.86427026  0.99723140  0.72845617  1
loop_
_geom_bond_atom_site_label_1
_geom_bond_atom_site_label_2
_geom_bond_distance
_geom_bond_site_symmetry_2
Al0 Al3 2.654613 1_455
Al0 Al3 2.655243 1_555
Al0 Al4 2.666099 1_455
Al0 Al4 2.666498 1_555
Al0 Mo1 2.722627 1_455
Al0 Mo1 2.723455 1_555
Al0 Al2 2.804136 1_455
Al0 Al2 2.805016 1_555
Al0 Mo0 2.811025 1_555
Al0 Mo2 2.824468 1_555
Al0 Al7 2.859023 1_555
Al0 Al9 2.867295 1_555
Al1 Al5 2.683512 1_555
Al1 Al5 2.683795 1_455
Al1 Al8 2.715717 1_554
Al1 Al8 2.716163 1_454
Al1 Mo1 2.718321 1_545
Al1 Mo1 2.719175 1_445
Al1 Al2 2.753974 1_555
Al1 Al2 2.754234 1_455
Al1 Al7 2.808084 1_545
Al1 Mo0 2.811287 1_555
Al1 Mo2 2.828562 1_555
Al1 Al9 2.838189 1_545
Al2 Mo0 2.559609 1_655
Al2 Mo0 2.560021 1_555
Al2 Mo2 2.593913 1_555
Al2 Mo2 2.594039 1_655
Al2 Al5 2.838829 1_555
Al2 Al3 2.868075 1_555
Al3 Al6 2.666222 1_555
Al3 Al6 2.666340 1_655
Al3 Mo2 2.722634 1_555
Al3 Mo2 2.723047 1_655
Al3 Al9 2.803832 1_555
Al3 Al9 2.804357 1_655
Al3 Mo3 2.811441 1_555
Al3 Mo1 2.824778 1_555
Al4 Mo0 2.717126 1_555
Al4 Mo0 2.717254 1_655
Al4 Al7 2.796550 1_555
Al4 Al7 2.797107 1_655
Al4 Mo1 2.971688 1_555
Al5 Mo2 2.719416 1_555
Al5 Mo2 2.719551 1_655
Al5 Al9 2.753940 1_645
Al5 Al9 2.754186 1_545
Al5 Mo3 2.809410 1_545
Al5 Mo1 2.828205 1_545
Al6 Mo3 2.716780 1_455
Al6 Mo3 2.717421 1_555
Al6 Al7 2.784994 1_556
Al6 Al7 2.785448 1_656
Al6 Mo2 2.972387 1_555
Al7 Al8 2.689887 1_464
Al7 Al8 2.690163 1_564
Al7 Mo1 2.740987 1_555
Al7 Mo1 2.741121 1_455
Al7 Mo3 2.779846 1_454
Al8 Mo0 2.804324 1_656
Al8 Mo0 2.804523 1_556
Al8 Mo3 2.806717 1_545
Al8 Mo3 2.806812 1_445
Al8 Mo1 2.965659 1_546
Al9 Mo3 2.559635 1_455
Al9 Mo3 2.559863 1_555
Al9 Mo1 2.593563 1_555
Al9 Mo1 2.593905 1_455
Al10 Al11 2.689741 1_455
Al10 Al11 2.690064 1_555
Al10 Al5 2.714957 1_555
Al10 Al5 2.715134 1_455
Al10 Mo3 2.804887 1_545
Al10 Mo3 2.805091 1_445
Al10 Mo0 2.806746 1_656
Al10 Mo0 2.807054 1_556
Al10 Mo2 2.964132 1_555
Al11 Mo2 2.741162 1_655
Al11 Mo2 2.741519 1_555
Al11 Mo0 2.779619 1_656
Al11 Al4 2.784549 1_656
Al11 Al4 2.785296 1_556
Al11 Al6 2.796123 1_655
Al11 Al6 2.796762 1_555
Al11 Al5 2.809672 1_555
Al11 Al3 2.857978 1_555
