# generated using pymatgen
data_CuAs4(H5O8)2
_symmetry_space_group_name_H-M   'P 1'
_cell_length_a   5.47198400
_cell_length_b   7.71509669
_cell_length_c   8.62467286
_cell_angle_alpha   107.77565859
_cell_angle_beta   98.54817875
_cell_angle_gamma   92.94246448
_symmetry_Int_Tables_number   1
_chemical_formula_structural   CuAs4(H5O8)2
_chemical_formula_sum   'Cu1 As4 H10 O16'
_cell_volume   341.05936149
_cell_formula_units_Z   1
loop_
 _symmetry_equiv_pos_site_id
 _symmetry_equiv_pos_as_xyz
  1  'x, y, z'
loop_
 _atom_site_type_symbol
 _atom_site_label
 _atom_site_symmetry_multiplicity
 _atom_site_fract_x
 _atom_site_fract_y
 _atom_site_fract_z
 _atom_site_occupancy
  Cu  Cu0  1  0.00000000  0.00000000  0.00000000  1
  As  As0  1  0.03428600  0.28184500  0.69892200  1
  As  As1  1  0.96571400  0.71815500  0.30107800  1
  As  As2  1  0.42136200  0.81516300  0.79749900  1
  As  As3  1  0.57863800  0.18483700  0.20250100  1
  H  H0  1  0.11029000  0.10735000  0.44160300  1
  H  H1  1  0.88971000  0.89265000  0.55839700  1
  H  H2  1  0.98497100  0.59156900  0.77626800  1
  H  H3  1  0.01502900  0.40843100  0.22373200  1
  H  H4  1  0.31390900  0.28404400  0.92583800  1
  H  H5  1  0.68609100  0.71595600  0.07416200  1
  H  H6  1  0.57605900  0.54764200  0.66435700  1
  H  H7  1  0.42394100  0.45235800  0.33564300  1
  H  H8  1  0.59105300  0.03901000  0.70385600  1
  H  H9  1  0.40894700  0.96099000  0.29614400  1
  O  O0  1  0.86842900  0.47361100  0.72555000  1
  O  O1  1  0.13157100  0.52638900  0.27445000  1
  O  O2  1  0.12038200  0.24150100  0.50565400  1
  O  O3  1  0.87961800  0.75849900  0.49434600  1
  O  O4  1  0.87134400  0.09684100  0.71188100  1
  O  O5  1  0.12865600  0.90315900  0.28811900  1
  O  O6  1  0.29537400  0.36453900  0.85275000  1
  O  O7  1  0.70462600  0.63546100  0.14725000  1
  O  O8  1  0.67488900  0.84889400  0.95119300  1
  O  O9  1  0.32511100  0.15110600  0.04880700  1
  O  O10  1  0.41897600  0.60435800  0.64654700  1
  O  O11  1  0.58102400  0.39564200  0.35345300  1
  O  O12  1  0.14066400  0.79447600  0.85919400  1
  O  O13  1  0.85933600  0.20552400  0.14080600  1
  O  O14  1  0.41614000  0.97955700  0.69654300  1
  O  O15  1  0.58386000  0.02044300  0.30345700  1
loop_
_geom_bond_atom_site_label_1
_geom_bond_atom_site_label_2
_geom_bond_distance
_geom_bond_site_symmetry_2
Cu0 O13 1.951647 1_455
Cu0 O12 1.951647 1_544
Cu0 O8 1.991468 1_444
Cu0 O9 1.991468 1_555
As0 O4 1.685556 1_455
As0 O2 1.740408 1_555
As0 O6 1.741962 1_555
As0 O0 1.748621 1_455
As1 O5 1.685556 1_655
As1 O3 1.740408 1_555
As1 O7 1.741962 1_555
As1 O1 1.748621 1_655
As2 O12 1.713906 1_555
As2 O8 1.719025 1_555
As2 O14 1.743042 1_555
As2 O10 1.743611 1_555
As3 O13 1.713906 1_555
As3 O9 1.719025 1_555
As3 O15 1.743042 1_555
As3 O11 1.743611 1_555
H0 O2 1.007661 1_555
H1 O3 1.007661 1_555
H2 O0 1.020125 1_555
H2 O12 1.638988 1_655
H3 O1 1.020125 1_555
H3 O13 1.638988 1_455
H4 O6 1.009851 1_555
H4 O9 1.682785 1_556
H5 O7 1.009851 1_555
H5 O8 1.682785 1_554
H6 O10 0.997146 1_555
H7 O11 0.997146 1_555
H8 O14 1.024582 1_545
H8 O4 1.560632 1_555
H9 O15 1.024582 1_565
H9 O5 1.560632 1_555
