# generated using pymatgen
data_Ce4C2Br5
_symmetry_space_group_name_H-M   'P 1'
_cell_length_a   3.92396808
_cell_length_b   8.21974140
_cell_length_c   10.15751055
_cell_angle_alpha   113.86545464
_cell_angle_beta   101.14480489
_cell_angle_gamma   89.99458192
_symmetry_Int_Tables_number   1
_chemical_formula_structural   Ce4C2Br5
_chemical_formula_sum   'Ce4 C2 Br5'
_cell_volume   292.84217445
_cell_formula_units_Z   1
loop_
 _symmetry_equiv_pos_site_id
 _symmetry_equiv_pos_as_xyz
  1  'x, y, z'
loop_
 _atom_site_type_symbol
 _atom_site_label
 _atom_site_symmetry_multiplicity
 _atom_site_fract_x
 _atom_site_fract_y
 _atom_site_fract_z
 _atom_site_occupancy
  Ce  Ce0  1  0.33601455  0.33619411  0.67233034  1
  Ce  Ce1  1  0.66398545  0.66380589  0.32766966  1
  Ce  Ce2  1  1.00002294  0.30072885  0.00001826  1
  Ce  Ce3  1  -0.00002294  0.69927115  0.99998174  1
  C  C0  1  0.53892885  0.53896617  0.07787567  1
  C  C1  1  0.46107115  0.46103383  0.92212433  1
  Br  Br0  1  0.83514490  0.61316741  0.67087112  1
  Br  Br1  1  0.50000000  0.00000000  0.00000000  1
  Br  Br2  1  0.83539945  0.05784547  0.67092373  1
  Br  Br3  1  0.16460055  0.94215453  0.32907627  1
  Br  Br4  1  0.16485510  0.38683259  0.32912888  1
loop_
_geom_bond_atom_site_label_1
_geom_bond_atom_site_label_2
_geom_bond_distance
_geom_bond_site_symmetry_2
C0 C1 1.414106 1_554
C0 Ce1 2.267942 1_555
C0 Ce3 2.651601 1_554
C0 Ce3 2.651914 1_654
C0 Ce2 2.651991 1_455
C0 Ce2 2.652005 1_555
C1 Ce0 2.267942 1_555
C1 Ce2 2.651601 1_556
C1 Ce2 2.651914 1_456
C1 Ce3 2.651991 1_655
C1 Ce3 2.652005 1_555
Br0 Ce0 3.009771 1_555
Br0 Ce0 3.010204 1_655
Br0 Ce3 3.056839 1_655
Br0 Ce1 3.611926 1_555
Br1 Ce2 3.155667 1_455
Br1 Ce3 3.155667 1_644
Br1 Ce2 3.156025 1_555
Br1 Ce3 3.156025 1_544
Br2 Ce0 3.009542 1_655
Br2 Ce0 3.009714 1_555
Br2 Ce2 3.056555 1_556
Br2 Ce1 3.613207 1_545
Br3 Ce1 3.009542 1_455
Br3 Ce1 3.009714 1_555
Br3 Ce3 3.056555 1_554
Br3 Ce0 3.613207 1_565
Br4 Ce1 3.009771 1_555
Br4 Ce1 3.010204 1_455
Br4 Ce2 3.056839 1_455
Br4 Ce0 3.611926 1_555
