# generated using pymatgen
data_Mn2CuO4
_symmetry_space_group_name_H-M   'P 1'
_cell_length_a   6.02316809
_cell_length_b   6.02316809
_cell_length_c   6.02316809
_cell_angle_alpha   60.00000000
_cell_angle_beta   60.00000000
_cell_angle_gamma   60.00000000
_symmetry_Int_Tables_number   1
_chemical_formula_structural   Mn2CuO4
_chemical_formula_sum   'Mn4 Cu2 O8'
_cell_volume   154.51119516
_cell_formula_units_Z   2
loop_
 _symmetry_equiv_pos_site_id
 _symmetry_equiv_pos_as_xyz
  1  'x, y, z'
loop_
 _atom_site_type_symbol
 _atom_site_label
 _atom_site_symmetry_multiplicity
 _atom_site_fract_x
 _atom_site_fract_y
 _atom_site_fract_z
 _atom_site_occupancy
  Mn  Mn0  1  0.62500000  0.62500000  0.12500000  1
  Mn  Mn1  1  0.62500000  0.12500000  0.62500000  1
  Mn  Mn2  1  0.12500000  0.62500000  0.62500000  1
  Mn  Mn3  1  0.62500000  0.62500000  0.62500000  1
  Cu  Cu0  1  0.25000000  0.25000000  0.25000000  1
  Cu  Cu1  1  0.00000000  0.00000000  0.00000000  1
  O  O0  1  0.86398800  0.86398800  0.86398800  1
  O  O1  1  0.84196400  0.38601200  0.38601200  1
  O  O2  1  0.38601200  0.38601200  0.84196400  1
  O  O3  1  0.38601200  0.84196400  0.38601200  1
  O  O4  1  0.86398800  0.86398800  0.40803600  1
  O  O5  1  0.86398800  0.40803600  0.86398800  1
  O  O6  1  0.38601200  0.38601200  0.38601200  1
  O  O7  1  0.40803600  0.86398800  0.86398800  1
loop_
_geom_bond_atom_site_label_1
_geom_bond_atom_site_label_2
_geom_bond_distance
_geom_bond_site_symmetry_2
Mn0 O3 2.040028 1_555
Mn0 O1 2.040028 1_555
Mn0 O0 2.040028 1_554
Mn0 O7 2.040028 1_554
Mn0 O5 2.040028 1_554
Mn0 O6 2.040028 1_555
Mn1 O1 2.040028 1_555
Mn1 O2 2.040028 1_555
Mn1 O0 2.040028 1_545
Mn1 O4 2.040028 1_545
Mn1 O7 2.040028 1_545
Mn1 O6 2.040028 1_555
Mn2 O3 2.040028 1_555
Mn2 O2 2.040028 1_555
Mn2 O0 2.040028 1_455
Mn2 O4 2.040028 1_455
Mn2 O5 2.040028 1_455
Mn2 O6 2.040028 1_555
Mn3 O4 2.040028 1_555
Mn3 O7 2.040028 1_555
Mn3 O5 2.040028 1_555
Mn3 O3 2.040028 1_555
Mn3 O1 2.040028 1_555
Mn3 O2 2.040028 1_555
Cu0 O6 2.006679 1_555
Cu0 O1 2.006679 1_455
Cu0 O2 2.006679 1_554
Cu0 O3 2.006679 1_545
Cu1 O5 2.006679 1_454
Cu1 O7 2.006679 1_544
Cu1 O4 2.006679 1_445
Cu1 O0 2.006679 1_444
