# generated using pymatgen
data_GdP4H4NO12
_symmetry_space_group_name_H-M   'P 1'
_cell_length_a   9.11267800
_cell_length_b   10.51559900
_cell_length_c   12.82409757
_cell_angle_alpha   55.18477200
_cell_angle_beta   90.00000000
_cell_angle_gamma   90.00000000
_symmetry_Int_Tables_number   1
_chemical_formula_structural   GdP4H4NO12
_chemical_formula_sum   'Gd4 P16 H16 N4 O48'
_cell_volume   1008.90131352
_cell_formula_units_Z   4
loop_
 _symmetry_equiv_pos_site_id
 _symmetry_equiv_pos_as_xyz
  1  'x, y, z'
loop_
 _atom_site_type_symbol
 _atom_site_label
 _atom_site_symmetry_multiplicity
 _atom_site_fract_x
 _atom_site_fract_y
 _atom_site_fract_z
 _atom_site_occupancy
  Gd  Gd0  1  0.72433100  0.18590400  0.81240600  1
  Gd  Gd1  1  0.22433100  0.81409600  0.68759400  1
  Gd  Gd2  1  0.27566900  0.81409600  0.18759400  1
  Gd  Gd3  1  0.77566900  0.18590400  0.31240600  1
  P  P0  1  0.58879500  0.88819200  0.75737800  1
  P  P1  1  0.08879500  0.11180800  0.74262200  1
  P  P2  1  0.82581500  0.81918200  0.63986900  1
  P  P3  1  0.39421200  0.69839000  0.98003900  1
  P  P4  1  0.17418500  0.18081800  0.36013100  1
  P  P5  1  0.91120500  0.88819200  0.25737800  1
  P  P6  1  0.60578800  0.30161000  0.01996100  1
  P  P7  1  0.02757400  0.47814100  0.27177200  1
  P  P8  1  0.10578800  0.69839000  0.48003900  1
  P  P9  1  0.89421200  0.30161000  0.51996100  1
  P  P10  1  0.52757400  0.52185900  0.22822800  1
  P  P11  1  0.67418500  0.81918200  0.13986900  1
  P  P12  1  0.47242600  0.47814100  0.77177200  1
  P  P13  1  0.97242600  0.52185900  0.72822800  1
  P  P14  1  0.41120500  0.11180800  0.24262200  1
  P  P15  1  0.32581500  0.18081800  0.86013100  1
  H  H0  1  0.06924900  0.22762100  0.13655500  1
  H  H1  1  0.53442200  0.25507100  0.51657600  1
  H  H2  1  0.89310200  0.62660000  0.02020700  1
  H  H3  1  0.10689800  0.37340000  0.97979300  1
  H  H4  1  0.56924900  0.77237900  0.36344500  1
  H  H5  1  0.46557800  0.74492900  0.48342400  1
  H  H6  1  0.36412000  0.18491000  0.53624800  1
  H  H7  1  0.63588000  0.81509000  0.46375200  1
  H  H8  1  0.93075100  0.77237900  0.86344500  1
  H  H9  1  0.60689800  0.62660000  0.52020700  1
  H  H10  1  0.03442200  0.74492900  0.98342400  1
  H  H11  1  0.86412000  0.81509000  0.96375200  1
  H  H12  1  0.43075100  0.22762100  0.63655500  1
  H  H13  1  0.96557800  0.25507100  0.01657600  1
  H  H14  1  0.13588000  0.18491000  0.03624800  1
  H  H15  1  0.39310200  0.37340000  0.47979300  1
  N  N0  1  0.07045100  0.26105400  0.04322700  1
  N  N1  1  0.42954900  0.26105400  0.54322700  1
  N  N2  1  0.92954900  0.73894600  0.95677300  1
  N  N3  1  0.57045100  0.73894600  0.45677300  1
  O  O0  1  0.90309600  0.36494900  0.80674300  1
  O  O1  1  0.65790900  0.65039700  0.16541100  1
  O  O2  1  0.15970400  0.79948700  0.51974600  1
  O  O3  1  0.32666800  0.97988400  0.25836700  1
  O  O4  1  0.58240700  0.43546000  0.70862200  1
  O  O5  1  0.23561000  0.07602600  0.49182500  1
  O  O6  1  0.84209100  0.65039700  0.66541100  1
  O  O7  1  0.09690400  0.63505100  0.19325700  1
  O  O8  1  0.20090600  0.22211700  0.75582700  1
  O  O9  1  0.73561000  0.92397400  0.00817500  1
  O  O10  1  0.04792100  0.23381000  0.59528200  1
  O  O11  1  0.29127200  0.66217200  0.90888200  1
  O  O12  1  0.40309600  0.63505100  0.69325700  1
  O  O13  1  0.17333200  0.97988400  0.75836700  1
  O  O14  1  0.84029600  0.20051300  0.48025400  1
  O  O15  1  0.65970400  0.20051300  0.98025400  1
  O  O16  1  0.54792100  0.76619000  0.90471800  1
  O  O17  1  0.34209100  0.34960300  0.83458900  1
  O  O18  1  0.82666800  0.02011600  0.24163300  1
  O  O19  1  0.03695800  0.13984700  0.32009500  1
  O  O20  1  0.29909400  0.22211700  0.25582700  1
  O  O21  1  0.67333200  0.02011600  0.74163300  1
  O  O22  1  0.41759300  0.56454000  0.29137800  1
  O  O23  1  0.79909400  0.77788300  0.24417300  1
  O  O24  1  0.95207900  0.76619000  0.40471800  1
  O  O25  1  0.15790900  0.34960300  0.33458900  1
  O  O26  1  0.95621600  0.07705500  0.82419500  1
  O  O27  1  0.34029600  0.79948700  0.01974600  1
  O  O28  1  0.95562700  0.46098500  0.39532400  1
  O  O29  1  0.45207900  0.23381000  0.09528200  1
  O  O30  1  0.54378400  0.07705500  0.32419500  1
  O  O31  1  0.53695800  0.86015300  0.17990500  1
  O  O32  1  0.70872800  0.33782800  0.09111800  1
  O  O33  1  0.45562700  0.53901500  0.10467600  1
  O  O34  1  0.91759300  0.43546000  0.20862200  1
  O  O35  1  0.70090600  0.77788300  0.74417300  1
  O  O36  1  0.20872800  0.66217200  0.40888200  1
  O  O37  1  0.08240700  0.56454000  0.79137800  1
  O  O38  1  0.46304200  0.13984700  0.82009500  1
  O  O39  1  0.45621600  0.92294500  0.67580500  1
  O  O40  1  0.04378400  0.92294500  0.17580500  1
  O  O41  1  0.79127200  0.33782800  0.59111800  1
  O  O42  1  0.59690400  0.36494900  0.30674300  1
  O  O43  1  0.04437300  0.53901500  0.60467600  1
  O  O44  1  0.26439000  0.07602600  0.99182500  1
  O  O45  1  0.96304200  0.86015300  0.67990500  1
  O  O46  1  0.54437300  0.46098500  0.89532400  1
  O  O47  1  0.76439000  0.92397400  0.50817500  1
loop_
_geom_bond_atom_site_label_1
_geom_bond_atom_site_label_2
_geom_bond_distance
_geom_bond_site_symmetry_2
Gd0 O15 2.319756 1_555
Gd0 O26 2.366551 1_555
Gd0 O41 2.408483 1_555
Gd0 O38 2.420562 1_555
Gd0 O21 2.426059 1_555
Gd0 O9 2.450302 1_546
Gd0 O0 2.459204 1_555
Gd0 O4 2.518423 1_555
Gd1 O2 2.319756 1_555
Gd1 O39 2.366551 1_555
Gd1 O11 2.408483 1_555
Gd1 O45 2.420562 1_455
Gd1 O13 2.426059 1_555
Gd1 O5 2.450302 1_565
Gd1 O12 2.459204 1_555
Gd1 O37 2.518423 1_555
Gd2 O27 2.319756 1_555
Gd2 O40 2.366551 1_555
Gd2 O36 2.408483 1_555
Gd2 O31 2.420562 1_555
Gd2 O3 2.426059 1_555
Gd2 O44 2.450302 1_564
Gd2 O7 2.459204 1_555
Gd2 O22 2.518423 1_555
Gd3 O14 2.319756 1_555
Gd3 O30 2.366551 1_555
Gd3 O32 2.408483 1_555
Gd3 O19 2.420562 1_655
Gd3 O18 2.426059 1_555
Gd3 O47 2.450302 1_545
Gd3 O42 2.459204 1_555
Gd3 O34 2.518423 1_555
H0 N0 1.037159 1_555
H1 N1 1.028899 1_555
H2 N2 1.034584 1_554
H3 N0 1.034584 1_556
H4 N3 1.037159 1_555
H5 N3 1.028899 1_555
H6 N1 1.042331 1_555
H7 N3 1.042331 1_555
H8 N2 1.037159 1_555
H9 N3 1.034584 1_555
H10 N2 1.028899 1_455
H11 N2 1.042331 1_555
H12 N1 1.037159 1_555
H13 N0 1.028899 1_655
H14 N0 1.042331 1_555
H15 N1 1.034584 1_555
O0 P13 1.496137 1_555
O1 P11 1.617291 1_555
O1 P10 1.625800 1_555
O2 P8 1.499663 1_555
O3 P14 1.496284 1_565
O4 P12 1.508894 1_555
O5 P4 1.501598 1_555
O6 P2 1.617291 1_555
O6 P13 1.625800 1_555
O7 P7 1.496137 1_555
O8 P15 1.615582 1_555
O8 P1 1.625492 1_555
O9 P11 1.501598 1_555
O10 P1 1.608375 1_555
O10 P9 1.617690 1_455
O11 P3 1.501515 1_555
O12 P12 1.496137 1_555
O13 P1 1.496284 1_565
O14 P9 1.499663 1_555
O15 P6 1.499663 1_556
O16 P0 1.608375 1_555
O16 P3 1.617690 1_555
O17 P15 1.617291 1_555
O17 P12 1.625800 1_555
O18 P5 1.496284 1_545
O19 P4 1.505181 1_555
O20 P4 1.615582 1_555
O20 P14 1.625492 1_555
O21 P0 1.496284 1_545
O22 P10 1.508894 1_555
O23 P11 1.615582 1_555
O23 P5 1.625492 1_555
O24 P5 1.608375 1_555
O24 P8 1.617690 1_655
O25 P4 1.617291 1_555
O25 P7 1.625800 1_555
O26 P1 1.500325 1_655
O27 P3 1.499663 1_554
O28 P9 1.618005 1_555
O28 P7 1.626795 1_655
O29 P14 1.608375 1_555
O29 P6 1.617690 1_555
O30 P14 1.500325 1_555
O31 P11 1.505181 1_555
O32 P6 1.501515 1_555
O33 P3 1.618005 1_554
O33 P10 1.626795 1_555
O34 P7 1.508894 1_655
O35 P2 1.615582 1_555
O35 P0 1.625492 1_555
O36 P8 1.501515 1_555
O37 P13 1.508894 1_455
O38 P15 1.505181 1_555
O39 P0 1.500325 1_555
O40 P5 1.500325 1_455
O41 P9 1.501515 1_555
O42 P10 1.496137 1_555
O43 P8 1.618005 1_555
O43 P13 1.626795 1_455
O44 P15 1.501598 1_555
O45 P2 1.505181 1_555
O46 P6 1.618005 1_556
O46 P12 1.626795 1_555
O47 P2 1.501598 1_555
