# generated using pymatgen
data_RbH3WO7
_symmetry_space_group_name_H-M   'P 1'
_cell_length_a   6.54184800
_cell_length_b   8.28508379
_cell_length_c   12.67250425
_cell_angle_alpha   106.68701483
_cell_angle_beta   92.92909017
_cell_angle_gamma   104.70322567
_symmetry_Int_Tables_number   1
_chemical_formula_structural   RbH3WO7
_chemical_formula_sum   'Rb4 H12 W4 O28'
_cell_volume   630.65403877
_cell_formula_units_Z   4
loop_
 _symmetry_equiv_pos_site_id
 _symmetry_equiv_pos_as_xyz
  1  'x, y, z'
loop_
 _atom_site_type_symbol
 _atom_site_label
 _atom_site_symmetry_multiplicity
 _atom_site_fract_x
 _atom_site_fract_y
 _atom_site_fract_z
 _atom_site_occupancy
  Rb  Rb0  1  0.21600100  0.24251900  0.86070000  1
  Rb  Rb1  1  0.09862900  0.26249400  0.53911100  1
  Rb  Rb2  1  0.78399900  0.75748100  0.13930000  1
  Rb  Rb3  1  0.90137100  0.73750600  0.46088900  1
  H  H0  1  0.39753000  0.00691000  0.08222200  1
  H  H1  1  0.60338000  0.57481700  0.66684300  1
  H  H2  1  0.36208900  0.69131800  0.27531600  1
  H  H3  1  0.67310000  0.49142800  0.81259000  1
  H  H4  1  0.32690000  0.50857200  0.18741000  1
  H  H5  1  0.78109600  0.74955100  0.72806000  1
  H  H6  1  0.60247000  0.99309000  0.91777800  1
  H  H7  1  0.21890400  0.25044900  0.27194000  1
  H  H8  1  0.63791100  0.30868200  0.72468400  1
  H  H9  1  0.16456200  0.02292100  0.06552300  1
  H  H10  1  0.39662000  0.42518300  0.33315700  1
  H  H11  1  0.83543800  0.97707900  0.93447700  1
  W  W0  1  0.18432700  0.70706300  0.87541600  1
  W  W1  1  0.56051400  0.12503000  0.34241100  1
  W  W2  1  0.43948600  0.87497000  0.65758900  1
  W  W3  1  0.81567300  0.29293700  0.12458400  1
  O  O0  1  0.76221800  0.36365100  0.41167300  1
  O  O1  1  0.57389900  0.32579800  0.04056500  1
  O  O2  1  0.78354600  0.39761600  0.00433900  1
  O  O3  1  0.71446700  0.05917200  0.73107000  1
  O  O4  1  0.64379000  0.29258900  0.49447600  1
  O  O5  1  0.35621000  0.70741100  0.50552400  1
  O  O6  1  0.33460500  0.30485300  0.33672800  1
  O  O7  1  0.23778200  0.63634900  0.58832700  1
  O  O8  1  0.11351500  0.29951600  0.09026900  1
  O  O9  1  0.57328300  0.40547600  0.74843600  1
  O  O10  1  0.26611000  0.96374000  0.02727100  1
  O  O11  1  0.42671700  0.59452400  0.25156400  1
  O  O12  1  0.66539500  0.69514700  0.66327200  1
  O  O13  1  0.88712200  0.48694600  0.23810100  1
  O  O14  1  0.73472500  0.99418600  0.34906400  1
  O  O15  1  0.30521100  0.99698200  0.39357800  1
  O  O16  1  0.11287800  0.51305400  0.76189900  1
  O  O17  1  0.61059000  0.14247600  0.19026800  1
  O  O18  1  0.28553300  0.94082800  0.26893000  1
  O  O19  1  0.26527500  0.00581400  0.65093600  1
  O  O20  1  0.69478900  0.00301800  0.60642200  1
  O  O21  1  0.21645400  0.60238400  0.99566100  1
  O  O22  1  0.73389000  0.03626000  0.97272900  1
  O  O23  1  0.95762500  0.82707400  0.84560800  1
  O  O24  1  0.88648500  0.70048400  0.90973100  1
  O  O25  1  0.38941000  0.85752400  0.80973200  1
  O  O26  1  0.04237500  0.17292600  0.15439200  1
  O  O27  1  0.42610100  0.67420200  0.95943500  1
loop_
_geom_bond_atom_site_label_1
_geom_bond_atom_site_label_2
_geom_bond_distance
_geom_bond_site_symmetry_2
H0 O10 0.995828 1_545
H1 O12 0.991467 1_555
H2 O11 0.979265 1_555
H3 O9 0.985737 1_555
H4 O11 0.985737 1_555
H5 O12 1.000463 1_555
H6 O22 0.995828 1_565
H7 O6 1.000463 1_555
H8 O9 0.979265 1_555
H9 O10 0.989173 1_545
H10 O6 0.991467 1_555
H11 O22 0.989173 1_565
O0 O4 1.501418 1_555
O0 W1 1.995220 1_555
O0 Rb3 2.865818 1_555
O0 Rb1 3.082877 1_655
O1 O2 1.500905 1_555
O1 W3 1.980491 1_555
O1 Rb0 2.980703 1_554
O2 W3 1.984205 1_555
O2 Rb2 2.980115 1_555
O3 W2 2.012771 1_545
O3 Rb0 3.355132 1_655
O4 W1 1.977363 1_555
O4 Rb1 3.085651 1_655
O5 O7 1.501418 1_555
O5 W2 1.977363 1_555
O5 Rb3 3.085651 1_455
O6 W1 2.361639 1_555
O6 Rb1 3.119364 1_555
O7 W2 1.995220 1_555
O7 Rb1 2.865818 1_555
O7 Rb3 3.082877 1_455
O8 W3 2.008674 1_455
O8 Rb0 2.950783 1_554
O9 Rb0 3.025016 1_555
O10 W0 2.340706 1_554
O11 Rb2 3.025016 1_555
O12 W2 2.361639 1_555
O12 Rb3 3.119364 1_555
O13 W3 1.758846 1_555
O13 Rb3 2.966153 1_555
O13 Rb2 3.056068 1_555
O14 W1 1.775084 1_565
O14 Rb2 2.903576 1_555
O14 Rb1 3.172098 1_665
O14 Rb3 3.235555 1_555
O15 O18 1.501646 1_555
O15 W1 1.985354 1_565
O15 Rb1 3.082319 1_565
O15 Rb3 3.275513 1_455
O16 W0 1.758846 1_555
O16 Rb1 2.966153 1_555
O16 Rb0 3.056068 1_555
O17 W3 1.976823 1_555
O17 W1 2.011486 1_555
O18 W1 2.012771 1_565
O18 Rb2 3.355132 1_455
O19 W2 1.775084 1_545
O19 Rb0 2.903576 1_555
O19 Rb3 3.172098 1_445
O19 Rb1 3.235555 1_555
O20 O3 1.501646 1_555
O20 W2 1.985354 1_545
O20 Rb3 3.082319 1_545
O20 Rb1 3.275513 1_655
O21 O27 1.500905 1_555
O21 W0 1.984205 1_555
O21 Rb0 2.980115 1_555
O22 W3 2.340706 1_556
O23 O24 1.502405 1_555
O23 W0 2.058579 1_655
O24 W0 2.008674 1_655
O24 Rb2 2.950783 1_556
O25 W0 1.976823 1_555
O25 W2 2.011486 1_555
O26 O8 1.502405 1_555
O26 W3 2.058579 1_455
O27 W0 1.980491 1_555
O27 Rb2 2.980703 1_556
