# generated using pymatgen
data_RbCuSnS3
_symmetry_space_group_name_H-M   'P 1'
_cell_length_a   7.91273281
_cell_length_b   7.91273281
_cell_length_c   20.48957400
_cell_angle_alpha   84.44870018
_cell_angle_beta   84.44870018
_cell_angle_gamma   90.01099804
_symmetry_Int_Tables_number   1
_chemical_formula_structural   RbCuSnS3
_chemical_formula_sum   'Rb8 Cu8 Sn8 S24'
_cell_volume   1270.81540445
_cell_formula_units_Z   8
loop_
 _symmetry_equiv_pos_site_id
 _symmetry_equiv_pos_as_xyz
  1  'x, y, z'
loop_
 _atom_site_type_symbol
 _atom_site_label
 _atom_site_symmetry_multiplicity
 _atom_site_fract_x
 _atom_site_fract_y
 _atom_site_fract_z
 _atom_site_occupancy
  Rb  Rb0  1  0.60198800  0.72765200  0.58999400  1
  Rb  Rb1  1  0.27234800  0.39801200  0.91000600  1
  Rb  Rb2  1  0.39801200  0.27234800  0.41000600  1
  Rb  Rb3  1  0.72765200  0.60198800  0.08999400  1
  Rb  Rb4  1  0.89687400  0.27259700  0.41024700  1
  Rb  Rb5  1  0.72740300  0.10312600  0.08975300  1
  Rb  Rb6  1  0.10312600  0.72740300  0.58975300  1
  Rb  Rb7  1  0.27259700  0.89687400  0.91024700  1
  Cu  Cu0  1  0.56378600  0.43621400  0.75000000  1
  Cu  Cu1  1  0.43621400  0.56378600  0.25000000  1
  Cu  Cu2  1  0.56215000  0.94006700  0.75007000  1
  Cu  Cu3  1  0.05993300  0.43785000  0.74993000  1
  Cu  Cu4  1  0.43785000  0.05993300  0.24993000  1
  Cu  Cu5  1  0.94006700  0.56215000  0.25007000  1
  Cu  Cu6  1  0.06252100  0.93747900  0.75000000  1
  Cu  Cu7  1  0.93747900  0.06252100  0.25000000  1
  Sn  Sn0  1  0.84284700  0.21737900  0.62874200  1
  Sn  Sn1  1  0.78262100  0.15715300  0.87125800  1
  Sn  Sn2  1  0.15715300  0.78262100  0.37125800  1
  Sn  Sn3  1  0.21737900  0.84284700  0.12874200  1
  Sn  Sn4  1  0.34266800  0.21807300  0.62937800  1
  Sn  Sn5  1  0.78192700  0.65733200  0.87062200  1
  Sn  Sn6  1  0.65733200  0.78192700  0.37062200  1
  Sn  Sn7  1  0.21807300  0.34266800  0.12937800  1
  S  S0  1  0.32765700  0.94152600  0.68925100  1
  S  S1  1  0.05847400  0.67234300  0.81074900  1
  S  S2  1  0.67234300  0.05847400  0.31074900  1
  S  S3  1  0.94152600  0.32765700  0.18925100  1
  S  S4  1  0.32725800  0.46346100  0.68980300  1
  S  S5  1  0.53653900  0.67274200  0.81019700  1
  S  S6  1  0.67274200  0.53653900  0.31019700  1
  S  S7  1  0.46346100  0.32725800  0.18980300  1
  S  S8  1  0.82795700  0.94131000  0.68756600  1
  S  S9  1  0.05869000  0.17204300  0.81243400  1
  S  S10  1  0.17204300  0.05869000  0.31243400  1
  S  S11  1  0.94131000  0.82795700  0.18756600  1
  S  S12  1  0.82783600  0.46533400  0.68693100  1
  S  S13  1  0.53466600  0.17216400  0.81306900  1
  S  S14  1  0.17216400  0.53466600  0.31306900  1
  S  S15  1  0.46533400  0.82783600  0.18693100  1
  S  S16  1  0.61078900  0.23688300  0.55192200  1
  S  S17  1  0.76311700  0.38921100  0.94807800  1
  S  S18  1  0.38921100  0.76311700  0.44807800  1
  S  S19  1  0.23688300  0.61078900  0.05192200  1
  S  S20  1  0.11341000  0.23721900  0.55188700  1
  S  S21  1  0.76278100  0.88659000  0.94811300  1
  S  S22  1  0.88659000  0.76278100  0.44811300  1
  S  S23  1  0.23721900  0.11341000  0.05188700  1
loop_
_geom_bond_atom_site_label_1
_geom_bond_atom_site_label_2
_geom_bond_distance
_geom_bond_site_symmetry_2
Rb0 S12 3.367118 1_555
Rb0 S8 3.375863 1_555
Rb0 S0 3.394878 1_555
Rb0 S4 3.404260 1_555
Rb0 S18 3.486862 1_555
Rb0 S22 3.489499 1_555
Rb1 S13 3.367118 1_555
Rb1 S9 3.375863 1_555
Rb1 S1 3.394878 1_555
Rb1 S5 3.404260 1_555
Rb1 S19 3.486862 1_556
Rb1 S23 3.489499 1_556
Rb2 S14 3.367118 1_555
Rb2 S10 3.375863 1_555
Rb2 S2 3.394878 1_555
Rb2 S6 3.404260 1_555
Rb2 S16 3.486862 1_555
Rb2 S20 3.489499 1_555
Rb3 S15 3.367118 1_555
Rb3 S11 3.375863 1_555
Rb3 S3 3.394878 1_555
Rb3 S7 3.404260 1_555
Rb3 S17 3.486862 1_554
Rb3 S21 3.489499 1_554
Rb4 S14 3.371946 1_655
Rb4 S10 3.381674 1_655
Rb4 S2 3.398708 1_555
Rb4 S6 3.403828 1_555
Rb4 S16 3.492927 1_555
Rb4 S20 3.498795 1_655
Rb5 S15 3.371946 1_545
Rb5 S11 3.381674 1_545
Rb5 S3 3.398708 1_555
Rb5 S7 3.403828 1_555
Rb5 S17 3.492927 1_554
Rb5 S21 3.498795 1_544
Rb6 S12 3.371946 1_455
Rb6 S8 3.381674 1_455
Rb6 S0 3.398708 1_555
Rb6 S4 3.403828 1_555
Rb6 S18 3.492927 1_555
Rb6 S22 3.498795 1_455
Rb7 S13 3.371946 1_565
Rb7 S9 3.381674 1_565
Rb7 S1 3.398708 1_555
Rb7 S5 3.403828 1_555
Rb7 S19 3.492927 1_556
Rb7 S23 3.498795 1_566
Cu0 S4 2.337934 1_555
Cu0 S5 2.337934 1_555
Cu0 S12 2.346969 1_555
Cu0 S13 2.346969 1_555
Cu1 S6 2.337934 1_555
Cu1 S7 2.337934 1_555
Cu1 S15 2.346969 1_555
Cu1 S14 2.346969 1_555
Cu2 S0 2.332471 1_555
Cu2 S5 2.341058 1_555
Cu2 S13 2.343251 1_565
Cu2 S8 2.353796 1_555
Cu3 S1 2.332471 1_555
Cu3 S4 2.341058 1_555
Cu3 S12 2.343251 1_455
Cu3 S9 2.353796 1_555
Cu4 S2 2.332471 1_555
Cu4 S7 2.341058 1_555
Cu4 S15 2.343251 1_545
Cu4 S10 2.353796 1_555
Cu5 S3 2.332471 1_555
Cu5 S6 2.341058 1_555
Cu5 S14 2.343251 1_655
Cu5 S11 2.353796 1_555
Cu6 S1 2.332120 1_555
Cu6 S0 2.332120 1_555
Cu6 S8 2.352482 1_455
Cu6 S9 2.352482 1_565
Cu7 S2 2.332120 1_555
Cu7 S3 2.332120 1_555
Cu7 S11 2.352482 1_545
Cu7 S10 2.352482 1_655
S0 Sn4 2.399962 1_565
S1 Sn5 2.399962 1_455
S2 Sn6 2.399962 1_545
S3 Sn7 2.399962 1_655
S4 Sn4 2.398721 1_555
S5 Sn5 2.398721 1_555
S6 Sn6 2.398721 1_555
S7 Sn7 2.398721 1_555
S8 Sn0 2.387777 1_565
S9 Sn1 2.387777 1_455
S10 Sn2 2.387777 1_545
S11 Sn3 2.387777 1_655
S12 Sn0 2.389630 1_555
S13 Sn1 2.389630 1_555
S14 Sn2 2.389630 1_555
S15 Sn3 2.389630 1_555
S16 Sn4 2.518860 1_555
S16 Sn0 2.526914 1_555
S17 Sn5 2.518860 1_555
S17 Sn1 2.526914 1_555
S18 Sn6 2.518860 1_555
S18 Sn2 2.526914 1_555
S19 Sn7 2.518860 1_555
S19 Sn3 2.526914 1_555
S20 Sn4 2.519039 1_555
S20 Sn0 2.527372 1_455
S21 Sn5 2.519039 1_555
S21 Sn1 2.527372 1_565
S22 Sn6 2.519039 1_555
S22 Sn2 2.527372 1_655
S23 Sn7 2.519039 1_555
S23 Sn3 2.527372 1_545
