# generated using pymatgen
data_TePbO3
_symmetry_space_group_name_H-M   'P 1'
_cell_length_a   5.35030789
_cell_length_b   5.35030789
_cell_length_c   11.96787127
_cell_angle_alpha   90.00000000
_cell_angle_beta   90.00000000
_cell_angle_gamma   90.00000000
_symmetry_Int_Tables_number   1
_chemical_formula_structural   TePbO3
_chemical_formula_sum   'Te4 Pb4 O12'
_cell_volume   342.58982379
_cell_formula_units_Z   4
loop_
 _symmetry_equiv_pos_site_id
 _symmetry_equiv_pos_as_xyz
  1  'x, y, z'
loop_
 _atom_site_type_symbol
 _atom_site_label
 _atom_site_symmetry_multiplicity
 _atom_site_fract_x
 _atom_site_fract_y
 _atom_site_fract_z
 _atom_site_occupancy
  Te  Te0  1  0.25224562  0.25669835  0.48959557  1
  Te  Te1  1  0.25669835  0.74775438  0.23959557  1
  Te  Te2  1  0.74775438  0.74330165  0.98959557  1
  Te  Te3  1  0.74330165  0.25224562  0.73959557  1
  Pb  Pb0  1  0.75403419  0.24308002  0.25038627  1
  Pb  Pb1  1  0.24308002  0.24596581  0.00038627  1
  Pb  Pb2  1  0.24596581  0.75691998  0.75038627  1
  Pb  Pb3  1  0.75691998  0.75403419  0.50038627  1
  O  O0  1  0.38824464  0.01929185  0.58798618  1
  O  O1  1  0.52215970  0.12357431  0.84639535  1
  O  O2  1  0.47784030  0.87642569  0.34639535  1
  O  O3  1  0.11915801  0.06133465  0.20083563  1
  O  O4  1  0.06133465  0.88084199  0.95083563  1
  O  O5  1  0.01929185  0.61175536  0.33798618  1
  O  O6  1  0.12357431  0.47784030  0.59639535  1
  O  O7  1  0.87642569  0.52215970  0.09639535  1
  O  O8  1  0.98070815  0.38824464  0.83798618  1
  O  O9  1  0.61175536  0.98070815  0.08798618  1
  O  O10  1  0.88084199  0.93866535  0.70083563  1
  O  O11  1  0.93866535  0.11915801  0.45083563  1
loop_
_geom_bond_atom_site_label_1
_geom_bond_atom_site_label_2
_geom_bond_distance
_geom_bond_site_symmetry_2
O0 Te0 1.878677 1_555
O0 Pb2 2.515466 1_545
O0 Pb3 2.646531 1_545
O1 Te3 1.872847 1_555
O1 Pb1 2.460646 1_556
O1 Pb2 2.711501 1_545
O2 Te1 1.872847 1_555
O2 Pb3 2.460646 1_555
O2 Pb0 2.711501 1_565
O3 Te1 1.889855 1_545
O3 Pb0 2.261300 1_455
O3 Pb1 2.677757 1_555
O4 Te2 1.889855 1_455
O4 Pb1 2.261300 1_566
O4 Pb2 2.677757 1_555
O5 Te1 1.878677 1_555
O5 Pb3 2.515466 1_455
O5 Pb0 2.646531 1_455
O6 Te0 1.872847 1_555
O6 Pb2 2.460646 1_555
O6 Pb3 2.711501 1_455
O7 Te2 1.872847 1_554
O7 Pb0 2.460646 1_555
O7 Pb1 2.711501 1_655
O8 Te3 1.878677 1_555
O8 Pb1 2.515466 1_656
O8 Pb2 2.646531 1_655
O9 Te2 1.878677 1_554
O9 Pb0 2.515466 1_565
O9 Pb1 2.646531 1_565
O10 Te3 1.889855 1_565
O10 Pb2 2.261300 1_655
O10 Pb3 2.677757 1_555
O11 Te0 1.889855 1_655
O11 Pb3 2.261300 1_545
O11 Pb0 2.677757 1_555
