# generated using pymatgen
data_Ga2BiSe4
_symmetry_space_group_name_H-M   'P 1'
_cell_length_a   7.84300707
_cell_length_b   7.84300707
_cell_length_c   12.64001628
_cell_angle_alpha   90.00000000
_cell_angle_beta   90.00000000
_cell_angle_gamma   90.00000000
_symmetry_Int_Tables_number   1
_chemical_formula_structural   Ga2BiSe4
_chemical_formula_sum   'Ga8 Bi4 Se16'
_cell_volume   777.52228656
_cell_formula_units_Z   4
loop_
 _symmetry_equiv_pos_site_id
 _symmetry_equiv_pos_as_xyz
  1  'x, y, z'
loop_
 _atom_site_type_symbol
 _atom_site_label
 _atom_site_symmetry_multiplicity
 _atom_site_fract_x
 _atom_site_fract_y
 _atom_site_fract_z
 _atom_site_occupancy
  Ga  Ga0  1  0.50000000  -0.00000000  0.75000000  1
  Ga  Ga1  1  0.00000000  0.50000000  0.75000000  1
  Ga  Ga2  1  0.00000000  0.50000000  0.00000000  1
  Ga  Ga3  1  0.00000000  0.50000000  0.25000000  1
  Ga  Ga4  1  0.50000000  -0.00000000  0.50000000  1
  Ga  Ga5  1  0.50000000  -0.00000000  0.25000000  1
  Ga  Ga6  1  0.00000000  0.50000000  0.50000000  1
  Ga  Ga7  1  0.50000000  -0.00000000  0.00000000  1
  Bi  Bi0  1  0.00000000  -0.00000000  0.12493817  1
  Bi  Bi1  1  0.00000000  -0.00000000  0.87506183  1
  Bi  Bi2  1  0.50000000  0.50000000  0.37506183  1
  Bi  Bi3  1  0.50000000  0.50000000  0.62493817  1
  Se  Se0  1  0.66152511  0.82948299  0.87539836  1
  Se  Se1  1  0.16152511  0.32948299  0.62460164  1
  Se  Se2  1  0.83847489  0.67051701  0.62460164  1
  Se  Se3  1  0.16152511  0.67051701  0.37539836  1
  Se  Se4  1  0.67051701  0.16152511  0.62460164  1
  Se  Se5  1  0.82948299  0.33847489  0.87539836  1
  Se  Se6  1  0.67051701  0.83847489  0.37539836  1
  Se  Se7  1  0.66152511  0.17051701  0.12460164  1
  Se  Se8  1  0.17051701  0.33847489  0.12460164  1
  Se  Se9  1  0.32948299  0.83847489  0.62460164  1
  Se  Se10  1  0.17051701  0.66152511  0.87539836  1
  Se  Se11  1  0.83847489  0.32948299  0.37539836  1
  Se  Se12  1  0.82948299  0.66152511  0.12460164  1
  Se  Se13  1  0.33847489  0.17051701  0.87539836  1
  Se  Se14  1  0.32948299  0.16152511  0.37539836  1
  Se  Se15  1  0.33847489  0.82948299  0.12460164  1
loop_
_geom_bond_atom_site_label_1
_geom_bond_atom_site_label_2
_geom_bond_distance
_geom_bond_site_symmetry_2
Ga0 Se4 2.430181 1_555
Ga0 Se13 2.430181 1_555
Ga0 Se9 2.430181 1_545
Ga0 Se0 2.430181 1_545
Ga1 Se1 2.430181 1_555
Ga1 Se5 2.430181 1_455
Ga1 Se2 2.430181 1_455
Ga1 Se10 2.430181 1_555
Ga2 Se5 2.423625 1_454
Ga2 Se8 2.423625 1_555
Ga2 Se12 2.423625 1_455
Ga2 Se10 2.423625 1_554
Ga3 Se8 2.430181 1_555
Ga3 Se11 2.430181 1_455
Ga3 Se3 2.430181 1_555
Ga3 Se12 2.430181 1_455
Ga4 Se4 2.423625 1_555
Ga4 Se9 2.423625 1_545
Ga4 Se6 2.423625 1_545
Ga4 Se14 2.423625 1_555
Ga5 Se6 2.430181 1_545
Ga5 Se14 2.430181 1_555
Ga5 Se15 2.430181 1_545
Ga5 Se7 2.430181 1_555
Ga6 Se1 2.423625 1_555
Ga6 Se2 2.423625 1_455
Ga6 Se11 2.423625 1_455
Ga6 Se3 2.423625 1_555
Ga7 Se15 2.423625 1_545
Ga7 Se13 2.423625 1_554
Ga7 Se0 2.423625 1_544
Ga7 Se7 2.423625 1_555
Bi0 Se12 2.972506 1_445
Bi0 Se7 2.972506 1_455
Bi0 Se15 2.972506 1_545
Bi0 Se8 2.972506 1_555
Bi1 Se0 2.972506 1_445
Bi1 Se10 2.972506 1_545
Bi1 Se13 2.972506 1_555
Bi1 Se5 2.972506 1_455
Bi2 Se11 2.972506 1_555
Bi2 Se6 2.972506 1_555
Bi2 Se14 2.972506 1_555
Bi2 Se3 2.972506 1_555
Bi3 Se4 2.972506 1_555
Bi3 Se1 2.972506 1_555
Bi3 Se2 2.972506 1_555
Bi3 Se9 2.972506 1_555
