# generated using pymatgen
data_NaC2N3
_symmetry_space_group_name_H-M   'P 1'
_cell_length_a   23.28422030
_cell_length_b   3.50618139
_cell_length_c   10.98453322
_cell_angle_alpha   80.79863566
_cell_angle_beta   90.00000000
_cell_angle_gamma   90.00000000
_symmetry_Int_Tables_number   1
_chemical_formula_structural   NaC2N3
_chemical_formula_sum   'Na12 C24 N36'
_cell_volume   885.22387406
_cell_formula_units_Z   12
loop_
 _symmetry_equiv_pos_site_id
 _symmetry_equiv_pos_as_xyz
  1  'x, y, z'
loop_
 _atom_site_type_symbol
 _atom_site_label
 _atom_site_symmetry_multiplicity
 _atom_site_fract_x
 _atom_site_fract_y
 _atom_site_fract_z
 _atom_site_occupancy
  Na  Na0  1  0.38703755  0.75117932  0.92607603  1
  Na  Na1  1  0.25656339  0.17740803  0.50668022  1
  Na  Na2  1  0.48888648  0.39041024  0.35346154  1
  Na  Na3  1  0.51111352  0.60958976  0.64653846  1
  Na  Na4  1  0.24343661  0.17740803  0.00668022  1
  Na  Na5  1  0.01111352  0.39041024  0.85346154  1
  Na  Na6  1  0.61296245  0.24882068  0.07392397  1
  Na  Na7  1  0.88703755  0.24882068  0.57392397  1
  Na  Na8  1  0.75656339  0.82259197  0.99331978  1
  Na  Na9  1  0.98888648  0.60958976  0.14653846  1
  Na  Na10  1  0.11296245  0.75117932  0.42607603  1
  Na  Na11  1  0.74343661  0.82259197  0.49331978  1
  C  C0  1  0.97181326  0.79127265  0.37941312  1
  C  C1  1  0.29480257  0.72187164  0.22463448  1
  C  C2  1  0.11703910  0.98022147  0.67596229  1
  C  C3  1  0.64733208  0.11925982  0.62385153  1
  C  C4  1  0.40562044  0.05616654  0.53146411  1
  C  C5  1  0.79480257  0.27812836  0.27536552  1
  C  C6  1  0.70745917  0.55974908  0.23512547  1
  C  C7  1  0.14733208  0.88074018  0.87614847  1
  C  C8  1  0.90562044  0.94383346  0.96853589  1
  C  C9  1  0.70519743  0.27812836  0.77536552  1
  C  C10  1  0.47181326  0.20872735  0.12058688  1
  C  C11  1  0.85266792  0.11925982  0.12385153  1
  C  C12  1  0.09437956  0.05616654  0.03146411  1
  C  C13  1  0.59437956  0.94383346  0.46853589  1
  C  C14  1  0.35266792  0.88074018  0.37614847  1
  C  C15  1  0.20519743  0.72187164  0.72463448  1
  C  C16  1  0.88296090  0.01977853  0.32403771  1
  C  C17  1  0.61703910  0.01977853  0.82403771  1
  C  C18  1  0.52818674  0.79127265  0.87941312  1
  C  C19  1  0.20745917  0.44025092  0.26487453  1
  C  C20  1  0.38296090  0.98022147  0.17596229  1
  C  C21  1  0.79254083  0.55974908  0.73512547  1
  C  C22  1  0.02818674  0.20872735  0.62058688  1
  C  C23  1  0.29254083  0.44025092  0.76487453  1
  N  N0  1  0.33283455  0.85239529  0.13572856  1
  N  N1  1  0.89602719  0.01460400  0.20414461  1
  N  N2  1  0.67199343  0.69775058  0.16514149  1
  N  N3  1  0.66716545  0.14760471  0.86427144  1
  N  N4  1  0.05156508  0.17231974  0.06969676  1
  N  N5  1  0.85775870  0.07348465  0.00399873  1
  N  N6  1  0.60397281  0.01460400  0.70414461  1
  N  N7  1  0.80161780  0.26287135  0.15414540  1
  N  N8  1  0.07859332  0.11056904  0.58613701  1
  N  N9  1  0.39602719  0.98539600  0.29585539  1
  N  N10  1  0.44843492  0.17231974  0.56969676  1
  N  N11  1  0.75458226  0.42481291  0.81665781  1
  N  N12  1  0.51804018  0.30341741  0.14672883  1
  N  N13  1  0.48195982  0.69658259  0.85327117  1
  N  N14  1  0.83283455  0.14760471  0.36427144  1
  N  N15  1  0.30161780  0.73712865  0.34585460  1
  N  N16  1  0.82800657  0.69775058  0.66514149  1
  N  N17  1  0.24541774  0.57518709  0.18334219  1
  N  N18  1  0.10397281  0.98539600  0.79585539  1
  N  N19  1  0.57859332  0.88943096  0.91386299  1
  N  N20  1  0.94843492  0.82768026  0.93030324  1
  N  N21  1  0.98195982  0.30341741  0.64672883  1
  N  N22  1  0.64224130  0.07348465  0.50399873  1
  N  N23  1  0.32800657  0.30224942  0.83485851  1
  N  N24  1  0.35775870  0.92651535  0.49600127  1
  N  N25  1  0.42140668  0.11056904  0.08613701  1
  N  N26  1  0.17199343  0.30224942  0.33485851  1
  N  N27  1  0.69838220  0.26287135  0.65414540  1
  N  N28  1  0.01804018  0.69658259  0.35327117  1
  N  N29  1  0.16716545  0.85239529  0.63572856  1
  N  N30  1  0.25458226  0.57518709  0.68334219  1
  N  N31  1  0.74541774  0.42481291  0.31665781  1
  N  N32  1  0.19838220  0.73712865  0.84585460  1
  N  N33  1  0.92140668  0.88943096  0.41386299  1
  N  N34  1  0.14224130  0.92651535  0.99600127  1
  N  N35  1  0.55156508  0.82768026  0.43030324  1
loop_
_geom_bond_atom_site_label_1
_geom_bond_atom_site_label_2
_geom_bond_distance
_geom_bond_site_symmetry_2
C0 N28 1.175465 1_655
C0 N33 1.296463 1_555
C1 N0 1.343287 1_555
C1 N15 1.350496 1_555
C1 N17 1.366413 1_555
C2 N29 1.349732 1_555
C2 N18 1.354600 1_555
C2 N8 1.356303 1_565
C3 N6 1.352147 1_555
C3 N27 1.353062 1_555
C3 N22 1.356697 1_555
C4 N10 1.179297 1_555
C4 N24 1.287229 1_545
C5 N14 1.343287 1_555
C5 N7 1.350496 1_555
C5 N31 1.366413 1_555
C6 N2 1.178159 1_555
C6 N31 1.292896 1_555
C7 N18 1.352147 1_555
C7 N32 1.353062 1_555
C7 N34 1.356697 1_555
C8 N20 1.179297 1_555
C8 N5 1.287229 1_566
C9 N3 1.343287 1_555
C9 N27 1.350496 1_555
C9 N11 1.366413 1_555
C10 N12 1.175465 1_555
C10 N25 1.296463 1_555
C11 N1 1.352147 1_555
C11 N7 1.353062 1_555
C11 N5 1.356697 1_555
C12 N4 1.179297 1_555
C12 N34 1.287229 1_544
C13 N35 1.179297 1_555
C13 N22 1.287229 1_565
C14 N9 1.352147 1_555
C14 N15 1.353062 1_555
C14 N24 1.356697 1_555
C15 N29 1.343287 1_555
C15 N32 1.350496 1_555
C15 N30 1.366413 1_555
C16 N14 1.349732 1_555
C16 N1 1.354600 1_555
C16 N33 1.356303 1_545
C17 N3 1.349732 1_555
C17 N6 1.354600 1_555
C17 N19 1.356303 1_545
C18 N13 1.175465 1_555
C18 N19 1.296463 1_555
C19 N26 1.178159 1_555
C19 N17 1.292896 1_555
C20 N0 1.349732 1_555
C20 N9 1.354600 1_555
C20 N25 1.356303 1_565
C21 N16 1.178159 1_555
C21 N11 1.292896 1_555
C22 N21 1.175465 1_455
C22 N8 1.296463 1_555
C23 N23 1.178159 1_555
C23 N30 1.292896 1_555
N0 Na4 2.669135 1_565
N0 Na0 2.698825 1_554
N1 Na9 2.716478 1_545
N1 Na9 3.000848 1_555
N2 Na6 2.423870 1_555
N2 Na6 2.450971 1_565
N2 Na8 2.714246 1_554
N3 Na8 2.669135 1_545
N3 Na6 2.698825 1_556
N4 Na9 2.367862 1_455
N4 Na9 2.490507 1_445
N4 Na5 2.555930 1_554
N5 Na8 2.524385 1_544
N6 Na3 2.716478 1_545
N6 Na3 3.000848 1_555
N7 Na8 2.638932 1_554
N7 Na8 2.734325 1_544
N8 Na10 2.455200 1_545
N8 Na10 2.741105 1_555
N9 Na2 2.716478 1_565
N9 Na2 3.000848 1_555
N10 Na3 2.367862 1_555
N10 Na3 2.490507 1_545
N10 Na2 2.555930 1_555
N11 Na8 2.564870 1_555
N11 Na8 2.629804 1_545
N12 Na6 2.368567 1_555
N12 Na2 2.435603 1_555
N13 Na0 2.368567 1_555
N13 Na3 2.435603 1_555
N14 Na11 2.669135 1_545
N14 Na7 2.698825 1_555
N15 Na1 2.638932 1_555
N15 Na1 2.734325 1_565
N16 Na7 2.423870 1_555
N16 Na7 2.450971 1_565
N16 Na11 2.714246 1_555
N17 Na4 2.564870 1_555
N17 Na4 2.629804 1_565
N18 Na5 2.716478 1_565
N18 Na5 3.000848 1_555
N19 Na6 2.455200 1_566
N19 Na6 2.741105 1_556
N20 Na5 2.367862 1_655
N20 Na5 2.490507 1_665
N20 Na9 2.555930 1_556
N21 Na7 2.368567 1_555
N21 Na5 2.435603 1_655
N22 Na11 2.524385 1_545
N23 Na0 2.423870 1_555
N23 Na0 2.450971 1_545
N23 Na4 2.714246 1_556
N24 Na1 2.524385 1_565
N25 Na0 2.455200 1_544
N25 Na0 2.741105 1_554
N26 Na10 2.423870 1_555
N26 Na10 2.450971 1_545
N26 Na1 2.714246 1_555
N27 Na11 2.638932 1_555
N27 Na11 2.734325 1_545
N28 Na10 2.368567 1_555
N28 Na9 2.435603 1_455
N29 Na1 2.669135 1_565
N29 Na10 2.698825 1_555
N30 Na1 2.564870 1_555
N30 Na1 2.629804 1_565
N31 Na11 2.564870 1_555
N31 Na11 2.629804 1_545
N32 Na4 2.638932 1_556
N32 Na4 2.734325 1_566
N33 Na7 2.455200 1_565
N33 Na7 2.741105 1_555
N34 Na4 2.524385 1_566
N35 Na2 2.367862 1_555
N35 Na2 2.490507 1_565
N35 Na3 2.555930 1_555
