# generated using pymatgen
data_CsNb6I11
_symmetry_space_group_name_H-M   'P 1'
_cell_length_a   11.27850402
_cell_length_b   11.27850402
_cell_length_c   12.14987500
_cell_angle_alpha   90.00000000
_cell_angle_beta   90.00000000
_cell_angle_gamma   120.00000010
_symmetry_Int_Tables_number   1
_chemical_formula_structural   CsNb6I11
_chemical_formula_sum   'Cs2 Nb12 I22'
_cell_volume   1338.46012772
_cell_formula_units_Z   2
loop_
 _symmetry_equiv_pos_site_id
 _symmetry_equiv_pos_as_xyz
  1  'x, y, z'
loop_
 _atom_site_type_symbol
 _atom_site_label
 _atom_site_symmetry_multiplicity
 _atom_site_fract_x
 _atom_site_fract_y
 _atom_site_fract_z
 _atom_site_occupancy
  Cs  Cs0  1  0.00000000  0.00000000  0.25000000  1
  Cs  Cs1  1  0.00000000  0.00000000  0.75000000  1
  Nb  Nb0  1  0.48217100  0.67716300  0.34717900  1
  Nb  Nb1  1  0.51782900  0.19499200  0.65282100  1
  Nb  Nb2  1  0.19499200  0.51782900  0.34717900  1
  Nb  Nb3  1  0.48217100  0.80500800  0.15282100  1
  Nb  Nb4  1  0.80500800  0.48217100  0.84717900  1
  Nb  Nb5  1  0.32283700  0.80500800  0.34717900  1
  Nb  Nb6  1  0.80500800  0.32283700  0.65282100  1
  Nb  Nb7  1  0.67716300  0.19499200  0.84717900  1
  Nb  Nb8  1  0.67716300  0.48217100  0.65282100  1
  Nb  Nb9  1  0.32283700  0.51782900  0.15282100  1
  Nb  Nb10  1  0.51782900  0.32283700  0.84717900  1
  Nb  Nb11  1  0.19499200  0.67716300  0.15282100  1
  I  I0  1  0.97377900  0.62277300  0.65860500  1
  I  I1  1  0.62277300  0.97377900  0.34139500  1
  I  I2  1  0.35100600  0.37722700  0.34139500  1
  I  I3  1  0.37722700  0.35100600  0.65860500  1
  I  I4  1  0.64899400  0.62277300  0.84139500  1
  I  I5  1  0.28410200  0.00000000  0.50000000  1
  I  I6  1  0.71589800  0.71589800  0.50000000  1
  I  I7  1  0.97377900  0.35100600  0.84139500  1
  I  I8  1  0.37722700  0.02622100  0.84139500  1
  I  I9  1  0.35100600  0.97377900  0.15860500  1
  I  I10  1  0.71589800  0.00000000  0.00000000  1
  I  I11  1  0.33333300  0.66666700  0.95791200  1
  I  I12  1  0.33333300  0.66666700  0.54208800  1
  I  I13  1  0.66666700  0.33333300  0.04208800  1
  I  I14  1  0.02622100  0.37722700  0.15860500  1
  I  I15  1  0.28410200  0.28410200  0.00000000  1
  I  I16  1  0.64899400  0.02622100  0.65860500  1
  I  I17  1  0.02622100  0.64899400  0.34139500  1
  I  I18  1  0.62277300  0.64899400  0.15860500  1
  I  I19  1  0.00000000  0.71589800  0.00000000  1
  I  I20  1  0.00000000  0.28410200  0.50000000  1
  I  I21  1  0.66666700  0.33333300  0.45791200  1
loop_
_geom_bond_atom_site_label_1
_geom_bond_atom_site_label_2
_geom_bond_distance
_geom_bond_site_symmetry_2
Cs0 I2 4.261873 1_555
Cs0 I18 4.261873 1_445
Cs0 I1 4.261873 1_445
Cs0 I14 4.261873 1_555
Cs0 I9 4.261873 1_545
Cs0 I17 4.261873 1_545
Cs0 I6 4.415134 1_445
Cs0 I15 4.415134 1_555
Cs0 I19 4.415134 1_545
Cs0 I10 4.415134 1_455
Cs0 I20 4.415134 1_555
Cs0 I5 4.415134 1_555
Cs1 I3 4.261873 1_555
Cs1 I4 4.261873 1_445
Cs1 I0 4.261873 1_445
Cs1 I8 4.261873 1_555
Cs1 I7 4.261873 1_455
Cs1 I16 4.261873 1_455
Cs1 I15 4.415134 1_556
Cs1 I6 4.415134 1_445
Cs1 I19 4.415134 1_546
Cs1 I10 4.415134 1_456
Cs1 I20 4.415134 1_555
Cs1 I5 4.415134 1_555
I0 Nb4 2.892890 1_555
I0 Nb8 2.899343 1_555
I0 Nb6 2.938122 1_555
I1 Nb3 2.892890 1_555
I1 Nb0 2.899343 1_555
I1 Nb5 2.938122 1_555
I2 Nb9 2.892890 1_555
I2 Nb2 2.899343 1_555
I2 Nb0 2.938122 1_555
I3 Nb10 2.892890 1_555
I3 Nb1 2.899343 1_555
I3 Nb8 2.938122 1_555
I4 Nb8 2.892890 1_555
I4 Nb4 2.899343 1_555
I4 Nb10 2.938122 1_555
I5 Nb1 3.071765 1_555
I5 Nb5 3.071765 1_545
I6 Nb0 3.071765 1_555
I6 Nb8 3.071765 1_555
I7 Nb6 2.892890 1_555
I7 Nb7 2.899343 1_555
I7 Nb4 2.938122 1_555
I8 Nb1 2.892890 1_555
I8 Nb10 2.899343 1_555
I8 Nb7 2.938122 1_555
I9 Nb5 2.892890 1_555
I9 Nb11 2.899343 1_555
I9 Nb3 2.938122 1_555
I10 Nb3 3.071765 1_545
I10 Nb7 3.071765 1_554
I11 Nb11 2.870746 1_556
I11 Nb3 2.870750 1_556
I11 Nb9 2.870752 1_556
I12 Nb5 2.870746 1_555
I12 Nb2 2.870750 1_555
I12 Nb0 2.870752 1_555
I13 Nb7 2.870746 1_554
I13 Nb4 2.870750 1_554
I13 Nb10 2.870752 1_554
I14 Nb2 2.892890 1_555
I14 Nb9 2.899343 1_555
I14 Nb11 2.938122 1_555
I15 Nb10 3.071765 1_554
I15 Nb9 3.071765 1_555
I16 Nb7 2.892890 1_555
I16 Nb6 2.899343 1_555
I16 Nb1 2.938122 1_555
I17 Nb11 2.892890 1_555
I17 Nb5 2.899343 1_555
I17 Nb2 2.938122 1_555
I18 Nb0 2.892890 1_555
I18 Nb3 2.899343 1_555
I18 Nb9 2.938122 1_555
I19 Nb4 3.071765 1_454
I19 Nb11 3.071765 1_555
I20 Nb2 3.071765 1_555
I20 Nb6 3.071765 1_455
I21 Nb6 2.870746 1_555
I21 Nb1 2.870750 1_555
I21 Nb8 2.870752 1_555
