# generated using pymatgen
data_Sb2(PO4)3
_symmetry_space_group_name_H-M   'P 1'
_cell_length_a   8.87130900
_cell_length_b   8.54470300
_cell_length_c   14.67670623
_cell_angle_alpha   55.55817310
_cell_angle_beta   90.00000000
_cell_angle_gamma   90.00000000
_symmetry_Int_Tables_number   1
_chemical_formula_structural   Sb2(PO4)3
_chemical_formula_sum   'Sb8 P12 O48'
_cell_volume   917.50770169
_cell_formula_units_Z   4
loop_
 _symmetry_equiv_pos_site_id
 _symmetry_equiv_pos_as_xyz
  1  'x, y, z'
loop_
 _atom_site_type_symbol
 _atom_site_label
 _atom_site_symmetry_multiplicity
 _atom_site_fract_x
 _atom_site_fract_y
 _atom_site_fract_z
 _atom_site_occupancy
  Sb  Sb0  1  0.03326500  0.63717600  0.61416100  1
  Sb  Sb1  1  0.03052500  0.86511900  0.88351700  1
  Sb  Sb2  1  0.46673500  0.63717600  0.11416100  1
  Sb  Sb3  1  0.96947500  0.13488100  0.11648300  1
  Sb  Sb4  1  0.53052500  0.13488100  0.61648300  1
  Sb  Sb5  1  0.96673500  0.36282400  0.38583900  1
  Sb  Sb6  1  0.53326500  0.36282400  0.88583900  1
  Sb  Sb7  1  0.46947500  0.86511900  0.38351700  1
  P  P0  1  0.11652600  0.75029400  0.35311300  1
  P  P1  1  0.61802200  0.52685000  0.35320200  1
  P  P2  1  0.38197800  0.47315000  0.64679800  1
  P  P3  1  0.25700500  0.04209000  0.99561100  1
  P  P4  1  0.88347400  0.24970600  0.64688700  1
  P  P5  1  0.75700500  0.95791000  0.50438900  1
  P  P6  1  0.88197800  0.52685000  0.85320200  1
  P  P7  1  0.74299500  0.95791000  0.00438900  1
  P  P8  1  0.24299500  0.04209000  0.49561100  1
  P  P9  1  0.61652600  0.24970600  0.14688700  1
  P  P10  1  0.11802200  0.47315000  0.14679800  1
  P  P11  1  0.38347400  0.75029400  0.85311300  1
  O  O0  1  0.22344800  0.49398000  0.68606500  1
  O  O1  1  0.90498400  0.34907000  0.52030400  1
  O  O2  1  0.06571800  0.61026900  0.32267500  1
  O  O3  1  0.66479000  0.76276300  0.04838500  1
  O  O4  1  0.80715800  0.95791700  0.10168000  1
  O  O5  1  0.86114100  0.99224300  0.91834500  1
  O  O6  1  0.48004600  0.93130900  0.78910000  1
  O  O7  1  0.93428200  0.38973100  0.67732500  1
  O  O8  1  0.01199100  0.37930200  0.24922400  1
  O  O9  1  0.37462800  0.33766400  0.60907000  1
  O  O10  1  0.21398200  0.78146600  0.82648500  1
  O  O11  1  0.55696400  0.32905700  0.44276500  1
  O  O12  1  0.40498400  0.65093000  0.97969600  1
  O  O13  1  0.19284200  0.04208300  0.89832000  1
  O  O14  1  0.51995400  0.06869100  0.21090000  1
  O  O15  1  0.83521000  0.76276300  0.54838500  1
  O  O16  1  0.48800900  0.37930200  0.74922400  1
  O  O17  1  0.30715800  0.04208300  0.39832000  1
  O  O18  1  0.16479000  0.23723700  0.45161500  1
  O  O19  1  0.56571800  0.38973100  0.17732500  1
  O  O20  1  0.33521000  0.23723700  0.95161500  1
  O  O21  1  0.78601800  0.21853400  0.17351500  1
  O  O22  1  0.71398200  0.21853400  0.67351500  1
  O  O23  1  0.36114100  0.00775700  0.58165500  1
  O  O24  1  0.27655200  0.49398000  0.18606500  1
  O  O25  1  0.51199100  0.62069800  0.25077600  1
  O  O26  1  0.98004600  0.06869100  0.71090000  1
  O  O27  1  0.13885900  0.00775700  0.08165500  1
  O  O28  1  0.77655200  0.50602000  0.31393500  1
  O  O29  1  0.44303600  0.67094300  0.55723500  1
  O  O30  1  0.28601800  0.78146600  0.32648500  1
  O  O31  1  0.62537200  0.66233600  0.39093000  1
  O  O32  1  0.63885900  0.99224300  0.41834500  1
  O  O33  1  0.98800900  0.62069800  0.75077600  1
  O  O34  1  0.01995400  0.93130900  0.28910000  1
  O  O35  1  0.94303600  0.32905700  0.94276500  1
  O  O36  1  0.72344800  0.50602000  0.81393500  1
  O  O37  1  0.09501600  0.65093000  0.47969600  1
  O  O38  1  0.37877200  0.88589800  0.06114700  1
  O  O39  1  0.69284200  0.95791700  0.60168000  1
  O  O40  1  0.43428200  0.61026900  0.82267500  1
  O  O41  1  0.59501600  0.34907000  0.02030400  1
  O  O42  1  0.87462800  0.66233600  0.89093000  1
  O  O43  1  0.62122800  0.11410200  0.93885300  1
  O  O44  1  0.12537200  0.33766400  0.10907000  1
  O  O45  1  0.05696400  0.67094300  0.05723500  1
  O  O46  1  0.12122800  0.88589800  0.56114700  1
  O  O47  1  0.87877200  0.11410200  0.43885300  1
loop_
_geom_bond_atom_site_label_1
_geom_bond_atom_site_label_2
_geom_bond_distance
_geom_bond_site_symmetry_2
O0 P2 1.567709 1_555
O0 Sb0 1.999193 1_555
O1 P4 1.557102 1_555
O1 Sb5 1.986524 1_555
O2 P0 1.561687 1_555
O2 Sb5 1.970737 1_455
O3 P7 1.568705 1_555
O3 Sb2 1.999694 1_555
O4 P7 1.537214 1_555
O4 Sb3 2.186037 1_565
O5 P7 1.536330 1_556
O5 Sb1 2.080200 1_655
O6 P11 1.537942 1_555
O6 Sb4 2.158677 1_565
O7 P4 1.561687 1_555
O7 Sb0 1.970737 1_655
O8 P10 1.556956 1_555
O8 Sb5 1.970263 1_455
O9 P2 1.541494 1_555
O9 Sb4 2.171091 1_555
O10 P11 1.538439 1_555
O10 Sb1 2.130048 1_555
O11 P1 1.537768 1_555
O11 Sb4 2.126825 1_555
O12 P11 1.557102 1_555
O12 Sb2 1.986524 1_556
O13 P3 1.537214 1_555
O13 Sb1 2.186037 1_545
O14 P9 1.537942 1_555
O14 Sb7 2.158677 1_545
O15 P5 1.568705 1_555
O15 Sb0 1.999694 1_655
O16 P2 1.556956 1_555
O16 Sb6 1.970263 1_555
O17 P8 1.537214 1_555
O17 Sb7 2.186037 1_545
O18 P8 1.568705 1_555
O18 Sb5 1.999694 1_455
O19 P9 1.561687 1_555
O19 Sb2 1.970737 1_555
O20 P3 1.568705 1_555
O20 Sb6 1.999694 1_555
O21 P9 1.538439 1_555
O21 Sb3 2.130048 1_555
O22 P4 1.538439 1_555
O22 Sb4 2.130048 1_555
O23 P8 1.536330 1_555
O23 Sb4 2.080200 1_555
O24 P10 1.567709 1_555
O24 Sb2 1.999193 1_555
O25 P1 1.556956 1_555
O25 Sb2 1.970263 1_555
O26 P4 1.537942 1_555
O26 Sb1 2.158677 1_645
O27 P3 1.536330 1_554
O27 Sb3 2.080200 1_455
O28 P1 1.567709 1_555
O28 Sb5 1.999193 1_555
O29 P2 1.537768 1_555
O29 Sb7 2.126825 1_555
O30 P0 1.538439 1_555
O30 Sb7 2.130048 1_555
O31 P1 1.541494 1_555
O31 Sb7 2.171091 1_555
O32 P5 1.536330 1_555
O32 Sb7 2.080200 1_555
O33 P6 1.556956 1_555
O33 Sb0 1.970263 1_655
O34 P0 1.537942 1_555
O34 Sb3 2.158677 1_465
O35 P6 1.537768 1_555
O35 Sb3 2.126825 1_556
O36 P6 1.567709 1_555
O36 Sb6 1.999193 1_555
O37 P0 1.557102 1_555
O37 Sb0 1.986524 1_555
O38 P3 1.556025 1_564
O38 Sb2 1.964840 1_555
O39 P5 1.537214 1_555
O39 Sb4 2.186037 1_565
O40 P11 1.561687 1_555
O40 Sb6 1.970737 1_555
O41 P9 1.557102 1_555
O41 Sb6 1.986524 1_554
O42 P6 1.541494 1_555
O42 Sb1 2.171091 1_655
O43 P7 1.556025 1_546
O43 Sb6 1.964840 1_555
O44 P10 1.541494 1_555
O44 Sb3 2.171091 1_455
O45 P10 1.537768 1_555
O45 Sb1 2.126825 1_554
O46 P8 1.556025 1_565
O46 Sb0 1.964840 1_555
O47 P5 1.556025 1_545
O47 Sb5 1.964840 1_555
