# generated using pymatgen
data_Ho2Fe14C
_symmetry_space_group_name_H-M   'P 1'
_cell_length_a   8.71613900
_cell_length_b   8.71613900
_cell_length_c   11.69078400
_cell_angle_alpha   90.00000000
_cell_angle_beta   90.00000000
_cell_angle_gamma   90.00000000
_symmetry_Int_Tables_number   1
_chemical_formula_structural   Ho2Fe14C
_chemical_formula_sum   'Ho8 Fe56 C4'
_cell_volume   888.16147562
_cell_formula_units_Z   4
loop_
 _symmetry_equiv_pos_site_id
 _symmetry_equiv_pos_as_xyz
  1  'x, y, z'
loop_
 _atom_site_type_symbol
 _atom_site_label
 _atom_site_symmetry_multiplicity
 _atom_site_fract_x
 _atom_site_fract_y
 _atom_site_fract_z
 _atom_site_occupancy
  Ho  Ho0  1  0.24096300  0.75903700  0.50000000  1
  Ho  Ho1  1  0.14404700  0.85595300  0.00000000  1
  Ho  Ho2  1  0.75903700  0.24096300  0.50000000  1
  Ho  Ho3  1  0.85595300  0.14404700  0.00000000  1
  Ho  Ho4  1  0.25903700  0.25903700  0.00000000  1
  Ho  Ho5  1  0.35595300  0.35595300  0.50000000  1
  Ho  Ho6  1  0.74096300  0.74096300  0.00000000  1
  Ho  Ho7  1  0.64404700  0.64404700  0.50000000  1
  Fe  Fe0  1  0.90304400  0.90304400  0.20326900  1
  Fe  Fe1  1  0.93585200  0.72540600  0.37970400  1
  Fe  Fe2  1  0.72540600  0.93585200  0.37970400  1
  Fe  Fe3  1  0.31570500  0.31570500  0.75471600  1
  Fe  Fe4  1  0.43585200  0.77459400  0.87970400  1
  Fe  Fe5  1  0.59695600  0.40304400  0.70326900  1
  Fe  Fe6  1  0.27459400  0.06414800  0.62029600  1
  Fe  Fe7  1  0.56414800  0.22540600  0.87970400  1
  Fe  Fe8  1  0.96444700  0.64221600  0.17515400  1
  Fe  Fe9  1  0.00000000  0.50000000  0.00000000  1
  Fe  Fe10  1  0.96444700  0.64221600  0.82484600  1
  Fe  Fe11  1  0.22540600  0.56414800  0.12029600  1
  Fe  Fe12  1  0.68429500  0.68429500  0.75471600  1
  Fe  Fe13  1  0.22540600  0.56414800  0.87970400  1
  Fe  Fe14  1  0.64221600  0.96444700  0.17515400  1
  Fe  Fe15  1  0.50000000  0.50000000  0.10805600  1
  Fe  Fe16  1  0.50000000  0.00000000  0.00000000  1
  Fe  Fe17  1  0.40304400  0.59695600  0.29673100  1
  Fe  Fe18  1  0.18429500  0.81570500  0.25471600  1
  Fe  Fe19  1  0.53555300  0.14221600  0.32484600  1
  Fe  Fe20  1  0.09695600  0.09695600  0.79673100  1
  Fe  Fe21  1  0.06414800  0.27459400  0.62029600  1
  Fe  Fe22  1  0.31570500  0.31570500  0.24528400  1
  Fe  Fe23  1  0.81570500  0.18429500  0.25471600  1
  Fe  Fe24  1  0.14221600  0.53555300  0.67515400  1
  Fe  Fe25  1  0.46444700  0.85778400  0.67515400  1
  Fe  Fe26  1  0.18429500  0.81570500  0.74528400  1
  Fe  Fe27  1  0.68429500  0.68429500  0.24528400  1
  Fe  Fe28  1  0.53555300  0.14221600  0.67515400  1
  Fe  Fe29  1  0.72540600  0.93585200  0.62029600  1
  Fe  Fe30  1  0.35778400  0.03555300  0.17515400  1
  Fe  Fe31  1  0.00000000  0.50000000  0.50000000  1
  Fe  Fe32  1  0.27459400  0.06414800  0.37970400  1
  Fe  Fe33  1  0.03555300  0.35778400  0.17515400  1
  Fe  Fe34  1  0.93585200  0.72540600  0.62029600  1
  Fe  Fe35  1  0.50000000  0.50000000  0.89194400  1
  Fe  Fe36  1  0.59695600  0.40304400  0.29673100  1
  Fe  Fe37  1  0.14221600  0.53555300  0.32484600  1
  Fe  Fe38  1  0.43585200  0.77459400  0.12029600  1
  Fe  Fe39  1  0.40304400  0.59695600  0.70326900  1
  Fe  Fe40  1  0.00000000  0.00000000  0.60805600  1
  Fe  Fe41  1  0.06414800  0.27459400  0.37970400  1
  Fe  Fe42  1  0.09695600  0.09695600  0.20326900  1
  Fe  Fe43  1  0.85778400  0.46444700  0.32484600  1
  Fe  Fe44  1  0.03555300  0.35778400  0.82484600  1
  Fe  Fe45  1  0.77459400  0.43585200  0.87970400  1
  Fe  Fe46  1  0.56414800  0.22540600  0.12029600  1
  Fe  Fe47  1  0.00000000  0.00000000  0.39194400  1
  Fe  Fe48  1  0.64221600  0.96444700  0.82484600  1
  Fe  Fe49  1  0.81570500  0.18429500  0.74528400  1
  Fe  Fe50  1  0.85778400  0.46444700  0.67515400  1
  Fe  Fe51  1  0.90304400  0.90304400  0.79673100  1
  Fe  Fe52  1  0.50000000  0.00000000  0.50000000  1
  Fe  Fe53  1  0.77459400  0.43585200  0.12029600  1
  Fe  Fe54  1  0.35778400  0.03555300  0.82484600  1
  Fe  Fe55  1  0.46444700  0.85778400  0.32484600  1
  C  C0  1  0.37255600  0.62744400  0.00000000  1
  C  C1  1  0.12744400  0.12744400  0.50000000  1
  C  C2  1  0.87255600  0.87255600  0.50000000  1
  C  C3  1  0.62744400  0.37255600  0.00000000  1
loop_
_geom_bond_atom_site_label_1
_geom_bond_atom_site_label_2
_geom_bond_distance
_geom_bond_site_symmetry_2
Fe0 Fe14 2.358575 1_555
Fe0 Fe8 2.358575 1_555
Fe0 Fe42 2.390253 1_665
Fe0 Fe47 2.508724 1_665
Fe0 Fe1 2.594926 1_555
Fe0 Fe2 2.594926 1_555
Fe0 Fe23 2.636425 1_565
Fe0 Fe18 2.636425 1_655
Fe0 Fe27 2.740779 1_555
Fe0 Ho6 3.104627 1_555
Fe0 Ho3 3.198157 1_565
Fe0 Ho1 3.198157 1_655
Fe1 Fe43 2.459252 1_555
Fe1 Fe31 2.479996 1_655
Fe1 Fe8 2.511262 1_555
Fe1 Fe37 2.526843 1_655
Fe1 Fe27 2.721296 1_555
Fe1 Fe18 2.728337 1_655
Fe1 Ho7 2.991598 1_555
Fe1 Ho0 3.022601 1_655
Fe2 Fe55 2.459252 1_555
Fe2 Fe52 2.479996 1_565
Fe2 Fe27 2.721296 1_555
Fe2 Fe23 2.728337 1_565
Fe2 Ho7 2.991598 1_555
Fe2 Ho2 3.022601 1_565
Fe3 Fe44 2.601790 1_555
Fe3 Fe54 2.601790 1_555
Fe3 Fe39 2.636425 1_555
Fe3 Fe5 2.636425 1_555
Fe3 Fe6 2.721296 1_555
Fe3 Fe7 2.728337 1_555
Fe3 Fe35 2.781088 1_555
Fe3 Ho4 2.951413 1_556
Fe3 Ho5 3.018874 1_555
Fe4 Fe54 2.459252 1_565
Fe4 Fe48 2.526843 1_555
Fe4 Ho1 2.991598 1_556
Fe4 Ho6 3.022601 1_556
Fe5 Fe50 2.358575 1_555
Fe5 Fe7 2.594926 1_555
Fe5 Ho2 3.104627 1_555
Fe5 Ho5 3.198157 1_555
Fe5 Ho7 3.198157 1_555
Fe6 Ho5 2.991598 1_555
Fe6 Ho0 3.022601 1_545
Fe7 Ho3 2.991598 1_556
Fe7 Ho4 3.022601 1_556
Fe8 Fe9 2.413628 1_655
Fe8 Ho6 2.954353 1_555
Fe8 Ho1 3.180281 1_655
Fe9 Ho6 3.083633 1_455
Fe9 Ho4 3.083633 1_555
Fe9 Ho3 3.346953 1_455
Fe9 Ho1 3.346953 1_555
Fe10 Fe51 2.358575 1_555
Fe10 Fe9 2.413628 1_656
Fe10 Fe13 2.459252 1_655
Fe10 Fe34 2.511262 1_555
Fe10 Fe24 2.515493 1_655
Fe10 Fe50 2.515493 1_555
Fe10 Fe45 2.526843 1_555
Fe10 Fe44 2.555444 1_655
Fe10 Fe12 2.601790 1_555
Fe10 Fe26 2.612220 1_655
Fe10 Ho6 2.954353 1_556
Fe10 Ho1 3.180281 1_656
Fe11 Fe8 2.459252 1_455
Fe11 Fe9 2.479996 1_555
Fe11 Fe37 2.511262 1_555
Fe11 Fe33 2.526843 1_555
Fe11 Fe17 2.594926 1_555
Fe11 Fe18 2.721296 1_555
Fe11 Fe22 2.728337 1_555
Fe11 Ho1 2.991598 1_555
Fe11 Ho4 3.022601 1_555
Fe12 Fe48 2.601790 1_555
Fe12 Fe25 2.612220 1_555
Fe12 Fe50 2.612220 1_555
Fe12 Fe39 2.636425 1_555
Fe12 Fe5 2.636425 1_555
Fe12 Fe29 2.721296 1_555
Fe12 Fe34 2.721296 1_555
Fe12 Fe4 2.728337 1_555
Fe12 Fe45 2.728337 1_555
Fe12 Fe51 2.740779 1_555
Fe12 Fe35 2.781088 1_555
Fe12 Ho6 2.951413 1_556
Fe12 Ho7 3.018874 1_555
Fe13 Fe9 2.479996 1_556
Fe13 Fe24 2.511262 1_555
Fe13 Fe44 2.526843 1_555
Fe13 Fe39 2.594926 1_555
Fe13 Fe26 2.721296 1_555
Fe13 Fe3 2.728337 1_555
Fe13 Ho1 2.991598 1_556
Fe13 Ho4 3.022601 1_556
Fe14 Fe16 2.413628 1_565
Fe14 Fe46 2.459252 1_565
Fe14 Fe2 2.511262 1_555
Fe14 Fe19 2.515493 1_565
Fe14 Fe55 2.515493 1_555
Fe14 Fe38 2.526843 1_555
Fe14 Fe30 2.555444 1_565
Fe14 Fe27 2.601790 1_555
Fe14 Fe23 2.612220 1_565
Fe14 Ho6 2.954353 1_555
Fe14 Ho3 3.180281 1_565
Fe15 Fe36 2.508724 1_555
Fe15 Fe17 2.508724 1_555
Fe15 Fe27 2.781088 1_555
Fe15 Fe22 2.781088 1_555
Fe15 Ho4 3.227703 1_555
Fe15 Ho6 3.227703 1_555
Fe16 Fe30 2.413628 1_555
Fe16 Fe48 2.413628 1_544
Fe16 Fe54 2.413628 1_554
Fe16 Fe7 2.479996 1_554
Fe16 Fe4 2.479996 1_544
Fe16 Fe46 2.479996 1_555
Fe16 Fe38 2.479996 1_545
Fe16 Ho4 3.083633 1_555
Fe16 Ho6 3.083633 1_545
Fe16 Ho3 3.346953 1_555
Fe16 Ho1 3.346953 1_545
Fe17 Fe55 2.358575 1_555
Fe17 Fe37 2.358575 1_555
Fe17 Fe36 2.390253 1_555
Fe17 Fe38 2.594926 1_555
Fe17 Fe27 2.636425 1_555
Fe17 Fe22 2.636425 1_555
Fe17 Fe18 2.740779 1_555
Fe17 Ho0 3.104627 1_555
Fe17 Ho5 3.198157 1_555
Fe17 Ho7 3.198157 1_555
Fe18 Fe55 2.601790 1_555
Fe18 Fe37 2.601790 1_555
Fe18 Fe30 2.612220 1_565
Fe18 Fe8 2.612220 1_455
Fe18 Fe42 2.636425 1_565
Fe18 Fe38 2.721296 1_555
Fe18 Fe32 2.728337 1_565
Fe18 Fe47 2.781088 1_565
Fe18 Ho0 2.951413 1_555
Fe18 Ho1 3.018874 1_555
Fe19 Fe36 2.358575 1_555
Fe19 Fe52 2.413628 1_555
Fe19 Fe32 2.459252 1_555
Fe19 Fe46 2.511262 1_555
Fe19 Fe30 2.515493 1_555
Fe19 Fe2 2.526843 1_545
Fe19 Fe55 2.555444 1_545
Fe19 Fe23 2.601790 1_555
Fe19 Fe22 2.612220 1_555
Fe19 Ho2 2.954353 1_555
Fe19 Ho5 3.180281 1_555
Fe20 Fe44 2.358575 1_555
Fe20 Fe54 2.358575 1_555
Fe20 Fe51 2.390253 1_445
Fe20 Fe40 2.508724 1_555
Fe20 Fe21 2.594926 1_555
Fe20 Fe6 2.594926 1_555
Fe20 Fe49 2.636425 1_455
Fe20 Fe26 2.636425 1_545
Fe20 Fe3 2.740779 1_555
Fe20 Ho4 3.104627 1_556
Fe20 Ho1 3.198157 1_546
Fe20 Ho3 3.198157 1_456
Fe21 Fe24 2.459252 1_555
Fe21 Fe31 2.479996 1_555
Fe21 Fe44 2.511262 1_555
Fe21 Fe50 2.526843 1_455
Fe21 Fe3 2.721296 1_555
Fe21 Fe49 2.728337 1_455
Fe21 Ho5 2.991598 1_555
Fe21 Ho2 3.022601 1_455
Fe22 Fe33 2.601790 1_555
Fe22 Fe30 2.601790 1_555
Fe22 Fe37 2.612220 1_555
Fe22 Fe36 2.636425 1_555
Fe22 Fe32 2.721296 1_555
Fe22 Fe41 2.721296 1_555
Fe22 Fe46 2.728337 1_555
Fe22 Fe42 2.740779 1_555
Fe22 Ho4 2.951413 1_555
Fe22 Ho5 3.018874 1_555
Fe23 Fe43 2.601790 1_555
Fe23 Fe33 2.612220 1_655
Fe23 Fe42 2.636425 1_655
Fe23 Fe46 2.721296 1_555
Fe23 Fe53 2.721296 1_555
Fe23 Fe41 2.728337 1_655
Fe23 Fe36 2.740779 1_555
Fe23 Fe47 2.781088 1_655
Fe23 Ho2 2.951413 1_555
Fe23 Ho3 3.018874 1_555
Fe24 Fe39 2.358575 1_555
Fe24 Fe31 2.413628 1_555
Fe24 Fe44 2.515493 1_555
Fe24 Fe34 2.526843 1_455
Fe24 Fe50 2.555444 1_455
Fe24 Fe26 2.601790 1_555
Fe24 Fe3 2.612220 1_555
Fe24 Ho0 2.954353 1_555
Fe24 Ho5 3.180281 1_555
Fe25 Fe39 2.358575 1_555
Fe25 Fe52 2.413628 1_565
Fe25 Fe29 2.459252 1_555
Fe25 Fe4 2.511262 1_555
Fe25 Fe54 2.515493 1_565
Fe25 Fe48 2.515493 1_555
Fe25 Fe6 2.526843 1_565
Fe25 Fe28 2.555444 1_565
Fe25 Fe26 2.601790 1_555
Fe25 Ho0 2.954353 1_555
Fe25 Ho7 3.180281 1_555
Fe26 Fe54 2.612220 1_565
Fe26 Fe51 2.636425 1_455
Fe26 Fe4 2.721296 1_555
Fe26 Fe34 2.728337 1_455
Fe26 Fe6 2.728337 1_565
Fe26 Fe39 2.740779 1_555
Fe26 Fe40 2.781088 1_565
Fe26 Ho0 2.951413 1_555
Fe26 Ho1 3.018874 1_556
Fe27 Fe8 2.601790 1_555
Fe27 Fe55 2.612220 1_555
Fe27 Fe43 2.612220 1_555
Fe27 Fe36 2.636425 1_555
Fe27 Fe38 2.728337 1_555
Fe27 Fe53 2.728337 1_555
Fe27 Ho6 2.951413 1_555
Fe27 Ho7 3.018874 1_555
Fe28 Fe5 2.358575 1_555
Fe28 Fe52 2.413628 1_555
Fe28 Fe6 2.459252 1_555
Fe28 Fe7 2.511262 1_555
Fe28 Fe48 2.515493 1_545
Fe28 Fe54 2.515493 1_555
Fe28 Fe29 2.526843 1_545
Fe28 Fe49 2.601790 1_555
Fe28 Fe3 2.612220 1_555
Fe28 Ho2 2.954353 1_555
Fe28 Ho5 3.180281 1_555
Fe29 Fe52 2.479996 1_565
Fe29 Fe48 2.511262 1_555
Fe29 Fe51 2.594926 1_555
Fe29 Fe49 2.728337 1_565
Fe29 Ho7 2.991598 1_555
Fe29 Ho2 3.022601 1_565
Fe30 Fe42 2.358575 1_555
Fe30 Fe38 2.459252 1_545
Fe30 Fe32 2.511262 1_555
Fe30 Fe55 2.515493 1_545
Fe30 Fe46 2.526843 1_555
Fe30 Ho4 2.954353 1_555
Fe30 Ho1 3.180281 1_545
Fe31 Fe43 2.413628 1_455
Fe31 Fe37 2.413628 1_555
Fe31 Fe50 2.413628 1_455
Fe31 Fe34 2.479996 1_455
Fe31 Fe41 2.479996 1_555
Fe31 Ho2 3.083633 1_455
Fe31 Ho0 3.083633 1_555
Fe31 Ho7 3.346953 1_455
Fe31 Ho5 3.346953 1_555
Fe32 Fe52 2.479996 1_555
Fe32 Fe55 2.526843 1_545
Fe32 Fe42 2.594926 1_555
Fe32 Ho5 2.991598 1_555
Fe32 Ho0 3.022601 1_545
Fe33 Fe42 2.358575 1_555
Fe33 Fe9 2.413628 1_555
Fe33 Fe53 2.459252 1_455
Fe33 Fe41 2.511262 1_555
Fe33 Fe37 2.515493 1_555
Fe33 Fe43 2.515493 1_455
Fe33 Fe8 2.555444 1_455
Fe33 Ho4 2.954353 1_555
Fe33 Ho3 3.180281 1_455
Fe34 Fe50 2.459252 1_555
Fe34 Fe51 2.594926 1_555
Fe34 Ho7 2.991598 1_555
Fe34 Ho0 3.022601 1_655
Fe35 Fe39 2.508724 1_555
Fe35 Fe5 2.508724 1_555
Fe35 Ho4 3.227703 1_556
Fe35 Ho6 3.227703 1_556
Fe36 Fe43 2.358575 1_555
Fe36 Fe53 2.594926 1_555
Fe36 Fe46 2.594926 1_555
Fe36 Ho2 3.104627 1_555
Fe36 Ho7 3.198157 1_555
Fe36 Ho5 3.198157 1_555
Fe37 Fe41 2.459252 1_555
Fe37 Fe8 2.515493 1_455
Fe37 Fe43 2.555444 1_455
Fe37 Ho0 2.954353 1_555
Fe37 Ho5 3.180281 1_555
Fe38 Fe55 2.511262 1_555
Fe38 Ho1 2.991598 1_555
Fe38 Ho6 3.022601 1_555
Fe39 Fe5 2.390253 1_555
Fe39 Fe4 2.594926 1_555
Fe39 Ho0 3.104627 1_555
Fe39 Ho5 3.198157 1_555
Fe39 Ho7 3.198157 1_555
Fe40 Fe51 2.508724 1_445
Fe40 Fe49 2.781088 1_455
Fe40 Ho2 3.227703 1_455
Fe40 Ho0 3.227703 1_545
Fe41 Fe43 2.526843 1_455
Fe41 Fe42 2.594926 1_555
Fe41 Ho5 2.991598 1_555
Fe41 Ho2 3.022601 1_455
Fe42 Fe47 2.508724 1_555
Fe42 Ho4 3.104627 1_555
Fe42 Ho3 3.198157 1_455
Fe42 Ho1 3.198157 1_545
Fe43 Fe53 2.511262 1_555
Fe43 Fe8 2.515493 1_555
Fe43 Ho2 2.954353 1_555
Fe43 Ho7 3.180281 1_555
Fe44 Fe9 2.413628 1_556
Fe44 Fe45 2.459252 1_455
Fe44 Fe50 2.515493 1_455
Fe44 Fe49 2.612220 1_455
Fe44 Ho4 2.954353 1_556
Fe44 Ho3 3.180281 1_456
Fe45 Fe9 2.479996 1_656
Fe45 Fe50 2.511262 1_555
Fe45 Fe5 2.594926 1_555
Fe45 Fe49 2.721296 1_555
Fe45 Ho3 2.991598 1_556
Fe45 Ho6 3.022601 1_556
Fe46 Ho3 2.991598 1_555
Fe46 Ho4 3.022601 1_555
Fe47 Ho2 3.227703 1_455
Fe47 Ho0 3.227703 1_545
Fe48 Fe51 2.358575 1_555
Fe48 Fe7 2.459252 1_565
Fe48 Fe54 2.555444 1_565
Fe48 Fe49 2.612220 1_565
Fe48 Ho6 2.954353 1_556
Fe48 Ho3 3.180281 1_566
Fe49 Fe50 2.601790 1_555
Fe49 Fe51 2.636425 1_545
Fe49 Fe7 2.721296 1_555
Fe49 Fe5 2.740779 1_555
Fe49 Ho2 2.951413 1_555
Fe49 Ho3 3.018874 1_556
Fe50 Ho2 2.954353 1_555
Fe50 Ho7 3.180281 1_555
Fe51 Ho6 3.104627 1_556
Fe51 Ho3 3.198157 1_566
Fe51 Ho1 3.198157 1_656
Fe52 Fe55 2.413628 1_545
Fe52 Fe6 2.479996 1_555
Fe52 Ho0 3.083633 1_545
Fe52 Ho2 3.083633 1_555
Fe52 Ho5 3.346953 1_555
Fe52 Ho7 3.346953 1_545
Fe53 Fe9 2.479996 1_655
Fe53 Fe8 2.526843 1_555
Fe53 Ho3 2.991598 1_555
Fe53 Ho6 3.022601 1_555
Fe54 Fe6 2.511262 1_555
Fe54 Fe7 2.526843 1_555
Fe54 Ho4 2.954353 1_556
Fe54 Ho1 3.180281 1_546
Fe55 Ho0 2.954353 1_555
Fe55 Ho7 3.180281 1_555
C0 Fe13 1.981720 1_554
C0 Fe4 1.981720 1_554
C0 Fe11 1.981720 1_555
C0 Fe38 1.981720 1_555
C0 Fe15 2.015853 1_555
C0 Fe35 2.015853 1_554
C0 Ho1 2.816712 1_555
C1 Fe21 1.981720 1_555
C1 Fe6 1.981720 1_555
C1 Fe32 1.981720 1_555
C1 Fe41 1.981720 1_555
C1 Fe47 2.015853 1_555
C1 Fe40 2.015853 1_555
C1 Ho5 2.816712 1_555
C2 Fe34 1.981720 1_555
C2 Fe29 1.981720 1_555
C2 Fe1 1.981720 1_555
C2 Fe2 1.981720 1_555
C2 Fe47 2.015853 1_665
C2 Fe40 2.015853 1_665
C2 Ho7 2.816712 1_555
C3 Fe7 1.981720 1_554
C3 Fe45 1.981720 1_554
C3 Fe46 1.981720 1_555
C3 Fe53 1.981720 1_555
C3 Fe15 2.015853 1_555
C3 Fe35 2.015853 1_554
C3 Ho3 2.816712 1_555
