# generated using pymatgen
data_GdNiO3
_symmetry_space_group_name_H-M   'P 1'
_cell_length_a   5.23580731
_cell_length_b   5.49316529
_cell_length_c   7.47467175
_cell_angle_alpha   90.00000000
_cell_angle_beta   90.00000000
_cell_angle_gamma   90.00000000
_symmetry_Int_Tables_number   1
_chemical_formula_structural   GdNiO3
_chemical_formula_sum   'Gd4 Ni4 O12'
_cell_volume   214.98019263
_cell_formula_units_Z   4
loop_
 _symmetry_equiv_pos_site_id
 _symmetry_equiv_pos_as_xyz
  1  'x, y, z'
loop_
 _atom_site_type_symbol
 _atom_site_label
 _atom_site_symmetry_multiplicity
 _atom_site_fract_x
 _atom_site_fract_y
 _atom_site_fract_z
 _atom_site_occupancy
  Gd  Gd0  1  0.98402748  0.06537388  0.25000000  1
  Gd  Gd1  1  0.48402748  0.43462612  0.75000000  1
  Gd  Gd2  1  0.51597252  0.56537388  0.25000000  1
  Gd  Gd3  1  0.01597252  0.93462612  0.75000000  1
  Ni  Ni0  1  0.50000000  -0.00000000  0.00000000  1
  Ni  Ni1  1  -0.00000000  0.50000000  0.00000000  1
  Ni  Ni2  1  -0.00000000  0.50000000  0.50000000  1
  Ni  Ni3  1  0.50000000  -0.00000000  0.50000000  1
  O  O0  1  0.08819931  0.47878149  0.25000000  1
  O  O1  1  0.58819931  0.02121851  0.75000000  1
  O  O2  1  0.41180069  0.97878149  0.25000000  1
  O  O3  1  0.91180069  0.52121851  0.75000000  1
  O  O4  1  0.70100145  0.29833368  0.04557856  1
  O  O5  1  0.20100145  0.20166632  0.95442144  1
  O  O6  1  0.79899855  0.79833368  0.45442144  1
  O  O7  1  0.29899855  0.70166632  0.54557856  1
  O  O8  1  0.29899855  0.70166632  0.95442144  1
  O  O9  1  0.79899855  0.79833368  0.04557856  1
  O  O10  1  0.20100145  0.20166632  0.54557856  1
  O  O11  1  0.70100145  0.29833368  0.45442144  1
loop_
_geom_bond_atom_site_label_1
_geom_bond_atom_site_label_2
_geom_bond_distance
_geom_bond_site_symmetry_2
Gd0 O2 2.289691 1_645
Gd0 O9 2.329172 1_545
Gd0 O6 2.329172 1_545
Gd0 O0 2.335497 1_655
Gd0 O11 2.483600 1_555
Gd0 O4 2.483600 1_555
Gd0 O5 2.594673 1_654
Gd0 O10 2.594673 1_655
Gd1 O3 2.289691 1_555
Gd1 O7 2.329172 1_555
Gd1 O8 2.329172 1_555
Gd1 O1 2.335497 1_555
Gd1 O5 2.483600 1_555
Gd1 O10 2.483600 1_555
Gd1 O11 2.594673 1_555
Gd1 O4 2.594673 1_556
Gd2 O0 2.289691 1_555
Gd2 O4 2.329172 1_555
Gd2 O11 2.329172 1_555
Gd2 O2 2.335497 1_555
Gd2 O9 2.483600 1_555
Gd2 O6 2.483600 1_555
Gd2 O7 2.594673 1_555
Gd2 O8 2.594673 1_554
Gd3 O1 2.289691 1_465
Gd3 O10 2.329172 1_565
Gd3 O5 2.329172 1_565
Gd3 O3 2.335497 1_455
Gd3 O7 2.483600 1_555
Gd3 O8 2.483600 1_555
Gd3 O6 2.594673 1_455
Gd3 O9 2.594673 1_456
Ni0 O2 1.928409 1_545
Ni0 O1 1.928409 1_554
Ni0 O9 1.947830 1_545
Ni0 O5 1.947830 1_554
Ni0 O4 1.977189 1_555
Ni0 O8 1.977189 1_544
Ni1 O0 1.928409 1_555
Ni1 O3 1.928409 1_454
Ni1 O4 1.947830 1_455
Ni1 O8 1.947830 1_554
Ni1 O9 1.977189 1_455
Ni1 O5 1.977189 1_554
Ni2 O3 1.928409 1_455
Ni2 O0 1.928409 1_555
Ni2 O7 1.947830 1_555
Ni2 O11 1.947830 1_455
Ni2 O10 1.977189 1_555
Ni2 O6 1.977189 1_455
Ni3 O2 1.928409 1_545
Ni3 O1 1.928409 1_555
Ni3 O6 1.947830 1_545
Ni3 O10 1.947830 1_555
Ni3 O11 1.977189 1_555
Ni3 O7 1.977189 1_545
