# generated using pymatgen
data_Cs2Ti(PO4)2
_symmetry_space_group_name_H-M   'P 1'
_cell_length_a   7.37921500
_cell_length_b   9.64708400
_cell_length_c   13.82044800
_cell_angle_alpha   90.00000000
_cell_angle_beta   90.00000000
_cell_angle_gamma   90.00000000
_symmetry_Int_Tables_number   1
_chemical_formula_structural   Cs2Ti(PO4)2
_chemical_formula_sum   'Cs8 Ti4 P8 O32'
_cell_volume   983.84876636
_cell_formula_units_Z   4
loop_
 _symmetry_equiv_pos_site_id
 _symmetry_equiv_pos_as_xyz
  1  'x, y, z'
loop_
 _atom_site_type_symbol
 _atom_site_label
 _atom_site_symmetry_multiplicity
 _atom_site_fract_x
 _atom_site_fract_y
 _atom_site_fract_z
 _atom_site_occupancy
  Cs  Cs0  1  0.75000000  0.09154500  0.60262600  1
  Cs  Cs1  1  0.25000000  0.12728900  0.08423200  1
  Cs  Cs2  1  0.75000000  0.87271100  0.91576800  1
  Cs  Cs3  1  0.75000000  0.40845500  0.10262600  1
  Cs  Cs4  1  0.75000000  0.62728900  0.41576800  1
  Cs  Cs5  1  0.25000000  0.59154500  0.89737400  1
  Cs  Cs6  1  0.25000000  0.37271100  0.58423200  1
  Cs  Cs7  1  0.25000000  0.90845500  0.39737400  1
  Ti  Ti0  1  0.75000000  0.51695100  0.70868500  1
  Ti  Ti1  1  0.75000000  0.98304900  0.20868500  1
  Ti  Ti2  1  0.25000000  0.48304900  0.29131500  1
  Ti  Ti3  1  0.25000000  0.01695100  0.79131500  1
  P  P0  1  0.04823900  0.72552200  0.15373100  1
  P  P1  1  0.45176100  0.72552200  0.15373100  1
  P  P2  1  0.54823900  0.22552200  0.34626900  1
  P  P3  1  0.95176100  0.27447800  0.84626900  1
  P  P4  1  0.54823900  0.27447800  0.84626900  1
  P  P5  1  0.45176100  0.77447800  0.65373100  1
  P  P6  1  0.04823900  0.77447800  0.65373100  1
  P  P7  1  0.95176100  0.22552200  0.34626900  1
  O  O0  1  0.06605700  0.90533000  0.71803000  1
  O  O1  1  0.75000000  0.44825500  0.59765300  1
  O  O2  1  0.56215300  0.66476300  0.70989500  1
  O  O3  1  0.48546300  0.30513000  0.94719400  1
  O  O4  1  0.25000000  0.94825500  0.90234700  1
  O  O5  1  0.56215300  0.83523700  0.20989500  1
  O  O6  1  0.75000000  0.29695500  0.34839000  1
  O  O7  1  0.43784700  0.33523700  0.29010500  1
  O  O8  1  0.93394300  0.40533000  0.78197000  1
  O  O9  1  0.51453700  0.80513000  0.55280600  1
  O  O10  1  0.56605700  0.40533000  0.78197000  1
  O  O11  1  0.48546300  0.19487000  0.44719400  1
  O  O12  1  0.25000000  0.79695500  0.15161000  1
  O  O13  1  0.56605700  0.09467000  0.28197000  1
  O  O14  1  0.06215300  0.16476300  0.79010500  1
  O  O15  1  0.93784700  0.66476300  0.70989500  1
  O  O16  1  0.75000000  0.05174500  0.09765300  1
  O  O17  1  0.01453700  0.30513000  0.94719400  1
  O  O18  1  0.06215300  0.33523700  0.29010500  1
  O  O19  1  0.98546300  0.69487000  0.05280600  1
  O  O20  1  0.98546300  0.80513000  0.55280600  1
  O  O21  1  0.51453700  0.69487000  0.05280600  1
  O  O22  1  0.43394300  0.59467000  0.21803000  1
  O  O23  1  0.25000000  0.70304500  0.65161000  1
  O  O24  1  0.43784700  0.16476300  0.79010500  1
  O  O25  1  0.93784700  0.83523700  0.20989500  1
  O  O26  1  0.75000000  0.20304500  0.84839000  1
  O  O27  1  0.93394300  0.09467000  0.28197000  1
  O  O28  1  0.25000000  0.55174500  0.40234700  1
  O  O29  1  0.06605700  0.59467000  0.21803000  1
  O  O30  1  0.01453700  0.19487000  0.44719400  1
  O  O31  1  0.43394300  0.90533000  0.71803000  1
loop_
_geom_bond_atom_site_label_1
_geom_bond_atom_site_label_2
_geom_bond_distance
_geom_bond_site_symmetry_2
Cs0 O11 3.068987 1_555
Cs0 O30 3.068987 1_655
Cs0 O20 3.335813 1_545
Cs0 O9 3.335813 1_545
Cs0 O0 3.348192 1_645
Cs0 O31 3.348192 1_545
Cs0 O1 3.441898 1_555
Cs0 O14 3.538118 1_655
Cs0 O24 3.538118 1_555
Cs0 O26 3.562822 1_555
Cs1 O4 3.049905 1_544
Cs1 O3 3.090214 1_554
Cs1 O17 3.090214 1_554
Cs1 O12 3.320024 1_545
Cs1 O13 3.606490 1_555
Cs1 O27 3.606490 1_455
Cs1 O18 3.747178 1_555
Cs1 O7 3.747178 1_555
Cs1 O16 3.765465 1_555
Cs1 O16 3.765465 1_455
Cs2 O16 3.049905 1_566
Cs2 O19 3.090214 1_556
Cs2 O21 3.090214 1_556
Cs2 O26 3.320024 1_565
Cs2 O0 3.606490 1_655
Cs2 O31 3.606490 1_555
Cs2 O15 3.747178 1_555
Cs2 O2 3.747178 1_555
Cs2 O4 3.765465 1_555
Cs2 O4 3.765465 1_655
Cs3 O3 3.068987 1_554
Cs3 O17 3.068987 1_654
Cs3 O21 3.335813 1_555
Cs3 O19 3.335813 1_555
Cs3 O29 3.348192 1_655
Cs3 O22 3.348192 1_555
Cs3 O16 3.441898 1_555
Cs3 O18 3.538118 1_655
Cs3 O7 3.538118 1_555
Cs3 O6 3.562822 1_555
Cs4 O1 3.049905 1_555
Cs4 O20 3.090214 1_555
Cs4 O9 3.090214 1_555
Cs4 O6 3.320024 1_555
Cs4 O29 3.606490 1_655
Cs4 O22 3.606490 1_555
Cs4 O5 3.747178 1_555
Cs4 O25 3.747178 1_555
Cs4 O28 3.765465 1_655
Cs4 O28 3.765465 1_555
Cs5 O19 3.068987 1_456
Cs5 O21 3.068987 1_556
Cs5 O3 3.335813 1_555
Cs5 O17 3.335813 1_555
Cs5 O10 3.348192 1_555
Cs5 O8 3.348192 1_455
Cs5 O4 3.441898 1_555
Cs5 O2 3.538118 1_555
Cs5 O15 3.538118 1_455
Cs5 O23 3.562822 1_555
Cs6 O28 3.049905 1_555
Cs6 O11 3.090214 1_555
Cs6 O30 3.090214 1_555
Cs6 O23 3.320024 1_555
Cs6 O10 3.606490 1_555
Cs6 O8 3.606490 1_455
Cs6 O14 3.747178 1_555
Cs6 O24 3.747178 1_555
Cs6 O1 3.765465 1_455
Cs6 O1 3.765465 1_555
Cs7 O9 3.068987 1_555
Cs7 O20 3.068987 1_455
Cs7 O30 3.335813 1_565
Cs7 O11 3.335813 1_565
Cs7 O13 3.348192 1_565
Cs7 O27 3.348192 1_465
Cs7 O28 3.441898 1_555
Cs7 O5 3.538118 1_555
Cs7 O25 3.538118 1_455
Cs7 O12 3.562822 1_555
O0 P6 1.549346 1_555
O0 Ti3 2.006932 1_565
O1 Ti0 1.671502 1_555
O2 P5 1.544785 1_555
O2 Ti0 1.988737 1_555
O3 P4 1.499192 1_555
O4 Ti3 1.671502 1_565
O5 P1 1.544785 1_555
O5 Ti1 1.988737 1_555
O6 P7 1.640849 1_555
O6 P2 1.640849 1_555
O7 P2 1.544785 1_555
O7 Ti2 1.988737 1_555
O8 P3 1.549346 1_555
O8 Ti0 2.006932 1_555
O9 P5 1.499192 1_555
O10 P4 1.549346 1_555
O10 Ti0 2.006932 1_555
O11 P2 1.499192 1_555
O12 P1 1.640849 1_555
O12 P0 1.640849 1_555
O13 P2 1.549346 1_555
O13 Ti1 2.006932 1_545
O14 P3 1.544785 1_455
O14 Ti3 1.988737 1_555
O15 P6 1.544785 1_655
O15 Ti0 1.988737 1_555
O16 Ti1 1.671502 1_545
O17 P3 1.499192 1_455
O18 P7 1.544785 1_455
O18 Ti2 1.988737 1_555
O19 P0 1.499192 1_655
O20 P6 1.499192 1_655
O21 P1 1.499192 1_555
O22 P1 1.549346 1_555
O22 Ti2 2.006932 1_555
O23 P5 1.640849 1_555
O23 P6 1.640849 1_555
O24 P4 1.544785 1_555
O24 Ti3 1.988737 1_555
O25 P0 1.544785 1_655
O25 Ti1 1.988737 1_555
O26 P3 1.640849 1_555
O26 P4 1.640849 1_555
O27 P7 1.549346 1_555
O27 Ti1 2.006932 1_545
O28 Ti2 1.671502 1_555
O29 P0 1.549346 1_555
O29 Ti2 2.006932 1_555
O30 P7 1.499192 1_455
O31 P5 1.549346 1_555
O31 Ti3 2.006932 1_565
