# generated using pymatgen
data_Li3CaMnN3
_symmetry_space_group_name_H-M   'P 1'
_cell_length_a   7.04066395
_cell_length_b   7.04066395
_cell_length_c   7.04066408
_cell_angle_alpha   48.22715881
_cell_angle_beta   48.22715881
_cell_angle_gamma   48.22716423
_symmetry_Int_Tables_number   1
_chemical_formula_structural   Li3CaMnN3
_chemical_formula_sum   'Li6 Ca2 Mn2 N6'
_cell_volume   177.93119964
_cell_formula_units_Z   2
loop_
 _symmetry_equiv_pos_site_id
 _symmetry_equiv_pos_as_xyz
  1  'x, y, z'
loop_
 _atom_site_type_symbol
 _atom_site_label
 _atom_site_symmetry_multiplicity
 _atom_site_fract_x
 _atom_site_fract_y
 _atom_site_fract_z
 _atom_site_occupancy
  Li  Li0  1  0.47872000  0.89467400  0.23997200  1
  Li  Li1  1  0.89467400  0.23997200  0.47872000  1
  Li  Li2  1  0.76002800  0.52128000  0.10532600  1
  Li  Li3  1  0.52128000  0.10532600  0.76002800  1
  Li  Li4  1  0.10532600  0.76002800  0.52128000  1
  Li  Li5  1  0.23997200  0.47872000  0.89467400  1
  Ca  Ca0  1  0.33740200  0.33740200  0.33740200  1
  Ca  Ca1  1  0.66259800  0.66259800  0.66259800  1
  Mn  Mn0  1  0.93496500  0.93496500  0.93496500  1
  Mn  Mn1  1  0.06503500  0.06503500  0.06503500  1
  N  N0  1  0.21597800  0.90824800  0.61682000  1
  N  N1  1  0.61682000  0.21597800  0.90824800  1
  N  N2  1  0.78402200  0.09175200  0.38318000  1
  N  N3  1  0.09175200  0.38318000  0.78402200  1
  N  N4  1  0.38318000  0.78402200  0.09175200  1
  N  N5  1  0.90824800  0.61682000  0.21597800  1
loop_
_geom_bond_atom_site_label_1
_geom_bond_atom_site_label_2
_geom_bond_distance
_geom_bond_site_symmetry_2
Li0 N0 2.008427 1_555
Li0 N1 2.093613 1_564
Li0 N4 2.205711 1_555
Li0 N5 2.208709 1_555
Li1 N5 2.008427 1_555
Li1 N0 2.093613 1_645
Li1 N2 2.205711 1_555
Li1 N1 2.208709 1_555
Li2 N4 2.008427 1_555
Li2 N3 2.093613 1_654
Li2 N5 2.205711 1_555
Li2 N2 2.208709 1_555
Li3 N2 2.008427 1_555
Li3 N4 2.093613 1_546
Li3 N1 2.205711 1_555
Li3 N3 2.208709 1_555
Li4 N3 2.008427 1_555
Li4 N2 2.093613 1_465
Li4 N0 2.205711 1_555
Li4 N4 2.208709 1_555
Li5 N1 2.008427 1_555
Li5 N5 2.093613 1_456
Li5 N3 2.205711 1_555
Li5 N0 2.208709 1_555
Ca0 N4 2.518853 1_555
Ca0 N3 2.518853 1_555
Ca0 N2 2.518853 1_555
Ca0 N0 2.647965 1_545
Ca0 N1 2.647965 1_554
Ca0 N5 2.647965 1_455
Ca1 N1 2.518853 1_555
Ca1 N5 2.518853 1_555
Ca1 N0 2.518853 1_555
Ca1 N2 2.647965 1_565
Ca1 N4 2.647965 1_556
Ca1 N3 2.647965 1_655
Mn0 N5 1.768643 1_556
Mn0 N0 1.768643 1_655
Mn0 N1 1.768643 1_565
Mn1 N3 1.768643 1_554
Mn1 N2 1.768643 1_455
Mn1 N4 1.768643 1_545
