# generated using pymatgen
data_Ce3Ta(ClO2)3
_symmetry_space_group_name_H-M   'P 1'
_cell_length_a   9.32175197
_cell_length_b   9.32175197
_cell_length_c   5.41006100
_cell_angle_alpha   90.00000000
_cell_angle_beta   90.00000000
_cell_angle_gamma   119.99999976
_symmetry_Int_Tables_number   1
_chemical_formula_structural   Ce3Ta(ClO2)3
_chemical_formula_sum   'Ce6 Ta2 Cl6 O12'
_cell_volume   407.12510226
_cell_formula_units_Z   2
loop_
 _symmetry_equiv_pos_site_id
 _symmetry_equiv_pos_as_xyz
  1  'x, y, z'
loop_
 _atom_site_type_symbol
 _atom_site_label
 _atom_site_symmetry_multiplicity
 _atom_site_fract_x
 _atom_site_fract_y
 _atom_site_fract_z
 _atom_site_occupancy
  Ce  Ce0  1  0.58914500  0.67959100  0.75000000  1
  Ce  Ce1  1  0.09044700  0.41085500  0.75000000  1
  Ce  Ce2  1  0.41085500  0.32040900  0.25000000  1
  Ce  Ce3  1  0.32040900  0.90955300  0.75000000  1
  Ce  Ce4  1  0.90955300  0.58914500  0.25000000  1
  Ce  Ce5  1  0.67959100  0.09044700  0.25000000  1
  Ta  Ta0  1  0.66666700  0.33333300  0.75000000  1
  Ta  Ta1  1  0.33333300  0.66666700  0.25000000  1
  Cl  Cl0  1  0.94792300  0.75904900  0.75000000  1
  Cl  Cl1  1  0.24095100  0.18887500  0.75000000  1
  Cl  Cl2  1  0.05207700  0.24095100  0.25000000  1
  Cl  Cl3  1  0.18887500  0.94792300  0.25000000  1
  Cl  Cl4  1  0.81112500  0.05207700  0.75000000  1
  Cl  Cl5  1  0.75904900  0.81112500  0.25000000  1
  O  O0  1  0.63460500  0.47935400  0.98857400  1
  O  O1  1  0.84474900  0.36539500  0.51142600  1
  O  O2  1  0.47935400  0.84474900  0.01142600  1
  O  O3  1  0.52064600  0.15525100  0.51142600  1
  O  O4  1  0.47935400  0.84474900  0.48857400  1
  O  O5  1  0.15525100  0.63460500  0.48857400  1
  O  O6  1  0.36539500  0.52064600  0.48857400  1
  O  O7  1  0.15525100  0.63460500  0.01142600  1
  O  O8  1  0.52064600  0.15525100  0.98857400  1
  O  O9  1  0.63460500  0.47935400  0.51142600  1
  O  O10  1  0.84474900  0.36539500  0.98857400  1
  O  O11  1  0.36539500  0.52064600  0.01142600  1
loop_
_geom_bond_atom_site_label_1
_geom_bond_atom_site_label_2
_geom_bond_distance
_geom_bond_site_symmetry_2
Ce0 O11 2.335721 1_556
Ce0 O6 2.335721 1_555
Ce0 O0 2.473968 1_555
Ce0 O9 2.473968 1_555
Ce0 O2 2.644556 1_556
Ce0 O4 2.644556 1_555
Ce0 Cl4 3.025429 1_565
Ce0 Cl0 3.042484 1_555
Ce0 Cl5 3.063832 1_555
Ce0 Cl5 3.063832 1_556
Ce1 O7 2.335723 1_556
Ce1 O5 2.335723 1_555
Ce1 O10 2.473975 1_455
Ce1 O1 2.473975 1_455
Ce1 O11 2.644549 1_556
Ce1 O6 2.644549 1_555
Ce1 Cl1 3.025414 1_555
Ce1 Cl4 3.042490 1_455
Ce1 Cl2 3.063832 1_556
Ce1 Cl2 3.063832 1_555
Ce2 O9 2.335721 1_555
Ce2 O0 2.335721 1_554
Ce2 O6 2.473968 1_555
Ce2 O11 2.473968 1_555
Ce2 O3 2.644556 1_555
Ce2 O8 2.644556 1_554
Ce2 Cl3 3.025429 1_545
Ce2 Cl2 3.042484 1_555
Ce2 Cl1 3.063832 1_555
Ce2 Cl1 3.063832 1_554
Ce3 O2 2.335716 1_556
Ce3 O4 2.335716 1_555
Ce3 O8 2.473973 1_565
Ce3 O3 2.473973 1_565
Ce3 O7 2.644550 1_556
Ce3 O5 2.644550 1_555
Ce3 Cl0 3.025431 1_455
Ce3 Cl1 3.042502 1_565
Ce3 Cl3 3.063832 1_556
Ce3 Cl3 3.063832 1_555
Ce4 O1 2.335723 1_555
Ce4 O10 2.335723 1_554
Ce4 O5 2.473975 1_655
Ce4 O7 2.473975 1_655
Ce4 O9 2.644549 1_555
Ce4 O0 2.644549 1_554
Ce4 Cl5 3.025414 1_555
Ce4 Cl3 3.042490 1_655
Ce4 Cl0 3.063832 1_554
Ce4 Cl0 3.063832 1_555
Ce5 O3 2.335716 1_555
Ce5 O8 2.335716 1_554
Ce5 O4 2.473973 1_545
Ce5 O2 2.473973 1_545
Ce5 O1 2.644550 1_555
Ce5 O10 2.644550 1_554
Ce5 Cl2 3.025431 1_655
Ce5 Cl5 3.042502 1_545
Ce5 Cl4 3.063832 1_554
Ce5 Cl4 3.063832 1_555
O0 Ta0 2.003706 1_555
O1 Ta0 2.003699 1_555
O2 Ta1 2.003702 1_555
O3 Ta0 2.003702 1_555
O4 Ta1 2.003702 1_555
O5 Ta1 2.003699 1_555
O6 Ta1 2.003706 1_555
O7 Ta1 2.003699 1_555
O8 Ta0 2.003702 1_555
O9 Ta0 2.003706 1_555
O10 Ta0 2.003699 1_555
O11 Ta1 2.003706 1_555
