# generated using pymatgen
data_SmMg2Ni9
_symmetry_space_group_name_H-M   'P 1'
_cell_length_a   8.28688682
_cell_length_b   8.28688281
_cell_length_c   8.28688424
_cell_angle_alpha   33.90743371
_cell_angle_beta   33.90746453
_cell_angle_gamma   33.90745567
_symmetry_Int_Tables_number   1
_chemical_formula_structural   SmMg2Ni9
_chemical_formula_sum   'Sm1 Mg2 Ni9'
_cell_volume   157.83658915
_cell_formula_units_Z   1
loop_
 _symmetry_equiv_pos_site_id
 _symmetry_equiv_pos_as_xyz
  1  'x, y, z'
loop_
 _atom_site_type_symbol
 _atom_site_label
 _atom_site_symmetry_multiplicity
 _atom_site_fract_x
 _atom_site_fract_y
 _atom_site_fract_z
 _atom_site_occupancy
  Sm  Sm0  1  -0.00000000  0.00000000  -0.00000000  1
  Mg  Mg0  1  0.14436363  0.14436263  0.14436263  1
  Mg  Mg1  1  0.85563637  0.85563737  0.85563737  1
  Ni  Ni0  1  0.33373276  0.33372976  0.33373076  1
  Ni  Ni1  1  0.41409831  0.91802770  0.41409831  1
  Ni  Ni2  1  0.58590169  0.58590169  0.08197230  1
  Ni  Ni3  1  0.91802770  0.41409831  0.41409831  1
  Ni  Ni4  1  0.58590169  0.08197230  0.58590169  1
  Ni  Ni5  1  0.66626724  0.66627024  0.66626924  1
  Ni  Ni6  1  0.50000000  0.50000000  0.50000000  1
  Ni  Ni7  1  0.08197230  0.58590169  0.58590169  1
  Ni  Ni8  1  0.41409831  0.41409831  0.91802770  1
loop_
_geom_bond_atom_site_label_1
_geom_bond_atom_site_label_2
_geom_bond_distance
_geom_bond_site_symmetry_2
Mg0 Ni2 2.792318 1_545
Mg0 Ni7 2.792319 1_545
Mg0 Ni4 2.792319 1_554
Mg0 Ni7 2.792320 1_554
Mg0 Ni2 2.792324 1_455
Mg0 Ni4 2.792324 1_455
Mg0 Ni8 2.808223 1_554
Mg0 Ni1 2.808223 1_545
Mg0 Ni3 2.808225 1_455
Mg0 Ni6 2.838700 1_545
Mg0 Ni6 2.838701 1_554
Mg0 Ni6 2.838707 1_455
Mg0 Mg1 2.979262 1_544
Mg0 Mg1 2.979266 1_454
Mg0 Mg1 2.979267 1_445
Mg0 Sm0 3.379393 1_555
Mg1 Ni8 2.792318 1_565
Mg1 Ni3 2.792319 1_565
Mg1 Ni1 2.792319 1_556
Mg1 Ni3 2.792320 1_556
Mg1 Ni8 2.792324 1_655
Mg1 Ni1 2.792324 1_655
Mg1 Ni2 2.808223 1_556
Mg1 Ni4 2.808223 1_565
Mg1 Ni7 2.808225 1_655
Mg1 Ni6 2.838700 1_565
Mg1 Ni6 2.838701 1_556
Mg1 Ni6 2.838707 1_655
Mg1 Sm0 3.379393 1_666
Ni0 Ni4 2.421065 1_555
Ni0 Ni2 2.421067 1_555
Ni0 Ni7 2.421072 1_555
Ni0 Ni1 2.423658 1_545
Ni0 Ni8 2.423661 1_554
Ni0 Ni3 2.423667 1_455
Ni0 Sm0 2.790286 1_655
Ni0 Sm0 2.790292 1_556
Ni0 Sm0 2.790295 1_565
Ni0 Ni5 2.790325 1_545
Ni0 Ni5 2.790334 1_554
Ni0 Ni5 2.790353 1_455
Ni1 Ni6 2.380854 1_555
Ni1 Ni8 2.397458 1_564
Ni1 Ni3 2.397459 1_465
Ni1 Ni5 2.421065 1_555
Ni1 Ni8 2.435438 1_555
Ni1 Ni3 2.435440 1_555
Ni1 Sm0 3.124194 1_566
Ni1 Sm0 3.124195 1_665
Ni2 Ni6 2.380855 1_555
Ni2 Ni4 2.397458 1_564
Ni2 Ni7 2.397460 1_654
Ni2 Ni5 2.423661 1_554
Ni2 Ni4 2.435438 1_555
Ni2 Ni7 2.435441 1_555
Ni2 Sm0 3.124193 1_655
Ni2 Sm0 3.124195 1_565
Ni3 Ni6 2.380857 1_555
Ni3 Ni8 2.397460 1_654
Ni3 Ni5 2.421072 1_555
Ni3 Ni8 2.435441 1_555
Ni3 Sm0 3.124192 1_665
Ni3 Sm0 3.124193 1_656
Ni4 Ni6 2.380854 1_555
Ni4 Ni7 2.397459 1_645
Ni4 Ni5 2.423658 1_545
Ni4 Ni7 2.435440 1_555
Ni4 Sm0 3.124194 1_655
Ni4 Sm0 3.124195 1_556
Ni5 Ni8 2.421067 1_555
Ni5 Ni7 2.423667 1_655
Ni5 Sm0 2.790286 1_566
Ni5 Sm0 2.790292 1_665
Ni5 Sm0 2.790295 1_656
Ni6 Ni8 2.380855 1_555
Ni6 Ni7 2.380857 1_555
Ni7 Sm0 3.124192 1_556
Ni7 Sm0 3.124193 1_565
Ni8 Sm0 3.124193 1_566
Ni8 Sm0 3.124195 1_656
