# generated using pymatgen
data_Ca3TeO6
_symmetry_space_group_name_H-M   'P 1'
_cell_length_a   5.57370774
_cell_length_b   5.81992005
_cell_length_c   8.02717957
_cell_angle_alpha   90.00000000
_cell_angle_beta   90.34174809
_cell_angle_gamma   90.00000000
_symmetry_Int_Tables_number   1
_chemical_formula_structural   Ca3TeO6
_chemical_formula_sum   'Ca6 Te2 O12'
_cell_volume   260.38530080
_cell_formula_units_Z   2
loop_
 _symmetry_equiv_pos_site_id
 _symmetry_equiv_pos_as_xyz
  1  'x, y, z'
loop_
 _atom_site_type_symbol
 _atom_site_label
 _atom_site_symmetry_multiplicity
 _atom_site_fract_x
 _atom_site_fract_y
 _atom_site_fract_z
 _atom_site_occupancy
  Ca  Ca0  1  0.01645322  0.55489598  0.74481878  1
  Ca  Ca1  1  0.48354678  0.05489598  0.75518122  1
  Ca  Ca2  1  0.98354678  0.44510402  0.25518122  1
  Ca  Ca3  1  0.51645322  0.94510402  0.24481878  1
  Ca  Ca4  1  0.50000000  0.50000000  0.00000000  1
  Ca  Ca5  1  0.00000000  0.00000000  0.50000000  1
  Te  Te0  1  0.50000000  0.50000000  0.50000000  1
  Te  Te1  1  0.00000000  0.00000000  0.00000000  1
  O  O0  1  0.67023747  0.22703542  0.42981943  1
  O  O1  1  0.82976253  0.72703542  0.07018057  1
  O  O2  1  0.32976253  0.77296458  0.57018057  1
  O  O3  1  0.17023747  0.27296458  0.92981943  1
  O  O4  1  0.21954084  0.32127893  0.54865607  1
  O  O5  1  0.28045916  0.82127893  0.95134393  1
  O  O6  1  0.78045916  0.67872107  0.45134393  1
  O  O7  1  0.71954084  0.17872107  0.04865607  1
  O  O8  1  0.11256445  0.05415954  0.22433131  1
  O  O9  1  0.38743555  0.55415954  0.27566869  1
  O  O10  1  0.88743555  0.94584046  0.77566869  1
  O  O11  1  0.61256445  0.44584046  0.72433131  1
loop_
_geom_bond_atom_site_label_1
_geom_bond_atom_site_label_2
_geom_bond_distance
_geom_bond_site_symmetry_2
Ca0 O11 2.343753 1_455
Ca0 O3 2.370048 1_555
Ca0 O4 2.372898 1_555
Ca0 O10 2.399458 1_455
Ca0 O2 2.579662 1_555
Ca0 O5 2.699639 1_555
Ca0 O6 2.786078 1_455
Ca0 O1 2.989989 1_456
Ca1 O10 2.343753 1_545
Ca1 O2 2.370048 1_545
Ca1 O5 2.372898 1_545
Ca1 O11 2.399458 1_555
Ca1 O3 2.579662 1_555
Ca1 O4 2.699639 1_555
Ca1 O7 2.786078 1_556
Ca1 O0 2.989989 1_555
Ca2 O9 2.343753 1_655
Ca2 O1 2.370048 1_555
Ca2 O6 2.372898 1_555
Ca2 O8 2.399458 1_655
Ca2 O0 2.579662 1_555
Ca2 O7 2.699639 1_555
Ca2 O4 2.786078 1_655
Ca2 O3 2.989989 1_654
Ca3 O8 2.343753 1_565
Ca3 O0 2.370048 1_565
Ca3 O7 2.372898 1_565
Ca3 O9 2.399458 1_555
Ca3 O1 2.579662 1_555
Ca3 O6 2.699639 1_555
Ca3 O5 2.786078 1_554
Ca3 O2 2.989989 1_555
Ca4 O7 2.267245 1_555
Ca4 O5 2.267245 1_554
Ca4 O9 2.325128 1_555
Ca4 O11 2.325128 1_554
Ca4 O3 2.330057 1_554
Ca4 O1 2.330057 1_555
Ca5 O6 2.267245 1_445
Ca5 O4 2.267245 1_555
Ca5 O10 2.325128 1_445
Ca5 O8 2.325128 1_555
Ca5 O2 2.330057 1_545
Ca5 O0 2.330057 1_455
O0 Te0 1.935928 1_555
O1 Te1 1.935928 1_665
O2 Te0 1.935928 1_555
O3 Te1 1.935928 1_556
O4 Te0 1.919716 1_555
O5 Te1 1.919716 1_566
O6 Te0 1.919716 1_555
O7 Te1 1.919716 1_655
O8 Te1 1.929301 1_555
O9 Te0 1.929301 1_555
O10 Te1 1.929301 1_666
O11 Te0 1.929301 1_555
