# generated using pymatgen
data_EuMoO4F
_symmetry_space_group_name_H-M   'P 1'
_cell_length_a   12.45955785
_cell_length_b   5.29463452
_cell_length_c   6.73870554
_cell_angle_alpha   66.93000096
_cell_angle_beta   90.00000000
_cell_angle_gamma   90.00000000
_symmetry_Int_Tables_number   1
_chemical_formula_structural   EuMoO4F
_chemical_formula_sum   'Eu4 Mo4 O16 F4'
_cell_volume   408.99272068
_cell_formula_units_Z   4
loop_
 _symmetry_equiv_pos_site_id
 _symmetry_equiv_pos_as_xyz
  1  'x, y, z'
loop_
 _atom_site_type_symbol
 _atom_site_label
 _atom_site_symmetry_multiplicity
 _atom_site_fract_x
 _atom_site_fract_y
 _atom_site_fract_z
 _atom_site_occupancy
  Eu  Eu0  1  0.55435566  0.63710311  0.70231395  1
  Eu  Eu1  1  0.05435566  0.36289689  0.79768605  1
  Eu  Eu2  1  0.44564434  0.36289689  0.29768605  1
  Eu  Eu3  1  0.94564434  0.63710311  0.20231395  1
  Mo  Mo0  1  0.35775480  0.07690399  0.86911940  1
  Mo  Mo1  1  0.85775480  0.92309601  0.63088060  1
  Mo  Mo2  1  0.64224520  0.92309601  0.13088060  1
  Mo  Mo3  1  0.14224520  0.07690399  0.36911940  1
  O  O0  1  0.43678206  0.29474685  0.96470462  1
  O  O1  1  0.22786286  0.19587780  0.78850981  1
  O  O2  1  0.84359853  0.23069719  0.41104321  1
  O  O3  1  0.65640147  0.23069719  0.91104321  1
  O  O4  1  0.93678206  0.70525315  0.53529538  1
  O  O5  1  0.06321794  0.29474685  0.46470462  1
  O  O6  1  0.72786286  0.80412220  0.71149019  1
  O  O7  1  0.56321794  0.70525315  0.03529538  1
  O  O8  1  0.15640147  0.76930281  0.58895679  1
  O  O9  1  0.57138597  0.99807897  0.33496007  1
  O  O10  1  0.77213714  0.80412220  0.21149019  1
  O  O11  1  0.34359853  0.76930281  0.08895679  1
  O  O12  1  0.07138597  0.00192103  0.16503993  1
  O  O13  1  0.92861403  0.99807897  0.83496007  1
  O  O14  1  0.27213714  0.19587780  0.28850981  1
  O  O15  1  0.42861403  0.00192103  0.66503993  1
  F  F0  1  0.90105187  0.46506145  0.95256178  1
  F  F1  1  0.40105187  0.53493855  0.54743822  1
  F  F2  1  0.59894813  0.46506145  0.45256178  1
  F  F3  1  0.09894813  0.53493855  0.04743822  1
loop_
_geom_bond_atom_site_label_1
_geom_bond_atom_site_label_2
_geom_bond_distance
_geom_bond_site_symmetry_2
Eu0 F2 2.274292 1_555
Eu0 F1 2.339389 1_555
Eu0 O6 2.345667 1_555
Eu0 O7 2.410778 1_556
Eu0 O3 2.419325 1_555
Eu0 O15 2.422468 1_565
Eu0 O0 2.458915 1_555
Eu0 O9 2.473452 1_555
Eu1 F3 2.274292 1_556
Eu1 F0 2.339389 1_455
Eu1 O1 2.345667 1_555
Eu1 O5 2.410778 1_555
Eu1 O8 2.419325 1_555
Eu1 O13 2.422468 1_445
Eu1 O4 2.458915 1_455
Eu1 O12 2.473452 1_556
Eu2 F1 2.274292 1_555
Eu2 F2 2.339389 1_555
Eu2 O14 2.345667 1_555
Eu2 O0 2.410778 1_554
Eu2 O11 2.419325 1_555
Eu2 O9 2.422468 1_545
Eu2 O7 2.458915 1_555
Eu2 O15 2.473452 1_555
Eu3 F0 2.274292 1_554
Eu3 F3 2.339389 1_655
Eu3 O10 2.345667 1_555
Eu3 O4 2.410778 1_555
Eu3 O2 2.419325 1_555
Eu3 O12 2.422468 1_665
Eu3 O5 2.458915 1_655
Eu3 O13 2.473452 1_554
Mo0 O11 1.728385 1_546
Mo0 O1 1.744394 1_555
Mo0 O15 1.804503 1_555
Mo0 O0 1.815760 1_555
Mo1 O2 1.728385 1_565
Mo1 O6 1.744394 1_555
Mo1 O13 1.804503 1_555
Mo1 O4 1.815760 1_555
Mo2 O3 1.728385 1_564
Mo2 O10 1.744394 1_555
Mo2 O9 1.804503 1_555
Mo2 O7 1.815760 1_555
Mo3 O8 1.728385 1_545
Mo3 O14 1.744394 1_555
Mo3 O12 1.804503 1_555
Mo3 O5 1.815760 1_555
F0 Mo1 2.598324 1_555
F1 Mo0 2.598324 1_555
F2 Mo2 2.598324 1_555
F3 Mo3 2.598324 1_555
