# generated using pymatgen
data_Zn3P2H2O9
_symmetry_space_group_name_H-M   'P 1'
_cell_length_a   4.94081200
_cell_length_b   8.81469400
_cell_length_c   16.99514649
_cell_angle_alpha   84.81496587
_cell_angle_beta   90.00000000
_cell_angle_gamma   90.00000000
_symmetry_Int_Tables_number   1
_chemical_formula_structural   Zn3P2H2O9
_chemical_formula_sum   'Zn12 P8 H8 O36'
_cell_volume   737.13956092
_cell_formula_units_Z   4
loop_
 _symmetry_equiv_pos_site_id
 _symmetry_equiv_pos_as_xyz
  1  'x, y, z'
loop_
 _atom_site_type_symbol
 _atom_site_label
 _atom_site_symmetry_multiplicity
 _atom_site_fract_x
 _atom_site_fract_y
 _atom_site_fract_z
 _atom_site_occupancy
  Zn  Zn0  1  0.99035900  0.91993500  0.18049700  1
  Zn  Zn1  1  0.70430700  0.56612000  0.15357300  1
  Zn  Zn2  1  0.29827900  0.32997500  0.05539000  1
  Zn  Zn3  1  0.49035900  0.08006500  0.31950300  1
  Zn  Zn4  1  0.20172100  0.32997500  0.55539000  1
  Zn  Zn5  1  0.70172100  0.67002500  0.94461000  1
  Zn  Zn6  1  0.29569300  0.43388000  0.84642700  1
  Zn  Zn7  1  0.50964100  0.91993500  0.68049700  1
  Zn  Zn8  1  0.00964100  0.08006500  0.81950300  1
  Zn  Zn9  1  0.20430700  0.43388000  0.34642700  1
  Zn  Zn10  1  0.79569300  0.56612000  0.65357300  1
  Zn  Zn11  1  0.79827900  0.67002500  0.44461000  1
  P  P0  1  0.79077000  0.31480000  0.94419100  1
  P  P1  1  0.00889600  0.23821200  0.21679600  1
  P  P2  1  0.99110400  0.76178800  0.78320400  1
  P  P3  1  0.29077000  0.68520000  0.55580900  1
  P  P4  1  0.20923000  0.68520000  0.05580900  1
  P  P5  1  0.70923000  0.31480000  0.44419000  1
  P  P6  1  0.50889600  0.76178800  0.28320400  1
  P  P7  1  0.49110400  0.23821200  0.71679600  1
  H  H0  1  0.04571900  0.06755500  0.40698800  1
  H  H1  1  0.21474700  0.91696700  0.43452600  1
  H  H2  1  0.28525300  0.91696700  0.93452600  1
  H  H3  1  0.78525300  0.08303300  0.56547400  1
  H  H4  1  0.45428100  0.06755500  0.90698800  1
  H  H5  1  0.95428100  0.93244500  0.59301200  1
  H  H6  1  0.71474700  0.08303300  0.06547400  1
  H  H7  1  0.54571900  0.93244500  0.09301200  1
  O  O0  1  0.73071400  0.97323900  0.08311600  1
  O  O1  1  0.73254400  0.74109900  0.21815600  1
  O  O2  1  0.34502700  0.19762700  0.64058600  1
  O  O3  1  0.23254400  0.25890100  0.28184400  1
  O  O4  1  0.65814800  0.38465700  0.70936300  1
  O  O5  1  0.15497300  0.19762700  0.14058600  1
  O  O6  1  0.74476400  0.18303900  0.39305000  1
  O  O7  1  0.16802500  0.90479800  0.75845400  1
  O  O8  1  0.84502700  0.80237300  0.85941400  1
  O  O9  1  0.90312000  0.63872200  0.04838500  1
  O  O10  1  0.25523600  0.81696100  0.60695000  1
  O  O11  1  0.85470400  0.46172100  0.40352500  1
  O  O12  1  0.76928600  0.97323900  0.58311600  1
  O  O13  1  0.64529600  0.46172100  0.90352500  1
  O  O14  1  0.67218700  0.27742900  0.02782500  1
  O  O15  1  0.84185200  0.38465700  0.20936300  1
  O  O16  1  0.59688000  0.63872200  0.54838500  1
  O  O17  1  0.65497300  0.80237300  0.35941400  1
  O  O18  1  0.24476400  0.81696100  0.10695000  1
  O  O19  1  0.09688000  0.36127800  0.95161500  1
  O  O20  1  0.33197500  0.90479800  0.25845400  1
  O  O21  1  0.75523600  0.18303900  0.89305000  1
  O  O22  1  0.82781300  0.27742900  0.52782500  1
  O  O23  1  0.26745600  0.25890100  0.78184400  1
  O  O24  1  0.76745600  0.74109900  0.71815600  1
  O  O25  1  0.66802500  0.09520200  0.74154600  1
  O  O26  1  0.83197500  0.09520200  0.24154600  1
  O  O27  1  0.26928600  0.02676100  0.91688400  1
  O  O28  1  0.34185200  0.61534300  0.29063700  1
  O  O29  1  0.35470400  0.53827900  0.09647500  1
  O  O30  1  0.15814800  0.61534300  0.79063700  1
  O  O31  1  0.23071400  0.02676100  0.41688400  1
  O  O32  1  0.17218700  0.72257100  0.47217500  1
  O  O33  1  0.14529600  0.53827900  0.59647500  1
  O  O34  1  0.32781300  0.72257100  0.97217500  1
  O  O35  1  0.40312000  0.36127800  0.45161500  1
loop_
_geom_bond_atom_site_label_1
_geom_bond_atom_site_label_2
_geom_bond_distance
_geom_bond_site_symmetry_2
H0 O31 0.991010 1_555
H1 O31 0.990107 1_565
H2 O27 0.990107 1_565
H3 O12 0.990107 1_545
H4 O27 0.991010 1_555
H5 O12 0.991010 1_555
H6 O0 0.990107 1_545
H7 O0 0.991010 1_555
O0 Zn0 2.113050 1_555
O1 P6 1.585200 1_555
O1 Zn1 1.977151 1_555
O1 Zn0 2.082033 1_555
O2 P7 1.552475 1_555
O2 Zn4 1.911404 1_555
O3 P1 1.585200 1_555
O3 Zn9 1.977151 1_555
O3 Zn3 2.082033 1_555
O4 P7 1.527743 1_555
O4 Zn10 1.909254 1_555
O5 P1 1.552475 1_555
O5 Zn2 1.911404 1_555
O6 P5 1.522364 1_555
O6 Zn3 2.042370 1_555
O7 P2 1.560220 1_455
O7 Zn8 2.089347 1_565
O7 Zn7 2.142442 1_555
O8 P2 1.552475 1_555
O8 Zn5 1.911404 1_555
O9 P4 1.574979 1_655
O9 Zn5 2.022100 1_554
O9 Zn1 2.088899 1_555
O10 P3 1.522374 1_555
O10 Zn7 2.042370 1_555
O11 P5 1.584192 1_555
O11 Zn9 2.007129 1_655
O11 Zn11 2.041664 1_555
O12 Zn7 2.113050 1_555
O13 P0 1.584198 1_555
O13 Zn6 2.007129 1_555
O13 Zn5 2.041664 1_555
O14 P0 1.545140 1_554
O14 Zn2 1.971329 1_555
O15 P1 1.527743 1_655
O15 Zn1 1.909254 1_555
O16 P3 1.574979 1_555
O16 Zn11 2.022100 1_555
O16 Zn10 2.088899 1_555
O17 P6 1.552475 1_555
O17 Zn11 1.911404 1_555
O18 P4 1.522374 1_555
O18 Zn0 2.042370 1_455
O19 P0 1.574979 1_455
O19 Zn2 2.022100 1_556
O19 Zn6 2.088899 1_555
O20 P6 1.560220 1_555
O20 Zn3 2.089347 1_565
O20 Zn0 2.142442 1_455
O21 P0 1.522374 1_555
O21 Zn8 2.042370 1_655
O22 P5 1.545156 1_555
O22 Zn4 1.971329 1_655
O23 P7 1.585200 1_555
O23 Zn6 1.977151 1_555
O23 Zn8 2.082033 1_555
O24 P2 1.585200 1_555
O24 Zn10 1.977151 1_555
O24 Zn7 2.082033 1_555
O25 P7 1.560220 1_555
O25 Zn7 2.089347 1_545
O25 Zn8 2.142442 1_655
O26 P1 1.560220 1_655
O26 Zn0 2.089347 1_545
O26 Zn3 2.142442 1_555
O27 Zn8 2.113050 1_555
O28 P6 1.527743 1_555
O28 Zn9 1.909254 1_555
O29 P4 1.584198 1_555
O29 Zn1 2.007129 1_555
O29 Zn2 2.041664 1_555
O30 P2 1.527743 1_455
O30 Zn6 1.909254 1_555
O31 Zn3 2.113050 1_555
O32 P3 1.545140 1_555
O32 Zn11 1.971329 1_455
O33 P3 1.584198 1_555
O33 Zn10 2.007129 1_455
O33 Zn4 2.041664 1_555
O34 P4 1.545140 1_556
O34 Zn5 1.971329 1_555
O35 P5 1.574981 1_555
O35 Zn4 2.022100 1_555
O35 Zn9 2.088899 1_555
