# generated using pymatgen
data_Ba17Dy16Zn8Pt4O57
_symmetry_space_group_name_H-M   'P 1'
_cell_length_a   16.61414871
_cell_length_b   16.61414871
_cell_length_c   16.61414871
_cell_angle_alpha   91.72895056
_cell_angle_beta   91.72895056
_cell_angle_gamma   159.99410044
_symmetry_Int_Tables_number   1
_chemical_formula_structural   Ba17Dy16Zn8Pt4O57
_chemical_formula_sum   'Ba17 Dy16 Zn8 Pt4 O57'
_cell_volume   1545.09903828
_cell_formula_units_Z   1
loop_
 _symmetry_equiv_pos_site_id
 _symmetry_equiv_pos_as_xyz
  1  'x, y, z'
loop_
 _atom_site_type_symbol
 _atom_site_label
 _atom_site_symmetry_multiplicity
 _atom_site_fract_x
 _atom_site_fract_y
 _atom_site_fract_z
 _atom_site_occupancy
  Ba  Ba0  1  0.93240600  0.44165900  0.37406500  1
  Ba  Ba1  1  0.72337200  0.88809800  0.61147000  1
  Ba  Ba2  1  0.65825400  0.64956500  0.30782000  1
  Ba  Ba3  1  0.06759400  0.55834100  0.62593500  1
  Ba  Ba4  1  0.81082800  0.73230900  0.54313700  1
  Ba  Ba5  1  0.73230900  0.18917200  0.92148100  1
  Ba  Ba6  1  0.35043500  0.65825400  0.00868900  1
  Ba  Ba7  1  0.64956500  0.34174600  0.99131100  1
  Ba  Ba8  1  0.88809800  0.27662800  0.16472700  1
  Ba  Ba9  1  0.18917200  0.26769100  0.45686300  1
  Ba  Ba10  1  0.26769100  0.81082800  0.07851900  1
  Ba  Ba11  1  0.55834100  0.93240600  0.49074700  1
  Ba  Ba12  1  0.44165900  0.06759400  0.50925300  1
  Ba  Ba13  1  0.34174600  0.35043500  0.69218000  1
  Ba  Ba14  1  0.27662800  0.11190200  0.38853000  1
  Ba  Ba15  1  0.00000000  0.00000000  0.00000000  1
  Ba  Ba16  1  0.11190200  0.72337200  0.83527300  1
  Dy  Dy0  1  0.51161600  0.40034500  0.91196100  1
  Dy  Dy1  1  0.25039200  0.49372500  0.74411700  1
  Dy  Dy2  1  0.67375600  0.04977300  0.72352800  1
  Dy  Dy3  1  0.95022700  0.67375600  0.62398300  1
  Dy  Dy4  1  0.74960800  0.50627500  0.25588300  1
  Dy  Dy5  1  0.48838400  0.59965500  0.08803900  1
  Dy  Dy6  1  0.49372500  0.74960800  0.24333200  1
  Dy  Dy7  1  0.04977300  0.32624400  0.37601700  1
  Dy  Dy8  1  0.05234000  0.17204600  0.22438600  1
  Dy  Dy9  1  0.59965500  0.51161600  0.11127200  1
  Dy  Dy10  1  0.50627500  0.25039200  0.75666800  1
  Dy  Dy11  1  0.82795400  0.05234000  0.88029400  1
  Dy  Dy12  1  0.40034500  0.48838400  0.88872800  1
  Dy  Dy13  1  0.17204600  0.94766000  0.11970600  1
  Dy  Dy14  1  0.94766000  0.82795400  0.77561400  1
  Dy  Dy15  1  0.32624400  0.95022700  0.27647200  1
  Zn  Zn0  1  0.86642700  0.92427400  0.79070100  1
  Zn  Zn1  1  0.07572600  0.86642700  0.94215400  1
  Zn  Zn2  1  0.21231700  0.62090000  0.83321700  1
  Zn  Zn3  1  0.13357300  0.07572600  0.20929900  1
  Zn  Zn4  1  0.92427400  0.13357300  0.05784600  1
  Zn  Zn5  1  0.62090000  0.78768300  0.40858300  1
  Zn  Zn6  1  0.37910000  0.21231700  0.59141700  1
  Zn  Zn7  1  0.78768300  0.37910000  0.16678300  1
  Pt  Pt0  1  0.85568900  0.58294400  0.43863300  1
  Pt  Pt1  1  0.14431100  0.41705600  0.56136700  1
  Pt  Pt2  1  0.58294400  0.14431100  0.72725500  1
  Pt  Pt3  1  0.41705600  0.85568900  0.27274500  1
  O  O0  1  0.17689800  0.00094100  0.68078600  1
  O  O1  1  0.28032700  0.92522900  0.68924100  1
  O  O2  1  0.68390000  0.65970500  0.84492700  1
  O  O3  1  0.32015600  0.49611200  0.31921400  1
  O  O4  1  0.70097800  0.76045300  0.46143000  1
  O  O5  1  0.39197200  0.76893000  0.16090300  1
  O  O6  1  0.72359400  0.92717200  0.14830000  1
  O  O7  1  0.81477800  0.83897400  0.15507300  1
  O  O8  1  0.87881900  0.11135100  0.47946400  1
  O  O9  1  0.99905900  0.67984400  0.17595600  1
  O  O10  1  0.82310200  0.99905900  0.31921400  1
  O  O11  1  0.67984400  0.50388800  0.68078600  1
  O  O12  1  0.56455400  0.05511900  0.61967300  1
  O  O13  1  0.71967300  0.07477100  0.31075900  1
  O  O14  1  0.60802800  0.23107000  0.83909700  1
  O  O15  1  0.92717200  0.77887200  0.20357800  1
  O  O16  1  0.18522200  0.16102600  0.84492700  1
  O  O17  1  0.23107000  0.39197200  0.62304200  1
  O  O18  1  0.77887200  0.57529400  0.85170000  1
  O  O19  1  0.76401200  0.40891400  0.68924100  1
  O  O20  1  0.94488100  0.56455400  0.50943500  1
  O  O21  1  0.43544600  0.94488100  0.38032700  1
  O  O22  1  0.59108600  0.28032700  0.35509800  1
  O  O23  1  0.23954700  0.70097700  0.94052500  1
  O  O24  1  0.40891400  0.71967300  0.64490200  1
  O  O25  1  0.15968100  0.15765400  0.31733500  1
  O  O26  1  0.84234600  0.15968100  0.00202600  1
  O  O27  1  0.12118100  0.88864900  0.52053600  1
  O  O28  1  0.15765400  0.84031900  0.99797400  1
  O  O29  1  0.60064600  0.12118100  0.23253300  1
  O  O30  1  0.07477100  0.76401200  0.35509800  1
  O  O31  1  0.50000000  0.50000000  0.00000000  1
  O  O32  1  0.23598800  0.59108600  0.31075900  1
  O  O33  1  0.07282800  0.22112800  0.79642200  1
  O  O34  1  0.84031900  0.84234600  0.68266500  1
  O  O35  1  0.42470600  0.27640600  0.20357800  1
  O  O36  1  0.63188700  0.39935400  0.52053600  1
  O  O37  1  0.88864900  0.36811300  0.76746700  1
  O  O38  1  0.00094100  0.32015600  0.82404400  1
  O  O39  1  0.76893000  0.60802800  0.37695800  1
  O  O40  1  0.34029500  0.18522200  0.02419600  1
  O  O41  1  0.57529400  0.72359400  0.79642200  1
  O  O42  1  0.11135100  0.63188700  0.23253300  1
  O  O43  1  0.83897400  0.68390000  0.02419600  1
  O  O44  1  0.27640600  0.07282800  0.85170000  1
  O  O45  1  0.29902300  0.23954700  0.53857000  1
  O  O46  1  0.65970500  0.81477800  0.97580400  1
  O  O47  1  0.36811300  0.60064600  0.47946400  1
  O  O48  1  0.49611200  0.17689800  0.17595600  1
  O  O49  1  0.22112800  0.42470600  0.14830000  1
  O  O50  1  0.50388800  0.82310200  0.82404400  1
  O  O51  1  0.16102600  0.31610000  0.97580400  1
  O  O52  1  0.39935400  0.87881900  0.76746700  1
  O  O53  1  0.05511900  0.43544600  0.49056500  1
  O  O54  1  0.92522900  0.23598800  0.64490200  1
  O  O55  1  0.31610000  0.34029500  0.15507300  1
  O  O56  1  0.76045300  0.29902200  0.05947500  1
loop_
_geom_bond_atom_site_label_1
_geom_bond_atom_site_label_2
_geom_bond_distance
_geom_bond_site_symmetry_2
Ba0 O42 2.751118 1_655
Ba0 O29 2.751118 1_555
Ba0 O53 2.843067 1_655
Ba0 O20 2.858254 1_555
Ba0 O21 2.887679 1_655
Ba0 O21 2.887679 1_545
Ba0 O13 3.107184 1_555
Ba0 O32 3.107184 1_655
Ba0 O22 3.273694 1_555
Ba0 O30 3.273694 1_655
Ba1 O8 2.840391 1_565
Ba1 O47 2.840396 1_555
Ba1 O24 2.868494 1_555
Ba1 O54 2.868494 1_565
Ba1 O17 2.892740 1_665
Ba1 O17 2.892740 1_555
Ba1 O34 2.905724 1_555
Ba1 O4 2.998673 1_555
Ba1 O33 3.360227 1_665
Ba1 O41 3.360227 1_555
Ba2 O39 2.735317 1_555
Ba2 O4 2.749642 1_555
Ba2 O25 2.892107 1_555
Ba2 O25 2.892113 1_665
Ba2 O55 2.933674 1_555
Ba2 O7 2.933682 1_555
Ba2 O35 3.198346 1_555
Ba2 O15 3.198348 1_555
Ba2 O3 3.356838 1_555
Ba2 O10 3.356857 1_555
Ba3 O37 2.751118 1_455
Ba3 O52 2.751118 1_555
Ba3 O20 2.843067 1_455
Ba3 O53 2.858254 1_555
Ba3 O12 2.887679 1_565
Ba3 O12 2.887679 1_455
Ba3 O19 3.107184 1_455
Ba3 O1 3.107184 1_555
Ba3 O24 3.273694 1_555
Ba3 O54 3.273694 1_455
Ba4 O4 2.623901 1_555
Ba4 O34 2.635980 1_555
Ba4 O45 2.903592 1_665
Ba4 O45 2.903592 1_555
Ba4 O27 2.912124 1_655
Ba4 O36 2.912140 1_555
Ba4 O39 3.034730 1_555
Ba4 O11 3.109879 1_555
Ba4 O0 3.109886 1_665
Ba5 O56 2.623892 1_556
Ba5 O26 2.635972 1_556
Ba5 O23 2.903590 1_655
Ba5 O23 2.903596 1_545
Ba5 O37 2.912140 1_555
Ba5 O52 2.912141 1_545
Ba5 O14 3.034738 1_555
Ba5 O38 3.109866 1_655
Ba5 O50 3.109879 1_545
Ba6 O5 2.735339 1_555
Ba6 O23 2.749657 1_554
Ba6 O26 2.892109 1_455
Ba6 O26 2.892114 1_565
Ba6 O51 2.933651 1_554
Ba6 O46 2.933666 1_554
Ba6 O6 3.198338 1_555
Ba6 O49 3.198338 1_555
Ba6 O50 3.356840 1_554
Ba6 O38 3.356842 1_554
Ba7 O14 2.735339 1_555
Ba7 O56 2.749672 1_556
Ba7 O28 2.892109 1_655
Ba7 O28 2.892114 1_545
Ba7 O43 2.933651 1_556
Ba7 O40 2.933666 1_556
Ba7 O18 3.198338 1_555
Ba7 O44 3.198338 1_555
Ba7 O48 3.356840 1_556
Ba7 O9 3.356842 1_556
Ba8 O29 2.840377 1_555
Ba8 O42 2.840391 1_655
Ba8 O13 2.868479 1_555
Ba8 O32 2.868482 1_655
Ba8 O5 2.892740 1_545
Ba8 O5 2.892740 1_655
Ba8 O26 2.905754 1_555
Ba8 O56 2.998669 1_555
Ba8 O6 3.360227 1_545
Ba8 O49 3.360230 1_655
Ba9 O45 2.623915 1_555
Ba9 O25 2.635980 1_555
Ba9 O4 2.903590 1_445
Ba9 O4 2.903596 1_555
Ba9 O8 2.912124 1_455
Ba9 O47 2.912140 1_555
Ba9 O17 3.034730 1_555
Ba9 O3 3.109879 1_555
Ba9 O10 3.109886 1_445
Ba10 O23 2.623901 1_554
Ba10 O28 2.635972 1_554
Ba10 O56 2.903594 1_565
Ba10 O56 2.903594 1_455
Ba10 O42 2.912140 1_555
Ba10 O29 2.912141 1_565
Ba10 O5 3.034738 1_555
Ba10 O9 3.109866 1_455
Ba10 O48 3.109879 1_565
Ba11 O47 2.751118 1_555
Ba11 O8 2.751133 1_565
Ba11 O12 2.843067 1_565
Ba11 O21 2.858254 1_555
Ba11 O53 2.887679 1_555
Ba11 O53 2.887679 1_665
Ba11 O54 3.107184 1_565
Ba11 O24 3.107184 1_555
Ba11 O13 3.273694 1_565
Ba11 O32 3.273694 1_555
Ba12 O36 2.751118 1_555
Ba12 O27 2.751133 1_545
Ba12 O21 2.843067 1_545
Ba12 O12 2.858254 1_555
Ba12 O20 2.887679 1_555
Ba12 O20 2.887679 1_445
Ba12 O22 3.107184 1_555
Ba12 O30 3.107184 1_545
Ba12 O19 3.273694 1_555
Ba12 O1 3.273694 1_545
Ba13 O17 2.735317 1_555
Ba13 O45 2.749648 1_555
Ba13 O34 2.892107 1_555
Ba13 O34 2.892113 1_445
Ba13 O2 2.933674 1_555
Ba13 O16 2.933682 1_555
Ba13 O41 3.198346 1_555
Ba13 O33 3.198348 1_555
Ba13 O11 3.356838 1_555
Ba13 O0 3.356857 1_555
Ba14 O27 2.840391 1_545
Ba14 O36 2.840396 1_555
Ba14 O30 2.868494 1_545
Ba14 O22 2.868494 1_555
Ba14 O39 2.892740 1_555
Ba14 O39 2.892740 1_445
Ba14 O25 2.905724 1_555
Ba14 O45 2.998664 1_555
Ba14 O35 3.360227 1_555
Ba14 O15 3.360227 1_445
Ba15 O31 2.885859 1_555
Ba15 O31 2.885859 1_445
Ba15 O55 2.947436 1_555
Ba15 O2 2.947436 1_444
Ba15 O7 2.947436 1_445
Ba15 O46 2.947436 1_444
Ba15 O40 2.947436 1_555
Ba15 O16 2.947436 1_554
Ba15 O51 2.947452 1_554
Ba15 O43 2.947452 1_445
Ba16 O52 2.840377 1_555
Ba16 O37 2.840391 1_455
Ba16 O1 2.868479 1_555
Ba16 O19 2.868482 1_455
Ba16 O14 2.892740 1_455
Ba16 O14 2.892740 1_565
Ba16 O28 2.905754 1_555
Ba16 O23 2.998683 1_555
Ba16 O44 3.360227 1_565
Ba16 O18 3.360230 1_455
Dy0 O16 2.302981 1_555
Dy0 O2 2.302989 1_555
Dy0 O44 2.314247 1_555
Dy0 O18 2.314247 1_555
Dy0 O31 2.321508 1_556
Dy0 O40 2.440662 1_556
Dy0 O43 2.440665 1_556
Dy1 O41 2.291878 1_555
Dy1 O33 2.291878 1_555
Dy1 O50 2.314784 1_555
Dy1 O38 2.314795 1_555
Dy1 O17 2.396514 1_555
Dy1 O24 2.408440 1_555
Dy1 O54 2.408440 1_455
Dy2 O54 2.239444 1_555
Dy2 O24 2.239448 1_545
Dy2 O37 2.318496 1_555
Dy2 O52 2.318510 1_545
Dy2 O38 2.371922 1_655
Dy2 O50 2.371933 1_545
Dy2 O12 2.529817 1_555
Dy3 O1 2.239455 1_655
Dy3 O19 2.239455 1_555
Dy3 O36 2.318493 1_555
Dy3 O27 2.318496 1_655
Dy3 O0 2.371907 1_665
Dy3 O11 2.371920 1_555
Dy3 O20 2.529828 1_555
Dy4 O35 2.291878 1_555
Dy4 O15 2.291878 1_555
Dy4 O48 2.314784 1_555
Dy4 O9 2.314795 1_555
Dy4 O39 2.396514 1_555
Dy4 O30 2.408440 1_655
Dy4 O22 2.408440 1_555
Dy5 O7 2.302981 1_555
Dy5 O55 2.302989 1_555
Dy5 O6 2.314247 1_555
Dy5 O49 2.314247 1_555
Dy5 O31 2.321508 1_555
Dy5 O46 2.440662 1_554
Dy5 O51 2.440665 1_554
Dy6 O6 2.291865 1_555
Dy6 O49 2.291868 1_555
Dy6 O10 2.314784 1_555
Dy6 O3 2.314795 1_555
Dy6 O5 2.396496 1_555
Dy6 O13 2.408446 1_565
Dy6 O32 2.408449 1_555
Dy7 O13 2.239455 1_455
Dy7 O32 2.239455 1_555
Dy7 O47 2.318493 1_555
Dy7 O8 2.318496 1_455
Dy7 O10 2.371907 1_445
Dy7 O3 2.371920 1_555
Dy7 O53 2.529828 1_555
Dy8 O3 2.304751 1_555
Dy8 O10 2.304755 1_445
Dy8 O49 2.344026 1_555
Dy8 O6 2.344026 1_445
Dy8 O7 2.412716 1_445
Dy8 O55 2.412728 1_555
Dy8 O25 2.505966 1_555
Dy9 O40 2.302989 1_555
Dy9 O43 2.302999 1_555
Dy9 O35 2.314234 1_555
Dy9 O15 2.314238 1_555
Dy9 O31 2.321521 1_555
Dy9 O55 2.440642 1_555
Dy9 O7 2.440659 1_555
Dy10 O44 2.291865 1_555
Dy10 O18 2.291868 1_555
Dy10 O0 2.314784 1_555
Dy10 O11 2.314795 1_555
Dy10 O14 2.396496 1_555
Dy10 O1 2.408446 1_545
Dy10 O19 2.408449 1_555
Dy11 O50 2.304751 1_545
Dy11 O38 2.304760 1_655
Dy11 O33 2.344026 1_655
Dy11 O41 2.344026 1_545
Dy11 O51 2.412710 1_655
Dy11 O46 2.412716 1_545
Dy11 O26 2.505953 1_556
Dy12 O46 2.302989 1_555
Dy12 O51 2.302999 1_555
Dy12 O41 2.314234 1_555
Dy12 O33 2.314238 1_555
Dy12 O31 2.321521 1_556
Dy12 O2 2.440642 1_555
Dy12 O16 2.440659 1_555
Dy13 O48 2.304751 1_565
Dy13 O9 2.304760 1_455
Dy13 O15 2.344026 1_455
Dy13 O35 2.344026 1_565
Dy13 O43 2.412710 1_455
Dy13 O40 2.412716 1_565
Dy13 O28 2.505953 1_554
Dy14 O11 2.304751 1_555
Dy14 O0 2.304755 1_665
Dy14 O44 2.344026 1_665
Dy14 O18 2.344026 1_555
Dy14 O16 2.412716 1_665
Dy14 O2 2.412728 1_555
Dy14 O34 2.505966 1_555
Dy15 O30 2.239444 1_555
Dy15 O22 2.239448 1_565
Dy15 O42 2.318496 1_555
Dy15 O29 2.318510 1_565
Dy15 O9 2.371922 1_455
Dy15 O48 2.371933 1_565
Dy15 O21 2.529817 1_555
O0 Zn6 2.065739 1_555
O1 Pt2 2.050191 1_565
O2 Zn0 2.163818 1_555
O3 Zn5 2.065736 1_555
O4 Zn5 1.957096 1_555
O5 Pt3 2.089705 1_555
O6 Zn4 2.064133 1_565
O7 Zn3 2.163826 1_665
O8 Pt1 2.054874 1_655
O8 Zn5 2.162032 1_545
O9 Zn7 2.065726 1_555
O10 Zn5 2.065739 1_555
O11 Zn6 2.065736 1_555
O12 Pt2 2.107206 1_555
O13 Pt3 2.050191 1_545
O14 Pt2 2.089705 1_555
O15 Zn3 2.064119 1_665
O16 Zn0 2.163826 1_445
O17 Pt1 2.089720 1_555
O18 Zn1 2.064129 1_655
O19 Pt2 2.050191 1_555
O20 Pt0 2.107206 1_555
O21 Pt3 2.107206 1_555
O22 Pt0 2.050191 1_555
O23 Zn2 1.957096 1_555
O24 Pt1 2.050191 1_555
O25 Zn3 1.989643 1_555
O26 Zn4 1.989643 1_555
O27 Pt0 2.054874 1_455
O27 Zn6 2.162032 1_565
O28 Zn1 1.989643 1_555
O29 Pt3 2.054858 1_545
O29 Zn7 2.162049 1_555
O30 Pt0 2.050191 1_455
O32 Pt3 2.050191 1_555
O33 Zn0 2.064119 1_445
O34 Zn0 1.989643 1_555
O35 Zn3 2.064119 1_555
O36 Pt0 2.054870 1_555
O36 Zn6 2.162038 1_555
O37 Pt2 2.054870 1_555
O37 Zn2 2.162038 1_655
O38 Zn2 2.065726 1_555
O39 Pt0 2.089720 1_555
O40 Zn1 2.163818 1_544
O41 Zn0 2.064119 1_555
O42 Pt3 2.054870 1_555
O42 Zn7 2.162038 1_455
O43 Zn1 2.163809 1_654
O44 Zn1 2.064133 1_545
O45 Zn6 1.957082 1_555
O46 Zn4 2.163818 1_566
O47 Pt1 2.054870 1_555
O47 Zn5 2.162038 1_555
O48 Zn7 2.065736 1_555
O49 Zn4 2.064129 1_455
O50 Zn2 2.065736 1_555
O51 Zn4 2.163809 1_456
O52 Pt2 2.054858 1_565
O52 Zn2 2.162049 1_555
O53 Pt1 2.107206 1_555
O54 Pt1 2.050191 1_655
O55 Zn3 2.163818 1_555
O56 Zn7 1.957104 1_555
