# generated using pymatgen
data_TePbO3
_symmetry_space_group_name_H-M   'P 1'
_cell_length_a   4.60105577
_cell_length_b   13.51009858
_cell_length_c   18.02331347
_cell_angle_alpha   106.79128573
_cell_angle_beta   90.00000000
_cell_angle_gamma   99.80422101
_symmetry_Int_Tables_number   1
_chemical_formula_structural   TePbO3
_chemical_formula_sum   'Te12 Pb12 O36'
_cell_volume   1055.47212074
_cell_formula_units_Z   12
loop_
 _symmetry_equiv_pos_site_id
 _symmetry_equiv_pos_as_xyz
  1  'x, y, z'
loop_
 _atom_site_type_symbol
 _atom_site_label
 _atom_site_symmetry_multiplicity
 _atom_site_fract_x
 _atom_site_fract_y
 _atom_site_fract_z
 _atom_site_occupancy
  Te  Te0  1  0.27918952  0.09529411  0.36856923  1
  Te  Te1  1  0.18389541  0.90470589  0.13143077  1
  Te  Te2  1  0.72081048  0.90470589  0.63143077  1
  Te  Te3  1  0.81610459  0.09529411  0.86856923  1
  Te  Te4  1  0.32358198  0.13806839  0.70715820  1
  Te  Te5  1  0.18551359  0.86193161  0.79284180  1
  Te  Te6  1  0.67641802  0.86193161  0.29284180  1
  Te  Te7  1  0.81448641  0.13806839  0.20715820  1
  Te  Te8  1  0.51523406  0.41488524  0.59286548  1
  Te  Te9  1  0.10034982  0.58511476  0.90713452  1
  Te  Te10  1  0.48476594  0.58511476  0.40713452  1
  Te  Te11  1  0.89965018  0.41488524  0.09286548  1
  Pb  Pb0  1  0.97818946  0.36755626  0.73657840  1
  Pb  Pb1  1  0.61063320  0.63244374  0.76342160  1
  Pb  Pb2  1  0.02181054  0.63244374  0.26342160  1
  Pb  Pb3  1  0.38936680  0.36755626  0.23657840  1
  Pb  Pb4  1  0.84027158  0.13287529  0.54442618  1
  Pb  Pb5  1  0.70739628  0.86712471  0.95557382  1
  Pb  Pb6  1  0.15972842  0.86712471  0.45557382  1
  Pb  Pb7  1  0.29260372  0.13287529  0.04442618  1
  Pb  Pb8  1  0.41574125  0.32264536  0.91423812  1
  Pb  Pb9  1  0.09309489  0.67735464  0.58576188  1
  Pb  Pb10  1  0.58425875  0.67735464  0.08576188  1
  Pb  Pb11  1  0.90690511  0.32264536  0.41423812  1
  O  O0  1  0.20441431  0.04295846  0.45485812  1
  O  O1  1  0.16145685  0.95704154  0.04514188  1
  O  O2  1  0.79558569  0.95704154  0.54514188  1
  O  O3  1  0.83854315  0.04295846  0.95485812  1
  O  O4  1  0.27967557  0.23607906  0.42612205  1
  O  O5  1  0.04359551  0.76392094  0.07387795  1
  O  O6  1  0.72032443  0.76392094  0.57387795  1
  O  O7  1  0.95640449  0.23607906  0.92612205  1
  O  O8  1  0.69366352  0.11301725  0.37203582  1
  O  O9  1  0.58064527  0.88698275  0.12796418  1
  O  O10  1  0.30633648  0.88698275  0.62796418  1
  O  O11  1  0.41935473  0.11301725  0.87203582  1
  O  O12  1  0.37128548  0.27209619  0.78181156  1
  O  O13  1  0.09918928  0.72790381  0.71818844  1
  O  O14  1  0.62871452  0.72790381  0.21818844  1
  O  O15  1  0.90081072  0.27209619  0.28181156  1
  O  O16  1  0.27205081  0.19111664  0.62313839  1
  O  O17  1  0.08093417  0.80888336  0.87686161  1
  O  O18  1  0.72794919  0.80888336  0.37686161  1
  O  O19  1  0.91906583  0.19111664  0.12313839  1
  O  O20  1  0.72254079  0.12964847  0.69000214  1
  O  O21  1  0.59289232  0.87035153  0.80999786  1
  O  O22  1  0.27745921  0.87035153  0.30999786  1
  O  O23  1  0.40710768  0.12964847  0.19000214  1
  O  O24  1  0.44433096  0.44328609  0.70027569  1
  O  O25  1  0.00104487  0.55671391  0.79972431  1
  O  O26  1  0.55566904  0.55671391  0.29972431  1
  O  O27  1  -0.00104487  0.44328609  0.20027569  1
  O  O28  1  0.87769236  0.37073183  0.59990371  1
  O  O29  1  0.50696052  0.62926817  0.90009629  1
  O  O30  1  0.12230764  0.62926817  0.40009629  1
  O  O31  1  0.49303948  0.37073183  0.09990371  1
  O  O32  1  0.65247328  0.55733283  0.60231403  1
  O  O33  1  0.09514046  0.44266717  0.89768597  1
  O  O34  1  0.34752672  0.44266717  0.39768597  1
  O  O35  1  0.90485954  0.55733283  0.10231403  1
loop_
_geom_bond_atom_site_label_1
_geom_bond_atom_site_label_2
_geom_bond_distance
_geom_bond_site_symmetry_2
O0 Te0 1.894590 1_555
O0 Pb6 2.353074 1_545
O0 Pb4 2.539474 1_455
O1 Te1 1.894590 1_555
O1 Pb7 2.353073 1_565
O1 Pb5 2.539477 1_454
O2 Te2 1.894590 1_555
O2 Pb4 2.353074 1_565
O2 Pb6 2.539474 1_655
O3 Te3 1.894590 1_555
O3 Pb5 2.353073 1_545
O3 Pb7 2.539477 1_656
O4 Te0 1.884752 1_555
O4 Pb11 2.276667 1_455
O5 Te1 1.884753 1_555
O5 Pb10 2.276667 1_455
O6 Te2 1.884752 1_555
O6 Pb9 2.276667 1_655
O7 Te3 1.884753 1_555
O7 Pb8 2.276667 1_655
O8 Te0 1.879841 1_555
O8 Pb11 2.714962 1_555
O9 Te1 1.879836 1_555
O9 Pb10 2.714962 1_555
O10 Te2 1.879841 1_555
O10 Pb9 2.714962 1_555
O11 Te3 1.879836 1_555
O11 Pb8 2.714962 1_555
O12 Te4 1.895860 1_555
O12 Pb8 2.283756 1_555
O12 Pb0 2.645941 1_455
O13 Te5 1.895860 1_555
O13 Pb9 2.283756 1_555
O13 Pb1 2.645941 1_455
O14 Te6 1.895860 1_555
O14 Pb10 2.283756 1_555
O14 Pb2 2.645941 1_655
O15 Te7 1.895860 1_555
O15 Pb11 2.283756 1_555
O15 Pb3 2.645941 1_655
O16 Te4 1.883594 1_555
O16 Pb4 2.324035 1_455
O17 Te5 1.883594 1_555
O17 Pb5 2.324035 1_455
O18 Te6 1.883594 1_555
O18 Pb6 2.324035 1_655
O19 Te7 1.883594 1_555
O19 Pb7 2.324035 1_655
O20 Te4 1.878533 1_555
O20 Pb4 2.690259 1_555
O21 Te5 1.878533 1_555
O21 Pb5 2.690259 1_555
O22 Te6 1.878533 1_555
O22 Pb6 2.690259 1_555
O23 Te7 1.878533 1_555
O23 Pb7 2.690259 1_555
O24 Te8 1.901256 1_555
O24 Pb0 2.390452 1_455
O24 Pb1 2.462754 1_555
O25 Te9 1.901257 1_555
O25 Pb1 2.390452 1_455
O25 Pb0 2.462754 1_455
O26 Te10 1.901256 1_555
O26 Pb2 2.390452 1_655
O26 Pb3 2.462754 1_555
O27 Te11 1.901257 1_455
O27 Pb3 2.390452 1_555
O27 Pb2 2.462754 1_555
O28 Te8 1.880328 1_555
O28 Pb0 2.520211 1_555
O29 Te9 1.880323 1_555
O29 Pb1 2.520211 1_555
O30 Te10 1.880328 1_555
O30 Pb2 2.520211 1_555
O31 Te11 1.880323 1_555
O31 Pb3 2.520211 1_555
O32 Te8 1.878335 1_555
O32 Pb9 2.447094 1_655
O32 Pb1 2.803982 1_555
O33 Te9 1.878334 1_555
O33 Pb8 2.447098 1_555
O33 Pb0 2.803982 1_455
O34 Te10 1.878335 1_555
O34 Pb11 2.447094 1_455
O34 Pb3 2.803982 1_555
O35 Te11 1.878334 1_555
O35 Pb10 2.447098 1_555
O35 Pb2 2.803982 1_655
