# generated using pymatgen
data_Rb2Na2IrO4
_symmetry_space_group_name_H-M   'P 1'
_cell_length_a   10.98404828
_cell_length_b   6.24522014
_cell_length_c   9.77493601
_cell_angle_alpha   64.67315803
_cell_angle_beta   90.00000000
_cell_angle_gamma   90.00000000
_symmetry_Int_Tables_number   1
_chemical_formula_structural   Rb2Na2IrO4
_chemical_formula_sum   'Rb8 Na8 Ir4 O16'
_cell_volume   606.08838583
_cell_formula_units_Z   4
loop_
 _symmetry_equiv_pos_site_id
 _symmetry_equiv_pos_as_xyz
  1  'x, y, z'
loop_
 _atom_site_type_symbol
 _atom_site_label
 _atom_site_symmetry_multiplicity
 _atom_site_fract_x
 _atom_site_fract_y
 _atom_site_fract_z
 _atom_site_occupancy
  Rb  Rb0  1  0.86902528  0.35042413  0.77439792  1
  Rb  Rb1  1  0.13349181  0.32345051  0.00450354  1
  Rb  Rb2  1  0.63349181  0.67654949  0.49549646  1
  Rb  Rb3  1  0.36650819  0.32345051  0.50450354  1
  Rb  Rb4  1  0.36902528  0.64957587  0.72560208  1
  Rb  Rb5  1  0.13097472  0.64957587  0.22560208  1
  Rb  Rb6  1  0.63097472  0.35042413  0.27439792  1
  Rb  Rb7  1  0.86650819  0.67654949  0.99549646  1
  Na  Na0  1  0.61093289  0.93941718  0.09224570  1
  Na  Na1  1  0.60969170  0.43444770  0.91263723  1
  Na  Na2  1  0.89030830  0.43444770  0.41263723  1
  Na  Na3  1  0.88906711  0.93941718  0.59224570  1
  Na  Na4  1  0.10969170  0.56555230  0.58736277  1
  Na  Na5  1  0.11093289  0.06058282  0.40775430  1
  Na  Na6  1  0.39030830  0.56555230  0.08736277  1
  Na  Na7  1  0.38906711  0.06058282  0.90775430  1
  Ir  Ir0  1  0.86664656  0.00851890  0.23803175  1
  Ir  Ir1  1  0.63335344  0.00851890  0.73803175  1
  Ir  Ir2  1  0.36664656  0.99148110  0.26196825  1
  Ir  Ir3  1  0.13335344  0.99148110  0.76196825  1
  O  O0  1  0.95600584  0.79123516  0.41386096  1
  O  O1  1  0.45330822  0.72921012  0.25530370  1
  O  O2  1  0.27734420  0.25635670  0.26077371  1
  O  O3  1  0.72968709  0.21596899  0.56950847  1
  O  O4  1  0.27031291  0.78403101  0.43049153  1
  O  O5  1  0.54399416  0.79123516  0.91386096  1
  O  O6  1  0.77734420  0.74364330  0.23922629  1
  O  O7  1  0.77031291  0.21596899  0.06950847  1
  O  O8  1  0.95330822  0.27078988  0.24469630  1
  O  O9  1  0.22968709  0.78403101  0.93049153  1
  O  O10  1  0.04399416  0.20876484  0.58613904  1
  O  O11  1  0.22265580  0.25635670  0.76077371  1
  O  O12  1  0.54669178  0.27078988  0.74469630  1
  O  O13  1  0.04669178  0.72921012  0.75530370  1
  O  O14  1  0.72265580  0.74364330  0.73922629  1
  O  O15  1  0.45600584  0.20876484  0.08613904  1
loop_
_geom_bond_atom_site_label_1
_geom_bond_atom_site_label_2
_geom_bond_distance
_geom_bond_site_symmetry_2
Na0 O6 2.323203 1_555
Na0 O1 2.339074 1_555
Na0 O15 2.375523 1_565
Na0 O7 2.401807 1_565
Na0 O5 2.412075 1_554
Na1 O14 2.311106 1_555
Na1 O5 2.347049 1_555
Na1 O7 2.352797 1_556
Na1 O12 2.377794 1_555
Na1 O15 2.380626 1_556
Na2 O6 2.311106 1_555
Na2 O0 2.347049 1_555
Na2 O3 2.352797 1_555
Na2 O8 2.377794 1_555
Na2 O10 2.380626 1_655
Na3 O14 2.323203 1_555
Na3 O13 2.339074 1_655
Na3 O10 2.375523 1_665
Na3 O3 2.401807 1_565
Na3 O0 2.412075 1_555
Na4 O11 2.311106 1_555
Na4 O10 2.347049 1_555
Na4 O4 2.352797 1_555
Na4 O13 2.377794 1_555
Na4 O0 2.380626 1_455
Na5 O2 2.323203 1_555
Na5 O8 2.339074 1_455
Na5 O0 2.375523 1_445
Na5 O4 2.401807 1_545
Na5 O10 2.412075 1_555
Na6 O2 2.311106 1_555
Na6 O15 2.347049 1_555
Na6 O9 2.352797 1_554
Na6 O1 2.377794 1_555
Na6 O5 2.380626 1_554
Na7 O11 2.323203 1_555
Na7 O12 2.339074 1_555
Na7 O5 2.375523 1_545
Na7 O9 2.401807 1_545
Na7 O15 2.412075 1_556
Ir0 O6 1.918900 1_545
Ir0 O8 1.919502 1_555
Ir0 O7 1.919849 1_555
Ir0 O0 1.939946 1_545
Ir1 O14 1.918900 1_545
Ir1 O12 1.919502 1_555
Ir1 O3 1.919849 1_555
Ir1 O5 1.939946 1_545
Ir2 O2 1.918900 1_565
Ir2 O1 1.919502 1_555
Ir2 O4 1.919849 1_555
Ir2 O15 1.939946 1_565
Ir3 O11 1.918900 1_565
Ir3 O13 1.919502 1_555
Ir3 O9 1.919849 1_555
Ir3 O10 1.939946 1_565
O0 Rb5 3.042292 1_655
O1 Rb3 2.825412 1_555
O1 Rb2 2.979435 1_555
O1 Rb6 3.010232 1_555
O2 Rb3 2.768554 1_555
O2 Rb5 2.830427 1_555
O2 Rb1 2.837136 1_555
O3 Rb6 2.851268 1_555
O3 Rb2 2.851885 1_555
O3 Rb0 2.915045 1_555
O4 Rb4 2.851268 1_555
O4 Rb3 2.851885 1_555
O4 Rb5 2.915045 1_555
O5 Rb4 3.042292 1_555
O6 Rb7 2.768554 1_554
O6 Rb6 2.830427 1_555
O6 Rb2 2.837136 1_555
O7 Rb0 2.851268 1_554
O7 Rb7 2.851885 1_554
O7 Rb6 2.915045 1_555
O8 Rb7 2.825412 1_554
O8 Rb1 2.979435 1_655
O8 Rb5 3.010232 1_655
O9 Rb5 2.851268 1_556
O9 Rb1 2.851885 1_556
O9 Rb4 2.915045 1_555
O10 Rb0 3.042292 1_455
O11 Rb1 2.768554 1_556
O11 Rb4 2.830427 1_555
O11 Rb3 2.837136 1_555
O12 Rb2 2.825412 1_555
O12 Rb3 2.979435 1_555
O12 Rb4 3.010232 1_555
O13 Rb1 2.825412 1_556
O13 Rb7 2.979435 1_455
O13 Rb0 3.010232 1_455
O14 Rb2 2.768554 1_555
O14 Rb0 2.830427 1_555
O14 Rb7 2.837136 1_555
O15 Rb6 3.042292 1_555
