# generated using pymatgen
data_NaTiCuS3
_symmetry_space_group_name_H-M   'P 1'
_cell_length_a   3.57037789
_cell_length_b   9.57866171
_cell_length_c   12.83113575
_cell_angle_alpha   90.00000000
_cell_angle_beta   90.00000000
_cell_angle_gamma   90.00000000
_symmetry_Int_Tables_number   1
_chemical_formula_structural   NaTiCuS3
_chemical_formula_sum   'Na4 Ti4 Cu4 S12'
_cell_volume   438.81768269
_cell_formula_units_Z   4
loop_
 _symmetry_equiv_pos_site_id
 _symmetry_equiv_pos_as_xyz
  1  'x, y, z'
loop_
 _atom_site_type_symbol
 _atom_site_label
 _atom_site_symmetry_multiplicity
 _atom_site_fract_x
 _atom_site_fract_y
 _atom_site_fract_z
 _atom_site_occupancy
  Na  Na0  1  0.25000000  0.04179165  0.23278730  1
  Na  Na1  1  0.75000000  0.95820835  0.76721270  1
  Na  Na2  1  0.75000000  0.54179165  0.26721270  1
  Na  Na3  1  0.25000000  0.45820835  0.73278730  1
  Ti  Ti0  1  0.25000000  0.32621454  0.01184944  1
  Ti  Ti1  1  0.75000000  0.67378546  0.98815056  1
  Ti  Ti2  1  0.75000000  0.82621454  0.48815056  1
  Ti  Ti3  1  0.25000000  0.17378546  0.51184944  1
  Cu  Cu0  1  0.25000000  0.59476785  0.48786867  1
  Cu  Cu1  1  0.75000000  0.40523215  0.51213133  1
  Cu  Cu2  1  0.75000000  0.09476785  0.01213133  1
  Cu  Cu3  1  0.25000000  0.90523215  0.98786867  1
  S  S0  1  0.25000000  0.56550790  0.09534701  1
  S  S1  1  0.75000000  0.43449210  0.90465299  1
  S  S2  1  0.75000000  0.06550790  0.40465299  1
  S  S3  1  0.25000000  0.93449210  0.59534701  1
  S  S4  1  0.25000000  0.37292407  0.40085611  1
  S  S5  1  0.75000000  0.62707593  0.59914389  1
  S  S6  1  0.75000000  0.87292407  0.09914389  1
  S  S7  1  0.25000000  0.12707593  0.90085611  1
  S  S8  1  0.25000000  0.76105904  0.36549474  1
  S  S9  1  0.75000000  0.23894096  0.63450526  1
  S  S10  1  0.75000000  0.26105904  0.13450526  1
  S  S11  1  0.25000000  0.73894096  0.86549474  1
loop_
_geom_bond_atom_site_label_1
_geom_bond_atom_site_label_2
_geom_bond_distance
_geom_bond_site_symmetry_2
Na0 S2 2.846323 1_455
Na0 S2 2.846323 1_555
Na0 S6 2.956994 1_445
Na0 S6 2.956994 1_545
Na0 S10 3.031239 1_555
Na0 S10 3.031239 1_455
Na0 S8 3.182834 1_545
Na1 S3 2.846323 1_555
Na1 S3 2.846323 1_655
Na1 S7 2.956994 1_565
Na1 S7 2.956994 1_665
Na1 S11 3.031239 1_555
Na1 S11 3.031239 1_655
Na1 S9 3.182834 1_565
Na2 S0 2.846323 1_555
Na2 S0 2.846323 1_655
Na2 S4 2.956994 1_555
Na2 S4 2.956994 1_655
Na2 S8 3.031239 1_555
Na2 S8 3.031239 1_655
Na2 S10 3.182834 1_555
Na3 S1 2.846323 1_455
Na3 S1 2.846323 1_555
Na3 S5 2.956994 1_555
Na3 S5 2.956994 1_455
Na3 S9 3.031239 1_455
Na3 S9 3.031239 1_555
Na3 S11 3.182834 1_555
Cu0 S8 2.236667 1_555
Cu0 S5 2.306783 1_555
Cu0 S5 2.306783 1_455
Cu0 S4 2.400414 1_555
Cu1 S9 2.236667 1_555
Cu1 S4 2.306783 1_655
Cu1 S4 2.306783 1_555
Cu1 S5 2.400414 1_555
Cu2 S10 2.236667 1_555
Cu2 S7 2.306783 1_554
Cu2 S7 2.306783 1_654
Cu2 S6 2.400414 1_545
Cu3 S11 2.236667 1_555
Cu3 S6 2.306783 1_456
Cu3 S6 2.306783 1_556
Cu3 S7 2.400414 1_565
S0 Ti1 2.480818 1_554
S0 Ti1 2.480818 1_454
S0 Ti0 2.530138 1_555
S1 Ti0 2.480818 1_556
S1 Ti0 2.480818 1_656
S1 Ti1 2.530138 1_555
S2 Ti3 2.480818 1_555
S2 Ti3 2.480818 1_655
S2 Ti2 2.530138 1_545
S3 Ti2 2.480818 1_555
S3 Ti2 2.480818 1_455
S3 Ti3 2.530138 1_565
S4 Ti3 2.380493 1_555
S5 Ti2 2.380493 1_555
S6 Ti1 2.380493 1_554
S7 Ti0 2.380493 1_556
S8 Ti2 2.460344 1_555
S8 Ti2 2.460344 1_455
S9 Ti3 2.460344 1_655
S9 Ti3 2.460344 1_555
S10 Ti0 2.460344 1_655
S10 Ti0 2.460344 1_555
S11 Ti1 2.460344 1_455
S11 Ti1 2.460344 1_555
