# generated using pymatgen
data_Rb3U3Ge2O13
_symmetry_space_group_name_H-M   'P 1'
_cell_length_a   9.92373645
_cell_length_b   9.92373645
_cell_length_c   8.52547900
_cell_angle_alpha   90.00000000
_cell_angle_beta   90.00000000
_cell_angle_gamma   120.00000302
_symmetry_Int_Tables_number   1
_chemical_formula_structural   Rb3U3Ge2O13
_chemical_formula_sum   'Rb6 U6 Ge4 O26'
_cell_volume   727.10955482
_cell_formula_units_Z   2
loop_
 _symmetry_equiv_pos_site_id
 _symmetry_equiv_pos_as_xyz
  1  'x, y, z'
loop_
 _atom_site_type_symbol
 _atom_site_label
 _atom_site_symmetry_multiplicity
 _atom_site_fract_x
 _atom_site_fract_y
 _atom_site_fract_z
 _atom_site_occupancy
  Rb  Rb0  1  0.97138300  0.58401600  0.75000000  1
  Rb  Rb1  1  0.38736700  0.41598400  0.25000000  1
  Rb  Rb2  1  0.58401600  0.97138300  0.25000000  1
  Rb  Rb3  1  0.41598400  0.38736700  0.75000000  1
  Rb  Rb4  1  0.61263300  0.02861700  0.75000000  1
  Rb  Rb5  1  0.02861700  0.61263300  0.25000000  1
  U  U0  1  0.00000000  0.23792300  0.50000000  1
  U  U1  1  0.00000000  0.23792300  0.00000000  1
  U  U2  1  0.23792300  0.00000000  0.50000000  1
  U  U3  1  0.23792300  0.00000000  0.00000000  1
  U  U4  1  0.76207700  0.76207700  0.00000000  1
  U  U5  1  0.76207700  0.76207700  0.50000000  1
  Ge  Ge0  1  0.33333300  0.66666700  0.95707500  1
  Ge  Ge1  1  0.66666700  0.33333300  0.04292500  1
  Ge  Ge2  1  0.66666700  0.33333300  0.45707500  1
  Ge  Ge3  1  0.33333300  0.66666700  0.54292500  1
  O  O0  1  0.82324600  0.31206300  0.52083300  1
  O  O1  1  0.51118300  0.68793700  0.47916700  1
  O  O2  1  0.51118300  0.68793700  0.02083300  1
  O  O3  1  0.48881700  0.17675400  0.97916700  1
  O  O4  1  0.00990900  0.25045200  0.75000000  1
  O  O5  1  0.68793700  0.51118300  0.52083300  1
  O  O6  1  0.75945800  0.74954800  0.25000000  1
  O  O7  1  0.66666700  0.33333300  0.25000000  1
  O  O8  1  0.81632400  0.00000000  0.00000000  1
  O  O9  1  0.68793700  0.51118300  0.97916700  1
  O  O10  1  0.18367600  0.18367600  0.50000000  1
  O  O11  1  0.00000000  0.81632400  0.50000000  1
  O  O12  1  0.81632400  0.00000000  0.50000000  1
  O  O13  1  0.18367600  0.18367600  0.00000000  1
  O  O14  1  0.48881700  0.17675400  0.52083300  1
  O  O15  1  0.31206300  0.82324600  0.02083300  1
  O  O16  1  0.24054200  0.99009100  0.75000000  1
  O  O17  1  0.00000000  0.81632400  0.00000000  1
  O  O18  1  0.31206300  0.82324600  0.47916700  1
  O  O19  1  0.33333300  0.66666700  0.75000000  1
  O  O20  1  0.74954800  0.75945800  0.75000000  1
  O  O21  1  0.17675400  0.48881700  0.47916700  1
  O  O22  1  0.82324600  0.31206300  0.97916700  1
  O  O23  1  0.25045200  0.00990900  0.25000000  1
  O  O24  1  0.99009100  0.24054200  0.25000000  1
  O  O25  1  0.17675400  0.48881700  0.02083300  1
loop_
_geom_bond_atom_site_label_1
_geom_bond_atom_site_label_2
_geom_bond_distance
_geom_bond_site_symmetry_2
Ge0 O15 1.755690 1_556
Ge0 O25 1.755696 1_556
Ge0 O2 1.755700 1_556
Ge0 O19 1.765414 1_555
Ge1 O22 1.755690 1_554
Ge1 O3 1.755696 1_554
Ge1 O9 1.755700 1_554
Ge1 O7 1.765414 1_555
Ge2 O0 1.755690 1_555
Ge2 O14 1.755696 1_555
Ge2 O5 1.755700 1_555
Ge2 O7 1.765414 1_555
Ge3 O18 1.755690 1_555
Ge3 O21 1.755696 1_555
Ge3 O1 1.755700 1_555
Ge3 O19 1.765414 1_555
O0 U0 2.222642 1_655
O0 Rb0 3.048661 1_555
O0 Rb4 3.196656 1_555
O1 U5 2.222642 1_555
O1 Rb1 3.048661 1_555
O1 Rb2 3.196656 1_555
O2 U4 2.222642 1_555
O2 Rb1 3.048661 1_555
O2 Rb2 3.196656 1_555
O3 U3 2.222642 1_556
O3 Rb4 3.048661 1_555
O3 Rb3 3.196656 1_555
O4 U1 2.134394 1_556
O4 U0 2.134394 1_555
O5 U5 2.222642 1_555
O5 Rb3 3.048661 1_555
O5 Rb0 3.196656 1_555
O6 U5 2.134395 1_555
O6 U4 2.134395 1_555
O7 Rb2 3.260117 1_545
O7 Rb5 3.260120 1_655
O7 Rb1 3.260126 1_555
O8 U1 2.143239 1_655
O8 U4 2.143239 1_545
O8 Rb2 3.046866 1_545
O8 Rb4 3.046866 1_554
O9 U4 2.222642 1_556
O9 Rb3 3.048661 1_555
O9 Rb0 3.196656 1_555
O10 U0 2.143240 1_555
O10 U2 2.143240 1_555
O10 Rb3 3.046866 1_555
O10 Rb1 3.046866 1_555
O11 U2 2.143239 1_565
O11 U5 2.143239 1_455
O11 Rb0 3.046866 1_455
O11 Rb5 3.046866 1_555
O12 U0 2.143239 1_655
O12 U5 2.143239 1_545
O12 Rb2 3.046866 1_545
O12 Rb4 3.046866 1_555
O13 U3 2.143240 1_555
O13 U1 2.143240 1_555
O13 Rb3 3.046866 1_554
O13 Rb1 3.046866 1_555
O14 U2 2.222642 1_555
O14 Rb4 3.048661 1_555
O14 Rb3 3.196656 1_555
O15 U3 2.222642 1_565
O15 Rb2 3.048661 1_555
O15 Rb5 3.196656 1_555
O16 U2 2.134394 1_565
O16 U3 2.134394 1_566
O17 U3 2.143239 1_565
O17 U4 2.143239 1_455
O17 Rb0 3.046866 1_454
O17 Rb5 3.046866 1_555
O18 U2 2.222642 1_565
O18 Rb2 3.048661 1_555
O18 Rb5 3.196656 1_555
O19 Rb0 3.260117 1_455
O19 Rb4 3.260120 1_565
O19 Rb3 3.260126 1_555
O20 U4 2.134395 1_556
O20 U5 2.134395 1_555
O21 U0 2.222642 1_555
O21 Rb5 3.048661 1_555
O21 Rb1 3.196656 1_555
O22 U1 2.222642 1_656
O22 Rb0 3.048661 1_555
O22 Rb4 3.196656 1_555
O23 U3 2.134394 1_555
O23 U2 2.134394 1_555
O24 U1 2.134394 1_655
O24 U0 2.134394 1_655
O25 U1 2.222642 1_555
O25 Rb5 3.048661 1_555
O25 Rb1 3.196656 1_555
