# generated using pymatgen
data_PrS2
_symmetry_space_group_name_H-M   'P 1'
_cell_length_a   4.08673914
_cell_length_b   8.12857887
_cell_length_c   8.18156307
_cell_angle_alpha   90.02683856
_cell_angle_beta   90.00000000
_cell_angle_gamma   90.00000000
_symmetry_Int_Tables_number   1
_chemical_formula_structural   PrS2
_chemical_formula_sum   'Pr4 S8'
_cell_volume   271.78643416
_cell_formula_units_Z   4
loop_
 _symmetry_equiv_pos_site_id
 _symmetry_equiv_pos_as_xyz
  1  'x, y, z'
loop_
 _atom_site_type_symbol
 _atom_site_label
 _atom_site_symmetry_multiplicity
 _atom_site_fract_x
 _atom_site_fract_y
 _atom_site_fract_z
 _atom_site_occupancy
  Pr  Pr0  1  0.20985867  0.12979209  0.27594628  1
  Pr  Pr1  1  0.29014133  0.62979209  0.27594628  1
  Pr  Pr2  1  0.79014133  0.87020791  0.72405372  1
  Pr  Pr3  1  0.70985867  0.37020791  0.72405372  1
  S  S0  1  0.73866833  0.37460687  0.36681632  1
  S  S1  1  0.84748250  0.60593888  0.00260785  1
  S  S2  1  0.23866833  0.12539313  0.63318368  1
  S  S3  1  0.26133167  0.62539313  0.63318368  1
  S  S4  1  0.76133167  0.87460687  0.36681632  1
  S  S5  1  0.34748250  0.89406112  0.99739215  1
  S  S6  1  0.65251750  0.10593888  0.00260785  1
  S  S7  1  0.15251750  0.39406112  0.99739215  1
loop_
_geom_bond_atom_site_label_1
_geom_bond_atom_site_label_2
_geom_bond_distance
_geom_bond_site_symmetry_2
Pr0 S4 2.866497 1_445
Pr0 S0 2.866965 1_455
Pr0 S6 2.882877 1_555
Pr0 S2 2.925366 1_555
Pr0 S5 3.029485 1_544
Pr0 S0 3.030151 1_555
Pr0 S7 3.141313 1_554
Pr0 S4 3.152166 1_545
Pr0 S6 3.197865 1_455
Pr1 S0 2.866497 1_555
Pr1 S4 2.866965 1_555
Pr1 S1 2.882877 1_455
Pr1 S3 2.925366 1_555
Pr1 S7 3.029485 1_554
Pr1 S4 3.030151 1_455
Pr1 S5 3.141313 1_554
Pr1 S0 3.152166 1_455
Pr1 S1 3.197865 1_555
Pr2 S2 2.866497 1_665
Pr2 S3 2.866965 1_655
Pr2 S5 2.882877 1_555
Pr2 S4 2.925366 1_555
Pr2 S6 3.029485 1_566
Pr2 S3 3.030151 1_555
Pr2 S1 3.141313 1_556
Pr2 S2 3.152166 1_565
Pr2 S5 3.197865 1_655
Pr3 S3 2.866497 1_555
Pr3 S2 2.866965 1_555
Pr3 S7 2.882877 1_655
Pr3 S0 2.925366 1_555
Pr3 S1 3.029485 1_556
Pr3 S2 3.030151 1_655
Pr3 S6 3.141313 1_556
Pr3 S3 3.152166 1_655
Pr3 S7 3.197865 1_555
S1 S7 2.126489 1_654
S5 S6 2.126489 1_566
