# generated using pymatgen
data_Na7Fe4(PO4)6
_symmetry_space_group_name_H-M   'P 1'
_cell_length_a   9.89609540
_cell_length_b   9.89609540
_cell_length_c   9.89609504
_cell_angle_alpha   86.67409009
_cell_angle_beta   86.67409009
_cell_angle_gamma   86.67408996
_symmetry_Int_Tables_number   1
_chemical_formula_structural   Na7Fe4(PO4)6
_chemical_formula_sum   'Na14 Fe8 P12 O48'
_cell_volume   964.43617281
_cell_formula_units_Z   2
loop_
 _symmetry_equiv_pos_site_id
 _symmetry_equiv_pos_as_xyz
  1  'x, y, z'
loop_
 _atom_site_type_symbol
 _atom_site_label
 _atom_site_symmetry_multiplicity
 _atom_site_fract_x
 _atom_site_fract_y
 _atom_site_fract_z
 _atom_site_occupancy
  Na  Na0  1  0.21727100  0.65123300  0.46727900  1
  Na  Na1  1  0.78272900  0.34876700  0.53272100  1
  Na  Na2  1  0.53272100  0.78272900  0.34876700  1
  Na  Na3  1  0.96727900  0.15123300  0.71727100  1
  Na  Na4  1  0.65123300  0.46727900  0.21727100  1
  Na  Na5  1  0.46727900  0.21727100  0.65123300  1
  Na  Na6  1  0.34876700  0.53272100  0.78272900  1
  Na  Na7  1  0.28272900  0.03272100  0.84876700  1
  Na  Na8  1  0.50000000  0.50000000  0.50000000  1
  Na  Na9  1  0.84876700  0.28272900  0.03272100  1
  Na  Na10  1  0.03272100  0.84876700  0.28272900  1
  Na  Na11  1  0.71727100  0.96727900  0.15123300  1
  Na  Na12  1  0.15123300  0.71727100  0.96727900  1
  Na  Na13  1  0.00000000  0.00000000  0.00000000  1
  Fe  Fe0  1  0.02836700  0.47163300  0.25000000  1
  Fe  Fe1  1  0.97163300  0.52836700  0.75000000  1
  Fe  Fe2  1  0.47163300  0.25000000  0.02836700  1
  Fe  Fe3  1  0.52836700  0.75000000  0.97163300  1
  Fe  Fe4  1  0.25000000  0.02836700  0.47163300  1
  Fe  Fe5  1  0.75000000  0.75000000  0.75000000  1
  Fe  Fe6  1  0.75000000  0.97163300  0.52836700  1
  Fe  Fe7  1  0.25000000  0.25000000  0.25000000  1
  P  P0  1  0.34362600  0.55096000  0.17255300  1
  P  P1  1  0.82744700  0.65637400  0.44904000  1
  P  P2  1  0.55096000  0.17255300  0.34362600  1
  P  P3  1  0.67255300  0.05096000  0.84362600  1
  P  P4  1  0.17255300  0.34362600  0.55096000  1
  P  P5  1  0.15637400  0.32744700  0.94904000  1
  P  P6  1  0.94904000  0.15637400  0.32744700  1
  P  P7  1  0.65637400  0.44904000  0.82744700  1
  P  P8  1  0.84362600  0.67255300  0.05096000  1
  P  P9  1  0.05096000  0.84362600  0.67255300  1
  P  P10  1  0.44904000  0.82744700  0.65637400  1
  P  P11  1  0.32744700  0.94904000  0.15637400  1
  O  O0  1  0.38837100  0.61483400  0.03052800  1
  O  O1  1  0.40226700  0.71178800  0.57839900  1
  O  O2  1  0.37513300  0.39178700  0.16823100  1
  O  O3  1  0.16823100  0.37513300  0.39178700  1
  O  O4  1  0.08558800  0.68835700  0.69360500  1
  O  O5  1  0.78821200  0.09773300  0.92160100  1
  O  O6  1  0.21178800  0.90226700  0.07839900  1
  O  O7  1  0.11483400  0.88837100  0.53052800  1
  O  O8  1  0.61162900  0.38516600  0.96947200  1
  O  O9  1  0.61483400  0.03052800  0.38837100  1
  O  O10  1  0.96947200  0.61162900  0.38516600  1
  O  O11  1  0.18835700  0.58558800  0.19360500  1
  O  O12  1  0.33176900  0.10821300  0.12486700  1
  O  O13  1  0.68835700  0.69360500  0.08558800  1
  O  O14  1  0.41441200  0.80639500  0.81164300  1
  O  O15  1  0.09773300  0.92160100  0.78821200  1
  O  O16  1  0.81164300  0.41441200  0.80639500  1
  O  O17  1  0.91441200  0.31164300  0.30639500  1
  O  O18  1  0.88516600  0.11162900  0.46947200  1
  O  O19  1  0.90226700  0.07839900  0.21178800  1
  O  O20  1  0.30639500  0.91441200  0.31164300  1
  O  O21  1  0.57839900  0.40226700  0.71178800  1
  O  O22  1  0.11162900  0.46947200  0.88516600  1
  O  O23  1  0.60821300  0.83176900  0.62486700  1
  O  O24  1  0.03052800  0.38837100  0.61483400  1
  O  O25  1  0.83176900  0.62486700  0.60821300  1
  O  O26  1  0.10821300  0.12486700  0.33176900  1
  O  O27  1  0.88837100  0.53052800  0.11483400  1
  O  O28  1  0.12486700  0.33176900  0.10821300  1
  O  O29  1  0.46947200  0.88516600  0.11162900  1
  O  O30  1  0.07839900  0.21178800  0.90226700  1
  O  O31  1  0.31164300  0.30639500  0.91441200  1
  O  O32  1  0.42160100  0.59773300  0.28821200  1
  O  O33  1  0.53052800  0.11483400  0.88837100  1
  O  O34  1  0.62486700  0.60821300  0.83176900  1
  O  O35  1  0.59773300  0.28821200  0.42160100  1
  O  O36  1  0.92160100  0.78821200  0.09773300  1
  O  O37  1  0.28821200  0.42160100  0.59773300  1
  O  O38  1  0.71178800  0.57839900  0.40226700  1
  O  O39  1  0.66823100  0.89178700  0.87513300  1
  O  O40  1  0.19360500  0.18835700  0.58558800  1
  O  O41  1  0.69360500  0.08558800  0.68835700  1
  O  O42  1  0.38516600  0.96947200  0.61162900  1
  O  O43  1  0.39178700  0.16823100  0.37513300  1
  O  O44  1  0.80639500  0.81164300  0.41441200  1
  O  O45  1  0.58558800  0.19360500  0.18835700  1
  O  O46  1  0.87513300  0.66823100  0.89178700  1
  O  O47  1  0.89178700  0.87513300  0.66823100  1
loop_
_geom_bond_atom_site_label_1
_geom_bond_atom_site_label_2
_geom_bond_distance
_geom_bond_site_symmetry_2
Na0 O1 2.314584 1_555
Na0 O4 2.559468 1_555
Na0 O7 2.597573 1_555
Na0 O37 2.627399 1_555
Na0 O32 2.660481 1_555
Na0 O10 2.684604 1_455
Na1 O35 2.314584 1_555
Na1 O17 2.559468 1_555
Na1 O18 2.597573 1_555
Na1 O38 2.627399 1_555
Na1 O21 2.660481 1_555
Na1 O24 2.684604 1_655
Na2 O32 2.314584 1_555
Na2 O20 2.559468 1_555
Na2 O29 2.597573 1_555
Na2 O1 2.627399 1_555
Na2 O38 2.660481 1_555
Na2 O9 2.684604 1_565
Na3 O30 2.314584 1_655
Na3 O40 2.559468 1_655
Na3 O24 2.597573 1_655
Na3 O15 2.627399 1_645
Na3 O5 2.660481 1_555
Na3 O18 2.684604 1_555
Na4 O38 2.314584 1_555
Na4 O13 2.559468 1_555
Na4 O27 2.597573 1_555
Na4 O32 2.627399 1_555
Na4 O35 2.660481 1_555
Na4 O8 2.684604 1_554
Na5 O21 2.314584 1_555
Na5 O41 2.559468 1_555
Na5 O33 2.597573 1_555
Na5 O35 2.627399 1_555
Na5 O37 2.660481 1_555
Na5 O42 2.684604 1_545
Na6 O37 2.314584 1_555
Na6 O31 2.559468 1_555
Na6 O22 2.597573 1_555
Na6 O21 2.627399 1_555
Na6 O1 2.660481 1_555
Na6 O0 2.684604 1_556
Na7 O15 2.314584 1_545
Na7 O14 2.559468 1_545
Na7 O42 2.597573 1_545
Na7 O6 2.627399 1_546
Na7 O30 2.660481 1_555
Na7 O33 2.684604 1_555
Na8 O32 2.407583 1_555
Na8 O21 2.407583 1_555
Na8 O35 2.407583 1_555
Na8 O1 2.407583 1_555
Na8 O38 2.407583 1_555
Na8 O37 2.407583 1_555
Na9 O5 2.314584 1_554
Na9 O16 2.559468 1_554
Na9 O8 2.597573 1_554
Na9 O30 2.627399 1_654
Na9 O19 2.660481 1_555
Na9 O27 2.684604 1_555
Na10 O36 2.314584 1_455
Na10 O44 2.559468 1_455
Na10 O10 2.597573 1_455
Na10 O19 2.627399 1_465
Na10 O6 2.660481 1_555
Na10 O7 2.684604 1_555
Na11 O19 2.314584 1_565
Na11 O45 2.559468 1_565
Na11 O9 2.597573 1_565
Na11 O5 2.627399 1_564
Na11 O36 2.660481 1_555
Na11 O29 2.684604 1_555
Na12 O6 2.314584 1_556
Na12 O11 2.559468 1_556
Na12 O0 2.597573 1_556
Na12 O36 2.627399 1_456
Na12 O15 2.660481 1_555
Na12 O22 2.684604 1_555
Na13 O19 2.407583 1_455
Na13 O15 2.407583 1_544
Na13 O6 2.407583 1_545
Na13 O5 2.407583 1_454
Na13 O30 2.407583 1_554
Na13 O36 2.407583 1_445
Fe0 O10 2.019691 1_455
Fe0 O27 2.019691 1_455
Fe0 O11 2.030166 1_555
Fe0 O17 2.030166 1_455
Fe0 O3 2.170949 1_555
Fe0 O28 2.170949 1_555
Fe1 O24 2.019691 1_655
Fe1 O22 2.019691 1_655
Fe1 O4 2.030166 1_655
Fe1 O16 2.030166 1_555
Fe1 O25 2.170949 1_555
Fe1 O46 2.170949 1_555
Fe2 O33 2.019691 1_554
Fe2 O8 2.019691 1_554
Fe2 O45 2.030166 1_555
Fe2 O31 2.030166 1_554
Fe2 O2 2.170949 1_555
Fe2 O12 2.170949 1_555
Fe3 O29 2.019691 1_556
Fe3 O0 2.019691 1_556
Fe3 O14 2.030166 1_555
Fe3 O13 2.030166 1_556
Fe3 O34 2.170949 1_555
Fe3 O39 2.170949 1_555
Fe4 O42 2.019691 1_545
Fe4 O7 2.019691 1_545
Fe4 O20 2.030166 1_545
Fe4 O40 2.030166 1_555
Fe4 O26 2.170949 1_555
Fe4 O43 2.170949 1_555
Fe5 O46 2.027472 1_555
Fe5 O25 2.027472 1_555
Fe5 O23 2.027472 1_555
Fe5 O39 2.027472 1_555
Fe5 O47 2.027472 1_555
Fe5 O34 2.027472 1_555
Fe6 O9 2.019691 1_565
Fe6 O18 2.019691 1_565
Fe6 O41 2.030166 1_565
Fe6 O44 2.030166 1_555
Fe6 O47 2.170949 1_555
Fe6 O23 2.170949 1_555
Fe7 O28 2.027472 1_555
Fe7 O3 2.027472 1_555
Fe7 O12 2.027472 1_555
Fe7 O43 2.027472 1_555
Fe7 O26 2.027472 1_555
Fe7 O2 2.027472 1_555
O0 P0 1.558274 1_555
O1 P10 1.524838 1_555
O2 P0 1.590458 1_555
O3 P4 1.590458 1_555
O4 P9 1.559450 1_555
O5 P3 1.524838 1_555
O6 P11 1.524838 1_555
O7 P9 1.558274 1_555
O8 P7 1.558274 1_555
O9 P2 1.558274 1_555
O10 P1 1.558274 1_555
O11 P0 1.559450 1_555
O12 P11 1.590458 1_545
O13 P8 1.559450 1_555
O14 P10 1.559450 1_555
O15 P9 1.524838 1_555
O16 P7 1.559450 1_555
O17 P6 1.559450 1_555
O18 P6 1.558274 1_555
O19 P6 1.524838 1_555
O20 P11 1.559450 1_555
O21 P7 1.524838 1_555
O22 P5 1.558274 1_555
O23 P10 1.590458 1_555
O24 P4 1.558274 1_555
O25 P1 1.590458 1_555
O26 P6 1.590458 1_455
O27 P8 1.558274 1_555
O28 P5 1.590458 1_554
O29 P11 1.558274 1_555
O30 P5 1.524838 1_555
O31 P5 1.559450 1_555
O32 P0 1.524838 1_555
O33 P3 1.558274 1_555
O34 P7 1.590458 1_555
O35 P2 1.524838 1_555
O36 P8 1.524838 1_555
O37 P4 1.524838 1_555
O38 P1 1.524838 1_555
O39 P3 1.590458 1_565
O40 P4 1.559450 1_555
O41 P3 1.559450 1_555
O42 P10 1.558274 1_555
O43 P2 1.590458 1_555
O44 P1 1.559450 1_555
O45 P2 1.559450 1_555
O46 P8 1.590458 1_556
O47 P9 1.590458 1_655
