# generated using pymatgen
data_Ho3Se4O12F
_symmetry_space_group_name_H-M   'P 1'
_cell_length_a   10.43498740
_cell_length_b   10.43498740
_cell_length_c   6.84493200
_cell_angle_alpha   90.00000000
_cell_angle_beta   90.00000000
_cell_angle_gamma   119.99999618
_symmetry_Int_Tables_number   1
_chemical_formula_structural   Ho3Se4O12F
_chemical_formula_sum   'Ho6 Se8 O24 F2'
_cell_volume   645.48126914
_cell_formula_units_Z   2
loop_
 _symmetry_equiv_pos_site_id
 _symmetry_equiv_pos_as_xyz
  1  'x, y, z'
loop_
 _atom_site_type_symbol
 _atom_site_label
 _atom_site_symmetry_multiplicity
 _atom_site_fract_x
 _atom_site_fract_y
 _atom_site_fract_z
 _atom_site_occupancy
  Ho  Ho0  1  0.07574800  0.53787400  0.20266600  1
  Ho  Ho1  1  0.46212600  0.92425200  0.20266600  1
  Ho  Ho2  1  0.53787400  0.07574800  0.70266600  1
  Ho  Ho3  1  0.92425200  0.46212600  0.70266600  1
  Ho  Ho4  1  0.46212600  0.53787400  0.20266600  1
  Ho  Ho5  1  0.53787400  0.46212600  0.70266600  1
  Se  Se0  1  0.30950100  0.15475100  0.93562300  1
  Se  Se1  1  0.84524900  0.15475100  0.93562300  1
  Se  Se2  1  0.33333300  0.66666700  0.76825200  1
  Se  Se3  1  0.84524900  0.69049900  0.93562300  1
  Se  Se4  1  0.69049900  0.84524900  0.43562300  1
  Se  Se5  1  0.66666700  0.33333300  0.26825200  1
  Se  Se6  1  0.15475100  0.84524900  0.43562300  1
  Se  Se7  1  0.15475100  0.30950100  0.43562300  1
  O  O0  1  0.33664600  0.41697200  0.50556200  1
  O  O1  1  0.91967400  0.33664600  0.00556200  1
  O  O2  1  0.41939800  0.83879700  0.88186600  1
  O  O3  1  0.33664600  0.91967400  0.50556200  1
  O  O4  1  0.63575100  0.81787500  0.19469100  1
  O  O5  1  0.41939800  0.58060200  0.88186600  1
  O  O6  1  0.18212500  0.81787500  0.19469100  1
  O  O7  1  0.66335400  0.58302800  0.00556200  1
  O  O8  1  0.83879700  0.41939800  0.38186600  1
  O  O9  1  0.41697200  0.33664600  0.00556200  1
  O  O10  1  0.36424900  0.18212500  0.69469100  1
  O  O11  1  0.58060200  0.41939800  0.38186600  1
  O  O12  1  0.66335400  0.08032600  0.00556200  1
  O  O13  1  0.58060200  0.16120300  0.38186600  1
  O  O14  1  0.81787500  0.63575100  0.69469100  1
  O  O15  1  0.58302800  0.91967400  0.50556200  1
  O  O16  1  0.81787500  0.18212500  0.69469100  1
  O  O17  1  0.08032600  0.41697200  0.50556200  1
  O  O18  1  0.16120300  0.58060200  0.88186600  1
  O  O19  1  0.18212500  0.36424900  0.19469100  1
  O  O20  1  0.91967400  0.58302800  0.00556200  1
  O  O21  1  0.08032600  0.66335400  0.50556200  1
  O  O22  1  0.41697200  0.08032600  0.00556200  1
  O  O23  1  0.58302800  0.66335400  0.50556200  1
  F  F0  1  0.66666700  0.33333300  0.74880500  1
  F  F1  1  0.33333300  0.66666700  0.24880500  1
loop_
_geom_bond_atom_site_label_1
_geom_bond_atom_site_label_2
_geom_bond_distance
_geom_bond_site_symmetry_2
Ho0 O18 2.327692 1_554
Ho0 O20 2.337107 1_455
Ho0 O1 2.337107 1_455
Ho0 O17 2.439835 1_555
Ho0 O21 2.439835 1_555
Ho0 O8 2.467756 1_455
Ho0 O6 2.555152 1_555
Ho0 O19 2.555161 1_555
Ho1 O2 2.327692 1_554
Ho1 O22 2.337107 1_565
Ho1 O12 2.337107 1_565
Ho1 O15 2.439835 1_555
Ho1 O3 2.439835 1_555
Ho1 O13 2.467756 1_565
Ho1 O6 2.555152 1_555
Ho1 O4 2.555161 1_555
Ho2 O13 2.327692 1_555
Ho2 O15 2.337107 1_545
Ho2 O3 2.337107 1_545
Ho2 O22 2.439835 1_556
Ho2 O12 2.439835 1_556
Ho2 O2 2.467756 1_545
Ho2 O16 2.555152 1_555
Ho2 O10 2.555161 1_555
Ho3 O8 2.327692 1_555
Ho3 O17 2.337107 1_655
Ho3 O21 2.337107 1_655
Ho3 O20 2.439835 1_556
Ho3 O1 2.439835 1_556
Ho3 O18 2.467756 1_655
Ho3 O16 2.555152 1_555
Ho3 O14 2.555161 1_555
Ho4 O5 2.327695 1_554
Ho4 O9 2.337107 1_555
Ho4 O7 2.337107 1_555
Ho4 O23 2.439835 1_555
Ho4 O0 2.439835 1_555
Ho4 O11 2.467763 1_555
Ho4 O4 2.555153 1_555
Ho4 O19 2.555153 1_555
Ho5 O11 2.327695 1_555
Ho5 O0 2.337107 1_555
Ho5 O23 2.337107 1_555
Ho5 O7 2.439835 1_556
Ho5 O9 2.439835 1_556
Ho5 O5 2.467763 1_555
Ho5 O14 2.555153 1_555
Ho5 O10 2.555153 1_555
O0 Se7 1.720732 1_555
O1 Se1 1.720731 1_554
O2 Se2 1.739100 1_555
O3 Se6 1.720731 1_555
O4 Se4 1.721779 1_555
O5 Se2 1.739100 1_555
O6 Se6 1.721779 1_555
O7 Se3 1.720732 1_554
O8 Se5 1.739100 1_555
O9 Se0 1.720732 1_554
O10 Se0 1.721779 1_555
O11 Se5 1.739100 1_555
O12 Se1 1.720731 1_554
O13 Se5 1.739100 1_555
O14 Se3 1.721779 1_555
O15 Se4 1.720740 1_555
O16 Se1 1.721779 1_555
O17 Se7 1.720740 1_555
O18 Se2 1.739100 1_555
O19 Se7 1.721779 1_555
O20 Se3 1.720740 1_554
O21 Se6 1.720731 1_555
O22 Se0 1.720740 1_554
O23 Se4 1.720732 1_555
F0 Ho3 2.349113 1_555
F0 Ho2 2.349113 1_555
F0 Ho5 2.349122 1_555
F1 Ho1 2.349113 1_555
F1 Ho0 2.349113 1_555
F1 Ho4 2.349122 1_555
