# generated using pymatgen
data_ZnS
_symmetry_space_group_name_H-M   'P 1'
_cell_length_a   3.80789543
_cell_length_b   3.80789543
_cell_length_c   49.81813663
_cell_angle_alpha   90.00000000
_cell_angle_beta   90.00000000
_cell_angle_gamma   119.99999122
_symmetry_Int_Tables_number   1
_chemical_formula_structural   ZnS
_chemical_formula_sum   'Zn16 S16'
_cell_volume   625.58766471
_cell_formula_units_Z   16
loop_
 _symmetry_equiv_pos_site_id
 _symmetry_equiv_pos_as_xyz
  1  'x, y, z'
loop_
 _atom_site_type_symbol
 _atom_site_label
 _atom_site_symmetry_multiplicity
 _atom_site_fract_x
 _atom_site_fract_y
 _atom_site_fract_z
 _atom_site_occupancy
  Zn  Zn0  1  0.33333300  0.66666700  0.62501656  1
  Zn  Zn1  1  0.66666700  0.33333300  0.12503043  1
  Zn  Zn2  1  0.00000000  -0.00000000  0.37501104  1
  Zn  Zn3  1  0.33333300  0.66666700  0.06255570  1
  Zn  Zn4  1  0.66666700  0.33333300  0.50002289  1
  Zn  Zn5  1  0.33333300  0.66666700  0.25001091  1
  Zn  Zn6  1  0.66666700  0.33333300  0.31251823  1
  Zn  Zn7  1  0.00000000  0.00000000  0.75000378  1
  Zn  Zn8  1  0.66666700  0.33333300  0.68752190  1
  Zn  Zn9  1  0.00000000  -0.00000000  0.18751322  1
  Zn  Zn10  1  0.33333300  0.66666700  0.43751492  1
  Zn  Zn11  1  0.33333300  0.66666700  0.93753359  1
  Zn  Zn12  1  0.00000000  -0.00000000  0.56251327  1
  Zn  Zn13  1  0.66666700  0.33333300  0.87501143  1
  Zn  Zn14  1  0.33333300  0.66666700  0.81248100  1
  Zn  Zn15  1  0.00000000  0.00000000  0.00001497  1
  S  S0  1  0.00000000  -0.00000000  0.23434753  1
  S  S1  1  0.33333300  0.66666700  0.29685200  1
  S  S2  1  0.66666700  0.33333300  0.35935432  1
  S  S3  1  0.66666700  0.33333300  0.54685795  1
  S  S4  1  0.33333300  0.66666700  0.10936788  1
  S  S5  1  0.66666700  0.33333300  0.73435405  1
  S  S6  1  0.33333300  0.66666700  0.98430846  1
  S  S7  1  0.66666700  0.33333300  0.92189692  1
  S  S8  1  -0.00000000  -0.00000000  0.79683605  1
  S  S9  1  0.33333300  0.66666700  0.67185853  1
  S  S10  1  0.00000000  -0.00000000  0.42185262  1
  S  S11  1  0.33333300  0.66666700  0.85929103  1
  S  S12  1  -0.00000000  -0.00000000  0.60935236  1
  S  S13  1  0.00000000  -0.00000000  0.04690161  1
  S  S14  1  0.66666700  0.33333300  0.17185766  1
  S  S15  1  0.33333300  0.66666700  0.48435820  1
loop_
_geom_bond_atom_site_label_1
_geom_bond_atom_site_label_2
_geom_bond_distance
_geom_bond_site_symmetry_2
S0 Zn5 2.332862 1_545
S0 Zn5 2.332866 1_445
S0 Zn5 2.332866 1_555
S0 Zn9 2.333198 1_555
S1 Zn6 2.332910 1_455
S1 Zn6 2.332910 1_565
S1 Zn6 2.332916 1_555
S1 Zn5 2.333536 1_555
S2 Zn2 2.332751 1_655
S2 Zn2 2.332755 1_555
S2 Zn2 2.332755 1_665
S2 Zn6 2.333287 1_555
S3 Zn12 2.332728 1_655
S3 Zn12 2.332731 1_555
S3 Zn12 2.332731 1_665
S3 Zn4 2.333235 1_555
S4 Zn3 2.332096 1_555
S4 Zn1 2.332849 1_455
S4 Zn1 2.332849 1_565
S4 Zn1 2.332855 1_555
S5 Zn7 2.332635 1_655
S5 Zn7 2.332638 1_555
S5 Zn7 2.332638 1_665
S5 Zn8 2.333090 1_555
S6 Zn11 2.330237 1_555
S6 Zn15 2.333582 1_566
S6 Zn15 2.333585 1_666
S6 Zn15 2.333585 1_556
S7 Zn11 2.332418 1_655
S7 Zn11 2.332418 1_545
S7 Zn11 2.332424 1_555
S7 Zn13 2.335748 1_555
S8 Zn14 2.332555 1_545
S8 Zn14 2.332559 1_445
S8 Zn14 2.332559 1_555
S8 Zn7 2.333096 1_555
S9 Zn8 2.332862 1_455
S9 Zn8 2.332862 1_565
S9 Zn8 2.332868 1_555
S9 Zn0 2.333580 1_555
S10 Zn10 2.332844 1_545
S10 Zn10 2.332848 1_445
S10 Zn10 2.332848 1_555
S10 Zn2 2.333560 1_555
S11 Zn14 2.331988 1_555
S11 Zn13 2.333814 1_455
S11 Zn13 2.333814 1_565
S11 Zn13 2.333820 1_555
S12 Zn0 2.332876 1_545
S12 Zn0 2.332879 1_445
S12 Zn0 2.332879 1_555
S12 Zn12 2.333436 1_555
S13 Zn3 2.332707 1_545
S13 Zn3 2.332711 1_445
S13 Zn3 2.332711 1_555
S13 Zn15 2.335805 1_555
S14 Zn9 2.332732 1_655
S14 Zn9 2.332735 1_555
S14 Zn9 2.332735 1_665
S14 Zn1 2.332845 1_555
S15 Zn4 2.332884 1_455
S15 Zn4 2.332884 1_565
S15 Zn4 2.332890 1_555
S15 Zn10 2.333645 1_555
