# generated using pymatgen
data_CsLuS2
_symmetry_space_group_name_H-M   'P 1'
_cell_length_a   8.36812854
_cell_length_b   8.36812849
_cell_length_c   8.36812721
_cell_angle_alpha   27.57090429
_cell_angle_beta   27.57090297
_cell_angle_gamma   27.57090807
_symmetry_Int_Tables_number   1
_chemical_formula_structural   CsLuS2
_chemical_formula_sum   'Cs1 Lu1 S2'
_cell_volume   110.81040567
_cell_formula_units_Z   1
loop_
 _symmetry_equiv_pos_site_id
 _symmetry_equiv_pos_as_xyz
  1  'x, y, z'
loop_
 _atom_site_type_symbol
 _atom_site_label
 _atom_site_symmetry_multiplicity
 _atom_site_fract_x
 _atom_site_fract_y
 _atom_site_fract_z
 _atom_site_occupancy
  Cs  Cs0  1  0.00000000  -0.00000000  -0.00000000  1
  Lu  Lu0  1  0.50000000  0.50000000  0.50000000  1
  S  S0  1  0.77408323  0.77408323  0.77408323  1
  S  S1  1  0.22591677  0.22591677  0.22591677  1
loop_
_geom_bond_atom_site_label_1
_geom_bond_atom_site_label_2
_geom_bond_distance
_geom_bond_site_symmetry_2
Cs0 S1 3.467380 1_554
Cs0 S0 3.467380 1_445
Cs0 S1 3.467381 1_455
Cs0 S0 3.467381 1_544
Cs0 S1 3.467381 1_545
Cs0 S0 3.467381 1_454
Lu0 S0 2.710429 1_554
Lu0 S1 2.710429 1_556
Lu0 S1 2.710430 1_655
Lu0 S0 2.710430 1_455
Lu0 S0 2.710430 1_545
Lu0 S1 2.710430 1_565
