# generated using pymatgen
data_LiCaBO3
_symmetry_space_group_name_H-M   'P 1'
_cell_length_a   6.12726600
_cell_length_b   6.23753400
_cell_length_c   13.34483700
_cell_angle_alpha   90.00000000
_cell_angle_beta   90.00000000
_cell_angle_gamma   90.00000000
_symmetry_Int_Tables_number   1
_chemical_formula_structural   LiCaBO3
_chemical_formula_sum   'Li8 Ca8 B8 O24'
_cell_volume   510.02672568
_cell_formula_units_Z   8
loop_
 _symmetry_equiv_pos_site_id
 _symmetry_equiv_pos_as_xyz
  1  'x, y, z'
loop_
 _atom_site_type_symbol
 _atom_site_label
 _atom_site_symmetry_multiplicity
 _atom_site_fract_x
 _atom_site_fract_y
 _atom_site_fract_z
 _atom_site_occupancy
  Li  Li0  1  0.51559400  0.20908900  0.75198500  1
  Li  Li1  1  0.48440600  0.29091100  0.25198500  1
  Li  Li2  1  0.98440600  0.70908900  0.24801500  1
  Li  Li3  1  0.01559400  0.79091100  0.74801500  1
  Li  Li4  1  0.01559400  0.29091100  0.75198500  1
  Li  Li5  1  0.48440600  0.79091100  0.24801500  1
  Li  Li6  1  0.51559400  0.70908900  0.74801500  1
  Li  Li7  1  0.98440600  0.20908900  0.25198500  1
  Ca  Ca0  1  0.24890200  0.50962700  0.07026800  1
  Ca  Ca1  1  0.75109800  0.99037300  0.57026800  1
  Ca  Ca2  1  0.25109800  0.00962700  0.92973200  1
  Ca  Ca3  1  0.74890200  0.99037300  0.07026800  1
  Ca  Ca4  1  0.25109800  0.50962700  0.57026800  1
  Ca  Ca5  1  0.74890200  0.49037300  0.42973200  1
  Ca  Ca6  1  0.24890200  0.00962700  0.42973200  1
  Ca  Ca7  1  0.75109800  0.49037300  0.92973200  1
  B  B0  1  0.75007200  0.48250600  0.64782300  1
  B  B1  1  0.75007200  0.98250600  0.85217700  1
  B  B2  1  0.25007200  0.01749400  0.64782300  1
  B  B3  1  0.74992800  0.48250600  0.14782300  1
  B  B4  1  0.24992800  0.01749400  0.14782300  1
  B  B5  1  0.25007200  0.51749400  0.85217700  1
  B  B6  1  0.74992800  0.98250600  0.35217700  1
  B  B7  1  0.24992800  0.51749400  0.35217700  1
  O  O0  1  0.39828600  0.14425200  0.59516100  1
  O  O1  1  0.10171400  0.64425200  0.40483900  1
  O  O2  1  0.11806600  0.37383700  0.90477300  1
  O  O3  1  0.61806600  0.62616300  0.59522700  1
  O  O4  1  0.89828600  0.85574800  0.90483900  1
  O  O5  1  0.89828600  0.35574800  0.59516100  1
  O  O6  1  0.26627000  0.53479100  0.24914900  1
  O  O7  1  0.76627000  0.96520900  0.24914900  1
  O  O8  1  0.23373000  0.03479100  0.75085100  1
  O  O9  1  0.73373000  0.46520900  0.75085100  1
  O  O10  1  0.76627000  0.46520900  0.25085100  1
  O  O11  1  0.10171400  0.14425200  0.09516100  1
  O  O12  1  0.11806600  0.87383700  0.59522700  1
  O  O13  1  0.23373000  0.53479100  0.74914900  1
  O  O14  1  0.60171400  0.85574800  0.40483900  1
  O  O15  1  0.26627000  0.03479100  0.25085100  1
  O  O16  1  0.60171400  0.35574800  0.09516100  1
  O  O17  1  0.38193400  0.37383700  0.40477300  1
  O  O18  1  0.38193400  0.87383700  0.09522700  1
  O  O19  1  0.61806600  0.12616300  0.90477300  1
  O  O20  1  0.39828600  0.64425200  0.90483900  1
  O  O21  1  0.88193400  0.12616300  0.40477300  1
  O  O22  1  0.88193400  0.62616300  0.09522700  1
  O  O23  1  0.73373000  0.96520900  0.74914900  1
loop_
_geom_bond_atom_site_label_1
_geom_bond_atom_site_label_2
_geom_bond_distance
_geom_bond_site_symmetry_2
Li0 O23 2.025327 1_545
Li0 O8 2.040816 1_555
Li0 O9 2.082992 1_555
Li0 O19 2.195226 1_555
Li0 O0 2.249438 1_555
Li1 O6 2.025327 1_555
Li1 O10 2.040816 1_555
Li1 O15 2.082992 1_555
Li1 O17 2.195226 1_555
Li1 O16 2.249438 1_555
Li2 O10 2.025327 1_555
Li2 O6 2.040816 1_655
Li2 O7 2.082992 1_555
Li2 O22 2.195226 1_555
Li2 O1 2.249438 1_655
Li3 O8 2.025327 1_565
Li3 O23 2.040816 1_455
Li3 O13 2.082992 1_555
Li3 O12 2.195226 1_555
Li3 O4 2.249438 1_455
Li4 O13 2.025327 1_555
Li4 O9 2.040816 1_455
Li4 O8 2.082992 1_555
Li4 O2 2.195226 1_555
Li4 O5 2.249438 1_455
Li5 O15 2.025327 1_565
Li5 O7 2.040816 1_555
Li5 O6 2.082992 1_555
Li5 O18 2.195226 1_555
Li5 O14 2.249438 1_555
Li6 O9 2.025327 1_555
Li6 O13 2.040816 1_555
Li6 O23 2.082992 1_555
Li6 O3 2.195226 1_555
Li6 O20 2.249438 1_555
Li7 O7 2.025327 1_545
Li7 O15 2.040816 1_655
Li7 O10 2.082992 1_555
Li7 O21 2.195226 1_555
Li7 O11 2.249438 1_655
Ca0 O22 2.386445 1_455
Ca0 O16 2.388489 1_555
Ca0 O6 2.394658 1_555
Ca0 O18 2.436455 1_555
Ca0 O11 2.473403 1_555
Ca0 O2 2.497511 1_554
Ca0 O20 2.533090 1_554
Ca1 O12 2.386445 1_655
Ca1 O0 2.388489 1_565
Ca1 O23 2.394658 1_555
Ca1 O3 2.436455 1_555
Ca1 O5 2.473403 1_565
Ca1 O21 2.497511 1_565
Ca1 O14 2.533090 1_555
Ca2 O19 2.386445 1_555
Ca2 O4 2.388489 1_445
Ca2 O8 2.394658 1_555
Ca2 O2 2.436455 1_555
Ca2 O20 2.473403 1_545
Ca2 O18 2.497511 1_546
Ca2 O11 2.533090 1_556
Ca3 O18 2.386445 1_555
Ca3 O11 2.388489 1_665
Ca3 O7 2.394658 1_555
Ca3 O22 2.436455 1_555
Ca3 O16 2.473403 1_565
Ca3 O19 2.497511 1_564
Ca3 O4 2.533090 1_554
Ca4 O3 2.386445 1_555
Ca4 O5 2.388489 1_455
Ca4 O13 2.394658 1_555
Ca4 O12 2.436455 1_555
Ca4 O0 2.473403 1_555
Ca4 O17 2.497511 1_555
Ca4 O1 2.533090 1_555
Ca5 O17 2.386445 1_555
Ca5 O1 2.388489 1_655
Ca5 O10 2.394658 1_555
Ca5 O21 2.436455 1_555
Ca5 O14 2.473403 1_555
Ca5 O3 2.497511 1_555
Ca5 O5 2.533090 1_555
Ca6 O21 2.386445 1_455
Ca6 O14 2.388489 1_545
Ca6 O15 2.394658 1_555
Ca6 O17 2.436455 1_555
Ca6 O1 2.473403 1_545
Ca6 O12 2.497511 1_545
Ca6 O0 2.533090 1_555
Ca7 O2 2.386445 1_655
Ca7 O20 2.388489 1_555
Ca7 O9 2.394658 1_555
Ca7 O19 2.436455 1_555
Ca7 O4 2.473403 1_555
Ca7 O22 2.497511 1_556
Ca7 O16 2.533090 1_556
B0 O9 1.382749 1_555
B0 O5 1.394184 1_555
B0 O3 1.396349 1_555
B1 O23 1.382749 1_555
B1 O4 1.394184 1_555
B1 O19 1.396349 1_565
B2 O8 1.382749 1_555
B2 O0 1.394184 1_555
B2 O12 1.396349 1_545
B3 O10 1.382749 1_555
B3 O16 1.394184 1_555
B3 O22 1.396349 1_555
B4 O15 1.382749 1_555
B4 O11 1.394184 1_555
B4 O18 1.396349 1_545
B5 O13 1.382749 1_555
B5 O20 1.394184 1_555
B5 O2 1.396349 1_555
B6 O7 1.382749 1_555
B6 O14 1.394184 1_555
B6 O21 1.396349 1_565
B7 O6 1.382749 1_555
B7 O1 1.394184 1_555
B7 O17 1.396349 1_555
