# generated using pymatgen
data_Zn3As2
_symmetry_space_group_name_H-M   'P 1'
_cell_length_a   14.63075564
_cell_length_b   14.63075564
_cell_length_c   14.63075564
_cell_angle_alpha   131.98986971
_cell_angle_beta   131.98986971
_cell_angle_gamma   70.24502705
_symmetry_Int_Tables_number   1
_chemical_formula_structural   Zn3As2
_chemical_formula_sum   'Zn48 As32'
_cell_volume   1695.79014195
_cell_formula_units_Z   16
loop_
 _symmetry_equiv_pos_site_id
 _symmetry_equiv_pos_as_xyz
  1  'x, y, z'
loop_
 _atom_site_type_symbol
 _atom_site_label
 _atom_site_symmetry_multiplicity
 _atom_site_fract_x
 _atom_site_fract_y
 _atom_site_fract_z
 _atom_site_occupancy
  Zn  Zn0  1  0.71010900  0.18364400  0.76678600  1
  Zn  Zn1  1  0.05667700  0.28989100  0.47353600  1
  Zn  Zn2  1  0.33366600  0.33594200  0.77692700  1
  Zn  Zn3  1  0.41633400  0.91405800  0.72307300  1
  Zn  Zn4  1  0.29411000  0.04196700  0.97769600  1
  Zn  Zn5  1  0.80673900  0.30901500  0.72307300  1
  Zn  Zn6  1  0.19098500  0.69326100  0.27692700  1
  Zn  Zn7  1  0.05901500  0.83594200  0.00227500  1
  Zn  Zn8  1  0.55901500  0.55673900  0.22307300  1
  Zn  Zn9  1  0.03989100  0.06635600  0.73321400  1
  Zn  Zn10  1  0.31635600  0.78989100  0.23321400  1
  Zn  Zn11  1  0.91633400  0.19326100  0.50227500  1
  Zn  Zn12  1  0.21010900  0.44332300  0.52646400  1
  Zn  Zn13  1  0.58594200  0.08366600  0.27692700  1
  Zn  Zn14  1  0.06427100  0.31641400  0.02230400  1
  Zn  Zn15  1  0.94326100  0.94098500  0.77692700  1
  Zn  Zn16  1  0.19332300  0.16685900  0.73321400  1
  Zn  Zn17  1  0.29196700  0.04411000  0.47769600  1
  Zn  Zn18  1  0.93364400  0.66685900  0.97353600  1
  Zn  Zn19  1  0.83366600  0.05673900  0.99772500  1
  Zn  Zn20  1  0.56427100  0.54196700  0.74785700  1
  Zn  Zn21  1  0.53989100  0.80667700  0.97353600  1
  Zn  Zn22  1  0.43364400  0.46010900  0.26678600  1
  Zn  Zn23  1  0.45803300  0.20589000  0.02230400  1
  Zn  Zn24  1  0.69332300  0.96010900  0.02646400  1
  Zn  Zn25  1  0.33314100  0.30667700  0.26678600  1
  Zn  Zn26  1  0.83314100  0.56635600  0.02646400  1
  Zn  Zn27  1  0.06641400  0.54411000  0.75214300  1
  Zn  Zn28  1  0.81635600  0.58314100  0.52646400  1
  Zn  Zn29  1  0.45589000  0.20803300  0.52230400  1
  Zn  Zn30  1  0.95803300  0.93572900  0.25214300  1
  Zn  Zn31  1  0.91685900  0.68364400  0.47353600  1
  Zn  Zn32  1  0.66405800  0.44098500  0.99772500  1
  Zn  Zn33  1  0.79196700  0.31427100  0.24785700  1
  Zn  Zn34  1  0.18572900  0.70803300  0.75214300  1
  Zn  Zn35  1  0.95589000  0.43358600  0.24785700  1
  Zn  Zn36  1  0.55667700  0.08314100  0.76678600  1
  Zn  Zn37  1  0.08594200  0.80901500  0.50227500  1
  Zn  Zn38  1  0.18358600  0.43572900  0.97769600  1
  Zn  Zn39  1  0.41685900  0.94332300  0.23321400  1
  Zn  Zn40  1  0.68358600  0.70589000  0.74785700  1
  Zn  Zn41  1  0.30673900  0.58366600  0.49772500  1
  Zn  Zn42  1  0.79411000  0.81641400  0.25214300  1
  Zn  Zn43  1  0.69098500  0.41405800  0.49772500  1
  Zn  Zn44  1  0.56641400  0.81427100  0.52230400  1
  Zn  Zn45  1  0.16405800  0.16633400  0.22307300  1
  Zn  Zn46  1  0.44326100  0.66633400  0.00227500  1
  Zn  Zn47  1  0.68572900  0.93358600  0.47769600  1
  As  As0  1  0.50681100  0.75358800  0.25701000  1
  As  As1  1  0.87405800  0.37405800  0.50000000  1
  As  As2  1  0.74641200  0.99318900  0.74299000  1
  As  As3  1  0.12500000  0.12968400  0.50468400  1
  As  As4  1  0.62500000  0.62031600  0.49531600  1
  As  As5  1  0.75342200  0.99641200  0.25322300  1
  As  As6  1  0.37968400  0.87500000  0.00468400  1
  As  As7  1  0.37594200  0.37594200  0.00000000  1
  As  As8  1  0.49980100  0.24657800  0.24299000  1
  As  As9  1  0.25019900  0.00342200  0.25701000  1
  As  As10  1  0.50358800  0.74657800  0.74677700  1
  As  As11  1  0.12500000  0.62968400  0.00468400  1
  As  As12  1  0.24641200  0.50342200  0.75322300  1
  As  As13  1  0.74318900  0.50019900  0.74677700  1
  As  As14  1  0.62405800  0.62405800  0.00000000  1
  As  As15  1  0.99657800  0.25358800  0.24677700  1
  As  As16  1  0.00358800  0.25681100  0.75701000  1
  As  As17  1  0.87968400  0.87500000  0.50468400  1
  As  As18  1  0.62500000  0.12031600  0.99531600  1
  As  As19  1  0.12594200  0.62594200  0.50000000  1
  As  As20  1  0.87594200  0.87594200  0.00000000  1
  As  As21  1  0.49657800  0.24980100  0.74299000  1
  As  As22  1  0.87031600  0.37500000  0.99531600  1
  As  As23  1  0.75019900  0.49318900  0.24677700  1
  As  As24  1  0.99980100  0.75681100  0.25322300  1
  As  As25  1  0.62594200  0.12594200  0.50000000  1
  As  As26  1  0.24318900  0.49641200  0.24299000  1
  As  As27  1  0.00681100  0.74980100  0.75322300  1
  As  As28  1  0.37405800  0.87405800  0.50000000  1
  As  As29  1  0.37031600  0.37500000  0.49531600  1
  As  As30  1  0.25342200  0.00019900  0.75701000  1
  As  As31  1  0.12405800  0.12405800  0.00000000  1
loop_
_geom_bond_atom_site_label_1
_geom_bond_atom_site_label_2
_geom_bond_distance
_geom_bond_site_symmetry_2
As0 Zn10 2.473217 1_555
As0 Zn46 2.486837 1_555
As0 Zn47 2.487393 1_555
As0 Zn8 2.496325 1_555
As0 Zn39 2.787407 1_555
As0 Zn44 2.828083 1_555
As1 Zn27 2.506191 1_655
As1 Zn33 2.506191 1_555
As1 Zn11 2.522893 1_555
As1 Zn43 2.522909 1_555
As1 Zn28 2.706879 1_555
As1 Zn1 2.706879 1_655
As2 Zn0 2.473217 1_565
As2 Zn19 2.486837 1_565
As2 Zn44 2.487393 1_555
As2 Zn15 2.496325 1_555
As2 Zn36 2.787407 1_565
As2 Zn47 2.828083 1_555
As3 Zn1 2.436560 1_555
As3 Zn16 2.436560 1_555
As3 Zn30 2.500518 1_445
As3 Zn17 2.500518 1_555
As3 Zn11 2.857820 1_455
As3 Zn2 2.857827 1_555
As4 Zn22 2.436568 1_555
As4 Zn28 2.436574 1_555
As4 Zn40 2.500518 1_555
As4 Zn44 2.500518 1_555
As4 Zn8 2.857827 1_555
As4 Zn43 2.857834 1_555
As5 Zn24 2.473231 1_555
As5 Zn13 2.486823 1_565
As5 Zn42 2.487393 1_555
As5 Zn11 2.496324 1_565
As5 Zn21 2.787407 1_554
As5 Zn30 2.828083 1_555
As6 Zn39 2.436560 1_555
As6 Zn21 2.436560 1_554
As6 Zn34 2.500518 1_554
As6 Zn4 2.500518 1_564
As6 Zn46 2.857820 1_555
As6 Zn13 2.857827 1_565
As7 Zn38 2.506191 1_554
As7 Zn23 2.506191 1_555
As7 Zn2 2.522901 1_554
As7 Zn8 2.522901 1_555
As7 Zn16 2.706879 1_554
As7 Zn22 2.706886 1_555
As8 Zn25 2.473231 1_555
As8 Zn43 2.486825 1_555
As8 Zn23 2.487393 1_555
As8 Zn13 2.496325 1_555
As8 Zn22 2.787408 1_555
As8 Zn4 2.828083 1_554
As9 Zn39 2.473231 1_545
As9 Zn7 2.486825 1_545
As9 Zn17 2.487393 1_555
As9 Zn45 2.496325 1_555
As9 Zn10 2.787408 1_545
As9 Zn29 2.828083 1_555
As10 Zn21 2.473231 1_555
As10 Zn3 2.486823 1_555
As10 Zn40 2.487393 1_555
As10 Zn41 2.496324 1_555
As10 Zn24 2.787407 1_556
As10 Zn20 2.828083 1_555
As11 Zn10 2.436568 1_555
As11 Zn18 2.436574 1_454
As11 Zn27 2.500518 1_554
As11 Zn38 2.500518 1_554
As11 Zn6 2.857827 1_555
As11 Zn7 2.857834 1_555
As12 Zn12 2.473231 1_555
As12 Zn2 2.486823 1_555
As12 Zn27 2.487393 1_555
As12 Zn46 2.496324 1_556
As12 Zn1 2.787407 1_555
As12 Zn34 2.828083 1_555
As13 Zn18 2.473223 1_555
As13 Zn5 2.486823 1_555
As13 Zn20 2.487393 1_555
As13 Zn43 2.496311 1_555
As13 Zn26 2.787400 1_556
As13 Zn40 2.828083 1_555
As14 Zn20 2.506191 1_554
As14 Zn42 2.506191 1_555
As14 Zn46 2.522893 1_555
As14 Zn32 2.522909 1_554
As14 Zn26 2.706879 1_555
As14 Zn21 2.706879 1_554
As15 Zn1 2.473231 1_655
As15 Zn45 2.486823 1_655
As15 Zn35 2.487393 1_555
As15 Zn19 2.496324 1_554
As15 Zn12 2.787407 1_655
As15 Zn33 2.828083 1_555
As16 Zn9 2.473217 1_555
As16 Zn11 2.486837 1_455
As16 Zn38 2.487393 1_555
As16 Zn5 2.496325 1_455
As16 Zn16 2.787407 1_555
As16 Zn14 2.828083 1_556
As17 Zn9 2.436568 1_665
As17 Zn31 2.436574 1_555
As17 Zn42 2.500518 1_555
As17 Zn47 2.500518 1_555
As17 Zn15 2.857827 1_555
As17 Zn37 2.857834 1_655
As18 Zn36 2.436560 1_555
As18 Zn24 2.436560 1_546
As18 Zn33 2.500518 1_556
As18 Zn23 2.500518 1_556
As18 Zn19 2.857820 1_555
As18 Zn3 2.857827 1_545
As19 Zn35 2.506191 1_455
As19 Zn34 2.506191 1_555
As19 Zn41 2.522893 1_555
As19 Zn37 2.522909 1_555
As19 Zn31 2.706879 1_455
As19 Zn12 2.706879 1_555
As20 Zn40 2.506191 1_554
As20 Zn30 2.506191 1_555
As20 Zn19 2.522893 1_564
As20 Zn7 2.522909 1_655
As20 Zn18 2.706879 1_554
As20 Zn24 2.706879 1_555
As21 Zn36 2.473231 1_555
As21 Zn32 2.486825 1_555
As21 Zn29 2.487393 1_555
As21 Zn2 2.496325 1_555
As21 Zn0 2.787408 1_555
As21 Zn17 2.828083 1_555
As22 Zn0 2.436568 1_555
As22 Zn26 2.436574 1_556
As22 Zn14 2.500518 1_656
As22 Zn35 2.500518 1_556
As22 Zn5 2.857827 1_555
As22 Zn32 2.857834 1_555
As23 Zn31 2.473223 1_555
As23 Zn8 2.486823 1_555
As23 Zn33 2.487393 1_555
As23 Zn32 2.496311 1_554
As23 Zn28 2.787400 1_555
As23 Zn35 2.828083 1_555
As24 Zn26 2.473223 1_555
As24 Zn6 2.486823 1_655
As24 Zn30 2.487393 1_555
As24 Zn37 2.496311 1_655
As24 Zn18 2.787400 1_554
As24 Zn42 2.828083 1_555
As25 Zn47 2.506191 1_545
As25 Zn29 2.506191 1_555
As25 Zn5 2.522901 1_555
As25 Zn13 2.522901 1_555
As25 Zn39 2.706879 1_545
As25 Zn0 2.706886 1_555
As26 Zn22 2.473217 1_555
As26 Zn41 2.486837 1_555
As26 Zn14 2.487393 1_555
As26 Zn6 2.496325 1_555
As26 Zn25 2.787407 1_555
As26 Zn38 2.828083 1_554
As27 Zn28 2.473223 1_455
As27 Zn15 2.486823 1_455
As27 Zn34 2.487393 1_555
As27 Zn7 2.496311 1_556
As27 Zn31 2.787400 1_455
As27 Zn27 2.828083 1_555
As28 Zn44 2.506191 1_555
As28 Zn17 2.506191 1_565
As28 Zn3 2.522901 1_555
As28 Zn6 2.522901 1_555
As28 Zn36 2.706879 1_565
As28 Zn10 2.706886 1_555
As29 Zn25 2.436560 1_555
As29 Zn12 2.436560 1_555
As29 Zn29 2.500518 1_555
As29 Zn20 2.500518 1_555
As29 Zn41 2.857820 1_555
As29 Zn45 2.857827 1_555
As30 Zn16 2.473231 1_555
As30 Zn37 2.486825 1_545
As30 Zn4 2.487393 1_555
As30 Zn3 2.496325 1_545
As30 Zn9 2.787408 1_555
As30 Zn23 2.828083 1_556
As31 Zn14 2.506191 1_555
As31 Zn4 2.506191 1_554
As31 Zn45 2.522901 1_555
As31 Zn15 2.522901 1_444
As31 Zn25 2.706879 1_555
As31 Zn9 2.706886 1_554
