# generated using pymatgen
data_TiCl3
_symmetry_space_group_name_H-M   'P 1'
_cell_length_a   6.38099538
_cell_length_b   6.38099373
_cell_length_c   5.67047114
_cell_angle_alpha   90.00261407
_cell_angle_beta   90.00264852
_cell_angle_gamma   119.99955558
_symmetry_Int_Tables_number   1
_chemical_formula_structural   TiCl3
_chemical_formula_sum   'Ti2 Cl6'
_cell_volume   199.95325018
_cell_formula_units_Z   2
loop_
 _symmetry_equiv_pos_site_id
 _symmetry_equiv_pos_as_xyz
  1  'x, y, z'
loop_
 _atom_site_type_symbol
 _atom_site_label
 _atom_site_symmetry_multiplicity
 _atom_site_fract_x
 _atom_site_fract_y
 _atom_site_fract_z
 _atom_site_occupancy
  Ti  Ti0  1  0.99998461  0.99998461  0.00003175  1
  Ti  Ti1  1  0.99999069  0.99999069  0.49997270  1
  Cl  Cl0  1  0.69533887  0.00002222  0.75011440  1
  Cl  Cl1  1  0.00001758  0.30469757  0.24988449  1
  Cl  Cl2  1  0.30469757  0.00001758  0.24988549  1
  Cl  Cl3  1  0.00002222  0.69533887  0.75011440  1
  Cl  Cl4  1  0.69529468  0.69529468  0.24983618  1
  Cl  Cl5  1  0.30465277  0.30465277  0.75015959  1
loop_
_geom_bond_atom_site_label_1
_geom_bond_atom_site_label_2
_geom_bond_distance
_geom_bond_site_symmetry_2
Cl0 Ti0 2.405709 1_546
Cl0 Ti1 2.406581 1_545
Cl1 Ti0 2.405659 1_445
Cl1 Ti1 2.406534 1_445
Cl2 Ti0 2.405662 1_445
Cl2 Ti1 2.406532 1_445
Cl3 Ti0 2.405710 1_456
Cl3 Ti1 2.406580 1_455
Cl4 Ti0 2.405632 1_555
Cl4 Ti1 2.406562 1_555
Cl5 Ti0 2.405746 1_446
Cl5 Ti1 2.406555 1_445
