# generated using pymatgen
data_Li2Pr(NO3)5
_symmetry_space_group_name_H-M   'P 1'
_cell_length_a   8.93996956
_cell_length_b   10.45932374
_cell_length_c   11.64053922
_cell_angle_alpha   90.00000000
_cell_angle_beta   90.00000000
_cell_angle_gamma   90.00000000
_symmetry_Int_Tables_number   1
_chemical_formula_structural   Li2Pr(NO3)5
_chemical_formula_sum   'Li8 Pr4 N20 O60'
_cell_volume   1088.46067766
_cell_formula_units_Z   4
loop_
 _symmetry_equiv_pos_site_id
 _symmetry_equiv_pos_as_xyz
  1  'x, y, z'
loop_
 _atom_site_type_symbol
 _atom_site_label
 _atom_site_symmetry_multiplicity
 _atom_site_fract_x
 _atom_site_fract_y
 _atom_site_fract_z
 _atom_site_occupancy
  Li  Li0  1  0.61898806  0.77262953  0.81959348  1
  Li  Li1  1  0.38101194  0.22737047  0.18040652  1
  Li  Li2  1  0.11898806  0.72737047  0.31959348  1
  Li  Li3  1  0.38101194  0.22737047  0.81959348  1
  Li  Li4  1  0.11898806  0.72737047  0.68040652  1
  Li  Li5  1  0.88101194  0.27262953  0.31959348  1
  Li  Li6  1  0.88101194  0.27262953  0.68040652  1
  Li  Li7  1  0.61898806  0.77262953  0.18040652  1
  Pr  Pr0  1  0.00000000  0.50000000  -0.00000000  1
  Pr  Pr1  1  0.00000000  -0.00000000  -0.00000000  1
  Pr  Pr2  1  0.50000000  0.50000000  0.50000000  1
  Pr  Pr3  1  0.50000000  -0.00000000  0.50000000  1
  N  N0  1  0.60070060  0.34300782  0.70944029  1
  N  N1  1  0.39929940  0.65699218  0.29055971  1
  N  N2  1  0.89929940  0.84300782  0.20944029  1
  N  N3  1  0.50000000  -0.00000000  0.76173914  1
  N  N4  1  0.67364727  0.75108226  0.50000000  1
  N  N5  1  0.17364727  0.74891774  -0.00000000  1
  N  N6  1  0.10070060  0.15699218  0.79055971  1
  N  N7  1  0.00000000  0.50000000  0.73826086  1
  N  N8  1  0.70791956  0.64950885  -0.00000000  1
  N  N9  1  0.00000000  0.50000000  0.26173914  1
  N  N10  1  0.20791956  0.85049115  0.50000000  1
  N  N11  1  0.50000000  -0.00000000  0.23826086  1
  N  N12  1  0.29208044  0.35049115  -0.00000000  1
  N  N13  1  0.10070060  0.15699218  0.20944029  1
  N  N14  1  0.82635273  0.25108226  -0.00000000  1
  N  N15  1  0.79208044  0.14950885  0.50000000  1
  N  N16  1  0.39929940  0.65699218  0.70944029  1
  N  N17  1  0.60070060  0.34300782  0.29055971  1
  N  N18  1  0.89929940  0.84300782  0.79055971  1
  N  N19  1  0.32635273  0.24891774  0.50000000  1
  O  O0  1  0.46336580  0.37247921  0.70215856  1
  O  O1  1  0.96336580  0.12752079  0.20215856  1
  O  O2  1  0.94135686  0.40921248  0.20322791  1
  O  O3  1  0.09803030  0.77690546  0.50000000  1
  O  O4  1  0.81045782  0.88578789  0.86770268  1
  O  O5  1  0.94135686  0.40921248  0.79677209  1
  O  O6  1  0.85272080  0.77280750  0.28663503  1
  O  O7  1  0.50000000  -0.00000000  0.86656919  1
  O  O8  1  0.23405636  0.38696691  0.09354948  1
  O  O9  1  0.73405636  0.11303309  0.40645052  1
  O  O10  1  0.35272080  0.72719250  0.21336497  1
  O  O11  1  0.85272080  0.77280750  0.71336497  1
  O  O12  1  0.03663420  0.87247921  0.20215856  1
  O  O13  1  0.35272080  0.72719250  0.78663503  1
  O  O14  1  0.53663420  0.62752079  0.70215856  1
  O  O15  1  0.05864314  0.59078752  0.79677209  1
  O  O16  1  0.00000000  0.50000000  0.63343081  1
  O  O17  1  0.23405636  0.38696691  0.90645052  1
  O  O18  1  0.76594364  0.61303309  0.90645052  1
  O  O19  1  0.31045782  0.61421211  0.63229732  1
  O  O20  1  0.03663420  0.87247921  0.79784144  1
  O  O21  1  0.81045782  0.88578789  0.13229732  1
  O  O22  1  0.96336580  0.12752079  0.79784144  1
  O  O23  1  0.76594364  0.61303309  0.09354948  1
  O  O24  1  0.55864314  0.90921248  0.70322791  1
  O  O25  1  0.26594364  0.88696691  0.40645052  1
  O  O26  1  0.52861236  0.75271781  0.50000000  1
  O  O27  1  0.00000000  0.50000000  0.36656919  1
  O  O28  1  0.68954218  0.38578789  0.36770268  1
  O  O29  1  0.14727920  0.22719250  0.71336497  1
  O  O30  1  0.53663420  0.62752079  0.29784144  1
  O  O31  1  0.26021914  0.14466021  0.50000000  1
  O  O32  1  0.44135686  0.09078752  0.29677209  1
  O  O33  1  0.76021914  0.35533979  -0.00000000  1
  O  O34  1  0.14727920  0.22719250  0.28663503  1
  O  O35  1  0.59803030  0.72309454  -0.00000000  1
  O  O36  1  0.47138764  0.24728219  0.50000000  1
  O  O37  1  0.44135686  0.09078752  0.70322791  1
  O  O38  1  0.18954218  0.11421211  0.13229732  1
  O  O39  1  0.73726870  0.64530312  0.50000000  1
  O  O40  1  0.18954218  0.11421211  0.86770268  1
  O  O41  1  0.76273130  0.14530312  -0.00000000  1
  O  O42  1  0.64727920  0.27280750  0.21336497  1
  O  O43  1  0.05864314  0.59078752  0.20322791  1
  O  O44  1  0.73405636  0.11303309  0.59354948  1
  O  O45  1  0.40196970  0.27690546  -0.00000000  1
  O  O46  1  0.46336580  0.37247921  0.29784144  1
  O  O47  1  0.55864314  0.90921248  0.29677209  1
  O  O48  1  0.31045782  0.61421211  0.36770268  1
  O  O49  1  0.02861236  0.74728219  -0.00000000  1
  O  O50  1  0.50000000  -0.00000000  0.13343081  1
  O  O51  1  0.23978086  0.64466021  -0.00000000  1
  O  O52  1  0.97138764  0.25271781  -0.00000000  1
  O  O53  1  0.64727920  0.27280750  0.78663503  1
  O  O54  1  0.73978086  0.85533979  0.50000000  1
  O  O55  1  0.26594364  0.88696691  0.59354948  1
  O  O56  1  0.90196970  0.22309454  0.50000000  1
  O  O57  1  0.23726870  0.85469688  -0.00000000  1
  O  O58  1  0.68954218  0.38578789  0.63229732  1
  O  O59  1  0.26273130  0.35469688  0.50000000  1
loop_
_geom_bond_atom_site_label_1
_geom_bond_atom_site_label_2
_geom_bond_distance
_geom_bond_site_symmetry_2
Li0 O24 2.041241 1_555
Li0 O4 2.155102 1_555
Li0 O35 2.171096 1_556
Li0 O14 2.171241 1_555
Li0 O18 2.352600 1_555
Li0 O11 2.428035 1_555
Li0 O13 2.457529 1_555
Li1 O32 2.041241 1_555
Li1 O38 2.155102 1_555
Li1 O45 2.171096 1_555
Li1 O46 2.171241 1_555
Li1 O8 2.352600 1_555
Li1 O34 2.428035 1_555
Li1 O42 2.457529 1_555
Li2 O43 2.041241 1_555
Li2 O48 2.155102 1_555
Li2 O3 2.171096 1_555
Li2 O12 2.171241 1_555
Li2 O25 2.352600 1_555
Li2 O10 2.428035 1_555
Li2 O6 2.457529 1_455
Li3 O37 2.041241 1_555
Li3 O40 2.155102 1_555
Li3 O45 2.171096 1_556
Li3 O0 2.171241 1_555
Li3 O17 2.352600 1_555
Li3 O29 2.428035 1_555
Li3 O53 2.457529 1_555
Li4 O15 2.041241 1_555
Li4 O19 2.155102 1_555
Li4 O3 2.171096 1_555
Li4 O20 2.171241 1_555
Li4 O55 2.352600 1_555
Li4 O13 2.428035 1_555
Li4 O11 2.457529 1_455
Li5 O2 2.041241 1_555
Li5 O28 2.155102 1_555
Li5 O56 2.171096 1_555
Li5 O1 2.171241 1_555
Li5 O9 2.352600 1_555
Li5 O42 2.428035 1_555
Li5 O34 2.457529 1_655
Li6 O5 2.041241 1_555
Li6 O58 2.155102 1_555
Li6 O56 2.171096 1_555
Li6 O22 2.171241 1_555
Li6 O44 2.352600 1_555
Li6 O53 2.428035 1_555
Li6 O29 2.457529 1_655
Li7 O47 2.041241 1_555
Li7 O21 2.155102 1_555
Li7 O35 2.171096 1_555
Li7 O30 2.171241 1_555
Li7 O23 2.352600 1_555
Li7 O6 2.428035 1_555
Li7 O10 2.457529 1_555
N0 O53 1.232874 1_555
N0 O0 1.268708 1_555
N0 O58 1.279613 1_555
N1 O10 1.232874 1_555
N1 O30 1.268708 1_555
N1 O48 1.279613 1_555
N2 O6 1.232874 1_555
N2 O12 1.268708 1_655
N2 O21 1.279613 1_555
N3 O7 1.220278 1_555
N3 O37 1.280801 1_555
N3 O24 1.280801 1_545
N4 O54 1.240430 1_555
N4 O39 1.244016 1_555
N4 O26 1.296721 1_555
N5 O51 1.240430 1_555
N5 O57 1.244016 1_555
N5 O49 1.296721 1_555
N6 O29 1.232874 1_555
N6 O22 1.268708 1_455
N6 O40 1.279613 1_555
N7 O16 1.220278 1_555
N7 O15 1.280801 1_555
N7 O5 1.280801 1_455
N8 O35 1.247996 1_555
N8 O18 1.265102 1_554
N8 O23 1.265102 1_555
N9 O27 1.220278 1_555
N9 O43 1.280801 1_555
N9 O2 1.280801 1_455
N10 O3 1.247996 1_555
N10 O55 1.265102 1_555
N10 O25 1.265102 1_555
N11 O50 1.220278 1_555
N11 O32 1.280801 1_555
N11 O47 1.280801 1_545
N12 O45 1.247996 1_555
N12 O17 1.265102 1_554
N12 O8 1.265102 1_555
N13 O34 1.232874 1_555
N13 O1 1.268708 1_455
N13 O38 1.279613 1_555
N14 O33 1.240430 1_555
N14 O41 1.244016 1_555
N14 O52 1.296721 1_555
N15 O56 1.247996 1_555
N15 O44 1.265102 1_555
N15 O9 1.265102 1_555
N16 O13 1.232874 1_555
N16 O14 1.268708 1_555
N16 O19 1.279613 1_555
N17 O42 1.232874 1_555
N17 O46 1.268708 1_555
N17 O28 1.279613 1_555
N18 O11 1.232874 1_555
N18 O20 1.268708 1_655
N18 O4 1.279613 1_555
N19 O31 1.240430 1_555
N19 O59 1.244016 1_555
N19 O36 1.296721 1_555
O0 Pr2 2.724692 1_555
O1 Pr1 2.724692 1_655
O2 Pr0 2.602500 1_655
O4 Pr1 2.582634 1_666
O5 Pr0 2.602500 1_656
O8 Pr0 2.638548 1_555
O9 Pr3 2.638548 1_555
O12 Pr1 2.724692 1_565
O14 Pr2 2.724692 1_555
O15 Pr0 2.602500 1_556
O17 Pr0 2.638548 1_556
O18 Pr0 2.638548 1_656
O19 Pr2 2.582634 1_555
O20 Pr1 2.724692 1_566
O21 Pr1 2.582634 1_665
O22 Pr1 2.724692 1_656
O23 Pr0 2.638548 1_655
O24 Pr3 2.602500 1_565
O25 Pr3 2.638548 1_565
O26 Pr3 2.599023 1_565
O26 Pr2 2.655605 1_555
O28 Pr2 2.582634 1_555
O30 Pr2 2.724692 1_555
O31 Pr3 2.623829 1_555
O32 Pr3 2.602500 1_555
O33 Pr0 2.623829 1_655
O36 Pr3 2.599023 1_555
O36 Pr2 2.655605 1_555
O37 Pr3 2.602500 1_555
O38 Pr1 2.582634 1_555
O39 Pr2 2.609424 1_555
O40 Pr1 2.582634 1_556
O41 Pr1 2.609424 1_655
O43 Pr0 2.602500 1_555
O44 Pr3 2.638548 1_555
O46 Pr2 2.724692 1_555
O47 Pr3 2.602500 1_565
O48 Pr2 2.582634 1_555
O49 Pr0 2.599023 1_555
O49 Pr1 2.655605 1_565
O51 Pr0 2.623829 1_555
O52 Pr0 2.599023 1_655
O52 Pr1 2.655605 1_655
O54 Pr3 2.623829 1_565
O55 Pr3 2.638548 1_565
O57 Pr1 2.609424 1_565
O58 Pr2 2.582634 1_555
O59 Pr2 2.609424 1_555
