# generated using pymatgen
data_Na4Nb9(P2O13)3
_symmetry_space_group_name_H-M   'P 1'
_cell_length_a   5.50569305
_cell_length_b   14.69566259
_cell_length_c   20.20459405
_cell_angle_alpha   90.00000000
_cell_angle_beta   90.00000000
_cell_angle_gamma   90.00000000
_symmetry_Int_Tables_number   1
_chemical_formula_structural   Na4Nb9(P2O13)3
_chemical_formula_sum   'Na8 Nb18 P12 O78'
_cell_volume   1634.74981292
_cell_formula_units_Z   2
loop_
 _symmetry_equiv_pos_site_id
 _symmetry_equiv_pos_as_xyz
  1  'x, y, z'
loop_
 _atom_site_type_symbol
 _atom_site_label
 _atom_site_symmetry_multiplicity
 _atom_site_fract_x
 _atom_site_fract_y
 _atom_site_fract_z
 _atom_site_occupancy
  Na  Na0  1  0.74809721  0.20334546  0.37726434  1
  Na  Na1  1  0.24566322  0.28675606  0.55884742  1
  Na  Na2  1  0.24566322  0.71324394  0.44115258  1
  Na  Na3  1  0.25190279  0.70334546  0.12273566  1
  Na  Na4  1  0.25190279  0.29665454  0.87726434  1
  Na  Na5  1  0.75433678  0.78675606  0.94115258  1
  Na  Na6  1  0.74809721  0.79665454  0.62273566  1
  Na  Na7  1  0.75433678  0.21324394  0.05884742  1
  Nb  Nb0  1  0.76372635  0.40066432  0.61624349  1
  Nb  Nb1  1  0.25627746  0.88844546  0.22286641  1
  Nb  Nb2  1  0.74861043  0.59612833  0.06431118  1
  Nb  Nb3  1  0.24502315  0.52065120  0.83089396  1
  Nb  Nb4  1  0.25138957  0.09612833  0.43568882  1
  Nb  Nb5  1  0.74372254  0.38844546  0.27713359  1
  Nb  Nb6  1  0.73590378  0.00000000  0.00000000  1
  Nb  Nb7  1  0.24502315  0.47934880  0.16910604  1
  Nb  Nb8  1  0.75497685  0.97934880  0.33089396  1
  Nb  Nb9  1  0.26409622  0.50000000  0.50000000  1
  Nb  Nb10  1  0.23627365  0.09933568  0.11624349  1
  Nb  Nb11  1  0.76372635  0.59933568  0.38375651  1
  Nb  Nb12  1  0.74372254  0.61155454  0.72286641  1
  Nb  Nb13  1  0.74861043  0.40387167  0.93568882  1
  Nb  Nb14  1  0.25138957  0.90387167  0.56431118  1
  Nb  Nb15  1  0.23627365  0.90066432  0.88375651  1
  Nb  Nb16  1  0.25627746  0.11155454  0.77713359  1
  Nb  Nb17  1  0.75497685  0.02065120  0.66910604  1
  P  P0  1  0.25590686  0.67846732  0.96242513  1
  P  P1  1  0.23984539  0.67129281  0.61577029  1
  P  P2  1  0.76015461  0.82870719  0.11577029  1
  P  P3  1  0.73317974  0.16481234  0.21589475  1
  P  P4  1  0.26682026  0.33518766  0.71589475  1
  P  P5  1  0.23984539  0.32870719  0.38422971  1
  P  P6  1  0.74409314  0.17846732  0.53757487  1
  P  P7  1  0.74409314  0.82153268  0.46242513  1
  P  P8  1  0.73317974  0.83518766  0.78410525  1
  P  P9  1  0.76015461  0.17129281  0.88422971  1
  P  P10  1  0.25590686  0.32153268  0.03757487  1
  P  P11  1  0.26682026  0.66481234  0.28410525  1
  O  O0  1  0.48464911  0.16720028  0.51029805  1
  O  O1  1  0.96086200  0.83184050  0.82806580  1
  O  O2  1  0.48654172  0.94905787  0.93917206  1
  O  O3  1  0.25948424  0.37426269  0.45405827  1
  O  O4  1  0.73251164  0.75241876  0.73637459  1
  O  O5  1  0.72940986  0.07845112  0.26056419  1
  O  O6  1  0.96086200  0.16815950  0.17193420  1
  O  O7  1  0.51535089  0.33279972  0.01029805  1
  O  O8  1  0.27059014  0.57845112  0.23943581  1
  O  O9  1  0.24009514  0.99307317  0.81765292  1
  O  O10  1  0.26748836  0.25241876  0.76362541  1
  O  O11  1  0.98301184  0.94998680  0.93806225  1
  O  O12  1  0.27059014  0.42154888  0.76056419  1
  O  O13  1  0.97874953  0.90878120  0.27717885  1
  O  O14  1  0.49165868  0.33042308  0.67084913  1
  O  O15  1  0.77211206  0.72296121  0.43624341  1
  O  O16  1  0.47152715  0.44373204  0.89066811  1
  O  O17  1  0.01863945  0.15748774  0.85738942  1
  O  O18  1  0.71391551  0.72488606  0.10706227  1
  O  O19  1  0.94134318  0.16558037  0.48430309  1
  O  O20  1  0.21289939  0.61064509  0.90466958  1
  O  O21  1  0.22788794  0.77703879  0.93624341  1
  O  O22  1  0.78710061  0.88935491  0.40466958  1
  O  O23  1  0.44233406  0.36553083  0.33984899  1
  O  O24  1  0.49165868  0.66957692  0.32915087  1
  O  O25  1  0.78710061  0.11064509  0.59533042  1
  O  O26  1  0.97874953  0.09121880  0.72282115  1
  O  O27  1  0.52704430  0.58282219  0.79289620  1
  O  O28  1  0.94134318  0.83441963  0.51569691  1
  O  O29  1  0.77860561  0.50000000  0.00000000  1
  O  O30  1  0.01698816  0.55001320  0.43806225  1
  O  O31  1  0.22788794  0.22296121  0.06375659  1
  O  O32  1  0.97618547  0.55538198  0.12709285  1
  O  O33  1  0.26748836  0.74758124  0.23637459  1
  O  O34  1  0.75990486  0.49307317  0.68234708  1
  O  O35  1  0.48464911  0.83279972  0.48970195  1
  O  O36  1  0.55766594  0.13446917  0.83984899  1
  O  O37  1  0.74051576  0.12573731  0.95405827  1
  O  O38  1  0.47152715  0.55626796  0.10933189  1
  O  O39  1  0.98136055  0.34251226  0.35738942  1
  O  O40  1  0.52704430  0.41717781  0.20710380  1
  O  O41  1  0.52847285  0.05626796  0.39066811  1
  O  O42  1  0.55766594  0.86553083  0.16015101  1
  O  O43  1  0.71391551  0.27511394  0.89293773  1
  O  O44  1  0.50834132  0.16957692  0.17084913  1
  O  O45  1  0.47295570  0.91717781  0.29289620  1
  O  O46  1  0.44233406  0.63446917  0.66015101  1
  O  O47  1  0.50834132  0.83042308  0.82915087  1
  O  O48  1  0.02125047  0.40878120  0.22282115  1
  O  O49  1  0.03913800  0.33184050  0.67193420  1
  O  O50  1  0.02381453  0.94461802  0.62709285  1
  O  O51  1  0.05865682  0.66558037  0.01569691  1
  O  O52  1  0.51345828  0.55094213  0.43917206  1
  O  O53  1  0.73251164  0.24758124  0.26362541  1
  O  O54  1  0.51535089  0.66720028  0.98970195  1
  O  O55  1  0.98301184  0.05001320  0.06193775  1
  O  O56  1  0.01863945  0.84251226  0.14261058  1
  O  O57  1  0.75990486  0.50692683  0.31765292  1
  O  O58  1  0.02125047  0.59121880  0.77717885  1
  O  O59  1  0.22139439  0.00000000  0.50000000  1
  O  O60  1  0.24009514  0.00692683  0.18234708  1
  O  O61  1  0.97618547  0.44461802  0.87290715  1
  O  O62  1  0.48654172  0.05094213  0.06082794  1
  O  O63  1  0.28608449  0.22488606  0.39293773  1
  O  O64  1  0.74051576  0.87426269  0.04594173  1
  O  O65  1  0.21289939  0.38935491  0.09533042  1
  O  O66  1  0.02381453  0.05538198  0.37290715  1
  O  O67  1  0.98136055  0.65748774  0.64261058  1
  O  O68  1  0.01698816  0.44998680  0.56193775  1
  O  O69  1  0.25948424  0.62573731  0.54594173  1
  O  O70  1  0.28608449  0.77511394  0.60706227  1
  O  O71  1  0.03913800  0.66815950  0.32806580  1
  O  O72  1  0.52847285  0.94373204  0.60933189  1
  O  O73  1  0.77211206  0.27703879  0.56375659  1
  O  O74  1  0.51345828  0.44905787  0.56082794  1
  O  O75  1  0.05865682  0.33441963  0.98430309  1
  O  O76  1  0.47295570  0.08282219  0.70710380  1
  O  O77  1  0.72940986  0.92154888  0.73943581  1
loop_
_geom_bond_atom_site_label_1
_geom_bond_atom_site_label_2
_geom_bond_distance
_geom_bond_site_symmetry_2
Na0 O53 2.387825 1_555
Na0 O39 2.448112 1_555
Na0 O19 2.473290 1_555
Na0 O41 2.491410 1_555
Na0 O63 2.582808 1_555
Na0 O66 2.653343 1_655
Na1 O0 2.404240 1_555
Na1 O3 2.478333 1_555
Na1 O73 2.613018 1_455
Na1 O49 2.636764 1_555
Na1 O68 2.709830 1_555
Na1 O14 2.714235 1_555
Na1 O74 2.804337 1_555
Na1 O19 2.871728 1_455
Na1 O73 2.903676 1_555
Na2 O35 2.404240 1_555
Na2 O69 2.478333 1_555
Na2 O15 2.613018 1_455
Na2 O71 2.636764 1_555
Na2 O30 2.709830 1_555
Na2 O24 2.714235 1_555
Na2 O52 2.804337 1_555
Na2 O28 2.871728 1_455
Na2 O15 2.903676 1_555
Na3 O33 2.387825 1_555
Na3 O56 2.448112 1_555
Na3 O51 2.473290 1_555
Na3 O38 2.491410 1_555
Na3 O18 2.582808 1_555
Na3 O32 2.653343 1_455
Na4 O10 2.387825 1_555
Na4 O17 2.448112 1_555
Na4 O75 2.473290 1_555
Na4 O16 2.491410 1_555
Na4 O43 2.582808 1_555
Na4 O61 2.653343 1_455
Na5 O54 2.404240 1_555
Na5 O64 2.478333 1_556
Na5 O21 2.613018 1_655
Na5 O1 2.636764 1_555
Na5 O11 2.709830 1_555
Na5 O47 2.714235 1_555
Na5 O2 2.804337 1_555
Na5 O51 2.871728 1_656
Na5 O21 2.903676 1_555
Na6 O4 2.387825 1_555
Na6 O67 2.448112 1_555
Na6 O28 2.473290 1_555
Na6 O72 2.491410 1_555
Na6 O70 2.582808 1_555
Na6 O50 2.653343 1_655
Na7 O7 2.404240 1_555
Na7 O37 2.478333 1_554
Na7 O31 2.613018 1_655
Na7 O6 2.636764 1_555
Na7 O55 2.709830 1_555
Na7 O44 2.714235 1_555
Na7 O62 2.804337 1_555
Na7 O75 2.871728 1_654
Na7 O31 2.903676 1_555
Nb0 O34 1.904849 1_555
Nb0 O74 1.912587 1_555
Nb0 O68 1.916658 1_655
Nb0 O73 2.104128 1_555
Nb0 O14 2.127564 1_555
Nb0 O49 2.142034 1_655
Nb1 O45 1.898278 1_555
Nb1 O13 1.904795 1_455
Nb1 O60 1.926088 1_565
Nb1 O33 2.088919 1_555
Nb1 O42 2.114826 1_555
Nb1 O56 2.190169 1_555
Nb2 O38 1.870243 1_555
Nb2 O32 1.880823 1_555
Nb2 O29 1.926473 1_555
Nb2 O18 2.088763 1_555
Nb2 O51 2.218200 1_655
Nb2 O54 2.238881 1_554
Nb3 O58 1.941955 1_555
Nb3 O27 1.958341 1_555
Nb3 O20 2.000562 1_555
Nb3 O61 2.039573 1_455
Nb3 O12 2.039617 1_555
Nb3 O16 2.071590 1_555
Nb4 O41 1.870243 1_555
Nb4 O66 1.880823 1_555
Nb4 O59 1.926473 1_555
Nb4 O63 2.088763 1_555
Nb4 O19 2.218200 1_455
Nb4 O0 2.238881 1_555
Nb5 O40 1.898278 1_555
Nb5 O48 1.904795 1_655
Nb5 O57 1.926088 1_555
Nb5 O53 2.088919 1_555
Nb5 O23 2.114826 1_555
Nb5 O39 2.190169 1_555
Nb6 O62 1.988914 1_555
Nb6 O2 1.988914 1_544
Nb6 O11 1.989277 1_544
Nb6 O55 1.989277 1_555
Nb6 O64 2.067995 1_545
Nb6 O37 2.067995 1_554
Nb7 O48 1.941955 1_555
Nb7 O40 1.958341 1_555
Nb7 O65 2.000562 1_555
Nb7 O32 2.039573 1_455
Nb7 O8 2.039617 1_555
Nb7 O38 2.071590 1_555
Nb8 O13 1.941955 1_555
Nb8 O45 1.958341 1_555
Nb8 O22 2.000562 1_555
Nb8 O66 2.039573 1_665
Nb8 O5 2.039617 1_565
Nb8 O41 2.071590 1_565
Nb9 O74 1.988914 1_555
Nb9 O52 1.988914 1_555
Nb9 O30 1.989277 1_555
Nb9 O68 1.989277 1_555
Nb9 O69 2.067995 1_555
Nb9 O3 2.067995 1_555
Nb10 O60 1.904849 1_555
Nb10 O62 1.912587 1_555
Nb10 O55 1.916658 1_455
Nb10 O31 2.104128 1_555
Nb10 O44 2.127564 1_555
Nb10 O6 2.142034 1_455
Nb11 O57 1.904849 1_555
Nb11 O52 1.912587 1_555
Nb11 O30 1.916658 1_655
Nb11 O15 2.104128 1_555
Nb11 O24 2.127564 1_555
Nb11 O71 2.142034 1_655
Nb12 O27 1.898278 1_555
Nb12 O58 1.904795 1_655
Nb12 O34 1.926088 1_555
Nb12 O4 2.088919 1_555
Nb12 O46 2.114826 1_555
Nb12 O67 2.190169 1_555
Nb13 O16 1.870243 1_555
Nb13 O61 1.880823 1_555
Nb13 O29 1.926473 1_556
Nb13 O43 2.088763 1_555
Nb13 O75 2.218200 1_655
Nb13 O7 2.238881 1_556
Nb14 O72 1.870243 1_555
Nb14 O50 1.880823 1_555
Nb14 O59 1.926473 1_565
Nb14 O70 2.088763 1_555
Nb14 O28 2.218200 1_455
Nb14 O35 2.238881 1_555
Nb15 O9 1.904849 1_555
Nb15 O2 1.912587 1_555
Nb15 O11 1.916658 1_455
Nb15 O21 2.104128 1_555
Nb15 O47 2.127564 1_555
Nb15 O1 2.142034 1_455
Nb16 O76 1.898278 1_555
Nb16 O26 1.904795 1_455
Nb16 O9 1.926088 1_545
Nb16 O10 2.088919 1_555
Nb16 O36 2.114826 1_555
Nb16 O17 2.190169 1_555
Nb17 O26 1.941955 1_555
Nb17 O76 1.958341 1_555
Nb17 O25 2.000562 1_555
Nb17 O50 2.039573 1_645
Nb17 O77 2.039617 1_545
Nb17 O72 2.071590 1_545
O0 P6 1.539976 1_555
O1 P8 1.537112 1_555
O3 P5 1.565375 1_555
O4 P8 1.552267 1_555
O5 P3 1.557463 1_555
O6 P3 1.537112 1_555
O7 P10 1.539976 1_555
O8 P11 1.557463 1_555
O10 P4 1.552267 1_555
O12 P4 1.557463 1_555
O14 P4 1.538054 1_555
O15 P7 1.549836 1_555
O17 P9 1.536414 1_455
O18 P2 1.556788 1_555
O19 P6 1.540699 1_555
O20 P0 1.552799 1_555
O21 P0 1.549836 1_555
O22 P7 1.552799 1_555
O23 P5 1.529631 1_555
O24 P11 1.538054 1_555
O25 P6 1.552799 1_555
O28 P7 1.540699 1_555
O31 P10 1.549836 1_555
O33 P11 1.552267 1_555
O35 P7 1.539976 1_555
O36 P9 1.529631 1_555
O37 P9 1.565375 1_555
O39 P5 1.536414 1_655
O42 P2 1.529631 1_555
O43 P9 1.556788 1_555
O44 P3 1.538054 1_555
O46 P1 1.529631 1_555
O47 P8 1.538054 1_555
O49 P4 1.537112 1_555
O51 P0 1.540699 1_554
O53 P3 1.552267 1_555
O54 P0 1.539976 1_555
O56 P2 1.536414 1_455
O63 P5 1.556788 1_555
O64 P2 1.565375 1_555
O65 P10 1.552799 1_555
O67 P1 1.536414 1_655
O69 P1 1.565375 1_555
O70 P1 1.556788 1_555
O71 P11 1.537112 1_555
O73 P6 1.549836 1_555
O75 P10 1.540699 1_556
O77 P8 1.557463 1_555
