# generated using pymatgen
data_KBaB5O9
_symmetry_space_group_name_H-M   'P 1'
_cell_length_a   8.50327600
_cell_length_b   6.79400900
_cell_length_c   14.50371115
_cell_angle_alpha   87.00511328
_cell_angle_beta   90.00000000
_cell_angle_gamma   90.00000000
_symmetry_Int_Tables_number   1
_chemical_formula_structural   KBaB5O9
_chemical_formula_sum   'K4 Ba4 B20 O36'
_cell_volume   836.75433534
_cell_formula_units_Z   4
loop_
 _symmetry_equiv_pos_site_id
 _symmetry_equiv_pos_as_xyz
  1  'x, y, z'
loop_
 _atom_site_type_symbol
 _atom_site_label
 _atom_site_symmetry_multiplicity
 _atom_site_fract_x
 _atom_site_fract_y
 _atom_site_fract_z
 _atom_site_occupancy
  K  K0  1  0.85372500  0.50955600  0.59593300  1
  K  K1  1  0.35372500  0.49044400  0.90406700  1
  K  K2  1  0.14627500  0.49044400  0.40406700  1
  K  K3  1  0.64627500  0.50955600  0.09593300  1
  Ba  Ba0  1  0.53196900  0.07345600  0.72735900  1
  Ba  Ba1  1  0.46803100  0.92654400  0.27264100  1
  Ba  Ba2  1  0.03196900  0.92654400  0.77264100  1
  Ba  Ba3  1  0.96803100  0.07345600  0.22735900  1
  B  B0  1  0.72614700  0.20156800  0.39672200  1
  B  B1  1  0.19188900  0.16059500  0.57366600  1
  B  B2  1  0.69188900  0.83940500  0.92633400  1
  B  B3  1  0.69360900  0.06009300  0.05566200  1
  B  B4  1  0.77385300  0.20156800  0.89672200  1
  B  B5  1  0.02003300  0.60201000  0.19120700  1
  B  B6  1  0.19360900  0.93990700  0.44433800  1
  B  B7  1  0.97996700  0.39799000  0.80879300  1
  B  B8  1  0.79255000  0.53571300  0.31878300  1
  B  B9  1  0.80811100  0.83940500  0.42633400  1
  B  B10  1  0.30639100  0.93990700  0.94433800  1
  B  B11  1  0.22614700  0.79843200  0.10327800  1
  B  B12  1  0.27385300  0.79843200  0.60327800  1
  B  B13  1  0.52003300  0.39799000  0.30879300  1
  B  B14  1  0.80639100  0.06009300  0.55566200  1
  B  B15  1  0.47996700  0.60201000  0.69120700  1
  B  B16  1  0.70745000  0.53571300  0.81878300  1
  B  B17  1  0.29255000  0.46428700  0.18121700  1
  B  B18  1  0.20745000  0.46428700  0.68121700  1
  B  B19  1  0.30811100  0.16059500  0.07366600  1
  O  O0  1  0.15956000  0.12470700  0.48225300  1
  O  O1  1  0.55981400  0.24407100  0.37022700  1
  O  O2  1  0.88006000  0.55732300  0.79328600  1
  O  O3  1  0.25472400  0.00940300  0.13310800  1
  O  O4  1  0.74527600  0.99059700  0.86689200  1
  O  O5  1  0.33047000  0.34853900  0.09961200  1
  O  O6  1  0.84044000  0.87529300  0.51774700  1
  O  O7  1  0.82573100  0.08396400  0.64617000  1
  O  O8  1  0.16779300  0.66926100  0.65863700  1
  O  O9  1  0.05981400  0.75592900  0.12977300  1
  O  O10  1  0.24713800  0.79049800  0.00383100  1
  O  O11  1  0.16953000  0.34853900  0.59961200  1
  O  O12  1  0.94018600  0.24407100  0.87022700  1
  O  O13  1  0.24527600  0.00940300  0.63310800  1
  O  O14  1  0.37787400  0.38159400  0.26453400  1
  O  O15  1  0.83220700  0.33073900  0.34136300  1
  O  O16  1  0.75472400  0.99059700  0.36689200  1
  O  O17  1  0.83047000  0.65146100  0.40038800  1
  O  O18  1  0.17426900  0.91603600  0.35383000  1
  O  O19  1  0.74713800  0.20950200  0.49616900  1
  O  O20  1  0.61994000  0.55732300  0.29328600  1
  O  O21  1  0.38006000  0.44267700  0.70671400  1
  O  O22  1  0.87787400  0.61840600  0.23546600  1
  O  O23  1  0.67426900  0.08396400  0.14617000  1
  O  O24  1  0.33220700  0.66926100  0.15863700  1
  O  O25  1  0.75286200  0.20950200  0.99616900  1
  O  O26  1  0.62212600  0.61840600  0.73546600  1
  O  O27  1  0.34044000  0.12470700  0.98225300  1
  O  O28  1  0.44018600  0.75592900  0.62977300  1
  O  O29  1  0.25286200  0.79049800  0.50383100  1
  O  O30  1  0.65956000  0.87529300  0.01774700  1
  O  O31  1  0.66953000  0.65146100  0.90038800  1
  O  O32  1  0.12212600  0.38159400  0.76453400  1
  O  O33  1  0.66779300  0.33073900  0.84136300  1
  O  O34  1  0.32573100  0.91603600  0.85383000  1
  O  O35  1  0.11994000  0.44267700  0.20671400  1
loop_
_geom_bond_atom_site_label_1
_geom_bond_atom_site_label_2
_geom_bond_distance
_geom_bond_site_symmetry_2
K0 O6 2.679288 1_555
K0 O19 2.716450 1_555
K0 O11 2.899091 1_655
K0 O2 2.906129 1_555
K0 O26 2.945705 1_555
K0 O17 2.954065 1_555
K0 O7 2.954326 1_555
K0 O8 3.039678 1_655
K1 O27 2.679288 1_555
K1 O10 2.716450 1_556
K1 O31 2.899091 1_555
K1 O21 2.906129 1_555
K1 O32 2.945705 1_555
K1 O5 2.954065 1_556
K1 O34 2.954326 1_555
K1 O33 3.039678 1_555
K2 O0 2.679288 1_555
K2 O29 2.716450 1_555
K2 O17 2.899091 1_455
K2 O35 2.906129 1_555
K2 O14 2.945705 1_555
K2 O11 2.954065 1_555
K2 O18 2.954326 1_555
K2 O15 3.039678 1_455
K3 O30 2.679288 1_555
K3 O25 2.716450 1_554
K3 O5 2.899091 1_555
K3 O20 2.906129 1_555
K3 O22 2.945705 1_555
K3 O31 2.954065 1_554
K3 O23 2.954326 1_555
K3 O24 3.039678 1_555
Ba0 O34 2.716426 1_545
Ba0 O33 2.724952 1_555
Ba0 O4 2.753781 1_545
Ba0 O28 2.754137 1_545
Ba0 O7 2.760909 1_555
Ba0 O21 2.823517 1_555
Ba0 O13 2.839580 1_555
Ba0 O26 3.181452 1_545
Ba1 O23 2.716426 1_565
Ba1 O24 2.724952 1_555
Ba1 O3 2.753781 1_565
Ba1 O1 2.754137 1_565
Ba1 O18 2.760909 1_555
Ba1 O20 2.823517 1_555
Ba1 O16 2.839580 1_555
Ba1 O14 3.181452 1_565
Ba2 O7 2.716426 1_465
Ba2 O8 2.724952 1_555
Ba2 O13 2.753781 1_565
Ba2 O12 2.754137 1_465
Ba2 O34 2.760909 1_555
Ba2 O2 2.823517 1_455
Ba2 O4 2.839580 1_455
Ba2 O32 3.181452 1_565
Ba3 O18 2.716426 1_645
Ba3 O15 2.724952 1_555
Ba3 O16 2.753781 1_545
Ba3 O9 2.754137 1_645
Ba3 O23 2.760909 1_555
Ba3 O35 2.823517 1_655
Ba3 O3 2.839580 1_655
Ba3 O22 3.181452 1_545
B0 O19 1.457143 1_555
B0 O15 1.467837 1_555
B0 O1 1.489938 1_555
B0 O16 1.538015 1_545
B1 O11 1.363241 1_555
B1 O13 1.382734 1_555
B1 O0 1.388027 1_555
B2 O31 1.363241 1_555
B2 O4 1.382734 1_555
B2 O30 1.388027 1_556
B3 O23 1.341186 1_555
B3 O25 1.391861 1_554
B3 O30 1.426441 1_545
B4 O25 1.457143 1_555
B4 O33 1.467837 1_555
B4 O12 1.489938 1_555
B4 O4 1.538015 1_545
B5 O22 1.375929 1_455
B5 O9 1.380046 1_555
B5 O35 1.385166 1_555
B6 O18 1.341186 1_555
B6 O29 1.391861 1_555
B6 O0 1.426441 1_565
B7 O32 1.375929 1_655
B7 O12 1.380046 1_555
B7 O2 1.385166 1_555
B8 O15 1.453489 1_555
B8 O17 1.490132 1_555
B8 O22 1.493767 1_555
B8 O20 1.518857 1_555
B9 O17 1.363241 1_555
B9 O16 1.382734 1_555
B9 O6 1.388027 1_555
B10 O34 1.341186 1_555
B10 O10 1.391861 1_556
B10 O27 1.426441 1_565
B11 O10 1.457143 1_555
B11 O24 1.467837 1_555
B11 O9 1.489938 1_555
B11 O3 1.538015 1_565
B12 O29 1.457143 1_555
B12 O8 1.467837 1_555
B12 O28 1.489938 1_555
B12 O13 1.538015 1_565
B13 O14 1.375929 1_555
B13 O1 1.380046 1_555
B13 O20 1.385166 1_555
B14 O7 1.341186 1_555
B14 O19 1.391861 1_555
B14 O6 1.426441 1_545
B15 O26 1.375929 1_555
B15 O28 1.380046 1_555
B15 O21 1.385166 1_555
B16 O33 1.453489 1_555
B16 O31 1.490132 1_555
B16 O26 1.493767 1_555
B16 O2 1.518857 1_555
B17 O24 1.453489 1_555
B17 O5 1.490132 1_555
B17 O14 1.493767 1_555
B17 O35 1.518857 1_555
B18 O8 1.453489 1_555
B18 O11 1.490132 1_555
B18 O32 1.493767 1_555
B18 O21 1.518857 1_555
B19 O5 1.363241 1_555
B19 O3 1.382734 1_555
B19 O27 1.388027 1_554
