# generated using pymatgen
data_Rb3Al2(PO4)3
_symmetry_space_group_name_H-M   'P 1'
_cell_length_a   9.73310471
_cell_length_b   9.73310471
_cell_length_c   8.95670400
_cell_angle_alpha   90.00000000
_cell_angle_beta   90.00000000
_cell_angle_gamma   126.39137759
_symmetry_Int_Tables_number   1
_chemical_formula_structural   Rb3Al2(PO4)3
_chemical_formula_sum   'Rb6 Al4 P6 O24'
_cell_volume   683.02684194
_cell_formula_units_Z   2
loop_
 _symmetry_equiv_pos_site_id
 _symmetry_equiv_pos_as_xyz
  1  'x, y, z'
loop_
 _atom_site_type_symbol
 _atom_site_label
 _atom_site_symmetry_multiplicity
 _atom_site_fract_x
 _atom_site_fract_y
 _atom_site_fract_z
 _atom_site_occupancy
  Rb  Rb0  1  0.16174800  0.93235700  0.47354300  1
  Rb  Rb1  1  0.06764300  0.83825200  0.97354300  1
  Rb  Rb2  1  0.35735200  0.35735200  0.17822700  1
  Rb  Rb3  1  0.93235700  0.16174800  0.47354300  1
  Rb  Rb4  1  0.83825200  0.06764300  0.97354300  1
  Rb  Rb5  1  0.64264800  0.64264800  0.67822700  1
  Al  Al0  1  0.17938000  0.51417100  0.81902500  1
  Al  Al1  1  0.48582900  0.82062000  0.31902500  1
  Al  Al2  1  0.82062000  0.48582900  0.31902500  1
  Al  Al3  1  0.51417100  0.17938000  0.81902500  1
  P  P0  1  0.46608500  0.87578300  0.65914800  1
  P  P1  1  0.76580500  0.76580500  0.25296800  1
  P  P2  1  0.23419500  0.23419500  0.75296800  1
  P  P3  1  0.53391500  0.12421700  0.15914800  1
  P  P4  1  0.87578300  0.46608500  0.65914800  1
  P  P5  1  0.12421700  0.53391500  0.15914800  1
  O  O0  1  0.63282800  0.77472700  0.34971500  1
  O  O1  1  0.65177400  0.95622300  0.68814200  1
  O  O2  1  0.30563600  0.64880300  0.22938800  1
  O  O3  1  0.14773300  0.58080600  0.98966500  1
  O  O4  1  0.59335900  0.01613900  0.22023800  1
  O  O5  1  0.01613900  0.59335900  0.22023800  1
  O  O6  1  0.36717200  0.22527300  0.84971500  1
  O  O7  1  0.30488100  0.30488100  0.59786300  1
  O  O8  1  0.22527300  0.36717200  0.84971500  1
  O  O9  1  0.77472700  0.63282800  0.34971500  1
  O  O10  1  0.85226700  0.41919400  0.48966500  1
  O  O11  1  0.69436400  0.35119700  0.72938800  1
  O  O12  1  0.04377700  0.34822600  0.18814200  1
  O  O13  1  0.06059300  0.06059300  0.75633300  1
  O  O14  1  0.64880300  0.30563600  0.22938800  1
  O  O15  1  0.69511900  0.69511900  0.09786300  1
  O  O16  1  0.40664100  0.98386100  0.72023800  1
  O  O17  1  0.93940700  0.93940700  0.25633300  1
  O  O18  1  0.98386100  0.40664100  0.72023800  1
  O  O19  1  0.58080600  0.14773300  0.98966500  1
  O  O20  1  0.41919400  0.85226700  0.48966500  1
  O  O21  1  0.95622300  0.65177400  0.68814200  1
  O  O22  1  0.34822600  0.04377700  0.18814200  1
  O  O23  1  0.35119700  0.69436400  0.72938800  1
loop_
_geom_bond_atom_site_label_1
_geom_bond_atom_site_label_2
_geom_bond_distance
_geom_bond_site_symmetry_2
Al0 O23 1.742672 1_555
Al0 O8 1.755133 1_555
Al0 O3 1.757409 1_555
Al0 O18 1.770978 1_455
Al1 O2 1.742672 1_555
Al1 O0 1.755133 1_555
Al1 O20 1.757409 1_555
Al1 O4 1.770978 1_565
Al2 O14 1.742672 1_555
Al2 O9 1.755133 1_555
Al2 O10 1.757409 1_555
Al2 O5 1.770978 1_655
Al3 O11 1.742672 1_555
Al3 O6 1.755133 1_555
Al3 O19 1.757409 1_555
Al3 O16 1.770978 1_545
O0 P1 1.602169 1_555
O0 Rb5 3.234992 1_555
O0 Rb3 3.299690 1_565
O1 P0 1.505926 1_555
O1 Rb4 2.944343 1_565
O1 Rb3 2.944787 1_565
O1 Rb5 3.001525 1_555
O2 P5 1.556019 1_555
O2 Rb2 3.194474 1_555
O3 P5 1.562396 1_556
O3 Rb1 3.037278 1_555
O4 P3 1.569361 1_555
O4 Rb4 3.065467 1_554
O4 Rb3 3.534673 1_555
O5 P5 1.569361 1_555
O5 Rb1 3.065467 1_554
O5 Rb0 3.534673 1_555
O6 P2 1.602169 1_555
O6 Rb2 3.234992 1_556
O6 Rb1 3.299690 1_545
O7 P2 1.521503 1_555
O7 Rb5 3.051101 1_555
O7 Rb3 3.214569 1_455
O7 Rb0 3.214569 1_545
O8 P2 1.602169 1_555
O8 Rb2 3.234992 1_556
O8 Rb4 3.299690 1_455
O9 P1 1.602169 1_555
O9 Rb5 3.234992 1_555
O9 Rb0 3.299690 1_655
O10 P4 1.562396 1_555
O10 Rb3 3.037278 1_555
O11 P4 1.556019 1_555
O11 Rb5 3.194474 1_555
O12 P5 1.505926 1_555
O12 Rb3 2.944343 1_455
O12 Rb4 2.944787 1_454
O12 Rb2 3.001525 1_555
O13 P2 1.524208 1_555
O13 Rb1 2.940921 1_545
O13 Rb4 2.940921 1_455
O13 Rb0 3.225019 1_545
O13 Rb3 3.225019 1_455
O14 P3 1.556019 1_555
O14 Rb2 3.194474 1_555
O15 P1 1.521503 1_555
O15 Rb2 3.051101 1_555
O15 Rb4 3.214569 1_564
O15 Rb1 3.214569 1_654
O16 P0 1.569361 1_555
O16 Rb0 3.065467 1_555
O16 Rb1 3.534673 1_555
O17 P1 1.524208 1_555
O17 Rb0 2.940921 1_655
O17 Rb3 2.940921 1_565
O17 Rb1 3.225019 1_654
O17 Rb4 3.225019 1_564
O18 P4 1.569361 1_555
O18 Rb3 3.065467 1_555
O18 Rb4 3.534673 1_555
O19 P3 1.562396 1_556
O19 Rb4 3.037278 1_555
O20 P0 1.562396 1_555
O20 Rb0 3.037278 1_555
O21 P4 1.505926 1_555
O21 Rb1 2.944343 1_655
O21 Rb0 2.944787 1_655
O21 Rb5 3.001525 1_555
O22 P3 1.505926 1_555
O22 Rb0 2.944343 1_545
O22 Rb1 2.944787 1_544
O22 Rb2 3.001525 1_555
O23 P0 1.556019 1_555
O23 Rb5 3.194474 1_555
