# generated using pymatgen
data_CsSbS6(O3F)6
_symmetry_space_group_name_H-M   'P 1'
_cell_length_a   7.88070836
_cell_length_b   7.88070837
_cell_length_c   7.88070835
_cell_angle_alpha   97.60814857
_cell_angle_beta   97.60814852
_cell_angle_gamma   97.60815281
_symmetry_Int_Tables_number   1
_chemical_formula_structural   CsSbS6(O3F)6
_chemical_formula_sum   'Cs1 Sb1 S6 O18 F6'
_cell_volume   475.22460659
_cell_formula_units_Z   1
loop_
 _symmetry_equiv_pos_site_id
 _symmetry_equiv_pos_as_xyz
  1  'x, y, z'
loop_
 _atom_site_type_symbol
 _atom_site_label
 _atom_site_symmetry_multiplicity
 _atom_site_fract_x
 _atom_site_fract_y
 _atom_site_fract_z
 _atom_site_occupancy
  Cs  Cs0  1  -0.00000000  -0.00000000  -0.00000000  1
  Sb  Sb0  1  0.50000000  0.50000000  0.50000000  1
  S  S0  1  0.45164698  0.73391904  0.85718027  1
  S  S1  1  0.26608096  0.14281973  0.54835302  1
  S  S2  1  0.73391904  0.85718027  0.45164698  1
  S  S3  1  0.14281973  0.54835302  0.26608096  1
  S  S4  1  0.54835302  0.26608096  0.14281973  1
  S  S5  1  0.85718027  0.45164698  0.73391904  1
  O  O0  1  0.68709659  0.65785493  0.42989511  1
  O  O1  1  0.34214507  0.57010489  0.31290341  1
  O  O2  1  0.86219259  0.89485497  0.34812448  1
  O  O3  1  0.62578874  0.74835547  0.93483662  1
  O  O4  1  0.74835547  0.93483662  0.62578874  1
  O  O5  1  0.65785493  0.42989511  0.68709659  1
  O  O6  1  0.37421126  0.25164453  0.06516338  1
  O  O7  1  0.13780741  0.10514503  0.65187552  1
  O  O8  1  0.31290341  0.34214507  0.57010489  1
  O  O9  1  0.34812448  0.86219259  0.89485497  1
  O  O10  1  0.89485497  0.34812448  0.86219259  1
  O  O11  1  0.42989511  0.68709659  0.65785493  1
  O  O12  1  0.93483662  0.62578874  0.74835547  1
  O  O13  1  0.06516338  0.37421126  0.25164453  1
  O  O14  1  0.10514503  0.65187552  0.13780741  1
  O  O15  1  0.25164453  0.06516338  0.37421126  1
  O  O16  1  0.65187552  0.13780741  0.10514503  1
  O  O17  1  0.57010489  0.31290341  0.34214507  1
  F  F0  1  0.64353010  0.43911945  0.09974374  1
  F  F1  1  0.90025626  0.35646990  0.56088055  1
  F  F2  1  0.56088055  0.90025626  0.35646990  1
  F  F3  1  0.09974374  0.64353010  0.43911945  1
  F  F4  1  0.35646990  0.56088055  0.90025626  1
  F  F5  1  0.43911945  0.09974374  0.64353010  1
loop_
_geom_bond_atom_site_label_1
_geom_bond_atom_site_label_2
_geom_bond_distance
_geom_bond_site_symmetry_2
Cs0 O2 3.247348 1_445
Cs0 O7 3.247348 1_554
Cs0 O10 3.247348 1_454
Cs0 O14 3.247348 1_545
Cs0 O16 3.247348 1_455
Cs0 O9 3.247348 1_544
Cs0 O3 3.267131 1_444
Cs0 O6 3.267131 1_555
Cs0 O12 3.267131 1_444
Cs0 O13 3.267131 1_555
Cs0 O4 3.267131 1_444
Cs0 O15 3.267131 1_555
O0 S2 1.546448 1_555
O0 Sb0 1.984640 1_555
O1 S3 1.546448 1_555
O1 Sb0 1.984640 1_555
O2 S2 1.406651 1_555
O3 S0 1.410203 1_555
O4 S2 1.410203 1_555
O5 S5 1.546448 1_555
O5 Sb0 1.984640 1_555
O6 S4 1.410203 1_555
O7 S1 1.406651 1_555
O8 S1 1.546448 1_555
O8 Sb0 1.984640 1_555
O9 S0 1.406651 1_555
O10 S5 1.406651 1_555
O11 S0 1.546448 1_555
O11 Sb0 1.984640 1_555
O12 S5 1.410203 1_555
O13 S3 1.410203 1_555
O14 S3 1.406651 1_555
O15 S1 1.410203 1_555
O16 S4 1.406651 1_555
O17 S4 1.546448 1_555
O17 Sb0 1.984640 1_555
F0 S4 1.567348 1_555
F1 S5 1.567348 1_555
F2 S2 1.567348 1_555
F3 S3 1.567348 1_555
F4 S0 1.567348 1_555
F5 S1 1.567348 1_555
