# generated using pymatgen
data_Hg2Pb(SI)2
_symmetry_space_group_name_H-M   'P 1'
_cell_length_a   13.81698900
_cell_length_b   13.81698900
_cell_length_c   4.71067600
_cell_angle_alpha   90.00000000
_cell_angle_beta   90.00000000
_cell_angle_gamma   90.00000000
_symmetry_Int_Tables_number   1
_chemical_formula_structural   Hg2Pb(SI)2
_chemical_formula_sum   'Hg8 Pb4 S8 I8'
_cell_volume   899.31131608
_cell_formula_units_Z   4
loop_
 _symmetry_equiv_pos_site_id
 _symmetry_equiv_pos_as_xyz
  1  'x, y, z'
loop_
 _atom_site_type_symbol
 _atom_site_label
 _atom_site_symmetry_multiplicity
 _atom_site_fract_x
 _atom_site_fract_y
 _atom_site_fract_z
 _atom_site_occupancy
  Hg  Hg0  1  0.66764000  0.58621200  0.00000000  1
  Hg  Hg1  1  0.33236000  0.41378800  0.00000000  1
  Hg  Hg2  1  0.16764000  0.91378800  0.00000000  1
  Hg  Hg3  1  0.91378800  0.83236000  0.00000000  1
  Hg  Hg4  1  0.83236000  0.08621200  0.00000000  1
  Hg  Hg5  1  0.08621200  0.16764000  0.00000000  1
  Hg  Hg6  1  0.58621200  0.33236000  0.00000000  1
  Hg  Hg7  1  0.41378800  0.66764000  0.00000000  1
  Pb  Pb0  1  0.86335000  0.36335000  0.50000000  1
  Pb  Pb1  1  0.36335000  0.13665000  0.50000000  1
  Pb  Pb2  1  0.63665000  0.86335000  0.50000000  1
  Pb  Pb3  1  0.13665000  0.63665000  0.50000000  1
  S  S0  1  0.57538700  0.73691300  0.00000000  1
  S  S1  1  0.73691300  0.42461300  0.00000000  1
  S  S2  1  0.23691300  0.07538700  0.00000000  1
  S  S3  1  0.26308700  0.57538700  0.00000000  1
  S  S4  1  0.42461300  0.26308700  0.00000000  1
  S  S5  1  0.92461300  0.23691300  0.00000000  1
  S  S6  1  0.07538700  0.76308700  0.00000000  1
  S  S7  1  0.76308700  0.92461300  0.00000000  1
  I  I0  1  0.69435200  0.19435200  0.50000000  1
  I  I1  1  0.50000000  0.00000000  0.00000000  1
  I  I2  1  0.80564800  0.69435200  0.50000000  1
  I  I3  1  0.30564800  0.80564800  0.50000000  1
  I  I4  1  0.00000000  0.00000000  0.50000000  1
  I  I5  1  0.19435200  0.30564800  0.50000000  1
  I  I6  1  0.00000000  0.50000000  0.00000000  1
  I  I7  1  0.50000000  0.50000000  0.50000000  1
loop_
_geom_bond_atom_site_label_1
_geom_bond_atom_site_label_2
_geom_bond_distance
_geom_bond_site_symmetry_2
Hg0 S1 2.429315 1_555
Hg0 S0 2.441404 1_555
Hg0 I2 3.378795 1_555
Hg0 I2 3.378795 1_554
Hg1 S3 2.429315 1_555
Hg1 S4 2.441404 1_555
Hg1 I5 3.378795 1_555
Hg1 I5 3.378795 1_554
Hg2 S2 2.429315 1_565
Hg2 S6 2.441404 1_555
Hg2 I3 3.378795 1_555
Hg2 I3 3.378795 1_554
Hg3 S6 2.429315 1_655
Hg3 S7 2.441404 1_555
Hg3 I2 3.378795 1_554
Hg3 I2 3.378795 1_555
Hg4 S7 2.429315 1_545
Hg4 S5 2.441404 1_555
Hg4 I0 3.378795 1_555
Hg4 I0 3.378795 1_554
Hg5 S5 2.429315 1_455
Hg5 S2 2.441404 1_555
Hg5 I5 3.378795 1_555
Hg5 I5 3.378795 1_554
Hg6 S4 2.429315 1_555
Hg6 S1 2.441404 1_555
Hg6 I0 3.378795 1_555
Hg6 I0 3.378795 1_554
Hg7 S0 2.429315 1_555
Hg7 S3 2.441404 1_555
Hg7 I3 3.378795 1_555
Hg7 I3 3.378795 1_554
Pb0 S5 3.052223 1_555
Pb0 S5 3.052223 1_556
Pb0 S1 3.052223 1_555
Pb0 S1 3.052223 1_556
Pb1 S4 3.052223 1_555
Pb1 S4 3.052223 1_556
Pb1 S2 3.052223 1_555
Pb1 S2 3.052223 1_556
Pb2 S7 3.052223 1_555
Pb2 S7 3.052223 1_556
Pb2 S0 3.052223 1_555
Pb2 S0 3.052223 1_556
Pb3 S6 3.052223 1_556
Pb3 S6 3.052223 1_555
Pb3 S3 3.052223 1_556
Pb3 S3 3.052223 1_555
I0 Pb0 3.302250 1_555
I1 Pb2 3.560533 1_545
I1 Pb2 3.560533 1_544
I1 Pb1 3.560533 1_554
I1 Pb1 3.560533 1_555
I2 Pb2 3.302250 1_555
I3 Pb3 3.302250 1_555
I5 Pb1 3.302250 1_555
I6 Pb0 3.560533 1_454
I6 Pb0 3.560533 1_455
I6 Pb3 3.560533 1_554
I6 Pb3 3.560533 1_555
