# generated using pymatgen
data_C3ICl(OF3)2
_symmetry_space_group_name_H-M   'P 1'
_cell_length_a   8.01462000
_cell_length_b   10.26519800
_cell_length_c   11.32392698
_cell_angle_alpha   78.49942135
_cell_angle_beta   90.00000000
_cell_angle_gamma   90.00000000
_symmetry_Int_Tables_number   1
_chemical_formula_structural   C3ICl(OF3)2
_chemical_formula_sum   'C12 I4 Cl4 O8 F24'
_cell_volume   912.93349428
_cell_formula_units_Z   4
loop_
 _symmetry_equiv_pos_site_id
 _symmetry_equiv_pos_as_xyz
  1  'x, y, z'
loop_
 _atom_site_type_symbol
 _atom_site_label
 _atom_site_symmetry_multiplicity
 _atom_site_fract_x
 _atom_site_fract_y
 _atom_site_fract_z
 _atom_site_occupancy
  C  C0  1  0.64929200  0.42579000  0.70463800  1
  C  C1  1  0.20360000  0.65511100  0.22548000  1
  C  C2  1  0.14929200  0.07421000  0.29536200  1
  C  C3  1  0.79640000  0.34488900  0.77452000  1
  C  C4  1  0.24214000  0.06503800  0.85833200  1
  C  C5  1  0.74214000  0.43496200  0.14166800  1
  C  C6  1  0.75786000  0.93496200  0.14166800  1
  C  C7  1  0.70360000  0.84488900  0.77452000  1
  C  C8  1  0.35070800  0.57421000  0.29536200  1
  C  C9  1  0.85070800  0.92579000  0.70463800  1
  C  C10  1  0.29640000  0.15511100  0.22548000  1
  C  C11  1  0.25786000  0.56503800  0.85833200  1
  I  I0  1  0.68096400  0.44718300  0.33466900  1
  I  I1  1  0.18096400  0.05281700  0.66533100  1
  I  I2  1  0.81903600  0.94718300  0.33466900  1
  I  I3  1  0.31903600  0.55281700  0.66533100  1
  Cl  Cl0  1  0.06825100  0.67641500  0.59428800  1
  Cl  Cl1  1  0.56825100  0.82358500  0.40571200  1
  Cl  Cl2  1  0.43174900  0.17641500  0.59428800  1
  Cl  Cl3  1  0.93174900  0.32358500  0.40571200  1
  O  O0  1  0.97165800  0.94184200  0.77630300  1
  O  O1  1  0.65552000  0.46504500  0.59452100  1
  O  O2  1  0.02834200  0.05815800  0.22369700  1
  O  O3  1  0.52834200  0.44184200  0.77630300  1
  O  O4  1  0.15552000  0.03495500  0.40547900  1
  O  O5  1  0.34448000  0.53495500  0.40547900  1
  O  O6  1  0.47165800  0.55815800  0.22369700  1
  O  O7  1  0.84448000  0.96504500  0.59452100  1
  F  F0  1  0.65211600  0.89951100  0.86840700  1
  F  F1  1  0.23784100  0.44170100  0.92256000  1
  F  F2  1  0.11784200  0.63482100  0.85995100  1
  F  F3  1  0.38416500  0.62546500  0.90310100  1
  F  F4  1  0.34788400  0.10048900  0.13159300  1
  F  F5  1  0.15211600  0.60048900  0.13159300  1
  F  F6  1  0.42974700  0.15952600  0.29803500  1
  F  F7  1  0.88416500  0.87453500  0.09689900  1
  F  F8  1  0.88215800  0.36517900  0.14004900  1
  F  F9  1  0.61784200  0.86517900  0.14004900  1
  F  F10  1  0.25202100  0.78239200  0.18045300  1
  F  F11  1  0.24797900  0.28239200  0.18045300  1
  F  F12  1  0.11583500  0.12546500  0.90310100  1
  F  F13  1  0.75202100  0.71760800  0.81954700  1
  F  F14  1  0.07025300  0.65952600  0.29803500  1
  F  F15  1  0.84788400  0.39951100  0.86840700  1
  F  F16  1  0.57025300  0.84047400  0.70196500  1
  F  F17  1  0.76215900  0.55829900  0.07744000  1
  F  F18  1  0.61583500  0.37453500  0.09689900  1
  F  F19  1  0.26215900  0.94170100  0.92256000  1
  F  F20  1  0.92974700  0.34047400  0.70196500  1
  F  F21  1  0.74797900  0.21760800  0.81954700  1
  F  F22  1  0.73784100  0.05829900  0.07744000  1
  F  F23  1  0.38215800  0.13482100  0.85995100  1
loop_
_geom_bond_atom_site_label_1
_geom_bond_atom_site_label_2
_geom_bond_distance
_geom_bond_site_symmetry_2
C0 O1 1.232642 1_555
C0 O3 1.295657 1_555
C1 F14 1.354295 1_555
C1 F10 1.360899 1_555
C1 F5 1.361135 1_555
C2 O4 1.232642 1_555
C2 O2 1.295657 1_555
C3 F20 1.354295 1_555
C3 F21 1.360899 1_555
C3 F15 1.361135 1_555
C4 F23 1.333425 1_555
C4 F19 1.338093 1_545
C4 F12 1.338617 1_555
C4 I1 2.267598 1_555
C5 F8 1.333425 1_555
C5 F17 1.338093 1_555
C5 F18 1.338617 1_555
C5 I0 2.267598 1_555
C6 F9 1.333425 1_555
C6 F22 1.338093 1_565
C6 F7 1.338617 1_555
C6 I2 2.267598 1_555
C7 F16 1.354295 1_555
C7 F13 1.360899 1_555
C7 F0 1.361135 1_555
C8 O5 1.232642 1_555
C8 O6 1.295657 1_555
C9 O7 1.232642 1_555
C9 O0 1.295657 1_555
C10 F6 1.354295 1_555
C10 F11 1.360899 1_555
C10 F4 1.361135 1_555
C11 F2 1.333425 1_555
C11 F1 1.338093 1_555
C11 F3 1.338617 1_555
C11 I3 2.267598 1_555
I0 O6 2.262758 1_555
I1 O0 2.262758 1_445
I2 O2 2.262758 1_665
I3 O3 2.262758 1_555
Cl0 I3 2.426895 1_555
Cl1 I2 2.426895 1_555
Cl2 I1 2.426895 1_555
Cl3 I0 2.426895 1_555
