# generated using pymatgen
data_Nd4(WO5)3
_symmetry_space_group_name_H-M   'P 1'
_cell_length_a   10.05713900
_cell_length_b   10.29202400
_cell_length_c   24.58221500
_cell_angle_alpha   90.00000000
_cell_angle_beta   90.00000000
_cell_angle_gamma   90.00000000
_symmetry_Int_Tables_number   1
_chemical_formula_structural   Nd4(WO5)3
_chemical_formula_sum   'Nd32 W24 O120'
_cell_volume   2544.46367720
_cell_formula_units_Z   8
loop_
 _symmetry_equiv_pos_site_id
 _symmetry_equiv_pos_as_xyz
  1  'x, y, z'
loop_
 _atom_site_type_symbol
 _atom_site_label
 _atom_site_symmetry_multiplicity
 _atom_site_fract_x
 _atom_site_fract_y
 _atom_site_fract_z
 _atom_site_occupancy
  Nd  Nd0  1  0.75000000  0.75149400  0.12645100  1
  Nd  Nd1  1  0.75000000  0.74850600  0.62645100  1
  Nd  Nd2  1  0.97121300  0.99623700  0.37140900  1
  Nd  Nd3  1  0.99302700  0.97277300  0.87045900  1
  Nd  Nd4  1  0.99302700  0.52722700  0.37045900  1
  Nd  Nd5  1  0.97121300  0.50376300  0.87140900  1
  Nd  Nd6  1  0.99399800  0.24981400  0.49241100  1
  Nd  Nd7  1  0.99399800  0.25018600  0.99241100  1
  Nd  Nd8  1  0.00600200  0.75018600  0.50758900  1
  Nd  Nd9  1  0.00600200  0.74981400  0.00758900  1
  Nd  Nd10  1  0.00697300  0.02722700  0.12954100  1
  Nd  Nd11  1  0.02878700  0.00376300  0.62859100  1
  Nd  Nd12  1  0.02878700  0.49623700  0.12859100  1
  Nd  Nd13  1  0.00697300  0.47277300  0.62954100  1
  Nd  Nd14  1  0.25000000  0.25149400  0.37354900  1
  Nd  Nd15  1  0.25000000  0.24850600  0.87354900  1
  Nd  Nd16  1  0.25000000  0.99534100  0.25704200  1
  Nd  Nd17  1  0.25000000  0.50465900  0.75704200  1
  Nd  Nd18  1  0.49302700  0.02722700  0.12954100  1
  Nd  Nd19  1  0.47121300  0.49623700  0.12859100  1
  Nd  Nd20  1  0.47121300  0.00376300  0.62859100  1
  Nd  Nd21  1  0.49302700  0.47277300  0.62954100  1
  Nd  Nd22  1  0.49399800  0.74981400  0.00758900  1
  Nd  Nd23  1  0.49399800  0.75018600  0.50758900  1
  Nd  Nd24  1  0.50600200  0.25018600  0.99241100  1
  Nd  Nd25  1  0.50600200  0.24981400  0.49241100  1
  Nd  Nd26  1  0.52878700  0.99623700  0.37140900  1
  Nd  Nd27  1  0.50697300  0.97277300  0.87045900  1
  Nd  Nd28  1  0.50697300  0.52722700  0.37045900  1
  Nd  Nd29  1  0.52878700  0.50376300  0.87140900  1
  Nd  Nd30  1  0.75000000  0.00465900  0.74295800  1
  Nd  Nd31  1  0.75000000  0.49534100  0.24295800  1
  W  W0  1  0.75000000  0.54932400  0.50783300  1
  W  W1  1  0.75000000  0.95067600  0.00783300  1
  W  W2  1  0.75000000  0.55384600  0.01005900  1
  W  W3  1  0.94477600  0.74226700  0.73940300  1
  W  W4  1  0.94477600  0.75773300  0.23940300  1
  W  W5  1  0.05522400  0.25773300  0.26059700  1
  W  W6  1  0.05522400  0.24226700  0.76059700  1
  W  W7  1  0.25000000  0.45067600  0.49216700  1
  W  W8  1  0.25000000  0.44615400  0.98994100  1
  W  W9  1  0.25000000  0.05384600  0.48994100  1
  W  W10  1  0.25000000  0.04932400  0.99216700  1
  W  W11  1  0.25000000  0.75190300  0.14663300  1
  W  W12  1  0.25000000  0.75519400  0.39753500  1
  W  W13  1  0.25000000  0.74809700  0.64663300  1
  W  W14  1  0.25000000  0.74480600  0.89753500  1
  W  W15  1  0.44477600  0.25773300  0.26059700  1
  W  W16  1  0.44477600  0.24226700  0.76059700  1
  W  W17  1  0.55522400  0.74226700  0.73940300  1
  W  W18  1  0.55522400  0.75773300  0.23940300  1
  W  W19  1  0.75000000  0.24809700  0.85336700  1
  W  W20  1  0.75000000  0.25190300  0.35336700  1
  W  W21  1  0.75000000  0.94615400  0.51005900  1
  W  W22  1  0.75000000  0.24480600  0.60246500  1
  W  W23  1  0.75000000  0.25519400  0.10246500  1
  O  O0  1  0.75000000  0.38043800  0.15277400  1
  O  O1  1  0.75000000  0.11956200  0.65277400  1
  O  O2  1  0.75000000  0.39618000  0.63881000  1
  O  O3  1  0.75000000  0.74633600  0.99531200  1
  O  O4  1  0.87914700  0.24925200  0.28851600  1
  O  O5  1  0.87914700  0.25074800  0.78851600  1
  O  O6  1  0.88203200  0.89492100  0.56648200  1
  O  O7  1  0.88029200  0.60179700  0.56405400  1
  O  O8  1  0.88029200  0.89820300  0.06405400  1
  O  O9  1  0.88203200  0.60507900  0.06648200  1
  O  O10  1  0.88948900  0.25027400  0.40252500  1
  O  O11  1  0.88948900  0.24972600  0.90252500  1
  O  O12  1  0.89164500  0.55565400  0.45874200  1
  O  O13  1  0.89298100  0.54663000  0.96182600  1
  O  O14  1  0.89298100  0.95337000  0.46182600  1
  O  O15  1  0.89164500  0.94434600  0.95874200  1
  O  O16  1  0.90224600  0.87388000  0.18144100  1
  O  O17  1  0.89072700  0.61672400  0.18205600  1
  O  O18  1  0.89072700  0.88327600  0.68205600  1
  O  O19  1  0.90224600  0.62612000  0.68144100  1
  O  O20  1  0.93872900  0.24786300  0.58966100  1
  O  O21  1  0.93872900  0.25213700  0.08966100  1
  O  O22  1  0.98905100  0.86966100  0.29373200  1
  O  O23  1  0.94063800  0.60585000  0.28563100  1
  O  O24  1  0.94063800  0.89415000  0.78563100  1
  O  O25  1  0.98905100  0.63033900  0.79373200  1
  O  O26  1  0.05936200  0.10585000  0.21436900  1
  O  O27  1  0.01094900  0.36966100  0.20626800  1
  O  O28  1  0.01094900  0.13033900  0.70626800  1
  O  O29  1  0.05936200  0.39415000  0.71436900  1
  O  O30  1  0.06127100  0.74786300  0.91033900  1
  O  O31  1  0.06127100  0.75213700  0.41033900  1
  O  O32  1  0.09775400  0.37388000  0.31855900  1
  O  O33  1  0.10927300  0.38327600  0.81794400  1
  O  O34  1  0.10927300  0.11672400  0.31794400  1
  O  O35  1  0.09775400  0.12612000  0.81855900  1
  O  O36  1  0.11051100  0.74972600  0.59747500  1
  O  O37  1  0.11051100  0.75027400  0.09747500  1
  O  O38  1  0.10701900  0.04663000  0.53817400  1
  O  O39  1  0.10835500  0.44434600  0.54125800  1
  O  O40  1  0.10835500  0.05565400  0.04125800  1
  O  O41  1  0.10701900  0.45337000  0.03817400  1
  O  O42  1  0.11796800  0.39492100  0.93351800  1
  O  O43  1  0.11796800  0.10507900  0.43351800  1
  O  O44  1  0.11970800  0.10179700  0.93594600  1
  O  O45  1  0.11970800  0.39820300  0.43594600  1
  O  O46  1  0.12085300  0.74925200  0.21148400  1
  O  O47  1  0.12085300  0.75074800  0.71148400  1
  O  O48  1  0.25000000  0.88043800  0.34722600  1
  O  O49  1  0.25000000  0.25609500  0.24713000  1
  O  O50  1  0.25000000  0.89618000  0.86119000  1
  O  O51  1  0.25000000  0.24390500  0.74713000  1
  O  O52  1  0.25000000  0.87627600  0.46928600  1
  O  O53  1  0.25000000  0.25366400  0.00468800  1
  O  O54  1  0.25000000  0.94010500  0.15452900  1
  O  O55  1  0.25000000  0.24633600  0.50468800  1
  O  O56  1  0.25000000  0.60382000  0.36119000  1
  O  O57  1  0.25000000  0.62760700  0.47688600  1
  O  O58  1  0.25000000  0.87239300  0.97688600  1
  O  O59  1  0.25000000  0.93704000  0.64945600  1
  O  O60  1  0.25000000  0.56296000  0.14945600  1
  O  O61  1  0.25000000  0.61956200  0.84722600  1
  O  O62  1  0.25000000  0.55989500  0.65452900  1
  O  O63  1  0.25000000  0.62372400  0.96928600  1
  O  O64  1  0.37914700  0.74925200  0.21148400  1
  O  O65  1  0.37914700  0.75074800  0.71148400  1
  O  O66  1  0.38203200  0.10507900  0.43351800  1
  O  O67  1  0.38029200  0.10179700  0.93594600  1
  O  O68  1  0.38029200  0.39820300  0.43594600  1
  O  O69  1  0.38203200  0.39492100  0.93351800  1
  O  O70  1  0.38948900  0.75027400  0.09747500  1
  O  O71  1  0.39164500  0.05565400  0.04125800  1
  O  O72  1  0.39298100  0.45337000  0.03817400  1
  O  O73  1  0.39298100  0.04663000  0.53817400  1
  O  O74  1  0.39164500  0.44434600  0.54125800  1
  O  O75  1  0.38948900  0.74972600  0.59747500  1
  O  O76  1  0.39072700  0.11672400  0.31794400  1
  O  O77  1  0.40224600  0.37388000  0.31855900  1
  O  O78  1  0.40224600  0.12612000  0.81855900  1
  O  O79  1  0.39072700  0.38327600  0.81794400  1
  O  O80  1  0.43872900  0.74786300  0.91033900  1
  O  O81  1  0.43872900  0.75213700  0.41033900  1
  O  O82  1  0.44063800  0.10585000  0.21436900  1
  O  O83  1  0.48905100  0.36966100  0.20626800  1
  O  O84  1  0.48905100  0.13033900  0.70626800  1
  O  O85  1  0.44063800  0.39415000  0.71436900  1
  O  O86  1  0.51094900  0.86966100  0.29373200  1
  O  O87  1  0.55936200  0.89415000  0.78563100  1
  O  O88  1  0.55936200  0.60585000  0.28563100  1
  O  O89  1  0.51094900  0.63033900  0.79373200  1
  O  O90  1  0.56127100  0.24786300  0.58966100  1
  O  O91  1  0.56127100  0.25213700  0.08966100  1
  O  O92  1  0.59775400  0.87388000  0.18144100  1
  O  O93  1  0.60927300  0.88327600  0.68205600  1
  O  O94  1  0.60927300  0.61672400  0.18205600  1
  O  O95  1  0.59775400  0.62612000  0.68144100  1
  O  O96  1  0.61051100  0.25027400  0.40252500  1
  O  O97  1  0.60835500  0.55565400  0.45874200  1
  O  O98  1  0.60701900  0.95337000  0.46182600  1
  O  O99  1  0.61051100  0.24972600  0.90252500  1
  O  O100  1  0.60701900  0.54663000  0.96182600  1
  O  O101  1  0.60835500  0.94434600  0.95874200  1
  O  O102  1  0.61796800  0.89492100  0.56648200  1
  O  O103  1  0.61970800  0.60179700  0.56405400  1
  O  O104  1  0.61970800  0.89820300  0.06405400  1
  O  O105  1  0.61796800  0.60507900  0.06648200  1
  O  O106  1  0.62085300  0.25074800  0.78851600  1
  O  O107  1  0.62085300  0.24925200  0.28851600  1
  O  O108  1  0.75000000  0.06296000  0.35054400  1
  O  O109  1  0.75000000  0.05989500  0.84547100  1
  O  O110  1  0.75000000  0.10382000  0.13881000  1
  O  O111  1  0.75000000  0.12372400  0.53071400  1
  O  O112  1  0.75000000  0.37239300  0.52311400  1
  O  O113  1  0.75000000  0.44010500  0.34547100  1
  O  O114  1  0.75000000  0.43704000  0.85054400  1
  O  O115  1  0.75000000  0.75609500  0.25287000  1
  O  O116  1  0.75000000  0.75366400  0.49531200  1
  O  O117  1  0.75000000  0.74390500  0.75287000  1
  O  O118  1  0.75000000  0.12760700  0.02311400  1
  O  O119  1  0.75000000  0.37627600  0.03071400  1
loop_
_geom_bond_atom_site_label_1
_geom_bond_atom_site_label_2
_geom_bond_distance
_geom_bond_site_symmetry_2
Nd0 O92 2.399654 1_555
Nd0 O16 2.399654 1_555
Nd0 O17 2.407370 1_555
Nd0 O94 2.407370 1_555
Nd0 O105 2.491419 1_555
Nd0 O9 2.491419 1_555
Nd0 O8 2.519855 1_555
Nd0 O104 2.519855 1_555
Nd1 O95 2.399654 1_555
Nd1 O19 2.399654 1_555
Nd1 O18 2.407370 1_555
Nd1 O93 2.407370 1_555
Nd1 O102 2.491419 1_555
Nd1 O6 2.491419 1_555
Nd1 O103 2.519855 1_555
Nd1 O7 2.519855 1_555
Nd2 O34 2.278813 1_665
Nd2 O22 2.318482 1_555
Nd2 O108 2.384167 1_565
Nd2 O14 2.398720 1_555
Nd2 O43 2.400894 1_665
Nd2 O31 2.836852 1_655
Nd3 O35 2.286467 1_665
Nd3 O24 2.297978 1_555
Nd3 O15 2.415562 1_555
Nd3 O44 2.445010 1_665
Nd3 O30 2.605826 1_655
Nd3 O109 2.674924 1_565
Nd3 O50 2.711553 1_655
Nd4 O32 2.286467 1_655
Nd4 O23 2.297978 1_555
Nd4 O12 2.415562 1_555
Nd4 O45 2.445010 1_655
Nd4 O31 2.605826 1_655
Nd4 O113 2.674924 1_555
Nd4 O56 2.711553 1_655
Nd5 O33 2.278813 1_655
Nd5 O25 2.318482 1_555
Nd5 O114 2.384167 1_555
Nd5 O13 2.398720 1_555
Nd5 O42 2.400894 1_655
Nd5 O30 2.836852 1_655
Nd6 O45 2.420220 1_655
Nd6 O43 2.422668 1_655
Nd6 O10 2.446849 1_555
Nd6 O20 2.454473 1_555
Nd6 O55 2.592522 1_655
Nd6 O39 2.602518 1_655
Nd6 O38 2.632594 1_655
Nd6 O112 2.860590 1_555
Nd6 O111 2.931275 1_555
Nd7 O44 2.420220 1_655
Nd7 O42 2.422668 1_655
Nd7 O11 2.446849 1_555
Nd7 O21 2.454473 1_556
Nd7 O53 2.592522 1_656
Nd7 O40 2.602518 1_656
Nd7 O41 2.632594 1_656
Nd7 O118 2.860590 1_556
Nd7 O119 2.931275 1_556
Nd8 O7 2.420220 1_455
Nd8 O6 2.422668 1_455
Nd8 O36 2.446849 1_555
Nd8 O31 2.454473 1_555
Nd8 O116 2.592522 1_455
Nd8 O12 2.602518 1_455
Nd8 O14 2.632594 1_455
Nd8 O57 2.860590 1_555
Nd8 O52 2.931275 1_555
Nd9 O8 2.420220 1_455
Nd9 O9 2.422668 1_455
Nd9 O37 2.446849 1_555
Nd9 O30 2.454473 1_554
Nd9 O3 2.592522 1_454
Nd9 O15 2.602518 1_454
Nd9 O13 2.632594 1_454
Nd9 O58 2.860590 1_554
Nd9 O63 2.931275 1_554
Nd10 O16 2.286467 1_445
Nd10 O26 2.297978 1_555
Nd10 O40 2.415562 1_555
Nd10 O8 2.445010 1_445
Nd10 O21 2.605826 1_455
Nd10 O54 2.674924 1_545
Nd10 O110 2.711553 1_455
Nd11 O18 2.278813 1_445
Nd11 O28 2.318482 1_555
Nd11 O59 2.384167 1_545
Nd11 O38 2.398720 1_555
Nd11 O6 2.400894 1_445
Nd11 O20 2.836852 1_455
Nd12 O17 2.278813 1_455
Nd12 O27 2.318482 1_555
Nd12 O60 2.384167 1_555
Nd12 O41 2.398720 1_555
Nd12 O9 2.400894 1_455
Nd12 O21 2.836852 1_455
Nd13 O19 2.286467 1_455
Nd13 O29 2.297978 1_555
Nd13 O39 2.415562 1_555
Nd13 O7 2.445010 1_455
Nd13 O20 2.605826 1_455
Nd13 O62 2.674924 1_555
Nd13 O2 2.711553 1_455
Nd14 O32 2.399654 1_555
Nd14 O77 2.399654 1_555
Nd14 O34 2.407370 1_555
Nd14 O76 2.407370 1_555
Nd14 O43 2.491419 1_555
Nd14 O66 2.491419 1_555
Nd14 O68 2.519855 1_555
Nd14 O45 2.519855 1_555
Nd15 O78 2.399654 1_555
Nd15 O35 2.399654 1_555
Nd15 O33 2.407370 1_555
Nd15 O79 2.407370 1_555
Nd15 O42 2.491419 1_555
Nd15 O69 2.491419 1_555
Nd15 O44 2.519855 1_555
Nd15 O67 2.519855 1_555
Nd16 O34 2.409383 1_565
Nd16 O76 2.409383 1_565
Nd16 O82 2.463721 1_565
Nd16 O26 2.463721 1_565
Nd16 O48 2.512618 1_555
Nd16 O54 2.583324 1_555
Nd16 O49 2.694725 1_565
Nd16 O64 3.058769 1_555
Nd16 O46 3.058769 1_555
Nd16 O86 3.061713 1_555
Nd16 O22 3.061713 1_455
Nd17 O33 2.409383 1_555
Nd17 O79 2.409383 1_555
Nd17 O85 2.463721 1_555
Nd17 O29 2.463721 1_555
Nd17 O61 2.512618 1_555
Nd17 O62 2.583324 1_555
Nd17 O51 2.694725 1_555
Nd17 O65 3.058769 1_555
Nd17 O47 3.058769 1_555
Nd17 O25 3.061713 1_455
Nd17 O89 3.061713 1_555
Nd18 O92 2.286467 1_545
Nd18 O82 2.297978 1_555
Nd18 O71 2.415562 1_555
Nd18 O104 2.445010 1_545
Nd18 O91 2.605826 1_555
Nd18 O54 2.674924 1_545
Nd18 O110 2.711553 1_555
Nd19 O94 2.278813 1_555
Nd19 O83 2.318482 1_555
Nd19 O60 2.384167 1_555
Nd19 O72 2.398720 1_555
Nd19 O105 2.400894 1_555
Nd19 O91 2.836852 1_555
Nd20 O93 2.278813 1_545
Nd20 O84 2.318482 1_555
Nd20 O59 2.384167 1_545
Nd20 O73 2.398720 1_555
Nd20 O102 2.400894 1_545
Nd20 O90 2.836852 1_555
Nd21 O95 2.286467 1_555
Nd21 O85 2.297978 1_555
Nd21 O74 2.415562 1_555
Nd21 O103 2.445010 1_555
Nd21 O90 2.605826 1_555
Nd21 O62 2.674924 1_555
Nd21 O2 2.711553 1_555
Nd22 O104 2.420220 1_555
Nd22 O105 2.422668 1_555
Nd22 O70 2.446849 1_555
Nd22 O80 2.454473 1_554
Nd22 O3 2.592522 1_554
Nd22 O101 2.602518 1_554
Nd22 O100 2.632594 1_554
Nd22 O58 2.860590 1_554
Nd22 O63 2.931275 1_554
Nd23 O103 2.420220 1_555
Nd23 O102 2.422668 1_555
Nd23 O75 2.446849 1_555
Nd23 O81 2.454473 1_555
Nd23 O116 2.592522 1_555
Nd23 O97 2.602518 1_555
Nd23 O98 2.632594 1_555
Nd23 O57 2.860590 1_555
Nd23 O52 2.931275 1_555
Nd24 O67 2.420220 1_555
Nd24 O69 2.422668 1_555
Nd24 O99 2.446849 1_555
Nd24 O91 2.454473 1_556
Nd24 O53 2.592522 1_556
Nd24 O71 2.602518 1_556
Nd24 O72 2.632594 1_556
Nd24 O118 2.860590 1_556
Nd24 O119 2.931275 1_556
Nd25 O68 2.420220 1_555
Nd25 O66 2.422668 1_555
Nd25 O96 2.446849 1_555
Nd25 O90 2.454473 1_555
Nd25 O55 2.592522 1_555
Nd25 O74 2.602518 1_555
Nd25 O73 2.632594 1_555
Nd25 O112 2.860590 1_555
Nd25 O111 2.931275 1_555
Nd26 O76 2.278813 1_565
Nd26 O86 2.318482 1_555
Nd26 O108 2.384167 1_565
Nd26 O98 2.398720 1_555
Nd26 O66 2.400894 1_565
Nd26 O81 2.836852 1_555
Nd27 O78 2.286467 1_565
Nd27 O87 2.297978 1_555
Nd27 O101 2.415562 1_555
Nd27 O67 2.445010 1_565
Nd27 O80 2.605826 1_555
Nd27 O109 2.674924 1_565
Nd27 O50 2.711553 1_555
Nd28 O77 2.286467 1_555
Nd28 O88 2.297978 1_555
Nd28 O97 2.415562 1_555
Nd28 O68 2.445010 1_555
Nd28 O81 2.605826 1_555
Nd28 O113 2.674924 1_555
Nd28 O56 2.711553 1_555
Nd29 O79 2.278813 1_555
Nd29 O89 2.318482 1_555
Nd29 O114 2.384167 1_555
Nd29 O100 2.398720 1_555
Nd29 O69 2.400894 1_555
Nd29 O80 2.836852 1_555
Nd30 O93 2.409383 1_545
Nd30 O18 2.409383 1_545
Nd30 O87 2.463721 1_545
Nd30 O24 2.463721 1_545
Nd30 O1 2.512618 1_555
Nd30 O109 2.583324 1_555
Nd30 O117 2.694725 1_545
Nd30 O106 3.058769 1_555
Nd30 O5 3.058769 1_555
Nd30 O84 3.061713 1_555
Nd30 O28 3.061713 1_655
Nd31 O17 2.409383 1_555
Nd31 O94 2.409383 1_555
Nd31 O88 2.463721 1_555
Nd31 O23 2.463721 1_555
Nd31 O0 2.512618 1_555
Nd31 O113 2.583324 1_555
Nd31 O115 2.694725 1_555
Nd31 O107 3.058769 1_555
Nd31 O4 3.058769 1_555
Nd31 O83 3.061713 1_555
Nd31 O27 3.061713 1_655
O0 W23 1.786337 1_555
O1 W22 1.786337 1_555
O2 W22 1.795948 1_555
O3 W2 2.014006 1_556
O3 W1 2.125476 1_556
O4 W5 1.901180 1_655
O4 W20 2.056494 1_555
O5 W6 1.901180 1_655
O5 W19 2.056494 1_555
O6 W21 1.991240 1_555
O7 W0 1.979580 1_555
O8 W1 1.979580 1_555
O9 W2 1.991240 1_555
O10 W20 1.851637 1_555
O11 W19 1.851637 1_555
O12 W0 1.868114 1_555
O13 W2 1.865241 1_556
O14 W21 1.865241 1_555
O15 W1 1.868114 1_556
O16 W4 1.908418 1_555
O17 W4 2.094984 1_555
O18 W3 2.094984 1_555
O19 W3 1.908418 1_555
O20 W22 1.924251 1_555
O21 W23 1.924251 1_555
O22 W4 1.819047 1_555
O23 W4 1.933041 1_555
O24 W3 1.933041 1_555
O25 W3 1.819047 1_555
O26 W5 1.933041 1_555
O27 W5 1.819047 1_555
O28 W6 1.819047 1_555
O29 W6 1.933041 1_555
O30 W14 1.924251 1_555
O31 W12 1.924251 1_555
O32 W5 1.908418 1_555
O33 W6 2.094984 1_555
O34 W5 2.094984 1_555
O35 W6 1.908418 1_555
O36 W13 1.851637 1_555
O37 W11 1.851637 1_555
O38 W9 1.865241 1_555
O39 W7 1.868114 1_555
O40 W10 1.868114 1_554
O41 W8 1.865241 1_554
O42 W8 1.991240 1_555
O43 W9 1.991240 1_555
O44 W10 1.979580 1_555
O45 W7 1.979580 1_555
O46 W4 1.901180 1_455
O46 W11 2.056494 1_555
O47 W3 1.901180 1_455
O47 W13 2.056494 1_555
O48 W12 1.786337 1_555
O49 W5 1.986737 1_555
O49 W15 1.986737 1_555
O50 W14 1.795948 1_555
O51 W6 1.986737 1_555
O51 W16 1.986737 1_555
O52 W9 1.896777 1_565
O52 W12 2.159617 1_555
O53 W8 2.014006 1_554
O53 W10 2.125476 1_554
O54 W11 1.946680 1_555
O55 W9 2.014006 1_555
O55 W7 2.125476 1_555
O56 W12 1.795948 1_555
O57 W7 1.859319 1_555
O57 W12 2.351433 1_555
O58 W10 1.859319 1_565
O58 W14 2.351433 1_555
O59 W13 1.945844 1_555
O60 W11 1.945844 1_555
O61 W14 1.786337 1_555
O62 W13 1.946680 1_555
O63 W8 1.896777 1_555
O63 W14 2.159617 1_555
O64 W18 1.901180 1_555
O64 W11 2.056494 1_555
O65 W17 1.901180 1_555
O65 W13 2.056494 1_555
O66 W9 1.991240 1_555
O67 W10 1.979580 1_555
O68 W7 1.979580 1_555
O69 W8 1.991240 1_555
O70 W11 1.851637 1_555
O71 W10 1.868114 1_554
O72 W8 1.865241 1_554
O73 W9 1.865241 1_555
O74 W7 1.868114 1_555
O75 W13 1.851637 1_555
O76 W15 2.094984 1_555
O77 W15 1.908418 1_555
O78 W16 1.908418 1_555
O79 W16 2.094984 1_555
O80 W14 1.924251 1_555
O81 W12 1.924251 1_555
O82 W15 1.933041 1_555
O83 W15 1.819047 1_555
O84 W16 1.819047 1_555
O85 W16 1.933041 1_555
O86 W18 1.819047 1_555
O87 W17 1.933041 1_555
O88 W18 1.933041 1_555
O89 W17 1.819047 1_555
O90 W22 1.924251 1_555
O91 W23 1.924251 1_555
O92 W18 1.908418 1_555
O93 W17 2.094984 1_555
O94 W18 2.094984 1_555
O95 W17 1.908418 1_555
O96 W20 1.851637 1_555
O97 W0 1.868114 1_555
O98 W21 1.865241 1_555
O99 W19 1.851637 1_555
O100 W2 1.865241 1_556
O101 W1 1.868114 1_556
O102 W21 1.991240 1_555
O103 W0 1.979580 1_555
O104 W1 1.979580 1_555
O105 W2 1.991240 1_555
O106 W16 1.901180 1_555
O106 W19 2.056494 1_555
O107 W15 1.901180 1_555
O107 W20 2.056494 1_555
O108 W20 1.945844 1_555
O109 W19 1.946680 1_555
O110 W23 1.795948 1_555
O111 W21 1.896777 1_545
O111 W22 2.159617 1_555
O112 W0 1.859319 1_555
O112 W22 2.351433 1_555
O113 W20 1.946680 1_555
O114 W19 1.945844 1_555
O115 W4 1.986737 1_555
O115 W18 1.986737 1_555
O116 W21 2.014006 1_555
O116 W0 2.125476 1_555
O117 W3 1.986737 1_555
O117 W17 1.986737 1_555
O118 W1 1.859319 1_545
O118 W23 2.351433 1_555
O119 W2 1.896777 1_555
O119 W23 2.159617 1_555
