# generated using pymatgen
data_La2Fe2Se2O3
_symmetry_space_group_name_H-M   'P 1'
_cell_length_a   4.12167901
_cell_length_b   4.12164901
_cell_length_c   9.92672155
_cell_angle_alpha   78.02028101
_cell_angle_beta   78.02089201
_cell_angle_gamma   89.99243771
_symmetry_Int_Tables_number   1
_chemical_formula_structural   La2Fe2Se2O3
_chemical_formula_sum   'La2 Fe2 Se2 O3'
_cell_volume   161.20859744
_cell_formula_units_Z   1
loop_
 _symmetry_equiv_pos_site_id
 _symmetry_equiv_pos_as_xyz
  1  'x, y, z'
loop_
 _atom_site_type_symbol
 _atom_site_label
 _atom_site_symmetry_multiplicity
 _atom_site_fract_x
 _atom_site_fract_y
 _atom_site_fract_z
 _atom_site_occupancy
  La  La0  1  0.31367100  0.31366700  0.37266500  1
  La  La1  1  0.68633300  0.68632900  0.62733500  1
  Fe  Fe0  1  0.00000000  0.50000000  0.00000000  1
  Fe  Fe1  1  0.49999800  0.00000000  0.00000000  1
  Se  Se0  1  0.90214900  0.90215100  0.19570200  1
  Se  Se1  1  0.09785000  0.09785100  0.80429800  1
  O  O0  1  0.50000100  0.50000000  0.00000000  1
  O  O1  1  0.25000100  0.75000300  0.49999800  1
  O  O2  1  0.74999800  0.24999900  0.50000200  1
loop_
_geom_bond_atom_site_label_1
_geom_bond_atom_site_label_2
_geom_bond_distance
_geom_bond_site_symmetry_2
La0 O2 2.388874 1_555
La0 O1 2.388880 1_555
La0 O1 2.389006 1_545
La0 O2 2.389076 1_455
La0 Se0 3.363470 1_545
La0 Se0 3.363475 1_455
La0 Se0 3.363654 1_445
La0 Se0 3.363958 1_555
La1 O2 2.388859 1_555
La1 O1 2.388892 1_555
La1 O2 2.389027 1_565
La1 O1 2.389058 1_655
La1 Se1 3.363447 1_655
La1 Se1 3.363498 1_565
La1 Se1 3.363657 1_665
La1 Se1 3.363955 1_555
Fe0 O0 2.060835 1_455
Fe0 O0 2.060844 1_555
Fe0 Se1 2.774048 1_554
Fe0 Se0 2.774054 1_455
Fe0 Se0 2.774231 1_445
Fe0 Se1 2.774237 1_564
Fe1 O0 2.060825 1_545
Fe1 O0 2.060825 1_555
Fe1 Se1 2.774038 1_554
Fe1 Se0 2.774048 1_545
Fe1 Se0 2.774259 1_445
Fe1 Se1 2.774269 1_654
