# generated using pymatgen
data_Rb6Si10O23
_symmetry_space_group_name_H-M   'P 1'
_cell_length_a   9.46957576
_cell_length_b   9.46950208
_cell_length_c   8.11466863
_cell_angle_alpha   90.00038820
_cell_angle_beta   90.00022824
_cell_angle_gamma   120.99484230
_symmetry_Int_Tables_number   1
_chemical_formula_structural   Rb6Si10O23
_chemical_formula_sum   'Rb6 Si10 O23'
_cell_volume   623.76002661
_cell_formula_units_Z   1
loop_
 _symmetry_equiv_pos_site_id
 _symmetry_equiv_pos_as_xyz
  1  'x, y, z'
loop_
 _atom_site_type_symbol
 _atom_site_label
 _atom_site_symmetry_multiplicity
 _atom_site_fract_x
 _atom_site_fract_y
 _atom_site_fract_z
 _atom_site_occupancy
  Rb  Rb0  1  0.01641724  0.25974226  0.49998550  1
  Rb  Rb1  1  0.77306759  0.77310200  0.49998927  1
  Rb  Rb2  1  0.25977426  0.01646006  0.49998530  1
  Rb  Rb3  1  0.76895002  0.76898760  0.00000184  1
  Rb  Rb4  1  0.01488744  0.25200123  0.00000250  1
  Rb  Rb5  1  0.25203441  0.01487645  0.00000258  1
  Si  Si0  1  0.41527307  0.41525757  0.69965021  1
  Si  Si1  1  0.70186549  0.36236131  0.18810466  1
  Si  Si2  1  0.62417607  0.03145359  0.69015408  1
  Si  Si3  1  0.03145194  0.62419606  0.69015396  1
  Si  Si4  1  0.36234448  0.70184275  0.81190222  1
  Si  Si5  1  0.41527363  0.41525720  0.30034519  1
  Si  Si6  1  0.70187353  0.36235946  0.81191002  1
  Si  Si7  1  0.03144958  0.62420087  0.30985320  1
  Si  Si8  1  0.62417154  0.03144717  0.30985173  1
  Si  Si9  1  0.36234149  0.70184517  0.18811033  1
  O  O0  1  0.43846563  0.86407773  0.30221570  1
  O  O1  1  0.43885410  0.59016062  0.23346788  1
  O  O2  1  0.43886283  0.59016347  0.76652971  1
  O  O3  1  0.59650223  0.16423582  0.20322421  1
  O  O4  1  0.59648822  0.16422950  0.79678211  1
  O  O5  1  0.25360186  0.25358594  0.75298758  1
  O  O6  1  0.77122051  0.01066880  0.74608633  1
  O  O7  1  0.43846620  0.86407669  0.69777784  1
  O  O8  1  0.59017638  0.43886955  0.76657980  1
  O  O9  1  0.16422584  0.59648283  0.79676652  1
  O  O10  1  0.63789063  0.09577995  0.50000768  1
  O  O11  1  0.43968385  0.43963082  0.49999919  1
  O  O12  1  0.59016716  0.43886838  0.23341376  1
  O  O13  1  0.86407529  0.43848343  0.30222899  1
  O  O14  1  0.25360482  0.25358920  0.24699226  1
  O  O15  1  0.01067002  0.77123120  0.74610483  1
  O  O16  1  0.01068092  0.77124067  0.25390568  1
  O  O17  1  0.41338105  0.76575139  -0.00000277  1
  O  O18  1  0.86407961  0.43847140  0.69776671  1
  O  O19  1  0.77121950  0.01067615  0.25392143  1
  O  O20  1  0.09578494  0.63792684  0.50000543  1
  O  O21  1  0.76580044  0.41338736  -0.00000350  1
  O  O22  1  0.16422319  0.59649652  0.20323802  1
loop_
_geom_bond_atom_site_label_1
_geom_bond_atom_site_label_2
_geom_bond_distance
_geom_bond_site_symmetry_2
O0 Si9 1.611363 1_555
O0 Si8 1.654612 1_565
O0 Rb2 3.167930 1_565
O1 Si9 1.602544 1_555
O1 Si5 1.645187 1_555
O1 Rb3 3.282704 1_555
O2 Si4 1.602568 1_555
O2 Si0 1.645173 1_555
O2 Rb3 3.282647 1_556
O3 Si1 1.613245 1_555
O3 Si8 1.654632 1_555
O3 Rb5 3.257079 1_555
O4 Si6 1.613288 1_555
O4 Si2 1.654622 1_555
O4 Rb5 3.256999 1_556
O5 Si0 1.568767 1_555
O5 Rb4 3.015475 1_556
O5 Rb5 3.015494 1_556
O5 Rb2 3.065219 1_555
O5 Rb0 3.065588 1_555
O6 Si2 1.570322 1_555
O6 Rb1 3.014903 1_545
O6 Rb0 3.049944 1_655
O6 Rb4 3.059606 1_656
O6 Rb3 3.071312 1_546
O7 Si4 1.611477 1_555
O7 Si2 1.654660 1_565
O7 Rb2 3.168039 1_565
O8 Si6 1.602583 1_555
O8 Si0 1.645218 1_555
O8 Rb3 3.282582 1_556
O9 Si4 1.613209 1_555
O9 Si3 1.654682 1_555
O9 Rb4 3.257261 1_556
O10 Si2 1.639276 1_555
O10 Si8 1.639356 1_555
O10 Rb0 3.086631 1_655
O10 Rb2 3.258060 1_555
O11 Si0 1.635999 1_555
O11 Si5 1.636018 1_555
O11 Rb1 3.109808 1_555
O11 Rb2 3.453842 1_555
O11 Rb0 3.454715 1_555
O12 Si1 1.602530 1_555
O12 Si5 1.645145 1_555
O12 Rb3 3.282577 1_555
O13 Si1 1.611306 1_555
O13 Si7 1.654687 1_655
O13 Rb0 3.167962 1_655
O14 Si5 1.568766 1_555
O14 Rb4 3.015337 1_555
O14 Rb5 3.015349 1_555
O14 Rb2 3.065201 1_555
O14 Rb0 3.065560 1_555
O15 Si3 1.570256 1_555
O15 Rb1 3.015360 1_455
O15 Rb2 3.050265 1_565
O15 Rb5 3.059538 1_566
O15 Rb3 3.071588 1_456
O16 Si7 1.570222 1_555
O16 Rb1 3.015243 1_455
O16 Rb2 3.049948 1_565
O16 Rb5 3.059530 1_565
O16 Rb3 3.071656 1_455
O17 Si4 1.621187 1_554
O17 Si9 1.621335 1_555
O17 Rb3 3.351409 1_555
O17 Rb5 3.407639 1_565
O18 Si6 1.611386 1_555
O18 Si3 1.654716 1_655
O18 Rb0 3.167940 1_655
O19 Si8 1.570276 1_555
O19 Rb1 3.014822 1_545
O19 Rb0 3.049692 1_655
O19 Rb4 3.059633 1_655
O19 Rb3 3.071368 1_545
O20 Si3 1.639296 1_555
O20 Si7 1.639331 1_555
O20 Rb2 3.086636 1_565
O20 Rb0 3.258512 1_555
O21 Si6 1.621152 1_554
O21 Si1 1.621344 1_555
O21 Rb3 3.352096 1_555
O21 Rb4 3.407615 1_655
O22 Si9 1.613202 1_555
O22 Si7 1.654648 1_555
O22 Rb4 3.257333 1_555
