# generated using pymatgen
data_Rb6Si10O23
_symmetry_space_group_name_H-M   'P 1'
_cell_length_a   9.55290474
_cell_length_b   9.55290545
_cell_length_c   8.21590986
_cell_angle_alpha   89.99999584
_cell_angle_beta   89.99999519
_cell_angle_gamma   119.99952322
_symmetry_Int_Tables_number   1
_chemical_formula_structural   Rb6Si10O23
_chemical_formula_sum   'Rb6 Si10 O23'
_cell_volume   649.32079320
_cell_formula_units_Z   1
loop_
 _symmetry_equiv_pos_site_id
 _symmetry_equiv_pos_as_xyz
  1  'x, y, z'
loop_
 _atom_site_type_symbol
 _atom_site_label
 _atom_site_symmetry_multiplicity
 _atom_site_fract_x
 _atom_site_fract_y
 _atom_site_fract_z
 _atom_site_occupancy
  Rb  Rb0  1  0.25189430  0.99998774  0.50000002  1
  Rb  Rb1  1  0.74810462  0.74809724  0.50000014  1
  Rb  Rb2  1  0.99999355  0.23650654  0.00000006  1
  Rb  Rb3  1  0.23650007  0.99998496  -0.00000003  1
  Rb  Rb4  1  0.76349526  0.76348660  0.00000004  1
  Rb  Rb5  1  0.99999506  0.25190151  0.49999985  1
  Si  Si0  1  -0.00000020  0.60574384  0.30248095  1
  Si  Si1  1  0.66666632  0.33333132  0.19587493  1
  Si  Si2  1  0.33333616  0.66667100  0.19587499  1
  Si  Si3  1  0.39425955  0.39425877  0.30248098  1
  Si  Si4  1  0.66666637  0.33333130  0.80412517  1
  Si  Si5  1  0.39425964  0.39425886  0.69751914  1
  Si  Si6  1  -0.00000016  0.60574384  0.69751923  1
  Si  Si7  1  0.60574061  0.99999869  0.30248395  1
  Si  Si8  1  0.60574053  0.99999852  0.69751603  1
  Si  Si9  1  0.33333636  0.66667110  0.80412509  1
  O  O0  1  0.33334771  0.66668135  0.00000004  1
  O  O1  1  0.24592470  0.24592215  0.22120315  1
  O  O2  1  0.99999846  0.75408067  0.77879631  1
  O  O3  1  0.38004444  0.38003910  0.50000005  1
  O  O4  1  0.15022332  0.57293526  0.73916516  1
  O  O5  1  0.75407268  0.99999498  0.77880063  1
  O  O6  1  0.57729318  0.42707097  0.73916551  1
  O  O7  1  0.57729312  0.42707099  0.26083451  1
  O  O8  1  0.84977657  0.42271065  0.26084280  1
  O  O9  1  0.84977674  0.42271069  0.73915745  1
  O  O10  1  0.66666368  0.33331612  -0.00000001  1
  O  O11  1  0.42270473  0.84977748  0.26085220  1
  O  O12  1  0.57293388  0.15022660  0.26085548  1
  O  O13  1  0.75407294  0.99999558  0.22119946  1
  O  O14  1  0.61996826  0.99999633  0.49999997  1
  O  O15  1  0.99999852  0.75408068  0.22120378  1
  O  O16  1  0.42270468  0.84977750  0.73914796  1
  O  O17  1  0.00000210  0.61996919  0.50000010  1
  O  O18  1  0.42706644  0.57729244  0.73915353  1
  O  O19  1  0.57293419  0.15022663  0.73914474  1
  O  O20  1  0.24592478  0.24592217  0.77879698  1
  O  O21  1  0.42706635  0.57729235  0.26084661  1
  O  O22  1  0.15022348  0.57293531  0.26083504  1
loop_
_geom_bond_atom_site_label_1
_geom_bond_atom_site_label_2
_geom_bond_distance
_geom_bond_site_symmetry_2
O0 Si9 1.609291 1_554
O0 Si2 1.609291 1_555
O1 Si3 1.566506 1_555
O1 Rb2 2.935838 1_455
O1 Rb3 2.935852 1_545
O1 Rb0 3.302054 1_545
O1 Rb5 3.302055 1_455
O2 Si6 1.566510 1_655
O2 Rb3 2.935697 1_656
O2 Rb4 2.935709 1_556
O2 Rb1 3.301935 1_555
O2 Rb0 3.301944 1_655
O3 Si3 1.628473 1_555
O3 Si5 1.628473 1_555
O3 Rb0 3.199276 1_545
O3 Rb5 3.199280 1_455
O4 Si9 1.606311 1_555
O4 Si6 1.650606 1_555
O4 Rb5 3.305263 1_455
O5 Si8 1.566505 1_555
O5 Rb2 2.935777 1_566
O5 Rb4 2.935792 1_556
O5 Rb1 3.302038 1_555
O5 Rb5 3.302058 1_565
O6 Si4 1.606299 1_555
O6 Si5 1.650613 1_555
O6 Rb1 3.305217 1_555
O7 Si1 1.606298 1_555
O7 Si3 1.650613 1_555
O7 Rb1 3.305219 1_555
O8 Si1 1.606310 1_555
O8 Si0 1.650612 1_655
O8 Rb5 3.305169 1_555
O9 Si4 1.606310 1_555
O9 Si6 1.650611 1_655
O9 Rb5 3.305171 1_555
O10 Si4 1.609290 1_554
O10 Si1 1.609291 1_555
O11 Si2 1.606307 1_555
O11 Si7 1.650610 1_555
O11 Rb0 3.305079 1_555
O12 Si1 1.606302 1_555
O12 Si7 1.650606 1_545
O12 Rb0 3.305198 1_545
O13 Si7 1.566504 1_555
O13 Rb2 2.935773 1_565
O13 Rb4 2.935795 1_555
O13 Rb1 3.302042 1_555
O13 Rb5 3.302054 1_565
O14 Si7 1.628457 1_555
O14 Si8 1.628457 1_555
O14 Rb5 3.199114 1_565
O14 Rb1 3.199140 1_555
O15 Si0 1.566510 1_655
O15 Rb3 2.935697 1_655
O15 Rb4 2.935709 1_555
O15 Rb1 3.301937 1_555
O15 Rb0 3.301944 1_655
O16 Si9 1.606306 1_555
O16 Si8 1.650610 1_555
O16 Rb0 3.305079 1_555
O17 Si6 1.628478 1_555
O17 Si0 1.628479 1_555
O17 Rb0 3.199032 1_555
O17 Rb1 3.199065 1_455
O18 Si9 1.606298 1_555
O18 Si5 1.650611 1_555
O18 Rb1 3.305234 1_555
O19 Si4 1.606301 1_555
O19 Si8 1.650606 1_545
O19 Rb0 3.305201 1_545
O20 Si5 1.566507 1_555
O20 Rb2 2.935838 1_456
O20 Rb3 2.935850 1_546
O20 Rb0 3.302055 1_545
O20 Rb5 3.302058 1_455
O21 Si2 1.606299 1_555
O21 Si3 1.650611 1_555
O21 Rb1 3.305236 1_555
O22 Si2 1.606308 1_555
O22 Si0 1.650608 1_555
O22 Rb5 3.305261 1_455
