# generated using pymatgen
data_HoSi2Rh3
_symmetry_space_group_name_H-M   'P 1'
_cell_length_a   5.47508492
_cell_length_b   5.47508497
_cell_length_c   3.64768799
_cell_angle_alpha   90.00000000
_cell_angle_beta   90.00000000
_cell_angle_gamma   119.99999968
_symmetry_Int_Tables_number   1
_chemical_formula_structural   HoSi2Rh3
_chemical_formula_sum   'Ho1 Si2 Rh3'
_cell_volume   94.69565225
_cell_formula_units_Z   1
loop_
 _symmetry_equiv_pos_site_id
 _symmetry_equiv_pos_as_xyz
  1  'x, y, z'
loop_
 _atom_site_type_symbol
 _atom_site_label
 _atom_site_symmetry_multiplicity
 _atom_site_fract_x
 _atom_site_fract_y
 _atom_site_fract_z
 _atom_site_occupancy
  Ho  Ho0  1  -0.00000000  -0.00000000  -0.00000000  1
  Si  Si0  1  0.66666700  0.33333300  -0.00000000  1
  Si  Si1  1  0.33333300  0.66666700  0.00000000  1
  Rh  Rh0  1  0.50000000  -0.00000000  0.50000000  1
  Rh  Rh1  1  -0.00000000  0.50000000  0.50000000  1
  Rh  Rh2  1  0.50000000  0.50000000  0.50000000  1
loop_
_geom_bond_atom_site_label_1
_geom_bond_atom_site_label_2
_geom_bond_distance
_geom_bond_site_symmetry_2
Ho0 Si0 3.161039 1_455
Ho0 Si1 3.161039 1_545
Ho0 Si0 3.161043 1_555
Ho0 Si1 3.161043 1_445
Ho0 Si0 3.161043 1_445
Ho0 Si1 3.161043 1_555
Ho0 Rh0 3.289460 1_455
Ho0 Rh0 3.289460 1_555
Ho0 Rh0 3.289460 1_554
Ho0 Rh0 3.289460 1_454
Ho0 Rh1 3.289460 1_544
Ho0 Rh1 3.289460 1_555
Ho0 Rh1 3.289460 1_545
Ho0 Rh2 3.289460 1_555
Ho0 Rh2 3.289460 1_444
Ho0 Rh2 3.289460 1_445
Ho0 Rh2 3.289460 1_554
Ho0 Rh1 3.289460 1_554
Rh0 Si0 2.413389 1_556
Rh0 Si0 2.413389 1_555
Rh0 Si1 2.413389 1_545
Rh0 Si1 2.413389 1_546
Rh1 Si0 2.413389 1_456
Rh1 Si1 2.413389 1_555
Rh1 Si1 2.413389 1_556
Rh1 Si0 2.413389 1_455
Rh2 Si0 2.413392 1_555
Rh2 Si1 2.413392 1_555
Rh2 Si1 2.413392 1_556
Rh2 Si0 2.413392 1_556
