# generated using pymatgen
data_Li10Co11O21
_symmetry_space_group_name_H-M   'P 1'
_cell_length_a   34.83090509
_cell_length_b   9.53119871
_cell_length_c   28.59343750
_cell_angle_alpha   17.26981267
_cell_angle_beta   16.71229731
_cell_angle_gamma   16.71211631
_symmetry_Int_Tables_number   1
_chemical_formula_structural   Li10Co11O21
_chemical_formula_sum   'Li20 Co22 O42'
_cell_volume   699.07479042
_cell_formula_units_Z   2
loop_
 _symmetry_equiv_pos_site_id
 _symmetry_equiv_pos_as_xyz
  1  'x, y, z'
loop_
 _atom_site_type_symbol
 _atom_site_label
 _atom_site_symmetry_multiplicity
 _atom_site_fract_x
 _atom_site_fract_y
 _atom_site_fract_z
 _atom_site_occupancy
  Li  Li0  1  0.00005100  0.99930900  0.00010300  1
  Li  Li1  1  0.14275700  0.00030000  0.00004200  1
  Li  Li2  1  0.28343500  0.99988000  0.00269500  1
  Li  Li3  1  0.14280600  0.00069100  0.33323000  1
  Li  Li4  1  0.42861800  0.00028500  0.99987100  1
  Li  Li5  1  0.28579300  0.99992300  0.33327300  1
  Li  Li6  1  0.57145000  0.99247100  0.00248400  1
  Li  Li7  1  0.14273400  0.99969400  0.66696500  1
  Li  Li8  1  0.42852400  0.00048200  0.33323900  1
  Li  Li9  1  0.71433300  0.99951800  0.00009400  1
  Li  Li10  1  0.28345400  0.00797900  0.66663100  1
  Li  Li11  1  0.57140800  0.00752900  0.33084900  1
  Li  Li12  1  0.85706400  0.00007700  0.00006000  1
  Li  Li13  1  0.42900700  0.99852300  0.66665500  1
  Li  Li14  1  0.71423900  0.99971500  0.33346200  1
  Li  Li15  1  0.85942200  0.00012000  0.33063800  1
  Li  Li16  1  0.71385000  0.00147700  0.66667900  1
  Li  Li17  1  0.00010000  0.99970000  0.33329100  1
  Li  Li18  1  0.85940300  0.99202100  0.66670300  1
  Li  Li19  1  0.00012300  0.00030600  0.66636900  1
  Co  Co0  1  0.07142900  0.50000000  0.16666700  1
  Co  Co1  1  0.21415500  0.49991800  0.16687900  1
  Co  Co2  1  0.07154600  0.49959300  0.50004700  1
  Co  Co3  1  0.35672400  0.49944500  0.16740500  1
  Co  Co4  1  0.21416700  0.50059800  0.49996400  1
  Co  Co5  1  0.50002000  0.49997100  0.16667900  1
  Co  Co6  1  0.07131200  0.50040700  0.83328600  1
  Co  Co7  1  0.35671100  0.50227100  0.49980900  1
  Co  Co8  1  0.64283700  0.50002900  0.16665500  1
  Co  Co9  1  0.21359300  0.50114800  0.83372300  1
  Co  Co10  1  0.49987200  0.50087000  0.49884500  1
  Co  Co11  1  0.78613300  0.50055500  0.16592900  1
  Co  Co12  1  0.57142900  0.00000000  0.66666700  1
  Co  Co13  1  0.35603700  0.50337200  0.83450000  1
  Co  Co14  1  0.64298700  0.50344300  0.49972800  1
  Co  Co15  1  0.92870200  0.50008200  0.16645500  1
  Co  Co16  1  0.49987000  0.49655700  0.83360500  1
  Co  Co17  1  0.78682000  0.49662800  0.49883300  1
  Co  Co18  1  0.64298500  0.49913000  0.83448800  1
  Co  Co19  1  0.92926400  0.49885200  0.49961000  1
  Co  Co20  1  0.78614600  0.49772900  0.83352400  1
  Co  Co21  1  0.92869000  0.49940200  0.83336900  1
  O  O0  1  0.10864200  0.23861500  0.07985800  1
  O  O1  1  0.25120500  0.23793200  0.08039400  1
  O  O2  1  0.03421500  0.76138500  0.25347600  1
  O  O3  1  0.10919900  0.23799000  0.41269900  1
  O  O4  1  0.39421200  0.23886900  0.07992000  1
  O  O5  1  0.17682300  0.76145000  0.25374400  1
  O  O6  1  0.25111100  0.23979300  0.41321300  1
  O  O7  1  0.53704700  0.23729200  0.08045600  1
  O  O8  1  0.03422200  0.76040400  0.58712700  1
  O  O9  1  0.31985600  0.76123500  0.25370300  1
  O  O10  1  0.10863500  0.23959600  0.74620600  1
  O  O11  1  0.39418700  0.23983000  0.41297000  1
  O  O12  1  0.68000200  0.23928500  0.07979500  1
  O  O13  1  0.17680700  0.76127800  0.58716000  1
  O  O14  1  0.46285500  0.76071500  0.25353900  1
  O  O15  1  0.25104400  0.24135800  0.74609900  1
  O  O16  1  0.53703300  0.24165800  0.41232500  1
  O  O17  1  0.82300200  0.23876500  0.07963100  1
  O  O18  1  0.03365800  0.76201000  0.92063400  1
  O  O19  1  0.31904900  0.76295700  0.58734600  1
  O  O20  1  0.60581000  0.76270800  0.25287800  1
  O  O21  1  0.40003700  0.22907800  0.74306100  1
  O  O22  1  0.67723700  0.22932400  0.41962400  1
  O  O23  1  0.96603400  0.23855000  0.07959000  1
  O  O24  1  0.17669200  0.76159300  0.92052500  1
  O  O25  1  0.46563200  0.74113400  0.59022400  1
  O  O26  1  0.74864500  0.76113100  0.25341400  1
  O  O27  1  0.53686600  0.24095200  0.74723700  1
  O  O28  1  0.82393000  0.23774300  0.41223700  1
  O  O29  1  0.31892800  0.76225700  0.92109600  1
  O  O30  1  0.60599100  0.75904800  0.58609600  1
  O  O31  1  0.89165200  0.76206800  0.25294000  1
  O  O32  1  0.67722500  0.25886600  0.74310900  1
  O  O33  1  0.96616500  0.23840700  0.41280800  1
  O  O34  1  0.46562000  0.77067600  0.91370900  1
  O  O35  1  0.74282000  0.77092200  0.59027200  1
  O  O36  1  0.82380900  0.23704300  0.74598700  1
  O  O37  1  0.60582400  0.75834200  0.92100800  1
  O  O38  1  0.89181300  0.75864200  0.58723400  1
  O  O39  1  0.96605000  0.23872200  0.74617300  1
  O  O40  1  0.74867000  0.76017000  0.92036300  1
  O  O41  1  0.89174600  0.76020700  0.92012000  1
loop_
_geom_bond_atom_site_label_1
_geom_bond_atom_site_label_2
_geom_bond_distance
_geom_bond_site_symmetry_2
Li0 O31 2.116854 1_455
Li0 O0 2.118722 1_555
Li0 O24 2.119472 1_554
Li0 O10 2.120630 1_564
Li0 O17 2.121169 1_465
Li0 O41 2.121516 1_464
Li1 O29 2.115803 1_544
Li1 O2 2.118542 1_545
Li1 O23 2.118999 1_455
Li1 O18 2.121967 1_554
Li1 O15 2.122769 1_554
Li1 O1 2.123722 1_545
Li2 O5 2.105173 1_555
Li2 O0 2.105456 1_565
Li2 O4 2.120608 1_555
Li2 O24 2.121906 1_564
Li2 O21 2.155787 1_564
Li2 O34 2.155801 1_554
Li3 O1 2.116835 1_555
Li3 O2 2.118736 1_555
Li3 O33 2.119472 1_455
Li3 O8 2.120630 1_545
Li3 O9 2.121218 1_545
Li3 O6 2.121516 1_545
Li4 O27 2.099670 1_555
Li4 O9 2.122176 1_546
Li4 O37 2.122619 1_545
Li4 O29 2.122912 1_555
Li4 O1 2.124277 1_556
Li4 O7 2.124898 1_546
Li5 O3 2.118765 1_565
Li5 O11 2.118769 1_555
Li5 O4 2.118793 1_565
Li5 O14 2.119140 1_555
Li5 O5 2.121179 1_565
Li5 O13 2.121511 1_555
Li6 O14 2.104054 1_555
Li6 O12 2.104084 1_555
Li6 O40 2.122254 1_554
Li6 O4 2.122512 1_565
Li6 O34 2.153913 1_564
Li6 O32 2.153940 1_564
Li7 O19 2.115409 1_555
Li7 O15 2.116422 1_555
Li7 O8 2.118953 1_565
Li7 O39 2.119426 1_465
Li7 O18 2.120213 1_555
Li7 O6 2.121985 1_565
Li8 O7 2.115781 1_555
Li8 O16 2.117065 1_545
Li8 O9 2.120889 1_555
Li8 O20 2.122858 1_545
Li8 O19 2.123108 1_545
Li8 O6 2.124158 1_555
Li9 O20 2.115800 1_555
Li9 O37 2.117065 1_564
Li9 O17 2.120859 1_555
Li9 O7 2.122838 1_565
Li9 O36 2.123092 1_564
Li9 O41 2.124158 1_554
Li10 O10 2.105454 1_555
Li10 O13 2.105699 1_555
Li10 O11 2.120303 1_555
Li10 O24 2.121947 1_545
Li10 O21 2.155678 1_545
Li10 O25 2.156207 1_545
Li11 O12 2.104050 1_555
Li11 O14 2.104082 1_555
Li11 O11 2.122284 1_555
Li11 O26 2.122502 1_545
Li11 O25 2.153924 1_545
Li11 O22 2.153929 1_545
Li12 O18 2.118765 1_644
Li12 O40 2.118769 1_554
Li12 O26 2.118813 1_545
Li12 O12 2.119120 1_555
Li12 O23 2.121165 1_545
Li12 O39 2.121511 1_554
Li13 O27 2.098828 1_555
Li13 O30 2.099052 1_555
Li13 O16 2.125016 1_565
Li13 O29 2.125736 1_555
Li13 O19 2.127311 1_565
Li13 O15 2.127831 1_565
Li14 O30 2.099670 1_555
Li14 O17 2.122140 1_565
Li14 O16 2.122619 1_565
Li14 O28 2.122896 1_555
Li14 O31 2.124296 1_555
Li14 O20 2.124912 1_565
Li15 O23 2.105153 1_555
Li15 O2 2.105476 1_645
Li15 O26 2.120622 1_555
Li15 O33 2.121906 1_545
Li15 O35 2.155787 1_545
Li15 O22 2.155801 1_555
Li16 O30 2.098814 1_555
Li16 O27 2.099071 1_555
Li16 O37 2.124996 1_545
Li16 O28 2.125739 1_555
Li16 O36 2.127308 1_545
Li16 O38 2.127811 1_545
Li17 O28 2.115774 1_465
Li17 O0 2.118522 1_565
Li17 O5 2.119018 1_555
Li17 O3 2.121967 1_555
Li17 O38 2.122769 1_455
Li17 O31 2.123736 1_465
Li18 O8 2.105434 1_655
Li18 O39 2.105713 1_555
Li18 O40 2.120283 1_555
Li18 O33 2.121966 1_565
Li18 O35 2.155665 1_565
Li18 O32 2.156226 1_565
Li19 O36 2.115399 1_455
Li19 O38 2.116408 1_455
Li19 O10 2.118967 1_545
Li19 O13 2.119406 1_545
Li19 O3 2.120233 1_555
Li19 O41 2.121966 1_445
Co0 O1 1.937288 1_555
Co0 O31 1.937315 1_455
Co0 O33 1.939398 1_455
Co0 O24 1.939427 1_554
Co0 O23 1.939784 1_465
Co0 O5 1.939796 1_545
Co1 O3 1.936595 1_555
Co1 O29 1.936782 1_554
Co1 O4 1.939045 1_555
Co1 O9 1.939435 1_545
Co1 O2 1.939638 1_555
Co1 O0 1.939749 1_565
Co2 O6 1.934860 1_555
Co2 O38 1.937681 1_455
Co2 O39 1.938827 1_455
Co2 O13 1.939733 1_545
Co2 O33 1.939733 1_465
Co2 O5 1.941045 1_555
Co3 O6 1.936307 1_555
Co3 O1 1.938600 1_565
Co3 O5 1.939914 1_555
Co3 O7 1.940208 1_555
Co3 O14 1.941698 1_545
Co3 O34 1.988505 1_554
Co4 O3 1.936544 1_565
Co4 O19 1.937772 1_545
Co4 O11 1.939033 1_555
Co4 O9 1.939554 1_555
Co4 O8 1.939565 1_555
Co4 O10 1.939881 1_555
Co5 O37 1.936153 1_554
Co5 O20 1.936948 1_545
Co5 O9 1.939636 1_555
Co5 O4 1.940015 1_565
Co5 O11 1.940033 1_555
Co5 O12 1.940324 1_555
Co6 O41 1.934887 1_455
Co6 O15 1.937654 1_555
Co6 O13 1.938839 1_555
Co6 O39 1.939720 1_465
Co6 O24 1.939745 1_545
Co6 O23 1.941050 1_456
Co7 O6 1.936551 1_565
Co7 O15 1.939345 1_555
Co7 O13 1.939781 1_555
Co7 O16 1.939817 1_555
Co7 O14 1.941829 1_555
Co7 O25 1.988443 1_545
Co8 O16 1.936137 1_555
Co8 O7 1.936948 1_565
Co8 O17 1.939663 1_555
Co8 O26 1.940015 1_545
Co8 O40 1.940050 1_554
Co8 O14 1.940324 1_555
Co9 O18 1.937604 1_555
Co9 O29 1.939321 1_545
Co9 O0 1.939850 1_556
Co9 O10 1.939955 1_565
Co9 O19 1.940259 1_555
Co9 O21 1.987677 1_555
Co10 O20 1.927493 1_555
Co10 O19 1.928108 1_555
Co10 O22 1.938653 1_555
Co10 O21 1.938775 1_555
Co10 O30 1.947448 1_545
Co10 O11 1.951382 1_565
Co11 O41 1.936324 1_554
Co11 O31 1.938600 1_545
Co11 O23 1.939914 1_555
Co11 O20 1.940208 1_555
Co11 O12 1.941698 1_565
Co11 O22 1.988489 1_555
Co12 O34 2.081635 1_545
Co12 O22 2.081671 1_555
Co12 O25 2.081880 1_555
Co12 O32 2.081911 1_545
Co12 O35 2.082982 1_545
Co12 O21 2.083031 1_555
Co13 O1 1.927199 1_556
Co13 O15 1.927777 1_565
Co13 O34 1.939246 1_545
Co13 O25 1.939343 1_555
Co13 O27 1.947105 1_555
Co13 O24 1.951621 1_555
Co14 O16 1.927788 1_565
Co14 O28 1.928102 1_555
Co14 O25 1.938550 1_555
Co14 O35 1.938666 1_545
Co14 O27 1.948785 1_555
Co14 O26 1.951381 1_555
Co15 O18 1.936612 1_654
Co15 O28 1.936777 1_555
Co15 O26 1.939045 1_555
Co15 O17 1.939448 1_565
Co15 O0 1.939638 1_655
Co15 O2 1.939749 1_645
Co16 O37 1.927788 1_545
Co16 O29 1.928075 1_555
Co16 O32 1.938550 1_555
Co16 O21 1.938666 1_565
Co16 O30 1.948785 1_555
Co16 O4 1.951398 1_556
Co17 O31 1.927182 1_555
Co17 O38 1.927777 1_545
Co17 O22 1.939246 1_565
Co17 O32 1.939343 1_555
Co17 O30 1.947105 1_555
Co17 O33 1.951621 1_555
Co18 O7 1.927510 1_556
Co18 O36 1.928135 1_555
Co18 O34 1.938653 1_555
Co18 O35 1.938775 1_555
Co18 O27 1.947448 1_565
Co18 O40 1.951382 1_545
Co19 O3 1.937604 1_655
Co19 O28 1.939334 1_565
Co19 O2 1.939833 1_655
Co19 O8 1.939955 1_645
Co19 O36 1.940271 1_555
Co19 O35 1.987677 1_555
Co20 O41 1.936551 1_545
Co20 O38 1.939345 1_555
Co20 O39 1.939781 1_555
Co20 O37 1.939817 1_555
Co20 O12 1.941846 1_556
Co20 O32 1.988443 1_565
Co21 O18 1.936544 1_645
Co21 O36 1.937785 1_565
Co21 O40 1.939033 1_555
Co21 O10 1.939565 1_655
Co21 O17 1.939583 1_556
Co21 O8 1.939881 1_655
