# generated using pymatgen
data_Al22Mo5
_symmetry_space_group_name_H-M   'P 1'
_cell_length_a   4.89739432
_cell_length_b   5.18482901
_cell_length_c   36.64680771
_cell_angle_alpha   88.19477969
_cell_angle_beta   86.17108562
_cell_angle_gamma   61.81826123
_symmetry_Int_Tables_number   1
_chemical_formula_structural   Al22Mo5
_chemical_formula_sum   'Al44 Mo10'
_cell_volume   818.39854553
_cell_formula_units_Z   2
loop_
 _symmetry_equiv_pos_site_id
 _symmetry_equiv_pos_as_xyz
  1  'x, y, z'
loop_
 _atom_site_type_symbol
 _atom_site_label
 _atom_site_symmetry_multiplicity
 _atom_site_fract_x
 _atom_site_fract_y
 _atom_site_fract_z
 _atom_site_occupancy
  Al  Al0  1  0.05948857  0.03420860  0.20797894  1
  Al  Al1  1  0.60618209  0.94497467  0.16763368  1
  Al  Al2  1  0.45450557  0.45508368  0.98229612  1
  Al  Al3  1  0.27555063  0.66691640  0.62919897  1
  Al  Al4  1  0.61352529  0.14664404  0.44434012  1
  Al  Al5  1  0.30802470  0.64725550  0.05570010  1
  Al  Al6  1  0.71882375  0.05495294  0.83235998  1
  Al  Al7  1  0.01084961  0.35283173  0.94431465  1
  Al  Al8  1  0.59195927  0.25654970  0.90601094  1
  Al  Al9  1  0.20481536  0.85270690  0.55569373  1
  Al  Al10  1  0.56302909  0.91871484  0.96242239  1
  Al  Al11  1  0.87384231  0.41457858  0.74414944  1
  Al  Al12  1  0.15569390  0.49655991  0.18301836  1
  Al  Al13  1  0.34364313  0.46575084  0.70801982  1
  Al  Al14  1  0.86148703  0.20733849  0.07346190  1
  Al  Al15  1  0.44432007  0.08128300  0.03756836  1
  Al  Al16  1  0.31799351  0.29297284  0.57347772  1
  Al  Al17  1  0.15544826  0.16693791  0.87077749  1
  Al  Al18  1  0.30169074  0.96575387  0.79199260  1
  Al  Al19  1  0.51709776  0.53421058  0.29200246  1
  Al  Al20  1  0.03208696  0.58557877  0.25584561  1
  Al  Al21  1  0.89186020  0.54520452  0.01768423  1
  Al  Al22  1  0.73186837  0.58073912  0.46245817  1
  Al  Al23  1  0.15951712  0.04468303  0.48229605  1
  Al  Al24  1  0.58861195  -0.00333875  0.31699726  1
  Al  Al25  1  0.83542017  0.50330018  0.81698788  1
  Al  Al26  1  0.36507332  0.13456500  0.64841543  1
  Al  Al27  1  0.77540578  0.41854808  0.53757236  1
  Al  Al28  1  0.14174846  0.79300610  0.92652106  1
  Al  Al29  1  0.02343975  0.44501599  0.33236519  1
  Al  Al30  1  0.18491270  0.70664527  0.42653397  1
  Al  Al31  1  0.68660360  0.95486247  0.51772753  1
  Al  Al32  1  0.74977758  0.36566385  0.14839240  1
  Al  Al33  1  0.86749164  0.91488722  0.75584472  1
  Al  Al34  1  0.19288880  0.83330048  0.12921464  1
  Al  Al35  1  0.14812431  0.86550106  0.35158863  1
  Al  Al36  1  0.74729092  0.75660093  0.59395029  1
  Al  Al37  1  0.09806819  0.24324519  0.40603630  1
  Al  Al38  1  0.80053816  0.55522674  0.66762154  1
  Al  Al39  1  0.75454905  0.74371793  0.09397224  1
  Al  Al40  1  0.53818422  0.08556845  0.24413993  1
  Al  Al41  1  0.90214099  0.00344298  0.68302141  1
  Al  Al42  1  0.26371550  0.63464421  0.85160674  1
  Al  Al43  1  0.57202667  0.33310441  0.37080821  1
  Mo  Mo0  1  0.05745715  0.06893644  0.28194624  1
  Mo  Mo1  1  0.69854529  0.71371027  0.89029336  1
  Mo  Mo2  1  0.66210199  0.78612712  0.39032423  1
  Mo  Mo3  1  0.37637291  0.43125676  0.78196053  1
  Mo  Mo4  1  0.40817100  0.93126309  0.71804307  1
  Mo  Mo5  1  0.00206737  0.00001574  -0.00001438  1
  Mo  Mo6  1  0.58954440  0.56880542  0.21802250  1
  Mo  Mo7  1  0.83841118  0.21380977  0.60970529  1
  Mo  Mo8  1  0.30255392  0.28629775  0.10967533  1
  Mo  Mo9  1  0.25185976  0.49983544  0.50002225  1
loop_
_geom_bond_atom_site_label_1
_geom_bond_atom_site_label_2
_geom_bond_distance
_geom_bond_site_symmetry_2
Al0 Mo6 2.617621 1_545
Al0 Mo6 2.653464 1_455
Al0 Mo0 2.721339 1_555
Al0 Al32 2.786787 1_455
Al1 Al32 2.652380 1_565
Al1 Mo6 2.669005 1_555
Al1 Mo8 2.748402 1_565
Al1 Al32 2.843522 1_555
Al2 Al28 2.692839 1_555
Al2 Mo5 2.706108 1_566
Al2 Mo5 2.708859 1_656
Al3 Al41 2.645822 1_465
Al3 Mo7 2.711828 1_555
Al3 Mo7 2.734360 1_465
Al4 Mo2 2.686864 1_545
Al4 Mo9 2.709920 1_555
Al5 Mo8 2.687538 1_555
Al5 Mo5 2.709972 1_565
Al6 Mo3 2.669587 1_555
Al6 Mo1 2.747511 1_545
Al7 Mo1 2.688395 1_455
Al7 Mo5 2.708853 1_556
Al8 Mo1 2.683305 1_545
Al8 Mo1 2.695377 1_555
Al9 Mo7 2.688673 1_465
Al9 Mo9 2.708695 1_555
Al10 Al7 2.686232 1_565
Al10 Al2 2.688234 1_565
Al10 Al8 2.707233 1_565
Al10 Al2 2.763357 1_555
Al10 Al21 2.772698 1_556
Al10 Al7 2.776529 1_655
Al10 Mo1 2.798873 1_555
Al10 Mo5 2.825545 1_666
Al10 Al28 2.828387 1_655
Al10 Mo5 2.838606 1_566
Al10 Al28 2.845912 1_555
Al10 Al15 2.846360 1_566
Al11 Mo3 2.687152 1_555
Al11 Al25 2.701977 1_555
Al11 Mo4 2.766265 1_555
Al11 Mo4 2.768660 1_645
Al11 Mo3 2.940834 1_655
Al12 Mo6 2.728810 1_555
Al12 Al32 2.772751 1_455
Al12 Mo6 2.836857 1_455
Al12 Mo8 2.848825 1_555
Al12 Al32 2.869124 1_555
Al13 Mo4 2.617645 1_555
Al13 Mo4 2.653050 1_545
Al13 Mo3 2.720386 1_555
Al13 Al41 2.770766 1_555
Al13 Al41 2.774261 1_465
Al13 Al26 2.786804 1_555
Al14 Al21 2.692397 1_555
Al14 Al5 2.697343 1_555
Al14 Al39 2.697559 1_555
Al14 Al5 2.751287 1_645
Al14 Al39 2.764081 1_545
Al14 Al34 2.791037 1_645
Al14 Mo8 2.801269 1_655
Al14 Mo8 2.812880 1_555
Al14 Al15 2.829429 1_555
Al14 Al32 2.833844 1_555
Al14 Al15 2.845246 1_655
Al14 Mo5 2.848808 1_655
Al15 Al5 2.686359 1_545
Al15 Al21 2.687106 1_545
Al15 Al39 2.706288 1_545
Al15 Al21 2.764583 1_455
Al15 Al2 2.773452 1_554
Al15 Al5 2.776994 1_555
Al15 Mo8 2.798134 1_555
Al15 Mo5 2.825352 1_655
Al15 Mo5 2.839451 1_555
Al16 Al31 2.692597 1_545
Al16 Al36 2.696976 1_545
Al16 Al9 2.698104 1_545
Al16 Al9 2.750275 1_555
Al16 Al36 2.764173 1_455
Al16 Al3 2.790012 1_555
Al16 Mo7 2.802922 1_555
Al16 Mo7 2.811981 1_455
Al16 Al27 2.827576 1_455
Al16 Al26 2.834270 1_555
Al16 Al27 2.846655 1_555
Al16 Mo9 2.847464 1_555
Al17 Al25 2.645350 1_455
Al17 Al42 2.661149 1_545
Al17 Mo1 2.711551 1_545
Al17 Mo1 2.734519 1_455
Al17 Al42 2.777160 1_555
Al17 Al28 2.791326 1_545
Al18 Mo3 2.618034 1_565
Al18 Mo3 2.652878 1_555
Al18 Mo4 2.720626 1_555
Al18 Al25 2.771674 1_555
Al18 Al25 2.773344 1_465
Al18 Al42 2.786682 1_555
Al19 Mo0 2.618082 1_655
Al19 Mo0 2.653519 1_565
Al19 Mo6 2.722000 1_555
Al19 Al24 2.772217 1_565
Al19 Al24 2.773016 1_555
Al19 Al35 2.785967 1_555
Al20 Mo6 2.685680 1_455
Al20 Mo0 2.765116 1_555
Al20 Mo0 2.769841 1_565
Al20 Mo6 2.942814 1_555
Al21 Mo5 2.707396 1_655
Al21 Mo5 2.707720 1_665
Al22 Al23 2.686561 1_655
Al22 Al4 2.687024 1_555
Al22 Al37 2.705952 1_655
Al22 Al23 2.764263 1_565
Al22 Al31 2.774108 1_555
Al22 Al4 2.776373 1_565
Al22 Mo2 2.799703 1_555
Al22 Mo9 2.824715 1_655
Al22 Al30 2.829478 1_655
Al22 Mo9 2.839020 1_555
Al22 Al27 2.844846 1_555
Al22 Al30 2.846002 1_555
Al23 Al30 2.692402 1_545
Al23 Mo9 2.706239 1_545
Al23 Mo9 2.709141 1_555
Al23 Al27 2.773789 1_455
Al24 Al43 2.645717 1_555
Al24 Al29 2.679382 1_555
Al24 Al40 2.702835 1_555
Al24 Al29 2.708942 1_645
Al24 Mo0 2.729659 1_655
Al24 Al35 2.772947 1_545
Al24 Mo0 2.837643 1_555
Al24 Mo2 2.848755 1_545
Al24 Al35 2.868343 1_645
Al25 Al6 2.678713 1_555
Al25 Al6 2.709279 1_565
Al25 Mo3 2.728948 1_655
Al25 Al42 2.773373 1_555
Al25 Mo3 2.837283 1_555
Al25 Mo1 2.847756 1_555
Al25 Al42 2.869136 1_655
Al26 Al38 2.652816 1_455
Al26 Al3 2.661266 1_555
Al26 Mo4 2.712709 1_545
Al26 Al36 2.758764 1_545
Al26 Al41 2.773235 1_555
Al26 Al3 2.778510 1_545
Al26 Mo7 2.824650 1_555
Al26 Al38 2.843022 1_545
Al26 Al41 2.868460 1_455
Al26 Mo7 2.878345 1_455
Al27 Al9 2.687338 1_555
Al27 Al31 2.687543 1_555
Al27 Al36 2.705908 1_555
Al27 Al31 2.763664 1_545
Al27 Al9 2.776133 1_645
Al27 Mo7 2.798679 1_555
Al27 Mo9 2.824791 1_655
Al27 Mo9 2.838908 1_555
Al28 Al7 2.697602 1_555
Al28 Al8 2.698252 1_555
Al28 Al7 2.750840 1_565
Al28 Al8 2.763176 1_465
Al28 Mo1 2.803448 1_555
Al28 Mo1 2.811588 1_455
Al28 Al42 2.833335 1_555
Al28 Mo5 2.847929 1_566
Al29 Al35 2.652136 1_555
Al29 Mo0 2.668879 1_555
Al29 Mo2 2.747625 1_455
Al29 Al35 2.844010 1_545
Al30 Al37 2.697962 1_565
Al30 Al4 2.698312 1_465
Al30 Al4 2.751218 1_555
Al30 Al37 2.763957 1_555
Al30 Al43 2.789205 1_555
Al30 Mo2 2.802358 1_555
Al30 Mo2 2.812306 1_455
Al30 Al35 2.835057 1_555
Al30 Mo9 2.848515 1_555
Al31 Mo9 2.706422 1_565
Al31 Mo9 2.708896 1_655
Al32 Al34 2.661357 1_645
Al32 Mo6 2.712497 1_555
Al32 Al39 2.758768 1_555
Al32 Al34 2.777335 1_555
Al32 Mo8 2.825385 1_655
Al32 Mo8 2.877971 1_555
Al33 Mo4 2.686038 1_555
Al33 Al41 2.701426 1_565
Al33 Mo3 2.764154 1_565
Al33 Mo3 2.771176 1_655
Al33 Mo4 2.941566 1_655
Al34 Mo8 2.711418 1_565
Al34 Mo8 2.735433 1_555
Al35 Al43 2.661892 1_555
Al35 Mo0 2.713423 1_565
Al35 Al37 2.757665 1_565
Al35 Al43 2.777673 1_465
Al35 Mo2 2.825323 1_555
Al35 Mo2 2.878746 1_455
Al36 Mo7 2.682998 1_555
Al36 Mo7 2.696635 1_565
Al37 Mo2 2.683024 1_455
Al37 Mo2 2.696087 1_545
Al38 Mo4 2.668731 1_555
Al38 Al41 2.679381 1_565
Al38 Al41 2.709621 1_555
Al38 Mo7 2.747136 1_555
Al39 Mo8 2.682379 1_565
Al39 Mo8 2.695719 1_655
Al40 Mo0 2.686702 1_555
Al40 Mo6 2.766045 1_545
Al40 Mo6 2.769278 1_555
Al40 Mo0 2.941117 1_655
Al41 Mo4 2.728989 1_645
Al41 Mo4 2.837222 1_545
Al41 Mo7 2.848121 1_555
Al42 Al6 2.651296 1_465
Al42 Mo3 2.713427 1_555
Al42 Al8 2.758152 1_555
Al42 Mo1 2.824423 1_555
Al42 Al6 2.845170 1_555
Al42 Mo1 2.877481 1_455
Al43 Mo2 2.711061 1_555
Al43 Mo2 2.735250 1_545
