# generated using pymatgen
data_V3As2
_symmetry_space_group_name_H-M   'P 1'
_cell_length_a   3.31781320
_cell_length_b   9.54639326
_cell_length_c   9.54735423
_cell_angle_alpha   89.99634758
_cell_angle_beta   90.00000000
_cell_angle_gamma   90.00000000
_symmetry_Int_Tables_number   1
_chemical_formula_structural   V3As2
_chemical_formula_sum   'V12 As8'
_cell_volume   302.39477799
_cell_formula_units_Z   4
loop_
 _symmetry_equiv_pos_site_id
 _symmetry_equiv_pos_as_xyz
  1  'x, y, z'
loop_
 _atom_site_type_symbol
 _atom_site_label
 _atom_site_symmetry_multiplicity
 _atom_site_fract_x
 _atom_site_fract_y
 _atom_site_fract_z
 _atom_site_occupancy
  V  V0  1  0.50000000  0.12613810  0.18555462  1
  V  V1  1  0.50000000  0.81443199  0.12614961  1
  V  V2  1  0.50000000  0.18556801  0.87385039  1
  V  V3  1  0.50000000  0.87386190  0.81444538  1
  V  V4  1  -0.00000000  0.39786460  0.28940821  1
  V  V5  1  0.00000000  0.71058222  0.39787398  1
  V  V6  1  -0.00000000  0.28941778  0.60212602  1
  V  V7  1  0.00000000  0.60213540  0.71059179  1
  V  V8  1  0.50000000  -0.00000000  0.50000000  1
  V  V9  1  0.50000000  0.50000000  0.00000000  1
  V  V10  1  0.50000000  0.50000000  0.50000000  1
  V  V11  1  0.00000000  -0.00000000  0.00000000  1
  As  As0  1  0.50000000  0.24518154  0.41240467  1
  As  As1  1  0.50000000  0.58759357  0.24523460  1
  As  As2  1  0.50000000  0.41240643  0.75476540  1
  As  As3  1  0.50000000  0.75481846  0.58759533  1
  As  As4  1  -0.00000000  0.28292174  0.04827401  1
  As  As5  1  0.00000000  0.95174310  0.28291821  1
  As  As6  1  0.00000000  0.04825690  0.71708179  1
  As  As7  1  -0.00000000  0.71707826  0.95172599  1
loop_
_geom_bond_atom_site_label_1
_geom_bond_atom_site_label_2
_geom_bond_distance
_geom_bond_site_symmetry_2
V0 V11 2.709366 1_555
V0 V11 2.709366 1_655
V1 V11 2.709335 1_565
V1 V11 2.709335 1_665
V11 V2 2.709335 1_554
V11 V2 2.709335 1_454
V11 V3 2.709366 1_544
V11 V3 2.709366 1_444
As0 V0 2.445928 1_555
As0 V8 2.485470 1_555
As0 V6 2.492257 1_655
As0 V6 2.492257 1_555
As0 V4 2.501046 1_555
As0 V4 2.501046 1_655
As0 V10 2.572390 1_555
As1 V1 2.445746 1_555
As1 V9 2.486235 1_555
As1 V4 2.492044 1_555
As1 V4 2.492044 1_655
As1 V5 2.500885 1_555
As1 V5 2.500885 1_655
As1 V10 2.572009 1_555
As2 V2 2.445746 1_555
As2 V9 2.486235 1_556
As2 V7 2.492044 1_555
As2 V7 2.492044 1_655
As2 V6 2.500885 1_555
As2 V6 2.500885 1_655
As2 V10 2.572009 1_555
As3 V3 2.445928 1_555
As3 V8 2.485470 1_565
As3 V5 2.492257 1_555
As3 V5 2.492257 1_655
As3 V7 2.501046 1_555
As3 V7 2.501046 1_655
As3 V10 2.572390 1_555
As4 V2 2.527663 1_454
As4 V2 2.527663 1_554
As4 V4 2.550385 1_555
As4 V0 2.590315 1_555
As4 V0 2.590315 1_455
As4 V9 2.694208 1_455
As4 V9 2.694208 1_555
As4 V11 2.739953 1_555
As5 V0 2.527364 1_565
As5 V0 2.527364 1_465
As5 V5 2.550380 1_555
As5 V1 2.590497 1_555
As5 V1 2.590497 1_455
As5 V8 2.694403 1_565
As5 V8 2.694403 1_465
As5 V11 2.740095 1_565
As6 V3 2.527364 1_445
As6 V3 2.527364 1_545
As6 V6 2.550380 1_555
As6 V2 2.590497 1_455
As6 V2 2.590497 1_555
As6 V8 2.694403 1_555
As6 V8 2.694403 1_455
As6 V11 2.740095 1_556
As7 V1 2.527663 1_456
As7 V1 2.527663 1_556
As7 V7 2.550385 1_555
As7 V3 2.590315 1_555
As7 V3 2.590315 1_455
As7 V9 2.694208 1_556
As7 V9 2.694208 1_456
As7 V11 2.739953 1_566
