# generated using pymatgen
data_SmZnPO
_symmetry_space_group_name_H-M   'P 1'
_cell_length_a   3.96406852
_cell_length_b   3.96406852
_cell_length_c   10.54629235
_cell_angle_alpha   79.16761327
_cell_angle_beta   79.16761327
_cell_angle_gamma   59.99999131
_symmetry_Int_Tables_number   1
_chemical_formula_structural   SmZnPO
_chemical_formula_sum   'Sm2 Zn2 P2 O2'
_cell_volume   140.09990699
_cell_formula_units_Z   2
loop_
 _symmetry_equiv_pos_site_id
 _symmetry_equiv_pos_as_xyz
  1  'x, y, z'
loop_
 _atom_site_type_symbol
 _atom_site_label
 _atom_site_symmetry_multiplicity
 _atom_site_fract_x
 _atom_site_fract_y
 _atom_site_fract_z
 _atom_site_occupancy
  Sm  Sm0  1  0.38070300  0.38070300  0.85789100  1
  Sm  Sm1  1  0.61929700  0.61929700  0.14210900  1
  Zn  Zn0  1  0.19629100  0.19629100  0.41112700  1
  Zn  Zn1  1  0.80371000  0.80371000  0.58887000  1
  P  P0  1  0.11317800  0.11317800  0.66046600  1
  P  P1  1  0.88682200  0.88682200  0.33953400  1
  O  O0  1  0.69480900  0.69480900  0.91557300  1
  O  O1  1  0.30519100  0.30519100  0.08442700  1
loop_
_geom_bond_atom_site_label_1
_geom_bond_atom_site_label_2
_geom_bond_distance
_geom_bond_site_symmetry_2
P0 Zn1 2.404419 1_545
P0 Zn1 2.404419 1_455
P0 Zn1 2.404419 1_445
P0 Zn0 2.566937 1_555
P0 Sm0 3.060872 1_545
P0 Sm0 3.060872 1_455
P0 Sm0 3.060872 1_555
P1 Zn0 2.404409 1_655
P1 Zn0 2.404409 1_565
P1 Zn0 2.404410 1_665
P1 Zn1 2.566906 1_555
P1 Sm1 3.060872 1_565
P1 Sm1 3.060872 1_655
P1 Sm1 3.060872 1_555
O0 Sm1 2.332181 1_556
O0 Sm0 2.364442 1_565
O0 Sm0 2.364442 1_655
O0 Sm0 2.364442 1_555
O1 Sm0 2.332181 1_554
O1 Sm1 2.364442 1_545
O1 Sm1 2.364442 1_455
O1 Sm1 2.364442 1_555
