# generated using pymatgen
data_ZnS
_symmetry_space_group_name_H-M   'P 1'
_cell_length_a   3.80675588
_cell_length_b   3.80675640
_cell_length_c   74.79141330
_cell_angle_alpha   90.00000000
_cell_angle_beta   90.00000000
_cell_angle_gamma   119.99999547
_symmetry_Int_Tables_number   1
_chemical_formula_structural   ZnS
_chemical_formula_sum   'Zn24 S24'
_cell_volume   938.62583875
_cell_formula_units_Z   24
loop_
 _symmetry_equiv_pos_site_id
 _symmetry_equiv_pos_as_xyz
  1  'x, y, z'
loop_
 _atom_site_type_symbol
 _atom_site_label
 _atom_site_symmetry_multiplicity
 _atom_site_fract_x
 _atom_site_fract_y
 _atom_site_fract_z
 _atom_site_occupancy
  Zn  Zn0  1  0.66666700  0.33333300  0.70838383  1
  Zn  Zn1  1  0.33333300  0.66666700  0.79169751  1
  Zn  Zn2  1  0.66666700  0.33333300  0.33334889  1
  Zn  Zn3  1  0.00000000  0.00000000  0.41669235  1
  Zn  Zn4  1  0.66666700  0.33333300  0.08333566  1
  Zn  Zn5  1  0.33333300  0.66666700  0.20834229  1
  Zn  Zn6  1  0.66666700  0.33333300  0.83333995  1
  Zn  Zn7  1  0.66666700  0.33333300  0.91670694  1
  Zn  Zn8  1  -0.00000000  0.00000000  0.12501918  1
  Zn  Zn9  1  0.66666700  0.33333300  0.16671319  1
  Zn  Zn10  1  0.00000000  -0.00000000  0.58335563  1
  Zn  Zn11  1  0.33333300  0.66666700  0.66669263  1
  Zn  Zn12  1  0.33333300  0.66666700  0.04170767  1
  Zn  Zn13  1  0.66666700  0.33333300  0.45834061  1
  Zn  Zn14  1  -0.00000000  -0.00000000  0.75003317  1
  Zn  Zn15  1  0.33333300  0.66666700  0.29169723  1
  Zn  Zn16  1  0.33333300  0.66666700  0.37504863  1
  Zn  Zn17  1  0.33333300  0.66666700  0.95833228  1
  Zn  Zn18  1  -0.00000000  -0.00000000  0.87501662  1
  Zn  Zn19  1  0.66666700  0.33333300  0.54169651  1
  Zn  Zn20  1  0.66666700  0.33333300  0.62502995  1
  Zn  Zn21  1  0.00000000  0.00000000  0.00001311  1
  Zn  Zn22  1  0.33333300  0.66666700  0.50002214  1
  Zn  Zn23  1  -0.00000000  -0.00000000  0.25002104  1
  S  S0  1  0.33333300  0.66666700  0.53125360  1
  S  S1  1  0.33333300  0.66666700  0.32286441  1
  S  S2  1  0.66666700  0.33333300  0.86451979  1
  S  S3  1  0.00000000  -0.00000000  0.78123682  1
  S  S4  1  0.66666700  0.33333300  0.94788462  1
  S  S5  1  0.33333300  0.66666700  0.98951193  1
  S  S6  1  0.66666700  0.33333300  0.11452115  1
  S  S7  1  0.00000000  -0.00000000  0.61458803  1
  S  S8  1  -0.00000000  -0.00000000  0.03125233  1
  S  S9  1  0.00000000  -0.00000000  0.90625233  1
  S  S10  1  0.66666700  0.33333300  0.48952041  1
  S  S11  1  0.00000000  -0.00000000  0.28126048  1
  S  S12  1  0.66666700  0.33333300  0.36458744  1
  S  S13  1  0.33333300  0.66666700  0.82289375  1
  S  S14  1  0.66666700  0.33333300  0.65619905  1
  S  S15  1  0.33333300  0.66666700  0.07289038  1
  S  S16  1  0.66666700  0.33333300  0.73956964  1
  S  S17  1  0.33333300  0.66666700  0.69793014  1
  S  S18  1  -0.00000000  0.00000000  0.15626184  1
  S  S19  1  0.33333300  0.66666700  0.23953329  1
  S  S20  1  0.66666700  0.33333300  0.57286330  1
  S  S21  1  0.33333300  0.66666700  0.40623110  1
  S  S22  1  -0.00000000  -0.00000000  0.44788615  1
  S  S23  1  0.66666700  0.33333300  0.19790297  1
loop_
_geom_bond_atom_site_label_1
_geom_bond_atom_site_label_2
_geom_bond_distance
_geom_bond_site_symmetry_2
S0 Zn19 2.332483 1_455
S0 Zn19 2.332483 1_565
S0 Zn19 2.332489 1_555
S0 Zn22 2.335845 1_555
S1 Zn15 2.331037 1_555
S1 Zn2 2.333526 1_455
S1 Zn2 2.333526 1_565
S1 Zn2 2.333532 1_555
S2 Zn6 2.331984 1_555
S2 Zn18 2.333837 1_655
S2 Zn18 2.333840 1_555
S2 Zn18 2.333840 1_665
S3 Zn1 2.332929 1_545
S3 Zn1 2.332932 1_445
S3 Zn1 2.332932 1_555
S3 Zn14 2.333765 1_555
S4 Zn7 2.331823 1_555
S4 Zn17 2.332602 1_655
S4 Zn17 2.332602 1_545
S4 Zn17 2.332608 1_555
S5 Zn17 2.331970 1_555
S5 Zn21 2.333946 1_566
S5 Zn21 2.333949 1_666
S5 Zn21 2.333949 1_556
S6 Zn4 2.332407 1_555
S6 Zn8 2.333867 1_655
S6 Zn8 2.333870 1_555
S6 Zn8 2.333870 1_665
S7 Zn20 2.332458 1_455
S7 Zn20 2.332461 1_555
S7 Zn20 2.332462 1_445
S7 Zn10 2.335915 1_555
S8 Zn12 2.332795 1_545
S8 Zn12 2.332798 1_445
S8 Zn12 2.332798 1_555
S8 Zn21 2.336425 1_555
S9 Zn7 2.332776 1_455
S9 Zn7 2.332779 1_555
S9 Zn7 2.332780 1_445
S9 Zn18 2.336163 1_555
S10 Zn13 2.331981 1_555
S10 Zn22 2.333960 1_655
S10 Zn22 2.333960 1_545
S10 Zn22 2.333966 1_555
S11 Zn15 2.332329 1_545
S11 Zn15 2.332332 1_445
S11 Zn15 2.332332 1_555
S11 Zn23 2.336442 1_555
S12 Zn16 2.332941 1_655
S12 Zn16 2.332942 1_545
S12 Zn16 2.332948 1_555
S12 Zn2 2.336375 1_555
S13 Zn6 2.332566 1_455
S13 Zn6 2.332566 1_565
S13 Zn6 2.332572 1_555
S13 Zn1 2.333211 1_555
S14 Zn20 2.331181 1_555
S14 Zn11 2.333755 1_655
S14 Zn11 2.333755 1_545
S14 Zn11 2.333761 1_555
S15 Zn12 2.332199 1_555
S15 Zn4 2.332543 1_455
S15 Zn4 2.332543 1_565
S15 Zn4 2.332549 1_555
S16 Zn0 2.332431 1_555
S16 Zn14 2.333000 1_655
S16 Zn14 2.333003 1_555
S16 Zn14 2.333003 1_665
S17 Zn0 2.332753 1_455
S17 Zn0 2.332754 1_565
S17 Zn0 2.332759 1_555
S17 Zn11 2.336298 1_555
S18 Zn9 2.332695 1_455
S18 Zn9 2.332698 1_555
S18 Zn9 2.332698 1_445
S18 Zn8 2.336683 1_555
S19 Zn5 2.332819 1_555
S19 Zn23 2.333608 1_565
S19 Zn23 2.333611 1_665
S19 Zn23 2.333612 1_555
S20 Zn19 2.331008 1_555
S20 Zn10 2.333723 1_655
S20 Zn10 2.333727 1_555
S20 Zn10 2.333727 1_665
S21 Zn16 2.332181 1_555
S21 Zn3 2.332943 1_565
S21 Zn3 2.332946 1_665
S21 Zn3 2.332946 1_555
S22 Zn13 2.332773 1_455
S22 Zn13 2.332776 1_555
S22 Zn13 2.332776 1_445
S22 Zn3 2.333028 1_555
S23 Zn5 2.332393 1_655
S23 Zn5 2.332394 1_545
S23 Zn5 2.332399 1_555
S23 Zn9 2.332728 1_555
