# generated using pymatgen
data_SrAlF5
_symmetry_space_group_name_H-M   'P 1'
_cell_length_a   10.80540670
_cell_length_b   10.80540670
_cell_length_c   10.80540670
_cell_angle_alpha   96.43125636
_cell_angle_beta   96.43125636
_cell_angle_gamma   140.89377810
_symmetry_Int_Tables_number   1
_chemical_formula_structural   SrAlF5
_chemical_formula_sum   'Sr8 Al8 F40'
_cell_volume   749.87924527
_cell_formula_units_Z   8
loop_
 _symmetry_equiv_pos_site_id
 _symmetry_equiv_pos_as_xyz
  1  'x, y, z'
loop_
 _atom_site_type_symbol
 _atom_site_label
 _atom_site_symmetry_multiplicity
 _atom_site_fract_x
 _atom_site_fract_y
 _atom_site_fract_z
 _atom_site_occupancy
  Sr  Sr0  1  0.95242900  0.22857300  0.17331900  1
  Sr  Sr1  1  0.77911000  0.95242900  0.72385600  1
  Sr  Sr2  1  0.22857300  0.05525400  0.27614400  1
  Sr  Sr3  1  0.05525400  0.77911000  0.82668100  1
  Sr  Sr4  1  0.25676400  0.57301300  0.82219900  1
  Sr  Sr5  1  0.43456600  0.25676400  0.68375100  1
  Sr  Sr6  1  0.57301300  0.75081500  0.31624900  1
  Sr  Sr7  1  0.75081500  0.43456600  0.17780100  1
  Al  Al0  1  0.26374200  0.26374200  0.00000000  1
  Al  Al1  1  0.75871800  0.75871800  0.00000000  1
  Al  Al2  1  0.50330700  0.00330700  0.50000000  1
  Al  Al3  1  0.00330700  0.50330700  0.50000000  1
  Al  Al4  1  0.66850700  0.18446900  0.84735100  1
  Al  Al5  1  0.82115700  0.66850700  0.48403900  1
  Al  Al6  1  0.18446900  0.33711800  0.51596100  1
  Al  Al7  1  0.33711800  0.82115700  0.15264900  1
  F  F0  1  0.01121100  0.01121100  0.00000000  1
  F  F1  1  0.51138800  0.51138800  0.00000000  1
  F  F2  1  0.13558200  0.29338500  0.91796300  1
  F  F3  1  0.21762000  0.13558200  0.84219700  1
  F  F4  1  0.29338500  0.37542200  0.15780300  1
  F  F5  1  0.37542200  0.21762000  0.08203700  1
  F  F6  1  0.64748000  0.80603400  0.91926000  1
  F  F7  1  0.72821900  0.64748000  0.84144500  1
  F  F8  1  0.80603400  0.88677400  0.15855500  1
  F  F9  1  0.88677400  0.72821900  0.08074000  1
  F  F10  1  0.75335600  0.25335600  0.50000000  1
  F  F11  1  0.25335600  0.75335600  0.50000000  1
  F  F12  1  0.55872000  0.11744900  0.66776000  1
  F  F13  1  0.89095900  0.55872000  0.44127100  1
  F  F14  1  0.11744900  0.44968900  0.55872900  1
  F  F15  1  0.44968900  0.89095900  0.33224000  1
  F  F16  1  0.06842200  0.61125600  0.67372500  1
  F  F17  1  0.39469700  0.06842200  0.45716600  1
  F  F18  1  0.61125600  0.93753100  0.54283400  1
  F  F19  1  0.93753100  0.39469700  0.32627500  1
  F  F20  1  0.78089200  0.42873000  0.85905700  1
  F  F21  1  0.92183500  0.78089200  0.35216300  1
  F  F22  1  0.42873000  0.56967200  0.64783700  1
  F  F23  1  0.56967200  0.92183500  0.14094300  1
  F  F24  1  0.43527600  0.08280500  0.85773600  1
  F  F25  1  0.57754000  0.43527600  0.35247100  1
  F  F26  1  0.08280500  0.22506900  0.64752900  1
  F  F27  1  0.22506900  0.57754000  0.14226400  1
  F  F28  1  0.88659500  0.27696200  0.81312200  1
  F  F29  1  0.07347300  0.88659500  0.60963300  1
  F  F30  1  0.27696200  0.46384000  0.39036700  1
  F  F31  1  0.46384000  0.07347300  0.18687800  1
  F  F32  1  0.53978800  0.93123600  0.81165600  1
  F  F33  1  0.72813200  0.53978800  0.60855200  1
  F  F34  1  0.93123600  0.11958000  0.39144800  1
  F  F35  1  0.11958000  0.72813200  0.18834400  1
  F  F36  1  0.76962600  0.25726900  0.02299400  1
  F  F37  1  0.74663200  0.76962600  0.51235600  1
  F  F38  1  0.25726900  0.23427500  0.48764400  1
  F  F39  1  0.23427500  0.74663200  0.97700600  1
loop_
_geom_bond_atom_site_label_1
_geom_bond_atom_site_label_2
_geom_bond_distance
_geom_bond_site_symmetry_2
Al0 F1 1.791154 1_555
Al0 F5 1.811925 1_555
Al0 F4 1.811934 1_555
Al0 F2 1.811934 1_554
Al0 F3 1.811938 1_554
Al0 F0 1.826486 1_555
Al1 F1 1.788868 1_555
Al1 F6 1.812731 1_554
Al1 F7 1.812736 1_554
Al1 F9 1.812740 1_555
Al1 F8 1.812740 1_555
Al1 F0 1.826211 1_665
Al2 F11 1.807825 1_545
Al2 F10 1.808534 1_555
Al2 F12 1.809838 1_555
Al2 F15 1.809842 1_545
Al2 F18 1.821893 1_545
Al2 F17 1.821893 1_555
Al3 F10 1.807825 1_455
Al3 F11 1.808534 1_555
Al3 F14 1.809838 1_555
Al3 F13 1.809848 1_455
Al3 F16 1.821893 1_555
Al3 F19 1.821893 1_455
Al4 F36 1.811553 1_556
Al4 F32 1.818650 1_545
Al4 F28 1.819839 1_555
Al4 F24 1.834391 1_555
Al4 F20 1.836678 1_555
Al4 F12 1.879807 1_555
Al5 F37 1.811560 1_555
Al5 F33 1.818641 1_555
Al5 F29 1.819830 1_655
Al5 F25 1.834399 1_555
Al5 F21 1.836677 1_555
Al5 F13 1.879790 1_555
Al6 F38 1.811550 1_555
Al6 F34 1.818645 1_455
Al6 F30 1.819829 1_555
Al6 F26 1.834401 1_555
Al6 F22 1.836677 1_555
Al6 F14 1.879810 1_555
Al7 F39 1.811551 1_554
Al7 F35 1.818645 1_555
Al7 F31 1.819829 1_565
Al7 F27 1.834401 1_555
Al7 F23 1.836673 1_555
Al7 F15 1.879812 1_555
F2 Sr4 2.603563 1_555
F2 Sr1 2.691544 1_445
F3 Sr5 2.603563 1_555
F3 Sr3 2.691539 1_545
F4 Sr6 2.603570 1_555
F4 Sr0 2.691544 1_455
F5 Sr7 2.603572 1_555
F5 Sr2 2.691547 1_555
F6 Sr1 2.629180 1_555
F6 Sr4 2.680053 1_555
F7 Sr3 2.629188 1_655
F7 Sr5 2.680052 1_555
F8 Sr0 2.629182 1_565
F8 Sr6 2.680046 1_555
F9 Sr2 2.629182 1_665
F9 Sr7 2.680039 1_555
F12 Sr5 2.687653 1_555
F13 Sr7 2.687662 1_555
F14 Sr4 2.687663 1_555
F15 Sr6 2.687643 1_555
F16 Sr3 2.413111 1_555
F16 Sr4 2.758357 1_555
F17 Sr2 2.413111 1_555
F17 Sr5 2.758351 1_555
F18 Sr1 2.413111 1_555
F18 Sr6 2.758351 1_555
F19 Sr0 2.413111 1_555
F19 Sr7 2.758357 1_555
F20 Sr3 2.520906 1_655
F20 Sr5 2.806555 1_555
F21 Sr2 2.520912 1_665
F21 Sr7 2.806565 1_555
F22 Sr1 2.520910 1_555
F22 Sr4 2.806576 1_555
F23 Sr0 2.520912 1_565
F23 Sr6 2.806560 1_555
F24 Sr3 2.504961 1_545
F24 Sr5 2.806856 1_555
F25 Sr2 2.504961 1_555
F25 Sr7 2.806864 1_555
F26 Sr1 2.504961 1_445
F26 Sr4 2.806861 1_555
F27 Sr0 2.504961 1_455
F27 Sr6 2.806856 1_555
F28 Sr4 2.495132 1_655
F28 Sr1 2.691996 1_545
F29 Sr5 2.495135 1_565
F29 Sr3 2.691996 1_555
F30 Sr6 2.495135 1_555
F30 Sr0 2.691996 1_455
F31 Sr7 2.495139 1_555
F31 Sr2 2.691996 1_555
F32 Sr4 2.480679 1_555
F32 Sr1 2.705361 1_555
F33 Sr5 2.480675 1_555
F33 Sr3 2.705361 1_655
F34 Sr6 2.480675 1_545
F34 Sr0 2.705361 1_555
F35 Sr7 2.480672 1_455
F35 Sr2 2.705361 1_565
F36 Sr7 2.544047 1_555
F36 Sr0 2.642124 1_555
F37 Sr6 2.544045 1_555
F37 Sr1 2.642132 1_555
F38 Sr5 2.544045 1_555
F38 Sr2 2.642132 1_555
F39 Sr4 2.544047 1_555
F39 Sr3 2.642124 1_555
