# generated using pymatgen
data_CaSiO3
_symmetry_space_group_name_H-M   'P 1'
_cell_length_a   5.09864472
_cell_length_b   5.09864472
_cell_length_c   5.09864472
_cell_angle_alpha   119.92938201
_cell_angle_beta   119.68683531
_cell_angle_gamma   90.33281573
_symmetry_Int_Tables_number   1
_chemical_formula_structural   CaSiO3
_chemical_formula_sum   'Ca2 Si2 O6'
_cell_volume   93.99326291
_cell_formula_units_Z   2
loop_
 _symmetry_equiv_pos_site_id
 _symmetry_equiv_pos_as_xyz
  1  'x, y, z'
loop_
 _atom_site_type_symbol
 _atom_site_label
 _atom_site_symmetry_multiplicity
 _atom_site_fract_x
 _atom_site_fract_y
 _atom_site_fract_z
 _atom_site_occupancy
  Ca  Ca0  1  0.75099100  0.25000000  0.50099100  1
  Ca  Ca1  1  0.24900900  0.75000000  0.49900900  1
  Si  Si0  1  0.50000000  0.50000000  0.00000000  1
  Si  Si1  1  0.00000000  0.00000000  0.00000000  1
  O  O0  1  0.28758800  0.25000000  0.03758800  1
  O  O1  1  0.71241200  0.75000000  0.96241200  1
  O  O2  1  0.23070200  0.73070200  0.00000000  1
  O  O3  1  0.76929800  0.76929800  0.50000000  1
  O  O4  1  0.23070200  0.23070200  0.50000000  1
  O  O5  1  0.76929800  0.26929800  0.00000000  1
loop_
_geom_bond_atom_site_label_1
_geom_bond_atom_site_label_2
_geom_bond_distance
_geom_bond_site_symmetry_2
Ca0 O0 2.373902 1_555
Ca0 O4 2.450828 1_655
Ca0 O2 2.450828 1_656
Ca0 O5 2.450828 1_556
Ca0 O3 2.450828 1_545
Ca0 O1 2.559684 1_555
Ca0 O1 2.559684 1_544
Ca0 O3 2.651431 1_555
Ca0 O5 2.651431 1_555
Ca0 O2 2.651431 1_545
Ca0 O4 2.651431 1_555
Ca0 O0 2.748858 1_656
Ca1 O1 2.373902 1_555
Ca1 O4 2.450828 1_565
Ca1 O3 2.450828 1_455
Ca1 O5 2.450828 1_455
Ca1 O2 2.450828 1_555
Ca1 O0 2.559684 1_566
Ca1 O0 2.559684 1_555
Ca1 O2 2.651431 1_556
Ca1 O3 2.651431 1_555
Ca1 O5 2.651431 1_566
Ca1 O4 2.651431 1_555
Ca1 O1 2.748858 1_454
O0 Si0 1.807685 1_555
O0 Si1 1.807685 1_555
O1 Si1 1.807685 1_666
O1 Si0 1.807685 1_556
O2 Si0 1.813187 1_555
O2 Si1 1.813187 1_565
O3 Si1 1.813187 1_666
O3 Si0 1.813187 1_555
O4 Si1 1.813187 1_555
O4 Si0 1.813187 1_556
O5 Si0 1.813187 1_555
O5 Si1 1.813187 1_655
