# generated using pymatgen
data_MgBIr
_symmetry_space_group_name_H-M   'P 1'
_cell_length_a   5.27600102
_cell_length_b   5.27600005
_cell_length_c   9.44527590
_cell_angle_alpha   90.00000000
_cell_angle_beta   90.00000000
_cell_angle_gamma   119.99999982
_symmetry_Int_Tables_number   1
_chemical_formula_structural   MgBIr
_chemical_formula_sum   'Mg6 B6 Ir6'
_cell_volume   227.69575944
_cell_formula_units_Z   6
loop_
 _symmetry_equiv_pos_site_id
 _symmetry_equiv_pos_as_xyz
  1  'x, y, z'
loop_
 _atom_site_type_symbol
 _atom_site_label
 _atom_site_symmetry_multiplicity
 _atom_site_fract_x
 _atom_site_fract_y
 _atom_site_fract_z
 _atom_site_occupancy
  Mg  Mg0  1  0.00000000  0.50000000  0.66666700  1
  Mg  Mg1  1  0.00000000  0.00000000  0.83333300  1
  Mg  Mg2  1  0.00000000  0.00000000  0.50000000  1
  Mg  Mg3  1  0.00000000  0.00000000  0.16666700  1
  Mg  Mg4  1  0.50000000  0.50000000  0.33333300  1
  Mg  Mg5  1  0.50000000  0.00000000  -0.00000000  1
  B  B0  1  0.20579962  0.60289981  0.16666700  1
  B  B1  1  0.60289981  0.20579962  0.50000000  1
  B  B2  1  0.60289981  0.39710019  0.83333300  1
  B  B3  1  0.79420038  0.39710019  0.16666700  1
  B  B4  1  0.39710019  0.60289981  0.83333300  1
  B  B5  1  0.39710019  0.79420038  0.50000000  1
  Ir  Ir0  1  0.50000000  0.50000000  0.04444850  1
  Ir  Ir1  1  0.50000000  0.00000000  0.71111550  1
  Ir  Ir2  1  0.50000000  0.50000000  0.62221750  1
  Ir  Ir3  1  0.50000000  0.00000000  0.28888450  1
  Ir  Ir4  1  0.00000000  0.50000000  0.37778250  1
  Ir  Ir5  1  0.00000000  0.50000000  0.95555150  1
loop_
_geom_bond_atom_site_label_1
_geom_bond_atom_site_label_2
_geom_bond_distance
_geom_bond_site_symmetry_2
B0 B3 1.880659 1_455
B0 Ir5 2.204639 1_554
B0 Ir4 2.204639 1_555
B0 Ir3 2.208924 1_565
B0 Ir0 2.208929 1_555
B0 Mg4 2.454564 1_555
B0 Mg5 2.454570 1_565
B0 Mg3 2.800583 1_555
B0 Mg3 2.800583 1_565
B1 B5 1.880659 1_545
B1 Ir1 2.204639 1_555
B1 Ir3 2.204639 1_555
B1 Ir2 2.208924 1_555
B1 Ir4 2.208924 1_655
B1 Mg4 2.454570 1_555
B1 Mg0 2.454570 1_655
B1 Mg2 2.800583 1_655
B1 Mg2 2.800583 1_555
B2 B4 1.880659 1_555
B2 Ir0 2.204639 1_556
B2 Ir2 2.204639 1_555
B2 Ir1 2.208924 1_555
B2 Ir5 2.208929 1_655
B2 Mg0 2.454564 1_655
B2 Mg5 2.454570 1_556
B2 Mg1 2.800583 1_665
B2 Mg1 2.800583 1_555
B3 Ir5 2.204639 1_654
B3 Ir4 2.204639 1_655
B3 Ir3 2.208924 1_555
B3 Ir0 2.208929 1_555
B3 Mg4 2.454564 1_555
B3 Mg5 2.454570 1_555
B3 Mg3 2.800583 1_665
B3 Mg3 2.800583 1_655
B4 Ir0 2.204639 1_556
B4 Ir2 2.204639 1_555
B4 Ir1 2.208924 1_565
B4 Ir5 2.208929 1_555
B4 Mg0 2.454564 1_555
B4 Mg5 2.454570 1_566
B4 Mg1 2.800583 1_555
B4 Mg1 2.800583 1_665
B5 Ir1 2.204639 1_565
B5 Ir3 2.204639 1_565
B5 Ir2 2.208924 1_555
B5 Ir4 2.208924 1_555
B5 Mg4 2.454570 1_555
B5 Mg0 2.454570 1_555
B5 Mg2 2.800583 1_565
B5 Mg2 2.800583 1_665
Ir0 Mg5 2.671198 1_565
Ir0 Mg5 2.671198 1_555
Ir0 Mg4 2.728594 1_555
Ir0 Mg3 2.879524 1_555
Ir0 Mg3 2.879524 1_665
Ir1 Mg0 2.671198 1_545
Ir1 Mg0 2.671198 1_655
Ir1 Mg5 2.728594 1_556
Ir1 Mg1 2.879520 1_655
Ir1 Mg1 2.879520 1_555
Ir2 Mg0 2.671200 1_655
Ir2 Mg0 2.671200 1_555
Ir2 Mg4 2.728594 1_555
Ir2 Mg2 2.879520 1_555
Ir2 Mg2 2.879520 1_665
Ir3 Mg4 2.671198 1_555
Ir3 Mg4 2.671198 1_545
Ir3 Mg5 2.728594 1_555
Ir3 Mg3 2.879520 1_655
Ir3 Mg3 2.879520 1_555
Ir4 Mg4 2.671200 1_555
Ir4 Mg4 2.671200 1_455
Ir4 Mg0 2.728594 1_555
Ir4 Mg2 2.879520 1_565
Ir4 Mg2 2.879520 1_555
Ir5 Mg5 2.671198 1_566
Ir5 Mg5 2.671198 1_456
Ir5 Mg0 2.728594 1_555
Ir5 Mg1 2.879523 1_565
Ir5 Mg1 2.879523 1_555
