# generated using pymatgen
data_Cs2UP2O9
_symmetry_space_group_name_H-M   'P 1'
_cell_length_a   6.33681500
_cell_length_b   12.76852000
_cell_length_c   12.94088700
_cell_angle_alpha   90.00000000
_cell_angle_beta   90.00000000
_cell_angle_gamma   90.00000000
_symmetry_Int_Tables_number   1
_chemical_formula_structural   Cs2UP2O9
_chemical_formula_sum   'Cs8 U4 P8 O36'
_cell_volume   1047.06980161
_cell_formula_units_Z   4
loop_
 _symmetry_equiv_pos_site_id
 _symmetry_equiv_pos_as_xyz
  1  'x, y, z'
loop_
 _atom_site_type_symbol
 _atom_site_label
 _atom_site_symmetry_multiplicity
 _atom_site_fract_x
 _atom_site_fract_y
 _atom_site_fract_z
 _atom_site_occupancy
  Cs  Cs0  1  0.51446100  0.50000000  0.32317100  1
  Cs  Cs1  1  0.50749400  0.17832100  0.50000000  1
  Cs  Cs2  1  0.48553900  0.00000000  0.17682900  1
  Cs  Cs3  1  0.48553900  0.00000000  0.82317100  1
  Cs  Cs4  1  0.49250600  0.32167900  0.00000000  1
  Cs  Cs5  1  0.50749400  0.82167900  0.50000000  1
  Cs  Cs6  1  0.51446100  0.50000000  0.67682900  1
  Cs  Cs7  1  0.49250600  0.67832100  0.00000000  1
  U  U0  1  0.00000000  0.75000000  0.25000000  1
  U  U1  1  0.00000000  0.25000000  0.75000000  1
  U  U2  1  0.00000000  0.25000000  0.25000000  1
  U  U3  1  0.00000000  0.75000000  0.75000000  1
  P  P0  1  0.99123100  0.00000000  0.61719400  1
  P  P1  1  0.00876900  0.50000000  0.88280600  1
  P  P2  1  0.01476500  0.61898200  0.50000000  1
  P  P3  1  0.01476500  0.38101800  0.50000000  1
  P  P4  1  0.98523500  0.88101800  0.00000000  1
  P  P5  1  0.98523500  0.11898200  0.00000000  1
  P  P6  1  0.00876900  0.50000000  0.11719400  1
  P  P7  1  0.99123100  0.00000000  0.38280600  1
  O  O0  1  0.75497100  0.00000000  0.61639700  1
  O  O1  1  0.72831300  0.20492100  0.76156500  1
  O  O2  1  0.08370800  0.00000000  0.00000000  1
  O  O3  1  0.74900400  0.88224900  0.00000000  1
  O  O4  1  0.90343000  0.40134300  0.16542400  1
  O  O5  1  0.74900400  0.11775100  0.00000000  1
  O  O6  1  0.91099100  0.50000000  0.00000000  1
  O  O7  1  0.25099600  0.61775100  0.50000000  1
  O  O8  1  0.09657000  0.90134300  0.33457600  1
  O  O9  1  0.09657000  0.09865700  0.33457600  1
  O  O10  1  0.09020400  0.16946900  0.09664000  1
  O  O11  1  0.72831300  0.79507900  0.23843500  1
  O  O12  1  0.90979600  0.33053100  0.59664000  1
  O  O13  1  0.90979600  0.33053100  0.40336000  1
  O  O14  1  0.09020400  0.83053100  0.09664000  1
  O  O15  1  0.09020400  0.83053100  0.90336000  1
  O  O16  1  0.90343000  0.40134300  0.83457600  1
  O  O17  1  0.90979600  0.66946900  0.40336000  1
  O  O18  1  0.72831300  0.79507900  0.76156500  1
  O  O19  1  0.27168700  0.70492100  0.26156500  1
  O  O20  1  0.25099600  0.38224900  0.50000000  1
  O  O21  1  0.09020400  0.16946900  0.90336000  1
  O  O22  1  0.27168700  0.70492100  0.73843500  1
  O  O23  1  0.27168700  0.29507900  0.26156500  1
  O  O24  1  0.24502900  0.50000000  0.11639700  1
  O  O25  1  0.90979600  0.66946900  0.59664000  1
  O  O26  1  0.90343000  0.59865700  0.16542400  1
  O  O27  1  0.24502900  0.50000000  0.88360300  1
  O  O28  1  0.72831300  0.20492100  0.23843500  1
  O  O29  1  0.90343000  0.59865700  0.83457600  1
  O  O30  1  0.09657000  0.09865700  0.66542400  1
  O  O31  1  0.91629200  0.50000000  0.50000000  1
  O  O32  1  0.08900900  0.00000000  0.50000000  1
  O  O33  1  0.09657000  0.90134300  0.66542400  1
  O  O34  1  0.75497100  0.00000000  0.38360300  1
  O  O35  1  0.27168700  0.29507900  0.73843500  1
loop_
_geom_bond_atom_site_label_1
_geom_bond_atom_site_label_2
_geom_bond_distance
_geom_bond_site_symmetry_2
Cs0 O19 3.138244 1_555
Cs0 O23 3.138244 1_555
Cs0 O24 3.174134 1_555
Cs0 O7 3.206912 1_555
Cs0 O20 3.206912 1_555
Cs0 O31 3.423480 1_555
Cs0 O26 3.439400 1_555
Cs0 O4 3.439400 1_555
Cs0 O17 3.469154 1_555
Cs0 O13 3.469154 1_555
Cs1 O20 3.069518 1_555
Cs1 O0 3.148402 1_555
Cs1 O34 3.148402 1_555
Cs1 O13 3.440959 1_555
Cs1 O12 3.440959 1_555
Cs1 O32 3.495229 1_555
Cs1 O9 3.521075 1_555
Cs1 O30 3.521075 1_555
Cs1 O1 3.678424 1_555
Cs1 O28 3.678424 1_555
Cs1 O35 3.738459 1_555
Cs1 O23 3.738459 1_555
Cs2 O11 3.138244 1_545
Cs2 O28 3.138244 1_555
Cs2 O34 3.174134 1_555
Cs2 O5 3.206912 1_555
Cs2 O3 3.206912 1_545
Cs2 O2 3.423480 1_555
Cs2 O9 3.439400 1_555
Cs2 O8 3.439400 1_545
Cs2 O10 3.469154 1_555
Cs2 O14 3.469154 1_545
Cs3 O18 3.138244 1_545
Cs3 O1 3.138244 1_555
Cs3 O0 3.174134 1_555
Cs3 O5 3.206912 1_556
Cs3 O3 3.206912 1_546
Cs3 O2 3.423480 1_556
Cs3 O30 3.439400 1_555
Cs3 O33 3.439400 1_545
Cs3 O21 3.469154 1_555
Cs3 O15 3.469154 1_545
Cs4 O5 3.069518 1_555
Cs4 O24 3.148402 1_555
Cs4 O27 3.148402 1_554
Cs4 O10 3.440959 1_555
Cs4 O21 3.440959 1_554
Cs4 O6 3.495229 1_555
Cs4 O4 3.521075 1_555
Cs4 O16 3.521075 1_554
Cs4 O23 3.678424 1_555
Cs4 O35 3.678424 1_554
Cs4 O28 3.738459 1_555
Cs4 O1 3.738459 1_554
Cs5 O7 3.069518 1_555
Cs5 O0 3.148402 1_565
Cs5 O34 3.148402 1_565
Cs5 O17 3.440959 1_555
Cs5 O25 3.440959 1_555
Cs5 O32 3.495229 1_565
Cs5 O33 3.521075 1_555
Cs5 O8 3.521075 1_555
Cs5 O18 3.678424 1_555
Cs5 O11 3.678424 1_555
Cs5 O22 3.738459 1_555
Cs5 O19 3.738459 1_555
Cs6 O22 3.138244 1_555
Cs6 O35 3.138244 1_555
Cs6 O27 3.174134 1_555
Cs6 O7 3.206912 1_555
Cs6 O20 3.206912 1_555
Cs6 O31 3.423480 1_555
Cs6 O29 3.439400 1_555
Cs6 O16 3.439400 1_555
Cs6 O25 3.469154 1_555
Cs6 O12 3.469154 1_555
Cs7 O3 3.069518 1_555
Cs7 O24 3.148402 1_555
Cs7 O27 3.148402 1_554
Cs7 O15 3.440959 1_554
Cs7 O14 3.440959 1_555
Cs7 O6 3.495229 1_555
Cs7 O29 3.521075 1_554
Cs7 O26 3.521075 1_555
Cs7 O19 3.678424 1_555
Cs7 O22 3.678424 1_554
Cs7 O11 3.738459 1_555
Cs7 O18 3.738459 1_554
O0 P0 1.497171 1_555
O1 U1 1.821460 1_655
O2 P5 1.642384 1_455
O2 P4 1.642384 1_445
O3 P4 1.497035 1_555
O4 P6 1.556271 1_655
O4 U2 2.303618 1_655
O5 P5 1.497035 1_555
O6 P6 1.638281 1_655
O6 P1 1.638281 1_654
O7 P2 1.497035 1_555
O8 P7 1.556271 1_465
O8 U0 2.303618 1_555
O9 P7 1.556271 1_455
O9 U2 2.303618 1_555
O10 P5 1.556289 1_455
O10 U2 2.307109 1_555
O11 U0 1.821460 1_655
O12 P3 1.556289 1_655
O12 U1 2.307109 1_655
O13 P3 1.556289 1_655
O13 U2 2.307109 1_655
O14 P4 1.556289 1_455
O14 U0 2.307109 1_555
O15 P4 1.556289 1_456
O15 U3 2.307109 1_555
O16 P1 1.556271 1_655
O16 U1 2.303618 1_655
O17 P2 1.556289 1_655
O17 U0 2.307109 1_655
O18 U3 1.821460 1_655
O19 U0 1.821460 1_555
O20 P3 1.497035 1_555
O21 P5 1.556289 1_456
O21 U1 2.307109 1_555
O22 U3 1.821460 1_555
O23 U2 1.821460 1_555
O24 P6 1.497171 1_555
O25 P2 1.556289 1_655
O25 U3 2.307109 1_655
O26 P6 1.556271 1_655
O26 U0 2.303618 1_655
O27 P1 1.497171 1_555
O28 U2 1.821460 1_655
O29 P1 1.556271 1_655
O29 U3 2.303618 1_655
O30 P0 1.556271 1_455
O30 U1 2.303618 1_555
O31 P2 1.642384 1_655
O31 P3 1.642384 1_655
O32 P7 1.638281 1_455
O32 P0 1.638281 1_455
O33 P0 1.556271 1_465
O33 U3 2.303618 1_555
O34 P7 1.497171 1_555
O35 U1 1.821460 1_555
