# generated using pymatgen
data_RbMn6As7O24
_symmetry_space_group_name_H-M   'P 1'
_cell_length_a   28.22500300
_cell_length_b   5.63490400
_cell_length_c   6.92742250
_cell_angle_alpha   72.28040804
_cell_angle_beta   90.00000000
_cell_angle_gamma   90.00000000
_symmetry_Int_Tables_number   1
_chemical_formula_structural   RbMn6As7O24
_chemical_formula_sum   'Rb2 Mn12 As14 O48'
_cell_volume   1049.50225955
_cell_formula_units_Z   2
loop_
 _symmetry_equiv_pos_site_id
 _symmetry_equiv_pos_as_xyz
  1  'x, y, z'
loop_
 _atom_site_type_symbol
 _atom_site_label
 _atom_site_symmetry_multiplicity
 _atom_site_fract_x
 _atom_site_fract_y
 _atom_site_fract_z
 _atom_site_occupancy
  Rb  Rb0  1  0.25000000  0.30213200  0.10184800  1
  Rb  Rb1  1  0.75000000  0.69786800  0.89815200  1
  Mn  Mn0  1  0.54329000  0.18334800  0.81973700  1
  Mn  Mn1  1  0.59819600  0.78592400  0.59944400  1
  Mn  Mn2  1  0.31559500  0.89400500  0.74846100  1
  Mn  Mn3  1  0.81559500  0.10599500  0.25153900  1
  Mn  Mn4  1  0.18440500  0.89400500  0.74846100  1
  Mn  Mn5  1  0.45671000  0.81665200  0.18026300  1
  Mn  Mn6  1  0.68440500  0.10599500  0.25153900  1
  Mn  Mn7  1  0.09819600  0.21407600  0.40055600  1
  Mn  Mn8  1  0.90180400  0.78592400  0.59944400  1
  Mn  Mn9  1  0.40180400  0.21407600  0.40055600  1
  Mn  Mn10  1  0.04329000  0.81665200  0.18026300  1
  Mn  Mn11  1  0.95671000  0.18334800  0.81973700  1
  As  As0  1  0.25000000  0.47523700  0.56679700  1
  As  As1  1  0.52264500  0.27431700  0.30165000  1
  As  As2  1  0.38702200  0.31553400  0.87348600  1
  As  As3  1  0.47735500  0.72568300  0.69835000  1
  As  As4  1  0.02264500  0.72568300  0.69835000  1
  As  As5  1  0.75000000  0.52476300  0.43320300  1
  As  As6  1  0.83663700  0.22622900  0.72626700  1
  As  As7  1  0.88702200  0.68446600  0.12651400  1
  As  As8  1  0.61297800  0.68446600  0.12651400  1
  As  As9  1  0.33663700  0.77377100  0.27373300  1
  As  As10  1  0.66336300  0.22622900  0.72626700  1
  As  As11  1  0.16336300  0.77377100  0.27373300  1
  As  As12  1  0.11297800  0.31553400  0.87348600  1
  As  As13  1  0.97735500  0.27431700  0.30165000  1
  O  O0  1  0.25000000  0.17020900  0.70353600  1
  O  O1  1  0.11305000  0.60816200  0.26854800  1
  O  O2  1  0.16318000  0.95678400  0.43129300  1
  O  O3  1  0.02940900  0.41808700  0.32475200  1
  O  O4  1  0.51992200  0.11171200  0.13014500  1
  O  O5  1  0.04772600  0.89356200  0.47349200  1
  O  O6  1  0.75000000  0.82979100  0.29646400  1
  O  O7  1  0.25000000  0.69257500  0.69144100  1
  O  O8  1  0.95227400  0.10643800  0.52650800  1
  O  O9  1  0.40128200  0.12089000  0.11041000  1
  O  O10  1  0.70072800  0.49565300  0.59464300  1
  O  O11  1  0.45227400  0.89356200  0.47349200  1
  O  O12  1  0.80704100  0.09853600  0.94529000  1
  O  O13  1  0.09871800  0.12089000  0.11041000  1
  O  O14  1  0.01992200  0.88828800  0.86985500  1
  O  O15  1  0.20072800  0.50434700  0.40535700  1
  O  O16  1  0.66318000  0.04321600  0.56870700  1
  O  O17  1  0.90128200  0.87911000  0.88959000  1
  O  O18  1  0.69295900  0.09853600  0.94529000  1
  O  O19  1  0.29927200  0.50434700  0.40535700  1
  O  O20  1  0.94387700  0.55151500  0.20190500  1
  O  O21  1  0.44387700  0.44848500  0.79809500  1
  O  O22  1  0.47059100  0.41808700  0.32475200  1
  O  O23  1  0.30704100  0.90146400  0.05471000  1
  O  O24  1  0.62362800  0.85190000  0.29182800  1
  O  O25  1  0.05612300  0.44848500  0.79809500  1
  O  O26  1  0.61305000  0.39183800  0.73145200  1
  O  O27  1  0.88695000  0.39183800  0.73145200  1
  O  O28  1  0.55612300  0.55151500  0.20190500  1
  O  O29  1  0.87637200  0.85190000  0.29182800  1
  O  O30  1  0.84384500  0.47781100  0.13005800  1
  O  O31  1  0.19295900  0.90146400  0.05471000  1
  O  O32  1  0.97059100  0.58191300  0.67524800  1
  O  O33  1  0.12362800  0.14810000  0.70817200  1
  O  O34  1  0.59871800  0.87911000  0.88959000  1
  O  O35  1  0.48007800  0.88828800  0.86985500  1
  O  O36  1  0.83682000  0.04321600  0.56870700  1
  O  O37  1  0.65615500  0.47781100  0.13005800  1
  O  O38  1  0.33682000  0.95678400  0.43129300  1
  O  O39  1  0.79927200  0.49565300  0.59464300  1
  O  O40  1  0.54772600  0.10643800  0.52650800  1
  O  O41  1  0.34384500  0.52218900  0.86994200  1
  O  O42  1  0.52940900  0.58191300  0.67524800  1
  O  O43  1  0.37637200  0.14810000  0.70817200  1
  O  O44  1  0.98007800  0.11171200  0.13014500  1
  O  O45  1  0.75000000  0.30742500  0.30855900  1
  O  O46  1  0.38695000  0.60816200  0.26854800  1
  O  O47  1  0.15615500  0.52218900  0.86994200  1
loop_
_geom_bond_atom_site_label_1
_geom_bond_atom_site_label_2
_geom_bond_distance
_geom_bond_site_symmetry_2
Mn0 O4 2.166449 1_556
Mn0 O42 2.197941 1_555
Mn0 O40 2.205819 1_555
Mn0 O34 2.261793 1_545
Mn0 O26 2.278979 1_555
Mn0 O35 2.390970 1_545
Mn1 O26 2.169593 1_555
Mn1 O24 2.170790 1_555
Mn1 O34 2.226735 1_555
Mn1 O40 2.234039 1_565
Mn1 O42 2.235912 1_555
Mn1 O16 2.307289 1_565
Mn2 O23 2.148294 1_556
Mn2 O41 2.158785 1_555
Mn2 O43 2.197135 1_565
Mn2 O38 2.199637 1_555
Mn2 O7 2.268260 1_555
Mn2 O0 2.377413 1_565
Mn3 O12 2.148294 1_554
Mn3 O30 2.158785 1_555
Mn3 O29 2.197135 1_545
Mn3 O36 2.199637 1_555
Mn3 O45 2.268260 1_555
Mn3 O6 2.377413 1_545
Mn4 O31 2.148294 1_556
Mn4 O47 2.158785 1_555
Mn4 O33 2.197135 1_565
Mn4 O2 2.199637 1_555
Mn4 O7 2.268260 1_555
Mn4 O0 2.377413 1_565
Mn5 O35 2.166449 1_554
Mn5 O22 2.197941 1_555
Mn5 O11 2.205819 1_555
Mn5 O9 2.261793 1_565
Mn5 O46 2.278979 1_555
Mn5 O4 2.390970 1_565
Mn6 O18 2.148294 1_554
Mn6 O37 2.158785 1_555
Mn6 O24 2.197135 1_545
Mn6 O16 2.199637 1_555
Mn6 O45 2.268260 1_555
Mn6 O6 2.377413 1_545
Mn7 O1 2.169593 1_555
Mn7 O33 2.170790 1_555
Mn7 O13 2.226735 1_555
Mn7 O5 2.234039 1_545
Mn7 O3 2.235912 1_555
Mn7 O2 2.307289 1_545
Mn8 O27 2.169593 1_555
Mn8 O29 2.170790 1_555
Mn8 O17 2.226735 1_555
Mn8 O8 2.234039 1_565
Mn8 O32 2.235912 1_555
Mn8 O36 2.307289 1_565
Mn9 O46 2.169593 1_555
Mn9 O43 2.170790 1_555
Mn9 O9 2.226735 1_555
Mn9 O11 2.234039 1_545
Mn9 O22 2.235912 1_555
Mn9 O38 2.307289 1_545
Mn10 O14 2.166449 1_554
Mn10 O3 2.197941 1_555
Mn10 O5 2.205819 1_555
Mn10 O13 2.261793 1_565
Mn10 O1 2.278979 1_555
Mn10 O44 2.390970 1_465
Mn11 O44 2.166449 1_556
Mn11 O32 2.197941 1_555
Mn11 O8 2.205819 1_555
Mn11 O17 2.261793 1_545
Mn11 O27 2.278979 1_555
Mn11 O14 2.390970 1_645
As0 O0 1.691299 1_555
As0 O7 1.699735 1_555
As0 O19 1.760690 1_555
As0 O15 1.760690 1_555
As1 O22 1.708644 1_555
As1 O4 1.708698 1_555
As1 O40 1.710390 1_555
As1 O28 1.775704 1_555
As2 O41 1.680588 1_555
As2 O43 1.717465 1_555
As2 O9 1.721326 1_556
As2 O21 1.780733 1_555
As3 O42 1.708644 1_555
As3 O35 1.708698 1_555
As3 O11 1.710390 1_555
As3 O21 1.775704 1_555
As4 O32 1.708644 1_455
As4 O14 1.708698 1_555
As4 O5 1.710390 1_555
As4 O25 1.775704 1_555
As5 O6 1.691299 1_555
As5 O45 1.699735 1_555
As5 O39 1.760690 1_555
As5 O10 1.760690 1_555
As6 O12 1.689105 1_555
As6 O27 1.705632 1_555
As6 O36 1.714654 1_555
As6 O39 1.845498 1_555
As7 O30 1.680588 1_555
As7 O29 1.717465 1_555
As7 O17 1.721326 1_554
As7 O20 1.780733 1_555
As8 O37 1.680588 1_555
As8 O24 1.717465 1_555
As8 O34 1.721326 1_554
As8 O28 1.780733 1_555
As9 O23 1.689105 1_555
As9 O46 1.705632 1_555
As9 O38 1.714654 1_555
As9 O19 1.845498 1_555
As10 O18 1.689105 1_555
As10 O26 1.705632 1_555
As10 O16 1.714654 1_555
As10 O10 1.845498 1_555
As11 O31 1.689105 1_555
As11 O1 1.705632 1_555
As11 O2 1.714654 1_555
As11 O15 1.845498 1_555
As12 O47 1.680588 1_555
As12 O33 1.717465 1_555
As12 O13 1.721326 1_556
As12 O25 1.780733 1_555
As13 O3 1.708644 1_655
As13 O44 1.708698 1_555
As13 O8 1.710390 1_555
As13 O20 1.775704 1_555
O0 Rb0 3.068353 1_556
O6 Rb1 3.068353 1_554
O7 Rb0 3.019259 1_556
O10 Rb1 3.018513 1_555
O12 Rb1 2.871372 1_545
O15 Rb0 3.018513 1_555
O18 Rb1 2.871372 1_545
O19 Rb0 3.018513 1_555
O23 Rb0 2.871372 1_565
O30 Rb1 3.149901 1_554
O31 Rb0 2.871372 1_565
O37 Rb1 3.149901 1_554
O39 Rb1 3.018513 1_555
O41 Rb0 3.149901 1_556
O45 Rb1 3.019259 1_554
O47 Rb0 3.149901 1_556
