# generated using pymatgen
data_ZnS
_symmetry_space_group_name_H-M   'P 1'
_cell_length_a   3.80717393
_cell_length_b   3.80717360
_cell_length_c   49.82805436
_cell_angle_alpha   90.00000000
_cell_angle_beta   90.00000000
_cell_angle_gamma   119.99997642
_symmetry_Int_Tables_number   1
_chemical_formula_structural   ZnS
_chemical_formula_sum   'Zn16 S16'
_cell_volume   625.47515343
_cell_formula_units_Z   16
loop_
 _symmetry_equiv_pos_site_id
 _symmetry_equiv_pos_as_xyz
  1  'x, y, z'
loop_
 _atom_site_type_symbol
 _atom_site_label
 _atom_site_symmetry_multiplicity
 _atom_site_fract_x
 _atom_site_fract_y
 _atom_site_fract_z
 _atom_site_occupancy
  Zn  Zn0  1  0.33333300  0.66666700  0.50002509  1
  Zn  Zn1  1  0.33333300  0.66666700  0.87502713  1
  Zn  Zn2  1  0.66666700  0.33333300  0.18753613  1
  Zn  Zn3  1  -0.00000000  0.00000000  0.43749314  1
  Zn  Zn4  1  0.33333300  0.66666700  0.12502984  1
  Zn  Zn5  1  0.66666700  0.33333300  0.00002509  1
  Zn  Zn6  1  0.66666700  0.33333300  0.62502984  1
  Zn  Zn7  1  -0.00000000  -0.00000000  0.25002034  1
  Zn  Zn8  1  0.00000000  -0.00000000  0.93749314  1
  Zn  Zn9  1  0.66666700  0.33333300  0.81252286  1
  Zn  Zn10  1  0.33333300  0.66666700  0.68753613  1
  Zn  Zn11  1  0.00000000  -0.00000000  0.75002034  1
  Zn  Zn12  1  0.66666700  0.33333300  0.37502713  1
  Zn  Zn13  1  0.00000000  0.00000000  0.56255965  1
  Zn  Zn14  1  0.33333300  0.66666700  0.31252286  1
  Zn  Zn15  1  0.00000000  -0.00000000  0.06255965  1
  S  S0  1  0.66666700  0.33333300  0.04689976  1
  S  S1  1  0.00000000  -0.00000000  0.10935245  1
  S  S2  1  0.33333300  0.66666700  0.35934352  1
  S  S3  1  0.66666700  0.33333300  0.42183458  1
  S  S4  1  0.66666700  0.33333300  0.67184996  1
  S  S5  1  0.33333300  0.66666700  0.54689976  1
  S  S6  1  0.66666700  0.33333300  0.85934352  1
  S  S7  1  0.00000000  0.00000000  0.48428387  1
  S  S8  1  0.00000000  -0.00000000  0.98428387  1
  S  S9  1  0.00000000  -0.00000000  0.79683597  1
  S  S10  1  0.33333300  0.66666700  0.73434771  1
  S  S11  1  0.00000000  0.00000000  0.29683597  1
  S  S12  1  0.33333300  0.66666700  0.92183458  1
  S  S13  1  0.00000000  0.00000000  0.60935245  1
  S  S14  1  0.33333300  0.66666700  0.17184996  1
  S  S15  1  0.66666700  0.33333300  0.23434771  1
loop_
_geom_bond_atom_site_label_1
_geom_bond_atom_site_label_2
_geom_bond_distance
_geom_bond_site_symmetry_2
S0 Zn15 2.332463 1_655
S0 Zn15 2.332467 1_665
S0 Zn15 2.332467 1_555
S0 Zn5 2.335674 1_555
S1 Zn15 2.331594 1_555
S1 Zn4 2.332755 1_545
S1 Zn4 2.332759 1_555
S1 Zn4 2.332759 1_445
S2 Zn12 2.332859 1_565
S2 Zn12 2.332860 1_455
S2 Zn12 2.332865 1_555
S2 Zn14 2.332982 1_555
S3 Zn12 2.332324 1_555
S3 Zn3 2.332441 1_655
S3 Zn3 2.332445 1_665
S3 Zn3 2.332445 1_555
S4 Zn10 2.332902 1_545
S4 Zn10 2.332902 1_655
S4 Zn10 2.332908 1_555
S4 Zn6 2.332955 1_555
S5 Zn13 2.332463 1_565
S5 Zn13 2.332467 1_555
S5 Zn13 2.332467 1_665
S5 Zn0 2.335674 1_555
S6 Zn1 2.332859 1_545
S6 Zn1 2.332860 1_655
S6 Zn1 2.332865 1_555
S6 Zn9 2.332982 1_555
S7 Zn3 2.331491 1_555
S7 Zn0 2.333822 1_545
S7 Zn0 2.333826 1_555
S7 Zn0 2.333826 1_445
S8 Zn8 2.331491 1_555
S8 Zn5 2.333822 1_456
S8 Zn5 2.333826 1_446
S8 Zn5 2.333826 1_556
S9 Zn11 2.332732 1_555
S9 Zn9 2.332914 1_455
S9 Zn9 2.332917 1_445
S9 Zn9 2.332917 1_555
S10 Zn10 2.332530 1_555
S10 Zn11 2.332676 1_565
S10 Zn11 2.332679 1_555
S10 Zn11 2.332679 1_665
S11 Zn7 2.332732 1_555
S11 Zn14 2.332914 1_545
S11 Zn14 2.332917 1_555
S11 Zn14 2.332917 1_445
S12 Zn1 2.332324 1_555
S12 Zn8 2.332441 1_565
S12 Zn8 2.332445 1_555
S12 Zn8 2.332445 1_665
S13 Zn13 2.331594 1_555
S13 Zn6 2.332755 1_455
S13 Zn6 2.332759 1_445
S13 Zn6 2.332759 1_555
S14 Zn2 2.332902 1_565
S14 Zn2 2.332902 1_455
S14 Zn2 2.332908 1_555
S14 Zn4 2.332955 1_555
S15 Zn2 2.332530 1_555
S15 Zn7 2.332676 1_655
S15 Zn7 2.332679 1_665
S15 Zn7 2.332679 1_555
