# generated using pymatgen
data_BaNb7(P2O11)3
_symmetry_space_group_name_H-M   'P 1'
_cell_length_a   10.20576186
_cell_length_b   10.20576186
_cell_length_c   14.91258700
_cell_angle_alpha   90.00000000
_cell_angle_beta   90.00000000
_cell_angle_gamma   119.99999912
_symmetry_Int_Tables_number   1
_chemical_formula_structural   BaNb7(P2O11)3
_chemical_formula_sum   'Ba2 Nb14 P12 O66'
_cell_volume   1345.16167996
_cell_formula_units_Z   2
loop_
 _symmetry_equiv_pos_site_id
 _symmetry_equiv_pos_as_xyz
  1  'x, y, z'
loop_
 _atom_site_type_symbol
 _atom_site_label
 _atom_site_symmetry_multiplicity
 _atom_site_fract_x
 _atom_site_fract_y
 _atom_site_fract_z
 _atom_site_occupancy
  Ba  Ba0  1  0.00000000  0.00000000  0.75000000  1
  Ba  Ba1  1  0.00000000  0.00000000  0.25000000  1
  Nb  Nb0  1  0.23608700  0.42805900  0.62253100  1
  Nb  Nb1  1  0.42805900  0.23608700  0.12253100  1
  Nb  Nb2  1  0.33333300  0.66666700  0.25000000  1
  Nb  Nb3  1  0.80802900  0.57194100  0.12253100  1
  Nb  Nb4  1  0.80802900  0.23608700  0.37746900  1
  Nb  Nb5  1  0.19197100  0.42805900  0.87746900  1
  Nb  Nb6  1  0.57194100  0.80802900  0.62253100  1
  Nb  Nb7  1  0.76391300  0.19197100  0.12253100  1
  Nb  Nb8  1  0.57194100  0.76391300  0.87746900  1
  Nb  Nb9  1  0.66666700  0.33333300  0.75000000  1
  Nb  Nb10  1  0.42805900  0.19197100  0.37746900  1
  Nb  Nb11  1  0.19197100  0.76391300  0.62253100  1
  Nb  Nb12  1  0.76391300  0.57194100  0.37746900  1
  Nb  Nb13  1  0.23608700  0.80802900  0.87746900  1
  P  P0  1  0.35084900  0.19685200  0.88605700  1
  P  P1  1  0.15399700  0.35084900  0.11394300  1
  P  P2  1  0.80314800  0.15399700  0.88605700  1
  P  P3  1  0.64915100  0.80314800  0.11394300  1
  P  P4  1  0.19685200  0.35084900  0.38605700  1
  P  P5  1  0.84600300  0.64915100  0.88605700  1
  P  P6  1  0.35084900  0.15399700  0.61394300  1
  P  P7  1  0.80314800  0.64915100  0.61394300  1
  P  P8  1  0.64915100  0.84600300  0.38605700  1
  P  P9  1  0.84600300  0.19685200  0.61394300  1
  P  P10  1  0.15399700  0.80314800  0.38605700  1
  P  P11  1  0.19685200  0.84600300  0.11394300  1
  O  O0  1  0.84663300  0.41030200  0.10595800  1
  O  O1  1  0.50240700  0.69601500  0.16812800  1
  O  O2  1  0.29269500  0.26074400  0.64438500  1
  O  O3  1  0.70730500  0.96804900  0.14438500  1
  O  O4  1  0.69601500  0.50240700  0.66812800  1
  O  O5  1  0.99173100  0.22571900  0.13735200  1
  O  O6  1  0.29269500  0.03195100  0.85561500  1
  O  O7  1  0.96804900  0.26074400  0.85561500  1
  O  O8  1  0.83175800  0.61569500  0.98632700  1
  O  O9  1  0.03195100  0.29269500  0.35561500  1
  O  O10  1  0.77428100  0.00826900  0.36264800  1
  O  O11  1  0.16824200  0.78393800  0.48632700  1
  O  O12  1  0.55358200  0.77679100  0.75000000  1
  O  O13  1  0.49759300  0.30398500  0.83187200  1
  O  O14  1  0.22571900  0.99173100  0.63735200  1
  O  O15  1  0.76601200  0.77428100  0.63735200  1
  O  O16  1  0.22571900  0.23398800  0.86264800  1
  O  O17  1  0.23398800  0.22571900  0.36264800  1
  O  O18  1  0.58969800  0.15336700  0.39404200  1
  O  O19  1  0.49759300  0.19360900  0.66812800  1
  O  O20  1  0.23398800  0.00826900  0.13735200  1
  O  O21  1  0.00826900  0.77428100  0.86264800  1
  O  O22  1  0.77428100  0.76601200  0.13735200  1
  O  O23  1  0.96804900  0.70730500  0.64438500  1
  O  O24  1  0.30398500  0.49759300  0.33187200  1
  O  O25  1  0.61569500  0.83175800  0.48632700  1
  O  O26  1  0.99173100  0.76601200  0.36264800  1
  O  O27  1  0.69601500  0.19360900  0.83187200  1
  O  O28  1  0.43633100  0.84663300  0.89404200  1
  O  O29  1  0.16824200  0.38430500  0.01367300  1
  O  O30  1  0.56366900  0.41030200  0.39404200  1
  O  O31  1  0.80639100  0.50240700  0.83187200  1
  O  O32  1  0.41030200  0.84663300  0.60595800  1
  O  O33  1  0.43633100  0.58969800  0.60595800  1
  O  O34  1  0.26074400  0.96804900  0.35561500  1
  O  O35  1  0.22320900  0.77679100  0.75000000  1
  O  O36  1  0.15336700  0.58969800  0.89404200  1
  O  O37  1  0.21606200  0.83175800  0.01367300  1
  O  O38  1  0.41030200  0.56366900  0.89404200  1
  O  O39  1  0.38430500  0.16824200  0.51367300  1
  O  O40  1  0.22320900  0.44641800  0.75000000  1
  O  O41  1  0.73925600  0.03195100  0.64438500  1
  O  O42  1  0.76601200  0.99173100  0.86264800  1
  O  O43  1  0.58969800  0.43633100  0.10595800  1
  O  O44  1  0.03195100  0.73925600  0.14438500  1
  O  O45  1  0.84663300  0.43633100  0.39404200  1
  O  O46  1  0.30398500  0.80639100  0.16812800  1
  O  O47  1  0.38430500  0.21606200  0.98632700  1
  O  O48  1  0.50240700  0.80639100  0.33187200  1
  O  O49  1  0.21606200  0.38430500  0.48632700  1
  O  O50  1  0.78393800  0.61569500  0.51367300  1
  O  O51  1  0.61569500  0.78393800  0.01367300  1
  O  O52  1  0.15336700  0.56366900  0.60595800  1
  O  O53  1  0.19360900  0.69601500  0.33187200  1
  O  O54  1  0.77679100  0.22320900  0.25000000  1
  O  O55  1  0.73925600  0.70730500  0.85561500  1
  O  O56  1  0.70730500  0.73925600  0.35561500  1
  O  O57  1  0.80639100  0.30398500  0.66812800  1
  O  O58  1  0.26074400  0.29269500  0.14438500  1
  O  O59  1  0.77679100  0.55358200  0.25000000  1
  O  O60  1  0.56366900  0.15336700  0.10595800  1
  O  O61  1  0.78393800  0.16824200  0.98632700  1
  O  O62  1  0.19360900  0.49759300  0.16812800  1
  O  O63  1  0.44641800  0.22320900  0.25000000  1
  O  O64  1  0.83175800  0.21606200  0.51367300  1
  O  O65  1  0.00826900  0.23398800  0.63735200  1
loop_
_geom_bond_atom_site_label_1
_geom_bond_atom_site_label_2
_geom_bond_distance
_geom_bond_site_symmetry_2
Ba0 O21 2.886214 1_545
Ba0 O14 2.886214 1_545
Ba0 O42 2.886214 1_445
Ba0 O65 2.886214 1_555
Ba0 O16 2.886214 1_555
Ba0 O15 2.886214 1_445
Ba0 O7 3.245933 1_455
Ba0 O41 3.245933 1_455
Ba0 O23 3.245933 1_445
Ba0 O6 3.245933 1_555
Ba0 O2 3.245933 1_555
Ba0 O55 3.245933 1_445
Ba1 O10 2.886214 1_455
Ba1 O5 2.886214 1_455
Ba1 O26 2.886214 1_445
Ba1 O20 2.886214 1_555
Ba1 O17 2.886214 1_555
Ba1 O22 2.886214 1_445
Ba1 O34 3.245933 1_545
Ba1 O44 3.245933 1_545
Ba1 O9 3.245933 1_555
Ba1 O3 3.245933 1_445
Ba1 O56 3.245933 1_445
Ba1 O58 3.245933 1_555
Nb0 O33 1.894098 1_555
Nb0 O40 1.921041 1_555
Nb0 O52 1.964092 1_555
Nb0 O49 2.067727 1_555
Nb0 O2 2.083822 1_555
Nb0 O65 2.184623 1_555
Nb1 O43 1.894098 1_555
Nb1 O63 1.921041 1_555
Nb1 O60 1.964092 1_555
Nb1 O47 2.067727 1_554
Nb1 O58 2.083822 1_555
Nb1 O20 2.184623 1_555
Nb2 O53 2.010205 1_555
Nb2 O46 2.010205 1_555
Nb2 O48 2.010215 1_555
Nb2 O62 2.010215 1_555
Nb2 O1 2.010221 1_555
Nb2 O24 2.010221 1_555
Nb3 O0 1.894091 1_555
Nb3 O59 1.921042 1_555
Nb3 O43 1.964100 1_555
Nb3 O8 2.067727 1_554
Nb3 O44 2.083815 1_655
Nb3 O22 2.184629 1_555
Nb4 O45 1.894101 1_555
Nb4 O54 1.921042 1_555
Nb4 O18 1.964102 1_555
Nb4 O64 2.067727 1_555
Nb4 O9 2.083812 1_655
Nb4 O10 2.184619 1_555
Nb5 O36 1.894091 1_555
Nb5 O40 1.921042 1_555
Nb5 O38 1.964100 1_555
Nb5 O29 2.067727 1_556
Nb5 O7 2.083815 1_455
Nb5 O16 2.184629 1_555
Nb6 O32 1.894091 1_555
Nb6 O12 1.921042 1_555
Nb6 O33 1.964100 1_555
Nb6 O25 2.067727 1_555
Nb6 O41 2.083815 1_565
Nb6 O15 2.184629 1_555
Nb7 O60 1.894101 1_555
Nb7 O54 1.921042 1_555
Nb7 O0 1.964102 1_555
Nb7 O61 2.067727 1_554
Nb7 O3 2.083812 1_545
Nb7 O5 2.184619 1_555
Nb8 O38 1.894098 1_555
Nb8 O12 1.921041 1_555
Nb8 O28 1.964092 1_555
Nb8 O51 2.067727 1_556
Nb8 O55 2.083822 1_555
Nb8 O42 2.184623 1_555
Nb9 O27 2.010205 1_555
Nb9 O57 2.010205 1_555
Nb9 O31 2.010215 1_555
Nb9 O19 2.010215 1_555
Nb9 O4 2.010221 1_555
Nb9 O13 2.010221 1_555
Nb10 O18 1.894091 1_555
Nb10 O63 1.921042 1_555
Nb10 O30 1.964100 1_555
Nb10 O39 2.067727 1_555
Nb10 O34 2.083815 1_545
Nb10 O17 2.184629 1_555
Nb11 O52 1.894101 1_555
Nb11 O35 1.921042 1_555
Nb11 O32 1.964102 1_555
Nb11 O11 2.067727 1_555
Nb11 O23 2.083812 1_455
Nb11 O14 2.184619 1_555
Nb12 O30 1.894098 1_555
Nb12 O59 1.921041 1_555
Nb12 O45 1.964092 1_555
Nb12 O50 2.067727 1_555
Nb12 O56 2.083822 1_555
Nb12 O26 2.184623 1_555
Nb13 O28 1.894101 1_555
Nb13 O35 1.921042 1_555
Nb13 O36 1.964102 1_555
Nb13 O37 2.067727 1_556
Nb13 O6 2.083812 1_565
Nb13 O21 2.184619 1_555
O1 P3 1.566470 1_555
O2 P6 1.546541 1_555
O3 P3 1.546541 1_555
O4 P7 1.566470 1_555
O5 P1 1.542840 1_655
O6 P0 1.546541 1_555
O7 P2 1.546541 1_555
O8 P5 1.524453 1_555
O9 P4 1.546541 1_555
O10 P8 1.542840 1_545
O11 P10 1.524451 1_555
O13 P0 1.566470 1_555
O14 P6 1.542840 1_565
O15 P7 1.542840 1_555
O16 P0 1.542840 1_555
O17 P4 1.542840 1_555
O19 P6 1.566467 1_555
O20 P11 1.542840 1_545
O21 P5 1.542840 1_455
O22 P3 1.542840 1_555
O23 P7 1.546541 1_555
O24 P4 1.566470 1_555
O25 P8 1.524453 1_555
O26 P10 1.542840 1_655
O27 P2 1.566476 1_555
O29 P1 1.524453 1_555
O31 P5 1.566467 1_555
O34 P10 1.546541 1_555
O37 P11 1.524451 1_555
O39 P6 1.524453 1_555
O41 P9 1.546541 1_555
O42 P2 1.542840 1_565
O44 P11 1.546541 1_555
O46 P11 1.566476 1_555
O47 P0 1.524453 1_555
O48 P8 1.566467 1_555
O49 P4 1.524453 1_555
O50 P7 1.524453 1_555
O51 P3 1.524453 1_555
O53 P10 1.566476 1_555
O55 P5 1.546541 1_555
O56 P8 1.546541 1_555
O57 P9 1.566476 1_555
O58 P1 1.546541 1_555
O61 P2 1.524451 1_555
O62 P1 1.566467 1_555
O64 P9 1.524451 1_555
O65 P9 1.542840 1_455
