# generated using pymatgen
data_SrV2(NiO4)2
_symmetry_space_group_name_H-M   'P 1'
_cell_length_a   9.70281111
_cell_length_b   9.70281111
_cell_length_c   9.70281111
_cell_angle_alpha   100.95713509
_cell_angle_beta   100.95713509
_cell_angle_gamma   128.30524669
_symmetry_Int_Tables_number   1
_chemical_formula_structural   SrV2(NiO4)2
_chemical_formula_sum   'Sr4 V8 Ni8 O32'
_cell_volume   645.10403621
_cell_formula_units_Z   4
loop_
 _symmetry_equiv_pos_site_id
 _symmetry_equiv_pos_as_xyz
  1  'x, y, z'
loop_
 _atom_site_type_symbol
 _atom_site_label
 _atom_site_symmetry_multiplicity
 _atom_site_fract_x
 _atom_site_fract_y
 _atom_site_fract_z
 _atom_site_occupancy
  Sr  Sr0  1  0.00425300  0.00425300  0.00000000  1
  Sr  Sr1  1  0.25425300  0.75425300  0.50000000  1
  Sr  Sr2  1  0.75425300  0.25425300  0.50000000  1
  Sr  Sr3  1  0.50425300  0.50425300  0.00000000  1
  V  V0  1  0.84768100  0.02390500  0.66415200  1
  V  V1  1  0.43352900  0.59768100  0.32377600  1
  V  V2  1  0.27390500  0.10975300  0.67622400  1
  V  V3  1  0.35975300  0.18352900  0.33584800  1
  V  V4  1  0.77390500  0.09768100  0.16415200  1
  V  V5  1  0.93352900  0.60975300  0.83584800  1
  V  V6  1  0.34768100  0.68352900  0.82377600  1
  V  V7  1  0.85975300  0.52390500  0.17622400  1
  Ni  Ni0  1  0.90095800  0.89897000  0.33657700  1
  Ni  Ni1  1  0.81438100  0.65095800  0.50198800  1
  Ni  Ni2  1  0.14897000  0.31239300  0.49801200  1
  Ni  Ni3  1  0.56239300  0.56438100  0.66342300  1
  Ni  Ni4  1  0.64897000  0.15095800  0.83657700  1
  Ni  Ni5  1  0.31438100  0.81239300  0.16342300  1
  Ni  Ni6  1  0.40095800  0.06438100  0.00198800  1
  Ni  Ni7  1  0.06239300  0.39897000  0.99801200  1
  O  O0  1  0.85934500  0.51345400  0.35288800  1
  O  O1  1  0.75645700  0.60934500  0.84589200  1
  O  O2  1  0.76345400  0.91056500  0.15410800  1
  O  O3  1  0.16056500  0.50645700  0.64711200  1
  O  O4  1  0.26345400  0.10934500  0.85288800  1
  O  O5  1  0.25645700  0.41056500  0.14711200  1
  O  O6  1  0.35934500  0.00645700  0.34589200  1
  O  O7  1  0.66056500  0.01345400  0.65410800  1
  O  O8  1  0.15004100  0.81929100  0.98901500  1
  O  O9  1  0.41102500  0.90004100  0.83075000  1
  O  O10  1  0.06929100  0.58027600  0.16925000  1
  O  O11  1  0.83027600  0.16102500  0.01098500  1
  O  O12  1  0.56929100  0.40004100  0.48901500  1
  O  O13  1  0.91102500  0.08027600  0.51098500  1
  O  O14  1  0.65004100  0.66102500  0.33075000  1
  O  O15  1  0.33027600  0.31929100  0.66925000  1
  O  O16  1  0.56342500  0.04393700  0.16434500  1
  O  O17  1  0.64908100  0.31342500  0.01948900  1
  O  O18  1  0.29393700  0.62959200  0.98051100  1
  O  O19  1  0.87959200  0.39908100  0.83565500  1
  O  O20  1  0.79393700  0.81342500  0.66434500  1
  O  O21  1  0.14908100  0.12959200  0.33565600  1
  O  O22  1  0.06342500  0.89908100  0.51948900  1
  O  O23  1  0.37959200  0.54393700  0.48051100  1
  O  O24  1  0.86736500  0.70401200  0.16797300  1
  O  O25  1  0.94939200  0.61736500  0.66335300  1
  O  O26  1  0.95401200  0.28603900  0.33664700  1
  O  O27  1  0.53603900  0.69939200  0.83202700  1
  O  O28  1  0.45401200  0.11736500  0.66797300  1
  O  O29  1  0.44939200  0.78603900  0.33202700  1
  O  O30  1  0.36736500  0.19939200  0.16335300  1
  O  O31  1  0.03603900  0.20401200  0.83664700  1
loop_
_geom_bond_atom_site_label_1
_geom_bond_atom_site_label_2
_geom_bond_distance
_geom_bond_site_symmetry_2
Ni0 O21 2.034840 1_665
Ni0 O14 2.047098 1_555
Ni0 O24 2.053616 1_555
Ni0 O2 2.071488 1_555
Ni0 O13 2.135510 1_565
Ni0 O22 2.137380 1_655
Ni1 O22 2.034840 1_655
Ni1 O12 2.047094 1_555
Ni1 O25 2.053616 1_555
Ni1 O0 2.071487 1_555
Ni1 O14 2.135497 1_555
Ni1 O20 2.137379 1_555
Ni2 O23 2.034844 1_555
Ni2 O13 2.047099 1_455
Ni2 O26 2.053616 1_455
Ni2 O3 2.071493 1_555
Ni2 O15 2.135504 1_555
Ni2 O21 2.137380 1_555
Ni3 O20 2.034839 1_555
Ni3 O15 2.047094 1_555
Ni3 O27 2.053616 1_555
Ni3 O1 2.071493 1_555
Ni3 O12 2.135504 1_555
Ni3 O23 2.137386 1_555
Ni4 O19 2.034844 1_555
Ni4 O9 2.047098 1_545
Ni4 O28 2.053616 1_555
Ni4 O7 2.071488 1_555
Ni4 O11 2.135510 1_556
Ni4 O17 2.137380 1_556
Ni5 O16 2.034839 1_565
Ni5 O10 2.047094 1_555
Ni5 O29 2.053616 1_555
Ni5 O6 2.071493 1_565
Ni5 O8 2.135504 1_554
Ni5 O18 2.137386 1_554
Ni6 O17 2.034840 1_555
Ni6 O8 2.047094 1_544
Ni6 O30 2.053616 1_555
Ni6 O4 2.071487 1_554
Ni6 O9 2.135497 1_544
Ni6 O16 2.137379 1_555
Ni7 O18 2.034844 1_555
Ni7 O11 2.047099 1_456
Ni7 O31 2.053616 1_555
Ni7 O5 2.071493 1_556
Ni7 O10 2.135504 1_556
Ni7 O19 2.137386 1_455
O0 V7 1.736872 1_555
O0 Sr1 2.780821 1_655
O0 Sr2 2.853269 1_555
O1 V5 1.736875 1_555
O1 Sr0 2.780820 1_666
O1 Sr3 2.853261 1_556
O2 V4 1.736880 1_565
O2 Sr0 2.780813 1_665
O2 Sr3 2.853260 1_555
O3 V6 1.736875 1_555
O3 Sr1 2.780820 1_555
O3 Sr2 2.853261 1_455
O4 V2 1.736872 1_555
O4 Sr3 2.780821 1_556
O4 Sr0 2.853269 1_556
O5 V1 1.736875 1_555
O5 Sr3 2.780820 1_555
O5 Sr0 2.853261 1_555
O6 V3 1.736875 1_555
O6 Sr2 2.780820 1_555
O6 Sr1 2.853261 1_545
O7 V0 1.736880 1_555
O7 Sr2 2.780813 1_555
O7 Sr1 2.853260 1_545
O8 V5 1.767784 1_455
O8 Sr0 2.892203 1_566
O9 V6 1.767788 1_555
O9 Sr1 2.892203 1_555
O10 V7 1.767784 1_455
O10 Sr1 2.892203 1_555
O11 V4 1.767781 1_555
O11 Sr0 2.892195 1_655
O12 V3 1.767784 1_555
O12 Sr2 2.892203 1_555
O13 V0 1.767781 1_555
O13 Sr2 2.892195 1_555
O14 V1 1.767788 1_555
O14 Sr3 2.892203 1_555
O15 V2 1.767784 1_555
O15 Sr3 2.892203 1_556
O16 V4 1.767567 1_555
O16 Sr2 2.948960 1_555
O17 V7 1.767560 1_555
O17 Sr3 2.948969 1_555
O18 V6 1.767557 1_555
O18 Sr3 2.948960 1_556
O19 V5 1.767557 1_555
O19 Sr2 2.948960 1_555
O20 V0 1.767567 1_565
O20 Sr0 2.948960 1_666
O21 V3 1.767560 1_555
O21 Sr0 2.948969 1_555
O22 V2 1.767560 1_565
O22 Sr1 2.948969 1_555
O23 V1 1.767557 1_555
O23 Sr1 2.948960 1_555
O24 V7 1.720814 1_555
O24 Sr3 2.641327 1_555
O25 V5 1.720814 1_555
O25 Sr2 2.641327 1_555
O26 V4 1.720814 1_555
O26 Sr2 2.641327 1_555
O27 V6 1.720814 1_555
O27 Sr3 2.641327 1_556
O28 V2 1.720814 1_555
O28 Sr1 2.641327 1_545
O29 V1 1.720814 1_555
O29 Sr1 2.641327 1_555
O30 V3 1.720814 1_555
O30 Sr0 2.641327 1_555
O31 V0 1.720814 1_455
O31 Sr0 2.641327 1_556
