# generated using pymatgen
data_FePO4
_symmetry_space_group_name_H-M   'P 1'
_cell_length_a   7.45551730
_cell_length_b   5.53352338
_cell_length_c   9.28734511
_cell_angle_alpha   59.69645523
_cell_angle_beta   90.00000000
_cell_angle_gamma   90.00000000
_symmetry_Int_Tables_number   1
_chemical_formula_structural   FePO4
_chemical_formula_sum   'Fe4 P4 O16'
_cell_volume   330.79978570
_cell_formula_units_Z   4
loop_
 _symmetry_equiv_pos_site_id
 _symmetry_equiv_pos_as_xyz
  1  'x, y, z'
loop_
 _atom_site_type_symbol
 _atom_site_label
 _atom_site_symmetry_multiplicity
 _atom_site_fract_x
 _atom_site_fract_y
 _atom_site_fract_z
 _atom_site_occupancy
  Fe  Fe0  1  0.30839807  0.32924156  0.56052274  1
  Fe  Fe1  1  0.80839807  0.67075844  0.93947726  1
  Fe  Fe2  1  0.69160193  0.67075844  0.43947726  1
  Fe  Fe3  1  0.19160193  0.32924156  0.06052274  1
  P  P0  1  0.45640015  0.68451515  0.72872795  1
  P  P1  1  0.54359985  0.31548485  0.27127205  1
  P  P2  1  0.04359985  0.68451515  0.22872795  1
  P  P3  1  0.95640015  0.31548485  0.77127205  1
  O  O0  1  0.85928031  0.51419724  0.61107907  1
  O  O1  1  0.35011337  0.95379472  0.62844136  1
  O  O2  1  0.85011337  0.04620528  0.87155864  1
  O  O3  1  0.64458304  0.74474370  0.76426550  1
  O  O4  1  0.64071969  0.51419724  0.11107907  1
  O  O5  1  0.97446540  0.45419817  0.88174627  1
  O  O6  1  0.35928031  0.48580276  0.88892093  1
  O  O7  1  0.52553460  0.45419817  0.38174627  1
  O  O8  1  0.14458304  0.25525630  0.73573450  1
  O  O9  1  0.14071969  0.48580276  0.38892093  1
  O  O10  1  0.14988663  0.95379472  0.12844136  1
  O  O11  1  0.64988663  0.04620528  0.37155864  1
  O  O12  1  0.47446540  0.54580183  0.61825373  1
  O  O13  1  0.35541696  0.25525630  0.23573450  1
  O  O14  1  0.85541696  0.74474370  0.26426550  1
  O  O15  1  0.02553460  0.54580183  0.11825373  1
loop_
_geom_bond_atom_site_label_1
_geom_bond_atom_site_label_2
_geom_bond_distance
_geom_bond_site_symmetry_2
Fe0 O9 1.860099 1_555
Fe0 O1 1.867703 1_545
Fe0 O8 1.906540 1_555
Fe0 O12 1.976065 1_555
Fe0 O7 2.167267 1_555
Fe1 O4 1.860099 1_556
Fe1 O2 1.867703 1_565
Fe1 O3 1.906540 1_555
Fe1 O5 1.976065 1_555
Fe1 O15 2.167267 1_656
Fe2 O0 1.860099 1_555
Fe2 O11 1.867703 1_565
Fe2 O14 1.906540 1_555
Fe2 O7 1.976065 1_555
Fe2 O12 2.167267 1_555
Fe3 O6 1.860099 1_554
Fe3 O10 1.867703 1_545
Fe3 O13 1.906540 1_555
Fe3 O15 1.976065 1_555
Fe3 O5 2.167267 1_454
O0 P3 1.515226 1_555
O1 P0 1.521568 1_555
O2 P3 1.521568 1_555
O3 P0 1.516385 1_555
O4 P1 1.515226 1_555
O5 P3 1.566769 1_555
O6 P0 1.515226 1_555
O7 P1 1.566769 1_555
O8 P3 1.516385 1_455
O9 P2 1.515226 1_555
O10 P2 1.521568 1_555
O11 P1 1.521568 1_555
O12 P0 1.566769 1_555
O13 P1 1.516385 1_555
O14 P2 1.516385 1_655
O15 P2 1.566769 1_555
