# generated using pymatgen
data_La4Cu6(MoO4)9
_symmetry_space_group_name_H-M   'P 1'
_cell_length_a   12.97229976
_cell_length_b   12.97229976
_cell_length_c   12.97229947
_cell_angle_alpha   109.48411642
_cell_angle_beta   109.48411642
_cell_angle_gamma   109.48411358
_symmetry_Int_Tables_number   1
_chemical_formula_structural   La4Cu6(MoO4)9
_chemical_formula_sum   'La8 Cu12 Mo18 O72'
_cell_volume   1679.66051368
_cell_formula_units_Z   2
loop_
 _symmetry_equiv_pos_site_id
 _symmetry_equiv_pos_as_xyz
  1  'x, y, z'
loop_
 _atom_site_type_symbol
 _atom_site_label
 _atom_site_symmetry_multiplicity
 _atom_site_fract_x
 _atom_site_fract_y
 _atom_site_fract_z
 _atom_site_occupancy
  La  La0  1  0.45443800  0.40271300  0.94772700  1
  La  La1  1  0.94772700  0.45443800  0.40271300  1
  La  La2  1  0.90271300  0.95443800  0.44772700  1
  La  La3  1  0.95443800  0.44772700  0.90271300  1
  La  La4  1  0.44772700  0.90271300  0.95443800  1
  La  La5  1  0.00984400  0.00984400  0.00984400  1
  La  La6  1  0.40271300  0.94772700  0.45443800  1
  La  La7  1  0.50984400  0.50984400  0.50984400  1
  Cu  Cu0  1  0.33118200  0.39934900  0.64132600  1
  Cu  Cu1  1  0.06495000  0.27136500  0.50922900  1
  Cu  Cu2  1  0.83118200  0.14132600  0.89934900  1
  Cu  Cu3  1  0.39934900  0.64132600  0.33118200  1
  Cu  Cu4  1  0.00922900  0.77136500  0.56495000  1
  Cu  Cu5  1  0.50922900  0.06495000  0.27136500  1
  Cu  Cu6  1  0.64132600  0.33118200  0.39934900  1
  Cu  Cu7  1  0.56495000  0.00922900  0.77136500  1
  Cu  Cu8  1  0.77136500  0.56495000  0.00922900  1
  Cu  Cu9  1  0.27136500  0.50922900  0.06495000  1
  Cu  Cu10  1  0.14132600  0.89934900  0.83118200  1
  Cu  Cu11  1  0.89934900  0.83118200  0.14132600  1
  Mo  Mo0  1  0.58358300  0.32904400  0.69632300  1
  Mo  Mo1  1  0.82904400  0.08358300  0.19632300  1
  Mo  Mo2  1  0.50428800  0.75657700  0.20202700  1
  Mo  Mo3  1  0.65658200  0.70305900  0.91016800  1
  Mo  Mo4  1  0.20202700  0.50428800  0.75657700  1
  Mo  Mo5  1  0.91016800  0.65658200  0.70305900  1
  Mo  Mo6  1  0.25657700  0.00428800  0.70202700  1
  Mo  Mo7  1  0.15658200  0.41016800  0.20305900  1
  Mo  Mo8  1  0.70305900  0.91016800  0.65658200  1
  Mo  Mo9  1  0.08358300  0.19632300  0.82904400  1
  Mo  Mo10  1  0.32904400  0.69632300  0.58358300  1
  Mo  Mo11  1  0.75657700  0.20202700  0.50428800  1
  Mo  Mo12  1  0.70202700  0.25657700  0.00428800  1
  Mo  Mo13  1  0.19632300  0.82904400  0.08358300  1
  Mo  Mo14  1  0.69632300  0.58358300  0.32904400  1
  Mo  Mo15  1  0.41016800  0.20305900  0.15658200  1
  Mo  Mo16  1  0.00428800  0.70202700  0.25657700  1
  Mo  Mo17  1  0.20305900  0.15658200  0.41016800  1
  O  O0  1  0.42912400  0.59125300  0.07567900  1
  O  O1  1  0.10999600  0.09756200  0.24660600  1
  O  O2  1  0.60999600  0.74660600  0.59756200  1
  O  O3  1  0.13519100  0.66671400  0.04030400  1
  O  O4  1  0.12553400  0.46989100  0.84185100  1
  O  O5  1  0.74660600  0.59756200  0.60999600  1
  O  O6  1  0.78249800  0.31667900  0.16907400  1
  O  O7  1  0.29243700  0.95976600  0.82644500  1
  O  O8  1  0.79243700  0.32644500  0.45976600  1
  O  O9  1  0.34185100  0.96989100  0.62553400  1
  O  O10  1  0.07429400  0.86738800  0.07518100  1
  O  O11  1  0.57567900  0.09125300  0.92912400  1
  O  O12  1  0.46989100  0.84185100  0.12553400  1
  O  O13  1  0.09756200  0.24660600  0.10999600  1
  O  O14  1  0.54030400  0.16671400  0.63519100  1
  O  O15  1  0.47158500  0.09244100  0.13044200  1
  O  O16  1  0.63044200  0.59244100  0.97158500  1
  O  O17  1  0.93219100  0.24313400  0.33319800  1
  O  O18  1  0.57119800  0.78126200  0.93430900  1
  O  O19  1  0.82644500  0.29243700  0.95976600  1
  O  O20  1  0.43219100  0.83319800  0.74313400  1
  O  O21  1  0.32443700  0.48165900  0.32126900  1
  O  O22  1  0.66671400  0.04030400  0.13519100  1
  O  O23  1  0.93430900  0.57119800  0.78126200  1
  O  O24  1  0.63519100  0.54030400  0.16671400  1
  O  O25  1  0.57518100  0.36738800  0.57429400  1
  O  O26  1  0.09244100  0.13044200  0.47158500  1
  O  O27  1  0.04030400  0.13519100  0.66671400  1
  O  O28  1  0.95976600  0.82644500  0.29243700  1
  O  O29  1  0.07518100  0.07429400  0.86738800  1
  O  O30  1  0.81667900  0.28249800  0.66907400  1
  O  O31  1  0.74313400  0.43219100  0.83319800  1
  O  O32  1  0.32644500  0.45976600  0.79243700  1
  O  O33  1  0.43430900  0.28126200  0.07119800  1
  O  O34  1  0.83319800  0.74313400  0.43219100  1
  O  O35  1  0.97342400  0.24272400  0.85348600  1
  O  O36  1  0.47342400  0.35348600  0.74272400  1
  O  O37  1  0.24660600  0.10999600  0.09756200  1
  O  O38  1  0.28249800  0.66907400  0.81667900  1
  O  O39  1  0.78126200  0.93430900  0.57119800  1
  O  O40  1  0.16907400  0.78249800  0.31667900  1
  O  O41  1  0.57429400  0.57518100  0.36738800  1
  O  O42  1  0.07567900  0.42912400  0.59125300  1
  O  O43  1  0.16671400  0.63519100  0.54030400  1
  O  O44  1  0.74272400  0.47342400  0.35348600  1
  O  O45  1  0.85348600  0.97342400  0.24272400  1
  O  O46  1  0.96989100  0.62553400  0.34185100  1
  O  O47  1  0.59244100  0.97158500  0.63044200  1
  O  O48  1  0.84185100  0.12553400  0.46989100  1
  O  O49  1  0.24272400  0.85348600  0.97342400  1
  O  O50  1  0.36738800  0.57429400  0.57518100  1
  O  O51  1  0.48165900  0.32126900  0.32443700  1
  O  O52  1  0.13044200  0.47158500  0.09244100  1
  O  O53  1  0.31667900  0.16907400  0.78249800  1
  O  O54  1  0.92912400  0.57567900  0.09125300  1
  O  O55  1  0.07119800  0.43430900  0.28126200  1
  O  O56  1  0.45976600  0.79243700  0.32644500  1
  O  O57  1  0.62553400  0.34185100  0.96989100  1
  O  O58  1  0.59756200  0.60999600  0.74660600  1
  O  O59  1  0.86738800  0.07518100  0.07429400  1
  O  O60  1  0.97158500  0.63044200  0.59244100  1
  O  O61  1  0.35348600  0.74272400  0.47342400  1
  O  O62  1  0.09125300  0.92912400  0.57567900  1
  O  O63  1  0.82126900  0.98165900  0.82443700  1
  O  O64  1  0.33319800  0.93219100  0.24313400  1
  O  O65  1  0.32126900  0.32443700  0.48165900  1
  O  O66  1  0.28126200  0.07119800  0.43430900  1
  O  O67  1  0.82443700  0.82126900  0.98165900  1
  O  O68  1  0.24313400  0.33319800  0.93219100  1
  O  O69  1  0.66907400  0.81667900  0.28249800  1
  O  O70  1  0.59125300  0.07567900  0.42912400  1
  O  O71  1  0.98165900  0.82443700  0.82126900  1
loop_
_geom_bond_atom_site_label_1
_geom_bond_atom_site_label_2
_geom_bond_distance
_geom_bond_site_symmetry_2
La0 O24 2.477086 1_556
La0 O68 2.495741 1_555
La0 O53 2.543958 1_555
La0 O57 2.554785 1_555
La0 O16 2.576445 1_555
La0 O33 2.608407 1_556
La0 O32 2.635476 1_555
La0 O36 2.636214 1_555
La0 O0 2.652555 1_556
La1 O43 2.477086 1_655
La1 O17 2.495741 1_555
La1 O6 2.543957 1_555
La1 O46 2.554786 1_555
La1 O60 2.576445 1_555
La1 O55 2.608407 1_655
La1 O8 2.635476 1_555
La1 O44 2.636214 1_555
La1 O42 2.652555 1_655
La2 O27 2.477086 1_665
La2 O34 2.495741 1_555
La2 O69 2.543958 1_555
La2 O48 2.554785 1_565
La2 O26 2.576445 1_665
La2 O39 2.608407 1_555
La2 O28 2.635476 1_555
La2 O45 2.636214 1_555
La2 O62 2.652555 1_655
La3 O3 2.477086 1_656
La3 O31 2.495741 1_555
La3 O30 2.543957 1_555
La3 O4 2.554786 1_655
La3 O52 2.576445 1_656
La3 O23 2.608407 1_555
La3 O19 2.635476 1_555
La3 O35 2.636214 1_555
La3 O54 2.652555 1_556
La4 O22 2.477086 1_566
La4 O20 2.495741 1_555
La4 O38 2.543958 1_555
La4 O12 2.554785 1_556
La4 O15 2.576445 1_566
La4 O18 2.608407 1_555
La4 O7 2.635476 1_555
La4 O49 2.636214 1_555
La4 O11 2.652555 1_565
La5 O59 2.536778 1_455
La5 O10 2.536778 1_545
La5 O29 2.536778 1_554
La5 O1 2.537008 1_555
La5 O13 2.537009 1_555
La5 O37 2.537009 1_555
La5 O71 2.606609 1_444
La5 O63 2.606609 1_444
La5 O67 2.606609 1_444
La6 O14 2.477086 1_565
La6 O64 2.495741 1_555
La6 O40 2.543958 1_555
La6 O9 2.554785 1_555
La6 O47 2.576445 1_555
La6 O66 2.608407 1_565
La6 O56 2.635476 1_555
La6 O61 2.636214 1_555
La6 O70 2.652555 1_565
La7 O25 2.536778 1_555
La7 O50 2.536778 1_555
La7 O41 2.536778 1_555
La7 O58 2.537008 1_555
La7 O5 2.537009 1_555
La7 O2 2.537009 1_555
La7 O21 2.606609 1_555
La7 O51 2.606609 1_555
La7 O65 2.606609 1_555
Cu0 O32 1.883679 1_555
Cu0 O65 1.909764 1_555
Cu0 O36 2.263671 1_555
Cu0 O50 2.638943 1_555
Cu1 O42 1.896912 1_555
Cu1 O26 1.913931 1_555
Cu1 O17 2.170828 1_455
Cu1 O48 2.633160 1_455
Cu2 O19 1.883679 1_555
Cu2 O63 1.909764 1_545
Cu2 O35 2.263671 1_555
Cu2 O59 2.638943 1_556
Cu3 O56 1.883679 1_555
Cu3 O21 1.909764 1_555
Cu3 O61 2.263671 1_555
Cu3 O41 2.638943 1_555
Cu4 O62 1.896912 1_555
Cu4 O60 1.913931 1_455
Cu4 O34 2.170828 1_455
Cu4 O46 2.633160 1_455
Cu5 O70 1.896912 1_555
Cu5 O15 1.913931 1_555
Cu5 O64 2.170828 1_545
Cu5 O12 2.633160 1_545
Cu6 O8 1.883679 1_555
Cu6 O51 1.909764 1_555
Cu6 O44 2.263671 1_555
Cu6 O25 2.638943 1_555
Cu7 O11 1.896912 1_555
Cu7 O47 1.913931 1_545
Cu7 O20 2.170828 1_545
Cu7 O9 2.633160 1_545
Cu8 O54 1.896912 1_555
Cu8 O16 1.913931 1_554
Cu8 O31 2.170828 1_554
Cu8 O57 2.633160 1_554
Cu9 O0 1.896912 1_555
Cu9 O52 1.913931 1_555
Cu9 O68 2.170828 1_554
Cu9 O4 2.633160 1_554
Cu10 O7 1.883679 1_555
Cu10 O71 1.909764 1_455
Cu10 O49 2.263671 1_555
Cu10 O29 2.638943 1_565
Cu11 O28 1.883679 1_555
Cu11 O67 1.909764 1_554
Cu11 O45 2.263671 1_555
Cu11 O10 2.638943 1_655
Mo0 O14 1.782912 1_555
Mo0 O25 1.792069 1_555
Mo0 O36 1.803797 1_555
Mo0 O31 1.828390 1_555
Mo1 O22 1.782912 1_555
Mo1 O59 1.792069 1_555
Mo1 O45 1.803797 1_545
Mo1 O17 1.828390 1_555
Mo2 O69 1.767429 1_555
Mo2 O12 1.781452 1_555
Mo2 O0 1.852190 1_555
Mo2 O56 1.858798 1_555
Mo3 O18 1.767231 1_555
Mo3 O58 1.771024 1_555
Mo3 O16 1.851263 1_555
Mo3 O67 1.851935 1_555
Mo4 O38 1.767430 1_555
Mo4 O4 1.781452 1_555
Mo4 O42 1.852190 1_555
Mo4 O32 1.858798 1_555
Mo5 O23 1.767231 1_555
Mo5 O5 1.771024 1_555
Mo5 O60 1.851263 1_555
Mo5 O71 1.851935 1_555
Mo6 O53 1.767429 1_555
Mo6 O9 1.781452 1_545
Mo6 O62 1.852190 1_545
Mo6 O7 1.858798 1_545
Mo7 O55 1.767231 1_555
Mo7 O13 1.771024 1_555
Mo7 O52 1.851263 1_555
Mo7 O21 1.851935 1_555
Mo8 O39 1.767231 1_555
Mo8 O2 1.771024 1_555
Mo8 O47 1.851263 1_555
Mo8 O63 1.851935 1_555
Mo9 O27 1.782912 1_555
Mo9 O29 1.792069 1_555
Mo9 O35 1.803797 1_455
Mo9 O68 1.828390 1_555
Mo10 O43 1.782912 1_555
Mo10 O50 1.792069 1_555
Mo10 O61 1.803797 1_555
Mo10 O20 1.828390 1_555
Mo11 O30 1.767429 1_555
Mo11 O48 1.781452 1_555
Mo11 O70 1.852190 1_555
Mo11 O8 1.858798 1_555
Mo12 O6 1.767429 1_555
Mo12 O57 1.781452 1_554
Mo12 O11 1.852190 1_554
Mo12 O19 1.858798 1_554
Mo13 O3 1.782912 1_555
Mo13 O10 1.792069 1_555
Mo13 O49 1.803797 1_554
Mo13 O64 1.828390 1_555
Mo14 O24 1.782912 1_555
Mo14 O41 1.792069 1_555
Mo14 O44 1.803797 1_555
Mo14 O34 1.828390 1_555
Mo15 O33 1.767231 1_555
Mo15 O37 1.771024 1_555
Mo15 O15 1.851263 1_555
Mo15 O51 1.851935 1_555
Mo16 O40 1.767430 1_555
Mo16 O46 1.781452 1_455
Mo16 O54 1.852190 1_455
Mo16 O28 1.858798 1_455
Mo17 O66 1.767231 1_555
Mo17 O1 1.771024 1_555
Mo17 O26 1.851263 1_555
Mo17 O65 1.851935 1_555
