# generated using pymatgen
data_Li3Ti4O8
_symmetry_space_group_name_H-M   'P 1'
_cell_length_a   5.80224200
_cell_length_b   4.93867900
_cell_length_c   4.98616220
_cell_angle_alpha   89.16286543
_cell_angle_beta   90.00000000
_cell_angle_gamma   90.00000000
_symmetry_Int_Tables_number   1
_chemical_formula_structural   Li3Ti4O8
_chemical_formula_sum   'Li3 Ti4 O8'
_cell_volume   142.86527534
_cell_formula_units_Z   1
loop_
 _symmetry_equiv_pos_site_id
 _symmetry_equiv_pos_as_xyz
  1  'x, y, z'
loop_
 _atom_site_type_symbol
 _atom_site_label
 _atom_site_symmetry_multiplicity
 _atom_site_fract_x
 _atom_site_fract_y
 _atom_site_fract_z
 _atom_site_occupancy
  Li  Li0  1  0.07012400  0.00000000  0.50000000  1
  Li  Li1  1  0.74336900  0.50000000  0.00000000  1
  Li  Li2  1  0.23651300  0.50000000  0.00000000  1
  Ti  Ti0  1  0.75882100  0.50000000  0.50000000  1
  Ti  Ti1  1  0.51455800  0.00000000  0.00000000  1
  Ti  Ti2  1  0.28474100  0.50000000  0.50000000  1
  Ti  Ti3  1  0.00716100  0.00000000  0.00000000  1
  O  O0  1  0.76813800  0.81332700  0.21989600  1
  O  O1  1  0.25880300  0.81618500  0.22274500  1
  O  O2  1  0.01850900  0.31792300  0.27437300  1
  O  O3  1  0.76813800  0.18667300  0.78010400  1
  O  O4  1  0.25880300  0.18381500  0.77725500  1
  O  O5  1  0.51640700  0.32569400  0.25932700  1
  O  O6  1  0.51640700  0.67430600  0.74067300  1
  O  O7  1  0.01850900  0.68207700  0.72562700  1
loop_
_geom_bond_atom_site_label_1
_geom_bond_atom_site_label_2
_geom_bond_distance
_geom_bond_site_symmetry_2
Li0 O7 1.941392 1_545
Li0 O2 1.941392 1_555
Li0 O4 1.992590 1_555
Li0 O1 1.992590 1_545
Li0 O3 2.430712 1_455
Li0 O0 2.430712 1_445
Li1 O3 1.914920 1_554
Li1 O0 1.914920 1_555
Li1 O6 2.028469 1_554
Li1 O5 2.028469 1_555
Li1 O2 2.278782 1_655
Li1 O7 2.278782 1_654
Li2 O4 1.933734 1_554
Li2 O1 1.933734 1_555
Li2 O7 2.060161 1_554
Li2 O2 2.060161 1_555
Li2 O6 2.240069 1_554
Li2 O5 2.240069 1_555
O0 Ti3 1.986448 1_665
O0 Ti1 2.046311 1_565
O0 Ti0 2.070000 1_555
O1 Ti3 2.039615 1_565
O1 Ti1 2.056766 1_565
O1 Ti2 2.075838 1_555
O2 Ti0 2.091453 1_455
O2 Ti3 2.098568 1_555
O2 Ti2 2.118971 1_555
O3 Ti3 1.986448 1_656
O3 Ti1 2.046311 1_556
O3 Ti0 2.070000 1_555
O4 Ti3 2.039615 1_556
O4 Ti1 2.056766 1_556
O4 Ti2 2.075838 1_555
O5 Ti2 2.004531 1_555
O5 Ti0 2.046872 1_555
O5 Ti1 2.078491 1_555
O6 Ti2 2.004531 1_555
O6 Ti0 2.046872 1_555
O6 Ti1 2.078491 1_566
O7 Ti0 2.091453 1_455
O7 Ti3 2.098568 1_566
O7 Ti2 2.118971 1_555
