# generated using pymatgen
data_MnSbS2Br
_symmetry_space_group_name_H-M   'P 1'
_cell_length_a   3.86265400
_cell_length_b   6.64950924
_cell_length_c   9.59898971
_cell_angle_alpha   91.39625350
_cell_angle_beta   90.00000000
_cell_angle_gamma   106.88469203
_symmetry_Int_Tables_number   1
_chemical_formula_structural   MnSbS2Br
_chemical_formula_sum   'Mn2 Sb2 S4 Br2'
_cell_volume   235.84281131
_cell_formula_units_Z   2
loop_
 _symmetry_equiv_pos_site_id
 _symmetry_equiv_pos_as_xyz
  1  'x, y, z'
loop_
 _atom_site_type_symbol
 _atom_site_label
 _atom_site_symmetry_multiplicity
 _atom_site_fract_x
 _atom_site_fract_y
 _atom_site_fract_z
 _atom_site_occupancy
  Mn  Mn0  1  0.00000000  0.00000000  0.00000000  1
  Mn  Mn1  1  0.00000000  0.00000000  0.50000000  1
  Sb  Sb0  1  0.71035800  0.42071600  0.80943400  1
  Sb  Sb1  1  0.28964200  0.57928400  0.19056600  1
  S  S0  1  0.63795000  0.27590000  0.05048300  1
  S  S1  1  0.07451500  0.14903000  0.75755900  1
  S  S2  1  0.36205000  0.72410000  0.94951700  1
  S  S3  1  0.92548500  0.85097000  0.24244100  1
  Br  Br0  1  0.36732900  0.73465800  0.56918600  1
  Br  Br1  1  0.63267100  0.26534200  0.43081400  1
loop_
_geom_bond_atom_site_label_1
_geom_bond_atom_site_label_2
_geom_bond_distance
_geom_bond_site_symmetry_2
Mn0 S3 2.535229 1_445
Mn0 S1 2.535229 1_554
Mn0 S2 2.646383 1_444
Mn0 S0 2.646383 1_455
Mn0 S2 2.646383 1_544
Mn0 S0 2.646383 1_555
Mn1 S1 2.625279 1_555
Mn1 S3 2.625279 1_445
S0 Sb0 2.512257 1_554
S0 Sb1 3.021974 1_655
S0 Sb1 3.021974 1_555
S1 Sb0 2.631071 1_455
S1 Sb0 2.631071 1_555
S2 Sb1 2.512257 1_556
S2 Sb0 3.021974 1_455
S2 Sb0 3.021974 1_555
S3 Sb1 2.631071 1_655
S3 Sb1 2.631071 1_555
Br0 Mn1 2.660573 1_565
Br0 Mn1 2.660573 1_665
Br1 Mn1 2.660573 1_655
Br1 Mn1 2.660573 1_555
