# generated using pymatgen
data_Gd3CuSnSe7
_symmetry_space_group_name_H-M   'P 1'
_cell_length_a   10.36984594
_cell_length_b   10.36984594
_cell_length_c   6.45313200
_cell_angle_alpha   90.00000000
_cell_angle_beta   90.00000000
_cell_angle_gamma   119.99999962
_symmetry_Int_Tables_number   1
_chemical_formula_structural   Gd3CuSnSe7
_chemical_formula_sum   'Gd6 Cu2 Sn2 Se14'
_cell_volume   600.96031071
_cell_formula_units_Z   2
loop_
 _symmetry_equiv_pos_site_id
 _symmetry_equiv_pos_as_xyz
  1  'x, y, z'
loop_
 _atom_site_type_symbol
 _atom_site_label
 _atom_site_symmetry_multiplicity
 _atom_site_fract_x
 _atom_site_fract_y
 _atom_site_fract_z
 _atom_site_occupancy
  Gd  Gd0  1  0.20877200  0.35716400  0.91504100  1
  Gd  Gd1  1  0.79122800  0.64283600  0.41504100  1
  Gd  Gd2  1  0.85160800  0.20877200  0.41504100  1
  Gd  Gd3  1  0.64283600  0.85160800  0.91504100  1
  Gd  Gd4  1  0.14839200  0.79122800  0.91504100  1
  Gd  Gd5  1  0.35716400  0.14839200  0.41504100  1
  Cu  Cu0  1  0.00000000  0.00000000  0.50005000  1
  Cu  Cu1  1  0.00000000  0.00000000  0.00005000  1
  Sn  Sn0  1  0.33333300  0.66666700  0.34209700  1
  Sn  Sn1  1  0.66666700  0.33333300  0.84209700  1
  Se  Se0  1  0.85063200  0.73791600  0.97578200  1
  Se  Se1  1  0.88728400  0.14936800  0.97578200  1
  Se  Se2  1  0.73791600  0.88728400  0.47578200  1
  Se  Se3  1  0.43819700  0.92075500  0.16333600  1
  Se  Se4  1  0.51744200  0.43819700  0.66333600  1
  Se  Se5  1  0.11271600  0.85063200  0.47578200  1
  Se  Se6  1  0.48255800  0.56180300  0.16333600  1
  Se  Se7  1  0.14936800  0.26208400  0.47578200  1
  Se  Se8  1  0.56180300  0.07924500  0.66333600  1
  Se  Se9  1  0.66666700  0.33333300  0.23667600  1
  Se  Se10  1  0.33333300  0.66666700  0.73667600  1
  Se  Se11  1  0.07924500  0.51744200  0.16333600  1
  Se  Se12  1  0.26208400  0.11271600  0.97578200  1
  Se  Se13  1  0.92075500  0.48255800  0.66333600  1
loop_
_geom_bond_atom_site_label_1
_geom_bond_atom_site_label_2
_geom_bond_distance
_geom_bond_site_symmetry_2
Gd0 Se12 2.878595 1_555
Gd0 Se1 2.954197 1_455
Gd0 Se7 2.962966 1_555
Gd0 Se6 3.017661 1_556
Gd0 Se10 3.024649 1_555
Gd0 Se11 3.060440 1_556
Gd0 Se4 3.301550 1_555
Gd0 Se7 3.719950 1_556
Gd1 Se2 2.878595 1_555
Gd1 Se5 2.954197 1_655
Gd1 Se0 2.962966 1_554
Gd1 Se4 3.017661 1_555
Gd1 Se9 3.024649 1_555
Gd1 Se13 3.060440 1_555
Gd1 Se6 3.301550 1_555
Gd1 Se0 3.719950 1_555
Gd2 Se7 2.878595 1_655
Gd2 Se2 2.954197 1_545
Gd2 Se1 2.962966 1_554
Gd2 Se13 3.017661 1_555
Gd2 Se9 3.024641 1_555
Gd2 Se8 3.060440 1_555
Gd2 Se11 3.301550 1_655
Gd2 Se1 3.719950 1_555
Gd3 Se1 2.878595 1_565
Gd3 Se0 2.954197 1_555
Gd3 Se2 2.962966 1_555
Gd3 Se3 3.017661 1_556
Gd3 Se10 3.024648 1_555
Gd3 Se6 3.060440 1_556
Gd3 Se8 3.301550 1_565
Gd3 Se2 3.719950 1_556
Gd4 Se0 2.878595 1_455
Gd4 Se12 2.954197 1_565
Gd4 Se5 2.962966 1_555
Gd4 Se11 3.017661 1_556
Gd4 Se10 3.024641 1_555
Gd4 Se3 3.060440 1_556
Gd4 Se13 3.301550 1_455
Gd4 Se5 3.719950 1_556
Gd5 Se5 2.878595 1_545
Gd5 Se7 2.954197 1_555
Gd5 Se12 2.962966 1_554
Gd5 Se8 3.017661 1_555
Gd5 Se9 3.024648 1_555
Gd5 Se4 3.060440 1_555
Gd5 Se3 3.301550 1_545
Gd5 Se12 3.719950 1_555
Cu0 Se5 2.366505 1_545
Cu0 Se2 2.366505 1_445
Cu0 Se7 2.366505 1_555
Cu0 Gd2 3.269126 1_455
Cu0 Gd5 3.269126 1_555
Cu0 Gd1 3.269126 1_445
Cu1 Se1 2.366505 1_454
Cu1 Se12 2.366505 1_554
Cu1 Se0 2.366505 1_444
Cu1 Gd4 3.269126 1_544
Cu1 Gd3 3.269126 1_444
Cu1 Gd0 3.269126 1_554
Se3 Sn0 2.567189 1_555
Se4 Sn1 2.567198 1_555
Se6 Sn0 2.567198 1_555
Se8 Sn1 2.567189 1_555
Se9 Sn1 2.546270 1_554
Se10 Sn0 2.546270 1_555
Se11 Sn0 2.567190 1_555
Se13 Sn1 2.567190 1_555
