# generated using pymatgen
data_Be12Nb
_symmetry_space_group_name_H-M   'P 1'
_cell_length_a   4.20062428
_cell_length_b   5.59986348
_cell_length_c   5.59986929
_cell_angle_alpha   81.88353736
_cell_angle_beta   67.94140990
_cell_angle_gamma   67.94147419
_symmetry_Int_Tables_number   1
_chemical_formula_structural   Be12Nb
_chemical_formula_sum   'Be12 Nb1'
_cell_volume   113.14664784
_cell_formula_units_Z   1
loop_
 _symmetry_equiv_pos_site_id
 _symmetry_equiv_pos_as_xyz
  1  'x, y, z'
loop_
 _atom_site_type_symbol
 _atom_site_label
 _atom_site_symmetry_multiplicity
 _atom_site_fract_x
 _atom_site_fract_y
 _atom_site_fract_z
 _atom_site_occupancy
  Be  Be0  1  0.50000000  0.78228419  0.21771581  1
  Be  Be1  1  0.35145353  0.64787247  0.64787247  1
  Be  Be2  1  -0.00000000  0.35259356  0.64740644  1
  Be  Be3  1  0.00000000  0.64740644  0.35259356  1
  Be  Be4  1  0.71783151  0.78276074  0.78276074  1
  Be  Be5  1  0.50000000  -0.00000000  0.50000000  1
  Be  Be6  1  0.50000000  0.21771581  0.78228419  1
  Be  Be7  1  0.64854647  0.35212753  0.35212753  1
  Be  Be8  1  0.28216849  0.21723926  0.21723926  1
  Be  Be9  1  0.50000000  0.50000000  -0.00000000  1
  Be  Be10  1  0.00000000  0.50000000  -0.00000000  1
  Be  Be11  1  0.00000000  -0.00000000  0.50000000  1
  Nb  Nb0  1  0.00000000  -0.00000000  -0.00000000  1
loop_
_geom_bond_atom_site_label_1
_geom_bond_atom_site_label_2
_geom_bond_distance
_geom_bond_site_symmetry_2
Be0 Be11 2.126880 1_565
Be0 Be10 2.126880 1_655
Be0 Be9 2.128232 1_555
Be0 Be5 2.128233 1_565
Be0 Be8 2.257400 1_565
Be0 Be4 2.257401 1_554
Be0 Be3 2.321889 1_555
Be0 Be3 2.321891 1_655
Be0 Be7 2.338834 1_555
Be0 Be1 2.338835 1_555
Be0 Nb0 2.639012 1_665
Be0 Nb0 2.639015 1_565
Be1 Be7 2.170869 1_555
Be1 Be10 2.241446 1_556
Be1 Be11 2.241447 1_565
Be1 Be5 2.244621 1_565
Be1 Be9 2.244623 1_556
Be1 Be4 2.316516 1_455
Be1 Be4 2.327476 1_555
Be1 Be6 2.338834 1_555
Be1 Nb0 2.584736 1_566
Be2 Be3 2.163659 1_555
Be2 Be9 2.243748 1_456
Be2 Be5 2.243748 1_555
Be2 Be6 2.321889 1_455
Be2 Be6 2.321891 1_555
Be2 Be4 2.340578 1_455
Be2 Be8 2.340579 1_555
Be2 Nb0 2.587716 1_556
Be3 Be9 2.243748 1_555
Be3 Be5 2.243748 1_465
Be3 Be8 2.340578 1_555
Be3 Be4 2.340579 1_455
Be3 Nb0 2.587716 1_565
Be4 Be9 2.129003 1_556
Be4 Be5 2.129005 1_565
Be4 Be6 2.257400 1_565
Be4 Nb0 2.636027 1_666
Be4 Nb0 2.638093 1_566
Be5 Be6 2.128233 1_555
Be5 Be8 2.129005 1_555
Be5 Be7 2.244621 1_555
Be5 Nb0 2.798905 1_655
Be5 Nb0 2.798905 1_556
Be6 Be9 2.128232 1_556
Be6 Be8 2.257401 1_556
Be6 Be7 2.338835 1_555
Be6 Nb0 2.639012 1_556
Be6 Nb0 2.639015 1_656
Be7 Be9 2.244623 1_555
Be7 Be8 2.316516 1_655
Be7 Be8 2.327476 1_555
Be7 Nb0 2.584736 1_655
Be8 Be9 2.129003 1_555
Be8 Nb0 2.636027 1_555
Be8 Nb0 2.638093 1_655
Be9 Nb0 2.798905 1_655
Be9 Nb0 2.798905 1_565
Be10 Be9 2.100312 1_555
Be10 Be9 2.100312 1_455
Be10 Be8 2.126372 1_555
Be10 Be4 2.126372 1_454
Be10 Be6 2.126880 1_554
Be10 Be7 2.241446 1_455
Be10 Be3 2.245030 1_555
Be10 Be2 2.245030 1_554
Be10 Nb0 2.799932 1_555
Be10 Nb0 2.799932 1_565
Be11 Be5 2.100312 1_555
Be11 Be5 2.100312 1_455
Be11 Be4 2.126370 1_445
Be11 Be8 2.126370 1_555
Be11 Be6 2.126880 1_455
Be11 Be7 2.241447 1_455
Be11 Be2 2.245029 1_555
Be11 Be3 2.245029 1_545
Be11 Nb0 2.799935 1_555
Be11 Nb0 2.799935 1_556
