# generated using pymatgen
data_Ca4Mn3O10
_symmetry_space_group_name_H-M   'P 1'
_cell_length_a   5.34000100
_cell_length_b   5.39131500
_cell_length_c   27.05339400
_cell_angle_alpha   90.00000000
_cell_angle_beta   90.00000000
_cell_angle_gamma   90.00000000
_symmetry_Int_Tables_number   1
_chemical_formula_structural   Ca4Mn3O10
_chemical_formula_sum   'Ca16 Mn12 O40'
_cell_volume   778.85713564
_cell_formula_units_Z   4
loop_
 _symmetry_equiv_pos_site_id
 _symmetry_equiv_pos_as_xyz
  1  'x, y, z'
loop_
 _atom_site_type_symbol
 _atom_site_label
 _atom_site_symmetry_multiplicity
 _atom_site_fract_x
 _atom_site_fract_y
 _atom_site_fract_z
 _atom_site_occupancy
  Ca  Ca0  1  0.50642700  0.95920500  0.70469200  1
  Ca  Ca1  1  0.99357300  0.04079500  0.20469200  1
  Ca  Ca2  1  0.49357300  0.45920500  0.79530800  1
  Ca  Ca3  1  0.00665800  0.45739000  0.43054100  1
  Ca  Ca4  1  0.99334200  0.54261000  0.56945900  1
  Ca  Ca5  1  0.99357300  0.45920500  0.70469200  1
  Ca  Ca6  1  0.00642700  0.54079500  0.29530800  1
  Ca  Ca7  1  0.00642700  0.95920500  0.79530800  1
  Ca  Ca8  1  0.49357300  0.04079500  0.29530800  1
  Ca  Ca9  1  0.99334200  0.95739000  0.06945900  1
  Ca  Ca10  1  0.50665800  0.45739000  0.06945900  1
  Ca  Ca11  1  0.50665800  0.04261000  0.56945900  1
  Ca  Ca12  1  0.49334200  0.95739000  0.43054100  1
  Ca  Ca13  1  0.49334200  0.54261000  0.93054100  1
  Ca  Ca14  1  0.00665800  0.04261000  0.93054100  1
  Ca  Ca15  1  0.50642700  0.54079500  0.20469200  1
  Mn  Mn0  1  0.00015900  0.50193500  0.14080600  1
  Mn  Mn1  1  0.50015900  0.99806500  0.85919400  1
  Mn  Mn2  1  0.49984100  0.00193500  0.14080600  1
  Mn  Mn3  1  0.50015900  0.50193500  0.35919400  1
  Mn  Mn4  1  0.49984100  0.49806500  0.64080600  1
  Mn  Mn5  1  0.50000000  0.00000000  0.00000000  1
  Mn  Mn6  1  0.99984100  0.00193500  0.35919400  1
  Mn  Mn7  1  0.99984100  0.49806500  0.85919400  1
  Mn  Mn8  1  0.00000000  0.50000000  0.00000000  1
  Mn  Mn9  1  0.00015900  0.99806500  0.64080600  1
  Mn  Mn10  1  0.00000000  0.00000000  0.50000000  1
  Mn  Mn11  1  0.50000000  0.50000000  0.50000000  1
  O  O0  1  0.94674700  0.00822700  0.71118900  1
  O  O1  1  0.70702800  0.79040100  0.63023200  1
  O  O2  1  0.20874200  0.79185900  0.15074300  1
  O  O3  1  0.07555800  0.98063000  0.56999900  1
  O  O4  1  0.79297200  0.29040100  0.63023200  1
  O  O5  1  0.79297200  0.20959900  0.13023200  1
  O  O6  1  0.92444200  0.01937000  0.43000100  1
  O  O7  1  0.05325300  0.99177300  0.28881100  1
  O  O8  1  0.29409600  0.29246800  0.98875300  1
  O  O9  1  0.70702800  0.70959900  0.13023200  1
  O  O10  1  0.70874200  0.70814100  0.84925700  1
  O  O11  1  0.79409600  0.20753200  0.01124700  1
  O  O12  1  0.57555800  0.51937000  0.43000100  1
  O  O13  1  0.42444200  0.01937000  0.06999900  1
  O  O14  1  0.20590400  0.70753200  0.48875300  1
  O  O15  1  0.70874200  0.79185900  0.34925700  1
  O  O16  1  0.44674700  0.49177300  0.28881100  1
  O  O17  1  0.44674700  0.00822700  0.78881100  1
  O  O18  1  0.79125800  0.20814100  0.84925700  1
  O  O19  1  0.79125800  0.29185900  0.34925700  1
  O  O20  1  0.79409600  0.29246800  0.51124700  1
  O  O21  1  0.29125800  0.29185900  0.15074300  1
  O  O22  1  0.20702800  0.70959900  0.36976800  1
  O  O23  1  0.57555800  0.98063000  0.93000100  1
  O  O24  1  0.70590400  0.79246800  0.51124700  1
  O  O25  1  0.29409600  0.20753200  0.48875300  1
  O  O26  1  0.20874200  0.70814100  0.65074300  1
  O  O27  1  0.29125800  0.20814100  0.65074300  1
  O  O28  1  0.29297200  0.20959900  0.36976800  1
  O  O29  1  0.20590400  0.79246800  0.98875300  1
  O  O30  1  0.20702800  0.79040100  0.86976800  1
  O  O31  1  0.07555800  0.51937000  0.06999900  1
  O  O32  1  0.29297200  0.29040100  0.86976800  1
  O  O33  1  0.05325300  0.50822700  0.78881100  1
  O  O34  1  0.92444200  0.48063000  0.93000100  1
  O  O35  1  0.55325300  0.99177300  0.21118900  1
  O  O36  1  0.94674700  0.49177300  0.21118900  1
  O  O37  1  0.55325300  0.50822700  0.71118900  1
  O  O38  1  0.42444200  0.48063000  0.56999900  1
  O  O39  1  0.70590400  0.70753200  0.01124700  1
loop_
_geom_bond_atom_site_label_1
_geom_bond_atom_site_label_2
_geom_bond_distance
_geom_bond_site_symmetry_2
Ca0 O27 2.291630 1_565
Ca0 O17 2.313060 1_565
Ca0 O0 2.372636 1_565
Ca0 O37 2.450500 1_555
Ca0 O1 2.456322 1_555
Ca0 O26 2.547398 1_555
Ca1 O2 2.291630 1_645
Ca1 O7 2.313060 1_645
Ca1 O35 2.372636 1_545
Ca1 O36 2.450500 1_555
Ca1 O5 2.456322 1_555
Ca1 O21 2.547398 1_655
Ca2 O10 2.291630 1_555
Ca2 O37 2.313060 1_555
Ca2 O33 2.372636 1_555
Ca2 O17 2.450500 1_555
Ca2 O32 2.456322 1_555
Ca2 O18 2.547398 1_555
Ca3 O12 2.326246 1_455
Ca3 O14 2.330417 1_555
Ca3 O22 2.386808 1_555
Ca3 O6 2.402012 1_455
Ca3 O25 2.578886 1_555
Ca3 O28 2.612544 1_555
Ca3 O20 2.616505 1_455
Ca3 O19 2.637254 1_455
Ca4 O38 2.326246 1_655
Ca4 O20 2.330417 1_555
Ca4 O4 2.386808 1_555
Ca4 O3 2.402012 1_655
Ca4 O24 2.578886 1_555
Ca4 O1 2.612544 1_555
Ca4 O14 2.616505 1_655
Ca4 O26 2.637254 1_655
Ca5 O26 2.291630 1_655
Ca5 O33 2.313060 1_655
Ca5 O37 2.372636 1_555
Ca5 O0 2.450500 1_555
Ca5 O4 2.456322 1_555
Ca5 O27 2.547398 1_655
Ca6 O19 2.291630 1_455
Ca6 O36 2.313060 1_455
Ca6 O16 2.372636 1_555
Ca6 O7 2.450500 1_555
Ca6 O22 2.456322 1_555
Ca6 O15 2.547398 1_455
Ca7 O18 2.291630 1_465
Ca7 O0 2.313060 1_465
Ca7 O17 2.372636 1_565
Ca7 O33 2.450500 1_555
Ca7 O30 2.456322 1_555
Ca7 O10 2.547398 1_455
Ca8 O15 2.291630 1_545
Ca8 O35 2.313060 1_545
Ca8 O7 2.372636 1_545
Ca8 O16 2.450500 1_555
Ca8 O28 2.456322 1_555
Ca8 O19 2.547398 1_555
Ca9 O13 2.326246 1_665
Ca9 O11 2.330417 1_565
Ca9 O5 2.386808 1_565
Ca9 O31 2.402012 1_655
Ca9 O39 2.578886 1_555
Ca9 O9 2.612544 1_555
Ca9 O29 2.616505 1_654
Ca9 O2 2.637254 1_655
Ca10 O31 2.326246 1_555
Ca10 O39 2.330417 1_555
Ca10 O9 2.386808 1_555
Ca10 O13 2.402012 1_555
Ca10 O11 2.578886 1_555
Ca10 O5 2.612544 1_555
Ca10 O8 2.616505 1_554
Ca10 O21 2.637254 1_555
Ca11 O3 2.326246 1_545
Ca11 O24 2.330417 1_545
Ca11 O1 2.386808 1_545
Ca11 O38 2.402012 1_555
Ca11 O20 2.578886 1_555
Ca11 O4 2.612544 1_555
Ca11 O25 2.616505 1_555
Ca11 O27 2.637254 1_555
Ca12 O6 2.326246 1_565
Ca12 O25 2.330417 1_565
Ca12 O28 2.386808 1_565
Ca12 O12 2.402012 1_555
Ca12 O14 2.578886 1_555
Ca12 O22 2.612544 1_555
Ca12 O24 2.616505 1_555
Ca12 O15 2.637254 1_555
Ca13 O34 2.326246 1_555
Ca13 O8 2.330417 1_555
Ca13 O32 2.386808 1_555
Ca13 O23 2.402012 1_555
Ca13 O29 2.578886 1_555
Ca13 O30 2.612544 1_555
Ca13 O39 2.616505 1_556
Ca13 O10 2.637254 1_555
Ca14 O23 2.326246 1_445
Ca14 O29 2.330417 1_545
Ca14 O30 2.386808 1_545
Ca14 O34 2.402012 1_455
Ca14 O8 2.578886 1_555
Ca14 O32 2.612544 1_555
Ca14 O11 2.616505 1_456
Ca14 O18 2.637254 1_455
Ca15 O21 2.291630 1_555
Ca15 O16 2.313060 1_555
Ca15 O36 2.372636 1_555
Ca15 O35 2.450500 1_555
Ca15 O9 2.456322 1_555
Ca15 O2 2.547398 1_555
Mn0 O36 1.926122 1_455
Mn0 O2 1.938063 1_555
Mn0 O21 1.942008 1_555
Mn0 O9 1.945642 1_455
Mn0 O5 1.946772 1_455
Mn0 O31 1.959682 1_555
Mn1 O17 1.926122 1_565
Mn1 O10 1.938063 1_555
Mn1 O18 1.942008 1_565
Mn1 O30 1.945642 1_555
Mn1 O32 1.946772 1_565
Mn1 O23 1.959682 1_555
Mn2 O35 1.926122 1_545
Mn2 O21 1.938063 1_555
Mn2 O2 1.942008 1_545
Mn2 O5 1.945642 1_555
Mn2 O9 1.946772 1_545
Mn2 O13 1.959682 1_555
Mn3 O16 1.926122 1_555
Mn3 O15 1.938063 1_555
Mn3 O19 1.942008 1_555
Mn3 O22 1.945642 1_555
Mn3 O28 1.946772 1_555
Mn3 O12 1.959682 1_555
Mn4 O37 1.926122 1_555
Mn4 O27 1.938063 1_555
Mn4 O26 1.942008 1_555
Mn4 O4 1.945642 1_555
Mn4 O1 1.946772 1_555
Mn4 O38 1.959682 1_555
Mn5 O13 1.939031 1_555
Mn5 O23 1.939031 1_544
Mn5 O39 1.946227 1_545
Mn5 O8 1.946227 1_554
Mn5 O29 1.952136 1_544
Mn5 O11 1.952136 1_555
Mn6 O7 1.926122 1_645
Mn6 O19 1.938063 1_555
Mn6 O15 1.942008 1_545
Mn6 O28 1.945642 1_655
Mn6 O22 1.946772 1_645
Mn6 O6 1.959682 1_555
Mn7 O33 1.926122 1_655
Mn7 O18 1.938063 1_555
Mn7 O10 1.942008 1_555
Mn7 O32 1.945642 1_655
Mn7 O30 1.946772 1_655
Mn7 O34 1.959682 1_555
Mn8 O31 1.939031 1_555
Mn8 O34 1.939031 1_454
Mn8 O29 1.946227 1_554
Mn8 O11 1.946227 1_455
Mn8 O39 1.952136 1_455
Mn8 O8 1.952136 1_554
Mn9 O0 1.926122 1_465
Mn9 O26 1.938063 1_555
Mn9 O27 1.942008 1_565
Mn9 O1 1.945642 1_455
Mn9 O4 1.946772 1_465
Mn9 O3 1.959682 1_555
Mn10 O6 1.939031 1_455
Mn10 O3 1.939031 1_545
Mn10 O14 1.946227 1_545
Mn10 O20 1.946227 1_455
Mn10 O25 1.952136 1_555
Mn10 O24 1.952136 1_445
Mn11 O12 1.939031 1_555
Mn11 O38 1.939031 1_555
Mn11 O24 1.946227 1_555
Mn11 O25 1.946227 1_555
Mn11 O14 1.952136 1_555
Mn11 O20 1.952136 1_555
