# generated using pymatgen
data_Rb2Mo2H4C4O15
_symmetry_space_group_name_H-M   'P 1'
_cell_length_a   14.53349100
_cell_length_b   7.03023000
_cell_length_c   7.80941382
_cell_angle_alpha   85.52231016
_cell_angle_beta   90.00000000
_cell_angle_gamma   90.00000000
_symmetry_Int_Tables_number   1
_chemical_formula_structural   Rb2Mo2H4C4O15
_chemical_formula_sum   'Rb4 Mo4 H8 C8 O30'
_cell_volume   795.48196826
_cell_formula_units_Z   2
loop_
 _symmetry_equiv_pos_site_id
 _symmetry_equiv_pos_as_xyz
  1  'x, y, z'
loop_
 _atom_site_type_symbol
 _atom_site_label
 _atom_site_symmetry_multiplicity
 _atom_site_fract_x
 _atom_site_fract_y
 _atom_site_fract_z
 _atom_site_occupancy
  Rb  Rb0  1  0.63719600  0.12715800  0.19158700  1
  Rb  Rb1  1  0.13719600  0.37284200  0.80841300  1
  Rb  Rb2  1  0.36280400  0.87284200  0.80841300  1
  Rb  Rb3  1  0.86280400  0.62715800  0.19158700  1
  Mo  Mo0  1  0.39307000  0.38389400  0.10554100  1
  Mo  Mo1  1  0.89307000  0.11610600  0.89445900  1
  Mo  Mo2  1  0.10693000  0.88389400  0.10554100  1
  Mo  Mo3  1  0.60693000  0.61610600  0.89445900  1
  H  H0  1  0.43547500  0.72578000  0.28965900  1
  H  H1  1  0.17506800  0.22640100  0.26031200  1
  H  H2  1  0.82493200  0.77359900  0.73968800  1
  H  H3  1  0.32493200  0.72640100  0.26031200  1
  H  H4  1  0.67506900  0.27359900  0.73968800  1
  H  H5  1  0.06452500  0.22578000  0.28965900  1
  H  H6  1  0.56452500  0.27422000  0.71034100  1
  H  H7  1  0.93547500  0.77422000  0.71034100  1
  C  C0  1  0.07001400  0.76016400  0.47968100  1
  C  C1  1  0.17621200  0.74801300  0.45687600  1
  C  C2  1  0.57001400  0.73983600  0.52031900  1
  C  C3  1  0.32378800  0.24801300  0.45687600  1
  C  C4  1  0.67621200  0.75198700  0.54312400  1
  C  C5  1  0.92998600  0.23983600  0.52031900  1
  C  C6  1  0.82378800  0.25198700  0.54312400  1
  C  C7  1  0.42998600  0.26016400  0.47968100  1
  O  O0  1  0.30474000  0.46909600  0.96982300  1
  O  O1  1  0.08978600  0.65045500  0.05651600  1
  O  O2  1  0.72727900  0.81468100  0.42631800  1
  O  O3  1  0.58978600  0.84954500  0.94348400  1
  O  O4  1  0.46556400  0.20002800  0.61828700  1
  O  O5  1  0.27272100  0.18531900  0.57368200  1
  O  O6  1  0.88417600  0.82054900  0.78179800  1
  O  O7  1  0.91021400  0.34954500  0.94348400  1
  O  O8  1  0.22727900  0.68531900  0.57368200  1
  O  O9  1  0.41021400  0.15045500  0.05651600  1
  O  O10  1  0.97255400  0.16703200  0.65500100  1
  O  O11  1  0.70447400  0.69085800  0.69766300  1
  O  O12  1  0.20447400  0.80914200  0.30233700  1
  O  O13  1  0.80474000  0.03090400  0.03017700  1
  O  O14  1  0.96556400  0.29997200  0.38171300  1
  O  O15  1  0.02744600  0.83296800  0.34499900  1
  O  O16  1  0.03443600  0.70002800  0.61828700  1
  O  O17  1  0.52744600  0.66703200  0.65500100  1
  O  O18  1  0.11582400  0.17945100  0.21820200  1
  O  O19  1  0.79552600  0.19085800  0.69766300  1
  O  O20  1  0.00000000  0.00000000  0.00000000  1
  O  O21  1  0.61582400  0.32054900  0.78179800  1
  O  O22  1  0.77272100  0.31468100  0.42631800  1
  O  O23  1  0.47255400  0.33296800  0.34499900  1
  O  O24  1  0.53443600  0.79997200  0.38171300  1
  O  O25  1  0.19526000  0.96909600  0.96982300  1
  O  O26  1  0.29552600  0.30914200  0.30233700  1
  O  O27  1  0.38417600  0.67945100  0.21820200  1
  O  O28  1  0.69526000  0.53090400  0.03017700  1
  O  O29  1  0.50000000  0.50000000  0.00000000  1
loop_
_geom_bond_atom_site_label_1
_geom_bond_atom_site_label_2
_geom_bond_distance
_geom_bond_site_symmetry_2
Mo0 O9 1.732072 1_555
Mo0 O0 1.740977 1_554
Mo0 O29 1.911981 1_555
Mo0 O26 2.126442 1_555
Mo0 O23 2.203425 1_555
Mo0 O27 2.322417 1_555
Mo1 O7 1.732072 1_555
Mo1 O13 1.740977 1_556
Mo1 O20 1.911981 1_656
Mo1 O19 2.126442 1_555
Mo1 O10 2.203425 1_555
Mo1 O6 2.322417 1_545
Mo2 O1 1.732072 1_555
Mo2 O25 1.740977 1_554
Mo2 O20 1.911981 1_565
Mo2 O12 2.126442 1_555
Mo2 O15 2.203425 1_555
Mo2 O18 2.322417 1_565
Mo3 O3 1.732072 1_555
Mo3 O28 1.740977 1_556
Mo3 O29 1.911981 1_556
Mo3 O11 2.126442 1_555
Mo3 O17 2.203425 1_555
Mo3 O21 2.322417 1_555
H0 O27 1.000859 1_555
H1 O18 0.987623 1_555
H2 O6 0.987623 1_555
H3 O27 0.987623 1_555
H4 O21 0.987635 1_555
H5 O18 1.000859 1_555
H6 O21 1.000859 1_555
H7 O6 1.000859 1_555
C0 O16 1.243504 1_555
C0 O15 1.291089 1_555
C1 O8 1.230611 1_555
C1 O12 1.314885 1_555
C2 O24 1.243504 1_555
C2 O17 1.291089 1_555
C3 O5 1.230611 1_555
C3 O26 1.314885 1_555
C4 O2 1.230611 1_555
C4 O11 1.314885 1_555
C5 O14 1.243504 1_555
C5 O10 1.291089 1_555
C6 O22 1.230611 1_555
C6 O19 1.314885 1_555
C7 O4 1.243504 1_555
C7 O23 1.291089 1_555
O0 Rb1 2.847669 1_555
O0 Rb2 3.130341 1_555
O1 Rb1 2.937403 1_554
O2 Rb0 3.044905 1_565
O2 Rb3 3.058620 1_555
O3 Rb0 2.937403 1_566
O4 Rb2 3.031930 1_545
O5 Rb2 3.044905 1_545
O5 Rb1 3.058620 1_555
O7 Rb3 2.937403 1_556
O8 Rb1 3.044905 1_555
O8 Rb2 3.058620 1_555
O9 Rb2 2.937403 1_544
O10 Rb1 3.086277 1_655
O13 Rb0 2.847669 1_555
O13 Rb3 3.130341 1_545
O14 Rb3 3.031930 1_555
O15 Rb3 3.086277 1_455
O16 Rb1 3.031930 1_555
O17 Rb2 3.086277 1_555
O22 Rb3 3.044905 1_555
O22 Rb0 3.058620 1_555
O23 Rb0 3.086277 1_555
O24 Rb0 3.031930 1_565
O25 Rb2 2.847669 1_555
O25 Rb1 3.130341 1_565
O28 Rb3 2.847669 1_555
O28 Rb0 3.130341 1_555
