# generated using pymatgen
data_Ta4Co2PdSe12
_symmetry_space_group_name_H-M   'P 1'
_cell_length_a   7.21617377
_cell_length_b   7.21617377
_cell_length_c   19.48687716
_cell_angle_alpha   70.45167938
_cell_angle_beta   70.45167938
_cell_angle_gamma   27.58280016
_symmetry_Int_Tables_number   1
_chemical_formula_structural   Ta4Co2PdSe12
_chemical_formula_sum   'Ta4 Co2 Pd1 Se12'
_cell_volume   441.08896989
_cell_formula_units_Z   1
loop_
 _symmetry_equiv_pos_site_id
 _symmetry_equiv_pos_as_xyz
  1  'x, y, z'
loop_
 _atom_site_type_symbol
 _atom_site_label
 _atom_site_symmetry_multiplicity
 _atom_site_fract_x
 _atom_site_fract_y
 _atom_site_fract_z
 _atom_site_occupancy
  Ta  Ta0  1  0.62412400  0.62412400  0.84912400  1
  Ta  Ta1  1  0.37587600  0.37587600  0.15087600  1
  Ta  Ta2  1  0.74623100  0.74623100  0.59394000  1
  Ta  Ta3  1  0.25376900  0.25376900  0.40606000  1
  Co  Co0  1  0.22940200  0.22940200  0.71577500  1
  Co  Co1  1  0.77059800  0.77059800  0.28422500  1
  Pd  Pd0  1  0.00000000  0.00000000  0.00000000  1
  Se  Se0  1  0.97438700  0.97438700  0.88058300  1
  Se  Se1  1  0.02561300  0.02561300  0.11941700  1
  Se  Se2  1  0.62538400  0.62538400  0.39426300  1
  Se  Se3  1  0.37461600  0.37461600  0.60573700  1
  Se  Se4  1  0.13726300  0.13726300  0.55036300  1
  Se  Se5  1  0.86273700  0.86273700  0.44963700  1
  Se  Se6  1  0.80683300  0.80683300  0.76387600  1
  Se  Se7  1  0.19316700  0.19316700  0.23612400  1
  Se  Se8  1  0.18473600  0.18473600  0.92639200  1
  Se  Se9  1  0.81526400  0.81526400  0.07360800  1
  Se  Se10  1  0.60607200  0.60607200  0.71887800  1
  Se  Se11  1  0.39392800  0.39392800  0.28112200  1
loop_
_geom_bond_atom_site_label_1
_geom_bond_atom_site_label_2
_geom_bond_distance
_geom_bond_site_symmetry_2
Co0 Se6 2.390961 1_455
Co0 Se6 2.390961 1_545
Co0 Se3 2.394433 1_555
Co0 Se10 2.424671 1_455
Co0 Se10 2.424671 1_545
Co1 Se7 2.390961 1_565
Co1 Se7 2.390961 1_655
Co1 Se2 2.394433 1_555
Co1 Se11 2.424671 1_565
Co1 Se11 2.424671 1_655
Pd0 Se0 2.473816 1_444
Pd0 Se1 2.473816 1_555
Pd0 Se8 2.490529 1_554
Pd0 Se9 2.490529 1_445
Se0 Ta0 2.617874 1_655
Se0 Ta0 2.617874 1_565
Se1 Ta1 2.617874 1_455
Se1 Ta1 2.617874 1_545
Se2 Ta3 2.556417 1_565
Se2 Ta3 2.556417 1_655
Se3 Ta2 2.556417 1_545
Se3 Ta2 2.556417 1_455
Se4 Ta2 2.628075 1_455
Se4 Ta2 2.628075 1_545
Se4 Ta3 2.722107 1_555
Se5 Ta3 2.628075 1_565
Se5 Ta3 2.628075 1_655
Se5 Ta2 2.722107 1_555
Se6 Ta0 2.527132 1_555
Se7 Ta1 2.527132 1_555
Se8 Ta0 2.613351 1_455
Se8 Ta0 2.613351 1_545
Se9 Ta1 2.613351 1_655
Se9 Ta1 2.613351 1_565
Se10 Ta2 2.547758 1_555
Se10 Ta0 2.635986 1_555
Se11 Ta3 2.547758 1_555
Se11 Ta1 2.635986 1_555
