# generated using pymatgen
data_Mg2SiO4
_symmetry_space_group_name_H-M   'P 1'
_cell_length_a   5.76531029
_cell_length_b   5.76531029
_cell_length_c   5.76531029
_cell_angle_alpha   60.00000000
_cell_angle_beta   60.00000000
_cell_angle_gamma   60.00000000
_symmetry_Int_Tables_number   1
_chemical_formula_structural   Mg2SiO4
_chemical_formula_sum   'Mg4 Si2 O8'
_cell_volume   135.50429463
_cell_formula_units_Z   2
loop_
 _symmetry_equiv_pos_site_id
 _symmetry_equiv_pos_as_xyz
  1  'x, y, z'
loop_
 _atom_site_type_symbol
 _atom_site_label
 _atom_site_symmetry_multiplicity
 _atom_site_fract_x
 _atom_site_fract_y
 _atom_site_fract_z
 _atom_site_occupancy
  Mg  Mg0  1  0.62500000  0.62500000  0.12500000  1
  Mg  Mg1  1  0.62500000  0.12500000  0.62500000  1
  Mg  Mg2  1  0.12500000  0.62500000  0.62500000  1
  Mg  Mg3  1  0.62500000  0.62500000  0.62500000  1
  Si  Si0  1  0.25000000  0.25000000  0.25000000  1
  Si  Si1  1  0.00000000  0.00000000  0.00000000  1
  O  O0  1  0.88093500  0.88093500  0.35719400  1
  O  O1  1  0.88093500  0.35719400  0.88093500  1
  O  O2  1  0.35719400  0.88093500  0.88093500  1
  O  O3  1  0.88093500  0.88093500  0.88093500  1
  O  O4  1  0.36906500  0.36906500  0.89280600  1
  O  O5  1  0.36906500  0.89280600  0.36906500  1
  O  O6  1  0.89280600  0.36906500  0.36906500  1
  O  O7  1  0.36906500  0.36906500  0.36906500  1
loop_
_geom_bond_atom_site_label_1
_geom_bond_atom_site_label_2
_geom_bond_distance
_geom_bond_site_symmetry_2
Mg0 O3 2.087857 1_554
Mg0 O7 2.087857 1_555
Mg0 O6 2.087861 1_555
Mg0 O5 2.087861 1_555
Mg0 O1 2.087861 1_554
Mg0 O2 2.087861 1_554
Mg1 O3 2.087857 1_545
Mg1 O7 2.087857 1_555
Mg1 O6 2.087861 1_555
Mg1 O4 2.087861 1_555
Mg1 O2 2.087861 1_545
Mg1 O0 2.087861 1_545
Mg2 O3 2.087857 1_455
Mg2 O7 2.087857 1_555
Mg2 O4 2.087861 1_555
Mg2 O5 2.087861 1_555
Mg2 O1 2.087861 1_455
Mg2 O0 2.087861 1_455
Mg3 O1 2.087857 1_555
Mg3 O0 2.087857 1_555
Mg3 O2 2.087857 1_555
Mg3 O4 2.087857 1_555
Mg3 O5 2.087857 1_555
Mg3 O6 2.087857 1_555
O0 Si1 1.681439 1_665
O1 Si1 1.681439 1_656
O2 Si1 1.681439 1_566
O3 Si1 1.681444 1_666
O4 Si0 1.681439 1_556
O5 Si0 1.681439 1_565
O6 Si0 1.681439 1_655
O7 Si0 1.681444 1_555
