# generated using pymatgen
data_Na2NbAsO6
_symmetry_space_group_name_H-M   'P 1'
_cell_length_a   9.23160289
_cell_length_b   9.23160289
_cell_length_c   7.42882584
_cell_angle_alpha   75.27834058
_cell_angle_beta   75.27834058
_cell_angle_gamma   73.03482880
_symmetry_Int_Tables_number   1
_chemical_formula_structural   Na2NbAsO6
_chemical_formula_sum   'Na8 Nb4 As4 O24'
_cell_volume   574.48223933
_cell_formula_units_Z   4
loop_
 _symmetry_equiv_pos_site_id
 _symmetry_equiv_pos_as_xyz
  1  'x, y, z'
loop_
 _atom_site_type_symbol
 _atom_site_label
 _atom_site_symmetry_multiplicity
 _atom_site_fract_x
 _atom_site_fract_y
 _atom_site_fract_z
 _atom_site_occupancy
  Na  Na0  1  0.35173600  0.92957700  0.94042800  1
  Na  Na1  1  0.92957700  0.35173600  0.44042800  1
  Na  Na2  1  0.64826400  0.07042300  0.05957200  1
  Na  Na3  1  0.00511500  0.99488500  0.75000000  1
  Na  Na4  1  0.07042300  0.64826400  0.55957200  1
  Na  Na5  1  0.54635000  0.45365000  0.25000000  1
  Na  Na6  1  0.99488500  0.00511500  0.25000000  1
  Na  Na7  1  0.45365000  0.54635000  0.75000000  1
  Nb  Nb0  1  0.70825700  0.71322800  0.38387200  1
  Nb  Nb1  1  0.71322800  0.70825700  0.88387200  1
  Nb  Nb2  1  0.28677200  0.29174300  0.11612800  1
  Nb  Nb3  1  0.29174300  0.28677200  0.61612800  1
  As  As0  1  0.05901300  0.68394600  0.04671100  1
  As  As1  1  0.68394600  0.05901300  0.54671100  1
  As  As2  1  0.31605400  0.94098700  0.45328900  1
  As  As3  1  0.94098700  0.31605400  0.95328900  1
  O  O0  1  0.51971800  0.68036800  0.93810400  1
  O  O1  1  0.48028200  0.31963200  0.06189600  1
  O  O2  1  0.52328300  0.20889800  0.50396200  1
  O  O3  1  0.12672900  0.83952700  0.02804100  1
  O  O4  1  0.21050200  0.31340300  0.37540300  1
  O  O5  1  0.78949800  0.68659700  0.62459700  1
  O  O6  1  0.95305700  0.64023500  0.27569200  1
  O  O7  1  0.83952700  0.12672900  0.52804100  1
  O  O8  1  0.68659700  0.78949800  0.12459700  1
  O  O9  1  0.31340300  0.21050200  0.87540300  1
  O  O10  1  0.35976500  0.04694300  0.22430800  1
  O  O11  1  0.31963200  0.48028200  0.56189600  1
  O  O12  1  0.79110200  0.47671700  0.99603800  1
  O  O13  1  0.95599100  0.72316500  0.86865600  1
  O  O14  1  0.72316500  0.95599100  0.36865600  1
  O  O15  1  0.87327100  0.16047300  0.97195900  1
  O  O16  1  0.20889800  0.52328300  0.00396200  1
  O  O17  1  0.04400900  0.27683500  0.13134400  1
  O  O18  1  0.16047300  0.87327100  0.47195900  1
  O  O19  1  0.68036800  0.51971800  0.43810400  1
  O  O20  1  0.04694300  0.35976500  0.72430800  1
  O  O21  1  0.27683500  0.04400900  0.63134400  1
  O  O22  1  0.47671700  0.79110200  0.49603800  1
  O  O23  1  0.64023500  0.95305700  0.77569200  1
loop_
_geom_bond_atom_site_label_1
_geom_bond_atom_site_label_2
_geom_bond_distance
_geom_bond_site_symmetry_2
Na0 O3 2.339858 1_556
Na0 O0 2.371167 1_555
Na0 O9 2.449251 1_565
Na0 O21 2.452374 1_565
Na0 O10 2.629539 1_566
Na0 O23 2.680185 1_555
Na1 O7 2.339858 1_555
Na1 O19 2.371167 1_555
Na1 O4 2.449251 1_655
Na1 O17 2.452374 1_655
Na1 O20 2.629539 1_655
Na1 O6 2.680185 1_555
Na2 O15 2.339858 1_554
Na2 O1 2.371167 1_555
Na2 O8 2.449251 1_545
Na2 O14 2.452374 1_545
Na2 O23 2.629539 1_544
Na2 O10 2.680185 1_555
Na3 O7 2.390039 1_465
Na3 O15 2.390039 1_465
Na3 O18 2.513375 1_555
Na3 O3 2.513375 1_556
Na3 O21 2.571318 1_565
Na3 O13 2.571318 1_455
Na4 O18 2.339858 1_555
Na4 O11 2.371167 1_555
Na4 O5 2.449251 1_455
Na4 O13 2.452374 1_455
Na4 O6 2.629539 1_455
Na4 O20 2.680185 1_555
Na5 O19 2.368034 1_555
Na5 O1 2.368034 1_555
Na5 O12 2.572924 1_554
Na5 O2 2.572924 1_555
Na5 O0 2.708148 1_554
Na5 O11 2.708148 1_555
Na6 O3 2.390039 1_645
Na6 O18 2.390039 1_645
Na6 O15 2.513375 1_554
Na6 O7 2.513375 1_555
Na6 O17 2.571318 1_655
Na6 O14 2.571318 1_545
Na7 O11 2.368034 1_555
Na7 O0 2.368034 1_555
Na7 O22 2.572924 1_555
Na7 O16 2.572924 1_556
Na7 O1 2.708148 1_556
Na7 O19 2.708148 1_555
Nb0 O19 1.808244 1_555
Nb0 O8 1.915710 1_555
Nb0 O5 2.042439 1_555
Nb0 O22 2.069410 1_555
Nb0 O6 2.161142 1_555
Nb0 O14 2.257774 1_555
Nb1 O0 1.808244 1_555
Nb1 O5 1.915710 1_555
Nb1 O8 2.042439 1_556
Nb1 O12 2.069410 1_555
Nb1 O23 2.161142 1_555
Nb1 O13 2.257774 1_555
Nb2 O1 1.808244 1_555
Nb2 O4 1.915710 1_555
Nb2 O9 2.042439 1_554
Nb2 O16 2.069410 1_555
Nb2 O10 2.161142 1_555
Nb2 O17 2.257774 1_555
Nb3 O11 1.808244 1_555
Nb3 O9 1.915710 1_555
Nb3 O4 2.042439 1_555
Nb3 O2 2.069410 1_555
Nb3 O20 2.161142 1_555
Nb3 O21 2.257774 1_555
As0 O3 1.688646 1_555
As0 O13 1.726344 1_454
As0 O16 1.741737 1_555
As0 O6 1.746141 1_455
As1 O7 1.688646 1_555
As1 O14 1.726344 1_545
As1 O2 1.741737 1_555
As1 O23 1.746141 1_545
As2 O18 1.688646 1_555
As2 O21 1.726344 1_565
As2 O22 1.741737 1_555
As2 O10 1.746141 1_565
As3 O15 1.688646 1_555
As3 O17 1.726344 1_656
As3 O12 1.741737 1_555
As3 O20 1.746141 1_655
