# generated using pymatgen
data_KTeOF3
_symmetry_space_group_name_H-M   'P 1'
_cell_length_a   10.31308400
_cell_length_b   10.31308400
_cell_length_c   8.04286500
_cell_angle_alpha   90.00000000
_cell_angle_beta   90.00000000
_cell_angle_gamma   90.00000000
_symmetry_Int_Tables_number   1
_chemical_formula_structural   KTeOF3
_chemical_formula_sum   'K8 Te8 O8 F24'
_cell_volume   855.43672134
_cell_formula_units_Z   8
loop_
 _symmetry_equiv_pos_site_id
 _symmetry_equiv_pos_as_xyz
  1  'x, y, z'
loop_
 _atom_site_type_symbol
 _atom_site_label
 _atom_site_symmetry_multiplicity
 _atom_site_fract_x
 _atom_site_fract_y
 _atom_site_fract_z
 _atom_site_occupancy
  K  K0  1  0.50000000  0.50000000  0.50000000  1
  K  K1  1  0.00000000  0.00000000  0.00000000  1
  K  K2  1  0.50000000  0.50000000  0.00000000  1
  K  K3  1  0.00000000  0.00000000  0.50000000  1
  K  K4  1  0.75000000  0.25000000  0.25000000  1
  K  K5  1  0.25000000  0.75000000  0.25000000  1
  K  K6  1  0.25000000  0.25000000  0.75000000  1
  K  K7  1  0.75000000  0.75000000  0.75000000  1
  Te  Te0  1  0.65662900  0.86689700  0.20969500  1
  Te  Te1  1  0.13310300  0.65662900  0.79030500  1
  Te  Te2  1  0.84337100  0.63310300  0.29030500  1
  Te  Te3  1  0.36689700  0.84337100  0.70969500  1
  Te  Te4  1  0.86689700  0.34337100  0.79030500  1
  Te  Te5  1  0.63310300  0.15662900  0.70969500  1
  Te  Te6  1  0.34337100  0.13310300  0.20969500  1
  Te  Te7  1  0.15662900  0.36689700  0.29030500  1
  O  O0  1  0.25378600  0.72154200  0.59851500  1
  O  O1  1  0.24621400  0.77845800  0.90148500  1
  O  O2  1  0.27845800  0.25378600  0.40148500  1
  O  O3  1  0.77845800  0.75378600  0.09851500  1
  O  O4  1  0.75378600  0.22154200  0.90148500  1
  O  O5  1  0.22154200  0.24621400  0.09851500  1
  O  O6  1  0.74621400  0.27845800  0.59851500  1
  O  O7  1  0.72154200  0.74621400  0.40148500  1
  F  F0  1  0.51379500  0.73899600  0.14673100  1
  F  F1  1  0.99454000  0.18456000  0.76327000  1
  F  F2  1  0.98620500  0.76100400  0.35326900  1
  F  F3  1  0.18456000  0.00546000  0.23673000  1
  F  F4  1  0.76100400  0.01379500  0.64673100  1
  F  F5  1  0.48620500  0.26100400  0.14673100  1
  F  F6  1  0.31544000  0.49454000  0.26327000  1
  F  F7  1  0.50546000  0.31544000  0.73673000  1
  F  F8  1  0.06162500  0.64002700  0.02624300  1
  F  F9  1  0.00546000  0.81544000  0.76327000  1
  F  F10  1  0.93837500  0.35997300  0.02624300  1
  F  F11  1  0.64002700  0.93837500  0.97375700  1
  F  F12  1  0.56162500  0.14002700  0.47375700  1
  F  F13  1  0.14002700  0.43837500  0.52624300  1
  F  F14  1  0.85997300  0.56162500  0.52624300  1
  F  F15  1  0.23899600  0.98620500  0.64673100  1
  F  F16  1  0.43837500  0.85997300  0.47375700  1
  F  F17  1  0.35997300  0.06162500  0.97375700  1
  F  F18  1  0.68456000  0.50546000  0.26327000  1
  F  F19  1  0.26100400  0.51379500  0.85326900  1
  F  F20  1  0.73899600  0.48620500  0.85326900  1
  F  F21  1  0.01379500  0.23899600  0.35326900  1
  F  F22  1  0.81544000  0.99454000  0.23673000  1
  F  F23  1  0.49454000  0.68456000  0.73673000  1
loop_
_geom_bond_atom_site_label_1
_geom_bond_atom_site_label_2
_geom_bond_distance
_geom_bond_site_symmetry_2
K4 O6 2.818652 1_555
K4 O4 2.818652 1_554
K5 O0 2.818652 1_555
K5 O1 2.818652 1_554
K6 O5 2.818652 1_556
K6 O2 2.818652 1_555
K7 O3 2.818652 1_556
K7 O7 2.818652 1_555
O0 Te3 1.933650 1_555
O0 Te1 2.092048 1_555
O1 Te1 1.933650 1_555
O1 Te3 2.092048 1_555
O2 Te7 1.933650 1_555
O2 Te6 2.092048 1_555
O3 Te0 1.933650 1_555
O3 Te2 2.092048 1_555
O4 Te4 1.933650 1_555
O4 Te5 2.092048 1_555
O5 Te6 1.933650 1_555
O5 Te7 2.092048 1_555
O6 Te5 1.933650 1_555
O6 Te4 2.092048 1_555
O7 Te2 1.933650 1_555
O7 Te0 2.092048 1_555
F0 Te0 2.041141 1_555
F0 K2 2.736446 1_555
F0 K5 2.846766 1_555
F1 Te4 2.112501 1_555
F1 K1 2.692806 1_656
F1 K6 2.721742 1_655
F1 K3 2.847738 1_655
F2 Te2 2.041141 1_555
F2 K3 2.736446 1_665
F2 K5 2.846766 1_655
F3 Te6 2.112501 1_555
F3 K1 2.692806 1_555
F3 K5 2.721742 1_545
F3 K3 2.847738 1_555
F4 Te5 2.041141 1_555
F4 K3 2.736446 1_655
F4 K7 2.846766 1_545
F5 Te6 2.041141 1_555
F5 K2 2.736446 1_555
F5 K4 2.846766 1_555
F6 Te7 2.112501 1_555
F6 K0 2.692806 1_555
F6 K5 2.721742 1_555
F6 K2 2.847738 1_555
F7 Te5 2.112501 1_555
F7 K0 2.692806 1_555
F7 K6 2.721742 1_555
F7 K2 2.847738 1_556
F8 Te1 2.042956 1_554
F8 K5 2.880840 1_555
F9 Te1 2.112501 1_555
F9 K1 2.692806 1_566
F9 K7 2.721742 1_455
F9 K3 2.847738 1_565
F10 Te4 2.042956 1_554
F10 K4 2.880840 1_555
F11 Te0 2.042956 1_556
F11 K7 2.880840 1_555
F12 Te5 2.042956 1_555
F12 K4 2.880840 1_555
F13 Te7 2.042956 1_555
F13 K6 2.880840 1_555
F14 Te2 2.042956 1_555
F14 K7 2.880840 1_555
F15 Te3 2.041141 1_555
F15 K3 2.736446 1_565
F15 K6 2.846766 1_565
F16 Te3 2.042956 1_555
F16 K5 2.880840 1_555
F17 Te6 2.042956 1_556
F17 K6 2.880840 1_555
F18 Te2 2.112501 1_555
F18 K0 2.692806 1_555
F18 K4 2.721742 1_555
F18 K2 2.847738 1_555
F19 Te1 2.041141 1_555
F19 K2 2.736446 1_556
F19 K6 2.846766 1_555
F20 Te4 2.041141 1_555
F20 K2 2.736446 1_556
F20 K7 2.846766 1_555
F21 Te7 2.041141 1_555
F21 K3 2.736446 1_555
F21 K4 2.846766 1_455
F22 Te0 2.112501 1_555
F22 K1 2.692806 1_665
F22 K4 2.721742 1_565
F22 K3 2.847738 1_665
F23 Te3 2.112501 1_555
F23 K0 2.692806 1_555
F23 K7 2.721742 1_555
F23 K2 2.847738 1_556
