# generated using pymatgen
data_GaSe
_symmetry_space_group_name_H-M   'P 1'
_cell_length_a   3.77432439
_cell_length_b   3.77432432
_cell_length_c   33.00902874
_cell_angle_alpha   90.00000000
_cell_angle_beta   90.00000000
_cell_angle_gamma   120.00000070
_symmetry_Int_Tables_number   1
_chemical_formula_structural   GaSe
_chemical_formula_sum   'Ga8 Se8'
_cell_volume   407.23192142
_cell_formula_units_Z   8
loop_
 _symmetry_equiv_pos_site_id
 _symmetry_equiv_pos_as_xyz
  1  'x, y, z'
loop_
 _atom_site_type_symbol
 _atom_site_label
 _atom_site_symmetry_multiplicity
 _atom_site_fract_x
 _atom_site_fract_y
 _atom_site_fract_z
 _atom_site_occupancy
  Ga  Ga0  1  0.33333300  0.66666700  0.21420218  1
  Ga  Ga1  1  -0.00000000  -0.00000000  0.53766473  1
  Ga  Ga2  1  0.66666700  0.33333300  0.71420218  1
  Ga  Ga3  1  -0.00000000  0.00000000  0.03766473  1
  Ga  Ga4  1  0.33333300  0.66666700  0.28809388  1
  Ga  Ga5  1  0.66666700  0.33333300  0.78809388  1
  Ga  Ga6  1  -0.00000000  -0.00000000  0.96378597  1
  Ga  Ga7  1  -0.00000000  0.00000000  0.46378597  1
  Se  Se0  1  0.00000000  -0.00000000  0.67926924  1
  Se  Se1  1  0.66666700  0.33333300  0.92882656  1
  Se  Se2  1  0.66666700  0.33333300  0.07258666  1
  Se  Se3  1  0.00000000  -0.00000000  0.32307177  1
  Se  Se4  1  -0.00000000  0.00000000  0.17926924  1
  Se  Se5  1  0.33333300  0.66666700  0.57258666  1
  Se  Se6  1  -0.00000000  0.00000000  0.82307177  1
  Se  Se7  1  0.33333300  0.66666700  0.42882656  1
loop_
_geom_bond_atom_site_label_1
_geom_bond_atom_site_label_2
_geom_bond_distance
_geom_bond_site_symmetry_2
Ga0 Ga4 2.439093 1_555
Ga0 Se4 2.465389 1_565
Ga0 Se4 2.465392 1_555
Ga0 Se4 2.465392 1_665
Ga1 Ga7 2.438666 1_555
Ga1 Se5 2.465219 1_545
Ga1 Se5 2.465222 1_555
Ga1 Se5 2.465222 1_445
Ga2 Ga5 2.439093 1_555
Ga2 Se0 2.465389 1_655
Ga2 Se0 2.465392 1_665
Ga2 Se0 2.465392 1_555
Ga3 Ga6 2.438666 1_554
Ga3 Se2 2.465219 1_455
Ga3 Se2 2.465222 1_445
Ga3 Se2 2.465222 1_555
Ga4 Se3 2.466084 1_565
Ga4 Se3 2.466086 1_555
Ga4 Se3 2.466086 1_665
Ga5 Se6 2.466084 1_655
Ga5 Se6 2.466086 1_665
Ga5 Se6 2.466086 1_555
Ga6 Se1 2.465798 1_455
Ga6 Se1 2.465801 1_445
Ga6 Se1 2.465801 1_555
Ga7 Se7 2.465798 1_545
Ga7 Se7 2.465801 1_555
Ga7 Se7 2.465801 1_445
