# generated using pymatgen
data_ThZn4
_symmetry_space_group_name_H-M   'P 1'
_cell_length_a   4.25580821
_cell_length_b   4.25580761
_cell_length_c   5.93033247
_cell_angle_alpha   111.02755717
_cell_angle_beta   111.02756794
_cell_angle_gamma   89.99999460
_symmetry_Int_Tables_number   1
_chemical_formula_structural   ThZn4
_chemical_formula_sum   'Th1 Zn4'
_cell_volume   92.55321684
_cell_formula_units_Z   1
loop_
 _symmetry_equiv_pos_site_id
 _symmetry_equiv_pos_as_xyz
  1  'x, y, z'
loop_
 _atom_site_type_symbol
 _atom_site_label
 _atom_site_symmetry_multiplicity
 _atom_site_fract_x
 _atom_site_fract_y
 _atom_site_fract_z
 _atom_site_occupancy
  Th  Th0  1  0.00000000  -0.00000000  -0.00000000  1
  Zn  Zn0  1  0.61850527  0.61850527  0.23701054  1
  Zn  Zn1  1  0.25000000  0.75000000  0.50000000  1
  Zn  Zn2  1  0.75000000  0.25000000  0.50000000  1
  Zn  Zn3  1  0.38149473  0.38149473  0.76298946  1
loop_
_geom_bond_atom_site_label_1
_geom_bond_atom_site_label_2
_geom_bond_distance
_geom_bond_site_symmetry_2
Th0 Zn0 3.243889 1_545
Th0 Zn3 3.243889 1_454
Th0 Zn0 3.243889 1_455
Th0 Zn3 3.243889 1_544
Th0 Zn3 3.243889 1_444
Th0 Zn0 3.243889 1_555
Th0 Zn0 3.243889 1_445
Th0 Zn3 3.243889 1_554
Th0 Zn1 3.325086 1_545
Th0 Zn2 3.325086 1_454
Th0 Zn2 3.325086 1_555
Th0 Zn1 3.325086 1_444
Th0 Zn1 3.325086 1_555
Th0 Zn2 3.325086 1_444
Th0 Zn2 3.325086 1_455
Th0 Zn1 3.325086 1_544
Zn0 Zn3 2.422284 1_554
Zn0 Zn2 2.516750 1_555
Zn0 Zn2 2.516750 1_565
Zn0 Zn1 2.516751 1_655
Zn0 Zn1 2.516751 1_555
Zn1 Zn3 2.516750 1_555
Zn1 Zn3 2.516750 1_565
Zn1 Zn2 3.009310 1_555
Zn1 Zn2 3.009310 1_465
Zn1 Zn2 3.009311 1_565
Zn1 Zn2 3.009311 1_455
Zn2 Zn3 2.516751 1_655
Zn2 Zn3 2.516751 1_555
