# generated using pymatgen
data_Ba4Ca4Tl3Cu6O19
_symmetry_space_group_name_H-M   'P 1'
_cell_length_a   3.86782794
_cell_length_b   3.86782815
_cell_length_c   34.65246752
_cell_angle_alpha   93.19927217
_cell_angle_beta   93.19927190
_cell_angle_gamma   90.00000036
_symmetry_Int_Tables_number   1
_chemical_formula_structural   Ba4Ca4Tl3Cu6O19
_chemical_formula_sum   'Ba4 Ca4 Tl3 Cu6 O19'
_cell_volume   516.78700848
_cell_formula_units_Z   1
loop_
 _symmetry_equiv_pos_site_id
 _symmetry_equiv_pos_as_xyz
  1  'x, y, z'
loop_
 _atom_site_type_symbol
 _atom_site_label
 _atom_site_symmetry_multiplicity
 _atom_site_fract_x
 _atom_site_fract_y
 _atom_site_fract_z
 _atom_site_occupancy
  Ba  Ba0  1  0.46079100  0.46079100  0.92158300  1
  Ba  Ba1  1  0.53920900  0.53920900  0.07841700  1
  Ba  Ba2  1  0.30809300  0.30809300  0.61618700  1
  Ba  Ba3  1  0.69190700  0.69190700  0.38381300  1
  Ca  Ca0  1  0.64035600  0.64035600  0.28071100  1
  Ca  Ca1  1  0.59258300  0.59258300  0.18516700  1
  Ca  Ca2  1  0.40741700  0.40741700  0.81483300  1
  Ca  Ca3  1  0.35964400  0.35964400  0.71928900  1
  Tl  Tl0  1  0.76657100  0.76657100  0.53314300  1
  Tl  Tl1  1  0.00000000  0.00000000  0.00000000  1
  Tl  Tl2  1  0.23342900  0.23342900  0.46685700  1
  Cu  Cu0  1  0.83725000  0.83725000  0.67450000  1
  Cu  Cu1  1  0.06987800  0.06987800  0.13975700  1
  Cu  Cu2  1  0.16275000  0.16275000  0.32550000  1
  Cu  Cu3  1  0.93012200  0.93012200  0.86024300  1
  Cu  Cu4  1  0.88271800  0.88271800  0.76543600  1
  Cu  Cu5  1  0.11728200  0.11728200  0.23456400  1
  O  O0  1  0.07160200  0.57160200  0.14320400  1
  O  O1  1  0.92839800  0.42839800  0.85679600  1
  O  O2  1  0.57160200  0.07160200  0.14320400  1
  O  O3  1  0.79591900  0.79591900  0.59183800  1
  O  O4  1  0.61751900  0.11751900  0.23503700  1
  O  O5  1  0.83664200  0.33664300  0.67328500  1
  O  O6  1  0.26355300  0.26355300  0.52710600  1
  O  O7  1  0.96962200  0.96962200  0.93924500  1
  O  O8  1  0.16335700  0.66335800  0.32671500  1
  O  O9  1  0.88248100  0.38248100  0.76496300  1
  O  O10  1  0.20408100  0.20408100  0.40816200  1
  O  O11  1  0.33664300  0.83664200  0.67328500  1
  O  O12  1  0.11751900  0.61751900  0.23503700  1
  O  O13  1  0.66335800  0.16335700  0.32671500  1
  O  O14  1  0.42839800  0.92839800  0.85679600  1
  O  O15  1  0.03037800  0.03037800  0.06075500  1
  O  O16  1  0.50000000  0.50000000  0.00000000  1
  O  O17  1  0.73644700  0.73644700  0.47289400  1
  O  O18  1  0.38248100  0.88248100  0.76496300  1
loop_
_geom_bond_atom_site_label_1
_geom_bond_atom_site_label_2
_geom_bond_distance
_geom_bond_site_symmetry_2
Ba0 O16 2.708866 1_556
Ba0 O7 2.802195 1_445
Ba0 O7 2.802195 1_455
Ba0 O7 2.802195 1_555
Ba0 O7 2.802195 1_545
Ba0 O1 2.957833 1_455
Ba0 O14 2.957833 1_545
Ba0 O1 2.957836 1_555
Ba0 O14 2.957836 1_555
Ba1 O16 2.708866 1_555
Ba1 O15 2.802195 1_665
Ba1 O15 2.802195 1_655
Ba1 O15 2.802195 1_555
Ba1 O15 2.802195 1_565
Ba1 O0 2.957833 1_655
Ba1 O2 2.957833 1_565
Ba1 O0 2.957836 1_555
Ba1 O2 2.957836 1_555
Ba2 O5 2.762325 1_455
Ba2 O5 2.762325 1_555
Ba2 O11 2.762325 1_545
Ba2 O11 2.762326 1_555
Ba2 O3 2.861384 1_445
Ba2 O3 2.861386 1_545
Ba2 O3 2.861386 1_455
Ba2 O3 2.861389 1_555
Ba2 O6 3.077247 1_555
Ba3 O8 2.762323 1_655
Ba3 O13 2.762323 1_565
Ba3 O8 2.762328 1_555
Ba3 O13 2.762328 1_555
Ba3 O10 2.861384 1_665
Ba3 O10 2.861386 1_565
Ba3 O10 2.861386 1_655
Ba3 O10 2.861389 1_555
Ba3 O17 3.077247 1_555
Ca0 O12 2.495879 1_655
Ca0 O12 2.495879 1_555
Ca0 O4 2.495879 1_565
Ca0 O4 2.495879 1_555
Ca0 O8 2.503098 1_655
Ca0 O13 2.503098 1_565
Ca0 O8 2.503104 1_555
Ca0 O13 2.503104 1_555
Ca1 O0 2.416881 1_555
Ca1 O2 2.416881 1_555
Ca1 O0 2.416884 1_655
Ca1 O2 2.416884 1_565
Ca1 O12 2.589942 1_555
Ca1 O4 2.589942 1_555
Ca1 O12 2.589948 1_655
Ca1 O4 2.589948 1_565
Ca2 O1 2.416881 1_555
Ca2 O14 2.416881 1_555
Ca2 O1 2.416884 1_455
Ca2 O14 2.416884 1_545
Ca2 O9 2.589942 1_555
Ca2 O18 2.589942 1_555
Ca2 O9 2.589948 1_455
Ca2 O18 2.589948 1_545
Ca3 O9 2.495879 1_455
Ca3 O9 2.495879 1_555
Ca3 O18 2.495879 1_545
Ca3 O18 2.495879 1_555
Ca3 O5 2.503101 1_555
Ca3 O5 2.503101 1_455
Ca3 O11 2.503101 1_555
Ca3 O11 2.503101 1_545
Cu0 O11 1.934367 1_555
Cu0 O5 1.934368 1_555
Cu0 O11 1.934371 1_655
Cu0 O5 1.934371 1_565
Cu1 O2 1.937574 1_455
Cu1 O0 1.937574 1_545
Cu1 O2 1.937578 1_555
Cu1 O0 1.937578 1_555
Cu2 O13 1.934367 1_455
Cu2 O8 1.934368 1_545
Cu2 O13 1.934371 1_555
Cu2 O8 1.934371 1_555
Cu3 O14 1.937574 1_655
Cu3 O1 1.937574 1_565
Cu3 O14 1.937578 1_555
Cu3 O1 1.937578 1_555
Cu4 O18 1.933981 1_655
Cu4 O9 1.933981 1_565
Cu4 O18 1.933985 1_555
Cu4 O9 1.933985 1_555
Cu5 O4 1.933981 1_455
Cu5 O12 1.933981 1_545
Cu5 O4 1.933985 1_555
Cu5 O12 1.933985 1_555
O3 Tl0 2.027582 1_555
O6 Tl2 2.081264 1_555
O6 Tl0 2.742904 1_555
O6 Tl0 2.742907 1_455
O6 Tl0 2.742907 1_545
O6 Tl0 2.742910 1_445
O7 Tl1 2.098743 1_666
O10 Tl2 2.027582 1_555
O15 Tl1 2.098743 1_555
O16 Tl1 2.734967 1_555
O16 Tl1 2.734967 1_665
O16 Tl1 2.734967 1_565
O16 Tl1 2.734967 1_655
O17 Tl0 2.081264 1_555
O17 Tl2 2.742904 1_555
O17 Tl2 2.742907 1_655
O17 Tl2 2.742907 1_565
O17 Tl2 2.742910 1_665
