# generated using pymatgen
data_Er14(InPd)3
_symmetry_space_group_name_H-M   'P 1'
_cell_length_a   9.63643300
_cell_length_b   9.63643300
_cell_length_c   23.39381900
_cell_angle_alpha   90.00000000
_cell_angle_beta   90.00000000
_cell_angle_gamma   90.00000000
_symmetry_Int_Tables_number   1
_chemical_formula_structural   Er14(InPd)3
_chemical_formula_sum   'Er56 In12 Pd12'
_cell_volume   2172.36970569
_cell_formula_units_Z   4
loop_
 _symmetry_equiv_pos_site_id
 _symmetry_equiv_pos_as_xyz
  1  'x, y, z'
loop_
 _atom_site_type_symbol
 _atom_site_label
 _atom_site_symmetry_multiplicity
 _atom_site_fract_x
 _atom_site_fract_y
 _atom_site_fract_z
 _atom_site_occupancy
  Er  Er0  1  0.25000000  0.44310000  0.46620500  1
  Er  Er1  1  0.25000000  0.56205000  0.98318100  1
  Er  Er2  1  0.25000000  0.93795000  0.98318100  1
  Er  Er3  1  0.43606500  0.44194700  0.60425700  1
  Er  Er4  1  0.55805300  0.93606500  0.89574300  1
  Er  Er5  1  0.93423900  0.43423900  0.25000000  1
  Er  Er6  1  0.44194700  0.43606500  0.10425700  1
  Er  Er7  1  0.93606500  0.94194700  0.39574300  1
  Er  Er8  1  0.75000000  0.43795000  0.01681900  1
  Er  Er9  1  0.55690000  0.75000000  0.03379500  1
  Er  Er10  1  0.75000000  0.25000000  0.14564900  1
  Er  Er11  1  0.06393500  0.05805300  0.60425700  1
  Er  Er12  1  0.75000000  0.55690000  0.53379500  1
  Er  Er13  1  0.43423900  0.93423900  0.75000000  1
  Er  Er14  1  0.75000000  0.94310000  0.53379500  1
  Er  Er15  1  0.06576100  0.93423900  0.75000000  1
  Er  Er16  1  0.94310000  0.75000000  0.03379500  1
  Er  Er17  1  0.44310000  0.25000000  0.96620500  1
  Er  Er18  1  0.03762100  0.75000000  0.19245600  1
  Er  Er19  1  0.75000000  0.75000000  0.78689000  1
  Er  Er20  1  0.93795000  0.25000000  0.48318100  1
  Er  Er21  1  0.94194700  0.56393500  0.89574300  1
  Er  Er22  1  0.43423900  0.56576100  0.75000000  1
  Er  Er23  1  0.06205000  0.75000000  0.51681900  1
  Er  Er24  1  0.53762100  0.25000000  0.80754400  1
  Er  Er25  1  0.25000000  0.75000000  0.64564900  1
  Er  Er26  1  0.96237900  0.25000000  0.80754400  1
  Er  Er27  1  0.25000000  0.75000000  0.85435100  1
  Er  Er28  1  0.06393500  0.44194700  0.60425700  1
  Er  Er29  1  0.43606500  0.05805300  0.60425700  1
  Er  Er30  1  0.56393500  0.94194700  0.39574300  1
  Er  Er31  1  0.56576100  0.06576100  0.25000000  1
  Er  Er32  1  0.75000000  0.06205000  0.01681900  1
  Er  Er33  1  0.25000000  0.25000000  0.71311000  1
  Er  Er34  1  0.43795000  0.75000000  0.51681900  1
  Er  Er35  1  0.75000000  0.03762100  0.69245600  1
  Er  Er36  1  0.05805300  0.06393500  0.10425700  1
  Er  Er37  1  0.05690000  0.25000000  0.96620500  1
  Er  Er38  1  0.93423900  0.06576100  0.25000000  1
  Er  Er39  1  0.75000000  0.25000000  0.35435100  1
  Er  Er40  1  0.56205000  0.25000000  0.48318100  1
  Er  Er41  1  0.44194700  0.06393500  0.10425700  1
  Er  Er42  1  0.25000000  0.05690000  0.46620500  1
  Er  Er43  1  0.46237900  0.75000000  0.19245600  1
  Er  Er44  1  0.55805300  0.56393500  0.89574300  1
  Er  Er45  1  0.25000000  0.25000000  0.21311000  1
  Er  Er46  1  0.56576100  0.43423900  0.25000000  1
  Er  Er47  1  0.25000000  0.53762100  0.30754400  1
  Er  Er48  1  0.25000000  0.96237900  0.30754400  1
  Er  Er49  1  0.05805300  0.43606500  0.10425700  1
  Er  Er50  1  0.06576100  0.56576100  0.75000000  1
  Er  Er51  1  0.56393500  0.55805300  0.39574300  1
  Er  Er52  1  0.94194700  0.93606500  0.89574300  1
  Er  Er53  1  0.75000000  0.46237900  0.69245600  1
  Er  Er54  1  0.75000000  0.75000000  0.28689000  1
  Er  Er55  1  0.93606500  0.55805300  0.39574300  1
  In  In0  1  0.25000000  0.08859000  0.85512100  1
  In  In1  1  0.75000000  0.25000000  0.59176300  1
  In  In2  1  0.75000000  0.91141000  0.14487900  1
  In  In3  1  0.58859000  0.75000000  0.64487900  1
  In  In4  1  0.25000000  0.75000000  0.09176300  1
  In  In5  1  0.41141000  0.25000000  0.35512100  1
  In  In6  1  0.25000000  0.75000000  0.40823700  1
  In  In7  1  0.91141000  0.75000000  0.64487900  1
  In  In8  1  0.25000000  0.41141000  0.85512100  1
  In  In9  1  0.75000000  0.58859000  0.14487900  1
  In  In10  1  0.75000000  0.25000000  0.90823700  1
  In  In11  1  0.08859000  0.25000000  0.35512100  1
  Pd  Pd0  1  0.25000000  0.25000000  0.55373900  1
  Pd  Pd1  1  0.25000000  0.25000000  0.05373900  1
  Pd  Pd2  1  0.25000000  0.53703100  0.18934900  1
  Pd  Pd3  1  0.46296900  0.75000000  0.31065100  1
  Pd  Pd4  1  0.75000000  0.03703100  0.81065100  1
  Pd  Pd5  1  0.96296900  0.25000000  0.68934900  1
  Pd  Pd6  1  0.53703100  0.25000000  0.68934900  1
  Pd  Pd7  1  0.25000000  0.96296900  0.18934900  1
  Pd  Pd8  1  0.75000000  0.75000000  0.44626100  1
  Pd  Pd9  1  0.75000000  0.46296900  0.81065100  1
  Pd  Pd10  1  0.03703100  0.75000000  0.31065100  1
  Pd  Pd11  1  0.75000000  0.75000000  0.94626100  1
loop_
_geom_bond_atom_site_label_1
_geom_bond_atom_site_label_2
_geom_bond_distance
_geom_bond_site_symmetry_2
Er0 Pd0 2.766922 1_555
Er0 In6 3.253510 1_555
Er0 In11 3.554576 1_555
Er0 In5 3.554576 1_555
Er0 Er20 3.558457 1_455
Er0 Er40 3.558457 1_555
Er0 Er23 3.664513 1_555
Er0 Er34 3.664513 1_555
Er0 Er47 3.821813 1_555
Er1 In4 3.119724 1_556
Er1 In8 3.328983 1_555
Er1 Pd1 3.430291 1_556
Er1 Er27 3.516173 1_555
Er1 Er37 3.558457 1_555
Er1 Er17 3.558457 1_555
Er1 Er6 3.594148 1_556
Er1 Er49 3.594148 1_556
Er1 Er44 3.605082 1_555
Er1 Er21 3.605082 1_455
Er1 Er2 3.622335 1_555
Er1 Er16 3.664513 1_456
Er1 Er9 3.664513 1_556
Er2 In4 3.119724 1_556
Er2 In0 3.328983 1_565
Er2 Pd1 3.430291 1_566
Er2 Er27 3.516173 1_555
Er2 Er37 3.558457 1_565
Er2 Er41 3.594148 1_566
Er2 Er36 3.594148 1_566
Er2 Er4 3.605082 1_555
Er2 Er52 3.605082 1_455
Er2 Er9 3.664513 1_556
Er3 Pd0 2.834231 1_555
Er3 Pd6 2.886272 1_555
Er3 In3 3.446094 1_555
Er3 In1 3.557904 1_555
Er3 Er40 3.594148 1_555
Er3 Er34 3.605082 1_555
Er3 Er53 3.667143 1_555
Er4 Pd11 2.834231 1_555
Er4 Pd4 2.886272 1_565
Er4 In0 3.446094 1_565
Er4 In10 3.557904 1_565
Er5 In11 3.378162 1_655
Er5 In9 3.378162 1_555
Er5 Pd10 3.500434 1_655
Er5 Pd2 3.500434 1_655
Er5 Er55 3.612264 1_555
Er5 Er54 3.627055 1_555
Er6 Pd1 2.834231 1_555
Er6 Pd2 2.886272 1_555
Er6 In9 3.446094 1_555
Er6 In4 3.557904 1_555
Er6 Er8 3.605082 1_555
Er7 Pd8 2.834231 1_555
Er7 Pd10 2.886272 1_655
Er7 In11 3.446094 1_665
Er7 In6 3.557904 1_655
Er8 In10 3.119724 1_554
Er8 In9 3.328983 1_555
Er8 Pd11 3.430291 1_554
Er8 Er9 3.558457 1_555
Er9 Pd11 2.766922 1_554
Er9 In4 3.253510 1_555
Er9 In9 3.554576 1_555
Er9 In2 3.554576 1_555
Er10 In2 3.262850 1_545
Er10 In9 3.262850 1_555
Er10 Er5 3.501920 1_555
Er10 Er38 3.501920 1_555
Er10 Er46 3.501920 1_555
Er10 Er31 3.501920 1_555
Er10 Er32 3.516173 1_555
Er10 Er8 3.516173 1_555
Er10 Er49 3.600650 1_655
Er10 Er6 3.600650 1_555
Er10 Er36 3.600650 1_655
Er10 Er41 3.600650 1_555
Er11 Pd0 2.834231 1_555
Er11 Pd5 2.886272 1_455
Er11 In7 3.446094 1_445
Er11 In1 3.557904 1_455
Er11 Er20 3.594148 1_455
Er11 Er25 3.600650 1_545
Er11 Er23 3.605082 1_545
Er11 Er15 3.612264 1_545
Er11 Er35 3.667143 1_455
Er12 Pd8 2.766922 1_555
Er12 In1 3.253510 1_555
Er12 In7 3.554576 1_555
Er12 In3 3.554576 1_555
Er12 Er34 3.558457 1_555
Er12 Er23 3.558457 1_655
Er12 Er40 3.664513 1_555
Er12 Er20 3.664513 1_555
Er12 Er53 3.821813 1_555
Er13 In0 3.378162 1_565
Er13 In3 3.378162 1_555
Er13 Er24 3.473234 1_565
Er13 Er35 3.473234 1_565
Er13 Pd4 3.500434 1_565
Er13 Pd6 3.500434 1_565
Er13 Er27 3.501920 1_555
Er13 Er25 3.501920 1_555
Er13 Er22 3.550814 1_555
Er13 Er15 3.550814 1_555
Er13 Er4 3.612264 1_555
Er13 Er29 3.612264 1_565
Er13 Er19 3.627055 1_555
Er13 Er33 3.627055 1_565
Er14 Pd8 2.766922 1_555
Er14 In1 3.253510 1_565
Er14 In3 3.554576 1_555
Er14 In7 3.554576 1_555
Er14 Er34 3.558457 1_555
Er14 Er23 3.558457 1_655
Er14 Er40 3.664513 1_565
Er14 Er20 3.664513 1_565
Er14 Er35 3.821813 1_565
Er15 In0 3.378162 1_565
Er15 In7 3.378162 1_455
Er15 Er26 3.473234 1_465
Er15 Er35 3.473234 1_465
Er15 Pd4 3.500434 1_465
Er15 Pd5 3.500434 1_465
Er15 Er27 3.501920 1_555
Er15 Er25 3.501920 1_555
Er15 Er50 3.550814 1_555
Er15 Er52 3.612264 1_455
Er15 Er19 3.627055 1_455
Er15 Er33 3.627055 1_565
Er16 Pd11 2.766922 1_554
Er16 In4 3.253510 1_655
Er16 In9 3.554576 1_555
Er16 In2 3.554576 1_555
Er16 Er8 3.558457 1_555
Er16 Er32 3.558457 1_565
Er16 Er2 3.664513 1_654
Er16 Er18 3.821813 1_655
Er17 Pd1 2.766922 1_556
Er17 In10 3.253510 1_555
Er17 In0 3.554576 1_555
Er17 In8 3.554576 1_555
Er17 Er2 3.558457 1_545
Er17 Er32 3.664513 1_556
Er17 Er8 3.664513 1_556
Er17 Er24 3.821813 1_555
Er18 Pd10 2.765038 1_555
Er18 Pd7 2.899230 1_555
Er18 Pd2 2.899230 1_555
Er18 In4 3.120464 1_555
Er18 In2 3.367506 1_455
Er18 In9 3.367506 1_455
Er18 Er38 3.473234 1_465
Er18 Er5 3.473234 1_455
Er18 Er54 3.544352 1_455
Er18 Er36 3.667143 1_565
Er18 Er49 3.667143 1_555
Er19 Pd4 2.821256 1_565
Er19 Pd9 2.821256 1_555
Er19 Er35 3.544352 1_565
Er19 Er53 3.544352 1_555
Er19 Er50 3.627055 1_655
Er19 Er22 3.627055 1_555
Er19 In3 3.668269 1_555
Er19 In7 3.668269 1_555
Er20 In1 3.119724 1_555
Er20 In11 3.328983 1_655
Er20 Pd0 3.430291 1_655
Er20 Er39 3.516173 1_555
Er20 Er42 3.558457 1_655
Er20 Er28 3.594148 1_655
Er20 Er7 3.605082 1_545
Er20 Er55 3.605082 1_555
Er20 Er40 3.622335 1_555
Er21 Pd11 2.834231 1_555
Er21 Pd9 2.886272 1_555
Er21 In8 3.446094 1_655
Er21 In10 3.557904 1_555
Er21 Er8 3.594148 1_556
Er21 Er27 3.600650 1_655
Er21 Er50 3.612264 1_655
Er21 Er26 3.667143 1_555
Er22 In8 3.378162 1_555
Er22 In3 3.378162 1_555
Er22 Er24 3.473234 1_555
Er22 Er53 3.473234 1_555
Er22 Pd6 3.500434 1_555
Er22 Pd9 3.500434 1_555
Er22 Er27 3.501920 1_555
Er22 Er25 3.501920 1_555
Er22 Er50 3.550814 1_555
Er22 Er44 3.612264 1_555
Er22 Er3 3.612264 1_555
Er22 Er33 3.627055 1_555
Er23 In6 3.119724 1_555
Er23 In7 3.328983 1_455
Er23 Pd8 3.430291 1_455
Er23 Er25 3.516173 1_555
Er23 Er55 3.594148 1_455
Er23 Er7 3.594148 1_455
Er23 Er28 3.605082 1_555
Er23 Er34 3.622335 1_555
Er23 Er42 3.664513 1_565
Er24 Pd6 2.765038 1_555
Er24 Pd9 2.899230 1_555
Er24 Pd4 2.899230 1_555
Er24 In10 3.120464 1_555
Er24 In8 3.367506 1_555
Er24 In0 3.367506 1_555
Er24 Er33 3.544352 1_555
Er24 Er44 3.667143 1_555
Er24 Er4 3.667143 1_545
Er25 In7 3.262850 1_455
Er25 In3 3.262850 1_555
Er25 Er50 3.501920 1_555
Er25 Er34 3.516173 1_555
Er25 Er29 3.600650 1_565
Er25 Er3 3.600650 1_555
Er25 Er28 3.600650 1_555
Er26 Pd5 2.765038 1_555
Er26 Pd9 2.899230 1_555
Er26 Pd4 2.899230 1_555
Er26 In10 3.120464 1_555
Er26 In0 3.367506 1_655
Er26 In8 3.367506 1_655
Er26 Er50 3.473234 1_655
Er26 Er33 3.544352 1_655
Er26 Er52 3.667143 1_545
Er26 Er37 3.821813 1_655
Er27 In8 3.262850 1_555
Er27 In0 3.262850 1_565
Er27 Er50 3.501920 1_555
Er27 Er4 3.600650 1_555
Er27 Er52 3.600650 1_455
Er27 Er44 3.600650 1_555
Er28 Pd0 2.834231 1_555
Er28 Pd5 2.886272 1_455
Er28 In7 3.446094 1_455
Er28 In1 3.557904 1_455
Er28 Er50 3.612264 1_555
Er28 Er53 3.667143 1_455
Er29 Pd0 2.834231 1_555
Er29 Pd6 2.886272 1_555
Er29 In3 3.446094 1_545
Er29 In1 3.557904 1_555
Er29 Er40 3.594148 1_555
Er29 Er34 3.605082 1_545
Er29 Er35 3.667143 1_555
Er30 Pd8 2.834231 1_555
Er30 Pd3 2.886272 1_555
Er30 In5 3.446094 1_565
Er30 In6 3.557904 1_555
Er30 Er34 3.594148 1_555
Er30 Er39 3.600650 1_565
Er30 Er40 3.605082 1_565
Er30 Er31 3.612264 1_565
Er30 Er48 3.667143 1_555
Er31 In5 3.378162 1_555
Er31 In2 3.378162 1_545
Er31 Er48 3.473234 1_545
Er31 Er43 3.473234 1_545
Er31 Pd7 3.500434 1_545
Er31 Pd3 3.500434 1_545
Er31 Er39 3.501920 1_555
Er31 Er38 3.550814 1_555
Er31 Er46 3.550814 1_555
Er31 Er41 3.612264 1_555
Er31 Er45 3.627055 1_555
Er31 Er54 3.627055 1_545
Er32 In10 3.119724 1_554
Er32 In2 3.328983 1_545
Er32 Pd11 3.430291 1_544
Er32 Er9 3.558457 1_545
Er32 Er4 3.594148 1_544
Er32 Er52 3.594148 1_544
Er32 Er36 3.605082 1_655
Er32 Er41 3.605082 1_555
Er32 Er8 3.622335 1_555
Er32 Er37 3.664513 1_654
Er33 Pd6 2.821256 1_555
Er33 Pd5 2.821256 1_455
Er33 Er50 3.627055 1_555
Er33 In0 3.668269 1_555
Er33 In8 3.668269 1_555
Er34 In6 3.119724 1_555
Er34 In3 3.328983 1_555
Er34 Pd8 3.430291 1_555
Er34 Er51 3.594148 1_555
Er34 Er42 3.664513 1_565
Er35 Pd4 2.765038 1_555
Er35 Pd5 2.899230 1_555
Er35 Pd6 2.899230 1_555
Er35 In1 3.120464 1_555
Er35 In3 3.367506 1_545
Er35 In7 3.367506 1_545
Er36 Pd1 2.834231 1_555
Er36 Pd7 2.886272 1_545
Er36 In2 3.446094 1_445
Er36 In4 3.557904 1_545
Er36 Er38 3.612264 1_455
Er37 Pd1 2.766922 1_556
Er37 In10 3.253510 1_455
Er37 In0 3.554576 1_555
Er37 In8 3.554576 1_555
Er37 Er8 3.664513 1_456
Er38 In11 3.378162 1_655
Er38 In2 3.378162 1_545
Er38 Er48 3.473234 1_645
Er38 Pd10 3.500434 1_645
Er38 Pd7 3.500434 1_645
Er38 Er39 3.501920 1_555
Er38 Er5 3.550814 1_555
Er38 Er7 3.612264 1_545
Er38 Er54 3.627055 1_545
Er38 Er45 3.627055 1_655
Er39 In5 3.262850 1_555
Er39 In11 3.262850 1_655
Er39 Er5 3.501920 1_555
Er39 Er46 3.501920 1_555
Er39 Er40 3.516173 1_555
Er39 Er55 3.600650 1_555
Er39 Er7 3.600650 1_545
Er39 Er51 3.600650 1_555
Er40 In1 3.119724 1_555
Er40 In5 3.328983 1_555
Er40 Pd0 3.430291 1_555
Er40 Er42 3.558457 1_555
Er40 Er51 3.605082 1_555
Er41 Pd1 2.834231 1_555
Er41 Pd7 2.886272 1_545
Er41 In2 3.446094 1_545
Er41 In4 3.557904 1_545
Er41 Er43 3.667143 1_545
Er42 Pd0 2.766922 1_555
Er42 In6 3.253510 1_545
Er42 In11 3.554576 1_555
Er42 In5 3.554576 1_555
Er42 Er48 3.821813 1_545
Er43 Pd3 2.765038 1_555
Er43 Pd7 2.899230 1_555
Er43 Pd2 2.899230 1_555
Er43 In4 3.120464 1_555
Er43 In2 3.367506 1_555
Er43 In9 3.367506 1_555
Er43 Er46 3.473234 1_555
Er43 Er54 3.544352 1_555
Er43 Er6 3.667143 1_555
Er43 Er9 3.821813 1_555
Er44 Pd11 2.834231 1_555
Er44 Pd9 2.886272 1_555
Er44 In8 3.446094 1_555
Er44 In10 3.557904 1_555
Er44 Er8 3.594148 1_556
Er45 Pd2 2.821256 1_555
Er45 Pd7 2.821256 1_545
Er45 Er47 3.544352 1_555
Er45 Er48 3.544352 1_545
Er45 Er46 3.627055 1_555
Er45 Er5 3.627055 1_455
Er45 In11 3.668269 1_555
Er45 In5 3.668269 1_555
Er46 In5 3.378162 1_555
Er46 In9 3.378162 1_555
Er46 Er47 3.473234 1_555
Er46 Pd2 3.500434 1_555
Er46 Pd3 3.500434 1_555
Er46 Er5 3.550814 1_555
Er46 Er51 3.612264 1_555
Er46 Er6 3.612264 1_555
Er46 Er54 3.627055 1_555
Er47 Pd2 2.765038 1_555
Er47 Pd3 2.899230 1_555
Er47 Pd10 2.899230 1_555
Er47 In6 3.120464 1_555
Er47 In11 3.367506 1_555
Er47 In5 3.367506 1_555
Er47 Er5 3.473234 1_455
Er47 Er51 3.667143 1_555
Er47 Er55 3.667143 1_455
Er48 Pd7 2.765038 1_555
Er48 Pd3 2.899230 1_555
Er48 Pd10 2.899230 1_555
Er48 In6 3.120464 1_555
Er48 In11 3.367506 1_565
Er48 In5 3.367506 1_565
Er48 Er7 3.667143 1_455
Er49 Pd1 2.834231 1_555
Er49 Pd2 2.886272 1_555
Er49 In9 3.446094 1_455
Er49 In4 3.557904 1_555
Er49 Er8 3.605082 1_455
Er49 Er5 3.612264 1_455
Er50 In8 3.378162 1_555
Er50 In7 3.378162 1_455
Er50 Er53 3.473234 1_455
Er50 Pd5 3.500434 1_455
Er50 Pd9 3.500434 1_455
Er51 Pd8 2.834231 1_555
Er51 Pd3 2.886272 1_555
Er51 In5 3.446094 1_555
Er51 In6 3.557904 1_555
Er52 Pd11 2.834231 1_555
Er52 Pd4 2.886272 1_565
Er52 In0 3.446094 1_665
Er52 In10 3.557904 1_565
Er53 Pd9 2.765038 1_555
Er53 Pd5 2.899230 1_555
Er53 Pd6 2.899230 1_555
Er53 In1 3.120464 1_555
Er53 In3 3.367506 1_555
Er53 In7 3.367506 1_555
Er54 Pd10 2.821256 1_655
Er54 Pd3 2.821256 1_555
Er54 In9 3.668269 1_555
Er54 In2 3.668269 1_555
Er55 Pd8 2.834231 1_555
Er55 Pd10 2.886272 1_655
Er55 In11 3.446094 1_655
Er55 In6 3.557904 1_655
In0 In8 3.110833 1_555
In1 Pd5 3.069764 1_555
In1 Pd6 3.069764 1_555
In2 In9 3.110833 1_555
In3 In7 3.110833 1_555
In4 Pd7 3.069764 1_555
In4 Pd2 3.069764 1_555
In6 Pd3 3.069764 1_555
In6 Pd10 3.069764 1_555
In10 Pd9 3.069764 1_555
In10 Pd4 3.069764 1_555
In11 In5 3.110833 1_555
