# generated using pymatgen
data_RbNb3CuCl9
_symmetry_space_group_name_H-M   'P 1'
_cell_length_a   9.45572437
_cell_length_b   9.47459431
_cell_length_c   9.47075798
_cell_angle_alpha   119.70891507
_cell_angle_beta   95.73010097
_cell_angle_gamma   105.57744536
_symmetry_Int_Tables_number   1
_chemical_formula_structural   RbNb3CuCl9
_chemical_formula_sum   'Rb2 Nb6 Cu2 Cl18'
_cell_volume   681.81287766
_cell_formula_units_Z   2
loop_
 _symmetry_equiv_pos_site_id
 _symmetry_equiv_pos_as_xyz
  1  'x, y, z'
loop_
 _atom_site_type_symbol
 _atom_site_label
 _atom_site_symmetry_multiplicity
 _atom_site_fract_x
 _atom_site_fract_y
 _atom_site_fract_z
 _atom_site_occupancy
  Rb  Rb0  1  0.33460000  0.47525700  0.26123000  1
  Rb  Rb1  1  0.66540000  0.52474300  0.73877000  1
  Nb  Nb0  1  0.13320500  0.89744500  0.34287900  1
  Nb  Nb1  1  0.86205900  0.74943900  0.42322400  1
  Nb  Nb2  1  0.85928100  0.98177500  0.30347500  1
  Nb  Nb3  1  0.86679500  0.10255500  0.65712100  1
  Nb  Nb4  1  0.13794100  0.25056100  0.57677600  1
  Nb  Nb5  1  0.14071900  0.01822500  0.69652500  1
  Cu  Cu0  1  0.63183900  0.18669900  0.05482700  1
  Cu  Cu1  1  0.36816100  0.81330100  0.94517300  1
  Cl  Cl0  1  0.67607000  0.42735100  0.32323500  1
  Cl  Cl1  1  0.66974800  0.95034500  0.04715900  1
  Cl  Cl2  1  0.32818200  0.31915300  0.82437700  1
  Cl  Cl3  1  0.67181800  0.68084700  0.17562300  1
  Cl  Cl4  1  0.30323800  0.76488400  0.14753900  1
  Cl  Cl5  1  0.67875500  0.09806000  0.45230400  1
  Cl  Cl6  1  0.32393000  0.57264900  0.67676500  1
  Cl  Cl7  1  0.99480600  0.58470800  0.22822200  1
  Cl  Cl8  1  0.67950900  0.82353200  0.59463200  1
  Cl  Cl9  1  0.69676200  0.23511600  0.85246100  1
  Cl  Cl10  1  0.00141700  0.72729500  0.64290000  1
  Cl  Cl11  1  0.00953900  0.14285100  0.91699800  1
  Cl  Cl12  1  0.99858300  0.27270500  0.35710000  1
  Cl  Cl13  1  0.32049100  0.17646800  0.40536800  1
  Cl  Cl14  1  0.33025200  0.04965500  0.95284100  1
  Cl  Cl15  1  0.00519400  0.41529200  0.77177800  1
  Cl  Cl16  1  0.99046100  0.85714900  0.08300200  1
  Cl  Cl17  1  0.32124500  0.90194000  0.54769600  1
loop_
_geom_bond_atom_site_label_1
_geom_bond_atom_site_label_2
_geom_bond_distance
_geom_bond_site_symmetry_2
Cl0 Cu0 2.316500 1_555
Cl0 Nb1 2.687544 1_555
Cl0 Rb0 3.413062 1_555
Cl0 Rb1 3.588752 1_555
Cl1 Cu0 2.328866 1_565
Cl1 Cu1 2.639961 1_554
Cl1 Nb2 2.705822 1_555
Cl1 Rb1 3.606350 1_554
Cl2 Nb5 2.484456 1_555
Cl2 Nb4 2.485241 1_555
Cl2 Rb0 3.625612 1_556
Cl2 Rb1 3.655781 1_555
Cl3 Nb2 2.484456 1_555
Cl3 Nb1 2.485241 1_555
Cl3 Rb1 3.625612 1_554
Cl3 Rb0 3.655781 1_555
Cl4 Cu1 2.283776 1_554
Cl4 Nb0 2.638255 1_555
Cl4 Rb0 3.475532 1_555
Cl5 Nb2 2.462876 1_545
Cl5 Nb3 2.472799 1_555
Cl5 Rb1 3.631933 1_555
Cl6 Cu1 2.316500 1_555
Cl6 Nb4 2.687544 1_555
Cl6 Rb1 3.413062 1_555
Cl6 Rb0 3.588752 1_555
Cl7 Nb1 2.465834 1_555
Cl7 Nb0 2.473032 1_655
Cl7 Rb0 3.661518 1_655
Cl8 Nb1 2.487666 1_555
Cl8 Nb3 2.490125 1_565
Cl8 Rb0 3.651232 1_555
Cl8 Rb1 3.682286 1_555
Cl9 Cu0 2.283776 1_556
Cl9 Nb3 2.638255 1_555
Cl9 Rb1 3.475532 1_555
Cl10 Nb5 2.473811 1_565
Cl10 Nb1 2.478427 1_455
Cl10 Rb1 3.691988 1_455
Cl11 Nb5 2.480484 1_555
Cl11 Nb3 2.480671 1_455
Cl11 Rb0 3.552144 1_556
Cl12 Nb2 2.473811 1_545
Cl12 Nb4 2.478427 1_655
Cl12 Rb0 3.691988 1_655
Cl13 Nb4 2.487666 1_555
Cl13 Nb0 2.490125 1_545
Cl13 Rb1 3.651232 1_555
Cl13 Rb0 3.682286 1_555
Cl14 Cu1 2.328866 1_545
Cl14 Cu0 2.639961 1_556
Cl14 Nb5 2.705822 1_555
Cl14 Rb0 3.606350 1_556
Cl15 Nb4 2.465834 1_555
Cl15 Nb3 2.473032 1_455
Cl15 Rb1 3.661518 1_455
Cl16 Nb2 2.480484 1_555
Cl16 Nb0 2.480671 1_655
Cl16 Rb1 3.552144 1_554
Cl17 Nb5 2.462876 1_565
Cl17 Nb0 2.472799 1_555
Cl17 Rb0 3.631933 1_555
