# generated using pymatgen
data_Tl2S7N8
_symmetry_space_group_name_H-M   'P 1'
_cell_length_a   9.65174900
_cell_length_b   11.72308700
_cell_length_c   12.18493000
_cell_angle_alpha   90.00000000
_cell_angle_beta   90.00000000
_cell_angle_gamma   90.00000000
_symmetry_Int_Tables_number   1
_chemical_formula_structural   Tl2S7N8
_chemical_formula_sum   'Tl8 S28 N32'
_cell_volume   1378.70403262
_cell_formula_units_Z   4
loop_
 _symmetry_equiv_pos_site_id
 _symmetry_equiv_pos_as_xyz
  1  'x, y, z'
loop_
 _atom_site_type_symbol
 _atom_site_label
 _atom_site_symmetry_multiplicity
 _atom_site_fract_x
 _atom_site_fract_y
 _atom_site_fract_z
 _atom_site_occupancy
  Tl  Tl0  1  0.46762300  0.22343000  0.06669700  1
  Tl  Tl1  1  0.96762300  0.77657000  0.93330300  1
  Tl  Tl2  1  0.03237700  0.72343000  0.43330300  1
  Tl  Tl3  1  0.53237700  0.27657000  0.56669700  1
  Tl  Tl4  1  0.53237700  0.77657000  0.93330300  1
  Tl  Tl5  1  0.03237700  0.22343000  0.06669700  1
  Tl  Tl6  1  0.96762300  0.27657000  0.56669700  1
  Tl  Tl7  1  0.46762300  0.72343000  0.43330300  1
  S  S0  1  0.75000000  0.04408800  0.72287800  1
  S  S1  1  0.25000000  0.95591200  0.27712200  1
  S  S2  1  0.75000000  0.54408800  0.77712200  1
  S  S3  1  0.25000000  0.45591200  0.22287800  1
  S  S4  1  0.75000000  0.04786800  0.95965000  1
  S  S5  1  0.25000000  0.95213200  0.04035000  1
  S  S6  1  0.75000000  0.54786800  0.54035000  1
  S  S7  1  0.25000000  0.45213200  0.45965000  1
  S  S8  1  0.75000000  0.26047300  0.83826900  1
  S  S9  1  0.25000000  0.73952700  0.16173100  1
  S  S10  1  0.75000000  0.76047300  0.66173100  1
  S  S11  1  0.25000000  0.23952700  0.33826900  1
  S  S12  1  0.75000000  0.65395300  0.19768900  1
  S  S13  1  0.25000000  0.34604700  0.80231100  1
  S  S14  1  0.75000000  0.15395300  0.30231100  1
  S  S15  1  0.25000000  0.84604700  0.69768900  1
  S  S16  1  0.75000000  0.45552100  0.06929400  1
  S  S17  1  0.25000000  0.54447900  0.93070600  1
  S  S18  1  0.75000000  0.95552100  0.43070600  1
  S  S19  1  0.25000000  0.04447900  0.56929400  1
  S  S20  1  0.60770800  0.46218800  0.26706200  1
  S  S21  1  0.10770800  0.53781200  0.73293800  1
  S  S22  1  0.89229200  0.96218800  0.23293800  1
  S  S23  1  0.39229200  0.03781200  0.76706200  1
  S  S24  1  0.39229200  0.53781200  0.73293800  1
  S  S25  1  0.89229200  0.46218800  0.26706200  1
  S  S26  1  0.10770800  0.03781200  0.76706200  1
  S  S27  1  0.60770800  0.96218800  0.23293800  1
  N  N0  1  0.75000000  0.18744800  0.95330900  1
  N  N1  1  0.25000000  0.81255200  0.04669100  1
  N  N2  1  0.75000000  0.68744800  0.54669100  1
  N  N3  1  0.25000000  0.31255200  0.45330900  1
  N  N4  1  0.75000000  0.98176100  0.84185400  1
  N  N5  1  0.25000000  0.01823900  0.15814600  1
  N  N6  1  0.75000000  0.48176100  0.65814600  1
  N  N7  1  0.25000000  0.51823900  0.34185400  1
  N  N8  1  0.75000000  0.18317000  0.72585300  1
  N  N9  1  0.25000000  0.81683000  0.27414700  1
  N  N10  1  0.75000000  0.68317000  0.77414700  1
  N  N11  1  0.25000000  0.31683000  0.22585300  1
  N  N12  1  0.75000000  0.59639600  0.07378000  1
  N  N13  1  0.25000000  0.40360400  0.92622000  1
  N  N14  1  0.75000000  0.09639600  0.42622000  1
  N  N15  1  0.25000000  0.90360400  0.57378000  1
  N  N16  1  0.61679000  0.40792100  0.14451000  1
  N  N17  1  0.11679000  0.59207900  0.85549000  1
  N  N18  1  0.88321000  0.90792100  0.35549000  1
  N  N19  1  0.38321000  0.09207900  0.64451000  1
  N  N20  1  0.38321000  0.59207900  0.85549000  1
  N  N21  1  0.88321000  0.40792100  0.14451000  1
  N  N22  1  0.11679000  0.09207900  0.64451000  1
  N  N23  1  0.61679000  0.90792100  0.35549000  1
  N  N24  1  0.61633300  0.60063600  0.26841700  1
  N  N25  1  0.11633300  0.39936400  0.73158300  1
  N  N26  1  0.88366700  0.10063600  0.23158300  1
  N  N27  1  0.38366700  0.89936400  0.76841700  1
  N  N28  1  0.38366700  0.39936400  0.73158300  1
  N  N29  1  0.88366700  0.60063600  0.26841700  1
  N  N30  1  0.11633300  0.89936400  0.76841700  1
  N  N31  1  0.61633300  0.10063600  0.23158300  1
loop_
_geom_bond_atom_site_label_1
_geom_bond_atom_site_label_2
_geom_bond_distance
_geom_bond_site_symmetry_2
N0 S4 1.638132 1_555
N0 S8 1.642494 1_555
N1 S5 1.638132 1_555
N1 S9 1.642494 1_555
N2 S6 1.638132 1_555
N2 S10 1.642494 1_555
N3 S7 1.638132 1_555
N3 S11 1.642494 1_555
N4 S0 1.623435 1_565
N4 S4 1.631190 1_565
N5 S1 1.623435 1_545
N5 S5 1.631190 1_545
N6 S2 1.623435 1_555
N6 S6 1.631190 1_555
N7 S3 1.623435 1_555
N7 S7 1.631190 1_555
N8 S0 1.630873 1_555
N8 S8 1.642423 1_555
N9 S1 1.630873 1_555
N9 S9 1.642423 1_555
N10 S2 1.630873 1_555
N10 S10 1.642423 1_555
N11 S3 1.630873 1_555
N11 S11 1.642423 1_555
N12 S16 1.652394 1_555
N12 S12 1.653737 1_555
N13 S17 1.652394 1_555
N13 S13 1.653737 1_555
N14 S18 1.652394 1_545
N14 S14 1.653737 1_555
N15 S19 1.652394 1_565
N15 S15 1.653737 1_555
N16 S20 1.625519 1_555
N16 S16 1.674637 1_555
N16 Tl0 2.765773 1_555
N17 S21 1.625519 1_555
N17 S17 1.674637 1_555
N17 Tl1 2.765773 1_455
N18 S22 1.625519 1_555
N18 S18 1.674637 1_555
N18 Tl2 2.765773 1_655
N19 S23 1.625519 1_555
N19 S19 1.674637 1_555
N19 Tl3 2.765773 1_555
N20 S24 1.625519 1_555
N20 S17 1.674637 1_555
N20 Tl4 2.765773 1_555
N21 S25 1.625519 1_555
N21 S16 1.674637 1_555
N21 Tl5 2.765773 1_655
N22 S26 1.625519 1_555
N22 S19 1.674637 1_555
N22 Tl6 2.765773 1_455
N23 S27 1.625519 1_555
N23 S18 1.674637 1_555
N23 Tl7 2.765773 1_555
N24 S20 1.625255 1_555
N24 S12 1.672666 1_555
N24 Tl7 2.858134 1_555
N25 S21 1.625255 1_555
N25 S13 1.672666 1_555
N25 Tl6 2.858134 1_455
N26 S22 1.625255 1_545
N26 S14 1.672666 1_555
N26 Tl5 2.858134 1_655
N27 S23 1.625255 1_565
N27 S15 1.672666 1_555
N27 Tl4 2.858134 1_555
N28 S24 1.625255 1_555
N28 S13 1.672666 1_555
N28 Tl3 2.858134 1_555
N29 S25 1.625255 1_555
N29 S12 1.672666 1_555
N29 Tl2 2.858134 1_655
N30 S26 1.625255 1_565
N30 S15 1.672666 1_555
N30 Tl1 2.858134 1_455
N31 S27 1.625255 1_545
N31 S14 1.672666 1_555
N31 Tl0 2.858134 1_555
