# generated using pymatgen
data_KAlF4
_symmetry_space_group_name_H-M   'P 1'
_cell_length_a   7.22841007
_cell_length_b   6.43042523
_cell_length_c   7.33045289
_cell_angle_alpha   73.08984825
_cell_angle_beta   90.00000000
_cell_angle_gamma   90.00000000
_symmetry_Int_Tables_number   1
_chemical_formula_structural   KAlF4
_chemical_formula_sum   'K4 Al4 F16'
_cell_volume   325.99972085
_cell_formula_units_Z   4
loop_
 _symmetry_equiv_pos_site_id
 _symmetry_equiv_pos_as_xyz
  1  'x, y, z'
loop_
 _atom_site_type_symbol
 _atom_site_label
 _atom_site_symmetry_multiplicity
 _atom_site_fract_x
 _atom_site_fract_y
 _atom_site_fract_z
 _atom_site_occupancy
  K  K0  1  0.25000000  0.54093624  0.86676384  1
  K  K1  1  0.25000000  0.54853194  0.36538935  1
  K  K2  1  0.75000000  0.45906376  0.13323616  1
  K  K3  1  0.75000000  0.45146806  0.63461065  1
  Al  Al0  1  0.50000000  -0.00000000  -0.00000000  1
  Al  Al1  1  -0.00000000  -0.00000000  -0.00000000  1
  Al  Al2  1  -0.00000000  -0.00000000  0.50000000  1
  Al  Al3  1  0.50000000  -0.00000000  0.50000000  1
  F  F0  1  0.25000000  0.04726026  0.50710369  1
  F  F1  1  0.03766150  0.71710195  0.06863383  1
  F  F2  1  0.46465786  0.71624782  0.57579385  1
  F  F3  1  0.51991109  0.00213036  0.74944864  1
  F  F4  1  0.75000000  0.94951987  0.03156293  1
  F  F5  1  0.46233850  0.71710195  0.06863383  1
  F  F6  1  0.96233850  0.28289805  0.93136617  1
  F  F7  1  0.25000000  0.05048013  0.96843707  1
  F  F8  1  0.53534214  0.28375218  0.42420615  1
  F  F9  1  0.96465786  0.28375218  0.42420615  1
  F  F10  1  0.01991109  0.99786964  0.25055136  1
  F  F11  1  0.48008891  0.99786964  0.25055136  1
  F  F12  1  0.98008891  0.00213036  0.74944864  1
  F  F13  1  0.03534214  0.71624782  0.57579385  1
  F  F14  1  0.53766150  0.28289805  0.93136617  1
  F  F15  1  0.75000000  0.95273974  0.49289631  1
loop_
_geom_bond_atom_site_label_1
_geom_bond_atom_site_label_2
_geom_bond_distance
_geom_bond_site_symmetry_2
Al0 F5 1.761852 1_545
Al0 F14 1.761852 1_554
Al0 F3 1.838360 1_554
Al0 F11 1.838360 1_545
Al0 F4 1.838704 1_545
Al0 F7 1.838704 1_554
Al1 F6 1.761852 1_454
Al1 F1 1.761852 1_545
Al1 F12 1.838360 1_454
Al1 F10 1.838360 1_545
Al1 F4 1.838704 1_445
Al1 F7 1.838704 1_554
Al2 F13 1.764521 1_545
Al2 F9 1.764521 1_455
Al2 F0 1.835727 1_555
Al2 F15 1.835727 1_445
Al2 F10 1.838246 1_545
Al2 F12 1.838246 1_455
Al3 F8 1.764521 1_555
Al3 F2 1.764521 1_545
Al3 F15 1.835727 1_545
Al3 F0 1.835727 1_555
Al3 F11 1.838246 1_545
Al3 F3 1.838246 1_555
F1 K0 2.608470 1_554
F1 K2 2.616111 1_455
F1 K1 2.625113 1_555
F2 K0 2.613248 1_555
F2 K3 2.629075 1_555
F2 K1 2.630067 1_555
F4 K2 3.022377 1_555
F5 K0 2.608470 1_554
F5 K2 2.616111 1_555
F5 K1 2.625113 1_555
F6 K2 2.608470 1_556
F6 K0 2.616111 1_655
F6 K3 2.625113 1_555
F7 K0 3.022377 1_555
F8 K2 2.613248 1_555
F8 K1 2.629075 1_555
F8 K3 2.630067 1_555
F9 K2 2.613248 1_555
F9 K1 2.629075 1_655
F9 K3 2.630067 1_555
F13 K0 2.613248 1_555
F13 K3 2.629075 1_455
F13 K1 2.630067 1_555
F14 K2 2.608470 1_556
F14 K0 2.616111 1_555
F14 K3 2.625113 1_555
