# generated using pymatgen
data_SiO2
_symmetry_space_group_name_H-M   'P 1'
_cell_length_a   8.99141929
_cell_length_b   10.89560818
_cell_length_c   10.89560654
_cell_angle_alpha   80.19749159
_cell_angle_beta   65.63067917
_cell_angle_gamma   65.63067578
_symmetry_Int_Tables_number   1
_chemical_formula_structural   SiO2
_chemical_formula_sum   'Si16 O32'
_cell_volume   885.68041271
_cell_formula_units_Z   16
loop_
 _symmetry_equiv_pos_site_id
 _symmetry_equiv_pos_as_xyz
  1  'x, y, z'
loop_
 _atom_site_type_symbol
 _atom_site_label
 _atom_site_symmetry_multiplicity
 _atom_site_fract_x
 _atom_site_fract_y
 _atom_site_fract_z
 _atom_site_occupancy
  Si  Si0  1  0.41506976  0.65902844  0.86076143  1
  Si  Si1  1  0.27583119  0.13923857  0.65902844  1
  Si  Si2  1  0.08493024  0.13923857  0.34097156  1
  Si  Si3  1  0.42590180  0.65902844  0.13923857  1
  Si  Si4  1  0.22416881  0.34097156  0.86076143  1
  Si  Si5  1  0.56513937  0.86076143  0.65902844  1
  Si  Si6  1  0.91506976  0.86076143  0.65902844  1
  Si  Si7  1  0.57409820  0.34097156  0.86076143  1
  Si  Si8  1  0.58493024  0.34097156  0.13923857  1
  Si  Si9  1  0.92590180  0.13923857  0.65902844  1
  Si  Si10  1  0.43486063  0.13923857  0.34097156  1
  Si  Si11  1  0.93486063  0.34097156  0.13923857  1
  Si  Si12  1  0.06513937  0.65902844  0.86076143  1
  Si  Si13  1  0.72416881  0.86076143  0.34097156  1
  Si  Si14  1  0.07409820  0.86076143  0.34097156  1
  Si  Si15  1  0.77583119  0.65902844  0.13923857  1
  O  O0  1  0.87223585  0.50000000  0.15981824  1
  O  O1  1  0.39600373  0.00000000  0.70799455  1
  O  O2  1  0.51348282  0.73651718  0.73651718  1
  O  O3  1  0.72145779  0.86528026  0.69180415  1
  O  O4  1  0.96794691  0.15981824  0.50000000  1
  O  O5  1  0.12776415  0.50000000  0.84018176  1
  O  O6  1  0.39600373  0.70799455  0.00000000  1
  O  O7  1  0.98651718  0.26348282  0.26348282  1
  O  O8  1  0.41326194  0.30819585  0.86528026  1
  O  O9  1  0.60399627  0.29200545  -0.00000000  1
  O  O10  1  0.27854221  0.13471974  0.30819585  1
  O  O11  1  0.01348282  0.73651718  0.73651718  1
  O  O12  1  0.37223585  0.15981824  0.50000000  1
  O  O13  1  0.10399627  -0.00000000  0.29200545  1
  O  O14  1  0.89600373  0.70799455  0.00000000  1
  O  O15  1  0.75000000  0.26348282  0.73651718  1
  O  O16  1  0.53205309  0.50000000  0.84018176  1
  O  O17  1  0.48651718  0.26348282  0.26348282  1
  O  O18  1  0.22145779  0.69180415  0.86528026  1
  O  O19  1  0.91326194  0.86528026  0.30819585  1
  O  O20  1  0.62776415  0.84018176  0.50000000  1
  O  O21  1  0.08673806  0.13471974  0.69180415  1
  O  O22  1  0.03205309  0.84018176  0.50000000  1
  O  O23  1  0.77854221  0.30819585  0.13471974  1
  O  O24  1  0.58673806  0.69180415  0.13471974  1
  O  O25  1  0.25000000  0.73651718  0.26348282  1
  O  O26  1  0.75000000  0.73651718  0.26348282  1
  O  O27  1  0.89600373  0.00000000  0.70799455  1
  O  O28  1  0.25000000  0.26348282  0.73651718  1
  O  O29  1  0.60399627  -0.00000000  0.29200545  1
  O  O30  1  0.46794691  0.50000000  0.15981824  1
  O  O31  1  0.10399627  0.29200545  -0.00000000  1
loop_
_geom_bond_atom_site_label_1
_geom_bond_atom_site_label_2
_geom_bond_distance
_geom_bond_site_symmetry_2
O0 Si11 1.610150 1_555
O0 Si15 1.610151 1_555
O1 Si5 1.612777 1_545
O1 Si1 1.612789 1_555
O2 Si5 1.602244 1_555
O2 Si0 1.602248 1_555
O3 Si6 1.607086 1_555
O3 Si5 1.607095 1_555
O4 Si9 1.610149 1_555
O4 Si2 1.610149 1_655
O5 Si12 1.610150 1_555
O5 Si4 1.610151 1_555
O6 Si3 1.612781 1_555
O6 Si0 1.612789 1_554
O7 Si11 1.602244 1_555
O7 Si2 1.602248 1_655
O8 Si4 1.607086 1_555
O8 Si7 1.607086 1_555
O9 Si7 1.612781 1_554
O9 Si8 1.612789 1_555
O10 Si2 1.607086 1_555
O10 Si10 1.607095 1_555
O11 Si12 1.602244 1_555
O11 Si6 1.602248 1_455
O12 Si10 1.610149 1_555
O12 Si1 1.610151 1_555
O13 Si14 1.612781 1_545
O13 Si2 1.612789 1_555
O14 Si12 1.612777 1_654
O14 Si15 1.612789 1_555
O15 Si7 1.602248 1_555
O15 Si9 1.602248 1_555
O16 Si0 1.610150 1_555
O16 Si7 1.610150 1_555
O17 Si10 1.602244 1_555
O17 Si8 1.602248 1_555
O18 Si0 1.607086 1_555
O18 Si12 1.607095 1_555
O19 Si13 1.607086 1_555
O19 Si14 1.607086 1_655
O20 Si5 1.610149 1_555
O20 Si13 1.610151 1_555
O21 Si1 1.607086 1_555
O21 Si9 1.607086 1_455
O22 Si14 1.610149 1_555
O22 Si6 1.610149 1_455
O23 Si8 1.607086 1_555
O23 Si11 1.607095 1_555
O24 Si15 1.607086 1_555
O24 Si3 1.607086 1_555
O25 Si3 1.602248 1_555
O25 Si14 1.602248 1_555
O26 Si15 1.602248 1_555
O26 Si13 1.602248 1_555
O27 Si9 1.612781 1_555
O27 Si6 1.612789 1_545
O28 Si4 1.602248 1_555
O28 Si1 1.602248 1_555
O29 Si10 1.612777 1_555
O29 Si13 1.612789 1_545
O30 Si8 1.610150 1_555
O30 Si3 1.610150 1_555
O31 Si11 1.612777 1_455
O31 Si4 1.612789 1_554
