# generated using pymatgen
data_CaGaBO4
_symmetry_space_group_name_H-M   'P 1'
_cell_length_a   8.84907395
_cell_length_b   8.84907395
_cell_length_c   5.90388200
_cell_angle_alpha   90.00000000
_cell_angle_beta   90.00000000
_cell_angle_gamma   122.66409593
_symmetry_Int_Tables_number   1
_chemical_formula_structural   CaGaBO4
_chemical_formula_sum   'Ca4 Ga4 B4 O16'
_cell_volume   389.19531007
_cell_formula_units_Z   4
loop_
 _symmetry_equiv_pos_site_id
 _symmetry_equiv_pos_as_xyz
  1  'x, y, z'
loop_
 _atom_site_type_symbol
 _atom_site_label
 _atom_site_symmetry_multiplicity
 _atom_site_fract_x
 _atom_site_fract_y
 _atom_site_fract_z
 _atom_site_occupancy
  Ca  Ca0  1  0.26788900  0.45202400  0.89767200  1
  Ca  Ca1  1  0.54797600  0.73211100  0.39767200  1
  Ca  Ca2  1  0.73211100  0.54797600  0.89767200  1
  Ca  Ca3  1  0.45202400  0.26788900  0.39767200  1
  Ga  Ga0  1  0.81316700  0.21682000  0.62550500  1
  Ga  Ga1  1  0.21682000  0.81316700  0.12550500  1
  Ga  Ga2  1  0.78318000  0.18683300  0.12550500  1
  Ga  Ga3  1  0.18683300  0.78318000  0.62550500  1
  B  B0  1  0.65427300  0.86595600  0.86019400  1
  B  B1  1  0.13404400  0.34572700  0.36019400  1
  B  B2  1  0.34572700  0.13404400  0.86019400  1
  B  B3  1  0.86595600  0.65427300  0.36019400  1
  O  O0  1  0.02940900  0.28411100  0.16506000  1
  O  O1  1  0.31581900  0.42986900  0.32885100  1
  O  O2  1  0.23102800  0.69480000  0.87964000  1
  O  O3  1  0.42986900  0.31581900  0.82885100  1
  O  O4  1  0.68418100  0.57013100  0.32885100  1
  O  O5  1  0.67678100  0.93822000  0.07707800  1
  O  O6  1  0.30520000  0.76897200  0.37964000  1
  O  O7  1  0.69480000  0.23102800  0.37964000  1
  O  O8  1  0.06178000  0.32321900  0.57707800  1
  O  O9  1  0.71588900  0.97059100  0.66506000  1
  O  O10  1  0.32321900  0.06178000  0.07707800  1
  O  O11  1  0.76897200  0.30520000  0.87964000  1
  O  O12  1  0.28411100  0.02940900  0.66506000  1
  O  O13  1  0.97059100  0.71588900  0.16506000  1
  O  O14  1  0.57013100  0.68418100  0.82885100  1
  O  O15  1  0.93822000  0.67678100  0.57707800  1
loop_
_geom_bond_atom_site_label_1
_geom_bond_atom_site_label_2
_geom_bond_distance
_geom_bond_site_symmetry_2
Ca0 O2 2.342973 1_555
Ca0 O3 2.353128 1_555
Ca0 O14 2.368093 1_555
Ca0 O0 2.401798 1_556
Ca0 O8 2.442170 1_555
Ca0 O1 2.605440 1_556
Ca1 O6 2.342973 1_555
Ca1 O4 2.353128 1_555
Ca1 O1 2.368093 1_555
Ca1 O9 2.401798 1_555
Ca1 O5 2.442170 1_555
Ca1 O14 2.605440 1_555
Ca2 O11 2.342973 1_555
Ca2 O14 2.353128 1_555
Ca2 O3 2.368093 1_555
Ca2 O13 2.401798 1_556
Ca2 O15 2.442170 1_555
Ca2 O4 2.605440 1_556
Ca3 O7 2.342973 1_555
Ca3 O1 2.353128 1_555
Ca3 O4 2.368093 1_555
Ca3 O12 2.401798 1_555
Ca3 O10 2.442170 1_555
Ca3 O3 2.605440 1_555
Ga0 O11 1.829180 1_555
Ga0 O7 1.833605 1_555
Ga0 O9 1.875775 1_545
Ga0 O8 1.890057 1_655
Ga1 O6 1.829180 1_555
Ga1 O2 1.833605 1_554
Ga1 O13 1.875775 1_455
Ga1 O10 1.890057 1_565
Ga2 O7 1.829180 1_555
Ga2 O11 1.833605 1_554
Ga2 O0 1.875775 1_655
Ga2 O5 1.890057 1_545
Ga3 O2 1.829180 1_555
Ga3 O6 1.833605 1_555
Ga3 O12 1.875775 1_565
Ga3 O15 1.890057 1_455
B0 O14 1.372308 1_555
B0 O9 1.391721 1_555
B0 O5 1.396668 1_556
B1 O1 1.372308 1_555
B1 O0 1.391721 1_555
B1 O8 1.396668 1_555
B2 O3 1.372308 1_555
B2 O12 1.391721 1_555
B2 O10 1.396668 1_556
B3 O4 1.372308 1_555
B3 O13 1.391721 1_555
B3 O15 1.396668 1_555
