# generated using pymatgen
data_Rb2MnO4
_symmetry_space_group_name_H-M   'P 1'
_cell_length_a   6.02725995
_cell_length_b   7.98610320
_cell_length_c   10.65345707
_cell_angle_alpha   89.99870878
_cell_angle_beta   90.00160158
_cell_angle_gamma   89.99976155
_symmetry_Int_Tables_number   1
_chemical_formula_structural   Rb2MnO4
_chemical_formula_sum   'Rb8 Mn4 O16'
_cell_volume   512.79691127
_cell_formula_units_Z   4
loop_
 _symmetry_equiv_pos_site_id
 _symmetry_equiv_pos_as_xyz
  1  'x, y, z'
loop_
 _atom_site_type_symbol
 _atom_site_label
 _atom_site_symmetry_multiplicity
 _atom_site_fract_x
 _atom_site_fract_y
 _atom_site_fract_z
 _atom_site_occupancy
  Rb  Rb0  1  0.74999710  0.83550554  0.58930765  1
  Rb  Rb1  1  0.25000515  0.16450044  0.41070253  1
  Rb  Rb2  1  0.74999965  0.33550041  0.91069807  1
  Rb  Rb3  1  0.25000450  0.66449592  0.08930196  1
  Rb  Rb4  1  0.75001064  0.51522093  0.30453112  1
  Rb  Rb5  1  0.25001020  0.48477066  0.69547655  1
  Rb  Rb6  1  0.75000817  0.01519799  0.19547979  1
  Rb  Rb7  1  0.25000668  0.98478780  0.80451713  1
  Mn  Mn0  1  0.75002170  0.76716427  0.92034484  1
  Mn  Mn1  1  0.24999396  0.23285265  0.07964820  1
  Mn  Mn2  1  0.74999716  0.26717732  0.57965038  1
  Mn  Mn3  1  0.24997947  0.73280527  0.42034577  1
  O  O0  1  0.75001721  0.20445610  0.43198555  1
  O  O1  1  0.24999231  0.79551427  0.56801106  1
  O  O2  1  0.75005344  0.70445152  0.06801303  1
  O  O3  1  0.24999301  0.29556491  0.93197813  1
  O  O4  1  0.74999985  0.97256469  0.91654033  1
  O  O5  1  0.24995592  0.02745772  0.08345747  1
  O  O6  1  0.74997095  0.47257733  0.58344625  1
  O  O7  1  0.24997222  0.52740466  0.41655474  1
  O  O8  1  0.97132740  0.69198533  0.84953556  1
  O  O9  1  0.47129555  0.30802716  0.15046164  1
  O  O10  1  0.52869581  0.19199498  0.65045940  1
  O  O11  1  0.02866234  0.80801211  0.34955742  1
  O  O12  1  0.02868330  0.30803934  0.15045341  1
  O  O13  1  0.52872205  0.69197808  0.84953438  1
  O  O14  1  0.47130360  0.80798039  0.34955220  1
  O  O15  1  0.97132067  0.19201121  0.65045445  1
loop_
_geom_bond_atom_site_label_1
_geom_bond_atom_site_label_2
_geom_bond_distance
_geom_bond_site_symmetry_2
Mn0 O4 1.640849 1_555
Mn0 O13 1.645810 1_555
Mn0 O8 1.645843 1_555
Mn0 O2 1.650964 1_556
Mn1 O5 1.640806 1_555
Mn1 O9 1.645800 1_555
Mn1 O12 1.645870 1_555
Mn1 O3 1.650981 1_554
Mn2 O6 1.640845 1_555
Mn2 O15 1.645821 1_555
Mn2 O10 1.645822 1_555
Mn2 O0 1.650971 1_555
Mn3 O7 1.640849 1_555
Mn3 O11 1.645832 1_555
Mn3 O14 1.645837 1_555
Mn3 O1 1.650947 1_555
O0 Rb4 2.828937 1_555
O0 Rb6 2.938199 1_555
O0 Rb1 3.038880 1_655
O0 Rb1 3.039014 1_555
O0 Rb0 3.389773 1_545
O1 Rb5 2.828845 1_555
O1 Rb7 2.938265 1_555
O1 Rb0 3.038964 1_455
O1 Rb0 3.039011 1_555
O1 Rb1 3.389949 1_565
O2 Rb6 2.828925 1_565
O2 Rb4 2.938140 1_555
O2 Rb3 3.038650 1_655
O2 Rb3 3.039250 1_555
O2 Rb2 3.389805 1_554
O3 Rb7 2.829110 1_545
O3 Rb5 2.937887 1_555
O3 Rb2 3.038879 1_455
O3 Rb2 3.038974 1_555
O3 Rb3 3.389712 1_556
O4 Rb2 2.899109 1_565
O4 Rb6 2.991118 1_566
O4 Rb7 3.242734 1_555
O4 Rb7 3.242873 1_655
O5 Rb3 2.899318 1_545
O5 Rb7 2.991161 1_544
O5 Rb6 3.242548 1_455
O5 Rb6 3.243070 1_555
O6 Rb0 2.899056 1_555
O6 Rb4 2.990855 1_555
O6 Rb5 3.242637 1_555
O6 Rb5 3.243015 1_655
O7 Rb1 2.898862 1_555
O7 Rb5 2.990917 1_555
O7 Rb4 3.242551 1_455
O7 Rb4 3.243043 1_555
O8 Rb5 2.872951 1_655
O8 Rb7 2.918772 1_655
O8 Rb3 3.064937 1_656
O8 Rb2 3.210780 1_555
O8 Rb0 3.283098 1_555
O9 Rb4 2.872987 1_555
O9 Rb6 2.919031 1_555
O9 Rb2 3.065071 1_554
O9 Rb3 3.210543 1_555
O9 Rb1 3.283202 1_555
O10 Rb7 2.872897 1_545
O10 Rb5 2.918626 1_555
O10 Rb1 3.064910 1_555
O10 Rb0 3.210739 1_545
O10 Rb2 3.283136 1_555
O11 Rb6 2.872735 1_465
O11 Rb4 2.918620 1_455
O11 Rb0 3.064843 1_455
O11 Rb1 3.210815 1_565
O11 Rb3 3.283470 1_555
O12 Rb4 2.872877 1_455
O12 Rb6 2.919020 1_455
O12 Rb2 3.064844 1_454
O12 Rb3 3.210539 1_555
O12 Rb1 3.283320 1_555
O13 Rb5 2.872968 1_555
O13 Rb7 2.918915 1_555
O13 Rb3 3.065156 1_556
O13 Rb2 3.210581 1_555
O13 Rb0 3.283039 1_555
O14 Rb6 2.873089 1_565
O14 Rb4 2.918604 1_555
O14 Rb0 3.064924 1_555
O14 Rb1 3.210945 1_565
O14 Rb3 3.283170 1_555
O15 Rb7 2.872929 1_645
O15 Rb5 2.918540 1_655
O15 Rb1 3.064932 1_655
O15 Rb0 3.210893 1_545
O15 Rb2 3.283236 1_555
