# generated using pymatgen
data_CsPbBr3
_symmetry_space_group_name_H-M   'P 1'
_cell_length_a   8.10107841
_cell_length_b   8.45384704
_cell_length_c   11.87891123
_cell_angle_alpha   90.00000000
_cell_angle_beta   90.00000000
_cell_angle_gamma   90.00000000
_symmetry_Int_Tables_number   1
_chemical_formula_structural   CsPbBr3
_chemical_formula_sum   'Cs4 Pb4 Br12'
_cell_volume   813.53053480
_cell_formula_units_Z   4
loop_
 _symmetry_equiv_pos_site_id
 _symmetry_equiv_pos_as_xyz
  1  'x, y, z'
loop_
 _atom_site_type_symbol
 _atom_site_label
 _atom_site_symmetry_multiplicity
 _atom_site_fract_x
 _atom_site_fract_y
 _atom_site_fract_z
 _atom_site_occupancy
  Cs  Cs0  1  0.51945212  0.43983653  0.25000000  1
  Cs  Cs1  1  0.01945212  0.06016347  0.75000000  1
  Cs  Cs2  1  0.98054788  0.93983653  0.25000000  1
  Cs  Cs3  1  0.48054788  0.56016347  0.75000000  1
  Pb  Pb0  1  0.50000000  -0.00000000  0.50000000  1
  Pb  Pb1  1  0.00000000  0.50000000  0.00000000  1
  Pb  Pb2  1  0.00000000  0.50000000  0.50000000  1
  Pb  Pb3  1  0.50000000  -0.00000000  0.00000000  1
  Br  Br0  1  0.55966548  0.99374055  0.75000000  1
  Br  Br1  1  0.05966548  0.50625945  0.25000000  1
  Br  Br2  1  0.80279189  0.20102217  0.03170128  1
  Br  Br3  1  0.19720811  0.79897783  0.96829872  1
  Br  Br4  1  0.30279189  0.29897783  0.96829872  1
  Br  Br5  1  0.69720811  0.70102217  0.03170128  1
  Br  Br6  1  0.30279189  0.29897783  0.53170128  1
  Br  Br7  1  0.69720811  0.70102217  0.46829872  1
  Br  Br8  1  0.19720811  0.79897783  0.53170128  1
  Br  Br9  1  0.80279189  0.20102217  0.46829872  1
  Br  Br10  1  0.94033452  0.49374055  0.75000000  1
  Br  Br11  1  0.44033452  0.00625945  0.25000000  1
loop_
_geom_bond_atom_site_label_1
_geom_bond_atom_site_label_2
_geom_bond_distance
_geom_bond_site_symmetry_2
Br0 Pb3 3.009272 1_566
Br0 Pb0 3.009272 1_565
Br0 Cs3 3.721010 1_555
Br0 Cs1 3.766857 1_665
Br1 Pb2 3.009272 1_555
Br1 Pb1 3.009272 1_555
Br1 Cs2 3.721010 1_455
Br1 Cs0 3.766857 1_555
Br2 Pb3 3.007777 1_555
Br2 Pb1 3.013711 1_655
Br2 Cs2 3.697762 1_545
Br2 Cs1 3.961870 1_654
Br2 Cs0 4.008623 1_555
Br3 Pb3 3.007777 1_566
Br3 Pb1 3.013711 1_556
Br3 Cs1 3.697762 1_565
Br3 Cs2 3.961870 1_456
Br3 Cs3 4.008623 1_555
Br4 Pb1 3.007777 1_556
Br4 Pb3 3.013711 1_556
Br4 Cs3 3.697762 1_555
Br4 Cs0 3.961870 1_556
Br4 Cs1 4.008623 1_555
Br5 Pb1 3.007777 1_655
Br5 Pb3 3.013711 1_565
Br5 Cs0 3.697762 1_555
Br5 Cs3 3.961870 1_554
Br5 Cs2 4.008623 1_555
Br6 Pb2 3.007777 1_555
Br6 Pb0 3.013711 1_555
Br6 Cs3 3.697762 1_555
Br6 Cs0 3.961870 1_555
Br6 Cs1 4.008623 1_555
Br7 Pb2 3.007777 1_655
Br7 Pb0 3.013711 1_565
Br7 Cs0 3.697762 1_555
Br7 Cs3 3.961870 1_555
Br7 Cs2 4.008623 1_555
Br8 Pb0 3.007777 1_565
Br8 Pb2 3.013711 1_555
Br8 Cs1 3.697762 1_565
Br8 Cs2 3.961870 1_455
Br8 Cs3 4.008623 1_555
Br9 Pb0 3.007777 1_555
Br9 Pb2 3.013711 1_655
Br9 Cs2 3.697762 1_545
Br9 Cs1 3.961870 1_655
Br9 Cs0 4.008623 1_555
Br10 Pb2 3.009272 1_655
Br10 Pb1 3.009272 1_656
Br10 Cs1 3.721010 1_655
Br10 Cs3 3.766857 1_555
Br11 Pb3 3.009272 1_555
Br11 Pb0 3.009272 1_555
Br11 Cs0 3.721010 1_555
Br11 Cs2 3.766857 1_445
