# generated using pymatgen
data_Ce2SiS5
_symmetry_space_group_name_H-M   'P 1'
_cell_length_a   12.56266000
_cell_length_b   7.52507200
_cell_length_c   7.83951376
_cell_angle_alpha   78.55466911
_cell_angle_beta   90.00000000
_cell_angle_gamma   90.00000000
_symmetry_Int_Tables_number   1
_chemical_formula_structural   Ce2SiS5
_chemical_formula_sum   'Ce8 Si4 S20'
_cell_volume   726.37050432
_cell_formula_units_Z   4
loop_
 _symmetry_equiv_pos_site_id
 _symmetry_equiv_pos_as_xyz
  1  'x, y, z'
loop_
 _atom_site_type_symbol
 _atom_site_label
 _atom_site_symmetry_multiplicity
 _atom_site_fract_x
 _atom_site_fract_y
 _atom_site_fract_z
 _atom_site_occupancy
  Ce  Ce0  1  0.83223300  0.83799900  0.63681200  1
  Ce  Ce1  1  0.90516900  0.23713400  0.95583700  1
  Ce  Ce2  1  0.33223300  0.16200100  0.86318800  1
  Ce  Ce3  1  0.40516900  0.76286600  0.54416300  1
  Ce  Ce4  1  0.09483100  0.76286600  0.04416300  1
  Ce  Ce5  1  0.59483100  0.23713400  0.45583700  1
  Ce  Ce6  1  0.16776700  0.16200100  0.36318800  1
  Ce  Ce7  1  0.66776700  0.83799900  0.13681200  1
  Si  Si0  1  0.11750700  0.67010300  0.59561100  1
  Si  Si1  1  0.61750700  0.32989700  0.90438900  1
  Si  Si2  1  0.38249300  0.67010300  0.09561100  1
  Si  Si3  1  0.88249300  0.32989700  0.40438900  1
  S  S0  1  0.70439500  0.12435900  0.80485700  1
  S  S1  1  0.97058700  0.17400500  0.61437700  1
  S  S2  1  0.47058700  0.82599500  0.88562300  1
  S  S3  1  0.49764800  0.41959700  0.71688100  1
  S  S4  1  0.02941300  0.82599500  0.38562300  1
  S  S5  1  0.38121900  0.13825800  0.49950300  1
  S  S6  1  0.00235200  0.41959700  0.21688100  1
  S  S7  1  0.11878100  0.13825800  0.99950300  1
  S  S8  1  0.99764800  0.58040300  0.78311900  1
  S  S9  1  0.29560500  0.87564100  0.19514300  1
  S  S10  1  0.88121900  0.86174200  0.00049700  1
  S  S11  1  0.72942100  0.52665500  0.94841700  1
  S  S12  1  0.61878100  0.86174200  0.50049700  1
  S  S13  1  0.27057900  0.47334500  0.05158300  1
  S  S14  1  0.79560500  0.12435900  0.30485700  1
  S  S15  1  0.77057900  0.52665500  0.44841700  1
  S  S16  1  0.50235200  0.58040300  0.28311900  1
  S  S17  1  0.22942100  0.47334500  0.55158300  1
  S  S18  1  0.52941300  0.17400500  0.11437700  1
  S  S19  1  0.20439500  0.87564100  0.69514300  1
loop_
_geom_bond_atom_site_label_1
_geom_bond_atom_site_label_2
_geom_bond_distance
_geom_bond_site_symmetry_2
Ce0 S12 2.879014 1_555
Ce0 S8 2.917018 1_555
Ce0 S10 2.956627 1_556
Ce0 S1 3.044433 1_565
Ce0 S14 3.066270 1_565
Ce0 S15 3.105414 1_555
Ce0 S0 3.175664 1_565
Ce0 S4 3.176878 1_655
Ce0 S11 3.294447 1_555
Ce1 S7 2.787664 1_655
Ce1 S10 2.792917 1_546
Ce1 S8 2.909909 1_555
Ce1 S1 2.927701 1_555
Ce1 S6 2.946003 1_656
Ce1 S0 2.980190 1_555
Ce1 S14 3.029800 1_556
Ce1 S11 3.094242 1_555
Ce2 S7 2.879014 1_555
Ce2 S3 2.917018 1_555
Ce2 S5 2.956627 1_555
Ce2 S2 3.044433 1_545
Ce2 S9 3.066270 1_546
Ce2 S13 3.105414 1_556
Ce2 S19 3.175664 1_545
Ce2 S18 3.176878 1_556
Ce2 S17 3.294447 1_555
Ce3 S12 2.787664 1_555
Ce3 S5 2.792917 1_565
Ce3 S3 2.909909 1_555
Ce3 S2 2.927701 1_555
Ce3 S16 2.946003 1_555
Ce3 S19 2.980190 1_555
Ce3 S9 3.029800 1_555
Ce3 S17 3.094242 1_555
Ce4 S10 2.787664 1_455
Ce4 S7 2.792917 1_564
Ce4 S6 2.909909 1_555
Ce4 S4 2.927701 1_555
Ce4 S8 2.946003 1_454
Ce4 S9 2.980190 1_555
Ce4 S19 3.029800 1_554
Ce4 S13 3.094242 1_555
Ce5 S5 2.787664 1_555
Ce5 S12 2.792917 1_545
Ce5 S16 2.909909 1_555
Ce5 S18 2.927701 1_555
Ce5 S3 2.946003 1_555
Ce5 S14 2.980190 1_555
Ce5 S0 3.029800 1_555
Ce5 S15 3.094242 1_555
Ce6 S5 2.879014 1_555
Ce6 S6 2.917018 1_555
Ce6 S7 2.956627 1_554
Ce6 S4 3.044433 1_545
Ce6 S19 3.066270 1_545
Ce6 S17 3.105414 1_555
Ce6 S9 3.175664 1_545
Ce6 S1 3.176878 1_455
Ce6 S13 3.294447 1_555
Ce7 S10 2.879014 1_555
Ce7 S16 2.917018 1_555
Ce7 S12 2.956627 1_555
Ce7 S18 3.044433 1_565
Ce7 S0 3.066270 1_564
Ce7 S11 3.105414 1_554
Ce7 S14 3.175664 1_565
Ce7 S2 3.176878 1_554
Ce7 S15 3.294447 1_555
S0 Si1 2.161368 1_555
S1 Si3 2.131786 1_555
S2 Si2 2.131786 1_556
S3 Si1 2.118947 1_555
S4 Si0 2.131786 1_555
S6 Si3 2.118947 1_455
S8 Si0 2.118947 1_655
S9 Si2 2.161368 1_555
S11 Si1 2.119161 1_555
S13 Si2 2.119161 1_555
S14 Si3 2.161368 1_555
S15 Si3 2.119161 1_555
S16 Si2 2.118947 1_555
S17 Si0 2.119161 1_555
S18 Si1 2.131786 1_554
S19 Si0 2.161368 1_555
