# generated using pymatgen
data_BaCrF6
_symmetry_space_group_name_H-M   'P 1'
_cell_length_a   4.86250699
_cell_length_b   4.86250699
_cell_length_c   4.86250693
_cell_angle_alpha   98.34487656
_cell_angle_beta   98.34487656
_cell_angle_gamma   98.34486112
_symmetry_Int_Tables_number   1
_chemical_formula_structural   BaCrF6
_chemical_formula_sum   'Ba1 Cr1 F6'
_cell_volume   110.91362190
_cell_formula_units_Z   1
loop_
 _symmetry_equiv_pos_site_id
 _symmetry_equiv_pos_as_xyz
  1  'x, y, z'
loop_
 _atom_site_type_symbol
 _atom_site_label
 _atom_site_symmetry_multiplicity
 _atom_site_fract_x
 _atom_site_fract_y
 _atom_site_fract_z
 _atom_site_occupancy
  Ba  Ba0  1  0.50000000  0.50000000  0.50000000  1
  Cr  Cr0  1  -0.00000000  -0.00000000  -0.00000000  1
  F  F0  1  0.73089287  0.73089287  0.07741855  1
  F  F1  1  0.07741855  0.73089287  0.73089287  1
  F  F2  1  0.92258145  0.26910713  0.26910713  1
  F  F3  1  0.26910713  0.26910713  0.92258145  1
  F  F4  1  0.26910713  0.92258145  0.26910713  1
  F  F5  1  0.73089287  0.07741855  0.73089287  1
loop_
_geom_bond_atom_site_label_1
_geom_bond_atom_site_label_2
_geom_bond_distance
_geom_bond_site_symmetry_2
Ba0 F4 2.777876 1_555
Ba0 F2 2.777876 1_555
Ba0 F5 2.777876 1_555
Ba0 F1 2.777876 1_555
Ba0 F3 2.777876 1_555
Ba0 F0 2.777876 1_555
Ba0 F3 2.865021 1_554
Ba0 F0 2.865021 1_556
Ba0 F2 2.865021 1_455
Ba0 F4 2.865021 1_545
Ba0 F1 2.865021 1_655
Ba0 F5 2.865021 1_565
Cr0 F5 1.831721 1_454
Cr0 F1 1.831721 1_544
Cr0 F2 1.831721 1_455
Cr0 F4 1.831721 1_545
Cr0 F0 1.831721 1_445
Cr0 F3 1.831721 1_554
