# generated using pymatgen
data_K3Co2F7
_symmetry_space_group_name_H-M   'P 1'
_cell_length_a   10.80235222
_cell_length_b   10.80235222
_cell_length_c   10.80235222
_cell_angle_alpha   158.29968130
_cell_angle_beta   158.29968130
_cell_angle_gamma   30.87811146
_symmetry_Int_Tables_number   1
_chemical_formula_structural   K3Co2F7
_chemical_formula_sum   'K3 Co2 F7'
_cell_volume   172.21962401
_cell_formula_units_Z   1
loop_
 _symmetry_equiv_pos_site_id
 _symmetry_equiv_pos_as_xyz
  1  'x, y, z'
loop_
 _atom_site_type_symbol
 _atom_site_label
 _atom_site_symmetry_multiplicity
 _atom_site_fract_x
 _atom_site_fract_y
 _atom_site_fract_z
 _atom_site_occupancy
  K  K0  1  0.68342359  0.68342359  -0.00000000  1
  K  K1  1  0.50000000  0.50000000  -0.00000000  1
  K  K2  1  0.31657641  0.31657641  0.00000000  1
  Co  Co0  1  0.09597749  0.09597749  -0.00000000  1
  Co  Co1  1  0.90402251  0.90402251  0.00000000  1
  F  F0  1  0.09484025  0.59484025  0.50000000  1
  F  F1  1  0.80844193  0.80844193  -0.00000000  1
  F  F2  1  0.40515975  0.90515975  0.50000000  1
  F  F3  1  0.90515975  0.40515975  0.50000000  1
  F  F4  1  0.00000000  0.00000000  -0.00000000  1
  F  F5  1  0.19155807  0.19155807  0.00000000  1
  F  F6  1  0.59484025  0.09484025  0.50000000  1
loop_
_geom_bond_atom_site_label_1
_geom_bond_atom_site_label_2
_geom_bond_distance
_geom_bond_site_symmetry_2
Co0 F5 1.990473 1_555
Co0 F4 1.998739 1_555
Co0 F6 2.033585 1_555
Co0 F6 2.033585 1_454
Co0 F0 2.033585 1_555
Co0 F0 2.033585 1_544
Co1 F1 1.990473 1_555
Co1 F4 1.998739 1_665
Co1 F2 2.033585 1_655
Co1 F3 2.033585 1_554
Co1 F2 2.033585 1_554
Co1 F3 2.033585 1_565
F0 K0 2.745547 1_455
F0 K0 2.745547 1_556
F0 K1 2.834741 1_455
F0 K1 2.834741 1_556
F1 K0 2.603517 1_555
F1 K2 2.880714 1_666
F1 K2 2.880714 1_554
F1 K2 2.880714 1_565
F1 K2 2.880714 1_655
F2 K2 2.745547 1_555
F2 K2 2.745547 1_566
F2 K1 2.834741 1_566
F2 K1 2.834741 1_555
F3 K2 2.745547 1_555
F3 K2 2.745547 1_656
F3 K1 2.834741 1_656
F3 K1 2.834741 1_555
F4 K1 2.875729 1_556
F4 K1 2.875729 1_444
F4 K1 2.875729 1_545
F4 K1 2.875729 1_455
F5 K2 2.603517 1_555
F5 K0 2.880714 1_444
F5 K0 2.880714 1_455
F5 K0 2.880714 1_545
F5 K0 2.880714 1_556
F6 K0 2.745547 1_556
F6 K0 2.745547 1_545
F6 K1 2.834741 1_545
F6 K1 2.834741 1_556
