# generated using pymatgen
data_Rb2Mo3SO13
_symmetry_space_group_name_H-M   'P 1'
_cell_length_a   13.15989643
_cell_length_b   9.39459115
_cell_length_c   11.42366833
_cell_angle_alpha   61.27469895
_cell_angle_beta   90.00000000
_cell_angle_gamma   90.00000000
_symmetry_Int_Tables_number   1
_chemical_formula_structural   Rb2Mo3SO13
_chemical_formula_sum   'Rb8 Mo12 S4 O52'
_cell_volume   1238.51952786
_cell_formula_units_Z   4
loop_
 _symmetry_equiv_pos_site_id
 _symmetry_equiv_pos_as_xyz
  1  'x, y, z'
loop_
 _atom_site_type_symbol
 _atom_site_label
 _atom_site_symmetry_multiplicity
 _atom_site_fract_x
 _atom_site_fract_y
 _atom_site_fract_z
 _atom_site_occupancy
  Rb  Rb0  1  0.68371149  0.01859456  0.04511136  1
  Rb  Rb1  1  0.19138682  0.46521843  0.05202559  1
  Rb  Rb2  1  0.30861318  0.46521843  0.55202559  1
  Rb  Rb3  1  0.80861318  0.53478157  0.94797441  1
  Rb  Rb4  1  0.81628851  0.01859456  0.54511136  1
  Rb  Rb5  1  0.69138682  0.53478157  0.44797441  1
  Rb  Rb6  1  0.18371149  0.98140544  0.45488864  1
  Rb  Rb7  1  0.31628851  0.98140544  0.95488864  1
  Mo  Mo0  1  0.51883835  0.80654410  0.52471227  1
  Mo  Mo1  1  0.43678918  0.14699102  0.20041953  1
  Mo  Mo2  1  0.99123441  0.45621836  0.36703660  1
  Mo  Mo3  1  0.98116165  0.80654410  0.02471227  1
  Mo  Mo4  1  0.06321082  0.14699102  0.70041953  1
  Mo  Mo5  1  0.00876559  0.54378164  0.63296340  1
  Mo  Mo6  1  0.48116165  0.19345590  0.47528773  1
  Mo  Mo7  1  0.49123441  0.54378164  0.13296340  1
  Mo  Mo8  1  0.56321082  0.85300898  0.79958047  1
  Mo  Mo9  1  0.01883835  0.19345590  0.97528773  1
  Mo  Mo10  1  0.93678918  0.85300898  0.29958047  1
  Mo  Mo11  1  0.50876559  0.45621836  0.86703660  1
  S  S0  1  0.32992580  0.74958722  0.74944775  1
  S  S1  1  0.67007420  0.25041278  0.25055225  1
  S  S2  1  0.17007420  0.74958722  0.24944775  1
  S  S3  1  0.82992580  0.25041278  0.75055225  1
  O  O0  1  0.85290778  0.42546764  0.66348500  1
  O  O1  1  0.13030098  0.61417274  0.59814896  1
  O  O2  1  0.39594791  0.84419573  0.79371082  1
  O  O3  1  0.30878230  0.16379795  0.21485105  1
  O  O4  1  0.46207773  0.33074858  0.28306324  1
  O  O5  1  0.10405209  0.84419573  0.29371082  1
  O  O6  1  0.60405209  0.15580427  0.20628918  1
  O  O7  1  0.64460905  0.83049968  0.48602309  1
  O  O8  1  0.54239712  0.63928861  0.95185928  1
  O  O9  1  0.14709222  0.57453236  0.33651500  1
  O  O10  1  0.35290778  0.57453236  0.83651500  1
  O  O11  1  0.35828550  0.79456449  0.60924155  1
  O  O12  1  0.96346738  0.98862683  0.10893297  1
  O  O13  1  0.63030098  0.38582726  0.90185104  1
  O  O14  1  0.64171450  0.20543551  0.39075845  1
  O  O15  1  0.19121770  0.16379795  0.71485105  1
  O  O16  1  0.64709222  0.42546764  0.16348500  1
  O  O17  1  0.54862449  0.97412857  0.86992052  1
  O  O18  1  0.36969902  0.61417274  0.09814896  1
  O  O19  1  0.51821609  0.32751028  0.52603143  1
  O  O20  1  0.14171450  0.79456449  0.10924155  1
  O  O21  1  0.89594791  0.15580427  0.70628918  1
  O  O22  1  0.45569852  0.34450169  0.80303882  1
  O  O23  1  0.77519623  0.21705561  0.24038630  1
  O  O24  1  0.53792227  0.66925142  0.71693676  1
  O  O25  1  0.45137551  0.02587143  0.13007948  1
  O  O26  1  0.48178391  0.67248972  0.47396857  1
  O  O27  1  0.80878230  0.83620205  0.28514895  1
  O  O28  1  0.04239712  0.36071139  0.54814072  1
  O  O29  1  0.27519623  0.78294439  0.25961370  1
  O  O30  1  0.22480377  0.78294439  0.75961370  1
  O  O31  1  0.72480377  0.21705561  0.74038630  1
  O  O32  1  0.95569852  0.65549831  0.69696118  1
  O  O33  1  0.45760288  0.36071139  0.04814072  1
  O  O34  1  0.95137551  0.97412857  0.36992052  1
  O  O35  1  0.53653262  0.98862683  0.60893297  1
  O  O36  1  0.85539095  0.83049968  0.98602309  1
  O  O37  1  0.85828550  0.20543551  0.89075845  1
  O  O38  1  0.86969902  0.38582726  0.40185104  1
  O  O39  1  0.54430148  0.65549831  0.19696118  1
  O  O40  1  0.98178391  0.32751028  0.02603143  1
  O  O41  1  0.35539095  0.16950032  0.51397691  1
  O  O42  1  0.14460905  0.16950032  0.01397691  1
  O  O43  1  0.46346738  0.01137317  0.39106703  1
  O  O44  1  0.96207773  0.66925142  0.21693676  1
  O  O45  1  0.04430148  0.34450169  0.30303882  1
  O  O46  1  0.03653262  0.01137317  0.89106703  1
  O  O47  1  0.69121770  0.83620205  0.78514895  1
  O  O48  1  0.04862449  0.02587143  0.63007948  1
  O  O49  1  0.95760288  0.63928861  0.45185928  1
  O  O50  1  0.03792227  0.33074858  0.78306324  1
  O  O51  1  0.01821609  0.67248972  0.97396857  1
loop_
_geom_bond_atom_site_label_1
_geom_bond_atom_site_label_2
_geom_bond_distance
_geom_bond_site_symmetry_2
Mo0 O26 1.691626 1_555
Mo0 O7 1.699950 1_555
Mo0 O43 1.934114 1_565
Mo0 O24 1.956074 1_555
Mo0 O11 2.303221 1_555
Mo0 O35 2.342640 1_555
Mo1 O25 1.690012 1_555
Mo1 O3 1.707297 1_555
Mo1 O33 1.942982 1_555
Mo1 O43 1.955134 1_555
Mo1 O6 2.204950 1_555
Mo1 O4 2.355607 1_555
Mo2 O45 1.691526 1_655
Mo2 O38 1.703155 1_555
Mo2 O28 1.937604 1_655
Mo2 O44 1.947868 1_555
Mo2 O9 2.278466 1_655
Mo2 O49 2.386352 1_555
Mo3 O51 1.691626 1_654
Mo3 O36 1.699950 1_554
Mo3 O46 1.934114 1_664
Mo3 O44 1.956074 1_555
Mo3 O20 2.303221 1_655
Mo3 O12 2.342640 1_555
Mo4 O48 1.690012 1_555
Mo4 O15 1.707297 1_555
Mo4 O28 1.942982 1_555
Mo4 O46 1.955134 1_555
Mo4 O21 2.204950 1_455
Mo4 O50 2.355607 1_555
Mo5 O32 1.691526 1_455
Mo5 O1 1.703155 1_555
Mo5 O49 1.937604 1_455
Mo5 O50 1.947868 1_555
Mo5 O0 2.278466 1_455
Mo5 O28 2.386352 1_555
Mo6 O19 1.691626 1_555
Mo6 O41 1.699950 1_555
Mo6 O35 1.934114 1_545
Mo6 O4 1.956074 1_555
Mo6 O14 2.303221 1_555
Mo6 O43 2.342640 1_555
Mo7 O39 1.691526 1_555
Mo7 O18 1.703155 1_555
Mo7 O8 1.937604 1_554
Mo7 O4 1.947868 1_555
Mo7 O16 2.278466 1_555
Mo7 O33 2.386352 1_555
Mo8 O17 1.690012 1_555
Mo8 O47 1.707297 1_555
Mo8 O8 1.942982 1_555
Mo8 O35 1.955134 1_555
Mo8 O2 2.204950 1_555
Mo8 O24 2.355607 1_555
Mo9 O40 1.691626 1_456
Mo9 O42 1.699950 1_556
Mo9 O12 1.934114 1_446
Mo9 O50 1.956074 1_555
Mo9 O37 2.303221 1_455
Mo9 O46 2.342640 1_555
Mo10 O34 1.690012 1_555
Mo10 O27 1.707297 1_555
Mo10 O49 1.942982 1_555
Mo10 O12 1.955134 1_555
Mo10 O5 2.204950 1_655
Mo10 O44 2.355607 1_555
Mo11 O22 1.691526 1_555
Mo11 O13 1.703155 1_555
Mo11 O33 1.937604 1_556
Mo11 O24 1.947868 1_555
Mo11 O10 2.278466 1_555
Mo11 O8 2.386352 1_555
O0 S3 1.487635 1_555
O0 Rb5 3.033748 1_555
O1 Rb2 2.907054 1_555
O1 Rb6 3.106072 1_555
O2 S0 1.494170 1_555
O2 Rb7 2.903807 1_555
O3 Rb6 2.940731 1_545
O3 Rb1 2.966869 1_555
O5 S2 1.494170 1_555
O5 Rb6 2.903807 1_555
O6 S1 1.494170 1_555
O6 Rb0 2.903807 1_555
O7 Rb5 3.073550 1_555
O7 Rb4 3.135136 1_565
O9 S2 1.487635 1_555
O9 Rb2 3.033748 1_555
O10 S0 1.487635 1_555
O10 Rb1 3.033748 1_556
O11 S0 1.494203 1_555
O11 Rb6 2.914291 1_555
O13 Rb3 2.907054 1_555
O13 Rb0 3.106072 1_556
O14 S1 1.494203 1_555
O14 Rb4 2.914291 1_555
O15 Rb7 2.940731 1_545
O15 Rb2 2.966869 1_555
O16 S1 1.487635 1_555
O16 Rb3 3.033748 1_554
O17 Rb0 2.853723 1_566
O17 Rb7 3.218544 1_555
O18 Rb1 2.907054 1_555
O18 Rb7 3.106072 1_554
O19 Rb5 2.848025 1_555
O19 Rb2 3.120841 1_555
O20 S2 1.494203 1_555
O20 Rb7 2.914291 1_554
O21 S3 1.494170 1_555
O21 Rb4 2.903807 1_555
O22 Rb2 3.182678 1_555
O22 Rb7 3.510421 1_545
O23 S1 1.435429 1_555
O23 Rb4 3.106107 1_555
O23 Rb3 3.267608 1_554
O25 Rb7 2.853723 1_544
O25 Rb0 3.218544 1_555
O26 Rb2 2.848025 1_555
O26 Rb5 3.120841 1_555
O27 Rb0 2.940731 1_565
O27 Rb5 2.966869 1_555
O29 S2 1.435429 1_555
O29 Rb7 3.106107 1_554
O29 Rb2 3.267608 1_555
O30 S0 1.435429 1_555
O30 Rb6 3.106107 1_555
O30 Rb1 3.267608 1_556
O31 S3 1.435429 1_555
O31 Rb0 3.106107 1_556
O31 Rb5 3.267608 1_555
O32 Rb3 3.182678 1_555
O32 Rb4 3.510421 1_565
O34 Rb4 2.853723 1_565
O34 Rb6 3.218544 1_655
O36 Rb3 3.073550 1_555
O36 Rb0 3.135136 1_566
O37 S3 1.494203 1_555
O37 Rb0 2.914291 1_556
O38 Rb5 2.907054 1_555
O38 Rb4 3.106072 1_555
O39 Rb5 3.182678 1_555
O39 Rb0 3.510421 1_565
O40 Rb3 2.848025 1_554
O40 Rb1 3.120841 1_655
O41 Rb2 3.073550 1_555
O41 Rb6 3.135136 1_545
O42 Rb1 3.073550 1_555
O42 Rb7 3.135136 1_544
O45 Rb1 3.182678 1_555
O45 Rb6 3.510421 1_545
O47 Rb4 2.940731 1_565
O47 Rb3 2.966869 1_555
O48 Rb6 2.853723 1_545
O48 Rb4 3.218544 1_455
O51 Rb1 2.848025 1_556
O51 Rb3 3.120841 1_455
