# generated using pymatgen
data_NaSrFeF6
_symmetry_space_group_name_H-M   'P 1'
_cell_length_a   5.47359500
_cell_length_b   9.46797900
_cell_length_c   10.51844500
_cell_angle_alpha   90.00000000
_cell_angle_beta   90.00000000
_cell_angle_gamma   90.00000000
_symmetry_Int_Tables_number   1
_chemical_formula_structural   NaSrFeF6
_chemical_formula_sum   'Na4 Sr4 Fe4 F24'
_cell_volume   545.10665792
_cell_formula_units_Z   4
loop_
 _symmetry_equiv_pos_site_id
 _symmetry_equiv_pos_as_xyz
  1  'x, y, z'
loop_
 _atom_site_type_symbol
 _atom_site_label
 _atom_site_symmetry_multiplicity
 _atom_site_fract_x
 _atom_site_fract_y
 _atom_site_fract_z
 _atom_site_occupancy
  Na  Na0  1  0.04274400  0.64740700  0.08427300  1
  Na  Na1  1  0.54274400  0.85259300  0.91572700  1
  Na  Na2  1  0.45725600  0.35259300  0.58427300  1
  Na  Na3  1  0.95725600  0.14740700  0.41572700  1
  Sr  Sr0  1  0.49304000  0.81516100  0.32327000  1
  Sr  Sr1  1  0.50696000  0.31516100  0.17673000  1
  Sr  Sr2  1  0.00696000  0.18483900  0.82327000  1
  Sr  Sr3  1  0.99304000  0.68483900  0.67673000  1
  Fe  Fe0  1  0.03683700  0.00076000  0.12630300  1
  Fe  Fe1  1  0.53683700  0.49924000  0.87369700  1
  Fe  Fe2  1  0.96316300  0.50076000  0.37369700  1
  Fe  Fe3  1  0.46316300  0.99924000  0.62630300  1
  F  F0  1  0.21009200  0.62252900  0.29578900  1
  F  F1  1  0.14030000  0.49610700  0.53449400  1
  F  F2  1  0.78840500  0.64328900  0.91305300  1
  F  F3  1  0.71159500  0.35671100  0.41305300  1
  F  F4  1  0.85970000  0.99610700  0.96550600  1
  F  F5  1  0.78109600  0.65947700  0.45166400  1
  F  F6  1  0.34129800  0.66153400  0.81760300  1
  F  F7  1  0.15870200  0.33846600  0.31760300  1
  F  F8  1  0.64030000  0.00389300  0.46550600  1
  F  F9  1  0.35970000  0.50389300  0.03449400  1
  F  F10  1  0.21939200  0.02115300  0.28557300  1
  F  F11  1  0.28109600  0.84052300  0.54833600  1
  F  F12  1  0.21890400  0.15947700  0.04833600  1
  F  F13  1  0.78060800  0.52115300  0.21442700  1
  F  F14  1  0.71890400  0.34052300  0.95166400  1
  F  F15  1  0.28060800  0.97884700  0.78557300  1
  F  F16  1  0.71939200  0.47884700  0.71442700  1
  F  F17  1  0.78990800  0.12252900  0.20421100  1
  F  F18  1  0.21159500  0.14328900  0.58694700  1
  F  F19  1  0.28990800  0.37747100  0.79578900  1
  F  F20  1  0.28840500  0.85671100  0.08694700  1
  F  F21  1  0.71009200  0.87747100  0.70421100  1
  F  F22  1  0.65870200  0.16153400  0.68239700  1
  F  F23  1  0.84129800  0.83846600  0.18239700  1
loop_
_geom_bond_atom_site_label_1
_geom_bond_atom_site_label_2
_geom_bond_distance
_geom_bond_site_symmetry_2
F0 Fe2 1.956405 1_455
F0 Sr0 2.410090 1_555
F0 Na0 2.417509 1_555
F1 Fe2 1.950034 1_455
F1 Na2 2.265016 1_555
F1 Sr3 2.465983 1_455
F2 Fe1 1.981802 1_555
F2 Na0 2.276639 1_656
F2 Na1 2.394984 1_555
F2 Sr3 2.754690 1_555
F3 Fe2 1.981802 1_555
F3 Na2 2.276639 1_555
F3 Na3 2.394984 1_555
F3 Sr1 2.754690 1_555
F4 Fe0 1.950034 1_666
F4 Na1 2.265016 1_555
F4 Sr2 2.465983 1_665
F5 Fe2 1.980878 1_555
F5 Sr0 2.546089 1_555
F5 Sr3 2.647225 1_555
F6 Fe1 1.963364 1_555
F6 Na1 2.356550 1_555
F6 Sr3 2.424459 1_455
F7 Fe2 1.963364 1_455
F7 Na3 2.356550 1_455
F7 Sr1 2.424459 1_555
F8 Fe3 1.950034 1_545
F8 Na3 2.265016 1_555
F8 Sr0 2.465983 1_545
F9 Fe1 1.950034 1_554
F9 Na0 2.265016 1_555
F9 Sr1 2.465983 1_555
F10 Fe0 1.960174 1_555
F10 Na3 2.315566 1_455
F10 Sr0 2.490888 1_545
F11 Fe3 1.980878 1_555
F11 Sr3 2.546089 1_455
F11 Sr0 2.647225 1_555
F12 Fe0 1.980878 1_555
F12 Sr1 2.546089 1_555
F12 Sr2 2.647225 1_554
F13 Fe2 1.960174 1_555
F13 Na0 2.315566 1_655
F13 Sr1 2.490888 1_555
F14 Fe1 1.980878 1_555
F14 Sr2 2.546089 1_655
F14 Sr1 2.647225 1_556
F15 Fe3 1.960174 1_555
F15 Na1 2.315566 1_555
F15 Sr2 2.490888 1_565
F16 Fe1 1.960174 1_555
F16 Na2 2.315566 1_555
F16 Sr3 2.490888 1_555
F17 Fe0 1.956405 1_655
F17 Sr1 2.410090 1_555
F17 Na3 2.417509 1_555
F18 Fe3 1.981802 1_545
F18 Na3 2.276639 1_455
F18 Na2 2.394984 1_555
F18 Sr2 2.754690 1_555
F19 Fe1 1.956405 1_555
F19 Sr2 2.410090 1_555
F19 Na2 2.417509 1_555
F20 Fe0 1.981802 1_565
F20 Na1 2.276639 1_554
F20 Na0 2.394984 1_555
F20 Sr0 2.754690 1_555
F21 Fe3 1.956405 1_555
F21 Sr3 2.410090 1_555
F21 Na1 2.417509 1_555
F22 Fe3 1.963364 1_545
F22 Na2 2.356550 1_555
F22 Sr2 2.424459 1_655
F23 Fe0 1.963364 1_665
F23 Na0 2.356550 1_655
F23 Sr0 2.424459 1_555
