# generated using pymatgen
data_Hg2SeO3
_symmetry_space_group_name_H-M   'P 1'
_cell_length_a   5.03493381
_cell_length_b   9.93756849
_cell_length_c   9.93756863
_cell_angle_alpha   110.88474001
_cell_angle_beta   90.00000000
_cell_angle_gamma   90.00000000
_symmetry_Int_Tables_number   1
_chemical_formula_structural   Hg2SeO3
_chemical_formula_sum   'Hg8 Se4 O12'
_cell_volume   464.55820672
_cell_formula_units_Z   4
loop_
 _symmetry_equiv_pos_site_id
 _symmetry_equiv_pos_as_xyz
  1  'x, y, z'
loop_
 _atom_site_type_symbol
 _atom_site_label
 _atom_site_symmetry_multiplicity
 _atom_site_fract_x
 _atom_site_fract_y
 _atom_site_fract_z
 _atom_site_occupancy
  Hg  Hg0  1  0.45545427  0.64315242  0.13072502  1
  Hg  Hg1  1  0.95545427  0.35684758  0.86927498  1
  Hg  Hg2  1  0.97631817  0.80330457  0.97066118  1
  Hg  Hg3  1  0.45545427  0.86927498  0.35684758  1
  Hg  Hg4  1  0.97631817  0.02933882  0.19669543  1
  Hg  Hg5  1  0.47631817  0.97066118  0.80330457  1
  Hg  Hg6  1  0.47631817  0.19669543  0.02933882  1
  Hg  Hg7  1  0.95545427  0.13072502  0.64315242  1
  Se  Se0  1  0.41413268  0.21706107  0.42920582  1
  Se  Se1  1  0.91413268  0.78293893  0.57079418  1
  Se  Se2  1  0.41413268  0.57079418  0.78293893  1
  Se  Se3  1  0.91413268  0.42920582  0.21706107  1
  O  O0  1  0.48704597  0.48870459  0.90639460  1
  O  O1  1  0.07398326  0.19654996  0.41114088  1
  O  O2  1  0.48704597  0.09360540  0.51129541  1
  O  O3  1  0.01156665  0.87519829  0.74110365  1
  O  O4  1  0.98704597  0.90639460  0.48870459  1
  O  O5  1  0.98704597  0.51129541  0.09360540  1
  O  O6  1  0.51156665  0.74110365  0.87519829  1
  O  O7  1  0.01156665  0.25889635  0.12480171  1
  O  O8  1  0.57398326  0.80345004  0.58885912  1
  O  O9  1  0.57398326  0.41114088  0.19654996  1
  O  O10  1  0.07398326  0.58885912  0.80345004  1
  O  O11  1  0.51156665  0.12480171  0.25889635  1
loop_
_geom_bond_atom_site_label_1
_geom_bond_atom_site_label_2
_geom_bond_distance
_geom_bond_site_symmetry_2
Hg0 O0 2.216137 1_554
Hg0 O5 2.659043 1_455
Hg1 O5 2.216137 1_556
Hg1 O0 2.659043 1_555
Hg2 O10 2.240458 1_655
Hg2 O6 2.517843 1_555
Hg2 O3 2.628315 1_655
Hg3 O2 2.216137 1_565
Hg3 O4 2.659043 1_455
Hg4 O1 2.240458 1_655
Hg4 O11 2.517843 1_555
Hg4 O7 2.628315 1_655
Hg5 O8 2.240458 1_555
Hg5 O3 2.517843 1_555
Hg5 O6 2.628315 1_555
Hg6 O9 2.240458 1_555
Hg6 O7 2.517843 1_555
Hg6 O11 2.628315 1_555
Hg7 O4 2.216137 1_545
Hg7 O2 2.659043 1_555
O0 Se2 1.737522 1_555
O1 Se0 1.726495 1_555
O2 Se0 1.737522 1_555
O3 Se1 1.685035 1_455
O4 Se1 1.737522 1_555
O5 Se3 1.737522 1_555
O6 Se2 1.685034 1_555
O7 Se3 1.685034 1_455
O8 Se1 1.726495 1_555
O9 Se3 1.726495 1_555
O10 Se2 1.726495 1_555
O11 Se0 1.685035 1_555
