# generated using pymatgen
data_MnP4O11
_symmetry_space_group_name_H-M   'P 1'
_cell_length_a   22.73609900
_cell_length_b   5.58050000
_cell_length_c   7.63681999
_cell_angle_alpha   70.18813043
_cell_angle_beta   90.00000000
_cell_angle_gamma   90.00000000
_symmetry_Int_Tables_number   1
_chemical_formula_structural   MnP4O11
_chemical_formula_sum   'Mn4 P16 O44'
_cell_volume   911.59893249
_cell_formula_units_Z   4
loop_
 _symmetry_equiv_pos_site_id
 _symmetry_equiv_pos_as_xyz
  1  'x, y, z'
loop_
 _atom_site_type_symbol
 _atom_site_label
 _atom_site_symmetry_multiplicity
 _atom_site_fract_x
 _atom_site_fract_y
 _atom_site_fract_z
 _atom_site_occupancy
  Mn  Mn0  1  0.61343000  0.00389000  0.62825900  1
  Mn  Mn1  1  0.11343000  0.99611000  0.87174100  1
  Mn  Mn2  1  0.38657000  0.99611000  0.37174100  1
  Mn  Mn3  1  0.88657000  0.00389000  0.12825900  1
  P  P0  1  0.53389600  0.40759900  0.79238400  1
  P  P1  1  0.03389600  0.59240100  0.70761600  1
  P  P2  1  0.46610400  0.59240100  0.20761600  1
  P  P3  1  0.96610400  0.40759900  0.29238400  1
  P  P4  1  0.42770200  0.68469000  0.81929100  1
  P  P5  1  0.92770200  0.31531000  0.68070900  1
  P  P6  1  0.57229800  0.31531000  0.18070900  1
  P  P7  1  0.07229800  0.68469000  0.31929100  1
  P  P8  1  0.32092500  0.33270600  0.94529500  1
  P  P9  1  0.82092500  0.66729400  0.55470500  1
  P  P10  1  0.67907500  0.66729400  0.05470500  1
  P  P11  1  0.17907500  0.33270600  0.44529500  1
  P  P12  1  0.19629000  0.40338600  0.03566100  1
  P  P13  1  0.69629000  0.59661400  0.46433900  1
  P  P14  1  0.80371000  0.59661400  0.96433900  1
  P  P15  1  0.30371000  0.40338600  0.53566100  1
  O  O0  1  0.54336300  0.22920800  0.68922100  1
  O  O1  1  0.04336300  0.77079200  0.81077900  1
  O  O2  1  0.45663700  0.77079200  0.31077900  1
  O  O3  1  0.95663700  0.22920800  0.18922100  1
  O  O4  1  0.56251000  0.66068300  0.74683600  1
  O  O5  1  0.06251000  0.33931700  0.75316400  1
  O  O6  1  0.43749000  0.33931700  0.25316400  1
  O  O7  1  0.93749000  0.66068300  0.24683600  1
  O  O8  1  0.45363700  0.75657000  0.98609300  1
  O  O9  1  0.95363700  0.24343000  0.51390700  1
  O  O10  1  0.54636300  0.24343000  0.01390700  1
  O  O11  1  0.04636300  0.75657000  0.48609300  1
  O  O12  1  0.46202300  0.44438200  0.80490200  1
  O  O13  1  0.96202300  0.55561800  0.69509800  1
  O  O14  1  0.53797700  0.55561800  0.19509800  1
  O  O15  1  0.03797700  0.44438200  0.30490200  1
  O  O16  1  0.42489100  0.91079300  0.65021800  1
  O  O17  1  0.92489100  0.08920700  0.84978200  1
  O  O18  1  0.57510900  0.08920700  0.34978200  1
  O  O19  1  0.07510900  0.91079300  0.15021800  1
  O  O20  1  0.36393500  0.57218900  0.88576900  1
  O  O21  1  0.86393500  0.42781100  0.61423100  1
  O  O22  1  0.63606500  0.42781100  0.11423100  1
  O  O23  1  0.13606500  0.57218900  0.38576900  1
  O  O24  1  0.34375800  0.10389800  0.09079800  1
  O  O25  1  0.84375800  0.89610200  0.40920200  1
  O  O26  1  0.65624200  0.89610200  0.90920200  1
  O  O27  1  0.15624200  0.10389800  0.59079800  1
  O  O28  1  0.26672500  0.46844600  0.00186900  1
  O  O29  1  0.76672500  0.53155400  0.49813100  1
  O  O30  1  0.73327500  0.53155400  0.99813100  1
  O  O31  1  0.23327500  0.46844600  0.50186900  1
  O  O32  1  0.30460800  0.27267800  0.76438100  1
  O  O33  1  0.80460800  0.72732200  0.73561900  1
  O  O34  1  0.69539200  0.72732200  0.23561900  1
  O  O35  1  0.19539200  0.27267800  0.26438100  1
  O  O36  1  0.18238000  0.19848400  0.95912700  1
  O  O37  1  0.68238000  0.80151600  0.54087300  1
  O  O38  1  0.81762000  0.80151600  0.04087300  1
  O  O39  1  0.31762000  0.19848400  0.45912700  1
  O  O40  1  0.16501700  0.65041500  0.98239800  1
  O  O41  1  0.66501700  0.34958500  0.51760200  1
  O  O42  1  0.83498300  0.34958500  0.01760200  1
  O  O43  1  0.33498300  0.65041500  0.48239800  1
loop_
_geom_bond_atom_site_label_1
_geom_bond_atom_site_label_2
_geom_bond_distance
_geom_bond_site_symmetry_2
Mn0 O4 2.157063 1_545
Mn0 O37 2.165459 1_545
Mn0 O41 2.169407 1_555
Mn0 O0 2.175405 1_555
Mn0 O18 2.195949 1_555
Mn0 O26 2.244478 1_545
Mn1 O5 2.157063 1_565
Mn1 O36 2.165459 1_565
Mn1 O40 2.169407 1_555
Mn1 O1 2.175405 1_555
Mn1 O19 2.195949 1_556
Mn1 O27 2.244478 1_565
Mn2 O6 2.157063 1_565
Mn2 O39 2.165459 1_565
Mn2 O43 2.169407 1_555
Mn2 O2 2.175405 1_555
Mn2 O16 2.195949 1_555
Mn2 O24 2.244478 1_565
Mn3 O7 2.157063 1_545
Mn3 O38 2.165459 1_545
Mn3 O42 2.169407 1_555
Mn3 O3 2.175405 1_555
Mn3 O17 2.195949 1_554
Mn3 O25 2.244478 1_545
O0 P0 1.479767 1_555
O1 P1 1.479767 1_555
O2 P2 1.479767 1_555
O3 P3 1.479767 1_555
O4 P0 1.485231 1_555
O5 P1 1.485231 1_555
O6 P2 1.485231 1_555
O7 P3 1.485231 1_555
O8 P4 1.574049 1_555
O8 P2 1.652579 1_556
O9 P5 1.574049 1_555
O9 P3 1.652579 1_555
O10 P6 1.574049 1_555
O10 P0 1.652579 1_554
O11 P7 1.574049 1_555
O11 P1 1.652579 1_555
O12 P4 1.587218 1_555
O12 P0 1.653752 1_555
O13 P5 1.587218 1_555
O13 P1 1.653752 1_655
O14 P6 1.587218 1_555
O14 P2 1.653752 1_555
O15 P7 1.587218 1_555
O15 P3 1.653752 1_455
O16 P4 1.469330 1_555
O17 P5 1.469330 1_555
O18 P6 1.469330 1_555
O19 P7 1.469330 1_555
O20 P8 1.592839 1_555
O20 P4 1.593044 1_555
O21 P9 1.592839 1_555
O21 P5 1.593044 1_555
O22 P10 1.592839 1_555
O22 P6 1.593044 1_555
O23 P11 1.592839 1_555
O23 P7 1.593044 1_555
O24 P8 1.474051 1_554
O25 P9 1.474051 1_555
O26 P10 1.474051 1_556
O27 P11 1.474051 1_555
O28 P8 1.581413 1_554
O28 P12 1.642997 1_555
O29 P9 1.581413 1_555
O29 P13 1.642997 1_555
O30 P10 1.581413 1_556
O30 P14 1.642997 1_555
O31 P11 1.581413 1_555
O31 P15 1.642997 1_555
O32 P8 1.572391 1_555
O32 P15 1.649169 1_555
O33 P9 1.572391 1_555
O33 P14 1.649169 1_555
O34 P10 1.572391 1_555
O34 P13 1.649169 1_555
O35 P11 1.572391 1_555
O35 P12 1.649169 1_555
O36 P12 1.483966 1_556
O37 P13 1.483966 1_555
O38 P14 1.483966 1_554
O39 P15 1.483966 1_555
O40 P12 1.480302 1_556
O41 P13 1.480302 1_555
O42 P14 1.480302 1_554
O43 P15 1.480302 1_555
