# generated using pymatgen
data_BaCr2O4
_symmetry_space_group_name_H-M   'P 1'
_cell_length_a   5.19061902
_cell_length_b   5.97844667
_cell_length_c   12.32684033
_cell_angle_alpha   90.00006833
_cell_angle_beta   90.00005198
_cell_angle_gamma   90.00001534
_symmetry_Int_Tables_number   1
_chemical_formula_structural   BaCr2O4
_chemical_formula_sum   'Ba4 Cr8 O16'
_cell_volume   382.52452444
_cell_formula_units_Z   4
loop_
 _symmetry_equiv_pos_site_id
 _symmetry_equiv_pos_as_xyz
  1  'x, y, z'
loop_
 _atom_site_type_symbol
 _atom_site_label
 _atom_site_symmetry_multiplicity
 _atom_site_fract_x
 _atom_site_fract_y
 _atom_site_fract_z
 _atom_site_occupancy
  Ba  Ba0  1  0.86579200  0.25000068  0.75000049  1
  Ba  Ba1  1  0.13306665  0.75000007  0.24999862  1
  Ba  Ba2  1  0.55380850  0.25000042  0.24999982  1
  Ba  Ba3  1  0.44508425  0.75000050  0.75000040  1
  Cr  Cr0  1  0.49842159  0.25000119  0.50511446  1
  Cr  Cr1  1  0.49841457  0.24999898  0.99488490  1
  Cr  Cr2  1  0.50165040  0.74999704  0.49497201  1
  Cr  Cr3  1  0.50165305  0.74999966  0.00503047  1
  Cr  Cr4  1  0.00003165  0.50004664  0.49995620  1
  Cr  Cr5  1  0.00002342  -0.00005294  0.00004324  1
  Cr  Cr6  1  0.00003232  -0.00004312  0.49995631  1
  Cr  Cr7  1  0.00002595  0.50004626  0.00004327  1
  O  O0  1  0.83104285  0.75000110  0.41552642  1
  O  O1  1  0.83103668  0.74999958  0.08447512  1
  O  O2  1  0.16922230  0.25000117  0.58445483  1
  O  O3  1  0.16921755  0.24999869  0.91554550  1
  O  O4  1  0.16662838  0.75000147  0.57919112  1
  O  O5  1  0.16661517  0.74999979  0.92080732  1
  O  O6  1  0.83341549  0.25000058  0.42074846  1
  O  O7  1  0.83340597  0.24999960  0.07925212  1
  O  O8  1  0.66559682  0.50283802  0.58588345  1
  O  O9  1  0.66559116  0.99716569  0.91411552  1
  O  O10  1  0.33476246  0.00287650  0.41417881  1
  O  O11  1  0.33475601  0.49712289  0.08582143  1
  O  O12  1  0.33476290  0.49712667  0.41417906  1
  O  O13  1  0.33475589  0.00287509  0.08582155  1
  O  O14  1  0.66559710  0.99716917  0.58588368  1
  O  O15  1  0.66559094  0.50283061  0.91411541  1
loop_
_geom_bond_atom_site_label_1
_geom_bond_atom_site_label_2
_geom_bond_distance
_geom_bond_site_symmetry_2
Ba0 O3 2.577742 1_655
Ba0 O2 2.577766 1_655
Ba0 O15 2.730786 1_555
Ba0 O14 2.730795 1_545
Ba0 O9 2.730806 1_545
Ba0 O8 2.730820 1_555
Ba1 O1 2.573112 1_455
Ba1 O0 2.573137 1_455
Ba1 O13 2.734453 1_565
Ba1 O11 2.734460 1_555
Ba1 O12 2.734492 1_555
Ba1 O10 2.734496 1_565
Ba2 O7 2.556624 1_555
Ba2 O6 2.556660 1_555
Ba2 O10 2.751601 1_555
Ba2 O11 2.751603 1_555
Ba2 O12 2.751607 1_555
Ba2 O13 2.751608 1_555
Ba3 O4 2.553889 1_555
Ba3 O5 2.553906 1_555
Ba3 O9 2.754292 1_555
Ba3 O15 2.754309 1_555
Ba3 O8 2.754314 1_555
Ba3 O14 2.754335 1_555
Cr0 O2 1.968842 1_555
Cr0 O14 2.007242 1_545
Cr0 O8 2.007260 1_555
Cr0 O6 2.026092 1_555
Cr0 O10 2.039836 1_555
Cr0 O12 2.039840 1_555
Cr1 O3 1.968824 1_555
Cr1 O15 2.007245 1_555
Cr1 O9 2.007251 1_545
Cr1 O7 2.026087 1_556
Cr1 O11 2.039839 1_556
Cr1 O13 2.039842 1_556
Cr2 O0 1.970356 1_555
Cr2 O12 2.006912 1_555
Cr2 O10 2.006958 1_565
Cr2 O4 2.025288 1_555
Cr2 O8 2.040445 1_555
Cr2 O14 2.040502 1_555
Cr3 O1 1.970309 1_555
Cr3 O13 2.006946 1_565
Cr3 O11 2.006953 1_555
Cr3 O5 2.025383 1_554
Cr3 O9 2.040482 1_554
Cr3 O15 2.040493 1_554
Cr4 O4 1.983633 1_555
Cr4 O6 1.983923 1_455
Cr4 O0 2.021292 1_455
Cr4 O2 2.022586 1_555
Cr4 O8 2.033628 1_455
Cr4 O12 2.033985 1_555
Cr5 O5 1.983595 1_544
Cr5 O7 1.983963 1_455
Cr5 O1 2.021270 1_445
Cr5 O3 2.022616 1_554
Cr5 O9 2.033617 1_444
Cr5 O13 2.033997 1_555
Cr6 O4 1.983636 1_545
Cr6 O6 1.983917 1_455
Cr6 O0 2.021298 1_445
Cr6 O2 2.022577 1_555
Cr6 O14 2.033630 1_445
Cr6 O10 2.033983 1_555
Cr7 O5 1.983619 1_554
Cr7 O7 1.983944 1_455
Cr7 O1 2.021300 1_455
Cr7 O3 2.022591 1_554
Cr7 O15 2.033631 1_454
Cr7 O11 2.033985 1_555
