# generated using pymatgen
data_KGaAs2O7
_symmetry_space_group_name_H-M   'P 1'
_cell_length_a   6.38917800
_cell_length_b   6.48278391
_cell_length_c   8.35408578
_cell_angle_alpha   96.52542012
_cell_angle_beta   103.90014361
_cell_angle_gamma   103.69690231
_symmetry_Int_Tables_number   1
_chemical_formula_structural   KGaAs2O7
_chemical_formula_sum   'K2 Ga2 As4 O14'
_cell_volume   320.95942288
_cell_formula_units_Z   2
loop_
 _symmetry_equiv_pos_site_id
 _symmetry_equiv_pos_as_xyz
  1  'x, y, z'
loop_
 _atom_site_type_symbol
 _atom_site_label
 _atom_site_symmetry_multiplicity
 _atom_site_fract_x
 _atom_site_fract_y
 _atom_site_fract_z
 _atom_site_occupancy
  K  K0  1  0.00000000  0.50000000  0.50000000  1
  K  K1  1  0.00000000  0.50000000  0.00000000  1
  Ga  Ga0  1  0.37508800  0.19114600  0.72488200  1
  Ga  Ga1  1  0.62491200  0.80885400  0.27511800  1
  As  As0  1  0.82524700  0.03379100  0.68969900  1
  As  As1  1  0.48245400  0.74578900  0.83472300  1
  As  As2  1  0.17475300  0.96620900  0.31030100  1
  As  As3  1  0.51754600  0.25421100  0.16527700  1
  O  O0  1  0.23076000  0.11590700  0.14729200  1
  O  O1  1  0.30924100  0.87532100  0.72164900  1
  O  O2  1  0.57396800  0.49887400  0.28735000  1
  O  O3  1  0.90937700  0.80268200  0.21879000  1
  O  O4  1  0.69075900  0.12467900  0.27835100  1
  O  O5  1  0.76924000  0.88409300  0.85270800  1
  O  O6  1  0.33472600  0.78834500  0.33015900  1
  O  O7  1  0.44514500  0.73716700  0.02888400  1
  O  O8  1  0.42603200  0.50112600  0.71265000  1
  O  O9  1  0.20720300  0.15293500  0.47986300  1
  O  O10  1  0.79279700  0.84706500  0.52013700  1
  O  O11  1  0.09062300  0.19731800  0.78121000  1
  O  O12  1  0.55485500  0.26283300  0.97111600  1
  O  O13  1  0.66527400  0.21165500  0.66984100  1
loop_
_geom_bond_atom_site_label_1
_geom_bond_atom_site_label_2
_geom_bond_distance
_geom_bond_site_symmetry_2
K0 O4 2.862542 1_455
K0 O1 2.862542 1_555
K0 O8 2.868722 1_555
K0 O2 2.868722 1_455
K0 O10 2.876581 1_455
K0 O9 2.876581 1_555
K0 O6 3.201352 1_555
K0 O13 3.201352 1_455
K0 O3 3.261410 1_455
K0 O11 3.261410 1_555
K1 O11 2.785269 1_554
K1 O3 2.785269 1_455
K1 O7 2.833056 1_555
K1 O12 2.833056 1_454
K1 O6 3.126710 1_555
K1 O13 3.126710 1_454
K1 O5 3.383965 1_454
K1 O0 3.383965 1_555
Ga0 O8 1.976742 1_555
Ga0 O1 1.985882 1_545
Ga0 O11 1.991836 1_555
Ga0 O13 1.993332 1_555
Ga0 O9 2.026275 1_555
Ga0 O12 2.039960 1_555
Ga1 O2 1.976742 1_555
Ga1 O4 1.985882 1_565
Ga1 O3 1.991836 1_555
Ga1 O6 1.993332 1_555
Ga1 O10 2.026275 1_555
Ga1 O7 2.039960 1_555
As0 O10 1.692685 1_545
As0 O13 1.709346 1_555
As0 O11 1.710236 1_655
As0 O5 1.815038 1_545
As1 O8 1.694290 1_555
As1 O7 1.700300 1_556
As1 O1 1.714742 1_555
As1 O5 1.800827 1_555
As2 O9 1.692685 1_565
As2 O6 1.709346 1_555
As2 O3 1.710236 1_455
As2 O0 1.815038 1_565
As3 O2 1.694290 1_555
As3 O12 1.700300 1_554
As3 O4 1.714742 1_555
As3 O0 1.800827 1_555
