# generated using pymatgen
data_TiFe2O5
_symmetry_space_group_name_H-M   'P 1'
_cell_length_a   11.31782924
_cell_length_b   11.31782924
_cell_length_c   9.93698819
_cell_angle_alpha   64.83948640
_cell_angle_beta   64.83948640
_cell_angle_gamma   19.34472988
_symmetry_Int_Tables_number   1
_chemical_formula_structural   TiFe2O5
_chemical_formula_sum   'Ti4 Fe8 O20'
_cell_volume   380.40694071
_cell_formula_units_Z   4
loop_
 _symmetry_equiv_pos_site_id
 _symmetry_equiv_pos_as_xyz
  1  'x, y, z'
loop_
 _atom_site_type_symbol
 _atom_site_label
 _atom_site_symmetry_multiplicity
 _atom_site_fract_x
 _atom_site_fract_y
 _atom_site_fract_z
 _atom_site_occupancy
  Ti  Ti0  1  0.28082100  0.28082100  0.85142300  1
  Ti  Ti1  1  0.12278000  0.12278000  0.06153900  1
  Ti  Ti2  1  0.87722000  0.87722000  0.93846100  1
  Ti  Ti3  1  0.71917900  0.71917900  0.14857700  1
  Fe  Fe0  1  0.96793500  0.96793500  0.17406700  1
  Fe  Fe1  1  0.78277400  0.78277400  0.36090300  1
  Fe  Fe2  1  0.62438000  0.62438000  0.56618800  1
  Fe  Fe3  1  0.03206500  0.03206500  0.82593300  1
  Fe  Fe4  1  0.47251700  0.47251700  0.66358600  1
  Fe  Fe5  1  0.37562000  0.37562000  0.43381200  1
  Fe  Fe6  1  0.21722600  0.21722600  0.63909700  1
  Fe  Fe7  1  0.52748300  0.52748300  0.33641400  1
  O  O0  1  0.53495100  0.53495100  0.77406500  1
  O  O1  1  0.44102400  0.44102400  0.51135200  1
  O  O2  1  0.46504900  0.46504900  0.22593500  1
  O  O3  1  0.12444700  0.12444700  0.63693900  1
  O  O4  1  0.78532200  0.78532200  0.90197600  1
  O  O5  1  0.28603000  0.28603000  0.40812500  1
  O  O6  1  0.80767900  0.80767900  0.13992200  1
  O  O7  1  0.21467800  0.21467800  0.09802400  1
  O  O8  1  0.93919300  0.93919300  0.01238000  1
  O  O9  1  0.95660300  0.95660300  0.73725100  1
  O  O10  1  0.87555300  0.87555300  0.36306100  1
  O  O11  1  0.69121600  0.69121600  0.34624500  1
  O  O12  1  0.30878400  0.30878400  0.65375500  1
  O  O13  1  0.71397000  0.71397000  0.59187500  1
  O  O14  1  0.55897600  0.55897600  0.48864800  1
  O  O15  1  0.19232100  0.19232100  0.86007800  1
  O  O16  1  0.63175200  0.63175200  0.11482700  1
  O  O17  1  0.04339700  0.04339700  0.26274900  1
  O  O18  1  0.06080700  0.06080700  0.98762000  1
  O  O19  1  0.36824800  0.36824800  0.88517300  1
loop_
_geom_bond_atom_site_label_1
_geom_bond_atom_site_label_2
_geom_bond_distance
_geom_bond_site_symmetry_2
Fe0 O2 1.963942 1_565
Fe0 O2 1.963942 1_655
Fe0 O8 1.970172 1_555
Fe0 O18 2.101270 1_664
Fe0 O10 2.106426 1_555
Fe0 O17 2.211755 1_665
Fe1 O5 1.967430 1_655
Fe1 O5 1.967430 1_565
Fe1 O6 2.019440 1_555
Fe1 O10 2.079598 1_555
Fe1 O11 2.109931 1_555
Fe1 O13 2.141357 1_555
Fe2 O14 1.921862 1_555
Fe2 O3 2.027583 1_655
Fe2 O3 2.027583 1_565
Fe2 O11 2.046791 1_555
Fe2 O13 2.121722 1_555
Fe2 O0 2.166442 1_555
Fe3 O0 1.963942 1_455
Fe3 O0 1.963942 1_545
Fe3 O18 1.970172 1_555
Fe3 O8 2.101270 1_446
Fe3 O3 2.106426 1_555
Fe3 O9 2.211755 1_445
Fe4 O1 1.923330 1_555
Fe4 O14 1.962403 1_555
Fe4 O9 2.013361 1_545
Fe4 O9 2.013361 1_455
Fe4 O0 2.113133 1_555
Fe4 O19 2.417161 1_555
Fe5 O1 1.921862 1_555
Fe5 O10 2.027583 1_545
Fe5 O10 2.027583 1_455
Fe5 O12 2.046791 1_555
Fe5 O5 2.121722 1_555
Fe5 O2 2.166442 1_555
Fe6 O13 1.967430 1_455
Fe6 O13 1.967430 1_545
Fe6 O15 2.019440 1_555
Fe6 O3 2.079598 1_555
Fe6 O12 2.109931 1_555
Fe6 O5 2.141357 1_555
Fe7 O14 1.923330 1_555
Fe7 O1 1.962403 1_555
Fe7 O17 2.013361 1_655
Fe7 O17 2.013361 1_565
Fe7 O2 2.113133 1_555
Fe7 O16 2.417161 1_555
O4 Ti0 1.980369 1_565
O4 Ti0 1.980369 1_655
O4 Ti2 2.231073 1_555
O4 Ti3 2.250216 1_556
O6 Ti2 1.932875 1_554
O6 Ti3 1.939239 1_555
O7 Ti3 1.980369 1_455
O7 Ti3 1.980369 1_545
O7 Ti1 2.231073 1_555
O7 Ti0 2.250216 1_554
O8 Ti2 1.824280 1_554
O9 Ti2 2.020000 1_555
O11 Ti3 1.786151 1_555
O12 Ti0 1.786151 1_555
O15 Ti1 1.932875 1_556
O15 Ti0 1.939239 1_555
O16 Ti1 2.006943 1_565
O16 Ti1 2.006943 1_655
O16 Ti3 2.117211 1_555
O17 Ti1 2.020000 1_555
O18 Ti1 1.824280 1_556
O19 Ti2 2.006943 1_455
O19 Ti2 2.006943 1_545
O19 Ti0 2.117211 1_555
