# generated using pymatgen
data_Ce3SiPt5
_symmetry_space_group_name_H-M   'P 1'
_cell_length_a   8.38595259
_cell_length_b   8.37446862
_cell_length_c   8.37632910
_cell_angle_alpha   128.06619194
_cell_angle_beta   126.40178161
_cell_angle_gamma   77.84389278
_symmetry_Int_Tables_number   1
_chemical_formula_structural   Ce3SiPt5
_chemical_formula_sum   'Ce6 Si2 Pt10'
_cell_volume   361.39047670
_cell_formula_units_Z   2
loop_
 _symmetry_equiv_pos_site_id
 _symmetry_equiv_pos_as_xyz
  1  'x, y, z'
loop_
 _atom_site_type_symbol
 _atom_site_label
 _atom_site_symmetry_multiplicity
 _atom_site_fract_x
 _atom_site_fract_y
 _atom_site_fract_z
 _atom_site_occupancy
  Ce  Ce0  1  0.82644545  0.54933221  0.27741167  1
  Ce  Ce1  1  0.62048476  0.24929899  0.37081569  1
  Ce  Ce2  1  0.17357510  0.45056864  0.72234634  1
  Ce  Ce3  1  0.37967618  0.75056666  0.62912388  1
  Ce  Ce4  1  0.22791942  0.94976588  0.27668782  1
  Ce  Ce5  1  0.77228408  0.04940484  0.72270641  1
  Si  Si0  1  0.21746596  0.24987602  0.96739985  1
  Si  Si1  1  0.78272819  0.74993573  0.03257123  1
  Pt  Pt0  1  0.16761608  0.90416158  0.86031192  1
  Pt  Pt1  1  0.83214296  0.09568697  0.13920025  1
  Pt  Pt2  1  0.45601980  0.19275320  0.86118360  1
  Pt  Pt3  1  0.54345583  0.40481477  0.73676025  1
  Pt  Pt4  1  0.83138739  0.69219376  0.73597973  1
  Pt  Pt5  1  0.45654370  0.59610052  0.26429458  1
  Pt  Pt6  1  0.54364495  0.80787889  0.13914116  1
  Pt  Pt7  1  0.16881049  0.30766490  0.26419358  1
  Pt  Pt8  1  -0.00049955  -0.00014661  0.50000929  1
  Pt  Pt9  1  0.00029921  0.50014305  -0.00013724  1
loop_
_geom_bond_atom_site_label_1
_geom_bond_atom_site_label_2
_geom_bond_distance
_geom_bond_site_symmetry_2
Ce0 Pt5 2.987410 1_555
Ce0 Pt2 2.989326 1_554
Ce0 Pt3 3.049692 1_554
Ce0 Pt6 3.053440 1_555
Ce0 Pt0 3.156624 1_655
Ce0 Pt7 3.163065 1_655
Ce0 Pt8 3.199491 1_665
Ce0 Si1 3.203047 1_555
Ce0 Pt9 3.207670 1_655
Ce0 Pt1 3.215726 1_555
Ce0 Pt4 3.217501 1_555
Ce1 Pt6 2.918774 1_545
Ce1 Pt3 2.929551 1_555
Ce1 Pt4 2.931330 1_555
Ce1 Pt1 2.935497 1_555
Ce1 Si0 3.049494 1_554
Ce1 Pt7 3.335705 1_555
Ce1 Pt2 3.338244 1_554
Ce1 Pt0 3.342073 1_544
Ce1 Pt5 3.343508 1_555
Ce1 Pt8 3.397966 1_655
Ce1 Pt9 3.401570 1_656
Ce2 Pt3 2.982380 1_555
Ce2 Pt6 2.990408 1_556
Ce2 Pt2 3.049159 1_555
Ce2 Pt5 3.055145 1_556
Ce2 Pt1 3.157994 1_455
Ce2 Pt4 3.162359 1_455
Ce2 Pt9 3.201931 1_556
Ce2 Si0 3.204766 1_555
Ce2 Pt8 3.204939 1_555
Ce2 Pt7 3.214963 1_555
Ce2 Pt0 3.216004 1_555
Ce3 Pt5 2.922278 1_555
Ce3 Pt2 2.923392 1_565
Ce3 Pt7 2.931483 1_555
Ce3 Pt0 2.935878 1_555
Ce3 Si1 3.049942 1_556
Ce3 Pt4 3.335384 1_555
Ce3 Pt6 3.339026 1_556
Ce3 Pt1 3.339886 1_566
Ce3 Pt3 3.340319 1_555
Ce3 Pt9 3.402629 1_555
Ce3 Pt8 3.403069 1_565
Ce4 Pt0 2.985146 1_554
Ce4 Pt7 2.989898 1_565
Ce4 Pt4 3.053155 1_454
Ce4 Pt1 3.053822 1_465
Ce4 Pt5 3.150269 1_555
Ce4 Pt2 3.163605 1_565
Ce4 Pt9 3.194566 1_555
Ce4 Si1 3.204759 1_455
Ce4 Pt8 3.207990 1_565
Ce4 Pt6 3.218204 1_555
Ce4 Pt3 3.226326 1_565
Ce5 Pt1 2.984821 1_556
Ce5 Pt4 2.987827 1_545
Ce5 Pt0 3.048608 1_645
Ce5 Pt7 3.055884 1_656
Ce5 Pt6 3.158890 1_545
Ce5 Pt3 3.160003 1_555
Ce5 Pt8 3.195869 1_655
Ce5 Pt9 3.202959 1_656
Ce5 Si0 3.204888 1_655
Ce5 Pt5 3.218225 1_545
Ce5 Pt2 3.227056 1_555
Pt0 Si0 2.494717 1_565
Pt0 Pt4 2.920402 1_455
Pt0 Pt6 2.925550 1_556
Pt0 Pt7 2.956461 1_566
Pt0 Pt8 3.032286 1_565
Pt1 Si1 2.496046 1_545
Pt1 Pt7 2.920428 1_655
Pt1 Pt2 2.927301 1_554
Pt1 Pt4 2.955605 1_544
Pt1 Pt8 3.038119 1_655
Pt2 Si0 2.491390 1_555
Pt2 Pt3 2.918125 1_555
Pt2 Pt5 2.955514 1_556
Pt2 Pt8 3.041366 1_555
Pt3 Si1 2.495874 1_556
Pt3 Pt7 2.923365 1_555
Pt3 Pt6 2.953026 1_556
Pt3 Pt9 3.044479 1_656
Pt4 Si1 2.492191 1_556
Pt4 Pt5 2.922824 1_555
Pt4 Pt9 3.031028 1_656
Pt5 Si0 2.499947 1_554
Pt5 Pt6 2.919767 1_555
Pt5 Pt9 3.038430 1_555
Pt6 Si1 2.496486 1_555
Pt6 Pt8 3.035816 1_665
Pt7 Si0 2.493641 1_554
Pt7 Pt9 3.037372 1_555
Pt8 Si0 2.462187 1_555
Pt8 Si1 2.462657 1_445
Pt9 Si1 2.461527 1_455
Pt9 Si0 2.461835 1_554
