# generated using pymatgen
data_K2FeH8(SO6)2
_symmetry_space_group_name_H-M   'P 1'
_cell_length_a   9.64904300
_cell_length_b   10.11180000
_cell_length_c   11.89938646
_cell_angle_alpha   84.88083031
_cell_angle_beta   90.00000000
_cell_angle_gamma   90.00000000
_symmetry_Int_Tables_number   1
_chemical_formula_structural   K2FeH8(SO6)2
_chemical_formula_sum   'K8 Fe4 H32 S8 O48'
_cell_volume   1156.38256270
_cell_formula_units_Z   4
loop_
 _symmetry_equiv_pos_site_id
 _symmetry_equiv_pos_as_xyz
  1  'x, y, z'
loop_
 _atom_site_type_symbol
 _atom_site_label
 _atom_site_symmetry_multiplicity
 _atom_site_fract_x
 _atom_site_fract_y
 _atom_site_fract_z
 _atom_site_occupancy
  K  K0  1  0.27078600  0.75985200  0.16853500  1
  K  K1  1  0.77078600  0.24014800  0.33146500  1
  K  K2  1  0.72921400  0.24014800  0.83146500  1
  K  K3  1  0.22921400  0.75985200  0.66853500  1
  K  K4  1  0.74129300  0.73945500  0.16793700  1
  K  K5  1  0.24129300  0.26054500  0.33206300  1
  K  K6  1  0.25870700  0.26054500  0.83206300  1
  K  K7  1  0.75870700  0.73945500  0.66793700  1
  Fe  Fe0  1  0.00000000  0.00000000  0.00000000  1
  Fe  Fe1  1  0.50000000  0.00000000  0.50000000  1
  Fe  Fe2  1  0.50000000  0.50000000  0.00000000  1
  Fe  Fe3  1  0.00000000  0.50000000  0.50000000  1
  H  H0  1  0.26009700  0.60365100  0.91942300  1
  H  H1  1  0.76009700  0.39634900  0.58057700  1
  H  H2  1  0.73990300  0.39634900  0.08057700  1
  H  H3  1  0.23990300  0.60365100  0.41942300  1
  H  H4  1  0.36045900  0.72716200  0.92096900  1
  H  H5  1  0.86045900  0.27283800  0.57903100  1
  H  H6  1  0.63954100  0.27283800  0.07903100  1
  H  H7  1  0.13954100  0.72716200  0.42096900  1
  H  H8  1  0.25167900  0.38772000  0.08190300  1
  H  H9  1  0.75167900  0.61228000  0.41809700  1
  H  H10  1  0.74832100  0.61228000  0.91809700  1
  H  H11  1  0.24832100  0.38772000  0.58190300  1
  H  H12  1  0.36263500  0.27073600  0.09076900  1
  H  H13  1  0.86263500  0.72926400  0.40923100  1
  H  H14  1  0.63736500  0.72926400  0.90923100  1
  H  H15  1  0.13736500  0.27073600  0.59076900  1
  H  H16  1  0.27933400  0.97071600  0.94140400  1
  H  H17  1  0.77933400  0.02928400  0.55859600  1
  H  H18  1  0.72066600  0.02928400  0.05859600  1
  H  H19  1  0.22066600  0.97071600  0.44140400  1
  H  H20  1  0.27809900  0.05156300  0.05343100  1
  H  H21  1  0.77809900  0.94843700  0.44656900  1
  H  H22  1  0.72190100  0.94843700  0.94656900  1
  H  H23  1  0.22190100  0.05156300  0.55343100  1
  H  H24  1  0.01339800  0.26603600  0.07659600  1
  H  H25  1  0.51339800  0.73396400  0.42340400  1
  H  H26  1  0.98660200  0.73396400  0.92340400  1
  H  H27  1  0.48660200  0.26603600  0.57659600  1
  H  H28  1  0.98179600  0.27276700  0.94690200  1
  H  H29  1  0.48179600  0.72723300  0.55309800  1
  H  H30  1  0.01820400  0.72723300  0.05309800  1
  H  H31  1  0.51820400  0.27276700  0.44690200  1
  S  S0  1  0.50629300  0.04925200  0.20262900  1
  S  S1  1  0.00629300  0.95074800  0.29737100  1
  S  S2  1  0.49370700  0.95074800  0.79737100  1
  S  S3  1  0.99370700  0.04925200  0.70262900  1
  S  S4  1  0.99345800  0.47887200  0.20895000  1
  S  S5  1  0.49345800  0.52112800  0.29105000  1
  S  S6  1  0.00654200  0.52112800  0.79105000  1
  S  S7  1  0.50654200  0.47887200  0.70895000  1
  O  O0  1  0.37256600  0.88287400  0.85850300  1
  O  O1  1  0.87256600  0.11712600  0.64149700  1
  O  O2  1  0.62743400  0.11712600  0.14149700  1
  O  O3  1  0.12743400  0.88287400  0.35850300  1
  O  O4  1  0.37395500  0.11426000  0.15841100  1
  O  O5  1  0.87395500  0.88574000  0.34158900  1
  O  O6  1  0.62604500  0.88574000  0.84158900  1
  O  O7  1  0.12604500  0.11426000  0.65841100  1
  O  O8  1  0.08747500  0.39378800  0.14534700  1
  O  O9  1  0.58747500  0.60621200  0.35465300  1
  O  O10  1  0.91252500  0.60621200  0.85465300  1
  O  O11  1  0.41252500  0.39378800  0.64534700  1
  O  O12  1  0.84636500  0.45442800  0.17965200  1
  O  O13  1  0.34636500  0.54557200  0.32034800  1
  O  O14  1  0.15363500  0.54557200  0.82034800  1
  O  O15  1  0.65363500  0.45442800  0.67965200  1
  O  O16  1  0.01978600  0.92818700  0.17585300  1
  O  O17  1  0.51978600  0.07181300  0.32414700  1
  O  O18  1  0.98021400  0.07181300  0.82414700  1
  O  O19  1  0.48021400  0.92818700  0.67585300  1
  O  O20  1  0.50562300  0.90722500  0.18458200  1
  O  O21  1  0.00562300  0.09277500  0.31541800  1
  O  O22  1  0.49437700  0.09277500  0.81541800  1
  O  O23  1  0.99437700  0.90722500  0.68458200  1
  O  O24  1  0.51370300  0.56289000  0.16763100  1
  O  O25  1  0.01370300  0.43711000  0.33236900  1
  O  O26  1  0.48629700  0.43711000  0.83236900  1
  O  O27  1  0.98629700  0.56289000  0.66763100  1
  O  O28  1  0.02672400  0.62164900  0.18380100  1
  O  O29  1  0.52672400  0.37835100  0.31619900  1
  O  O30  1  0.97327600  0.37835100  0.81619900  1
  O  O31  1  0.47327600  0.62164900  0.68380100  1
  O  O32  1  0.33581500  0.64103800  0.96389500  1
  O  O33  1  0.83581500  0.35896200  0.53610500  1
  O  O34  1  0.66418500  0.35896200  0.03610500  1
  O  O35  1  0.16418500  0.64103800  0.46389500  1
  O  O36  1  0.33827300  0.35667000  0.04755700  1
  O  O37  1  0.83827300  0.64333000  0.45244300  1
  O  O38  1  0.66172700  0.64333000  0.95244300  1
  O  O39  1  0.16172700  0.35667000  0.54755700  1
  O  O40  1  0.22000400  0.02359200  0.99033700  1
  O  O41  1  0.72000400  0.97640800  0.50966300  1
  O  O42  1  0.77999600  0.97640800  0.00966300  1
  O  O43  1  0.27999600  0.02359200  0.49033700  1
  O  O44  1  0.98092200  0.21115700  0.01645100  1
  O  O45  1  0.48092200  0.78884300  0.48354900  1
  O  O46  1  0.01907800  0.78884300  0.98354900  1
  O  O47  1  0.51907800  0.21115700  0.51645100  1
loop_
_geom_bond_atom_site_label_1
_geom_bond_atom_site_label_2
_geom_bond_distance
_geom_bond_site_symmetry_2
K0 O20 2.728094 1_555
K0 O28 2.736148 1_555
K0 O13 2.791331 1_555
K0 O32 2.879042 1_554
K0 O16 2.965984 1_555
K0 O3 3.012047 1_555
K0 O24 3.076445 1_555
K1 O21 2.728094 1_655
K1 O29 2.736148 1_555
K1 O12 2.791331 1_555
K1 O33 2.879042 1_555
K1 O17 2.965984 1_555
K1 O2 3.012047 1_555
K1 O25 3.076445 1_655
K2 O22 2.728094 1_555
K2 O30 2.736148 1_555
K2 O15 2.791331 1_555
K2 O34 2.879042 1_556
K2 O18 2.965984 1_555
K2 O1 3.012047 1_555
K2 O26 3.076445 1_555
K3 O23 2.728094 1_455
K3 O31 2.736148 1_555
K3 O14 2.791331 1_555
K3 O35 2.879042 1_555
K3 O19 2.965984 1_555
K3 O0 3.012047 1_555
K3 O27 3.076445 1_455
K4 O24 2.830427 1_555
K4 O20 2.854503 1_555
K4 O9 2.901783 1_555
K4 O38 2.924781 1_554
K4 O42 2.936349 1_555
K4 O5 2.939706 1_555
K4 O28 2.999967 1_655
K4 O12 3.046690 1_555
K5 O25 2.830427 1_555
K5 O21 2.854503 1_555
K5 O8 2.901783 1_555
K5 O39 2.924781 1_555
K5 O43 2.936349 1_555
K5 O4 2.939706 1_555
K5 O29 2.999967 1_555
K5 O13 3.046690 1_555
K6 O26 2.830427 1_555
K6 O22 2.854503 1_555
K6 O11 2.901783 1_555
K6 O36 2.924781 1_556
K6 O40 2.936349 1_555
K6 O7 2.939706 1_555
K6 O30 2.999967 1_455
K6 O14 3.046690 1_555
K7 O27 2.830427 1_555
K7 O23 2.854503 1_555
K7 O10 2.901783 1_555
K7 O37 2.924781 1_555
K7 O41 2.936349 1_555
K7 O6 2.939706 1_555
K7 O31 2.999967 1_555
K7 O15 3.046690 1_555
Fe0 O42 2.138138 1_445
Fe0 O40 2.138138 1_554
Fe0 O16 2.161325 1_545
Fe0 O18 2.161325 1_454
Fe0 O46 2.169281 1_544
Fe0 O44 2.169281 1_455
Fe1 O41 2.138138 1_545
Fe1 O43 2.138138 1_555
Fe1 O17 2.161325 1_555
Fe1 O19 2.161325 1_545
Fe1 O45 2.169281 1_545
Fe1 O47 2.169281 1_555
Fe2 O34 2.149166 1_555
Fe2 O32 2.149166 1_554
Fe2 O24 2.151072 1_555
Fe2 O26 2.151072 1_554
Fe2 O38 2.170164 1_554
Fe2 O36 2.170164 1_555
Fe3 O35 2.149166 1_555
Fe3 O33 2.149166 1_455
Fe3 O25 2.151072 1_555
Fe3 O27 2.151072 1_455
Fe3 O37 2.170164 1_455
Fe3 O39 2.170164 1_555
H0 O32 0.996218 1_555
H1 O33 0.996218 1_555
H2 O34 0.996218 1_555
H3 O35 0.996218 1_555
H4 O32 0.998240 1_555
H4 O0 1.684172 1_555
H5 O33 0.998240 1_555
H5 O1 1.684172 1_555
H6 O34 0.998240 1_555
H6 O2 1.684172 1_555
H7 O35 0.998240 1_555
H7 O3 1.684172 1_555
H8 O36 0.993304 1_555
H9 O37 0.993304 1_555
H10 O38 0.993304 1_555
H11 O39 0.993304 1_555
H12 O36 0.997492 1_555
H13 O37 0.997492 1_555
H14 O38 0.997492 1_555
H15 O39 0.997492 1_555
H16 O40 1.004093 1_565
H16 O0 1.651588 1_555
H17 O41 1.004093 1_545
H17 O1 1.651588 1_555
H18 O42 1.004093 1_545
H18 O2 1.651588 1_555
H19 O43 1.004093 1_565
H19 O3 1.651588 1_555
H20 O40 0.997893 1_554
H21 O41 0.997893 1_555
H22 O42 0.997893 1_556
H23 O43 0.997893 1_555
H24 O44 0.994597 1_455
H25 O45 0.994597 1_555
H26 O46 0.994597 1_655
H27 O47 0.994597 1_555
H28 O44 0.990497 1_556
H28 K2 2.831311 1_555
H29 O45 0.990497 1_555
H29 K3 2.831311 1_555
H30 O46 0.990497 1_554
H30 K0 2.831311 1_555
H31 O47 0.990497 1_555
H31 K1 2.831311 1_555
O0 S2 1.509114 1_555
O1 S3 1.509114 1_555
O2 S0 1.509114 1_555
O3 S1 1.509114 1_555
O4 S0 1.509238 1_555
O5 S1 1.509238 1_655
O6 S2 1.509238 1_555
O7 S3 1.509238 1_455
O8 S4 1.500724 1_455
O9 S5 1.500724 1_555
O10 S6 1.500724 1_655
O11 S7 1.500724 1_555
O12 S4 1.487429 1_555
O13 S5 1.487429 1_555
O14 S6 1.487429 1_555
O15 S7 1.487429 1_555
O16 S1 1.489547 1_555
O17 S0 1.489547 1_555
O18 S3 1.489547 1_555
O19 S2 1.489547 1_555
O20 S0 1.470958 1_565
O21 S1 1.470958 1_545
O22 S2 1.470958 1_545
O23 S3 1.470958 1_565
O24 S5 1.504204 1_555
O25 S4 1.504204 1_455
O26 S7 1.504204 1_555
O27 S6 1.504204 1_655
O28 S4 1.483189 1_455
O29 S5 1.483189 1_555
O30 S6 1.483189 1_655
O31 S7 1.483189 1_555
