# generated using pymatgen
data_Sm(SiAg)2
_symmetry_space_group_name_H-M   'P 1'
_cell_length_a   4.18989102
_cell_length_b   4.18989038
_cell_length_c   6.11404061
_cell_angle_alpha   110.03808947
_cell_angle_beta   110.03810417
_cell_angle_gamma   89.99999415
_symmetry_Int_Tables_number   1
_chemical_formula_structural   Sm(SiAg)2
_chemical_formula_sum   'Sm1 Si2 Ag2'
_cell_volume   93.88972421
_cell_formula_units_Z   1
loop_
 _symmetry_equiv_pos_site_id
 _symmetry_equiv_pos_as_xyz
  1  'x, y, z'
loop_
 _atom_site_type_symbol
 _atom_site_label
 _atom_site_symmetry_multiplicity
 _atom_site_fract_x
 _atom_site_fract_y
 _atom_site_fract_z
 _atom_site_occupancy
  Sm  Sm0  1  -0.00000000  -0.00000000  -0.00000000  1
  Si  Si0  1  0.60755431  0.60755431  0.21510962  1
  Si  Si1  1  0.39244569  0.39244569  0.78489038  1
  Ag  Ag0  1  0.25000000  0.75000000  0.50000000  1
  Ag  Ag1  1  0.75000000  0.25000000  0.50000000  1
loop_
_geom_bond_atom_site_label_1
_geom_bond_atom_site_label_2
_geom_bond_distance
_geom_bond_site_symmetry_2
Si0 Si1 2.300925 1_554
Si0 Sm0 3.178229 1_555
Si0 Sm0 3.178231 1_565
Si0 Sm0 3.178232 1_655
Si0 Sm0 3.178234 1_665
Si1 Sm0 3.178229 1_666
Si1 Sm0 3.178231 1_656
Si1 Sm0 3.178232 1_566
Si1 Sm0 3.178234 1_556
Ag0 Si1 2.590434 1_555
Ag0 Si0 2.590435 1_555
Ag0 Si0 2.590438 1_455
Ag0 Si1 2.590438 1_565
Ag0 Ag1 2.962700 1_555
Ag0 Ag1 2.962700 1_465
Ag0 Ag1 2.962700 1_455
Ag0 Ag1 2.962700 1_565
Ag0 Sm0 3.397024 1_565
Ag0 Sm0 3.397024 1_566
Ag0 Sm0 3.397024 1_666
Ag0 Sm0 3.397024 1_555
Ag1 Si0 2.590434 1_555
Ag1 Si1 2.590435 1_555
Ag1 Si1 2.590438 1_655
Ag1 Si0 2.590438 1_545
Ag1 Sm0 3.397024 1_656
Ag1 Sm0 3.397024 1_655
Ag1 Sm0 3.397024 1_555
Ag1 Sm0 3.397024 1_666
