# generated using pymatgen
data_NbCuO3F
_symmetry_space_group_name_H-M   'P 1'
_cell_length_a   3.84027200
_cell_length_b   6.65684467
_cell_length_c   6.79745704
_cell_angle_alpha   112.73692964
_cell_angle_beta   99.61176844
_cell_angle_gamma   86.60225313
_symmetry_Int_Tables_number   1
_chemical_formula_structural   NbCuO3F
_chemical_formula_sum   'Nb2 Cu2 O6 F2'
_cell_volume   158.01443903
_cell_formula_units_Z   2
loop_
 _symmetry_equiv_pos_site_id
 _symmetry_equiv_pos_as_xyz
  1  'x, y, z'
loop_
 _atom_site_type_symbol
 _atom_site_label
 _atom_site_symmetry_multiplicity
 _atom_site_fract_x
 _atom_site_fract_y
 _atom_site_fract_z
 _atom_site_occupancy
  Nb  Nb0  1  0.26827300  0.21724600  0.16254200  1
  Nb  Nb1  1  0.73172700  0.78275400  0.83745800  1
  Cu  Cu0  1  0.28883000  0.80449800  0.35278200  1
  Cu  Cu1  1  0.71117000  0.19550200  0.64721800  1
  O  O0  1  0.75328400  0.14473600  0.08262100  1
  O  O1  1  0.24671600  0.85526400  0.91737900  1
  O  O2  1  0.66821400  0.89144000  0.60637800  1
  O  O3  1  0.71254500  0.49195300  0.69183800  1
  O  O4  1  0.33178600  0.10856000  0.39362200  1
  O  O5  1  0.28745500  0.50804700  0.30816200  1
  F  F0  1  0.84010500  0.75456600  0.14671400  1
  F  F1  1  0.15989500  0.24543400  0.85328600  1
loop_
_geom_bond_atom_site_label_1
_geom_bond_atom_site_label_2
_geom_bond_distance
_geom_bond_site_symmetry_2
Nb0 O5 1.801102 1_555
Nb0 O4 1.944183 1_555
Nb0 O0 1.997767 1_455
Nb0 O0 2.006474 1_555
Nb0 O1 2.337508 1_544
Nb1 O3 1.801102 1_555
Nb1 O2 1.944183 1_555
Nb1 O1 1.997767 1_655
Nb1 O1 2.006474 1_555
Nb1 O0 2.337508 1_566
Cu0 O5 1.877355 1_555
Cu0 O4 1.947092 1_565
Cu0 O2 1.979698 1_555
Cu0 F0 1.985947 1_455
Cu1 O3 1.877355 1_555
Cu1 O2 1.947092 1_545
Cu1 O4 1.979698 1_555
Cu1 F1 1.985947 1_655
F0 Nb1 2.151969 1_554
F1 Nb0 2.151969 1_556
