# generated using pymatgen
data_Na2SeO3
_symmetry_space_group_name_H-M   'P 1'
_cell_length_a   9.92921720
_cell_length_b   4.83872182
_cell_length_c   6.78918481
_cell_angle_alpha   91.03295660
_cell_angle_beta   90.00000000
_cell_angle_gamma   90.00000000
_symmetry_Int_Tables_number   1
_chemical_formula_structural   Na2SeO3
_chemical_formula_sum   'Na8 Se4 O12'
_cell_volume   326.13147488
_cell_formula_units_Z   4
loop_
 _symmetry_equiv_pos_site_id
 _symmetry_equiv_pos_as_xyz
  1  'x, y, z'
loop_
 _atom_site_type_symbol
 _atom_site_label
 _atom_site_symmetry_multiplicity
 _atom_site_fract_x
 _atom_site_fract_y
 _atom_site_fract_z
 _atom_site_occupancy
  Na  Na0  1  0.41322085  0.25896317  0.85073533  1
  Na  Na1  1  0.24705210  0.75646381  0.09091025  1
  Na  Na2  1  0.25294790  0.75646381  0.59091025  1
  Na  Na3  1  0.75294790  0.24353619  0.90908975  1
  Na  Na4  1  0.58677915  0.74103683  0.14926467  1
  Na  Na5  1  0.08677915  0.25896317  0.35073533  1
  Na  Na6  1  0.91322085  0.74103683  0.64926467  1
  Na  Na7  1  0.74705210  0.24353619  0.40908975  1
  Se  Se0  1  0.91608687  0.77672342  0.18588217  1
  Se  Se1  1  0.41608687  0.22327658  0.31411783  1
  Se  Se2  1  0.08391313  0.22327658  0.81411783  1
  Se  Se3  1  0.58391313  0.77672342  0.68588217  1
  O  O0  1  0.59888695  0.12602300  0.66052460  1
  O  O1  1  0.09888695  0.87397700  0.83947540  1
  O  O2  1  0.40111305  0.87397700  0.33947540  1
  O  O3  1  0.90111305  0.12602300  0.16052460  1
  O  O4  1  0.71135452  0.72102872  0.85249997  1
  O  O5  1  0.21135452  0.27897128  0.64750003  1
  O  O6  1  0.28864548  0.27897128  0.14750003  1
  O  O7  1  0.78864548  0.72102872  0.35249997  1
  O  O8  1  0.44213115  0.75317647  0.83122154  1
  O  O9  1  0.05786885  0.75317647  0.33122154  1
  O  O10  1  0.55786885  0.24682353  0.16877846  1
  O  O11  1  0.94213115  0.24682353  0.66877846  1
loop_
_geom_bond_atom_site_label_1
_geom_bond_atom_site_label_2
_geom_bond_distance
_geom_bond_site_symmetry_2
Na0 O0 2.334534 1_555
Na0 O6 2.364684 1_556
Na0 O8 2.414536 1_555
Na0 O5 2.436301 1_555
Na0 O8 2.465327 1_545
Na0 O10 2.594839 1_556
Na1 O1 2.331656 1_554
Na1 O2 2.340205 1_555
Na1 O6 2.385030 1_555
Na1 O9 2.488289 1_555
Na1 O6 2.583658 1_565
Na1 O8 2.619079 1_554
Na2 O2 2.331656 1_555
Na2 O1 2.340205 1_555
Na2 O5 2.385030 1_555
Na2 O8 2.488289 1_555
Na2 O5 2.583658 1_565
Na2 O9 2.619079 1_555
Na3 O3 2.331656 1_556
Na3 O0 2.340205 1_555
Na3 O4 2.385030 1_555
Na3 O11 2.488289 1_555
Na3 O4 2.583658 1_545
Na3 O10 2.619079 1_556
Na4 O2 2.334534 1_555
Na4 O4 2.364684 1_554
Na4 O10 2.414536 1_555
Na4 O7 2.436301 1_555
Na4 O10 2.465327 1_565
Na4 O8 2.594839 1_554
Na5 O3 2.334534 1_455
Na5 O5 2.364684 1_555
Na5 O9 2.414536 1_555
Na5 O6 2.436301 1_555
Na5 O9 2.465327 1_545
Na5 O11 2.594839 1_455
Na6 O1 2.334534 1_655
Na6 O7 2.364684 1_555
Na6 O11 2.414536 1_555
Na6 O4 2.436301 1_555
Na6 O11 2.465327 1_565
Na6 O9 2.594839 1_655
Na7 O0 2.331656 1_555
Na7 O3 2.340205 1_555
Na7 O7 2.385030 1_555
Na7 O10 2.488289 1_555
Na7 O7 2.583658 1_545
Na7 O11 2.619079 1_555
O0 Se3 1.708475 1_545
O1 Se2 1.708475 1_565
O2 Se1 1.708475 1_565
O3 Se0 1.708475 1_545
O4 Se3 1.721757 1_555
O5 Se2 1.721757 1_555
O6 Se1 1.721757 1_555
O7 Se0 1.721757 1_555
O8 Se3 1.724105 1_555
O9 Se0 1.724105 1_455
O10 Se1 1.724105 1_555
O11 Se2 1.724105 1_655
