# generated using pymatgen
data_PrGeBO5
_symmetry_space_group_name_H-M   'P 1'
_cell_length_a   12.06619479
_cell_length_b   12.06619434
_cell_length_c   6.78230828
_cell_angle_alpha   90.00000000
_cell_angle_beta   90.00000000
_cell_angle_gamma   119.99999593
_symmetry_Int_Tables_number   1
_chemical_formula_structural   PrGeBO5
_chemical_formula_sum   'Pr9 Ge9 B9 O45'
_cell_volume   855.16284540
_cell_formula_units_Z   9
loop_
 _symmetry_equiv_pos_site_id
 _symmetry_equiv_pos_as_xyz
  1  'x, y, z'
loop_
 _atom_site_type_symbol
 _atom_site_label
 _atom_site_symmetry_multiplicity
 _atom_site_fract_x
 _atom_site_fract_y
 _atom_site_fract_z
 _atom_site_occupancy
  Pr  Pr0  1  0.52864349  0.05623181  0.66106723  1
  Pr  Pr1  1  0.94376819  0.47241268  0.99440123  1
  Pr  Pr2  1  0.86193527  0.13846257  0.33035229  1
  Pr  Pr3  1  0.27652630  0.13806473  0.99701929  1
  Pr  Pr4  1  0.19384828  0.38995676  0.65852641  1
  Pr  Pr5  1  0.52758732  0.47135651  0.32773423  1
  Pr  Pr6  1  0.19610848  0.80615172  0.32519341  1
  Pr  Pr7  1  0.61004324  0.80389152  0.99185941  1
  Pr  Pr8  1  0.86153743  0.72347370  0.66368629  1
  Ge  Ge0  1  0.19414656  0.38645141  0.15879438  1
  Ge  Ge1  1  0.61354859  0.80769515  0.49212738  1
  Ge  Ge2  1  0.52866273  0.05374885  0.16026476  1
  Ge  Ge3  1  0.52508613  0.47133727  0.82693176  1
  Ge  Ge4  1  0.94625115  0.47491387  0.49359876  1
  Ge  Ge5  1  0.85956998  0.13949375  0.83181523  1
  Ge  Ge6  1  0.27992376  0.14043002  0.49848223  1
  Ge  Ge7  1  0.86050625  0.72007624  0.16514923  1
  Ge  Ge8  1  0.19230485  0.80585344  0.82546138  1
  B  B0  1  0.02847811  0.07239047  0.63343328  1
  B  B1  1  0.69526774  0.28906897  0.36291037  1
  B  B2  1  0.92760953  0.95608664  0.96676628  1
  B  B3  1  0.59380124  0.30473226  0.02957737  1
  B  B4  1  0.26053944  0.62203434  0.95724670  1
  B  B5  1  0.37796566  0.63850511  0.29057970  1
  B  B6  1  0.04391336  0.97152189  0.30009928  1
  B  B7  1  0.36149489  0.73946056  0.62391370  1
  B  B8  1  0.71093103  0.40619876  0.69624437  1
  O  O0  1  0.07863476  0.76984040  0.64524174  1
  O  O1  1  0.74874976  0.63344620  0.34311566  1
  O  O2  1  0.35044167  0.25650377  0.31951349  1
  O  O3  1  0.64882999  0.48622084  0.66705259  1
  O  O4  1  0.17067220  0.15320338  0.66041884  1
  O  O5  1  0.88469643  0.25125024  0.00978266  1
  O  O6  1  0.99315942  0.03017791  0.43098669  1
  O  O7  1  0.65625852  0.15184086  0.32262812  1
  O  O8  1  0.32098364  0.83631301  0.66479531  1
  O  O9  1  0.22634045  0.91992222  0.00319765  1
  O  O10  1  0.32721802  0.69756592  0.42089693  1
  O  O11  1  0.69358177  0.77365955  0.66986465  1
  O  O12  1  0.50388678  0.82201977  0.65094302  1
  O  O13  1  0.51533037  0.67901636  0.33146231  1
  O  O14  1  0.84815914  0.50441766  0.65596212  1
  O  O15  1  0.18125439  0.01047433  0.34074347  1
  O  O16  1  0.49558234  0.34374148  0.98929512  1
  O  O17  1  0.03701849  0.00684058  0.09765269  1
  O  O18  1  0.96982209  0.96298151  0.76431969  1
  O  O19  1  0.51377916  0.16260914  0.00038559  1
  O  O20  1  0.66221181  0.29602602  0.56705674  1
  O  O21  1  0.56690879  0.58757315  0.00436917  1
  O  O22  1  0.82921994  0.81874561  0.00741047  1
  O  O23  1  0.74349623  0.09393790  0.65284649  1
  O  O24  1  0.36655380  0.11530357  0.67644866  1
  O  O25  1  0.30243408  0.62965210  0.75422993  1
  O  O26  1  0.37034790  0.67278198  0.08756293  1
  O  O27  1  0.84679662  0.01746882  0.99375184  1
  O  O28  1  0.55683490  0.96997775  0.98095894  1
  O  O29  1  0.98253118  0.82932780  0.32708584  1
  O  O30  1  0.23015960  0.30879335  0.97857474  1
  O  O31  1  0.98952567  0.17078006  0.67407747  1
  O  O32  1  0.63381321  0.33778819  0.23372374  1
  O  O33  1  0.02066436  0.43309121  0.67103617  1
  O  O34  1  0.16368699  0.48466963  0.99812931  1
  O  O35  1  0.41314385  0.44316510  0.64762594  1
  O  O36  1  0.70397398  0.36618679  0.90038974  1
  O  O37  1  0.03002225  0.58685615  0.31429294  1
  O  O38  1  0.41242685  0.97933564  0.33770217  1
  O  O39  1  0.69120665  0.92136524  0.31190774  1
  O  O40  1  0.08007778  0.30641823  0.33653165  1
  O  O41  1  0.90606210  0.64955833  0.98618049  1
  O  O42  1  0.83739086  0.35117001  0.33371959  1
  O  O43  1  0.31813299  0.49611322  0.31761002  1
  O  O44  1  0.17798023  0.68186701  0.98427702  1
loop_
_geom_bond_atom_site_label_1
_geom_bond_atom_site_label_2
_geom_bond_distance
_geom_bond_site_symmetry_2
Ge0 O40 1.717840 1_555
Ge0 O30 1.722810 1_554
Ge0 O34 1.778359 1_554
Ge0 O43 1.780355 1_555
Ge1 O11 1.717840 1_555
Ge1 O39 1.722804 1_555
Ge1 O13 1.778365 1_555
Ge1 O12 1.780355 1_555
Ge2 O28 1.720403 1_544
Ge2 O38 1.721111 1_545
Ge2 O7 1.778098 1_555
Ge2 O19 1.780258 1_555
Ge3 O35 1.720394 1_555
Ge3 O21 1.721111 1_556
Ge3 O16 1.778098 1_555
Ge3 O3 1.780258 1_555
Ge4 O37 1.720397 1_655
Ge4 O33 1.721111 1_655
Ge4 O14 1.778098 1_555
Ge4 O42 1.780259 1_555
Ge5 O5 1.719998 1_556
Ge5 O23 1.722567 1_555
Ge5 O31 1.775930 1_555
Ge5 O27 1.780727 1_555
Ge6 O24 1.719994 1_555
Ge6 O2 1.722567 1_555
Ge6 O15 1.775934 1_555
Ge6 O4 1.780727 1_555
Ge7 O1 1.719994 1_555
Ge7 O41 1.722567 1_554
Ge7 O22 1.775934 1_555
Ge7 O29 1.780727 1_555
Ge8 O9 1.717835 1_556
Ge8 O0 1.722802 1_555
Ge8 O8 1.778372 1_555
Ge8 O44 1.780355 1_555
B0 O18 1.448241 1_445
B0 O6 1.452330 1_455
B0 O4 1.501689 1_555
B0 O31 1.504759 1_455
B1 O32 1.448805 1_555
B1 O20 1.454885 1_555
B1 O42 1.502168 1_555
B1 O7 1.502849 1_555
B2 O17 1.448241 1_666
B2 O18 1.452329 1_555
B2 O27 1.501698 1_565
B2 O22 1.504750 1_556
B3 O36 1.448801 1_554
B3 O32 1.454882 1_555
B3 O19 1.502169 1_555
B3 O16 1.502849 1_554
B4 O26 1.449261 1_556
B4 O25 1.453767 1_555
B4 O34 1.500941 1_555
B4 O44 1.505451 1_555
B5 O10 1.449265 1_555
B5 O26 1.453767 1_555
B5 O13 1.500943 1_555
B5 O43 1.505451 1_555
B6 O6 1.448253 1_465
B6 O17 1.452333 1_565
B6 O29 1.501688 1_455
B6 O15 1.504747 1_565
B7 O25 1.449261 1_555
B7 O10 1.453767 1_555
B7 O8 1.500931 1_555
B7 O12 1.505450 1_555
B8 O20 1.448800 1_555
B8 O36 1.454875 1_555
B8 O3 1.502169 1_555
B8 O14 1.502849 1_555
O0 Pr8 2.392715 1_455
O0 Pr6 2.508368 1_555
O1 Pr5 2.395451 1_555
O1 Pr8 2.506184 1_555
O2 Pr5 2.398212 1_555
O2 Pr3 2.519383 1_554
O3 Pr5 2.684443 1_555
O3 Pr8 2.726840 1_555
O4 Pr3 2.666425 1_555
O4 Pr4 2.727692 1_555
O5 Pr1 2.395454 1_554
O5 Pr2 2.506176 1_555
O6 Pr2 2.597866 1_555
O7 Pr2 2.566794 1_555
O7 Pr0 2.682238 1_555
O8 Pr0 2.582926 1_565
O8 Pr6 2.675735 1_555
O9 Pr3 2.388045 1_564
O9 Pr6 2.507214 1_555
O10 Pr6 2.591032 1_555
O11 Pr8 2.388033 1_555
O11 Pr7 2.507209 1_555
O12 Pr0 2.690037 1_565
O12 Pr7 2.704629 1_555
O13 Pr5 2.582913 1_555
O13 Pr7 2.675739 1_554
O14 Pr8 2.566805 1_555
O14 Pr1 2.682233 1_555
O15 Pr6 2.561895 1_545
O15 Pr3 2.712298 1_554
O16 Pr3 2.566800 1_555
O16 Pr5 2.682240 1_556
O17 Pr3 2.597854 1_554
O18 Pr8 2.597854 1_555
O19 Pr0 2.684437 1_554
O19 Pr3 2.726845 1_554
O20 Pr0 2.590867 1_555
O21 Pr7 2.394247 1_554
O21 Pr5 2.517173 1_555
O22 Pr7 2.561895 1_554
O22 Pr8 2.712294 1_554
O23 Pr0 2.398216 1_555
O23 Pr2 2.519382 1_555
O24 Pr0 2.395442 1_555
O24 Pr3 2.506187 1_555
O25 Pr4 2.591032 1_555
O26 Pr7 2.591032 1_554
O27 Pr2 2.666431 1_556
O27 Pr7 2.727692 1_545
O28 Pr7 2.391740 1_555
O28 Pr0 2.502019 1_565
O29 Pr8 2.666429 1_555
O29 Pr6 2.727692 1_655
O30 Pr3 2.392691 1_555
O30 Pr4 2.508374 1_555
O31 Pr4 2.561895 1_655
O31 Pr2 2.712306 1_555
O32 Pr5 2.590867 1_555
O33 Pr4 2.394247 1_555
O33 Pr1 2.517179 1_455
O34 Pr1 2.582937 1_455
O34 Pr4 2.675734 1_555
O35 Pr4 2.391752 1_555
O35 Pr5 2.502007 1_555
O36 Pr1 2.590869 1_555
O37 Pr6 2.391748 1_555
O37 Pr1 2.502011 1_454
O38 Pr6 2.394247 1_555
O38 Pr0 2.517175 1_565
O39 Pr2 2.392708 1_565
O39 Pr7 2.508369 1_554
O40 Pr2 2.388042 1_455
O40 Pr4 2.507209 1_555
O41 Pr1 2.398204 1_555
O41 Pr8 2.519388 1_555
O42 Pr1 2.684441 1_554
O42 Pr2 2.726833 1_555
O43 Pr5 2.690025 1_555
O43 Pr4 2.704629 1_555
O44 Pr1 2.690032 1_455
O44 Pr6 2.704629 1_556
