# generated using pymatgen
data_Ag3BiO3
_symmetry_space_group_name_H-M   'P 1'
_cell_length_a   11.15525451
_cell_length_b   11.15525451
_cell_length_c   11.15525451
_cell_angle_alpha   99.17646559
_cell_angle_beta   99.17646559
_cell_angle_gamma   132.92563799
_symmetry_Int_Tables_number   1
_chemical_formula_structural   Ag3BiO3
_chemical_formula_sum   'Ag24 Bi8 O24'
_cell_volume   931.89285448
_cell_formula_units_Z   8
loop_
 _symmetry_equiv_pos_site_id
 _symmetry_equiv_pos_as_xyz
  1  'x, y, z'
loop_
 _atom_site_type_symbol
 _atom_site_label
 _atom_site_symmetry_multiplicity
 _atom_site_fract_x
 _atom_site_fract_y
 _atom_site_fract_z
 _atom_site_occupancy
  Ag  Ag0  1  0.07846300  0.71367500  0.06468400  1
  Ag  Ag1  1  0.30826500  0.34615400  0.85515200  1
  Ag  Ag2  1  0.03240300  0.17713200  0.02244200  1
  Ag  Ag3  1  0.68320900  0.52882700  0.44977000  1
  Ag  Ag4  1  0.86569200  0.63827800  0.77087000  1
  Ag  Ag5  1  0.64899100  0.01377900  0.93531600  1
  Ag  Ag6  1  0.25996100  0.78240300  0.35527100  1
  Ag  Ag7  1  0.82122300  0.70770900  0.06541500  1
  Ag  Ag8  1  0.42713200  0.90469000  0.64472900  1
  Ag  Ag9  1  0.77882700  0.82905700  0.34561800  1
  Ag  Ag10  1  0.34482200  0.61569200  0.72741400  1
  Ag  Ag11  1  0.95770900  0.39229400  0.38648500  1
  Ag  Ag12  1  0.15469000  0.00996100  0.97755800  1
  Ag  Ag13  1  0.64229400  0.75580800  0.93458500  1
  Ag  Ag14  1  0.88827800  0.61740800  0.27258600  1
  Ag  Ag15  1  0.59615400  0.24100200  0.53788900  1
  Ag  Ag16  1  0.26377900  0.82846300  0.86478800  1
  Ag  Ag17  1  0.49100200  0.45311300  0.14484800  1
  Ag  Ag18  1  0.86740800  0.09482200  0.22913000  1
  Ag  Ag19  1  0.70311300  0.05826500  0.46211100  1
  Ag  Ag20  1  0.07905700  0.23343800  0.55023000  1
  Ag  Ag21  1  0.96367500  0.39899100  0.13521200  1
  Ag  Ag22  1  0.48343800  0.43320900  0.65438200  1
  Ag  Ag23  1  0.00580800  0.57122300  0.61351500  1
  Bi  Bi0  1  0.59458700  0.27622800  0.87905700  1
  Bi  Bi1  1  0.14671000  0.97331000  0.62887400  1
  Bi  Bi2  1  0.52622800  0.14717100  0.18164100  1
  Bi  Bi3  1  0.76783600  0.89671000  0.67340100  1
  Bi  Bi4  1  0.22331000  0.09443600  0.32659900  1
  Bi  Bi5  1  0.34443600  0.51783600  0.37112600  1
  Bi  Bi6  1  0.96553000  0.34458700  0.81835900  1
  Bi  Bi7  1  0.39717100  0.71553000  0.12094300  1
  O  O0  1  0.27612800  0.93540400  0.24886000  1
  O  O1  1  0.87030600  0.75681100  0.63045900  1
  O  O2  1  0.87176300  0.49648800  0.88120100  1
  O  O3  1  0.48213700  0.31113800  0.26443500  1
  O  O4  1  0.00681100  0.87635300  0.38650600  1
  O  O5  1  0.69044700  0.24517700  0.37309600  1
  O  O6  1  0.46770300  0.23213700  0.67100000  1
  O  O7  1  0.18540400  0.43654400  0.15927600  1
  O  O8  1  0.12635300  0.23984700  0.36954100  1
  O  O9  1  0.61528700  0.99056200  0.11879900  1
  O  O10  1  0.27726800  0.02612800  0.84072400  1
  O  O11  1  0.16923900  0.80313200  0.56500500  1
  O  O12  1  0.85423400  0.91923900  0.86610700  1
  O  O13  1  0.48984700  0.62030600  0.61349400  1
  O  O14  1  0.56735100  0.44044700  0.94527000  1
  O  O15  1  0.04670300  0.21770300  0.73556500  1
  O  O16  1  0.49517700  0.62208100  0.05473000  1
  O  O17  1  0.56113800  0.79670300  0.32900000  1
  O  O18  1  0.05313200  0.98812700  0.13389300  1
  O  O19  1  0.68654400  0.02726800  0.75114000  1
  O  O20  1  0.23812700  0.60423400  0.43499500  1
  O  O21  1  0.87208100  0.31735100  0.62690400  1
  O  O22  1  0.24056200  0.62176300  0.87527500  1
  O  O23  1  0.74648800  0.36528700  0.12472500  1
loop_
_geom_bond_atom_site_label_1
_geom_bond_atom_site_label_2
_geom_bond_distance
_geom_bond_site_symmetry_2
Ag0 O2 2.163265 1_454
Ag0 O0 2.169443 1_555
Ag1 O15 2.190971 1_555
Ag1 O14 2.250617 1_555
Ag1 O16 2.523948 1_556
Ag2 O7 2.156351 1_555
Ag2 O12 2.184943 1_444
Ag2 O18 2.730013 1_545
Ag3 O1 2.163330 1_555
Ag3 O3 2.168622 1_555
Ag4 O2 2.182062 1_555
Ag4 O1 2.190431 1_555
Ag5 O9 2.163265 1_546
Ag5 O19 2.169443 1_555
Ag6 O0 2.156351 1_555
Ag6 O20 2.184943 1_555
Ag6 O11 2.730013 1_555
Ag7 O18 2.155485 1_655
Ag7 O14 2.172440 1_554
Ag8 O19 2.156351 1_565
Ag8 O11 2.184943 1_555
Ag8 O20 2.730013 1_555
Ag9 O4 2.163323 1_655
Ag9 O17 2.168621 1_555
Ag10 O22 2.182062 1_555
Ag10 O13 2.190438 1_555
Ag11 O20 2.155484 1_655
Ag11 O5 2.172443 1_555
Ag12 O10 2.156351 1_555
Ag12 O18 2.184943 1_546
Ag12 O12 2.730013 1_445
Ag13 O12 2.155485 1_555
Ag13 O16 2.172440 1_556
Ag14 O23 2.182062 1_555
Ag14 O4 2.190443 1_655
Ag15 O6 2.190968 1_555
Ag15 O5 2.250617 1_555
Ag15 O21 2.523948 1_555
Ag16 O22 2.163265 1_555
Ag16 O10 2.169443 1_565
Ag17 O3 2.190967 1_555
Ag17 O16 2.250617 1_555
Ag17 O14 2.523948 1_554
Ag18 O9 2.182062 1_545
Ag18 O8 2.190438 1_655
Ag19 O17 2.190971 1_545
Ag19 O21 2.250617 1_555
Ag19 O5 2.523948 1_555
Ag20 O8 2.163334 1_555
Ag20 O15 2.168619 1_555
Ag21 O23 2.163265 1_555
Ag21 O7 2.169443 1_655
Ag22 O13 2.163327 1_555
Ag22 O6 2.168639 1_555
Ag23 O11 2.155492 1_555
Ag23 O21 2.172436 1_455
Bi0 O14 2.095678 1_555
Bi0 O2 2.282015 1_555
Bi0 O6 2.296064 1_555
Bi0 O10 2.486277 1_555
Bi0 O23 2.593467 1_556
Bi1 O11 2.109546 1_555
Bi1 O1 2.286505 1_455
Bi1 O10 2.311376 1_565
Bi1 O6 2.515422 1_565
Bi1 O4 2.517459 1_555
Bi2 O5 2.095678 1_555
Bi2 O23 2.282015 1_555
Bi2 O3 2.296078 1_555
Bi2 O0 2.486277 1_545
Bi2 O9 2.593467 1_545
Bi3 O12 2.109536 1_555
Bi3 O13 2.286502 1_555
Bi3 O19 2.311372 1_565
Bi3 O15 2.515425 1_665
Bi3 O1 2.517469 1_555
Bi4 O18 2.109538 1_545
Bi4 O4 2.286515 1_545
Bi4 O0 2.311372 1_545
Bi4 O3 2.515411 1_555
Bi4 O8 2.517459 1_555
Bi5 O20 2.109546 1_555
Bi5 O8 2.286504 1_555
Bi5 O7 2.311376 1_555
Bi5 O17 2.515423 1_555
Bi5 O13 2.517457 1_555
Bi6 O21 2.095678 1_555
Bi6 O22 2.282015 1_655
Bi6 O15 2.296069 1_655
Bi6 O19 2.486277 1_555
Bi6 O2 2.593467 1_555
Bi7 O16 2.095678 1_555
Bi7 O9 2.282015 1_555
Bi7 O17 2.296069 1_555
Bi7 O7 2.486277 1_555
Bi7 O22 2.593467 1_554
