# generated using pymatgen
data_NaSrBO3
_symmetry_space_group_name_H-M   'P 1'
_cell_length_a   9.33740400
_cell_length_b   5.39326500
_cell_length_c   6.12790265
_cell_angle_alpha   79.74450539
_cell_angle_beta   90.00000000
_cell_angle_gamma   90.00000000
_symmetry_Int_Tables_number   1
_chemical_formula_structural   NaSrBO3
_chemical_formula_sum   'Na4 Sr4 B4 O12'
_cell_volume   303.66538829
_cell_formula_units_Z   4
loop_
 _symmetry_equiv_pos_site_id
 _symmetry_equiv_pos_as_xyz
  1  'x, y, z'
loop_
 _atom_site_type_symbol
 _atom_site_label
 _atom_site_symmetry_multiplicity
 _atom_site_fract_x
 _atom_site_fract_y
 _atom_site_fract_z
 _atom_site_occupancy
  Na  Na0  1  0.75883400  0.74346100  0.03515800  1
  Na  Na1  1  0.25883400  0.25653900  0.46484200  1
  Na  Na2  1  0.24116600  0.25653900  0.96484200  1
  Na  Na3  1  0.74116600  0.74346100  0.53515800  1
  Sr  Sr0  1  0.58705500  0.24665800  0.78487000  1
  Sr  Sr1  1  0.08705500  0.75334200  0.71513000  1
  Sr  Sr2  1  0.41294500  0.75334200  0.21513000  1
  Sr  Sr3  1  0.91294500  0.24665800  0.28487000  1
  B  B0  1  0.07974500  0.75393900  0.23714200  1
  B  B1  1  0.42025500  0.75393900  0.73714200  1
  B  B2  1  0.57974500  0.24606100  0.26285800  1
  B  B3  1  0.92025500  0.24606100  0.76285800  1
  O  O0  1  0.06061400  0.27617000  0.68699100  1
  O  O1  1  0.34480400  0.96292000  0.78015300  1
  O  O2  1  0.93938600  0.72383000  0.31300900  1
  O  O3  1  0.85504500  0.42333100  0.86909800  1
  O  O4  1  0.35504500  0.57666900  0.63090200  1
  O  O5  1  0.64495500  0.42333100  0.36909800  1
  O  O6  1  0.14495500  0.57666900  0.13090200  1
  O  O7  1  0.43938600  0.27617000  0.18699100  1
  O  O8  1  0.65519600  0.03708000  0.21984700  1
  O  O9  1  0.84480400  0.03708000  0.71984700  1
  O  O10  1  0.15519600  0.96292000  0.28015300  1
  O  O11  1  0.56061400  0.72383000  0.81300900  1
loop_
_geom_bond_atom_site_label_1
_geom_bond_atom_site_label_2
_geom_bond_distance
_geom_bond_site_symmetry_2
Na0 O11 2.311141 1_554
Na0 O8 2.315853 1_565
Na0 O3 2.334336 1_554
Na0 O2 2.385001 1_555
Na0 O9 2.407475 1_564
Na0 O5 2.653514 1_555
Na1 O0 2.311141 1_555
Na1 O10 2.315853 1_545
Na1 O4 2.334336 1_555
Na1 O7 2.385001 1_555
Na1 O1 2.407475 1_545
Na1 O6 2.653514 1_555
Na2 O7 2.311141 1_556
Na2 O1 2.315853 1_545
Na2 O6 2.334336 1_556
Na2 O0 2.385001 1_555
Na2 O10 2.407475 1_546
Na2 O4 2.653514 1_555
Na3 O2 2.311141 1_555
Na3 O9 2.315853 1_565
Na3 O5 2.334336 1_555
Na3 O11 2.385001 1_555
Na3 O8 2.407475 1_565
Na3 O3 2.653514 1_555
B0 O6 1.389344 1_555
B0 O2 1.390420 1_455
B0 O10 1.393528 1_555
B1 O4 1.389344 1_555
B1 O11 1.390420 1_555
B1 O1 1.393528 1_555
B2 O5 1.389344 1_555
B2 O7 1.390420 1_555
B2 O8 1.393528 1_555
B3 O3 1.389344 1_555
B3 O0 1.390420 1_655
B3 O9 1.393528 1_555
O0 Sr1 2.621389 1_555
O0 Sr1 2.805093 1_545
O0 Sr3 2.852767 1_455
O1 Sr1 2.718266 1_555
O1 Sr0 2.734035 1_565
O1 Sr2 2.777499 1_556
O2 Sr3 2.621389 1_555
O2 Sr3 2.805093 1_565
O2 Sr1 2.852767 1_655
O3 Sr3 2.612873 1_556
O3 Sr0 2.758821 1_555
O3 Sr1 2.855386 1_655
O4 Sr2 2.612873 1_555
O4 Sr1 2.758821 1_555
O4 Sr0 2.855386 1_555
O5 Sr0 2.612873 1_555
O5 Sr3 2.758821 1_555
O5 Sr2 2.855386 1_555
O6 Sr1 2.612873 1_554
O6 Sr2 2.758821 1_555
O6 Sr3 2.855386 1_455
O7 Sr2 2.621389 1_555
O7 Sr2 2.805093 1_545
O7 Sr0 2.852767 1_554
O8 Sr3 2.718266 1_555
O8 Sr2 2.734035 1_545
O8 Sr0 2.777499 1_554
O9 Sr0 2.718266 1_555
O9 Sr1 2.734035 1_645
O9 Sr3 2.777499 1_555
O10 Sr2 2.718266 1_555
O10 Sr3 2.734035 1_465
O10 Sr1 2.777499 1_555
O11 Sr0 2.621389 1_555
O11 Sr0 2.805093 1_565
O11 Sr2 2.852767 1_556
