# generated using pymatgen
data_Pr3CuSiS7
_symmetry_space_group_name_H-M   'P 1'
_cell_length_a   10.28199983
_cell_length_b   10.28199983
_cell_length_c   5.79820300
_cell_angle_alpha   90.00000000
_cell_angle_beta   90.00000000
_cell_angle_gamma   119.99999888
_symmetry_Int_Tables_number   1
_chemical_formula_structural   Pr3CuSiS7
_chemical_formula_sum   'Pr6 Cu2 Si2 S14'
_cell_volume   530.85906428
_cell_formula_units_Z   2
loop_
 _symmetry_equiv_pos_site_id
 _symmetry_equiv_pos_as_xyz
  1  'x, y, z'
loop_
 _atom_site_type_symbol
 _atom_site_label
 _atom_site_symmetry_multiplicity
 _atom_site_fract_x
 _atom_site_fract_y
 _atom_site_fract_z
 _atom_site_occupancy
  Pr  Pr0  1  0.12376400  0.35668300  0.73094300  1
  Pr  Pr1  1  0.76708100  0.12376400  0.23094300  1
  Pr  Pr2  1  0.23291900  0.87623600  0.73094300  1
  Pr  Pr3  1  0.35668300  0.23291900  0.23094300  1
  Pr  Pr4  1  0.64331700  0.76708100  0.73094300  1
  Pr  Pr5  1  0.87623600  0.64331700  0.23094300  1
  Cu  Cu0  1  0.00000000  0.00000000  0.21565800  1
  Cu  Cu1  1  0.00000000  0.00000000  0.71565800  1
  Si  Si0  1  0.66666700  0.33333300  0.81636100  1
  Si  Si1  1  0.33333300  0.66666700  0.31636100  1
  S  S0  1  0.47552500  0.88615700  0.45850300  1
  S  S1  1  0.11384300  0.58936900  0.45850300  1
  S  S2  1  0.66666700  0.33333300  0.45193700  1
  S  S3  1  0.08581900  0.25016500  0.22165900  1
  S  S4  1  0.41063100  0.52447400  0.45850300  1
  S  S5  1  0.33333300  0.66666700  0.95193700  1
  S  S6  1  0.88615700  0.41063100  0.95850300  1
  S  S7  1  0.91418100  0.74983500  0.72165900  1
  S  S8  1  0.16434700  0.91418100  0.22165900  1
  S  S9  1  0.58936900  0.47552500  0.95850300  1
  S  S10  1  0.74983500  0.83565300  0.22165900  1
  S  S11  1  0.52447400  0.11384300  0.95850300  1
  S  S12  1  0.25016500  0.16434700  0.72165900  1
  S  S13  1  0.83565300  0.08581900  0.72165900  1
loop_
_geom_bond_atom_site_label_1
_geom_bond_atom_site_label_2
_geom_bond_distance
_geom_bond_site_symmetry_2
Pr0 S12 2.858862 1_555
Pr0 S13 2.878295 1_455
Pr0 S1 2.910969 1_555
Pr0 S3 3.003329 1_556
Pr0 S4 3.013804 1_555
Pr0 S6 3.061434 1_455
Pr0 S5 3.094471 1_555
Pr0 S3 3.105516 1_555
Pr1 S3 2.858872 1_655
Pr1 S10 2.878299 1_545
Pr1 S11 2.910969 1_554
Pr1 S13 3.003326 1_555
Pr1 S6 3.013804 1_554
Pr1 S0 3.061440 1_545
Pr1 S2 3.094464 1_555
Pr1 S13 3.105513 1_554
Pr2 S7 2.858872 1_455
Pr2 S12 2.878299 1_565
Pr2 S0 2.910960 1_555
Pr2 S8 3.003326 1_556
Pr2 S1 3.013804 1_555
Pr2 S11 3.061434 1_565
Pr2 S5 3.094464 1_555
Pr2 S8 3.105513 1_555
Pr3 S8 2.858871 1_545
Pr3 S3 2.878289 1_555
Pr3 S9 2.910964 1_554
Pr3 S12 3.003329 1_555
Pr3 S11 3.013804 1_554
Pr3 S4 3.061434 1_555
Pr3 S2 3.094473 1_555
Pr3 S12 3.105515 1_554
Pr4 S13 2.858871 1_565
Pr4 S7 2.878289 1_555
Pr4 S4 2.910969 1_555
Pr4 S10 3.003329 1_556
Pr4 S0 3.013812 1_555
Pr4 S9 3.061443 1_555
Pr4 S5 3.094473 1_555
Pr4 S10 3.105515 1_555
Pr5 S10 2.858862 1_555
Pr5 S8 2.878295 1_655
Pr5 S6 2.910969 1_554
Pr5 S7 3.003329 1_555
Pr5 S9 3.013804 1_554
Pr5 S1 3.061434 1_655
Pr5 S2 3.094471 1_555
Pr5 S7 3.105516 1_554
Cu0 S3 2.264141 1_555
Cu0 S10 2.264143 1_445
Cu0 S8 2.264151 1_545
Cu1 S7 2.264141 1_445
Cu1 S12 2.264143 1_555
Cu1 S13 2.264151 1_455
S0 Si1 2.147185 1_555
S1 Si1 2.147185 1_555
S2 Si0 2.113004 1_555
S4 Si1 2.147194 1_555
S5 Si1 2.113004 1_556
S6 Si0 2.147185 1_555
S9 Si0 2.147185 1_555
S11 Si0 2.147186 1_555
