# generated using pymatgen
data_U4Al18Ni5
_symmetry_space_group_name_H-M   'P 1'
_cell_length_a   8.06690635
_cell_length_b   8.06690635
_cell_length_c   16.06312378
_cell_angle_alpha   63.67294782
_cell_angle_beta   63.67294782
_cell_angle_gamma   28.98214326
_symmetry_Int_Tables_number   1
_chemical_formula_structural   U4Al18Ni5
_chemical_formula_sum   'U4 Al18 Ni5'
_cell_volume   450.22801724
_cell_formula_units_Z   1
loop_
 _symmetry_equiv_pos_site_id
 _symmetry_equiv_pos_as_xyz
  1  'x, y, z'
loop_
 _atom_site_type_symbol
 _atom_site_label
 _atom_site_symmetry_multiplicity
 _atom_site_fract_x
 _atom_site_fract_y
 _atom_site_fract_z
 _atom_site_occupancy
  U  U0  1  0.76805700  0.76805700  0.66113200  1
  U  U1  1  0.56227800  0.56227800  0.10896300  1
  U  U2  1  0.23200400  0.23200400  0.33553300  1
  U  U3  1  0.44259700  0.44259700  0.88812000  1
  Al  Al0  1  0.37012000  0.37012000  0.10992700  1
  Al  Al1  1  0.10451100  0.10451100  0.77474600  1
  Al  Al2  1  0.89700400  0.89700400  0.22046300  1
  Al  Al3  1  0.43057500  0.43057500  0.32134700  1
  Al  Al4  1  0.56506300  0.56506300  0.66717900  1
  Al  Al5  1  0.29497300  0.29497300  0.78709900  1
  Al  Al6  1  0.97664900  0.97664900  0.45304700  1
  Al  Al7  1  0.71284600  0.71284600  0.20472000  1
  Al  Al8  1  0.20471900  0.20471900  0.97163700  1
  Al  Al9  1  0.42688000  0.42688000  0.60010000  1
  Al  Al10  1  0.80242100  0.80242100  0.43925800  1
  Al  Al11  1  0.93586200  0.93586200  0.73989000  1
  Al  Al12  1  0.07154100  0.07154100  0.25656500  1
  Al  Al13  1  0.00331700  0.00331700  0.99728000  1
  Al  Al14  1  0.63500100  0.63500100  0.88345800  1
  Al  Al15  1  0.61089900  0.61089900  0.47906800  1
  Al  Al16  1  0.18694800  0.18694800  0.56511800  1
  Al  Al17  1  0.80044200  0.80044200  0.02073300  1
  Ni  Ni0  1  0.35861700  0.35861700  0.48744200  1
  Ni  Ni1  1  0.21917900  0.21917900  0.11362400  1
  Ni  Ni2  1  0.78739100  0.78739100  0.87734600  1
  Ni  Ni3  1  0.02963600  0.02963600  0.57310800  1
  Ni  Ni4  1  0.56603100  0.56603100  0.34989700  1
loop_
_geom_bond_atom_site_label_1
_geom_bond_atom_site_label_2
_geom_bond_distance
_geom_bond_site_symmetry_2
Al0 Ni1 2.331176 1_555
Al0 Al2 2.843710 1_455
Al0 Al2 2.843710 1_545
Al0 Al13 2.868569 1_654
Al0 Al13 2.868569 1_564
Al0 U1 2.994551 1_555
Al0 U3 3.206349 1_554
Al0 U2 3.259562 1_555
Al1 Al14 2.848301 1_455
Al1 Al14 2.848301 1_545
Al1 Al4 2.900908 1_455
Al1 Al4 2.900908 1_545
Al1 Al11 2.933389 1_445
Al1 Al16 3.004054 1_555
Al1 Al5 3.071082 1_555
Al1 U3 3.093260 1_455
Al1 U3 3.093260 1_545
Al1 U0 3.108112 1_455
Al1 U0 3.108112 1_545
Al2 Al3 2.784640 1_565
Al2 Al3 2.784640 1_655
Al2 Al7 3.000916 1_555
Al2 U1 3.116311 1_565
Al2 U1 3.116311 1_655
Al2 U2 3.125642 1_565
Al2 U2 3.125642 1_655
Al3 Ni4 2.361421 1_555
Al3 Ni0 2.373664 1_555
Al3 U2 3.004243 1_555
Al3 U1 3.072649 1_555
Al4 Ni3 2.725860 1_565
Al4 Ni3 2.725860 1_655
Al4 Al9 2.819719 1_555
Al4 U0 3.127575 1_555
Al4 U3 3.167826 1_555
Al5 Ni2 2.456189 1_455
Al5 Ni2 2.456189 1_545
Al5 U0 3.020769 1_455
Al5 U0 3.020769 1_545
Al5 U3 3.373245 1_555
Al6 Ni3 2.422138 1_665
Al6 Ni4 2.578760 1_655
Al6 Ni4 2.578760 1_565
Al6 Ni0 2.616486 1_655
Al6 Ni0 2.616486 1_565
Al6 U0 3.436769 1_555
Al6 U2 3.546216 1_665
Al7 Ni4 2.407914 1_555
Al7 Ni1 2.468405 1_565
Al7 Ni1 2.468405 1_655
Al7 U2 3.025822 1_655
Al7 U2 3.025822 1_565
Al7 U1 3.348415 1_555
Al8 Ni1 2.392659 1_556
Al8 Ni2 2.498889 1_455
Al8 Ni2 2.498889 1_545
Al8 U1 3.065084 1_546
Al8 U1 3.065084 1_456
Al8 U3 3.322644 1_555
Al9 Ni0 2.485880 1_555
Al9 Ni3 2.490266 1_565
Al9 Ni3 2.490266 1_655
Al9 U0 2.993730 1_545
Al9 U0 2.993730 1_455
Al10 Ni0 2.463064 1_655
Al10 Ni0 2.463064 1_565
Al10 U2 3.120828 1_655
Al10 U2 3.120828 1_565
Al10 Al2 3.126935 1_555
Al10 U0 3.352239 1_555
Al11 Ni2 2.358506 1_555
Al11 Ni3 2.393271 1_665
Al11 Al4 2.711529 1_655
Al11 Al4 2.711529 1_565
Al11 U3 3.159832 1_655
Al11 U3 3.159832 1_565
Al11 U0 3.392517 1_555
Al12 Ni1 2.395699 1_555
Al12 Ni4 2.492278 1_455
Al12 Ni4 2.492278 1_545
Al12 Al2 3.036083 1_445
Al12 U1 3.167218 1_545
Al12 U1 3.167218 1_455
Al12 U2 3.287015 1_555
Al13 Al14 2.864118 1_455
Al13 Al14 2.864118 1_545
Al13 Al8 2.979908 1_555
Al13 Al17 3.015105 1_446
Al13 U3 3.093943 1_545
Al13 U3 3.093943 1_455
Al13 U1 3.107240 1_546
Al13 U1 3.107240 1_456
Al13 Al2 3.186838 1_446
Al14 Ni2 2.337072 1_555
Al14 U3 2.971897 1_555
Al14 U0 3.205244 1_555
Al14 U1 3.262184 1_556
Al15 Ni4 2.475607 1_555
Al15 Ni3 2.492212 1_655
Al15 Ni3 2.492212 1_565
Al15 Al4 2.767850 1_555
Al15 U2 2.995554 1_655
Al15 U2 2.995554 1_565
Al16 Ni0 2.383767 1_555
Al16 Ni3 2.401220 1_555
Al16 Al4 2.743661 1_455
Al16 Al4 2.743661 1_545
Al16 U0 3.138254 1_455
Al16 U0 3.138254 1_545
Al16 U2 3.423121 1_555
Al17 Ni2 2.403468 1_554
Al17 Ni1 2.485390 1_565
Al17 Ni1 2.485390 1_655
Al17 U3 3.034741 1_654
Al17 U3 3.034741 1_564
Al17 U1 3.319416 1_555
Ni0 U0 3.200643 1_545
Ni0 U0 3.200643 1_455
Ni1 U1 3.202369 1_545
Ni1 U1 3.202369 1_455
Ni2 U3 3.219737 1_565
Ni2 U3 3.219737 1_655
Ni4 U2 3.209575 1_655
Ni4 U2 3.209575 1_565
