# generated using pymatgen
data_Ti3Co5B2
_symmetry_space_group_name_H-M   'P 1'
_cell_length_a   3.04703860
_cell_length_b   8.35454402
_cell_length_c   8.35454402
_cell_angle_alpha   90.00080980
_cell_angle_beta   90.00000000
_cell_angle_gamma   90.00000000
_symmetry_Int_Tables_number   1
_chemical_formula_structural   Ti3Co5B2
_chemical_formula_sum   'Ti6 Co10 B4'
_cell_volume   212.67843663
_cell_formula_units_Z   2
loop_
 _symmetry_equiv_pos_site_id
 _symmetry_equiv_pos_as_xyz
  1  'x, y, z'
loop_
 _atom_site_type_symbol
 _atom_site_label
 _atom_site_symmetry_multiplicity
 _atom_site_fract_x
 _atom_site_fract_y
 _atom_site_fract_z
 _atom_site_occupancy
  Ti  Ti0  1  -0.00000000  -0.00000000  -0.00000000  1
  Ti  Ti1  1  0.00000000  0.50000000  0.50000000  1
  Ti  Ti2  1  0.00000000  0.32562583  0.82562583  1
  Ti  Ti3  1  -0.00000000  0.17434206  0.32565794  1
  Ti  Ti4  1  0.00000000  0.82565794  0.67434206  1
  Ti  Ti5  1  0.00000000  0.67437417  0.17437417  1
  Co  Co0  1  0.50000000  -0.00000000  0.50000000  1
  Co  Co1  1  0.50000000  0.50000000  -0.00000000  1
  Co  Co2  1  0.50000000  0.22053376  0.07088031  1
  Co  Co3  1  0.50000000  0.92911972  0.22056242  1
  Co  Co4  1  0.50000000  0.07088028  0.77943758  1
  Co  Co5  1  0.50000000  0.77946624  0.92911969  1
  Co  Co6  1  0.50000000  0.72056242  0.42911972  1
  Co  Co7  1  0.50000000  0.27943758  0.57088028  1
  Co  Co8  1  0.50000000  0.57088031  0.72053376  1
  Co  Co9  1  0.50000000  0.42911969  0.27946624  1
  B  B0  1  0.00000000  0.12031685  0.62031685  1
  B  B1  1  -0.00000000  0.37967326  0.12032674  1
  B  B2  1  0.00000000  0.62032674  0.87967326  1
  B  B3  1  -0.00000000  0.87968315  0.37968315  1
loop_
_geom_bond_atom_site_label_1
_geom_bond_atom_site_label_2
_geom_bond_distance
_geom_bond_site_symmetry_2
Co0 Ti4 2.562077 1_645
Co0 Ti4 2.562077 1_545
Co0 Ti3 2.562077 1_555
Co0 Ti3 2.562077 1_655
Co1 Ti5 2.562358 1_555
Co1 Ti5 2.562358 1_655
Co1 Ti2 2.562358 1_654
Co1 Ti2 2.562358 1_554
Co2 Ti0 2.463007 1_555
Co2 Ti0 2.463007 1_655
Co2 Ti3 2.645901 1_555
Co2 Ti3 2.645901 1_655
Co2 Ti2 2.700073 1_654
Co2 Ti2 2.700073 1_554
Co3 Ti0 2.463199 1_565
Co3 Ti0 2.463199 1_665
Co3 Ti5 2.645672 1_555
Co3 Ti5 2.645672 1_655
Co3 Ti3 2.699860 1_665
Co3 Ti3 2.699860 1_565
Co4 Ti0 2.463199 1_556
Co4 Ti0 2.463199 1_656
Co4 Ti2 2.645672 1_655
Co4 Ti2 2.645672 1_555
Co4 Ti4 2.699860 1_645
Co4 Ti4 2.699860 1_545
Co5 Ti0 2.463007 1_566
Co5 Ti0 2.463007 1_666
Co5 Ti4 2.645901 1_555
Co5 Ti4 2.645901 1_655
Co5 Ti5 2.700073 1_656
Co5 Ti5 2.700073 1_556
Co6 Ti1 2.463199 1_555
Co6 Ti1 2.463199 1_655
Co6 Ti5 2.645672 1_555
Co6 Ti5 2.645672 1_655
Co6 Ti4 2.699860 1_555
Co6 Ti4 2.699860 1_655
Co7 Ti1 2.463199 1_555
Co7 Ti1 2.463199 1_655
Co7 Ti2 2.645672 1_655
Co7 Ti2 2.645672 1_555
Co7 Ti3 2.699860 1_555
Co7 Ti3 2.699860 1_655
Co8 Ti1 2.463007 1_555
Co8 Ti1 2.463007 1_655
Co8 Ti4 2.645901 1_555
Co8 Ti4 2.645901 1_655
Co8 Ti2 2.700073 1_555
Co8 Ti2 2.700073 1_655
Co9 Ti1 2.463007 1_555
Co9 Ti1 2.463007 1_655
Co9 Ti3 2.645901 1_555
Co9 Ti3 2.645901 1_655
Co9 Ti5 2.700073 1_555
Co9 Ti5 2.700073 1_655
B0 Co4 2.063726 1_455
B0 Co4 2.063726 1_555
B0 Co7 2.063726 1_455
B0 Co7 2.063726 1_555
B0 Co0 2.083724 1_455
B0 Co0 2.083724 1_555
B0 Ti2 2.425731 1_555
B0 Ti4 2.502783 1_545
B0 Ti3 2.502783 1_555
B1 Co9 2.063836 1_455
B1 Co9 2.063836 1_555
B1 Co2 2.063836 1_555
B1 Co2 2.063836 1_455
B1 Co1 2.083818 1_555
B1 Co1 2.083818 1_455
B1 Ti3 2.426028 1_555
B1 Ti2 2.503149 1_554
B1 Ti5 2.503149 1_555
B2 Co5 2.063836 1_455
B2 Co5 2.063836 1_555
B2 Co8 2.063836 1_455
B2 Co8 2.063836 1_555
B2 Co1 2.083818 1_556
B2 Co1 2.083818 1_456
B2 Ti4 2.426028 1_555
B2 Ti2 2.503149 1_555
B2 Ti5 2.503149 1_556
B3 Co6 2.063726 1_455
B3 Co6 2.063726 1_555
B3 Co3 2.063726 1_455
B3 Co3 2.063726 1_555
B3 Co0 2.083724 1_565
B3 Co0 2.083724 1_465
B3 Ti5 2.425731 1_555
B3 Ti4 2.502783 1_555
B3 Ti3 2.502783 1_565
