# generated using pymatgen
data_ReSb(OF4)2
_symmetry_space_group_name_H-M   'P 1'
_cell_length_a   10.41041900
_cell_length_b   5.76213300
_cell_length_c   12.92396684
_cell_angle_alpha   80.27010384
_cell_angle_beta   90.00000000
_cell_angle_gamma   90.00000000
_symmetry_Int_Tables_number   1
_chemical_formula_structural   ReSb(OF4)2
_chemical_formula_sum   'Re4 Sb4 O8 F32'
_cell_volume   764.10811505
_cell_formula_units_Z   4
loop_
 _symmetry_equiv_pos_site_id
 _symmetry_equiv_pos_as_xyz
  1  'x, y, z'
loop_
 _atom_site_type_symbol
 _atom_site_label
 _atom_site_symmetry_multiplicity
 _atom_site_fract_x
 _atom_site_fract_y
 _atom_site_fract_z
 _atom_site_occupancy
  Re  Re0  1  0.73942200  0.66653800  0.21440400  1
  Re  Re1  1  0.23942200  0.33346200  0.28559600  1
  Re  Re2  1  0.26057800  0.33346200  0.78559600  1
  Re  Re3  1  0.76057800  0.66653800  0.71440400  1
  Sb  Sb0  1  0.00000000  0.00000000  0.50000000  1
  Sb  Sb1  1  0.50000000  0.00000000  0.50000000  1
  Sb  Sb2  1  0.50000000  0.00000000  0.00000000  1
  Sb  Sb3  1  0.00000000  0.00000000  0.00000000  1
  O  O0  1  0.59923600  0.52327700  0.24786500  1
  O  O1  1  0.33016300  0.40693500  0.17598400  1
  O  O2  1  0.83016300  0.59306500  0.32401600  1
  O  O3  1  0.40076400  0.47672300  0.75213500  1
  O  O4  1  0.16983700  0.40693500  0.67598400  1
  O  O5  1  0.66983700  0.59306500  0.82401600  1
  O  O6  1  0.09923600  0.47672300  0.25213500  1
  O  O7  1  0.90076400  0.52327700  0.74786500  1
  F  F0  1  0.84620000  0.81003400  0.55574700  1
  F  F1  1  0.92595400  0.27128000  0.53972400  1
  F  F2  1  0.14044100  0.80822200  0.05340700  1
  F  F3  1  0.57404600  0.27128000  0.03972400  1
  F  F4  1  0.60008900  0.88465600  0.63129800  1
  F  F5  1  0.07891700  0.92686400  0.63401100  1
  F  F6  1  0.69006500  0.46786000  0.63103300  1
  F  F7  1  0.39991100  0.11534400  0.36870200  1
  F  F8  1  0.34620000  0.18996600  0.94425300  1
  F  F9  1  0.42108300  0.92686400  0.13401100  1
  F  F10  1  0.80625300  0.97052800  0.72937600  1
  F  F11  1  0.30625300  0.02947200  0.77062400  1
  F  F12  1  0.69374700  0.97052800  0.22937600  1
  F  F13  1  0.35955900  0.80822200  0.55340700  1
  F  F14  1  0.42595400  0.72872000  0.96027600  1
  F  F15  1  0.93318500  0.75301300  0.93608200  1
  F  F16  1  0.10008900  0.11534400  0.86870200  1
  F  F17  1  0.30993500  0.53214000  0.36896700  1
  F  F18  1  0.06681500  0.24698700  0.06391800  1
  F  F19  1  0.19374700  0.02947200  0.27062400  1
  F  F20  1  0.64044100  0.19177800  0.44659300  1
  F  F21  1  0.56681500  0.75301300  0.43608200  1
  F  F22  1  0.57891700  0.07313600  0.86598900  1
  F  F23  1  0.43318500  0.24698700  0.56391800  1
  F  F24  1  0.92108300  0.07313600  0.36598900  1
  F  F25  1  0.80993500  0.46786000  0.13103300  1
  F  F26  1  0.19006500  0.53214000  0.86896700  1
  F  F27  1  0.65380000  0.81003400  0.05574700  1
  F  F28  1  0.89991100  0.88465600  0.13129800  1
  F  F29  1  0.85955900  0.19177800  0.94659300  1
  F  F30  1  0.15380000  0.18996600  0.44425300  1
  F  F31  1  0.07404600  0.72872000  0.46027600  1
loop_
_geom_bond_atom_site_label_1
_geom_bond_atom_site_label_2
_geom_bond_distance
_geom_bond_site_symmetry_2
O0 Re0 1.696354 1_555
O1 Re1 1.695789 1_555
O2 Re0 1.695789 1_555
O3 Re2 1.696354 1_555
O4 Re2 1.695789 1_555
O5 Re3 1.695789 1_555
O6 Re1 1.696354 1_555
O7 Re3 1.696354 1_555
F0 Sb0 2.003566 1_665
F0 Re3 2.260440 1_555
F1 Sb0 1.890100 1_655
F2 Sb3 1.891384 1_565
F3 Sb2 1.890100 1_555
F4 Sb1 2.006405 1_565
F4 Re3 2.251303 1_555
F5 Sb0 1.898819 1_565
F6 Re3 1.851312 1_555
F7 Sb1 2.006405 1_555
F7 Re1 2.251303 1_555
F8 Sb2 2.003566 1_556
F8 Re2 2.260440 1_555
F9 Sb2 1.898819 1_565
F10 Re3 1.856424 1_555
F11 Re2 1.856424 1_555
F12 Re0 1.856424 1_555
F13 Sb1 1.891384 1_565
F14 Sb2 1.890100 1_566
F15 Sb3 1.894469 1_666
F16 Sb3 2.006405 1_556
F16 Re2 2.251303 1_555
F17 Re1 1.851312 1_555
F18 Sb3 1.894469 1_555
F19 Re1 1.856424 1_555
F20 Sb1 1.891384 1_555
F21 Sb1 1.894469 1_565
F22 Sb2 1.898819 1_556
F23 Sb1 1.894469 1_555
F24 Sb0 1.898819 1_655
F25 Re0 1.851312 1_555
F26 Re2 1.851312 1_555
F27 Sb2 2.003566 1_565
F27 Re0 2.260440 1_555
F28 Sb3 2.006405 1_665
F28 Re0 2.251303 1_555
F29 Sb3 1.891384 1_656
F30 Sb0 2.003566 1_555
F30 Re1 2.260440 1_555
F31 Sb0 1.890100 1_565
