# generated using pymatgen
data_Co8Te(AsO8)2
_symmetry_space_group_name_H-M   'P 1'
_cell_length_a   12.31426180
_cell_length_b   12.31426180
_cell_length_c   8.70424300
_cell_angle_alpha   90.00000000
_cell_angle_beta   90.00000000
_cell_angle_gamma   151.60178896
_symmetry_Int_Tables_number   1
_chemical_formula_structural   Co8Te(AsO8)2
_chemical_formula_sum   'Co16 Te2 As4 O32'
_cell_volume   627.74988825
_cell_formula_units_Z   2
loop_
 _symmetry_equiv_pos_site_id
 _symmetry_equiv_pos_as_xyz
  1  'x, y, z'
loop_
 _atom_site_type_symbol
 _atom_site_label
 _atom_site_symmetry_multiplicity
 _atom_site_fract_x
 _atom_site_fract_y
 _atom_site_fract_z
 _atom_site_occupancy
  Co  Co0  1  0.67708200  0.82291800  0.75000000  1
  Co  Co1  1  0.05903800  0.94096200  0.62815400  1
  Co  Co2  1  0.44294700  0.05705300  0.25000000  1
  Co  Co3  1  0.86408000  0.13592000  0.02780100  1
  Co  Co4  1  0.55903800  0.44096200  0.87184600  1
  Co  Co5  1  0.94096200  0.05903800  0.37184600  1
  Co  Co6  1  0.13592000  0.86408000  0.97219900  1
  Co  Co7  1  0.82291800  0.67708200  0.25000000  1
  Co  Co8  1  0.32291800  0.17708200  0.25000000  1
  Co  Co9  1  0.94294700  0.55705300  0.25000000  1
  Co  Co10  1  0.44096200  0.55903800  0.12815400  1
  Co  Co11  1  0.05705300  0.44294700  0.75000000  1
  Co  Co12  1  0.55705300  0.94294700  0.75000000  1
  Co  Co13  1  0.63592000  0.36408000  0.52780100  1
  Co  Co14  1  0.17708200  0.32291800  0.75000000  1
  Co  Co15  1  0.36408000  0.63592000  0.47219900  1
  Te  Te0  1  0.00000000  0.00000000  0.00000000  1
  Te  Te1  1  0.50000000  0.50000000  0.50000000  1
  As  As0  1  0.69064600  0.30935400  0.89127900  1
  As  As1  1  0.19064600  0.80935400  0.60872100  1
  As  As2  1  0.30935400  0.69064600  0.10872100  1
  As  As3  1  0.80935400  0.19064600  0.39127900  1
  O  O0  1  0.83522400  0.71662100  0.99629000  1
  O  O1  1  0.63070500  0.36929500  0.28502200  1
  O  O2  1  0.16477600  0.28337900  0.00371000  1
  O  O3  1  0.74788200  0.25211800  0.77040100  1
  O  O4  1  0.13194100  0.86805900  0.73198700  1
  O  O5  1  0.24788200  0.75211800  0.72959900  1
  O  O6  1  0.33522400  0.21662100  0.50371000  1
  O  O7  1  0.00798600  0.99201400  0.22649800  1
  O  O8  1  0.45410800  0.08148900  0.00388000  1
  O  O9  1  0.36929500  0.63070500  0.71497800  1
  O  O10  1  0.50798600  0.49201400  0.27350200  1
  O  O11  1  0.54589200  0.91851100  0.99612000  1
  O  O12  1  0.58148900  0.95410800  0.50388000  1
  O  O13  1  0.04589200  0.41851100  0.50388000  1
  O  O14  1  0.08148900  0.45410800  0.99612000  1
  O  O15  1  0.49201400  0.50798600  0.72649800  1
  O  O16  1  0.21662100  0.33522400  0.49629000  1
  O  O17  1  0.86805900  0.13194100  0.26801300  1
  O  O18  1  0.75211800  0.24788200  0.27040100  1
  O  O19  1  0.28337900  0.16477600  0.99629000  1
  O  O20  1  0.63194100  0.36805900  0.76801300  1
  O  O21  1  0.71662100  0.83522400  0.00371000  1
  O  O22  1  0.66477600  0.78337900  0.49629000  1
  O  O23  1  0.13070500  0.86929500  0.21497800  1
  O  O24  1  0.99201400  0.00798600  0.77350200  1
  O  O25  1  0.95410800  0.58148900  0.49612000  1
  O  O26  1  0.91851100  0.54589200  0.00388000  1
  O  O27  1  0.78337900  0.66477600  0.50371000  1
  O  O28  1  0.41851100  0.04589200  0.49612000  1
  O  O29  1  0.25211800  0.74788200  0.22959900  1
  O  O30  1  0.36805900  0.63194100  0.23198700  1
  O  O31  1  0.86929500  0.13070500  0.78502200  1
loop_
_geom_bond_atom_site_label_1
_geom_bond_atom_site_label_2
_geom_bond_distance
_geom_bond_site_symmetry_2
Co0 O9 2.068229 1_555
Co0 O31 2.068229 1_565
Co0 O24 2.174016 1_565
Co0 O15 2.174016 1_555
Co0 O22 2.237643 1_555
Co0 O21 2.237643 1_556
Co1 O4 1.961290 1_555
Co1 O6 1.987937 1_565
Co1 O27 1.987937 1_455
Co1 O24 2.039966 1_465
Co2 O18 2.075682 1_555
Co2 O29 2.075682 1_545
Co2 O23 2.140655 1_545
Co2 O1 2.140655 1_555
Co2 O8 2.150831 1_555
Co2 O28 2.150831 1_555
Co3 O14 2.034907 1_654
Co3 O11 2.034907 1_544
Co3 O17 2.093021 1_555
Co3 O31 2.116873 1_554
Co3 O2 2.285385 1_655
Co3 O21 2.285385 1_545
Co4 O20 1.961290 1_555
Co4 O19 1.987937 1_555
Co4 O0 1.987937 1_555
Co4 O15 2.039966 1_555
Co5 O17 1.961290 1_555
Co5 O16 1.987937 1_655
Co5 O22 1.987937 1_545
Co5 O7 2.039966 1_645
Co6 O8 2.034907 1_566
Co6 O26 2.034907 1_456
Co6 O4 2.093021 1_555
Co6 O23 2.116873 1_556
Co6 O19 2.285385 1_565
Co6 O0 2.285385 1_455
Co7 O1 2.068229 1_555
Co7 O23 2.068229 1_655
Co7 O10 2.174016 1_555
Co7 O7 2.174016 1_655
Co7 O0 2.237643 1_554
Co7 O27 2.237643 1_555
Co8 O1 2.068229 1_555
Co8 O23 2.068229 1_545
Co8 O10 2.174016 1_555
Co8 O7 2.174016 1_545
Co8 O19 2.237643 1_554
Co8 O6 2.237643 1_555
Co9 O18 2.075682 1_555
Co9 O29 2.075682 1_655
Co9 O23 2.140655 1_655
Co9 O1 2.140655 1_555
Co9 O26 2.150831 1_555
Co9 O25 2.150831 1_555
Co10 O30 1.961290 1_555
Co10 O2 1.987937 1_555
Co10 O21 1.987937 1_555
Co10 O10 2.039966 1_555
Co11 O5 2.075682 1_555
Co11 O3 2.075682 1_455
Co11 O31 2.140655 1_455
Co11 O9 2.140655 1_555
Co11 O13 2.150831 1_555
Co11 O14 2.150831 1_555
Co12 O5 2.075682 1_555
Co12 O3 2.075682 1_565
Co12 O31 2.140655 1_565
Co12 O9 2.140655 1_555
Co12 O12 2.150831 1_555
Co12 O11 2.150831 1_555
Co13 O25 2.034907 1_555
Co13 O28 2.034907 1_555
Co13 O20 2.093021 1_555
Co13 O1 2.116873 1_555
Co13 O27 2.285385 1_555
Co13 O6 2.285385 1_555
Co14 O9 2.068229 1_555
Co14 O31 2.068229 1_455
Co14 O15 2.174016 1_555
Co14 O24 2.174016 1_455
Co14 O16 2.237643 1_555
Co14 O2 2.237643 1_556
Co15 O12 2.034907 1_555
Co15 O13 2.034907 1_555
Co15 O30 2.093021 1_555
Co15 O9 2.116873 1_555
Co15 O22 2.285385 1_555
Co15 O16 2.285385 1_555
As0 O26 1.714380 1_556
As0 O8 1.714380 1_556
As0 O3 1.724686 1_555
As0 O20 1.765165 1_555
As1 O28 1.714380 1_565
As1 O25 1.714380 1_455
As1 O5 1.724686 1_555
As1 O4 1.765165 1_555
As2 O11 1.714380 1_554
As2 O14 1.714380 1_554
As2 O29 1.724686 1_555
As2 O30 1.765165 1_555
As3 O13 1.714380 1_655
As3 O12 1.714380 1_545
As3 O18 1.724686 1_555
As3 O17 1.765165 1_555
O0 Te0 1.959150 1_666
O2 Te0 1.959150 1_555
O6 Te1 1.959150 1_555
O7 Te0 1.980693 1_565
O10 Te1 1.980693 1_555
O15 Te1 1.980693 1_555
O16 Te1 1.959150 1_555
O19 Te0 1.959150 1_556
O21 Te0 1.959150 1_665
O22 Te1 1.959150 1_555
O24 Te0 1.980693 1_656
O27 Te1 1.959150 1_555
