# generated using pymatgen
data_NdNiSnH
_symmetry_space_group_name_H-M   'P 1'
_cell_length_a   4.38504800
_cell_length_b   7.24421300
_cell_length_c   8.46944300
_cell_angle_alpha   90.00000000
_cell_angle_beta   90.00000000
_cell_angle_gamma   90.00000000
_symmetry_Int_Tables_number   1
_chemical_formula_structural   NdNiSnH
_chemical_formula_sum   'Nd4 Ni4 Sn4 H4'
_cell_volume   269.04220424
_cell_formula_units_Z   4
loop_
 _symmetry_equiv_pos_site_id
 _symmetry_equiv_pos_as_xyz
  1  'x, y, z'
loop_
 _atom_site_type_symbol
 _atom_site_label
 _atom_site_symmetry_multiplicity
 _atom_site_fract_x
 _atom_site_fract_y
 _atom_site_fract_z
 _atom_site_occupancy
  Nd  Nd0  1  0.75000000  0.01303800  0.68890200  1
  Nd  Nd1  1  0.25000000  0.98696200  0.31109800  1
  Nd  Nd2  1  0.25000000  0.48696200  0.18890200  1
  Nd  Nd3  1  0.75000000  0.51303800  0.81109800  1
  Ni  Ni0  1  0.75000000  0.77926500  0.09934500  1
  Ni  Ni1  1  0.25000000  0.22073500  0.90065500  1
  Ni  Ni2  1  0.25000000  0.72073500  0.59934500  1
  Ni  Ni3  1  0.75000000  0.27926500  0.40065500  1
  Sn  Sn0  1  0.75000000  0.65826500  0.43084300  1
  Sn  Sn1  1  0.25000000  0.34173500  0.56915700  1
  Sn  Sn2  1  0.25000000  0.84173500  0.93084300  1
  Sn  Sn3  1  0.75000000  0.15826500  0.06915700  1
  H  H0  1  0.25000000  0.44101800  0.91948200  1
  H  H1  1  0.75000000  0.55898200  0.08051800  1
  H  H2  1  0.75000000  0.05898200  0.41948200  1
  H  H3  1  0.25000000  0.94101800  0.58051800  1
loop_
_geom_bond_atom_site_label_1
_geom_bond_atom_site_label_2
_geom_bond_distance
_geom_bond_site_symmetry_2
Nd0 Sn2 3.247455 1_545
Nd0 Sn2 3.247455 1_645
Nd0 Sn0 3.373734 1_545
Nd0 Sn3 3.388030 1_556
Nd0 Sn1 3.391989 1_555
Nd0 Sn1 3.391989 1_655
Nd1 Sn3 3.247455 1_465
Nd1 Sn3 3.247455 1_565
Nd1 Sn1 3.373734 1_565
Nd1 Sn2 3.388030 1_554
Nd1 Sn0 3.391989 1_455
Nd1 Sn0 3.391989 1_555
Nd2 Sn0 3.247455 1_455
Nd2 Sn0 3.247455 1_555
Nd2 Sn2 3.373734 1_554
Nd2 Sn1 3.388030 1_555
Nd2 Sn3 3.391989 1_455
Nd2 Sn3 3.391989 1_555
Nd3 Sn1 3.247455 1_555
Nd3 Sn1 3.247455 1_655
Nd3 Sn3 3.373734 1_556
Nd3 Sn0 3.388030 1_555
Nd3 Sn2 3.391989 1_555
Nd3 Sn2 3.391989 1_655
Ni0 Sn2 2.654925 1_554
Ni0 Sn2 2.654925 1_654
Ni0 Sn3 2.757436 1_565
Ni0 Sn0 2.941254 1_555
Ni1 Sn3 2.654925 1_456
Ni1 Sn3 2.654925 1_556
Ni1 Sn2 2.757436 1_545
Ni1 Sn1 2.941254 1_555
Ni2 Sn0 2.654925 1_455
Ni2 Sn0 2.654925 1_555
Ni2 Sn1 2.757436 1_555
Ni2 Sn2 2.941254 1_555
Ni3 Sn1 2.654925 1_655
Ni3 Sn1 2.654925 1_555
Ni3 Sn0 2.757436 1_555
Ni3 Sn3 2.941254 1_555
H0 Ni1 1.603724 1_555
H0 Nd2 2.305983 1_556
H0 Nd3 2.433516 1_555
H0 Nd3 2.433516 1_455
H1 Ni0 1.603724 1_555
H1 Nd3 2.305983 1_554
H1 Nd2 2.433516 1_655
H1 Nd2 2.433516 1_555
H2 Ni3 1.603724 1_555
H2 Nd0 2.305983 1_555
H2 Nd1 2.433516 1_545
H2 Nd1 2.433516 1_645
H3 Ni2 1.603724 1_555
H3 Nd1 2.305983 1_555
H3 Nd0 2.433516 1_465
H3 Nd0 2.433516 1_565
