# generated using pymatgen
data_Ho5Co2Bi
_symmetry_space_group_name_H-M   'P 1'
_cell_length_a   8.86252462
_cell_length_b   8.86252462
_cell_length_c   8.86252462
_cell_angle_alpha   129.83743216
_cell_angle_beta   129.83743216
_cell_angle_gamma   73.66679004
_symmetry_Int_Tables_number   1
_chemical_formula_structural   Ho5Co2Bi
_chemical_formula_sum   'Ho10 Co4 Bi2'
_cell_volume   400.46439294
_cell_formula_units_Z   2
loop_
 _symmetry_equiv_pos_site_id
 _symmetry_equiv_pos_as_xyz
  1  'x, y, z'
loop_
 _atom_site_type_symbol
 _atom_site_label
 _atom_site_symmetry_multiplicity
 _atom_site_fract_x
 _atom_site_fract_y
 _atom_site_fract_z
 _atom_site_occupancy
  Ho  Ho0  1  0.71219000  0.53433400  0.50000000  1
  Ho  Ho1  1  0.46566600  0.96566600  0.17785600  1
  Ho  Ho2  1  0.78781000  0.28781000  0.82214400  1
  Ho  Ho3  1  0.53433400  0.03433400  0.82214400  1
  Ho  Ho4  1  0.00000000  0.00000000  0.00000000  1
  Ho  Ho5  1  0.03433400  0.21219000  0.50000000  1
  Ho  Ho6  1  0.28781000  0.46566600  0.50000000  1
  Ho  Ho7  1  0.21219000  0.71219000  0.17785600  1
  Ho  Ho8  1  0.96566600  0.78781000  0.50000000  1
  Ho  Ho9  1  0.50000000  0.50000000  0.00000000  1
  Co  Co0  1  0.13380600  0.63380600  0.76761100  1
  Co  Co1  1  0.86619400  0.36619400  0.23238900  1
  Co  Co2  1  0.63380600  0.86619400  0.50000000  1
  Co  Co3  1  0.36619400  0.13380600  0.50000000  1
  Bi  Bi0  1  0.25000000  0.25000000  0.00000000  1
  Bi  Bi1  1  0.75000000  0.75000000  0.00000000  1
loop_
_geom_bond_atom_site_label_1
_geom_bond_atom_site_label_2
_geom_bond_distance
_geom_bond_site_symmetry_2
Co0 Ho1 2.825526 1_556
Co0 Ho7 2.825535 1_556
Co0 Ho8 2.860729 1_455
Co0 Ho6 2.860729 1_555
Co0 Ho0 2.860738 1_455
Co0 Ho5 2.860738 1_555
Co0 Ho4 2.929407 1_566
Co0 Ho9 2.929407 1_556
Co1 Ho3 2.825526 1_554
Co1 Ho2 2.825535 1_554
Co1 Ho0 2.860729 1_555
Co1 Ho5 2.860729 1_655
Co1 Ho6 2.860738 1_655
Co1 Ho8 2.860738 1_555
Co1 Ho4 2.929407 1_655
Co1 Ho9 2.929407 1_555
Co2 Ho0 2.825526 1_555
Co2 Ho8 2.825526 1_555
Co2 Ho7 2.860737 1_555
Co2 Ho1 2.860737 1_555
Co2 Ho3 2.860737 1_565
Co2 Ho2 2.860737 1_565
Co2 Ho9 2.929404 1_555
Co2 Ho4 2.929404 1_666
Co3 Ho5 2.825526 1_555
Co3 Ho6 2.825526 1_555
Co3 Ho7 2.860737 1_545
Co3 Ho3 2.860737 1_555
Co3 Ho1 2.860737 1_545
Co3 Ho2 2.860737 1_555
Co3 Ho4 2.929404 1_555
Co3 Ho9 2.929404 1_556
Bi0 Ho5 3.317807 1_554
Bi0 Ho3 3.317807 1_554
Bi0 Ho2 3.317807 1_454
Bi0 Ho0 3.317807 1_555
Bi0 Ho7 3.317807 1_555
Bi0 Ho8 3.317807 1_444
Bi0 Ho6 3.317807 1_555
Bi0 Ho1 3.317807 1_545
Bi0 Ho9 3.546703 1_555
Bi0 Ho4 3.546703 1_555
Bi1 Ho3 3.317807 1_564
Bi1 Ho5 3.317807 1_665
Bi1 Ho2 3.317807 1_554
Bi1 Ho0 3.317807 1_554
Bi1 Ho7 3.317807 1_655
Bi1 Ho8 3.317807 1_555
Bi1 Ho6 3.317807 1_554
Bi1 Ho1 3.317807 1_555
Bi1 Ho9 3.546703 1_555
Bi1 Ho4 3.546703 1_665
