# generated using pymatgen
data_Na3Fe2Mo5O16
_symmetry_space_group_name_H-M   'P 1'
_cell_length_a   5.75161300
_cell_length_b   5.75161328
_cell_length_c   21.94573500
_cell_angle_alpha   90.00000000
_cell_angle_beta   90.00000000
_cell_angle_gamma   120.00000417
_symmetry_Int_Tables_number   1
_chemical_formula_structural   Na3Fe2Mo5O16
_chemical_formula_sum   'Na6 Fe4 Mo10 O32'
_cell_volume   628.72405709
_cell_formula_units_Z   2
loop_
 _symmetry_equiv_pos_site_id
 _symmetry_equiv_pos_as_xyz
  1  'x, y, z'
loop_
 _atom_site_type_symbol
 _atom_site_label
 _atom_site_symmetry_multiplicity
 _atom_site_fract_x
 _atom_site_fract_y
 _atom_site_fract_z
 _atom_site_occupancy
  Na  Na0  1  0.33333300  0.66666700  0.61623700  1
  Na  Na1  1  0.66666700  0.33333300  0.38376300  1
  Na  Na2  1  0.00000000  0.00000000  0.00000000  1
  Na  Na3  1  0.66666700  0.33333300  0.88877300  1
  Na  Na4  1  0.33333300  0.66666700  0.11122700  1
  Na  Na5  1  0.00000000  0.00000000  0.50000000  1
  Fe  Fe0  1  0.00000000  0.00000000  0.34909400  1
  Fe  Fe1  1  0.00000000  0.00000000  0.85405600  1
  Fe  Fe2  1  0.00000000  0.00000000  0.65090600  1
  Fe  Fe3  1  0.00000000  0.00000000  0.14594400  1
  Mo  Mo0  1  0.66666700  0.33333300  0.56701600  1
  Mo  Mo1  1  0.03286100  0.51643100  0.24941500  1
  Mo  Mo2  1  0.33333300  0.66666700  0.43298400  1
  Mo  Mo3  1  0.51643100  0.48356900  0.75058500  1
  Mo  Mo4  1  0.48356900  0.51643100  0.24941500  1
  Mo  Mo5  1  0.51643100  0.03286100  0.75058500  1
  Mo  Mo6  1  0.66666700  0.33333300  0.07234300  1
  Mo  Mo7  1  0.96713900  0.48356900  0.75058500  1
  Mo  Mo8  1  0.48356900  0.96713900  0.24941500  1
  Mo  Mo9  1  0.33333300  0.66666700  0.92765700  1
  O  O0  1  0.31593400  0.15796700  0.58806000  1
  O  O1  1  0.68406600  0.84203300  0.41194000  1
  O  O2  1  0.31370400  0.15685200  0.09316500  1
  O  O3  1  0.15685200  0.31370400  0.90683500  1
  O  O4  1  0.67893900  0.83947000  0.19460300  1
  O  O5  1  0.17027300  0.82972700  0.69946400  1
  O  O6  1  0.84203300  0.68406600  0.58806000  1
  O  O7  1  0.33333300  0.66666700  0.51315400  1
  O  O8  1  0.84314800  0.15685200  0.09316500  1
  O  O9  1  0.15796700  0.31593400  0.41194000  1
  O  O10  1  0.16053000  0.32106100  0.19460300  1
  O  O11  1  0.68629600  0.84314800  0.90683500  1
  O  O12  1  0.66666700  0.33333300  0.20231800  1
  O  O13  1  0.82972700  0.17027300  0.30053600  1
  O  O14  1  0.83947000  0.16053000  0.80539700  1
  O  O15  1  0.66666700  0.33333300  0.48684600  1
  O  O16  1  0.33333300  0.66666700  0.79768200  1
  O  O17  1  0.17027300  0.34054700  0.69946400  1
  O  O18  1  0.84203300  0.15796700  0.58806000  1
  O  O19  1  0.33333300  0.66666700  0.31387100  1
  O  O20  1  0.16053000  0.83947000  0.19460300  1
  O  O21  1  0.33333300  0.66666700  0.00815200  1
  O  O22  1  0.83947000  0.67893900  0.80539700  1
  O  O23  1  0.66666700  0.33333300  0.68612900  1
  O  O24  1  0.34054700  0.17027300  0.30053600  1
  O  O25  1  0.65945300  0.82972700  0.69946400  1
  O  O26  1  0.82972700  0.65945300  0.30053600  1
  O  O27  1  0.15796700  0.84203300  0.41194000  1
  O  O28  1  0.15685200  0.84314800  0.90683500  1
  O  O29  1  0.32106100  0.16053000  0.80539700  1
  O  O30  1  0.66666700  0.33333300  0.99184800  1
  O  O31  1  0.84314800  0.68629600  0.09316500  1
loop_
_geom_bond_atom_site_label_1
_geom_bond_atom_site_label_2
_geom_bond_distance
_geom_bond_site_symmetry_2
Na0 O7 2.262232 1_555
Na0 O25 2.444331 1_555
Na0 O17 2.444331 1_555
Na0 O5 2.444331 1_555
Na1 O15 2.262232 1_555
Na1 O24 2.444331 1_555
Na1 O26 2.444331 1_555
Na1 O13 2.444331 1_555
Na2 O2 2.573309 1_555
Na2 O11 2.573309 1_444
Na2 O31 2.573309 1_445
Na2 O3 2.573309 1_554
Na2 O8 2.573309 1_455
Na2 O28 2.573309 1_544
Na3 O30 2.262057 1_555
Na3 O29 2.512263 1_555
Na3 O22 2.512263 1_555
Na3 O14 2.512263 1_555
Na3 O3 2.904639 1_655
Na3 O11 2.904639 1_545
Na3 O28 2.904642 1_545
Na3 O28 2.904642 1_655
Na3 O3 2.904644 1_555
Na3 O11 2.904645 1_555
Na4 O21 2.262057 1_555
Na4 O4 2.512263 1_555
Na4 O10 2.512263 1_555
Na4 O20 2.512263 1_555
Na4 O31 2.904639 1_455
Na4 O2 2.904639 1_565
Na4 O8 2.904642 1_565
Na4 O8 2.904642 1_455
Na4 O31 2.904644 1_555
Na4 O2 2.904645 1_555
Na5 O1 2.492225 1_445
Na5 O0 2.492225 1_555
Na5 O9 2.492225 1_555
Na5 O6 2.492225 1_445
Na5 O27 2.492225 1_545
Na5 O18 2.492225 1_455
Fe0 O13 2.003232 1_455
Fe0 O24 2.003236 1_555
Fe0 O26 2.003236 1_445
Fe0 O1 2.092527 1_445
Fe0 O9 2.092527 1_555
Fe0 O27 2.092527 1_545
Fe1 O14 1.922968 1_455
Fe1 O29 1.922972 1_555
Fe1 O22 1.922972 1_445
Fe1 O11 1.945053 1_445
Fe1 O3 1.945054 1_555
Fe1 O28 1.945054 1_545
Fe2 O5 2.003232 1_545
Fe2 O25 2.003236 1_445
Fe2 O17 2.003236 1_555
Fe2 O0 2.092527 1_555
Fe2 O6 2.092527 1_445
Fe2 O18 2.092527 1_455
Fe3 O20 1.922968 1_545
Fe3 O4 1.922972 1_445
Fe3 O10 1.922972 1_555
Fe3 O2 1.945053 1_555
Fe3 O31 1.945054 1_445
Fe3 O8 1.945054 1_455
Mo0 O15 1.759390 1_555
Mo0 O18 1.807023 1_555
Mo0 O0 1.807028 1_555
Mo0 O6 1.807028 1_555
Mo1 O20 2.018405 1_555
Mo1 O10 2.018405 1_555
Mo1 O19 2.059347 1_555
Mo1 O26 2.064327 1_455
Mo1 O13 2.064334 1_455
Mo1 O12 2.096512 1_455
Mo2 O7 1.759390 1_555
Mo2 O27 1.807023 1_555
Mo2 O1 1.807028 1_555
Mo2 O9 1.807028 1_555
Mo3 O22 2.018405 1_555
Mo3 O29 2.018405 1_555
Mo3 O23 2.059347 1_555
Mo3 O17 2.064335 1_555
Mo3 O25 2.064335 1_555
Mo3 O16 2.096521 1_555
Mo4 O10 2.018405 1_555
Mo4 O4 2.018405 1_555
Mo4 O19 2.059347 1_555
Mo4 O26 2.064335 1_555
Mo4 O24 2.064335 1_555
Mo4 O12 2.096521 1_555
Mo5 O14 2.018405 1_555
Mo5 O29 2.018405 1_555
Mo5 O23 2.059347 1_555
Mo5 O25 2.064327 1_545
Mo5 O5 2.064334 1_545
Mo5 O16 2.096512 1_545
Mo6 O30 1.766522 1_554
Mo6 O8 1.816532 1_555
Mo6 O2 1.816537 1_555
Mo6 O31 1.816537 1_555
Mo7 O14 2.018405 1_555
Mo7 O22 2.018405 1_555
Mo7 O23 2.059347 1_555
Mo7 O17 2.064327 1_655
Mo7 O5 2.064334 1_655
Mo7 O16 2.096512 1_655
Mo8 O20 2.018405 1_555
Mo8 O4 2.018405 1_555
Mo8 O19 2.059347 1_555
Mo8 O24 2.064327 1_565
Mo8 O13 2.064334 1_565
Mo8 O12 2.096512 1_565
Mo9 O21 1.766522 1_556
Mo9 O28 1.816532 1_555
Mo9 O11 1.816537 1_555
Mo9 O3 1.816537 1_555
