# generated using pymatgen
data_MnH10SeO9
_symmetry_space_group_name_H-M   'P 1'
_cell_length_a   6.33169200
_cell_length_b   6.44999853
_cell_length_c   11.12542764
_cell_angle_alpha   75.39199224
_cell_angle_beta   81.64081242
_cell_angle_gamma   70.45233553
_symmetry_Int_Tables_number   1
_chemical_formula_structural   MnH10SeO9
_chemical_formula_sum   'Mn2 H20 Se2 O18'
_cell_volume   413.39952085
_cell_formula_units_Z   2
loop_
 _symmetry_equiv_pos_site_id
 _symmetry_equiv_pos_as_xyz
  1  'x, y, z'
loop_
 _atom_site_type_symbol
 _atom_site_label
 _atom_site_symmetry_multiplicity
 _atom_site_fract_x
 _atom_site_fract_y
 _atom_site_fract_z
 _atom_site_occupancy
  Mn  Mn0  1  0.00000000  0.00000000  0.00000000  1
  Mn  Mn1  1  0.00000000  0.50000000  0.50000000  1
  H  H0  1  0.73740500  0.89418100  0.85726100  1
  H  H1  1  0.26259500  0.10581900  0.14273900  1
  H  H2  1  0.75978800  0.71573000  0.98876300  1
  H  H3  1  0.24021200  0.28427000  0.01123700  1
  H  H4  1  0.88327000  0.34687800  0.79294000  1
  H  H5  1  0.11673000  0.65312200  0.20706000  1
  H  H6  1  0.65008900  0.35518200  0.87092900  1
  H  H7  1  0.34991100  0.64481800  0.12907100  1
  H  H8  1  0.55368800  0.59580300  0.60959400  1
  H  H9  1  0.44631200  0.40419700  0.39040600  1
  H  H10  1  0.64048800  0.32418800  0.62978800  1
  H  H11  1  0.35951200  0.67581200  0.37021200  1
  H  H12  1  0.09717600  0.81354900  0.60070700  1
  H  H13  1  0.90282400  0.18645100  0.39929300  1
  H  H14  1  0.82946200  0.86824300  0.62445900  1
  H  H15  1  0.17053800  0.13175700  0.37554100  1
  H  H16  1  0.30261300  0.60601000  0.87436600  1
  H  H17  1  0.69738700  0.39399000  0.12563400  1
  H  H18  1  0.27957400  0.43083400  0.80544300  1
  H  H19  1  0.72042600  0.56916600  0.19455700  1
  Se  Se0  1  0.35153600  0.01767300  0.71219600  1
  Se  Se1  1  0.64846400  0.98232700  0.28780400  1
  O  O0  1  0.28392700  0.89944800  0.85934400  1
  O  O1  1  0.71607300  0.10055200  0.14065600  1
  O  O2  1  0.17101500  0.28024500  0.67545000  1
  O  O3  1  0.82898500  0.71975500  0.32455000  1
  O  O4  1  0.34627500  0.85651300  0.61708400  1
  O  O5  1  0.65372500  0.14348700  0.38291600  1
  O  O6  1  0.61066600  0.04005800  0.70566900  1
  O  O7  1  0.38933400  0.95994200  0.29433100  1
  O  O8  1  0.83294100  0.81695600  0.92812800  1
  O  O9  1  0.16705900  0.18304400  0.07187200  1
  O  O10  1  0.81455000  0.31583700  0.87768000  1
  O  O11  1  0.18545000  0.68416300  0.12232000  1
  O  O12  1  0.68522700  0.46241300  0.60019700  1
  O  O13  1  0.31477300  0.53758700  0.39980300  1
  O  O14  1  0.96759900  0.76729400  0.58994000  1
  O  O15  1  0.03240100  0.23270600  0.41006000  1
  O  O16  1  0.35012900  0.44240900  0.87535300  1
  O  O17  1  0.64987100  0.55759100  0.12464700  1
loop_
_geom_bond_atom_site_label_1
_geom_bond_atom_site_label_2
_geom_bond_distance
_geom_bond_site_symmetry_2
Mn0 O8 2.170239 1_444
Mn0 O9 2.170239 1_555
Mn0 O10 2.201415 1_454
Mn0 O11 2.201415 1_545
Mn0 O1 2.239423 1_455
Mn0 O0 2.239423 1_544
Mn1 O15 2.142302 1_555
Mn1 O14 2.142302 1_455
Mn1 O12 2.194238 1_455
Mn1 O13 2.194238 1_555
Mn1 O2 2.276755 1_555
Mn1 O3 2.276755 1_455
H0 O8 0.987209 1_555
H1 O9 0.987209 1_555
H2 O8 0.992600 1_555
H3 O9 0.992600 1_555
H4 O10 0.980835 1_555
H5 O11 0.980835 1_555
H6 O10 0.995324 1_555
H7 O11 0.995324 1_555
H8 O12 0.992653 1_555
H8 O4 1.766465 1_555
H9 O13 0.992653 1_555
H9 O5 1.766465 1_555
H10 O12 0.988599 1_555
H11 O13 0.988599 1_555
H12 O14 0.993420 1_455
H12 O4 1.731795 1_555
H13 O15 0.993420 1_655
H13 O5 1.731795 1_555
H14 O14 0.991872 1_555
H15 O15 0.991872 1_555
H16 O16 0.993382 1_555
H17 O17 0.993382 1_555
H18 O16 0.981182 1_555
H19 O17 0.981182 1_555
O0 Se0 1.682194 1_565
O1 Se1 1.682194 1_545
O2 Se0 1.683173 1_555
O3 Se1 1.683173 1_555
O4 Se0 1.670203 1_565
O5 Se1 1.670203 1_545
O6 Se0 1.684255 1_555
O7 Se1 1.684255 1_555
