# generated using pymatgen
data_KNaSnF6
_symmetry_space_group_name_H-M   'P 1'
_cell_length_a   5.97777034
_cell_length_b   8.08349343
_cell_length_c   11.70419697
_cell_angle_alpha   90.00000000
_cell_angle_beta   90.00000000
_cell_angle_gamma   90.00000000
_symmetry_Int_Tables_number   1
_chemical_formula_structural   KNaSnF6
_chemical_formula_sum   'K4 Na4 Sn4 F24'
_cell_volume   565.56162996
_cell_formula_units_Z   4
loop_
 _symmetry_equiv_pos_site_id
 _symmetry_equiv_pos_as_xyz
  1  'x, y, z'
loop_
 _atom_site_type_symbol
 _atom_site_label
 _atom_site_symmetry_multiplicity
 _atom_site_fract_x
 _atom_site_fract_y
 _atom_site_fract_z
 _atom_site_occupancy
  K  K0  1  0.03815317  0.75490143  0.45725427  1
  K  K1  1  0.53815317  0.25490143  0.04274573  1
  K  K2  1  0.46184683  0.75490143  0.95725427  1
  K  K3  1  0.96184683  0.25490143  0.54274573  1
  Na  Na0  1  0.44485004  0.50186453  0.64772296  1
  Na  Na1  1  0.55514996  0.00186453  0.35227704  1
  Na  Na2  1  0.94485004  0.00186453  0.85227704  1
  Na  Na3  1  0.05514996  0.50186453  0.14772296  1
  Sn  Sn0  1  0.45006008  0.99985898  0.63661659  1
  Sn  Sn1  1  0.04993992  0.99985898  0.13661659  1
  Sn  Sn2  1  0.54993992  0.49985898  0.36338341  1
  Sn  Sn3  1  0.95006008  0.49985898  0.86338341  1
  F  F0  1  0.64941152  0.26742700  0.37360976  1
  F  F1  1  0.16574046  0.06421330  0.71005818  1
  F  F2  1  0.77968747  0.95745305  0.04113601  1
  F  F3  1  0.45118783  0.73361802  0.35854356  1
  F  F4  1  0.35058848  0.76742700  0.62639024  1
  F  F5  1  0.54881217  0.23361802  0.64145644  1
  F  F6  1  0.10180649  0.45315584  0.71718063  1
  F  F7  1  0.27968747  0.45745305  0.45886399  1
  F  F8  1  0.71128972  0.53760784  0.51104026  1
  F  F9  1  0.66574046  0.56421330  0.78994182  1
  F  F10  1  0.39819351  0.45315584  0.21718063  1
  F  F11  1  0.89819351  0.95315584  0.28281937  1
  F  F12  1  0.22031253  0.45745305  0.95886399  1
  F  F13  1  0.72031253  0.95745305  0.54113601  1
  F  F14  1  0.21128972  0.03760784  0.98895974  1
  F  F15  1  0.95118783  0.23361802  0.14145644  1
  F  F16  1  0.78871028  0.53760784  0.01104026  1
  F  F17  1  0.83425954  0.56421330  0.28994182  1
  F  F18  1  0.04881217  0.73361802  0.85854356  1
  F  F19  1  0.33425954  0.06421330  0.21005818  1
  F  F20  1  0.28871028  0.03760784  0.48895974  1
  F  F21  1  0.85058848  0.26742700  0.87360976  1
  F  F22  1  0.60180649  0.95315584  0.78281937  1
  F  F23  1  0.14941152  0.76742700  0.12639024  1
loop_
_geom_bond_atom_site_label_1
_geom_bond_atom_site_label_2
_geom_bond_distance
_geom_bond_site_symmetry_2
F0 Sn2 1.974341 1_555
F0 Na1 2.233394 1_555
F0 K3 2.723463 1_555
F1 Sn0 1.974365 1_545
F1 Na2 2.183645 1_455
F1 K3 2.774223 1_455
F2 Sn1 1.994048 1_655
F2 Na2 2.447388 1_564
F2 K2 2.693440 1_554
F2 K1 2.804686 1_565
F3 Sn2 1.980463 1_555
F3 Na1 2.256860 1_565
F3 K0 2.731387 1_555
F4 Sn0 1.974341 1_555
F4 Na0 2.233394 1_555
F4 K0 2.723463 1_555
F5 Sn0 1.980463 1_545
F5 Na0 2.256860 1_555
F5 K3 2.731387 1_555
F6 Sn3 1.973201 1_455
F6 Na0 2.240762 1_555
F6 K3 2.726991 1_455
F7 Sn2 1.994048 1_555
F7 Na0 2.447388 1_555
F7 K3 2.693440 1_455
F7 K0 2.804686 1_555
F8 Sn2 2.002520 1_555
F8 Na0 2.275842 1_555
F8 K0 2.701729 1_655
F8 K3 2.757430 1_555
F9 Sn3 1.974365 1_555
F9 Na0 2.183645 1_555
F9 K2 2.774223 1_555
F10 Sn2 1.973201 1_555
F10 Na3 2.240762 1_555
F10 K1 2.726991 1_555
F11 Sn1 1.973201 1_655
F11 Na1 2.240762 1_565
F11 K0 2.726991 1_655
F12 Sn3 1.994048 1_455
F12 Na3 2.447388 1_556
F12 K1 2.693440 1_556
F12 K2 2.804686 1_555
F13 Sn0 1.994048 1_555
F13 Na1 2.447388 1_565
F13 K0 2.693440 1_655
F13 K3 2.804686 1_565
F14 Sn1 2.002520 1_546
F14 Na2 2.275842 1_455
F14 K1 2.701729 1_556
F14 K2 2.757430 1_545
F15 Sn1 1.980463 1_645
F15 Na3 2.256860 1_655
F15 K1 2.731387 1_555
F16 Sn3 2.002520 1_554
F16 Na3 2.275842 1_655
F16 K2 2.701729 1_554
F16 K1 2.757430 1_555
F17 Sn2 1.974365 1_555
F17 Na3 2.183645 1_655
F17 K0 2.774223 1_655
F18 Sn3 1.980463 1_455
F18 Na2 2.256860 1_465
F18 K2 2.731387 1_555
F19 Sn1 1.974365 1_545
F19 Na1 2.183645 1_555
F19 K1 2.774223 1_555
F20 Sn0 2.002520 1_545
F20 Na1 2.275842 1_555
F20 K3 2.701729 1_455
F20 K0 2.757430 1_545
F21 Sn3 1.974341 1_555
F21 Na2 2.233394 1_555
F21 K1 2.723463 1_556
F22 Sn0 1.973201 1_555
F22 Na2 2.240762 1_565
F22 K2 2.726991 1_555
F23 Sn1 1.974341 1_555
F23 Na3 2.233394 1_555
F23 K2 2.723463 1_554
