# generated using pymatgen
data_Al2(WO4)3
_symmetry_space_group_name_H-M   'P 1'
_cell_length_a   9.31193000
_cell_length_b   9.22166900
_cell_length_c   15.86112068
_cell_angle_alpha   54.41887329
_cell_angle_beta   90.00000000
_cell_angle_gamma   90.00000000
_symmetry_Int_Tables_number   1
_chemical_formula_structural   Al2(WO4)3
_chemical_formula_sum   'Al8 W12 O48'
_cell_volume   1107.71963181
_cell_formula_units_Z   4
loop_
 _symmetry_equiv_pos_site_id
 _symmetry_equiv_pos_as_xyz
  1  'x, y, z'
loop_
 _atom_site_type_symbol
 _atom_site_label
 _atom_site_symmetry_multiplicity
 _atom_site_fract_x
 _atom_site_fract_y
 _atom_site_fract_z
 _atom_site_occupancy
  Al  Al0  1  0.46636200  0.13223300  0.11837500  1
  Al  Al1  1  0.96636200  0.86776700  0.38162500  1
  Al  Al2  1  0.53363800  0.86776700  0.88162500  1
  Al  Al3  1  0.03363800  0.13223300  0.61837500  1
  Al  Al4  1  0.46830800  0.36804600  0.38188000  1
  Al  Al5  1  0.96830800  0.63195400  0.11812000  1
  Al  Al6  1  0.53169200  0.63195400  0.61812000  1
  Al  Al7  1  0.03169200  0.36804600  0.88188000  1
  W  W0  1  0.25001700  0.52558300  0.49967300  1
  W  W1  1  0.75001700  0.47441700  0.00032700  1
  W  W2  1  0.74998300  0.47441700  0.50032700  1
  W  W3  1  0.24998300  0.52558300  0.99967300  1
  W  W4  1  0.11660000  0.96204900  0.14473400  1
  W  W5  1  0.61660000  0.03795100  0.35526600  1
  W  W6  1  0.88340000  0.03795100  0.85526600  1
  W  W7  1  0.38340000  0.96204900  0.64473400  1
  W  W8  1  0.11731200  0.25029600  0.35571800  1
  W  W9  1  0.61731200  0.74970400  0.14428200  1
  W  W10  1  0.88268800  0.74970400  0.64428200  1
  W  W11  1  0.38268800  0.25029600  0.85571800  1
  O  O0  1  0.11958100  0.70264700  0.43092800  1
  O  O1  1  0.61958100  0.29735300  0.06907200  1
  O  O2  1  0.88041900  0.29735300  0.56907200  1
  O  O3  1  0.38041900  0.70264700  0.93092800  1
  O  O4  1  0.37443700  0.57473500  0.56700200  1
  O  O5  1  0.87443700  0.42526500  0.93299800  1
  O  O6  1  0.62556300  0.42526500  0.43299800  1
  O  O7  1  0.12556300  0.57473500  0.06700200  1
  O  O8  1  0.16225600  0.31605300  0.59454600  1
  O  O9  1  0.66225600  0.68394700  0.90545400  1
  O  O10  1  0.83774400  0.68394700  0.40545400  1
  O  O11  1  0.33774400  0.31605300  0.09454600  1
  O  O12  1  0.34457700  0.50551400  0.40707200  1
  O  O13  1  0.84457700  0.49448600  0.09292800  1
  O  O14  1  0.65542300  0.49448600  0.59292800  1
  O  O15  1  0.15542300  0.50551400  0.90707200  1
  O  O16  1  0.30643000  0.97416600  0.16551500  1
  O  O17  1  0.80643000  0.02583400  0.33448500  1
  O  O18  1  0.69357000  0.02583400  0.83448500  1
  O  O19  1  0.19357000  0.97416600  0.66551500  1
  O  O20  1  0.08881700  0.77316100  0.13971200  1
  O  O21  1  0.58881700  0.22683900  0.36028800  1
  O  O22  1  0.91118300  0.22683900  0.86028800  1
  O  O23  1  0.41118300  0.77316100  0.63971200  1
  O  O24  1  0.06682700  0.16341200  0.02166800  1
  O  O25  1  0.56682700  0.83658800  0.47833200  1
  O  O26  1  0.93317300  0.83658800  0.97833200  1
  O  O27  1  0.43317300  0.16341200  0.52166800  1
  O  O28  1  0.00750900  0.94082500  0.24588400  1
  O  O29  1  0.50750900  0.05917500  0.25411600  1
  O  O30  1  0.99249100  0.05917500  0.75411600  1
  O  O31  1  0.49249100  0.94082500  0.74588400  1
  O  O32  1  0.08950800  0.04895300  0.36295200  1
  O  O33  1  0.58950800  0.95104700  0.13704800  1
  O  O34  1  0.91049200  0.95104700  0.63704800  1
  O  O35  1  0.41049200  0.04895300  0.86295200  1
  O  O36  1  0.00941800  0.43080500  0.25316400  1
  O  O37  1  0.50941800  0.56919500  0.24683600  1
  O  O38  1  0.99058200  0.56919500  0.74683600  1
  O  O39  1  0.49058200  0.43080500  0.75316400  1
  O  O40  1  0.06724900  0.21020000  0.47762700  1
  O  O41  1  0.56724900  0.78980000  0.02237300  1
  O  O42  1  0.93275100  0.78980000  0.52237300  1
  O  O43  1  0.43275100  0.21020000  0.97762700  1
  O  O44  1  0.30673300  0.30596900  0.33483700  1
  O  O45  1  0.80673300  0.69403100  0.16516300  1
  O  O46  1  0.69326700  0.69403100  0.66516300  1
  O  O47  1  0.19326700  0.30596900  0.83483700  1
loop_
_geom_bond_atom_site_label_1
_geom_bond_atom_site_label_2
_geom_bond_distance
_geom_bond_site_symmetry_2
Al0 O29 1.883654 1_555
Al0 O1 1.892107 1_555
Al0 O33 1.902242 1_545
Al0 O16 1.906152 1_545
Al0 O11 1.924885 1_555
Al0 O43 1.931516 1_554
Al1 O28 1.883654 1_655
Al1 O0 1.892107 1_655
Al1 O32 1.902242 1_665
Al1 O17 1.906152 1_565
Al1 O10 1.924885 1_555
Al1 O42 1.931516 1_555
Al2 O31 1.883654 1_555
Al2 O3 1.892107 1_555
Al2 O35 1.902242 1_565
Al2 O18 1.906152 1_565
Al2 O9 1.924885 1_555
Al2 O41 1.931516 1_556
Al3 O30 1.883654 1_455
Al3 O2 1.892107 1_455
Al3 O34 1.902242 1_445
Al3 O19 1.906152 1_545
Al3 O8 1.924885 1_555
Al3 O40 1.931516 1_555
Al4 O37 1.884580 1_555
Al4 O6 1.891551 1_555
Al4 O21 1.895034 1_555
Al4 O44 1.909257 1_555
Al4 O12 1.919283 1_555
Al4 O27 1.927449 1_555
Al5 O36 1.884580 1_655
Al5 O7 1.891551 1_655
Al5 O20 1.895034 1_655
Al5 O45 1.909257 1_555
Al5 O13 1.919283 1_555
Al5 O26 1.927449 1_554
Al6 O39 1.884580 1_555
Al6 O4 1.891551 1_555
Al6 O23 1.895034 1_555
Al6 O46 1.909257 1_555
Al6 O14 1.919283 1_555
Al6 O25 1.927449 1_555
Al7 O38 1.884580 1_455
Al7 O5 1.891551 1_455
Al7 O22 1.895034 1_455
Al7 O47 1.909257 1_555
Al7 O15 1.919283 1_555
Al7 O24 1.927449 1_556
O0 W0 1.805119 1_555
O1 W1 1.805119 1_555
O2 W2 1.805119 1_555
O3 W3 1.805119 1_555
O4 W0 1.803194 1_555
O5 W1 1.803194 1_556
O6 W2 1.803194 1_555
O7 W3 1.803194 1_554
O8 W0 1.811665 1_555
O9 W1 1.811665 1_556
O10 W2 1.811665 1_555
O11 W3 1.811665 1_554
O12 W0 1.811949 1_555
O13 W1 1.811949 1_555
O14 W2 1.811949 1_555
O15 W3 1.811949 1_555
O16 W4 1.813476 1_555
O17 W5 1.813476 1_555
O18 W6 1.813476 1_555
O19 W7 1.813476 1_555
O20 W4 1.807989 1_555
O21 W5 1.807989 1_555
O22 W6 1.807989 1_555
O23 W7 1.807989 1_555
O24 W4 1.804183 1_545
O25 W5 1.804183 1_565
O26 W6 1.804183 1_565
O27 W7 1.804183 1_545
O28 W4 1.810743 1_555
O29 W5 1.810743 1_555
O30 W6 1.810743 1_555
O31 W7 1.810743 1_555
O32 W8 1.810991 1_555
O33 W9 1.810991 1_555
O34 W10 1.810991 1_555
O35 W11 1.810991 1_555
O36 W8 1.809768 1_555
O37 W9 1.809768 1_555
O38 W10 1.809768 1_555
O39 W11 1.809768 1_555
O40 W8 1.805796 1_555
O41 W9 1.805796 1_555
O42 W10 1.805796 1_555
O43 W11 1.805796 1_555
O44 W8 1.812913 1_555
O45 W9 1.812913 1_555
O46 W10 1.812913 1_555
O47 W11 1.812913 1_555
