# generated using pymatgen
data_CeH14Cl3O7
_symmetry_space_group_name_H-M   'P 1'
_cell_length_a   7.95464400
_cell_length_b   8.26213792
_cell_length_c   9.36182564
_cell_angle_alpha   69.73603775
_cell_angle_beta   73.52816701
_cell_angle_gamma   81.44288315
_symmetry_Int_Tables_number   1
_chemical_formula_structural   CeH14Cl3O7
_chemical_formula_sum   'Ce2 H28 Cl6 O14'
_cell_volume   552.63503093
_cell_formula_units_Z   2
loop_
 _symmetry_equiv_pos_site_id
 _symmetry_equiv_pos_as_xyz
  1  'x, y, z'
loop_
 _atom_site_type_symbol
 _atom_site_label
 _atom_site_symmetry_multiplicity
 _atom_site_fract_x
 _atom_site_fract_y
 _atom_site_fract_z
 _atom_site_occupancy
  Ce  Ce0  1  0.21668700  0.18347100  0.82393000  1
  Ce  Ce1  1  0.78331300  0.81652900  0.17607000  1
  H  H0  1  0.99597100  0.15028800  0.59214600  1
  H  H1  1  0.00402900  0.84971200  0.40785400  1
  H  H2  1  0.12222300  0.97995300  0.62564900  1
  H  H3  1  0.87777700  0.02004700  0.37435100  1
  H  H4  1  0.91448200  0.46376600  0.72789000  1
  H  H5  1  0.08551800  0.53623400  0.27211000  1
  H  H6  1  0.09228600  0.53088100  0.60999200  1
  H  H7  1  0.90771400  0.46911900  0.39000800  1
  H  H8  1  0.26393800  0.17531500  0.15220500  1
  H  H9  1  0.73606200  0.82468500  0.84779500  1
  H  H10  1  0.12261600  0.03859600  0.19024500  1
  H  H11  1  0.87738400  0.96140400  0.80975500  1
  H  H12  1  0.61429100  0.12998800  0.85008500  1
  H  H13  1  0.38570900  0.87001200  0.14991500  1
  H  H14  1  0.56335100  0.32460400  0.84692700  1
  H  H15  1  0.43664900  0.67539600  0.15307300  1
  H  H16  1  0.47901200  0.86491400  0.73942700  1
  H  H17  1  0.52098800  0.13508600  0.26057300  1
  H  H18  1  0.55367900  0.04161500  0.61947900  1
  H  H19  1  0.44632100  0.95838500  0.38052100  1
  H  H20  1  0.35446300  0.36244400  0.44867900  1
  H  H21  1  0.64553700  0.63755600  0.55132100  1
  H  H22  1  0.51269200  0.34106800  0.52412600  1
  H  H23  1  0.48730800  0.65893200  0.47587400  1
  H  H24  1  0.20306700  0.57174000  0.81457000  1
  H  H25  1  0.79693300  0.42826000  0.18543000  1
  H  H26  1  0.25692300  0.46988200  0.97378600  1
  H  H27  1  0.74307700  0.53011800  0.02621400  1
  Cl  Cl0  1  0.14348900  0.82052800  0.98702200  1
  Cl  Cl1  1  0.85651100  0.17947200  0.01297800  1
  Cl  Cl2  1  0.78764700  0.22276900  0.46059900  1
  Cl  Cl3  1  0.21235300  0.77723100  0.53940100  1
  Cl  Cl4  1  0.33665000  0.38534300  0.21190500  1
  Cl  Cl5  1  0.66335000  0.61465700  0.78809500  1
  O  O0  1  0.06100500  0.07412400  0.66894900  1
  O  O1  1  0.93899500  0.92587600  0.33105100  1
  O  O2  1  0.03151400  0.42367800  0.67572000  1
  O  O3  1  0.96848600  0.57632200  0.32428000  1
  O  O4  1  0.23461900  0.08593900  0.11595800  1
  O  O5  1  0.76538100  0.91406100  0.88404200  1
  O  O6  1  0.52181500  0.22373500  0.83718600  1
  O  O7  1  0.47818500  0.77626500  0.16281400  1
  O  O8  1  0.44761600  0.98888000  0.69657300  1
  O  O9  1  0.55238400  0.01112000  0.30342700  1
  O  O10  1  0.38314300  0.35163200  0.54803300  1
  O  O11  1  0.61685700  0.64836800  0.45196700  1
  O  O12  1  0.22025300  0.45571900  0.88699800  1
  O  O13  1  0.77974700  0.54428100  0.11300200  1
loop_
_geom_bond_atom_site_label_1
_geom_bond_atom_site_label_2
_geom_bond_distance
_geom_bond_site_symmetry_2
Ce0 O12 2.521395 1_555
Ce0 O2 2.532827 1_555
Ce0 O6 2.541061 1_555
Ce0 O10 2.545030 1_555
Ce0 O8 2.566651 1_545
Ce0 O0 2.591298 1_555
Ce0 O4 2.608620 1_556
Ce0 Cl1 2.907606 1_456
Ce0 Cl0 2.916562 1_545
Ce1 O13 2.521395 1_555
Ce1 O3 2.532827 1_555
Ce1 O7 2.541061 1_555
Ce1 O11 2.545030 1_555
Ce1 O9 2.566651 1_565
Ce1 O1 2.591298 1_555
Ce1 O5 2.608620 1_554
Ce1 Cl0 2.907606 1_654
Ce1 Cl1 2.916562 1_565
H0 O0 0.990575 1_655
H1 O1 0.990575 1_455
H2 O0 1.000302 1_565
H3 O1 1.000302 1_545
H4 O2 0.988614 1_655
H5 O3 0.988614 1_455
H6 O2 0.988962 1_555
H7 O3 0.988962 1_555
H8 O4 0.992239 1_555
H9 O5 0.992239 1_555
H10 O4 0.997169 1_555
H11 O5 0.997169 1_555
H12 O6 0.985731 1_555
H13 O7 0.985731 1_555
H14 O6 0.981684 1_555
H15 O7 0.981684 1_555
H16 O8 0.984086 1_555
H17 O9 0.984086 1_555
H18 O8 0.984285 1_545
H19 O9 0.984285 1_565
H20 O10 0.990906 1_555
H21 O11 0.990906 1_555
H22 O10 0.987747 1_555
H23 O11 0.987747 1_555
H24 O12 0.980137 1_555
H25 O13 0.980137 1_555
H26 O12 0.984552 1_555
H27 O13 0.984552 1_555
Cl2 H3 2.054866 1_555
Cl3 H2 2.054866 1_555
