# generated using pymatgen
data_Ba2CuTeO6
_symmetry_space_group_name_H-M   'P 1'
_cell_length_a   5.73997216
_cell_length_b   5.87724508
_cell_length_c   10.14430147
_cell_angle_alpha   105.57575535
_cell_angle_beta   90.08192751
_cell_angle_gamma   119.20053834
_symmetry_Int_Tables_number   1
_chemical_formula_structural   Ba2CuTeO6
_chemical_formula_sum   'Ba4 Cu2 Te2 O12'
_cell_volume   284.16844284
_cell_formula_units_Z   2
loop_
 _symmetry_equiv_pos_site_id
 _symmetry_equiv_pos_as_xyz
  1  'x, y, z'
loop_
 _atom_site_type_symbol
 _atom_site_label
 _atom_site_symmetry_multiplicity
 _atom_site_fract_x
 _atom_site_fract_y
 _atom_site_fract_z
 _atom_site_occupancy
  Ba  Ba0  1  0.12888974  0.25741334  0.37590949  1
  Ba  Ba1  1  0.87111724  0.74258832  0.62409798  1
  Ba  Ba2  1  0.71665213  0.43143352  0.14667728  1
  Ba  Ba3  1  0.28334136  0.56855478  0.85330370  1
  Cu  Cu0  1  0.59228050  0.18610233  0.78320736  1
  Cu  Cu1  1  0.40769986  0.81390370  0.21679348  1
  Te  Te0  1  -0.00001508  -0.00001229  0.00000848  1
  Te  Te1  1  0.50001920  0.00001915  0.50001192  1
  O  O0  1  0.36382024  0.72864490  0.59540379  1
  O  O1  1  0.63618383  0.27135201  0.40459185  1
  O  O2  1  0.28683359  0.09686313  0.88666504  1
  O  O3  1  0.16891391  0.79250461  0.36682444  1
  O  O4  1  0.81311001  0.63204270  0.87661663  1
  O  O5  1  0.19311232  0.89909109  0.10928847  1
  O  O6  1  0.62433488  0.79255499  0.36802349  1
  O  O7  1  0.80686765  0.10089947  0.89070665  1
  O  O8  1  0.83111808  0.20750253  0.63316723  1
  O  O9  1  0.71317458  0.90314624  0.11333836  1
  O  O10  1  0.18687611  0.36794188  0.12338948  1
  O  O11  1  0.37566886  0.20745460  0.63197386  1
loop_
_geom_bond_atom_site_label_1
_geom_bond_atom_site_label_2
_geom_bond_distance
_geom_bond_site_symmetry_2
Ba0 O0 2.735374 1_555
Ba0 O10 2.789241 1_555
Ba0 O3 2.829225 1_545
Ba0 O6 2.831915 1_445
Ba0 O1 2.881881 1_455
Ba0 O1 2.884837 1_555
Ba0 O9 3.046250 1_445
Ba0 O6 3.065016 1_555
Ba0 O3 3.066297 1_555
Ba0 O5 3.096404 1_545
Ba0 O11 3.105654 1_555
Ba0 O8 3.122916 1_455
Ba1 O1 2.735455 1_555
Ba1 O4 2.789271 1_555
Ba1 O8 2.829214 1_565
Ba1 O11 2.831950 1_665
Ba1 O0 2.881889 1_655
Ba1 O0 2.884851 1_555
Ba1 O2 3.046228 1_665
Ba1 O11 3.064965 1_555
Ba1 O8 3.066277 1_555
Ba1 O7 3.096354 1_565
Ba1 O6 3.105777 1_555
Ba1 O3 3.123128 1_655
Ba2 O10 2.878460 1_555
Ba2 O3 2.879734 1_655
Ba2 O9 2.891076 1_555
Ba2 O6 2.892872 1_555
Ba2 O5 2.899332 1_655
Ba2 O10 2.901252 1_655
Ba2 O1 2.974094 1_555
Ba2 O7 3.010149 1_554
Ba2 O9 3.021691 1_545
Ba2 O5 3.024703 1_545
Ba2 O2 3.061542 1_554
Ba2 O4 3.209975 1_554
Ba3 O4 2.878439 1_555
Ba3 O8 2.879542 1_455
Ba3 O2 2.891078 1_555
Ba3 O11 2.892731 1_555
Ba3 O7 2.899418 1_455
Ba3 O4 2.901295 1_455
Ba3 O0 2.973975 1_555
Ba3 O5 3.010292 1_556
Ba3 O2 3.021735 1_565
Ba3 O7 3.024650 1_565
Ba3 O9 3.061742 1_556
Ba3 O10 3.210228 1_556
Cu0 O7 1.961722 1_555
Cu0 O2 1.963181 1_555
Cu0 O8 2.037748 1_555
Cu0 O11 2.040950 1_555
Cu0 O4 2.189761 1_555
Cu0 O0 2.525808 1_545
Cu1 O5 1.961695 1_555
Cu1 O9 1.963287 1_555
Cu1 O3 2.037487 1_555
Cu1 O6 2.040997 1_555
Cu1 O10 2.189856 1_555
Cu1 O1 2.525751 1_565
O0 Te1 1.925039 1_565
O1 Te1 1.925060 1_555
O2 Te0 1.949212 1_556
O3 Te1 1.941909 1_565
O4 Te0 1.916507 1_666
O5 Te0 1.949452 1_565
O6 Te1 1.940000 1_565
O7 Te0 1.949620 1_656
O8 Te1 1.941720 1_555
O9 Te0 1.948958 1_665
O10 Te0 1.916505 1_555
O11 Te1 1.939890 1_555
