# generated using pymatgen
data_K(TeO3)2
_symmetry_space_group_name_H-M   'P 1'
_cell_length_a   7.18772652
_cell_length_b   7.18773011
_cell_length_c   12.13484431
_cell_angle_alpha   75.26327575
_cell_angle_beta   75.26342222
_cell_angle_gamma   60.58033544
_symmetry_Int_Tables_number   1
_chemical_formula_structural   K(TeO3)2
_chemical_formula_sum   'K4 Te8 O24'
_cell_volume   521.84871321
_cell_formula_units_Z   4
loop_
 _symmetry_equiv_pos_site_id
 _symmetry_equiv_pos_as_xyz
  1  'x, y, z'
loop_
 _atom_site_type_symbol
 _atom_site_label
 _atom_site_symmetry_multiplicity
 _atom_site_fract_x
 _atom_site_fract_y
 _atom_site_fract_z
 _atom_site_occupancy
  K  K0  1  0.55648954  0.55649343  0.31311720  1
  K  K1  1  0.44351121  0.44352894  0.68667374  1
  K  K2  1  0.90826495  0.90825702  0.19360536  1
  K  K3  1  0.09168031  0.09172619  0.80646325  1
  Te  Te0  1  0.00003114  0.00001638  0.50000812  1
  Te  Te1  1  0.26131277  0.26133019  0.26088453  1
  Te  Te2  1  0.49998039  0.49998289  -0.00000373  1
  Te  Te3  1  0.73866630  0.73868625  0.73912617  1
  Te  Te4  1  0.50001035  -0.00001307  0.49999813  1
  Te  Te5  1  -0.00000374  0.49999624  0.00000771  1
  Te  Te6  1  0.49998590  -0.00000589  0.00000513  1
  Te  Te7  1  -0.00000125  0.49998628  0.50000740  1
  O  O0  1  0.99473593  0.99471920  0.65077813  1
  O  O1  1  0.25988735  0.25986417  0.55561346  1
  O  O2  1  0.19980548  0.19980826  0.99110009  1
  O  O3  1  0.80017399  0.80017749  0.00890947  1
  O  O4  1  0.91273770  0.31838973  0.45874876  1
  O  O5  1  0.99214503  0.53678274  0.84227696  1
  O  O6  1  0.68163631  0.08727546  0.54127444  1
  O  O7  1  0.14533511  0.52277864  0.34501156  1
  O  O8  1  0.08728759  0.68161903  0.54127169  1
  O  O9  1  0.22218084  0.60065962  0.95782033  1
  O  O10  1  0.47725042  0.85468388  0.65498814  1
  O  O11  1  0.46322869  0.00781748  0.15773148  1
  O  O12  1  0.39932389  0.77779355  0.04218232  1
  O  O13  1  0.58470723  0.58471285  0.84030007  1
  O  O14  1  0.53676789  0.99216181  0.84227810  1
  O  O15  1  0.60064912  0.22219102  0.95781718  1
  O  O16  1  0.74016480  0.74014595  0.44440722  1
  O  O17  1  0.85469414  0.47724756  0.65498901  1
  O  O18  1  0.41527814  0.41528111  0.15969776  1
  O  O19  1  0.00781429  0.46322783  0.15773080  1
  O  O20  1  0.77778693  0.39932963  0.04218492  1
  O  O21  1  0.52279170  0.14532781  0.34501135  1
  O  O22  1  0.00529013  0.00527886  0.34923931  1
  O  O23  1  0.31840045  0.91273744  0.45874743  1
loop_
_geom_bond_atom_site_label_1
_geom_bond_atom_site_label_2
_geom_bond_distance
_geom_bond_site_symmetry_2
K0 O18 2.908818 1_555
K0 O7 3.002674 1_555
K0 O21 3.002690 1_555
K0 O23 3.011129 1_555
K0 O4 3.011154 1_555
K0 O16 3.142578 1_555
K0 O11 3.150088 1_565
K0 O19 3.150094 1_655
K1 O13 2.910656 1_555
K1 O10 3.003133 1_555
K1 O17 3.003254 1_555
K1 O8 3.009193 1_555
K1 O6 3.009333 1_555
K1 O1 3.140357 1_555
K1 O5 3.151365 1_455
K1 O14 3.151369 1_545
K2 O22 2.521381 1_665
K2 O21 2.884562 1_565
K2 O7 2.884574 1_655
K2 O3 2.931716 1_555
K2 O19 3.038904 1_655
K2 O11 3.038922 1_565
K2 O16 3.142457 1_555
K2 O12 3.322539 1_655
K2 O20 3.322590 1_565
K3 O0 2.521519 1_445
K3 O17 2.885010 1_455
K3 O10 2.885314 1_545
K3 O2 2.931227 1_555
K3 O5 3.038869 1_455
K3 O14 3.039021 1_545
K3 O1 3.143221 1_555
K3 O15 3.322084 1_455
K3 O9 3.322267 1_545
O0 Te0 1.811293 1_665
O1 Te4 1.950651 1_555
O1 Te7 1.950654 1_555
O2 Te6 1.930044 1_556
O2 Te5 1.930086 1_556
O3 Te5 1.930055 1_655
O3 Te6 1.930089 1_565
O4 Te7 1.909001 1_655
O4 Te0 2.011817 1_655
O5 Te5 1.876021 1_656
O5 Te3 2.151941 1_555
O6 Te4 1.909449 1_555
O6 Te0 2.012009 1_655
O7 Te7 1.915064 1_555
O7 Te1 2.067036 1_555
O8 Te7 1.909420 1_555
O8 Te0 2.012027 1_565
O9 Te2 1.919525 1_556
O9 Te5 1.966415 1_556
O10 Te4 1.914899 1_565
O10 Te3 2.066894 1_555
O11 Te6 1.875953 1_555
O11 Te1 2.152136 1_555
O12 Te2 1.919685 1_555
O12 Te6 1.966520 1_565
O13 Te2 1.913296 1_556
O13 Te3 1.943563 1_555
O14 Te6 1.875951 1_566
O14 Te3 2.151936 1_555
O15 Te2 1.919506 1_556
O15 Te6 1.966496 1_556
O16 Te4 1.950457 1_565
O16 Te7 1.950476 1_655
O17 Te7 1.914806 1_655
O17 Te3 2.066993 1_555
O18 Te2 1.913269 1_555
O18 Te1 1.943536 1_555
O19 Te5 1.875894 1_555
O19 Te1 2.152053 1_555
O20 Te2 1.919673 1_555
O20 Te5 1.966601 1_655
O21 Te4 1.914975 1_555
O21 Te1 2.067183 1_555
O22 Te0 1.811394 1_555
O23 Te4 1.908977 1_565
O23 Te0 2.011811 1_565
