# generated using pymatgen
data_K5SnSb3
_symmetry_space_group_name_H-M   'P 1'
_cell_length_a   8.88428400
_cell_length_b   9.96080400
_cell_length_c   19.01123887
_cell_angle_alpha   58.69170006
_cell_angle_beta   90.00000000
_cell_angle_gamma   90.00000000
_symmetry_Int_Tables_number   1
_chemical_formula_structural   K5SnSb3
_chemical_formula_sum   'K20 Sn4 Sb12'
_cell_volume   1437.40824188
_cell_formula_units_Z   4
loop_
 _symmetry_equiv_pos_site_id
 _symmetry_equiv_pos_as_xyz
  1  'x, y, z'
loop_
 _atom_site_type_symbol
 _atom_site_label
 _atom_site_symmetry_multiplicity
 _atom_site_fract_x
 _atom_site_fract_y
 _atom_site_fract_z
 _atom_site_occupancy
  K  K0  1  0.15940200  0.16396100  0.25940200  1
  K  K1  1  0.65940200  0.83603900  0.24059800  1
  K  K2  1  0.84059800  0.83603900  0.74059800  1
  K  K3  1  0.34059800  0.16396100  0.75940200  1
  K  K4  1  0.17198700  0.84261800  0.57945500  1
  K  K5  1  0.67198700  0.15738200  0.92054500  1
  K  K6  1  0.82801300  0.15738200  0.42054500  1
  K  K7  1  0.32801300  0.84261800  0.07945500  1
  K  K8  1  0.00617000  0.88858700  0.91349900  1
  K  K9  1  0.50617000  0.11141300  0.58650100  1
  K  K10  1  0.99383000  0.11141300  0.08650100  1
  K  K11  1  0.49383000  0.88858700  0.41349900  1
  K  K12  1  0.51963700  0.73891000  0.92247700  1
  K  K13  1  0.01963700  0.26109000  0.57752300  1
  K  K14  1  0.48036300  0.26109000  0.07752300  1
  K  K15  1  0.98036300  0.73891000  0.42247700  1
  K  K16  1  0.99261100  0.44708200  0.74469800  1
  K  K17  1  0.49261100  0.55291800  0.75530200  1
  K  K18  1  0.00738900  0.55291800  0.25530200  1
  K  K19  1  0.50738900  0.44708200  0.24469800  1
  Sn  Sn0  1  0.35678200  0.51348100  0.41326400  1
  Sn  Sn1  1  0.85678200  0.48651900  0.08673600  1
  Sn  Sn2  1  0.64321800  0.48651900  0.58673600  1
  Sn  Sn3  1  0.14321800  0.51348100  0.91326400  1
  Sb  Sb0  1  0.26294400  0.23801100  0.91960000  1
  Sb  Sb1  1  0.76294400  0.76198900  0.58040000  1
  Sb  Sb2  1  0.73705600  0.76198900  0.08040000  1
  Sb  Sb3  1  0.23705600  0.23801100  0.41960000  1
  Sb  Sb4  1  0.18799400  0.51660000  0.06615400  1
  Sb  Sb5  1  0.68799400  0.48340000  0.43384600  1
  Sb  Sb6  1  0.81200600  0.48340000  0.93384600  1
  Sb  Sb7  1  0.31200600  0.51660000  0.56615400  1
  Sb  Sb8  1  0.26615800  0.80780500  0.27258100  1
  Sb  Sb9  1  0.76615800  0.19219500  0.22741900  1
  Sb  Sb10  1  0.73384200  0.19219500  0.72741900  1
  Sb  Sb11  1  0.23384200  0.80780500  0.77258100  1
loop_
_geom_bond_atom_site_label_1
_geom_bond_atom_site_label_2
_geom_bond_distance
_geom_bond_site_symmetry_2
K0 Sb9 3.532274 1_455
K0 Sb4 3.533885 1_555
K0 Sb8 3.553031 1_545
K0 Sb3 3.553887 1_555
K1 Sb8 3.532274 1_555
K1 Sb5 3.533885 1_555
K1 Sb9 3.553031 1_565
K1 Sb2 3.553887 1_555
K2 Sb11 3.532274 1_655
K2 Sb6 3.533885 1_555
K2 Sb10 3.553031 1_565
K2 Sb1 3.553887 1_555
K3 Sb10 3.532274 1_555
K3 Sb7 3.533885 1_555
K3 Sb11 3.553031 1_545
K3 Sb0 3.553887 1_555
K4 Sb11 3.546750 1_555
K4 Sb3 3.555550 1_565
K4 Sb7 3.606999 1_555
K4 Sb1 3.719771 1_455
K5 Sb10 3.546750 1_555
K5 Sb2 3.555550 1_546
K5 Sb6 3.606999 1_555
K5 Sb0 3.719771 1_555
K6 Sb9 3.546750 1_555
K6 Sb1 3.555550 1_545
K6 Sb5 3.606999 1_555
K6 Sb3 3.719771 1_655
K7 Sb8 3.546750 1_555
K7 Sb0 3.555550 1_564
K7 Sb4 3.606999 1_555
K7 Sb2 3.719771 1_555
K8 Sb2 3.635382 1_456
K8 Sb4 3.685831 1_556
K8 Sb11 3.762492 1_555
K8 Sn1 3.865164 1_456
K8 Sn3 3.931949 1_555
K8 Sb10 4.049121 1_465
K9 Sb3 3.635382 1_555
K9 Sb5 3.685831 1_555
K9 Sb10 3.762492 1_555
K9 Sn0 3.865164 1_555
K9 Sn2 3.931949 1_555
K9 Sb11 4.049121 1_545
K10 Sb0 3.635382 1_654
K10 Sb6 3.685831 1_554
K10 Sb9 3.762492 1_555
K10 Sn3 3.865164 1_654
K10 Sn1 3.931949 1_555
K10 Sb8 4.049121 1_645
K11 Sb1 3.635382 1_555
K11 Sb7 3.685831 1_555
K11 Sb8 3.762492 1_555
K11 Sn2 3.865164 1_555
K11 Sn0 3.931949 1_555
K11 Sb9 4.049121 1_565
K12 Sb6 3.563625 1_555
K12 Sb11 3.606423 1_555
K12 Sb2 3.676296 1_556
K12 Sb4 3.841828 1_556
K13 Sb7 3.563625 1_555
K13 Sb10 3.606423 1_455
K13 Sb3 3.676296 1_555
K13 Sb5 3.841828 1_455
K14 Sb4 3.563625 1_555
K14 Sb9 3.606423 1_555
K14 Sb0 3.676296 1_554
K14 Sb6 3.841828 1_554
K15 Sb5 3.563625 1_555
K15 Sb8 3.606423 1_655
K15 Sb1 3.676296 1_555
K15 Sb7 3.841828 1_655
K16 Sb10 3.564532 1_555
K16 Sb1 3.684590 1_555
K16 Sb0 3.736951 1_655
K16 Sn3 3.834100 1_655
K17 Sb11 3.564532 1_555
K17 Sb0 3.684590 1_555
K17 Sb1 3.736951 1_555
K17 Sn2 3.834100 1_555
K18 Sb8 3.564532 1_555
K18 Sb3 3.684590 1_555
K18 Sb2 3.736951 1_455
K18 Sn1 3.834100 1_455
K19 Sb9 3.564532 1_555
K19 Sb2 3.684590 1_555
K19 Sb3 3.736951 1_555
K19 Sn0 3.834100 1_555
Sb0 Sn3 2.886421 1_555
Sb1 Sn2 2.886421 1_555
Sb2 Sn1 2.886421 1_555
Sb3 Sn0 2.886421 1_555
Sb4 Sn3 2.949839 1_554
Sb4 Sn1 2.963077 1_455
Sb5 Sn2 2.949839 1_555
Sb5 Sn0 2.963077 1_555
Sb6 Sn1 2.949839 1_556
Sb6 Sn3 2.963077 1_655
Sb7 Sn0 2.949839 1_555
Sb7 Sn2 2.963077 1_555
Sb8 Sn0 2.871816 1_555
Sb9 Sn1 2.871816 1_555
Sb10 Sn2 2.871816 1_555
Sb11 Sn3 2.871816 1_555
