# generated using pymatgen
data_Cs2GeO3
_symmetry_space_group_name_H-M   'P 1'
_cell_length_a   14.15380315
_cell_length_b   6.99133676
_cell_length_c   17.50292038
_cell_angle_alpha   72.03423133
_cell_angle_beta   90.00000000
_cell_angle_gamma   90.00000000
_symmetry_Int_Tables_number   1
_chemical_formula_structural   Cs2GeO3
_chemical_formula_sum   'Cs24 Ge12 O36'
_cell_volume   1647.53419204
_cell_formula_units_Z   12
loop_
 _symmetry_equiv_pos_site_id
 _symmetry_equiv_pos_as_xyz
  1  'x, y, z'
loop_
 _atom_site_type_symbol
 _atom_site_label
 _atom_site_symmetry_multiplicity
 _atom_site_fract_x
 _atom_site_fract_y
 _atom_site_fract_z
 _atom_site_occupancy
  Cs  Cs0  1  0.08761313  0.72245972  0.53019271  1
  Cs  Cs1  1  0.49043522  0.65477829  0.28061462  1
  Cs  Cs2  1  0.69538213  0.12268082  0.19489274  1
  Cs  Cs3  1  0.88089872  0.88288826  0.36319570  1
  Cs  Cs4  1  0.00956478  0.65477829  0.78061462  1
  Cs  Cs5  1  0.61910128  0.88288826  0.86319570  1
  Cs  Cs6  1  0.50956478  0.34522171  0.71938538  1
  Cs  Cs7  1  0.38089872  0.11711174  0.13680430  1
  Cs  Cs8  1  0.30461787  0.87731918  0.80510726  1
  Cs  Cs9  1  0.11910128  0.11711174  0.63680430  1
  Cs  Cs10  1  0.58761313  0.27754028  0.96980729  1
  Cs  Cs11  1  0.61193865  0.00108684  0.41535859  1
  Cs  Cs12  1  0.41238687  0.72245972  0.03019271  1
  Cs  Cs13  1  0.34733399  0.55742813  0.49226189  1
  Cs  Cs14  1  0.65266601  0.44257187  0.50773811  1
  Cs  Cs15  1  0.11193865  0.99891316  0.08464141  1
  Cs  Cs16  1  0.19538213  0.87731918  0.30510726  1
  Cs  Cs17  1  0.88806135  0.00108684  0.91535859  1
  Cs  Cs18  1  0.80461787  0.12268082  0.69489274  1
  Cs  Cs19  1  0.91238687  0.27754028  0.46980729  1
  Cs  Cs20  1  0.84733399  0.44257187  0.00773811  1
  Cs  Cs21  1  0.38806135  0.99891316  0.58464141  1
  Cs  Cs22  1  0.15266601  0.55742813  0.99226189  1
  Cs  Cs23  1  0.99043522  0.34522171  0.21938538  1
  Ge  Ge0  1  0.75360674  0.54117207  0.78242425  1
  Ge  Ge1  1  0.65320350  0.72812929  0.10246644  1
  Ge  Ge2  1  0.34679650  0.27187071  0.89753356  1
  Ge  Ge3  1  0.84679650  0.72812929  0.60246644  1
  Ge  Ge4  1  0.15320350  0.27187071  0.39753356  1
  Ge  Ge5  1  0.87403880  0.83374298  0.13374490  1
  Ge  Ge6  1  0.37403880  0.16625702  0.36625510  1
  Ge  Ge7  1  0.25360674  0.45882793  0.71757575  1
  Ge  Ge8  1  0.12596120  0.16625702  0.86625510  1
  Ge  Ge9  1  0.24639326  0.45882793  0.21757575  1
  Ge  Ge10  1  0.62596120  0.83374298  0.63374490  1
  Ge  Ge11  1  0.74639326  0.54117207  0.28242425  1
  O  O0  1  0.55018001  0.72001463  0.58303072  1
  O  O1  1  0.86335760  0.60012770  0.53332512  1
  O  O2  1  0.77313474  0.29301626  0.33396686  1
  O  O3  1  0.94981999  0.72001463  0.08303072  1
  O  O4  1  0.56473600  0.89346066  0.11012827  1
  O  O5  1  0.67116533  0.53954452  0.19895727  1
  O  O6  1  0.40776602  0.93607355  0.35740669  1
  O  O7  1  0.85307911  0.66674105  0.23448006  1
  O  O8  1  0.64692089  0.66674105  0.73448006  1
  O  O9  1  0.63664240  0.60012770  0.03332512  1
  O  O10  1  0.14692089  0.33325895  0.76551994  1
  O  O11  1  0.06473600  0.10653934  0.38987173  1
  O  O12  1  0.09223398  0.93607355  0.85740669  1
  O  O13  1  0.36335760  0.39987230  0.96667488  1
  O  O14  1  0.93526400  0.89346066  0.61012827  1
  O  O15  1  0.23870165  0.12490843  0.91880571  1
  O  O16  1  0.19702673  0.31029176  0.16470020  1
  O  O17  1  0.13664240  0.39987230  0.46667488  1
  O  O18  1  0.59223398  0.06392645  0.64259331  1
  O  O19  1  0.22686526  0.70698374  0.66603314  1
  O  O20  1  0.35307911  0.33325895  0.26551994  1
  O  O21  1  0.27313474  0.70698374  0.16603314  1
  O  O22  1  0.69702673  0.68970824  0.33529980  1
  O  O23  1  0.72686526  0.29301626  0.83396686  1
  O  O24  1  0.30297327  0.31029176  0.66470020  1
  O  O25  1  0.90776602  0.06392645  0.14259331  1
  O  O26  1  0.73870165  0.87509157  0.58119429  1
  O  O27  1  0.44981999  0.27998537  0.41696928  1
  O  O28  1  0.80297327  0.68970824  0.83529980  1
  O  O29  1  0.26129835  0.12490843  0.41880571  1
  O  O30  1  0.43526400  0.10653934  0.88987173  1
  O  O31  1  0.76129835  0.87509157  0.08119429  1
  O  O32  1  0.17116533  0.46045548  0.30104273  1
  O  O33  1  0.32883467  0.46045548  0.80104273  1
  O  O34  1  0.05018001  0.27998537  0.91696928  1
  O  O35  1  0.82883467  0.53954452  0.69895727  1
loop_
_geom_bond_atom_site_label_1
_geom_bond_atom_site_label_2
_geom_bond_distance
_geom_bond_site_symmetry_2
Cs0 O17 2.889772 1_555
Cs0 O14 3.011371 1_455
Cs0 O11 3.046135 1_565
Cs0 O19 3.064416 1_555
Cs0 O1 3.283332 1_455
Cs1 O6 2.945157 1_555
Cs1 O27 3.005743 1_555
Cs1 O20 3.044432 1_555
Cs1 O22 3.109674 1_555
Cs1 O4 3.118179 1_555
Cs1 O5 3.153660 1_555
Cs1 O21 3.628115 1_555
Cs2 O5 2.957090 1_555
Cs2 O4 3.107310 1_545
Cs2 O31 3.154693 1_545
Cs2 O25 3.205451 1_555
Cs2 O2 3.216036 1_555
Cs2 O22 3.257903 1_545
Cs3 O1 3.034019 1_555
Cs3 O22 3.040104 1_555
Cs3 O7 3.100712 1_555
Cs3 O11 3.143831 1_665
Cs3 O2 3.147205 1_565
Cs4 O12 2.945157 1_555
Cs4 O34 3.005743 1_555
Cs4 O10 3.044432 1_555
Cs4 O28 3.109674 1_455
Cs4 O14 3.118179 1_455
Cs4 O35 3.153660 1_455
Cs4 O19 3.628115 1_555
Cs5 O9 3.034019 1_556
Cs5 O28 3.040104 1_555
Cs5 O8 3.100712 1_555
Cs5 O30 3.143831 1_565
Cs5 O23 3.147205 1_565
Cs6 O18 2.945157 1_555
Cs6 O0 3.005743 1_555
Cs6 O8 3.044432 1_555
Cs6 O24 3.109674 1_555
Cs6 O30 3.118179 1_555
Cs6 O33 3.153660 1_555
Cs6 O23 3.628115 1_555
Cs7 O13 3.034019 1_554
Cs7 O16 3.040104 1_555
Cs7 O20 3.100712 1_555
Cs7 O4 3.143831 1_545
Cs7 O21 3.147205 1_545
Cs8 O33 2.957090 1_555
Cs8 O30 3.107310 1_565
Cs8 O15 3.154693 1_565
Cs8 O12 3.205451 1_555
Cs8 O19 3.216036 1_555
Cs8 O24 3.257903 1_565
Cs9 O17 3.034019 1_555
Cs9 O24 3.040104 1_555
Cs9 O10 3.100712 1_555
Cs9 O14 3.143831 1_445
Cs9 O19 3.147205 1_545
Cs10 O9 2.889772 1_556
Cs10 O30 3.011371 1_555
Cs10 O4 3.046135 1_546
Cs10 O23 3.064416 1_555
Cs10 O13 3.283332 1_555
Cs11 O27 3.016932 1_555
Cs11 O2 3.099484 1_555
Cs11 O0 3.111384 1_545
Cs11 O6 3.141803 1_545
Cs11 O22 3.167788 1_545
Cs11 O26 3.292849 1_545
Cs12 O13 2.889772 1_554
Cs12 O4 3.011371 1_555
Cs12 O30 3.046135 1_564
Cs12 O21 3.064416 1_555
Cs12 O9 3.283332 1_555
Cs13 O27 3.029882 1_555
Cs13 O24 3.044982 1_555
Cs13 O6 3.075083 1_555
Cs13 O17 3.257468 1_555
Cs13 O0 3.629469 1_555
Cs14 O0 3.029882 1_555
Cs14 O22 3.044982 1_555
Cs14 O18 3.075083 1_555
Cs14 O1 3.257468 1_555
Cs14 O27 3.629469 1_555
Cs15 O3 3.016932 1_455
Cs15 O21 3.099484 1_555
Cs15 O34 3.111384 1_564
Cs15 O25 3.141803 1_465
Cs15 O16 3.167788 1_565
Cs15 O15 3.292849 1_564
Cs16 O32 2.957090 1_555
Cs16 O11 3.107310 1_565
Cs16 O29 3.154693 1_565
Cs16 O6 3.205451 1_555
Cs16 O21 3.216036 1_555
Cs16 O16 3.257903 1_565
Cs17 O34 3.016932 1_655
Cs17 O23 3.099484 1_555
Cs17 O3 3.111384 1_546
Cs17 O12 3.141803 1_645
Cs17 O28 3.167788 1_545
Cs17 O31 3.292849 1_546
Cs18 O35 2.957090 1_555
Cs18 O14 3.107310 1_545
Cs18 O26 3.154693 1_545
Cs18 O18 3.205451 1_555
Cs18 O23 3.216036 1_555
Cs18 O28 3.257903 1_545
Cs19 O1 2.889772 1_555
Cs19 O11 3.011371 1_655
Cs19 O14 3.046135 1_545
Cs19 O2 3.064416 1_555
Cs19 O17 3.283332 1_655
Cs20 O3 3.029882 1_555
Cs20 O28 3.044982 1_554
Cs20 O25 3.075083 1_555
Cs20 O9 3.257468 1_555
Cs20 O34 3.629469 1_654
Cs21 O0 3.016932 1_555
Cs21 O19 3.099484 1_555
Cs21 O27 3.111384 1_565
Cs21 O18 3.141803 1_565
Cs21 O24 3.167788 1_565
Cs21 O29 3.292849 1_565
Cs22 O34 3.029882 1_555
Cs22 O16 3.044982 1_556
Cs22 O12 3.075083 1_555
Cs22 O13 3.257468 1_555
Cs22 O3 3.629469 1_456
Cs23 O25 2.945157 1_555
Cs23 O3 3.005743 1_555
Cs23 O7 3.044432 1_555
Cs23 O16 3.109674 1_655
Cs23 O11 3.118179 1_655
Cs23 O32 3.153660 1_655
Cs23 O2 3.628115 1_555
Ge0 O23 1.732511 1_555
Ge0 O28 1.736669 1_555
Ge0 O35 1.810629 1_555
Ge0 O8 1.816744 1_555
Ge1 O9 1.728702 1_555
Ge1 O4 1.737115 1_555
Ge1 O5 1.811520 1_555
Ge1 O31 1.816334 1_555
Ge2 O13 1.728702 1_555
Ge2 O30 1.737115 1_555
Ge2 O33 1.811520 1_555
Ge2 O15 1.816334 1_555
Ge3 O1 1.728702 1_555
Ge3 O14 1.737115 1_555
Ge3 O35 1.811520 1_555
Ge3 O26 1.816334 1_555
Ge4 O17 1.728702 1_555
Ge4 O11 1.737115 1_555
Ge4 O32 1.811520 1_555
Ge4 O29 1.816334 1_555
Ge5 O25 1.730732 1_565
Ge5 O3 1.733773 1_555
Ge5 O7 1.813836 1_555
Ge5 O31 1.819843 1_555
Ge6 O6 1.730732 1_545
Ge6 O27 1.733773 1_555
Ge6 O20 1.813836 1_555
Ge6 O29 1.819843 1_555
Ge7 O19 1.732511 1_555
Ge7 O24 1.736669 1_555
Ge7 O33 1.810629 1_555
Ge7 O10 1.816744 1_555
Ge8 O12 1.730732 1_545
Ge8 O34 1.733773 1_555
Ge8 O10 1.813836 1_555
Ge8 O15 1.819843 1_555
Ge9 O21 1.732511 1_555
Ge9 O16 1.736669 1_555
Ge9 O32 1.810629 1_555
Ge9 O20 1.816744 1_555
Ge10 O18 1.730732 1_565
Ge10 O0 1.733773 1_555
Ge10 O8 1.813836 1_555
Ge10 O26 1.819843 1_555
Ge11 O2 1.732511 1_555
Ge11 O22 1.736669 1_555
Ge11 O5 1.810629 1_555
Ge11 O7 1.816744 1_555
