# generated using pymatgen
data_Sr3CePC3O13
_symmetry_space_group_name_H-M   'P 1'
_cell_length_a   6.65766181
_cell_length_b   6.65766181
_cell_length_c   6.65766157
_cell_angle_alpha   99.98873497
_cell_angle_beta   99.98873497
_cell_angle_gamma   99.98873197
_symmetry_Int_Tables_number   1
_chemical_formula_structural   Sr3CePC3O13
_chemical_formula_sum   'Sr3 Ce1 P1 C3 O13'
_cell_volume   279.84546305
_cell_formula_units_Z   1
loop_
 _symmetry_equiv_pos_site_id
 _symmetry_equiv_pos_as_xyz
  1  'x, y, z'
loop_
 _atom_site_type_symbol
 _atom_site_label
 _atom_site_symmetry_multiplicity
 _atom_site_fract_x
 _atom_site_fract_y
 _atom_site_fract_z
 _atom_site_occupancy
  Sr  Sr0  1  0.92088400  0.47410100  0.47410100  1
  Sr  Sr1  1  0.47410100  0.47410100  0.92088400  1
  Sr  Sr2  1  0.47410100  0.92088400  0.47410100  1
  Ce  Ce0  1  0.00012000  0.00012000  0.00012000  1
  P  P0  1  0.42049300  0.42049300  0.42049300  1
  C  C0  1  0.93307800  0.93307800  0.43412300  1
  C  C1  1  0.43412300  0.93307800  0.93307800  1
  C  C2  1  0.93307800  0.43412300  0.93307800  1
  O  O0  1  0.06001100  0.84054200  0.34279500  1
  O  O1  1  0.34279500  0.06001100  0.84054200  1
  O  O2  1  0.60533900  0.88879200  0.88879200  1
  O  O3  1  0.56138000  0.56138000  0.31392100  1
  O  O4  1  0.25545500  0.25545500  0.25545500  1
  O  O5  1  0.84054200  0.34279500  0.06001100  1
  O  O6  1  0.84054200  0.06001100  0.34279500  1
  O  O7  1  0.31392100  0.56138000  0.56138000  1
  O  O8  1  0.88879200  0.88879200  0.60533900  1
  O  O9  1  0.06001100  0.34279500  0.84054200  1
  O  O10  1  0.34279500  0.84054200  0.06001100  1
  O  O11  1  0.56138000  0.31392100  0.56138000  1
  O  O12  1  0.88879200  0.60533900  0.88879200  1
loop_
_geom_bond_atom_site_label_1
_geom_bond_atom_site_label_2
_geom_bond_distance
_geom_bond_site_symmetry_2
Ce0 O4 2.379466 1_555
Ce0 O8 2.542555 1_444
Ce0 O2 2.542555 1_444
Ce0 O12 2.542555 1_444
Ce0 O0 2.676713 1_545
Ce0 O6 2.676713 1_455
Ce0 O10 2.676713 1_545
Ce0 O5 2.676713 1_455
Ce0 O1 2.676713 1_554
Ce0 O9 2.676713 1_554
C0 O8 1.294704 1_555
C0 O0 1.300891 1_655
C0 O6 1.300891 1_565
C1 O2 1.294704 1_555
C1 O1 1.300891 1_565
C1 O10 1.300891 1_556
C2 O12 1.294704 1_555
C2 O9 1.300891 1_655
C2 O5 1.300891 1_556
O0 Sr2 2.672231 1_555
O0 Sr0 2.794789 1_455
O1 Sr1 2.672231 1_555
O1 Sr2 2.794789 1_545
O2 Sr2 2.804289 1_555
O2 Sr1 2.804290 1_555
O3 P0 1.555493 1_555
O3 Sr1 2.519994 1_554
O3 Sr2 2.648682 1_555
O3 Sr0 2.648682 1_555
O4 P0 1.537989 1_555
O5 Sr0 2.672231 1_555
O5 Sr1 2.794789 1_554
O6 Sr0 2.672231 1_555
O6 Sr2 2.794789 1_545
O7 P0 1.555493 1_555
O7 Sr0 2.519994 1_455
O7 Sr1 2.648682 1_555
O7 Sr2 2.648682 1_555
O8 Sr0 2.804289 1_555
O8 Sr2 2.804289 1_555
O9 Sr1 2.672231 1_555
O9 Sr0 2.794789 1_455
O10 Sr2 2.672231 1_555
O10 Sr1 2.794789 1_554
O11 P0 1.555493 1_555
O11 Sr2 2.519994 1_545
O11 Sr1 2.648682 1_555
O11 Sr0 2.648682 1_555
O12 Sr0 2.804289 1_555
O12 Sr1 2.804290 1_555
