# generated using pymatgen
data_LiBi2(PO4)3
_symmetry_space_group_name_H-M   'P 1'
_cell_length_a   8.78688817
_cell_length_b   9.68257287
_cell_length_c   8.77153019
_cell_angle_alpha   63.44178078
_cell_angle_beta   60.14508532
_cell_angle_gamma   62.96875462
_symmetry_Int_Tables_number   1
_chemical_formula_structural   LiBi2(PO4)3
_chemical_formula_sum   'Li2 Bi4 P6 O24'
_cell_volume   552.47034273
_cell_formula_units_Z   2
loop_
 _symmetry_equiv_pos_site_id
 _symmetry_equiv_pos_as_xyz
  1  'x, y, z'
loop_
 _atom_site_type_symbol
 _atom_site_label
 _atom_site_symmetry_multiplicity
 _atom_site_fract_x
 _atom_site_fract_y
 _atom_site_fract_z
 _atom_site_occupancy
  Li  Li0  1  0.68198500  0.12165400  0.25794300  1
  Li  Li1  1  0.31801600  0.87834800  0.74205700  1
  Bi  Bi0  1  0.13569400  0.56479700  0.14814000  1
  Bi  Bi1  1  0.33895300  0.96656200  0.33728700  1
  Bi  Bi2  1  0.66104300  0.03343700  0.66271600  1
  Bi  Bi3  1  0.86430500  0.43520900  0.85185600  1
  P  P0  1  0.26503500  0.23568100  0.54852400  1
  P  P1  1  0.05436800  0.75878000  0.73871800  1
  P  P2  1  0.45332500  0.75395600  0.04686000  1
  P  P3  1  0.54667600  0.24604200  0.95314600  1
  P  P4  1  0.94563300  0.24121600  0.26128400  1
  P  P5  1  0.73496400  0.76432300  0.45146900  1
  O  O0  1  0.13889000  0.10949800  0.20800200  1
  O  O1  1  0.22830300  0.08602500  0.55398600  1
  O  O2  1  0.21911900  0.38634000  0.39836800  1
  O  O3  1  0.15325300  0.24982000  0.74332700  1
  O  O4  1  0.53213800  0.11552800  0.15009200  1
  O  O5  1  0.25708000  0.74592200  0.13128500  1
  O  O6  1  0.03423400  0.59509700  0.78617800  1
  O  O7  1  0.47875300  0.18840400  0.50031900  1
  O  O8  1  0.16525200  0.80989900  0.52670300  1
  O  O9  1  0.60059000  0.59311500  0.02736800  1
  O  O10  1  0.15105700  0.75379600  0.84828200  1
  O  O11  1  0.49483900  0.81364600  0.15824700  1
  O  O12  1  0.50516200  0.18635400  0.84175700  1
  O  O13  1  0.84894600  0.24620800  0.15171400  1
  O  O14  1  0.39941300  0.40688700  0.97263400  1
  O  O15  1  0.83474700  0.19009700  0.47329800  1
  O  O16  1  0.52124500  0.81159600  0.49968000  1
  O  O17  1  0.96577500  0.40489500  0.21383100  1
  O  O18  1  0.74292000  0.25407300  0.86872600  1
  O  O19  1  0.46785500  0.88447200  0.84991500  1
  O  O20  1  0.84674300  0.75019100  0.25666100  1
  O  O21  1  0.78089000  0.61366200  0.60161800  1
  O  O22  1  0.77169300  0.91397900  0.44601100  1
  O  O23  1  0.86110600  0.89049300  0.79200000  1
loop_
_geom_bond_atom_site_label_1
_geom_bond_atom_site_label_2
_geom_bond_distance
_geom_bond_site_symmetry_2
Li0 O13 1.928030 1_555
Li0 O4 1.998362 1_555
Li0 O22 2.067307 1_545
Li0 O7 2.127520 1_555
Li1 O10 1.928007 1_555
Li1 O19 1.998337 1_555
Li1 O1 2.067345 1_565
Li1 O16 2.127528 1_555
Bi0 O2 2.323739 1_555
Bi0 O17 2.324919 1_455
Bi0 O14 2.325958 1_554
Bi0 O5 2.355115 1_555
Bi0 O20 2.356668 1_455
Bi0 O10 2.419106 1_554
Bi1 O11 2.151495 1_555
Bi1 O0 2.159088 1_565
Bi1 O8 2.171875 1_555
Bi1 O4 2.233988 1_565
Bi1 O1 2.236095 1_565
Bi1 O16 2.240964 1_555
Bi2 O12 2.151510 1_555
Bi2 O23 2.159085 1_545
Bi2 O15 2.171874 1_555
Bi2 O19 2.234002 1_545
Bi2 O22 2.236107 1_545
Bi2 O7 2.240976 1_555
Bi3 O21 2.323761 1_555
Bi3 O6 2.324919 1_655
Bi3 O9 2.325950 1_556
Bi3 O18 2.355141 1_555
Bi3 O3 2.356647 1_655
Bi3 O13 2.419117 1_556
O0 P4 1.582063 1_455
O1 P0 1.598083 1_555
O2 P0 1.517081 1_555
O3 P0 1.522894 1_555
O4 P3 1.603896 1_554
O5 P2 1.525448 1_555
O6 P1 1.519202 1_555
O7 P0 1.586207 1_555
O8 P1 1.569717 1_555
O9 P2 1.521551 1_555
O10 P1 1.543348 1_555
O11 P2 1.572610 1_555
O12 P3 1.572611 1_555
O13 P4 1.543341 1_555
O14 P3 1.521566 1_555
O15 P4 1.569714 1_555
O16 P5 1.586210 1_555
O17 P4 1.519212 1_555
O18 P3 1.525435 1_555
O19 P2 1.603903 1_556
O20 P5 1.522909 1_555
O21 P5 1.517078 1_555
O22 P5 1.598084 1_555
O23 P1 1.582066 1_655
