# generated using pymatgen
data_Tb2Al4NiGe2
_symmetry_space_group_name_H-M   'P 1'
_cell_length_a   10.16489095
_cell_length_b   10.16489095
_cell_length_c   10.16489095
_cell_angle_alpha   156.43891414
_cell_angle_beta   156.43891414
_cell_angle_gamma   33.56399255
_symmetry_Int_Tables_number   1
_chemical_formula_structural   Tb2Al4NiGe2
_chemical_formula_sum   'Tb2 Al4 Ni1 Ge2'
_cell_volume   167.65750084
_cell_formula_units_Z   1
loop_
 _symmetry_equiv_pos_site_id
 _symmetry_equiv_pos_as_xyz
  1  'x, y, z'
loop_
 _atom_site_type_symbol
 _atom_site_label
 _atom_site_symmetry_multiplicity
 _atom_site_fract_x
 _atom_site_fract_y
 _atom_site_fract_z
 _atom_site_occupancy
  Tb  Tb0  1  0.81401900  0.81401900  0.00000000  1
  Tb  Tb1  1  0.18598100  0.18598100  0.00000000  1
  Al  Al0  1  0.43269500  0.93269500  0.50000000  1
  Al  Al1  1  0.93269500  0.43269500  0.50000000  1
  Al  Al2  1  0.06730500  0.56730500  0.50000000  1
  Al  Al3  1  0.56730500  0.06730500  0.50000000  1
  Ni  Ni0  1  0.00000000  0.00000000  0.00000000  1
  Ge  Ge0  1  0.66227400  0.66227400  0.00000000  1
  Ge  Ge1  1  0.33772600  0.33772600  0.00000000  1
loop_
_geom_bond_atom_site_label_1
_geom_bond_atom_site_label_2
_geom_bond_distance
_geom_bond_site_symmetry_2
Al0 Ni0 2.454186 1_666
Al0 Ni0 2.454186 1_565
Al0 Al3 2.620041 1_565
Al0 Ge1 2.779158 1_566
Al0 Ge1 2.779158 1_555
Al0 Al1 2.934919 1_465
Al0 Al1 2.934919 1_454
Al0 Al1 2.934919 1_555
Al0 Al1 2.934919 1_566
Al0 Tb0 3.105242 1_455
Al0 Tb0 3.105242 1_556
Al1 Ni0 2.454186 1_666
Al1 Ni0 2.454186 1_655
Al1 Al2 2.620041 1_655
Al1 Ge1 2.779158 1_656
Al1 Ge1 2.779158 1_555
Al1 Tb0 3.105242 1_556
Al1 Tb0 3.105242 1_545
Al2 Ni0 2.454186 1_555
Al2 Ni0 2.454186 1_566
Al2 Ge0 2.779158 1_455
Al2 Ge0 2.779158 1_556
Al2 Al3 2.934919 1_555
Al2 Al3 2.934919 1_566
Al2 Al3 2.934919 1_454
Al2 Al3 2.934919 1_465
Al2 Tb1 3.105242 1_566
Al2 Tb1 3.105242 1_555
Al3 Ni0 2.454186 1_656
Al3 Ni0 2.454186 1_555
Al3 Ge0 2.779158 1_556
Al3 Ge0 2.779158 1_545
Al3 Tb1 3.105242 1_656
Al3 Tb1 3.105242 1_555
Ge0 Tb0 2.953556 1_555
Ge0 Tb1 2.970971 1_565
Ge0 Tb1 2.970971 1_554
Ge0 Tb1 2.970971 1_655
Ge0 Tb1 2.970971 1_666
Ge1 Tb1 2.953556 1_555
Ge1 Tb0 2.970971 1_545
Ge1 Tb0 2.970971 1_556
Ge1 Tb0 2.970971 1_444
Ge1 Tb0 2.970971 1_455
