# generated using pymatgen
data_Ce2Sc3Si4
_symmetry_space_group_name_H-M   'P 1'
_cell_length_a   7.21650956
_cell_length_b   7.52695716
_cell_length_c   14.24072653
_cell_angle_alpha   90.00000000
_cell_angle_beta   90.00000000
_cell_angle_gamma   90.00000000
_symmetry_Int_Tables_number   1
_chemical_formula_structural   Ce2Sc3Si4
_chemical_formula_sum   'Ce8 Sc12 Si16'
_cell_volume   773.53288615
_cell_formula_units_Z   4
loop_
 _symmetry_equiv_pos_site_id
 _symmetry_equiv_pos_as_xyz
  1  'x, y, z'
loop_
 _atom_site_type_symbol
 _atom_site_label
 _atom_site_symmetry_multiplicity
 _atom_site_fract_x
 _atom_site_fract_y
 _atom_site_fract_z
 _atom_site_occupancy
  Ce  Ce0  1  0.98708208  0.17355708  0.09686532  1
  Ce  Ce1  1  0.48708208  0.32644292  0.40313468  1
  Ce  Ce2  1  0.51291792  0.67355708  0.90313468  1
  Ce  Ce3  1  0.01291792  0.82644292  0.59686532  1
  Ce  Ce4  1  0.01291792  0.82644292  0.90313468  1
  Ce  Ce5  1  0.51291792  0.67355708  0.59686532  1
  Ce  Ce6  1  0.48708208  0.32644292  0.09686532  1
  Ce  Ce7  1  0.98708208  0.17355708  0.40313468  1
  Sc  Sc0  1  0.65909786  0.00501090  0.25000000  1
  Sc  Sc1  1  0.15909786  0.49498910  0.25000000  1
  Sc  Sc2  1  0.84090214  0.50501090  0.75000000  1
  Sc  Sc3  1  0.34090214  0.99498910  0.75000000  1
  Sc  Sc4  1  0.82785785  0.67612268  0.12465310  1
  Sc  Sc5  1  0.32785785  0.82387732  0.37534690  1
  Sc  Sc6  1  0.67214215  0.17612268  0.87534690  1
  Sc  Sc7  1  0.17214215  0.32387732  0.62465310  1
  Sc  Sc8  1  0.17214215  0.32387732  0.87534690  1
  Sc  Sc9  1  0.67214215  0.17612268  0.62465310  1
  Sc  Sc10  1  0.32785785  0.82387732  0.12465310  1
  Sc  Sc11  1  0.82785785  0.67612268  0.37534690  1
  Si  Si0  1  0.78398346  0.38298853  0.25000000  1
  Si  Si1  1  0.28398346  0.11701147  0.25000000  1
  Si  Si2  1  0.71601654  0.88298853  0.75000000  1
  Si  Si3  1  0.21601654  0.61701147  0.75000000  1
  Si  Si4  1  0.03332342  0.87954191  0.25000000  1
  Si  Si5  1  0.53332342  0.62045809  0.25000000  1
  Si  Si6  1  0.46667658  0.37954191  0.75000000  1
  Si  Si7  1  0.96667658  0.12045809  0.75000000  1
  Si  Si8  1  0.84991707  0.46498300  0.96096694  1
  Si  Si9  1  0.34991707  0.03501700  0.53903306  1
  Si  Si10  1  0.65008293  0.96498300  0.03903306  1
  Si  Si11  1  0.15008293  0.53501700  0.46096694  1
  Si  Si12  1  0.15008293  0.53501700  0.03903306  1
  Si  Si13  1  0.65008293  0.96498300  0.46096694  1
  Si  Si14  1  0.34991707  0.03501700  0.96096694  1
  Si  Si15  1  0.84991707  0.46498300  0.53903306  1
loop_
_geom_bond_atom_site_label_1
_geom_bond_atom_site_label_2
_geom_bond_distance
_geom_bond_site_symmetry_2
Ce0 Si10 3.009546 1_545
Ce0 Si0 3.064117 1_555
Ce0 Si12 3.076381 1_655
Ce0 Si1 3.086667 1_655
Ce0 Si8 3.088175 1_554
Ce0 Si4 3.124831 1_645
Ce0 Si14 3.418886 1_654
Ce1 Si11 3.009546 1_555
Ce1 Si1 3.064117 1_555
Ce1 Si13 3.076381 1_545
Ce1 Si0 3.086667 1_555
Ce1 Si9 3.088175 1_555
Ce1 Si5 3.124831 1_555
Ce1 Si15 3.418886 1_555
Ce2 Si8 3.009546 1_555
Ce2 Si2 3.064117 1_555
Ce2 Si14 3.076381 1_565
Ce2 Si3 3.086667 1_555
Ce2 Si10 3.088175 1_556
Ce2 Si6 3.124831 1_555
Ce2 Si12 3.418886 1_556
Ce3 Si9 3.009546 1_565
Ce3 Si3 3.064117 1_555
Ce3 Si15 3.076381 1_455
Ce3 Si2 3.086667 1_455
Ce3 Si11 3.088175 1_555
Ce3 Si7 3.124831 1_465
Ce3 Si13 3.418886 1_455
Ce4 Si14 3.009546 1_565
Ce4 Si3 3.064117 1_555
Ce4 Si8 3.076381 1_455
Ce4 Si2 3.086667 1_455
Ce4 Si12 3.088175 1_556
Ce4 Si7 3.124831 1_465
Ce4 Si10 3.418886 1_456
Ce5 Si15 3.009546 1_555
Ce5 Si2 3.064117 1_555
Ce5 Si9 3.076381 1_565
Ce5 Si3 3.086667 1_555
Ce5 Si13 3.088175 1_555
Ce5 Si6 3.124831 1_555
Ce5 Si11 3.418886 1_555
Ce6 Si12 3.009546 1_555
Ce6 Si1 3.064117 1_555
Ce6 Si10 3.076381 1_545
Ce6 Si0 3.086667 1_555
Ce6 Si14 3.088175 1_554
Ce6 Si5 3.124831 1_555
Ce6 Si8 3.418886 1_554
Ce7 Si13 3.009546 1_545
Ce7 Si0 3.064117 1_555
Ce7 Si11 3.076381 1_655
Ce7 Si1 3.086667 1_655
Ce7 Si15 3.088175 1_555
Ce7 Si4 3.124831 1_645
Ce7 Si9 3.418886 1_655
Sc0 Si1 2.835247 1_555
Sc0 Si4 2.860969 1_645
Sc0 Si0 2.984355 1_555
Sc0 Si13 3.020093 1_545
Sc0 Si10 3.020093 1_545
Sc0 Si5 3.033486 1_545
Sc1 Si0 2.835247 1_455
Sc1 Si5 2.860969 1_555
Sc1 Si1 2.984355 1_555
Sc1 Si12 3.020093 1_555
Sc1 Si11 3.020093 1_555
Sc1 Si4 3.033486 1_555
Sc2 Si3 2.835247 1_655
Sc2 Si6 2.860969 1_555
Sc2 Si2 2.984355 1_555
Sc2 Si8 3.020093 1_555
Sc2 Si15 3.020093 1_555
Sc2 Si7 3.033486 1_555
Sc3 Si2 2.835247 1_555
Sc3 Si7 2.860969 1_465
Sc3 Si3 2.984355 1_555
Sc3 Si9 3.020093 1_565
Sc3 Si14 3.020093 1_565
Sc3 Si6 3.033486 1_565
Sc4 Si4 2.780147 1_655
Sc4 Si10 2.803544 1_555
Sc4 Si5 2.807077 1_555
Sc4 Si8 2.825709 1_554
Sc4 Si12 2.832301 1_655
Sc4 Si0 2.855665 1_555
Sc5 Si5 2.780147 1_555
Sc5 Si11 2.803544 1_555
Sc5 Si4 2.807077 1_555
Sc5 Si9 2.825709 1_565
Sc5 Si13 2.832301 1_555
Sc5 Si1 2.855665 1_565
Sc6 Si6 2.780147 1_555
Sc6 Si8 2.803544 1_555
Sc6 Si7 2.807077 1_555
Sc6 Si10 2.825709 1_546
Sc6 Si14 2.832301 1_555
Sc6 Si2 2.855665 1_545
Sc7 Si7 2.780147 1_455
Sc7 Si9 2.803544 1_555
Sc7 Si6 2.807077 1_555
Sc7 Si11 2.825709 1_555
Sc7 Si15 2.832301 1_455
Sc7 Si3 2.855665 1_555
Sc8 Si7 2.780147 1_455
Sc8 Si14 2.803544 1_555
Sc8 Si6 2.807077 1_555
Sc8 Si12 2.825709 1_556
Sc8 Si8 2.832301 1_455
Sc8 Si3 2.855665 1_555
Sc9 Si6 2.780147 1_555
Sc9 Si15 2.803544 1_555
Sc9 Si7 2.807077 1_555
Sc9 Si13 2.825709 1_545
Sc9 Si9 2.832301 1_555
Sc9 Si2 2.855665 1_545
Sc10 Si5 2.780147 1_555
Sc10 Si12 2.803544 1_555
Sc10 Si4 2.807077 1_555
Sc10 Si14 2.825709 1_564
Sc10 Si10 2.832301 1_555
Sc10 Si1 2.855665 1_565
Sc11 Si4 2.780147 1_655
Sc11 Si13 2.803544 1_555
Sc11 Si5 2.807077 1_555
Sc11 Si15 2.825709 1_555
Sc11 Si11 2.832301 1_655
Sc11 Si0 2.855665 1_555
Si0 Si5 2.543023 1_555
Si1 Si4 2.543023 1_545
Si2 Si7 2.543023 1_565
Si3 Si6 2.543023 1_555
Si10 Si14 2.491185 1_564
Si11 Si15 2.491185 1_455
Si12 Si8 2.491185 1_454
Si13 Si9 2.491185 1_565
