# generated using pymatgen
data_Rb2Cr2Cd(H2O5)2
_symmetry_space_group_name_H-M   'P 1'
_cell_length_a   6.89846700
_cell_length_b   7.92149329
_cell_length_c   11.61710741
_cell_angle_alpha   72.69012595
_cell_angle_beta   75.43485695
_cell_angle_gamma   68.59283721
_symmetry_Int_Tables_number   1
_chemical_formula_structural   Rb2Cr2Cd(H2O5)2
_chemical_formula_sum   'Rb4 Cr4 Cd2 H8 O20'
_cell_volume   556.92723000
_cell_formula_units_Z   2
loop_
 _symmetry_equiv_pos_site_id
 _symmetry_equiv_pos_as_xyz
  1  'x, y, z'
loop_
 _atom_site_type_symbol
 _atom_site_label
 _atom_site_symmetry_multiplicity
 _atom_site_fract_x
 _atom_site_fract_y
 _atom_site_fract_z
 _atom_site_occupancy
  Rb  Rb0  1  0.19982900  0.24578400  0.59764900  1
  Rb  Rb1  1  0.73388600  0.26685100  0.07902500  1
  Rb  Rb2  1  0.26611400  0.73314900  0.92097500  1
  Rb  Rb3  1  0.80017100  0.75421600  0.40235100  1
  Cr  Cr0  1  0.73251200  0.77173900  0.08604300  1
  Cr  Cr1  1  0.73142200  0.22934200  0.42400500  1
  Cr  Cr2  1  0.26748800  0.22826100  0.91395700  1
  Cr  Cr3  1  0.26857800  0.77065800  0.57599500  1
  Cd  Cd0  1  0.75014300  0.97019800  0.74681000  1
  Cd  Cd1  1  0.24985700  0.02980200  0.25319000  1
  H  H0  1  0.63658100  0.31045200  0.80081900  1
  H  H1  1  0.65775500  0.65602500  0.71224200  1
  H  H2  1  0.31185900  0.63321100  0.34126200  1
  H  H3  1  0.84627600  0.57002500  0.79369200  1
  H  H4  1  0.34224500  0.34397500  0.28775800  1
  H  H5  1  0.15372400  0.42997500  0.20630800  1
  H  H6  1  0.68814100  0.36678900  0.65873800  1
  H  H7  1  0.36341900  0.68954800  0.19918100  1
  O  O0  1  0.74853100  0.27727700  0.73001700  1
  O  O1  1  0.84354300  0.35540200  0.45759200  1
  O  O2  1  0.56760900  0.66601800  0.08041200  1
  O  O3  1  0.89197700  0.11934200  0.31458500  1
  O  O4  1  0.38953800  0.08285500  0.81886900  1
  O  O5  1  0.19188100  0.10731900  0.05288500  1
  O  O6  1  0.43239100  0.33398200  0.91958800  1
  O  O7  1  0.61046200  0.91714500  0.18113100  1
  O  O8  1  0.94498200  0.61590800  0.13922200  1
  O  O9  1  0.71902400  0.67733100  0.77367700  1
  O  O10  1  0.49621500  0.63737900  0.62487400  1
  O  O11  1  0.50378500  0.36262100  0.37512600  1
  O  O12  1  0.05501800  0.38409200  0.86077800  1
  O  O13  1  0.67936900  0.06924400  0.54944400  1
  O  O14  1  0.28097600  0.32266900  0.22632300  1
  O  O15  1  0.15645700  0.64459800  0.54240800  1
  O  O16  1  0.80811900  0.89268100  0.94711500  1
  O  O17  1  0.25146900  0.72272300  0.26998300  1
  O  O18  1  0.32063100  0.93075600  0.45055600  1
  O  O19  1  0.10802300  0.88065800  0.68541500  1
loop_
_geom_bond_atom_site_label_1
_geom_bond_atom_site_label_2
_geom_bond_distance
_geom_bond_site_symmetry_2
Cr0 O8 1.653669 1_555
Cr0 O2 1.662887 1_555
Cr0 O16 1.678077 1_554
Cr0 O7 1.684427 1_555
Cr1 O1 1.641684 1_555
Cr1 O11 1.668696 1_555
Cr1 O13 1.682363 1_555
Cr1 O3 1.687696 1_555
Cr2 O12 1.653669 1_555
Cr2 O6 1.662887 1_555
Cr2 O5 1.678077 1_556
Cr2 O4 1.684427 1_555
Cr3 O15 1.641684 1_555
Cr3 O10 1.668696 1_555
Cr3 O18 1.682363 1_555
Cr3 O19 1.687696 1_555
Cd0 O19 2.289978 1_655
Cd0 O13 2.307354 1_565
Cd0 O16 2.321701 1_555
Cd0 O9 2.329078 1_555
Cd0 O4 2.337101 1_565
Cd0 O0 2.377878 1_565
Cd1 O3 2.289978 1_455
Cd1 O18 2.307354 1_545
Cd1 O5 2.321701 1_555
Cd1 O14 2.329078 1_555
Cd1 O7 2.337101 1_545
Cd1 O17 2.377878 1_545
H0 O0 1.001499 1_555
H1 O9 0.995974 1_555
H2 O17 0.985129 1_555
H3 O9 0.993757 1_555
H4 O14 0.995974 1_555
H5 O14 0.993757 1_555
H6 O0 0.985129 1_555
H7 O17 1.001499 1_555
O0 Rb0 3.061493 1_655
O1 Rb3 2.946527 1_555
O1 Rb0 3.009135 1_655
O2 Rb2 2.929720 1_554
O2 Rb1 2.947474 1_555
O3 Rb1 2.951489 1_555
O3 Rb3 3.010617 1_545
O4 Rb0 2.909955 1_555
O4 Rb2 3.010706 1_545
O5 Rb1 2.915926 1_455
O6 Rb1 2.929720 1_556
O6 Rb2 2.947474 1_555
O7 Rb3 2.909955 1_555
O7 Rb1 3.010706 1_565
O8 Rb2 3.078000 1_654
O8 Rb3 3.346704 1_555
O9 Rb2 3.104541 1_555
O10 Rb3 3.033566 1_555
O11 Rb0 3.033566 1_555
O12 Rb1 3.078000 1_456
O12 Rb0 3.346704 1_555
O13 Rb0 3.061037 1_555
O13 Rb3 3.185153 1_545
O14 Rb1 3.104541 1_555
O15 Rb0 2.946527 1_555
O15 Rb3 3.009135 1_455
O16 Rb2 2.915926 1_655
O17 Rb3 3.061493 1_455
O18 Rb3 3.061037 1_555
O18 Rb0 3.185153 1_565
O19 Rb2 2.951489 1_555
O19 Rb0 3.010617 1_565
