# generated using pymatgen
data_Tb2Mg3Ni2
_symmetry_space_group_name_H-M   'P 1'
_cell_length_a   3.56569399
_cell_length_b   3.97193859
_cell_length_c   10.73410569
_cell_angle_alpha   100.66199994
_cell_angle_beta   90.00000000
_cell_angle_gamma   90.00000000
_symmetry_Int_Tables_number   1
_chemical_formula_structural   Tb2Mg3Ni2
_chemical_formula_sum   'Tb2 Mg3 Ni2'
_cell_volume   149.39952019
_cell_formula_units_Z   1
loop_
 _symmetry_equiv_pos_site_id
 _symmetry_equiv_pos_as_xyz
  1  'x, y, z'
loop_
 _atom_site_type_symbol
 _atom_site_label
 _atom_site_symmetry_multiplicity
 _atom_site_fract_x
 _atom_site_fract_y
 _atom_site_fract_z
 _atom_site_occupancy
  Tb  Tb0  1  -0.00000000  0.17702878  0.35405957  1
  Tb  Tb1  1  -0.00000000  0.82297122  0.64594043  1
  Mg  Mg0  1  0.50000000  0.57996963  0.15993825  1
  Mg  Mg1  1  0.50000000  0.42003037  0.84006175  1
  Mg  Mg2  1  -0.00000000  0.00000000  0.00000000  1
  Ni  Ni0  1  0.50000000  0.71382268  0.42764736  1
  Ni  Ni1  1  0.50000000  0.28617732  0.57235264  1
loop_
_geom_bond_atom_site_label_1
_geom_bond_atom_site_label_2
_geom_bond_distance
_geom_bond_site_symmetry_2
Mg0 Ni0 2.824007 1_555
Mg0 Mg2 3.157388 1_565
Mg0 Mg2 3.157388 1_665
Mg0 Mg2 3.157391 1_555
Mg0 Mg2 3.157391 1_655
Mg0 Tb0 3.363904 1_565
Mg0 Tb0 3.363904 1_665
Mg0 Tb0 3.363911 1_655
Mg0 Tb0 3.363911 1_555
Mg0 Mg1 3.374310 1_554
Mg1 Ni1 2.824007 1_555
Mg1 Mg2 3.157388 1_656
Mg1 Mg2 3.157388 1_556
Mg1 Mg2 3.157391 1_566
Mg1 Mg2 3.157391 1_666
Mg1 Tb1 3.363904 1_645
Mg1 Tb1 3.363904 1_545
Mg1 Tb1 3.363911 1_555
Mg1 Tb1 3.363911 1_655
Ni0 Ni1 2.504823 1_555
Ni0 Ni1 2.504836 1_565
Ni0 Tb0 2.779424 1_565
Ni0 Tb0 2.779424 1_665
Ni0 Tb0 2.779424 1_655
Ni0 Tb0 2.779424 1_555
Ni0 Tb1 2.912232 1_555
Ni0 Tb1 2.912232 1_655
Ni1 Tb1 2.779424 1_545
Ni1 Tb1 2.779424 1_645
Ni1 Tb1 2.779424 1_555
Ni1 Tb1 2.779424 1_655
Ni1 Tb0 2.912232 1_655
Ni1 Tb0 2.912232 1_555
