# generated using pymatgen
data_SiO2
_symmetry_space_group_name_H-M   'P 1'
_cell_length_a   9.92997742
_cell_length_b   9.93002475
_cell_length_c   12.55616489
_cell_angle_alpha   113.26967763
_cell_angle_beta   113.26942520
_cell_angle_gamma   90.01480713
_symmetry_Int_Tables_number   1
_chemical_formula_structural   SiO2
_chemical_formula_sum   'Si16 O32'
_cell_volume   1026.78600845
_cell_formula_units_Z   16
loop_
 _symmetry_equiv_pos_site_id
 _symmetry_equiv_pos_as_xyz
  1  'x, y, z'
loop_
 _atom_site_type_symbol
 _atom_site_label
 _atom_site_symmetry_multiplicity
 _atom_site_fract_x
 _atom_site_fract_y
 _atom_site_fract_z
 _atom_site_occupancy
  Si  Si0  1  0.04392461  0.10746271  0.39069456  1
  Si  Si1  1  0.89253030  0.65301606  0.10936126  1
  Si  Si2  1  0.04388035  0.78302476  0.39078471  1
  Si  Si3  1  0.78303607  0.34694402  0.89073834  1
  Si  Si4  1  0.21696524  0.65305983  0.10926305  1
  Si  Si5  1  0.78302577  0.04388186  0.89078945  1
  Si  Si6  1  0.10746950  0.34698794  0.89064019  1
  Si  Si7  1  0.10746474  0.04392303  0.89069718  1
  Si  Si8  1  0.34694201  0.78303854  0.39073374  1
  Si  Si9  1  0.34698833  0.10746938  0.39063903  1
  Si  Si10  1  0.95607488  0.89253366  0.60930359  1
  Si  Si11  1  0.65305438  0.21695954  0.60926220  1
  Si  Si12  1  0.21697630  0.95612000  0.10921481  1
  Si  Si13  1  0.89254011  0.95607856  0.10930671  1
  Si  Si14  1  0.65300823  0.89253002  0.60935766  1
  Si  Si15  1  0.95611542  0.21696987  0.60921091  1
  O  O0  1  0.73908477  0.20664606  0.91324037  1
  O  O1  1  0.34785283  0.94860435  0.39739526  1
  O  O2  1  0.04979328  0.94860144  0.39743944  1
  O  O3  1  0.65214946  0.05139446  0.60260258  1
  O  O4  1  0.05140116  0.95020865  0.10256037  1
  O  O5  1  0.79334898  0.82616580  0.58695903  1
  O  O6  1  0.94860119  0.04979280  0.89743950  1
  O  O7  1  0.22098910  0.49999052  -0.00008095  1
  O  O8  1  0.49998395  0.22098557  0.49991796  1
  O  O9  1  0.91914815  0.66887472  0.25009816  1
  O  O10  1  0.79335593  0.26092138  0.58676812  1
  O  O11  1  0.95020320  0.05139674  0.60255871  1
  O  O12  1  0.94860203  0.34785261  0.89739465  1
  O  O13  1  0.05139819  0.65214907  0.10260724  1
  O  O14  1  0.33112581  0.08084294  0.24990130  1
  O  O15  1  0.08084340  0.33111758  0.74989884  1
  O  O16  1  0.00006365  0.22094890  0.49991107  1
  O  O17  1  0.26091992  0.79335723  0.08676259  1
  O  O18  1  0.66895986  0.33102613  0.74999852  1
  O  O19  1  0.99993875  0.77904655  0.50008808  1
  O  O20  1  0.20664175  0.73907782  0.41322986  1
  O  O21  1  0.82616525  0.79335320  0.08695647  1
  O  O22  1  0.33104155  0.66896729  0.24999961  1
  O  O23  1  0.08087712  0.91912714  0.75000066  1
  O  O24  1  0.17383524  0.20665041  0.91304522  1
  O  O25  1  0.77904816  0.99993665  0.00009036  1
  O  O26  1  0.91912358  0.08087692  0.25000035  1
  O  O27  1  0.66887608  0.91916202  0.75009931  1
  O  O28  1  0.20665185  0.17383303  0.41304488  1
  O  O29  1  0.22095575  0.00006362  -0.00008622  1
  O  O30  1  0.50001058  0.77901212  0.50007991  1
  O  O31  1  0.77901123  0.50001948  0.00008038  1
loop_
_geom_bond_atom_site_label_1
_geom_bond_atom_site_label_2
_geom_bond_distance
_geom_bond_site_symmetry_2
O0 Si3 1.618434 1_555
O0 Si5 1.618543 1_555
O1 Si8 1.612698 1_555
O1 Si9 1.612778 1_565
O2 Si0 1.612690 1_565
O2 Si2 1.612849 1_555
O3 Si11 1.612700 1_555
O3 Si14 1.612767 1_545
O4 Si13 1.612688 1_455
O4 Si12 1.612828 1_555
O5 Si14 1.618378 1_555
O5 Si10 1.618400 1_555
O6 Si7 1.612691 1_655
O6 Si5 1.612850 1_555
O7 Si4 1.609792 1_555
O7 Si6 1.609850 1_554
O8 Si9 1.609795 1_555
O8 Si11 1.609809 1_555
O9 Si2 1.621077 1_655
O9 Si1 1.621241 1_555
O10 Si11 1.618434 1_555
O10 Si15 1.618542 1_555
O11 Si10 1.612709 1_545
O11 Si15 1.612826 1_555
O12 Si3 1.612715 1_555
O12 Si6 1.612785 1_655
O13 Si4 1.612728 1_555
O13 Si1 1.612786 1_455
O14 Si12 1.621045 1_545
O14 Si9 1.621215 1_555
O15 Si15 1.621066 1_455
O15 Si6 1.621236 1_555
O16 Si0 1.609764 1_555
O16 Si15 1.609814 1_455
O17 Si4 1.618428 1_555
O17 Si12 1.618537 1_555
O18 Si11 1.621264 1_555
O18 Si3 1.621285 1_555
O19 Si10 1.609776 1_555
O19 Si2 1.609814 1_655
O20 Si8 1.618435 1_555
O20 Si2 1.618541 1_555
O21 Si1 1.618381 1_555
O21 Si13 1.618397 1_555
O22 Si8 1.621272 1_555
O22 Si4 1.621288 1_555
O23 Si7 1.621067 1_565
O23 Si10 1.621079 1_455
O24 Si6 1.618388 1_555
O24 Si7 1.618412 1_555
O25 Si13 1.609771 1_555
O25 Si5 1.609807 1_564
O26 Si13 1.621060 1_545
O26 Si0 1.621069 1_655
O27 Si5 1.621058 1_565
O27 Si14 1.621231 1_555
O28 Si9 1.618369 1_555
O28 Si0 1.618393 1_555
O29 Si7 1.609777 1_554
O29 Si12 1.609805 1_545
O30 Si14 1.609810 1_555
O30 Si8 1.609811 1_555
O31 Si1 1.609817 1_555
O31 Si3 1.609820 1_554
