# generated using pymatgen
data_Ca2Nb2O7
_symmetry_space_group_name_H-M   'P 1'
_cell_length_a   5.55154000
_cell_length_b   7.77549700
_cell_length_c   27.00026500
_cell_angle_alpha   90.00000000
_cell_angle_beta   90.00000000
_cell_angle_gamma   90.00000000
_symmetry_Int_Tables_number   1
_chemical_formula_structural   Ca2Nb2O7
_chemical_formula_sum   'Ca16 Nb16 O56'
_cell_volume   1165.49296960
_cell_formula_units_Z   8
loop_
 _symmetry_equiv_pos_site_id
 _symmetry_equiv_pos_as_xyz
  1  'x, y, z'
loop_
 _atom_site_type_symbol
 _atom_site_label
 _atom_site_symmetry_multiplicity
 _atom_site_fract_x
 _atom_site_fract_y
 _atom_site_fract_z
 _atom_site_occupancy
  Ca  Ca0  1  0.24592500  0.12467100  0.79269400  1
  Ca  Ca1  1  0.26266600  0.62390400  0.81204700  1
  Ca  Ca2  1  0.26266600  0.87609600  0.31204700  1
  Ca  Ca3  1  0.24592500  0.37532900  0.29269400  1
  Ca  Ca4  1  0.23979100  0.38335500  0.04971700  1
  Ca  Ca5  1  0.76266600  0.37609600  0.18795300  1
  Ca  Ca6  1  0.76266600  0.12390400  0.68795300  1
  Ca  Ca7  1  0.66781100  0.37617300  0.46726400  1
  Ca  Ca8  1  0.66781100  0.12382700  0.96726400  1
  Ca  Ca9  1  0.74592500  0.87532900  0.20730600  1
  Ca  Ca10  1  0.74592500  0.62467100  0.70730600  1
  Ca  Ca11  1  0.23979100  0.11664500  0.54971700  1
  Ca  Ca12  1  0.73979100  0.61664500  0.95028300  1
  Ca  Ca13  1  0.73979100  0.88335500  0.45028300  1
  Ca  Ca14  1  0.16781100  0.62382700  0.53273600  1
  Ca  Ca15  1  0.16781100  0.87617300  0.03273600  1
  Nb  Nb0  1  0.22993900  0.87857200  0.91138300  1
  Nb  Nb1  1  0.24936400  0.62121100  0.19093000  1
  Nb  Nb2  1  0.72588400  0.86947200  0.58710500  1
  Nb  Nb3  1  0.24936400  0.87878900  0.69093000  1
  Nb  Nb4  1  0.74936400  0.37878900  0.80907000  1
  Nb  Nb5  1  0.74936400  0.12121100  0.30907000  1
  Nb  Nb6  1  0.22993900  0.62142800  0.41138300  1
  Nb  Nb7  1  0.24781500  0.12859100  0.19232800  1
  Nb  Nb8  1  0.74781500  0.62859100  0.30767200  1
  Nb  Nb9  1  0.72993900  0.12142800  0.08861700  1
  Nb  Nb10  1  0.74781500  0.87140900  0.80767200  1
  Nb  Nb11  1  0.24781500  0.37140900  0.69232800  1
  Nb  Nb12  1  0.72993900  0.37857200  0.58861700  1
  Nb  Nb13  1  0.22588400  0.13052800  0.41289500  1
  Nb  Nb14  1  0.72588400  0.63052800  0.08710500  1
  Nb  Nb15  1  0.22588400  0.36947200  0.91289500  1
  O  O0  1  0.83453400  0.62507300  0.59655800  1
  O  O1  1  0.85506300  0.87508300  0.29308800  1
  O  O2  1  0.57338300  0.65329600  0.16063500  1
  O  O3  1  0.98073900  0.57827400  0.23923000  1
  O  O4  1  0.35506300  0.37508300  0.20691200  1
  O  O5  1  0.07097400  0.90391200  0.84023900  1
  O  O6  1  0.98031800  0.17194500  0.23970100  1
  O  O7  1  0.35506300  0.12491700  0.70691200  1
  O  O8  1  0.85506300  0.62491700  0.79308800  1
  O  O9  1  0.05712100  0.31434400  0.63780200  1
  O  O10  1  0.06031100  0.93642700  0.63608000  1
  O  O11  1  0.45306600  0.65401400  0.46326500  1
  O  O12  1  0.43171800  0.10211800  0.46920500  1
  O  O13  1  0.06031100  0.56357300  0.13608000  1
  O  O14  1  0.95306600  0.34598600  0.53673500  1
  O  O15  1  0.33453400  0.12507300  0.90344200  1
  O  O16  1  0.48031800  0.67194500  0.26029900  1
  O  O17  1  0.48031800  0.82805500  0.76029900  1
  O  O18  1  0.57097400  0.40391200  0.65976100  1
  O  O19  1  0.07338300  0.34670400  0.83936500  1
  O  O20  1  0.83453400  0.87492700  0.09655800  1
  O  O21  1  0.98073900  0.92172600  0.73923000  1
  O  O22  1  0.95306600  0.15401400  0.03673500  1
  O  O23  1  0.57097400  0.09608800  0.15976100  1
  O  O24  1  0.68148400  0.12530800  0.80538200  1
  O  O25  1  0.56031100  0.06357300  0.36392000  1
  O  O26  1  0.46124400  0.40390600  0.54720500  1
  O  O27  1  0.18148400  0.87469200  0.19461800  1
  O  O28  1  0.45306600  0.84598600  0.96326500  1
  O  O29  1  0.48073900  0.42172600  0.76077000  1
  O  O30  1  0.43461200  0.83850600  0.55664900  1
  O  O31  1  0.07097400  0.59608800  0.34023900  1
  O  O32  1  0.48073900  0.07827400  0.26077000  1
  O  O33  1  0.46124400  0.09609400  0.04720500  1
  O  O34  1  0.66113600  0.12400800  0.59874200  1
  O  O35  1  0.96124400  0.90390600  0.95279500  1
  O  O36  1  0.93461200  0.16149400  0.44335100  1
  O  O37  1  0.43461200  0.66149400  0.05664900  1
  O  O38  1  0.93461200  0.33850600  0.94335100  1
  O  O39  1  0.68148400  0.37469200  0.30538200  1
  O  O40  1  0.18148400  0.62530800  0.69461800  1
  O  O41  1  0.07338300  0.15329600  0.33936500  1
  O  O42  1  0.55712100  0.68565600  0.36219800  1
  O  O43  1  0.57338300  0.84670400  0.66063500  1
  O  O44  1  0.66113600  0.37599200  0.09874200  1
  O  O45  1  0.98031800  0.32805500  0.73970100  1
  O  O46  1  0.93171800  0.60211800  0.03079500  1
  O  O47  1  0.55712100  0.81434400  0.86219800  1
  O  O48  1  0.56031100  0.43642700  0.86392000  1
  O  O49  1  0.96124400  0.59609400  0.45279500  1
  O  O50  1  0.16113600  0.62400800  0.90125800  1
  O  O51  1  0.16113600  0.87599200  0.40125800  1
  O  O52  1  0.33453400  0.37492700  0.40344200  1
  O  O53  1  0.05712100  0.18565600  0.13780200  1
  O  O54  1  0.93171800  0.89788200  0.53079500  1
  O  O55  1  0.43171800  0.39788200  0.96920500  1
loop_
_geom_bond_atom_site_label_1
_geom_bond_atom_site_label_2
_geom_bond_distance
_geom_bond_site_symmetry_2
Ca0 O19 2.342213 1_555
Ca0 O5 2.353229 1_545
Ca0 O7 2.394074 1_555
Ca0 O24 2.442176 1_555
Ca0 O45 2.592751 1_455
Ca0 O21 2.596389 1_445
Ca0 O29 2.788769 1_555
Ca0 O17 2.788812 1_545
Ca1 O8 2.320016 1_455
Ca1 O29 2.419455 1_555
Ca1 O17 2.435560 1_555
Ca1 O50 2.473790 1_555
Ca1 O19 2.508757 1_555
Ca1 O5 2.540100 1_555
Ca1 O47 2.588127 1_555
Ca1 O48 2.610937 1_555
Ca2 O1 2.320016 1_455
Ca2 O32 2.419455 1_565
Ca2 O16 2.435560 1_555
Ca2 O51 2.473790 1_555
Ca2 O41 2.508757 1_565
Ca2 O31 2.540100 1_555
Ca2 O42 2.588127 1_555
Ca2 O25 2.610937 1_565
Ca3 O41 2.342213 1_555
Ca3 O31 2.353229 1_555
Ca3 O4 2.394074 1_555
Ca3 O39 2.442176 1_555
Ca3 O6 2.592751 1_455
Ca3 O3 2.596389 1_455
Ca3 O32 2.788769 1_555
Ca3 O16 2.788812 1_555
Ca4 O22 2.415890 1_455
Ca4 O55 2.423558 1_554
Ca4 O37 2.425270 1_555
Ca4 O46 2.465653 1_455
Ca4 O33 2.550489 1_555
Ca4 O44 2.688286 1_555
Ca4 O13 2.897205 1_555
Ca4 O53 3.007957 1_555
Ca5 O4 2.320016 1_555
Ca5 O3 2.419455 1_555
Ca5 O6 2.435560 1_555
Ca5 O44 2.473790 1_555
Ca5 O2 2.508757 1_555
Ca5 O23 2.540100 1_555
Ca5 O53 2.588127 1_655
Ca5 O13 2.610937 1_655
Ca6 O7 2.320016 1_555
Ca6 O21 2.419455 1_545
Ca6 O45 2.435560 1_555
Ca6 O34 2.473790 1_555
Ca6 O43 2.508757 1_545
Ca6 O18 2.540100 1_555
Ca6 O9 2.588127 1_655
Ca6 O10 2.610937 1_645
Ca7 O36 2.323154 1_555
Ca7 O49 2.393817 1_555
Ca7 O26 2.453647 1_555
Ca7 O14 2.466025 1_555
Ca7 O11 2.469825 1_555
Ca7 O12 2.502283 1_555
Ca7 O52 2.528397 1_555
Ca8 O38 2.323154 1_555
Ca8 O35 2.393817 1_545
Ca8 O33 2.453647 1_556
Ca8 O22 2.466025 1_556
Ca8 O28 2.469825 1_545
Ca8 O55 2.502283 1_555
Ca8 O15 2.528397 1_555
Ca9 O2 2.342213 1_555
Ca9 O23 2.353229 1_565
Ca9 O1 2.394074 1_555
Ca9 O27 2.442176 1_655
Ca9 O16 2.592751 1_555
Ca9 O32 2.596389 1_565
Ca9 O3 2.788769 1_555
Ca9 O6 2.788812 1_565
Ca10 O43 2.342213 1_555
Ca10 O18 2.353229 1_555
Ca10 O8 2.394074 1_555
Ca10 O40 2.442176 1_655
Ca10 O17 2.592751 1_555
Ca10 O29 2.596389 1_555
Ca10 O21 2.788769 1_555
Ca10 O45 2.788812 1_555
Ca11 O14 2.415890 1_455
Ca11 O12 2.423558 1_555
Ca11 O30 2.425270 1_545
Ca11 O54 2.465653 1_445
Ca11 O26 2.550489 1_555
Ca11 O34 2.688286 1_555
Ca11 O10 2.897205 1_545
Ca11 O9 3.007957 1_555
Ca12 O28 2.415890 1_555
Ca12 O46 2.423558 1_556
Ca12 O38 2.425270 1_555
Ca12 O55 2.465653 1_555
Ca12 O35 2.550489 1_555
Ca12 O50 2.688286 1_655
Ca12 O48 2.897205 1_555
Ca12 O47 3.007957 1_555
Ca13 O11 2.415890 1_555
Ca13 O54 2.423558 1_555
Ca13 O36 2.425270 1_565
Ca13 O12 2.465653 1_565
Ca13 O49 2.550489 1_555
Ca13 O51 2.688286 1_655
Ca13 O25 2.897205 1_565
Ca13 O42 3.007957 1_555
Ca14 O30 2.323154 1_555
Ca14 O26 2.393817 1_555
Ca14 O49 2.453647 1_455
Ca14 O11 2.466025 1_555
Ca14 O14 2.469825 1_455
Ca14 O54 2.502283 1_455
Ca14 O0 2.528397 1_455
Ca15 O37 2.323154 1_555
Ca15 O33 2.393817 1_565
Ca15 O35 2.453647 1_454
Ca15 O28 2.466025 1_554
Ca15 O22 2.469825 1_465
Ca15 O46 2.502283 1_455
Ca15 O20 2.528397 1_455
Nb0 O35 1.874596 1_455
Nb0 O28 1.887032 1_555
Nb0 O15 2.014139 1_565
Nb0 O50 2.034331 1_555
Nb0 O5 2.123090 1_555
Nb0 O47 2.304819 1_555
Nb1 O13 1.869661 1_555
Nb1 O2 1.991737 1_555
Nb1 O3 2.009003 1_455
Nb1 O27 2.009112 1_555
Nb1 O4 2.047691 1_555
Nb1 O16 2.303820 1_555
Nb2 O30 1.830000 1_555
Nb2 O54 1.914712 1_555
Nb2 O0 2.010023 1_555
Nb2 O34 2.035912 1_565
Nb2 O43 2.165556 1_555
Nb2 O10 2.338059 1_655
Nb3 O10 1.869661 1_555
Nb3 O43 1.991737 1_555
Nb3 O21 2.009003 1_455
Nb3 O40 2.009112 1_555
Nb3 O7 2.047691 1_565
Nb3 O17 2.303820 1_555
Nb4 O48 1.869661 1_555
Nb4 O19 1.991737 1_655
Nb4 O29 2.009003 1_555
Nb4 O24 2.009112 1_555
Nb4 O8 2.047691 1_555
Nb4 O45 2.303820 1_555
Nb5 O25 1.869661 1_555
Nb5 O41 1.991737 1_655
Nb5 O32 2.009003 1_555
Nb5 O39 2.009112 1_555
Nb5 O1 2.047691 1_545
Nb5 O6 2.303820 1_555
Nb6 O49 1.874596 1_455
Nb6 O11 1.887032 1_555
Nb6 O52 2.014139 1_555
Nb6 O51 2.034331 1_555
Nb6 O31 2.123090 1_555
Nb6 O42 2.304819 1_555
Nb7 O53 1.866823 1_555
Nb7 O6 1.988712 1_455
Nb7 O27 2.009192 1_545
Nb7 O23 2.013856 1_555
Nb7 O4 2.045213 1_555
Nb7 O32 2.289120 1_555
Nb8 O42 1.866823 1_555
Nb8 O16 1.988712 1_555
Nb8 O39 2.009192 1_555
Nb8 O31 2.013856 1_655
Nb8 O1 2.045213 1_555
Nb8 O3 2.289120 1_555
Nb9 O33 1.874596 1_555
Nb9 O22 1.887032 1_555
Nb9 O20 2.014139 1_545
Nb9 O44 2.034331 1_555
Nb9 O23 2.123090 1_555
Nb9 O53 2.304819 1_655
Nb10 O47 1.866823 1_555
Nb10 O17 1.988712 1_555
Nb10 O24 2.009192 1_565
Nb10 O5 2.013856 1_655
Nb10 O8 2.045213 1_555
Nb10 O21 2.289120 1_555
Nb11 O9 1.866823 1_555
Nb11 O45 1.988712 1_455
Nb11 O40 2.009192 1_555
Nb11 O18 2.013856 1_555
Nb11 O7 2.045213 1_555
Nb11 O29 2.289120 1_555
Nb12 O26 1.874596 1_555
Nb12 O14 1.887032 1_555
Nb12 O0 2.014139 1_555
Nb12 O34 2.034331 1_555
Nb12 O18 2.123090 1_555
Nb12 O9 2.304819 1_655
Nb13 O36 1.830000 1_455
Nb13 O12 1.914712 1_555
Nb13 O52 2.010023 1_555
Nb13 O51 2.035912 1_545
Nb13 O41 2.165556 1_555
Nb13 O25 2.338059 1_555
Nb14 O37 1.830000 1_555
Nb14 O46 1.914712 1_555
Nb14 O20 2.010023 1_555
Nb14 O44 2.035912 1_555
Nb14 O2 2.165556 1_555
Nb14 O13 2.338059 1_655
Nb15 O38 1.830000 1_455
Nb15 O55 1.914712 1_555
Nb15 O15 2.010023 1_555
Nb15 O50 2.035912 1_555
Nb15 O19 2.165556 1_555
Nb15 O48 2.338059 1_555
