# generated using pymatgen
data_Pr3CuSnS7
_symmetry_space_group_name_H-M   'P 1'
_cell_length_a   10.22764441
_cell_length_b   10.22764441
_cell_length_c   6.14173100
_cell_angle_alpha   90.00000000
_cell_angle_beta   90.00000000
_cell_angle_gamma   120.00000266
_symmetry_Int_Tables_number   1
_chemical_formula_structural   Pr3CuSnS7
_chemical_formula_sum   'Pr6 Cu2 Sn2 S14'
_cell_volume   556.38146242
_cell_formula_units_Z   2
loop_
 _symmetry_equiv_pos_site_id
 _symmetry_equiv_pos_as_xyz
  1  'x, y, z'
loop_
 _atom_site_type_symbol
 _atom_site_label
 _atom_site_symmetry_multiplicity
 _atom_site_fract_x
 _atom_site_fract_y
 _atom_site_fract_z
 _atom_site_occupancy
  Pr  Pr0  1  0.78192400  0.64262200  0.26481900  1
  Pr  Pr1  1  0.86069800  0.21807600  0.26481900  1
  Pr  Pr2  1  0.13930200  0.78192400  0.76481900  1
  Pr  Pr3  1  0.35737800  0.13930200  0.26481900  1
  Pr  Pr4  1  0.64262200  0.86069800  0.76481900  1
  Pr  Pr5  1  0.21807600  0.35737800  0.76481900  1
  Cu  Cu0  1  0.00000000  0.00000000  0.71051700  1
  Cu  Cu1  1  0.00000000  0.00000000  0.21051700  1
  Sn  Sn0  1  0.66666700  0.33333300  0.83660000  1
  Sn  Sn1  1  0.33333300  0.66666700  0.33660000  1
  S  S0  1  0.10114600  0.84752700  0.22520300  1
  S  S1  1  0.57082100  0.08833700  0.00669500  1
  S  S2  1  0.48248500  0.57082100  0.50669500  1
  S  S3  1  0.66666700  0.33333300  0.44893400  1
  S  S4  1  0.84752700  0.74638100  0.72520300  1
  S  S5  1  0.91166300  0.48248500  0.00669500  1
  S  S6  1  0.25361900  0.10114600  0.72520300  1
  S  S7  1  0.74638100  0.89885400  0.22520300  1
  S  S8  1  0.89885400  0.15247300  0.72520300  1
  S  S9  1  0.33333300  0.66666700  0.94893400  1
  S  S10  1  0.15247300  0.25361900  0.22520300  1
  S  S11  1  0.08833700  0.51751500  0.50669500  1
  S  S12  1  0.42917900  0.91166300  0.50669500  1
  S  S13  1  0.51751500  0.42917900  0.00669500  1
loop_
_geom_bond_atom_site_label_1
_geom_bond_atom_site_label_2
_geom_bond_distance
_geom_bond_site_symmetry_2
Pr0 S7 2.830515 1_555
Pr0 S0 2.875487 1_655
Pr0 S13 2.947622 1_555
Pr0 S4 2.976473 1_555
Pr0 S3 2.990952 1_555
Pr0 S5 3.021545 1_555
Pr0 S2 3.142665 1_555
Pr0 S4 3.442106 1_554
Pr1 S10 2.830515 1_655
Pr1 S7 2.875487 1_545
Pr1 S5 2.947625 1_555
Pr1 S8 2.976473 1_555
Pr1 S3 2.990944 1_555
Pr1 S1 3.021552 1_555
Pr1 S11 3.142667 1_655
Pr1 S8 3.442106 1_554
Pr2 S4 2.830515 1_455
Pr2 S6 2.875487 1_565
Pr2 S11 2.947625 1_555
Pr2 S0 2.976473 1_556
Pr2 S9 2.990944 1_555
Pr2 S12 3.021552 1_555
Pr2 S5 3.142667 1_456
Pr2 S0 3.442106 1_555
Pr3 S0 2.830515 1_545
Pr3 S10 2.875487 1_555
Pr3 S1 2.947617 1_555
Pr3 S6 2.976473 1_555
Pr3 S3 2.990951 1_555
Pr3 S13 3.021552 1_555
Pr3 S12 3.142674 1_545
Pr3 S6 3.442106 1_554
Pr4 S8 2.830515 1_565
Pr4 S4 2.875487 1_555
Pr4 S12 2.947617 1_555
Pr4 S7 2.976473 1_556
Pr4 S9 2.990951 1_555
Pr4 S2 3.021552 1_555
Pr4 S1 3.142674 1_566
Pr4 S7 3.442106 1_555
Pr5 S6 2.830515 1_555
Pr5 S8 2.875487 1_455
Pr5 S2 2.947622 1_555
Pr5 S10 2.976473 1_556
Pr5 S9 2.990952 1_555
Pr5 S11 3.021545 1_555
Pr5 S13 3.142665 1_556
Pr5 S10 3.442106 1_555
Cu0 S4 2.263485 1_445
Cu0 S6 2.263485 1_555
Cu0 S8 2.263485 1_455
Cu0 Pr5 3.208351 1_555
Cu0 Pr4 3.208351 1_445
Cu0 Pr2 3.208351 1_545
Cu1 S10 2.263485 1_555
Cu1 S7 2.263485 1_445
Cu1 S0 2.263485 1_545
Cu1 Pr0 3.208351 1_445
Cu1 Pr3 3.208351 1_555
Cu1 Pr1 3.208351 1_455
S1 Sn0 2.423773 1_554
S2 Sn1 2.423790 1_555
S3 Sn0 2.380940 1_555
S5 Sn0 2.423775 1_554
S9 Sn1 2.380940 1_556
S11 Sn1 2.423775 1_555
S12 Sn1 2.423773 1_555
S13 Sn0 2.423790 1_554
