# generated using pymatgen
data_V2P2O9
_symmetry_space_group_name_H-M   'P 1'
_cell_length_a   7.63172000
_cell_length_b   9.74528200
_cell_length_c   16.98002200
_cell_angle_alpha   90.00000000
_cell_angle_beta   90.00000000
_cell_angle_gamma   90.00000000
_symmetry_Int_Tables_number   1
_chemical_formula_structural   V2P2O9
_chemical_formula_sum   'V16 P16 O72'
_cell_volume   1262.85965121
_cell_formula_units_Z   8
loop_
 _symmetry_equiv_pos_site_id
 _symmetry_equiv_pos_as_xyz
  1  'x, y, z'
loop_
 _atom_site_type_symbol
 _atom_site_label
 _atom_site_symmetry_multiplicity
 _atom_site_fract_x
 _atom_site_fract_y
 _atom_site_fract_z
 _atom_site_occupancy
  V  V0  1  0.71441400  0.49915700  0.42860600  1
  V  V1  1  0.71242800  0.99374400  0.67820000  1
  V  V2  1  0.21592500  0.50105000  0.11993300  1
  V  V3  1  0.21534100  0.99895400  0.37034200  1
  V  V4  1  0.71592500  0.49895000  0.11993300  1
  V  V5  1  0.28465900  0.99895400  0.87034200  1
  V  V6  1  0.28407500  0.50105000  0.61993300  1
  V  V7  1  0.78558600  0.49915700  0.92860600  1
  V  V8  1  0.78465900  0.00104600  0.87034200  1
  V  V9  1  0.21441400  0.50084300  0.42860600  1
  V  V10  1  0.78757200  0.99374400  0.17820000  1
  V  V11  1  0.28558600  0.50084300  0.92860600  1
  V  V12  1  0.71534100  0.00104600  0.37034200  1
  V  V13  1  0.21242800  0.00625600  0.67820000  1
  V  V14  1  0.78407500  0.49895000  0.61993300  1
  V  V15  1  0.28757200  0.00625600  0.17820000  1
  P  P0  1  0.30477200  0.79371100  0.01973100  1
  P  P1  1  0.29240800  0.70724200  0.27470200  1
  P  P2  1  0.20054700  0.29833200  0.27409300  1
  P  P3  1  0.20759200  0.70724200  0.77470200  1
  P  P4  1  0.20426000  0.20994600  0.01889700  1
  P  P5  1  0.80477200  0.20628900  0.01973100  1
  P  P6  1  0.70426000  0.79005400  0.01889700  1
  P  P7  1  0.29945300  0.29833200  0.77409300  1
  P  P8  1  0.79574000  0.79005400  0.51889700  1
  P  P9  1  0.29574000  0.20994600  0.51889700  1
  P  P10  1  0.79240800  0.29275800  0.27470200  1
  P  P11  1  0.79945300  0.70166800  0.77409300  1
  P  P12  1  0.19522800  0.79371100  0.51973100  1
  P  P13  1  0.70759200  0.29275800  0.77470200  1
  P  P14  1  0.69522800  0.20628900  0.51973100  1
  P  P15  1  0.70054700  0.70166800  0.27409300  1
  O  O0  1  0.00213300  0.51542200  0.61549800  1
  O  O1  1  0.99573100  0.78979700  0.49253200  1
  O  O2  1  0.28905200  0.85711700  0.10026300  1
  O  O3  1  0.00370000  0.51226300  0.93239900  1
  O  O4  1  0.28913200  0.86837900  0.45363900  1
  O  O5  1  0.22493300  0.86762900  0.77402100  1
  O  O6  1  0.72668800  0.63949000  0.84894400  1
  O  O7  1  0.49573100  0.21020300  0.49253200  1
  O  O8  1  0.72754100  0.86116600  0.27408000  1
  O  O9  1  0.25188000  0.63897900  0.52343600  1
  O  O10  1  0.49646600  0.97119200  0.68275900  1
  O  O11  1  0.78275400  0.35340600  0.70033300  1
  O  O12  1  0.21840900  0.65164000  0.35072500  1
  O  O13  1  0.77317700  0.64050900  0.19894400  1
  O  O14  1  0.49597100  0.67272900  0.27433400  1
  O  O15  1  0.71724600  0.35340600  0.20033300  1
  O  O16  1  0.28198900  0.14185200  0.59837100  1
  O  O17  1  0.49786700  0.51542200  0.11549800  1
  O  O18  1  0.78905200  0.14288300  0.10026300  1
  O  O19  1  0.22754100  0.13883400  0.27408000  1
  O  O20  1  0.21086800  0.86837900  0.95363900  1
  O  O21  1  0.21724600  0.64659400  0.20033300  1
  O  O22  1  0.30272200  0.14377300  0.95168700  1
  O  O23  1  0.28275400  0.64659400  0.70033300  1
  O  O24  1  0.21801100  0.14185200  0.09837100  1
  O  O25  1  0.71094800  0.14288300  0.60026300  1
  O  O26  1  0.49980000  0.02816100  0.36458900  1
  O  O27  1  0.00426900  0.21020300  0.99253200  1
  O  O28  1  0.77245900  0.86116600  0.77408000  1
  O  O29  1  0.50370000  0.48773700  0.93239900  1
  O  O30  1  0.99980000  0.97183900  0.36458900  1
  O  O31  1  0.25534700  0.36535900  0.02476100  1
  O  O32  1  0.99646600  0.02880800  0.68275900  1
  O  O33  1  0.78913200  0.13162100  0.45363900  1
  O  O34  1  0.72493300  0.13237100  0.77402100  1
  O  O35  1  0.28159100  0.65164000  0.85072500  1
  O  O36  1  0.49630000  0.51226300  0.43239900  1
  O  O37  1  0.74465300  0.63464100  0.52476100  1
  O  O38  1  0.80272200  0.85622700  0.95168700  1
  O  O39  1  0.00353400  0.97119200  0.18275900  1
  O  O40  1  0.27331200  0.36051000  0.34894400  1
  O  O41  1  0.50402900  0.32727100  0.77433400  1
  O  O42  1  0.19727800  0.14377300  0.45168700  1
  O  O43  1  0.50353400  0.02880800  0.18275900  1
  O  O44  1  0.50426900  0.78979700  0.99253200  1
  O  O45  1  0.24465300  0.36535900  0.52476100  1
  O  O46  1  0.71086800  0.13162100  0.95363900  1
  O  O47  1  0.50213300  0.48457800  0.61549800  1
  O  O48  1  0.78198900  0.85814800  0.59837100  1
  O  O49  1  0.77331200  0.63949000  0.34894400  1
  O  O50  1  0.27506700  0.86762900  0.27402100  1
  O  O51  1  0.22668800  0.36051000  0.84894400  1
  O  O52  1  0.27245900  0.13883400  0.77408000  1
  O  O53  1  0.22682300  0.35949100  0.69894400  1
  O  O54  1  0.27317700  0.35949100  0.19894400  1
  O  O55  1  0.99597100  0.32727100  0.27433400  1
  O  O56  1  0.00402900  0.67272900  0.77433400  1
  O  O57  1  0.71801100  0.85814800  0.09837100  1
  O  O58  1  0.71840900  0.34836000  0.35072500  1
  O  O59  1  0.99786700  0.48457800  0.11549800  1
  O  O60  1  0.72682300  0.64050900  0.69894400  1
  O  O61  1  0.75188000  0.36102100  0.52343600  1
  O  O62  1  0.78159100  0.34836000  0.85072500  1
  O  O63  1  0.50020000  0.97183900  0.86458900  1
  O  O64  1  0.69727800  0.85622700  0.45168700  1
  O  O65  1  0.74812000  0.36102100  0.02343600  1
  O  O66  1  0.99630000  0.48773700  0.43239900  1
  O  O67  1  0.24812000  0.63897900  0.02343600  1
  O  O68  1  0.77506700  0.13237100  0.27402100  1
  O  O69  1  0.75534700  0.63464100  0.02476100  1
  O  O70  1  0.21094800  0.85711700  0.60026300  1
  O  O71  1  0.00020000  0.02816100  0.86458900  1
loop_
_geom_bond_atom_site_label_1
_geom_bond_atom_site_label_2
_geom_bond_distance
_geom_bond_site_symmetry_2
O0 V14 1.673577 1_455
O0 V6 2.157571 1_555
O1 P8 1.590578 1_555
O1 P12 1.591469 1_655
O2 P0 1.505352 1_555
O2 V15 1.965659 1_565
O3 V7 1.670720 1_455
O3 V11 2.155114 1_555
O4 P12 1.517401 1_555
O4 V3 1.984151 1_555
O5 P3 1.568652 1_555
O5 V13 2.116947 1_565
O5 V5 2.126174 1_555
O6 P11 1.513578 1_555
O6 V7 1.975355 1_555
O7 P9 1.590578 1_555
O7 P14 1.591469 1_555
O8 P15 1.567946 1_555
O8 V10 2.128312 1_555
O8 V12 2.130397 1_565
O9 P12 1.569927 1_555
O9 V9 2.118191 1_555
O9 V6 2.133513 1_555
O10 V1 1.664551 1_555
O10 V13 2.195831 1_565
O11 P13 1.507642 1_555
O11 V14 1.968660 1_555
O12 P1 1.509600 1_555
O12 V9 1.977203 1_555
O13 P15 1.513515 1_555
O13 V4 1.973305 1_555
O14 P15 1.586539 1_555
O14 P1 1.589540 1_555
O15 P10 1.507642 1_555
O15 V4 1.968660 1_555
O16 P9 1.507462 1_555
O16 V13 1.966050 1_555
O17 V4 1.673577 1_555
O17 V2 2.157571 1_555
O18 P5 1.505352 1_555
O18 V10 1.965659 1_545
O19 P2 1.567946 1_555
O19 V15 2.128312 1_555
O19 V3 2.130397 1_545
O20 P0 1.517401 1_556
O20 V5 1.984151 1_555
O21 P1 1.507642 1_555
O21 V2 1.968660 1_555
O22 P4 1.510932 1_556
O22 V5 1.979545 1_545
O23 P3 1.507642 1_555
O23 V6 1.968660 1_555
O24 P4 1.507462 1_555
O24 V15 1.966050 1_555
O25 P14 1.505352 1_555
O25 V1 1.965659 1_545
O26 V12 1.668899 1_555
O26 V3 2.191669 1_545
O27 P4 1.590578 1_556
O27 P5 1.591469 1_456
O28 P11 1.567946 1_555
O28 V1 2.128312 1_555
O28 V8 2.130397 1_565
O29 V11 1.670720 1_555
O29 V7 2.155114 1_555
O30 V3 1.668899 1_655
O30 V12 2.191669 1_565
O31 P4 1.567088 1_555
O31 V2 2.109655 1_555
O31 V11 2.112412 1_554
O32 V13 1.664551 1_655
O32 V1 2.195831 1_545
O33 P14 1.517401 1_555
O33 V12 1.984151 1_555
O34 P13 1.568652 1_555
O34 V1 2.116947 1_545
O34 V8 2.126174 1_555
O35 P3 1.509600 1_555
O35 V11 1.977203 1_555
O36 V0 1.670720 1_555
O36 V9 2.155114 1_555
O37 P8 1.567088 1_555
O37 V14 2.109655 1_555
O37 V0 2.112412 1_555
O38 P6 1.510932 1_556
O38 V8 1.979545 1_565
O39 V10 1.664551 1_455
O39 V15 2.195831 1_565
O40 P2 1.513578 1_555
O40 V9 1.975355 1_555
O41 P7 1.586539 1_555
O41 P13 1.589540 1_555
O42 P9 1.510932 1_555
O42 V3 1.979545 1_545
O43 V15 1.664551 1_555
O43 V10 2.195831 1_545
O44 P6 1.590578 1_556
O44 P0 1.591469 1_556
O45 P9 1.567088 1_555
O45 V6 2.109655 1_555
O45 V9 2.112412 1_555
O46 P5 1.517401 1_556
O46 V8 1.984151 1_555
O47 V6 1.673577 1_555
O47 V14 2.157571 1_555
O48 P8 1.507462 1_555
O48 V1 1.966050 1_555
O49 P15 1.513578 1_555
O49 V0 1.975355 1_555
O50 P1 1.568652 1_555
O50 V15 2.116947 1_565
O50 V3 2.126174 1_555
O51 P7 1.513578 1_555
O51 V11 1.975355 1_555
O52 P7 1.567946 1_555
O52 V13 2.128312 1_555
O52 V5 2.130397 1_545
O53 P7 1.513515 1_555
O53 V6 1.973305 1_555
O54 P2 1.513515 1_555
O54 V2 1.973305 1_555
O55 P2 1.586539 1_655
O55 P10 1.589540 1_555
O56 P11 1.586539 1_455
O56 P3 1.589540 1_555
O57 P6 1.507462 1_555
O57 V10 1.966050 1_555
O58 P10 1.509600 1_555
O58 V0 1.977203 1_555
O59 V2 1.673577 1_655
O59 V4 2.157571 1_555
O60 P11 1.513515 1_555
O60 V14 1.973305 1_555
O61 P14 1.569927 1_555
O61 V0 2.118191 1_555
O61 V14 2.133513 1_555
O62 P13 1.509600 1_555
O62 V7 1.977203 1_555
O63 V5 1.668899 1_555
O63 V8 2.191669 1_565
O64 P8 1.510932 1_555
O64 V12 1.979545 1_565
O65 P5 1.569927 1_555
O65 V7 2.118191 1_554
O65 V4 2.133513 1_555
O66 V9 1.670720 1_655
O66 V0 2.155114 1_555
O67 P0 1.569927 1_555
O67 V11 2.118191 1_554
O67 V2 2.133513 1_555
O68 P10 1.568652 1_555
O68 V10 2.116947 1_545
O68 V12 2.126174 1_555
O69 P6 1.567088 1_555
O69 V4 2.109655 1_555
O69 V7 2.112412 1_554
O70 P12 1.505352 1_555
O70 V13 1.965659 1_565
O71 V8 1.668899 1_455
O71 V5 2.191669 1_545
