# generated using pymatgen
data_CdI2
_symmetry_space_group_name_H-M   'P 1'
_cell_length_a   4.28793268
_cell_length_b   4.28793268
_cell_length_c   87.36332144
_cell_angle_alpha   90.00000000
_cell_angle_beta   90.00000000
_cell_angle_gamma   120.00001544
_symmetry_Int_Tables_number   1
_chemical_formula_structural   CdI2
_chemical_formula_sum   'Cd12 I24'
_cell_volume   1391.09124707
_cell_formula_units_Z   12
loop_
 _symmetry_equiv_pos_site_id
 _symmetry_equiv_pos_as_xyz
  1  'x, y, z'
loop_
 _atom_site_type_symbol
 _atom_site_label
 _atom_site_symmetry_multiplicity
 _atom_site_fract_x
 _atom_site_fract_y
 _atom_site_fract_z
 _atom_site_occupancy
  Cd  Cd0  1  0.33333300  0.66666700  0.68762641  1
  Cd  Cd1  1  0.66666700  0.33333300  0.02104277  1
  Cd  Cd2  1  0.66666700  0.33333300  0.77066521  1
  Cd  Cd3  1  0.33333300  0.66666700  0.27066709  1
  Cd  Cd4  1  0.33333300  0.66666700  0.60400525  1
  Cd  Cd5  1  0.33333300  0.66666700  0.35436777  1
  Cd  Cd6  1  0.33333300  0.66666700  0.10399843  1
  Cd  Cd7  1  0.33333300  0.66666700  0.85429089  1
  Cd  Cd8  1  0.33333300  0.66666700  0.93733711  1
  Cd  Cd9  1  0.33333300  0.66666700  0.43732850  1
  Cd  Cd10  1  0.33333300  0.66666700  0.52104592  1
  Cd  Cd11  1  0.33333300  0.66666700  0.18768180  1
  I  I0  1  -0.00000000  -0.00000000  0.16798480  1
  I  I1  1  0.66666700  0.33333300  0.70730611  1
  I  I2  1  0.33333300  0.66666700  0.79032715  1
  I  I3  1  0.66666700  0.33333300  0.45699154  1
  I  I4  1  0.00000000  0.00000000  0.41765772  1
  I  I5  1  0.66666700  0.33333300  0.12366125  1
  I  I6  1  0.00000000  0.00000000  0.25100832  1
  I  I7  1  0.00000000  0.00000000  0.58433992  1
  I  I8  1  0.00000000  -0.00000000  0.66791511  1
  I  I9  1  0.66666700  0.33333300  0.62366033  1
  I  I10  1  0.66666700  0.33333300  0.20735804  1
  I  I11  1  0.66666700  0.33333300  0.87395005  1
  I  I12  1  0.00000000  0.00000000  0.91767279  1
  I  I13  1  -0.00000000  -0.00000000  0.83460933  1
  I  I14  1  0.33333300  0.66666700  0.04073114  1
  I  I15  1  -0.00000000  -0.00000000  0.50132819  1
  I  I16  1  0.00000000  0.00000000  0.08433930  1
  I  I17  1  0.66666700  0.33333300  0.95699363  1
  I  I18  1  -0.00000000  -0.00000000  0.33466192  1
  I  I19  1  0.66666700  0.33333300  0.29032844  1
  I  I20  1  0.00000000  0.00000000  0.75100750  1
  I  I21  1  0.66666700  0.33333300  0.54073180  1
  I  I22  1  0.66666700  0.33333300  0.37404466  1
  I  I23  1  -0.00000000  -0.00000000  0.00133378  1
loop_
_geom_bond_atom_site_label_1
_geom_bond_atom_site_label_2
_geom_bond_distance
_geom_bond_site_symmetry_2
Cd0 I1 3.014086 1_455
Cd0 I1 3.014086 1_565
Cd0 I1 3.014092 1_555
Cd0 I8 3.015662 1_565
Cd0 I8 3.015664 1_665
Cd0 I8 3.015664 1_555
Cd1 I14 3.014518 1_545
Cd1 I14 3.014518 1_655
Cd1 I14 3.014524 1_555
Cd1 I23 3.015546 1_655
Cd1 I23 3.015549 1_555
Cd1 I23 3.015549 1_665
Cd2 I20 3.012991 1_655
Cd2 I20 3.012993 1_555
Cd2 I20 3.012993 1_665
Cd2 I2 3.013201 1_545
Cd2 I2 3.013201 1_655
Cd2 I2 3.013207 1_555
Cd3 I6 3.013043 1_565
Cd3 I6 3.013046 1_665
Cd3 I6 3.013046 1_555
Cd3 I19 3.013171 1_455
Cd3 I19 3.013171 1_565
Cd3 I19 3.013178 1_555
Cd4 I9 3.012859 1_455
Cd4 I9 3.012859 1_565
Cd4 I9 3.012866 1_555
Cd4 I7 3.013370 1_565
Cd4 I7 3.013373 1_555
Cd4 I7 3.013373 1_665
Cd5 I22 3.013946 1_455
Cd5 I22 3.013946 1_565
Cd5 I22 3.013952 1_555
Cd5 I18 3.015390 1_565
Cd5 I18 3.015392 1_665
Cd5 I18 3.015392 1_555
Cd6 I16 3.013061 1_565
Cd6 I16 3.013064 1_555
Cd6 I16 3.013064 1_665
Cd6 I5 3.013245 1_455
Cd6 I5 3.013245 1_565
Cd6 I5 3.013251 1_555
Cd7 I11 3.013062 1_455
Cd7 I11 3.013062 1_565
Cd7 I11 3.013069 1_555
Cd7 I13 3.014179 1_565
Cd7 I13 3.014181 1_555
Cd7 I13 3.014181 1_665
Cd8 I17 3.012931 1_455
Cd8 I17 3.012931 1_565
Cd8 I17 3.012938 1_555
Cd8 I12 3.013320 1_565
Cd8 I12 3.013322 1_555
Cd8 I12 3.013322 1_665
Cd9 I3 3.013256 1_565
Cd9 I3 3.013256 1_455
Cd9 I3 3.013262 1_555
Cd9 I4 3.013642 1_565
Cd9 I4 3.013644 1_555
Cd9 I4 3.013644 1_665
Cd10 I21 3.014394 1_455
Cd10 I21 3.014394 1_565
Cd10 I21 3.014400 1_555
Cd10 I15 3.015982 1_565
Cd10 I15 3.015985 1_555
Cd10 I15 3.015985 1_665
Cd11 I10 3.013913 1_455
Cd11 I10 3.013913 1_565
Cd11 I10 3.013920 1_555
Cd11 I0 3.014948 1_565
Cd11 I0 3.014951 1_555
Cd11 I0 3.014951 1_665
