# generated using pymatgen
data_Ta32Cu17O96
_symmetry_space_group_name_H-M   'P 1'
_cell_length_a   7.57275330
_cell_length_b   7.58866151
_cell_length_c   30.51388974
_cell_angle_alpha   90.00000000
_cell_angle_beta   90.00000000
_cell_angle_gamma   90.00000000
_symmetry_Int_Tables_number   1
_chemical_formula_structural   Ta32Cu17O96
_chemical_formula_sum   'Ta32 Cu17 O96'
_cell_volume   1753.54357806
_cell_formula_units_Z   1
loop_
 _symmetry_equiv_pos_site_id
 _symmetry_equiv_pos_as_xyz
  1  'x, y, z'
loop_
 _atom_site_type_symbol
 _atom_site_label
 _atom_site_symmetry_multiplicity
 _atom_site_fract_x
 _atom_site_fract_y
 _atom_site_fract_z
 _atom_site_occupancy
  Cu  Cu0  1  0.00000000  0.00000000  0.12496769  1
  Cu  Cu1  1  0.00000000  0.50000000  0.12519642  1
  Cu  Cu2  1  0.00000000  0.00000000  0.37503231  1
  Cu  Cu3  1  0.00000000  0.50000000  0.37480358  1
  Cu  Cu4  1  0.00000000  0.00000000  0.62483334  1
  Cu  Cu5  1  0.00000000  0.50000000  0.62469615  1
  Cu  Cu6  1  0.00000000  0.50000000  0.75000000  1
  Cu  Cu7  1  0.00000000  0.00000000  0.87516666  1
  Cu  Cu8  1  0.00000000  0.50000000  0.87530385  1
  Cu  Cu9  1  0.50000000  0.00000000  0.00065685  1
  Cu  Cu10  1  0.50000000  0.00000000  0.25000000  1
  Cu  Cu11  1  0.50000000  0.00000000  0.49934315  1
  Cu  Cu12  1  0.50000000  0.00000000  0.75000000  1
  Cu  Cu13  1  0.50000000  0.00000000  0.12488545  1
  Cu  Cu14  1  0.50000000  0.00000000  0.37511455  1
  Cu  Cu15  1  0.50000000  0.00000000  0.62385427  1
  Cu  Cu16  1  0.50000000  0.00000000  0.87614573  1
  O  O0  1  0.00000000  0.28697710  0.04751860  1
  O  O1  1  0.00000000  0.71302290  0.04751860  1
  O  O2  1  0.00000000  0.28683963  0.20214275  1
  O  O3  1  0.00000000  0.28683963  0.29785725  1
  O  O4  1  0.00000000  0.71316037  0.29785725  1
  O  O5  1  0.00000000  0.28697710  0.45248140  1
  O  O6  1  0.00000000  0.28760332  0.54832266  1
  O  O7  1  0.00000000  0.71239668  0.54832266  1
  O  O8  1  0.00000000  0.30507962  0.70510802  1
  O  O9  1  0.00000000  0.30507962  0.79489198  1
  O  O10  1  0.00000000  0.69492038  0.70510802  1
  O  O11  1  0.00000000  0.69492038  0.79489198  1
  O  O12  1  0.18818837  0.00000000  0.07898894  1
  O  O13  1  0.18809491  0.00000000  0.32919424  1
  O  O14  1  0.18809491  0.00000000  0.17080576  1
  O  O15  1  0.18850856  0.00000000  0.57956840  1
  O  O16  1  0.18237126  0.00000000  0.67291383  1
  O  O17  1  0.18818837  0.00000000  0.42101106  1
  O  O18  1  0.18237126  0.00000000  0.82708617  1
  O  O19  1  0.18850856  0.00000000  0.92043160  1
  O  O20  1  0.18867309  0.31588829  0.12491499  1
  O  O21  1  0.18867309  0.68411171  0.12491499  1
  O  O22  1  0.18867309  0.68411171  0.37508501  1
  O  O23  1  0.18867309  0.31588829  0.37508501  1
  O  O24  1  0.18830950  0.31290296  0.62584083  1
  O  O25  1  0.18830950  0.68709704  0.62584083  1
  O  O26  1  0.18830950  0.31290296  0.87415917  1
  O  O27  1  0.18830950  0.68709704  0.87415917  1
  O  O28  1  0.30407768  0.50000000  0.19799314  1
  O  O29  1  0.30456001  0.50000000  0.44835844  1
  O  O30  1  0.30592181  0.50000000  0.69846390  1
  O  O31  1  0.30372448  0.50000000  0.94703882  1
  O  O32  1  0.30456001  0.50000000  0.05164156  1
  O  O33  1  0.30407768  0.50000000  0.30200686  1
  O  O34  1  0.30372448  0.50000000  0.55296118  1
  O  O35  1  0.30592181  0.50000000  0.80153610  1
  O  O36  1  0.30989124  0.18347477  0.99978630  1
  O  O37  1  0.31067850  0.18312966  0.25000000  1
  O  O38  1  0.30989124  0.81652523  0.99978630  1
  O  O39  1  0.30989124  0.18347477  0.50021370  1
  O  O40  1  0.31067850  0.81687034  0.25000000  1
  O  O41  1  0.30970248  0.18496252  0.75000000  1
  O  O42  1  0.30989124  0.81652523  0.50021370  1
  O  O43  1  0.30970248  0.81503748  0.75000000  1
  O  O44  1  0.50000000  0.81146925  0.32957210  1
  O  O45  1  0.50000000  0.18853075  0.17042790  1
  O  O46  1  0.50000000  0.81169935  0.07914633  1
  O  O47  1  0.50000000  0.18830065  0.42085367  1
  O  O48  1  0.50000000  0.81136309  0.82941756  1
  O  O49  1  0.50000000  0.18863691  0.67058244  1
  O  O50  1  0.50000000  0.80982396  0.57945407  1
  O  O51  1  0.50000000  0.19017604  0.92054593  1
  O  O52  1  0.50000000  0.18830065  0.07914633  1
  O  O53  1  0.50000000  0.18853075  0.32957210  1
  O  O54  1  0.50000000  0.19017604  0.57945407  1
  O  O55  1  0.50000000  0.18863691  0.82941756  1
  O  O56  1  0.50000000  0.81169935  0.42085367  1
  O  O57  1  0.50000000  0.81146925  0.17042790  1
  O  O58  1  0.50000000  0.80982396  0.92054593  1
  O  O59  1  0.50000000  0.81136309  0.67058244  1
  O  O60  1  0.69010876  0.18347477  0.99978630  1
  O  O61  1  0.69010876  0.81652523  0.99978630  1
  O  O62  1  0.68932150  0.18312966  0.25000000  1
  O  O63  1  0.69010876  0.18347477  0.50021370  1
  O  O64  1  0.68932150  0.81687034  0.25000000  1
  O  O65  1  0.69010876  0.81652523  0.50021370  1
  O  O66  1  0.69029752  0.18496252  0.75000000  1
  O  O67  1  0.69029752  0.81503748  0.75000000  1
  O  O68  1  0.69543999  0.50000000  0.05164156  1
  O  O69  1  0.69592232  0.50000000  0.30200686  1
  O  O70  1  0.69407819  0.50000000  0.80153610  1
  O  O71  1  0.69627552  0.50000000  0.55296118  1
  O  O72  1  0.69592232  0.50000000  0.19799314  1
  O  O73  1  0.69543999  0.50000000  0.44835844  1
  O  O74  1  0.69407819  0.50000000  0.69846390  1
  O  O75  1  0.69627552  0.50000000  0.94703882  1
  O  O76  1  0.81132691  0.31588829  0.12491499  1
  O  O77  1  0.81132691  0.68411171  0.12491499  1
  O  O78  1  0.81132691  0.31588829  0.37508501  1
  O  O79  1  0.81169050  0.31290296  0.62584083  1
  O  O80  1  0.81132691  0.68411171  0.37508501  1
  O  O81  1  0.81169050  0.68709704  0.62584083  1
  O  O82  1  0.81169050  0.31290296  0.87415917  1
  O  O83  1  0.81169050  0.68709704  0.87415917  1
  O  O84  1  0.81181163  0.00000000  0.07898894  1
  O  O85  1  0.81190509  0.00000000  0.17080576  1
  O  O86  1  0.81190509  0.00000000  0.32919424  1
  O  O87  1  0.81149144  0.00000000  0.57956840  1
  O  O88  1  0.81762874  0.00000000  0.67291383  1
  O  O89  1  0.81762874  0.00000000  0.82708617  1
  O  O90  1  0.81181163  0.00000000  0.42101106  1
  O  O91  1  0.81149144  0.00000000  0.92043160  1
  O  O92  1  0.00000000  0.71316037  0.20214275  1
  O  O93  1  0.00000000  0.71302290  0.45248140  1
  O  O94  1  0.00000000  0.28760332  0.95167734  1
  O  O95  1  0.00000000  0.71239668  0.95167734  1
  Ta  Ta0  1  0.24780320  0.74536860  0.18847730  1
  Ta  Ta1  1  0.24696573  0.74442024  0.43781074  1
  Ta  Ta2  1  0.25125478  0.74615215  0.68757319  1
  Ta  Ta3  1  0.24822690  0.74606122  0.93905509  1
  Ta  Ta4  1  0.24696573  0.74442024  0.06218926  1
  Ta  Ta5  1  0.24780320  0.25463140  0.18847730  1
  Ta  Ta6  1  0.24780320  0.74536860  0.31152270  1
  Ta  Ta7  1  0.24696573  0.25557976  0.43781074  1
  Ta  Ta8  1  0.24822690  0.74606122  0.56094491  1
  Ta  Ta9  1  0.25125478  0.25384785  0.68757319  1
  Ta  Ta10  1  0.24822690  0.25393878  0.93905509  1
  Ta  Ta11  1  0.25125478  0.74615215  0.81242681  1
  Ta  Ta12  1  0.24696573  0.25557976  0.06218926  1
  Ta  Ta13  1  0.24780320  0.25463140  0.31152270  1
  Ta  Ta14  1  0.24822690  0.25393878  0.56094491  1
  Ta  Ta15  1  0.25125478  0.25384785  0.81242681  1
  Ta  Ta16  1  0.75219680  0.74536860  0.18847730  1
  Ta  Ta17  1  0.75303427  0.74442024  0.43781074  1
  Ta  Ta18  1  0.74874522  0.74615215  0.68757319  1
  Ta  Ta19  1  0.75177310  0.74606122  0.93905509  1
  Ta  Ta20  1  0.75219680  0.25463140  0.18847730  1
  Ta  Ta21  1  0.75303427  0.74442024  0.06218926  1
  Ta  Ta22  1  0.75303427  0.25557976  0.43781074  1
  Ta  Ta23  1  0.74874522  0.25384785  0.68757319  1
  Ta  Ta24  1  0.75219680  0.74536860  0.31152270  1
  Ta  Ta25  1  0.75177310  0.74606122  0.56094491  1
  Ta  Ta26  1  0.74874522  0.74615215  0.81242681  1
  Ta  Ta27  1  0.75177310  0.25393878  0.93905509  1
  Ta  Ta28  1  0.75303427  0.25557976  0.06218926  1
  Ta  Ta29  1  0.75219680  0.25463140  0.31152270  1
  Ta  Ta30  1  0.75177310  0.25393878  0.56094491  1
  Ta  Ta31  1  0.74874522  0.25384785  0.81242681  1
loop_
_geom_bond_atom_site_label_1
_geom_bond_atom_site_label_2
_geom_bond_distance
_geom_bond_site_symmetry_2
Cu0 O85 1.996312 1_455
Cu0 O14 1.996312 1_555
Cu0 O12 1.999826 1_555
Cu0 O84 1.999826 1_455
Cu1 O76 1.998382 1_455
Cu1 O20 1.998382 1_555
Cu1 O21 1.998382 1_555
Cu1 O77 1.998382 1_455
Cu2 O13 1.996312 1_555
Cu2 O86 1.996312 1_455
Cu2 O90 1.999826 1_455
Cu2 O17 1.999826 1_555
Cu3 O78 1.998382 1_455
Cu3 O23 1.998382 1_555
Cu3 O80 1.998382 1_455
Cu3 O22 1.998382 1_555
Cu4 O87 1.986348 1_455
Cu4 O15 1.986348 1_555
Cu4 O16 2.014883 1_555
Cu4 O88 2.014883 1_455
Cu5 O25 2.012619 1_555
Cu5 O24 2.012619 1_555
Cu5 O79 2.012619 1_455
Cu5 O81 2.012619 1_455
Cu6 O8 2.016040 1_555
Cu6 O10 2.016040 1_555
Cu6 O11 2.016040 1_555
Cu6 O9 2.016040 1_555
Cu7 O91 1.986348 1_455
Cu7 O19 1.986348 1_555
Cu7 O18 2.014883 1_555
Cu7 O89 2.014883 1_455
Cu8 O82 2.012619 1_455
Cu8 O27 2.012619 1_555
Cu8 O26 2.012619 1_555
Cu8 O83 2.012619 1_455
Cu9 O38 2.002964 1_544
Cu9 O36 2.002964 1_554
Cu9 O60 2.002964 1_554
Cu9 O61 2.002964 1_544
Cu10 O64 1.996683 1_545
Cu10 O62 1.996683 1_555
Cu10 O40 1.996683 1_545
Cu10 O37 1.996683 1_555
Cu11 O42 2.002964 1_545
Cu11 O63 2.002964 1_555
Cu11 O65 2.002964 1_545
Cu11 O39 2.002964 1_555
Cu12 O41 2.011677 1_555
Cu12 O43 2.011677 1_545
Cu12 O67 2.011677 1_545
Cu12 O66 2.011677 1_555
Cu13 O57 1.994516 1_545
Cu13 O45 1.994516 1_555
Cu13 O46 1.997452 1_545
Cu13 O52 1.997452 1_555
Cu14 O44 1.994516 1_545
Cu14 O53 1.994516 1_555
Cu14 O56 1.997452 1_545
Cu14 O47 1.997452 1_555
Cu15 O50 1.979474 1_545
Cu15 O54 1.979474 1_555
Cu15 O59 2.020462 1_545
Cu15 O49 2.020462 1_555
Cu16 O51 1.979474 1_555
Cu16 O58 1.979474 1_545
Cu16 O48 2.020462 1_545
Cu16 O55 2.020462 1_555
O0 Ta12 1.937745 1_555
O0 Ta28 1.937745 1_455
O1 Ta21 1.937745 1_455
O1 Ta4 1.937745 1_555
O2 Ta20 1.937799 1_455
O2 Ta5 1.937799 1_555
O3 Ta29 1.937799 1_455
O3 Ta13 1.937799 1_555
O4 Ta24 1.937799 1_455
O4 Ta6 1.937799 1_555
O5 Ta22 1.937745 1_455
O5 Ta7 1.937745 1_555
O6 Ta14 1.935745 1_555
O6 Ta30 1.935745 1_455
O7 Ta8 1.935745 1_555
O7 Ta25 1.935745 1_455
O8 Ta9 2.014365 1_555
O8 Ta23 2.014365 1_455
O9 Ta31 2.014365 1_455
O9 Ta15 2.014365 1_555
O10 Ta18 2.014365 1_455
O10 Ta2 2.014365 1_555
O11 Ta11 2.014365 1_555
O11 Ta26 2.014365 1_455
O12 Ta4 2.054895 1_545
O12 Ta12 2.054895 1_555
O13 Ta13 2.056463 1_555
O13 Ta6 2.056463 1_545
O14 Ta5 2.056463 1_555
O14 Ta0 2.056463 1_545
O15 Ta14 2.059367 1_555
O15 Ta8 2.059367 1_545
O16 Ta2 2.045258 1_545
O16 Ta9 2.045258 1_555
O17 Ta1 2.054895 1_545
O17 Ta7 2.054895 1_555
O18 Ta15 2.045258 1_555
O18 Ta11 2.045258 1_545
O19 Ta10 2.059367 1_555
O19 Ta3 2.059367 1_545
O20 Ta12 2.016863 1_555
O20 Ta5 2.044110 1_555
O21 Ta4 2.016863 1_555
O21 Ta0 2.044110 1_555
O22 Ta1 2.016863 1_555
O22 Ta6 2.044110 1_555
O23 Ta7 2.016863 1_555
O23 Ta13 2.044110 1_555
O24 Ta9 1.994080 1_555
O24 Ta14 2.080240 1_555
O25 Ta2 1.994080 1_555
O25 Ta8 2.080240 1_555
O26 Ta15 1.994080 1_555
O26 Ta10 2.080240 1_555
O27 Ta11 1.994080 1_555
O27 Ta3 2.080240 1_555
O28 Ta0 1.932106 1_555
O28 Ta5 1.932106 1_555
O29 Ta7 1.932402 1_555
O29 Ta1 1.932402 1_555
O30 Ta2 1.941934 1_555
O30 Ta9 1.941934 1_555
O31 Ta3 1.929428 1_555
O31 Ta10 1.929428 1_555
O32 Ta12 1.932402 1_555
O32 Ta4 1.932402 1_555
O33 Ta6 1.932106 1_555
O33 Ta13 1.932106 1_555
O34 Ta14 1.929428 1_555
O34 Ta8 1.929428 1_555
O35 Ta15 1.941934 1_555
O35 Ta11 1.941934 1_555
O36 Ta10 1.984475 1_555
O36 Ta12 2.037717 1_556
O37 Ta13 2.011310 1_555
O37 Ta5 2.011310 1_555
O38 Ta3 1.984475 1_555
O38 Ta4 2.037717 1_556
O39 Ta14 1.984475 1_555
O39 Ta7 2.037717 1_555
O40 Ta6 2.011310 1_555
O40 Ta0 2.011310 1_555
O41 Ta9 2.024291 1_555
O41 Ta15 2.024291 1_555
O42 Ta8 1.984475 1_555
O42 Ta1 2.037717 1_555
O43 Ta2 2.024291 1_555
O43 Ta11 2.024291 1_555
O44 Ta6 2.049971 1_555
O44 Ta24 2.049971 1_555
O45 Ta20 2.049971 1_555
O45 Ta5 2.049971 1_555
O46 Ta21 2.049413 1_555
O46 Ta4 2.049413 1_555
O47 Ta7 2.049413 1_555
O47 Ta22 2.049413 1_555
O48 Ta26 2.015430 1_555
O48 Ta11 2.015430 1_555
O49 Ta9 2.015430 1_555
O49 Ta23 2.015430 1_555
O50 Ta8 2.046534 1_555
O50 Ta25 2.046534 1_555
O51 Ta10 2.046534 1_555
O51 Ta27 2.046534 1_555
O52 Ta12 2.049413 1_555
O52 Ta28 2.049413 1_555
O53 Ta13 2.049971 1_555
O53 Ta29 2.049971 1_555
O54 Ta14 2.046534 1_555
O54 Ta30 2.046534 1_555
O55 Ta31 2.015430 1_555
O55 Ta15 2.015430 1_555
O56 Ta17 2.049413 1_555
O56 Ta1 2.049413 1_555
O57 Ta0 2.049971 1_555
O57 Ta16 2.049971 1_555
O58 Ta19 2.046534 1_555
O58 Ta3 2.046534 1_555
O59 Ta18 2.015430 1_555
O59 Ta2 2.015430 1_555
O60 Ta27 1.984475 1_555
O60 Ta28 2.037717 1_556
O61 Ta19 1.984475 1_555
O61 Ta21 2.037717 1_556
O62 Ta29 2.011310 1_555
O62 Ta20 2.011310 1_555
O63 Ta30 1.984475 1_555
O63 Ta22 2.037717 1_555
O64 Ta24 2.011310 1_555
O64 Ta16 2.011310 1_555
O65 Ta25 1.984475 1_555
O65 Ta17 2.037717 1_555
O66 Ta23 2.024291 1_555
O66 Ta31 2.024291 1_555
O67 Ta18 2.024291 1_555
O67 Ta26 2.024291 1_555
O68 Ta28 1.932402 1_555
O68 Ta21 1.932402 1_555
O69 Ta24 1.932106 1_555
O69 Ta29 1.932106 1_555
O70 Ta31 1.941934 1_555
O70 Ta26 1.941934 1_555
O71 Ta30 1.929428 1_555
O71 Ta25 1.929428 1_555
O72 Ta16 1.932106 1_555
O72 Ta20 1.932106 1_555
O73 Ta22 1.932402 1_555
O73 Ta17 1.932402 1_555
O74 Ta23 1.941934 1_555
O74 Ta18 1.941934 1_555
O75 Ta27 1.929428 1_555
O75 Ta19 1.929428 1_555
O76 Ta28 2.016863 1_555
O76 Ta20 2.044110 1_555
O77 Ta21 2.016863 1_555
O77 Ta16 2.044110 1_555
O78 Ta22 2.016863 1_555
O78 Ta29 2.044110 1_555
O79 Ta23 1.994080 1_555
O79 Ta30 2.080240 1_555
O80 Ta17 2.016863 1_555
O80 Ta24 2.044110 1_555
O81 Ta18 1.994080 1_555
O81 Ta25 2.080240 1_555
O82 Ta31 1.994080 1_555
O82 Ta27 2.080240 1_555
O83 Ta26 1.994080 1_555
O83 Ta19 2.080240 1_555
O84 Ta21 2.054895 1_545
O84 Ta28 2.054895 1_555
O85 Ta20 2.056463 1_555
O85 Ta16 2.056463 1_545
O86 Ta29 2.056463 1_555
O86 Ta24 2.056463 1_545
O87 Ta30 2.059367 1_555
O87 Ta25 2.059367 1_545
O88 Ta23 2.045258 1_555
O88 Ta18 2.045258 1_545
O89 Ta26 2.045258 1_545
O89 Ta31 2.045258 1_555
O90 Ta17 2.054895 1_545
O90 Ta22 2.054895 1_555
O91 Ta27 2.059367 1_555
O91 Ta19 2.059367 1_545
O92 Ta16 1.937799 1_455
O92 Ta0 1.937799 1_555
O93 Ta17 1.937745 1_455
O93 Ta1 1.937745 1_555
O94 Ta10 1.935745 1_555
O94 Ta27 1.935745 1_455
O95 Ta3 1.935745 1_555
O95 Ta19 1.935745 1_455
