# generated using pymatgen
data_LiMnP2O7
_symmetry_space_group_name_H-M   'P 1'
_cell_length_a   5.17193400
_cell_length_b   6.91236044
_cell_length_c   8.07193663
_cell_angle_alpha   112.49916422
_cell_angle_beta   90.68579659
_cell_angle_gamma   92.31437285
_symmetry_Int_Tables_number   1
_chemical_formula_structural   LiMnP2O7
_chemical_formula_sum   'Li2 Mn2 P4 O14'
_cell_volume   266.27412248
_cell_formula_units_Z   2
loop_
 _symmetry_equiv_pos_site_id
 _symmetry_equiv_pos_as_xyz
  1  'x, y, z'
loop_
 _atom_site_type_symbol
 _atom_site_label
 _atom_site_symmetry_multiplicity
 _atom_site_fract_x
 _atom_site_fract_y
 _atom_site_fract_z
 _atom_site_occupancy
  Li  Li0  1  0.70438100  0.16224300  0.99082200  1
  Li  Li1  1  0.23902100  0.83634400  0.42896500  1
  Mn  Mn0  1  0.77876000  0.76642900  0.73016500  1
  Mn  Mn1  1  0.24424900  0.21573000  0.27176300  1
  P  P0  1  0.71748100  0.53861000  0.30223800  1
  P  P1  1  0.28543600  0.46257700  0.69647700  1
  P  P2  1  0.75958100  0.88701300  0.17626000  1
  P  P3  1  0.23142900  0.11067700  0.82544000  1
  O  O0  1  0.12701900  0.65142600  0.77637500  1
  O  O1  1  0.39786100  0.96411900  0.68254600  1
  O  O2  1  0.72368200  0.64540600  0.15598800  1
  O  O3  1  0.93826400  0.05524000  0.79004100  1
  O  O4  1  0.85179000  0.70162400  0.47329500  1
  O  O5  1  0.86341300  0.34020500  0.21569000  1
  O  O6  1  0.70649100  0.87510000  0.98484600  1
  O  O7  1  0.56485900  0.01804200  0.30422400  1
  O  O8  1  0.57541600  0.51074300  0.67998600  1
  O  O9  1  0.32175300  0.13952100  0.01662600  1
  O  O10  1  0.27333500  0.34758900  0.83748000  1
  O  O11  1  0.42631900  0.49985400  0.32679800  1
  O  O12  1  0.17201700  0.29415300  0.51964200  1
  O  O13  1  0.04789300  0.94485300  0.23599600  1
loop_
_geom_bond_atom_site_label_1
_geom_bond_atom_site_label_2
_geom_bond_distance
_geom_bond_site_symmetry_2
Li0 O5 1.912608 1_556
Li0 O3 1.959250 1_555
Li0 O6 1.967360 1_545
Li0 O9 1.998501 1_556
Li1 O1 2.040156 1_555
Li1 O13 2.209777 1_555
Li1 O4 2.264450 1_455
Li1 O11 2.400316 1_555
Li1 O7 2.503753 1_565
Mn0 O8 1.919785 1_555
Mn0 O6 1.946626 1_555
Mn0 O4 1.990988 1_555
Mn0 O3 2.004642 1_565
Mn0 O0 2.083694 1_655
Mn0 O1 2.548962 1_555
Mn1 O12 1.908141 1_555
Mn1 O9 1.971299 1_555
Mn1 O13 2.011526 1_545
Mn1 O11 2.028328 1_555
Mn1 O7 2.265420 1_555
Mn1 O5 2.288738 1_455
O0 P1 1.498657 1_555
O1 P3 1.515761 1_565
O2 P0 1.614182 1_555
O2 P2 1.617243 1_555
O3 P3 1.544780 1_655
O4 P0 1.543305 1_555
O5 P0 1.517075 1_555
O6 P2 1.536260 1_556
O7 P2 1.511306 1_545
O8 P1 1.541496 1_555
O9 P3 1.542500 1_554
O10 P3 1.608492 1_555
O10 P1 1.619003 1_555
O11 P0 1.547232 1_555
O12 P1 1.545934 1_555
O13 P2 1.550134 1_455
