# generated using pymatgen
data_Al5Mo
_symmetry_space_group_name_H-M   'P 1'
_cell_length_a   4.86761236
_cell_length_b   4.86761238
_cell_length_c   8.83122849
_cell_angle_alpha   90.00000000
_cell_angle_beta   90.00000000
_cell_angle_gamma   119.99999308
_symmetry_Int_Tables_number   1
_chemical_formula_structural   Al5Mo
_chemical_formula_sum   'Al10 Mo2'
_cell_volume   181.21066557
_cell_formula_units_Z   2
loop_
 _symmetry_equiv_pos_site_id
 _symmetry_equiv_pos_as_xyz
  1  'x, y, z'
loop_
 _atom_site_type_symbol
 _atom_site_label
 _atom_site_symmetry_multiplicity
 _atom_site_fract_x
 _atom_site_fract_y
 _atom_site_fract_z
 _atom_site_occupancy
  Al  Al0  1  0.66265423  -0.00000000  0.25000000  1
  Al  Al1  1  -0.00000000  0.66265423  0.25000000  1
  Al  Al2  1  0.66265423  0.66265423  0.75000000  1
  Al  Al3  1  0.00000000  -0.00000000  0.00000000  1
  Al  Al4  1  0.33734577  0.00000000  0.75000000  1
  Al  Al5  1  0.66666700  0.33333300  0.50000000  1
  Al  Al6  1  0.33734577  0.33734577  0.25000000  1
  Al  Al7  1  0.00000000  -0.00000000  0.50000000  1
  Al  Al8  1  0.33333300  0.66666700  0.00000000  1
  Al  Al9  1  0.00000000  0.33734577  0.75000000  1
  Mo  Mo0  1  0.33333300  0.66666700  0.50000000  1
  Mo  Mo1  1  0.66666700  0.33333300  -0.00000000  1
loop_
_geom_bond_atom_site_label_1
_geom_bond_atom_site_label_2
_geom_bond_distance
_geom_bond_site_symmetry_2
Al0 Al5 2.734177 1_555
Al0 Mo1 2.734177 1_555
Al0 Mo0 2.734179 1_545
Al0 Al8 2.734179 1_545
Al0 Al7 2.751509 1_655
Al0 Al3 2.751509 1_655
Al0 Al6 2.793557 1_555
Al0 Al1 2.793557 1_545
Al0 Al6 2.793557 1_545
Al0 Al1 2.793557 1_655
Al0 Al1 2.844146 1_645
Al0 Al6 2.844146 1_655
Al1 Al8 2.734177 1_555
Al1 Mo0 2.734177 1_555
Al1 Mo1 2.734179 1_455
Al1 Al5 2.734179 1_455
Al1 Al3 2.751509 1_565
Al1 Al7 2.751509 1_565
Al1 Al6 2.793557 1_555
Al1 Al6 2.793557 1_455
Al1 Al6 2.844146 1_565
Al2 Mo0 2.734180 1_555
Al2 Al8 2.734180 1_556
Al2 Al5 2.734180 1_555
Al2 Mo1 2.734180 1_556
Al2 Al7 2.751509 1_665
Al2 Al3 2.751509 1_666
Al2 Al9 2.793557 1_655
Al2 Al4 2.793557 1_565
Al2 Al9 2.793557 1_555
Al2 Al4 2.793557 1_555
Al2 Al4 2.844146 1_665
Al2 Al9 2.844146 1_665
Al3 Al4 2.751509 1_554
Al3 Al9 2.751509 1_554
Al3 Al6 2.751509 1_555
Al3 Mo1 2.810314 1_455
Al3 Al8 2.810314 1_545
Al3 Al8 2.810319 1_445
Al3 Mo1 2.810319 1_555
Al3 Mo1 2.810319 1_445
Al3 Al8 2.810319 1_555
Al4 Mo0 2.734177 1_545
Al4 Al8 2.734177 1_546
Al4 Mo1 2.734179 1_556
Al4 Al5 2.734179 1_555
Al4 Al7 2.751509 1_555
Al4 Al9 2.793557 1_655
Al4 Al9 2.793557 1_545
Al4 Al9 2.844146 1_555
Al5 Al9 2.734177 1_655
Al5 Al6 2.734180 1_555
Al5 Al7 2.810314 1_655
Al5 Mo0 2.810315 1_655
Al5 Mo0 2.810315 1_545
Al5 Al7 2.810319 1_555
Al5 Al7 2.810319 1_665
Al5 Mo0 2.810323 1_555
Al6 Mo1 2.734180 1_555
Al6 Al8 2.734180 1_555
Al6 Mo0 2.734180 1_555
Al6 Al7 2.751509 1_555
Al7 Al9 2.751509 1_555
Al7 Mo0 2.810314 1_545
Al7 Mo0 2.810319 1_445
Al7 Mo0 2.810319 1_555
Al8 Al9 2.734179 1_554
Al8 Mo1 2.810315 1_455
Al8 Mo1 2.810315 1_565
Al8 Mo1 2.810323 1_555
Al9 Mo1 2.734177 1_456
Al9 Mo0 2.734179 1_555
