# generated using pymatgen
data_RbNaSi2O5
_symmetry_space_group_name_H-M   'P 1'
_cell_length_a   13.78082100
_cell_length_b   4.94374600
_cell_length_c   7.91320196
_cell_angle_alpha   89.00093719
_cell_angle_beta   90.00000000
_cell_angle_gamma   90.00000000
_symmetry_Int_Tables_number   1
_chemical_formula_structural   RbNaSi2O5
_chemical_formula_sum   'Rb4 Na4 Si8 O20'
_cell_volume   539.03562011
_cell_formula_units_Z   4
loop_
 _symmetry_equiv_pos_site_id
 _symmetry_equiv_pos_as_xyz
  1  'x, y, z'
loop_
 _atom_site_type_symbol
 _atom_site_label
 _atom_site_symmetry_multiplicity
 _atom_site_fract_x
 _atom_site_fract_y
 _atom_site_fract_z
 _atom_site_occupancy
  Rb  Rb0  1  0.80288400  0.27993900  0.78443500  1
  Rb  Rb1  1  0.69711600  0.27993900  0.28443500  1
  Rb  Rb2  1  0.30288400  0.72006100  0.71556500  1
  Rb  Rb3  1  0.19711600  0.72006100  0.21556500  1
  Na  Na0  1  0.09226300  0.22980000  0.96102100  1
  Na  Na1  1  0.40773700  0.22980000  0.46102100  1
  Na  Na2  1  0.90773700  0.77020000  0.03897900  1
  Na  Na3  1  0.59226300  0.77020000  0.53897900  1
  Si  Si0  1  0.54538100  0.29724400  0.78969800  1
  Si  Si1  1  0.63067100  0.79234700  0.97932300  1
  Si  Si2  1  0.13067100  0.20765300  0.52067700  1
  Si  Si3  1  0.04538100  0.70275600  0.71030200  1
  Si  Si4  1  0.36932900  0.20765300  0.02067700  1
  Si  Si5  1  0.45461900  0.70275600  0.21030200  1
  Si  Si6  1  0.95461900  0.29724400  0.28969800  1
  Si  Si7  1  0.86932900  0.79234700  0.47932300  1
  O  O0  1  0.92790800  0.61756600  0.33283700  1
  O  O1  1  0.06523900  0.75841100  0.90482900  1
  O  O2  1  0.57209200  0.61756600  0.83283700  1
  O  O3  1  0.11136600  0.88499900  0.57493200  1
  O  O4  1  0.56523900  0.24158900  0.59517100  1
  O  O5  1  0.07209200  0.38243400  0.66716300  1
  O  O6  1  0.57147700  0.74558100  0.16263500  1
  O  O7  1  0.92852300  0.74558100  0.66263500  1
  O  O8  1  0.74254300  0.72824300  0.99977100  1
  O  O9  1  0.88863400  0.11500100  0.42506800  1
  O  O10  1  0.07147700  0.25441900  0.33736500  1
  O  O11  1  0.42790800  0.38243400  0.16716300  1
  O  O12  1  0.42852300  0.25441900  0.83736500  1
  O  O13  1  0.61136600  0.11500100  0.92506800  1
  O  O14  1  0.25745700  0.27175700  0.00022900  1
  O  O15  1  0.43476100  0.75841100  0.40482900  1
  O  O16  1  0.75745700  0.72824300  0.49977100  1
  O  O17  1  0.93476100  0.24158900  0.09517100  1
  O  O18  1  0.38863400  0.88499900  0.07493200  1
  O  O19  1  0.24254300  0.27175700  0.50022900  1
loop_
_geom_bond_atom_site_label_1
_geom_bond_atom_site_label_2
_geom_bond_distance
_geom_bond_site_symmetry_2
Na0 O14 2.307385 1_556
Na0 O1 2.409033 1_545
Na0 O17 2.417345 1_456
Na0 O5 2.448012 1_555
Na0 O1 2.669330 1_555
Na1 O19 2.307385 1_555
Na1 O15 2.409033 1_545
Na1 O4 2.417345 1_555
Na1 O11 2.448012 1_555
Na1 O15 2.669330 1_555
Na2 O8 2.307385 1_554
Na2 O17 2.409033 1_565
Na2 O1 2.417345 1_654
Na2 O0 2.448012 1_555
Na2 O17 2.669330 1_555
Na3 O16 2.307385 1_555
Na3 O4 2.409033 1_565
Na3 O15 2.417345 1_555
Na3 O2 2.448012 1_555
Na3 O4 2.669330 1_555
O0 Si7 1.666407 1_555
O0 Si6 1.666925 1_555
O1 Si3 1.592138 1_555
O1 Rb3 3.060850 1_556
O2 Si1 1.666407 1_555
O2 Si0 1.666925 1_555
O3 Si3 1.659050 1_555
O3 Si2 1.666021 1_565
O3 Rb2 2.972789 1_555
O3 Rb3 3.198291 1_555
O4 Si0 1.592138 1_555
O4 Rb1 3.060850 1_555
O5 Si2 1.666407 1_555
O5 Si3 1.666925 1_555
O6 Si5 1.666644 1_555
O6 Si1 1.676720 1_554
O6 Rb1 3.024673 1_555
O6 Rb1 3.315761 1_565
O7 Si3 1.666644 1_655
O7 Si7 1.676720 1_555
O7 Rb0 3.024673 1_555
O7 Rb0 3.315761 1_565
O8 Si1 1.581654 1_555
O8 Rb0 2.939178 1_555
O8 Rb1 3.194373 1_556
O8 Rb0 3.297266 1_565
O9 Si6 1.659050 1_555
O9 Si7 1.666021 1_545
O9 Rb1 2.972789 1_555
O9 Rb0 3.198291 1_555
O10 Si6 1.666644 1_455
O10 Si2 1.676720 1_555
O10 Rb3 3.024673 1_555
O10 Rb3 3.315761 1_545
O11 Si4 1.666407 1_555
O11 Si5 1.666925 1_555
O12 Si0 1.666644 1_555
O12 Si4 1.676720 1_556
O12 Rb2 3.024673 1_555
O12 Rb2 3.315761 1_545
O13 Si0 1.659050 1_555
O13 Si1 1.666021 1_545
O13 Rb0 2.972789 1_555
O13 Rb1 3.198291 1_556
O14 Si4 1.581654 1_555
O14 Rb3 2.939178 1_555
O14 Rb2 3.194373 1_554
O14 Rb3 3.297266 1_545
O15 Si5 1.592138 1_555
O15 Rb2 3.060850 1_555
O16 Si7 1.581654 1_555
O16 Rb1 2.939178 1_555
O16 Rb0 3.194373 1_555
O16 Rb1 3.297266 1_565
O17 Si6 1.592138 1_555
O17 Rb0 3.060850 1_554
O18 Si5 1.659050 1_555
O18 Si4 1.666021 1_565
O18 Rb3 2.972789 1_555
O18 Rb2 3.198291 1_554
O19 Si2 1.581654 1_555
O19 Rb2 2.939178 1_555
O19 Rb3 3.194373 1_555
O19 Rb2 3.297266 1_545
