# generated using pymatgen
data_Ba2Sc2B4O11
_symmetry_space_group_name_H-M   'P 1'
_cell_length_a   9.37710514
_cell_length_b   9.37710514
_cell_length_c   6.42403919
_cell_angle_alpha   81.30785455
_cell_angle_beta   81.30785455
_cell_angle_gamma   60.59910021
_symmetry_Int_Tables_number   1
_chemical_formula_structural   Ba2Sc2B4O11
_chemical_formula_sum   'Ba4 Sc4 B8 O22'
_cell_volume   484.51787964
_cell_formula_units_Z   2
loop_
 _symmetry_equiv_pos_site_id
 _symmetry_equiv_pos_as_xyz
  1  'x, y, z'
loop_
 _atom_site_type_symbol
 _atom_site_label
 _atom_site_symmetry_multiplicity
 _atom_site_fract_x
 _atom_site_fract_y
 _atom_site_fract_z
 _atom_site_occupancy
  Ba  Ba0  1  0.47165500  0.80344200  0.57520000  1
  Ba  Ba1  1  0.80344200  0.47165500  0.07520000  1
  Ba  Ba2  1  0.19655800  0.52834500  0.92480000  1
  Ba  Ba3  1  0.52834500  0.19655800  0.42480000  1
  Sc  Sc0  1  0.00000000  0.00000000  0.50000000  1
  Sc  Sc1  1  0.50000000  0.00000000  0.00000000  1
  Sc  Sc2  1  0.00000000  0.50000000  0.50000000  1
  Sc  Sc3  1  0.00000000  0.00000000  0.00000000  1
  B  B0  1  0.27876000  0.61993400  0.41180800  1
  B  B1  1  0.38006600  0.72124000  0.08819200  1
  B  B2  1  0.82904100  0.83124900  0.25499100  1
  B  B3  1  0.17095900  0.16875100  0.74500900  1
  B  B4  1  0.16875100  0.17095900  0.24500900  1
  B  B5  1  0.83124900  0.82904100  0.75499100  1
  B  B6  1  0.72124000  0.38006600  0.58819200  1
  B  B7  1  0.61993400  0.27876000  0.91180800  1
  O  O0  1  0.78587100  0.23406800  0.50233600  1
  O  O1  1  0.33331800  0.07093000  0.26538300  1
  O  O2  1  0.07242500  0.10192400  0.20583100  1
  O  O3  1  0.09514900  0.33669500  0.26341400  1
  O  O4  1  0.76247500  0.50181800  0.52131200  1
  O  O5  1  0.66330500  0.90485100  0.23658600  1
  O  O6  1  0.07093000  0.33331800  0.76538300  1
  O  O7  1  0.89807600  0.92757500  0.29416900  1
  O  O8  1  0.90485100  0.66330500  0.73658600  1
  O  O9  1  0.41425300  0.58574700  0.25000000  1
  O  O10  1  0.23752500  0.49818200  0.47868800  1
  O  O11  1  0.92757500  0.89807600  0.79416900  1
  O  O12  1  0.58574700  0.41425300  0.75000000  1
  O  O13  1  0.49818200  0.23752500  0.97868800  1
  O  O14  1  0.10192400  0.07242500  0.70583100  1
  O  O15  1  0.92907000  0.66668200  0.23461700  1
  O  O16  1  0.76593200  0.21412900  0.99766400  1
  O  O17  1  0.21412900  0.76593200  0.49766400  1
  O  O18  1  0.23406800  0.78587100  0.00233600  1
  O  O19  1  0.33669500  0.09514900  0.76341400  1
  O  O20  1  0.50181800  0.76247500  0.02131200  1
  O  O21  1  0.66668200  0.92907000  0.73461700  1
loop_
_geom_bond_atom_site_label_1
_geom_bond_atom_site_label_2
_geom_bond_distance
_geom_bond_site_symmetry_2
Ba0 O17 2.730160 1_555
Ba0 O19 2.772012 1_565
Ba0 O4 2.827347 1_555
Ba0 O1 2.830577 1_565
Ba0 O20 2.871616 1_556
Ba0 O5 2.955809 1_555
Ba0 O21 2.971017 1_555
Ba1 O16 2.730160 1_554
Ba1 O3 2.772012 1_655
Ba1 O20 2.827347 1_555
Ba1 O6 2.830577 1_654
Ba1 O4 2.871616 1_555
Ba1 O8 2.955809 1_554
Ba1 O15 2.971017 1_555
Ba2 O18 2.730160 1_556
Ba2 O8 2.772012 1_455
Ba2 O13 2.827347 1_555
Ba2 O15 2.830577 1_456
Ba2 O10 2.871616 1_555
Ba2 O3 2.955809 1_556
Ba2 O6 2.971017 1_555
Ba3 O0 2.730160 1_555
Ba3 O5 2.772012 1_545
Ba3 O10 2.827347 1_555
Ba3 O21 2.830577 1_545
Ba3 O13 2.871616 1_554
Ba3 O19 2.955809 1_555
Ba3 O1 2.971017 1_555
B0 O17 1.363202 1_555
B0 O10 1.368392 1_555
B0 O9 1.448841 1_555
B1 O18 1.363202 1_555
B1 O20 1.368392 1_555
B1 O9 1.448841 1_555
B2 O15 1.371519 1_555
B2 O5 1.372357 1_555
B2 O7 1.410793 1_555
B3 O6 1.371519 1_555
B3 O19 1.372357 1_555
B3 O14 1.410793 1_555
B4 O1 1.371519 1_555
B4 O3 1.372357 1_555
B4 O2 1.410793 1_555
B5 O21 1.371519 1_555
B5 O8 1.372357 1_555
B5 O11 1.410793 1_555
B6 O0 1.363202 1_555
B6 O4 1.368392 1_555
B6 O12 1.448841 1_555
B7 O16 1.363202 1_555
B7 O13 1.368392 1_555
B7 O12 1.448841 1_555
O0 Sc0 2.126784 1_655
O1 Sc1 2.075675 1_555
O2 Sc3 2.100896 1_555
O2 Sc0 2.156232 1_555
O3 Sc2 2.098346 1_555
O4 Sc2 2.202531 1_655
O5 Sc1 2.098346 1_565
O6 Sc2 2.075675 1_555
O7 Sc0 2.100896 1_665
O7 Sc3 2.156232 1_665
O8 Sc2 2.098346 1_655
O10 Sc2 2.202531 1_555
O11 Sc3 2.100896 1_666
O11 Sc0 2.156232 1_665
O13 Sc1 2.202531 1_556
O14 Sc0 2.100896 1_555
O14 Sc3 2.156232 1_556
O15 Sc2 2.075675 1_655
O16 Sc3 2.126784 1_656
O17 Sc0 2.126784 1_565
O18 Sc3 2.126784 1_565
O19 Sc1 2.098346 1_556
O20 Sc1 2.202531 1_565
O21 Sc1 2.075675 1_566
