# generated using pymatgen
data_CsMnI3
_symmetry_space_group_name_H-M   'P 1'
_cell_length_a   8.27830944
_cell_length_b   8.27831801
_cell_length_c   6.99357684
_cell_angle_alpha   90.00000000
_cell_angle_beta   90.00000000
_cell_angle_gamma   120.00003256
_symmetry_Int_Tables_number   1
_chemical_formula_structural   CsMnI3
_chemical_formula_sum   'Cs2 Mn2 I6'
_cell_volume   415.06259978
_cell_formula_units_Z   2
loop_
 _symmetry_equiv_pos_site_id
 _symmetry_equiv_pos_as_xyz
  1  'x, y, z'
loop_
 _atom_site_type_symbol
 _atom_site_label
 _atom_site_symmetry_multiplicity
 _atom_site_fract_x
 _atom_site_fract_y
 _atom_site_fract_z
 _atom_site_occupancy
  Cs  Cs0  1  0.33333300  0.66666700  0.75000000  1
  Cs  Cs1  1  0.66666700  0.33333300  0.25000000  1
  Mn  Mn0  1  -0.00000000  0.00000000  -0.00000000  1
  Mn  Mn1  1  -0.00000000  0.00000000  0.50000000  1
  I  I0  1  0.16272317  0.32544634  0.25000000  1
  I  I1  1  0.83727683  0.16272317  0.75000000  1
  I  I2  1  0.32544734  0.16272317  0.75000000  1
  I  I3  1  0.67455266  0.83727683  0.25000000  1
  I  I4  1  0.16272317  0.83727683  0.25000000  1
  I  I5  1  0.83727683  0.67455366  0.75000000  1
loop_
_geom_bond_atom_site_label_1
_geom_bond_atom_site_label_2
_geom_bond_distance
_geom_bond_site_symmetry_2
Cs0 I2 4.139537 1_565
Cs0 I5 4.139537 1_455
Cs0 I1 4.139541 1_565
Cs0 I1 4.139541 1_455
Cs0 I5 4.139545 1_555
Cs0 I2 4.139553 1_555
Cs0 I3 4.267530 1_555
Cs0 I3 4.267530 1_556
Cs0 I4 4.267532 1_555
Cs0 I4 4.267532 1_556
Cs0 I0 4.267536 1_556
Cs0 I0 4.267536 1_555
Cs1 I3 4.139537 1_545
Cs1 I0 4.139537 1_655
Cs1 I4 4.139541 1_545
Cs1 I4 4.139541 1_655
Cs1 I0 4.139545 1_555
Cs1 I3 4.139553 1_555
Cs1 I2 4.267530 1_555
Cs1 I2 4.267530 1_554
Cs1 I1 4.267532 1_555
Cs1 I1 4.267532 1_554
Cs1 I5 4.267536 1_554
Cs1 I5 4.267536 1_555
I0 Mn1 2.915597 1_555
I0 Mn0 2.915597 1_555
I1 Mn1 2.915597 1_655
I1 Mn0 2.915597 1_656
I2 Mn0 2.915601 1_556
I2 Mn1 2.915601 1_555
I3 Mn0 2.915601 1_665
I3 Mn1 2.915601 1_665
I4 Mn0 2.915597 1_565
I4 Mn1 2.915597 1_565
I5 Mn0 2.915597 1_666
I5 Mn1 2.915597 1_665
