# generated using pymatgen
data_Cs2LiVS4
_symmetry_space_group_name_H-M   'P 1'
_cell_length_a   14.22771272
_cell_length_b   12.73297352
_cell_length_c   7.60781166
_cell_angle_alpha   84.79393136
_cell_angle_beta   63.03072993
_cell_angle_gamma   32.17533871
_symmetry_Int_Tables_number   1
_chemical_formula_structural   Cs2LiVS4
_chemical_formula_sum   'Cs4 Li2 V2 S8'
_cell_volume   514.44347486
_cell_formula_units_Z   2
loop_
 _symmetry_equiv_pos_site_id
 _symmetry_equiv_pos_as_xyz
  1  'x, y, z'
loop_
 _atom_site_type_symbol
 _atom_site_label
 _atom_site_symmetry_multiplicity
 _atom_site_fract_x
 _atom_site_fract_y
 _atom_site_fract_z
 _atom_site_occupancy
  Cs  Cs0  1  0.82271400  0.82271400  0.17728600  1
  Cs  Cs1  1  0.42728600  0.42728600  0.07271400  1
  Cs  Cs2  1  0.17728600  0.17728600  0.82271400  1
  Cs  Cs3  1  0.07271400  0.07271400  0.42728600  1
  Li  Li0  1  0.50000000  0.50000000  0.50000000  1
  Li  Li1  1  0.75000000  0.75000000  0.75000000  1
  V  V0  1  0.00000000  0.00000000  0.00000000  1
  V  V1  1  0.25000000  0.25000000  0.25000000  1
  S  S0  1  0.50284500  0.89741000  0.17480200  1
  S  S1  1  0.89741000  0.50284500  0.42494300  1
  S  S2  1  0.82505700  0.07519800  0.35259000  1
  S  S3  1  0.07519800  0.82505700  0.74715500  1
  S  S4  1  0.17480200  0.42494300  0.50284500  1
  S  S5  1  0.42494300  0.17480200  0.89741000  1
  S  S6  1  0.35259000  0.74715500  0.82505700  1
  S  S7  1  0.74715500  0.35259000  0.07519800  1
loop_
_geom_bond_atom_site_label_1
_geom_bond_atom_site_label_2
_geom_bond_distance
_geom_bond_site_symmetry_2
Cs0 S5 3.603761 1_654
Cs0 S4 3.603761 1_565
Cs0 S2 3.621472 1_565
Cs0 S3 3.621472 1_654
Cs0 S1 3.789975 1_555
Cs0 S0 3.789975 1_555
Cs0 S5 3.940306 1_565
Cs0 S4 3.940306 1_654
Cs1 S3 3.603761 1_644
Cs1 S2 3.603761 1_465
Cs1 S4 3.621472 1_555
Cs1 S5 3.621472 1_554
Cs1 S7 3.789975 1_555
Cs1 S6 3.789975 1_554
Cs1 S3 3.940306 1_555
Cs1 S2 3.940306 1_554
Cs2 S1 3.603761 1_456
Cs2 S0 3.603761 1_545
Cs2 S6 3.621472 1_545
Cs2 S7 3.621472 1_456
Cs2 S5 3.789975 1_555
Cs2 S4 3.789975 1_555
Cs2 S1 3.940306 1_545
Cs2 S0 3.940306 1_456
Cs3 S7 3.603761 1_456
Cs3 S6 3.603761 1_544
Cs3 S0 3.621472 1_545
Cs3 S1 3.621472 1_455
Cs3 S3 3.789975 1_545
Cs3 S2 3.789975 1_455
Cs3 S7 3.940306 1_545
Cs3 S6 3.940306 1_455
Li0 S6 2.439829 1_555
Li0 S7 2.439829 1_555
Li0 S2 2.439829 1_555
Li0 S3 2.439829 1_555
Li1 S4 2.439829 1_655
Li1 S5 2.439829 1_565
Li1 S0 2.439829 1_556
Li1 S1 2.439829 1_555
S0 V1 2.164095 1_565
S1 V1 2.164095 1_655
S2 V0 2.164095 1_655
S3 V0 2.164095 1_566
S4 V1 2.164095 1_555
S5 V1 2.164095 1_556
S6 V0 2.164095 1_566
S7 V0 2.164095 1_655
