# generated using pymatgen
data_LiTiPO4
_symmetry_space_group_name_H-M   'P 1'
_cell_length_a   4.74489600
_cell_length_b   6.15008600
_cell_length_c   10.59380800
_cell_angle_alpha   90.00000000
_cell_angle_beta   90.00000000
_cell_angle_gamma   90.00000000
_symmetry_Int_Tables_number   1
_chemical_formula_structural   LiTiPO4
_chemical_formula_sum   'Li4 Ti4 P4 O16'
_cell_volume   309.14340372
_cell_formula_units_Z   4
loop_
 _symmetry_equiv_pos_site_id
 _symmetry_equiv_pos_as_xyz
  1  'x, y, z'
loop_
 _atom_site_type_symbol
 _atom_site_label
 _atom_site_symmetry_multiplicity
 _atom_site_fract_x
 _atom_site_fract_y
 _atom_site_fract_z
 _atom_site_occupancy
  Li  Li0  1  0.00000000  0.00000000  0.00000000  1
  Li  Li1  1  0.50000000  0.00000000  0.50000000  1
  Li  Li2  1  0.00000000  0.50000000  0.00000000  1
  Li  Li3  1  0.50000000  0.50000000  0.50000000  1
  Ti  Ti0  1  0.02004300  0.75000000  0.27871000  1
  Ti  Ti1  1  0.47995700  0.75000000  0.77871000  1
  Ti  Ti2  1  0.97995700  0.25000000  0.72129000  1
  Ti  Ti3  1  0.52004300  0.25000000  0.22129000  1
  P  P0  1  0.57861200  0.75000000  0.09435100  1
  P  P1  1  0.92138800  0.75000000  0.59435100  1
  P  P2  1  0.42138800  0.25000000  0.90564900  1
  P  P3  1  0.07861200  0.25000000  0.40564900  1
  O  O0  1  0.74439800  0.25000000  0.90579300  1
  O  O1  1  0.21224100  0.45036100  0.33451700  1
  O  O2  1  0.71224100  0.54963900  0.16548300  1
  O  O3  1  0.78775900  0.95036100  0.66548300  1
  O  O4  1  0.28775900  0.04963900  0.83451700  1
  O  O5  1  0.78775900  0.54963900  0.66548300  1
  O  O6  1  0.28775900  0.45036100  0.83451700  1
  O  O7  1  0.21224100  0.04963900  0.33451700  1
  O  O8  1  0.25560200  0.75000000  0.09420700  1
  O  O9  1  0.75560200  0.25000000  0.40579300  1
  O  O10  1  0.71224100  0.95036100  0.16548300  1
  O  O11  1  0.24439800  0.75000000  0.59420700  1
  O  O12  1  0.70583600  0.75000000  0.95934700  1
  O  O13  1  0.29416400  0.25000000  0.04065300  1
  O  O14  1  0.20583600  0.25000000  0.54065300  1
  O  O15  1  0.79416400  0.75000000  0.45934700  1
loop_
_geom_bond_atom_site_label_1
_geom_bond_atom_site_label_2
_geom_bond_distance
_geom_bond_site_symmetry_2
Li0 O12 2.120765 1_444
Li0 O13 2.120765 1_555
Li0 O0 2.197929 1_454
Li0 O8 2.197929 1_545
Li0 O10 2.242949 1_445
Li0 O4 2.242949 1_554
Li1 O14 2.120765 1_555
Li1 O15 2.120765 1_545
Li1 O11 2.197929 1_545
Li1 O9 2.197929 1_555
Li1 O7 2.242949 1_555
Li1 O3 2.242949 1_545
Li2 O13 2.120765 1_555
Li2 O12 2.120765 1_454
Li2 O0 2.197929 1_454
Li2 O8 2.197929 1_555
Li2 O2 2.242949 1_455
Li2 O6 2.242949 1_554
Li3 O15 2.120765 1_555
Li3 O14 2.120765 1_555
Li3 O11 2.197929 1_555
Li3 O9 2.197929 1_555
Li3 O1 2.242949 1_555
Li3 O5 2.242949 1_555
O0 P2 1.532650 1_555
O0 Ti2 2.251595 1_555
O1 P3 1.577430 1_555
O1 Ti0 2.139423 1_555
O1 Ti3 2.256158 1_555
O2 P0 1.577430 1_555
O2 Ti3 2.139423 1_555
O2 Ti0 2.256158 1_655
O3 P1 1.577430 1_555
O3 Ti2 2.139423 1_565
O3 Ti1 2.256158 1_555
O4 P2 1.577430 1_555
O4 Ti1 2.139423 1_545
O4 Ti2 2.256158 1_455
O5 P1 1.577430 1_555
O5 Ti2 2.139423 1_555
O5 Ti1 2.256158 1_555
O6 P2 1.577430 1_555
O6 Ti1 2.139423 1_555
O6 Ti2 2.256158 1_455
O7 P3 1.577430 1_555
O7 Ti0 2.139423 1_545
O7 Ti3 2.256158 1_555
O8 P0 1.532650 1_555
O8 Ti0 2.251595 1_555
O9 P3 1.532650 1_655
O9 Ti3 2.251595 1_555
O10 P0 1.577430 1_555
O10 Ti3 2.139423 1_565
O10 Ti0 2.256158 1_655
O11 P1 1.532650 1_455
O11 Ti1 2.251595 1_555
O12 P0 1.552386 1_556
O12 Ti1 2.193329 1_555
O13 P2 1.552386 1_554
O13 Ti3 2.193329 1_555
O14 P3 1.552386 1_555
O14 Ti2 2.193329 1_455
O15 P1 1.552386 1_555
O15 Ti0 2.193329 1_655
