# generated using pymatgen
data_Rb8AlAu3O4
_symmetry_space_group_name_H-M   'P 1'
_cell_length_a   10.61177000
_cell_length_b   13.15525700
_cell_length_c   13.49024600
_cell_angle_alpha   90.00000000
_cell_angle_beta   90.00000000
_cell_angle_gamma   90.00000000
_symmetry_Int_Tables_number   1
_chemical_formula_structural   Rb8AlAu3O4
_chemical_formula_sum   'Rb32 Al4 Au12 O16'
_cell_volume   1883.24591738
_cell_formula_units_Z   4
loop_
 _symmetry_equiv_pos_site_id
 _symmetry_equiv_pos_as_xyz
  1  'x, y, z'
loop_
 _atom_site_type_symbol
 _atom_site_label
 _atom_site_symmetry_multiplicity
 _atom_site_fract_x
 _atom_site_fract_y
 _atom_site_fract_z
 _atom_site_occupancy
  Rb  Rb0  1  0.90250100  0.95390300  0.49013200  1
  Rb  Rb1  1  0.84717000  0.30774400  0.93881400  1
  Rb  Rb2  1  0.52345900  0.45192900  0.01487600  1
  Rb  Rb3  1  0.09749900  0.45390300  0.00986800  1
  Rb  Rb4  1  0.34717000  0.19225600  0.06118600  1
  Rb  Rb5  1  0.65839300  0.47180900  0.73710200  1
  Rb  Rb6  1  0.38459600  0.23583400  0.34762700  1
  Rb  Rb7  1  0.73164900  0.25205100  0.18127300  1
  Rb  Rb8  1  0.23164900  0.24794900  0.81872700  1
  Rb  Rb9  1  0.88459600  0.26416600  0.65237300  1
  Rb  Rb10  1  0.84160700  0.52819100  0.23710200  1
  Rb  Rb11  1  0.98642100  0.24795300  0.36163700  1
  Rb  Rb12  1  0.76835100  0.74794900  0.68127300  1
  Rb  Rb13  1  0.82157200  0.96027000  0.23304200  1
  Rb  Rb14  1  0.26835100  0.75205100  0.31872700  1
  Rb  Rb15  1  0.01357900  0.74795300  0.13836300  1
  Rb  Rb16  1  0.15283000  0.80774400  0.56118600  1
  Rb  Rb17  1  0.97654100  0.54807100  0.51487600  1
  Rb  Rb18  1  0.48642100  0.25204700  0.63836300  1
  Rb  Rb19  1  0.02345900  0.04807100  0.98512400  1
  Rb  Rb20  1  0.34160700  0.97180900  0.76289800  1
  Rb  Rb21  1  0.32157200  0.53973000  0.76695800  1
  Rb  Rb22  1  0.67842800  0.03973000  0.73304200  1
  Rb  Rb23  1  0.40250100  0.54609700  0.50986800  1
  Rb  Rb24  1  0.51357900  0.75204700  0.86163700  1
  Rb  Rb25  1  0.17842800  0.46027000  0.26695800  1
  Rb  Rb26  1  0.61540400  0.73583400  0.15237300  1
  Rb  Rb27  1  0.59749900  0.04609700  0.99013200  1
  Rb  Rb28  1  0.15839300  0.02819100  0.26289800  1
  Rb  Rb29  1  0.65283000  0.69225600  0.43881400  1
  Rb  Rb30  1  0.11540400  0.76416600  0.84762700  1
  Rb  Rb31  1  0.47654100  0.95192900  0.48512400  1
  Al  Al0  1  0.05464200  0.24546800  0.13799000  1
  Al  Al1  1  0.44535800  0.75453200  0.63799000  1
  Al  Al2  1  0.94535800  0.74546800  0.36201000  1
  Al  Al3  1  0.55464200  0.25453200  0.86201000  1
  Au  Au0  1  0.68931700  0.38745900  0.44627800  1
  Au  Au1  1  0.30534700  0.66144600  0.04773300  1
  Au  Au2  1  0.69465300  0.16144600  0.45226700  1
  Au  Au3  1  0.02483900  0.02478400  0.71531800  1
  Au  Au4  1  0.31068300  0.88745900  0.05372200  1
  Au  Au5  1  0.97516100  0.52478400  0.78468200  1
  Au  Au6  1  0.52483900  0.47521600  0.28468200  1
  Au  Au7  1  0.18931700  0.11254100  0.55372200  1
  Au  Au8  1  0.81068300  0.61254100  0.94627800  1
  Au  Au9  1  0.80534700  0.83855400  0.95226700  1
  Au  Au10  1  0.19465300  0.33855400  0.54773300  1
  Au  Au11  1  0.47516100  0.97521600  0.21531800  1
  O  O0  1  0.81034400  0.74372300  0.27896600  1
  O  O1  1  0.89644900  0.74484500  0.49127300  1
  O  O2  1  0.46687100  0.13946900  0.83538100  1
  O  O3  1  0.18965600  0.24372300  0.22103400  1
  O  O4  1  0.03312900  0.86053100  0.33538100  1
  O  O5  1  0.31034400  0.75627700  0.72103400  1
  O  O6  1  0.04375700  0.63558500  0.33375100  1
  O  O7  1  0.10355100  0.24484500  0.00872700  1
  O  O8  1  0.53312900  0.63946900  0.66461900  1
  O  O9  1  0.95624300  0.13558500  0.16624900  1
  O  O10  1  0.39644900  0.75515500  0.50872700  1
  O  O11  1  0.60355100  0.25515500  0.99127300  1
  O  O12  1  0.68965600  0.25627700  0.77896600  1
  O  O13  1  0.54375700  0.86441500  0.66624900  1
  O  O14  1  0.45624300  0.36441500  0.83375100  1
  O  O15  1  0.96687100  0.36053100  0.16461900  1
loop_
_geom_bond_atom_site_label_1
_geom_bond_atom_site_label_2
_geom_bond_distance
_geom_bond_site_symmetry_2
Al0 O15 1.813229 1_455
Al0 O3 1.818873 1_555
Al0 O7 1.819407 1_555
Al0 O9 1.823524 1_455
Al1 O8 1.813229 1_555
Al1 O5 1.818873 1_555
Al1 O10 1.819407 1_555
Al1 O13 1.823524 1_555
Al2 O4 1.813229 1_655
Al2 O0 1.818873 1_555
Al2 O1 1.819407 1_555
Al2 O6 1.823524 1_655
Al3 O2 1.813229 1_555
Al3 O12 1.818873 1_555
Al3 O11 1.819407 1_555
Al3 O14 1.823524 1_555
Au0 Au2 2.974896 1_555
Au0 Au6 3.021836 1_555
Au0 Rb10 3.741922 1_555
Au0 Rb23 3.788773 1_555
Au0 Rb18 3.811009 1_555
Au0 Rb17 3.822397 1_555
Au0 Rb11 3.822566 1_555
Au0 Rb9 3.828170 1_555
Au0 Rb7 4.019381 1_555
Au0 Rb6 4.025686 1_555
Au0 Rb29 4.029592 1_555
Au0 Rb5 4.090377 1_555
Au1 Au4 2.974896 1_555
Au1 Rb15 3.517982 1_555
Au1 Rb3 3.546856 1_555
Au1 Rb24 3.550480 1_554
Au1 Rb2 3.626368 1_555
Au1 Rb30 3.629875 1_554
Au1 Rb26 3.711615 1_555
Au1 Rb14 3.865168 1_555
Au1 Rb21 4.115866 1_554
Au1 Rb25 4.190973 1_555
Au2 Rb11 3.517982 1_555
Au2 Rb0 3.546856 1_545
Au2 Rb18 3.550480 1_555
Au2 Rb31 3.626368 1_545
Au2 Rb9 3.629875 1_555
Au2 Rb6 3.711615 1_555
Au2 Rb7 3.865168 1_555
Au2 Rb22 4.115866 1_555
Au2 Rb13 4.190973 1_545
Au3 Au7 3.021836 1_555
Au3 Rb0 3.432663 1_445
Au3 Rb20 3.492440 1_545
Au3 Rb9 3.585093 1_455
Au3 Rb19 3.652648 1_555
Au3 Rb22 3.689045 1_455
Au3 Rb16 3.784231 1_545
Au3 Rb8 3.921900 1_555
Au3 Rb30 3.982966 1_545
Au4 Rb28 3.741922 1_565
Au4 Rb27 3.788773 1_564
Au4 Rb24 3.811009 1_554
Au4 Rb19 3.822397 1_564
Au4 Rb15 3.822566 1_555
Au4 Rb30 3.828170 1_554
Au4 Rb14 4.019381 1_555
Au4 Rb26 4.025686 1_555
Au4 Rb4 4.029592 1_565
Au4 Rb20 4.090377 1_554
Au5 Au8 3.021836 1_555
Au5 Rb3 3.432663 1_656
Au5 Rb5 3.492440 1_555
Au5 Rb30 3.585093 1_655
Au5 Rb17 3.652648 1_555
Au5 Rb21 3.689045 1_655
Au5 Rb1 3.784231 1_555
Au5 Rb12 3.921900 1_555
Au5 Rb9 3.982966 1_555
Au6 Rb23 3.432663 1_555
Au6 Rb10 3.492440 1_555
Au6 Rb6 3.585093 1_555
Au6 Rb2 3.652648 1_555
Au6 Rb25 3.689045 1_555
Au6 Rb29 3.784231 1_555
Au6 Rb7 3.921900 1_555
Au6 Rb26 3.982966 1_555
Au7 Rb20 3.741922 1_545
Au7 Rb0 3.788773 1_445
Au7 Rb11 3.811009 1_455
Au7 Rb31 3.822397 1_545
Au7 Rb18 3.822566 1_555
Au7 Rb6 3.828170 1_555
Au7 Rb8 4.019381 1_555
Au7 Rb9 4.025686 1_455
Au7 Rb16 4.029592 1_545
Au7 Rb28 4.090377 1_555
Au8 Au9 2.974896 1_555
Au8 Rb5 3.741922 1_555
Au8 Rb3 3.788773 1_656
Au8 Rb15 3.811009 1_656
Au8 Rb2 3.822397 1_556
Au8 Rb24 3.822566 1_555
Au8 Rb26 3.828170 1_556
Au8 Rb12 4.019381 1_555
Au8 Rb30 4.025686 1_655
Au8 Rb1 4.029592 1_555
Au8 Rb10 4.090377 1_556
Au9 Rb24 3.517982 1_555
Au9 Rb27 3.546856 1_565
Au9 Rb15 3.550480 1_656
Au9 Rb19 3.626368 1_665
Au9 Rb26 3.629875 1_556
Au9 Rb30 3.711615 1_655
Au9 Rb12 3.865168 1_555
Au9 Rb13 4.115866 1_556
Au9 Rb22 4.190973 1_565
Au10 Au7 2.974896 1_555
Au10 Rb18 3.517982 1_555
Au10 Rb23 3.546856 1_555
Au10 Rb11 3.550480 1_455
Au10 Rb17 3.626368 1_455
Au10 Rb6 3.629875 1_555
Au10 Rb9 3.711615 1_455
Au10 Rb8 3.865168 1_555
Au10 Rb25 4.115866 1_555
Au10 Rb21 4.190973 1_555
Au11 Au4 3.021836 1_555
Au11 Rb27 3.432663 1_564
Au11 Rb28 3.492440 1_565
Au11 Rb26 3.585093 1_555
Au11 Rb31 3.652648 1_555
Au11 Rb13 3.689045 1_555
Au11 Rb4 3.784231 1_565
Au11 Rb14 3.921900 1_555
Au11 Rb6 3.982966 1_565
O0 Rb26 2.684511 1_555
O0 Rb29 2.811111 1_555
O0 Rb15 2.872649 1_655
O0 Rb10 2.910049 1_555
O0 Rb13 2.917753 1_555
O1 Rb17 2.743111 1_555
O1 Rb0 2.751005 1_555
O1 Rb29 2.768184 1_555
O1 Rb12 2.901588 1_555
O1 Rb16 2.996025 1_655
O2 Rb20 2.754597 1_545
O2 Rb27 2.790794 1_555
O2 Rb8 2.884036 1_555
O2 Rb22 2.944076 1_555
O2 Rb18 3.049654 1_555
O3 Rb6 2.684511 1_555
O3 Rb4 2.811111 1_555
O3 Rb11 2.872649 1_455
O3 Rb28 2.910049 1_555
O3 Rb25 2.917753 1_555
O4 Rb28 2.754597 1_565
O4 Rb0 2.790794 1_455
O4 Rb14 2.884036 1_555
O4 Rb13 2.944076 1_455
O4 Rb15 3.049654 1_555
O5 Rb30 2.684511 1_555
O5 Rb16 2.811111 1_555
O5 Rb24 2.872649 1_555
O5 Rb20 2.910049 1_555
O5 Rb21 2.917753 1_555
O6 Rb17 2.793653 1_455
O6 Rb14 2.840570 1_555
O6 Rb25 2.858899 1_555
O6 Rb10 2.880570 1_455
O6 Rb15 3.038969 1_555
O7 Rb19 2.743111 1_554
O7 Rb3 2.751005 1_555
O7 Rb4 2.768184 1_555
O7 Rb8 2.901588 1_554
O7 Rb1 2.996025 1_454
O8 Rb5 2.754597 1_555
O8 Rb23 2.790794 1_555
O8 Rb12 2.884036 1_555
O8 Rb21 2.944076 1_555
O8 Rb24 3.049654 1_555
O9 Rb19 2.793653 1_654
O9 Rb7 2.840570 1_555
O9 Rb13 2.858899 1_545
O9 Rb28 2.880570 1_655
O9 Rb11 3.038969 1_555
O10 Rb31 2.743111 1_555
O10 Rb23 2.751005 1_555
O10 Rb16 2.768184 1_555
O10 Rb14 2.901588 1_555
O10 Rb29 2.996025 1_555
O11 Rb2 2.743111 1_556
O11 Rb27 2.751005 1_555
O11 Rb1 2.768184 1_555
O11 Rb7 2.901588 1_556
O11 Rb4 2.996025 1_556
O12 Rb9 2.684511 1_555
O12 Rb1 2.811111 1_555
O12 Rb18 2.872649 1_555
O12 Rb5 2.910049 1_555
O12 Rb22 2.917753 1_555
O13 Rb31 2.793653 1_555
O13 Rb12 2.840570 1_555
O13 Rb22 2.858899 1_565
O13 Rb20 2.880570 1_555
O13 Rb24 3.038969 1_555
O14 Rb2 2.793653 1_556
O14 Rb8 2.840570 1_555
O14 Rb21 2.858899 1_555
O14 Rb5 2.880570 1_555
O14 Rb18 3.038969 1_555
O15 Rb10 2.754597 1_555
O15 Rb3 2.790794 1_655
O15 Rb7 2.884036 1_555
O15 Rb25 2.944076 1_655
O15 Rb11 3.049654 1_555
