# generated using pymatgen
data_Zn(PO3)2
_symmetry_space_group_name_H-M   'P 1'
_cell_length_a   5.40106393
_cell_length_b   5.40106393
_cell_length_c   16.30625864
_cell_angle_alpha   88.46534640
_cell_angle_beta   88.46534640
_cell_angle_gamma   89.77469571
_symmetry_Int_Tables_number   1
_chemical_formula_structural   Zn(PO3)2
_chemical_formula_sum   'Zn4 P8 O24'
_cell_volume   475.33424560
_cell_formula_units_Z   4
loop_
 _symmetry_equiv_pos_site_id
 _symmetry_equiv_pos_as_xyz
  1  'x, y, z'
loop_
 _atom_site_type_symbol
 _atom_site_label
 _atom_site_symmetry_multiplicity
 _atom_site_fract_x
 _atom_site_fract_y
 _atom_site_fract_z
 _atom_site_occupancy
  Zn  Zn0  1  0.05776702  0.67427801  0.11906058  1
  Zn  Zn1  1  0.05771696  0.85543568  0.90318668  1
  Zn  Zn2  1  0.67427801  0.05776702  0.61906058  1
  Zn  Zn3  1  0.85543568  0.05771696  0.40318668  1
  P  P0  1  0.56681890  0.52693596  0.87583312  1
  P  P1  1  0.99274060  0.56737198  0.64737443  1
  P  P2  1  0.52693596  0.56681890  0.37583312  1
  P  P3  1  0.28762003  0.24662360  0.75931024  1
  P  P4  1  0.26878761  0.81241981  0.51154142  1
  P  P5  1  0.81241981  0.26878761  0.01154142  1
  P  P6  1  0.56737198  0.99274060  0.14737443  1
  P  P7  1  0.24662360  0.28762003  0.25931024  1
  O  O0  1  0.36880636  0.84159083  0.11297155  1
  O  O1  1  0.12953485  0.14192022  0.32779847  1
  O  O2  1  0.84159083  0.36880636  0.61297155  1
  O  O3  1  0.33325989  0.63346943  0.90897081  1
  O  O4  1  0.96549258  0.04092864  0.00103302  1
  O  O5  1  0.86865251  0.80194254  0.66951815  1
  O  O6  1  0.80194254  0.86865251  0.16951815  1
  O  O7  1  0.77897319  0.69352846  0.85859146  1
  O  O8  1  0.69352846  0.77897319  0.35859146  1
  O  O9  1  0.09482856  0.37721871  0.19012252  1
  O  O10  1  0.93558368  0.51103879  0.02327523  1
  O  O11  1  0.22323940  0.61891835  0.58527897  1
  O  O12  1  0.13093876  0.47721096  0.72680288  1
  O  O13  1  0.63346943  0.33325989  0.40897081  1
  O  O14  1  0.64009584  0.29739376  0.93456878  1
  O  O15  1  0.51103879  0.93558368  0.52327523  1
  O  O16  1  0.38488963  0.52306890  0.29338168  1
  O  O17  1  0.47721096  0.13093876  0.22680288  1
  O  O18  1  0.29739376  0.64009584  0.43456878  1
  O  O19  1  0.52306890  0.38488963  0.79338168  1
  O  O20  1  0.04092864  0.96549258  0.50103302  1
  O  O21  1  0.37721871  0.09482856  0.69012252  1
  O  O22  1  0.61891835  0.22323940  0.08527897  1
  O  O23  1  0.14192022  0.12953485  0.82779847  1
loop_
_geom_bond_atom_site_label_1
_geom_bond_atom_site_label_2
_geom_bond_distance
_geom_bond_site_symmetry_2
O0 P6 1.481548 1_555
O0 Zn0 1.909681 1_555
O1 P7 1.478318 1_555
O1 Zn3 1.946161 1_455
O2 P1 1.481548 1_555
O2 Zn2 1.909681 1_555
O3 P0 1.479457 1_555
O3 Zn1 1.910076 1_555
O4 P5 1.491029 1_555
O4 Zn1 1.958726 1_644
O5 P1 1.479707 1_555
O5 Zn2 1.913694 1_565
O6 P6 1.479707 1_555
O6 Zn0 1.913694 1_655
O7 P0 1.476122 1_555
O7 Zn1 1.913927 1_655
O8 P2 1.476122 1_555
O8 Zn3 1.913927 1_565
O9 P7 1.482008 1_555
O9 Zn0 1.966548 1_555
O10 P5 1.489342 1_555
O10 Zn0 1.945741 1_655
O11 P4 1.586625 1_555
O11 P1 1.603975 1_455
O12 P1 1.576993 1_455
O12 P3 1.590142 1_555
O13 P2 1.479457 1_555
O13 Zn3 1.910076 1_555
O14 P5 1.586365 1_556
O14 P0 1.601192 1_555
O15 P4 1.489342 1_555
O15 Zn2 1.945741 1_565
O16 P2 1.589257 1_555
O16 P7 1.597199 1_555
O17 P6 1.576993 1_545
O17 P7 1.590142 1_555
O18 P4 1.586365 1_555
O18 P2 1.601192 1_555
O19 P0 1.589257 1_555
O19 P3 1.597199 1_555
O20 P4 1.491029 1_555
O20 Zn3 1.958726 1_465
O21 P3 1.482008 1_555
O21 Zn2 1.966548 1_555
O22 P5 1.586625 1_555
O22 P6 1.603975 1_545
O23 P3 1.478318 1_555
O23 Zn1 1.946161 1_545
