# generated using pymatgen
data_Ce3CuSiSe7
_symmetry_space_group_name_H-M   'P 1'
_cell_length_a   10.66207405
_cell_length_b   10.66207405
_cell_length_c   6.11023700
_cell_angle_alpha   90.00000000
_cell_angle_beta   90.00000000
_cell_angle_gamma   120.00000032
_symmetry_Int_Tables_number   1
_chemical_formula_structural   Ce3CuSiSe7
_chemical_formula_sum   'Ce6 Cu2 Si2 Se14'
_cell_volume   601.55047631
_cell_formula_units_Z   2
loop_
 _symmetry_equiv_pos_site_id
 _symmetry_equiv_pos_as_xyz
  1  'x, y, z'
loop_
 _atom_site_type_symbol
 _atom_site_label
 _atom_site_symmetry_multiplicity
 _atom_site_fract_x
 _atom_site_fract_y
 _atom_site_fract_z
 _atom_site_occupancy
  Ce  Ce0  1  0.22875400  0.87357200  0.72962700  1
  Ce  Ce1  1  0.12642800  0.35518200  0.72962700  1
  Ce  Ce2  1  0.77124600  0.12642800  0.22962700  1
  Ce  Ce3  1  0.35518200  0.22875400  0.22962700  1
  Ce  Ce4  1  0.87357200  0.64481800  0.22962700  1
  Ce  Ce5  1  0.64481800  0.77124600  0.72962700  1
  Cu  Cu0  1  0.00000000  0.00000000  0.69150300  1
  Cu  Cu1  1  0.00000000  0.00000000  0.19150300  1
  Si  Si0  1  0.66666700  0.33333300  0.82000000  1
  Si  Si1  1  0.33333300  0.66666700  0.32000000  1
  Se  Se0  1  0.89481100  0.41637700  0.96647100  1
  Se  Se1  1  0.10518900  0.58362300  0.46647100  1
  Se  Se2  1  0.58362300  0.47843400  0.96647100  1
  Se  Se3  1  0.83602300  0.09015900  0.71521800  1
  Se  Se4  1  0.90984100  0.74586400  0.71521800  1
  Se  Se5  1  0.66666700  0.33333300  0.44734700  1
  Se  Se6  1  0.25413600  0.16397700  0.71521800  1
  Se  Se7  1  0.16397700  0.90984100  0.21521800  1
  Se  Se8  1  0.52156600  0.10518900  0.96647100  1
  Se  Se9  1  0.09015900  0.25413600  0.21521800  1
  Se  Se10  1  0.74586400  0.83602300  0.21521800  1
  Se  Se11  1  0.33333300  0.66666700  0.94734700  1
  Se  Se12  1  0.41637700  0.52156600  0.46647100  1
  Se  Se13  1  0.47843400  0.89481100  0.46647100  1
loop_
_geom_bond_atom_site_label_1
_geom_bond_atom_site_label_2
_geom_bond_distance
_geom_bond_site_symmetry_2
Ce0 Se4 2.965423 1_455
Ce0 Se6 2.971573 1_565
Ce0 Se13 3.020057 1_555
Ce0 Se7 3.114027 1_556
Ce0 Se1 3.131362 1_555
Ce0 Se8 3.198408 1_565
Ce0 Se11 3.215499 1_555
Ce0 Se7 3.282238 1_555
Ce1 Se6 2.965423 1_555
Ce1 Se3 2.971573 1_455
Ce1 Se1 3.020057 1_555
Ce1 Se9 3.114027 1_556
Ce1 Se12 3.131362 1_555
Ce1 Se0 3.198408 1_455
Ce1 Se11 3.215506 1_555
Ce1 Se9 3.282238 1_555
Ce2 Se9 2.965423 1_655
Ce2 Se10 2.971573 1_545
Ce2 Se8 3.020057 1_554
Ce2 Se3 3.114027 1_555
Ce2 Se0 3.131362 1_554
Ce2 Se13 3.198408 1_545
Ce2 Se5 3.215499 1_555
Ce2 Se3 3.282238 1_554
Ce3 Se7 2.965423 1_545
Ce3 Se9 2.971573 1_555
Ce3 Se2 3.020057 1_554
Ce3 Se6 3.114027 1_555
Ce3 Se8 3.131362 1_554
Ce3 Se12 3.198408 1_555
Ce3 Se5 3.215508 1_555
Ce3 Se6 3.282238 1_554
Ce4 Se10 2.965423 1_555
Ce4 Se7 2.971573 1_655
Ce4 Se0 3.020057 1_554
Ce4 Se4 3.114027 1_555
Ce4 Se2 3.131362 1_554
Ce4 Se1 3.198408 1_655
Ce4 Se5 3.215506 1_555
Ce4 Se4 3.282238 1_554
Ce5 Se3 2.965423 1_565
Ce5 Se4 2.971573 1_555
Ce5 Se12 3.020057 1_555
Ce5 Se10 3.114027 1_556
Ce5 Se13 3.131362 1_555
Ce5 Se2 3.198408 1_555
Ce5 Se11 3.215508 1_555
Ce5 Se10 3.282238 1_555
Cu0 Se6 2.383774 1_555
Cu0 Se4 2.383774 1_445
Cu0 Se3 2.383774 1_455
Cu1 Se10 2.383774 1_445
Cu1 Se9 2.383774 1_555
Cu1 Se7 2.383774 1_545
Se0 Si0 2.312611 1_555
Se1 Si1 2.312611 1_555
Se2 Si0 2.312620 1_555
Se5 Si0 2.276998 1_555
Se8 Si0 2.312612 1_555
Se11 Si1 2.276998 1_556
Se12 Si1 2.312620 1_555
Se13 Si1 2.312612 1_555
