# generated using pymatgen
data_Na4Ca(PO3)6
_symmetry_space_group_name_H-M   'P 1'
_cell_length_a   7.65659430
_cell_length_b   7.65659430
_cell_length_c   14.13620452
_cell_angle_alpha   85.73029388
_cell_angle_beta   85.73029388
_cell_angle_gamma   62.62901297
_symmetry_Int_Tables_number   1
_chemical_formula_structural   Na4Ca(PO3)6
_chemical_formula_sum   'Na8 Ca2 P12 O36'
_cell_volume   733.13721667
_cell_formula_units_Z   2
loop_
 _symmetry_equiv_pos_site_id
 _symmetry_equiv_pos_as_xyz
  1  'x, y, z'
loop_
 _atom_site_type_symbol
 _atom_site_label
 _atom_site_symmetry_multiplicity
 _atom_site_fract_x
 _atom_site_fract_y
 _atom_site_fract_z
 _atom_site_occupancy
  Na  Na0  1  0.20971722  0.46283404  0.45529185  1
  Na  Na1  1  0.53716596  0.79028278  0.04470815  1
  Na  Na2  1  0.79028278  0.53716596  0.54470815  1
  Na  Na3  1  0.46283404  0.20971722  0.95529185  1
  Na  Na4  1  0.70741843  0.95819158  0.41618824  1
  Na  Na5  1  0.04180842  0.29258157  0.08381176  1
  Na  Na6  1  0.29258157  0.04180842  0.58381176  1
  Na  Na7  1  0.95819158  0.70741843  0.91618824  1
  Ca  Ca0  1  0.37869181  0.62130819  0.75000000  1
  Ca  Ca1  1  0.62130819  0.37869181  0.25000000  1
  P  P0  1  0.96010120  0.85545374  0.61327432  1
  P  P1  1  0.14454626  0.03989880  0.88672568  1
  P  P2  1  0.03989880  0.14454626  0.38672568  1
  P  P3  1  0.85545374  0.96010120  0.11327432  1
  P  P4  1  0.63318400  0.91196467  0.74813184  1
  P  P5  1  0.08803533  0.36681600  0.75186816  1
  P  P6  1  0.36681600  0.08803533  0.25186816  1
  P  P7  1  0.91196467  0.63318400  0.24813184  1
  P  P8  1  0.60335730  0.22371145  0.60869915  1
  P  P9  1  0.77628855  0.39664270  0.89130085  1
  P  P10  1  0.39664270  0.77628855  0.39130085  1
  P  P11  1  0.22371145  0.60335730  0.10869915  1
  O  O0  1  0.16410051  0.81348087  0.63189288  1
  O  O1  1  0.18651913  0.83589949  0.86810712  1
  O  O2  1  0.83589949  0.18651913  0.36810712  1
  O  O3  1  0.81348087  0.16410051  0.13189288  1
  O  O4  1  0.92282019  0.75776628  0.53612718  1
  O  O5  1  0.24223372  0.07717981  0.96387282  1
  O  O6  1  0.07717981  0.24223372  0.46387282  1
  O  O7  1  0.75776628  0.92282019  0.03612718  1
  O  O8  1  0.83747606  0.09053082  0.59692827  1
  O  O9  1  0.90946918  0.16252394  0.90307173  1
  O  O10  1  0.16252394  0.90946918  0.40307173  1
  O  O11  1  0.09053082  0.83747606  0.09692827  1
  O  O12  1  0.86140558  0.82117822  0.71251209  1
  O  O13  1  0.17882178  0.13859442  0.78748791  1
  O  O14  1  0.13859442  0.17882178  0.28748791  1
  O  O15  1  0.82117822  0.86140558  0.21251209  1
  O  O16  1  0.53471431  0.81985303  0.69724820  1
  O  O17  1  0.18014697  0.46528569  0.80275180  1
  O  O18  1  0.46528569  0.18014697  0.30275180  1
  O  O19  1  0.81985303  0.53471431  0.19724820  1
  O  O20  1  0.62701782  0.90654811  0.85275608  1
  O  O21  1  0.09345189  0.37298218  0.64724392  1
  O  O22  1  0.37298218  0.09345189  0.14724392  1
  O  O23  1  0.90654811  0.62701782  0.35275608  1
  O  O24  1  0.55514344  0.13745284  0.70919943  1
  O  O25  1  0.86254716  0.44485656  0.79080057  1
  O  O26  1  0.44485656  0.86254716  0.29080057  1
  O  O27  1  0.13745284  0.55514344  0.20919943  1
  O  O28  1  0.57088834  0.42618246  0.62452575  1
  O  O29  1  0.57381754  0.42911166  0.87547425  1
  O  O30  1  0.42911166  0.57381754  0.37547425  1
  O  O31  1  0.42618246  0.57088834  0.12452575  1
  O  O32  1  0.50227179  0.18821500  0.53248434  1
  O  O33  1  0.81178500  0.49772821  0.96751566  1
  O  O34  1  0.49772821  0.81178500  0.46751566  1
  O  O35  1  0.18821500  0.50227179  0.03248434  1
loop_
_geom_bond_atom_site_label_1
_geom_bond_atom_site_label_2
_geom_bond_distance
_geom_bond_site_symmetry_2
Na0 O6 2.329075 1_555
Na0 O30 2.388408 1_555
Na0 O32 2.514144 1_555
Na0 O23 2.572151 1_455
Na0 O4 2.584526 1_455
Na1 O7 2.329075 1_555
Na1 O31 2.388408 1_555
Na1 O33 2.514144 1_554
Na1 O22 2.572151 1_565
Na1 O5 2.584526 1_564
Na2 O4 2.329075 1_555
Na2 O28 2.388408 1_555
Na2 O34 2.514144 1_555
Na2 O21 2.572151 1_655
Na2 O6 2.584526 1_655
Na3 O5 2.329075 1_555
Na3 O29 2.388408 1_555
Na3 O35 2.514144 1_556
Na3 O20 2.572151 1_545
Na3 O7 2.584526 1_546
Na4 O4 2.377263 1_555
Na4 O34 2.391863 1_555
Na4 O32 2.403048 1_565
Na4 O2 2.406401 1_565
Na4 O18 2.456901 1_565
Na4 O23 2.477580 1_555
Na5 O5 2.377263 1_554
Na5 O35 2.391863 1_555
Na5 O33 2.403048 1_454
Na5 O3 2.406401 1_455
Na5 O19 2.456901 1_455
Na5 O22 2.477580 1_555
Na6 O6 2.377263 1_555
Na6 O32 2.391863 1_555
Na6 O34 2.403048 1_545
Na6 O0 2.406401 1_545
Na6 O16 2.456901 1_545
Na6 O21 2.477580 1_555
Na7 O7 2.377263 1_556
Na7 O33 2.391863 1_555
Na7 O35 2.403048 1_656
Na7 O1 2.406401 1_655
Na7 O17 2.456901 1_655
Na7 O20 2.477580 1_555
Ca0 O0 2.339191 1_555
Ca0 O1 2.339191 1_555
Ca0 O29 2.351180 1_555
Ca0 O28 2.351180 1_555
Ca0 O16 2.379594 1_555
Ca0 O17 2.379594 1_555
Ca1 O2 2.339191 1_555
Ca1 O3 2.339191 1_555
Ca1 O30 2.351180 1_555
Ca1 O31 2.351180 1_555
Ca1 O19 2.379594 1_555
Ca1 O18 2.379594 1_555
O0 P0 1.482995 1_455
O1 P1 1.482995 1_565
O2 P2 1.482995 1_655
O3 P3 1.482995 1_545
O4 P0 1.481343 1_555
O5 P1 1.481343 1_555
O6 P2 1.481343 1_555
O7 P3 1.481343 1_555
O8 P8 1.606503 1_555
O8 P0 1.609666 1_545
O9 P9 1.606503 1_555
O9 P1 1.609666 1_655
O10 P10 1.606503 1_555
O10 P2 1.609666 1_565
O11 P11 1.606503 1_555
O11 P3 1.609666 1_455
O12 P0 1.605480 1_555
O12 P4 1.610705 1_555
O13 P1 1.605480 1_555
O13 P5 1.610705 1_555
O14 P2 1.605480 1_555
O14 P6 1.610705 1_555
O15 P3 1.605480 1_555
O15 P7 1.610705 1_555
O16 P4 1.492793 1_555
O17 P5 1.492793 1_555
O18 P6 1.492793 1_555
O19 P7 1.492793 1_555
O20 P4 1.474323 1_555
O21 P5 1.474323 1_555
O22 P6 1.474323 1_555
O23 P7 1.474323 1_555
O24 P8 1.611585 1_555
O24 P4 1.612312 1_545
O25 P9 1.611585 1_555
O25 P5 1.612312 1_655
O26 P10 1.611585 1_555
O26 P6 1.612312 1_565
O27 P11 1.611585 1_555
O27 P7 1.612312 1_455
O28 P8 1.484618 1_555
O29 P9 1.484618 1_555
O30 P10 1.484618 1_555
O31 P11 1.484618 1_555
O32 P8 1.481501 1_555
O33 P9 1.481501 1_555
O34 P10 1.481501 1_555
O35 P11 1.481501 1_555
