# generated using pymatgen
data_LiV(GeO3)2
_symmetry_space_group_name_H-M   'P 1'
_cell_length_a   8.87554300
_cell_length_b   5.47302300
_cell_length_c   9.80838305
_cell_angle_alpha   75.63460115
_cell_angle_beta   90.00000000
_cell_angle_gamma   90.00000000
_symmetry_Int_Tables_number   1
_chemical_formula_structural   LiV(GeO3)2
_chemical_formula_sum   'Li4 V4 Ge8 O24'
_cell_volume   461.55535502
_cell_formula_units_Z   4
loop_
 _symmetry_equiv_pos_site_id
 _symmetry_equiv_pos_as_xyz
  1  'x, y, z'
loop_
 _atom_site_type_symbol
 _atom_site_label
 _atom_site_symmetry_multiplicity
 _atom_site_fract_x
 _atom_site_fract_y
 _atom_site_fract_z
 _atom_site_occupancy
  Li  Li0  1  0.51533000  0.45873600  0.75650800  1
  Li  Li1  1  0.01533000  0.04126400  0.24349200  1
  Li  Li2  1  0.48467000  0.54126400  0.24349200  1
  Li  Li3  1  0.98467000  0.95873600  0.75650800  1
  V  V0  1  0.34406900  0.95867600  0.75197300  1
  V  V1  1  0.84406900  0.54132400  0.24802700  1
  V  V2  1  0.65593100  0.04132400  0.24802700  1
  V  V3  1  0.15593100  0.45867600  0.75197300  1
  Ge  Ge0  1  0.65928100  0.81914900  0.94810600  1
  Ge  Ge1  1  0.15928100  0.68085100  0.05189400  1
  Ge  Ge2  1  0.34071900  0.18085100  0.05189400  1
  Ge  Ge3  1  0.84071900  0.31914900  0.94810600  1
  Ge  Ge4  1  0.65727400  0.23665700  0.54466900  1
  Ge  Ge5  1  0.15727400  0.26334300  0.45533100  1
  Ge  Ge6  1  0.34272600  0.76334300  0.45533100  1
  Ge  Ge7  1  0.84272600  0.73665700  0.54466900  1
  O  O0  1  0.47978300  0.17400100  0.61733500  1
  O  O1  1  0.97978300  0.32599900  0.38266500  1
  O  O2  1  0.52021700  0.82599900  0.38266500  1
  O  O3  1  0.02021700  0.67400100  0.61733500  1
  O  O4  1  0.66745300  0.75323100  0.13542700  1
  O  O5  1  0.16745300  0.74676900  0.86457300  1
  O  O6  1  0.33254700  0.24676900  0.86457300  1
  O  O7  1  0.83254700  0.25323100  0.13542700  1
  O  O8  1  0.16582700  0.17646000  0.64177100  1
  O  O9  1  0.66582700  0.32354000  0.35822900  1
  O  O10  1  0.83417300  0.82354000  0.35822900  1
  O  O11  1  0.33417300  0.67646000  0.64177100  1
  O  O12  1  0.49777700  0.73975600  0.86838200  1
  O  O13  1  0.99777700  0.76024400  0.13161800  1
  O  O14  1  0.50222300  0.26024400  0.13161800  1
  O  O15  1  0.00222300  0.23975600  0.86838200  1
  O  O16  1  0.70986600  0.49549200  0.61603300  1
  O  O17  1  0.20986600  0.00450800  0.38396700  1
  O  O18  1  0.29013400  0.50450800  0.38396700  1
  O  O19  1  0.79013400  0.99549200  0.61603300  1
  O  O20  1  0.81094300  0.65331200  0.88830400  1
  O  O21  1  0.31094300  0.84668800  0.11169600  1
  O  O22  1  0.18905700  0.34668800  0.11169600  1
  O  O23  1  0.68905700  0.15331200  0.88830400  1
loop_
_geom_bond_atom_site_label_1
_geom_bond_atom_site_label_2
_geom_bond_distance
_geom_bond_site_symmetry_2
Li0 O12 2.105071 1_555
Li0 O6 2.119199 1_555
Li0 O11 2.146213 1_555
Li0 O16 2.186903 1_555
Li0 O0 2.333879 1_555
Li0 O23 2.402204 1_555
Li1 O13 2.105071 1_445
Li1 O7 2.119199 1_455
Li1 O10 2.146213 1_445
Li1 O17 2.186903 1_555
Li1 O1 2.333879 1_455
Li1 O22 2.402204 1_555
Li2 O14 2.105071 1_555
Li2 O4 2.119199 1_555
Li2 O9 2.146213 1_555
Li2 O18 2.186903 1_555
Li2 O2 2.333879 1_555
Li2 O21 2.402204 1_555
Li3 O15 2.105071 1_665
Li3 O5 2.119199 1_655
Li3 O8 2.146213 1_665
Li3 O19 2.186903 1_555
Li3 O3 2.333879 1_655
Li3 O20 2.402204 1_555
Ge0 O12 1.738854 1_555
Ge0 O4 1.783882 1_556
Ge0 O23 1.796217 1_565
Ge0 O20 1.801099 1_555
Ge1 O13 1.738854 1_455
Ge1 O5 1.783882 1_554
Ge1 O22 1.796217 1_555
Ge1 O21 1.801099 1_555
Ge2 O14 1.738854 1_555
Ge2 O6 1.783882 1_554
Ge2 O21 1.796217 1_545
Ge2 O22 1.801099 1_555
Ge3 O15 1.738854 1_655
Ge3 O7 1.783882 1_556
Ge3 O20 1.796217 1_555
Ge3 O23 1.801099 1_555
Ge4 O0 1.727995 1_555
Ge4 O9 1.773258 1_555
Ge4 O19 1.778813 1_545
Ge4 O16 1.790713 1_555
Ge5 O1 1.727995 1_455
Ge5 O8 1.773258 1_555
Ge5 O18 1.778813 1_555
Ge5 O17 1.790713 1_555
Ge6 O2 1.727995 1_555
Ge6 O11 1.773258 1_555
Ge6 O17 1.778813 1_565
Ge6 O18 1.790713 1_555
Ge7 O3 1.727995 1_655
Ge7 O10 1.773258 1_555
Ge7 O16 1.778813 1_555
Ge7 O19 1.790713 1_555
O0 V0 1.952284 1_545
O1 V1 1.952284 1_555
O2 V2 1.952284 1_565
O3 V3 1.952284 1_555
O4 V1 2.094395 1_555
O4 V2 2.140190 1_565
O5 V0 2.094395 1_555
O5 V3 2.140190 1_555
O6 V3 2.094395 1_555
O6 V0 2.140190 1_545
O7 V2 2.094395 1_555
O7 V1 2.140190 1_555
O8 V3 2.095285 1_555
O8 V0 2.110088 1_545
O9 V2 2.095285 1_555
O9 V1 2.110088 1_555
O10 V1 2.095285 1_555
O10 V2 2.110088 1_565
O11 V0 2.095285 1_555
O11 V3 2.110088 1_555
O12 V0 1.980295 1_555
O13 V1 1.980295 1_555
O14 V2 1.980295 1_555
O15 V3 1.980295 1_555
