# generated using pymatgen
data_Cs3As11
_symmetry_space_group_name_H-M   'P 1'
_cell_length_a   10.24619141
_cell_length_b   10.24619187
_cell_length_c   19.60428040
_cell_angle_alpha   93.18606269
_cell_angle_beta   93.18606630
_cell_angle_gamma   98.58119063
_symmetry_Int_Tables_number   1
_chemical_formula_structural   Cs3As11
_chemical_formula_sum   'Cs12 As44'
_cell_volume   2027.70201252
_cell_formula_units_Z   4
loop_
 _symmetry_equiv_pos_site_id
 _symmetry_equiv_pos_as_xyz
  1  'x, y, z'
loop_
 _atom_site_type_symbol
 _atom_site_label
 _atom_site_symmetry_multiplicity
 _atom_site_fract_x
 _atom_site_fract_y
 _atom_site_fract_z
 _atom_site_occupancy
  Cs  Cs0  1  0.20479308  0.71058756  0.10848237  1
  Cs  Cs1  1  0.30506830  0.46886067  0.87028066  1
  Cs  Cs2  1  0.69493170  0.53113933  0.12971934  1
  Cs  Cs3  1  0.74232302  0.02615084  0.11920458  1
  Cs  Cs4  1  0.97384916  0.25767698  0.38079542  1
  Cs  Cs5  1  0.79520692  0.28941244  0.89151763  1
  Cs  Cs6  1  0.53113933  0.69493170  0.62971934  1
  Cs  Cs7  1  0.71058756  0.20479308  0.60848237  1
  Cs  Cs8  1  0.46886067  0.30506830  0.37028066  1
  Cs  Cs9  1  0.02615084  0.74232302  0.61920458  1
  Cs  Cs10  1  0.28941244  0.79520692  0.39151763  1
  Cs  Cs11  1  0.25767698  0.97384916  0.88079542  1
  As  As0  1  0.28467730  0.02200723  0.24483596  1
  As  As1  1  0.97799277  0.71532270  0.25516404  1
  As  As2  1  0.93283007  0.90698936  0.31890839  1
  As  As3  1  0.66355184  0.60240235  0.94600837  1
  As  As4  1  0.55814528  0.83482617  0.81357668  1
  As  As5  1  0.63822016  0.01100599  0.39729072  1
  As  As6  1  0.47661882  0.25260589  0.00635154  1
  As  As7  1  0.27127001  0.11781159  0.51914222  1
  As  As8  1  0.09301064  0.06716993  0.18109161  1
  As  As9  1  0.71532270  0.97799277  0.75516404  1
  As  As10  1  0.05175384  0.14825253  0.55901395  1
  As  As11  1  0.52338018  0.74739411  0.99364846  1
  As  As12  1  0.06765251  0.39176239  0.56947976  1
  As  As13  1  0.06716993  0.09301064  0.68109161  1
  As  As14  1  0.14825253  0.05175384  0.05901395  1
  As  As15  1  0.83482617  0.55814528  0.31357668  1
  As  As16  1  0.37517286  0.34892109  0.67927608  1
  As  As17  1  0.11781159  0.27127001  0.01914222  1
  As  As18  1  0.39759765  0.33644816  0.55399163  1
  As  As19  1  0.65107891  0.62482714  0.82072392  1
  As  As20  1  0.93234749  0.60823761  0.43052024  1
  As  As21  1  0.62482714  0.65107891  0.32072392  1
  As  As22  1  0.85174747  0.94824616  0.94098605  1
  As  As23  1  0.74739411  0.52338018  0.49364846  1
  As  As24  1  0.36177984  0.98899401  0.60270928  1
  As  As25  1  0.34892109  0.37517286  0.17927608  1
  As  As26  1  0.69187976  0.88714177  0.29832382  1
  As  As27  1  0.33644816  0.39759765  0.05399163  1
  As  As28  1  0.01100599  0.63822016  0.89729072  1
  As  As29  1  0.02200723  0.28467730  0.74483596  1
  As  As30  1  0.98899401  0.36177984  0.10270928  1
  As  As31  1  0.94824616  0.85174747  0.44098605  1
  As  As32  1  0.90698936  0.93283007  0.81890839  1
  As  As33  1  0.60823761  0.93234749  0.93052024  1
  As  As34  1  0.11285823  0.30812024  0.20167618  1
  As  As35  1  0.39176239  0.06765251  0.06947976  1
  As  As36  1  0.88714177  0.69187976  0.79832382  1
  As  As37  1  0.72872999  0.88218841  0.48085778  1
  As  As38  1  0.88218841  0.72872999  0.98085778  1
  As  As39  1  0.44185472  0.16517383  0.18642332  1
  As  As40  1  0.60240235  0.66355184  0.44600837  1
  As  As41  1  0.30812024  0.11285823  0.70167618  1
  As  As42  1  0.16517383  0.44185472  0.68642332  1
  As  As43  1  0.25260589  0.47661882  0.50635154  1
loop_
_geom_bond_atom_site_label_1
_geom_bond_atom_site_label_2
_geom_bond_distance
_geom_bond_site_symmetry_2
As0 As8 2.386459 1_555
As0 As39 2.396562 1_555
As0 Cs10 3.799017 1_545
As0 Cs8 3.883169 1_555
As0 Cs0 4.003297 1_545
As1 As2 2.386459 1_555
As1 As15 2.396562 1_555
As1 Cs0 3.799017 1_655
As1 Cs2 3.883168 1_555
As1 Cs10 4.003297 1_655
As2 As26 2.455524 1_555
As2 As31 2.491623 1_555
As2 Cs4 3.683457 1_565
As2 Cs10 4.187937 1_655
As3 As38 2.454972 1_555
As3 Cs2 3.720369 1_556
As3 Cs5 3.783621 1_555
As3 Cs1 3.903339 1_555
As4 As9 2.396562 1_555
As4 Cs6 3.784082 1_555
As4 Cs11 3.846393 1_555
As5 Cs8 3.742377 1_555
As5 Cs10 3.904349 1_545
As5 Cs4 3.992414 1_555
As6 Cs2 3.965356 1_555
As6 Cs11 3.992700 1_544
As6 Cs5 4.050914 1_554
As6 Cs1 4.051346 1_554
As7 Cs8 4.051748 1_555
As7 Cs10 4.066497 1_545
As8 Cs3 3.683457 1_455
As8 Cs0 4.187937 1_545
As9 Cs7 3.799017 1_565
As9 Cs6 3.883169 1_555
As9 Cs5 4.003297 1_565
As10 As12 2.472244 1_555
As10 As7 2.478885 1_555
As10 As13 2.491623 1_555
As10 Cs7 3.796635 1_455
As10 Cs4 3.807056 1_455
As11 As33 2.401554 1_555
As11 As3 2.402844 1_555
As11 Cs1 3.965352 1_555
As11 Cs3 3.992704 1_566
As11 Cs0 4.050906 1_556
As11 Cs2 4.051351 1_556
As12 As43 2.401552 1_555
As12 As42 2.445277 1_555
As12 Cs9 3.761064 1_555
As12 Cs4 3.891000 1_455
As12 Cs7 4.002733 1_455
As13 As29 2.386459 1_555
As13 As41 2.455524 1_555
As13 Cs9 3.683457 1_545
As13 Cs7 4.187937 1_455
As14 As35 2.472244 1_555
As14 As17 2.478885 1_555
As14 As8 2.491623 1_555
As14 Cs0 3.796635 1_545
As14 Cs11 3.807057 1_544
As15 As20 2.445277 1_555
As15 As21 2.487213 1_555
As15 Cs2 3.784082 1_555
As15 Cs4 3.846393 1_555
As16 As18 2.477542 1_555
As16 As41 2.484127 1_555
As16 As42 2.487213 1_555
As16 Cs6 3.864124 1_555
As16 Cs1 4.012287 1_555
As16 Cs7 4.211291 1_555
As17 As30 2.392245 1_455
As17 As27 2.454972 1_555
As17 Cs1 4.051748 1_554
As17 Cs5 4.066497 1_454
As18 As43 2.402837 1_555
As18 As7 2.454972 1_555
As18 Cs8 3.720369 1_555
As18 Cs7 3.783621 1_555
As18 Cs6 3.903339 1_555
As19 As3 2.477542 1_555
As19 As36 2.484127 1_555
As19 As4 2.487213 1_555
As19 Cs1 3.864124 1_555
As19 Cs6 4.012287 1_555
As19 Cs5 4.211291 1_555
As20 As23 2.401554 1_555
As20 As31 2.472244 1_555
As20 Cs4 3.761064 1_555
As20 Cs9 3.891000 1_655
As20 Cs10 4.002733 1_655
As21 As40 2.477542 1_555
As21 As26 2.484127 1_555
As21 Cs8 3.864124 1_555
As21 Cs2 4.012287 1_555
As21 Cs10 4.211291 1_555
As22 As33 2.472244 1_555
As22 As38 2.478885 1_555
As22 As32 2.491623 1_555
As22 Cs5 3.796635 1_565
As22 Cs3 3.807057 1_566
As23 As40 2.402844 1_555
As23 Cs8 3.965352 1_555
As23 Cs9 3.992704 1_655
As23 Cs7 4.050906 1_555
As23 Cs6 4.051352 1_555
As24 As7 2.392245 1_565
As24 As41 2.393820 1_565
As24 Cs6 3.742377 1_555
As24 Cs7 3.904349 1_565
As24 Cs9 3.992414 1_555
As25 As27 2.477542 1_555
As25 As34 2.484127 1_555
As25 As39 2.487213 1_555
As25 Cs2 3.864124 1_555
As25 Cs8 4.012287 1_555
As25 Cs0 4.211291 1_555
As26 As5 2.393820 1_565
As26 Cs3 3.894159 1_565
As27 As6 2.402837 1_555
As27 Cs1 3.720369 1_554
As27 Cs0 3.783621 1_555
As27 Cs2 3.903339 1_555
As28 As38 2.392245 1_455
As28 As36 2.393819 1_455
As28 Cs1 3.742377 1_555
As28 Cs5 3.904350 1_455
As28 Cs11 3.992414 1_555
As29 As42 2.396562 1_555
As29 Cs5 3.799017 1_455
As29 Cs1 3.883168 1_555
As29 Cs7 4.003297 1_455
As30 As34 2.393819 1_655
As30 Cs2 3.742377 1_555
As30 Cs0 3.904350 1_655
As30 Cs3 3.992414 1_555
As31 As37 2.478885 1_555
As31 Cs10 3.796635 1_655
As31 Cs9 3.807056 1_655
As32 As9 2.386459 1_555
As32 As36 2.455524 1_555
As32 Cs11 3.683457 1_655
As32 Cs5 4.187937 1_565
As33 As4 2.445277 1_555
As33 Cs11 3.761063 1_555
As33 Cs3 3.891000 1_566
As33 Cs5 4.002733 1_565
As34 As8 2.455524 1_555
As34 Cs4 3.894159 1_455
As35 As6 2.401552 1_555
As35 As39 2.445277 1_555
As35 Cs3 3.761063 1_555
As35 Cs11 3.891000 1_544
As35 Cs0 4.002733 1_545
As36 Cs9 3.894159 1_655
As37 As5 2.392245 1_565
As37 As40 2.454972 1_555
As37 Cs6 4.051748 1_555
As37 Cs7 4.066497 1_565
As38 Cs2 4.051748 1_556
As38 Cs0 4.066497 1_656
As39 Cs8 3.784082 1_555
As39 Cs3 3.846393 1_555
As40 Cs6 3.720369 1_555
As40 Cs10 3.783621 1_555
As40 Cs8 3.903339 1_555
As41 Cs11 3.894159 1_545
As42 Cs1 3.784082 1_555
As42 Cs9 3.846393 1_555
As43 Cs6 3.965356 1_555
As43 Cs4 3.992700 1_455
As43 Cs10 4.050914 1_555
As43 Cs8 4.051347 1_555
