# generated using pymatgen
data_BiAu2
_symmetry_space_group_name_H-M   'P 1'
_cell_length_a   5.67557869
_cell_length_b   5.67557723
_cell_length_c   5.67557853
_cell_angle_alpha   59.99999836
_cell_angle_beta   60.00000695
_cell_angle_gamma   59.99999963
_symmetry_Int_Tables_number   1
_chemical_formula_structural   BiAu2
_chemical_formula_sum   'Bi2 Au4'
_cell_volume   129.27523715
_cell_formula_units_Z   2
loop_
 _symmetry_equiv_pos_site_id
 _symmetry_equiv_pos_as_xyz
  1  'x, y, z'
loop_
 _atom_site_type_symbol
 _atom_site_label
 _atom_site_symmetry_multiplicity
 _atom_site_fract_x
 _atom_site_fract_y
 _atom_site_fract_z
 _atom_site_occupancy
  Bi  Bi0  1  0.87500000  0.87500000  0.87500000  1
  Bi  Bi1  1  0.12500000  0.12500000  0.12500000  1
  Au  Au0  1  0.50000000  0.00000000  0.50000000  1
  Au  Au1  1  -0.00000000  0.50000000  0.50000000  1
  Au  Au2  1  0.50000000  0.50000000  0.50000000  1
  Au  Au3  1  0.50000000  0.50000000  -0.00000000  1
loop_
_geom_bond_atom_site_label_1
_geom_bond_atom_site_label_2
_geom_bond_distance
_geom_bond_site_symmetry_2
Au0 Au2 2.837789 1_545
Au0 Au2 2.837789 1_555
Au0 Au3 2.837789 1_555
Au0 Au3 2.837789 1_546
Au0 Au1 2.837789 1_645
Au0 Au1 2.837789 1_555
Au0 Bi0 3.327603 1_545
Au0 Bi1 3.327603 1_555
Au0 Bi1 3.327603 1_556
Au0 Bi0 3.327603 1_544
Au0 Bi0 3.327603 1_445
Au0 Bi1 3.327603 1_655
Au1 Au2 2.837789 1_455
Au1 Au2 2.837789 1_555
Au1 Au3 2.837790 1_555
Au1 Au3 2.837790 1_456
Au1 Bi1 3.327602 1_565
Au1 Bi0 3.327602 1_445
Au1 Bi0 3.327603 1_455
Au1 Bi1 3.327603 1_555
Au1 Bi1 3.327603 1_556
Au1 Bi0 3.327603 1_454
Au2 Au3 2.837789 1_556
Au2 Au3 2.837789 1_555
Au2 Bi1 3.327602 1_565
Au2 Bi0 3.327602 1_545
Au2 Bi1 3.327603 1_556
Au2 Bi0 3.327603 1_554
Au2 Bi1 3.327603 1_655
Au2 Bi0 3.327603 1_455
Au3 Bi1 3.327602 1_565
Au3 Bi0 3.327602 1_544
Au3 Bi0 3.327603 1_554
Au3 Bi1 3.327603 1_555
Au3 Bi0 3.327603 1_454
Au3 Bi1 3.327603 1_655
