# generated using pymatgen
data_NaAg(NO2)2
_symmetry_space_group_name_H-M   'P 1'
_cell_length_a   7.75557366
_cell_length_b   6.95018417
_cell_length_c   6.76678897
_cell_angle_alpha   68.84517087
_cell_angle_beta   56.69510269
_cell_angle_gamma   54.45972645
_symmetry_Int_Tables_number   1
_chemical_formula_structural   NaAg(NO2)2
_chemical_formula_sum   'Na2 Ag2 N4 O8'
_cell_volume   247.58495199
_cell_formula_units_Z   2
loop_
 _symmetry_equiv_pos_site_id
 _symmetry_equiv_pos_as_xyz
  1  'x, y, z'
loop_
 _atom_site_type_symbol
 _atom_site_label
 _atom_site_symmetry_multiplicity
 _atom_site_fract_x
 _atom_site_fract_y
 _atom_site_fract_z
 _atom_site_occupancy
  Na  Na0  1  0.25000000  0.25000000  0.25000000  1
  Na  Na1  1  0.50000000  0.50000000  0.50000000  1
  Ag  Ag0  1  0.75000000  0.75000000  0.75000000  1
  Ag  Ag1  1  0.00000000  0.00000000  0.00000000  1
  N  N0  1  0.48047100  0.01952900  0.48047100  1
  N  N1  1  0.01953000  0.48047100  0.01952900  1
  N  N2  1  0.20197300  0.79802700  0.20197300  1
  N  N3  1  0.79802700  0.20197300  0.79802700  1
  O  O0  1  0.22319000  0.59881600  0.30336600  1
  O  O1  1  0.48973300  0.82741700  0.59880600  1
  O  O2  1  0.87462800  0.30336600  0.59881600  1
  O  O3  1  0.82741700  0.48973300  0.08404400  1
  O  O4  1  0.08404400  0.59880600  0.82741700  1
  O  O5  1  0.30336600  0.87462800  0.22319000  1
  O  O6  1  0.59881600  0.22319000  0.87462800  1
  O  O7  1  0.59880600  0.08404400  0.48973300  1
loop_
_geom_bond_atom_site_label_1
_geom_bond_atom_site_label_2
_geom_bond_distance
_geom_bond_site_symmetry_2
Na0 O0 2.452438 1_555
Na0 O6 2.452438 1_554
Na0 O2 2.452438 1_455
Na0 O5 2.452438 1_545
Na1 O1 2.541812 1_555
Na1 O4 2.541812 1_555
Na1 O3 2.541812 1_555
Na1 O7 2.541812 1_555
Na1 O2 2.759401 1_555
Na1 O6 2.759401 1_555
Na1 O5 2.759401 1_555
Na1 O0 2.759401 1_555
Ag0 O4 2.453286 1_655
Ag0 O3 2.453286 1_556
Ag0 O7 2.453286 1_565
Ag0 O1 2.453286 1_555
Ag1 N2 2.168428 1_545
Ag1 N3 2.168428 1_454
N0 O1 1.268509 1_545
N0 O7 1.268509 1_555
N0 Na0 2.474389 1_555
N1 O4 1.268507 1_554
N1 O3 1.268516 1_455
N1 Na0 2.474384 1_555
N2 O0 1.260267 1_555
N2 O5 1.260267 1_555
N3 O6 1.260267 1_555
N3 O2 1.260267 1_555
