# generated using pymatgen
data_Ca5Ir
_symmetry_space_group_name_H-M   'P 1'
_cell_length_a   6.78579519
_cell_length_b   7.66031565
_cell_length_c   15.76290078
_cell_angle_alpha   90.00000000
_cell_angle_beta   90.00000000
_cell_angle_gamma   89.99990025
_symmetry_Int_Tables_number   1
_chemical_formula_structural   Ca5Ir
_chemical_formula_sum   'Ca20 Ir4'
_cell_volume   819.37659594
_cell_formula_units_Z   4
loop_
 _symmetry_equiv_pos_site_id
 _symmetry_equiv_pos_as_xyz
  1  'x, y, z'
loop_
 _atom_site_type_symbol
 _atom_site_label
 _atom_site_symmetry_multiplicity
 _atom_site_fract_x
 _atom_site_fract_y
 _atom_site_fract_z
 _atom_site_occupancy
  Ca  Ca0  1  0.15392006  0.09239369  0.25000000  1
  Ca  Ca1  1  0.85847122  0.19329087  0.56686651  1
  Ca  Ca2  1  0.84607994  0.90760631  0.75000000  1
  Ca  Ca3  1  0.82257971  0.46645042  0.14602650  1
  Ca  Ca4  1  0.17742029  0.53354958  0.64602650  1
  Ca  Ca5  1  0.35847122  0.30670813  0.06686651  1
  Ca  Ca6  1  0.34607994  0.59239469  0.25000000  1
  Ca  Ca7  1  0.82257971  0.46645042  0.35397350  1
  Ca  Ca8  1  0.32258071  0.03354858  0.85397350  1
  Ca  Ca9  1  0.14152878  0.80670913  0.06686651  1
  Ca  Ca10  1  0.64152878  0.69329187  0.56686651  1
  Ca  Ca11  1  0.67741929  0.96645142  0.35397350  1
  Ca  Ca12  1  0.64152878  0.69329187  0.93313349  1
  Ca  Ca13  1  0.32258071  0.03354858  0.64602650  1
  Ca  Ca14  1  0.14152878  0.80670913  0.43313349  1
  Ca  Ca15  1  0.65392006  0.40760531  0.75000000  1
  Ca  Ca16  1  0.17742029  0.53354958  0.85397350  1
  Ca  Ca17  1  0.35847122  0.30670813  0.43313349  1
  Ca  Ca18  1  0.67741929  0.96645142  0.14602650  1
  Ca  Ca19  1  0.85847122  0.19329087  0.93313349  1
  Ir  Ir0  1  0.03437794  0.23869765  0.75000000  1
  Ir  Ir1  1  0.46562106  0.73869865  0.75000000  1
  Ir  Ir2  1  0.53437894  0.26130135  0.25000000  1
  Ir  Ir3  1  0.96562106  0.76130235  0.25000000  1
loop_
_geom_bond_atom_site_label_1
_geom_bond_atom_site_label_2
_geom_bond_distance
_geom_bond_site_symmetry_2
Ca0 Ir3 2.839950 1_445
Ca0 Ir2 2.887804 1_555
Ca0 Ca5 3.599309 1_555
Ca0 Ca17 3.599309 1_555
Ca0 Ca14 3.623457 1_545
Ca0 Ca9 3.623457 1_545
Ca1 Ir0 3.143080 1_655
Ca1 Ca15 3.599307 1_555
Ca1 Ca13 3.601773 1_655
Ca1 Ca4 3.610413 1_655
Ca1 Ca2 3.623457 1_545
Ca1 Ca7 3.962233 1_555
Ca1 Ca11 3.973708 1_545
Ca1 Ca13 4.034613 1_555
Ca1 Ca17 4.087827 1_555
Ca1 Ca17 4.087829 1_655
Ca1 Ca10 4.103319 1_545
Ca1 Ca10 4.103329 1_555
Ca1 Ca14 4.111279 1_645
Ca2 Ir0 2.839947 1_665
Ca2 Ir1 2.887804 1_555
Ca3 Ir3 2.954620 1_555
Ca3 Ir2 2.996726 1_555
Ca3 Ca5 3.601771 1_555
Ca3 Ca9 3.610413 1_655
Ca3 Ca5 4.034615 1_655
Ca4 Ir0 2.954622 1_555
Ca4 Ir1 2.996726 1_555
Ca5 Ir2 3.143082 1_555
Ca5 Ca6 3.623466 1_555
Ca5 Ca8 3.962233 1_554
Ca5 Ca9 4.103319 1_545
Ca5 Ca9 4.103329 1_555
Ca6 Ir2 2.839959 1_555
Ca6 Ir3 2.887800 1_455
Ca6 Ca9 3.599307 1_555
Ca7 Ir3 2.954620 1_555
Ca7 Ir2 2.996726 1_555
Ca8 Ir1 2.954603 1_545
Ca8 Ir0 2.996731 1_555
Ca8 Ca9 3.973708 1_546
Ca9 Ir3 3.143083 1_455
Ca10 Ir1 3.143082 1_555
Ca10 Ca2 3.599309 1_555
Ca10 Ca4 3.601771 1_555
Ca10 Ca13 3.610392 1_565
Ca10 Ca15 3.623466 1_555
Ca10 Ca11 3.962233 1_555
Ca10 Ca7 3.973711 1_555
Ca10 Ca4 4.034615 1_655
Ca10 Ca14 4.087827 1_555
Ca10 Ca14 4.087829 1_655
Ca10 Ca17 4.111295 1_555
Ca11 Ir2 2.954603 1_565
Ca11 Ir3 2.996727 1_555
Ca11 Ca14 3.601773 1_655
Ca11 Ca17 3.610392 1_565
Ca11 Ca14 4.034613 1_555
Ca12 Ir1 3.143082 1_555
Ca12 Ca2 3.599309 1_555
Ca12 Ca16 3.601771 1_555
Ca12 Ca8 3.610392 1_565
Ca12 Ca15 3.623466 1_555
Ca12 Ca18 3.962233 1_556
Ca12 Ca3 3.973711 1_556
Ca12 Ca16 4.034615 1_655
Ca12 Ca9 4.087827 1_556
Ca12 Ca9 4.087829 1_656
Ca12 Ca19 4.103319 1_565
Ca12 Ca19 4.103329 1_555
Ca12 Ca5 4.111295 1_556
Ca13 Ir1 2.954603 1_545
Ca13 Ir0 2.996731 1_555
Ca13 Ca17 3.962233 1_555
Ca13 Ca14 3.973708 1_545
Ca14 Ir3 3.143083 1_455
Ca14 Ca6 3.599307 1_555
Ca14 Ca7 3.610413 1_455
Ca14 Ca4 3.962233 1_555
Ca14 Ca17 4.103319 1_565
Ca14 Ca17 4.103329 1_555
Ca15 Ir1 2.839959 1_555
Ca15 Ir0 2.887794 1_655
Ca15 Ca19 3.599307 1_555
Ca16 Ir0 2.954622 1_555
Ca16 Ir1 2.996726 1_555
Ca16 Ca19 3.610413 1_455
Ca16 Ca9 3.962233 1_556
Ca16 Ca5 3.973711 1_556
Ca17 Ir2 3.143082 1_555
Ca17 Ca7 3.601771 1_555
Ca17 Ca6 3.623466 1_555
Ca17 Ca4 3.973711 1_555
Ca17 Ca7 4.034615 1_455
Ca18 Ir2 2.954603 1_565
Ca18 Ir3 2.996727 1_555
Ca18 Ca9 3.601773 1_655
Ca18 Ca5 3.610392 1_565
Ca18 Ca19 3.973708 1_564
Ca18 Ca9 4.034613 1_555
Ca19 Ir0 3.143080 1_655
Ca19 Ca8 3.601773 1_655
Ca19 Ca2 3.623457 1_545
Ca19 Ca3 3.962233 1_556
Ca19 Ca8 4.034613 1_555
Ca19 Ca5 4.087827 1_556
Ca19 Ca5 4.087829 1_656
Ca19 Ca9 4.111279 1_646
