# generated using pymatgen
data_K4La6OsI14
_symmetry_space_group_name_H-M   'P 1'
_cell_length_a   13.37422300
_cell_length_b   13.37422300
_cell_length_c   25.34424600
_cell_angle_alpha   90.00000000
_cell_angle_beta   90.00000000
_cell_angle_gamma   90.00000000
_symmetry_Int_Tables_number   1
_chemical_formula_structural   K4La6OsI14
_chemical_formula_sum   'K16 La24 Os4 I56'
_cell_volume   4533.32124858
_cell_formula_units_Z   4
loop_
 _symmetry_equiv_pos_site_id
 _symmetry_equiv_pos_as_xyz
  1  'x, y, z'
loop_
 _atom_site_type_symbol
 _atom_site_label
 _atom_site_symmetry_multiplicity
 _atom_site_fract_x
 _atom_site_fract_y
 _atom_site_fract_z
 _atom_site_occupancy
  K  K0  1  0.20656000  0.93866000  0.42543400  1
  K  K1  1  0.20656000  0.06134000  0.92543400  1
  K  K2  1  0.29344000  0.56134000  0.57456600  1
  K  K3  1  0.06134000  0.20656000  0.57456600  1
  K  K4  1  0.06134000  0.79344000  0.07456600  1
  K  K5  1  0.56134000  0.70656000  0.42543400  1
  K  K6  1  0.43866000  0.29344000  0.42543400  1
  K  K7  1  0.79344000  0.93866000  0.92543400  1
  K  K8  1  0.93866000  0.20656000  0.07456600  1
  K  K9  1  0.70656000  0.56134000  0.07456600  1
  K  K10  1  0.43866000  0.70656000  0.92543400  1
  K  K11  1  0.29344000  0.43866000  0.07456600  1
  K  K12  1  0.79344000  0.06134000  0.42543400  1
  K  K13  1  0.93866000  0.79344000  0.57456600  1
  K  K14  1  0.56134000  0.29344000  0.92543400  1
  K  K15  1  0.70656000  0.43866000  0.57456600  1
  La  La0  1  0.00000000  0.50000000  0.43095300  1
  La  La1  1  0.37395300  0.82838900  0.18279400  1
  La  La2  1  0.82838900  0.37395300  0.31720600  1
  La  La3  1  0.32838900  0.87395300  0.68279400  1
  La  La4  1  0.50000000  0.00000000  0.06904700  1
  La  La5  1  0.37395300  0.17161100  0.68279400  1
  La  La6  1  0.17161100  0.62604700  0.31720600  1
  La  La7  1  0.87395300  0.32838900  0.81720600  1
  La  La8  1  0.12604700  0.32838900  0.31720600  1
  La  La9  1  0.32838900  0.12604700  0.18279400  1
  La  La10  1  0.62604700  0.17161100  0.18279400  1
  La  La11  1  0.67161100  0.87395300  0.18279400  1
  La  La12  1  0.00000000  0.50000000  0.93095300  1
  La  La13  1  0.00000000  0.50000000  0.20266700  1
  La  La14  1  0.67161100  0.12604700  0.68279400  1
  La  La15  1  0.82838900  0.62604700  0.81720600  1
  La  La16  1  0.00000000  0.50000000  0.70266700  1
  La  La17  1  0.12604700  0.67161100  0.81720600  1
  La  La18  1  0.50000000  0.00000000  0.79733300  1
  La  La19  1  0.17161100  0.37395300  0.81720600  1
  La  La20  1  0.62604700  0.82838900  0.68279400  1
  La  La21  1  0.50000000  0.00000000  0.56904700  1
  La  La22  1  0.50000000  0.00000000  0.29733300  1
  La  La23  1  0.87395300  0.67161100  0.31720600  1
  Os  Os0  1  0.00000000  0.50000000  0.81621100  1
  Os  Os1  1  0.00000000  0.50000000  0.31621100  1
  Os  Os2  1  0.50000000  0.00000000  0.68378900  1
  Os  Os3  1  0.50000000  0.00000000  0.18378900  1
  I  I0  1  0.69204700  0.84991100  0.05477700  1
  I  I1  1  0.50000000  0.00000000  0.43267900  1
  I  I2  1  0.12168800  0.28835300  0.18587300  1
  I  I3  1  0.15008900  0.69204700  0.94522300  1
  I  I4  1  0.87831200  0.28835300  0.68587300  1
  I  I5  1  0.30795300  0.15008900  0.05477700  1
  I  I6  1  0.16338900  0.94939000  0.17754200  1
  I  I7  1  0.84991100  0.30795300  0.94522300  1
  I  I8  1  0.55061000  0.33661100  0.67754200  1
  I  I9  1  0.71164700  0.87831200  0.31412700  1
  I  I10  1  0.87831200  0.71164700  0.18587300  1
  I  I11  1  0.00000000  0.50000000  0.06732100  1
  I  I12  1  0.44939000  0.66338900  0.67754200  1
  I  I13  1  0.78835300  0.37831200  0.18587300  1
  I  I14  1  0.65008900  0.19204700  0.05477700  1
  I  I15  1  0.37831200  0.21164700  0.81412700  1
  I  I16  1  0.62168800  0.21164700  0.31412700  1
  I  I17  1  0.28835300  0.12168800  0.31412700  1
  I  I18  1  0.80795300  0.34991100  0.44522300  1
  I  I19  1  0.83661100  0.05061000  0.17754200  1
  I  I20  1  0.44939000  0.33661100  0.17754200  1
  I  I21  1  0.71164700  0.12168800  0.81412700  1
  I  I22  1  0.62168800  0.78835300  0.81412700  1
  I  I23  1  0.80795300  0.65008900  0.94522300  1
  I  I24  1  0.00000000  0.00000000  0.50000000  1
  I  I25  1  0.78835300  0.62168800  0.68587300  1
  I  I26  1  0.94939000  0.16338900  0.32245800  1
  I  I27  1  0.05061000  0.16338900  0.82245800  1
  I  I28  1  0.00000000  0.50000000  0.56732100  1
  I  I29  1  0.34991100  0.80795300  0.05477700  1
  I  I30  1  0.83661100  0.94939000  0.67754200  1
  I  I31  1  0.34991100  0.19204700  0.55477700  1
  I  I32  1  0.05061000  0.83661100  0.32245800  1
  I  I33  1  0.55061000  0.66338900  0.17754200  1
  I  I34  1  0.33661100  0.55061000  0.82245800  1
  I  I35  1  0.84991100  0.69204700  0.44522300  1
  I  I36  1  0.65008900  0.80795300  0.55477700  1
  I  I37  1  0.00000000  0.00000000  0.00000000  1
  I  I38  1  0.12168800  0.71164700  0.68587300  1
  I  I39  1  0.15008900  0.30795300  0.44522300  1
  I  I40  1  0.19204700  0.34991100  0.94522300  1
  I  I41  1  0.94939000  0.83661100  0.82245800  1
  I  I42  1  0.50000000  0.50000000  0.00000000  1
  I  I43  1  0.16338900  0.05061000  0.67754200  1
  I  I44  1  0.21164700  0.62168800  0.18587300  1
  I  I45  1  0.66338900  0.55061000  0.32245800  1
  I  I46  1  0.28835300  0.87831200  0.81412700  1
  I  I47  1  0.30795300  0.84991100  0.55477700  1
  I  I48  1  0.37831200  0.78835300  0.31412700  1
  I  I49  1  0.33661100  0.44939000  0.32245800  1
  I  I50  1  0.66338900  0.44939000  0.82245800  1
  I  I51  1  0.50000000  0.50000000  0.50000000  1
  I  I52  1  0.69204700  0.15008900  0.55477700  1
  I  I53  1  0.21164700  0.37831200  0.68587300  1
  I  I54  1  0.19204700  0.65008900  0.44522300  1
  I  I55  1  0.50000000  0.00000000  0.93267900  1
loop_
_geom_bond_atom_site_label_1
_geom_bond_atom_site_label_2
_geom_bond_distance
_geom_bond_site_symmetry_2
La0 Os1 2.908049 1_555
La1 Os3 2.847853 1_565
La2 Os1 2.847853 1_655
La3 Os2 2.847853 1_565
La4 Os3 2.908049 1_555
La5 Os2 2.847853 1_555
La6 Os1 2.847853 1_555
La7 Os0 2.847853 1_655
La8 Os1 2.847853 1_555
La9 Os3 2.847853 1_555
La10 Os3 2.847853 1_555
La11 Os3 2.847853 1_565
La12 Os0 2.908049 1_555
La13 Os1 2.877687 1_555
La14 Os2 2.847853 1_555
La15 Os0 2.847853 1_655
La16 Os0 2.877687 1_555
La17 Os0 2.847853 1_555
La18 Os2 2.877687 1_555
La19 Os0 2.847853 1_555
La20 Os2 2.847853 1_565
La21 Os2 2.908049 1_555
La22 Os3 2.877687 1_555
La23 Os1 2.847853 1_655
I0 La11 3.271824 1_555
I0 La4 3.279822 1_565
I0 K7 3.740812 1_554
I0 K9 3.896701 1_555
I1 La22 3.430242 1_555
I1 La21 3.456144 1_555
I1 K5 4.013562 1_545
I1 K0 4.013562 1_545
I1 K12 4.013562 1_555
I1 K6 4.013562 1_555
I2 La13 3.292755 1_555
I2 La8 3.371833 1_555
I2 La9 3.515732 1_555
I2 K8 3.891871 1_455
I2 K11 4.156380 1_555
I3 La17 3.271824 1_555
I3 La12 3.279822 1_555
I3 K4 3.740812 1_556
I3 K10 3.896701 1_555
I4 La16 3.292755 1_655
I4 La7 3.371833 1_555
I4 La14 3.515732 1_555
I4 K3 3.891871 1_655
I4 K15 4.156380 1_555
I5 La9 3.271824 1_555
I5 La4 3.279822 1_555
I5 K1 3.740812 1_554
I5 K11 3.896701 1_555
I6 La9 3.235671 1_565
I6 La1 3.250720 1_555
I6 K4 3.608912 1_555
I7 La7 3.271824 1_555
I7 La12 3.279822 1_655
I7 K8 3.740812 1_556
I7 K14 3.896701 1_555
I8 La5 3.235671 1_555
I8 La14 3.250720 1_555
I8 K15 3.608912 1_555
I9 La22 3.292755 1_565
I9 La11 3.371833 1_555
I9 La23 3.515732 1_555
I9 K12 3.891871 1_565
I9 K5 4.156380 1_555
I10 La13 3.292755 1_655
I10 La23 3.371833 1_555
I10 La11 3.515732 1_555
I10 K4 3.891871 1_655
I10 K9 4.156380 1_555
I11 La13 3.430242 1_555
I11 La12 3.456144 1_554
I11 K9 4.013562 1_455
I11 K8 4.013562 1_455
I11 K4 4.013562 1_555
I11 K11 4.013562 1_555
I12 La20 3.235671 1_555
I12 La3 3.250720 1_555
I12 K2 3.608912 1_555
I13 La13 3.292755 1_655
I13 La2 3.371833 1_555
I13 La10 3.515732 1_555
I13 K9 3.891871 1_555
I13 K8 4.156380 1_555
I14 La10 3.271824 1_555
I14 La4 3.279822 1_555
I14 K14 3.740812 1_554
I14 K8 3.896701 1_555
I15 La18 3.292755 1_555
I15 La5 3.371833 1_555
I15 La19 3.515732 1_555
I15 K14 3.891871 1_555
I15 K1 4.156380 1_555
I16 La22 3.292755 1_555
I16 La10 3.371833 1_555
I16 La2 3.515732 1_555
I16 K6 3.891871 1_555
I16 K12 4.156380 1_555
I17 La22 3.292755 1_555
I17 La9 3.371833 1_555
I17 La8 3.515732 1_555
I17 K0 3.891871 1_545
I17 K6 4.156380 1_555
I18 La2 3.271824 1_555
I18 La0 3.279822 1_655
I18 K15 3.740812 1_555
I18 K12 3.896701 1_555
I19 La11 3.235671 1_545
I19 La10 3.250720 1_555
I19 K8 3.608912 1_555
I20 La10 3.235671 1_555
I20 La9 3.250720 1_555
I20 K11 3.608912 1_555
I21 La18 3.292755 1_555
I21 La14 3.371833 1_555
I21 La7 3.515732 1_555
I21 K7 3.891871 1_545
I21 K14 4.156380 1_555
I22 La18 3.292755 1_565
I22 La20 3.371833 1_555
I22 La15 3.515732 1_555
I22 K10 3.891871 1_555
I22 K7 4.156380 1_555
I23 La15 3.271824 1_555
I23 La12 3.279822 1_655
I23 K9 3.740812 1_556
I23 K7 3.896701 1_555
I24 K13 3.446197 1_445
I24 K12 3.446197 1_455
I24 K0 3.446197 1_545
I24 K3 3.446197 1_555
I25 La16 3.292755 1_655
I25 La15 3.371833 1_555
I25 La20 3.515732 1_555
I25 K15 3.891871 1_555
I25 K13 4.156380 1_555
I26 La8 3.235671 1_655
I26 La2 3.250720 1_555
I26 K12 3.608912 1_555
I27 La7 3.235671 1_455
I27 La19 3.250720 1_555
I27 K1 3.608912 1_555
I28 La16 3.430242 1_555
I28 La0 3.456144 1_555
I28 K15 4.013562 1_455
I28 K3 4.013562 1_555
I28 K2 4.013562 1_555
I28 K13 4.013562 1_455
I29 La1 3.271824 1_555
I29 La4 3.279822 1_565
I29 K10 3.740812 1_554
I29 K4 3.896701 1_555
I30 La14 3.235671 1_565
I30 La20 3.250720 1_555
I30 K13 3.608912 1_555
I31 La5 3.271824 1_555
I31 La21 3.279822 1_555
I31 K6 3.740812 1_555
I31 K3 3.896701 1_555
I32 La23 3.235671 1_455
I32 La6 3.250720 1_555
I32 K0 3.608912 1_555
I33 La1 3.235671 1_555
I33 La11 3.250720 1_555
I33 K9 3.608912 1_555
I34 La19 3.235671 1_555
I34 La17 3.250720 1_555
I34 K10 3.608912 1_555
I35 La23 3.271824 1_555
I35 La0 3.279822 1_655
I35 K13 3.740812 1_555
I35 K5 3.896701 1_555
I36 La20 3.271824 1_555
I36 La21 3.279822 1_565
I36 K5 3.740812 1_555
I36 K13 3.896701 1_555
I37 K4 3.446197 1_545
I37 K7 3.446197 1_444
I37 K8 3.446197 1_455
I37 K1 3.446197 1_554
I38 La16 3.292755 1_555
I38 La17 3.371833 1_555
I38 La3 3.515732 1_555
I38 K13 3.891871 1_455
I38 K2 4.156380 1_555
I39 La8 3.271824 1_555
I39 La0 3.279822 1_555
I39 K3 3.740812 1_555
I39 K6 3.896701 1_555
I40 La19 3.271824 1_555
I40 La12 3.279822 1_555
I40 K11 3.740812 1_556
I40 K1 3.896701 1_555
I41 La17 3.235671 1_655
I41 La15 3.250720 1_555
I41 K7 3.608912 1_555
I42 K11 3.446197 1_555
I42 K14 3.446197 1_554
I42 K10 3.446197 1_554
I42 K9 3.446197 1_555
I43 La3 3.235671 1_545
I43 La5 3.250720 1_555
I43 K3 3.608912 1_555
I44 La13 3.292755 1_555
I44 La6 3.371833 1_555
I44 La1 3.515732 1_555
I44 K11 3.891871 1_555
I44 K4 4.156380 1_555
I45 La2 3.235671 1_555
I45 La23 3.250720 1_555
I45 K5 3.608912 1_555
I46 La18 3.292755 1_565
I46 La3 3.371833 1_555
I46 La17 3.515732 1_555
I46 K1 3.891871 1_565
I46 K10 4.156380 1_555
I47 La3 3.271824 1_555
I47 La21 3.279822 1_565
I47 K0 3.740812 1_555
I47 K2 3.896701 1_555
I48 La22 3.292755 1_565
I48 La1 3.371833 1_555
I48 La6 3.515732 1_555
I48 K5 3.891871 1_555
I48 K0 4.156380 1_555
I49 La6 3.235671 1_555
I49 La8 3.250720 1_555
I49 K6 3.608912 1_555
I50 La15 3.235671 1_555
I50 La7 3.250720 1_555
I50 K14 3.608912 1_555
I51 K6 3.446197 1_555
I51 K2 3.446197 1_555
I51 K15 3.446197 1_555
I51 K5 3.446197 1_555
I52 La14 3.271824 1_555
I52 La21 3.279822 1_555
I52 K12 3.740812 1_555
I52 K15 3.896701 1_555
I53 La16 3.292755 1_555
I53 La19 3.371833 1_555
I53 La5 3.515732 1_555
I53 K2 3.891871 1_555
I53 K3 4.156380 1_555
I54 La6 3.271824 1_555
I54 La0 3.279822 1_555
I54 K2 3.740812 1_555
I54 K0 3.896701 1_555
I55 La18 3.430242 1_555
I55 La4 3.456144 1_556
I55 K10 4.013562 1_545
I55 K1 4.013562 1_555
I55 K7 4.013562 1_545
I55 K14 4.013562 1_555
