# generated using pymatgen
data_SnH20C6(NCl3)2
_symmetry_space_group_name_H-M   'P 1'
_cell_length_a   12.38980800
_cell_length_b   12.38980800
_cell_length_c   12.38980800
_cell_angle_alpha   90.00000000
_cell_angle_beta   90.00000000
_cell_angle_gamma   90.00000000
_symmetry_Int_Tables_number   1
_chemical_formula_structural   SnH20C6(NCl3)2
_chemical_formula_sum   'Sn4 H80 C24 N8 Cl24'
_cell_volume   1901.92649740
_cell_formula_units_Z   4
loop_
 _symmetry_equiv_pos_site_id
 _symmetry_equiv_pos_as_xyz
  1  'x, y, z'
loop_
 _atom_site_type_symbol
 _atom_site_label
 _atom_site_symmetry_multiplicity
 _atom_site_fract_x
 _atom_site_fract_y
 _atom_site_fract_z
 _atom_site_occupancy
  Sn  Sn0  1  0.00000000  0.00000000  0.00000000  1
  Sn  Sn1  1  0.50000000  0.50000000  0.00000000  1
  Sn  Sn2  1  0.50000000  0.00000000  0.50000000  1
  Sn  Sn3  1  0.00000000  0.50000000  0.50000000  1
  H  H0  1  0.63221400  0.34462400  0.36135000  1
  H  H1  1  0.42830800  0.75349300  0.30070700  1
  H  H2  1  0.15537600  0.63865000  0.13221400  1
  H  H3  1  0.30070700  0.42830800  0.75349300  1
  H  H4  1  0.07169200  0.24650700  0.80070700  1
  H  H5  1  0.84462400  0.36135000  0.86778600  1
  H  H6  1  0.86351100  0.20104500  0.23773800  1
  H  H7  1  0.34489200  0.65510800  0.15510800  1
  H  H8  1  0.07169200  0.25349300  0.30070700  1
  H  H9  1  0.13221400  0.34462400  0.13865000  1
  H  H10  1  0.15537600  0.86135000  0.63221400  1
  H  H11  1  0.36135000  0.63221400  0.34462400  1
  H  H12  1  0.92830800  0.75349300  0.19929300  1
  H  H13  1  0.75349300  0.30070700  0.42830800  1
  H  H14  1  0.84489200  0.65510800  0.34489200  1
  H  H15  1  0.86351100  0.29895500  0.73773800  1
  H  H16  1  0.36135000  0.86778600  0.84462400  1
  H  H17  1  0.65510800  0.15510800  0.34489200  1
  H  H18  1  0.70104500  0.26226200  0.13648900  1
  H  H19  1  0.63865000  0.13221400  0.15537600  1
  H  H20  1  0.63648900  0.79895500  0.73773800  1
  H  H21  1  0.19929300  0.92830800  0.75349300  1
  H  H22  1  0.75349300  0.19929300  0.92830800  1
  H  H23  1  0.23773800  0.63648900  0.70104500  1
  H  H24  1  0.15510800  0.15510800  0.15510800  1
  H  H25  1  0.76226200  0.13648900  0.79895500  1
  H  H26  1  0.34462400  0.13865000  0.13221400  1
  H  H27  1  0.73773800  0.63648900  0.79895500  1
  H  H28  1  0.13648900  0.79895500  0.76226200  1
  H  H29  1  0.36778600  0.84462400  0.13865000  1
  H  H30  1  0.36351100  0.20104500  0.26226200  1
  H  H31  1  0.26226200  0.36351100  0.20104500  1
  H  H32  1  0.73773800  0.86351100  0.29895500  1
  H  H33  1  0.36351100  0.29895500  0.76226200  1
  H  H34  1  0.42830800  0.74650700  0.80070700  1
  H  H35  1  0.25349300  0.19929300  0.57169200  1
  H  H36  1  0.13648900  0.70104500  0.26226200  1
  H  H37  1  0.20104500  0.23773800  0.86351100  1
  H  H38  1  0.69929300  0.57169200  0.24650700  1
  H  H39  1  0.65510800  0.34489200  0.84489200  1
  H  H40  1  0.86778600  0.65537600  0.86135000  1
  H  H41  1  0.20104500  0.26226200  0.36351100  1
  H  H42  1  0.13221400  0.15537600  0.63865000  1
  H  H43  1  0.74650700  0.69929300  0.92830800  1
  H  H44  1  0.84489200  0.84489200  0.84489200  1
  H  H45  1  0.86135000  0.86778600  0.65537600  1
  H  H46  1  0.19929300  0.57169200  0.25349300  1
  H  H47  1  0.26226200  0.13648900  0.70104500  1
  H  H48  1  0.13865000  0.13221400  0.34462400  1
  H  H49  1  0.63648900  0.70104500  0.23773800  1
  H  H50  1  0.25349300  0.30070700  0.07169200  1
  H  H51  1  0.13865000  0.36778600  0.84462400  1
  H  H52  1  0.63865000  0.36778600  0.65537600  1
  H  H53  1  0.24650700  0.69929300  0.57169200  1
  H  H54  1  0.29895500  0.76226200  0.36351100  1
  H  H55  1  0.15510800  0.34489200  0.65510800  1
  H  H56  1  0.65537600  0.86135000  0.86778600  1
  H  H57  1  0.70104500  0.23773800  0.63648900  1
  H  H58  1  0.92830800  0.74650700  0.69929300  1
  H  H59  1  0.57169200  0.25349300  0.19929300  1
  H  H60  1  0.74650700  0.80070700  0.42830800  1
  H  H61  1  0.30070700  0.07169200  0.25349300  1
  H  H62  1  0.34489200  0.84489200  0.65510800  1
  H  H63  1  0.36778600  0.65537600  0.63865000  1
  H  H64  1  0.63221400  0.15537600  0.86135000  1
  H  H65  1  0.79895500  0.76226200  0.13648900  1
  H  H66  1  0.57169200  0.24650700  0.69929300  1
  H  H67  1  0.65537600  0.63865000  0.36778600  1
  H  H68  1  0.69929300  0.92830800  0.74650700  1
  H  H69  1  0.24650700  0.80070700  0.07169200  1
  H  H70  1  0.80070700  0.07169200  0.24650700  1
  H  H71  1  0.84462400  0.13865000  0.36778600  1
  H  H72  1  0.23773800  0.86351100  0.20104500  1
  H  H73  1  0.29895500  0.73773800  0.86351100  1
  H  H74  1  0.79895500  0.73773800  0.63648900  1
  H  H75  1  0.34462400  0.36135000  0.63221400  1
  H  H76  1  0.80070700  0.42830800  0.74650700  1
  H  H77  1  0.86778600  0.84462400  0.36135000  1
  H  H78  1  0.76226200  0.36351100  0.29895500  1
  H  H79  1  0.86135000  0.63221400  0.15537600  1
  C  C0  1  0.35042200  0.78684400  0.81103000  1
  C  C1  1  0.21315600  0.18897000  0.64957800  1
  C  C2  1  0.18897000  0.85042200  0.71315600  1
  C  C3  1  0.64957800  0.28684400  0.68897000  1
  C  C4  1  0.68897000  0.85042200  0.78684400  1
  C  C5  1  0.81103000  0.35042200  0.78684400  1
  C  C6  1  0.31103000  0.14957800  0.21315600  1
  C  C7  1  0.64957800  0.21315600  0.18897000  1
  C  C8  1  0.21315600  0.31103000  0.14957800  1
  C  C9  1  0.81103000  0.14957800  0.28684400  1
  C  C10  1  0.28684400  0.81103000  0.14957800  1
  C  C11  1  0.14957800  0.28684400  0.81103000  1
  C  C12  1  0.71315600  0.31103000  0.35042200  1
  C  C13  1  0.35042200  0.71315600  0.31103000  1
  C  C14  1  0.85042200  0.78684400  0.68897000  1
  C  C15  1  0.85042200  0.71315600  0.18897000  1
  C  C16  1  0.71315600  0.18897000  0.85042200  1
  C  C17  1  0.18897000  0.64957800  0.21315600  1
  C  C18  1  0.31103000  0.35042200  0.71315600  1
  C  C19  1  0.78684400  0.68897000  0.85042200  1
  C  C20  1  0.14957800  0.21315600  0.31103000  1
  C  C21  1  0.68897000  0.64957800  0.28684400  1
  C  C22  1  0.28684400  0.68897000  0.64957800  1
  C  C23  1  0.78684400  0.81103000  0.35042200  1
  N  N0  1  0.20344900  0.29655100  0.70344900  1
  N  N1  1  0.79655100  0.79655100  0.79655100  1
  N  N2  1  0.29655100  0.70344900  0.20344900  1
  N  N3  1  0.70344900  0.20344900  0.29655100  1
  N  N4  1  0.70344900  0.29655100  0.79655100  1
  N  N5  1  0.20344900  0.20344900  0.20344900  1
  N  N6  1  0.79655100  0.70344900  0.29655100  1
  N  N7  1  0.29655100  0.79655100  0.70344900  1
  Cl  Cl0  1  0.52590100  0.80408400  0.53317000  1
  Cl  Cl1  1  0.69591600  0.03317000  0.52590100  1
  Cl  Cl2  1  0.80408400  0.53317000  0.52590100  1
  Cl  Cl3  1  0.97409900  0.19591600  0.03317000  1
  Cl  Cl4  1  0.03317000  0.52590100  0.69591600  1
  Cl  Cl5  1  0.19591600  0.03317000  0.97409900  1
  Cl  Cl6  1  0.30408400  0.53317000  0.97409900  1
  Cl  Cl7  1  0.53317000  0.97409900  0.30408400  1
  Cl  Cl8  1  0.80408400  0.96683000  0.02590100  1
  Cl  Cl9  1  0.96683000  0.02590100  0.80408400  1
  Cl  Cl10  1  0.30408400  0.96683000  0.47409900  1
  Cl  Cl11  1  0.19591600  0.46683000  0.47409900  1
  Cl  Cl12  1  0.52590100  0.69591600  0.03317000  1
  Cl  Cl13  1  0.46683000  0.47409900  0.19591600  1
  Cl  Cl14  1  0.69591600  0.46683000  0.02590100  1
  Cl  Cl15  1  0.03317000  0.97409900  0.19591600  1
  Cl  Cl16  1  0.02590100  0.80408400  0.96683000  1
  Cl  Cl17  1  0.02590100  0.69591600  0.46683000  1
  Cl  Cl18  1  0.47409900  0.19591600  0.46683000  1
  Cl  Cl19  1  0.46683000  0.02590100  0.69591600  1
  Cl  Cl20  1  0.96683000  0.47409900  0.30408400  1
  Cl  Cl21  1  0.97409900  0.30408400  0.53317000  1
  Cl  Cl22  1  0.53317000  0.52590100  0.80408400  1
  Cl  Cl23  1  0.47409900  0.30408400  0.96683000  1
loop_
_geom_bond_atom_site_label_1
_geom_bond_atom_site_label_2
_geom_bond_distance
_geom_bond_site_symmetry_2
H7 N2 1.037387 1_555
H14 N6 1.037387 1_555
H17 N3 1.037387 1_555
H24 N5 1.037387 1_555
H39 N4 1.037387 1_555
H44 N1 1.037387 1_555
H55 N0 1.037387 1_555
H62 N7 1.037387 1_555
C0 H16 1.094209 1_555
C0 H34 1.094229 1_555
C0 H73 1.095255 1_555
C0 N7 1.495526 1_555
C1 H42 1.094209 1_555
C1 H35 1.094229 1_555
C1 H47 1.095255 1_555
C1 N0 1.495526 1_555
C2 H10 1.094209 1_555
C2 H21 1.094229 1_555
C2 H28 1.095255 1_555
C2 N7 1.495526 1_555
C3 H52 1.094209 1_555
C3 H66 1.094229 1_555
C3 H57 1.095255 1_555
C3 N4 1.495526 1_555
C4 H56 1.094209 1_555
C4 H68 1.094229 1_555
C4 H20 1.095255 1_555
C4 N1 1.495526 1_555
C5 H5 1.094209 1_555
C5 H76 1.094229 1_555
C5 H15 1.095255 1_555
C5 N4 1.495526 1_555
C6 H26 1.094209 1_555
C6 H61 1.094229 1_555
C6 H30 1.095255 1_555
C6 N5 1.495526 1_555
C7 H19 1.094209 1_555
C7 H59 1.094229 1_555
C7 H18 1.095255 1_555
C7 N3 1.495526 1_555
C8 H9 1.094209 1_555
C8 H50 1.094229 1_555
C8 H31 1.095255 1_555
C8 N5 1.495526 1_555
C9 H71 1.094209 1_555
C9 H70 1.094229 1_555
C9 H6 1.095255 1_555
C9 N3 1.495526 1_555
C10 H29 1.094209 1_555
C10 H69 1.094229 1_555
C10 H72 1.095255 1_555
C10 N2 1.495526 1_555
C11 H51 1.094209 1_555
C11 H4 1.094229 1_555
C11 H37 1.095255 1_555
C11 N0 1.495526 1_555
C12 H0 1.094209 1_555
C12 H13 1.094229 1_555
C12 H78 1.095255 1_555
C12 N3 1.495526 1_555
C13 H11 1.094209 1_555
C13 H1 1.094229 1_555
C13 H54 1.095255 1_555
C13 N2 1.495526 1_555
C14 H45 1.094209 1_555
C14 H58 1.094229 1_555
C14 H74 1.095255 1_555
C14 N1 1.495526 1_555
C15 H79 1.094209 1_555
C15 H12 1.094229 1_555
C15 H65 1.095255 1_555
C15 N6 1.495526 1_555
C16 H64 1.094209 1_555
C16 H22 1.094229 1_555
C16 H25 1.095255 1_555
C16 N4 1.495526 1_555
C17 H2 1.094209 1_555
C17 H46 1.094229 1_555
C17 H36 1.095255 1_555
C17 N2 1.495526 1_555
C18 H75 1.094209 1_555
C18 H3 1.094229 1_555
C18 H33 1.095255 1_555
C18 N0 1.495526 1_555
C19 H40 1.094209 1_555
C19 H43 1.094229 1_555
C19 H27 1.095255 1_555
C19 N1 1.495526 1_555
C20 H48 1.094209 1_555
C20 H8 1.094229 1_555
C20 H41 1.095255 1_555
C20 N5 1.495526 1_555
C21 H67 1.094209 1_555
C21 H38 1.094229 1_555
C21 H49 1.095255 1_555
C21 N6 1.495526 1_555
C22 H63 1.094209 1_555
C22 H53 1.094229 1_555
C22 H23 1.095255 1_555
C22 N7 1.495526 1_555
C23 H77 1.094209 1_555
C23 H60 1.094229 1_555
C23 H32 1.095255 1_555
C23 N6 1.495526 1_555
Cl0 Sn2 2.482733 1_565
Cl1 Sn2 2.482733 1_555
Cl2 Sn3 2.482733 1_655
Cl3 Sn0 2.482733 1_655
Cl4 Sn3 2.482733 1_555
Cl5 Sn0 2.482733 1_556
Cl6 Sn1 2.482733 1_556
Cl7 Sn2 2.482733 1_565
Cl8 Sn0 2.482733 1_665
Cl9 Sn0 2.482733 1_656
Cl10 Sn2 2.482733 1_565
Cl11 Sn3 2.482733 1_555
Cl12 Sn1 2.482733 1_555
Cl13 Sn1 2.482733 1_555
Cl14 Sn1 2.482733 1_555
Cl15 Sn0 2.482733 1_565
Cl16 Sn0 2.482733 1_566
Cl17 Sn3 2.482733 1_555
Cl18 Sn2 2.482733 1_555
Cl19 Sn2 2.482733 1_555
Cl20 Sn3 2.482733 1_655
Cl21 Sn3 2.482733 1_655
Cl22 Sn1 2.482733 1_556
Cl23 Sn1 2.482733 1_556
