# generated using pymatgen
data_Ba3LiIr2O9
_symmetry_space_group_name_H-M   'P 1'
_cell_length_a   5.81239573
_cell_length_b   5.81241446
_cell_length_c   14.37643858
_cell_angle_alpha   90.00001906
_cell_angle_beta   90.00002855
_cell_angle_gamma   120.00016668
_symmetry_Int_Tables_number   1
_chemical_formula_structural   Ba3LiIr2O9
_chemical_formula_sum   'Ba6 Li2 Ir4 O18'
_cell_volume   420.62294993
_cell_formula_units_Z   2
loop_
 _symmetry_equiv_pos_site_id
 _symmetry_equiv_pos_as_xyz
  1  'x, y, z'
loop_
 _atom_site_type_symbol
 _atom_site_label
 _atom_site_symmetry_multiplicity
 _atom_site_fract_x
 _atom_site_fract_y
 _atom_site_fract_z
 _atom_site_occupancy
  Ba  Ba0  1  0.66666520  0.33333312  0.41461313  1
  Ba  Ba1  1  0.33333284  0.66666737  0.58535491  1
  Ba  Ba2  1  0.33333252  0.66666693  0.91457372  1
  Ba  Ba3  1  -0.00000225  -0.00000190  0.25007493  1
  Ba  Ba4  1  0.66666635  0.33333472  0.08546736  1
  Ba  Ba5  1  -0.00000324  -0.00000289  0.74994324  1
  Li  Li0  1  0.00003499  0.00001677  0.49999485  1
  Li  Li1  1  0.00003579  0.00001685  0.00000569  1
  Ir  Ir0  1  0.33333297  0.66666682  0.15421679  1
  Ir  Ir1  1  0.66666289  0.33333215  0.84579245  1
  Ir  Ir2  1  0.33333201  0.66666633  0.34583780  1
  Ir  Ir3  1  0.66666331  0.33333110  0.65414108  1
  O  O0  1  0.82696838  0.65393867  0.58421234  1
  O  O1  1  0.82692683  0.17306925  0.91571774  1
  O  O2  1  0.65388874  0.82694491  0.41575686  1
  O  O3  1  0.51543597  0.48455488  0.74996544  1
  O  O4  1  0.17305220  0.34610916  0.41575650  1
  O  O5  1  0.34605256  0.17302563  0.58421056  1
  O  O6  1  0.51543448  0.03087885  0.74996553  1
  O  O7  1  0.17304597  0.34609356  0.08429379  1
  O  O8  1  0.48458536  0.96917246  0.25004904  1
  O  O9  1  0.65390561  0.82695133  0.08429313  1
  O  O10  1  0.17305219  0.82694388  0.41575666  1
  O  O11  1  0.34613406  0.17306729  0.91571827  1
  O  O12  1  0.03082297  0.51541270  0.25004895  1
  O  O13  1  0.48458615  0.51541312  0.25004940  1
  O  O14  1  0.96911505  0.48455720  0.74996608  1
  O  O15  1  0.82692796  0.65386005  0.91571812  1
  O  O16  1  0.82696702  0.17302874  0.58421241  1
  O  O17  1  0.17304511  0.82695095  0.08429324  1
loop_
_geom_bond_atom_site_label_1
_geom_bond_atom_site_label_2
_geom_bond_distance
_geom_bond_site_symmetry_2
Ba0 O10 2.906946 1_655
Ba0 O4 2.906950 1_655
Ba0 O10 2.906960 1_545
Ba0 O4 2.906962 1_555
Ba0 O2 2.906965 1_545
Ba0 O2 2.906965 1_555
Ba0 O5 2.923936 1_555
Ba0 O0 2.923939 1_555
Ba0 O16 2.923943 1_555
Ba0 O12 2.992877 1_655
Ba0 O13 2.992880 1_555
Ba0 O8 2.992887 1_545
Ba1 O16 2.906935 1_565
Ba1 O5 2.906950 1_565
Ba1 O0 2.906950 1_555
Ba1 O0 2.906951 1_455
Ba1 O16 2.906960 1_455
Ba1 O5 2.906968 1_555
Ba1 O2 2.923786 1_555
Ba1 O10 2.923794 1_555
Ba1 O4 2.923798 1_555
Ba1 O6 2.993572 1_565
Ba1 O3 2.993586 1_555
Ba1 O14 2.993597 1_455
Ba2 O1 2.906947 1_565
Ba2 O15 2.906953 1_555
Ba2 O15 2.906966 1_455
Ba2 O11 2.906966 1_565
Ba2 O1 2.906966 1_455
Ba2 O11 2.906971 1_555
Ba2 O9 2.925287 1_556
Ba2 O17 2.925288 1_556
Ba2 O7 2.925300 1_556
Ba2 O6 2.993548 1_565
Ba2 O14 2.993553 1_455
Ba2 O3 2.993560 1_555
Ba3 O13 2.910324 1_445
Ba3 O8 2.910334 1_445
Ba3 O12 2.910335 1_545
Ba3 O8 2.910340 1_545
Ba3 O13 2.910345 1_555
Ba3 O12 2.910358 1_555
Ba3 O10 2.951066 1_545
Ba3 O2 2.951066 1_445
Ba3 O4 2.951069 1_555
Ba3 O9 2.952173 1_445
Ba3 O7 2.952180 1_555
Ba3 O17 2.952184 1_545
Ba4 O17 2.906939 1_655
Ba4 O9 2.906949 1_555
Ba4 O7 2.906956 1_555
Ba4 O7 2.906957 1_655
Ba4 O17 2.906969 1_545
Ba4 O9 2.906983 1_545
Ba4 O15 2.925517 1_554
Ba4 O1 2.925523 1_554
Ba4 O11 2.925529 1_554
Ba4 O12 2.993070 1_655
Ba4 O13 2.993087 1_555
Ba4 O8 2.993094 1_545
Ba5 O6 2.910333 1_555
Ba5 O3 2.910340 1_555
Ba5 O14 2.910356 1_445
Ba5 O3 2.910359 1_445
Ba5 O14 2.910367 1_455
Ba5 O6 2.910371 1_455
Ba5 O0 2.951485 1_445
Ba5 O16 2.951495 1_455
Ba5 O5 2.951497 1_555
Ba5 O11 2.952228 1_555
Ba5 O15 2.952231 1_445
Ba5 O1 2.952242 1_455
Li0 O5 2.121203 1_555
Li0 O0 2.121474 1_445
Li0 O16 2.121483 1_455
Li0 O10 2.121694 1_545
Li0 O4 2.121704 1_555
Li0 O2 2.121917 1_445
Li1 O17 2.122037 1_545
Li1 O7 2.122046 1_555
Li1 O11 2.122126 1_554
Li1 O9 2.122258 1_445
Li1 O15 2.122373 1_444
Li1 O1 2.122397 1_454
Ir0 O9 1.901165 1_555
Ir0 O7 1.901166 1_555
Ir0 O17 1.901166 1_555
Ir0 O8 2.053485 1_555
Ir0 O13 2.053495 1_555
Ir0 O12 2.053499 1_555
Ir1 O1 1.900987 1_555
Ir1 O15 1.900993 1_555
Ir1 O11 1.900994 1_555
Ir1 O14 2.053227 1_555
Ir1 O3 2.053228 1_555
Ir1 O6 2.053239 1_555
Ir2 O2 1.901061 1_555
Ir2 O4 1.901066 1_555
Ir2 O10 1.901069 1_555
Ir2 O8 2.053069 1_555
Ir2 O13 2.053071 1_555
Ir2 O12 2.053076 1_555
Ir3 O16 1.901351 1_555
Ir3 O0 1.901357 1_555
Ir3 O5 1.901379 1_555
Ir3 O3 2.053208 1_555
Ir3 O14 2.053211 1_555
Ir3 O6 2.053212 1_555
