# generated using pymatgen
data_Li3Al(BO3)2
_symmetry_space_group_name_H-M   'P 1'
_cell_length_a   5.25446100
_cell_length_b   6.81932365
_cell_length_c   8.13977268
_cell_angle_alpha   108.32223964
_cell_angle_beta   92.43821141
_cell_angle_gamma   89.36284838
_symmetry_Int_Tables_number   1
_chemical_formula_structural   Li3Al(BO3)2
_chemical_formula_sum   'Li6 Al2 B4 O12'
_cell_volume   276.62553573
_cell_formula_units_Z   2
loop_
 _symmetry_equiv_pos_site_id
 _symmetry_equiv_pos_as_xyz
  1  'x, y, z'
loop_
 _atom_site_type_symbol
 _atom_site_label
 _atom_site_symmetry_multiplicity
 _atom_site_fract_x
 _atom_site_fract_y
 _atom_site_fract_z
 _atom_site_occupancy
  Li  Li0  1  0.96934300  0.71261000  0.21825500  1
  Li  Li1  1  0.24752000  0.38726500  0.25443500  1
  Li  Li2  1  0.30846300  0.59288100  0.61475400  1
  Li  Li3  1  0.03065700  0.28739000  0.78174500  1
  Li  Li4  1  0.69153700  0.40711900  0.38524600  1
  Li  Li5  1  0.75248000  0.61273500  0.74556500  1
  Al  Al0  1  0.42303800  0.00385300  0.22933600  1
  Al  Al1  1  0.57696200  0.99614700  0.77066400  1
  B  B0  1  0.58605000  0.77370900  0.43113100  1
  B  B1  1  0.41395000  0.22629100  0.56886900  1
  B  B2  1  0.76082300  0.26306900  0.08246200  1
  B  B3  1  0.23917700  0.73693100  0.91753800  1
  O  O0  1  0.27036100  0.17493100  0.41075300  1
  O  O1  1  0.60535900  0.36735300  0.60196200  1
  O  O2  1  0.39464100  0.63264700  0.39803800  1
  O  O3  1  0.72963900  0.82506900  0.58924700  1
  O  O4  1  0.80605400  0.16546900  0.90908900  1
  O  O5  1  0.54646500  0.19821500  0.15175000  1
  O  O6  1  0.90634600  0.41854700  0.18898100  1
  O  O7  1  0.09365400  0.58145300  0.81101900  1
  O  O8  1  0.65818200  0.86662800  0.30842000  1
  O  O9  1  0.34181800  0.13337200  0.69158000  1
  O  O10  1  0.19394600  0.83453100  0.09091100  1
  O  O11  1  0.45353500  0.80178500  0.84825000  1
loop_
_geom_bond_atom_site_label_1
_geom_bond_atom_site_label_2
_geom_bond_distance
_geom_bond_site_symmetry_2
Li0 O10 1.956076 1_655
Li0 O8 1.973373 1_555
Li0 O6 1.973639 1_555
Li1 O2 1.867112 1_555
Li1 O6 1.877437 1_455
Li1 O5 2.053588 1_555
Li1 O0 2.207150 1_555
Li2 O2 1.939535 1_555
Li2 O7 2.016402 1_555
Li2 O11 2.102706 1_555
Li2 O1 2.160925 1_555
Li3 O4 1.956076 1_455
Li3 O9 1.973373 1_555
Li3 O7 1.973639 1_555
Li4 O1 1.939535 1_555
Li4 O6 2.016402 1_555
Li4 O5 2.102706 1_555
Li4 O2 2.160925 1_555
Li5 O1 1.867112 1_555
Li5 O7 1.877437 1_655
Li5 O11 2.053588 1_555
Li5 O3 2.207150 1_555
Al0 O8 1.761253 1_545
Al0 O10 1.774645 1_545
Al0 O5 1.776628 1_555
Al0 O0 1.783840 1_555
Al1 O9 1.761253 1_565
Al1 O4 1.774645 1_565
Al1 O11 1.776628 1_555
Al1 O3 1.783840 1_555
B0 O2 1.358304 1_555
B0 O8 1.406526 1_555
B0 O3 1.410037 1_555
B1 O1 1.358304 1_555
B1 O9 1.406526 1_555
B1 O0 1.410037 1_555
B2 O6 1.358024 1_555
B2 O4 1.387617 1_554
B2 O5 1.415719 1_555
B3 O7 1.358024 1_555
B3 O10 1.387617 1_556
B3 O11 1.415719 1_555
