# generated using pymatgen
data_Cs(Zr3I7)2
_symmetry_space_group_name_H-M   'P 1'
_cell_length_a   11.12239076
_cell_length_b   11.12239076
_cell_length_c   13.35780900
_cell_angle_alpha   90.00000000
_cell_angle_beta   90.00000000
_cell_angle_gamma   93.46342918
_symmetry_Int_Tables_number   1
_chemical_formula_structural   Cs(Zr3I7)2
_chemical_formula_sum   'Cs2 Zr12 I28'
_cell_volume   1649.44405285
_cell_formula_units_Z   2
loop_
 _symmetry_equiv_pos_site_id
 _symmetry_equiv_pos_as_xyz
  1  'x, y, z'
loop_
 _atom_site_type_symbol
 _atom_site_label
 _atom_site_symmetry_multiplicity
 _atom_site_fract_x
 _atom_site_fract_y
 _atom_site_fract_z
 _atom_site_occupancy
  Cs  Cs0  1  0.00000000  0.00000000  0.00000000  1
  Cs  Cs1  1  0.50000000  0.50000000  0.50000000  1
  Zr  Zr0  1  0.67871700  0.45199100  0.88515000  1
  Zr  Zr1  1  0.82128300  0.04800900  0.38515000  1
  Zr  Zr2  1  0.95199100  0.17871700  0.61485000  1
  Zr  Zr3  1  0.54800900  0.32128300  0.11485000  1
  Zr  Zr4  1  0.32128300  0.54800900  0.11485000  1
  Zr  Zr5  1  0.17871700  0.95199100  0.61485000  1
  Zr  Zr6  1  0.04800900  0.82128300  0.38515000  1
  Zr  Zr7  1  0.45199100  0.67871700  0.88515000  1
  Zr  Zr8  1  0.39428200  0.39428200  0.92226600  1
  Zr  Zr9  1  0.10571800  0.10571800  0.42226600  1
  Zr  Zr10  1  0.89428200  0.89428200  0.57773400  1
  Zr  Zr11  1  0.60571800  0.60571800  0.07773400  1
  I  I0  1  0.96733000  0.20907900  0.26013000  1
  I  I1  1  0.53267000  0.29092100  0.76013000  1
  I  I2  1  0.70907900  0.46733000  0.23987000  1
  I  I3  1  0.79092100  0.03267000  0.73987000  1
  I  I4  1  0.03267000  0.79092100  0.73987000  1
  I  I5  1  0.46733000  0.70907900  0.23987000  1
  I  I6  1  0.29092100  0.53267000  0.76013000  1
  I  I7  1  0.20907900  0.96733000  0.26013000  1
  I  I8  1  0.15029400  0.39348300  0.00600700  1
  I  I9  1  0.34970600  0.10651700  0.50600700  1
  I  I10  1  0.89348300  0.65029400  0.49399300  1
  I  I11  1  0.60651700  0.84970600  0.99399300  1
  I  I12  1  0.84970600  0.60651700  0.99399300  1
  I  I13  1  0.65029400  0.89348300  0.49399300  1
  I  I14  1  0.10651700  0.34970600  0.50600700  1
  I  I15  1  0.39348300  0.15029400  0.00600700  1
  I  I16  1  0.10549700  0.60549700  0.25000000  1
  I  I17  1  0.39450300  0.89450300  0.75000000  1
  I  I18  1  0.89450300  0.39450300  0.75000000  1
  I  I19  1  0.60549700  0.10549700  0.25000000  1
  I  I20  1  0.15079400  0.15079400  0.75854100  1
  I  I21  1  0.34920600  0.34920600  0.25854100  1
  I  I22  1  0.65079400  0.65079400  0.74145900  1
  I  I23  1  0.84920600  0.84920600  0.24145900  1
  I  I24  1  0.75469300  0.24530700  0.00000000  1
  I  I25  1  0.74530700  0.25469300  0.50000000  1
  I  I26  1  0.24530700  0.75469300  0.00000000  1
  I  I27  1  0.25469300  0.74530700  0.50000000  1
loop_
_geom_bond_atom_site_label_1
_geom_bond_atom_site_label_2
_geom_bond_distance
_geom_bond_site_symmetry_2
Cs0 I23 3.960938 1_445
Cs0 I20 3.960938 1_554
Cs0 I24 3.973382 1_455
Cs0 I26 3.973382 1_545
Cs0 I3 4.209025 1_454
Cs0 I4 4.209025 1_544
Cs0 I0 4.209025 1_455
Cs0 I7 4.209025 1_545
Cs1 I22 3.960938 1_555
Cs1 I21 3.960938 1_555
Cs1 I25 3.973382 1_555
Cs1 I27 3.973382 1_555
Cs1 I2 4.209025 1_555
Cs1 I5 4.209025 1_555
Cs1 I1 4.209025 1_555
Cs1 I6 4.209025 1_555
I0 Zr1 2.878426 1_555
I0 Zr9 2.931755 1_655
I1 Zr0 2.878426 1_555
I1 Zr8 2.931755 1_555
I2 Zr3 2.878426 1_555
I2 Zr11 2.931755 1_555
I3 Zr2 2.878426 1_555
I3 Zr10 2.931755 1_545
I4 Zr5 2.878426 1_555
I4 Zr10 2.931755 1_455
I5 Zr4 2.878426 1_555
I5 Zr11 2.931755 1_555
I6 Zr7 2.878426 1_555
I6 Zr8 2.931755 1_555
I7 Zr6 2.878426 1_555
I7 Zr9 2.931755 1_565
I8 Zr4 2.879185 1_555
I8 Zr8 2.934749 1_554
I9 Zr5 2.879185 1_545
I9 Zr9 2.934749 1_555
I10 Zr6 2.879185 1_655
I10 Zr10 2.934749 1_555
I11 Zr7 2.879185 1_555
I11 Zr11 2.934749 1_556
I12 Zr0 2.879185 1_555
I12 Zr11 2.934749 1_556
I13 Zr1 2.879185 1_565
I13 Zr10 2.934749 1_555
I14 Zr2 2.879185 1_455
I14 Zr9 2.934749 1_555
I15 Zr3 2.879185 1_555
I15 Zr8 2.934749 1_554
I16 Zr4 3.100590 1_555
I16 Zr6 3.100590 1_555
I17 Zr7 3.100590 1_555
I17 Zr5 3.100590 1_555
I18 Zr0 3.100590 1_555
I18 Zr2 3.100590 1_555
I19 Zr3 3.100590 1_555
I19 Zr1 3.100590 1_555
I20 Zr5 2.958506 1_545
I20 Zr2 2.958506 1_455
I21 Zr3 2.958506 1_555
I21 Zr4 2.958506 1_555
I22 Zr7 2.958506 1_555
I22 Zr0 2.958506 1_555
I23 Zr6 2.958506 1_655
I23 Zr1 2.958506 1_565
I24 Zr0 2.930352 1_554
I24 Zr3 2.930352 1_555
I25 Zr2 2.930352 1_555
I25 Zr1 2.930352 1_555
I26 Zr7 2.930352 1_554
I26 Zr4 2.930352 1_555
I27 Zr5 2.930352 1_555
I27 Zr6 2.930352 1_555
