# generated using pymatgen
data_Yb(AlGa)2
_symmetry_space_group_name_H-M   'P 1'
_cell_length_a   6.23777293
_cell_length_b   6.23777293
_cell_length_c   6.23777293
_cell_angle_alpha   140.11549710
_cell_angle_beta   140.11549710
_cell_angle_gamma   57.67797471
_symmetry_Int_Tables_number   1
_chemical_formula_structural   Yb(AlGa)2
_chemical_formula_sum   'Yb1 Al2 Ga2'
_cell_volume   98.93193601
_cell_formula_units_Z   1
loop_
 _symmetry_equiv_pos_site_id
 _symmetry_equiv_pos_as_xyz
  1  'x, y, z'
loop_
 _atom_site_type_symbol
 _atom_site_label
 _atom_site_symmetry_multiplicity
 _atom_site_fract_x
 _atom_site_fract_y
 _atom_site_fract_z
 _atom_site_occupancy
  Yb  Yb0  1  0.00000000  0.00000000  0.00000000  1
  Al  Al0  1  0.75000000  0.25000000  0.50000000  1
  Al  Al1  1  0.25000000  0.75000000  0.50000000  1
  Ga  Ga0  1  0.61266700  0.61266700  0.00000000  1
  Ga  Ga1  1  0.38733300  0.38733300  0.00000000  1
loop_
_geom_bond_atom_site_label_1
_geom_bond_atom_site_label_2
_geom_bond_distance
_geom_bond_site_symmetry_2
Al0 Ga1 2.603624 1_555
Al0 Ga1 2.603624 1_656
Al0 Ga0 2.603624 1_545
Al0 Ga0 2.603624 1_556
Al0 Yb0 3.462753 1_655
Al0 Yb0 3.462753 1_656
Al0 Yb0 3.462753 1_666
Al0 Yb0 3.462753 1_555
Al1 Ga1 2.603624 1_566
Al1 Ga1 2.603624 1_555
Al1 Ga0 2.603624 1_455
Al1 Ga0 2.603624 1_556
Al1 Yb0 3.462753 1_565
Al1 Yb0 3.462753 1_566
Al1 Yb0 3.462753 1_666
Al1 Yb0 3.462753 1_555
Ga0 Ga1 2.462520 1_555
Ga0 Yb0 3.250971 1_554
Ga0 Yb0 3.250971 1_666
Ga0 Yb0 3.250971 1_655
Ga0 Yb0 3.250971 1_565
Ga1 Yb0 3.250971 1_554
Ga1 Yb0 3.250971 1_666
Ga1 Yb0 3.250971 1_655
Ga1 Yb0 3.250971 1_565
