# generated using pymatgen
data_Li47Mn5As19
_symmetry_space_group_name_H-M   'P 1'
_cell_length_a   4.31762878
_cell_length_b   4.31762948
_cell_length_c   82.12767052
_cell_angle_alpha   60.03952921
_cell_angle_beta   60.03952369
_cell_angle_gamma   59.98602151
_symmetry_Int_Tables_number   1
_chemical_formula_structural   Li47Mn5As19
_chemical_formula_sum   'Li47 Mn5 As19'
_cell_volume   1083.12462487
_cell_formula_units_Z   1
loop_
 _symmetry_equiv_pos_site_id
 _symmetry_equiv_pos_as_xyz
  1  'x, y, z'
loop_
 _atom_site_type_symbol
 _atom_site_label
 _atom_site_symmetry_multiplicity
 _atom_site_fract_x
 _atom_site_fract_y
 _atom_site_fract_z
 _atom_site_occupancy
  Li  Li0  1  0.24296200  0.24296200  0.01423500  1
  Li  Li1  1  0.76202200  0.76202200  0.03752500  1
  Li  Li2  1  0.74453200  0.74453200  0.09295000  1
  Li  Li3  1  0.74452600  0.74452600  0.14556000  1
  Li  Li4  1  0.27247300  0.27247300  0.27271500  1
  Li  Li5  1  0.74777500  0.74777500  0.19776200  1
  Li  Li6  1  0.25379600  0.25379600  0.32835400  1
  Li  Li7  1  0.75752500  0.75752500  0.24880200  1
  Li  Li8  1  0.50937700  0.50937700  0.28798900  1
  Li  Li9  1  0.25178200  0.25178200  0.38135600  1
  Li  Li10  1  0.75325900  0.75325900  0.30209500  1
  Li  Li11  1  0.50639600  0.50639600  0.34110700  1
  Li  Li12  1  0.50542400  0.50542400  0.39391700  1
  Li  Li13  1  0.75214600  0.75214600  0.35494400  1
  Li  Li14  1  0.25101700  0.25101700  0.43409200  1
  Li  Li15  1  0.75102700  0.75102700  0.40776900  1
  Li  Li16  1  0.50499800  0.50499800  0.44659600  1
  Li  Li17  1  0.25131300  0.25131300  0.48663000  1
  Li  Li18  1  0.51321900  0.51321900  0.49788800  1
  Li  Li19  1  0.75280500  0.75280500  0.46007700  1
  Li  Li20  1  0.48508700  0.48508700  0.55493100  1
  Li  Li21  1  0.24641800  0.24641800  0.59263600  1
  Li  Li22  1  0.74395300  0.74395300  0.51410000  1
  Li  Li23  1  0.25005200  0.25005200  0.64471400  1
  Li  Li24  1  0.49732600  0.49732600  0.60566800  1
  Li  Li25  1  0.75241900  0.75241900  0.56536600  1
  Li  Li26  1  0.49532600  0.49532600  0.65862900  1
  Li  Li27  1  0.25011400  0.25011400  0.69737700  1
  Li  Li28  1  0.74860400  0.74860400  0.61859200  1
  Li  Li29  1  0.74945600  0.74945600  0.67112400  1
  Li  Li30  1  0.49580800  0.49580800  0.71120500  1
  Li  Li31  1  0.25039000  0.25039000  0.74998900  1
  Li  Li32  1  0.49579400  0.49579400  0.76384000  1
  Li  Li33  1  0.74995000  0.74995000  0.72371900  1
  Li  Li34  1  0.25043200  0.25043200  0.80261300  1
  Li  Li35  1  0.49598900  0.49598900  0.81643900  1
  Li  Li36  1  0.25081500  0.25081500  0.85518400  1
  Li  Li37  1  0.75005200  0.75005200  0.77633400  1
  Li  Li38  1  0.75017200  0.75017200  0.82895000  1
  Li  Li39  1  0.25089500  0.25089500  0.90777600  1
  Li  Li40  1  0.49596400  0.49596400  0.86905600  1
  Li  Li41  1  0.49595100  0.49595100  0.92168100  1
  Li  Li42  1  0.25054600  0.25054600  0.96041900  1
  Li  Li43  1  0.75054400  0.75054400  0.88152400  1
  Li  Li44  1  0.75020200  0.75020200  0.93422100  1
  Li  Li45  1  0.49132500  0.49132500  0.97508000  1
  Li  Li46  1  0.73534900  0.73534900  0.98916800  1
  Mn  Mn0  1  0.24714000  0.24714000  0.06628000  1
  Mn  Mn1  1  0.24461500  0.24461500  0.11926200  1
  Mn  Mn2  1  0.24192800  0.24192800  0.17231900  1
  Mn  Mn3  1  0.24408800  0.24408800  0.22463000  1
  Mn  Mn4  1  0.25420500  0.25420500  0.53875500  1
  As  As0  1  0.00885200  0.00885200  0.99860100  1
  As  As1  1  0.98662500  0.98662500  0.05468400  1
  As  As2  1  0.99407700  0.99407700  0.10612600  1
  As  As3  1  0.99623500  0.99623500  0.15843800  1
  As  As4  1  0.00155400  0.00155400  0.21023500  1
  As  As5  1  0.00065400  0.00065400  0.26299700  1
  As  As6  1  0.00117300  0.00117300  0.31557500  1
  As  As7  1  0.99810200  0.99810200  0.36878300  1
  As  As8  1  0.99754000  0.99754000  0.42149300  1
  As  As9  1  0.99587700  0.99587700  0.47429800  1
  As  As10  1  0.99769900  0.99769900  0.52667100  1
  As  As11  1  0.00280700  0.00280700  0.63108200  1
  As  As12  1  0.00259800  0.00259800  0.57848100  1
  As  As13  1  0.00398400  0.00398400  0.68359700  1
  As  As14  1  0.00438000  0.00438000  0.73622400  1
  As  As15  1  0.00437800  0.00437800  0.78884900  1
  As  As16  1  0.00471500  0.00471500  0.84143600  1
  As  As17  1  0.00503200  0.00503200  0.89397600  1
  As  As18  1  0.00443300  0.00443300  0.94662200  1
loop_
_geom_bond_atom_site_label_1
_geom_bond_atom_site_label_2
_geom_bond_distance
_geom_bond_site_symmetry_2
Li0 Li45 2.627277 1_554
Li1 Mn0 3.149270 1_555
Li1 Mn0 3.153544 1_565
Li1 Mn0 3.153544 1_655
Li2 Mn1 3.054461 1_565
Li2 Mn1 3.054461 1_655
Li2 Mn1 3.054667 1_555
Li2 Mn0 3.067121 1_655
Li2 Mn0 3.067121 1_565
Li2 Mn0 3.071191 1_665
Li3 Mn1 3.053123 1_655
Li3 Mn1 3.053123 1_565
Li3 Mn1 3.055715 1_665
Li3 Mn2 3.071193 1_555
Li3 Mn2 3.072349 1_565
Li3 Mn2 3.072349 1_655
Li4 Li8 2.693931 1_455
Li4 Li8 2.693932 1_545
Li4 Li8 2.697385 1_555
Li5 Mn2 3.019727 1_665
Li5 Mn2 3.021940 1_565
Li5 Mn2 3.021940 1_655
Li5 Mn3 3.075421 1_565
Li5 Mn3 3.075421 1_655
Li5 Mn3 3.077892 1_555
Li6 Li8 2.708465 1_555
Li7 Li8 2.629422 1_555
Li7 Mn3 2.973157 1_565
Li7 Mn3 2.973157 1_655
Li7 Mn3 2.975216 1_665
Li10 Li11 2.617680 1_555
Li10 Li8 2.665671 1_555
Li10 Li8 2.666561 1_655
Li10 Li8 2.666562 1_565
Li11 Li6 2.635170 1_655
Li11 Li6 2.635171 1_565
Li11 Li6 2.635870 1_555
Li11 Li13 2.659631 1_455
Li11 Li13 2.659631 1_545
Li11 Li13 2.660470 1_555
Li11 Li9 2.700682 1_555
Li12 Li13 2.615063 1_555
Li12 Li9 2.630484 1_555
Li12 Li9 2.631631 1_655
Li12 Li9 2.631631 1_565
Li12 Li15 2.660165 1_455
Li12 Li15 2.660165 1_545
Li12 Li15 2.660457 1_555
Li12 Li14 2.695716 1_555
Li14 Li16 2.629106 1_555
Li14 Li16 2.630486 1_455
Li14 Li16 2.630487 1_545
Li15 Li16 2.605267 1_555
Li16 Li19 2.650842 1_555
Li16 Li19 2.652080 1_455
Li16 Li19 2.652080 1_545
Li16 Li17 2.686256 1_555
Li17 Li18 2.603884 1_555
Li17 Li18 2.604898 1_455
Li17 Li18 2.604899 1_545
Li18 Li19 2.537094 1_555
Li18 Li22 2.719288 1_455
Li18 Li22 2.719289 1_545
Li18 Li22 2.720341 1_555
Li18 Mn4 2.742150 1_555
Li20 Li21 2.529981 1_555
Li20 Li25 2.588650 1_455
Li20 Li25 2.588651 1_545
Li20 Li25 2.589949 1_555
Li20 Mn4 2.718597 1_655
Li20 Mn4 2.718598 1_565
Li20 Mn4 2.718828 1_555
Li20 Li22 2.739735 1_555
Li21 Li24 2.641045 1_455
Li21 Li24 2.641046 1_545
Li21 Li24 2.642533 1_555
Li23 Li24 2.619961 1_555
Li23 Li26 2.661400 1_455
Li23 Li26 2.661400 1_545
Li23 Li26 2.662426 1_555
Li24 Li28 2.637927 1_555
Li24 Li28 2.639764 1_455
Li24 Li28 2.639765 1_545
Li24 Li25 2.704238 1_555
Li26 Li27 2.599966 1_555
Li26 Li29 2.629566 1_555
Li26 Li29 2.629967 1_455
Li26 Li29 2.629968 1_545
Li26 Li28 2.686457 1_555
Li27 Li30 2.659467 1_555
Li27 Li30 2.659816 1_455
Li27 Li30 2.659817 1_545
Li29 Li30 2.689409 1_555
Li30 Li31 2.602382 1_555
Li30 Li33 2.629905 1_455
Li30 Li33 2.629905 1_545
Li30 Li33 2.630910 1_555
Li31 Li32 2.658995 1_555
Li31 Li32 2.660861 1_455
Li31 Li32 2.660862 1_545
Li32 Li34 2.601643 1_555
Li32 Li37 2.629514 1_455
Li32 Li37 2.629515 1_545
Li32 Li37 2.630407 1_555
Li32 Li33 2.692093 1_555
Li34 Li35 2.658372 1_555
Li34 Li35 2.660294 1_455
Li34 Li35 2.660295 1_545
Li35 Li36 2.599765 1_555
Li35 Li38 2.629763 1_455
Li35 Li38 2.629763 1_545
Li35 Li38 2.631002 1_555
Li35 Li37 2.691020 1_555
Li36 Li40 2.658633 1_555
Li36 Li40 2.661782 1_455
Li36 Li40 2.661782 1_545
Li38 Li40 2.691087 1_555
Li39 Li40 2.598087 1_555
Li39 Li41 2.660221 1_555
Li39 Li41 2.662150 1_455
Li39 Li41 2.662151 1_545
Li40 Li43 2.628401 1_455
Li40 Li43 2.628402 1_545
Li40 Li43 2.630967 1_555
Li41 Li42 2.599295 1_555
Li41 Li44 2.629494 1_455
Li41 Li44 2.629494 1_545
Li41 Li44 2.633407 1_555
Li41 Li43 2.694510 1_555
Li42 Li45 2.678576 1_455
Li42 Li45 2.678576 1_545
Li42 Li45 2.681982 1_555
Li44 Li45 2.741613 1_555
Li45 Li46 2.665439 1_555
Li45 Li46 2.666035 1_455
Li45 Li46 2.666035 1_545
As0 Li42 2.561987 1_555
As0 Li46 2.571328 1_445
As0 Li46 2.571909 1_545
As0 Li46 2.571910 1_455
As0 Li1 2.611777 1_446
As0 Li0 2.703109 1_556
As0 Li0 2.704986 1_456
As0 Li0 2.704987 1_546
As0 Li45 2.949453 1_455
As0 Li45 2.949453 1_545
As0 Li45 2.951833 1_555
As1 Li2 2.567624 1_555
As1 Mn0 2.608894 1_565
As1 Mn0 2.608894 1_655
As1 Mn0 2.615903 1_665
As1 Li0 2.714102 1_665
As1 Li1 2.745455 1_555
As1 Li1 2.745783 1_655
As1 Li1 2.745783 1_565
As2 Mn1 2.642348 1_565
As2 Mn1 2.642348 1_655
As2 Li2 2.642566 1_555
As2 Li2 2.645852 1_655
As2 Li2 2.645852 1_565
As2 Li3 2.645996 1_555
As2 Mn1 2.646885 1_665
As2 Mn0 2.673647 1_665
As3 Mn1 2.628685 1_665
As3 Li3 2.637901 1_555
As3 Li3 2.638257 1_655
As3 Li3 2.638258 1_565
As3 Li5 2.638618 1_555
As3 Mn2 2.659887 1_565
As3 Mn2 2.659887 1_655
As3 Mn2 2.663054 1_665
As4 Mn2 2.544140 1_555
As4 Li7 2.587821 1_445
As4 Li5 2.625619 1_445
As4 Li5 2.631238 1_545
As4 Li5 2.631239 1_455
As4 Mn3 2.671826 1_455
As4 Mn3 2.671827 1_545
As4 Mn3 2.675979 1_555
As5 Mn3 2.574403 1_555
As5 Li4 2.576246 1_455
As5 Li4 2.576246 1_545
As5 Li4 2.576975 1_555
As5 Li10 2.623451 1_445
As5 Li7 2.666474 1_445
As5 Li7 2.669350 1_545
As5 Li7 2.669350 1_455
As5 Li8 3.002597 1_445
As5 Li8 3.005011 1_545
As5 Li8 3.005011 1_455
As6 Li6 2.635074 1_455
As6 Li6 2.635075 1_545
As6 Li6 2.637764 1_555
As6 Li13 2.641635 1_445
As6 Li10 2.651527 1_445
As6 Li10 2.651703 1_545
As6 Li10 2.651703 1_455
As6 Li4 2.875878 1_555
As6 Li11 3.023480 1_445
As6 Li11 3.025131 1_545
As6 Li11 3.025131 1_455
As6 Li8 3.103996 1_545
As6 Li8 3.103996 1_455
As6 Li8 3.106180 1_555
As7 Li15 2.615936 1_555
As7 Li9 2.631485 1_565
As7 Li9 2.631485 1_655
As7 Li9 2.631550 1_665
As7 Li13 2.658912 1_655
As7 Li13 2.658912 1_565
As7 Li13 2.662049 1_555
As7 Li6 2.712761 1_665
As7 Li12 3.008783 1_655
As7 Li12 3.008783 1_565
As7 Li12 3.011037 1_555
As7 Li11 3.106904 1_665
As7 Li11 3.109041 1_655
As7 Li11 3.109041 1_565
As8 Li19 2.588963 1_555
As8 Li14 2.631838 1_665
As8 Li14 2.632180 1_565
As8 Li14 2.632181 1_655
As8 Li15 2.656827 1_655
As8 Li15 2.656827 1_565
As8 Li15 2.658167 1_555
As8 Li9 2.693167 1_665
As8 Li16 3.007431 1_655
As8 Li16 3.007431 1_565
As8 Li16 3.010246 1_555
As8 Li12 3.104238 1_665
As8 Li12 3.104366 1_655
As8 Li12 3.104367 1_565
As9 Li17 2.625529 1_565
As9 Li17 2.625530 1_655
As9 Li17 2.628043 1_665
As9 Li19 2.667849 1_555
As9 Li19 2.669596 1_655
As9 Li19 2.669597 1_565
As9 Li22 2.670688 1_555
As9 Li14 2.697800 1_665
As9 Li18 2.952721 1_555
As9 Li18 2.952728 1_655
As9 Li18 2.952728 1_565
As9 Li16 3.108097 1_655
As9 Li16 3.108097 1_565
As9 Li16 3.111919 1_665
As10 Li25 2.596410 1_555
As10 Mn4 2.619293 1_665
As10 Mn4 2.622112 1_565
As10 Mn4 2.622113 1_655
As10 Li22 2.631253 1_655
As10 Li22 2.631253 1_565
As10 Li22 2.631885 1_555
As10 Li17 2.686725 1_665
As10 Li20 3.130759 1_565
As10 Li20 3.130759 1_655
As10 Li20 3.134175 1_555
As10 Li18 3.153144 1_665
As10 Li18 3.153330 1_655
As10 Li18 3.153330 1_565
As11 Li21 2.579702 1_555
As11 Li28 2.629714 1_545
As11 Li28 2.629714 1_455
As11 Li28 2.629752 1_445
As11 Li23 2.654169 1_455
As11 Li23 2.654170 1_545
As11 Li23 2.657084 1_555
As11 Li29 2.686793 1_445
As11 Li24 3.019144 1_455
As11 Li24 3.019144 1_545
As11 Li24 3.022020 1_555
As11 Li26 3.101761 1_445
As11 Li26 3.103867 1_455
As11 Li26 3.103867 1_545
As12 Li25 2.642947 1_445
As12 Li25 2.643612 1_545
As12 Li25 2.643613 1_455
As12 Mn4 2.665589 1_555
As12 Li21 2.666862 1_455
As12 Li21 2.666863 1_545
As12 Li21 2.668575 1_555
As12 Li28 2.691422 1_445
As12 Li20 2.951024 1_455
As12 Li20 2.951024 1_545
As12 Li20 2.951815 1_555
As12 Li24 3.087853 1_445
As12 Li24 3.089329 1_455
As12 Li24 3.089329 1_545
As13 Li23 2.609024 1_555
As13 Li29 2.628580 1_545
As13 Li29 2.628580 1_455
As13 Li29 2.630930 1_445
As13 Li27 2.658231 1_455
As13 Li27 2.658232 1_545
As13 Li27 2.659271 1_555
As13 Li33 2.692160 1_445
As13 Li26 3.003044 1_555
As13 Li26 3.003438 1_455
As13 Li26 3.003438 1_545
As13 Li30 3.105378 1_455
As13 Li30 3.105378 1_545
As13 Li30 3.106055 1_445
As14 Li27 2.606609 1_555
As14 Li33 2.628894 1_545
As14 Li33 2.628894 1_455
As14 Li33 2.632355 1_445
As14 Li31 2.657414 1_555
As14 Li31 2.658635 1_455
As14 Li31 2.658636 1_545
As14 Li37 2.691356 1_445
As14 Li30 3.003485 1_555
As14 Li30 3.006084 1_455
As14 Li30 3.006084 1_545
As14 Li32 3.104621 1_455
As14 Li32 3.104621 1_545
As14 Li32 3.108533 1_445
As15 Li31 2.607481 1_555
As15 Li37 2.629252 1_545
As15 Li37 2.629253 1_455
As15 Li37 2.632281 1_445
As15 Li34 2.657655 1_555
As15 Li34 2.658480 1_455
As15 Li34 2.658480 1_545
As15 Li38 2.690752 1_445
As15 Li32 3.003428 1_555
As15 Li32 3.005550 1_455
As15 Li32 3.005550 1_545
As15 Li35 3.103677 1_455
As15 Li35 3.103677 1_545
As15 Li35 3.107299 1_445
As16 Li34 2.604998 1_555
As16 Li38 2.628513 1_545
As16 Li38 2.628514 1_455
As16 Li38 2.631897 1_445
As16 Li36 2.656894 1_555
As16 Li36 2.658301 1_455
As16 Li36 2.658302 1_545
As16 Li43 2.689880 1_445
As16 Li35 3.002569 1_555
As16 Li35 3.005306 1_455
As16 Li35 3.005306 1_545
As16 Li40 3.104363 1_455
As16 Li40 3.104363 1_545
As16 Li40 3.109531 1_445
As17 Li36 2.602918 1_555
As17 Li43 2.628745 1_545
As17 Li43 2.628745 1_455
As17 Li43 2.629255 1_445
As17 Li39 2.658754 1_555
As17 Li39 2.659190 1_455
As17 Li39 2.659191 1_545
As17 Li44 2.700413 1_445
As17 Li40 3.000590 1_555
As17 Li40 3.001972 1_455
As17 Li40 3.001972 1_545
As17 Li41 3.108394 1_455
As17 Li41 3.108394 1_545
As17 Li41 3.111685 1_445
As18 Li39 2.606544 1_555
As18 Li44 2.624056 1_445
As18 Li44 2.629719 1_545
As18 Li44 2.629720 1_455
As18 Li42 2.658310 1_455
As18 Li42 2.658311 1_545
As18 Li42 2.660304 1_555
As18 Li46 2.854810 1_445
As18 Li41 3.001351 1_455
As18 Li41 3.001351 1_545
As18 Li41 3.004188 1_555
As18 Li45 3.137732 1_445
As18 Li45 3.141073 1_455
As18 Li45 3.141074 1_545
