# generated using pymatgen
data_Na2FeCuF7
_symmetry_space_group_name_H-M   'P 1'
_cell_length_a   7.32541288
_cell_length_b   7.32541288
_cell_length_c   24.93337554
_cell_angle_alpha   82.18498958
_cell_angle_beta   82.18498958
_cell_angle_gamma   60.96011611
_symmetry_Int_Tables_number   1
_chemical_formula_structural   Na2FeCuF7
_chemical_formula_sum   'Na16 Fe8 Cu8 F56'
_cell_volume   1155.10824411
_cell_formula_units_Z   8
loop_
 _symmetry_equiv_pos_site_id
 _symmetry_equiv_pos_as_xyz
  1  'x, y, z'
loop_
 _atom_site_type_symbol
 _atom_site_label
 _atom_site_symmetry_multiplicity
 _atom_site_fract_x
 _atom_site_fract_y
 _atom_site_fract_z
 _atom_site_occupancy
  Na  Na0  1  0.21744500  0.28973600  0.24701600  1
  Na  Na1  1  0.12054600  0.13248400  0.62300100  1
  Na  Na2  1  0.13248400  0.12054600  0.12300100  1
  Na  Na3  1  0.50000000  0.50000000  0.50000000  1
  Na  Na4  1  0.00000000  0.00000000  0.00000000  1
  Na  Na5  1  0.77903100  0.22096900  0.75000000  1
  Na  Na6  1  0.87945400  0.86751600  0.37699900  1
  Na  Na7  1  0.22096900  0.77903100  0.25000000  1
  Na  Na8  1  0.86751600  0.87945400  0.87699900  1
  Na  Na9  1  0.28973600  0.21744500  0.74701600  1
  Na  Na10  1  0.00000000  0.50000000  0.00000000  1
  Na  Na11  1  0.50000000  0.50000000  0.00000000  1
  Na  Na12  1  0.71026400  0.78255500  0.25298400  1
  Na  Na13  1  0.78255500  0.71026400  0.75298400  1
  Na  Na14  1  0.00000000  0.00000000  0.50000000  1
  Na  Na15  1  0.50000000  0.00000000  0.50000000  1
  Fe  Fe0  1  0.36442700  0.88887700  0.37461600  1
  Fe  Fe1  1  0.25019700  0.74980300  0.75000000  1
  Fe  Fe2  1  0.74980300  0.25019700  0.25000000  1
  Fe  Fe3  1  0.50000000  0.00000000  0.00000000  1
  Fe  Fe4  1  0.00000000  0.50000000  0.50000000  1
  Fe  Fe5  1  0.11112300  0.63557300  0.12538400  1
  Fe  Fe6  1  0.88887700  0.36442700  0.87461600  1
  Fe  Fe7  1  0.63557300  0.11112300  0.62538400  1
  Cu  Cu0  1  0.13367100  0.61448000  0.62567500  1
  Cu  Cu1  1  0.63142700  0.61393600  0.62738400  1
  Cu  Cu2  1  0.61448000  0.13367100  0.12567500  1
  Cu  Cu3  1  0.38606400  0.36857300  0.87261600  1
  Cu  Cu4  1  0.36857300  0.38606400  0.37261600  1
  Cu  Cu5  1  0.38552000  0.86632900  0.87432500  1
  Cu  Cu6  1  0.86632900  0.38552000  0.37432500  1
  Cu  Cu7  1  0.61393600  0.63142700  0.12738400  1
  F  F0  1  0.30737300  0.72800400  0.14197300  1
  F  F1  1  0.36370600  0.46662300  0.78839600  1
  F  F2  1  0.13731300  0.63286300  0.70519300  1
  F  F3  1  0.46662300  0.36370600  0.28839600  1
  F  F4  1  0.86819100  0.79384700  0.46724700  1
  F  F5  1  0.68040800  0.36219100  0.10287300  1
  F  F6  1  0.26337200  0.41924100  0.45571300  1
  F  F7  1  0.63629400  0.53337700  0.21160400  1
  F  F8  1  0.36274500  0.96426200  0.29521100  1
  F  F9  1  0.63654500  0.18196400  0.54568000  1
  F  F10  1  0.14066000  0.02636600  0.71008100  1
  F  F11  1  0.63725500  0.03573800  0.70478900  1
  F  F12  1  0.53971900  0.91715600  0.61020700  1
  F  F13  1  0.03573800  0.63725500  0.20478900  1
  F  F14  1  0.13180900  0.20615300  0.53275300  1
  F  F15  1  0.53337700  0.63629400  0.71160400  1
  F  F16  1  0.20615300  0.13180900  0.03275300  1
  F  F17  1  0.66486100  0.70480100  0.36035200  1
  F  F18  1  0.33513900  0.29519900  0.63964800  1
  F  F19  1  0.63286300  0.13731300  0.20519300  1
  F  F20  1  0.90797900  0.54227600  0.64889200  1
  F  F21  1  0.72800400  0.30737300  0.64197300  1
  F  F22  1  0.81803600  0.36345500  0.95432000  1
  F  F23  1  0.09202100  0.45772400  0.35110800  1
  F  F24  1  0.36219100  0.68040800  0.60287300  1
  F  F25  1  0.93652900  0.93247800  0.61042100  1
  F  F26  1  0.63780900  0.31959200  0.39712700  1
  F  F27  1  0.41924100  0.26337200  0.95571300  1
  F  F28  1  0.73662800  0.58075900  0.54428700  1
  F  F29  1  0.54227600  0.90797900  0.14889200  1
  F  F30  1  0.86268700  0.36713700  0.29480700  1
  F  F31  1  0.91715600  0.53971900  0.11020700  1
  F  F32  1  0.13199300  0.59289500  0.54599900  1
  F  F33  1  0.96426200  0.36274500  0.79521100  1
  F  F34  1  0.70480100  0.66486100  0.86035200  1
  F  F35  1  0.97363400  0.85934000  0.78991900  1
  F  F36  1  0.02636600  0.14066000  0.21008100  1
  F  F37  1  0.27199600  0.69262700  0.35802700  1
  F  F38  1  0.85934000  0.97363400  0.28991900  1
  F  F39  1  0.31959200  0.63780900  0.89712700  1
  F  F40  1  0.40710500  0.86800700  0.95400100  1
  F  F41  1  0.06347100  0.06752200  0.38957900  1
  F  F42  1  0.36345500  0.81803600  0.45432000  1
  F  F43  1  0.69262700  0.27199600  0.85802700  1
  F  F44  1  0.93247800  0.93652900  0.11042100  1
  F  F45  1  0.36713700  0.86268700  0.79480700  1
  F  F46  1  0.58075900  0.73662800  0.04428700  1
  F  F47  1  0.45772400  0.09202100  0.85110800  1
  F  F48  1  0.59289500  0.13199300  0.04599900  1
  F  F49  1  0.86800700  0.40710500  0.45400100  1
  F  F50  1  0.29519900  0.33513900  0.13964800  1
  F  F51  1  0.79384700  0.86819100  0.96724700  1
  F  F52  1  0.08284400  0.46028100  0.88979300  1
  F  F53  1  0.46028100  0.08284400  0.38979300  1
  F  F54  1  0.06752200  0.06347100  0.88957900  1
  F  F55  1  0.18196400  0.63654500  0.04568000  1
loop_
_geom_bond_atom_site_label_1
_geom_bond_atom_site_label_2
_geom_bond_distance
_geom_bond_site_symmetry_2
Cu0 F24 1.951960 1_555
Cu0 F20 1.963070 1_455
Cu0 F2 2.010034 1_555
Cu0 F32 2.016346 1_555
Cu0 F25 2.073421 1_455
Cu0 F18 2.082517 1_555
Cu1 F24 1.953186 1_555
Cu1 F20 1.963083 1_555
Cu1 F12 1.984784 1_555
Cu1 F21 1.995346 1_555
Cu1 F28 2.113425 1_555
Cu1 F15 2.126359 1_555
Cu2 F5 1.951960 1_555
Cu2 F29 1.963070 1_545
Cu2 F19 2.010034 1_555
Cu2 F48 2.016346 1_555
Cu2 F44 2.073421 1_545
Cu2 F50 2.082517 1_555
Cu3 F39 1.953186 1_555
Cu3 F47 1.963083 1_555
Cu3 F52 1.984784 1_555
Cu3 F43 1.995346 1_555
Cu3 F27 2.113425 1_555
Cu3 F1 2.126359 1_555
Cu4 F26 1.953186 1_555
Cu4 F23 1.963083 1_555
Cu4 F53 1.984784 1_555
Cu4 F37 1.995346 1_555
Cu4 F6 2.113425 1_555
Cu4 F3 2.126359 1_555
Cu5 F39 1.951960 1_555
Cu5 F47 1.963070 1_565
Cu5 F45 2.010034 1_555
Cu5 F40 2.016346 1_555
Cu5 F54 2.073421 1_565
Cu5 F34 2.082517 1_555
Cu6 F26 1.951960 1_555
Cu6 F23 1.963070 1_655
Cu6 F30 2.010034 1_555
Cu6 F49 2.016346 1_555
Cu6 F41 2.073421 1_655
Cu6 F17 2.082517 1_555
Cu7 F5 1.953186 1_555
Cu7 F29 1.963083 1_555
Cu7 F31 1.984784 1_555
Cu7 F0 1.995346 1_555
Cu7 F46 2.113425 1_555
Cu7 F7 2.126359 1_555
F0 Fe5 1.969556 1_555
F0 Na2 2.520345 1_565
F0 Na7 2.715814 1_555
F1 Fe1 1.978109 1_555
F1 Na9 2.512840 1_555
F1 Na5 2.787885 1_555
F2 Fe1 1.965946 1_555
F2 Na13 2.531001 1_455
F2 Na9 2.783803 1_555
F3 Fe2 1.978109 1_555
F3 Na0 2.512840 1_555
F3 Na7 2.787885 1_555
F4 Fe4 1.987780 1_655
F4 Na6 2.241401 1_555
F4 Na14 2.417687 1_665
F4 Na15 2.450337 1_565
F5 Na11 2.875268 1_555
F6 Fe4 1.944669 1_555
F6 Na3 2.503538 1_555
F6 Na15 2.843554 1_555
F7 Fe2 1.978109 1_555
F7 Na12 2.512840 1_555
F7 Na7 2.787885 1_555
F8 Fe0 1.981805 1_555
F8 Na0 2.316554 1_565
F8 Na12 2.392376 1_555
F8 Na7 2.508582 1_555
F9 Fe7 1.984427 1_555
F9 Na3 2.247503 1_555
F9 Na15 2.468117 1_555
F9 Na14 2.511063 1_655
F10 Fe1 1.956920 1_545
F10 Na1 2.203838 1_555
F10 Na5 2.458258 1_455
F10 Na9 2.471423 1_555
F11 Fe7 1.981805 1_555
F11 Na13 2.316554 1_545
F11 Na9 2.392376 1_555
F11 Na5 2.508582 1_555
F12 Fe7 1.960167 1_565
F12 Na1 2.680811 1_565
F12 Na15 2.756090 1_565
F13 Fe5 1.981805 1_555
F13 Na12 2.316554 1_455
F13 Na0 2.392376 1_555
F13 Na7 2.508582 1_555
F14 Fe4 1.987780 1_555
F14 Na1 2.241401 1_555
F14 Na14 2.417687 1_555
F14 Na15 2.450337 1_555
F15 Fe1 1.978109 1_555
F15 Na13 2.512840 1_555
F15 Na5 2.787885 1_555
F16 Fe3 1.987780 1_555
F16 Na2 2.241401 1_555
F16 Na4 2.417687 1_555
F16 Na10 2.450337 1_555
F17 Fe0 1.955700 1_555
F17 Na6 2.489023 1_555
F17 Na12 2.669968 1_555
F18 Fe7 1.955700 1_555
F18 Na1 2.489023 1_555
F18 Na9 2.669968 1_555
F19 Fe2 1.965946 1_555
F19 Na12 2.531001 1_545
F19 Na0 2.783803 1_555
F20 Na1 2.751069 1_655
F20 Na13 2.866499 1_555
F21 Fe7 1.969556 1_555
F21 Na1 2.520345 1_655
F21 Na5 2.715814 1_555
F22 Fe6 1.984427 1_555
F22 Na11 2.247503 1_556
F22 Na10 2.468117 1_656
F22 Na4 2.511063 1_656
F23 Na6 2.751069 1_455
F23 Na0 2.866499 1_555
F24 Na3 2.875268 1_555
F25 Fe7 1.954554 1_565
F25 Na1 2.493880 1_665
F25 Na14 2.746922 1_665
F26 Na3 2.875268 1_555
F27 Fe3 1.944669 1_556
F27 Na11 2.503538 1_556
F27 Na10 2.843554 1_556
F28 Fe4 1.944669 1_655
F28 Na3 2.503538 1_555
F28 Na15 2.843554 1_565
F29 Na2 2.751069 1_565
F29 Na12 2.866499 1_555
F30 Fe2 1.965946 1_555
F30 Na0 2.531001 1_655
F30 Na12 2.783803 1_555
F31 Fe5 1.960167 1_655
F31 Na2 2.680811 1_655
F31 Na10 2.756090 1_655
F32 Fe4 1.966212 1_555
F32 Na3 2.576096 1_555
F32 Na14 2.777750 1_565
F33 Fe6 1.981805 1_555
F33 Na9 2.316554 1_655
F33 Na13 2.392376 1_555
F33 Na5 2.508582 1_555
F34 Fe6 1.955700 1_555
F34 Na8 2.489023 1_555
F34 Na13 2.669968 1_555
F35 Fe1 1.956920 1_655
F35 Na8 2.203838 1_555
F35 Na5 2.458258 1_565
F35 Na13 2.471423 1_555
F36 Fe2 1.956920 1_455
F36 Na2 2.203838 1_555
F36 Na7 2.458258 1_545
F36 Na0 2.471423 1_555
F37 Fe0 1.969556 1_555
F37 Na6 2.520345 1_455
F37 Na7 2.715814 1_555
F38 Fe2 1.956920 1_565
F38 Na6 2.203838 1_555
F38 Na7 2.458258 1_655
F38 Na12 2.471423 1_555
F39 Na11 2.875268 1_556
F40 Fe3 1.966212 1_566
F40 Na11 2.576096 1_556
F40 Na4 2.777750 1_566
F41 Fe0 1.954554 1_545
F41 Na6 2.493880 1_445
F41 Na14 2.746922 1_555
F42 Fe0 1.984427 1_555
F42 Na3 2.247503 1_555
F42 Na15 2.468117 1_565
F42 Na14 2.511063 1_565
F43 Fe6 1.969556 1_555
F43 Na8 2.520345 1_545
F43 Na5 2.715814 1_555
F44 Fe5 1.954554 1_655
F44 Na2 2.493880 1_665
F44 Na4 2.746922 1_665
F45 Fe1 1.965946 1_555
F45 Na9 2.531001 1_565
F45 Na13 2.783803 1_555
F46 Fe3 1.944669 1_565
F46 Na11 2.503538 1_555
F46 Na10 2.843554 1_655
F47 Na8 2.751069 1_545
F47 Na9 2.866499 1_555
F48 Fe3 1.966212 1_555
F48 Na11 2.576096 1_555
F48 Na4 2.777750 1_655
F49 Fe4 1.966212 1_655
F49 Na3 2.576096 1_555
F49 Na14 2.777750 1_655
F50 Fe5 1.955700 1_555
F50 Na2 2.489023 1_555
F50 Na0 2.669968 1_555
F51 Fe3 1.987780 1_566
F51 Na8 2.241401 1_555
F51 Na4 2.417687 1_666
F51 Na10 2.450337 1_656
F52 Fe6 1.960167 1_455
F52 Na8 2.680811 1_455
F52 Na10 2.756090 1_556
F53 Fe0 1.960167 1_545
F53 Na6 2.680811 1_545
F53 Na15 2.756090 1_555
F54 Fe6 1.954554 1_455
F54 Na8 2.493880 1_445
F54 Na4 2.746922 1_556
F55 Fe5 1.984427 1_555
F55 Na11 2.247503 1_555
F55 Na10 2.468117 1_555
F55 Na4 2.511063 1_565
