# generated using pymatgen
data_Li5VP2O9
_symmetry_space_group_name_H-M   'P 1'
_cell_length_a   7.71654885
_cell_length_b   7.71654885
_cell_length_c   7.71654885
_cell_angle_alpha   105.38788558
_cell_angle_beta   105.38788558
_cell_angle_gamma   117.98857348
_symmetry_Int_Tables_number   1
_chemical_formula_structural   Li5VP2O9
_chemical_formula_sum   'Li10 V2 P4 O18'
_cell_volume   347.76820161
_cell_formula_units_Z   2
loop_
 _symmetry_equiv_pos_site_id
 _symmetry_equiv_pos_as_xyz
  1  'x, y, z'
loop_
 _atom_site_type_symbol
 _atom_site_label
 _atom_site_symmetry_multiplicity
 _atom_site_fract_x
 _atom_site_fract_y
 _atom_site_fract_z
 _atom_site_occupancy
  Li  Li0  1  0.75000000  0.25000000  0.50000000  1
  Li  Li1  1  0.75000000  0.52532700  0.77532700  1
  Li  Li2  1  0.97467300  0.75000000  0.22467300  1
  Li  Li3  1  0.52532700  0.75000000  0.77532700  1
  Li  Li4  1  0.25000000  0.02532700  0.77532700  1
  Li  Li5  1  0.02532700  0.25000000  0.77532700  1
  Li  Li6  1  0.25000000  0.75000000  0.50000000  1
  Li  Li7  1  0.25000000  0.47467300  0.22467300  1
  Li  Li8  1  0.75000000  0.97467300  0.22467300  1
  Li  Li9  1  0.47467300  0.25000000  0.22467300  1
  V  V0  1  0.50000000  0.50000000  0.00000000  1
  V  V1  1  0.00000000  0.00000000  0.00000000  1
  P  P0  1  0.79300200  0.29300200  0.08600300  1
  P  P1  1  0.20699800  0.70699800  0.91399700  1
  P  P2  1  0.29300200  0.20699800  0.50000000  1
  P  P3  1  0.70699800  0.79300200  0.50000000  1
  O  O0  1  0.87247000  0.81865100  0.69112100  1
  O  O1  1  0.51950400  0.29994500  0.50000000  1
  O  O2  1  0.01950400  0.51950400  0.21955900  1
  O  O3  1  0.37247000  0.68134900  0.05382000  1
  O  O4  1  0.31865100  0.37247000  0.69112100  1
  O  O5  1  0.70005500  0.20005500  0.21955900  1
  O  O6  1  0.48049600  0.70005500  0.50000000  1
  O  O7  1  0.12753000  0.18134900  0.30887900  1
  O  O8  1  0.18134900  0.87247000  0.05382000  1
  O  O9  1  0.20005500  0.98049600  0.50000000  1
  O  O10  1  0.25000000  0.25000000  0.00000000  1
  O  O11  1  0.98049600  0.48049600  0.78044100  1
  O  O12  1  0.68134900  0.62753000  0.30887900  1
  O  O13  1  0.81865100  0.12753000  0.94618000  1
  O  O14  1  0.75000000  0.75000000  0.00000000  1
  O  O15  1  0.29994500  0.79994500  0.78044100  1
  O  O16  1  0.79994500  0.01950400  0.50000000  1
  O  O17  1  0.62753000  0.31865100  0.94618000  1
loop_
_geom_bond_atom_site_label_1
_geom_bond_atom_site_label_2
_geom_bond_distance
_geom_bond_site_symmetry_2
Li0 O11 1.988836 1_555
Li0 O1 1.988836 1_555
Li0 O16 1.988836 1_555
Li0 O5 1.988836 1_555
Li1 O11 1.957621 1_555
Li1 O1 1.957621 1_555
Li1 O14 2.101496 1_556
Li1 O17 2.353128 1_555
Li1 O0 2.353135 1_555
Li2 O9 1.957621 1_655
Li2 O2 1.957621 1_655
Li2 O14 2.101496 1_555
Li2 O8 2.353128 1_655
Li2 O12 2.353135 1_555
Li3 O6 1.957621 1_555
Li3 O15 1.957621 1_555
Li3 O14 2.101496 1_556
Li3 O4 2.353135 1_555
Li3 O13 2.353135 1_565
Li4 O15 1.957621 1_545
Li4 O9 1.957621 1_545
Li4 O10 2.101496 1_556
Li4 O0 2.353135 1_445
Li4 O17 2.353135 1_555
Li5 O16 1.957621 1_455
Li5 O11 1.957621 1_455
Li5 O10 2.101496 1_556
Li5 O13 2.353128 1_455
Li5 O4 2.353135 1_555
Li6 O15 1.988836 1_555
Li6 O9 1.988836 1_555
Li6 O6 1.988836 1_555
Li6 O2 1.988836 1_555
Li7 O2 1.957621 1_555
Li7 O6 1.957621 1_555
Li7 O10 2.101496 1_555
Li7 O3 2.353128 1_555
Li7 O7 2.353135 1_555
Li8 O5 1.957621 1_565
Li8 O16 1.957621 1_565
Li8 O14 2.101496 1_555
Li8 O7 2.353135 1_665
Li8 O3 2.353135 1_555
Li9 O1 1.957621 1_555
Li9 O5 1.957621 1_555
Li9 O10 2.101496 1_555
Li9 O12 2.353135 1_555
Li9 O8 2.353135 1_545
O0 P3 1.566238 1_555
O0 V1 2.073698 1_666
O1 P2 1.546825 1_555
O2 P0 1.546826 1_455
O3 P1 1.566238 1_554
O3 V0 2.073699 1_555
O4 P2 1.566238 1_555
O4 V0 2.073698 1_556
O5 P0 1.546832 1_555
O6 P3 1.546825 1_555
O7 P2 1.566238 1_555
O7 V1 2.073698 1_555
O8 P1 1.566238 1_554
O8 V1 2.073699 1_565
O9 P2 1.546825 1_565
O10 V0 1.987488 1_555
O10 V1 1.987488 1_555
O11 P1 1.546826 1_655
O12 P3 1.566238 1_555
O12 V0 2.073698 1_555
O13 P0 1.566238 1_556
O13 V1 2.073699 1_656
O14 V0 1.987488 1_555
O14 V1 1.987488 1_665
O15 P1 1.546832 1_555
O16 P3 1.546825 1_545
O17 P0 1.566238 1_556
O17 V0 2.073699 1_556
