# generated using pymatgen
data_K9Eu3Si12(O16F)2
_symmetry_space_group_name_H-M   'P 1'
_cell_length_a   6.99416400
_cell_length_b   11.58452495
_cell_length_c   11.66484921
_cell_angle_alpha   92.17696304
_cell_angle_beta   89.68711475
_cell_angle_gamma   100.16857530
_symmetry_Int_Tables_number   1
_chemical_formula_structural   K9Eu3Si12(O16F)2
_chemical_formula_sum   'K9 Eu3 Si12 O32 F2'
_cell_volume   929.61576142
_cell_formula_units_Z   1
loop_
 _symmetry_equiv_pos_site_id
 _symmetry_equiv_pos_as_xyz
  1  'x, y, z'
loop_
 _atom_site_type_symbol
 _atom_site_label
 _atom_site_symmetry_multiplicity
 _atom_site_fract_x
 _atom_site_fract_y
 _atom_site_fract_z
 _atom_site_occupancy
  Eu  Eu0  1  0.48577700  0.51205900  0.33356000  1
  Eu  Eu1  1  0.51422300  0.48794100  0.66644000  1
  Eu  Eu2  1  0.00000000  0.00000000  0.50000000  1
  K  K0  1  0.01366200  0.66999100  0.50890000  1
  K  K1  1  0.26957700  0.38342700  0.01761500  1
  K  K2  1  0.16825000  0.15073000  0.21329300  1
  K  K3  1  0.16978900  0.18950800  0.77824700  1
  K  K4  1  0.73042300  0.61657300  0.98238500  1
  K  K5  1  0.98633800  0.33000900  0.49110000  1
  K  K6  1  0.83175000  0.84927000  0.78670700  1
  K  K7  1  0.50000000  0.00000000  0.00000000  1
  K  K8  1  0.83021100  0.81049200  0.22175300  1
  Si  Si0  1  0.66181900  0.13628500  0.68969100  1
  Si  Si1  1  0.33818100  0.86371500  0.31030900  1
  Si  Si2  1  0.44834600  0.23140700  0.48935100  1
  Si  Si3  1  0.30929600  0.69620700  0.84222300  1
  Si  Si4  1  0.65610000  0.09095200  0.30365000  1
  Si  Si5  1  0.55165400  0.76859300  0.51064900  1
  Si  Si6  1  0.98361700  0.51348700  0.25647000  1
  Si  Si7  1  0.69070400  0.30379300  0.15777700  1
  Si  Si8  1  0.28376900  0.66768100  0.11829500  1
  Si  Si9  1  0.71623100  0.33231900  0.88170500  1
  Si  Si10  1  0.34390000  0.90904800  0.69635000  1
  Si  Si11  1  0.01638300  0.48651300  0.74353000  1
  O  O0  1  0.54357900  0.39683800  0.84401100  1
  O  O1  1  0.47177900  0.37310800  0.48418400  1
  O  O2  1  0.28835300  0.69123000  0.98145300  1
  O  O3  1  0.06592500  0.58552400  0.13884900  1
  O  O4  1  0.84267700  0.03378500  0.32968600  1
  O  O5  1  0.31115500  0.83606500  0.81651400  1
  O  O6  1  0.49102000  0.79379700  0.37557700  1
  O  O7  1  0.84318100  0.48897800  0.65276400  1
  O  O8  1  0.68884500  0.16393500  0.18348600  1
  O  O9  1  0.28573500  0.79696200  0.18347600  1
  O  O10  1  0.15681900  0.51102200  0.34723600  1
  O  O11  1  0.50263200  0.35070900  0.20658500  1
  O  O12  1  0.71164700  0.30877000  0.01854700  1
  O  O13  1  0.49736800  0.64929100  0.79341500  1
  O  O14  1  0.81291900  0.57489200  0.31236900  1
  O  O15  1  0.45703900  0.99416800  0.27494600  1
  O  O16  1  0.61471300  0.18360000  0.40701000  1
  O  O17  1  0.45642100  0.60316200  0.15598900  1
  O  O18  1  0.93407500  0.41447600  0.86115100  1
  O  O19  1  0.09964700  0.62469000  0.78902500  1
  O  O20  1  0.76814500  0.83607900  0.54187000  1
  O  O21  1  0.18708100  0.42510800  0.68763100  1
  O  O22  1  0.71426500  0.20303800  0.81652400  1
  O  O23  1  0.50898000  0.20620300  0.62442300  1
  O  O24  1  0.54296100  0.00583200  0.72505400  1
  O  O25  1  0.15732300  0.96621500  0.67031400  1
  O  O26  1  0.85591700  0.12761100  0.61994100  1
  O  O27  1  0.38528700  0.81640000  0.59299000  1
  O  O28  1  0.90035300  0.37531000  0.21097500  1
  O  O29  1  0.14408300  0.87238900  0.38005900  1
  O  O30  1  0.52822100  0.62689200  0.51581600  1
  O  O31  1  0.23185500  0.16392100  0.45813000  1
  F  F0  1  0.75549400  0.84442900  0.00442500  1
  F  F1  1  0.24450600  0.15557100  0.99557500  1
loop_
_geom_bond_atom_site_label_1
_geom_bond_atom_site_label_2
_geom_bond_distance
_geom_bond_site_symmetry_2
Eu0 O14 2.290347 1_555
Eu0 O10 2.303386 1_555
Eu0 O11 2.359454 1_555
Eu0 O17 2.386142 1_555
Eu0 O1 2.417658 1_555
Eu0 O30 2.455648 1_555
Eu1 O21 2.290347 1_555
Eu1 O7 2.303386 1_555
Eu1 O13 2.359454 1_555
Eu1 O0 2.386142 1_555
Eu1 O30 2.417658 1_555
Eu1 O1 2.455648 1_555
Eu2 O31 2.334254 1_555
Eu2 O20 2.334254 1_445
Eu2 O29 2.347743 1_545
Eu2 O26 2.347743 1_455
Eu2 O4 2.354967 1_455
Eu2 O25 2.354967 1_545
K0 O14 2.781671 1_455
K0 O20 2.811009 1_455
K0 O7 2.828036 1_455
K0 O29 2.843576 1_555
K0 O10 2.883876 1_555
K0 O27 2.989914 1_555
K1 O0 2.770209 1_554
K1 O11 2.824972 1_555
K1 O17 3.054366 1_555
K1 O18 3.059651 1_454
K1 O3 3.227054 1_555
K2 O4 2.807254 1_455
K2 O31 2.886976 1_555
K2 O11 2.990216 1_555
K2 O15 3.048755 1_545
K3 O25 2.821014 1_545
K3 O26 2.851533 1_455
K3 O21 2.946575 1_555
K3 O23 2.950082 1_555
K4 O17 2.770209 1_556
K4 O13 2.824972 1_555
K4 O0 3.054366 1_555
K4 O3 3.059651 1_656
K4 O18 3.227054 1_555
K5 O21 2.781671 1_655
K5 O31 2.811009 1_655
K5 O10 2.828036 1_655
K5 O26 2.843576 1_555
K5 O7 2.883876 1_555
K5 O16 2.989914 1_555
K6 O25 2.807254 1_655
K6 O20 2.886976 1_555
K6 O13 2.990216 1_555
K6 O24 3.048755 1_565
K7 O8 2.961181 1_555
K7 O5 2.961181 1_544
K7 O15 3.221766 1_545
K7 O24 3.221766 1_554
K7 O9 3.385490 1_545
K7 O22 3.385490 1_554
K8 O4 2.821014 1_565
K8 O29 2.851533 1_655
K8 O14 2.946575 1_555
K8 O6 2.950082 1_555
O0 Si9 1.599879 1_555
O1 Si2 1.624056 1_555
O2 Si8 1.628764 1_556
O2 Si3 1.632178 1_555
O3 Si8 1.669163 1_555
O3 Si6 1.678993 1_455
O4 Si4 1.599519 1_555
O5 Si3 1.656668 1_555
O5 Si10 1.658368 1_555
O6 Si1 1.655253 1_555
O6 Si5 1.683319 1_555
O7 Si11 1.617971 1_655
O8 Si7 1.656668 1_555
O8 Si4 1.658368 1_555
O9 Si8 1.651545 1_555
O9 Si1 1.655381 1_555
O10 Si6 1.617971 1_455
O11 Si7 1.603302 1_555
O12 Si9 1.628764 1_554
O12 Si7 1.632178 1_555
O13 Si3 1.603302 1_555
O14 Si6 1.616382 1_555
O15 Si4 1.653176 1_565
O15 Si1 1.656834 1_555
O16 Si4 1.642244 1_555
O16 Si2 1.660768 1_555
O17 Si8 1.599879 1_555
O18 Si9 1.669163 1_555
O18 Si11 1.678993 1_655
O19 Si3 1.662378 1_555
O19 Si11 1.671155 1_555
O20 Si5 1.613372 1_555
O21 Si11 1.616382 1_555
O22 Si9 1.651545 1_555
O22 Si0 1.655381 1_555
O23 Si0 1.655253 1_555
O23 Si2 1.683319 1_555
O24 Si10 1.653176 1_545
O24 Si0 1.656834 1_555
O25 Si10 1.599519 1_555
O26 Si0 1.595281 1_555
O27 Si10 1.642244 1_555
O27 Si5 1.660768 1_555
O28 Si7 1.662378 1_555
O28 Si6 1.671155 1_555
O29 Si1 1.595281 1_555
O30 Si5 1.624056 1_555
O31 Si2 1.613372 1_555
F0 K6 2.592852 1_554
F0 K4 2.617223 1_554
F0 K8 2.648983 1_555
F0 K7 2.754832 1_565
F1 K2 2.592852 1_556
F1 K1 2.617223 1_556
F1 K3 2.648983 1_555
F1 K7 2.754832 1_556
