# generated using pymatgen
data_Na(OsO3)2
_symmetry_space_group_name_H-M   'P 1'
_cell_length_a   7.20794247
_cell_length_b   7.20794247
_cell_length_c   7.20794247
_cell_angle_alpha   60.00000000
_cell_angle_beta   60.00000000
_cell_angle_gamma   60.00000000
_symmetry_Int_Tables_number   1
_chemical_formula_structural   Na(OsO3)2
_chemical_formula_sum   'Na2 Os4 O12'
_cell_volume   264.80058332
_cell_formula_units_Z   2
loop_
 _symmetry_equiv_pos_site_id
 _symmetry_equiv_pos_as_xyz
  1  'x, y, z'
loop_
 _atom_site_type_symbol
 _atom_site_label
 _atom_site_symmetry_multiplicity
 _atom_site_fract_x
 _atom_site_fract_y
 _atom_site_fract_z
 _atom_site_occupancy
  Na  Na0  1  0.00000000  0.00000000  0.00000000  1
  Na  Na1  1  0.25000000  0.25000000  0.25000000  1
  Os  Os0  1  0.62500000  0.12500000  0.62500000  1
  Os  Os1  1  0.12500000  0.62500000  0.62500000  1
  Os  Os2  1  0.62500000  0.62500000  0.12500000  1
  Os  Os3  1  0.62500000  0.62500000  0.62500000  1
  O  O0  1  0.69157400  0.30842600  0.30842600  1
  O  O1  1  0.30842600  0.69157400  0.69157400  1
  O  O2  1  0.30842600  0.30842600  0.69157400  1
  O  O3  1  0.30842600  0.69157400  0.30842600  1
  O  O4  1  0.94157400  0.55842600  0.55842600  1
  O  O5  1  0.55842600  0.94157400  0.55842600  1
  O  O6  1  0.69157400  0.69157400  0.30842600  1
  O  O7  1  0.55842600  0.94157400  0.94157400  1
  O  O8  1  0.55842600  0.55842600  0.94157400  1
  O  O9  1  0.94157400  0.55842600  0.94157400  1
  O  O10  1  0.69157400  0.30842600  0.69157400  1
  O  O11  1  0.94157400  0.94157400  0.55842600  1
loop_
_geom_bond_atom_site_label_1
_geom_bond_atom_site_label_2
_geom_bond_distance
_geom_bond_site_symmetry_2
O0 Os2 1.925535 1_555
O0 Os0 1.925535 1_555
O1 Os3 1.925535 1_555
O1 Os1 1.925535 1_555
O2 Os1 1.925535 1_555
O2 Os0 1.925535 1_555
O3 Os1 1.925535 1_555
O3 Os2 1.925535 1_555
O4 Os3 1.925535 1_555
O4 Os1 1.925535 1_655
O5 Os3 1.925535 1_555
O5 Os0 1.925535 1_565
O6 Os3 1.925535 1_555
O6 Os2 1.925535 1_555
O7 Os0 1.925535 1_565
O7 Os2 1.925535 1_556
O8 Os3 1.925535 1_555
O8 Os2 1.925535 1_556
O9 Os1 1.925535 1_655
O9 Os2 1.925535 1_556
O10 Os3 1.925535 1_555
O10 Os0 1.925535 1_555
O11 Os0 1.925535 1_565
O11 Os1 1.925535 1_655
