# generated using pymatgen
data_TlIn5S7
_symmetry_space_group_name_H-M   'P 1'
_cell_length_a   3.91114185
_cell_length_b   9.16228616
_cell_length_c   17.57332785
_cell_angle_alpha   77.80454130
_cell_angle_beta   90.00000000
_cell_angle_gamma   90.00000000
_symmetry_Int_Tables_number   1
_chemical_formula_structural   TlIn5S7
_chemical_formula_sum   'Tl2 In10 S14'
_cell_volume   615.52864454
_cell_formula_units_Z   2
loop_
 _symmetry_equiv_pos_site_id
 _symmetry_equiv_pos_as_xyz
  1  'x, y, z'
loop_
 _atom_site_type_symbol
 _atom_site_label
 _atom_site_symmetry_multiplicity
 _atom_site_fract_x
 _atom_site_fract_y
 _atom_site_fract_z
 _atom_site_occupancy
  Tl  Tl0  1  0.25000000  0.97254897  0.72496812  1
  Tl  Tl1  1  0.75000000  0.02745103  0.27503188  1
  In  In0  1  0.25000000  0.14530619  0.04521780  1
  In  In1  1  0.25000000  0.52516348  0.39824033  1
  In  In2  1  0.75000000  0.85469381  0.95478220  1
  In  In3  1  0.75000000  0.43431025  0.11922942  1
  In  In4  1  0.75000000  0.17183335  0.46762729  1
  In  In5  1  0.25000000  0.31912522  0.81165960  1
  In  In6  1  0.75000000  0.68087478  0.18834040  1
  In  In7  1  0.25000000  0.82816665  0.53237271  1
  In  In8  1  0.75000000  0.47483652  0.60175967  1
  In  In9  1  0.25000000  0.56568975  0.88077058  1
  S  S0  1  0.75000000  0.96437705  0.58781326  1
  S  S1  1  0.25000000  0.33057497  0.53296899  1
  S  S2  1  0.25000000  0.66442477  0.00552370  1
  S  S3  1  0.25000000  0.05757494  0.91060962  1
  S  S4  1  0.75000000  0.66942503  0.46703101  1
  S  S5  1  0.75000000  0.26354354  0.72896948  1
  S  S6  1  0.75000000  0.74337511  0.82967506  1
  S  S7  1  0.25000000  0.73645646  0.27103052  1
  S  S8  1  0.25000000  0.03562295  0.41218674  1
  S  S9  1  0.75000000  0.38555923  0.35007308  1
  S  S10  1  0.25000000  0.61444077  0.64992692  1
  S  S11  1  0.75000000  0.33557523  0.99447630  1
  S  S12  1  0.25000000  0.25662489  0.17032494  1
  S  S13  1  0.75000000  0.94242506  0.08939038  1
loop_
_geom_bond_atom_site_label_1
_geom_bond_atom_site_label_2
_geom_bond_distance
_geom_bond_site_symmetry_2
In0 S12 2.611757 1_555
In0 S11 2.646074 1_554
In0 S11 2.646074 1_454
In0 S3 2.654266 1_554
In0 S13 2.696764 1_445
In0 S13 2.696764 1_545
In1 S9 2.575707 1_455
In1 S9 2.575707 1_555
In1 S7 2.629984 1_555
In1 S1 2.645920 1_555
In1 S4 2.776293 1_455
In1 S4 2.776293 1_555
In2 S6 2.611757 1_555
In2 S2 2.646074 1_556
In2 S2 2.646074 1_656
In2 S13 2.654266 1_556
In2 S3 2.696764 1_565
In2 S3 2.696764 1_665
In3 S11 2.542162 1_554
In3 S12 2.581338 1_655
In3 S12 2.581338 1_555
In4 S0 2.525399 1_545
In4 S9 2.528457 1_555
In4 S8 2.616234 1_555
In4 S8 2.616234 1_655
In4 S1 2.822016 1_555
In4 S1 2.822016 1_655
In5 S5 2.551053 1_555
In5 S5 2.551053 1_455
In5 S3 2.646862 1_555
In6 S7 2.551053 1_655
In6 S7 2.551053 1_555
In6 S13 2.646862 1_555
In7 S8 2.525399 1_565
In7 S10 2.528457 1_555
In7 S0 2.616234 1_455
In7 S0 2.616234 1_555
In7 S4 2.822016 1_455
In7 S4 2.822016 1_555
In8 S10 2.575707 1_555
In8 S10 2.575707 1_655
In8 S5 2.629984 1_555
In8 S4 2.645920 1_555
In8 S1 2.776293 1_555
In8 S1 2.776293 1_655
In9 S2 2.542162 1_556
In9 S6 2.581338 1_455
In9 S6 2.581338 1_555
S0 Tl0 3.116969 1_655
S0 Tl0 3.116969 1_555
S6 Tl0 3.160165 1_555
S6 Tl0 3.160165 1_655
S8 Tl1 3.116969 1_455
S8 Tl1 3.116969 1_555
S12 Tl1 3.160165 1_555
S12 Tl1 3.160165 1_455
