# generated using pymatgen
data_Dy5Pb3
_symmetry_space_group_name_H-M   'P 1'
_cell_length_a   8.99883347
_cell_length_b   8.99883360
_cell_length_c   6.62842946
_cell_angle_alpha   90.00000000
_cell_angle_beta   90.00000000
_cell_angle_gamma   119.99999955
_symmetry_Int_Tables_number   1
_chemical_formula_structural   Dy5Pb3
_chemical_formula_sum   'Dy10 Pb6'
_cell_volume   464.85093502
_cell_formula_units_Z   2
loop_
 _symmetry_equiv_pos_site_id
 _symmetry_equiv_pos_as_xyz
  1  'x, y, z'
loop_
 _atom_site_type_symbol
 _atom_site_label
 _atom_site_symmetry_multiplicity
 _atom_site_fract_x
 _atom_site_fract_y
 _atom_site_fract_z
 _atom_site_occupancy
  Dy  Dy0  1  0.23770712  0.23770712  0.75000000  1
  Dy  Dy1  1  0.23770712  0.00000000  0.25000000  1
  Dy  Dy2  1  0.33333300  0.66666700  -0.00000000  1
  Dy  Dy3  1  0.66666700  0.33333300  -0.00000000  1
  Dy  Dy4  1  0.00000000  0.76229288  0.75000000  1
  Dy  Dy5  1  0.76229288  0.76229288  0.25000000  1
  Dy  Dy6  1  -0.00000000  0.23770712  0.25000000  1
  Dy  Dy7  1  0.76229288  0.00000000  0.75000000  1
  Dy  Dy8  1  0.33333300  0.66666700  0.50000000  1
  Dy  Dy9  1  0.66666700  0.33333300  0.50000000  1
  Pb  Pb0  1  -0.00000000  0.39376389  0.75000000  1
  Pb  Pb1  1  0.39376389  0.39376389  0.25000000  1
  Pb  Pb2  1  0.60623611  0.00000000  0.25000000  1
  Pb  Pb3  1  0.60623611  0.60623611  0.75000000  1
  Pb  Pb4  1  0.39376389  0.00000000  0.75000000  1
  Pb  Pb5  1  0.00000000  0.60623611  0.25000000  1
loop_
_geom_bond_atom_site_label_1
_geom_bond_atom_site_label_2
_geom_bond_distance
_geom_bond_site_symmetry_2
Dy0 Pb0 3.090601 1_555
Dy0 Pb4 3.090601 1_555
Dy0 Pb3 3.316331 1_555
Dy0 Pb1 3.599466 1_555
Dy0 Pb1 3.599466 1_556
Dy0 Dy7 3.705007 1_455
Dy0 Dy4 3.705007 1_545
Dy0 Dy9 3.881422 1_555
Dy0 Dy3 3.881422 1_556
Dy0 Dy2 3.881422 1_556
Dy0 Dy8 3.881422 1_555
Dy0 Dy6 3.944580 1_556
Dy0 Dy6 3.944580 1_555
Dy0 Dy1 3.944580 1_555
Dy0 Dy1 3.944580 1_556
Dy1 Pb5 3.090601 1_545
Dy1 Pb1 3.090601 1_555
Dy1 Pb2 3.316331 1_555
Dy1 Pb4 3.599466 1_555
Dy1 Pb4 3.599466 1_554
Dy1 Dy5 3.705007 1_445
Dy1 Dy6 3.705007 1_555
Dy1 Dy8 3.881414 1_545
Dy1 Dy2 3.881414 1_545
Dy1 Dy9 3.881420 1_555
Dy1 Dy3 3.881420 1_555
Dy1 Dy4 3.944580 1_544
Dy1 Dy4 3.944580 1_545
Dy2 Pb5 3.226170 1_555
Dy2 Pb4 3.226170 1_564
Dy2 Pb0 3.226172 1_554
Dy2 Pb2 3.226172 1_565
Dy2 Pb3 3.226177 1_554
Dy2 Pb1 3.226177 1_555
Dy2 Dy8 3.314215 1_555
Dy2 Dy8 3.314215 1_554
Dy2 Dy4 3.881414 1_554
Dy2 Dy7 3.881420 1_564
Dy2 Dy6 3.881420 1_555
Dy2 Dy5 3.881422 1_555
Dy3 Pb0 3.226170 1_654
Dy3 Pb2 3.226170 1_555
Dy3 Pb5 3.226172 1_655
Dy3 Pb4 3.226172 1_554
Dy3 Pb1 3.226177 1_555
Dy3 Pb3 3.226177 1_554
Dy3 Dy9 3.314215 1_555
Dy3 Dy9 3.314215 1_554
Dy3 Dy6 3.881414 1_655
Dy3 Dy7 3.881414 1_554
Dy3 Dy4 3.881420 1_654
Dy3 Dy5 3.881422 1_555
Dy4 Pb3 3.090601 1_455
Dy4 Pb4 3.090601 1_565
Dy4 Pb0 3.316331 1_555
Dy4 Pb5 3.599466 1_556
Dy4 Pb5 3.599466 1_555
Dy4 Dy7 3.705007 1_465
Dy4 Dy8 3.881414 1_555
Dy4 Dy9 3.881420 1_455
Dy4 Dy5 3.944580 1_455
Dy4 Dy5 3.944580 1_456
Dy5 Pb5 3.090601 1_655
Dy5 Pb2 3.090601 1_565
Dy5 Pb1 3.316331 1_555
Dy5 Pb3 3.599466 1_555
Dy5 Pb3 3.599466 1_554
Dy5 Dy6 3.705007 1_665
Dy5 Dy8 3.881422 1_555
Dy5 Dy9 3.881422 1_555
Dy5 Dy7 3.944580 1_565
Dy5 Dy7 3.944580 1_564
Dy6 Pb1 3.090601 1_555
Dy6 Pb2 3.090601 1_455
Dy6 Pb5 3.316331 1_555
Dy6 Pb0 3.599466 1_555
Dy6 Pb0 3.599466 1_554
Dy6 Dy9 3.881414 1_455
Dy6 Dy8 3.881420 1_555
Dy6 Dy7 3.944580 1_454
Dy6 Dy7 3.944580 1_455
Dy7 Pb0 3.090601 1_655
Dy7 Pb3 3.090601 1_545
Dy7 Pb4 3.316331 1_555
Dy7 Pb2 3.599466 1_556
Dy7 Pb2 3.599466 1_555
Dy7 Dy9 3.881414 1_555
Dy7 Dy8 3.881420 1_545
Dy8 Pb5 3.226170 1_555
Dy8 Pb4 3.226170 1_565
Dy8 Pb0 3.226172 1_555
Dy8 Pb2 3.226172 1_565
Dy8 Pb3 3.226177 1_555
Dy8 Pb1 3.226177 1_555
Dy9 Pb0 3.226170 1_655
Dy9 Pb2 3.226170 1_555
Dy9 Pb5 3.226172 1_655
Dy9 Pb4 3.226172 1_555
Dy9 Pb1 3.226177 1_555
Dy9 Pb3 3.226177 1_555
