# generated using pymatgen
data_KSm2Cl5
_symmetry_space_group_name_H-M   'P 1'
_cell_length_a   7.12424000
_cell_length_b   8.65881300
_cell_length_c   13.36956939
_cell_angle_alpha   89.91890048
_cell_angle_beta   90.00000000
_cell_angle_gamma   90.00000000
_symmetry_Int_Tables_number   1
_chemical_formula_structural   KSm2Cl5
_chemical_formula_sum   'K4 Sm8 Cl20'
_cell_volume   824.73397673
_cell_formula_units_Z   4
loop_
 _symmetry_equiv_pos_site_id
 _symmetry_equiv_pos_as_xyz
  1  'x, y, z'
loop_
 _atom_site_type_symbol
 _atom_site_label
 _atom_site_symmetry_multiplicity
 _atom_site_fract_x
 _atom_site_fract_y
 _atom_site_fract_z
 _atom_site_occupancy
  K  K0  1  0.05302300  0.49875400  0.83283600  1
  K  K1  1  0.55302300  0.50124600  0.66716400  1
  K  K2  1  0.94697700  0.50124600  0.16716400  1
  K  K3  1  0.44697700  0.49875400  0.33283600  1
  Sm  Sm0  1  0.47000400  0.20550000  0.99979200  1
  Sm  Sm1  1  0.52999600  0.79450000  0.00020800  1
  Sm  Sm2  1  0.89783000  0.00864900  0.15797300  1
  Sm  Sm3  1  0.97000400  0.79450000  0.50020800  1
  Sm  Sm4  1  0.39783000  0.99135100  0.34202700  1
  Sm  Sm5  1  0.02999600  0.20550000  0.49979200  1
  Sm  Sm6  1  0.60217000  0.00864900  0.65797300  1
  Sm  Sm7  1  0.10217000  0.99135100  0.84202700  1
  Cl  Cl0  1  0.32900300  0.52450000  0.07769200  1
  Cl  Cl1  1  0.67099700  0.47550000  0.92230800  1
  Cl  Cl2  1  0.54813600  0.79303800  0.49976700  1
  Cl  Cl3  1  0.66150400  0.76166300  0.20418600  1
  Cl  Cl4  1  0.16150400  0.23833700  0.29581400  1
  Cl  Cl5  1  0.82900300  0.47550000  0.42230800  1
  Cl  Cl6  1  0.45186400  0.20696200  0.50023300  1
  Cl  Cl7  1  0.69230300  0.02367200  0.86555400  1
  Cl  Cl8  1  0.33849600  0.23833700  0.79581400  1
  Cl  Cl9  1  0.04813600  0.20696200  0.00023300  1
  Cl  Cl10  1  0.35174300  0.75078000  0.81381500  1
  Cl  Cl11  1  0.14825700  0.75078000  0.31381500  1
  Cl  Cl12  1  0.85174300  0.24922000  0.68618500  1
  Cl  Cl13  1  0.83849600  0.76166300  0.70418600  1
  Cl  Cl14  1  0.30769700  0.97632800  0.13444600  1
  Cl  Cl15  1  0.17099700  0.52450000  0.57769200  1
  Cl  Cl16  1  0.95186400  0.79303800  0.99976700  1
  Cl  Cl17  1  0.64825700  0.24922000  0.18618500  1
  Cl  Cl18  1  0.80769700  0.02367200  0.36555400  1
  Cl  Cl19  1  0.19230300  0.97632800  0.63444600  1
loop_
_geom_bond_atom_site_label_1
_geom_bond_atom_site_label_2
_geom_bond_distance
_geom_bond_site_symmetry_2
Cl0 Sm1 2.929569 1_555
Cl0 K2 2.979616 1_455
Cl0 Sm0 3.119527 1_554
Cl0 K3 3.519942 1_555
Cl1 Sm0 2.929569 1_555
Cl1 K0 2.979616 1_655
Cl1 Sm1 3.119527 1_556
Cl1 K1 3.519942 1_555
Cl2 Sm6 2.849326 1_565
Cl2 Sm4 2.921052 1_555
Cl2 Sm3 3.005521 1_555
Cl2 K1 3.373060 1_555
Cl2 K3 3.465467 1_555
Cl3 Sm2 2.790391 1_565
Cl3 Sm1 2.897151 1_555
Cl3 K2 3.077172 1_555
Cl3 K3 3.235041 1_555
Cl3 Sm4 3.300101 1_555
Cl4 Sm4 2.790391 1_545
Cl4 Sm5 2.897151 1_555
Cl4 K3 3.077172 1_555
Cl4 K2 3.235041 1_455
Cl4 Sm2 3.300101 1_455
Cl5 Sm5 2.929569 1_655
Cl5 K3 2.979616 1_555
Cl5 Sm3 3.119527 1_555
Cl5 K2 3.519942 1_555
Cl6 Sm4 2.849326 1_545
Cl6 Sm6 2.921052 1_555
Cl6 Sm5 3.005521 1_555
Cl6 K3 3.373060 1_555
Cl6 K1 3.465467 1_555
Cl7 Sm6 2.851734 1_555
Cl7 Sm0 2.866337 1_555
Cl7 Sm1 2.916433 1_546
Cl7 Sm7 2.950230 1_645
Cl8 Sm7 2.790391 1_545
Cl8 Sm0 2.897151 1_555
Cl8 K0 3.077172 1_555
Cl8 K1 3.235041 1_555
Cl8 Sm6 3.300101 1_555
Cl9 Sm7 2.849326 1_544
Cl9 Sm2 2.921052 1_455
Cl9 Sm0 3.005521 1_554
Cl9 K0 3.373060 1_554
Cl9 K2 3.465467 1_455
Cl10 Sm7 2.764955 1_555
Cl10 Sm1 2.822890 1_556
Cl10 K0 3.058485 1_555
Cl10 K1 3.252834 1_555
Cl10 Sm6 3.535048 1_565
Cl11 Sm4 2.764955 1_555
Cl11 Sm3 2.822890 1_455
Cl11 K3 3.058485 1_555
Cl11 K2 3.252834 1_455
Cl11 Sm2 3.535048 1_465
Cl12 Sm6 2.764955 1_555
Cl12 Sm5 2.822890 1_655
Cl12 K1 3.058485 1_555
Cl12 K0 3.252834 1_655
Cl12 Sm7 3.535048 1_645
Cl13 Sm6 2.790391 1_565
Cl13 Sm3 2.897151 1_555
Cl13 K1 3.077172 1_555
Cl13 K0 3.235041 1_655
Cl13 Sm7 3.300101 1_655
Cl14 Sm4 2.851734 1_555
Cl14 Sm1 2.866337 1_555
Cl14 Sm0 2.916433 1_564
Cl14 Sm2 2.950230 1_465
Cl15 Sm3 2.929569 1_455
Cl15 K1 2.979616 1_555
Cl15 Sm5 3.119527 1_555
Cl15 K0 3.519942 1_555
Cl16 Sm2 2.849326 1_566
Cl16 Sm7 2.921052 1_655
Cl16 Sm1 3.005521 1_556
Cl16 K2 3.373060 1_556
Cl16 K0 3.465467 1_655
Cl17 Sm2 2.764955 1_555
Cl17 Sm0 2.822890 1_554
Cl17 K2 3.058485 1_555
Cl17 K3 3.252834 1_555
Cl17 Sm4 3.535048 1_545
Cl18 Sm2 2.851734 1_555
Cl18 Sm5 2.866337 1_655
Cl18 Sm3 2.916433 1_545
Cl18 Sm4 2.950230 1_545
Cl19 Sm7 2.851734 1_555
Cl19 Sm3 2.866337 1_455
Cl19 Sm5 2.916433 1_565
Cl19 Sm6 2.950230 1_565
