# generated using pymatgen
data_Mg(GaO2)2
_symmetry_space_group_name_H-M   'P 1'
_cell_length_a   5.93530032
_cell_length_b   5.93530032
_cell_length_c   19.65270302
_cell_angle_alpha   81.47070874
_cell_angle_beta   81.47070874
_cell_angle_gamma   60.48038099
_symmetry_Int_Tables_number   1
_chemical_formula_structural   Mg(GaO2)2
_chemical_formula_sum   'Mg8 Ga16 O32'
_cell_volume   593.50468550
_cell_formula_units_Z   8
loop_
 _symmetry_equiv_pos_site_id
 _symmetry_equiv_pos_as_xyz
  1  'x, y, z'
loop_
 _atom_site_type_symbol
 _atom_site_label
 _atom_site_symmetry_multiplicity
 _atom_site_fract_x
 _atom_site_fract_y
 _atom_site_fract_z
 _atom_site_occupancy
  Mg  Mg0  1  0.00574200  0.00574200  0.99878000  1
  Mg  Mg1  1  0.25491100  0.25491100  0.25232700  1
  Mg  Mg2  1  0.78332700  0.78332700  0.15655300  1
  Mg  Mg3  1  0.03165700  0.03165700  0.40757700  1
  Mg  Mg4  1  0.28128000  0.28128000  0.65637300  1
  Mg  Mg5  1  0.15577600  0.15577600  0.53179500  1
  Mg  Mg6  1  0.53278600  0.53278600  0.90529800  1
  Mg  Mg7  1  0.40598200  0.40598200  0.78138200  1
  Ga  Ga0  1  0.30582100  0.30582100  0.06157500  1
  Ga  Ga1  1  0.55556000  0.55556000  0.31161500  1
  Ga  Ga2  1  0.50717300  0.50717300  0.49970500  1
  Ga  Ga3  1  0.65722900  0.65722900  0.02797800  1
  Ga  Ga4  1  0.78506700  0.27199500  0.15666400  1
  Ga  Ga5  1  0.27199500  0.78506700  0.15666400  1
  Ga  Ga6  1  0.75802000  0.75802000  0.74632700  1
  Ga  Ga7  1  0.90669400  0.90669400  0.27842300  1
  Ga  Ga8  1  0.80465200  0.80465200  0.56532900  1
  Ga  Ga9  1  0.03259900  0.52632500  0.40802200  1
  Ga  Ga10  1  0.52632500  0.03259900  0.40802200  1
  Ga  Ga11  1  0.05494200  0.05494200  0.81472200  1
  Ga  Ga12  1  0.28144100  0.78091600  0.65651700  1
  Ga  Ga13  1  0.78091600  0.28144100  0.65651700  1
  Ga  Ga14  1  0.53366500  0.02700200  0.90535200  1
  Ga  Ga15  1  0.02700200  0.53366500  0.90535200  1
  O  O0  1  0.94640000  0.47388900  0.09454500  1
  O  O1  1  0.59137700  0.59137700  0.21324600  1
  O  O2  1  0.47388900  0.94640000  0.09454500  1
  O  O3  1  0.47520000  0.47520000  0.09488300  1
  O  O4  1  0.19590800  0.72437200  0.34461100  1
  O  O5  1  0.08447300  0.08447300  0.21674700  1
  O  O6  1  0.84021700  0.84021700  0.46439200  1
  O  O7  1  0.72437200  0.19590800  0.34461100  1
  O  O8  1  0.08780700  0.62346500  0.21754500  1
  O  O9  1  0.97248700  0.97248700  0.10065700  1
  O  O10  1  0.72544600  0.72544600  0.34472300  1
  O  O11  1  0.62346500  0.08780700  0.21754500  1
  O  O12  1  0.34192000  0.34192000  0.46693000  1
  O  O13  1  0.45023500  0.96883900  0.59681300  1
  O  O14  1  0.09110500  0.09110500  0.71507200  1
  O  O15  1  0.96883900  0.45023500  0.59681300  1
  O  O16  1  0.34415300  0.85842700  0.46684200  1
  O  O17  1  0.22174100  0.22174100  0.35500300  1
  O  O18  1  0.97243500  0.97243500  0.59692100  1
  O  O19  1  0.85842700  0.34415300  0.46684200  1
  O  O20  1  0.58957000  0.58957000  0.71532800  1
  O  O21  1  0.70101800  0.21787900  0.84704100  1
  O  O22  1  0.34201100  0.34201100  0.96398600  1
  O  O23  1  0.59356600  0.11321900  0.71547600  1
  O  O24  1  0.21787900  0.70101800  0.84704100  1
  O  O25  1  0.47135600  0.47135600  0.59847100  1
  O  O26  1  0.22177000  0.22177000  0.84745300  1
  O  O27  1  0.11321900  0.59356600  0.71547600  1
  O  O28  1  0.83241800  0.83241800  0.96505300  1
  O  O29  1  0.83690900  0.37808400  0.96600400  1
  O  O30  1  0.72173900  0.72173900  0.84451100  1
  O  O31  1  0.37808400  0.83690900  0.96600400  1
loop_
_geom_bond_atom_site_label_1
_geom_bond_atom_site_label_2
_geom_bond_distance
_geom_bond_site_symmetry_2
Mg0 O31 1.972282 1_545
Mg0 O29 1.972282 1_455
Mg0 O9 1.972435 1_446
Mg0 O28 2.000829 1_445
Mg1 O11 1.963564 1_555
Mg1 O8 1.963564 1_555
Mg1 O17 1.987912 1_555
Mg1 O5 1.990904 1_555
Mg2 O8 2.053876 1_655
Mg2 O11 2.053876 1_565
Mg2 O9 2.058689 1_555
Mg2 O2 2.087403 1_555
Mg2 O0 2.087403 1_555
Mg2 O1 2.088853 1_555
Mg3 O17 2.043528 1_555
Mg3 O19 2.064015 1_455
Mg3 O16 2.064015 1_545
Mg3 O6 2.085300 1_445
Mg3 O4 2.089861 1_545
Mg3 O7 2.089861 1_455
Mg4 O23 2.062194 1_555
Mg4 O27 2.062194 1_555
Mg4 O15 2.068277 1_455
Mg4 O13 2.068277 1_545
Mg4 O25 2.081580 1_555
Mg4 O14 2.088526 1_555
Mg5 O15 2.061365 1_455
Mg5 O13 2.061365 1_545
Mg5 O16 2.072354 1_545
Mg5 O19 2.072354 1_455
Mg5 O18 2.084963 1_445
Mg5 O12 2.105616 1_555
Mg6 O31 2.050669 1_555
Mg6 O29 2.050669 1_555
Mg6 O24 2.063441 1_555
Mg6 O21 2.063441 1_555
Mg6 O22 2.093607 1_555
Mg6 O30 2.094573 1_555
Mg7 O23 2.066391 1_555
Mg7 O27 2.066391 1_555
Mg7 O24 2.072275 1_555
Mg7 O21 2.072275 1_555
Mg7 O20 2.095404 1_555
Mg7 O26 2.100631 1_555
Ga0 O22 1.889878 1_554
Ga0 O2 1.910612 1_545
Ga0 O0 1.910612 1_455
Ga0 O3 1.958612 1_555
Ga1 O1 1.904844 1_555
Ga1 O4 1.911951 1_555
Ga1 O7 1.911951 1_555
Ga1 O10 1.961617 1_555
Ga2 O19 1.870249 1_555
Ga2 O16 1.870249 1_555
Ga2 O25 1.912505 1_555
Ga2 O12 1.913569 1_555
Ga3 O29 1.959044 1_554
Ga3 O31 1.959044 1_554
Ga3 O28 1.998562 1_554
Ga3 O2 2.060243 1_555
Ga3 O0 2.060243 1_555
Ga3 O3 2.090664 1_555
Ga4 O11 1.962533 1_555
Ga4 O9 1.969156 1_545
Ga4 O5 2.018542 1_655
Ga4 O0 2.047745 1_555
Ga4 O1 2.061575 1_555
Ga4 O3 2.086490 1_555
Ga5 O8 1.962533 1_555
Ga5 O9 1.969156 1_455
Ga5 O5 2.018542 1_565
Ga5 O2 2.047745 1_555
Ga5 O1 2.061575 1_555
Ga5 O3 2.086490 1_555
Ga6 O23 1.879749 1_565
Ga6 O27 1.879749 1_655
Ga6 O30 1.901371 1_555
Ga6 O20 1.927887 1_555
Ga7 O11 1.961433 1_565
Ga7 O8 1.961433 1_655
Ga7 O5 2.008576 1_665
Ga7 O4 2.055218 1_655
Ga7 O7 2.055218 1_565
Ga7 O10 2.078730 1_555
Ga8 O13 1.878880 1_555
Ga8 O15 1.878880 1_555
Ga8 O18 1.926902 1_555
Ga8 O6 1.954383 1_555
Ga9 O17 1.956003 1_555
Ga9 O19 1.987532 1_455
Ga9 O6 2.035354 1_455
Ga9 O12 2.045295 1_555
Ga9 O4 2.050416 1_555
Ga9 O10 2.093130 1_455
Ga10 O17 1.956003 1_555
Ga10 O16 1.987532 1_545
Ga10 O6 2.035354 1_545
Ga10 O12 2.045295 1_555
Ga10 O7 2.050416 1_555
Ga10 O10 2.093130 1_545
Ga11 O21 1.880395 1_455
Ga11 O24 1.880395 1_545
Ga11 O26 1.928394 1_555
Ga11 O14 1.929628 1_555
Ga12 O27 1.986130 1_555
Ga12 O13 1.997191 1_555
Ga12 O25 2.036445 1_555
Ga12 O20 2.039899 1_555
Ga12 O14 2.045300 1_565
Ga12 O18 2.053151 1_455
Ga13 O23 1.986130 1_555
Ga13 O15 1.997191 1_555
Ga13 O25 2.036445 1_555
Ga13 O20 2.039899 1_555
Ga13 O14 2.045300 1_655
Ga13 O18 2.053151 1_545
Ga14 O31 1.961567 1_545
Ga14 O21 1.992369 1_555
Ga14 O28 2.012892 1_545
Ga14 O26 2.045438 1_555
Ga14 O30 2.052341 1_545
Ga14 O22 2.066855 1_555
Ga15 O29 1.961567 1_455
Ga15 O24 1.992369 1_555
Ga15 O28 2.012892 1_455
Ga15 O26 2.045438 1_555
Ga15 O30 2.052341 1_455
Ga15 O22 2.066855 1_555
