# generated using pymatgen
data_La2Co2O5
_symmetry_space_group_name_H-M   'P 1'
_cell_length_a   5.45841800
_cell_length_b   5.84659100
_cell_length_c   15.79231300
_cell_angle_alpha   90.00000000
_cell_angle_beta   90.00000000
_cell_angle_gamma   90.00000000
_symmetry_Int_Tables_number   1
_chemical_formula_structural   La2Co2O5
_chemical_formula_sum   'La8 Co8 O20'
_cell_volume   503.98225705
_cell_formula_units_Z   4
loop_
 _symmetry_equiv_pos_site_id
 _symmetry_equiv_pos_as_xyz
  1  'x, y, z'
loop_
 _atom_site_type_symbol
 _atom_site_label
 _atom_site_symmetry_multiplicity
 _atom_site_fract_x
 _atom_site_fract_y
 _atom_site_fract_z
 _atom_site_occupancy
  La  La0  1  0.99952900  0.47701700  0.61024700  1
  La  La1  1  0.49952900  0.02298300  0.88975300  1
  La  La2  1  0.00047100  0.52298300  0.11024700  1
  La  La3  1  0.50047100  0.97701700  0.38975300  1
  La  La4  1  0.00047100  0.52298300  0.38975300  1
  La  La5  1  0.50047100  0.97701700  0.11024700  1
  La  La6  1  0.99952900  0.47701700  0.88975300  1
  La  La7  1  0.49952900  0.02298300  0.61024700  1
  Co  Co0  1  0.50000000  0.50000000  0.50000000  1
  Co  Co1  1  0.00000000  0.00000000  0.00000000  1
  Co  Co2  1  0.50000000  0.50000000  0.00000000  1
  Co  Co3  1  0.00000000  0.00000000  0.50000000  1
  Co  Co4  1  0.45375100  0.56133900  0.75000000  1
  Co  Co5  1  0.95375100  0.93866100  0.75000000  1
  Co  Co6  1  0.54624900  0.43866100  0.25000000  1
  Co  Co7  1  0.04624900  0.06133900  0.25000000  1
  O  O0  1  0.74467600  0.24543000  0.48199200  1
  O  O1  1  0.24467600  0.25457000  0.01800800  1
  O  O2  1  0.25532400  0.75457000  0.98199200  1
  O  O3  1  0.75532400  0.74543000  0.51800800  1
  O  O4  1  0.25532400  0.75457000  0.51800800  1
  O  O5  1  0.75532400  0.74543000  0.98199200  1
  O  O6  1  0.74467600  0.24543000  0.01800800  1
  O  O7  1  0.24467600  0.25457000  0.48199200  1
  O  O8  1  0.52004400  0.41493800  0.64108000  1
  O  O9  1  0.02004400  0.08506200  0.85892000  1
  O  O10  1  0.47995600  0.58506200  0.14108000  1
  O  O11  1  0.97995600  0.91493800  0.35892000  1
  O  O12  1  0.47995600  0.58506200  0.35892000  1
  O  O13  1  0.97995600  0.91493800  0.14108000  1
  O  O14  1  0.52004400  0.41493800  0.85892000  1
  O  O15  1  0.02004400  0.08506200  0.64108000  1
  O  O16  1  0.07656600  0.61609300  0.75000000  1
  O  O17  1  0.57656600  0.88390700  0.75000000  1
  O  O18  1  0.92343400  0.38390700  0.25000000  1
  O  O19  1  0.42343400  0.11609300  0.25000000  1
loop_
_geom_bond_atom_site_label_1
_geom_bond_atom_site_label_2
_geom_bond_distance
_geom_bond_site_symmetry_2
La0 O15 2.345436 1_655
La0 O16 2.389338 1_655
La0 O3 2.522182 1_555
La0 O4 2.589331 1_655
La0 O8 2.686767 1_555
La0 O7 2.753982 1_655
La0 O0 2.805506 1_555
La0 O8 2.905371 1_655
La1 O14 2.345436 1_555
La1 O17 2.389338 1_545
La1 O2 2.522182 1_545
La1 O5 2.589331 1_545
La1 O9 2.686767 1_555
La1 O6 2.753982 1_556
La1 O1 2.805506 1_556
La1 O9 2.905371 1_655
La2 O13 2.345436 1_455
La2 O18 2.389338 1_455
La2 O1 2.522182 1_555
La2 O6 2.589331 1_455
La2 O10 2.686767 1_555
La2 O5 2.753982 1_454
La2 O2 2.805506 1_554
La2 O10 2.905371 1_455
La3 O12 2.345436 1_555
La3 O19 2.389338 1_565
La3 O0 2.522182 1_565
La3 O7 2.589331 1_565
La3 O11 2.686767 1_555
La3 O4 2.753982 1_555
La3 O3 2.805506 1_555
La3 O11 2.905371 1_455
La4 O11 2.345436 1_455
La4 O18 2.389338 1_455
La4 O7 2.522182 1_555
La4 O0 2.589331 1_455
La4 O12 2.686767 1_555
La4 O3 2.753982 1_455
La4 O4 2.805506 1_555
La4 O12 2.905371 1_455
La5 O10 2.345436 1_555
La5 O19 2.389338 1_565
La5 O6 2.522182 1_565
La5 O1 2.589331 1_565
La5 O13 2.686767 1_555
La5 O2 2.753982 1_554
La5 O5 2.805506 1_554
La5 O13 2.905371 1_455
La6 O9 2.345436 1_655
La6 O16 2.389338 1_655
La6 O5 2.522182 1_555
La6 O2 2.589331 1_655
La6 O14 2.686767 1_555
La6 O1 2.753982 1_656
La6 O6 2.805506 1_556
La6 O14 2.905371 1_655
La7 O8 2.345436 1_555
La7 O17 2.389338 1_545
La7 O4 2.522182 1_545
La7 O3 2.589331 1_545
La7 O15 2.686767 1_555
La7 O0 2.753982 1_555
La7 O7 2.805506 1_555
La7 O15 2.905371 1_655
Co0 O0 2.019849 1_555
Co0 O4 2.019849 1_555
Co0 O7 2.020445 1_555
Co0 O3 2.020445 1_555
Co0 O12 2.285431 1_555
Co0 O8 2.285431 1_555
Co1 O5 2.019849 1_444
Co1 O1 2.019849 1_555
Co1 O6 2.020445 1_455
Co1 O2 2.020445 1_544
Co1 O9 2.285431 1_554
Co1 O13 2.285431 1_445
Co2 O2 2.019849 1_554
Co2 O6 2.019849 1_555
Co2 O1 2.020445 1_555
Co2 O5 2.020445 1_554
Co2 O14 2.285431 1_554
Co2 O10 2.285431 1_555
Co3 O7 2.019849 1_555
Co3 O3 2.019849 1_445
Co3 O0 2.020445 1_455
Co3 O4 2.020445 1_545
Co3 O15 2.285431 1_555
Co3 O11 2.285431 1_445
Co4 O14 1.955076 1_555
Co4 O8 1.955076 1_555
Co4 O17 2.001527 1_555
Co4 O16 2.083573 1_555
Co5 O15 1.955076 1_665
Co5 O9 1.955076 1_665
Co5 O16 2.001527 1_655
Co5 O17 2.083573 1_555
Co6 O10 1.955076 1_555
Co6 O12 1.955076 1_555
Co6 O19 2.001527 1_555
Co6 O18 2.083573 1_555
Co7 O13 1.955076 1_445
Co7 O11 1.955076 1_445
Co7 O18 2.001527 1_455
Co7 O19 2.083573 1_555
