# generated using pymatgen
data_SiO2
_symmetry_space_group_name_H-M   'P 1'
_cell_length_a   7.04774516
_cell_length_b   7.04774541
_cell_length_c   8.98645132
_cell_angle_alpha   90.00000000
_cell_angle_beta   90.00000000
_cell_angle_gamma   94.49364272
_symmetry_Int_Tables_number   1
_chemical_formula_structural   SiO2
_chemical_formula_sum   'Si8 O16'
_cell_volume   444.99134361
_cell_formula_units_Z   8
loop_
 _symmetry_equiv_pos_site_id
 _symmetry_equiv_pos_as_xyz
  1  'x, y, z'
loop_
 _atom_site_type_symbol
 _atom_site_label
 _atom_site_symmetry_multiplicity
 _atom_site_fract_x
 _atom_site_fract_y
 _atom_site_fract_z
 _atom_site_occupancy
  Si  Si0  1  0.70093068  0.96992749  0.42509122  1
  Si  Si1  1  0.96992749  0.70093068  0.92509122  1
  Si  Si2  1  0.29906932  0.03007251  0.92509122  1
  Si  Si3  1  0.70093068  0.96992749  0.07490878  1
  Si  Si4  1  0.29906932  0.03007251  0.57490878  1
  Si  Si5  1  0.03007251  0.29906932  0.42509122  1
  Si  Si6  1  0.96992749  0.70093068  0.57490878  1
  Si  Si7  1  0.03007251  0.29906932  0.07490878  1
  O  O0  1  0.21158263  0.21158263  -0.00000000  1
  O  O1  1  0.15829882  0.84170118  0.54787859  1
  O  O2  1  0.84170118  0.15829882  0.04787859  1
  O  O3  1  0.78841737  0.78841737  0.50000000  1
  O  O4  1  0.32756756  0.06918517  0.75000000  1
  O  O5  1  0.93081483  0.67243244  0.75000000  1
  O  O6  1  -0.00000000  0.50000000  0.50000000  1
  O  O7  1  0.21158263  0.21158263  0.50000000  1
  O  O8  1  0.15829882  0.84170118  0.95212141  1
  O  O9  1  0.78841737  0.78841737  -0.00000000  1
  O  O10  1  0.84170118  0.15829882  0.45212141  1
  O  O11  1  0.06918517  0.32756756  0.25000000  1
  O  O12  1  0.67243244  0.93081483  0.25000000  1
  O  O13  1  0.50000000  -0.00000000  -0.00000000  1
  O  O14  1  0.50000000  -0.00000000  0.50000000  1
  O  O15  1  -0.00000000  0.50000000  -0.00000000  1
loop_
_geom_bond_atom_site_label_1
_geom_bond_atom_site_label_2
_geom_bond_distance
_geom_bond_site_symmetry_2
O0 Si7 1.610394 1_555
O0 Si2 1.610394 1_554
O1 Si6 1.612268 1_455
O1 Si4 1.612268 1_565
O2 Si7 1.612268 1_655
O2 Si3 1.612268 1_545
O3 Si6 1.610394 1_555
O3 Si0 1.610394 1_555
O4 Si2 1.607293 1_555
O4 Si4 1.607293 1_555
O5 Si1 1.607293 1_555
O5 Si6 1.607293 1_555
O6 Si5 1.597017 1_555
O6 Si6 1.597017 1_455
O7 Si5 1.610394 1_555
O7 Si4 1.610394 1_555
O8 Si1 1.612268 1_455
O8 Si2 1.612268 1_565
O9 Si1 1.610394 1_554
O9 Si3 1.610394 1_555
O10 Si5 1.612268 1_655
O10 Si0 1.612268 1_545
O11 Si7 1.607293 1_555
O11 Si5 1.607293 1_555
O12 Si3 1.607293 1_555
O12 Si0 1.607293 1_555
O13 Si2 1.597017 1_554
O13 Si3 1.597017 1_545
O14 Si4 1.597017 1_555
O14 Si0 1.597017 1_545
O15 Si7 1.597017 1_555
O15 Si1 1.597017 1_454
