# generated using pymatgen
data_CaMn6SiO12
_symmetry_space_group_name_H-M   'P 1'
_cell_length_a   11.57042659
_cell_length_b   11.57042659
_cell_length_c   11.57042659
_cell_angle_alpha   131.67625771
_cell_angle_beta   131.67625771
_cell_angle_gamma   70.74082574
_symmetry_Int_Tables_number   1
_chemical_formula_structural   CaMn6SiO12
_chemical_formula_sum   'Ca4 Mn24 Si4 O48'
_cell_volume   846.46778967
_cell_formula_units_Z   4
loop_
 _symmetry_equiv_pos_site_id
 _symmetry_equiv_pos_as_xyz
  1  'x, y, z'
loop_
 _atom_site_type_symbol
 _atom_site_label
 _atom_site_symmetry_multiplicity
 _atom_site_fract_x
 _atom_site_fract_y
 _atom_site_fract_z
 _atom_site_occupancy
  Ca  Ca0  1  0.25000000  0.25000000  -0.00000000  1
  Ca  Ca1  1  0.75000000  0.75000000  -0.00000000  1
  Ca  Ca2  1  0.50000000  0.00000000  0.50000000  1
  Ca  Ca3  1  -0.00000000  0.50000000  0.50000000  1
  Mn  Mn0  1  0.12500000  0.90337571  0.27837571  1
  Mn  Mn1  1  0.87500000  0.12500000  0.25000000  1
  Mn  Mn2  1  0.59662429  0.37500000  0.72162429  1
  Mn  Mn3  1  0.87500000  0.62500000  0.75000000  1
  Mn  Mn4  1  0.09662429  0.37500000  0.22162429  1
  Mn  Mn5  1  0.37500000  0.62500000  0.25000000  1
  Mn  Mn6  1  0.87500000  0.12500000  0.75000000  1
  Mn  Mn7  1  0.98713192  0.51286808  -0.00000000  1
  Mn  Mn8  1  0.26286808  0.76286808  0.02573716  1
  Mn  Mn9  1  0.73713192  0.23713192  0.97426284  1
  Mn  Mn10  1  0.12500000  0.40337571  0.77837571  1
  Mn  Mn11  1  0.37500000  0.12500000  0.75000000  1
  Mn  Mn12  1  0.65337571  0.87500000  0.27837571  1
  Mn  Mn13  1  0.51286808  0.98713192  -0.00000000  1
  Mn  Mn14  1  0.76286808  0.73713192  0.50000000  1
  Mn  Mn15  1  0.23713192  0.26286808  0.50000000  1
  Mn  Mn16  1  0.37500000  0.62500000  0.75000000  1
  Mn  Mn17  1  0.37500000  0.12500000  0.25000000  1
  Mn  Mn18  1  0.48713192  0.48713192  0.47426284  1
  Mn  Mn19  1  0.15337571  0.87500000  0.77837571  1
  Mn  Mn20  1  0.62500000  0.84662429  0.72162429  1
  Mn  Mn21  1  0.62500000  0.34662429  0.22162429  1
  Mn  Mn22  1  0.01286808  0.01286808  0.52573716  1
  Mn  Mn23  1  0.87500000  0.62500000  0.25000000  1
  Si  Si0  1  0.75000000  0.25000000  0.50000000  1
  Si  Si1  1  0.50000000  0.50000000  -0.00000000  1
  Si  Si2  1  -0.00000000  0.00000000  -0.00000000  1
  Si  Si3  1  0.25000000  0.75000000  0.50000000  1
  O  O0  1  0.93648834  0.13095317  0.96773078  1
  O  O1  1  0.78968680  0.26102771  0.18752019  1
  O  O2  1  0.57350752  0.76102771  0.47134091  1
  O  O3  1  0.28968680  0.10216561  0.52865909  1
  O  O4  1  0.85216561  0.82350752  0.31247981  1
  O  O5  1  0.46031320  0.14783439  0.97134091  1
  O  O6  1  0.27200267  0.81072858  0.22892929  1
  O  O7  1  0.45692662  0.91820171  0.22892929  1
  O  O8  1  0.47799733  0.43927142  0.27107071  1
  O  O9  1  0.77200267  0.54307338  0.46127510  1
  O  O10  1  0.97799733  0.70692662  0.03872490  1
  O  O11  1  0.88095317  0.41322239  0.69446483  1
  O  O12  1  0.29307338  0.33179829  0.27107071  1
  O  O13  1  0.66322239  0.63095317  0.19446483  1
  O  O14  1  0.38095317  0.68648834  0.46773078  1
  O  O15  1  0.36904683  0.56351166  0.03226922  1
  O  O16  1  0.58677761  0.28124344  0.46773078  1
  O  O17  1  0.71875656  0.18648834  0.30553517  1
  O  O18  1  0.53124344  0.33677761  0.96773078  1
  O  O19  1  0.07350752  0.60216561  0.81247981  1
  O  O20  1  0.03124344  0.06351166  0.19446483  1
  O  O21  1  0.58179829  0.04307338  0.77107071  1
  O  O22  1  0.81351166  0.11904683  0.53226922  1
  O  O23  1  0.96031320  0.98897229  0.31247981  1
  O  O24  1  0.01102771  0.32350752  0.97134091  1
  O  O25  1  0.56072858  0.83179829  0.03872490  1
  O  O26  1  0.06072858  0.02200267  0.72892929  1
  O  O27  1  0.35216561  0.03968680  0.02865909  1
  O  O28  1  0.17649248  0.48897229  0.02865909  1
  O  O29  1  0.08179829  0.31072858  0.53872490  1
  O  O30  1  0.68927142  0.22799733  0.77107071  1
  O  O31  1  0.66820171  0.93927142  0.96127510  1
  O  O32  1  0.67649248  0.64783439  0.68752019  1
  O  O33  1  0.16820171  0.20692662  0.72892929  1
  O  O34  1  0.16322239  0.96875656  0.03226922  1
  O  O35  1  0.79307338  0.52200267  0.96127510  1
  O  O36  1  0.95692662  0.72799733  0.53872490  1
  O  O37  1  0.51102771  0.53968680  0.68752019  1
  O  O38  1  0.86904683  0.83677761  0.80553517  1
  O  O39  1  0.89783439  0.42649248  0.18752019  1
  O  O40  1  0.18927142  0.41820171  0.46127510  1
  O  O41  1  0.31351166  0.78124344  0.69446483  1
  O  O42  1  0.08677761  0.61904683  0.30553517  1
  O  O43  1  0.39783439  0.21031320  0.47134091  1
  O  O44  1  0.21875656  0.91322239  0.53226922  1
  O  O45  1  0.23897229  0.71031320  0.81247981  1
  O  O46  1  0.43648834  0.46875656  0.80553517  1
  O  O47  1  0.73897229  0.92649248  0.52865909  1
loop_
_geom_bond_atom_site_label_1
_geom_bond_atom_site_label_2
_geom_bond_distance
_geom_bond_site_symmetry_2
Ca0 O26 2.294793 1_554
Ca0 O8 2.294793 1_555
Ca0 O12 2.294798 1_555
Ca0 O33 2.294798 1_554
Ca0 O5 2.466376 1_554
Ca0 O27 2.466376 1_555
Ca0 O24 2.466376 1_554
Ca0 O28 2.466376 1_555
Ca1 O31 2.294787 1_554
Ca1 O25 2.294787 1_555
Ca1 O10 2.294798 1_555
Ca1 O35 2.294798 1_554
Ca1 O23 2.466376 1_555
Ca1 O37 2.466376 1_554
Ca1 O32 2.466381 1_554
Ca1 O4 2.466381 1_555
Ca2 O30 2.294793 1_555
Ca2 O6 2.294793 1_545
Ca2 O7 2.294798 1_545
Ca2 O21 2.294798 1_555
Ca2 O3 2.466376 1_555
Ca2 O43 2.466376 1_555
Ca2 O2 2.466376 1_545
Ca2 O47 2.466376 1_545
Ca3 O40 2.294787 1_555
Ca3 O29 2.294787 1_555
Ca3 O9 2.294798 1_455
Ca3 O36 2.294798 1_455
Ca3 O1 2.466376 1_455
Ca3 O45 2.466376 1_555
Ca3 O19 2.466381 1_555
Ca3 O39 2.466381 1_455
Mn0 O6 1.909224 1_555
Mn0 O10 1.909224 1_455
Mn0 O3 2.000684 1_565
Mn0 O23 2.000690 1_455
Mn0 O20 2.284321 1_565
Mn0 O44 2.284325 1_555
Mn1 O1 1.874401 1_555
Mn1 O23 1.874401 1_545
Mn1 O20 2.067751 1_655
Mn1 O17 2.067751 1_555
Mn1 O31 2.172224 1_544
Mn1 O29 2.172224 1_655
Mn2 O30 1.909224 1_555
Mn2 O35 1.909224 1_555
Mn2 O43 2.000684 1_555
Mn2 O37 2.000690 1_555
Mn2 O46 2.284321 1_555
Mn2 O16 2.284325 1_555
Mn3 O19 1.874401 1_655
Mn3 O32 1.874401 1_555
Mn3 O38 2.067739 1_555
Mn3 O11 2.067739 1_555
Mn3 O9 2.172220 1_555
Mn3 O10 2.172220 1_556
Mn4 O12 1.909224 1_555
Mn4 O40 1.909228 1_555
Mn4 O39 2.000679 1_455
Mn4 O24 2.000690 1_554
Mn4 O0 2.284321 1_454
Mn4 O42 2.284321 1_555
Mn5 O28 1.874401 1_555
Mn5 O2 1.874401 1_555
Mn5 O15 2.067739 1_555
Mn5 O14 2.067739 1_555
Mn5 O8 2.172231 1_555
Mn5 O6 2.172231 1_555
Mn6 O24 1.874401 1_655
Mn6 O47 1.874401 1_545
Mn6 O0 2.067739 1_555
Mn6 O22 2.067739 1_555
Mn6 O26 2.172231 1_655
Mn6 O30 2.172231 1_555
Mn7 O24 1.934669 1_654
Mn7 O28 1.934669 1_655
Mn7 O10 1.954997 1_555
Mn7 O35 1.954997 1_554
Mn7 O11 2.252680 1_554
Mn7 O42 2.252680 1_655
Mn8 O19 1.934674 1_554
Mn8 O45 1.934681 1_554
Mn8 O6 1.954980 1_555
Mn8 O7 1.954999 1_555
Mn8 O34 2.252673 1_555
Mn8 O15 2.252676 1_555
Mn9 O39 1.934674 1_556
Mn9 O1 1.934681 1_556
Mn9 O30 1.954980 1_555
Mn9 O21 1.954999 1_555
Mn9 O18 2.252673 1_555
Mn9 O0 2.252676 1_555
Mn10 O33 1.909224 1_555
Mn10 O29 1.909228 1_555
Mn10 O19 2.000679 1_555
Mn10 O28 2.000690 1_556
Mn10 O15 2.284321 1_556
Mn10 O11 2.284321 1_455
Mn11 O5 1.874395 1_555
Mn11 O3 1.874395 1_555
Mn11 O44 2.067745 1_545
Mn11 O18 2.067745 1_555
Mn11 O33 2.172220 1_555
Mn11 O21 2.172220 1_555
Mn12 O7 1.909224 1_555
Mn12 O25 1.909228 1_555
Mn12 O4 2.000679 1_555
Mn12 O47 2.000690 1_555
Mn12 O22 2.284321 1_565
Mn12 O13 2.284321 1_555
Mn13 O27 1.934681 1_565
Mn13 O5 1.934681 1_564
Mn13 O31 1.954995 1_554
Mn13 O25 1.954995 1_555
Mn13 O17 2.252676 1_565
Mn13 O41 2.252676 1_554
Mn14 O47 1.934669 1_555
Mn14 O2 1.934669 1_555
Mn14 O9 1.954997 1_555
Mn14 O36 1.954997 1_555
Mn14 O38 2.252680 1_555
Mn14 O13 2.252680 1_555
Mn15 O3 1.934681 1_555
Mn15 O43 1.934681 1_555
Mn15 O29 1.954995 1_555
Mn15 O40 1.954995 1_555
Mn15 O46 2.252676 1_555
Mn15 O20 2.252676 1_555
Mn16 O45 1.874401 1_555
Mn16 O37 1.874401 1_555
Mn16 O41 2.067751 1_555
Mn16 O46 2.067751 1_555
Mn16 O40 2.172224 1_555
Mn16 O25 2.172224 1_556
Mn17 O43 1.874395 1_555
Mn17 O27 1.874395 1_555
Mn17 O16 2.067745 1_555
Mn17 O34 2.067745 1_545
Mn17 O12 2.172220 1_555
Mn17 O7 2.172220 1_545
Mn18 O32 1.934674 1_555
Mn18 O37 1.934681 1_555
Mn18 O8 1.954980 1_555
Mn18 O12 1.954999 1_555
Mn18 O16 2.252673 1_555
Mn18 O14 2.252676 1_555
Mn19 O26 1.909224 1_565
Mn19 O36 1.909224 1_455
Mn19 O27 2.000684 1_566
Mn19 O45 2.000690 1_555
Mn19 O41 2.284321 1_555
Mn19 O34 2.284325 1_556
Mn20 O21 1.909224 1_565
Mn20 O31 1.909228 1_555
Mn20 O32 2.000679 1_555
Mn20 O2 2.000690 1_555
Mn20 O14 2.284321 1_555
Mn20 O38 2.284321 1_555
Mn21 O8 1.909224 1_555
Mn21 O9 1.909224 1_555
Mn21 O5 2.000684 1_554
Mn21 O1 2.000690 1_555
Mn21 O17 2.284321 1_555
Mn21 O18 2.284325 1_554
Mn22 O4 1.934674 1_445
Mn22 O23 1.934681 1_445
Mn22 O26 1.954980 1_555
Mn22 O33 1.954999 1_555
Mn22 O44 2.252673 1_545
Mn22 O22 2.252676 1_455
Mn23 O39 1.874401 1_555
Mn23 O4 1.874401 1_555
Mn23 O42 2.067739 1_655
Mn23 O13 2.067739 1_555
Mn23 O36 2.172220 1_555
Mn23 O35 2.172220 1_554
O0 Si2 1.621151 1_656
O11 Si0 1.621151 1_555
O13 Si1 1.621151 1_555
O14 Si3 1.621151 1_555
O15 Si1 1.621151 1_555
O16 Si0 1.621151 1_555
O17 Si0 1.621144 1_555
O18 Si1 1.621151 1_556
O20 Si2 1.621144 1_555
O22 Si0 1.621151 1_555
O34 Si2 1.621151 1_565
O38 Si2 1.621151 1_666
O41 Si3 1.621144 1_555
O42 Si3 1.621151 1_555
O44 Si3 1.621151 1_555
O46 Si1 1.621144 1_556
