# generated using pymatgen
data_KSO4
_symmetry_space_group_name_H-M   'P 1'
_cell_length_a   5.10300400
_cell_length_b   5.58007763
_cell_length_c   7.60958293
_cell_angle_alpha   103.63847117
_cell_angle_beta   109.35647097
_cell_angle_gamma   87.70350950
_symmetry_Int_Tables_number   1
_chemical_formula_structural   KSO4
_chemical_formula_sum   'K2 S2 O8'
_cell_volume   198.50000966
_cell_formula_units_Z   2
loop_
 _symmetry_equiv_pos_site_id
 _symmetry_equiv_pos_as_xyz
  1  'x, y, z'
loop_
 _atom_site_type_symbol
 _atom_site_label
 _atom_site_symmetry_multiplicity
 _atom_site_fract_x
 _atom_site_fract_y
 _atom_site_fract_z
 _atom_site_occupancy
  K  K0  1  0.57253200  0.80866600  0.24033100  1
  K  K1  1  0.42746800  0.19133400  0.75966900  1
  S  S0  1  0.98092100  0.71654100  0.77055500  1
  S  S1  1  0.01907900  0.28345900  0.22944500  1
  O  O0  1  0.15844500  0.14830300  0.37458200  1
  O  O1  1  0.07264400  0.12607200  0.02710600  1
  O  O2  1  0.84155500  0.85169700  0.62541800  1
  O  O3  1  0.85112600  0.48238400  0.75428600  1
  O  O4  1  0.14887400  0.51761600  0.24571400  1
  O  O5  1  0.71676900  0.28301300  0.18223500  1
  O  O6  1  0.28323100  0.71698700  0.81776500  1
  O  O7  1  0.92735600  0.87392800  0.97289400  1
loop_
_geom_bond_atom_site_label_1
_geom_bond_atom_site_label_2
_geom_bond_distance
_geom_bond_site_symmetry_2
K0 O2 2.749027 1_555
K0 O4 2.772132 1_555
K0 O5 2.943961 1_565
K0 O5 2.961744 1_555
K0 O6 2.986452 1_554
K0 O0 3.049192 1_565
K0 O7 3.224547 1_554
K0 O1 3.244434 1_565
K0 O4 3.295142 1_655
K0 O7 3.305389 1_454
K0 O0 3.330364 1_665
K1 O0 2.749027 1_555
K1 O3 2.772132 1_555
K1 O6 2.943961 1_545
K1 O6 2.961744 1_555
K1 O5 2.986452 1_556
K1 O2 3.049192 1_545
K1 O1 3.224547 1_556
K1 O7 3.244434 1_545
K1 O3 3.295142 1_455
K1 O1 3.305389 1_656
K1 O2 3.330364 1_445
O0 S1 1.457222 1_555
O1 S1 1.684870 1_555
O2 S0 1.457222 1_555
O3 S0 1.449132 1_555
O4 S1 1.449132 1_555
O5 S1 1.463374 1_655
O6 S0 1.463374 1_455
O7 S0 1.684870 1_555
