# generated using pymatgen
data_ZnH2(CO2)2
_symmetry_space_group_name_H-M   'P 1'
_cell_length_a   10.07461500
_cell_length_b   11.52695900
_cell_length_c   18.51945255
_cell_angle_alpha   52.86265831
_cell_angle_beta   90.00000000
_cell_angle_gamma   90.00000000
_symmetry_Int_Tables_number   1
_chemical_formula_structural   ZnH2(CO2)2
_chemical_formula_sum   'Zn12 H24 C24 O48'
_cell_volume   1714.48439118
_cell_formula_units_Z   12
loop_
 _symmetry_equiv_pos_site_id
 _symmetry_equiv_pos_as_xyz
  1  'x, y, z'
loop_
 _atom_site_type_symbol
 _atom_site_label
 _atom_site_symmetry_multiplicity
 _atom_site_fract_x
 _atom_site_fract_y
 _atom_site_fract_z
 _atom_site_occupancy
  Zn  Zn0  1  0.57639200  0.37524800  0.36831900  1
  Zn  Zn1  1  0.42360800  0.62475200  0.63168100  1
  Zn  Zn2  1  0.88914600  0.42917100  0.31212600  1
  Zn  Zn3  1  0.92360800  0.37524800  0.86831900  1
  Zn  Zn4  1  0.11085400  0.57082900  0.68787400  1
  Zn  Zn5  1  0.00000000  0.00000000  0.00000000  1
  Zn  Zn6  1  0.50000000  0.50000000  0.50000000  1
  Zn  Zn7  1  0.38914600  0.57082900  0.18787400  1
  Zn  Zn8  1  0.61085400  0.42917100  0.81212600  1
  Zn  Zn9  1  0.07639200  0.62475200  0.13168100  1
  Zn  Zn10  1  0.00000000  0.50000000  0.00000000  1
  Zn  Zn11  1  0.50000000  0.00000000  0.50000000  1
  H  H0  1  0.20384500  0.99305000  0.50581800  1
  H  H1  1  0.79615500  0.00695000  0.49418200  1
  H  H2  1  0.96067400  0.20016200  0.27294900  1
  H  H3  1  0.24962300  0.49010900  0.87217600  1
  H  H4  1  0.69816900  0.74739500  0.73836000  1
  H  H5  1  0.16640200  0.23273400  0.07649200  1
  H  H6  1  0.89354100  0.47208900  0.46321000  1
  H  H7  1  0.80183100  0.74739500  0.23836000  1
  H  H8  1  0.25037700  0.49010900  0.37217600  1
  H  H9  1  0.53932600  0.20016200  0.77294900  1
  H  H10  1  0.33359800  0.23273400  0.57649200  1
  H  H11  1  0.83359800  0.76726600  0.92350800  1
  H  H12  1  0.29615500  0.99305000  0.00581800  1
  H  H13  1  0.19816900  0.25260500  0.76164000  1
  H  H14  1  0.74962300  0.50989100  0.62782400  1
  H  H15  1  0.39354100  0.52791100  0.03679000  1
  H  H16  1  0.70384500  0.00695000  0.99418200  1
  H  H17  1  0.60645900  0.47208900  0.96321000  1
  H  H18  1  0.75037700  0.50989100  0.12782400  1
  H  H19  1  0.46067400  0.79983800  0.22705100  1
  H  H20  1  0.66640200  0.76726600  0.42350800  1
  H  H21  1  0.03932600  0.79983800  0.72705100  1
  H  H22  1  0.30183100  0.25260500  0.26164000  1
  H  H23  1  0.10645900  0.52791100  0.53679000  1
  C  C0  1  0.33121500  0.49902600  0.82920500  1
  C  C1  1  0.51559700  0.30920000  0.71000100  1
  C  C2  1  0.16878500  0.49902600  0.32920500  1
  C  C3  1  0.71439700  0.46879900  0.95318200  1
  C  C4  1  0.77791800  0.12525700  0.44694000  1
  C  C5  1  0.01559700  0.69080000  0.78999900  1
  C  C6  1  0.39657200  0.22484900  0.53082500  1
  C  C7  1  0.21439700  0.53120100  0.54681800  1
  C  C8  1  0.78560300  0.46879900  0.45318200  1
  C  C9  1  0.98440300  0.30920000  0.21000100  1
  C  C10  1  0.28560300  0.53120100  0.04681800  1
  C  C11  1  0.83121500  0.50097400  0.67079500  1
  C  C12  1  0.87165200  0.76993900  0.18496000  1
  C  C13  1  0.37165200  0.23006100  0.31504000  1
  C  C14  1  0.27791800  0.87474300  0.05306000  1
  C  C15  1  0.72208200  0.12525700  0.94694000  1
  C  C16  1  0.89657200  0.77515100  0.96917500  1
  C  C17  1  0.22208200  0.87474300  0.55306000  1
  C  C18  1  0.48440300  0.69080000  0.28999900  1
  C  C19  1  0.10342800  0.22484900  0.03082500  1
  C  C20  1  0.62834800  0.76993900  0.68496000  1
  C  C21  1  0.66878500  0.50097400  0.17079500  1
  C  C22  1  0.12834800  0.23006100  0.81504000  1
  C  C23  1  0.60342800  0.77515100  0.46917500  1
  O  O0  1  0.91709400  0.65717400  0.19452900  1
  O  O1  1  0.50431200  0.67922800  0.36082500  1
  O  O2  1  0.19712600  0.55892900  0.24598800  1
  O  O3  1  0.34409600  0.83500900  0.56148500  1
  O  O4  1  0.58290600  0.65717400  0.69452900  1
  O  O5  1  0.52691500  0.66455700  0.52220100  1
  O  O6  1  0.62317800  0.20639300  0.90717300  1
  O  O7  1  0.94276100  0.54945000  0.63348500  1
  O  O8  1  0.30287400  0.55892900  0.74598800  1
  O  O9  1  0.11335700  0.11361800  0.03425700  1
  O  O10  1  0.99568800  0.67922800  0.86082500  1
  O  O11  1  0.47308500  0.33544300  0.47779900  1
  O  O12  1  0.01072800  0.58687000  0.78258900  1
  O  O13  1  0.44276100  0.45055000  0.86651500  1
  O  O14  1  0.05723900  0.45055000  0.36651500  1
  O  O15  1  0.79251100  0.47734500  0.00250000  1
  O  O16  1  0.89728800  0.90039700  0.12240300  1
  O  O17  1  0.12317800  0.79360700  0.59282700  1
  O  O18  1  0.08290600  0.34282600  0.80547100  1
  O  O19  1  0.80287400  0.44107100  0.75401200  1
  O  O20  1  0.48927200  0.58687000  0.28258900  1
  O  O21  1  0.15590400  0.83500900  0.06148500  1
  O  O22  1  0.51072800  0.41313000  0.71741100  1
  O  O23  1  0.60271200  0.90039700  0.62240300  1
  O  O24  1  0.20748900  0.52265500  0.99750000  1
  O  O25  1  0.75339700  0.45707600  0.39049400  1
  O  O26  1  0.38664300  0.11361800  0.53425700  1
  O  O27  1  0.37682200  0.79360700  0.09282700  1
  O  O28  1  0.39728800  0.09960300  0.37759700  1
  O  O29  1  0.49568800  0.32077200  0.63917500  1
  O  O30  1  0.25339700  0.54292400  0.10950600  1
  O  O31  1  0.74660300  0.45707600  0.89049400  1
  O  O32  1  0.00431200  0.32077200  0.13917500  1
  O  O33  1  0.65590400  0.16499100  0.43851500  1
  O  O34  1  0.87682200  0.20639300  0.40717300  1
  O  O35  1  0.88664300  0.88638200  0.96574300  1
  O  O36  1  0.29251100  0.52265500  0.49750000  1
  O  O37  1  0.55723900  0.54945000  0.13348500  1
  O  O38  1  0.02691500  0.33544300  0.97779900  1
  O  O39  1  0.24660300  0.54292400  0.60950600  1
  O  O40  1  0.61335700  0.88638200  0.46574300  1
  O  O41  1  0.98927200  0.41313000  0.21741100  1
  O  O42  1  0.97308500  0.66455700  0.02220100  1
  O  O43  1  0.70748900  0.47734500  0.50250000  1
  O  O44  1  0.41709400  0.34282600  0.30547100  1
  O  O45  1  0.69712600  0.44107100  0.25401200  1
  O  O46  1  0.10271200  0.09960300  0.87759700  1
  O  O47  1  0.84409600  0.16499100  0.93851500  1
loop_
_geom_bond_atom_site_label_1
_geom_bond_atom_site_label_2
_geom_bond_distance
_geom_bond_site_symmetry_2
C0 H3 1.104895 1_555
C0 O13 1.259507 1_555
C0 O8 1.283935 1_555
C1 H9 1.107567 1_555
C1 O29 1.251884 1_555
C1 O22 1.286445 1_555
C2 H8 1.104895 1_555
C2 O14 1.259507 1_555
C2 O2 1.283935 1_555
C3 H17 1.107675 1_555
C3 O15 1.253737 1_556
C3 O31 1.288705 1_555
C4 H1 1.103767 1_555
C4 O34 1.256287 1_555
C4 O33 1.287973 1_555
C5 H21 1.107567 1_555
C5 O10 1.251884 1_455
C5 O12 1.286445 1_555
C6 H10 1.104013 1_555
C6 O26 1.248827 1_555
C6 O11 1.293096 1_555
C7 H23 1.107675 1_555
C7 O36 1.253737 1_555
C7 O39 1.288705 1_555
C8 H6 1.107675 1_555
C8 O43 1.253737 1_555
C8 O25 1.288705 1_555
C9 H2 1.107567 1_555
C9 O32 1.251884 1_655
C9 O41 1.286445 1_555
C10 H15 1.107675 1_555
C10 O24 1.253737 1_554
C10 O30 1.288705 1_555
C11 H14 1.104895 1_555
C11 O7 1.259507 1_555
C11 O19 1.283935 1_555
C12 H7 1.109065 1_555
C12 O16 1.251661 1_555
C12 O0 1.285472 1_555
C13 H22 1.109065 1_555
C13 O28 1.251661 1_555
C13 O44 1.285472 1_555
C14 H12 1.103767 1_555
C14 O27 1.256287 1_555
C14 O21 1.287973 1_555
C15 H16 1.103767 1_555
C15 O6 1.256287 1_555
C15 O47 1.287973 1_555
C16 H11 1.104013 1_555
C16 O35 1.248827 1_555
C16 O42 1.293096 1_556
C17 H0 1.103767 1_555
C17 O17 1.256287 1_555
C17 O3 1.287973 1_555
C18 H19 1.107567 1_555
C18 O1 1.251884 1_555
C18 O20 1.286445 1_555
C19 H5 1.104013 1_555
C19 O9 1.248827 1_555
C19 O38 1.293096 1_554
C20 H4 1.109065 1_555
C20 O23 1.251661 1_555
C20 O4 1.285472 1_555
C21 H18 1.104895 1_555
C21 O37 1.259507 1_555
C21 O45 1.283935 1_555
C22 H13 1.109065 1_555
C22 O46 1.251661 1_555
C22 O18 1.285472 1_555
C23 H20 1.104013 1_555
C23 O40 1.248827 1_555
C23 O5 1.293096 1_555
O0 Zn9 2.143637 1_655
O0 Zn2 2.195088 1_555
O1 Zn6 2.117479 1_555
O2 Zn9 2.144080 1_555
O2 Zn7 2.177441 1_555
O3 Zn1 2.097927 1_555
O3 Zn11 2.183062 1_565
O4 Zn1 2.143637 1_555
O4 Zn8 2.195088 1_555
O5 Zn1 2.069122 1_555
O5 Zn6 2.186838 1_555
O6 Zn8 2.061620 1_555
O7 Zn4 2.059820 1_655
O8 Zn1 2.144080 1_555
O8 Zn4 2.177441 1_555
O9 Zn5 2.103618 1_555
O10 Zn10 2.117479 1_656
O11 Zn0 2.069122 1_555
O11 Zn6 2.186838 1_555
O12 Zn4 2.126055 1_555
O12 Zn3 2.136627 1_455
O13 Zn8 2.059820 1_555
O14 Zn2 2.059820 1_455
O15 Zn10 2.103662 1_655
O16 Zn5 2.094035 1_665
O17 Zn4 2.061620 1_555
O18 Zn3 2.143637 1_455
O18 Zn4 2.195088 1_555
O19 Zn3 2.144080 1_555
O19 Zn8 2.177441 1_555
O20 Zn7 2.126055 1_555
O20 Zn0 2.136627 1_555
O21 Zn9 2.097927 1_555
O21 Zn5 2.183062 1_565
O22 Zn8 2.126055 1_555
O22 Zn1 2.136627 1_555
O23 Zn11 2.094035 1_565
O24 Zn10 2.103662 1_556
O25 Zn2 2.154970 1_555
O25 Zn0 2.169343 1_555
O26 Zn11 2.103618 1_555
O27 Zn7 2.061620 1_555
O28 Zn11 2.094035 1_555
O29 Zn6 2.117479 1_555
O30 Zn7 2.154970 1_555
O30 Zn9 2.169343 1_555
O31 Zn8 2.154970 1_555
O31 Zn3 2.169343 1_555
O32 Zn10 2.117479 1_555
O33 Zn0 2.097927 1_555
O33 Zn11 2.183062 1_555
O34 Zn2 2.061620 1_555
O35 Zn5 2.103618 1_666
O36 Zn6 2.103662 1_555
O37 Zn7 2.059820 1_555
O38 Zn3 2.069122 1_455
O38 Zn10 2.186838 1_556
O39 Zn4 2.154970 1_555
O39 Zn1 2.169343 1_555
O40 Zn11 2.103618 1_565
O41 Zn2 2.126055 1_555
O41 Zn9 2.136627 1_655
O42 Zn9 2.069122 1_655
O42 Zn10 2.186838 1_655
O43 Zn6 2.103662 1_555
O44 Zn0 2.143637 1_555
O44 Zn7 2.195088 1_555
O45 Zn0 2.144080 1_555
O45 Zn2 2.177441 1_555
O46 Zn5 2.094035 1_556
O47 Zn3 2.097927 1_555
O47 Zn5 2.183062 1_656
