# generated using pymatgen
data_K2SrP2O7
_symmetry_space_group_name_H-M   'P 1'
_cell_length_a   5.79651500
_cell_length_b   9.28772200
_cell_length_c   14.94606584
_cell_angle_alpha   74.15816140
_cell_angle_beta   90.00000000
_cell_angle_gamma   90.00000000
_symmetry_Int_Tables_number   1
_chemical_formula_structural   K2SrP2O7
_chemical_formula_sum   'K8 Sr4 P8 O28'
_cell_volume   774.08147206
_cell_formula_units_Z   4
loop_
 _symmetry_equiv_pos_site_id
 _symmetry_equiv_pos_as_xyz
  1  'x, y, z'
loop_
 _atom_site_type_symbol
 _atom_site_label
 _atom_site_symmetry_multiplicity
 _atom_site_fract_x
 _atom_site_fract_y
 _atom_site_fract_z
 _atom_site_occupancy
  K  K0  1  0.73820900  0.53429800  0.16368100  1
  K  K1  1  0.26638700  0.03181700  0.38650500  1
  K  K2  1  0.73361300  0.96818300  0.61349500  1
  K  K3  1  0.23820900  0.46570200  0.33631900  1
  K  K4  1  0.26179100  0.46570200  0.83631900  1
  K  K5  1  0.76638700  0.96818300  0.11349500  1
  K  K6  1  0.23361300  0.03181700  0.88650500  1
  K  K7  1  0.76179100  0.53429800  0.66368100  1
  Sr  Sr0  1  0.27368900  0.26321700  0.13249000  1
  Sr  Sr1  1  0.22631100  0.26321700  0.63249000  1
  Sr  Sr2  1  0.77368900  0.73678300  0.36751000  1
  Sr  Sr3  1  0.72631100  0.73678300  0.86751000  1
  P  P0  1  0.80006100  0.30878600  0.96564500  1
  P  P1  1  0.73116400  0.18107500  0.80618300  1
  P  P2  1  0.69993900  0.30878600  0.46564500  1
  P  P3  1  0.23116400  0.81892500  0.69381700  1
  P  P4  1  0.76883600  0.18107500  0.30618300  1
  P  P5  1  0.30006100  0.69121400  0.53435500  1
  P  P6  1  0.26883600  0.81892500  0.19381700  1
  P  P7  1  0.19993900  0.69121400  0.03435500  1
  O  O0  1  0.51946300  0.26564900  0.75694100  1
  O  O1  1  0.01946300  0.73435100  0.74305900  1
  O  O2  1  0.55480500  0.73423700  0.51303800  1
  O  O3  1  0.72825700  0.01390800  0.81281000  1
  O  O4  1  0.27174300  0.98609200  0.18719000  1
  O  O5  1  0.44519500  0.26576300  0.48696200  1
  O  O6  1  0.96102800  0.25803300  0.77175500  1
  O  O7  1  0.15541100  0.71713400  0.44582500  1
  O  O8  1  0.22825700  0.98609200  0.68719000  1
  O  O9  1  0.48053700  0.73435100  0.24305900  1
  O  O10  1  0.03897200  0.74196700  0.22824500  1
  O  O11  1  0.84458900  0.28286600  0.55417500  1
  O  O12  1  0.23454400  0.53871200  0.10468800  1
  O  O13  1  0.46102800  0.74196700  0.72824500  1
  O  O14  1  0.94519500  0.73423700  0.01303800  1
  O  O15  1  0.65541100  0.28286600  0.05417500  1
  O  O16  1  0.34458900  0.71713400  0.94582500  1
  O  O17  1  0.73454400  0.46128800  0.39531200  1
  O  O18  1  0.53897200  0.25803300  0.27175500  1
  O  O19  1  0.05480500  0.26576300  0.98696200  1
  O  O20  1  0.77174300  0.01390800  0.31281000  1
  O  O21  1  0.76545600  0.46128800  0.89531200  1
  O  O22  1  0.98053700  0.26564900  0.25694100  1
  O  O23  1  0.69955000  0.18053500  0.91702300  1
  O  O24  1  0.26545600  0.53871200  0.60468800  1
  O  O25  1  0.30045000  0.81946500  0.08297700  1
  O  O26  1  0.19955000  0.81946500  0.58297700  1
  O  O27  1  0.80045000  0.18053500  0.41702300  1
loop_
_geom_bond_atom_site_label_1
_geom_bond_atom_site_label_2
_geom_bond_distance
_geom_bond_site_symmetry_2
K0 O14 2.770294 1_555
K0 O22 2.871034 1_555
K0 O18 2.874678 1_555
K0 O9 2.879958 1_555
K0 O10 2.950741 1_655
K0 O12 3.006089 1_655
K0 O12 3.046778 1_555
K0 O15 3.232503 1_555
K0 O17 3.341233 1_555
K1 O18 2.808019 1_555
K1 O7 2.885694 1_545
K1 O22 2.985939 1_455
K1 O26 3.082351 1_545
K1 O20 3.092214 1_455
K1 O4 3.121910 1_545
K1 O27 3.123180 1_455
K1 O5 3.135423 1_555
K1 O20 3.149874 1_555
K2 O13 2.808019 1_555
K2 O11 2.885694 1_565
K2 O1 2.985939 1_655
K2 O27 3.082351 1_565
K2 O8 3.092214 1_655
K2 O3 3.121910 1_565
K2 O26 3.123180 1_655
K2 O2 3.135423 1_555
K2 O8 3.149874 1_555
K3 O5 2.770294 1_555
K3 O9 2.871034 1_555
K3 O10 2.874678 1_555
K3 O22 2.879958 1_455
K3 O18 2.950741 1_555
K3 O17 3.006089 1_555
K3 O17 3.046778 1_455
K3 O7 3.232503 1_555
K3 O12 3.341233 1_555
K4 O19 2.770294 1_555
K4 O1 2.871034 1_555
K4 O13 2.874678 1_555
K4 O0 2.879958 1_555
K4 O6 2.950741 1_455
K4 O21 3.006089 1_455
K4 O21 3.046778 1_555
K4 O16 3.232503 1_555
K4 O24 3.341233 1_555
K5 O10 2.808019 1_655
K5 O15 2.885694 1_565
K5 O9 2.985939 1_555
K5 O23 3.082351 1_564
K5 O4 3.092214 1_555
K5 O20 3.121910 1_565
K5 O25 3.123180 1_555
K5 O14 3.135423 1_555
K5 O4 3.149874 1_655
K6 O6 2.808019 1_455
K6 O16 2.885694 1_545
K6 O0 2.985939 1_555
K6 O25 3.082351 1_546
K6 O3 3.092214 1_555
K6 O8 3.121910 1_545
K6 O23 3.123180 1_555
K6 O19 3.135423 1_555
K6 O3 3.149874 1_455
K7 O2 2.770294 1_555
K7 O0 2.871034 1_555
K7 O6 2.874678 1_555
K7 O1 2.879958 1_655
K7 O13 2.950741 1_555
K7 O24 3.006089 1_555
K7 O24 3.046778 1_655
K7 O11 3.232503 1_555
K7 O21 3.341233 1_555
O0 P1 1.532607 1_555
O0 Sr1 2.524030 1_555
O1 P3 1.532607 1_555
O1 Sr3 2.524030 1_455
O2 P5 1.540162 1_555
O2 Sr2 2.512603 1_555
O3 P1 1.528628 1_555
O3 Sr3 2.478793 1_545
O4 P6 1.528628 1_555
O4 Sr0 2.478793 1_565
O5 P2 1.540162 1_555
O5 Sr1 2.512603 1_555
O6 P1 1.533029 1_555
O6 Sr1 2.577725 1_655
O7 P5 1.529007 1_555
O7 Sr2 2.486485 1_455
O8 P3 1.528628 1_555
O8 Sr1 2.478793 1_565
O9 P6 1.532607 1_555
O9 Sr2 2.524030 1_555
O10 P6 1.533029 1_555
O10 Sr2 2.577725 1_455
O11 P2 1.529007 1_555
O11 Sr1 2.486485 1_655
O12 P7 1.529229 1_555
O12 Sr0 2.488116 1_555
O13 P3 1.533029 1_555
O13 Sr3 2.577725 1_555
O14 P7 1.540162 1_655
O14 Sr3 2.512603 1_554
O15 P0 1.529007 1_554
O15 Sr0 2.486485 1_555
O16 P7 1.529007 1_556
O16 Sr3 2.486485 1_555
O17 P2 1.529229 1_555
O17 Sr2 2.488116 1_555
O18 P4 1.533029 1_555
O18 Sr0 2.577725 1_555
O19 P0 1.540162 1_455
O19 Sr0 2.512603 1_556
O20 P4 1.528628 1_555
O20 Sr2 2.478793 1_545
O21 P0 1.529229 1_555
O21 Sr3 2.488116 1_555
O22 P4 1.532607 1_555
O22 Sr0 2.524030 1_655
O23 P0 1.661025 1_555
O23 P1 1.665373 1_555
O24 P5 1.529229 1_555
O24 Sr1 2.488116 1_555
O25 P7 1.661025 1_555
O25 P6 1.665373 1_555
O26 P5 1.661025 1_555
O26 P3 1.665373 1_555
O27 P2 1.661025 1_555
O27 P4 1.665373 1_555
