# generated using pymatgen
data_BaTeO3
_symmetry_space_group_name_H-M   'P 1'
_cell_length_a   4.65043918
_cell_length_b   5.95910517
_cell_length_c   7.12093275
_cell_angle_alpha   90.00000000
_cell_angle_beta   106.44706129
_cell_angle_gamma   90.00000000
_symmetry_Int_Tables_number   1
_chemical_formula_structural   BaTeO3
_chemical_formula_sum   'Ba2 Te2 O6'
_cell_volume   189.26378786
_cell_formula_units_Z   2
loop_
 _symmetry_equiv_pos_site_id
 _symmetry_equiv_pos_as_xyz
  1  'x, y, z'
loop_
 _atom_site_type_symbol
 _atom_site_label
 _atom_site_symmetry_multiplicity
 _atom_site_fract_x
 _atom_site_fract_y
 _atom_site_fract_z
 _atom_site_occupancy
  Ba  Ba0  1  0.66019226  0.75000000  0.31039579  1
  Ba  Ba1  1  0.33980774  0.25000000  0.68960421  1
  Te  Te0  1  0.93052636  0.75000000  0.85190970  1
  Te  Te1  1  0.06947364  0.25000000  0.14809030  1
  O  O0  1  0.17606626  0.48656914  0.32639096  1
  O  O1  1  0.82393374  0.98656914  0.67360904  1
  O  O2  1  0.82393374  0.51343086  0.67360904  1
  O  O3  1  0.17606626  0.01343086  0.32639096  1
  O  O4  1  0.65428532  0.25000000  0.11200507  1
  O  O5  1  0.34571468  0.75000000  0.88799493  1
loop_
_geom_bond_atom_site_label_1
_geom_bond_atom_site_label_2
_geom_bond_distance
_geom_bond_site_symmetry_2
Ba0 O0 2.773317 1_555
Ba0 O3 2.773317 1_565
Ba0 O0 2.842173 1_655
Ba0 O3 2.842173 1_665
Ba0 O2 2.853336 1_555
Ba0 O1 2.853336 1_555
Ba0 O5 2.948772 1_554
Ba0 O4 3.294285 1_565
Ba0 O4 3.294285 1_555
Ba1 O1 2.773317 1_545
Ba1 O2 2.773317 1_555
Ba1 O1 2.842173 1_445
Ba1 O2 2.842173 1_455
Ba1 O3 2.853336 1_555
Ba1 O0 2.853336 1_555
Ba1 O4 2.948772 1_556
Ba1 O5 3.294285 1_545
Ba1 O5 3.294285 1_555
O0 Te1 1.867820 1_555
O1 Te0 1.867820 1_555
O2 Te0 1.867820 1_555
O3 Te1 1.867820 1_555
O4 Te1 1.874328 1_655
O5 Te0 1.874328 1_455
