# generated using pymatgen
data_Ag10Te4Br3
_symmetry_space_group_name_H-M   'P 1'
_cell_length_a   11.05468881
_cell_length_b   11.05468881
_cell_length_c   13.81732461
_cell_angle_alpha   90.00000000
_cell_angle_beta   90.00000000
_cell_angle_gamma   90.93531589
_symmetry_Int_Tables_number   1
_chemical_formula_structural   Ag10Te4Br3
_chemical_formula_sum   'Ag40 Te16 Br12'
_cell_volume   1688.33698808
_cell_formula_units_Z   4
loop_
 _symmetry_equiv_pos_site_id
 _symmetry_equiv_pos_as_xyz
  1  'x, y, z'
loop_
 _atom_site_type_symbol
 _atom_site_label
 _atom_site_symmetry_multiplicity
 _atom_site_fract_x
 _atom_site_fract_y
 _atom_site_fract_z
 _atom_site_occupancy
  Ag  Ag0  1  0.82900210  0.36455251  0.10147342  1
  Ag  Ag1  1  0.37160645  0.62839355  0.25000000  1
  Ag  Ag2  1  0.84816735  0.36858699  0.63276368  1
  Ag  Ag3  1  0.84816735  0.36858699  0.86723632  1
  Ag  Ag4  1  0.40283409  0.31399535  0.64585270  1
  Ag  Ag5  1  0.31399535  0.40283409  0.14585270  1
  Ag  Ag6  1  0.93734081  0.88011356  0.75000000  1
  Ag  Ag7  1  0.17099790  0.63544749  0.89852658  1
  Ag  Ag8  1  0.63544749  0.17099790  0.39852658  1
  Ag  Ag9  1  0.85785233  0.14214767  0.75000000  1
  Ag  Ag10  1  0.36455251  0.82900210  0.60147342  1
  Ag  Ag11  1  0.17817151  0.01717203  0.07416950  1
  Ag  Ag12  1  0.98282797  0.82182849  0.42583050  1
  Ag  Ag13  1  0.40283409  0.31399535  0.85414730  1
  Ag  Ag14  1  0.36455251  0.82900210  0.89852658  1
  Ag  Ag15  1  0.15183265  0.63141301  0.13276368  1
  Ag  Ag16  1  0.62839355  0.37160645  0.75000000  1
  Ag  Ag17  1  0.82182849  0.98282797  0.57416950  1
  Ag  Ag18  1  0.11988644  0.06265919  0.75000000  1
  Ag  Ag19  1  0.14214767  0.85785233  0.25000000  1
  Ag  Ag20  1  0.36858699  0.84816735  0.36723632  1
  Ag  Ag21  1  0.01717203  0.17817151  0.57416950  1
  Ag  Ag22  1  0.63141301  0.15183265  0.86723632  1
  Ag  Ag23  1  0.98282797  0.82182849  0.07416950  1
  Ag  Ag24  1  0.88011356  0.93734081  0.25000000  1
  Ag  Ag25  1  0.36858699  0.84816735  0.13276368  1
  Ag  Ag26  1  0.59716591  0.68600465  0.35414730  1
  Ag  Ag27  1  0.15183265  0.63141301  0.36723632  1
  Ag  Ag28  1  0.31399535  0.40283409  0.35414730  1
  Ag  Ag29  1  0.17099790  0.63544749  0.60147342  1
  Ag  Ag30  1  0.17817151  0.01717203  0.42583050  1
  Ag  Ag31  1  0.63141301  0.15183265  0.63276368  1
  Ag  Ag32  1  0.82182849  0.98282797  0.92583050  1
  Ag  Ag33  1  0.68600465  0.59716591  0.64585270  1
  Ag  Ag34  1  0.63544749  0.17099790  0.10147342  1
  Ag  Ag35  1  0.06265919  0.11988644  0.25000000  1
  Ag  Ag36  1  0.68600465  0.59716591  0.85414730  1
  Ag  Ag37  1  0.01717203  0.17817151  0.92583050  1
  Ag  Ag38  1  0.82900210  0.36455251  0.39852658  1
  Ag  Ag39  1  0.59716591  0.68600465  0.14585270  1
  Te  Te0  1  0.68973832  0.95147290  0.75000000  1
  Te  Te1  1  0.29756225  0.51895313  0.75000000  1
  Te  Te2  1  0.38107218  0.61892782  0.45187457  1
  Te  Te3  1  0.88426026  0.11573974  0.40957803  1
  Te  Te4  1  0.95147290  0.68973832  0.25000000  1
  Te  Te5  1  0.04852710  0.31026168  0.75000000  1
  Te  Te6  1  0.48104687  0.70243775  0.75000000  1
  Te  Te7  1  0.31026168  0.04852710  0.25000000  1
  Te  Te8  1  0.61892782  0.38107218  0.54812543  1
  Te  Te9  1  0.51895313  0.29756225  0.25000000  1
  Te  Te10  1  0.88426026  0.11573974  0.09042197  1
  Te  Te11  1  0.38107218  0.61892782  0.04812543  1
  Te  Te12  1  0.11573974  0.88426026  0.90957803  1
  Te  Te13  1  0.11573974  0.88426026  0.59042197  1
  Te  Te14  1  0.61892782  0.38107218  0.95187457  1
  Te  Te15  1  0.70243775  0.48104687  0.25000000  1
  Br  Br0  1  0.24912007  0.24912007  0.50000000  1
  Br  Br1  1  0.90111471  0.63535081  0.75000000  1
  Br  Br2  1  0.24912007  0.24912007  -0.00000000  1
  Br  Br3  1  0.75087993  0.75087993  0.50000000  1
  Br  Br4  1  0.09888529  0.36464919  0.25000000  1
  Br  Br5  1  0.00000000  0.50000000  0.50000000  1
  Br  Br6  1  0.75087993  0.75087993  -0.00000000  1
  Br  Br7  1  0.36464919  0.09888529  0.75000000  1
  Br  Br8  1  0.00000000  0.50000000  -0.00000000  1
  Br  Br9  1  0.63535081  0.90111471  0.25000000  1
  Br  Br10  1  0.50000000  0.00000000  0.50000000  1
  Br  Br11  1  0.50000000  0.00000000  -0.00000000  1
loop_
_geom_bond_atom_site_label_1
_geom_bond_atom_site_label_2
_geom_bond_distance
_geom_bond_site_symmetry_2
Ag0 Br8 2.772867 1_655
Ag0 Te15 2.808296 1_555
Ag0 Te10 2.831402 1_555
Ag0 Te14 3.116572 1_554
Ag1 Te11 2.793353 1_555
Ag1 Te2 2.793353 1_555
Ag1 Ag20 2.920691 1_555
Ag1 Ag27 2.920691 1_555
Ag1 Ag15 2.920691 1_555
Ag1 Ag25 2.920691 1_555
Ag1 Ag26 2.939742 1_555
Ag1 Ag5 2.939742 1_555
Ag1 Ag39 2.939742 1_555
Ag1 Ag28 2.939742 1_555
Ag2 Te8 2.796456 1_555
Ag2 Te5 2.827056 1_655
Ag2 Br5 2.865872 1_655
Ag2 Ag9 2.985022 1_555
Ag3 Te14 2.796456 1_555
Ag3 Te5 2.827056 1_655
Ag3 Br8 2.865872 1_656
Ag3 Ag9 2.985022 1_555
Ag4 Br0 2.724601 1_555
Ag4 Br7 2.805532 1_555
Ag4 Te8 2.832314 1_555
Ag4 Te1 2.940207 1_555
Ag5 Br2 2.724601 1_555
Ag5 Br4 2.805532 1_555
Ag5 Te11 2.832314 1_555
Ag5 Te9 2.940207 1_555
Ag6 Br1 2.728777 1_555
Ag6 Te0 2.860922 1_555
Ag6 Te12 2.958086 1_655
Ag6 Te13 2.958086 1_655
Ag6 Ag9 3.040749 1_565
Ag7 Br8 2.772867 1_556
Ag7 Te1 2.808296 1_555
Ag7 Te12 2.831402 1_555
Ag7 Te11 3.116572 1_556
Ag8 Br10 2.772867 1_555
Ag8 Te9 2.808296 1_555
Ag8 Te3 2.831402 1_555
Ag8 Te8 3.116572 1_555
Ag9 Te5 2.787288 1_655
Ag9 Te0 2.787288 1_545
Ag10 Br10 2.772867 1_565
Ag10 Te6 2.808296 1_555
Ag10 Te13 2.831402 1_555
Ag10 Te2 3.116572 1_555
Ag11 Te12 2.788208 1_544
Ag11 Te7 2.852780 1_555
Ag11 Br2 2.859097 1_555
Ag11 Ag19 3.023264 1_545
Ag12 Te13 2.788208 1_655
Ag12 Te4 2.852780 1_555
Ag12 Br3 2.859097 1_555
Ag12 Ag19 3.023264 1_655
Ag13 Br2 2.724601 1_556
Ag13 Br7 2.805532 1_555
Ag13 Te14 2.832314 1_555
Ag13 Ag16 2.939742 1_555
Ag13 Te1 2.940207 1_555
Ag14 Br11 2.772867 1_566
Ag14 Te6 2.808296 1_555
Ag14 Te12 2.831402 1_555
Ag14 Te11 3.116572 1_556
Ag15 Te11 2.796456 1_555
Ag15 Te4 2.827056 1_455
Ag15 Br8 2.865872 1_555
Ag15 Ag19 2.985022 1_555
Ag16 Te14 2.793353 1_555
Ag16 Te8 2.793353 1_555
Ag16 Ag2 2.920691 1_555
Ag16 Ag31 2.920691 1_555
Ag16 Ag22 2.920691 1_555
Ag16 Ag3 2.920691 1_555
Ag16 Ag36 2.939742 1_555
Ag16 Ag4 2.939742 1_555
Ag16 Ag33 2.939742 1_555
Ag17 Te3 2.788208 1_565
Ag17 Te0 2.852780 1_555
Ag17 Br3 2.859097 1_555
Ag17 Ag9 3.023264 1_565
Ag18 Br7 2.728777 1_555
Ag18 Te5 2.860922 1_555
Ag18 Te12 2.958086 1_545
Ag18 Te13 2.958086 1_545
Ag18 Ag9 3.040749 1_455
Ag19 Te7 2.787288 1_565
Ag19 Te4 2.787288 1_455
Ag19 Ag27 2.985022 1_555
Ag19 Ag25 2.985022 1_555
Ag19 Ag20 2.985022 1_555
Ag19 Ag23 3.023264 1_455
Ag19 Ag30 3.023264 1_565
Ag19 Ag24 3.040749 1_455
Ag19 Ag35 3.040749 1_565
Ag20 Te2 2.796456 1_555
Ag20 Te7 2.827056 1_565
Ag20 Br10 2.865872 1_565
Ag21 Te3 2.788208 1_455
Ag21 Te5 2.852780 1_555
Ag21 Br0 2.859097 1_555
Ag21 Ag9 3.023264 1_455
Ag22 Te14 2.796456 1_555
Ag22 Te0 2.827056 1_545
Ag22 Br11 2.865872 1_556
Ag22 Ag9 2.985022 1_555
Ag23 Te12 2.788208 1_654
Ag23 Te4 2.852780 1_555
Ag23 Br6 2.859097 1_555
Ag24 Br9 2.728777 1_555
Ag24 Te4 2.860922 1_555
Ag24 Te3 2.958086 1_565
Ag24 Te10 2.958086 1_565
Ag25 Te11 2.796456 1_555
Ag25 Te7 2.827056 1_565
Ag25 Br11 2.865872 1_565
Ag26 Br3 2.724601 1_555
Ag26 Br9 2.805532 1_555
Ag26 Te2 2.832314 1_555
Ag26 Te15 2.940207 1_555
Ag27 Te2 2.796456 1_555
Ag27 Te4 2.827056 1_455
Ag27 Br5 2.865872 1_555
Ag28 Br0 2.724601 1_555
Ag28 Br4 2.805532 1_555
Ag28 Te2 2.832314 1_555
Ag28 Te9 2.940207 1_555
Ag29 Br5 2.772867 1_555
Ag29 Te1 2.808296 1_555
Ag29 Te13 2.831402 1_555
Ag29 Te2 3.116572 1_555
Ag30 Te13 2.788208 1_545
Ag30 Te7 2.852780 1_555
Ag30 Br0 2.859097 1_555
Ag31 Te8 2.796456 1_555
Ag31 Te0 2.827056 1_545
Ag31 Br10 2.865872 1_555
Ag31 Ag9 2.985022 1_555
Ag32 Te10 2.788208 1_566
Ag32 Te0 2.852780 1_555
Ag32 Br6 2.859097 1_556
Ag32 Ag9 3.023264 1_565
Ag33 Br3 2.724601 1_555
Ag33 Br1 2.805532 1_555
Ag33 Te8 2.832314 1_555
Ag33 Te6 2.940207 1_555
Ag34 Br11 2.772867 1_555
Ag34 Te9 2.808296 1_555
Ag34 Te10 2.831402 1_555
Ag34 Te14 3.116572 1_554
Ag35 Br4 2.728777 1_555
Ag35 Te7 2.860922 1_555
Ag35 Te3 2.958086 1_455
Ag35 Te10 2.958086 1_455
Ag36 Br6 2.724601 1_556
Ag36 Br1 2.805532 1_555
Ag36 Te14 2.832314 1_555
Ag36 Te6 2.940207 1_555
Ag37 Te10 2.788208 1_456
Ag37 Te5 2.852780 1_555
Ag37 Br2 2.859097 1_556
Ag37 Ag9 3.023264 1_455
Ag38 Br5 2.772867 1_655
Ag38 Te15 2.808296 1_555
Ag38 Te3 2.831402 1_555
Ag38 Te8 3.116572 1_555
Ag39 Br6 2.724601 1_555
Ag39 Br9 2.805532 1_555
Ag39 Te11 2.832314 1_555
Ag39 Te15 2.940207 1_555
Te1 Te6 2.845033 1_555
Te15 Te9 2.845033 1_555
