# generated using pymatgen
data_Fe(BO2)2
_symmetry_space_group_name_H-M   'P 1'
_cell_length_a   7.53471200
_cell_length_b   7.23774300
_cell_length_c   8.72070256
_cell_angle_alpha   85.34234975
_cell_angle_beta   90.00000000
_cell_angle_gamma   90.00000000
_symmetry_Int_Tables_number   1
_chemical_formula_structural   Fe(BO2)2
_chemical_formula_sum   'Fe8 B16 O32'
_cell_volume   474.00697884
_cell_formula_units_Z   8
loop_
 _symmetry_equiv_pos_site_id
 _symmetry_equiv_pos_as_xyz
  1  'x, y, z'
loop_
 _atom_site_type_symbol
 _atom_site_label
 _atom_site_symmetry_multiplicity
 _atom_site_fract_x
 _atom_site_fract_y
 _atom_site_fract_z
 _atom_site_occupancy
  Fe  Fe0  1  0.76568300  0.52284200  0.63849800  1
  Fe  Fe1  1  0.27082200  0.03133400  0.39227500  1
  Fe  Fe2  1  0.26568300  0.47715800  0.86150200  1
  Fe  Fe3  1  0.73431700  0.52284200  0.13849800  1
  Fe  Fe4  1  0.77082200  0.96866600  0.10772500  1
  Fe  Fe5  1  0.23431700  0.47715800  0.36150200  1
  Fe  Fe6  1  0.22917800  0.03133400  0.89227500  1
  Fe  Fe7  1  0.72917800  0.96866600  0.60772500  1
  B  B0  1  0.89769100  0.29947000  0.88504800  1
  B  B1  1  0.42816000  0.81904100  0.14139000  1
  B  B2  1  0.43559200  0.19845900  0.14080900  1
  B  B3  1  0.40335200  0.32059700  0.62197400  1
  B  B4  1  0.06440800  0.19845900  0.64080900  1
  B  B5  1  0.90335200  0.67940300  0.87802600  1
  B  B6  1  0.57184000  0.18095900  0.85861000  1
  B  B7  1  0.60230900  0.29947000  0.38504800  1
  B  B8  1  0.07184000  0.81904100  0.64139000  1
  B  B9  1  0.39769100  0.70053000  0.61495200  1
  B  B10  1  0.59664800  0.67940300  0.37802600  1
  B  B11  1  0.56440800  0.80154100  0.85919100  1
  B  B12  1  0.93559200  0.80154100  0.35919100  1
  B  B13  1  0.92816000  0.18095900  0.35861000  1
  B  B14  1  0.09664800  0.32059700  0.12197400  1
  B  B15  1  0.10230900  0.70053000  0.11495200  1
  O  O0  1  0.44276700  0.23615800  0.47501500  1
  O  O1  1  0.44197600  0.68218800  0.27608000  1
  O  O2  1  0.51953700  0.99683700  0.80662600  1
  O  O3  1  0.25027700  0.83081100  0.07161300  1
  O  O4  1  0.16034700  0.51449200  0.07736900  1
  O  O5  1  0.94276700  0.76384200  0.02498500  1
  O  O6  1  0.98046300  0.99683700  0.30662600  1
  O  O7  1  0.24795100  0.23231300  0.70302500  1
  O  O8  1  0.05802400  0.68218800  0.77608000  1
  O  O9  1  0.75027700  0.16918900  0.42838700  1
  O  O10  1  0.25204900  0.23231300  0.20302500  1
  O  O11  1  0.56719200  0.76372300  0.02698400  1
  O  O12  1  0.56462000  0.31400600  0.21743200  1
  O  O13  1  0.06719200  0.23627700  0.47301600  1
  O  O14  1  0.74795100  0.76768700  0.79697500  1
  O  O15  1  0.05723300  0.23615800  0.97501500  1
  O  O16  1  0.74972300  0.16918900  0.92838700  1
  O  O17  1  0.01953700  0.00316300  0.69337400  1
  O  O18  1  0.06462000  0.68599400  0.28256800  1
  O  O19  1  0.93538000  0.31400600  0.71743200  1
  O  O20  1  0.55723300  0.76384200  0.52498500  1
  O  O21  1  0.83965300  0.48550800  0.92263100  1
  O  O22  1  0.55802400  0.31781200  0.72392000  1
  O  O23  1  0.24972300  0.83081100  0.57161300  1
  O  O24  1  0.93280800  0.76372300  0.52698400  1
  O  O25  1  0.66034700  0.48550800  0.42263100  1
  O  O26  1  0.43538000  0.68599400  0.78256800  1
  O  O27  1  0.43280800  0.23627700  0.97301600  1
  O  O28  1  0.94197600  0.31781200  0.22392000  1
  O  O29  1  0.75204900  0.76768700  0.29697500  1
  O  O30  1  0.33965300  0.51449200  0.57736900  1
  O  O31  1  0.48046300  0.00316300  0.19337400  1
loop_
_geom_bond_atom_site_label_1
_geom_bond_atom_site_label_2
_geom_bond_distance
_geom_bond_site_symmetry_2
Fe0 O19 2.055326 1_555
Fe0 O25 2.080721 1_555
Fe0 O22 2.241798 1_555
Fe0 O24 2.301221 1_555
Fe0 O14 2.337955 1_555
Fe0 O20 2.491765 1_555
Fe0 O21 2.532706 1_555
Fe1 O23 2.051577 1_545
Fe1 O10 2.114209 1_555
Fe1 O0 2.137877 1_555
Fe1 O13 2.284669 1_555
Fe1 O6 2.331707 1_445
Fe1 O31 2.367020 1_555
Fe2 O26 2.055326 1_555
Fe2 O4 2.080721 1_556
Fe2 O8 2.241798 1_555
Fe2 O27 2.301221 1_555
Fe2 O7 2.337955 1_555
Fe2 O15 2.491765 1_555
Fe2 O30 2.532706 1_555
Fe3 O12 2.055326 1_555
Fe3 O21 2.080721 1_554
Fe3 O28 2.241798 1_555
Fe3 O11 2.301221 1_555
Fe3 O29 2.337955 1_555
Fe3 O5 2.491765 1_555
Fe3 O25 2.532706 1_555
Fe4 O16 2.051577 1_564
Fe4 O29 2.114209 1_555
Fe4 O5 2.137877 1_555
Fe4 O11 2.284669 1_555
Fe4 O31 2.331707 1_565
Fe4 O6 2.367020 1_555
Fe5 O18 2.055326 1_555
Fe5 O30 2.080721 1_555
Fe5 O1 2.241798 1_555
Fe5 O13 2.301221 1_555
Fe5 O10 2.337955 1_555
Fe5 O0 2.491765 1_555
Fe5 O4 2.532706 1_555
Fe6 O3 2.051577 1_546
Fe6 O7 2.114209 1_555
Fe6 O15 2.137877 1_555
Fe6 O27 2.284669 1_555
Fe6 O2 2.331707 1_545
Fe6 O17 2.367020 1_555
Fe7 O9 2.051577 1_565
Fe7 O14 2.114209 1_555
Fe7 O20 2.137877 1_555
Fe7 O24 2.284669 1_555
Fe7 O17 2.331707 1_665
Fe7 O2 2.367020 1_555
B0 O21 1.477624 1_555
B0 O19 1.484381 1_555
B0 O15 1.487348 1_655
B0 O16 1.488992 1_555
B1 O3 1.471568 1_555
B1 O1 1.477382 1_555
B1 O31 1.494935 1_565
B1 O11 1.522490 1_555
B2 O27 1.466793 1_554
B2 O12 1.477092 1_555
B2 O31 1.489026 1_555
B2 O10 1.512792 1_555
B3 O22 1.464946 1_555
B3 O7 1.485110 1_555
B3 O0 1.493774 1_555
B3 O30 1.504140 1_555
B4 O13 1.466793 1_555
B4 O19 1.477092 1_455
B4 O17 1.489026 1_555
B4 O7 1.512792 1_555
B5 O8 1.464946 1_655
B5 O14 1.485110 1_555
B5 O5 1.493774 1_556
B5 O21 1.504140 1_555
B6 O16 1.471568 1_555
B6 O22 1.477382 1_555
B6 O2 1.494935 1_545
B6 O27 1.522490 1_555
B7 O25 1.477624 1_555
B7 O12 1.484381 1_555
B7 O0 1.487348 1_555
B7 O9 1.488992 1_555
B8 O23 1.471568 1_555
B8 O8 1.477382 1_555
B8 O17 1.494935 1_565
B8 O24 1.522490 1_455
B9 O30 1.477624 1_555
B9 O26 1.484381 1_555
B9 O20 1.487348 1_555
B9 O23 1.488992 1_555
B10 O1 1.464946 1_555
B10 O29 1.485110 1_555
B10 O20 1.493774 1_555
B10 O25 1.504140 1_555
B11 O11 1.466793 1_556
B11 O26 1.477092 1_555
B11 O2 1.489026 1_555
B11 O14 1.512792 1_555
B12 O24 1.466793 1_555
B12 O18 1.477092 1_655
B12 O6 1.489026 1_555
B12 O29 1.512792 1_555
B13 O9 1.471568 1_555
B13 O28 1.477382 1_555
B13 O6 1.494935 1_545
B13 O13 1.522490 1_655
B14 O28 1.464946 1_455
B14 O10 1.485110 1_555
B14 O15 1.493774 1_554
B14 O4 1.504140 1_555
B15 O4 1.477624 1_555
B15 O18 1.484381 1_555
B15 O5 1.487348 1_455
B15 O3 1.488992 1_555
