# generated using pymatgen
data_Ba2CaFe2CuF14
_symmetry_space_group_name_H-M   'P 1'
_cell_length_a   7.54447325
_cell_length_b   7.54447325
_cell_length_c   15.06441490
_cell_angle_alpha   88.54661848
_cell_angle_beta   88.54661848
_cell_angle_gamma   42.32883339
_symmetry_Int_Tables_number   1
_chemical_formula_structural   Ba2CaFe2CuF14
_chemical_formula_sum   'Ba4 Ca2 Fe4 Cu2 F28'
_cell_volume   577.18179890
_cell_formula_units_Z   2
loop_
 _symmetry_equiv_pos_site_id
 _symmetry_equiv_pos_as_xyz
  1  'x, y, z'
loop_
 _atom_site_type_symbol
 _atom_site_label
 _atom_site_symmetry_multiplicity
 _atom_site_fract_x
 _atom_site_fract_y
 _atom_site_fract_z
 _atom_site_occupancy
  Ba  Ba0  1  0.74317700  0.88083500  0.62255800  1
  Ba  Ba1  1  0.88083500  0.74317700  0.12255800  1
  Ba  Ba2  1  0.25682300  0.11916500  0.37744200  1
  Ba  Ba3  1  0.11916500  0.25682300  0.87744200  1
  Ca  Ca0  1  0.41989400  0.58010600  0.75000000  1
  Ca  Ca1  1  0.58010600  0.41989400  0.25000000  1
  Fe  Fe0  1  0.85240300  0.90500600  0.87516000  1
  Fe  Fe1  1  0.14759700  0.09499400  0.12484000  1
  Fe  Fe2  1  0.90500600  0.85240300  0.37516000  1
  Fe  Fe3  1  0.09499400  0.14759700  0.62484000  1
  Cu  Cu0  1  0.50000000  0.50000000  0.00000000  1
  Cu  Cu1  1  0.50000000  0.50000000  0.50000000  1
  F  F0  1  0.93133000  0.08457500  0.34385400  1
  F  F1  1  0.60070800  0.12091600  0.45456100  1
  F  F2  1  0.39929200  0.87908400  0.54543900  1
  F  F3  1  0.16049300  0.34523300  0.59680600  1
  F  F4  1  0.51055100  0.38544500  0.61551400  1
  F  F5  1  0.61455500  0.48944900  0.88448600  1
  F  F6  1  0.12091600  0.60070800  0.95456100  1
  F  F7  1  0.91542500  0.06867000  0.15614600  1
  F  F8  1  0.03806700  0.64076600  0.77769000  1
  F  F9  1  0.83950700  0.65476700  0.40319400  1
  F  F10  1  0.58447400  0.17635500  0.78984700  1
  F  F11  1  0.65476700  0.83950700  0.90319400  1
  F  F12  1  0.17635500  0.58447400  0.28984700  1
  F  F13  1  0.41552600  0.82364500  0.21015300  1
  F  F14  1  0.38544500  0.51055100  0.11551400  1
  F  F15  1  0.96193300  0.35923400  0.22231000  1
  F  F16  1  0.29769600  0.86968900  0.01942700  1
  F  F17  1  0.06867000  0.91542500  0.65614600  1
  F  F18  1  0.70230400  0.13031100  0.98057300  1
  F  F19  1  0.86968900  0.29769600  0.51942700  1
  F  F20  1  0.87908400  0.39929200  0.04543900  1
  F  F21  1  0.82364500  0.41552600  0.71015300  1
  F  F22  1  0.64076600  0.03806700  0.27769000  1
  F  F23  1  0.13031100  0.70230400  0.48057300  1
  F  F24  1  0.48944900  0.61455500  0.38448600  1
  F  F25  1  0.08457500  0.93133000  0.84385400  1
  F  F26  1  0.35923400  0.96193300  0.72231000  1
  F  F27  1  0.34523300  0.16049300  0.09680600  1
loop_
_geom_bond_atom_site_label_1
_geom_bond_atom_site_label_2
_geom_bond_distance
_geom_bond_site_symmetry_2
Ba0 F17 2.715091 1_655
Ba0 F3 2.756454 1_655
Ba0 F4 2.773922 1_565
Ba0 F8 2.789730 1_655
Ba0 F1 2.804950 1_565
Ba0 F26 2.868518 1_555
Ba0 F2 2.878414 1_555
Ba0 F23 2.988697 1_655
Ba0 F10 2.990033 1_565
Ba0 F3 2.999227 1_565
Ba1 F7 2.715091 1_565
Ba1 F27 2.756454 1_565
Ba1 F14 2.773922 1_655
Ba1 F22 2.789730 1_565
Ba1 F6 2.804950 1_654
Ba1 F15 2.868518 1_555
Ba1 F20 2.878414 1_555
Ba1 F18 2.988697 1_564
Ba1 F12 2.990033 1_655
Ba1 F27 2.999227 1_655
Ba2 F0 2.715091 1_455
Ba2 F9 2.756454 1_455
Ba2 F24 2.773922 1_545
Ba2 F15 2.789730 1_455
Ba2 F2 2.804950 1_545
Ba2 F22 2.868518 1_555
Ba2 F1 2.878414 1_555
Ba2 F19 2.988697 1_455
Ba2 F13 2.990033 1_545
Ba2 F9 2.999227 1_545
Ba3 F25 2.715091 1_545
Ba3 F11 2.756454 1_545
Ba3 F5 2.773922 1_455
Ba3 F26 2.789730 1_545
Ba3 F20 2.804950 1_456
Ba3 F8 2.868518 1_555
Ba3 F6 2.878414 1_555
Ba3 F16 2.988697 1_546
Ba3 F21 2.990033 1_455
Ba3 F11 2.999227 1_455
Ca0 F5 2.307500 1_555
Ca0 F4 2.307500 1_555
Ca0 F17 2.348891 1_555
Ca0 F25 2.348891 1_555
Ca0 F21 2.352323 1_555
Ca0 F10 2.352323 1_555
Ca0 F26 2.584808 1_555
Ca0 F8 2.584808 1_555
Ca1 F24 2.307500 1_555
Ca1 F14 2.307500 1_555
Ca1 F0 2.348891 1_555
Ca1 F7 2.348891 1_555
Ca1 F13 2.352323 1_555
Ca1 F12 2.352323 1_555
Ca1 F15 2.584808 1_555
Ca1 F22 2.584808 1_555
Cu0 F14 1.900110 1_555
Cu0 F5 1.900110 1_554
Cu0 F16 1.979591 1_555
Cu0 F18 1.979591 1_554
Cu0 F20 2.466851 1_555
Cu0 F6 2.466851 1_554
Cu1 F24 1.900110 1_555
Cu1 F4 1.900110 1_555
Cu1 F19 1.979591 1_555
Cu1 F23 1.979591 1_555
Cu1 F1 2.466851 1_555
Cu1 F2 2.466851 1_555
F0 Fe2 1.948773 1_545
F1 Fe2 1.977929 1_545
F2 Fe3 1.977929 1_565
F3 Fe3 1.921643 1_555
F6 Fe0 1.977929 1_455
F7 Fe1 1.948773 1_655
F8 Fe0 2.001898 1_455
F9 Fe2 1.921643 1_555
F10 Fe0 1.951510 1_545
F11 Fe0 1.921643 1_555
F12 Fe2 1.951510 1_455
F13 Fe1 1.951510 1_565
F15 Fe1 2.001898 1_655
F16 Fe1 1.973069 1_565
F17 Fe3 1.948773 1_565
F18 Fe0 1.973069 1_545
F19 Fe3 1.973069 1_655
F20 Fe1 1.977929 1_655
F21 Fe3 1.951510 1_655
F22 Fe2 2.001898 1_545
F23 Fe2 1.973069 1_455
F25 Fe0 1.948773 1_455
F26 Fe3 2.001898 1_565
F27 Fe1 1.921643 1_555
