# generated using pymatgen
data_CaSO4
_symmetry_space_group_name_H-M   'P 1'
_cell_length_a   5.39580200
_cell_length_b   6.88519000
_cell_length_c   7.90395800
_cell_angle_alpha   90.00000000
_cell_angle_beta   90.00000000
_cell_angle_gamma   90.00000000
_symmetry_Int_Tables_number   1
_chemical_formula_structural   CaSO4
_chemical_formula_sum   'Ca4 S4 O16'
_cell_volume   293.64090772
_cell_formula_units_Z   4
loop_
 _symmetry_equiv_pos_site_id
 _symmetry_equiv_pos_as_xyz
  1  'x, y, z'
loop_
 _atom_site_type_symbol
 _atom_site_label
 _atom_site_symmetry_multiplicity
 _atom_site_fract_x
 _atom_site_fract_y
 _atom_site_fract_z
 _atom_site_occupancy
  Ca  Ca0  1  0.25000000  0.17576200  0.19056600  1
  Ca  Ca1  1  0.75000000  0.82423800  0.80943400  1
  Ca  Ca2  1  0.25000000  0.32423800  0.69056600  1
  Ca  Ca3  1  0.75000000  0.67576200  0.30943400  1
  S  S0  1  0.75000000  0.32454000  0.94687000  1
  S  S1  1  0.25000000  0.82454000  0.55313000  1
  S  S2  1  0.75000000  0.17546000  0.44687000  1
  S  S3  1  0.25000000  0.67546000  0.05313000  1
  O  O0  1  0.25000000  0.92479300  0.38882100  1
  O  O1  1  0.75000000  0.07520700  0.61117900  1
  O  O2  1  0.47683000  0.80146700  0.06487600  1
  O  O3  1  0.25000000  0.53711100  0.19752300  1
  O  O4  1  0.75000000  0.42479300  0.11117900  1
  O  O5  1  0.02317000  0.80146700  0.06487600  1
  O  O6  1  0.25000000  0.57520700  0.88882100  1
  O  O7  1  0.97683000  0.30146700  0.43512400  1
  O  O8  1  0.97683000  0.19853300  0.93512400  1
  O  O9  1  0.75000000  0.03711100  0.30247700  1
  O  O10  1  0.02317000  0.69853300  0.56487600  1
  O  O11  1  0.75000000  0.46288900  0.80247700  1
  O  O12  1  0.52317000  0.19853300  0.93512400  1
  O  O13  1  0.25000000  0.96288900  0.69752300  1
  O  O14  1  0.47683000  0.69853300  0.56487600  1
  O  O15  1  0.52317000  0.30146700  0.43512400  1
loop_
_geom_bond_atom_site_label_1
_geom_bond_atom_site_label_2
_geom_bond_distance
_geom_bond_site_symmetry_2
Ca0 O0 2.332673 1_545
Ca0 O3 2.488564 1_555
Ca0 O12 2.504704 1_554
Ca0 O8 2.504704 1_454
Ca0 O7 2.580326 1_455
Ca0 O15 2.580326 1_555
Ca1 O1 2.332673 1_565
Ca1 O11 2.488564 1_555
Ca1 O2 2.504704 1_556
Ca1 O5 2.504704 1_656
Ca1 O10 2.580326 1_655
Ca1 O14 2.580326 1_555
Ca2 O6 2.332673 1_555
Ca2 O13 2.488564 1_545
Ca2 O7 2.504704 1_455
Ca2 O15 2.504704 1_555
Ca2 O12 2.580326 1_555
Ca2 O8 2.580326 1_455
Ca3 O4 2.332673 1_555
Ca3 O9 2.488564 1_565
Ca3 O10 2.504704 1_655
Ca3 O14 2.504704 1_555
Ca3 O5 2.580326 1_655
Ca3 O2 2.580326 1_555
O0 S1 1.470734 1_555
O1 S2 1.470734 1_555
O2 S3 1.503104 1_555
O3 S3 1.486567 1_555
O4 S0 1.470734 1_554
O5 S3 1.503104 1_555
O6 S3 1.470734 1_556
O7 S2 1.503104 1_555
O8 S0 1.503104 1_555
O9 S2 1.486567 1_555
O10 S1 1.503104 1_555
O11 S0 1.486567 1_555
O12 S0 1.503104 1_555
O13 S1 1.486567 1_555
O14 S1 1.503104 1_555
O15 S2 1.503104 1_555
