# generated using pymatgen
data_NbTeI3
_symmetry_space_group_name_H-M   'P 1'
_cell_length_a   7.68762163
_cell_length_b   7.36842146
_cell_length_c   13.67789704
_cell_angle_alpha   81.66890642
_cell_angle_beta   90.00000000
_cell_angle_gamma   90.00000000
_symmetry_Int_Tables_number   1
_chemical_formula_structural   NbTeI3
_chemical_formula_sum   'Nb4 Te4 I12'
_cell_volume   766.61702223
_cell_formula_units_Z   4
loop_
 _symmetry_equiv_pos_site_id
 _symmetry_equiv_pos_as_xyz
  1  'x, y, z'
loop_
 _atom_site_type_symbol
 _atom_site_label
 _atom_site_symmetry_multiplicity
 _atom_site_fract_x
 _atom_site_fract_y
 _atom_site_fract_z
 _atom_site_occupancy
  Nb  Nb0  1  0.63884227  0.06571136  0.84650448  1
  Nb  Nb1  1  0.63884227  0.93428864  0.65349552  1
  Nb  Nb2  1  0.36115773  0.93428864  0.15349552  1
  Nb  Nb3  1  0.36115773  0.06571136  0.34650448  1
  Te  Te0  1  0.90230576  0.82951564  0.80157483  1
  Te  Te1  1  0.90230576  0.17048436  0.69842517  1
  Te  Te2  1  0.09769424  0.17048436  0.19842517  1
  Te  Te3  1  0.09769424  0.82951564  0.30157483  1
  I  I0  1  0.68429478  0.85367126  0.04190328  1
  I  I1  1  0.68429478  0.14632874  0.45809672  1
  I  I2  1  0.31570522  0.14632874  0.95809672  1
  I  I3  1  0.31570522  0.85367126  0.54190328  1
  I  I4  1  0.78494831  0.36142200  0.92527648  1
  I  I5  1  0.78494831  0.63857800  0.57472352  1
  I  I6  1  0.21505169  0.63857800  0.07472352  1
  I  I7  1  0.21505169  0.36142200  0.42527648  1
  I  I8  1  0.43480118  0.25154803  0.69403737  1
  I  I9  1  0.43480118  0.74845197  0.80596263  1
  I  I10  1  0.56519882  0.74845197  0.30596263  1
  I  I11  1  0.56519882  0.25154803  0.19403737  1
loop_
_geom_bond_atom_site_label_1
_geom_bond_atom_site_label_2
_geom_bond_distance
_geom_bond_site_symmetry_2
Nb0 Te0 2.796218 1_545
Nb0 Te1 2.889196 1_555
Nb1 Te1 2.796218 1_565
Nb1 Te0 2.889196 1_555
Nb2 Te2 2.796218 1_565
Nb2 Te3 2.889196 1_555
Nb3 Te3 2.796218 1_545
Nb3 Te2 2.889196 1_555
Te0 Te1 2.697317 1_565
Te2 Te3 2.697317 1_545
I0 Nb0 2.914815 1_564
I0 Nb2 3.019333 1_555
I1 Nb1 2.914815 1_545
I1 Nb3 3.019333 1_555
I2 Nb2 2.914815 1_546
I2 Nb0 3.019333 1_555
I3 Nb3 2.914815 1_565
I3 Nb1 3.019333 1_555
I4 Nb0 2.801870 1_555
I5 Nb1 2.801870 1_555
I6 Nb2 2.801870 1_555
I7 Nb3 2.801870 1_555
I8 Nb0 2.803037 1_555
I8 Nb1 2.934021 1_545
I9 Nb1 2.803037 1_555
I9 Nb0 2.934021 1_565
I10 Nb2 2.803037 1_555
I10 Nb3 2.934021 1_565
I11 Nb3 2.803037 1_555
I11 Nb2 2.934021 1_545
