# generated using pymatgen
data_Rb2Cr2O7
_symmetry_space_group_name_H-M   'P 1'
_cell_length_a   7.87839100
_cell_length_b   7.91480798
_cell_length_c   13.84631734
_cell_angle_alpha   82.61342105
_cell_angle_beta   89.08427163
_cell_angle_gamma   86.59103350
_symmetry_Int_Tables_number   1
_chemical_formula_structural   Rb2Cr2O7
_chemical_formula_sum   'Rb8 Cr8 O28'
_cell_volume   854.68981230
_cell_formula_units_Z   4
loop_
 _symmetry_equiv_pos_site_id
 _symmetry_equiv_pos_as_xyz
  1  'x, y, z'
loop_
 _atom_site_type_symbol
 _atom_site_label
 _atom_site_symmetry_multiplicity
 _atom_site_fract_x
 _atom_site_fract_y
 _atom_site_fract_z
 _atom_site_occupancy
  Rb  Rb0  1  0.88865600  0.87864000  0.86492800  1
  Rb  Rb1  1  0.11134400  0.12136000  0.13507200  1
  Rb  Rb2  1  0.78091800  0.62108100  0.15685400  1
  Rb  Rb3  1  0.21908200  0.37891900  0.84314600  1
  Rb  Rb4  1  0.44098400  0.80641100  0.65813800  1
  Rb  Rb5  1  0.55901600  0.19358900  0.34186200  1
  Rb  Rb6  1  0.21635000  0.70841300  0.36877000  1
  Rb  Rb7  1  0.78365000  0.29158700  0.63123000  1
  Cr  Cr0  1  0.71505700  0.39061300  0.89021100  1
  Cr  Cr1  1  0.28494300  0.60938700  0.10978900  1
  Cr  Cr2  1  0.64980900  0.13721600  0.08522800  1
  Cr  Cr3  1  0.35019100  0.86278400  0.91477200  1
  Cr  Cr4  1  0.93604200  0.75248500  0.61142700  1
  Cr  Cr5  1  0.06395800  0.24751500  0.38857300  1
  Cr  Cr6  1  0.69784100  0.71416300  0.41746000  1
  Cr  Cr7  1  0.30215900  0.28583700  0.58254000  1
  O  O0  1  0.58114300  0.27219800  0.97728700  1
  O  O1  1  0.41885700  0.72780200  0.02271300  1
  O  O2  1  0.59379700  0.48651300  0.80285900  1
  O  O3  1  0.40620300  0.51348700  0.19714100  1
  O  O4  1  0.85498400  0.25850600  0.84557000  1
  O  O5  1  0.14501600  0.74149400  0.15443000  1
  O  O6  1  0.81354700  0.52834000  0.94381800  1
  O  O7  1  0.18645300  0.47166000  0.05618200  1
  O  O8  1  0.48571600  0.06127800  0.14552400  1
  O  O9  1  0.51428400  0.93872200  0.85447600  1
  O  O10  1  0.75270200  0.25029800  0.15370900  1
  O  O11  1  0.24729800  0.74970200  0.84629100  1
  O  O12  1  0.78047500  0.98232900  0.05616600  1
  O  O13  1  0.21952500  0.01767100  0.94383400  1
  O  O14  1  0.81271200  0.65212400  0.52875100  1
  O  O15  1  0.18728800  0.34787600  0.47124900  1
  O  O16  1  0.98515400  0.60544700  0.70199800  1
  O  O17  1  0.01484600  0.39455300  0.29800200  1
  O  O18  1  0.82210800  0.90845800  0.65296100  1
  O  O19  1  0.17789200  0.09154200  0.34703900  1
  O  O20  1  0.10827100  0.82202500  0.55748100  1
  O  O21  1  0.89172900  0.17797500  0.44251900  1
  O  O22  1  0.62917800  0.54242100  0.38125000  1
  O  O23  1  0.37082200  0.45757900  0.61875000  1
  O  O24  1  0.81987400  0.80922400  0.33349700  1
  O  O25  1  0.18012600  0.19077600  0.66650300  1
  O  O26  1  0.53409100  0.84241800  0.43819800  1
  O  O27  1  0.46590900  0.15758200  0.56180200  1
loop_
_geom_bond_atom_site_label_1
_geom_bond_atom_site_label_2
_geom_bond_distance
_geom_bond_site_symmetry_2
Cr0 O2 1.632890 1_555
Cr0 O6 1.633513 1_555
Cr0 O4 1.642544 1_555
Cr0 O0 1.797647 1_555
Cr1 O3 1.632890 1_555
Cr1 O7 1.633513 1_555
Cr1 O5 1.642544 1_555
Cr1 O1 1.797647 1_555
Cr2 O8 1.630475 1_555
Cr2 O10 1.639011 1_555
Cr2 O12 1.639519 1_545
Cr2 O0 1.792867 1_554
Cr3 O9 1.630475 1_555
Cr3 O11 1.639011 1_555
Cr3 O13 1.639519 1_565
Cr3 O1 1.792867 1_556
Cr4 O20 1.628720 1_655
Cr4 O16 1.632018 1_555
Cr4 O18 1.641552 1_555
Cr4 O14 1.801856 1_555
Cr5 O21 1.628720 1_455
Cr5 O17 1.632018 1_555
Cr5 O19 1.641552 1_555
Cr5 O15 1.801856 1_555
Cr6 O22 1.631892 1_555
Cr6 O24 1.633218 1_555
Cr6 O26 1.638474 1_555
Cr6 O14 1.797746 1_555
Cr7 O23 1.631892 1_555
Cr7 O25 1.633218 1_555
Cr7 O27 1.638474 1_555
Cr7 O15 1.797746 1_555
O0 Rb3 3.432082 1_555
O1 Rb2 3.432082 1_555
O2 Rb3 3.142573 1_555
O2 Rb4 3.207111 1_555
O2 Rb7 3.289309 1_555
O3 Rb2 3.142573 1_555
O3 Rb5 3.207111 1_555
O3 Rb6 3.289309 1_555
O4 Rb0 2.980246 1_545
O4 Rb7 3.004723 1_555
O4 Rb3 3.074340 1_655
O5 Rb1 2.980246 1_565
O5 Rb6 3.004723 1_555
O5 Rb2 3.074340 1_455
O6 Rb0 2.937031 1_555
O6 Rb2 3.133056 1_556
O7 Rb1 2.937031 1_555
O7 Rb3 3.133056 1_554
O8 Rb1 2.962343 1_555
O8 Rb5 3.110439 1_555
O9 Rb0 2.962343 1_555
O9 Rb4 3.110439 1_555
O10 Rb2 2.962159 1_555
O10 Rb1 2.965318 1_655
O10 Rb5 2.995138 1_555
O11 Rb3 2.962159 1_555
O11 Rb0 2.965318 1_455
O11 Rb4 2.995138 1_555
O12 Rb0 2.968999 1_554
O12 Rb2 3.015423 1_555
O12 Rb1 3.152908 1_665
O13 Rb1 2.968999 1_556
O13 Rb3 3.015423 1_555
O13 Rb0 3.152908 1_445
O14 Rb7 3.038909 1_555
O15 Rb6 3.038909 1_555
O16 Rb3 3.041697 1_655
O16 Rb7 3.285721 1_555
O16 Rb0 3.368500 1_555
O17 Rb2 3.041697 1_455
O17 Rb6 3.285721 1_555
O17 Rb1 3.368500 1_555
O18 Rb0 2.966640 1_555
O18 Rb7 3.006124 1_565
O18 Rb4 3.152778 1_555
O19 Rb1 2.966640 1_555
O19 Rb6 3.006124 1_545
O19 Rb5 3.152778 1_555
O20 Rb6 2.967005 1_555
O20 Rb4 2.977017 1_555
O21 Rb7 2.967005 1_555
O21 Rb5 2.977017 1_555
O22 Rb5 2.967165 1_555
O22 Rb2 3.308015 1_555
O22 Rb6 3.433013 1_555
O23 Rb4 2.967165 1_555
O23 Rb3 3.308015 1_555
O23 Rb7 3.433013 1_555
O24 Rb2 3.051018 1_555
O24 Rb6 3.206895 1_655
O25 Rb3 3.051018 1_555
O25 Rb7 3.206895 1_455
O26 Rb5 2.940482 1_565
O26 Rb6 2.995054 1_555
O26 Rb4 3.102225 1_555
O27 Rb4 2.940482 1_545
O27 Rb7 2.995054 1_555
O27 Rb5 3.102225 1_555
