# generated using pymatgen
data_LaMg2Cu9
_symmetry_space_group_name_H-M   'P 1'
_cell_length_a   5.03795234
_cell_length_b   5.03795309
_cell_length_c   16.04067564
_cell_angle_alpha   89.99999234
_cell_angle_beta   90.00000518
_cell_angle_gamma   119.99203465
_symmetry_Int_Tables_number   1
_chemical_formula_structural   LaMg2Cu9
_chemical_formula_sum   'La2 Mg4 Cu18'
_cell_volume   352.61137223
_cell_formula_units_Z   2
loop_
 _symmetry_equiv_pos_site_id
 _symmetry_equiv_pos_as_xyz
  1  'x, y, z'
loop_
 _atom_site_type_symbol
 _atom_site_label
 _atom_site_symmetry_multiplicity
 _atom_site_fract_x
 _atom_site_fract_y
 _atom_site_fract_z
 _atom_site_occupancy
  La  La0  1  0.33333363  0.66666713  0.74999714  1
  La  La1  1  0.66666680  0.33333288  0.25000147  1
  Mg  Mg0  1  0.33332703  0.66667339  0.52983753  1
  Mg  Mg1  1  0.66667291  0.33332665  0.02998891  1
  Mg  Mg2  1  0.66667311  0.33332708  0.46999865  1
  Mg  Mg3  1  0.33332749  0.66667307  0.97017099  1
  Cu  Cu0  1  -0.00000009  1.00000021  -0.00003755  1
  Cu  Cu1  1  -0.00000031  -0.00000081  0.50003799  1
  Cu  Cu2  1  0.00000842  -0.00000800  0.25010457  1
  Cu  Cu3  1  -0.00000785  0.00000982  0.74989660  1
  Cu  Cu4  1  0.33332642  0.66667323  0.25010519  1
  Cu  Cu5  1  0.66667396  0.33332592  0.74989604  1
  Cu  Cu6  1  0.16769866  0.33540083  0.12202551  1
  Cu  Cu7  1  0.83228020  0.16771987  0.62194457  1
  Cu  Cu8  1  0.33542670  0.16771165  0.62194419  1
  Cu  Cu9  1  0.66459923  0.83230136  0.12202554  1
  Cu  Cu10  1  0.16770667  0.83229339  0.12202586  1
  Cu  Cu11  1  0.83228935  0.66457351  0.87791454  1
  Cu  Cu12  1  0.83228057  0.16771912  0.87791422  1
  Cu  Cu13  1  0.83228859  0.66457312  0.62194426  1
  Cu  Cu14  1  0.33542631  0.16771046  0.87791480  1
  Cu  Cu15  1  0.66459996  0.83230197  0.37811667  1
  Cu  Cu16  1  0.16769834  0.33539991  0.37811683  1
  Cu  Cu17  1  0.16770592  0.83229424  0.37811649  1
loop_
_geom_bond_atom_site_label_1
_geom_bond_atom_site_label_2
_geom_bond_distance
_geom_bond_site_symmetry_2
La0 Mg0 3.531509 1_555
La0 Mg3 3.531737 1_555
La1 Mg2 3.528903 1_555
La1 Mg1 3.529150 1_555
Mg0 Mg2 3.062943 1_555
Mg0 Mg2 3.063115 1_565
Mg0 Mg2 3.063116 1_455
Mg1 Mg3 3.062835 1_554
Mg1 Mg3 3.063010 1_544
Mg1 Mg3 3.063013 1_654
Cu0 Cu12 2.444266 1_464
Cu0 Cu14 2.444333 1_564
Cu0 Cu11 2.444337 1_454
Cu0 Cu10 2.444396 1_555
Cu0 Cu6 2.444464 1_565
Cu0 Cu9 2.444464 1_455
Cu0 Mg3 2.947491 1_554
Cu0 Mg3 2.947913 1_454
Cu0 Mg3 2.947915 1_564
Cu0 Mg1 2.948099 1_465
Cu0 Mg1 2.948529 1_565
Cu0 Mg1 2.948532 1_455
Cu1 Cu7 2.442452 1_455
Cu1 Cu13 2.442516 1_445
Cu1 Cu8 2.442518 1_555
Cu1 Cu17 2.442567 1_545
Cu1 Cu15 2.442641 1_445
Cu1 Cu16 2.442641 1_555
Cu1 Mg0 2.947505 1_545
Cu1 Mg0 2.947935 1_445
Cu1 Mg0 2.947942 1_555
Cu1 Mg2 2.948137 1_455
Cu1 Mg2 2.948559 1_445
Cu1 Mg2 2.948564 1_555
Cu2 Cu6 2.522442 1_555
Cu2 Cu9 2.522442 1_445
Cu2 Cu4 2.908416 1_545
Cu2 La1 2.908616 1_455
Cu2 La1 2.908861 1_555
Cu2 La1 2.908865 1_445
Cu2 Cu4 2.908961 1_555
Cu2 Cu4 2.908963 1_445
Cu3 Cu7 2.520713 1_455
Cu3 Cu8 2.520852 1_555
Cu3 Cu5 2.908405 1_455
Cu3 La0 2.908623 1_545
Cu3 La0 2.908857 1_555
Cu3 La0 2.908862 1_445
Cu3 Cu5 2.908963 1_555
Cu3 Cu5 2.908972 1_445
Cu4 Cu6 2.512021 1_555
Cu4 Cu9 2.512022 1_555
Cu4 La1 2.908608 1_555
Cu4 La1 2.908866 1_455
Cu4 La1 2.908867 1_565
Cu5 Cu7 2.510088 1_555
Cu5 Cu8 2.510281 1_555
Cu5 La0 2.908612 1_555
Cu5 La0 2.908863 1_545
Cu5 La0 2.908867 1_655
Cu6 Cu9 2.503663 1_555
Cu6 Cu9 2.534896 1_445
Cu6 Mg3 2.832437 1_554
Cu6 Mg1 2.919690 1_455
Cu6 Mg1 2.919786 1_555
Cu6 La1 3.249515 1_455
Cu6 La1 3.249530 1_555
Cu7 Cu8 2.503104 1_555
Cu7 Cu8 2.534849 1_655
Cu7 Mg2 2.833480 1_555
Cu7 Mg0 2.920571 1_545
Cu7 Mg0 2.920572 1_655
Cu7 La0 3.250533 1_545
Cu7 La0 3.250536 1_655
Cu8 Mg2 2.833636 1_555
Cu8 Mg0 2.920258 1_545
Cu8 Mg0 2.920356 1_555
Cu8 La0 3.250296 1_545
Cu8 La0 3.250310 1_555
Cu9 Mg3 2.832437 1_554
Cu9 Mg1 2.919689 1_565
Cu9 Mg1 2.919788 1_555
Cu9 La1 3.249515 1_565
Cu9 La1 3.249530 1_555
Cu10 Cu9 2.503301 1_555
Cu10 Cu6 2.503301 1_555
Cu10 Cu4 2.511835 1_555
Cu10 Cu2 2.522305 1_565
Cu10 Cu9 2.534651 1_455
Cu10 Cu6 2.534652 1_565
Cu10 Mg3 2.832284 1_554
Cu10 Mg1 2.920002 1_565
Cu10 Mg1 2.920004 1_455
Cu10 La1 3.249754 1_565
Cu10 La1 3.249755 1_455
Cu11 Cu12 2.503107 1_555
Cu11 Cu14 2.503474 1_555
Cu11 Cu5 2.511156 1_555
Cu11 Cu3 2.521713 1_665
Cu11 Cu12 2.534846 1_565
Cu11 Cu14 2.535085 1_665
Cu11 Mg1 2.835414 1_556
Cu11 Mg3 2.921474 1_655
Cu11 Mg3 2.921573 1_555
Cu11 La0 3.248921 1_655
Cu11 La0 3.248938 1_555
Cu12 Cu14 2.503106 1_555
Cu12 Cu5 2.510966 1_555
Cu12 Cu3 2.521567 1_655
Cu12 Cu14 2.534846 1_655
Cu12 Mg1 2.835260 1_556
Cu12 Mg3 2.921785 1_545
Cu12 Mg3 2.921789 1_655
Cu12 La0 3.249160 1_545
Cu12 La0 3.249164 1_655
Cu13 Cu7 2.503102 1_555
Cu13 Cu8 2.503467 1_555
Cu13 Cu5 2.510280 1_555
Cu13 Cu3 2.520857 1_665
Cu13 Cu7 2.534851 1_565
Cu13 Cu8 2.535092 1_665
Cu13 Mg2 2.833636 1_555
Cu13 Mg0 2.920258 1_655
Cu13 Mg0 2.920357 1_555
Cu13 La0 3.250295 1_655
Cu13 La0 3.250309 1_555
Cu14 Cu5 2.511160 1_555
Cu14 Cu3 2.521711 1_555
Cu14 Mg1 2.835410 1_556
Cu14 Mg3 2.921470 1_545
Cu14 Mg3 2.921573 1_555
Cu14 La0 3.248922 1_545
Cu14 La0 3.248943 1_555
Cu15 Cu17 2.503309 1_555
Cu15 Cu16 2.503669 1_555
Cu15 Cu4 2.511129 1_555
Cu15 Cu2 2.521566 1_665
Cu15 Cu17 2.534643 1_655
Cu15 Cu16 2.534890 1_665
Cu15 Mg0 2.830595 1_555
Cu15 Mg2 2.918437 1_565
Cu15 Mg2 2.918534 1_555
Cu15 La1 3.250925 1_565
Cu15 La1 3.250943 1_555
Cu16 Cu17 2.503311 1_555
Cu16 Cu4 2.511131 1_555
Cu16 Cu2 2.521567 1_555
Cu16 Cu17 2.534642 1_545
Cu16 Mg0 2.830595 1_555
Cu16 Mg2 2.918436 1_455
Cu16 Mg2 2.918531 1_555
Cu16 La1 3.250929 1_455
Cu16 La1 3.250942 1_555
Cu17 Cu4 2.510946 1_555
Cu17 Cu2 2.521428 1_565
Cu17 Mg0 2.830440 1_555
Cu17 Mg2 2.918748 1_455
Cu17 Mg2 2.918748 1_565
Cu17 La1 3.251166 1_565
Cu17 La1 3.251168 1_455
