# generated using pymatgen
data_Sr2CuOsO6
_symmetry_space_group_name_H-M   'P 1'
_cell_length_a   5.43651758
_cell_length_b   5.43536406
_cell_length_c   5.78635421
_cell_angle_alpha   117.99105093
_cell_angle_beta   117.99432626
_cell_angle_gamma   90.04692868
_symmetry_Int_Tables_number   1
_chemical_formula_structural   Sr2CuOsO6
_chemical_formula_sum   'Sr2 Cu1 Os1 O6'
_cell_volume   127.84302175
_cell_formula_units_Z   1
loop_
 _symmetry_equiv_pos_site_id
 _symmetry_equiv_pos_as_xyz
  1  'x, y, z'
loop_
 _atom_site_type_symbol
 _atom_site_label
 _atom_site_symmetry_multiplicity
 _atom_site_fract_x
 _atom_site_fract_y
 _atom_site_fract_z
 _atom_site_occupancy
  Sr  Sr0  1  0.75007500  0.25005700  0.50013800  1
  Sr  Sr1  1  0.24992400  0.74994100  0.49986100  1
  Cu  Cu0  1  0.00000800  0.00000500  0.00000500  1
  Os  Os0  1  0.49999900  0.49999900  0.99999900  1
  O  O0  1  0.72638100  0.72639500  0.45265400  1
  O  O1  1  0.19991700  0.68777900  0.00003700  1
  O  O2  1  0.27361800  0.27360400  0.54734500  1
  O  O3  1  0.80008200  0.31222000  0.99996200  1
  O  O4  1  0.31226400  0.19999200  0.00008000  1
  O  O5  1  0.68773400  0.80000600  0.99991900  1
loop_
_geom_bond_atom_site_label_1
_geom_bond_atom_site_label_2
_geom_bond_distance
_geom_bond_site_symmetry_2
Cu0 O4 2.014749 1_555
Cu0 O5 2.014825 1_444
Cu0 O1 2.016011 1_545
Cu0 O3 2.016020 1_454
Cu0 O2 2.368018 1_555
Cu0 O0 2.368065 1_444
O0 Os0 1.958371 1_554
O0 Sr0 2.724989 1_565
O0 Sr1 2.725593 1_655
O0 Sr0 2.725882 1_555
O0 Sr1 2.726248 1_555
O1 Os0 1.925112 1_554
O1 Sr1 2.626237 1_555
O1 Sr0 2.626421 1_454
O2 Os0 1.958367 1_555
O2 Sr1 2.724995 1_545
O2 Sr0 2.725593 1_455
O2 Sr1 2.725877 1_555
O2 Sr0 2.726248 1_555
O3 Os0 1.925113 1_555
O3 Sr0 2.626235 1_555
O3 Sr1 2.626419 1_656
O4 Os0 1.923311 1_554
O4 Sr0 2.627959 1_555
O4 Sr1 2.628338 1_544
O5 Os0 1.923307 1_555
O5 Sr1 2.627957 1_555
O5 Sr0 2.628336 1_566
