# generated using pymatgen
data_Y6Fe16O
_symmetry_space_group_name_H-M   'P 1'
_cell_length_a   8.19360318
_cell_length_b   8.19360318
_cell_length_c   8.19360318
_cell_angle_alpha   109.47122063
_cell_angle_beta   109.47122063
_cell_angle_gamma   109.47122063
_symmetry_Int_Tables_number   1
_chemical_formula_structural   Y6Fe16O
_chemical_formula_sum   'Y6 Fe16 O1'
_cell_volume   423.45073394
_cell_formula_units_Z   1
loop_
 _symmetry_equiv_pos_site_id
 _symmetry_equiv_pos_as_xyz
  1  'x, y, z'
loop_
 _atom_site_type_symbol
 _atom_site_label
 _atom_site_symmetry_multiplicity
 _atom_site_fract_x
 _atom_site_fract_y
 _atom_site_fract_z
 _atom_site_occupancy
  Y  Y0  1  0.26255800  0.26255800  0.00000000  1
  Y  Y1  1  0.00000000  0.26255800  0.26255800  1
  Y  Y2  1  0.00000000  0.73744200  0.73744200  1
  Y  Y3  1  0.73744200  0.00000000  0.73744200  1
  Y  Y4  1  0.26255800  0.00000000  0.26255800  1
  Y  Y5  1  0.73744200  0.73744200  0.00000000  1
  Fe  Fe0  1  0.50000000  0.50000000  0.50000000  1
  Fe  Fe1  1  0.00000000  0.00000000  0.50000000  1
  Fe  Fe2  1  0.50000000  0.00000000  0.00000000  1
  Fe  Fe3  1  0.00000000  0.50000000  0.00000000  1
  Fe  Fe4  1  0.66233500  0.66233500  0.32467000  1
  Fe  Fe5  1  0.00000000  0.33766500  0.66233500  1
  Fe  Fe6  1  0.32467000  0.66233500  0.66233500  1
  Fe  Fe7  1  0.66233500  0.32467000  0.66233500  1
  Fe  Fe8  1  0.33766500  0.00000000  0.66233500  1
  Fe  Fe9  1  0.66233500  0.33766500  0.00000000  1
  Fe  Fe10  1  0.33766500  0.66233500  0.00000000  1
  Fe  Fe11  1  0.33766500  0.67533000  0.33766500  1
  Fe  Fe12  1  0.00000000  0.66233500  0.33766500  1
  Fe  Fe13  1  0.66233500  0.00000000  0.33766500  1
  Fe  Fe14  1  0.67533000  0.33766500  0.33766500  1
  Fe  Fe15  1  0.33766500  0.33766500  0.67533000  1
  O  O0  1  0.00000000  0.00000000  0.00000000  1
loop_
_geom_bond_atom_site_label_1
_geom_bond_atom_site_label_2
_geom_bond_distance
_geom_bond_site_symmetry_2
Fe0 Fe6 2.640160 1_555
Fe0 Fe4 2.640160 1_555
Fe0 Fe7 2.640160 1_555
Fe0 Fe14 2.640160 1_555
Fe0 Fe11 2.640160 1_555
Fe0 Fe15 2.640160 1_555
Fe0 Y4 3.347134 1_555
Fe0 Y1 3.347134 1_555
Fe0 Y0 3.347134 1_555
Fe0 Y3 3.347134 1_565
Fe0 Y2 3.347134 1_655
Fe0 Y5 3.347134 1_556
Fe1 Fe8 2.640160 1_555
Fe1 Fe15 2.640160 1_555
Fe1 Fe13 2.640160 1_455
Fe1 Fe5 2.640160 1_555
Fe1 Fe12 2.640160 1_545
Fe1 Fe4 2.640160 1_445
Fe1 Y4 3.347134 1_555
Fe1 Y1 3.347134 1_555
Fe1 Y2 3.347134 1_545
Fe1 Y5 3.347134 1_445
Fe1 Y0 3.347134 1_556
Fe1 Y3 3.347134 1_455
Fe2 Fe9 2.640160 1_555
Fe2 Fe6 2.640160 1_544
Fe2 Fe8 2.640160 1_554
Fe2 Y4 3.347134 1_555
Fe2 Y1 3.347134 1_655
Fe2 Y0 3.347134 1_555
Fe2 Y3 3.347134 1_554
Fe2 Y5 3.347134 1_545
Fe2 Y2 3.347134 1_544
Fe3 Fe9 2.640160 1_455
Fe3 Fe7 2.640160 1_454
Fe3 Fe5 2.640160 1_554
Fe3 Y4 3.347134 1_565
Fe3 Y1 3.347134 1_555
Fe3 Y0 3.347134 1_555
Fe3 Y5 3.347134 1_455
Fe3 Y2 3.347134 1_554
Fe3 Y3 3.347134 1_454
Fe4 Fe9 3.071754 1_555
Fe4 Y5 3.124819 1_555
Fe4 Y0 3.124819 1_555
Fe4 Y2 3.272777 1_655
Fe4 Y3 3.272777 1_565
Fe5 Fe7 2.733045 1_455
Fe5 Fe6 3.071754 1_555
Fe5 Y2 3.124819 1_555
Fe5 Y1 3.124819 1_555
Fe5 Y3 3.272777 1_455
Fe5 Y0 3.272777 1_556
Fe6 Fe8 2.733045 1_565
Fe6 Y2 3.124819 1_555
Fe6 Y1 3.124819 1_555
Fe6 Y5 3.272777 1_556
Fe6 Y3 3.272777 1_565
Fe7 Fe9 2.733045 1_556
Fe7 Fe8 3.071754 1_555
Fe7 Y3 3.124819 1_555
Fe7 Y4 3.124819 1_555
Fe7 Y2 3.272777 1_655
Fe7 Y5 3.272777 1_556
Fe8 Fe9 2.733045 1_556
Fe8 Y3 3.124819 1_555
Fe8 Y4 3.124819 1_555
Fe8 Y2 3.272777 1_545
Fe8 Y0 3.272777 1_556
Fe9 Y5 3.124819 1_555
Fe9 Y0 3.124819 1_555
Fe9 Y3 3.272777 1_554
Fe9 Y1 3.272777 1_655
Fe10 Fe2 2.640160 1_565
Fe10 Fe3 2.640160 1_555
Fe10 Fe11 2.733045 1_555
Fe10 Fe5 2.733045 1_554
Fe10 Fe6 2.733045 1_554
Fe10 Fe13 2.733045 1_565
Fe10 Fe15 3.071754 1_554
Fe10 Fe4 3.071754 1_555
Fe10 Y5 3.124819 1_555
Fe10 Y0 3.124819 1_555
Fe10 Y2 3.272777 1_554
Fe10 Y4 3.272777 1_565
Fe11 Fe3 2.640160 1_555
Fe11 Fe12 2.733045 1_555
Fe11 Fe4 2.733045 1_555
Fe11 Fe6 2.733045 1_555
Fe11 Fe8 3.071754 1_565
Fe11 Fe13 3.071754 1_565
Fe11 Y3 3.124819 1_565
Fe11 Y4 3.124819 1_565
Fe11 Y1 3.272777 1_555
Fe11 Y0 3.272777 1_555
Fe12 Fe3 2.640160 1_555
Fe12 Fe9 2.733045 1_455
Fe12 Fe4 2.733045 1_455
Fe12 Fe8 2.733045 1_565
Fe12 Fe14 3.071754 1_455
Fe12 Fe6 3.071754 1_555
Fe12 Y2 3.124819 1_555
Fe12 Y1 3.124819 1_555
Fe12 Y5 3.272777 1_455
Fe12 Y4 3.272777 1_565
Fe13 Fe2 2.640160 1_555
Fe13 Fe14 2.733045 1_555
Fe13 Fe4 2.733045 1_545
Fe13 Fe5 2.733045 1_655
Fe13 Fe7 3.071754 1_555
Fe13 Y3 3.124819 1_555
Fe13 Y4 3.124819 1_555
Fe13 Y5 3.272777 1_545
Fe13 Y1 3.272777 1_655
Fe14 Fe2 2.640160 1_555
Fe14 Fe9 2.733045 1_555
Fe14 Fe4 2.733045 1_555
Fe14 Fe7 2.733045 1_555
Fe14 Fe5 3.071754 1_655
Fe14 Y2 3.124819 1_655
Fe14 Y1 3.124819 1_655
Fe14 Y0 3.272777 1_555
Fe14 Y4 3.272777 1_555
Fe15 Fe8 2.733045 1_555
Fe15 Fe5 2.733045 1_555
Fe15 Fe7 2.733045 1_555
Fe15 Fe6 2.733045 1_555
Fe15 Fe9 3.071754 1_556
Fe15 Y5 3.124819 1_556
Fe15 Y0 3.124819 1_556
Fe15 Y1 3.272777 1_555
Fe15 Y4 3.272777 1_555
O0 Y1 2.484103 1_555
O0 Y0 2.484103 1_555
O0 Y4 2.484103 1_555
O0 Y3 2.484103 1_454
O0 Y5 2.484103 1_445
O0 Y2 2.484103 1_544
