# generated using pymatgen
data_BaV2(CuO4)2
_symmetry_space_group_name_H-M   'P 1'
_cell_length_a   10.13257010
_cell_length_b   10.13257010
_cell_length_c   10.13257010
_cell_angle_alpha   99.44035386
_cell_angle_beta   99.44035386
_cell_angle_gamma   132.21839990
_symmetry_Int_Tables_number   1
_chemical_formula_structural   BaV2(CuO4)2
_chemical_formula_sum   'Ba4 V8 Cu8 O32'
_cell_volume   704.42337431
_cell_formula_units_Z   4
loop_
 _symmetry_equiv_pos_site_id
 _symmetry_equiv_pos_as_xyz
  1  'x, y, z'
loop_
 _atom_site_type_symbol
 _atom_site_label
 _atom_site_symmetry_multiplicity
 _atom_site_fract_x
 _atom_site_fract_y
 _atom_site_fract_z
 _atom_site_occupancy
  Ba  Ba0  1  0.50000000  0.50000000  0.00000000  1
  Ba  Ba1  1  0.00000000  0.00000000  0.00000000  1
  Ba  Ba2  1  0.75000000  0.25000000  0.50000000  1
  Ba  Ba3  1  0.25000000  0.75000000  0.50000000  1
  V  V0  1  0.02491000  0.37500000  0.14991000  1
  V  V1  1  0.12500000  0.97509000  0.35009000  1
  V  V2  1  0.62500000  0.32644700  0.20144700  1
  V  V3  1  0.67355300  0.87500000  0.29855300  1
  V  V4  1  0.12500000  0.42355300  0.79855300  1
  V  V5  1  0.57644700  0.37500000  0.70144700  1
  V  V6  1  0.62500000  0.77491000  0.64991000  1
  V  V7  1  0.22509000  0.87500000  0.85009000  1
  Cu  Cu0  1  0.33058600  0.85074000  0.16665500  1
  Cu  Cu1  1  0.10074000  0.08058600  0.66665500  1
  Cu  Cu2  1  0.14926000  0.31591500  0.47984500  1
  Cu  Cu3  1  0.91941400  0.58606900  0.02015500  1
  Cu  Cu4  1  0.56591500  0.89926000  0.97984500  1
  Cu  Cu5  1  0.83606900  0.66941400  0.52015500  1
  Cu  Cu6  1  0.41393100  0.43408500  0.33334500  1
  Cu  Cu7  1  0.68408500  0.16393100  0.83334500  1
  O  O0  1  0.55232900  0.18335800  0.68516900  1
  O  O1  1  0.05786800  0.69646900  0.68451300  1
  O  O2  1  0.81664200  0.50181100  0.36897200  1
  O  O3  1  0.62335600  0.76195600  0.81548700  1
  O  O4  1  0.49818900  0.86716100  0.31483100  1
  O  O5  1  0.32926300  0.63746200  0.94127100  1
  O  O6  1  0.13283900  0.44767100  0.63102800  1
  O  O7  1  0.55380900  0.11253800  0.19180100  1
  O  O8  1  0.19849100  0.19520800  0.35204300  1
  O  O9  1  0.80479200  0.15683500  0.00328200  1
  O  O10  1  0.63799200  0.44619100  0.55872900  1
  O  O11  1  0.01195600  0.37335600  0.31548700  1
  O  O12  1  0.88746200  0.07926300  0.44127100  1
  O  O13  1  0.40683500  0.55479200  0.50328200  1
  O  O14  1  0.19213200  0.37664400  0.13860000  1
  O  O15  1  0.61200800  0.67073700  0.30819900  1
  O  O16  1  0.44520800  0.94849100  0.85204300  1
  O  O17  1  0.23804400  0.05353100  0.86140000  1
  O  O18  1  0.36253800  0.30380900  0.69180100  1
  O  O19  1  0.05150900  0.90355200  0.49671800  1
  O  O20  1  0.15355200  0.80150900  0.99671800  1
  O  O21  1  0.92073700  0.36200800  0.80819900  1
  O  O22  1  0.69619100  0.38799200  0.05872900  1
  O  O23  1  0.84316500  0.84644800  0.64795700  1
  O  O24  1  0.94646900  0.80786800  0.18451300  1
  O  O25  1  0.30353100  0.98804400  0.36140000  1
  O  O26  1  0.43335800  0.30232900  0.18516900  1
  O  O27  1  0.09644800  0.59316500  0.14795700  1
  O  O28  1  0.62664400  0.94213200  0.63860000  1
  O  O29  1  0.11716100  0.24818900  0.81483100  1
  O  O30  1  0.75181100  0.56664200  0.86897200  1
  O  O31  1  0.69767100  0.88283900  0.13102800  1
loop_
_geom_bond_atom_site_label_1
_geom_bond_atom_site_label_2
_geom_bond_distance
_geom_bond_site_symmetry_2
Ba0 O31 2.796177 1_555
Ba0 O29 2.796180 1_554
Ba0 O30 2.796180 1_554
Ba0 O26 2.796187 1_555
Ba0 O15 2.908533 1_555
Ba0 O18 2.908533 1_554
Ba0 O22 2.908533 1_555
Ba0 O5 2.908533 1_554
Ba0 O14 3.168389 1_555
Ba0 O17 3.168397 1_554
Ba0 O3 3.168397 1_554
Ba0 O24 3.168397 1_555
Ba1 O14 2.772550 1_555
Ba1 O17 2.772554 1_554
Ba1 O3 2.772554 1_444
Ba1 O24 2.772560 1_445
Ba1 O31 3.085456 1_445
Ba1 O30 3.085464 1_444
Ba1 O29 3.085464 1_554
Ba1 O26 3.085464 1_555
Ba1 O9 3.266086 1_455
Ba1 O8 3.266086 1_555
Ba1 O23 3.266086 1_444
Ba1 O20 3.266086 1_544
Ba2 O6 2.796177 1_655
Ba2 O4 2.796180 1_545
Ba2 O2 2.796180 1_555
Ba2 O0 2.796187 1_555
Ba2 O12 2.908533 1_555
Ba2 O7 2.908533 1_555
Ba2 O21 2.908533 1_555
Ba2 O10 2.908533 1_555
Ba2 O28 3.168389 1_545
Ba2 O11 3.168397 1_655
Ba2 O25 3.168397 1_545
Ba2 O1 3.168397 1_655
Ba3 O28 2.772550 1_555
Ba3 O11 2.772554 1_555
Ba3 O25 2.772554 1_555
Ba3 O1 2.772560 1_555
Ba3 O6 3.085456 1_555
Ba3 O4 3.085464 1_555
Ba3 O2 3.085464 1_455
Ba3 O0 3.085464 1_565
Ba3 O13 3.266086 1_555
Ba3 O27 3.266086 1_555
Ba3 O16 3.266086 1_555
Ba3 O19 3.266086 1_555
Cu0 O7 1.934777 1_565
Cu0 O27 1.960855 1_555
Cu0 O4 1.966679 1_555
Cu0 O20 1.983420 1_554
Cu0 O25 2.386196 1_555
Cu1 O18 1.934777 1_555
Cu1 O23 1.960855 1_445
Cu1 O29 1.966679 1_555
Cu1 O19 1.983420 1_545
Cu1 O17 2.386196 1_555
Cu2 O12 1.934779 1_455
Cu2 O13 1.960855 1_555
Cu2 O6 1.966692 1_555
Cu2 O8 1.983420 1_555
Cu2 O11 2.386189 1_555
Cu3 O22 1.934771 1_555
Cu3 O20 1.960855 1_654
Cu3 O30 1.966685 1_554
Cu3 O27 1.983421 1_655
Cu3 O24 2.386183 1_555
Cu4 O5 1.934779 1_555
Cu4 O9 1.960855 1_566
Cu4 O31 1.966692 1_556
Cu4 O16 1.983420 1_555
Cu4 O3 2.386189 1_555
Cu5 O10 1.934771 1_555
Cu5 O19 1.960855 1_655
Cu5 O2 1.966685 1_555
Cu5 O23 1.983421 1_555
Cu5 O1 2.386183 1_655
Cu6 O15 1.934777 1_555
Cu6 O8 1.960855 1_555
Cu6 O26 1.966685 1_555
Cu6 O13 1.983419 1_555
Cu6 O14 2.386189 1_555
Cu7 O21 1.934777 1_555
Cu7 O16 1.960855 1_545
Cu7 O0 1.966685 1_555
Cu7 O9 1.983419 1_556
Cu7 O28 2.386189 1_545
O0 V5 1.761132 1_555
O1 V7 1.706085 1_555
O2 V2 1.761138 1_555
O3 V6 1.706083 1_555
O4 V3 1.761138 1_555
O5 V4 1.741813 1_555
O6 V4 1.761141 1_555
O7 V2 1.741813 1_555
O8 V1 1.810541 1_545
O9 V0 1.810546 1_655
O10 V5 1.741813 1_555
O11 V0 1.706083 1_555
O12 V3 1.741813 1_545
O13 V6 1.810546 1_555
O14 V0 1.706094 1_555
O15 V3 1.741813 1_555
O16 V7 1.810541 1_555
O17 V7 1.706083 1_545
O18 V5 1.741813 1_555
O19 V1 1.810551 1_555
O20 V7 1.810551 1_555
O21 V4 1.741813 1_655
O22 V2 1.741813 1_555
O23 V6 1.810541 1_555
O24 V1 1.706085 1_655
O25 V1 1.706083 1_555
O26 V2 1.761132 1_555
O27 V0 1.810541 1_555
O28 V6 1.706094 1_555
O29 V4 1.761138 1_555
O30 V5 1.761138 1_555
O31 V3 1.761141 1_555
