# generated using pymatgen
data_Sc7BCl12
_symmetry_space_group_name_H-M   'P 1'
_cell_length_a   8.13956336
_cell_length_b   8.13957958
_cell_length_c   8.13961001
_cell_angle_alpha   107.39955238
_cell_angle_beta   107.39944573
_cell_angle_gamma   107.39965540
_symmetry_Int_Tables_number   1
_chemical_formula_structural   Sc7BCl12
_chemical_formula_sum   'Sc7 B1 Cl12'
_cell_volume   444.12375088
_cell_formula_units_Z   1
loop_
 _symmetry_equiv_pos_site_id
 _symmetry_equiv_pos_as_xyz
  1  'x, y, z'
loop_
 _atom_site_type_symbol
 _atom_site_label
 _atom_site_symmetry_multiplicity
 _atom_site_fract_x
 _atom_site_fract_y
 _atom_site_fract_z
 _atom_site_occupancy
  Sc  Sc0  1  0.49999915  0.49999939  0.50000035  1
  Sc  Sc1  1  0.02909277  0.31109564  0.10358148  1
  Sc  Sc2  1  0.31109605  0.10358491  0.02909048  1
  Sc  Sc3  1  0.10357847  0.02909130  0.31109080  1
  Sc  Sc4  1  0.97091600  0.68890169  0.89642382  1
  Sc  Sc5  1  0.68890427  0.89641760  0.97090662  1
  Sc  Sc6  1  0.89642017  0.97091215  0.68890410  1
  B  B0  1  -0.00000427  -0.00000269  -0.00000321  1
  Cl  Cl0  1  0.92449855  0.31557675  0.77639400  1
  Cl  Cl1  1  0.31557670  0.77639513  0.92450047  1
  Cl  Cl2  1  0.77639525  0.92449968  0.31557503  1
  Cl  Cl3  1  0.07550352  0.68442316  0.22361282  1
  Cl  Cl4  1  0.68442174  0.22360402  0.07550008  1
  Cl  Cl5  1  0.22360648  0.07550159  0.68442262  1
  Cl  Cl6  1  0.38440971  0.46284490  0.15711488  1
  Cl  Cl7  1  0.46284172  0.15711359  0.38440869  1
  Cl  Cl8  1  0.15711230  0.38441089  0.46284109  1
  Cl  Cl9  1  0.61558857  0.53715497  0.84288627  1
  Cl  Cl10  1  0.53715627  0.84288664  0.61558845  1
  Cl  Cl11  1  0.84288657  0.61558869  0.53716116  1
loop_
_geom_bond_atom_site_label_1
_geom_bond_atom_site_label_2
_geom_bond_distance
_geom_bond_site_symmetry_2
B0 Sc5 2.328926 1_444
B0 Sc3 2.328952 1_555
B0 Sc6 2.328965 1_444
B0 Sc1 2.328966 1_555
B0 Sc2 2.328985 1_555
B0 Sc4 2.328992 1_444
Cl0 Sc1 2.557211 1_656
Cl0 Sc6 2.598872 1_545
Cl0 Sc4 2.765516 1_555
Cl1 Sc2 2.557215 1_566
Cl1 Sc4 2.598837 1_455
Cl1 Sc5 2.765558 1_555
Cl2 Sc3 2.557171 1_665
Cl2 Sc5 2.598904 1_554
Cl2 Sc6 2.765573 1_555
Cl3 Sc4 2.557212 1_454
Cl3 Sc3 2.598916 1_565
Cl3 Sc1 2.765552 1_555
Cl4 Sc5 2.557196 1_544
Cl4 Sc1 2.598908 1_655
Cl4 Sc2 2.765535 1_555
Cl5 Sc6 2.557184 1_445
Cl5 Sc2 2.598897 1_556
Cl5 Sc3 2.765600 1_555
Cl6 Sc0 2.553562 1_555
Cl6 Sc2 2.599059 1_555
Cl6 Sc1 2.620660 1_555
Cl7 Sc0 2.553546 1_555
Cl7 Sc3 2.599070 1_555
Cl7 Sc2 2.620698 1_555
Cl8 Sc0 2.553542 1_555
Cl8 Sc1 2.599066 1_555
Cl8 Sc3 2.620687 1_555
Cl9 Sc0 2.553563 1_555
Cl9 Sc5 2.599075 1_555
Cl9 Sc4 2.620726 1_555
Cl10 Sc0 2.553557 1_555
Cl10 Sc6 2.599079 1_555
Cl10 Sc5 2.620693 1_555
Cl11 Sc0 2.553543 1_555
Cl11 Sc4 2.599093 1_555
Cl11 Sc6 2.620711 1_555
