# generated using pymatgen
data_Hg3AsSe4Br
_symmetry_space_group_name_H-M   'P 1'
_cell_length_a   7.80581995
_cell_length_b   7.80581995
_cell_length_c   9.83130058
_cell_angle_alpha   90.00000000
_cell_angle_beta   90.00000000
_cell_angle_gamma   120.00000734
_symmetry_Int_Tables_number   1
_chemical_formula_structural   Hg3AsSe4Br
_chemical_formula_sum   'Hg6 As2 Se8 Br2'
_cell_volume   518.77451442
_cell_formula_units_Z   2
loop_
 _symmetry_equiv_pos_site_id
 _symmetry_equiv_pos_as_xyz
  1  'x, y, z'
loop_
 _atom_site_type_symbol
 _atom_site_label
 _atom_site_symmetry_multiplicity
 _atom_site_fract_x
 _atom_site_fract_y
 _atom_site_fract_z
 _atom_site_occupancy
  Hg  Hg0  1  0.49760264  0.50239736  0.24284279  1
  Hg  Hg1  1  0.50239736  0.00479372  0.74284279  1
  Hg  Hg2  1  0.50239736  0.49760264  0.74284279  1
  Hg  Hg3  1  0.00479372  0.50239736  0.24284279  1
  Hg  Hg4  1  0.49760264  0.99520628  0.24284279  1
  Hg  Hg5  1  0.99520628  0.49760264  0.74284279  1
  As  As0  1  -0.00000000  0.00000000  0.22852453  1
  As  As1  1  -0.00000000  0.00000000  0.72852453  1
  Se  Se0  1  0.84995668  0.69991336  0.36272084  1
  Se  Se1  1  0.33333300  0.66666700  0.10708972  1
  Se  Se2  1  0.15004332  0.84995668  0.86272084  1
  Se  Se3  1  0.15004332  0.30008664  0.86272084  1
  Se  Se4  1  0.69991336  0.84995668  0.86272084  1
  Se  Se5  1  0.84995668  0.15004332  0.36272084  1
  Se  Se6  1  0.66666700  0.33333300  0.60708972  1
  Se  Se7  1  0.30008664  0.15004332  0.36272084  1
  Br  Br0  1  0.33333300  0.66666700  0.53179487  1
  Br  Br1  1  0.66666700  0.33333300  0.03179487  1
loop_
_geom_bond_atom_site_label_1
_geom_bond_atom_site_label_2
_geom_bond_distance
_geom_bond_site_symmetry_2
Hg0 Se1 2.591100 1_555
Hg0 Se0 2.662765 1_555
Hg0 Se7 2.662765 1_555
Hg1 Se6 2.591100 1_555
Hg1 Se4 2.662759 1_545
Hg1 Se2 2.662765 1_545
Hg2 Se6 2.591100 1_555
Hg2 Se3 2.662765 1_555
Hg2 Se4 2.662765 1_555
Hg3 Se1 2.591100 1_555
Hg3 Se0 2.662759 1_455
Hg3 Se5 2.662765 1_455
Hg4 Se1 2.591100 1_555
Hg4 Se7 2.662759 1_565
Hg4 Se5 2.662765 1_565
Hg5 Se6 2.591100 1_555
Hg5 Se3 2.662759 1_655
Hg5 Se2 2.662765 1_655
As0 Se0 2.419881 1_445
As0 Se7 2.419881 1_555
As0 Se5 2.419881 1_455
As1 Se4 2.419881 1_445
As1 Se3 2.419881 1_555
As1 Se2 2.419881 1_545
Br0 Hg1 3.087031 1_565
Br0 Hg5 3.087031 1_455
Br0 Hg2 3.087041 1_555
Br1 Hg3 3.087031 1_655
Br1 Hg4 3.087031 1_545
Br1 Hg0 3.087041 1_555
