# generated using pymatgen
data_Cu2SeO4
_symmetry_space_group_name_H-M   'P 1'
_cell_length_a   9.03150400
_cell_length_b   9.03150400
_cell_length_c   9.03150400
_cell_angle_alpha   90.00000000
_cell_angle_beta   90.00000000
_cell_angle_gamma   90.00000000
_symmetry_Int_Tables_number   1
_chemical_formula_structural   Cu2SeO4
_chemical_formula_sum   'Cu16 Se8 O32'
_cell_volume   736.68230082
_cell_formula_units_Z   8
loop_
 _symmetry_equiv_pos_site_id
 _symmetry_equiv_pos_as_xyz
  1  'x, y, z'
loop_
 _atom_site_type_symbol
 _atom_site_label
 _atom_site_symmetry_multiplicity
 _atom_site_fract_x
 _atom_site_fract_y
 _atom_site_fract_z
 _atom_site_occupancy
  Cu  Cu0  1  0.87803200  0.37358800  0.36822200  1
  Cu  Cu1  1  0.87358800  0.13177800  0.12196800  1
  Cu  Cu2  1  0.12641200  0.63177800  0.37803200  1
  Cu  Cu3  1  0.13177800  0.12196800  0.87358800  1
  Cu  Cu4  1  0.62196800  0.62641200  0.86822200  1
  Cu  Cu5  1  0.63177800  0.37803200  0.12641200  1
  Cu  Cu6  1  0.62641200  0.86822200  0.62196800  1
  Cu  Cu7  1  0.86822200  0.62196800  0.62641200  1
  Cu  Cu8  1  0.88182400  0.88182400  0.88182400  1
  Cu  Cu9  1  0.37358800  0.36822200  0.87803200  1
  Cu  Cu10  1  0.36822200  0.87803200  0.37358800  1
  Cu  Cu11  1  0.38182400  0.61817600  0.11817600  1
  Cu  Cu12  1  0.12196800  0.87358800  0.13177800  1
  Cu  Cu13  1  0.11817600  0.38182400  0.61817600  1
  Cu  Cu14  1  0.37803200  0.12641200  0.63177800  1
  Cu  Cu15  1  0.61817600  0.11817600  0.38182400  1
  Se  Se0  1  0.28868200  0.78868200  0.71131800  1
  Se  Se1  1  0.54050100  0.95949900  0.04050100  1
  Se  Se2  1  0.78868200  0.71131800  0.28868200  1
  Se  Se3  1  0.21131800  0.21131800  0.21131800  1
  Se  Se4  1  0.45949900  0.45949900  0.45949900  1
  Se  Se5  1  0.04050100  0.54050100  0.95949900  1
  Se  Se6  1  0.71131800  0.28868200  0.78868200  1
  Se  Se7  1  0.95949900  0.04050100  0.54050100  1
  O  O0  1  0.50863600  0.49136400  0.99136400  1
  O  O1  1  0.68776600  0.47016700  0.72981600  1
  O  O2  1  0.02983300  0.27018400  0.18776600  1
  O  O3  1  0.24022300  0.25977700  0.74022300  1
  O  O4  1  0.99136400  0.50863600  0.49136400  1
  O  O5  1  0.27018400  0.18776600  0.02983300  1
  O  O6  1  0.48285200  0.46848100  0.26687700  1
  O  O7  1  0.03151900  0.73312300  0.98285200  1
  O  O8  1  0.47016700  0.72981600  0.68776600  1
  O  O9  1  0.49136400  0.99136400  0.50863600  1
  O  O10  1  0.81223400  0.52983300  0.22981600  1
  O  O11  1  0.46848100  0.26687700  0.48285200  1
  O  O12  1  0.01714800  0.53151900  0.76687700  1
  O  O13  1  0.31223400  0.97016700  0.77018400  1
  O  O14  1  0.52983300  0.22981600  0.81223400  1
  O  O15  1  0.77018400  0.31223400  0.97016700  1
  O  O16  1  0.97016700  0.77018400  0.31223400  1
  O  O17  1  0.98285200  0.03151900  0.73312300  1
  O  O18  1  0.18776600  0.02983300  0.27018400  1
  O  O19  1  0.00863600  0.00863600  0.00863600  1
  O  O20  1  0.73312300  0.98285200  0.03151900  1
  O  O21  1  0.51714800  0.96848100  0.23312300  1
  O  O22  1  0.53151900  0.76687700  0.01714800  1
  O  O23  1  0.72981600  0.68776600  0.47016700  1
  O  O24  1  0.22981600  0.81223400  0.52983300  1
  O  O25  1  0.74022300  0.24022300  0.25977700  1
  O  O26  1  0.96848100  0.23312300  0.51714800  1
  O  O27  1  0.76687700  0.01714800  0.53151900  1
  O  O28  1  0.25977700  0.74022300  0.24022300  1
  O  O29  1  0.75977700  0.75977700  0.75977700  1
  O  O30  1  0.23312300  0.51714800  0.96848100  1
  O  O31  1  0.26687700  0.48285200  0.46848100  1
loop_
_geom_bond_atom_site_label_1
_geom_bond_atom_site_label_2
_geom_bond_distance
_geom_bond_site_symmetry_2
Cu0 O4 1.942216 1_555
Cu0 O10 1.976602 1_555
Cu0 O25 1.989759 1_555
Cu0 O26 2.021330 1_555
Cu0 O2 2.325508 1_655
Cu1 O19 1.942216 1_655
Cu1 O2 1.976602 1_655
Cu1 O25 1.989759 1_555
Cu1 O20 2.021330 1_545
Cu1 O15 2.325508 1_554
Cu2 O4 1.942216 1_455
Cu2 O16 1.976602 1_455
Cu2 O28 1.989759 1_555
Cu2 O31 2.021330 1_555
Cu2 O24 2.325508 1_555
Cu3 O19 1.942216 1_556
Cu3 O5 1.976602 1_556
Cu3 O3 1.989759 1_555
Cu3 O17 2.021330 1_455
Cu3 O13 2.325508 1_545
Cu4 O0 1.942216 1_555
Cu4 O1 1.976602 1_555
Cu4 O29 1.989759 1_555
Cu4 O22 2.021330 1_556
Cu4 O8 2.325508 1_555
Cu5 O0 1.942216 1_554
Cu5 O15 1.976602 1_554
Cu5 O25 1.989759 1_555
Cu5 O6 2.021330 1_555
Cu5 O10 2.325508 1_555
Cu6 O9 1.942216 1_555
Cu6 O8 1.976602 1_555
Cu6 O29 1.989759 1_555
Cu6 O27 2.021330 1_565
Cu6 O23 2.325508 1_555
Cu7 O4 1.942216 1_555
Cu7 O23 1.976602 1_555
Cu7 O29 1.989759 1_555
Cu7 O12 2.021330 1_655
Cu7 O1 2.325508 1_555
Cu8 O29 1.909184 1_555
Cu8 O19 1.983723 1_666
Cu8 O20 2.112817 1_556
Cu8 O7 2.112817 1_655
Cu8 O17 2.112817 1_565
Cu9 O0 1.942216 1_555
Cu9 O14 1.976602 1_555
Cu9 O3 1.989759 1_555
Cu9 O30 2.021330 1_555
Cu9 O5 2.325508 1_556
Cu10 O9 1.942216 1_555
Cu10 O24 1.976602 1_555
Cu10 O28 1.989759 1_555
Cu10 O21 2.021330 1_555
Cu10 O18 2.325508 1_565
Cu11 O28 1.909184 1_555
Cu11 O0 1.983723 1_554
Cu11 O30 2.112817 1_554
Cu11 O6 2.112817 1_555
Cu11 O22 2.112817 1_555
Cu12 O19 1.942216 1_565
Cu12 O18 1.976602 1_565
Cu12 O28 1.989759 1_555
Cu12 O7 2.021330 1_554
Cu12 O16 2.325508 1_455
Cu13 O3 1.909184 1_555
Cu13 O4 1.983723 1_455
Cu13 O26 2.112817 1_455
Cu13 O31 2.112817 1_555
Cu13 O12 2.112817 1_555
Cu14 O9 1.942216 1_545
Cu14 O13 1.976602 1_545
Cu14 O3 1.989759 1_555
Cu14 O11 2.021330 1_555
Cu14 O14 2.325508 1_555
Cu15 O25 1.909184 1_555
Cu15 O9 1.983723 1_545
Cu15 O21 2.112817 1_545
Cu15 O11 2.112817 1_555
Cu15 O27 2.112817 1_555
O1 Se6 1.736228 1_555
O2 Se3 1.736228 1_555
O5 Se3 1.736228 1_555
O6 Se4 1.754282 1_555
O7 Se5 1.754282 1_555
O8 Se0 1.736228 1_555
O10 Se2 1.736228 1_555
O11 Se4 1.754282 1_555
O12 Se5 1.754282 1_555
O13 Se0 1.736228 1_555
O14 Se6 1.736228 1_555
O15 Se6 1.736228 1_555
O16 Se2 1.736228 1_555
O17 Se7 1.754282 1_555
O18 Se3 1.736228 1_555
O20 Se1 1.754282 1_555
O21 Se1 1.754282 1_555
O22 Se1 1.754282 1_555
O23 Se2 1.736228 1_555
O24 Se0 1.736228 1_555
O26 Se7 1.754282 1_555
O27 Se7 1.754282 1_555
O30 Se5 1.754282 1_555
O31 Se4 1.754282 1_555
