# generated using pymatgen
data_CaTaAlO5
_symmetry_space_group_name_H-M   'P 1'
_cell_length_a   6.65321483
_cell_length_b   7.33711600
_cell_length_c   8.94364660
_cell_angle_alpha   90.00000000
_cell_angle_beta   90.00000000
_cell_angle_gamma   113.93425007
_symmetry_Int_Tables_number   1
_chemical_formula_structural   CaTaAlO5
_chemical_formula_sum   'Ca4 Ta4 Al4 O20'
_cell_volume   399.04628611
_cell_formula_units_Z   4
loop_
 _symmetry_equiv_pos_site_id
 _symmetry_equiv_pos_as_xyz
  1  'x, y, z'
loop_
 _atom_site_type_symbol
 _atom_site_label
 _atom_site_symmetry_multiplicity
 _atom_site_fract_x
 _atom_site_fract_y
 _atom_site_fract_z
 _atom_site_occupancy
  Ca  Ca0  1  0.00432021  0.72044986  0.33509213  1
  Ca  Ca1  1  0.50432021  0.22044986  0.16490787  1
  Ca  Ca2  1  0.99567979  0.27955014  0.66490787  1
  Ca  Ca3  1  0.49567979  0.77955014  0.83509213  1
  Ta  Ta0  1  0.50000000  0.50000000  0.50000000  1
  Ta  Ta1  1  0.50000000  0.00000000  0.50000000  1
  Ta  Ta2  1  -0.00000000  0.50000000  -0.00000000  1
  Ta  Ta3  1  -0.00000000  0.00000000  -0.00000000  1
  Al  Al0  1  0.49310953  0.25035138  0.81546318  1
  Al  Al1  1  0.00689147  0.24964862  0.31546318  1
  Al  Al2  1  0.99310853  0.75035138  0.68453682  1
  Al  Al3  1  0.50689147  0.74964862  0.18453682  1
  O  O0  1  0.11313980  0.11731748  0.20003465  1
  O  O1  1  0.19214997  0.42692321  0.43672907  1
  O  O2  1  0.99157855  0.74707156  0.07597655  1
  O  O3  1  0.80785003  0.57307679  0.56327093  1
  O  O4  1  0.61313980  0.61731748  0.29996535  1
  O  O5  1  0.10118876  0.61431088  0.79697401  1
  O  O6  1  0.50842145  0.75292844  0.57597655  1
  O  O7  1  0.39881124  0.88568912  0.29697401  1
  O  O8  1  0.89881124  0.38568912  0.20302599  1
  O  O9  1  0.81125183  0.09535645  0.44182497  1
  O  O10  1  0.31125183  0.59535645  0.05817503  1
  O  O11  1  0.30785003  0.07307679  0.93672907  1
  O  O12  1  0.69214997  0.92692321  0.06327093  1
  O  O13  1  0.49157855  0.24707156  0.42402345  1
  O  O14  1  0.68874817  0.40464355  0.94182497  1
  O  O15  1  0.18874817  0.90464355  0.55817503  1
  O  O16  1  0.60118876  0.11431088  0.70302599  1
  O  O17  1  0.38686020  0.38268252  0.70003465  1
  O  O18  1  0.00842145  0.25292844  0.92402345  1
  O  O19  1  0.88686020  0.88268252  0.79996535  1
loop_
_geom_bond_atom_site_label_1
_geom_bond_atom_site_label_2
_geom_bond_distance
_geom_bond_site_symmetry_2
Ca0 O2 2.330084 1_455
Ca0 O4 2.418045 1_455
Ca0 O7 2.427539 1_555
Ca0 O3 2.428107 1_455
Ca0 O15 2.442800 1_555
Ca0 O8 2.553772 1_455
Ca0 O0 2.958315 1_565
Ca0 O1 3.034769 1_555
Ca1 O13 2.330084 1_555
Ca1 O0 2.418045 1_555
Ca1 O8 2.427539 1_555
Ca1 O11 2.428107 1_554
Ca1 O14 2.442800 1_554
Ca1 O7 2.553772 1_545
Ca1 O4 2.958315 1_555
Ca1 O12 3.034769 1_545
Ca2 O18 2.330084 1_655
Ca2 O17 2.418045 1_655
Ca2 O16 2.427539 1_555
Ca2 O1 2.428107 1_655
Ca2 O9 2.442800 1_555
Ca2 O5 2.553772 1_655
Ca2 O19 2.958315 1_545
Ca2 O3 3.034769 1_555
Ca3 O6 2.330084 1_555
Ca3 O19 2.418045 1_555
Ca3 O5 2.427539 1_555
Ca3 O12 2.428107 1_556
Ca3 O10 2.442800 1_556
Ca3 O16 2.553772 1_565
Ca3 O17 2.958315 1_555
Ca3 O11 3.034769 1_565
Al0 O14 1.748547 1_555
Al0 O17 1.750728 1_555
Al0 O11 1.756842 1_555
Al0 O16 1.762653 1_555
Al1 O9 1.748550 1_455
Al1 O0 1.750724 1_555
Al1 O1 1.756839 1_555
Al1 O8 1.762658 1_455
Al2 O15 1.748550 1_655
Al2 O19 1.750724 1_555
Al2 O3 1.756839 1_555
Al2 O5 1.762658 1_655
Al3 O10 1.748550 1_555
Al3 O4 1.750724 1_555
Al3 O12 1.756839 1_555
Al3 O7 1.762658 1_555
O0 Ta3 1.995617 1_555
O1 Ta0 1.977813 1_555
O2 Ta3 1.955599 1_665
O2 Ta2 1.957932 1_655
O3 Ta0 1.977813 1_555
O4 Ta0 1.995617 1_555
O5 Ta2 1.998910 1_556
O6 Ta0 1.955599 1_555
O6 Ta1 1.957932 1_565
O7 Ta1 1.998910 1_565
O8 Ta2 1.998910 1_655
O9 Ta1 1.967987 1_555
O10 Ta2 1.967987 1_555
O11 Ta3 1.977813 1_556
O12 Ta3 1.977813 1_665
O13 Ta0 1.955599 1_555
O13 Ta1 1.957932 1_555
O14 Ta2 1.967987 1_656
O15 Ta1 1.967987 1_565
O16 Ta1 1.998910 1_555
O17 Ta0 1.995617 1_555
O18 Ta3 1.955599 1_556
O18 Ta2 1.957932 1_556
O19 Ta3 1.995617 1_666
