# generated using pymatgen
data_RbP4N7
_symmetry_space_group_name_H-M   'P 1'
_cell_length_a   4.68460667
_cell_length_b   9.89701691
_cell_length_c   12.32682564
_cell_angle_alpha   90.00000000
_cell_angle_beta   90.00000000
_cell_angle_gamma   90.00000000
_symmetry_Int_Tables_number   1
_chemical_formula_structural   RbP4N7
_chemical_formula_sum   'Rb4 P16 N28'
_cell_volume   571.51640067
_cell_formula_units_Z   4
loop_
 _symmetry_equiv_pos_site_id
 _symmetry_equiv_pos_as_xyz
  1  'x, y, z'
loop_
 _atom_site_type_symbol
 _atom_site_label
 _atom_site_symmetry_multiplicity
 _atom_site_fract_x
 _atom_site_fract_y
 _atom_site_fract_z
 _atom_site_occupancy
  Rb  Rb0  1  0.27167150  0.14669083  0.75000000  1
  Rb  Rb1  1  0.77167150  0.35330917  0.25000000  1
  Rb  Rb2  1  0.72832850  0.85330917  0.25000000  1
  Rb  Rb3  1  0.22832850  0.64669083  0.75000000  1
  P  P0  1  0.78615278  0.41142774  0.86986194  1
  P  P1  1  0.28615278  0.08857226  0.13013806  1
  P  P2  1  0.21384722  0.58857226  0.36986194  1
  P  P3  1  0.71384722  0.91142774  0.63013806  1
  P  P4  1  0.21384722  0.58857226  0.13013806  1
  P  P5  1  0.71384722  0.91142774  0.86986194  1
  P  P6  1  0.78615278  0.41142774  0.63013806  1
  P  P7  1  0.28615278  0.08857226  0.36986194  1
  P  P8  1  0.77854470  0.15694505  0.00006944  1
  P  P9  1  0.27854470  0.34305495  0.99993056  1
  P  P10  1  0.22145530  0.84305495  0.50006944  1
  P  P11  1  0.72145530  0.65694505  0.49993056  1
  P  P12  1  0.22145530  0.84305495  0.99993056  1
  P  P13  1  0.72145530  0.65694505  0.00006944  1
  P  P14  1  0.77854470  0.15694505  0.49993056  1
  P  P15  1  0.27854470  0.34305495  0.50006944  1
  N  N0  1  0.70346212  0.37230335  0.75000000  1
  N  N1  1  0.20346212  0.12769665  0.25000000  1
  N  N2  1  0.29653788  0.62769665  0.25000000  1
  N  N3  1  0.79653788  0.87230335  0.75000000  1
  N  N4  1  0.11576672  0.38542135  0.89397408  1
  N  N5  1  0.61576672  0.11457865  0.10602592  1
  N  N6  1  0.88423328  0.61457865  0.39397408  1
  N  N7  1  0.38423328  0.88542135  0.60602592  1
  N  N8  1  0.88423328  0.61457865  0.10602592  1
  N  N9  1  0.38423328  0.88542135  0.89397408  1
  N  N10  1  0.11576672  0.38542135  0.60602592  1
  N  N11  1  0.61576672  0.11457865  0.39397408  1
  N  N12  1  0.81838289  0.05985655  0.90012509  1
  N  N13  1  0.31838289  0.44014345  0.09987491  1
  N  N14  1  0.18161711  0.94014345  0.40012509  1
  N  N15  1  0.68161711  0.55985655  0.59987491  1
  N  N16  1  0.18161711  0.94014345  0.09987491  1
  N  N17  1  0.68161711  0.55985655  0.90012509  1
  N  N18  1  0.81838289  0.05985655  0.59987491  1
  N  N19  1  0.31838289  0.44014345  0.40012509  1
  N  N20  1  0.61408764  0.29964962  0.95611950  1
  N  N21  1  0.11408764  0.20035038  0.04388050  1
  N  N22  1  0.38591236  0.70035038  0.45611950  1
  N  N23  1  0.88591236  0.79964962  0.54388050  1
  N  N24  1  0.38591236  0.70035038  0.04388050  1
  N  N25  1  0.88591236  0.79964962  0.95611950  1
  N  N26  1  0.61408764  0.29964962  0.54388050  1
  N  N27  1  0.11408764  0.20035038  0.45611950  1
loop_
_geom_bond_atom_site_label_1
_geom_bond_atom_site_label_2
_geom_bond_distance
_geom_bond_site_symmetry_2
N0 P6 1.575770 1_555
N0 P0 1.575770 1_555
N0 Rb0 3.012872 1_555
N1 P1 1.575770 1_555
N1 P7 1.575770 1_555
N1 Rb1 3.012872 1_455
N2 P4 1.575770 1_555
N2 P2 1.575770 1_555
N2 Rb2 3.012872 1_555
N3 P5 1.575770 1_555
N3 P3 1.575770 1_555
N3 Rb3 3.012872 1_655
N4 P9 1.569463 1_555
N4 P0 1.593384 1_455
N4 Rb0 3.043941 1_555
N4 Rb3 3.180262 1_555
N5 P8 1.569463 1_555
N5 P1 1.593384 1_555
N5 Rb1 3.043941 1_555
N5 Rb2 3.180262 1_545
N6 P11 1.569463 1_555
N6 P2 1.593384 1_655
N6 Rb2 3.043941 1_555
N6 Rb1 3.180262 1_555
N7 P10 1.569463 1_555
N7 P3 1.593384 1_555
N7 Rb3 3.043941 1_555
N7 Rb0 3.180262 1_565
N8 P13 1.569463 1_555
N8 P4 1.593384 1_655
N8 Rb2 3.043941 1_555
N8 Rb1 3.180262 1_555
N9 P12 1.569463 1_555
N9 P5 1.593384 1_555
N9 Rb3 3.043941 1_555
N9 Rb0 3.180262 1_565
N10 P15 1.569463 1_555
N10 P6 1.593384 1_455
N10 Rb0 3.043941 1_555
N10 Rb3 3.180262 1_555
N11 P14 1.569463 1_555
N11 P7 1.593384 1_555
N11 Rb1 3.043941 1_555
N11 Rb2 3.180262 1_545
N12 P8 1.573514 1_556
N12 P5 1.592780 1_545
N12 Rb0 2.944881 1_655
N12 Rb0 3.274529 1_555
N13 P9 1.573514 1_554
N13 P4 1.592780 1_555
N13 Rb1 2.944881 1_555
N13 Rb1 3.274529 1_455
N14 P10 1.573514 1_555
N14 P7 1.592780 1_565
N14 Rb2 2.944881 1_455
N14 Rb2 3.274529 1_555
N15 P11 1.573514 1_555
N15 P6 1.592780 1_555
N15 Rb3 2.944881 1_555
N15 Rb3 3.274529 1_655
N16 P12 1.573514 1_554
N16 P1 1.592780 1_565
N16 Rb2 2.944881 1_455
N16 Rb2 3.274529 1_555
N17 P13 1.573514 1_556
N17 P0 1.592780 1_555
N17 Rb3 2.944881 1_555
N17 Rb3 3.274529 1_655
N18 P14 1.573514 1_555
N18 P3 1.592780 1_545
N18 Rb0 2.944881 1_655
N18 Rb0 3.274529 1_555
N19 P15 1.573514 1_555
N19 P2 1.592780 1_555
N19 Rb1 2.944881 1_555
N19 Rb1 3.274529 1_455
N20 P8 1.697581 1_556
N20 P9 1.716690 1_555
N20 P0 1.733243 1_555
N21 P9 1.697581 1_554
N21 P8 1.716690 1_455
N21 P1 1.733243 1_555
N22 P10 1.697581 1_555
N22 P11 1.716690 1_555
N22 P2 1.733243 1_555
N23 P11 1.697581 1_555
N23 P10 1.716690 1_655
N23 P3 1.733243 1_555
N24 P12 1.697581 1_554
N24 P13 1.716690 1_555
N24 P4 1.733243 1_555
N25 P13 1.697581 1_556
N25 P12 1.716690 1_655
N25 P5 1.733243 1_555
N26 P14 1.697581 1_555
N26 P15 1.716690 1_555
N26 P6 1.733243 1_555
N27 P15 1.697581 1_555
N27 P14 1.716690 1_455
N27 P7 1.733243 1_555
