# generated using pymatgen
data_Ti3Co3O
_symmetry_space_group_name_H-M   'P 1'
_cell_length_a   7.87397201
_cell_length_b   7.87397201
_cell_length_c   7.87397201
_cell_angle_alpha   60.00000000
_cell_angle_beta   60.00000000
_cell_angle_gamma   60.00000000
_symmetry_Int_Tables_number   1
_chemical_formula_structural   Ti3Co3O
_chemical_formula_sum   'Ti12 Co12 O4'
_cell_volume   345.19667303
_cell_formula_units_Z   4
loop_
 _symmetry_equiv_pos_site_id
 _symmetry_equiv_pos_as_xyz
  1  'x, y, z'
loop_
 _atom_site_type_symbol
 _atom_site_label
 _atom_site_symmetry_multiplicity
 _atom_site_fract_x
 _atom_site_fract_y
 _atom_site_fract_z
 _atom_site_occupancy
  Ti  Ti0  1  0.93950600  0.93950600  0.56049400  1
  Ti  Ti1  1  0.68950600  0.31049400  0.31049400  1
  Ti  Ti2  1  0.31049400  0.68950600  0.68950600  1
  Ti  Ti3  1  0.68950600  0.68950600  0.31049400  1
  Ti  Ti4  1  0.68950600  0.31049400  0.68950600  1
  Ti  Ti5  1  0.31049400  0.68950600  0.31049400  1
  Ti  Ti6  1  0.56049400  0.93950600  0.56049400  1
  Ti  Ti7  1  0.56049400  0.93950600  0.93950600  1
  Ti  Ti8  1  0.93950600  0.56049400  0.56049400  1
  Ti  Ti9  1  0.93950600  0.56049400  0.93950600  1
  Ti  Ti10  1  0.31049400  0.31049400  0.68950600  1
  Ti  Ti11  1  0.56049400  0.56049400  0.93950600  1
  Co  Co0  1  0.12500000  0.62500000  0.12500000  1
  Co  Co1  1  0.12500000  0.12500000  0.62500000  1
  Co  Co2  1  0.62500000  0.12500000  0.12500000  1
  Co  Co3  1  0.12500000  0.12500000  0.12500000  1
  Co  Co4  1  0.92013800  0.23958500  0.92013800  1
  Co  Co5  1  0.32986200  0.32986200  0.01041500  1
  Co  Co6  1  0.01041500  0.32986200  0.32986200  1
  Co  Co7  1  0.32986200  0.32986200  0.32986200  1
  Co  Co8  1  0.23958500  0.92013800  0.92013800  1
  Co  Co9  1  0.92013800  0.92013800  0.92013800  1
  Co  Co10  1  0.92013800  0.92013800  0.23958500  1
  Co  Co11  1  0.32986200  0.01041500  0.32986200  1
  O  O0  1  0.62500000  0.12500000  0.62500000  1
  O  O1  1  0.62500000  0.62500000  0.12500000  1
  O  O2  1  0.12500000  0.62500000  0.62500000  1
  O  O3  1  0.62500000  0.62500000  0.62500000  1
loop_
_geom_bond_atom_site_label_1
_geom_bond_atom_site_label_2
_geom_bond_distance
_geom_bond_site_symmetry_2
Co0 Co10 2.389414 1_455
Co0 Co8 2.389414 1_554
Co0 Co5 2.389414 1_555
Co0 Co6 2.389414 1_555
Co0 Co7 2.389418 1_555
Co0 Co9 2.389418 1_454
Co0 Ti11 2.853335 1_554
Co0 Ti8 2.853335 1_455
Co0 Ti5 2.853335 1_555
Co0 Ti3 2.853335 1_455
Co0 Ti2 2.853335 1_554
Co0 Ti9 2.853335 1_454
Co1 Co8 2.389414 1_545
Co1 Co4 2.389414 1_455
Co1 Co11 2.389414 1_555
Co1 Co6 2.389414 1_555
Co1 Co9 2.389418 1_445
Co1 Co7 2.389418 1_555
Co1 Ti6 2.853335 1_545
Co1 Ti8 2.853335 1_455
Co1 Ti10 2.853335 1_555
Co1 Ti4 2.853335 1_455
Co1 Ti2 2.853335 1_545
Co1 Ti0 2.853335 1_445
Co2 Co4 2.389414 1_554
Co2 Co5 2.389414 1_555
Co2 Co9 2.389418 1_544
Co2 Co7 2.389418 1_555
Co2 Ti11 2.853335 1_554
Co2 Ti6 2.853335 1_545
Co2 Ti1 2.853335 1_555
Co2 Ti4 2.853335 1_554
Co2 Ti3 2.853335 1_545
Co2 Ti7 2.853335 1_544
Co3 Co6 2.389421 1_555
Co3 Co5 2.389421 1_555
Co3 Co8 2.389421 1_544
Co3 Co4 2.389421 1_454
Co3 Ti7 2.853335 1_544
Co3 Ti9 2.853335 1_454
Co3 Ti0 2.853335 1_445
Co3 Ti5 2.853335 1_545
Co3 Ti1 2.853335 1_455
Co3 Ti10 2.853335 1_554
Co4 Co8 2.515317 1_645
Co4 Co9 2.515317 1_545
Co4 Ti8 2.687993 1_555
Co4 Ti11 2.687993 1_555
Co4 Ti9 2.687998 1_555
Co4 Ti4 2.859604 1_555
Co4 Ti10 2.859610 1_655
Co4 Ti1 2.859610 1_556
Co5 Co6 2.515317 1_555
Co5 Co7 2.515317 1_555
Co5 Ti4 2.687993 1_554
Co5 Ti2 2.687993 1_554
Co5 Ti10 2.687998 1_554
Co5 Ti11 2.859604 1_554
Co5 Ti9 2.859610 1_454
Co5 Ti7 2.859610 1_544
Co6 Co7 2.515317 1_555
Co6 Ti4 2.687993 1_455
Co6 Ti3 2.687993 1_455
Co6 Ti1 2.687998 1_455
Co6 Ti8 2.859604 1_455
Co6 Ti9 2.859610 1_454
Co6 Ti0 2.859610 1_445
Co7 Ti10 2.687990 1_555
Co7 Ti5 2.687990 1_555
Co7 Ti1 2.687990 1_555
Co7 Ti11 2.859607 1_554
Co7 Ti8 2.859607 1_455
Co7 Ti6 2.859607 1_545
Co8 Co9 2.515317 1_455
Co8 Ti6 2.687993 1_555
Co8 Ti11 2.687993 1_555
Co8 Ti7 2.687998 1_555
Co8 Ti2 2.859604 1_555
Co8 Ti5 2.859610 1_556
Co8 Ti10 2.859610 1_565
Co9 Ti9 2.687990 1_555
Co9 Ti0 2.687990 1_555
Co9 Ti7 2.687990 1_555
Co9 Ti4 2.859607 1_565
Co9 Ti3 2.859607 1_556
Co9 Ti2 2.859607 1_655
Co10 Co2 2.389414 1_565
Co10 Co3 2.389421 1_665
Co10 Co8 2.515317 1_654
Co10 Co4 2.515317 1_564
Co10 Co9 2.515317 1_554
Co10 Ti8 2.687993 1_555
Co10 Ti6 2.687993 1_555
Co10 Ti0 2.687998 1_555
Co10 Ti3 2.859604 1_555
Co10 Ti5 2.859610 1_655
Co10 Ti1 2.859610 1_565
Co11 Co2 2.389414 1_555
Co11 Co3 2.389421 1_555
Co11 Co5 2.515317 1_555
Co11 Co6 2.515317 1_555
Co11 Co7 2.515317 1_555
Co11 Ti2 2.687993 1_545
Co11 Ti3 2.687993 1_545
Co11 Ti5 2.687998 1_545
Co11 Ti6 2.859604 1_545
Co11 Ti7 2.859610 1_544
Co11 Ti0 2.859610 1_445
O0 Ti4 2.095454 1_555
O0 Ti0 2.095454 1_545
O0 Ti7 2.095454 1_545
O0 Ti10 2.095454 1_555
O0 Ti1 2.095454 1_555
O0 Ti6 2.095454 1_545
O1 Ti3 2.095454 1_555
O1 Ti7 2.095454 1_554
O1 Ti9 2.095454 1_554
O1 Ti1 2.095454 1_555
O1 Ti5 2.095454 1_555
O1 Ti11 2.095454 1_554
O2 Ti2 2.095454 1_555
O2 Ti9 2.095454 1_455
O2 Ti0 2.095454 1_455
O2 Ti10 2.095454 1_555
O2 Ti5 2.095454 1_555
O2 Ti8 2.095454 1_455
O3 Ti6 2.095454 1_555
O3 Ti11 2.095454 1_555
O3 Ti8 2.095454 1_555
O3 Ti2 2.095454 1_555
O3 Ti3 2.095454 1_555
O3 Ti4 2.095454 1_555
