# generated using pymatgen
data_Cs3Ge4Au
_symmetry_space_group_name_H-M   'P 1'
_cell_length_a   6.15490261
_cell_length_b   7.27503089
_cell_length_c   13.15596682
_cell_angle_alpha   90.00000000
_cell_angle_beta   90.00000000
_cell_angle_gamma   90.00000000
_symmetry_Int_Tables_number   1
_chemical_formula_structural   Cs3Ge4Au
_chemical_formula_sum   'Cs6 Ge8 Au2'
_cell_volume   589.08612889
_cell_formula_units_Z   2
loop_
 _symmetry_equiv_pos_site_id
 _symmetry_equiv_pos_as_xyz
  1  'x, y, z'
loop_
 _atom_site_type_symbol
 _atom_site_label
 _atom_site_symmetry_multiplicity
 _atom_site_fract_x
 _atom_site_fract_y
 _atom_site_fract_z
 _atom_site_occupancy
  Cs  Cs0  1  0.15550256  0.25000000  0.01621736  1
  Cs  Cs1  1  0.15550256  0.25000000  0.48378264  1
  Cs  Cs2  1  0.84449744  0.75000000  0.98378264  1
  Cs  Cs3  1  0.84449744  0.75000000  0.51621736  1
  Cs  Cs4  1  0.56698488  0.25000000  0.25000000  1
  Cs  Cs5  1  0.43301512  0.75000000  0.75000000  1
  Ge  Ge0  1  0.06483345  0.56338636  0.25000000  1
  Ge  Ge1  1  0.06483345  0.93661364  0.25000000  1
  Ge  Ge2  1  0.93516655  0.06338636  0.75000000  1
  Ge  Ge3  1  0.93516655  0.43661364  0.75000000  1
  Ge  Ge4  1  0.66469831  0.25000000  0.64597168  1
  Ge  Ge5  1  0.66469831  0.25000000  0.85402832  1
  Ge  Ge6  1  0.33530169  0.75000000  0.35402832  1
  Ge  Ge7  1  0.33530169  0.75000000  0.14597168  1
  Au  Au0  1  0.30162391  0.25000000  0.75000000  1
  Au  Au1  1  0.69837609  0.75000000  0.25000000  1
loop_
_geom_bond_atom_site_label_1
_geom_bond_atom_site_label_2
_geom_bond_distance
_geom_bond_site_symmetry_2
Cs0 Ge5 3.698439 1_454
Cs0 Ge5 3.791461 1_554
Cs0 Ge1 3.868966 1_545
Cs0 Ge0 3.868966 1_555
Cs1 Ge4 3.698439 1_455
Cs1 Ge4 3.791461 1_555
Cs1 Ge1 3.868966 1_545
Cs1 Ge0 3.868966 1_555
Cs2 Ge7 3.698439 1_656
Cs2 Ge7 3.791461 1_556
Cs2 Ge2 3.868966 1_565
Cs2 Ge3 3.868966 1_555
Cs3 Ge6 3.698439 1_655
Cs3 Ge6 3.791461 1_555
Cs3 Ge2 3.868966 1_565
Cs3 Ge3 3.868966 1_555
Cs4 Ge1 3.819333 1_645
Cs4 Ge0 3.819333 1_655
Cs4 Ge0 3.840613 1_555
Cs4 Ge1 3.840613 1_545
Cs5 Ge3 3.819333 1_455
Cs5 Ge2 3.819333 1_465
Cs5 Ge3 3.840613 1_555
Cs5 Ge2 3.840613 1_565
Au0 Ge4 2.620472 1_555
Au0 Ge5 2.620472 1_555
Au0 Ge2 2.632576 1_455
Au0 Ge3 2.632576 1_455
Au0 Cs0 3.615976 1_556
Au0 Cs1 3.615976 1_555
Au0 Cs5 3.726327 1_555
Au0 Cs5 3.726327 1_545
Au1 Ge7 2.620472 1_555
Au1 Ge6 2.620472 1_555
Au1 Ge0 2.632576 1_655
Au1 Ge1 2.632576 1_655
Au1 Cs3 3.615976 1_555
Au1 Cs2 3.615976 1_554
Au1 Cs4 3.726327 1_565
Au1 Cs4 3.726327 1_555
