# generated using pymatgen
data_CaZr(PO4)2
_symmetry_space_group_name_H-M   'P 1'
_cell_length_a   6.23406342
_cell_length_b   6.73338395
_cell_length_c   14.56269663
_cell_angle_alpha   90.00000000
_cell_angle_beta   90.00000000
_cell_angle_gamma   90.00000000
_symmetry_Int_Tables_number   1
_chemical_formula_structural   CaZr(PO4)2
_chemical_formula_sum   'Ca4 Zr4 P8 O32'
_cell_volume   611.28874256
_cell_formula_units_Z   4
loop_
 _symmetry_equiv_pos_site_id
 _symmetry_equiv_pos_as_xyz
  1  'x, y, z'
loop_
 _atom_site_type_symbol
 _atom_site_label
 _atom_site_symmetry_multiplicity
 _atom_site_fract_x
 _atom_site_fract_y
 _atom_site_fract_z
 _atom_site_occupancy
  Ca  Ca0  1  0.55301047  0.75000000  0.14796754  1
  Ca  Ca1  1  0.05301047  0.75000000  0.35203246  1
  Ca  Ca2  1  0.94698953  0.25000000  0.64796754  1
  Ca  Ca3  1  0.44698953  0.25000000  0.85203246  1
  Zr  Zr0  1  0.17652474  0.75000000  0.89109727  1
  Zr  Zr1  1  0.82347526  0.25000000  0.10890273  1
  Zr  Zr2  1  0.67652474  0.75000000  0.60890273  1
  Zr  Zr3  1  0.32347526  0.25000000  0.39109727  1
  P  P0  1  0.13288572  0.75000000  0.64731192  1
  P  P1  1  0.86711428  0.25000000  0.35268808  1
  P  P2  1  0.04309601  0.75000000  0.11627786  1
  P  P3  1  0.36711428  0.25000000  0.14731192  1
  P  P4  1  0.54309601  0.75000000  0.38372214  1
  P  P5  1  0.63288572  0.75000000  0.85268808  1
  P  P6  1  0.95690399  0.25000000  0.88372214  1
  P  P7  1  0.45690399  0.25000000  0.61627786  1
  O  O0  1  0.39166721  0.93065243  0.38717312  1
  O  O1  1  0.84274974  0.75000000  0.90426262  1
  O  O2  1  0.34274974  0.75000000  0.59573738  1
  O  O3  1  0.89166721  0.93065243  0.11282688  1
  O  O4  1  0.60833279  0.06934757  0.61282688  1
  O  O5  1  0.39166721  0.56934757  0.38717312  1
  O  O6  1  0.17225015  0.75000000  0.75052378  1
  O  O7  1  0.10833279  0.06934757  0.88717312  1
  O  O8  1  0.51467281  0.07716531  0.11936462  1
  O  O9  1  0.89166721  0.56934757  0.11282688  1
  O  O10  1  0.15725026  0.25000000  0.09573738  1
  O  O11  1  0.19889806  0.75000000  0.03350201  1
  O  O12  1  0.18239398  0.75000000  0.20218460  1
  O  O13  1  0.65725026  0.25000000  0.40426262  1
  O  O14  1  0.01467281  0.42283469  0.38063538  1
  O  O15  1  0.67225015  0.75000000  0.74947622  1
  O  O16  1  0.01467281  0.07716531  0.38063538  1
  O  O17  1  0.82774985  0.25000000  0.24947622  1
  O  O18  1  0.69889806  0.75000000  0.46649799  1
  O  O19  1  0.80110194  0.25000000  0.96649799  1
  O  O20  1  0.98532719  0.57716531  0.61936462  1
  O  O21  1  0.48532719  0.57716531  0.88063538  1
  O  O22  1  0.51467281  0.42283469  0.11936462  1
  O  O23  1  0.31760602  0.25000000  0.70218460  1
  O  O24  1  0.68239398  0.75000000  0.29781540  1
  O  O25  1  0.98532719  0.92283469  0.61936462  1
  O  O26  1  0.32774985  0.25000000  0.25052378  1
  O  O27  1  0.60833279  0.43065243  0.61282688  1
  O  O28  1  0.48532719  0.92283469  0.88063538  1
  O  O29  1  0.81760602  0.25000000  0.79781540  1
  O  O30  1  0.30110194  0.25000000  0.53350201  1
  O  O31  1  0.10833279  0.43065243  0.88717312  1
loop_
_geom_bond_atom_site_label_1
_geom_bond_atom_site_label_2
_geom_bond_distance
_geom_bond_site_symmetry_2
Ca0 O22 2.254667 1_555
Ca0 O8 2.254667 1_565
Ca0 O24 2.326484 1_555
Ca0 O12 2.441628 1_555
Ca0 O3 2.489721 1_555
Ca0 O9 2.489721 1_555
Ca0 O11 2.766218 1_555
Ca1 O14 2.254667 1_555
Ca1 O16 2.254667 1_565
Ca1 O12 2.326484 1_555
Ca1 O24 2.441628 1_455
Ca1 O0 2.489721 1_555
Ca1 O5 2.489721 1_555
Ca1 O18 2.766218 1_455
Ca2 O25 2.254667 1_545
Ca2 O20 2.254667 1_555
Ca2 O29 2.326484 1_555
Ca2 O23 2.441628 1_655
Ca2 O4 2.489721 1_555
Ca2 O27 2.489721 1_555
Ca2 O30 2.766218 1_655
Ca3 O28 2.254667 1_545
Ca3 O21 2.254667 1_555
Ca3 O23 2.326484 1_555
Ca3 O29 2.441628 1_555
Ca3 O7 2.489721 1_555
Ca3 O31 2.489721 1_555
Ca3 O19 2.766218 1_555
O0 P4 1.540561 1_555
O0 Zr3 2.192654 1_565
O1 P5 1.508563 1_555
O1 Zr0 2.089589 1_655
O2 P0 1.508563 1_555
O2 Zr2 2.089589 1_555
O3 P2 1.540561 1_655
O3 Zr1 2.192654 1_565
O4 P7 1.540561 1_555
O4 Zr2 2.192654 1_545
O5 P4 1.540561 1_555
O5 Zr3 2.192654 1_555
O6 P0 1.522944 1_555
O6 Zr0 2.047303 1_555
O7 P6 1.540561 1_455
O7 Zr0 2.192654 1_545
O8 P3 1.538239 1_555
O8 Zr1 2.254671 1_555
O9 P2 1.540561 1_655
O9 Zr1 2.192654 1_555
O10 P3 1.508563 1_555
O10 Zr1 2.089589 1_455
O11 P2 1.548053 1_555
O11 Zr0 2.078482 1_554
O12 P2 1.522889 1_555
O13 P1 1.508563 1_555
O13 Zr3 2.089589 1_555
O14 P1 1.538239 1_455
O14 Zr3 2.254671 1_555
O15 P5 1.522944 1_555
O15 Zr2 2.047303 1_555
O16 P1 1.538239 1_455
O16 Zr3 2.254671 1_555
O17 P1 1.522944 1_555
O17 Zr1 2.047303 1_555
O18 P4 1.548053 1_555
O18 Zr2 2.078482 1_555
O19 P6 1.548053 1_555
O19 Zr1 2.078482 1_556
O20 P0 1.538239 1_655
O20 Zr2 2.254671 1_555
O21 P5 1.538239 1_555
O21 Zr0 2.254671 1_555
O22 P3 1.538239 1_555
O22 Zr1 2.254671 1_555
O23 P7 1.522889 1_555
O24 P4 1.522889 1_555
O25 P0 1.538239 1_655
O25 Zr2 2.254671 1_555
O26 P3 1.522944 1_555
O26 Zr3 2.047303 1_555
O27 P7 1.540561 1_555
O27 Zr2 2.192654 1_555
O28 P5 1.538239 1_555
O28 Zr0 2.254671 1_555
O29 P6 1.522889 1_555
O30 P7 1.548053 1_555
O30 Zr3 2.078482 1_555
O31 P6 1.540561 1_455
O31 Zr0 2.192654 1_555
