# generated using pymatgen
data_HoSiRu2C
_symmetry_space_group_name_H-M   'P 1'
_cell_length_a   5.88932108
_cell_length_b   5.88932108
_cell_length_c   7.14907200
_cell_angle_alpha   90.00000000
_cell_angle_beta   90.00000000
_cell_angle_gamma   142.46311880
_symmetry_Int_Tables_number   1
_chemical_formula_structural   HoSiRu2C
_chemical_formula_sum   'Ho2 Si2 Ru4 C2'
_cell_volume   151.07456163
_cell_formula_units_Z   2
loop_
 _symmetry_equiv_pos_site_id
 _symmetry_equiv_pos_as_xyz
  1  'x, y, z'
loop_
 _atom_site_type_symbol
 _atom_site_label
 _atom_site_symmetry_multiplicity
 _atom_site_fract_x
 _atom_site_fract_y
 _atom_site_fract_z
 _atom_site_occupancy
  Ho  Ho0  1  0.54668200  0.45331800  0.25000000  1
  Ho  Ho1  1  0.45331800  0.54668200  0.75000000  1
  Si  Si0  1  0.26842000  0.73158000  0.25000000  1
  Si  Si1  1  0.73158000  0.26842000  0.75000000  1
  Ru  Ru0  1  0.83615800  0.16384200  0.44324700  1
  Ru  Ru1  1  0.16384200  0.83615800  0.94324700  1
  Ru  Ru2  1  0.16384200  0.83615800  0.55675300  1
  Ru  Ru3  1  0.83615800  0.16384200  0.05675300  1
  C  C0  1  0.00000000  0.00000000  0.50000000  1
  C  C1  1  0.00000000  0.00000000  0.00000000  1
loop_
_geom_bond_atom_site_label_1
_geom_bond_atom_site_label_2
_geom_bond_distance
_geom_bond_site_symmetry_2
Ho0 Si0 3.103270 1_555
Ho0 Si0 3.115395 1_545
Ho0 Si0 3.115395 1_655
Ho1 Si1 3.103270 1_555
Ho1 Si1 3.115395 1_565
Ho1 Si1 3.115395 1_455
Ru0 Si0 2.463697 1_545
Ru0 Si0 2.463697 1_655
Ru0 Si1 2.483843 1_555
Ru1 Si1 2.463697 1_455
Ru1 Si1 2.463697 1_565
Ru1 Si0 2.483843 1_556
Ru2 Si1 2.463697 1_455
Ru2 Si1 2.463697 1_565
Ru2 Si0 2.483843 1_555
Ru3 Si0 2.463697 1_545
Ru3 Si0 2.463697 1_655
Ru3 Si1 2.483843 1_554
C0 Ru2 1.871724 1_545
C0 Ru0 1.871724 1_455
C0 Ho1 2.656283 1_445
C0 Ho1 2.656283 1_555
C0 Ho0 2.656283 1_445
C0 Ho0 2.656283 1_555
C1 Ru3 1.871724 1_455
C1 Ru1 1.871724 1_544
C1 Ho1 2.656283 1_444
C1 Ho1 2.656283 1_554
C1 Ho0 2.656283 1_445
C1 Ho0 2.656283 1_555
