# generated using pymatgen
data_BaHgRuO5
_symmetry_space_group_name_H-M   'P 1'
_cell_length_a   10.36590829
_cell_length_b   10.36590829
_cell_length_c   8.62070100
_cell_angle_alpha   90.00000000
_cell_angle_beta   90.00000000
_cell_angle_gamma   120.00000187
_symmetry_Int_Tables_number   1
_chemical_formula_structural   BaHgRuO5
_chemical_formula_sum   'Ba6 Hg6 Ru6 O30'
_cell_volume   802.20973970
_cell_formula_units_Z   6
loop_
 _symmetry_equiv_pos_site_id
 _symmetry_equiv_pos_as_xyz
  1  'x, y, z'
loop_
 _atom_site_type_symbol
 _atom_site_label
 _atom_site_symmetry_multiplicity
 _atom_site_fract_x
 _atom_site_fract_y
 _atom_site_fract_z
 _atom_site_occupancy
  Ba  Ba0  1  0.33333300  0.66666700  0.48335900  1
  Ba  Ba1  1  0.66666700  0.33333300  0.51664100  1
  Ba  Ba2  1  0.66666700  0.33333300  0.98335900  1
  Ba  Ba3  1  0.00000000  0.00000000  0.00000000  1
  Ba  Ba4  1  0.33333300  0.66666700  0.01664100  1
  Ba  Ba5  1  0.00000000  0.00000000  0.50000000  1
  Hg  Hg0  1  0.66673200  0.98718600  0.75000000  1
  Hg  Hg1  1  0.01281400  0.67954600  0.75000000  1
  Hg  Hg2  1  0.67954600  0.66673200  0.25000000  1
  Hg  Hg3  1  0.32045400  0.33326800  0.75000000  1
  Hg  Hg4  1  0.98718600  0.32045400  0.25000000  1
  Hg  Hg5  1  0.33326800  0.01281400  0.25000000  1
  Ru  Ru0  1  0.65766300  0.98738300  0.25000000  1
  Ru  Ru1  1  0.98738300  0.32972000  0.75000000  1
  Ru  Ru2  1  0.34233700  0.01261700  0.75000000  1
  Ru  Ru3  1  0.01261700  0.67028000  0.25000000  1
  Ru  Ru4  1  0.32972000  0.34233700  0.25000000  1
  Ru  Ru5  1  0.67028000  0.65766300  0.75000000  1
  O  O0  1  0.09078800  0.20816400  0.75000000  1
  O  O1  1  0.24304100  0.35094400  0.42633900  1
  O  O2  1  0.57063000  0.11971200  0.75000000  1
  O  O3  1  0.33673900  0.83641400  0.75000000  1
  O  O4  1  0.64905600  0.89209700  0.07366100  1
  O  O5  1  0.64905600  0.89209700  0.42633900  1
  O  O6  1  0.75695900  0.64905600  0.92633900  1
  O  O7  1  0.16358600  0.50032500  0.75000000  1
  O  O8  1  0.50032500  0.33673900  0.25000000  1
  O  O9  1  0.79183600  0.88262400  0.75000000  1
  O  O10  1  0.35094400  0.10790300  0.92633900  1
  O  O11  1  0.89209700  0.24304100  0.57366100  1
  O  O12  1  0.89209700  0.24304100  0.92633900  1
  O  O13  1  0.10790300  0.75695900  0.42633900  1
  O  O14  1  0.90921200  0.79183600  0.25000000  1
  O  O15  1  0.83641400  0.49967500  0.25000000  1
  O  O16  1  0.88262400  0.09078800  0.25000000  1
  O  O17  1  0.88028800  0.45091800  0.75000000  1
  O  O18  1  0.35094400  0.10790300  0.57366100  1
  O  O19  1  0.42937000  0.88028800  0.25000000  1
  O  O20  1  0.11737600  0.90921200  0.75000000  1
  O  O21  1  0.49967500  0.66326100  0.75000000  1
  O  O22  1  0.45091800  0.57063000  0.25000000  1
  O  O23  1  0.75695900  0.64905600  0.57366100  1
  O  O24  1  0.24304100  0.35094400  0.07366100  1
  O  O25  1  0.10790300  0.75695900  0.07366100  1
  O  O26  1  0.54908200  0.42937000  0.75000000  1
  O  O27  1  0.66326100  0.16358600  0.25000000  1
  O  O28  1  0.11971200  0.54908200  0.25000000  1
  O  O29  1  0.20816400  0.11737600  0.25000000  1
loop_
_geom_bond_atom_site_label_1
_geom_bond_atom_site_label_2
_geom_bond_distance
_geom_bond_site_symmetry_2
Ba0 O19 2.781560 1_555
Ba0 O28 2.781560 1_555
Ba0 O22 2.781567 1_555
Ba0 O3 2.884261 1_555
Ba0 O7 2.884264 1_555
Ba0 O21 2.884267 1_555
Ba0 O13 2.960633 1_555
Ba0 O5 2.960641 1_555
Ba0 O1 2.960643 1_555
Ba1 O2 2.781560 1_555
Ba1 O17 2.781560 1_555
Ba1 O26 2.781567 1_555
Ba1 O27 2.884261 1_555
Ba1 O15 2.884264 1_555
Ba1 O8 2.884267 1_555
Ba1 O11 2.960633 1_555
Ba1 O18 2.960641 1_555
Ba1 O23 2.960643 1_555
Ba2 O2 2.781560 1_555
Ba2 O17 2.781560 1_555
Ba2 O26 2.781567 1_555
Ba2 O27 2.884261 1_556
Ba2 O15 2.884264 1_556
Ba2 O8 2.884267 1_556
Ba2 O12 2.960633 1_555
Ba2 O10 2.960641 1_555
Ba2 O6 2.960643 1_555
Ba3 O9 2.855849 1_444
Ba3 O29 2.855849 1_555
Ba3 O14 2.855849 1_445
Ba3 O0 2.855849 1_554
Ba3 O20 2.855849 1_544
Ba3 O16 2.855849 1_455
Ba3 O24 3.289270 1_555
Ba3 O6 3.289270 1_444
Ba3 O10 3.289270 1_554
Ba3 O4 3.289270 1_445
Ba3 O25 3.289270 1_545
Ba3 O12 3.289270 1_454
Ba4 O19 2.781560 1_555
Ba4 O28 2.781560 1_555
Ba4 O22 2.781567 1_555
Ba4 O3 2.884261 1_554
Ba4 O7 2.884264 1_554
Ba4 O21 2.884267 1_554
Ba4 O25 2.960633 1_555
Ba4 O4 2.960641 1_555
Ba4 O24 2.960643 1_555
Ba5 O9 2.855849 1_445
Ba5 O29 2.855849 1_555
Ba5 O14 2.855849 1_445
Ba5 O0 2.855849 1_555
Ba5 O20 2.855849 1_545
Ba5 O16 2.855849 1_455
Ba5 O1 3.289270 1_555
Ba5 O23 3.289270 1_445
Ba5 O18 3.289270 1_555
Ba5 O5 3.289270 1_445
Ba5 O13 3.289270 1_545
Ba5 O11 3.289270 1_455
Hg0 O2 2.061090 1_565
Hg0 O9 2.064491 1_555
Hg1 O17 2.061089 1_455
Hg1 O20 2.064491 1_555
Hg2 O22 2.061089 1_555
Hg2 O14 2.064491 1_555
Hg3 O26 2.061089 1_555
Hg3 O0 2.064491 1_555
Hg4 O28 2.061089 1_655
Hg4 O16 2.064491 1_555
Hg5 O19 2.061090 1_545
Hg5 O29 2.064491 1_555
O0 Ru1 2.021696 1_455
O1 Ru4 1.790626 1_555
O2 Ru2 2.050721 1_555
O3 Ru2 1.798192 1_565
O4 Ru0 1.790626 1_555
O5 Ru0 1.790626 1_555
O6 Ru5 1.790626 1_555
O7 Ru1 1.798192 1_455
O8 Ru4 1.798192 1_555
O9 Ru5 2.021696 1_555
O10 Ru2 1.790626 1_555
O11 Ru1 1.790626 1_555
O12 Ru1 1.790626 1_555
O13 Ru3 1.790626 1_555
O14 Ru3 2.021696 1_655
O15 Ru3 1.798192 1_655
O16 Ru0 2.021696 1_545
O17 Ru1 2.050721 1_555
O18 Ru2 1.790626 1_555
O19 Ru0 2.050721 1_555
O20 Ru2 2.021696 1_565
O21 Ru5 1.798192 1_555
O22 Ru4 2.050721 1_555
O23 Ru5 1.790626 1_555
O24 Ru4 1.790626 1_555
O25 Ru3 1.790626 1_555
O26 Ru5 2.050721 1_555
O27 Ru0 1.798192 1_545
O28 Ru3 2.050721 1_555
O29 Ru4 2.021696 1_555
