# generated using pymatgen
data_KCr2FeO8
_symmetry_space_group_name_H-M   'P 1'
_cell_length_a   5.55765160
_cell_length_b   9.21189461
_cell_length_c   8.89218017
_cell_angle_alpha   64.87931165
_cell_angle_beta   90.00174184
_cell_angle_gamma   107.55287153
_symmetry_Int_Tables_number   1
_chemical_formula_structural   KCr2FeO8
_chemical_formula_sum   'K2 Cr4 Fe2 O16'
_cell_volume   388.65298091
_cell_formula_units_Z   2
loop_
 _symmetry_equiv_pos_site_id
 _symmetry_equiv_pos_as_xyz
  1  'x, y, z'
loop_
 _atom_site_type_symbol
 _atom_site_label
 _atom_site_symmetry_multiplicity
 _atom_site_fract_x
 _atom_site_fract_y
 _atom_site_fract_z
 _atom_site_occupancy
  K  K0  1  0.50001800  0.99993100  0.50008000  1
  K  K1  1  0.99999900  0.00002500  0.99997500  1
  Cr  Cr0  1  0.64700000  0.29389300  0.98465200  1
  Cr  Cr1  1  0.14678200  0.29371800  0.48453300  1
  Cr  Cr2  1  0.85306900  0.70618000  0.51534700  1
  Cr  Cr3  1  0.35315600  0.70627500  0.01536600  1
  Fe  Fe0  1  0.75025900  0.50003100  0.25016000  1
  Fe  Fe1  1  0.24996600  0.49993500  0.74998900  1
  O  O0  1  0.55100900  0.10199800  0.13641000  1
  O  O1  1  0.05081900  0.10178700  0.63617300  1
  O  O2  1  0.94902100  0.89802600  0.36363500  1
  O  O3  1  0.44908800  0.89821200  0.86379200  1
  O  O4  1  0.71841900  0.43689600  0.05931600  1
  O  O5  1  0.21821000  0.43659400  0.55933600  1
  O  O6  1  0.78157600  0.56312900  0.44075100  1
  O  O7  1  0.28177200  0.56344800  0.94050800  1
  O  O8  1  0.90962200  0.31928000  0.86731500  1
  O  O9  1  0.40945800  0.31931000  0.36719800  1
  O  O10  1  0.59042000  0.68067600  0.63269200  1
  O  O11  1  0.09039400  0.68071700  0.13279000  1
  O  O12  1  0.40987200  0.31935900  0.86720000  1
  O  O13  1  0.90980600  0.31927900  0.36716500  1
  O  O14  1  0.09011800  0.68064000  0.63277400  1
  O  O15  1  0.59014900  0.68066100  0.13284200  1
loop_
_geom_bond_atom_site_label_1
_geom_bond_atom_site_label_2
_geom_bond_distance
_geom_bond_site_symmetry_2
K0 O10 2.870334 1_555
K0 O13 2.871381 1_565
K0 O14 2.871408 1_555
K0 O9 2.871733 1_565
K0 O0 2.946132 1_565
K0 O3 2.947057 1_555
K0 O1 3.308622 1_665
K0 O1 3.309758 1_565
K0 O2 3.310667 1_555
K0 O2 3.311131 1_455
K1 O8 2.870256 1_555
K1 O11 2.870713 1_646
K1 O12 2.871560 1_655
K1 O15 2.871648 1_546
K1 O2 2.946157 1_546
K1 O1 2.947757 1_655
K1 O3 3.309370 1_645
K1 O3 3.309461 1_545
K1 O0 3.310980 1_556
K1 O0 3.311249 1_656
Cr0 O0 1.623671 1_556
Cr0 O4 1.661592 1_556
Cr0 O8 1.691357 1_555
Cr0 O12 1.691442 1_555
Cr1 O1 1.623496 1_555
Cr1 O5 1.661460 1_555
Cr1 O13 1.690429 1_455
Cr1 O9 1.690870 1_555
Cr2 O2 1.623233 1_555
Cr2 O6 1.661540 1_555
Cr2 O14 1.691034 1_655
Cr2 O10 1.691107 1_555
Cr3 O3 1.623315 1_554
Cr3 O7 1.661419 1_554
Cr3 O15 1.691098 1_555
Cr3 O11 1.691824 1_555
Fe0 O6 2.003932 1_555
Fe0 O4 2.006324 1_555
Fe0 O11 2.015061 1_655
Fe0 O13 2.015140 1_555
Fe0 O15 2.016930 1_555
Fe0 O9 2.017226 1_555
Fe1 O7 2.005694 1_555
Fe1 O5 2.005860 1_555
Fe1 O12 2.015622 1_555
Fe1 O8 2.015704 1_455
Fe1 O14 2.016283 1_555
Fe1 O10 2.016338 1_555
