# generated using pymatgen
data_Pr3Pt4
_symmetry_space_group_name_H-M   'P 1'
_cell_length_a   8.19249366
_cell_length_b   8.19249418
_cell_length_c   8.19249311
_cell_angle_alpha   114.57392599
_cell_angle_beta   114.57391752
_cell_angle_gamma   114.57391537
_symmetry_Int_Tables_number   1
_chemical_formula_structural   Pr3Pt4
_chemical_formula_sum   'Pr6 Pt8'
_cell_volume   319.35172685
_cell_formula_units_Z   2
loop_
 _symmetry_equiv_pos_site_id
 _symmetry_equiv_pos_as_xyz
  1  'x, y, z'
loop_
 _atom_site_type_symbol
 _atom_site_label
 _atom_site_symmetry_multiplicity
 _atom_site_fract_x
 _atom_site_fract_y
 _atom_site_fract_z
 _atom_site_occupancy
  Pr  Pr0  1  0.71662377  0.59498473  0.96935614  1
  Pr  Pr1  1  0.96935614  0.71662377  0.59498473  1
  Pr  Pr2  1  0.03064386  0.28337623  0.40501527  1
  Pr  Pr3  1  0.28337623  0.40501527  0.03064386  1
  Pr  Pr4  1  0.59498473  0.96935614  0.71662377  1
  Pr  Pr5  1  0.40501527  0.03064386  0.28337623  1
  Pt  Pt0  1  0.05763216  0.55813709  0.22102577  1
  Pt  Pt1  1  0.55813709  0.22102577  0.05763216  1
  Pt  Pt2  1  0.22102577  0.05763216  0.55813709  1
  Pt  Pt3  1  0.50000000  0.50000000  0.50000000  1
  Pt  Pt4  1  0.77897423  0.94236784  0.44186291  1
  Pt  Pt5  1  0.94236784  0.44186291  0.77897423  1
  Pt  Pt6  1  0.44186291  0.77897423  0.94236784  1
  Pt  Pt7  1  0.00000000  0.00000000  0.00000000  1
loop_
_geom_bond_atom_site_label_1
_geom_bond_atom_site_label_2
_geom_bond_distance
_geom_bond_site_symmetry_2
Pr0 Pt0 2.928350 1_656
Pr0 Pt2 2.938718 1_555
Pr0 Pt7 2.979564 1_666
Pr0 Pt3 3.037680 1_555
Pr0 Pt2 3.145966 1_666
Pr0 Pt6 3.173819 1_555
Pr0 Pt5 3.182459 1_555
Pr0 Pt1 3.303054 1_556
Pr0 Pt4 3.365760 1_556
Pr0 Pr3 3.579114 1_556
Pr1 Pt2 2.928350 1_665
Pr1 Pt1 2.938718 1_555
Pr1 Pt7 2.979564 1_666
Pr1 Pt3 3.037680 1_555
Pr1 Pt1 3.145967 1_666
Pr1 Pt5 3.173819 1_555
Pr1 Pt4 3.182459 1_555
Pr1 Pt0 3.303053 1_655
Pr1 Pt6 3.365760 1_655
Pr1 Pr2 3.579114 1_655
Pr2 Pt4 2.928350 1_445
Pr2 Pt6 2.938718 1_555
Pr2 Pt7 2.979564 1_555
Pr2 Pt3 3.037680 1_555
Pr2 Pt6 3.145967 1_444
Pr2 Pt0 3.173819 1_555
Pr2 Pt2 3.182459 1_555
Pr2 Pt5 3.303053 1_455
Pr2 Pt1 3.365760 1_455
Pr3 Pt5 2.928350 1_454
Pr3 Pt4 2.938718 1_555
Pr3 Pt7 2.979564 1_555
Pr3 Pt3 3.037680 1_555
Pr3 Pt4 3.145966 1_444
Pr3 Pt1 3.173819 1_555
Pr3 Pt0 3.182459 1_555
Pr3 Pt6 3.303054 1_554
Pr3 Pt2 3.365760 1_554
Pr4 Pt1 2.928350 1_566
Pr4 Pt0 2.938718 1_555
Pr4 Pt7 2.979564 1_666
Pr4 Pt3 3.037680 1_555
Pr4 Pt0 3.145967 1_666
Pr4 Pt4 3.173819 1_555
Pr4 Pt6 3.182459 1_555
Pr4 Pt2 3.303054 1_565
Pr4 Pt5 3.365761 1_565
Pr4 Pr5 3.579114 1_565
Pr5 Pt6 2.928350 1_544
Pr5 Pt5 2.938718 1_555
Pr5 Pt7 2.979564 1_555
Pr5 Pt3 3.037680 1_555
Pr5 Pt5 3.145967 1_444
Pr5 Pt2 3.173819 1_555
Pr5 Pt1 3.182459 1_555
Pr5 Pt4 3.303054 1_545
Pr5 Pt0 3.365761 1_545
Pt0 Pt5 2.907336 1_454
Pt0 Pt2 3.022244 1_565
Pt0 Pt1 3.022244 1_455
Pt1 Pt6 2.907336 1_544
Pt1 Pt2 3.022244 1_554
Pt2 Pt4 2.907336 1_445
Pt3 Pt7 2.910350 1_666
Pt3 Pt7 2.910350 1_555
Pt4 Pt6 3.022244 1_554
Pt4 Pt5 3.022244 1_565
Pt5 Pt6 3.022244 1_655
