# generated using pymatgen
data_MgAl2O4
_symmetry_space_group_name_H-M   'P 1'
_cell_length_a   5.70726513
_cell_length_b   5.70726513
_cell_length_c   27.99881732
_cell_angle_alpha   90.00000000
_cell_angle_beta   90.00000000
_cell_angle_gamma   120.00000100
_symmetry_Int_Tables_number   1
_chemical_formula_structural   MgAl2O4
_chemical_formula_sum   'Mg12 Al24 O48'
_cell_volume   789.81687749
_cell_formula_units_Z   12
loop_
 _symmetry_equiv_pos_site_id
 _symmetry_equiv_pos_as_xyz
  1  'x, y, z'
loop_
 _atom_site_type_symbol
 _atom_site_label
 _atom_site_symmetry_multiplicity
 _atom_site_fract_x
 _atom_site_fract_y
 _atom_site_fract_z
 _atom_site_occupancy
  Mg  Mg0  1  0.33333300  0.66666700  0.97720318  1
  Mg  Mg1  1  0.66666700  0.33333300  0.99908732  1
  Mg  Mg2  1  0.66666700  0.33333300  0.80987974  1
  Mg  Mg3  1  0.00000000  0.00000000  0.83160370  1
  Mg  Mg4  1  0.00000000  0.00000000  0.64524083  1
  Mg  Mg5  1  0.33333300  0.66666700  0.47951667  1
  Mg  Mg6  1  0.66666700  0.33333300  0.68939428  1
  Mg  Mg7  1  0.66666700  0.33333300  0.31266995  1
  Mg  Mg8  1  0.00000000  0.00000000  0.52111494  1
  Mg  Mg9  1  0.00000000  0.00000000  0.14580256  1
  Mg  Mg10  1  0.33333300  0.66666700  0.35446012  1
  Mg  Mg11  1  0.66666700  0.33333300  0.18707934  1
  Al  Al0  1  0.82886088  0.65772276  0.91664096  1
  Al  Al1  1  0.82886088  0.17113912  0.91664096  1
  Al  Al2  1  0.16397399  0.32794697  0.74960651  1
  Al  Al3  1  0.34227724  0.17113912  0.91664096  1
  Al  Al4  1  0.16397399  0.83602601  0.74960651  1
  Al  Al5  1  0.33333300  0.66666700  0.85647556  1
  Al  Al6  1  0.33333300  0.66666700  0.66702063  1
  Al  Al7  1  0.49993752  0.99987505  0.58376362  1
  Al  Al8  1  0.67205303  0.83602601  0.74960651  1
  Al  Al9  1  0.49993752  0.50006248  0.58376362  1
  Al  Al10  1  0.66666700  0.33333300  0.50044910  1
  Al  Al11  1  0.83317015  0.66633930  0.41690481  1
  Al  Al12  1  0.00012495  0.50006248  0.58376362  1
  Al  Al13  1  0.83317015  0.16682985  0.41690481  1
  Al  Al14  1  0.66730503  0.83365251  0.25026796  1
  Al  Al15  1  0.00000000  0.00000000  0.33374198  1
  Al  Al16  1  0.16634749  0.33269497  0.25026796  1
  Al  Al17  1  0.33366070  0.16682985  0.41690481  1
  Al  Al18  1  0.16634749  0.83365251  0.25026796  1
  Al  Al19  1  0.00480666  0.50240333  0.08372738  1
  Al  Al20  1  0.33333300  0.66666700  0.16755136  1
  Al  Al21  1  0.49759667  0.99519334  0.08372738  1
  Al  Al22  1  0.49759667  0.50240333  0.08372738  1
  Al  Al23  1  0.00000000  0.00000000  0.02144553  1
  O  O0  1  0.51396106  0.48603894  0.95340512  1
  O  O1  1  0.66666700  0.33333300  0.88006246  1
  O  O2  1  0.51396106  0.02792211  0.95340512  1
  O  O3  1  0.97207789  0.48603894  0.95340512  1
  O  O4  1  0.84629610  0.15370390  0.78542326  1
  O  O5  1  0.68004871  0.84002486  0.87935549  1
  O  O6  1  0.00000000  0.00000000  0.95595629  1
  O  O7  1  0.15997514  0.31995129  0.87935549  1
  O  O8  1  0.00000000  0.00000000  0.71342873  1
  O  O9  1  0.84629610  0.69259220  0.78542326  1
  O  O10  1  0.15997514  0.84002486  0.87935549  1
  O  O11  1  0.30740780  0.15370390  0.78542326  1
  O  O12  1  0.18500867  0.81499133  0.62250097  1
  O  O13  1  0.04171729  0.52085915  0.71100547  1
  O  O14  1  0.47914085  0.95828271  0.71100547  1
  O  O15  1  0.33333300  0.66666700  0.79154186  1
  O  O16  1  0.33333300  0.66666700  0.54844537  1
  O  O17  1  0.18500867  0.37001835  0.62250097  1
  O  O18  1  0.47914085  0.52085915  0.71100547  1
  O  O19  1  0.62998165  0.81499133  0.62250097  1
  O  O20  1  0.51808367  0.48191633  0.45588322  1
  O  O21  1  0.37015016  0.18507558  0.54393861  1
  O  O22  1  0.81492442  0.62984984  0.54393861  1
  O  O23  1  0.51808367  0.03616835  0.45588322  1
  O  O24  1  0.66666700  0.33333300  0.61882720  1
  O  O25  1  0.66666700  0.33333300  0.38173121  1
  O  O26  1  0.81492442  0.18507558  0.54393861  1
  O  O27  1  0.96383165  0.48191633  0.45588322  1
  O  O28  1  0.85150033  0.14849967  0.28921433  1
  O  O29  1  0.70329345  0.85164672  0.37709432  1
  O  O30  1  0.00000000  0.00000000  0.21498310  1
  O  O31  1  0.14835328  0.29670655  0.37709432  1
  O  O32  1  0.00000000  0.00000000  0.45143659  1
  O  O33  1  0.85150033  0.70299966  0.28921433  1
  O  O34  1  0.14835328  0.85164672  0.37709432  1
  O  O35  1  0.29700034  0.14849967  0.28921433  1
  O  O36  1  0.18583735  0.81416265  0.12335210  1
  O  O37  1  0.03565673  0.51782837  0.21051517  1
  O  O38  1  0.48217163  0.96434327  0.21051517  1
  O  O39  1  0.33333300  0.66666700  0.28471772  1
  O  O40  1  0.33333300  0.66666700  0.04815149  1
  O  O41  1  0.18583735  0.37167470  0.12335210  1
  O  O42  1  0.48217163  0.51782837  0.21051517  1
  O  O43  1  0.62832530  0.81416265  0.12335210  1
  O  O44  1  0.33945789  0.16972895  0.04569586  1
  O  O45  1  0.83027105  0.66054211  0.04569586  1
  O  O46  1  0.66666700  0.33333300  0.11609668  1
  O  O47  1  0.83027105  0.16972895  0.04569586  1
loop_
_geom_bond_atom_site_label_1
_geom_bond_atom_site_label_2
_geom_bond_distance
_geom_bond_site_symmetry_2
Mg0 O2 1.905827 1_565
Mg0 O3 1.905827 1_455
Mg0 O0 1.905832 1_555
Mg0 O40 1.986469 1_556
Mg1 O2 1.978550 1_555
Mg1 O3 1.978550 1_555
Mg1 O0 1.978553 1_555
Mg1 O47 2.078112 1_556
Mg1 O44 2.078115 1_556
Mg1 O45 2.078115 1_556
Mg2 O4 1.903138 1_555
Mg2 O9 1.903143 1_555
Mg2 O11 1.903143 1_555
Mg2 O1 1.965033 1_555
Mg3 O9 1.995103 1_445
Mg3 O11 1.995103 1_555
Mg3 O4 1.995103 1_455
Mg3 O10 2.070838 1_545
Mg3 O5 2.070842 1_445
Mg3 O7 2.070842 1_555
Mg4 O8 1.909181 1_555
Mg4 O12 1.936519 1_545
Mg4 O17 1.936524 1_555
Mg4 O19 1.936524 1_445
Mg5 O16 1.929922 1_555
Mg5 O20 1.942491 1_555
Mg5 O27 1.942491 1_455
Mg5 O23 1.942491 1_565
Mg6 O13 1.949993 1_655
Mg6 O14 1.949993 1_545
Mg6 O18 1.950003 1_555
Mg6 O24 1.975795 1_555
Mg7 O25 1.933634 1_555
Mg7 O33 1.941569 1_555
Mg7 O35 1.941569 1_555
Mg7 O28 1.941569 1_555
Mg8 O21 1.937912 1_555
Mg8 O22 1.937912 1_445
Mg8 O26 1.937916 1_455
Mg8 O32 1.950911 1_555
Mg9 O30 1.936973 1_555
Mg9 O41 1.941619 1_555
Mg9 O43 1.941619 1_445
Mg9 O36 1.941619 1_545
Mg10 O34 1.935278 1_555
Mg10 O31 1.935283 1_555
Mg10 O29 1.935283 1_555
Mg10 O39 1.952705 1_555
Mg11 O37 1.938233 1_655
Mg11 O38 1.938233 1_545
Mg11 O42 1.938238 1_555
Mg11 O46 1.987431 1_555
Al0 O0 1.867795 1_555
Al0 O3 1.867799 1_555
Al0 O1 1.902523 1_555
Al0 O10 1.943540 1_655
Al0 O5 1.943540 1_555
Al0 O6 2.018353 1_665
Al1 O3 1.867795 1_555
Al1 O2 1.867795 1_555
Al1 O1 1.902515 1_555
Al1 O5 1.943540 1_545
Al1 O7 1.943540 1_655
Al1 O6 2.018357 1_655
Al2 O11 1.865154 1_555
Al2 O4 1.865158 1_455
Al2 O18 1.906659 1_555
Al2 O13 1.906667 1_555
Al2 O8 1.911394 1_555
Al2 O15 2.044860 1_555
Al3 O0 1.867795 1_555
Al3 O2 1.867799 1_555
Al3 O1 1.902523 1_555
Al3 O10 1.943540 1_545
Al3 O7 1.943540 1_555
Al3 O6 2.018353 1_555
Al4 O11 1.865158 1_565
Al4 O9 1.865158 1_455
Al4 O13 1.906658 1_555
Al4 O14 1.906658 1_555
Al4 O8 1.911398 1_565
Al4 O15 2.044851 1_555
Al5 O15 1.818067 1_555
Al5 O7 1.829512 1_555
Al5 O5 1.829512 1_555
Al5 O10 1.829512 1_555
Al6 O18 1.895822 1_555
Al6 O14 1.895822 1_555
Al6 O13 1.895822 1_555
Al6 O19 1.924468 1_555
Al6 O17 1.924468 1_555
Al6 O12 1.924468 1_555
Al7 O19 1.903620 1_555
Al7 O12 1.903624 1_555
Al7 O24 1.918397 1_565
Al7 O16 1.920997 1_555
Al7 O26 1.921505 1_565
Al7 O21 1.921508 1_565
Al8 O9 1.865154 1_555
Al8 O4 1.865158 1_565
Al8 O18 1.906659 1_555
Al8 O14 1.906667 1_555
Al8 O8 1.911394 1_665
Al8 O15 2.044860 1_555
Al9 O17 1.903624 1_555
Al9 O19 1.903624 1_555
Al9 O24 1.918401 1_555
Al9 O16 1.921001 1_555
Al9 O22 1.921504 1_555
Al9 O21 1.921504 1_555
Al10 O26 1.905404 1_555
Al10 O21 1.905412 1_555
Al10 O22 1.905412 1_555
Al10 O23 1.927249 1_555
Al10 O27 1.927249 1_555
Al10 O20 1.927257 1_555
Al11 O27 1.907856 1_555
Al11 O20 1.907863 1_555
Al11 O32 1.911684 1_665
Al11 O25 1.918059 1_555
Al11 O34 1.922059 1_655
Al11 O29 1.922063 1_555
Al12 O17 1.903620 1_555
Al12 O12 1.903624 1_555
Al12 O24 1.918397 1_455
Al12 O16 1.920997 1_555
Al12 O26 1.921505 1_455
Al12 O22 1.921508 1_455
Al13 O27 1.907864 1_555
Al13 O23 1.907864 1_555
Al13 O32 1.911680 1_655
Al13 O25 1.918059 1_555
Al13 O31 1.922058 1_655
Al13 O29 1.922058 1_545
Al14 O28 1.906335 1_565
Al14 O33 1.906339 1_555
Al14 O39 1.911852 1_555
Al14 O30 1.918341 1_665
Al14 O42 1.923463 1_555
Al14 O38 1.923463 1_555
Al15 O29 1.903682 1_445
Al15 O31 1.903682 1_555
Al15 O34 1.903682 1_545
Al15 O28 1.925934 1_455
Al15 O33 1.925937 1_445
Al15 O35 1.925937 1_555
Al16 O28 1.906335 1_455
Al16 O35 1.906339 1_555
Al16 O39 1.911852 1_555
Al16 O30 1.918341 1_555
Al16 O42 1.923463 1_555
Al16 O37 1.923463 1_555
Al17 O23 1.907856 1_555
Al17 O20 1.907863 1_555
Al17 O32 1.911684 1_555
Al17 O25 1.918059 1_555
Al17 O34 1.922059 1_545
Al17 O31 1.922063 1_555
Al18 O33 1.906334 1_455
Al18 O35 1.906334 1_565
Al18 O39 1.911848 1_555
Al18 O30 1.918341 1_565
Al18 O37 1.923463 1_555
Al18 O38 1.923463 1_555
Al19 O46 1.901219 1_455
Al19 O36 1.904176 1_555
Al19 O41 1.904176 1_555
Al19 O40 1.904957 1_555
Al19 O47 1.959529 1_455
Al19 O45 1.959529 1_455
Al20 O37 1.900472 1_555
Al20 O38 1.900472 1_555
Al20 O42 1.900476 1_555
Al20 O36 1.912417 1_555
Al20 O43 1.912421 1_555
Al20 O41 1.912421 1_555
Al21 O46 1.901219 1_565
Al21 O36 1.904176 1_555
Al21 O43 1.904176 1_555
Al21 O40 1.904957 1_555
Al21 O47 1.959529 1_565
Al21 O44 1.959529 1_565
Al22 O46 1.901223 1_555
Al22 O43 1.904176 1_555
Al22 O41 1.904176 1_555
Al22 O40 1.904962 1_555
Al22 O45 1.959529 1_555
Al22 O44 1.959529 1_555
Al23 O44 1.809996 1_555
Al23 O45 1.809996 1_445
Al23 O47 1.809996 1_455
Al23 O6 1.833621 1_554
