# generated using pymatgen
data_Ag5Te2Cl
_symmetry_space_group_name_H-M   'P 1'
_cell_length_a   7.79291500
_cell_length_b   19.71865900
_cell_length_c   19.89901005
_cell_angle_alpha   89.96826404
_cell_angle_beta   90.00000000
_cell_angle_gamma   90.00000000
_symmetry_Int_Tables_number   1
_chemical_formula_structural   Ag5Te2Cl
_chemical_formula_sum   'Ag80 Te32 Cl16'
_cell_volume   3057.79749650
_cell_formula_units_Z   16
loop_
 _symmetry_equiv_pos_site_id
 _symmetry_equiv_pos_as_xyz
  1  'x, y, z'
loop_
 _atom_site_type_symbol
 _atom_site_label
 _atom_site_symmetry_multiplicity
 _atom_site_fract_x
 _atom_site_fract_y
 _atom_site_fract_z
 _atom_site_occupancy
  Ag  Ag0  1  0.00991300  0.86790200  0.73677400  1
  Ag  Ag1  1  0.12453800  0.98797600  0.08921600  1
  Ag  Ag2  1  0.75562400  0.20488000  0.59179700  1
  Ag  Ag3  1  0.25562400  0.79512000  0.90820300  1
  Ag  Ag4  1  0.10828700  0.93226100  0.49990800  1
  Ag  Ag5  1  0.87546200  0.01202400  0.91078400  1
  Ag  Ag6  1  0.85777900  0.43719100  0.68213000  1
  Ag  Ag7  1  0.78724500  0.71855300  0.07726600  1
  Ag  Ag8  1  0.94997900  0.83398200  0.59496900  1
  Ag  Ag9  1  0.11476300  0.83400300  0.23449500  1
  Ag  Ag10  1  0.99132200  0.38578300  0.23668100  1
  Ag  Ag11  1  0.35530500  0.06788600  0.31348500  1
  Ag  Ag12  1  0.09016700  0.25900100  0.16982500  1
  Ag  Ag13  1  0.40983300  0.25900100  0.66982500  1
  Ag  Ag14  1  0.64222100  0.43719100  0.18213000  1
  Ag  Ag15  1  0.49008700  0.86790200  0.23677400  1
  Ag  Ag16  1  0.57952100  0.31041300  0.52167100  1
  Ag  Ag17  1  0.97937800  0.49154900  0.12974400  1
  Ag  Ag18  1  0.25542100  0.18132300  0.53049400  1
  Ag  Ag19  1  0.56364600  0.28376500  0.98831700  1
  Ag  Ag20  1  0.43635400  0.71623500  0.01168300  1
  Ag  Ag21  1  0.99008700  0.13209800  0.26322600  1
  Ag  Ag22  1  0.35777900  0.56280900  0.81787000  1
  Ag  Ag23  1  0.74437600  0.20488000  0.09179700  1
  Ag  Ag24  1  0.55002100  0.83398200  0.09496900  1
  Ag  Ag25  1  0.01568200  0.01939300  0.36788400  1
  Ag  Ag26  1  0.47937800  0.50845100  0.37025600  1
  Ag  Ag27  1  0.49132200  0.61421700  0.26331900  1
  Ag  Ag28  1  0.62852100  0.65934200  0.76483300  1
  Ag  Ag29  1  0.28724500  0.28144700  0.42273400  1
  Ag  Ag30  1  0.38523700  0.83400300  0.73449500  1
  Ag  Ag31  1  0.11172300  0.49845600  0.58139500  1
  Ag  Ag32  1  0.64469500  0.93211400  0.68651500  1
  Ag  Ag33  1  0.75542100  0.81867700  0.96950600  1
  Ag  Ag34  1  0.61172300  0.50154400  0.91860500  1
  Ag  Ag35  1  0.24457900  0.18132300  0.03049400  1
  Ag  Ag36  1  0.92047900  0.31041300  0.02167100  1
  Ag  Ag37  1  0.89171300  0.06773900  0.50009200  1
  Ag  Ag38  1  0.98431800  0.98060700  0.63211600  1
  Ag  Ag39  1  0.37546200  0.98797600  0.58921600  1
  Ag  Ag40  1  0.02062200  0.50845100  0.87025600  1
  Ag  Ag41  1  0.90983300  0.74099900  0.83017500  1
  Ag  Ag42  1  0.21275500  0.28144700  0.92273400  1
  Ag  Ag43  1  0.74457900  0.81867700  0.46950600  1
  Ag  Ag44  1  0.52062200  0.49154900  0.62974400  1
  Ag  Ag45  1  0.62453800  0.01202400  0.41078400  1
  Ag  Ag46  1  0.38827700  0.49845600  0.08139500  1
  Ag  Ag47  1  0.88827700  0.50154400  0.41860500  1
  Ag  Ag48  1  0.88841700  0.56162500  0.99959900  1
  Ag  Ag49  1  0.50867800  0.38578300  0.73668100  1
  Ag  Ag50  1  0.37147900  0.34065800  0.23516700  1
  Ag  Ag51  1  0.06364600  0.71623500  0.51168300  1
  Ag  Ag52  1  0.71275500  0.71855300  0.57726600  1
  Ag  Ag53  1  0.51568200  0.98060700  0.13211600  1
  Ag  Ag54  1  0.59016700  0.74099900  0.33017500  1
  Ag  Ag55  1  0.61476300  0.16599700  0.26550500  1
  Ag  Ag56  1  0.12852100  0.34065800  0.73516700  1
  Ag  Ag57  1  0.39171300  0.93226100  0.99990800  1
  Ag  Ag58  1  0.80869600  0.26698700  0.34123000  1
  Ag  Ag59  1  0.93635400  0.28376500  0.48831700  1
  Ag  Ag60  1  0.07952100  0.68958700  0.97832900  1
  Ag  Ag61  1  0.05002100  0.16601800  0.40503100  1
  Ag  Ag62  1  0.61158300  0.56162500  0.49959900  1
  Ag  Ag63  1  0.87147900  0.65934200  0.26483300  1
  Ag  Ag64  1  0.88523700  0.16599700  0.76550500  1
  Ag  Ag65  1  0.19130400  0.73301300  0.65877000  1
  Ag  Ag66  1  0.48431800  0.01939300  0.86788400  1
  Ag  Ag67  1  0.50991300  0.13209800  0.76322600  1
  Ag  Ag68  1  0.38841700  0.43837500  0.50040100  1
  Ag  Ag69  1  0.14222100  0.56280900  0.31787000  1
  Ag  Ag70  1  0.85530500  0.93211400  0.18651500  1
  Ag  Ag71  1  0.69130400  0.26698700  0.84123000  1
  Ag  Ag72  1  0.14469500  0.06788600  0.81348500  1
  Ag  Ag73  1  0.00867800  0.61421700  0.76331900  1
  Ag  Ag74  1  0.11158300  0.43837500  0.00040100  1
  Ag  Ag75  1  0.60828700  0.06773900  0.00009200  1
  Ag  Ag76  1  0.24437600  0.79512000  0.40820300  1
  Ag  Ag77  1  0.30869600  0.73301300  0.15877000  1
  Ag  Ag78  1  0.44997900  0.16601800  0.90503100  1
  Ag  Ag79  1  0.42047900  0.68958700  0.47832900  1
  Te  Te0  1  0.72877500  0.43679500  0.04157000  1
  Te  Te1  1  0.73197600  0.52571000  0.78585700  1
  Te  Te2  1  0.71628400  0.94578900  0.54022300  1
  Te  Te3  1  0.76250800  0.03308900  0.77895200  1
  Te  Te4  1  0.77379300  0.67822300  0.43794900  1
  Te  Te5  1  0.77099700  0.29185300  0.70448100  1
  Te  Te6  1  0.26250800  0.96691100  0.72104800  1
  Te  Te7  1  0.22746700  0.21265400  0.79552800  1
  Te  Te8  1  0.23197600  0.47429000  0.71414300  1
  Te  Te9  1  0.72746700  0.78734600  0.70447200  1
  Te  Te10  1  0.19586300  0.81527700  0.05028600  1
  Te  Te11  1  0.77122500  0.43679500  0.54157000  1
  Te  Te12  1  0.77253300  0.78734600  0.20447200  1
  Te  Te13  1  0.76802400  0.52571000  0.28585700  1
  Te  Te14  1  0.72620700  0.67822300  0.93794900  1
  Te  Te15  1  0.72900300  0.29185300  0.20448100  1
  Te  Te16  1  0.27253300  0.21265400  0.29552900  1
  Te  Te17  1  0.26802400  0.47429000  0.21414300  1
  Te  Te18  1  0.30413700  0.81527700  0.55028600  1
  Te  Te19  1  0.27122500  0.56320500  0.95843000  1
  Te  Te20  1  0.73749200  0.03308900  0.27895200  1
  Te  Te21  1  0.22620700  0.32177700  0.56205100  1
  Te  Te22  1  0.23749200  0.96691100  0.22104800  1
  Te  Te23  1  0.22900300  0.70814700  0.29551900  1
  Te  Te24  1  0.21628400  0.05421100  0.95977700  1
  Te  Te25  1  0.80413700  0.18472300  0.94971400  1
  Te  Te26  1  0.27099700  0.70814700  0.79551900  1
  Te  Te27  1  0.27379300  0.32177700  0.06205100  1
  Te  Te28  1  0.69586300  0.18472300  0.44971400  1
  Te  Te29  1  0.28371600  0.05421100  0.45977700  1
  Te  Te30  1  0.78371600  0.94578900  0.04022300  1
  Te  Te31  1  0.22877500  0.56320500  0.45843000  1
  Cl  Cl0  1  0.98629300  0.36996700  0.87238200  1
  Cl  Cl1  1  0.98660700  0.87683100  0.87477100  1
  Cl  Cl2  1  0.01186700  0.37456300  0.37692200  1
  Cl  Cl3  1  0.51319000  0.87866600  0.87922200  1
  Cl  Cl4  1  0.48660700  0.12316900  0.62522900  1
  Cl  Cl5  1  0.48813300  0.37456300  0.87692200  1
  Cl  Cl6  1  0.51186700  0.62543700  0.12307800  1
  Cl  Cl7  1  0.48681000  0.12133400  0.12077800  1
  Cl  Cl8  1  0.01370700  0.63003300  0.12761800  1
  Cl  Cl9  1  0.98681000  0.87866600  0.37922200  1
  Cl  Cl10  1  0.51370700  0.36996700  0.37238200  1
  Cl  Cl11  1  0.98813300  0.62543700  0.62307800  1
  Cl  Cl12  1  0.48629300  0.63003300  0.62761800  1
  Cl  Cl13  1  0.01339300  0.12316900  0.12522900  1
  Cl  Cl14  1  0.51339300  0.87683100  0.37477100  1
  Cl  Cl15  1  0.01319000  0.12133400  0.62077800  1
loop_
_geom_bond_atom_site_label_1
_geom_bond_atom_site_label_2
_geom_bond_distance
_geom_bond_site_symmetry_2
Ag0 Cl1 2.757727 1_455
Ag0 Te9 2.789665 1_455
Ag0 Te6 2.789914 1_555
Ag0 Ag8 2.937694 1_455
Ag0 Ag30 3.000626 1_555
Ag0 Ag32 3.271446 1_455
Ag1 Te22 2.797855 1_555
Ag1 Cl13 2.893526 1_565
Ag1 Te30 2.949183 1_455
Ag1 Te24 2.974480 1_564
Ag1 Ag70 3.059697 1_455
Ag2 Cl15 2.659758 1_655
Ag2 Cl4 2.726254 1_555
Ag2 Te5 2.826255 1_555
Ag2 Te28 2.893061 1_555
Ag3 Cl3 2.659758 1_555
Ag3 Cl1 2.726254 1_455
Ag3 Te26 2.826255 1_555
Ag3 Ag60 2.856190 1_555
Ag3 Te10 2.893061 1_556
Ag4 Cl9 2.789839 1_455
Ag4 Te29 2.878731 1_565
Ag4 Te18 2.941595 1_555
Ag4 Ag8 2.975182 1_455
Ag4 Te2 3.169708 1_455
Ag5 Te3 2.797855 1_555
Ag5 Cl1 2.893526 1_545
Ag5 Te24 2.949183 1_655
Ag5 Te30 2.974480 1_546
Ag5 Ag72 3.059697 1_655
Ag6 Te1 2.876138 1_555
Ag6 Te11 2.877200 1_555
Ag6 Te5 2.977747 1_555
Ag6 Te8 3.073276 1_655
Ag7 Cl8 2.676424 1_655
Ag7 Te12 2.874787 1_555
Ag7 Te14 2.923459 1_554
Ag7 Cl6 2.967463 1_555
Ag8 Te18 2.923040 1_655
Ag8 Te9 2.932287 1_555
Ag8 Te2 3.059638 1_555
Ag9 Te22 2.802495 1_555
Ag9 Te12 2.883865 1_455
Ag9 Te23 2.902187 1_555
Ag9 Cl9 3.172800 1_455
Ag10 Cl2 2.803866 1_655
Ag10 Te17 2.809951 1_655
Ag10 Te15 2.832189 1_555
Ag10 Ag14 3.099338 1_555
Ag10 Te13 3.406125 1_555
Ag11 Te22 2.862662 1_545
Ag11 Te16 2.948139 1_555
Ag11 Ag55 2.956429 1_555
Ag11 Te29 2.976136 1_555
Ag11 Ag25 3.014922 1_555
Ag11 Ag45 3.059697 1_555
Ag11 Te20 3.132747 1_555
Ag11 Ag21 3.271446 1_455
Ag12 Te27 2.859432 1_555
Ag12 Cl13 2.884797 1_555
Ag12 Te15 2.969383 1_455
Ag12 Te16 3.018164 1_555
Ag12 Ag36 3.385923 1_455
Ag13 Te21 2.859432 1_555
Ag13 Cl4 2.884797 1_555
Ag13 Te5 2.969383 1_555
Ag13 Te7 3.018147 1_555
Ag13 Ag16 3.385923 1_555
Ag14 Te13 2.876138 1_555
Ag14 Te0 2.877200 1_555
Ag14 Te15 2.977747 1_555
Ag14 Ag17 3.022869 1_555
Ag14 Ag50 3.030920 1_555
Ag14 Ag46 3.064500 1_555
Ag14 Te17 3.073276 1_555
Ag15 Cl14 2.757727 1_555
Ag15 Te12 2.789665 1_555
Ag15 Te22 2.789914 1_555
Ag15 Ag24 2.937694 1_555
Ag15 Ag9 3.000626 1_555
Ag15 Ag70 3.271446 1_555
Ag16 Ag2 2.856190 1_555
Ag16 Te21 2.876973 1_555
Ag16 Ag59 2.906835 1_555
Ag16 Te11 2.932610 1_555
Ag16 Ag68 2.960166 1_555
Ag16 Te28 3.003140 1_555
Ag16 Ag29 3.064521 1_555
Ag16 Cl10 3.234703 1_555
Ag17 Cl8 2.744095 1_655
Ag17 Te17 2.827638 1_655
Ag17 Te0 2.839060 1_555
Ag17 Ag74 2.964500 1_655
Ag17 Ag48 3.019061 1_554
Ag18 Cl4 2.848176 1_555
Ag18 Te21 2.849310 1_555
Ag18 Cl15 2.861450 1_555
Ag18 Te29 2.883603 1_555
Ag18 Ag61 2.981107 1_555
Ag19 Te27 2.796067 1_556
Ag19 Te25 2.813929 1_555
Ag19 Ag36 2.906835 1_556
Ag19 Cl5 2.908783 1_555
Ag19 Ag78 2.987706 1_555
Ag19 Te0 3.447898 1_556
Ag20 Te14 2.796067 1_554
Ag20 Te10 2.813929 1_555
Ag20 Ag60 2.906835 1_554
Ag20 Cl6 2.908783 1_555
Ag20 Ag24 2.987706 1_555
Ag20 Te19 3.447898 1_554
Ag21 Cl13 2.757727 1_655
Ag21 Te16 2.789670 1_655
Ag21 Te20 2.789914 1_555
Ag21 Ag61 2.937694 1_655
Ag21 Ag55 3.000626 1_555
Ag22 Te8 2.876138 1_555
Ag22 Te19 2.877200 1_555
Ag22 Te26 2.977747 1_555
Ag22 Ag40 3.022869 1_555
Ag22 Ag28 3.030920 1_555
Ag22 Ag34 3.064500 1_555
Ag22 Te1 3.073276 1_555
Ag22 Ag73 3.099338 1_555
Ag23 Cl7 2.659758 1_555
Ag23 Cl13 2.726254 1_655
Ag23 Te15 2.826255 1_555
Ag23 Ag36 2.856190 1_555
Ag23 Te25 2.893061 1_554
Ag24 Te10 2.923040 1_555
Ag24 Te12 2.932287 1_555
Ag24 Ag7 2.953507 1_555
Ag24 Ag57 2.975182 1_554
Ag24 Ag33 2.981107 1_554
Ag24 Ag53 2.996614 1_555
Ag24 Ag77 3.018236 1_555
Ag24 Te30 3.059638 1_555
Ag25 Cl9 2.793057 1_445
Ag25 Te20 2.811394 1_455
Ag25 Te29 2.859967 1_555
Ag25 Ag61 2.996614 1_555
Ag26 Cl10 2.744095 1_555
Ag26 Te13 2.827638 1_555
Ag26 Te31 2.839060 1_555
Ag26 Ag62 2.964500 1_555
Ag26 Ag68 3.019061 1_555
Ag26 Ag69 3.022869 1_555
Ag27 Cl6 2.803866 1_555
Ag27 Te13 2.809951 1_555
Ag27 Te23 2.832189 1_555
Ag27 Ag69 3.099338 1_555
Ag27 Te17 3.406125 1_555
Ag28 Te1 2.786977 1_555
Ag28 Te9 2.899106 1_555
Ag28 Cl12 3.003258 1_555
Ag28 Te26 3.010368 1_555
Ag29 Cl10 2.676424 1_555
Ag29 Te16 2.874770 1_555
Ag29 Te21 2.923459 1_555
Ag29 Ag61 2.953507 1_555
Ag29 Cl2 2.967463 1_555
Ag30 Te6 2.802495 1_555
Ag30 Te9 2.883865 1_555
Ag30 Te26 2.902187 1_555
Ag30 Ag65 2.919519 1_555
Ag30 Ag32 2.956429 1_555
Ag30 Cl3 3.172800 1_555
Ag31 Cl11 2.808450 1_455
Ag31 Te8 2.842830 1_555
Ag31 Te31 2.906193 1_555
Ag31 Ag68 2.941543 1_555
Ag31 Te11 3.024624 1_455
Ag31 Ag6 3.064500 1_455
Ag32 Te3 2.862662 1_565
Ag32 Te9 2.948142 1_555
Ag32 Te2 2.976136 1_555
Ag32 Ag38 3.014922 1_555
Ag32 Ag39 3.059697 1_555
Ag32 Te6 3.132747 1_555
Ag33 Cl1 2.848176 1_555
Ag33 Te14 2.849310 1_555
Ag33 Cl3 2.861450 1_555
Ag33 Te30 2.883603 1_556
Ag34 Cl5 2.808450 1_555
Ag34 Te1 2.842830 1_555
Ag34 Te0 2.906193 1_556
Ag34 Ag48 2.941543 1_555
Ag34 Te19 3.024624 1_555
Ag35 Cl13 2.848176 1_555
Ag35 Te27 2.849310 1_555
Ag35 Cl7 2.861450 1_555
Ag35 Te24 2.883603 1_554
Ag35 Ag78 2.981107 1_554
Ag36 Te27 2.876973 1_655
Ag36 Te0 2.932610 1_555
Ag36 Ag74 2.960166 1_655
Ag36 Te25 3.003140 1_554
Ag36 Ag42 3.064521 1_654
Ag36 Cl0 3.234703 1_554
Ag37 Cl15 2.789839 1_655
Ag37 Te2 2.878731 1_545
Ag37 Te28 2.941595 1_555
Ag37 Ag61 2.975182 1_655
Ag37 Te29 3.169708 1_655
Ag38 Cl15 2.793057 1_665
Ag38 Te6 2.811394 1_655
Ag38 Te2 2.859967 1_555
Ag38 Ag8 2.996614 1_555
Ag39 Te6 2.797855 1_555
Ag39 Cl4 2.893526 1_565
Ag39 Te2 2.949183 1_555
Ag39 Te29 2.974480 1_565
Ag40 Cl0 2.744095 1_455
Ag40 Te1 2.827638 1_455
Ag40 Te19 2.839060 1_555
Ag40 Ag48 2.964500 1_455
Ag40 Ag74 3.019061 1_556
Ag41 Te14 2.859432 1_555
Ag41 Cl1 2.884797 1_555
Ag41 Te26 2.969383 1_655
Ag41 Te9 3.018147 1_555
Ag41 Ag60 3.385923 1_655
Ag42 Cl0 2.676424 1_455
Ag42 Te7 2.874787 1_555
Ag42 Te27 2.923459 1_556
Ag42 Ag78 2.953507 1_555
Ag42 Cl5 2.967463 1_555
Ag43 Cl14 2.848176 1_555
Ag43 Te4 2.849310 1_555
Ag43 Cl9 2.861450 1_555
Ag43 Te2 2.883603 1_555
Ag43 Ag8 2.981107 1_555
Ag44 Cl12 2.744095 1_555
Ag44 Te8 2.827638 1_555
Ag44 Te11 2.839060 1_555
Ag44 Ag68 2.964500 1_555
Ag44 Ag62 3.019061 1_555
Ag44 Ag6 3.022869 1_555
Ag45 Te20 2.797855 1_555
Ag45 Cl14 2.893526 1_545
Ag45 Te29 2.949183 1_555
Ag45 Te2 2.974480 1_545
Ag46 Cl6 2.808450 1_555
Ag46 Te17 2.842830 1_555
Ag46 Te19 2.906193 1_554
Ag46 Ag74 2.941543 1_555
Ag46 Te0 3.024624 1_555
Ag47 Cl2 2.808450 1_655
Ag47 Te13 2.842830 1_555
Ag47 Te11 2.906193 1_555
Ag47 Ag62 2.941543 1_555
Ag47 Te31 3.024624 1_655
Ag47 Ag69 3.064500 1_655
Ag48 Te0 2.881295 1_556
Ag48 Te14 2.895840 1_555
Ag48 Ag60 2.960166 1_655
Ag48 Ag74 2.988512 1_656
Ag48 Cl8 3.044042 1_656
Ag48 Te19 3.093783 1_655
Ag49 Cl5 2.803866 1_555
Ag49 Te8 2.809951 1_555
Ag49 Te5 2.832189 1_555
Ag49 Ag6 3.099338 1_555
Ag49 Te1 3.406125 1_555
Ag50 Te17 2.786977 1_555
Ag50 Te16 2.899114 1_555
Ag50 Cl10 3.003258 1_555
Ag50 Te15 3.010368 1_555
Ag51 Te4 2.796067 1_455
Ag51 Te18 2.813929 1_555
Ag51 Ag79 2.906835 1_555
Ag51 Cl11 2.908783 1_455
Ag51 Ag8 2.987706 1_455
Ag51 Te31 3.447898 1_555
Ag52 Cl12 2.676424 1_555
Ag52 Te9 2.874787 1_555
Ag52 Te4 2.923459 1_555
Ag52 Ag8 2.953507 1_555
Ag52 Cl11 2.967463 1_555
Ag52 Ag79 3.064521 1_555
Ag53 Cl7 2.793057 1_565
Ag53 Te22 2.811394 1_555
Ag53 Te30 2.859967 1_555
Ag53 Ag70 3.014922 1_555
Ag54 Te4 2.859432 1_555
Ag54 Cl14 2.884797 1_555
Ag54 Te23 2.969383 1_555
Ag54 Te12 3.018147 1_555
Ag54 Ag79 3.385923 1_555
Ag55 Te20 2.802495 1_555
Ag55 Te16 2.883869 1_555
Ag55 Te15 2.902187 1_555
Ag55 Ag58 2.919519 1_555
Ag55 Cl7 3.172800 1_555
Ag56 Te8 2.786977 1_555
Ag56 Te7 2.899106 1_555
Ag56 Cl0 3.003258 1_455
Ag56 Te5 3.010368 1_455
Ag56 Ag6 3.030920 1_455
Ag57 Cl3 2.789839 1_555
Ag57 Te24 2.878731 1_565
Ag57 Te10 2.941595 1_556
Ag57 Te30 3.169708 1_556
Ag58 Cl2 2.740920 1_655
Ag58 Te15 2.833619 1_555
Ag58 Te28 2.839137 1_555
Ag58 Ag61 3.018236 1_655
Ag58 Cl10 3.129489 1_555
Ag59 Te21 2.796067 1_655
Ag59 Te28 2.813929 1_555
Ag59 Cl2 2.908783 1_655
Ag59 Ag61 2.987706 1_655
Ag59 Te11 3.447898 1_555
Ag60 Te14 2.876973 1_455
Ag60 Te19 2.932610 1_555
Ag60 Te10 3.003140 1_556
Ag60 Ag7 3.064521 1_456
Ag60 Cl8 3.234703 1_556
Ag61 Te28 2.923040 1_455
Ag61 Te16 2.932272 1_555
Ag61 Te29 3.059638 1_555
Ag62 Te11 2.881295 1_555
Ag62 Te4 2.895840 1_555
Ag62 Ag79 2.960166 1_555
Ag62 Ag68 2.988512 1_555
Ag62 Cl12 3.044042 1_555
Ag62 Te31 3.093783 1_555
Ag63 Te13 2.786977 1_555
Ag63 Te12 2.899106 1_555
Ag63 Cl8 3.003258 1_655
Ag63 Te23 3.010368 1_655
Ag63 Ag69 3.030920 1_655
Ag64 Te3 2.802495 1_555
Ag64 Te7 2.883865 1_655
Ag64 Te5 2.902187 1_555
Ag64 Ag71 2.919519 1_555
Ag64 Ag72 2.956429 1_655
Ag64 Ag67 3.000626 1_555
Ag64 Cl15 3.172800 1_655
Ag65 Cl11 2.740920 1_455
Ag65 Te26 2.833619 1_555
Ag65 Te18 2.839137 1_555
Ag65 Ag8 3.018236 1_455
Ag65 Cl12 3.129489 1_555
Ag66 Cl3 2.793057 1_545
Ag66 Te3 2.811394 1_555
Ag66 Te24 2.859967 1_555
Ag66 Ag78 2.996614 1_555
Ag66 Ag72 3.014922 1_555
Ag67 Cl4 2.757727 1_555
Ag67 Te7 2.789665 1_555
Ag67 Te3 2.789914 1_555
Ag67 Ag78 2.937694 1_555
Ag67 Ag72 3.271446 1_555
Ag68 Te31 2.881295 1_555
Ag68 Te21 2.895840 1_555
Ag68 Cl10 3.044042 1_555
Ag68 Te11 3.093783 1_555
Ag69 Te17 2.876138 1_555
Ag69 Te31 2.877200 1_555
Ag69 Te23 2.977747 1_555
Ag69 Te13 3.073276 1_455
Ag70 Te20 2.862662 1_565
Ag70 Te12 2.948142 1_555
Ag70 Ag9 2.956429 1_655
Ag70 Te30 2.976136 1_555
Ag70 Te22 3.132747 1_655
Ag71 Cl5 2.740920 1_555
Ag71 Te5 2.833619 1_555
Ag71 Te25 2.839137 1_555
Ag71 Ag78 3.018236 1_555
Ag71 Cl0 3.129489 1_555
Ag72 Te6 2.862662 1_545
Ag72 Te7 2.948142 1_555
Ag72 Te24 2.976136 1_555
Ag72 Te3 3.132747 1_455
Ag73 Cl11 2.803866 1_455
Ag73 Te1 2.809951 1_455
Ag73 Te26 2.832189 1_555
Ag73 Te8 3.406125 1_555
Ag74 Te19 2.881295 1_554
Ag74 Te27 2.895840 1_555
Ag74 Cl0 3.044042 1_454
Ag74 Te0 3.093783 1_455
Ag75 Cl7 2.789839 1_555
Ag75 Te30 2.878731 1_545
Ag75 Te25 2.941595 1_554
Ag75 Ag78 2.975182 1_554
Ag75 Te24 3.169708 1_554
Ag76 Cl9 2.659758 1_455
Ag76 Cl14 2.726254 1_555
Ag76 Te23 2.826255 1_555
Ag76 Ag79 2.856190 1_555
Ag76 Te18 2.893061 1_555
Ag77 Cl6 2.740920 1_555
Ag77 Te23 2.833619 1_555
Ag77 Te10 2.839137 1_555
Ag77 Ag9 2.919519 1_555
Ag77 Cl8 3.129489 1_555
Ag78 Te25 2.923040 1_555
Ag78 Te7 2.932287 1_555
Ag78 Te24 3.059638 1_555
Ag79 Te4 2.876973 1_555
Ag79 Te31 2.932610 1_555
Ag79 Te18 3.003140 1_555
Ag79 Cl12 3.234703 1_555
