# generated using pymatgen
data_KTiPS5
_symmetry_space_group_name_H-M   'P 1'
_cell_length_a   9.68504082
_cell_length_b   9.68504082
_cell_length_c   6.57846743
_cell_angle_alpha   81.95474068
_cell_angle_beta   81.95474068
_cell_angle_gamma   43.45228601
_symmetry_Int_Tables_number   1
_chemical_formula_structural   KTiPS5
_chemical_formula_sum   'K2 Ti2 P2 S10'
_cell_volume   419.53952158
_cell_formula_units_Z   2
loop_
 _symmetry_equiv_pos_site_id
 _symmetry_equiv_pos_as_xyz
  1  'x, y, z'
loop_
 _atom_site_type_symbol
 _atom_site_label
 _atom_site_symmetry_multiplicity
 _atom_site_fract_x
 _atom_site_fract_y
 _atom_site_fract_z
 _atom_site_occupancy
  K  K0  1  0.76903400  0.76903400  0.73468200  1
  K  K1  1  0.23096600  0.23096600  0.26531800  1
  Ti  Ti0  1  0.77813800  0.22186200  0.50000000  1
  Ti  Ti1  1  0.22186200  0.77813800  0.50000000  1
  P  P0  1  0.36808100  0.36808100  0.70813800  1
  P  P1  1  0.63191900  0.63191900  0.29186200  1
  S  S0  1  0.81744900  0.35306200  0.17677000  1
  S  S1  1  0.74434500  0.74434500  0.24516900  1
  S  S2  1  0.18255100  0.64693800  0.82323000  1
  S  S3  1  0.41602000  0.41602000  0.39888600  1
  S  S4  1  0.64693800  0.18255100  0.82323000  1
  S  S5  1  0.93993700  0.93993700  0.33094700  1
  S  S6  1  0.06006300  0.06006300  0.66905300  1
  S  S7  1  0.58398000  0.58398000  0.60111400  1
  S  S8  1  0.35306200  0.81744900  0.17677000  1
  S  S9  1  0.25565500  0.25565500  0.75483100  1
loop_
_geom_bond_atom_site_label_1
_geom_bond_atom_site_label_2
_geom_bond_distance
_geom_bond_site_symmetry_2
K0 S1 3.316385 1_555
K0 S1 3.320464 1_556
K0 S2 3.370658 1_655
K0 S4 3.370658 1_565
K0 S7 3.569563 1_555
K0 S9 3.594299 1_565
K0 S9 3.594299 1_655
K0 S5 3.748359 1_555
K1 S9 3.316385 1_555
K1 S9 3.320464 1_554
K1 S0 3.370658 1_455
K1 S8 3.370658 1_545
K1 S3 3.569563 1_555
K1 S1 3.594299 1_545
K1 S1 3.594299 1_455
K1 S6 3.748359 1_555
P0 S9 1.999916 1_555
P0 S2 2.059533 1_555
P0 S4 2.059533 1_555
P0 S3 2.086655 1_555
P1 S1 1.999916 1_555
P1 S8 2.059533 1_555
P1 S0 2.059533 1_555
P1 S7 2.086655 1_555
S0 Ti0 2.449587 1_555
S2 Ti1 2.449587 1_555
S3 Ti0 2.646920 1_555
S3 Ti1 2.646920 1_555
S4 Ti0 2.449587 1_555
S5 Ti0 2.301671 1_565
S5 Ti1 2.301671 1_655
S6 Ti0 2.301671 1_455
S6 Ti1 2.301671 1_545
S7 Ti1 2.646920 1_555
S7 Ti0 2.646920 1_555
S8 Ti1 2.449587 1_555
