# generated using pymatgen
data_Sr3Pr10Al12Si18(N2O)18
_symmetry_space_group_name_H-M   'P 1'
_cell_length_a   11.70973373
_cell_length_b   11.70973373
_cell_length_c   11.70921533
_cell_angle_alpha   70.56586440
_cell_angle_beta   70.56586440
_cell_angle_gamma   109.44843388
_symmetry_Int_Tables_number   1
_chemical_formula_structural   Sr3Pr10Al12Si18(N2O)18
_chemical_formula_sum   'Sr3 Pr10 Al12 Si18 N36 O18'
_cell_volume   1237.42394340
_cell_formula_units_Z   1
loop_
 _symmetry_equiv_pos_site_id
 _symmetry_equiv_pos_as_xyz
  1  'x, y, z'
loop_
 _atom_site_type_symbol
 _atom_site_label
 _atom_site_symmetry_multiplicity
 _atom_site_fract_x
 _atom_site_fract_y
 _atom_site_fract_z
 _atom_site_occupancy
  Sr  Sr0  1  0.99906900  0.99906900  0.00085000  1
  Sr  Sr1  1  0.00036300  0.57535100  0.67991300  1
  Sr  Sr2  1  0.57535100  0.00036300  0.67991300  1
  Pr  Pr0  1  0.67467500  0.67467500  0.74807700  1
  Pr  Pr1  1  0.57564500  0.32386500  0.99867800  1
  Pr  Pr2  1  0.67569000  0.24953100  0.32967600  1
  Pr  Pr3  1  0.75046400  0.42620400  0.57829500  1
  Pr  Pr4  1  0.32421900  0.99851700  0.42492800  1
  Pr  Pr5  1  0.99851700  0.32421900  0.42492800  1
  Pr  Pr6  1  0.42620400  0.75046400  0.57829500  1
  Pr  Pr7  1  0.32386500  0.57564500  0.99867800  1
  Pr  Pr8  1  0.24953100  0.67569000  0.32967600  1
  Pr  Pr9  1  0.42377300  0.42377300  0.25195700  1
  Al  Al0  1  0.16248400  0.16248400  0.59073200  1
  Al  Al1  1  0.75421200  0.75421200  0.40782900  1
  Al  Al2  1  0.40867500  0.16182400  0.83736500  1
  Al  Al3  1  0.99954600  0.83717800  0.75412500  1
  Al  Al4  1  0.75280100  0.58995000  0.24682900  1
  Al  Al5  1  0.24637400  0.00042000  0.16272100  1
  Al  Al6  1  0.83776500  0.24648400  0.99960200  1
  Al  Al7  1  0.16182400  0.40867500  0.83736500  1
  Al  Al8  1  0.00042000  0.24637400  0.16272100  1
  Al  Al9  1  0.24648400  0.83776500  0.99960200  1
  Al  Al10  1  0.58995000  0.75280100  0.24682900  1
  Al  Al11  1  0.83717800  0.99954600  0.75412500  1
  Si  Si0  1  0.30011600  0.30011600  0.99985500  1
  Si  Si1  1  0.16060300  0.16060300  0.30093500  1
  Si  Si2  1  0.46119000  0.46119000  0.69905400  1
  Si  Si3  1  0.69881600  0.69881600  0.00033700  1
  Si  Si4  1  0.46076100  0.30054600  0.53884600  1
  Si  Si5  1  0.99989800  0.83922700  0.46219200  1
  Si  Si6  1  0.69837700  0.15796300  0.84078200  1
  Si  Si7  1  0.83880300  0.53782500  0.00144800  1
  Si  Si8  1  0.99958200  0.29995100  0.69987000  1
  Si  Si9  1  0.29995100  0.99958200  0.69987000  1
  Si  Si10  1  0.00095400  0.70154200  0.29913400  1
  Si  Si11  1  0.15796300  0.69837700  0.84078200  1
  Si  Si12  1  0.00051900  0.53880100  0.16102400  1
  Si  Si13  1  0.53880100  0.00051900  0.16102400  1
  Si  Si14  1  0.30054600  0.46076100  0.53884600  1
  Si  Si15  1  0.70154200  0.00095400  0.29913400  1
  Si  Si16  1  0.53782500  0.83880300  0.00144800  1
  Si  Si17  1  0.83922700  0.99989800  0.46219200  1
  N  N0  1  0.47729600  0.32724600  0.67256300  1
  N  N1  1  0.31109700  0.15720600  0.99999600  1
  N  N2  1  0.69425900  0.54860500  0.00141600  1
  N  N3  1  0.00001900  0.69735000  0.44809600  1
  N  N4  1  0.44832300  0.14570200  0.54979000  1
  N  N5  1  0.14980100  0.00036200  0.32738100  1
  N  N6  1  0.30548800  0.99975600  0.84482800  1
  N  N7  1  0.67211600  0.14990200  0.00054100  1
  N  N8  1  0.85264700  0.30054600  0.69616900  1
  N  N9  1  0.15702500  0.00029000  0.68848600  1
  N  N10  1  0.84727700  0.69074400  0.30812700  1
  N  N11  1  0.84916300  0.52024500  0.15222400  1
  N  N12  1  0.99784100  0.67422400  0.85592000  1
  N  N13  1  0.14570200  0.44832300  0.54979000  1
  N  N14  1  0.99975600  0.30548800  0.84482800  1
  N  N15  1  0.84487900  0.15375800  0.15560000  1
  N  N16  1  0.00414800  0.55340300  0.30234300  1
  N  N17  1  0.30054600  0.85264700  0.69616900  1
  N  N18  1  0.14990200  0.67211600  0.00054100  1
  N  N19  1  0.15375800  0.84487900  0.15560000  1
  N  N20  1  0.55340300  0.00414800  0.30234300  1
  N  N21  1  0.15720600  0.31109700  0.99999600  1
  N  N22  1  0.00036200  0.14980100  0.32738100  1
  N  N23  1  0.32724600  0.47729600  0.67256300  1
  N  N24  1  0.69735000  0.00001900  0.44809600  1
  N  N25  1  0.00029000  0.15702500  0.68848600  1
  N  N26  1  0.69074400  0.84727700  0.30812700  1
  N  N27  1  0.30431500  0.30431500  0.14535600  1
  N  N28  1  0.44851500  0.44851500  0.85487600  1
  N  N29  1  0.52024500  0.84916300  0.15222400  1
  N  N30  1  0.67422400  0.99784100  0.85592000  1
  N  N31  1  0.54860500  0.69425900  0.00141600  1
  N  N32  1  0.85017600  0.85017600  0.47664700  1
  N  N33  1  0.32698700  0.32698700  0.52345100  1
  N  N34  1  0.68740700  0.68740700  0.15458400  1
  N  N35  1  0.84205500  0.84205500  0.84785700  1
  O  O0  1  0.18899700  0.18899700  0.42128200  1
  O  O1  1  0.60967700  0.60967700  0.57619900  1
  O  O2  1  0.57667700  0.18588100  0.81402500  1
  O  O3  1  0.49805300  0.24986700  0.25113000  1
  O  O4  1  0.73459800  0.49389200  0.75495800  1
  O  O5  1  0.00072500  0.81673100  0.60890400  1
  O  O6  1  0.60817100  0.42254500  0.38992600  1
  O  O7  1  0.81164900  0.38946200  0.00058000  1
  O  O8  1  0.39065300  0.00167600  0.18723800  1
  O  O9  1  0.26606600  0.75936400  0.48784100  1
  O  O10  1  0.75936400  0.26606600  0.48784100  1
  O  O11  1  0.00167600  0.39065300  0.18723800  1
  O  O12  1  0.18588100  0.57667700  0.81402500  1
  O  O13  1  0.42254500  0.60817100  0.38992600  1
  O  O14  1  0.38946300  0.81164900  0.00058000  1
  O  O15  1  0.24986700  0.49805300  0.25113000  1
  O  O16  1  0.49389200  0.73459800  0.75495800  1
  O  O17  1  0.81673200  0.00072500  0.60890400  1
loop_
_geom_bond_atom_site_label_1
_geom_bond_atom_site_label_2
_geom_bond_distance
_geom_bond_site_symmetry_2
Al0 O0 1.801534 1_555
Al0 N25 1.828996 1_555
Al0 N9 1.828996 1_555
Al0 N33 1.884456 1_555
Al1 O1 1.807595 1_555
Al1 N10 1.836550 1_555
Al1 N26 1.836550 1_555
Al1 N32 1.881229 1_555
Al2 O2 1.801698 1_555
Al2 N6 1.833450 1_545
Al2 N1 1.837713 1_555
Al2 N0 1.888350 1_555
Al3 O5 1.790659 1_655
Al3 N35 1.836784 1_555
Al3 N9 1.836805 1_665
Al3 N12 1.872820 1_555
Al4 O6 1.798216 1_555
Al4 N10 1.831584 1_555
Al4 N34 1.835051 1_555
Al4 N11 1.884086 1_555
Al5 O8 1.801649 1_555
Al5 N19 1.829283 1_545
Al5 N1 1.833070 1_554
Al5 N5 1.882520 1_555
Al6 O7 1.802246 1_556
Al6 N15 1.834149 1_556
Al6 N14 1.834748 1_555
Al6 N7 1.886354 1_556
Al7 O12 1.801698 1_555
Al7 N14 1.833450 1_455
Al7 N21 1.837713 1_555
Al7 N23 1.888350 1_555
Al8 O11 1.801649 1_555
Al8 N15 1.829283 1_455
Al8 N21 1.833070 1_554
Al8 N22 1.882520 1_555
Al9 O14 1.802257 1_556
Al9 N19 1.834149 1_556
Al9 N6 1.834748 1_555
Al9 N18 1.886354 1_556
Al10 O13 1.798216 1_555
Al10 N26 1.831584 1_555
Al10 N34 1.835051 1_555
Al10 N29 1.884086 1_555
Al11 O17 1.790654 1_565
Al11 N35 1.836784 1_555
Al11 N25 1.836805 1_665
Al11 N30 1.872820 1_555
N0 Si2 1.753174 1_555
N0 Si4 1.753253 1_555
N0 Pr3 2.669085 1_555
N1 Si0 1.720036 1_555
N1 Pr1 3.054078 1_555
N2 Si3 1.737557 1_555
N2 Si7 1.738793 1_555
N2 Pr1 2.550972 1_554
N2 Pr9 2.941940 1_555
N2 Pr0 2.965715 1_554
N3 Si5 1.723713 1_455
N3 Si10 1.724767 1_555
N3 Sr1 2.615240 1_555
N3 Pr8 2.924901 1_555
N3 Pr3 2.929226 1_455
N4 Si4 1.726954 1_555
N4 Si9 1.738432 1_545
N4 Pr2 2.530282 1_555
N4 Pr4 2.939835 1_545
N4 Sr2 2.983083 1_555
N5 Si1 1.749835 1_555
N5 Si5 1.761177 1_445
N5 Pr4 2.653631 1_545
N6 Si9 1.720649 1_555
N6 Sr2 3.103218 1_565
N7 Si13 1.752169 1_555
N7 Si6 1.755901 1_554
N7 Pr1 2.635415 1_554
N8 Si6 1.729991 1_555
N8 Si8 1.737724 1_555
N8 Pr3 2.534110 1_555
N8 Pr5 2.927517 1_555
N8 Sr1 3.008285 1_655
N9 Si9 1.725056 1_545
N9 Pr4 3.066971 1_545
N10 Si10 1.725938 1_655
N10 Pr3 3.105216 1_555
N11 Si12 1.754706 1_655
N11 Si7 1.758203 1_555
N11 Pr2 2.648148 1_555
N12 Si7 1.737610 1_556
N12 Si11 1.737622 1_655
N12 Sr1 2.675576 1_655
N13 Si14 1.726954 1_555
N13 Si8 1.738432 1_455
N13 Pr8 2.530282 1_555
N13 Pr5 2.939835 1_455
N13 Sr1 2.983083 1_555
N14 Si8 1.720649 1_555
N14 Sr1 3.103218 1_655
N15 Si15 1.721973 1_555
N15 Pr2 3.106579 1_555
N16 Si12 1.731884 1_555
N16 Si10 1.735699 1_555
N16 Pr5 2.553944 1_455
N16 Pr8 2.930215 1_555
N16 Pr3 2.991166 1_455
N17 Si11 1.729991 1_555
N17 Si9 1.737724 1_555
N17 Pr6 2.534110 1_555
N17 Pr4 2.927517 1_555
N17 Sr2 3.008285 1_565
N18 Si12 1.752169 1_555
N18 Si11 1.755901 1_554
N18 Pr7 2.635415 1_554
N19 Si10 1.721973 1_555
N19 Pr8 3.106579 1_555
N20 Si13 1.731884 1_555
N20 Si15 1.735699 1_555
N20 Pr4 2.553944 1_545
N20 Pr2 2.930215 1_555
N20 Pr6 2.991166 1_545
N21 Si0 1.720036 1_555
N21 Pr7 3.054078 1_555
N22 Si1 1.749835 1_555
N22 Si17 1.761177 1_445
N22 Pr5 2.653631 1_455
N23 Si2 1.753174 1_555
N23 Si14 1.753253 1_555
N23 Pr6 2.669085 1_555
N24 Si17 1.723713 1_545
N24 Si15 1.724767 1_555
N24 Sr2 2.615240 1_555
N24 Pr2 2.924901 1_555
N24 Pr6 2.929226 1_545
N25 Si8 1.725056 1_455
N25 Pr5 3.066971 1_455
N26 Si15 1.725938 1_565
N26 Pr6 3.105216 1_555
N27 Si1 1.736841 1_555
N27 Si0 1.737042 1_554
N27 Pr9 2.547983 1_555
N27 Pr7 2.952894 1_554
N27 Pr1 2.952894 1_554
N28 Si0 1.727496 1_555
N28 Si2 1.731466 1_555
N28 Pr0 2.551988 1_555
N28 Pr7 2.943007 1_555
N28 Pr1 2.943007 1_555
N29 Si13 1.754706 1_565
N29 Si16 1.758203 1_555
N29 Pr8 2.648148 1_555
N30 Si16 1.737610 1_556
N30 Si6 1.737622 1_565
N30 Sr2 2.675576 1_565
N31 Si3 1.737557 1_555
N31 Si16 1.738793 1_555
N31 Pr7 2.550972 1_554
N31 Pr9 2.941940 1_555
N31 Pr0 2.965715 1_554
N32 Si5 1.756551 1_555
N32 Si17 1.756551 1_555
N32 Pr0 2.653809 1_555
N33 Si14 1.748109 1_555
N33 Si4 1.748109 1_555
N33 Pr9 2.650373 1_555
N34 Si3 1.721836 1_555
N34 Pr9 3.054416 1_555
N35 Si3 1.719107 1_556
N35 Pr0 3.088295 1_555
O0 Si1 1.660361 1_555
O0 Pr9 2.599919 1_555
O0 Pr4 3.133288 1_545
O0 Pr5 3.133288 1_455
O1 Si2 1.665454 1_555
O1 Pr0 2.619509 1_555
O1 Pr3 3.111997 1_555
O1 Pr6 3.111997 1_555
O2 Si6 1.665849 1_555
O2 Pr3 2.637993 1_555
O2 Sr2 3.073963 1_555
O2 Pr1 3.099357 1_555
O3 Pr9 2.467907 1_555
O3 Pr4 2.493113 1_545
O3 Pr1 2.509660 1_554
O3 Pr2 2.539433 1_555
O4 Pr1 2.406050 1_555
O4 Pr3 2.423873 1_555
O4 Pr0 2.427649 1_555
O4 Sr1 2.648120 1_655
O5 Si5 1.652949 1_455
O5 Sr1 2.665749 1_555
O5 Pr4 3.109626 1_555
O5 Pr0 3.134668 1_455
O6 Si4 1.660807 1_555
O6 Pr2 2.621801 1_555
O6 Pr9 3.098214 1_555
O6 Pr3 3.178668 1_555
O7 Si7 1.662960 1_555
O7 Pr1 2.620392 1_554
O7 Sr1 3.091324 1_654
O7 Pr2 3.169752 1_555
O8 Si13 1.663707 1_555
O8 Pr4 2.612300 1_545
O8 Pr1 3.103694 1_554
O8 Pr8 3.132471 1_545
O9 Pr8 2.397321 1_555
O9 Pr4 2.423269 1_555
O9 Pr6 2.455044 1_555
O9 Sr1 2.652493 1_555
O10 Pr2 2.397321 1_555
O10 Pr5 2.423269 1_555
O10 Pr3 2.455044 1_555
O10 Sr2 2.652493 1_555
O11 Si12 1.663707 1_555
O11 Pr5 2.612300 1_455
O11 Pr7 3.103694 1_554
O11 Pr2 3.132471 1_455
O12 Si11 1.665849 1_555
O12 Pr6 2.637993 1_555
O12 Sr1 3.073963 1_555
O12 Pr7 3.099357 1_555
O13 Si14 1.660807 1_555
O13 Pr8 2.621801 1_555
O13 Pr9 3.098214 1_555
O13 Pr6 3.178668 1_555
O14 Si16 1.662948 1_555
O14 Pr7 2.620391 1_554
O14 Sr2 3.091323 1_564
O14 Pr8 3.169751 1_555
O15 Pr9 2.467907 1_555
O15 Pr5 2.493113 1_455
O15 Pr7 2.509660 1_554
O15 Pr8 2.539433 1_555
O16 Pr7 2.406050 1_555
O16 Pr6 2.423873 1_555
O16 Pr0 2.427649 1_555
O16 Sr2 2.648120 1_565
O17 Si17 1.652951 1_545
O17 Sr2 2.665761 1_555
O17 Pr5 3.109625 1_555
O17 Pr0 3.134668 1_545
