# generated using pymatgen
data_Fe2CoO4
_symmetry_space_group_name_H-M   'P 1'
_cell_length_a   6.02139506
_cell_length_b   6.02139597
_cell_length_c   24.13702262
_cell_angle_alpha   59.87240879
_cell_angle_beta   59.87240312
_cell_angle_gamma   60.43564946
_symmetry_Int_Tables_number   1
_chemical_formula_structural   Fe2CoO4
_chemical_formula_sum   'Fe16 Co8 O32'
_cell_volume   619.62174691
_cell_formula_units_Z   8
loop_
 _symmetry_equiv_pos_site_id
 _symmetry_equiv_pos_as_xyz
  1  'x, y, z'
loop_
 _atom_site_type_symbol
 _atom_site_label
 _atom_site_symmetry_multiplicity
 _atom_site_fract_x
 _atom_site_fract_y
 _atom_site_fract_z
 _atom_site_occupancy
  Fe  Fe0  1  0.11420800  0.11420800  0.03202200  1
  Fe  Fe1  1  0.99369600  0.49884600  0.12572100  1
  Fe  Fe2  1  0.12769300  0.12769300  0.27862700  1
  Fe  Fe3  1  0.49479200  0.49479200  0.99941000  1
  Fe  Fe4  1  0.49884600  0.99369600  0.12572100  1
  Fe  Fe5  1  0.99965400  0.50618500  0.37438400  1
  Fe  Fe6  1  0.50769900  0.50769900  0.24759100  1
  Fe  Fe7  1  0.12161700  0.12161700  0.53154100  1
  Fe  Fe8  1  0.50618500  0.99965400  0.37438400  1
  Fe  Fe9  1  0.00011500  0.49962600  0.62520400  1
  Fe  Fe10  1  0.49962600  0.00011500  0.62520400  1
  Fe  Fe11  1  0.11889000  0.11889000  0.78315700  1
  Fe  Fe12  1  0.49885400  0.99617500  0.87579600  1
  Fe  Fe13  1  0.88048500  0.88048500  0.46814800  1
  Fe  Fe14  1  0.87991200  0.87991200  0.71751000  1
  Fe  Fe15  1  0.99617500  0.49885400  0.87579600  1
  Co  Co0  1  0.49971400  0.49971400  0.12591500  1
  Co  Co1  1  0.50316600  0.50316600  0.37410200  1
  Co  Co2  1  0.50140600  0.50140600  0.49922200  1
  Co  Co3  1  0.88099200  0.88099200  0.21918200  1
  Co  Co4  1  0.49999500  0.49999500  0.62491400  1
  Co  Co5  1  0.49855800  0.49855800  0.75075800  1
  Co  Co6  1  0.49950200  0.49950200  0.87517600  1
  Co  Co7  1  0.87599700  0.87599700  0.97026800  1
  O  O0  1  0.25050800  0.25050800  0.06202900  1
  O  O1  1  0.24981200  0.24981200  0.18022500  1
  O  O2  1  0.23977100  0.71988500  0.06624600  1
  O  O3  1  0.71988500  0.23977100  0.06624600  1
  O  O4  1  0.27229400  0.27229400  0.30803200  1
  O  O5  1  0.28428100  0.75307200  0.18438400  1
  O  O6  1  0.74460100  0.74460100  0.07265300  1
  O  O7  1  0.25365500  0.25365500  0.43158800  1
  O  O8  1  0.25491600  0.73713200  0.31253500  1
  O  O9  1  0.75307200  0.28428100  0.18438400  1
  O  O10  1  0.73357000  0.73357000  0.19118300  1
  O  O11  1  0.73713200  0.25491600  0.31253500  1
  O  O12  1  0.25185000  0.25185000  0.56571700  1
  O  O13  1  0.26826800  0.75802600  0.43364100  1
  O  O14  1  0.74762400  0.74762400  0.32079200  1
  O  O15  1  0.25018800  0.25018800  0.68310600  1
  O  O16  1  0.75802600  0.26826800  0.43364100  1
  O  O17  1  0.24970600  0.73281600  0.56416000  1
  O  O18  1  0.75225600  0.75225600  0.43320200  1
  O  O19  1  0.73281600  0.24970600  0.56416000  1
  O  O20  1  0.24797700  0.24797700  0.81752000  1
  O  O21  1  0.26916200  0.75106100  0.68489600  1
  O  O22  1  0.74977700  0.74977700  0.56692600  1
  O  O23  1  0.24591900  0.73082300  0.81601400  1
  O  O24  1  0.75106100  0.26916200  0.68489600  1
  O  O25  1  0.24683700  0.24683700  0.93391700  1
  O  O26  1  0.74940900  0.74940900  0.68329700  1
  O  O27  1  0.73082300  0.24591900  0.81601400  1
  O  O28  1  0.27954300  0.74090000  0.93648100  1
  O  O29  1  0.74090000  0.27954300  0.93648100  1
  O  O30  1  0.75096600  0.75096600  0.81600700  1
  O  O31  1  0.73561600  0.73561600  0.93733700  1
loop_
_geom_bond_atom_site_label_1
_geom_bond_atom_site_label_2
_geom_bond_distance
_geom_bond_site_symmetry_2
Fe0 O25 1.927544 1_554
Fe0 O0 1.931283 1_555
Fe0 O3 1.943760 1_455
Fe0 O2 1.943760 1_545
Fe1 O9 1.929962 1_555
Fe1 O6 1.978840 1_555
Fe1 O2 1.980031 1_655
Fe1 O1 2.032710 1_655
Fe1 O10 2.126117 1_555
Fe1 O0 2.151772 1_655
Fe2 O11 1.925288 1_455
Fe2 O8 1.925288 1_545
Fe2 O1 1.936432 1_555
Fe2 O4 2.002202 1_555
Fe3 O29 2.001093 1_555
Fe3 O28 2.001093 1_555
Fe3 O31 2.040435 1_555
Fe3 O0 2.069594 1_556
Fe3 O2 2.109948 1_556
Fe3 O3 2.109948 1_556
Fe4 O5 1.929962 1_555
Fe4 O6 1.978840 1_555
Fe4 O3 1.980031 1_565
Fe4 O1 2.032710 1_565
Fe4 O10 2.126117 1_555
Fe4 O0 2.151772 1_565
Fe5 O14 1.998879 1_555
Fe5 O16 2.031204 1_555
Fe5 O18 2.059267 1_555
Fe5 O8 2.060760 1_655
Fe5 O7 2.067636 1_655
Fe5 O4 2.141686 1_655
Fe6 O10 1.913330 1_555
Fe6 O4 1.994411 1_555
Fe6 O9 2.038734 1_555
Fe6 O5 2.038734 1_555
Fe6 O8 2.094350 1_555
Fe6 O11 2.094350 1_555
Fe7 O19 1.916519 1_455
Fe7 O17 1.916519 1_545
Fe7 O12 1.953442 1_555
Fe7 O7 1.964037 1_555
Fe8 O14 1.998879 1_555
Fe8 O13 2.031205 1_555
Fe8 O18 2.059267 1_555
Fe8 O11 2.060760 1_565
Fe8 O7 2.067636 1_565
Fe8 O4 2.141686 1_565
Fe9 O24 2.031769 1_455
Fe9 O17 2.045444 1_555
Fe9 O15 2.061578 1_555
Fe9 O26 2.063691 1_455
Fe9 O22 2.068998 1_455
Fe9 O12 2.078267 1_555
Fe10 O21 2.031769 1_545
Fe10 O19 2.045444 1_555
Fe10 O15 2.061578 1_555
Fe10 O26 2.063691 1_545
Fe10 O22 2.068998 1_545
Fe10 O12 2.078267 1_555
Fe11 O27 1.912880 1_455
Fe11 O23 1.912880 1_545
Fe11 O20 1.945979 1_555
Fe11 O15 1.966110 1_555
Fe12 O28 2.013263 1_555
Fe12 O27 2.041018 1_565
Fe12 O25 2.068152 1_565
Fe12 O31 2.068713 1_555
Fe12 O20 2.071560 1_565
Fe12 O30 2.072472 1_555
Fe13 O13 1.911757 1_655
Fe13 O16 1.911757 1_565
Fe13 O22 1.940918 1_555
Fe13 O18 1.949276 1_555
Fe14 O21 1.918757 1_655
Fe14 O24 1.918757 1_565
Fe14 O30 1.935635 1_555
Fe14 O26 1.956818 1_555
Fe15 O29 2.013263 1_555
Fe15 O23 2.041018 1_655
Fe15 O25 2.068152 1_655
Fe15 O31 2.068713 1_555
Fe15 O20 2.071560 1_655
Fe15 O30 2.072472 1_555
Co0 O6 2.083522 1_555
Co0 O9 2.091039 1_555
Co0 O5 2.091039 1_555
Co0 O1 2.126286 1_555
Co0 O2 2.140168 1_555
Co0 O3 2.140168 1_555
Co1 O14 2.079556 1_555
Co1 O16 2.110051 1_555
Co1 O13 2.110051 1_555
Co1 O11 2.116062 1_555
Co1 O8 2.116062 1_555
Co1 O7 2.117019 1_555
Co2 O17 2.102183 1_555
Co2 O19 2.102183 1_555
Co2 O12 2.116161 1_555
Co2 O16 2.121038 1_555
Co2 O13 2.121038 1_555
Co2 O18 2.126324 1_555
Co3 O5 1.987935 1_655
Co3 O9 1.987935 1_565
Co3 O14 1.996741 1_555
Co3 O10 2.003678 1_555
Co4 O24 2.101664 1_555
Co4 O21 2.101664 1_555
Co4 O17 2.111154 1_555
Co4 O19 2.111154 1_555
Co4 O15 2.118709 1_555
Co4 O22 2.118740 1_555
Co5 O24 2.110061 1_555
Co5 O21 2.110061 1_555
Co5 O23 2.111301 1_555
Co5 O27 2.111301 1_555
Co5 O20 2.124846 1_555
Co5 O26 2.127879 1_555
Co6 O29 2.085324 1_555
Co6 O28 2.085324 1_555
Co6 O23 2.098614 1_555
Co6 O27 2.098614 1_555
Co6 O30 2.132100 1_555
Co6 O25 2.143090 1_555
Co7 O28 1.989316 1_655
Co7 O29 1.989316 1_565
Co7 O6 2.012783 1_556
Co7 O31 2.028511 1_555
