# generated using pymatgen
data_SrLiGaN2
_symmetry_space_group_name_H-M   'P 1'
_cell_length_a   5.97786825
_cell_length_b   5.97786825
_cell_length_c   12.74500667
_cell_angle_alpha   89.29676796
_cell_angle_beta   89.29676796
_cell_angle_gamma   118.34307869
_symmetry_Int_Tables_number   1
_chemical_formula_structural   SrLiGaN2
_chemical_formula_sum   'Sr6 Li6 Ga6 N12'
_cell_volume   400.72862904
_cell_formula_units_Z   6
loop_
 _symmetry_equiv_pos_site_id
 _symmetry_equiv_pos_as_xyz
  1  'x, y, z'
loop_
 _atom_site_type_symbol
 _atom_site_label
 _atom_site_symmetry_multiplicity
 _atom_site_fract_x
 _atom_site_fract_y
 _atom_site_fract_z
 _atom_site_occupancy
  Sr  Sr0  1  0.94752600  0.94752600  0.25658600  1
  Sr  Sr1  1  0.82078700  0.17921300  0.50000000  1
  Sr  Sr2  1  0.17921300  0.82078700  0.50000000  1
  Sr  Sr3  1  0.16606000  0.83394000  0.00000000  1
  Sr  Sr4  1  0.83394000  0.16606000  0.00000000  1
  Sr  Sr5  1  0.05247400  0.05247400  0.74341400  1
  Li  Li0  1  0.81289200  0.44710300  0.31800900  1
  Li  Li1  1  0.18710800  0.55289700  0.68199100  1
  Li  Li2  1  0.44710300  0.81289200  0.31800900  1
  Li  Li3  1  0.59495600  0.59495600  0.08111800  1
  Li  Li4  1  0.55289700  0.18710800  0.68199100  1
  Li  Li5  1  0.40504400  0.40504400  0.91888200  1
  Ga  Ga0  1  0.48887900  0.81382200  0.81249800  1
  Ga  Ga1  1  0.81382200  0.48887900  0.81249800  1
  Ga  Ga2  1  0.51112100  0.18617800  0.18750200  1
  Ga  Ga3  1  0.39176600  0.39176600  0.41135200  1
  Ga  Ga4  1  0.60823400  0.60823400  0.58864800  1
  Ga  Ga5  1  0.18617800  0.51112100  0.18750200  1
  N  N0  1  0.45528400  0.13737100  0.34314200  1
  N  N1  1  0.74871900  0.74871900  0.89125100  1
  N  N2  1  0.50322600  0.14741400  0.85096500  1
  N  N3  1  0.25128100  0.25128100  0.10874900  1
  N  N4  1  0.13737100  0.45528400  0.34314200  1
  N  N5  1  0.54471600  0.86262900  0.65685800  1
  N  N6  1  0.85258600  0.49677400  0.14903500  1
  N  N7  1  0.14741400  0.50322600  0.85096500  1
  N  N8  1  0.71937200  0.71937200  0.43311200  1
  N  N9  1  0.28062800  0.28062800  0.56688800  1
  N  N10  1  0.49677400  0.85258600  0.14903500  1
  N  N11  1  0.86262900  0.54471600  0.65685800  1
loop_
_geom_bond_atom_site_label_1
_geom_bond_atom_site_label_2
_geom_bond_distance
_geom_bond_site_symmetry_2
Li0 N4 1.947555 1_655
Li0 N0 2.076324 1_555
Li0 N6 2.164998 1_555
Li0 N8 2.452767 1_555
Li1 N11 1.947555 1_455
Li1 N5 2.076324 1_555
Li1 N7 2.164998 1_555
Li1 N9 2.452767 1_555
Li2 N0 1.947555 1_565
Li2 N4 2.076324 1_555
Li2 N10 2.164998 1_555
Li2 N8 2.452767 1_555
Li3 N6 2.084248 1_555
Li3 N10 2.084248 1_555
Li3 N3 2.126589 1_555
Li3 N1 2.575666 1_554
Li4 N5 1.947555 1_545
Li4 N11 2.076324 1_555
Li4 N2 2.164998 1_555
Li4 N9 2.452767 1_555
Li5 N7 2.084248 1_555
Li5 N2 2.084248 1_555
Li5 N1 2.126589 1_555
Li5 N3 2.575666 1_556
Ga0 N5 2.002101 1_555
Ga0 N2 2.021648 1_565
Ga0 N1 2.043099 1_555
Ga0 N7 2.051549 1_555
Ga1 N11 2.002101 1_555
Ga1 N7 2.021648 1_655
Ga1 N1 2.043099 1_555
Ga1 N2 2.051549 1_555
Ga2 N0 2.002101 1_555
Ga2 N10 2.021648 1_545
Ga2 N3 2.043099 1_555
Ga2 N6 2.051549 1_555
Ga3 N4 1.945556 1_555
Ga3 N0 1.945556 1_555
Ga3 N8 2.032863 1_555
Ga3 N9 2.080520 1_555
Ga4 N5 1.945556 1_555
Ga4 N11 1.945556 1_555
Ga4 N9 2.032863 1_555
Ga4 N8 2.080520 1_555
Ga5 N4 2.002101 1_555
Ga5 N6 2.021648 1_455
Ga5 N3 2.043099 1_555
Ga5 N10 2.051549 1_555
N0 Sr2 2.676259 1_545
N0 Sr1 2.904081 1_555
N0 Sr0 2.925781 1_445
N1 Sr5 2.616457 1_665
N1 Sr3 2.701862 1_656
N1 Sr4 2.701862 1_566
N2 Sr3 2.722918 1_546
N2 Sr4 2.723394 1_556
N2 Sr5 2.849435 1_555
N3 Sr0 2.616457 1_445
N3 Sr3 2.701862 1_545
N3 Sr4 2.701862 1_455
N4 Sr1 2.676259 1_455
N4 Sr2 2.904081 1_555
N4 Sr0 2.925781 1_445
N5 Sr1 2.676259 1_565
N5 Sr2 2.904081 1_555
N5 Sr5 2.925781 1_665
N6 Sr3 2.722918 1_655
N6 Sr4 2.723394 1_555
N6 Sr0 2.849435 1_555
N7 Sr4 2.722918 1_456
N7 Sr3 2.723394 1_556
N7 Sr5 2.849435 1_555
N8 Sr0 2.620145 1_555
N8 Sr1 2.671783 1_565
N8 Sr2 2.671783 1_655
N9 Sr5 2.620145 1_555
N9 Sr2 2.671783 1_545
N9 Sr1 2.671783 1_455
N10 Sr4 2.722918 1_565
N10 Sr3 2.723394 1_555
N10 Sr0 2.849435 1_555
N11 Sr2 2.676259 1_655
N11 Sr1 2.904081 1_555
N11 Sr5 2.925781 1_665
