# generated using pymatgen
data_Tl3AsS3
_symmetry_space_group_name_H-M   'P 1'
_cell_length_a   5.75070934
_cell_length_b   12.48428366
_cell_length_c   21.93855204
_cell_angle_alpha   90.00000000
_cell_angle_beta   90.00000000
_cell_angle_gamma   90.00000000
_symmetry_Int_Tables_number   1
_chemical_formula_structural   Tl3AsS3
_chemical_formula_sum   'Tl24 As8 S24'
_cell_volume   1575.04514293
_cell_formula_units_Z   8
loop_
 _symmetry_equiv_pos_site_id
 _symmetry_equiv_pos_as_xyz
  1  'x, y, z'
loop_
 _atom_site_type_symbol
 _atom_site_label
 _atom_site_symmetry_multiplicity
 _atom_site_fract_x
 _atom_site_fract_y
 _atom_site_fract_z
 _atom_site_occupancy
  Tl  Tl0  1  0.91442226  0.77958664  0.18362659  1
  Tl  Tl1  1  0.41442226  0.72041336  0.81637341  1
  Tl  Tl2  1  0.08130971  0.83330538  0.97564261  1
  Tl  Tl3  1  0.58130971  0.66669462  0.02435739  1
  Tl  Tl4  1  0.91869029  0.33330538  0.52435739  1
  Tl  Tl5  1  0.58557774  0.27958664  0.18362659  1
  Tl  Tl6  1  0.08130971  0.66669462  0.47564261  1
  Tl  Tl7  1  0.58557774  0.22041336  0.68362659  1
  Tl  Tl8  1  0.41869029  0.33330538  0.97564261  1
  Tl  Tl9  1  0.41442226  0.77958664  0.31637341  1
  Tl  Tl10  1  0.58130971  0.83330538  0.52435739  1
  Tl  Tl11  1  0.91442226  0.72041336  0.68362659  1
  Tl  Tl12  1  0.08557774  0.22041336  0.81637341  1
  Tl  Tl13  1  0.95594890  0.93132216  0.80840821  1
  Tl  Tl14  1  0.45594890  0.93132216  0.69159179  1
  Tl  Tl15  1  0.08557774  0.27958664  0.31637341  1
  Tl  Tl16  1  0.04405110  0.43132216  0.69159179  1
  Tl  Tl17  1  0.04405110  0.06867784  0.19159179  1
  Tl  Tl18  1  0.95594890  0.56867784  0.30840821  1
  Tl  Tl19  1  0.91869029  0.16669462  0.02435739  1
  Tl  Tl20  1  0.41869029  0.16669462  0.47564261  1
  Tl  Tl21  1  0.54405110  0.06867784  0.30840821  1
  Tl  Tl22  1  0.54405110  0.43132216  0.80840821  1
  Tl  Tl23  1  0.45594890  0.56867784  0.19159179  1
  As  As0  1  0.45646539  0.54935522  0.58605091  1
  As  As1  1  0.04353461  0.04935522  0.58605091  1
  As  As2  1  0.54353461  0.04935522  0.91394909  1
  As  As3  1  0.04353461  0.45064478  0.08605091  1
  As  As4  1  0.54353461  0.45064478  0.41394909  1
  As  As5  1  0.95646539  0.95064478  0.41394909  1
  As  As6  1  0.95646539  0.54935522  0.91394909  1
  As  As7  1  0.45646539  0.95064478  0.08605091  1
  S  S0  1  0.61334184  0.39533025  0.31772304  1
  S  S1  1  0.61334184  0.10466975  0.81772304  1
  S  S2  1  0.11334184  0.39533025  0.18227696  1
  S  S3  1  0.34982237  0.55368026  0.91557595  1
  S  S4  1  0.88665816  0.89533025  0.31772304  1
  S  S5  1  0.11793887  0.62716031  0.09104347  1
  S  S6  1  0.88206113  0.12716031  0.40895653  1
  S  S7  1  0.11334184  0.10466975  0.68227696  1
  S  S8  1  0.61793887  0.87283969  0.90895653  1
  S  S9  1  0.38206113  0.12716031  0.09104347  1
  S  S10  1  0.65017763  0.05368026  0.58442405  1
  S  S11  1  0.61793887  0.62716031  0.40895653  1
  S  S12  1  0.15017763  0.44631974  0.41557595  1
  S  S13  1  0.15017763  0.05368026  0.91557595  1
  S  S14  1  0.65017763  0.44631974  0.08442405  1
  S  S15  1  0.88206113  0.37283969  0.90895653  1
  S  S16  1  0.38206113  0.37283969  0.59104347  1
  S  S17  1  0.38665816  0.60466975  0.68227696  1
  S  S18  1  0.84982237  0.55368026  0.58442405  1
  S  S19  1  0.38665816  0.89533025  0.18227696  1
  S  S20  1  0.11793887  0.87283969  0.59104347  1
  S  S21  1  0.34982237  0.94631974  0.41557595  1
  S  S22  1  0.84982237  0.94631974  0.08442405  1
  S  S23  1  0.88665816  0.60466975  0.81772304  1
loop_
_geom_bond_atom_site_label_1
_geom_bond_atom_site_label_2
_geom_bond_distance
_geom_bond_site_symmetry_2
As0 S16 2.247496 1_555
As0 S17 2.257123 1_555
As0 S18 2.263007 1_555
As1 S20 2.247496 1_545
As1 S7 2.257123 1_555
As1 S10 2.263007 1_455
As2 S8 2.247496 1_545
As2 S1 2.257123 1_555
As2 S13 2.263007 1_555
As3 S5 2.247496 1_555
As3 S2 2.257123 1_555
As3 S14 2.263007 1_455
As4 S11 2.247496 1_555
As4 S0 2.257123 1_555
As4 S12 2.263007 1_555
As5 S6 2.247496 1_565
As5 S4 2.257123 1_555
As5 S21 2.263007 1_655
As6 S15 2.247496 1_555
As6 S23 2.257123 1_555
As6 S3 2.263007 1_655
As7 S9 2.247496 1_565
As7 S19 2.257123 1_555
As7 S22 2.263007 1_555
S0 Tl18 2.933769 1_555
S0 Tl15 3.076331 1_655
S1 Tl13 2.933769 1_545
S1 Tl12 3.076331 1_655
S2 Tl23 2.933769 1_555
S2 Tl5 3.076331 1_555
S3 Tl22 3.018062 1_555
S3 Tl1 3.034366 1_555
S3 Tl3 3.075419 1_556
S3 Tl8 3.076135 1_555
S4 Tl21 2.933769 1_565
S4 Tl9 3.076331 1_555
S5 Tl0 3.019344 1_455
S5 Tl23 3.029412 1_555
S5 Tl3 3.079714 1_555
S6 Tl15 3.019344 1_655
S6 Tl21 3.029412 1_555
S6 Tl20 3.079714 1_555
S7 Tl14 2.933769 1_545
S7 Tl7 3.076331 1_555
S8 Tl1 3.019344 1_555
S8 Tl13 3.029412 1_555
S8 Tl2 3.079714 1_655
S9 Tl5 3.019344 1_555
S9 Tl17 3.029412 1_555
S9 Tl19 3.079714 1_455
S10 Tl14 3.018062 1_545
S10 Tl7 3.034366 1_555
S10 Tl20 3.075419 1_555
S10 Tl10 3.076135 1_545
S11 Tl9 3.019344 1_555
S11 Tl18 3.029412 1_555
S11 Tl6 3.079714 1_655
S12 Tl18 3.018062 1_455
S12 Tl15 3.034366 1_555
S12 Tl4 3.075419 1_455
S12 Tl6 3.076135 1_555
S13 Tl13 3.018062 1_445
S13 Tl12 3.034366 1_555
S13 Tl19 3.075419 1_456
S13 Tl2 3.076135 1_545
S14 Tl23 3.018062 1_555
S14 Tl5 3.034366 1_555
S14 Tl8 3.075419 1_554
S14 Tl3 3.076135 1_555
S15 Tl12 3.019344 1_655
S15 Tl22 3.029412 1_555
S15 Tl8 3.079714 1_555
S16 Tl7 3.019344 1_555
S16 Tl16 3.029412 1_555
S16 Tl4 3.079714 1_455
S17 Tl16 2.933769 1_555
S17 Tl11 3.076331 1_455
S18 Tl16 3.018062 1_655
S18 Tl11 3.034366 1_555
S18 Tl6 3.075419 1_655
S18 Tl4 3.076135 1_555
S19 Tl17 2.933769 1_565
S19 Tl0 3.076331 1_455
S20 Tl11 3.019344 1_455
S20 Tl14 3.029412 1_555
S20 Tl10 3.079714 1_555
S21 Tl21 3.018062 1_565
S21 Tl9 3.034366 1_555
S21 Tl10 3.075419 1_555
S21 Tl20 3.076135 1_565
S22 Tl17 3.018062 1_665
S22 Tl0 3.034366 1_555
S22 Tl2 3.075419 1_654
S22 Tl19 3.076135 1_565
S23 Tl22 2.933769 1_555
S23 Tl1 3.076331 1_555
