# generated using pymatgen
data_LaNiSnH
_symmetry_space_group_name_H-M   'P 1'
_cell_length_a   4.45404800
_cell_length_b   7.30650800
_cell_length_c   8.67917300
_cell_angle_alpha   90.00000000
_cell_angle_beta   90.00000000
_cell_angle_gamma   90.00000000
_symmetry_Int_Tables_number   1
_chemical_formula_structural   LaNiSnH
_chemical_formula_sum   'La4 Ni4 Sn4 H4'
_cell_volume   282.45099064
_cell_formula_units_Z   4
loop_
 _symmetry_equiv_pos_site_id
 _symmetry_equiv_pos_as_xyz
  1  'x, y, z'
loop_
 _atom_site_type_symbol
 _atom_site_label
 _atom_site_symmetry_multiplicity
 _atom_site_fract_x
 _atom_site_fract_y
 _atom_site_fract_z
 _atom_site_occupancy
  La  La0  1  0.75000000  0.01196200  0.68880100  1
  La  La1  1  0.25000000  0.98803800  0.31119900  1
  La  La2  1  0.25000000  0.48803800  0.18880100  1
  La  La3  1  0.75000000  0.51196200  0.81119900  1
  Ni  Ni0  1  0.75000000  0.78158900  0.09626100  1
  Ni  Ni1  1  0.25000000  0.21841100  0.90373900  1
  Ni  Ni2  1  0.25000000  0.71841100  0.59626100  1
  Ni  Ni3  1  0.75000000  0.28158900  0.40373900  1
  Sn  Sn0  1  0.75000000  0.65543400  0.43389200  1
  Sn  Sn1  1  0.25000000  0.34456600  0.56610800  1
  Sn  Sn2  1  0.25000000  0.84456600  0.93389200  1
  Sn  Sn3  1  0.75000000  0.15543400  0.06610800  1
  H  H0  1  0.25000000  0.43712000  0.91908000  1
  H  H1  1  0.75000000  0.56288000  0.08092000  1
  H  H2  1  0.75000000  0.06288000  0.41908000  1
  H  H3  1  0.25000000  0.93712000  0.58092000  1
loop_
_geom_bond_atom_site_label_1
_geom_bond_atom_site_label_2
_geom_bond_distance
_geom_bond_site_symmetry_2
La0 Sn2 3.313682 1_645
La0 Sn2 3.313682 1_545
La0 Sn0 3.417690 1_545
La0 Sn3 3.438406 1_556
La0 Sn1 3.464006 1_655
La0 Sn1 3.464006 1_555
La1 Sn3 3.313682 1_465
La1 Sn3 3.313682 1_565
La1 Sn1 3.417690 1_565
La1 Sn2 3.438406 1_554
La1 Sn0 3.464006 1_555
La1 Sn0 3.464006 1_455
La2 Sn0 3.313682 1_555
La2 Sn0 3.313682 1_455
La2 Sn2 3.417690 1_554
La2 Sn1 3.438406 1_555
La2 Sn3 3.464006 1_455
La2 Sn3 3.464006 1_555
La3 Sn1 3.313682 1_655
La3 Sn1 3.313682 1_555
La3 Sn3 3.417690 1_556
La3 Sn0 3.438406 1_555
La3 Sn2 3.464006 1_555
La3 Sn2 3.464006 1_655
Ni0 Sn2 2.675312 1_654
Ni0 Sn2 2.675312 1_554
Ni0 Sn3 2.744010 1_565
Ni0 Sn0 3.071909 1_555
Ni1 Sn3 2.675312 1_556
Ni1 Sn3 2.675312 1_456
Ni1 Sn2 2.744010 1_545
Ni1 Sn1 3.071909 1_555
Ni2 Sn0 2.675312 1_555
Ni2 Sn0 2.675312 1_455
Ni2 Sn1 2.744010 1_555
Ni2 Sn2 3.071909 1_555
Ni3 Sn1 2.675312 1_655
Ni3 Sn1 2.675312 1_555
Ni3 Sn0 2.744010 1_555
Ni3 Sn3 3.071909 1_555
H0 Ni1 1.603536 1_555
H0 La2 2.370333 1_556
H0 La3 2.476965 1_455
H0 La3 2.476965 1_555
H1 Ni0 1.603536 1_555
H1 La3 2.370333 1_554
H1 La2 2.476965 1_555
H1 La2 2.476965 1_655
H2 Ni3 1.603536 1_555
H2 La0 2.370333 1_555
H2 La1 2.476965 1_545
H2 La1 2.476965 1_645
H3 Ni2 1.603536 1_555
H3 La1 2.370333 1_555
H3 La0 2.476965 1_565
H3 La0 2.476965 1_465
