# generated using pymatgen
data_Rb2Cd3H6S3O16
_symmetry_space_group_name_H-M   'P 1'
_cell_length_a   10.34343779
_cell_length_b   10.34343779
_cell_length_c   10.37668300
_cell_angle_alpha   90.00000000
_cell_angle_beta   90.00000000
_cell_angle_gamma   132.57764989
_symmetry_Int_Tables_number   1
_chemical_formula_structural   Rb2Cd3H6S3O16
_chemical_formula_sum   'Rb4 Cd6 H12 S6 O32'
_cell_volume   817.48385147
_cell_formula_units_Z   2
loop_
 _symmetry_equiv_pos_site_id
 _symmetry_equiv_pos_as_xyz
  1  'x, y, z'
loop_
 _atom_site_type_symbol
 _atom_site_label
 _atom_site_symmetry_multiplicity
 _atom_site_fract_x
 _atom_site_fract_y
 _atom_site_fract_z
 _atom_site_occupancy
  Rb  Rb0  1  0.76873200  0.14357600  0.21950000  1
  Rb  Rb1  1  0.23126700  0.85642400  0.71950000  1
  Rb  Rb2  1  0.85642400  0.23126700  0.71950000  1
  Rb  Rb3  1  0.14357600  0.76873300  0.21950000  1
  Cd  Cd0  1  0.55767000  0.37224500  0.16224000  1
  Cd  Cd1  1  0.44233000  0.62775500  0.66224000  1
  Cd  Cd2  1  0.62775500  0.44233000  0.66224000  1
  Cd  Cd3  1  0.37224500  0.55767000  0.16224000  1
  Cd  Cd4  1  0.18247100  0.18247100  0.45125500  1
  Cd  Cd5  1  0.81752900  0.81752900  0.95125500  1
  H  H0  1  0.54786400  0.54786400  0.46760100  1
  H  H1  1  0.45213600  0.45213600  0.96760100  1
  H  H2  1  0.42734900  0.42734900  0.33278800  1
  H  H3  1  0.57265100  0.57265100  0.83278800  1
  H  H4  1  0.43177900  0.07925100  0.00053600  1
  H  H5  1  0.56822100  0.92074900  0.50053600  1
  H  H6  1  0.92074900  0.56822100  0.50053600  1
  H  H7  1  0.07925100  0.43177900  0.00053600  1
  H  H8  1  0.29085300  0.09617300  0.99709000  1
  H  H9  1  0.70914700  0.90382700  0.49709000  1
  H  H10  1  0.90382700  0.70914700  0.49709000  1
  H  H11  1  0.09617300  0.29085300  0.99709000  1
  S  S0  1  0.87919400  0.52197100  0.94177200  1
  S  S1  1  0.12080600  0.47802900  0.44177200  1
  S  S2  1  0.47802900  0.12080600  0.44177200  1
  S  S3  1  0.52197100  0.87919400  0.94177200  1
  S  S4  1  0.19513900  0.19513900  0.78377000  1
  S  S5  1  0.80486100  0.80486100  0.28377000  1
  O  O0  1  0.80050900  0.43846400  0.07121100  1
  O  O1  1  0.19949100  0.56153600  0.57121100  1
  O  O2  1  0.56153600  0.19949100  0.57121100  1
  O  O3  1  0.43846400  0.80050900  0.07121100  1
  O  O4  1  0.95426100  0.70719400  0.94389000  1
  O  O5  1  0.04573900  0.29280600  0.44389000  1
  O  O6  1  0.29280600  0.04573900  0.44389000  1
  O  O7  1  0.70719400  0.95426100  0.94389000  1
  O  O8  1  0.74458000  0.41738500  0.83914400  1
  O  O9  1  0.25542000  0.58261500  0.33914400  1
  O  O10  1  0.58261500  0.25542000  0.33914400  1
  O  O11  1  0.41738500  0.74458000  0.83914400  1
  O  O12  1  0.02547900  0.52912900  0.91705900  1
  O  O13  1  0.97452100  0.47087100  0.41705900  1
  O  O14  1  0.47087100  0.97452100  0.41705900  1
  O  O15  1  0.52912900  0.02547900  0.91705900  1
  O  O16  1  0.09165600  0.09165600  0.66665400  1
  O  O17  1  0.90834400  0.90834400  0.16665400  1
  O  O18  1  0.09204000  0.09204000  0.90323700  1
  O  O19  1  0.90796000  0.90796000  0.40323700  1
  O  O20  1  0.36235700  0.23290600  0.78866400  1
  O  O21  1  0.63764300  0.76709400  0.28866400  1
  O  O22  1  0.76709400  0.63764300  0.28866400  1
  O  O23  1  0.23290600  0.36235700  0.78866400  1
  O  O24  1  0.46171300  0.46171300  0.53156900  1
  O  O25  1  0.53828700  0.53828700  0.03156900  1
  O  O26  1  0.34106300  0.34106300  0.26885900  1
  O  O27  1  0.65893700  0.65893700  0.76885900  1
  O  O28  1  0.36653900  0.09873000  0.05591000  1
  O  O29  1  0.63346100  0.90127000  0.55591000  1
  O  O30  1  0.90127000  0.63346100  0.55591000  1
  O  O31  1  0.09873000  0.36653900  0.05591000  1
loop_
_geom_bond_atom_site_label_1
_geom_bond_atom_site_label_2
_geom_bond_distance
_geom_bond_site_symmetry_2
Cd0 O25 2.300934 1_555
Cd0 O10 2.306153 1_555
Cd0 O0 2.311371 1_555
Cd0 O26 2.317300 1_555
Cd0 O28 2.358214 1_555
Cd0 O22 2.429494 1_555
Cd1 O24 2.300934 1_555
Cd1 O11 2.306153 1_555
Cd1 O1 2.311371 1_555
Cd1 O27 2.317300 1_555
Cd1 O29 2.358214 1_555
Cd1 O23 2.429494 1_555
Cd2 O24 2.300934 1_555
Cd2 O8 2.306153 1_555
Cd2 O2 2.311371 1_555
Cd2 O27 2.317300 1_555
Cd2 O30 2.358214 1_555
Cd2 O20 2.429494 1_555
Cd3 O25 2.300934 1_555
Cd3 O9 2.306153 1_555
Cd3 O3 2.311371 1_555
Cd3 O26 2.317300 1_555
Cd3 O31 2.358214 1_555
Cd3 O21 2.429494 1_555
Cd4 O26 2.307097 1_555
Cd4 O19 2.337313 1_445
Cd4 O5 2.343617 1_555
Cd4 O6 2.343617 1_555
Cd4 O16 2.359348 1_555
Cd4 O24 2.467914 1_555
Cd5 O27 2.307097 1_555
Cd5 O18 2.337313 1_665
Cd5 O7 2.343617 1_555
Cd5 O4 2.343617 1_555
Cd5 O17 2.359348 1_556
Cd5 O25 2.467914 1_556
H0 O24 0.976837 1_555
H1 O25 0.976837 1_556
H2 O26 0.977387 1_555
H3 O27 0.977387 1_555
H4 O28 1.005036 1_555
H5 O29 1.005036 1_555
H6 O30 1.005036 1_555
H7 O31 1.005036 1_555
H8 O28 0.978814 1_556
H9 O29 0.978814 1_555
H10 O30 0.978814 1_555
H11 O31 0.978814 1_556
O0 S0 1.503741 1_554
O0 Rb3 3.197826 1_655
O0 Rb0 3.228408 1_555
O1 S1 1.503741 1_555
O1 Rb2 3.197826 1_455
O1 Rb1 3.228414 1_555
O2 S2 1.503741 1_555
O2 Rb1 3.197826 1_545
O2 Rb2 3.228414 1_555
O3 S3 1.503741 1_554
O3 Rb0 3.197823 1_565
O3 Rb3 3.228414 1_555
O4 S0 1.503623 1_555
O4 Rb1 3.166847 1_655
O4 Rb3 3.275986 1_656
O5 S1 1.503623 1_555
O5 Rb0 3.166853 1_455
O5 Rb2 3.275986 1_455
O6 S2 1.503623 1_555
O6 Rb3 3.166847 1_545
O6 Rb1 3.275986 1_545
O7 S3 1.503623 1_555
O7 Rb2 3.166847 1_565
O7 Rb0 3.275988 1_566
O8 S0 1.484867 1_555
O8 Rb2 3.098267 1_555
O9 S1 1.484867 1_555
O9 Rb3 3.098267 1_555
O10 S2 1.484867 1_555
O10 Rb0 3.098258 1_555
O11 S3 1.484867 1_555
O11 Rb1 3.098267 1_555
O12 S0 1.486301 1_455
O12 Rb2 3.076071 1_455
O12 Rb1 3.231567 1_555
O13 S1 1.486301 1_655
O13 Rb3 3.076071 1_655
O13 Rb0 3.231566 1_555
O14 S2 1.486301 1_565
O14 Rb0 3.076065 1_565
O14 Rb3 3.231567 1_555
O15 S3 1.486301 1_545
O15 Rb1 3.076071 1_545
O15 Rb2 3.231567 1_555
O16 S4 1.489280 1_555
O17 S5 1.489280 1_555
O18 S4 1.507433 1_555
O19 S5 1.507433 1_555
O20 S4 1.494137 1_555
O20 Rb1 3.220687 1_545
O21 S5 1.494137 1_555
O21 Rb0 3.220691 1_565
O22 S5 1.494137 1_555
O22 Rb3 3.220687 1_655
O23 S4 1.494137 1_555
O23 Rb2 3.220687 1_455
O28 Rb3 3.032967 1_545
O29 Rb2 3.032967 1_565
O30 Rb1 3.032967 1_655
O31 Rb0 3.032973 1_455
