# generated using pymatgen
data_BaTbMn2O6
_symmetry_space_group_name_H-M   'P 1'
_cell_length_a   5.57073963
_cell_length_b   5.57073963
_cell_length_c   7.80752800
_cell_angle_alpha   90.00000000
_cell_angle_beta   90.00000000
_cell_angle_gamma   91.04492476
_symmetry_Int_Tables_number   1
_chemical_formula_structural   BaTbMn2O6
_chemical_formula_sum   'Ba2 Tb2 Mn4 O12'
_cell_volume   242.25181733
_cell_formula_units_Z   2
loop_
 _symmetry_equiv_pos_site_id
 _symmetry_equiv_pos_as_xyz
  1  'x, y, z'
loop_
 _atom_site_type_symbol
 _atom_site_label
 _atom_site_symmetry_multiplicity
 _atom_site_fract_x
 _atom_site_fract_y
 _atom_site_fract_z
 _atom_site_occupancy
  Ba  Ba0  1  0.75426300  0.24573700  0.00000000  1
  Ba  Ba1  1  0.24573700  0.75426300  0.00000000  1
  Tb  Tb0  1  0.76532000  0.23468000  0.50000000  1
  Tb  Tb1  1  0.23468000  0.76532000  0.50000000  1
  Mn  Mn0  1  0.74860000  0.74860000  0.25830600  1
  Mn  Mn1  1  0.25140000  0.25140000  0.25830600  1
  Mn  Mn2  1  0.25140000  0.25140000  0.74169400  1
  Mn  Mn3  1  0.74860000  0.74860000  0.74169400  1
  O  O0  1  0.00000000  0.50000000  0.28681400  1
  O  O1  1  0.27174500  0.27174500  0.00000000  1
  O  O2  1  0.19001500  0.19001500  0.50000000  1
  O  O3  1  0.50000000  0.50000000  0.31311800  1
  O  O4  1  0.80998500  0.80998500  0.50000000  1
  O  O5  1  0.50000000  0.00000000  0.28681400  1
  O  O6  1  0.50000000  0.50000000  0.68688200  1
  O  O7  1  0.00000000  0.00000000  0.76140200  1
  O  O8  1  0.00000000  0.50000000  0.71318600  1
  O  O9  1  0.72825500  0.72825500  0.00000000  1
  O  O10  1  0.00000000  0.00000000  0.23859800  1
  O  O11  1  0.50000000  0.00000000  0.71318600  1
loop_
_geom_bond_atom_site_label_1
_geom_bond_atom_site_label_2
_geom_bond_distance
_geom_bond_site_symmetry_2
Ba0 O9 2.694521 1_555
Ba0 O1 2.694521 1_555
Ba0 O10 2.699366 1_655
Ba0 O7 2.699366 1_654
Ba0 O9 2.883756 1_545
Ba0 O1 2.883756 1_655
Ba0 O8 2.970530 1_654
Ba0 O0 2.970530 1_655
Ba0 O11 2.970530 1_554
Ba0 O5 2.970530 1_555
Ba0 O3 3.172095 1_555
Ba0 O6 3.172095 1_554
Ba1 O9 2.694521 1_555
Ba1 O1 2.694521 1_555
Ba1 O10 2.699366 1_565
Ba1 O7 2.699366 1_564
Ba1 O9 2.883756 1_455
Ba1 O1 2.883756 1_565
Ba1 O11 2.970530 1_564
Ba1 O8 2.970530 1_554
Ba1 O5 2.970530 1_565
Ba1 O0 2.970530 1_555
Ba1 O3 3.172095 1_555
Ba1 O6 3.172095 1_554
Mn0 O4 1.946921 1_555
Mn0 O10 1.968464 1_665
Mn0 O3 1.987210 1_555
Mn0 O5 1.999886 1_565
Mn0 O0 1.999886 1_655
Mn0 O9 2.022975 1_555
Mn1 O2 1.946921 1_555
Mn1 O10 1.968464 1_555
Mn1 O3 1.987210 1_555
Mn1 O5 1.999886 1_555
Mn1 O0 1.999886 1_555
Mn1 O1 2.022975 1_555
Mn2 O2 1.946921 1_555
Mn2 O7 1.968464 1_555
Mn2 O6 1.987210 1_555
Mn2 O8 1.999886 1_555
Mn2 O11 1.999886 1_555
Mn2 O1 2.022975 1_556
Mn3 O4 1.946921 1_555
Mn3 O7 1.968464 1_665
Mn3 O6 1.987210 1_555
Mn3 O11 1.999886 1_565
Mn3 O8 1.999886 1_655
Mn3 O9 2.022975 1_556
O0 Tb0 2.567810 1_455
O0 Tb1 2.567810 1_555
O2 Tb1 2.383422 1_545
O2 Tb0 2.383422 1_455
O3 Tb1 2.564712 1_555
O3 Tb0 2.564712 1_555
O4 Tb0 2.383422 1_565
O4 Tb1 2.383422 1_655
O5 Tb0 2.567810 1_555
O5 Tb1 2.567810 1_545
O6 Tb1 2.564712 1_555
O6 Tb0 2.564712 1_555
O7 Tb0 2.765123 1_455
O7 Tb1 2.765123 1_545
O8 Tb0 2.567810 1_455
O8 Tb1 2.567810 1_555
O10 Tb0 2.765123 1_455
O10 Tb1 2.765123 1_545
O11 Tb0 2.567810 1_555
O11 Tb1 2.567810 1_545
