# generated using pymatgen
data_RbTi2(PO4)3
_symmetry_space_group_name_H-M   'P 1'
_cell_length_a   9.30089372
_cell_length_b   9.30089372
_cell_length_c   9.30089344
_cell_angle_alpha   53.82518041
_cell_angle_beta   53.82518041
_cell_angle_gamma   53.82518477
_symmetry_Int_Tables_number   1
_chemical_formula_structural   RbTi2(PO4)3
_chemical_formula_sum   'Rb2 Ti4 P6 O24'
_cell_volume   486.82203258
_cell_formula_units_Z   2
loop_
 _symmetry_equiv_pos_site_id
 _symmetry_equiv_pos_as_xyz
  1  'x, y, z'
loop_
 _atom_site_type_symbol
 _atom_site_label
 _atom_site_symmetry_multiplicity
 _atom_site_fract_x
 _atom_site_fract_y
 _atom_site_fract_z
 _atom_site_occupancy
  Rb  Rb0  1  0.50000000  0.50000000  0.50000000  1
  Rb  Rb1  1  0.00000000  0.00000000  0.00000000  1
  Ti  Ti0  1  0.34856700  0.34856700  0.34856700  1
  Ti  Ti1  1  0.84982400  0.84982400  0.84982400  1
  Ti  Ti2  1  0.65143300  0.65143300  0.65143300  1
  Ti  Ti3  1  0.15017600  0.15017600  0.15017600  1
  P  P0  1  0.96994000  0.25054200  0.53042200  1
  P  P1  1  0.53042200  0.96994000  0.25054200  1
  P  P2  1  0.25054200  0.53042200  0.96994000  1
  P  P3  1  0.74945800  0.46957800  0.03006000  1
  P  P4  1  0.03006000  0.74945800  0.46957800  1
  P  P5  1  0.46957800  0.03006000  0.74945800  1
  O  O0  1  0.55927600  0.44213900  0.19094000  1
  O  O1  1  0.48636800  0.84386700  0.76986300  1
  O  O2  1  0.29417600  0.08372600  0.92221000  1
  O  O3  1  0.44213900  0.19094000  0.55927600  1
  O  O4  1  0.35256500  0.98857600  0.25300300  1
  O  O5  1  0.70582400  0.91627400  0.07779000  1
  O  O6  1  0.91627400  0.07779000  0.70582400  1
  O  O7  1  0.76986300  0.48636800  0.84386700  1
  O  O8  1  0.80906000  0.44072400  0.55786100  1
  O  O9  1  0.15613300  0.23013700  0.51363200  1
  O  O10  1  0.98857600  0.25300300  0.35256500  1
  O  O11  1  0.19094000  0.55927600  0.44213900  1
  O  O12  1  0.55786100  0.80906000  0.44072400  1
  O  O13  1  0.01142400  0.74699700  0.64743500  1
  O  O14  1  0.23013700  0.51363200  0.15613300  1
  O  O15  1  0.07779000  0.70582400  0.91627400  1
  O  O16  1  0.08372600  0.92221000  0.29417600  1
  O  O17  1  0.84386700  0.76986300  0.48636800  1
  O  O18  1  0.92221000  0.29417600  0.08372600  1
  O  O19  1  0.64743500  0.01142400  0.74699700  1
  O  O20  1  0.25300300  0.35256500  0.98857600  1
  O  O21  1  0.51363200  0.15613300  0.23013700  1
  O  O22  1  0.44072400  0.55786100  0.80906000  1
  O  O23  1  0.74699700  0.64743500  0.01142400  1
loop_
_geom_bond_atom_site_label_1
_geom_bond_atom_site_label_2
_geom_bond_distance
_geom_bond_site_symmetry_2
O0 P3 1.546143 1_555
O0 Ti0 1.965446 1_555
O0 Rb0 2.908884 1_555
O1 P5 1.545042 1_565
O1 Ti2 1.964928 1_555
O1 Rb1 3.411438 1_566
O2 P5 1.543803 1_555
O2 Ti3 1.972015 1_556
O2 Rb1 2.851200 1_556
O3 P5 1.546143 1_555
O3 Ti0 1.965446 1_555
O3 Rb0 2.908884 1_555
O4 P1 1.545490 1_555
O4 Ti3 1.950772 1_565
O4 Rb0 3.441905 1_555
O5 P1 1.543803 1_555
O5 Ti1 1.972015 1_554
O5 Rb1 2.851200 1_665
O6 P0 1.543803 1_555
O6 Ti1 1.972015 1_545
O6 Rb1 2.851200 1_656
O7 P3 1.545041 1_556
O7 Ti2 1.964928 1_555
O7 Rb1 3.411438 1_656
O8 P0 1.546143 1_555
O8 Ti2 1.965446 1_555
O8 Rb0 2.908884 1_555
O9 P0 1.545042 1_455
O9 Ti0 1.964928 1_555
O9 Rb1 3.411438 1_556
O10 P0 1.545490 1_555
O10 Ti3 1.950772 1_655
O10 Rb0 3.441906 1_555
O11 P4 1.546143 1_555
O11 Ti0 1.965446 1_555
O11 Rb0 2.908884 1_555
O12 P1 1.546143 1_555
O12 Ti2 1.965446 1_555
O12 Rb0 2.908884 1_555
O13 P4 1.545490 1_555
O13 Ti1 1.950772 1_455
O13 Rb0 3.441906 1_555
O14 P2 1.545041 1_554
O14 Ti0 1.964928 1_555
O14 Rb1 3.411438 1_565
O15 P2 1.543804 1_555
O15 Ti1 1.972015 1_455
O15 Rb1 2.851200 1_566
O16 P4 1.543803 1_555
O16 Ti3 1.972015 1_565
O16 Rb1 2.851200 1_565
O17 P4 1.545042 1_655
O17 Ti2 1.964928 1_555
O17 Rb1 3.411438 1_665
O18 P3 1.543804 1_555
O18 Ti3 1.972015 1_655
O18 Rb1 2.851200 1_655
O19 P5 1.545490 1_555
O19 Ti1 1.950772 1_545
O19 Rb0 3.441905 1_555
O20 P2 1.545490 1_555
O20 Ti3 1.950772 1_556
O20 Rb0 3.441905 1_555
O21 P1 1.545042 1_545
O21 Ti0 1.964928 1_555
O21 Rb1 3.411438 1_655
O22 P2 1.546143 1_555
O22 Ti2 1.965446 1_555
O22 Rb0 2.908884 1_555
O23 P3 1.545490 1_555
O23 Ti1 1.950772 1_554
O23 Rb0 3.441905 1_555
