# generated using pymatgen
data_TmCo3B2
_symmetry_space_group_name_H-M   'P 1'
_cell_length_a   9.87924776
_cell_length_b   9.87928827
_cell_length_c   5.93586664
_cell_angle_alpha   90.00000000
_cell_angle_beta   90.00000000
_cell_angle_gamma   120.00015926
_symmetry_Int_Tables_number   1
_chemical_formula_structural   TmCo3B2
_chemical_formula_sum   'Tm8 Co24 B16'
_cell_volume   501.72253153
_cell_formula_units_Z   8
loop_
 _symmetry_equiv_pos_site_id
 _symmetry_equiv_pos_as_xyz
  1  'x, y, z'
loop_
 _atom_site_type_symbol
 _atom_site_label
 _atom_site_symmetry_multiplicity
 _atom_site_fract_x
 _atom_site_fract_y
 _atom_site_fract_z
 _atom_site_occupancy
  Tm  Tm0_0  1  0.00000000  0.00000000  0.00000000  1
  Tm  Tm0_1  1  0.00000000  0.00000000  0.50000000  1
  Tm  Tm0_2  1  0.00000000  0.50000000  0.00000000  1
  Tm  Tm0_3  1  0.00000000  0.50000000  0.50000000  1
  Tm  Tm0_4  1  0.50000000  0.00000000  0.00000000  1
  Tm  Tm0_5  1  0.50000000  0.00000000  0.50000000  1
  Tm  Tm0_6  1  0.50000000  0.50000000  0.00000000  1
  Tm  Tm0_7  1  0.50000000  0.50000000  0.50000000  1
  Co  Co0_0  1  0.25000000  0.00000000  0.25000000  1
  Co  Co0_1  1  0.25000000  0.00000000  0.75000000  1
  Co  Co0_2  1  0.25000000  0.50000000  0.25000000  1
  Co  Co0_3  1  0.25000000  0.50000000  0.75000000  1
  Co  Co0_4  1  0.75000000  0.00000000  0.25000000  1
  Co  Co0_5  1  0.75000000  0.00000000  0.75000000  1
  Co  Co0_6  1  0.75000000  0.50000000  0.25000000  1
  Co  Co0_7  1  0.75000000  0.50000000  0.75000000  1
  Co  Co1_0  1  0.25000000  0.25000000  0.25000000  1
  Co  Co1_1  1  0.25000000  0.25000000  0.75000000  1
  Co  Co1_2  1  0.25000000  0.75000000  0.25000000  1
  Co  Co1_3  1  0.25000000  0.75000000  0.75000000  1
  Co  Co1_4  1  0.75000000  0.25000000  0.25000000  1
  Co  Co1_5  1  0.75000000  0.25000000  0.75000000  1
  Co  Co1_6  1  0.75000000  0.75000000  0.25000000  1
  Co  Co1_7  1  0.75000000  0.75000000  0.75000000  1
  Co  Co2_0  1  0.00000000  0.25000000  0.25000000  1
  Co  Co2_1  1  0.00000000  0.25000000  0.75000000  1
  Co  Co2_2  1  0.00000000  0.75000000  0.25000000  1
  Co  Co2_3  1  0.00000000  0.75000000  0.75000000  1
  Co  Co2_4  1  0.50000000  0.25000000  0.25000000  1
  Co  Co2_5  1  0.50000000  0.25000000  0.75000000  1
  Co  Co2_6  1  0.50000000  0.75000000  0.25000000  1
  Co  Co2_7  1  0.50000000  0.75000000  0.75000000  1
  B  B0_0  1  0.16666661  0.33333306  0.00000000  1
  B  B0_1  1  0.16666661  0.33333306  0.50000000  1
  B  B0_2  1  0.16666662  0.83333306  0.00000000  1
  B  B0_3  1  0.16666662  0.83333306  0.50000000  1
  B  B0_4  1  0.66666661  0.33333306  0.00000000  1
  B  B0_5  1  0.66666661  0.33333306  0.50000000  1
  B  B0_6  1  0.66666662  0.83333306  0.00000000  1
  B  B0_7  1  0.66666662  0.83333306  0.50000000  1
  B  B1_0  1  0.33333338  0.16666694  0.00000000  1
  B  B1_1  1  0.33333338  0.16666694  0.50000000  1
  B  B1_2  1  0.33333338  0.66666694  0.00000000  1
  B  B1_3  1  0.33333338  0.66666694  0.50000000  1
  B  B1_4  1  0.83333338  0.16666694  0.00000000  1
  B  B1_5  1  0.83333338  0.16666694  0.50000000  1
  B  B1_6  1  0.83333338  0.66666694  0.00000000  1
  B  B1_7  1  0.83333338  0.66666694  0.50000000  1
loop_
_geom_bond_atom_site_label_1
_geom_bond_atom_site_label_2
_geom_bond_distance
_geom_bond_site_symmetry_2
Tm0_0 Tm0_1 2.967933 1_554
Tm0_0 Tm0_1 2.967933 1_555
Tm0_2 Tm0_3 2.967933 1_554
Tm0_2 Tm0_3 2.967933 1_555
Tm0_4 Tm0_5 2.967933 1_554
Tm0_4 Tm0_5 2.967933 1_555
Tm0_6 Tm0_7 2.967933 1_555
Tm0_6 Tm0_7 2.967933 1_554
Co0_0 Tm0_0 2.881341 1_555
Co0_0 Tm0_5 2.881341 1_555
Co0_0 Tm0_1 2.881341 1_555
Co0_0 Tm0_4 2.881341 1_555
Co0_1 Tm0_5 2.881341 1_555
Co0_1 Tm0_0 2.881341 1_556
Co0_1 Tm0_4 2.881341 1_556
Co0_1 Tm0_1 2.881341 1_555
Co0_2 Tm0_2 2.881341 1_555
Co0_2 Tm0_3 2.881341 1_555
Co0_2 Tm0_6 2.881341 1_555
Co0_2 Tm0_7 2.881341 1_555
Co0_3 Tm0_3 2.881341 1_555
Co0_3 Tm0_2 2.881341 1_556
Co0_3 Tm0_7 2.881341 1_555
Co0_3 Tm0_6 2.881341 1_556
Co0_4 Tm0_1 2.881341 1_655
Co0_4 Tm0_0 2.881341 1_655
Co0_4 Tm0_5 2.881341 1_555
Co0_4 Tm0_4 2.881341 1_555
Co0_5 Tm0_1 2.881341 1_655
Co0_5 Tm0_0 2.881341 1_656
Co0_5 Tm0_4 2.881341 1_556
Co0_5 Tm0_5 2.881341 1_555
Co0_6 Tm0_7 2.881341 1_555
Co0_6 Tm0_6 2.881341 1_555
Co0_6 Tm0_2 2.881341 1_655
Co0_6 Tm0_3 2.881341 1_655
Co0_7 Tm0_7 2.881341 1_555
Co0_7 Tm0_6 2.881341 1_556
Co0_7 Tm0_2 2.881341 1_656
Co0_7 Tm0_3 2.881341 1_655
Co1_0 Tm0_6 2.881341 1_555
Co1_0 Tm0_1 2.881341 1_555
Co1_0 Tm0_7 2.881341 1_555
Co1_0 Tm0_0 2.881341 1_555
Co1_1 Tm0_1 2.881341 1_555
Co1_1 Tm0_7 2.881341 1_555
Co1_1 Tm0_6 2.881341 1_556
Co1_1 Tm0_0 2.881341 1_556
Co1_2 Tm0_4 2.881341 1_565
Co1_2 Tm0_5 2.881341 1_565
Co1_2 Tm0_3 2.881341 1_555
Co1_2 Tm0_2 2.881341 1_555
Co1_3 Tm0_4 2.881341 1_566
Co1_3 Tm0_5 2.881341 1_565
Co1_3 Tm0_3 2.881341 1_555
Co1_3 Tm0_2 2.881341 1_556
Co1_4 Tm0_5 2.881341 1_555
Co1_4 Tm0_4 2.881341 1_555
Co1_4 Tm0_3 2.881341 1_655
Co1_4 Tm0_2 2.881341 1_655
Co1_5 Tm0_4 2.881341 1_556
Co1_5 Tm0_5 2.881341 1_555
Co1_5 Tm0_2 2.881341 1_656
Co1_5 Tm0_3 2.881341 1_655
Co1_6 Tm0_0 2.881341 1_665
Co1_6 Tm0_1 2.881341 1_665
Co1_6 Tm0_6 2.881341 1_555
Co1_6 Tm0_7 2.881341 1_555
Co1_7 Tm0_0 2.881341 1_666
Co1_7 Tm0_1 2.881341 1_665
Co1_7 Tm0_7 2.881341 1_555
Co1_7 Tm0_6 2.881341 1_556
Co2_0 Tm0_3 2.881350 1_555
Co2_0 Tm0_1 2.881350 1_555
Co2_0 Tm0_0 2.881350 1_555
Co2_0 Tm0_2 2.881350 1_555
Co2_1 Tm0_3 2.881350 1_555
Co2_1 Tm0_1 2.881350 1_555
Co2_1 Tm0_2 2.881350 1_556
Co2_1 Tm0_0 2.881350 1_556
Co2_2 Tm0_3 2.881350 1_555
Co2_2 Tm0_1 2.881350 1_565
Co2_2 Tm0_0 2.881350 1_565
Co2_2 Tm0_2 2.881350 1_555
Co2_3 Tm0_3 2.881350 1_555
Co2_3 Tm0_1 2.881350 1_565
Co2_3 Tm0_2 2.881350 1_556
Co2_3 Tm0_0 2.881350 1_566
Co2_4 Tm0_5 2.881350 1_555
Co2_4 Tm0_7 2.881350 1_555
Co2_4 Tm0_4 2.881350 1_555
Co2_4 Tm0_6 2.881350 1_555
Co2_5 Tm0_4 2.881350 1_556
Co2_5 Tm0_5 2.881350 1_555
Co2_5 Tm0_7 2.881350 1_555
Co2_5 Tm0_6 2.881350 1_556
Co2_6 Tm0_7 2.881350 1_555
Co2_6 Tm0_4 2.881350 1_565
Co2_6 Tm0_5 2.881350 1_565
Co2_6 Tm0_6 2.881350 1_555
Co2_7 Tm0_7 2.881350 1_555
Co2_7 Tm0_4 2.881350 1_566
Co2_7 Tm0_5 2.881350 1_565
Co2_7 Tm0_6 2.881350 1_556
B0_0 Co2_1 2.058026 1_554
B0_0 Co2_0 2.058026 1_555
B0_0 Co1_0 2.058030 1_555
B0_0 Co1_1 2.058030 1_554
B0_0 Co0_3 2.058032 1_554
B0_0 Co0_2 2.058032 1_555
B0_0 Tm0_6 2.851889 1_555
B0_0 Tm0_0 2.851898 1_555
B0_0 Tm0_2 2.851903 1_555
B0_1 Co2_0 2.058026 1_555
B0_1 Co2_1 2.058026 1_555
B0_1 Co1_0 2.058030 1_555
B0_1 Co1_1 2.058030 1_555
B0_1 Co0_2 2.058032 1_555
B0_1 Co0_3 2.058032 1_555
B0_1 Tm0_7 2.851889 1_555
B0_1 Tm0_1 2.851898 1_555
B0_1 Tm0_3 2.851903 1_555
B0_2 Co2_2 2.058026 1_555
B0_2 Co2_3 2.058026 1_554
B0_2 Co1_2 2.058030 1_555
B0_2 Co1_3 2.058030 1_554
B0_2 Co0_0 2.058032 1_565
B0_2 Co0_1 2.058032 1_564
B0_2 Tm0_4 2.851889 1_565
B0_2 Tm0_2 2.851898 1_555
B0_2 Tm0_0 2.851903 1_565
B0_3 Co2_2 2.058026 1_555
B0_3 Co2_3 2.058026 1_555
B0_3 Co1_2 2.058030 1_555
B0_3 Co1_3 2.058030 1_555
B0_3 Co0_0 2.058032 1_565
B0_3 Co0_1 2.058032 1_565
B0_3 Tm0_5 2.851889 1_565
B0_3 Tm0_3 2.851898 1_555
B0_3 Tm0_1 2.851903 1_565
B0_4 Co2_4 2.058026 1_555
B0_4 Co2_5 2.058026 1_554
B0_4 Co1_5 2.058030 1_554
B0_4 Co1_4 2.058030 1_555
B0_4 Co0_6 2.058032 1_555
B0_4 Co0_7 2.058032 1_554
B0_4 Tm0_2 2.851889 1_655
B0_4 Tm0_4 2.851898 1_555
B0_4 Tm0_6 2.851903 1_555
B0_5 Co2_4 2.058026 1_555
B0_5 Co2_5 2.058026 1_555
B0_5 Co1_5 2.058030 1_555
B0_5 Co1_4 2.058030 1_555
B0_5 Co0_6 2.058032 1_555
B0_5 Co0_7 2.058032 1_555
B0_5 Tm0_3 2.851889 1_655
B0_5 Tm0_5 2.851898 1_555
B0_5 Tm0_7 2.851903 1_555
B0_6 Co2_6 2.058026 1_555
B0_6 Co2_7 2.058026 1_554
B0_6 Co1_6 2.058030 1_555
B0_6 Co1_7 2.058030 1_554
B0_6 Co0_4 2.058032 1_565
B0_6 Co0_5 2.058032 1_564
B0_6 Tm0_0 2.851889 1_665
B0_6 Tm0_6 2.851898 1_555
B0_6 Tm0_4 2.851903 1_565
B0_7 Co2_6 2.058026 1_555
B0_7 Co2_7 2.058026 1_555
B0_7 Co1_6 2.058030 1_555
B0_7 Co1_7 2.058030 1_555
B0_7 Co0_4 2.058032 1_565
B0_7 Co0_5 2.058032 1_565
B0_7 Tm0_1 2.851889 1_665
B0_7 Tm0_7 2.851898 1_555
B0_7 Tm0_5 2.851903 1_565
B1_0 Co2_5 2.058026 1_554
B1_0 Co2_4 2.058026 1_555
B1_0 Co1_0 2.058030 1_555
B1_0 Co1_1 2.058030 1_554
B1_0 Co0_0 2.058032 1_555
B1_0 Co0_1 2.058032 1_554
B1_0 Tm0_0 2.851889 1_555
B1_0 Tm0_6 2.851898 1_555
B1_0 Tm0_4 2.851903 1_555
B1_1 Co2_4 2.058026 1_555
B1_1 Co2_5 2.058026 1_555
B1_1 Co1_0 2.058030 1_555
B1_1 Co1_1 2.058030 1_555
B1_1 Co0_0 2.058032 1_555
B1_1 Co0_1 2.058032 1_555
B1_1 Tm0_1 2.851889 1_555
B1_1 Tm0_7 2.851898 1_555
B1_1 Tm0_5 2.851903 1_555
B1_2 Co2_6 2.058026 1_555
B1_2 Co2_7 2.058026 1_554
B1_2 Co1_2 2.058030 1_555
B1_2 Co1_3 2.058030 1_554
B1_2 Co0_3 2.058032 1_554
B1_2 Co0_2 2.058032 1_555
B1_2 Tm0_2 2.851889 1_555
B1_2 Tm0_4 2.851898 1_565
B1_2 Tm0_6 2.851903 1_555
B1_3 Co2_6 2.058026 1_555
B1_3 Co2_7 2.058026 1_555
B1_3 Co1_3 2.058030 1_555
B1_3 Co1_2 2.058030 1_555
B1_3 Co0_3 2.058032 1_555
B1_3 Co0_2 2.058032 1_555
B1_3 Tm0_3 2.851889 1_555
B1_3 Tm0_5 2.851898 1_565
B1_3 Tm0_7 2.851903 1_555
B1_4 Co2_0 2.058026 1_655
B1_4 Co2_1 2.058026 1_654
B1_4 Co1_5 2.058030 1_554
B1_4 Co1_4 2.058030 1_555
B1_4 Co0_4 2.058032 1_555
B1_4 Co0_5 2.058032 1_554
B1_4 Tm0_4 2.851889 1_555
B1_4 Tm0_2 2.851898 1_655
B1_4 Tm0_0 2.851903 1_655
B1_5 Co2_0 2.058026 1_655
B1_5 Co2_1 2.058026 1_655
B1_5 Co1_5 2.058030 1_555
B1_5 Co1_4 2.058030 1_555
B1_5 Co0_4 2.058032 1_555
B1_5 Co0_5 2.058032 1_555
B1_5 Tm0_5 2.851889 1_555
B1_5 Tm0_3 2.851898 1_655
B1_5 Tm0_1 2.851903 1_655
B1_6 Co2_3 2.058026 1_654
B1_6 Co2_2 2.058026 1_655
B1_6 Co1_6 2.058030 1_555
B1_6 Co1_7 2.058030 1_554
B1_6 Co0_6 2.058032 1_555
B1_6 Co0_7 2.058032 1_554
B1_6 Tm0_6 2.851889 1_555
B1_6 Tm0_0 2.851898 1_665
B1_6 Tm0_2 2.851903 1_655
B1_7 Co2_3 2.058026 1_655
B1_7 Co2_2 2.058026 1_655
B1_7 Co1_6 2.058030 1_555
B1_7 Co1_7 2.058030 1_555
B1_7 Co0_6 2.058032 1_555
B1_7 Co0_7 2.058032 1_555
B1_7 Tm0_7 2.851889 1_555
B1_7 Tm0_1 2.851898 1_665
B1_7 Tm0_3 2.851903 1_655
