# generated using pymatgen
data_Li3Mn3(PO4)4
_symmetry_space_group_name_H-M   'P 1'
_cell_length_a   8.15786500
_cell_length_b   8.94412089
_cell_length_c   13.20023562
_cell_angle_alpha   84.16998194
_cell_angle_beta   87.58666936
_cell_angle_gamma   88.44686789
_symmetry_Int_Tables_number   1
_chemical_formula_structural   Li3Mn3(PO4)4
_chemical_formula_sum   'Li9 Mn9 P12 O48'
_cell_volume   957.07015146
_cell_formula_units_Z   3
loop_
 _symmetry_equiv_pos_site_id
 _symmetry_equiv_pos_as_xyz
  1  'x, y, z'
loop_
 _atom_site_type_symbol
 _atom_site_label
 _atom_site_symmetry_multiplicity
 _atom_site_fract_x
 _atom_site_fract_y
 _atom_site_fract_z
 _atom_site_occupancy
  Li  Li0  1  0.86622800  0.76663000  0.84398200  1
  Li  Li1  1  0.13302800  0.90465100  0.49256600  1
  Li  Li2  1  0.64044800  0.24662400  0.83866100  1
  Li  Li3  1  0.63538500  0.59175800  0.50599900  1
  Li  Li4  1  0.64370400  0.93206100  0.16564300  1
  Li  Li5  1  0.36402800  0.07775300  0.82585000  1
  Li  Li6  1  0.36295900  0.41468500  0.49906800  1
  Li  Li7  1  0.86788300  0.41948100  0.16624100  1
  Li  Li8  1  0.13057700  0.24289100  0.16288200  1
  Mn  Mn0  1  0.51392300  0.67169900  0.83466400  1
  Mn  Mn1  1  0.48680900  0.99538700  0.49871400  1
  Mn  Mn2  1  0.14821400  0.55914400  0.83176500  1
  Mn  Mn3  1  0.99460700  0.14998400  0.82985900  1
  Mn  Mn4  1  0.00363000  0.51755700  0.50604400  1
  Mn  Mn5  1  0.99547800  0.83862800  0.16671300  1
  Mn  Mn6  1  0.36461800  0.73214200  0.17743500  1
  Mn  Mn7  1  0.84975000  0.10947900  0.50130900  1
  Mn  Mn8  1  0.50696700  0.32174100  0.16150100  1
  P  P0  1  0.19700000  0.85376000  0.94373100  1
  P  P1  1  0.69809000  0.97124900  0.72433500  1
  P  P2  1  0.31458000  0.35378000  0.94929200  1
  P  P3  1  0.30169800  0.69606500  0.60845600  1
  P  P4  1  0.81643100  0.47356100  0.72584400  1
  P  P5  1  0.80634900  0.81372900  0.38937700  1
  P  P6  1  0.18106600  0.19608200  0.60872600  1
  P  P7  1  0.17964100  0.52165700  0.28225500  1
  P  P8  1  0.68396600  0.31360500  0.38208900  1
  P  P9  1  0.69546700  0.63248100  0.05816900  1
  P  P10  1  0.30139500  0.03123700  0.27626400  1
  P  P11  1  0.81881300  0.13915600  0.05286300  1
  O  O0  1  0.87070800  0.97450700  0.76723800  1
  O  O1  1  0.37471600  0.83652000  0.89859900  1
  O  O2  1  0.07874300  0.74514200  0.90378200  1
  O  O3  1  0.70036200  0.67783000  0.94292000  1
  O  O4  1  0.64494900  0.80248100  0.74546600  1
  O  O5  1  0.35343500  0.52711300  0.90810500  1
  O  O6  1  0.35562500  0.86509500  0.58746900  1
  O  O7  1  0.29143500  0.66944700  0.72814600  1
  O  O8  1  0.94022200  0.57613000  0.77126100  1
  O  O9  1  0.29816900  0.99390400  0.39260600  1
  O  O10  1  0.92210100  0.92216700  0.43205600  1
  O  O11  1  0.64309300  0.49587800  0.77510200  1
  O  O12  1  0.13556400  0.35747400  0.90609700  1
  O  O13  1  0.62837300  0.82696300  0.43513600  1
  O  O14  1  0.13013300  0.69373500  0.56393700  1
  O  O15  1  0.42775800  0.24520900  0.90133200  1
  O  O16  1  0.81834200  0.16418100  0.93318000  1
  O  O17  1  0.42377000  0.58571400  0.56757900  1
  O  O18  1  0.81583800  0.51377000  0.60792300  1
  O  O19  1  0.86425200  0.30498000  0.74799000  1
  O  O20  1  0.42399100  0.91950300  0.22680200  1
  O  O21  1  0.80813500  0.84323700  0.27070500  1
  O  O22  1  0.86250900  0.64597700  0.41715400  1
  O  O23  1  0.14438800  0.02073500  0.91597500  1
  O  O24  1  0.86729800  0.96660500  0.07708900  1
  O  O25  1  0.13278500  0.36555200  0.58710900  1
  O  O26  1  0.18081200  0.15530000  0.72624000  1
  O  O27  1  0.57624200  0.08127400  0.76570300  1
  O  O28  1  0.14629700  0.70003700  0.25134200  1
  O  O29  1  0.18434900  0.49900600  0.39935200  1
  O  O30  1  0.57061100  0.42387200  0.42870700  1
  O  O31  1  0.19494100  0.82352700  0.06394800  1
  O  O32  1  0.56984600  0.74290900  0.10859900  1
  O  O33  1  0.86243100  0.31058100  0.42621600  1
  O  O34  1  0.35412100  0.17543900  0.55935000  1
  O  O35  1  0.86040500  0.63929800  0.10809300  1
  O  O36  1  0.36051200  0.51835000  0.23255800  1
  O  O37  1  0.05725900  0.09458100  0.56247200  1
  O  O38  1  0.70574300  0.99894800  0.60429100  1
  O  O39  1  0.06655600  0.42136000  0.23679900  1
  O  O40  1  0.68958900  0.32700100  0.26548400  1
  O  O41  1  0.64450500  0.14075100  0.42472000  1
  O  O42  1  0.63059400  0.46834700  0.07650700  1
  O  O43  1  0.36996000  0.19388400  0.25242900  1
  O  O44  1  0.31039200  0.33854600  0.06612600  1
  O  O45  1  0.93232100  0.24470200  0.09539100  1
  O  O46  1  0.63947900  0.14784100  0.09560500  1
  O  O47  1  0.13361300  0.02594600  0.22901300  1
loop_
_geom_bond_atom_site_label_1
_geom_bond_atom_site_label_2
_geom_bond_distance
_geom_bond_site_symmetry_2
Li0 O2 1.931845 1_655
Li0 O3 1.966235 1_555
Li0 O0 2.025442 1_555
Li0 O8 2.101593 1_555
Li0 O4 2.265871 1_555
Li1 O10 1.923307 1_455
Li1 O9 1.971771 1_555
Li1 O14 2.021471 1_555
Li1 O37 2.081552 1_565
Li1 O6 2.249177 1_555
Li2 O15 1.890312 1_555
Li2 O27 1.939804 1_555
Li2 O16 2.028318 1_555
Li2 O19 2.186108 1_555
Li2 O11 2.301198 1_555
Li3 O17 1.876656 1_555
Li3 O30 1.993644 1_555
Li3 O18 2.093873 1_555
Li3 O22 2.189470 1_555
Li3 O13 2.214054 1_555
Li4 O20 1.935887 1_555
Li4 O32 2.035801 1_555
Li4 O46 2.053599 1_565
Li4 O21 2.056435 1_555
Li4 O24 2.136969 1_555
Li5 O27 1.873653 1_555
Li5 O15 1.973658 1_555
Li5 O26 2.089973 1_555
Li5 O23 2.152365 1_555
Li5 O1 2.271788 1_545
Li6 O30 1.896985 1_555
Li6 O17 1.940086 1_555
Li6 O29 2.079594 1_555
Li6 O25 2.196998 1_555
Li6 O34 2.207927 1_555
Li7 O39 1.904301 1_655
Li7 O45 1.950846 1_555
Li7 O35 2.036952 1_555
Li7 O40 2.049521 1_555
Li7 O42 2.320208 1_555
Li8 O45 1.877967 1_455
Li8 O39 2.000279 1_555
Li8 O47 2.045197 1_555
Li8 O44 2.050191 1_555
Li8 O43 2.333609 1_555
Mn0 O4 1.891861 1_555
Mn0 O5 2.014068 1_555
Mn0 O1 2.063108 1_555
Mn0 O11 2.071978 1_555
Mn0 O3 2.135840 1_555
Mn0 O7 2.344014 1_555
Mn1 O6 1.886951 1_555
Mn1 O41 2.006554 1_565
Mn1 O13 2.094802 1_555
Mn1 O34 2.121360 1_565
Mn1 O9 2.125233 1_555
Mn1 O38 2.314064 1_555
Mn2 O8 1.901442 1_455
Mn2 O7 1.965460 1_555
Mn2 O12 1.966969 1_555
Mn2 O5 1.989423 1_555
Mn2 O2 2.053592 1_555
Mn3 O16 1.950399 1_555
Mn3 O23 1.973587 1_655
Mn3 O19 1.983203 1_555
Mn3 O26 1.999079 1_655
Mn3 O0 2.141989 1_545
Mn3 O12 2.524213 1_655
Mn4 O22 1.946724 1_455
Mn4 O25 1.955843 1_555
Mn4 O18 1.994173 1_455
Mn4 O29 2.010936 1_555
Mn4 O14 2.128670 1_555
Mn4 O33 2.545258 1_455
Mn5 O24 1.888772 1_555
Mn5 O28 2.012475 1_655
Mn5 O21 2.013260 1_555
Mn5 O31 2.084602 1_655
Mn5 O47 2.283291 1_665
Mn5 O35 2.334526 1_555
Mn6 O32 1.871039 1_555
Mn6 O20 1.939053 1_555
Mn6 O36 1.976302 1_555
Mn6 O28 2.007683 1_555
Mn6 O31 2.166289 1_555
Mn7 O37 1.901654 1_655
Mn7 O38 1.964903 1_545
Mn7 O33 1.966662 1_555
Mn7 O41 1.990866 1_555
Mn7 O10 2.050101 1_545
Mn8 O42 1.916460 1_555
Mn8 O43 1.917049 1_555
Mn8 O40 2.072414 1_555
Mn8 O44 2.073103 1_555
Mn8 O46 2.109255 1_555
Mn8 O36 2.350821 1_555
O0 P1 1.541859 1_555
O1 P0 1.553826 1_555
O2 P0 1.533069 1_555
O3 P9 1.533268 1_556
O4 P1 1.576080 1_555
O5 P2 1.624935 1_555
O6 P3 1.580064 1_555
O7 P3 1.572709 1_555
O8 P4 1.560064 1_555
O9 P10 1.537396 1_565
O10 P5 1.534665 1_555
O11 P4 1.547852 1_555
O12 P2 1.588276 1_555
O13 P5 1.555069 1_555
O14 P3 1.542079 1_555
O15 P2 1.491076 1_555
O16 P11 1.573101 1_556
O17 P3 1.505549 1_555
O18 P4 1.561772 1_555
O19 P4 1.548970 1_555
O20 P10 1.564815 1_565
O21 P5 1.561435 1_555
O22 P5 1.568644 1_555
O23 P0 1.554402 1_545
O24 P11 1.586769 1_565
O25 P6 1.556702 1_555
O26 P6 1.556963 1_555
O27 P1 1.505026 1_545
O28 P7 1.624664 1_555
O29 P7 1.540355 1_555
O30 P8 1.494128 1_555
O31 P0 1.581916 1_554
O32 P9 1.578011 1_555
O33 P8 1.589255 1_555
O34 P6 1.544277 1_555
O35 P9 1.528326 1_555
O36 P7 1.590109 1_555
O37 P6 1.559264 1_555
O38 P1 1.577661 1_555
O39 P7 1.488847 1_555
O40 P8 1.530531 1_555
O41 P8 1.626494 1_555
O42 P9 1.566184 1_555
O43 P10 1.569845 1_555
O44 P2 1.533411 1_554
O45 P11 1.504189 1_555
O46 P11 1.548518 1_555
O47 P10 1.531709 1_555
