# generated using pymatgen
data_SrAlSi4N7
_symmetry_space_group_name_H-M   'P 1'
_cell_length_a   4.97249500
_cell_length_b   11.81134500
_cell_length_c   21.27813000
_cell_angle_alpha   90.00000000
_cell_angle_beta   90.00000000
_cell_angle_gamma   90.00000000
_symmetry_Int_Tables_number   1
_chemical_formula_structural   SrAlSi4N7
_chemical_formula_sum   'Sr8 Al8 Si32 N56'
_cell_volume   1249.70402361
_cell_formula_units_Z   8
loop_
 _symmetry_equiv_pos_site_id
 _symmetry_equiv_pos_as_xyz
  1  'x, y, z'
loop_
 _atom_site_type_symbol
 _atom_site_label
 _atom_site_symmetry_multiplicity
 _atom_site_fract_x
 _atom_site_fract_y
 _atom_site_fract_z
 _atom_site_occupancy
  Sr  Sr0  1  0.93598600  0.22676100  0.01051200  1
  Sr  Sr1  1  0.43598600  0.27323900  0.51051200  1
  Sr  Sr2  1  0.46676100  0.15032800  0.79779500  1
  Sr  Sr3  1  0.46676100  0.65032800  0.70220500  1
  Sr  Sr4  1  0.43598600  0.77323900  0.98948800  1
  Sr  Sr5  1  0.93598600  0.72676100  0.48948800  1
  Sr  Sr6  1  0.96676100  0.34967200  0.29779500  1
  Sr  Sr7  1  0.96676100  0.84967200  0.20220500  1
  Al  Al0  1  0.22987400  0.65995600  0.84829300  1
  Al  Al1  1  0.72987400  0.34004400  0.15170700  1
  Al  Al2  1  0.73763200  0.66122000  0.84972100  1
  Al  Al3  1  0.23763200  0.83878000  0.34972100  1
  Al  Al4  1  0.23763200  0.33878000  0.15027900  1
  Al  Al5  1  0.72987400  0.84004400  0.34829300  1
  Al  Al6  1  0.73763200  0.16122000  0.65027900  1
  Al  Al7  1  0.22987400  0.15995600  0.65170700  1
  Si  Si0  1  0.45783300  0.96604200  0.11027100  1
  Si  Si1  1  0.46880300  0.92886100  0.69962000  1
  Si  Si2  1  0.94968600  0.80988300  0.63909300  1
  Si  Si3  1  0.47072800  0.89853700  0.84690900  1
  Si  Si4  1  0.47072800  0.39853700  0.65309100  1
  Si  Si5  1  0.45783300  0.46604200  0.38972900  1
  Si  Si6  1  0.45975200  0.49888100  0.04424200  1
  Si  Si7  1  0.44968600  0.19011700  0.36090700  1
  Si  Si8  1  0.96880300  0.57113900  0.19962000  1
  Si  Si9  1  0.96880300  0.07113900  0.30038000  1
  Si  Si10  1  0.95717100  0.93981200  0.03331600  1
  Si  Si11  1  0.94658700  0.16232500  0.43470100  1
  Si  Si12  1  0.46889800  0.14079400  0.22330100  1
  Si  Si13  1  0.94658700  0.66232500  0.06529900  1
  Si  Si14  1  0.95717100  0.43981200  0.46668400  1
  Si  Si15  1  0.94968600  0.30988300  0.86090700  1
  Si  Si16  1  0.95975200  0.50111900  0.95575800  1
  Si  Si17  1  0.44658700  0.33767500  0.93470100  1
  Si  Si18  1  0.44658700  0.83767500  0.56529900  1
  Si  Si19  1  0.96889800  0.85920600  0.77669900  1
  Si  Si20  1  0.45717100  0.56018800  0.53331600  1
  Si  Si21  1  0.46880300  0.42886100  0.80038000  1
  Si  Si22  1  0.97072800  0.60146300  0.34690900  1
  Si  Si23  1  0.96889800  0.35920600  0.72330100  1
  Si  Si24  1  0.44968600  0.69011700  0.13909300  1
  Si  Si25  1  0.45717100  0.06018800  0.96668400  1
  Si  Si26  1  0.95975200  0.00111900  0.54424200  1
  Si  Si27  1  0.95783300  0.03395800  0.88972900  1
  Si  Si28  1  0.45975200  0.99888100  0.45575800  1
  Si  Si29  1  0.95783300  0.53395800  0.61027100  1
  Si  Si30  1  0.46889800  0.64079400  0.27669900  1
  Si  Si31  1  0.97072800  0.10146300  0.15309100  1
  N  N0  1  0.29082500  0.13220300  0.29463000  1
  N  N1  1  0.80269900  0.08861500  0.22686600  1
  N  N2  1  0.80505300  0.00292400  0.10168800  1
  N  N3  1  0.30269900  0.41138500  0.72686600  1
  N  N4  1  0.42565800  0.70387800  0.53259800  1
  N  N5  1  0.80123300  0.51054900  0.53346900  1
  N  N6  1  0.98569900  0.93281800  0.31473000  1
  N  N7  1  0.80123300  0.01054900  0.96653100  1
  N  N8  1  0.29745400  0.34474800  0.85797300  1
  N  N9  1  0.48569900  0.56718200  0.81473000  1
  N  N10  1  0.79745400  0.65525200  0.14202700  1
  N  N11  1  0.98280300  0.71974700  0.79282600  1
  N  N12  1  0.27830400  0.94429400  0.52096400  1
  N  N13  1  0.29745400  0.84474800  0.64202700  1
  N  N14  1  0.77830400  0.05570600  0.47903600  1
  N  N15  1  0.98987600  0.10757900  0.59494100  1
  N  N16  1  0.97876900  0.73371200  0.37552800  1
  N  N17  1  0.30004400  0.55318700  0.33300200  1
  N  N18  1  0.80505300  0.50292400  0.39831200  1
  N  N19  1  0.48280300  0.78025300  0.29282600  1
  N  N20  1  0.78973900  0.87808700  0.57322900  1
  N  N21  1  0.91186500  0.66887900  0.63253800  1
  N  N22  1  0.77830400  0.55570600  0.02096400  1
  N  N23  1  0.98987600  0.60757900  0.90505900  1
  N  N24  1  0.80004400  0.94681300  0.83300200  1
  N  N25  1  0.48987600  0.39242100  0.09494100  1
  N  N26  1  0.28973900  0.62191300  0.07322900  1
  N  N27  1  0.30505300  0.49707600  0.60168800  1
  N  N28  1  0.41186500  0.33112100  0.36746200  1
  N  N29  1  0.98280300  0.21974700  0.70717400  1
  N  N30  1  0.91186500  0.16887900  0.86746200  1
  N  N31  1  0.98569900  0.43281800  0.18527000  1
  N  N32  1  0.29082500  0.63220300  0.20537000  1
  N  N33  1  0.92565800  0.79612200  0.03259800  1
  N  N34  1  0.27830400  0.44429400  0.97903600  1
  N  N35  1  0.30269900  0.91138500  0.77313400  1
  N  N36  1  0.41186500  0.83112100  0.13253800  1
  N  N37  1  0.80269900  0.58861500  0.27313400  1
  N  N38  1  0.80004400  0.44681300  0.66699800  1
  N  N39  1  0.30004400  0.05318700  0.16699800  1
  N  N40  1  0.47876900  0.26628800  0.62447200  1
  N  N41  1  0.42565800  0.20387800  0.96740200  1
  N  N42  1  0.79745400  0.15525200  0.35797300  1
  N  N43  1  0.78973900  0.37808700  0.92677100  1
  N  N44  1  0.48280300  0.28025300  0.20717400  1
  N  N45  1  0.79082500  0.86779700  0.70537000  1
  N  N46  1  0.48569900  0.06718200  0.68527000  1
  N  N47  1  0.79082500  0.36779700  0.79463000  1
  N  N48  1  0.28973900  0.12191300  0.42677100  1
  N  N49  1  0.47876900  0.76628800  0.87552800  1
  N  N50  1  0.30123300  0.98945100  0.03346900  1
  N  N51  1  0.30505300  0.99707600  0.89831200  1
  N  N52  1  0.48987600  0.89242100  0.40505900  1
  N  N53  1  0.97876900  0.23371200  0.12447200  1
  N  N54  1  0.30123300  0.48945100  0.46653100  1
  N  N55  1  0.92565800  0.29612200  0.46740200  1
loop_
_geom_bond_atom_site_label_1
_geom_bond_atom_site_label_2
_geom_bond_distance
_geom_bond_site_symmetry_2
Al0 N23 1.807168 1_455
Al0 N9 1.824548 1_555
Al0 N11 1.844192 1_455
Al0 N49 1.856045 1_555
Al1 N25 1.807168 1_555
Al1 N31 1.824548 1_555
Al1 N44 1.844192 1_555
Al1 N53 1.856045 1_555
Al2 N9 1.832315 1_555
Al2 N23 1.833335 1_555
Al2 N11 1.851946 1_555
Al2 N49 1.870421 1_555
Al3 N6 1.832315 1_455
Al3 N52 1.833335 1_555
Al3 N19 1.851946 1_555
Al3 N16 1.870421 1_455
Al4 N31 1.832315 1_455
Al4 N25 1.833335 1_555
Al4 N44 1.851946 1_555
Al4 N53 1.870421 1_455
Al5 N52 1.807168 1_555
Al5 N6 1.824548 1_555
Al5 N19 1.844192 1_555
Al5 N16 1.856045 1_555
Al6 N46 1.832315 1_555
Al6 N15 1.833335 1_555
Al6 N29 1.851946 1_555
Al6 N40 1.870421 1_555
Al7 N15 1.807168 1_455
Al7 N46 1.824548 1_555
Al7 N29 1.844192 1_455
Al7 N40 1.856045 1_555
N0 Si7 1.755198 1_555
N0 Si12 1.760087 1_555
N0 Si9 1.760448 1_455
N0 Sr6 3.032966 1_455
N1 Si12 1.772174 1_555
N1 Si9 1.780913 1_555
N1 Si31 1.784764 1_555
N1 Sr7 2.984276 1_545
N2 Si0 1.789999 1_545
N2 Si31 1.797108 1_555
N2 Si10 1.801209 1_545
N2 Sr7 2.915063 1_545
N3 Si23 1.772174 1_455
N3 Si21 1.780913 1_555
N3 Si4 1.784764 1_555
N3 Sr3 2.984276 1_555
N4 Si20 1.704459 1_555
N4 Si18 1.729858 1_555
N4 Sr5 2.615949 1_455
N4 Sr5 2.711811 1_555
N5 Si20 1.808524 1_555
N5 Si14 1.821735 1_555
N5 Si29 1.831237 1_555
N5 Sr5 2.801147 1_555
N6 Si9 1.664168 1_565
N6 Sr7 2.589613 1_555
N7 Si25 1.808524 1_555
N7 Si10 1.821735 1_546
N7 Si27 1.831237 1_555
N7 Sr0 2.801147 1_556
N8 Si15 1.778727 1_455
N8 Si21 1.792974 1_555
N8 Si17 1.795096 1_555
N8 Sr2 2.760734 1_555
N9 Si21 1.664168 1_555
N9 Sr3 2.589613 1_555
N10 Si24 1.778727 1_555
N10 Si8 1.792974 1_555
N10 Si13 1.795096 1_555
N10 Sr7 2.760734 1_555
N11 Si19 1.683982 1_555
N11 Sr3 3.190855 1_655
N12 Si28 1.776176 1_555
N12 Si18 1.782140 1_555
N12 Si26 1.790214 1_465
N13 Si2 1.778727 1_455
N13 Si1 1.792974 1_555
N13 Si18 1.795096 1_555
N13 Sr3 2.760734 1_555
N14 Si26 1.776176 1_555
N14 Si11 1.782140 1_555
N14 Si28 1.790214 1_545
N15 Si26 1.663535 1_555
N16 Si22 1.677019 1_555
N16 Sr5 2.435554 1_555
N17 Si22 1.759027 1_455
N17 Si5 1.769751 1_555
N17 Si30 1.791912 1_555
N17 Sr6 3.014277 1_455
N18 Si5 1.789999 1_555
N18 Si22 1.797108 1_555
N18 Si14 1.801209 1_555
N18 Sr6 2.915063 1_555
N19 Si30 1.683982 1_555
N19 Sr7 3.190855 1_555
N20 Si18 1.779843 1_555
N20 Si26 1.790761 1_565
N20 Si2 1.801560 1_555
N20 Sr5 2.626500 1_555
N21 Si29 1.678180 1_555
N21 Si2 1.681825 1_555
N21 Sr3 2.672839 1_555
N21 Sr3 3.139865 1_655
N22 Si16 1.776176 1_554
N22 Si13 1.782140 1_555
N22 Si6 1.790214 1_555
N23 Si16 1.663535 1_555
N24 Si3 1.759027 1_555
N24 Si27 1.769751 1_565
N24 Si19 1.791912 1_555
N24 Sr2 3.014277 1_565
N25 Si6 1.663535 1_555
N26 Si13 1.779843 1_455
N26 Si6 1.790761 1_555
N26 Si24 1.801560 1_555
N26 Sr4 2.626500 1_554
N27 Si29 1.789999 1_455
N27 Si4 1.797108 1_555
N27 Si20 1.801209 1_555
N27 Sr3 2.915063 1_555
N28 Si5 1.678180 1_555
N28 Si7 1.681825 1_555
N28 Sr6 2.672839 1_455
N28 Sr6 3.139865 1_555
N29 Si23 1.683982 1_555
N29 Sr2 3.190855 1_655
N30 Si27 1.678180 1_555
N30 Si15 1.681825 1_555
N30 Sr2 2.672839 1_555
N30 Sr2 3.139865 1_655
N31 Si8 1.664168 1_555
N31 Sr6 2.589613 1_555
N32 Si24 1.755198 1_555
N32 Si30 1.760087 1_555
N32 Si8 1.760448 1_455
N32 Sr7 3.032966 1_455
N33 Si10 1.704459 1_555
N33 Si13 1.729858 1_555
N33 Sr4 2.615949 1_554
N33 Sr4 2.711811 1_654
N34 Si6 1.776176 1_556
N34 Si17 1.782140 1_555
N34 Si16 1.790214 1_455
N35 Si19 1.772174 1_455
N35 Si1 1.780913 1_555
N35 Si3 1.784764 1_555
N35 Sr2 2.984276 1_565
N36 Si0 1.678180 1_555
N36 Si24 1.681825 1_555
N36 Sr7 2.672839 1_455
N36 Sr7 3.139865 1_555
N37 Si30 1.772174 1_555
N37 Si8 1.780913 1_555
N37 Si22 1.784764 1_555
N37 Sr6 2.984276 1_555
N38 Si4 1.759027 1_555
N38 Si29 1.769751 1_555
N38 Si23 1.791912 1_555
N38 Sr3 3.014277 1_555
N39 Si31 1.759027 1_455
N39 Si0 1.769751 1_545
N39 Si12 1.791912 1_555
N39 Sr7 3.014277 1_445
N40 Si4 1.677019 1_555
N40 Sr1 2.435554 1_555
N41 Si25 1.704459 1_555
N41 Si17 1.729858 1_555
N41 Sr0 2.615949 1_456
N41 Sr0 2.711811 1_556
N42 Si7 1.778727 1_555
N42 Si9 1.792974 1_555
N42 Si11 1.795096 1_555
N42 Sr6 2.760734 1_555
N43 Si17 1.779843 1_555
N43 Si16 1.790761 1_555
N43 Si15 1.801560 1_555
N43 Sr0 2.626500 1_556
N44 Si12 1.683982 1_555
N44 Sr6 3.190855 1_555
N45 Si2 1.755198 1_555
N45 Si19 1.760087 1_555
N45 Si1 1.760448 1_555
N45 Sr3 3.032966 1_555
N46 Si1 1.664168 1_545
N46 Sr2 2.589613 1_555
N47 Si15 1.755198 1_555
N47 Si23 1.760087 1_555
N47 Si21 1.760448 1_555
N47 Sr2 3.032966 1_555
N48 Si11 1.779843 1_455
N48 Si28 1.790761 1_545
N48 Si7 1.801560 1_555
N48 Sr1 2.626500 1_555
N49 Si3 1.677019 1_555
N49 Sr4 2.435554 1_555
N50 Si10 1.808524 1_455
N50 Si25 1.821735 1_564
N50 Si0 1.831237 1_555
N50 Sr4 2.801147 1_554
N51 Si27 1.789999 1_465
N51 Si3 1.797108 1_555
N51 Si25 1.801209 1_565
N51 Sr2 2.915063 1_565
N52 Si28 1.663535 1_555
N53 Si31 1.677019 1_555
N53 Sr0 2.435554 1_555
N54 Si14 1.808524 1_455
N54 Si20 1.821735 1_555
N54 Si5 1.831237 1_555
N54 Sr1 2.801147 1_555
N55 Si14 1.704459 1_555
N55 Si11 1.729858 1_555
N55 Sr1 2.615949 1_555
N55 Sr1 2.711811 1_655
