# generated using pymatgen
data_Na3Bi(PO4)2
_symmetry_space_group_name_H-M   'P 1'
_cell_length_a   5.42055200
_cell_length_b   14.14678000
_cell_length_c   20.03795753
_cell_angle_alpha   69.47961781
_cell_angle_beta   90.00000000
_cell_angle_gamma   90.00000000
_symmetry_Int_Tables_number   1
_chemical_formula_structural   Na3Bi(PO4)2
_chemical_formula_sum   'Na24 Bi8 P16 O64'
_cell_volume   1439.07821206
_cell_formula_units_Z   8
loop_
 _symmetry_equiv_pos_site_id
 _symmetry_equiv_pos_as_xyz
  1  'x, y, z'
loop_
 _atom_site_type_symbol
 _atom_site_label
 _atom_site_symmetry_multiplicity
 _atom_site_fract_x
 _atom_site_fract_y
 _atom_site_fract_z
 _atom_site_occupancy
  Na  Na0  1  0.29151500  0.94555300  0.80157000  1
  Na  Na1  1  0.24580600  0.66799300  0.63948200  1
  Na  Na2  1  0.75128200  0.80698800  0.86272200  1
  Na  Na3  1  0.25233500  0.68911800  0.96459900  1
  Na  Na4  1  0.79151500  0.55444700  0.19843000  1
  Na  Na5  1  0.75419400  0.33200700  0.36051800  1
  Na  Na6  1  0.74473300  0.25050600  0.69694800  1
  Na  Na7  1  0.74819600  0.15505100  0.53483400  1
  Na  Na8  1  0.74580600  0.83200700  0.36051800  1
  Na  Na9  1  0.70848500  0.05444700  0.19843000  1
  Na  Na10  1  0.25526700  0.74949400  0.30305200  1
  Na  Na11  1  0.75526700  0.75050600  0.69694800  1
  Na  Na12  1  0.24819600  0.34494900  0.46516600  1
  Na  Na13  1  0.75180400  0.65505100  0.53483400  1
  Na  Na14  1  0.24766500  0.18911800  0.96459900  1
  Na  Na15  1  0.25180400  0.84494900  0.46516600  1
  Na  Na16  1  0.25128200  0.69301200  0.13727800  1
  Na  Na17  1  0.74766500  0.31088200  0.03540100  1
  Na  Na18  1  0.24871800  0.19301200  0.13727800  1
  Na  Na19  1  0.24473300  0.24949400  0.30305200  1
  Na  Na20  1  0.74871800  0.30698800  0.86272200  1
  Na  Na21  1  0.20848500  0.44555300  0.80157000  1
  Na  Na22  1  0.25419400  0.16799300  0.63948200  1
  Na  Na23  1  0.75233500  0.81088200  0.03540100  1
  Bi  Bi0  1  0.19298400  0.95505000  0.11902000  1
  Bi  Bi1  1  0.20809600  0.42690100  0.61744300  1
  Bi  Bi2  1  0.79190400  0.57309900  0.38255700  1
  Bi  Bi3  1  0.29190400  0.92690100  0.61744300  1
  Bi  Bi4  1  0.80701600  0.04495000  0.88098000  1
  Bi  Bi5  1  0.69298400  0.54495000  0.88098000  1
  Bi  Bi6  1  0.30701600  0.45505000  0.11902000  1
  Bi  Bi7  1  0.70809600  0.07309900  0.38255700  1
  P  P0  1  0.26910700  0.91761600  0.96039500  1
  P  P1  1  0.23593200  0.12039400  0.46228800  1
  P  P2  1  0.76406800  0.87960600  0.53771200  1
  P  P3  1  0.72515000  0.78836800  0.20779300  1
  P  P4  1  0.72312000  0.50468500  0.70740700  1
  P  P5  1  0.22515000  0.71163200  0.79220700  1
  P  P6  1  0.22312000  0.99531500  0.29259300  1
  P  P7  1  0.73089300  0.08238400  0.03960500  1
  P  P8  1  0.77688000  0.00468500  0.70740700  1
  P  P9  1  0.77485000  0.28836800  0.20779300  1
  P  P10  1  0.27688000  0.49531500  0.29259300  1
  P  P11  1  0.23089300  0.41761600  0.96039500  1
  P  P12  1  0.27485000  0.21163200  0.79220700  1
  P  P13  1  0.76910700  0.58238400  0.03960500  1
  P  P14  1  0.26406800  0.62039400  0.46228800  1
  P  P15  1  0.73593200  0.37960600  0.53771200  1
  O  O0  1  0.45235900  0.40062200  0.91395500  1
  O  O1  1  0.73941300  0.99122500  0.53022300  1
  O  O2  1  0.86440300  0.41754500  0.69285100  1
  O  O3  1  0.51245500  0.91217200  0.91975000  1
  O  O4  1  0.50104500  0.66953500  0.41932500  1
  O  O5  1  0.44412300  0.80760700  0.19036800  1
  O  O6  1  0.54764100  0.59937800  0.08604500  1
  O  O7  1  0.99895500  0.16953500  0.41932500  1
  O  O8  1  0.17686100  0.39140700  0.33884100  1
  O  O9  1  0.23296200  0.32928600  0.03250400  1
  O  O10  1  0.23546500  0.02175600  0.96747900  1
  O  O11  1  0.65799800  0.23357500  0.16178900  1
  O  O12  1  0.76824900  0.86427900  0.46499700  1
  O  O13  1  0.13559700  0.58245500  0.30714900  1
  O  O14  1  0.73273500  0.98406600  0.78917100  1
  O  O15  1  0.53644700  0.81837100  0.58153700  1
  O  O16  1  0.75538200  0.22677400  0.29010900  1
  O  O17  1  0.05587700  0.30760700  0.19036800  1
  O  O18  1  0.25538200  0.27322600  0.70989100  1
  O  O19  1  0.00104500  0.83046500  0.58067500  1
  O  O20  1  0.73296200  0.17071400  0.96749600  1
  O  O21  1  0.23175100  0.13572100  0.53500300  1
  O  O22  1  0.73546500  0.47824400  0.03252100  1
  O  O23  1  0.13948100  0.10965600  0.80272500  1
  O  O24  1  0.74461800  0.72677400  0.29010900  1
  O  O25  1  0.34200200  0.76642500  0.83821100  1
  O  O26  1  0.49895500  0.33046500  0.58067500  1
  O  O27  1  0.76703800  0.67071400  0.96749600  1
  O  O28  1  0.01245500  0.58782800  0.08025000  1
  O  O29  1  0.73175100  0.36427900  0.46499700  1
  O  O30  1  0.24461800  0.77322600  0.70989100  1
  O  O31  1  0.26824900  0.63572100  0.53500300  1
  O  O32  1  0.82313900  0.60859300  0.66115900  1
  O  O33  1  0.67686100  0.10859300  0.66115900  1
  O  O34  1  0.76726500  0.48406600  0.78917100  1
  O  O35  1  0.26726500  0.01593400  0.21082900  1
  O  O36  1  0.15799800  0.26642500  0.83821100  1
  O  O37  1  0.23941300  0.50877500  0.46977700  1
  O  O38  1  0.32313900  0.89140700  0.33884100  1
  O  O39  1  0.04764100  0.90062200  0.91395500  1
  O  O40  1  0.63948100  0.39034400  0.19727500  1
  O  O41  1  0.26453500  0.52175600  0.96747900  1
  O  O42  1  0.23273500  0.51593400  0.21082900  1
  O  O43  1  0.55942400  0.50396200  0.30528500  1
  O  O44  1  0.95235900  0.09937800  0.08604500  1
  O  O45  1  0.44057600  0.49603800  0.69471500  1
  O  O46  1  0.48754500  0.08782800  0.08025000  1
  O  O47  1  0.63559700  0.91754500  0.69285100  1
  O  O48  1  0.86051900  0.89034400  0.19727500  1
  O  O49  1  0.03644700  0.68162900  0.41846300  1
  O  O50  1  0.46355300  0.18162900  0.41846300  1
  O  O51  1  0.98754500  0.41217200  0.91975000  1
  O  O52  1  0.26058700  0.00877500  0.46977700  1
  O  O53  1  0.05942400  0.99603800  0.69471500  1
  O  O54  1  0.96355300  0.31837100  0.58153700  1
  O  O55  1  0.36440300  0.08245500  0.30714900  1
  O  O56  1  0.36051900  0.60965600  0.80272500  1
  O  O57  1  0.55587700  0.19239300  0.80963200  1
  O  O58  1  0.26703800  0.82928600  0.03250400  1
  O  O59  1  0.94057600  0.00396200  0.30528500  1
  O  O60  1  0.94412300  0.69239300  0.80963200  1
  O  O61  1  0.76058700  0.49122500  0.53022300  1
  O  O62  1  0.84200200  0.73357500  0.16178900  1
  O  O63  1  0.76453500  0.97824400  0.03252100  1
loop_
_geom_bond_atom_site_label_1
_geom_bond_atom_site_label_2
_geom_bond_distance
_geom_bond_site_symmetry_2
Na0 O53 2.367540 1_555
Na0 O25 2.393981 1_555
Na0 O14 2.446158 1_555
Na0 O23 2.471205 1_565
Na0 O39 2.493860 1_555
Na0 O3 2.545802 1_555
Na1 O31 2.297011 1_555
Na1 O30 2.383131 1_555
Na1 O32 2.426519 1_455
Na1 O45 2.523808 1_555
Na1 O19 2.555947 1_555
Na1 O15 2.573732 1_555
Na2 O27 2.300871 1_555
Na2 O25 2.385363 1_555
Na2 O14 2.422657 1_555
Na2 O60 2.462028 1_555
Na2 O39 2.518436 1_655
Na2 O3 2.527458 1_555
Na3 O41 2.348957 1_555
Na3 O25 2.429886 1_555
Na3 O28 2.605060 1_556
Na3 O27 2.642063 1_455
Na3 O58 2.771533 1_556
Na3 O27 2.800806 1_555
Na3 O6 2.816050 1_556
Na4 O43 2.367540 1_555
Na4 O62 2.393981 1_555
Na4 O42 2.446158 1_655
Na4 O40 2.471205 1_555
Na4 O6 2.493860 1_555
Na4 O28 2.545802 1_655
Na5 O29 2.297011 1_555
Na5 O16 2.383131 1_555
Na5 O8 2.426519 1_655
Na5 O43 2.523808 1_555
Na5 O7 2.555947 1_555
Na5 O50 2.573732 1_555
Na6 O57 2.349637 1_555
Na6 O33 2.385271 1_555
Na6 O2 2.423961 1_555
Na6 O54 2.473897 1_555
Na6 O26 2.575861 1_555
Na6 O18 2.695375 1_555
Na6 O18 2.809063 1_655
Na7 O1 2.352073 1_545
Na7 O33 2.413001 1_555
Na7 O7 2.629499 1_555
Na7 O21 2.635240 1_655
Na7 O50 2.710123 1_555
Na7 O29 2.797024 1_555
Na7 O21 2.812628 1_555
Na8 O12 2.297011 1_555
Na8 O24 2.383131 1_555
Na8 O38 2.426519 1_555
Na8 O59 2.523808 1_565
Na8 O4 2.555947 1_555
Na8 O49 2.573732 1_655
Na9 O59 2.367540 1_555
Na9 O11 2.393981 1_555
Na9 O35 2.446158 1_555
Na9 O48 2.471205 1_545
Na9 O44 2.493860 1_555
Na9 O46 2.545802 1_555
Na10 O5 2.349637 1_555
Na10 O38 2.385271 1_555
Na10 O13 2.423961 1_555
Na10 O49 2.473897 1_555
Na10 O4 2.575861 1_555
Na10 O24 2.695375 1_555
Na10 O24 2.809063 1_455
Na11 O60 2.349637 1_555
Na11 O32 2.385271 1_555
Na11 O47 2.423961 1_555
Na11 O15 2.473897 1_555
Na11 O19 2.575861 1_655
Na11 O30 2.695375 1_655
Na11 O30 2.809063 1_555
Na12 O37 2.352073 1_555
Na12 O8 2.413001 1_555
Na12 O26 2.629499 1_555
Na12 O29 2.635240 1_555
Na12 O54 2.710123 1_455
Na12 O21 2.797024 1_555
Na12 O29 2.812628 1_455
Na13 O61 2.352073 1_555
Na13 O32 2.413001 1_555
Na13 O4 2.629499 1_555
Na13 O31 2.635240 1_555
Na13 O49 2.710123 1_655
Na13 O12 2.797024 1_555
Na13 O31 2.812628 1_655
Na14 O10 2.348957 1_555
Na14 O36 2.429886 1_555
Na14 O46 2.605060 1_556
Na14 O20 2.642063 1_555
Na14 O9 2.771533 1_556
Na14 O20 2.800806 1_455
Na14 O44 2.816050 1_456
Na15 O52 2.352073 1_565
Na15 O38 2.413001 1_555
Na15 O19 2.629499 1_555
Na15 O12 2.635240 1_455
Na15 O15 2.710123 1_555
Na15 O31 2.797024 1_555
Na15 O12 2.812628 1_555
Na16 O58 2.300871 1_555
Na16 O62 2.385363 1_455
Na16 O42 2.422657 1_555
Na16 O5 2.462028 1_555
Na16 O6 2.518436 1_555
Na16 O28 2.527458 1_555
Na17 O22 2.348957 1_555
Na17 O11 2.429886 1_555
Na17 O51 2.605060 1_554
Na17 O9 2.642063 1_655
Na17 O20 2.771533 1_554
Na17 O9 2.800806 1_555
Na17 O0 2.816050 1_554
Na18 O9 2.300871 1_555
Na18 O11 2.385363 1_555
Na18 O35 2.422657 1_555
Na18 O17 2.462028 1_555
Na18 O44 2.518436 1_455
Na18 O46 2.527458 1_555
Na19 O17 2.349637 1_555
Na19 O8 2.385271 1_555
Na19 O55 2.423961 1_555
Na19 O50 2.473897 1_555
Na19 O7 2.575861 1_455
Na19 O16 2.695375 1_455
Na19 O16 2.809063 1_555
Na20 O20 2.300871 1_555
Na20 O36 2.385363 1_655
Na20 O34 2.422657 1_555
Na20 O57 2.462028 1_555
Na20 O0 2.518436 1_555
Na20 O51 2.527458 1_555
Na21 O45 2.367540 1_555
Na21 O36 2.393981 1_555
Na21 O34 2.446158 1_455
Na21 O56 2.471205 1_555
Na21 O0 2.493860 1_555
Na21 O51 2.545802 1_455
Na22 O21 2.297011 1_555
Na22 O18 2.383131 1_555
Na22 O33 2.426519 1_555
Na22 O53 2.523808 1_545
Na22 O26 2.555947 1_555
Na22 O54 2.573732 1_455
Na23 O63 2.348957 1_555
Na23 O62 2.429886 1_555
Na23 O3 2.605060 1_554
Na23 O58 2.642063 1_555
Na23 O27 2.771533 1_554
Na23 O58 2.800806 1_655
Na23 O39 2.816050 1_654
Bi0 O44 2.315353 1_465
Bi0 O35 2.323624 1_565
Bi0 O48 2.353332 1_455
Bi0 O46 2.378693 1_565
Bi0 O5 2.481370 1_555
Bi1 O18 2.323832 1_555
Bi1 O54 2.325191 1_455
Bi1 O26 2.365249 1_555
Bi1 O2 2.373033 1_455
Bi1 O45 2.450270 1_555
Bi2 O24 2.323832 1_555
Bi2 O49 2.325191 1_655
Bi2 O4 2.365249 1_555
Bi2 O13 2.373033 1_655
Bi2 O43 2.450270 1_555
Bi3 O30 2.323832 1_555
Bi3 O15 2.325191 1_555
Bi3 O19 2.365249 1_555
Bi3 O47 2.373033 1_555
Bi3 O53 2.450270 1_555
Bi4 O39 2.315353 1_645
Bi4 O14 2.323624 1_545
Bi4 O23 2.353332 1_655
Bi4 O3 2.378693 1_545
Bi4 O57 2.481370 1_555
Bi5 O0 2.315353 1_555
Bi5 O34 2.323624 1_555
Bi5 O56 2.353332 1_555
Bi5 O51 2.378693 1_555
Bi5 O60 2.481370 1_555
Bi6 O6 2.315353 1_555
Bi6 O42 2.323624 1_555
Bi6 O40 2.353332 1_555
Bi6 O28 2.378693 1_555
Bi6 O17 2.481370 1_555
Bi7 O16 2.323832 1_555
Bi7 O50 2.325191 1_555
Bi7 O7 2.365249 1_555
Bi7 O55 2.373033 1_555
Bi7 O59 2.450270 1_555
O0 P11 1.587990 1_555
O1 P2 1.538717 1_555
O2 P4 1.563114 1_555
O3 P0 1.566268 1_555
O4 P14 1.566810 1_555
O5 P3 1.565207 1_555
O6 P13 1.587990 1_555
O7 P1 1.566810 1_655
O8 P10 1.535738 1_555
O9 P11 1.543871 1_554
O10 P0 1.539633 1_545
O11 P9 1.533873 1_555
O12 P2 1.546624 1_555
O13 P10 1.563114 1_555
O14 P8 1.578479 1_565
O15 P2 1.584491 1_555
O16 P9 1.575891 1_555
O17 P9 1.565207 1_455
O18 P12 1.575891 1_555
O19 P2 1.566810 1_455
O20 P7 1.543871 1_556
O21 P1 1.546624 1_555
O22 P13 1.539633 1_555
O23 P12 1.565525 1_555
O24 P3 1.575891 1_555
O25 P5 1.533873 1_555
O26 P15 1.566810 1_555
O27 P13 1.543871 1_556
O28 P13 1.566268 1_455
O29 P15 1.546624 1_555
O30 P5 1.575891 1_555
O31 P14 1.546624 1_555
O32 P4 1.535738 1_555
O33 P8 1.535738 1_555
O34 P4 1.578479 1_555
O35 P6 1.578479 1_545
O36 P12 1.533873 1_555
O37 P14 1.538717 1_555
O38 P6 1.535738 1_555
O39 P0 1.587990 1_555
O40 P9 1.565525 1_555
O41 P11 1.539633 1_555
O42 P10 1.578479 1_555
O43 P10 1.564315 1_555
O44 P7 1.587990 1_555
O45 P4 1.564315 1_555
O46 P7 1.566268 1_555
O47 P8 1.563114 1_565
O48 P3 1.565525 1_555
O49 P14 1.584491 1_555
O50 P1 1.584491 1_555
O51 P11 1.566268 1_655
O52 P1 1.538717 1_555
O53 P8 1.564315 1_465
O54 P15 1.584491 1_555
O55 P6 1.563114 1_545
O56 P5 1.565525 1_555
O57 P12 1.565207 1_555
O58 P0 1.543871 1_554
O59 P6 1.564315 1_645
O60 P5 1.565207 1_655
O61 P15 1.538717 1_555
O62 P3 1.533873 1_555
O63 P7 1.539633 1_565
