# generated using pymatgen
data_Ti2CuS4
_symmetry_space_group_name_H-M   'P 1'
_cell_length_a   12.22031921
_cell_length_b   12.22010482
_cell_length_c   12.22021401
_cell_angle_alpha   33.32841317
_cell_angle_beta   33.32511576
_cell_angle_gamma   33.32684172
_symmetry_Int_Tables_number   1
_chemical_formula_structural   Ti2CuS4
_chemical_formula_sum   'Ti8 Cu4 S16'
_cell_volume   490.47158946
_cell_formula_units_Z   4
loop_
 _symmetry_equiv_pos_site_id
 _symmetry_equiv_pos_as_xyz
  1  'x, y, z'
loop_
 _atom_site_type_symbol
 _atom_site_label
 _atom_site_symmetry_multiplicity
 _atom_site_fract_x
 _atom_site_fract_y
 _atom_site_fract_z
 _atom_site_occupancy
  Ti  Ti0  1  0.91710533  0.41921233  0.91716187  1
  Ti  Ti1  1  0.08291039  0.08278766  0.58087764  1
  Ti  Ti2  1  0.50000000  0.50000000  0.50000000  1
  Ti  Ti3  1  0.91708961  0.91721234  0.41912236  1
  Ti  Ti4  1  0.58094947  0.08280470  0.08286430  1
  Ti  Ti5  1  0.08289467  0.58078767  0.08283813  1
  Ti  Ti6  1  0.41905053  0.91719530  0.91713570  1
  Ti  Ti7  1  0.00000000  -0.00000000  -0.00000000  1
  Cu  Cu0  1  0.18761116  0.18758862  0.18761837  1
  Cu  Cu1  1  0.35378316  0.35382278  0.35380534  1
  Cu  Cu2  1  0.64621684  0.64617722  0.64619466  1
  Cu  Cu3  1  0.81238884  0.81241138  0.81238163  1
  S  S0  1  0.38366655  0.38362215  0.86393327  1
  S  S1  1  0.20154151  0.20151454  0.72361165  1
  S  S2  1  0.79845849  0.79848546  0.27638835  1
  S  S3  1  0.87655385  0.87657721  0.87656168  1
  S  S4  1  0.13608384  0.61635497  0.61632671  1
  S  S5  1  0.61634911  0.13606804  0.61636923  1
  S  S6  1  0.79848265  0.27637592  0.79849573  1
  S  S7  1  0.27640264  0.79845811  0.79845364  1
  S  S8  1  0.38365089  0.86393196  0.38363077  1
  S  S9  1  0.72359736  0.20154189  0.20154636  1
  S  S10  1  0.20151735  0.72362408  0.20150427  1
  S  S11  1  0.61633345  0.61637785  0.13606673  1
  S  S12  1  0.28856486  0.28868649  0.28862844  1
  S  S13  1  0.71143514  0.71131351  0.71137156  1
  S  S14  1  0.86391616  0.38364503  0.38367329  1
  S  S15  1  0.12344615  0.12342279  0.12343832  1
loop_
_geom_bond_atom_site_label_1
_geom_bond_atom_site_label_2
_geom_bond_distance
_geom_bond_site_symmetry_2
Cu0 S15 2.219824 1_555
Cu0 S8 2.245903 1_545
Cu0 S0 2.245991 1_554
Cu0 S14 2.246009 1_455
Cu1 S10 2.242455 1_555
Cu1 S1 2.242467 1_555
Cu1 S9 2.242495 1_555
Cu1 S12 2.254655 1_555
Cu2 S6 2.242455 1_555
Cu2 S2 2.242467 1_555
Cu2 S7 2.242495 1_555
Cu2 S13 2.254655 1_555
Cu3 S3 2.219824 1_555
Cu3 S5 2.245903 1_565
Cu3 S11 2.245991 1_556
Cu3 S4 2.246009 1_655
S0 Ti5 2.451771 1_556
S0 Ti4 2.453025 1_556
S0 Ti2 2.462948 1_555
S1 Ti7 2.423370 1_556
S1 Ti6 2.463899 1_545
S1 Ti0 2.465082 1_455
S2 Ti7 2.423370 1_665
S2 Ti4 2.463899 1_565
S2 Ti5 2.465082 1_655
S3 Ti4 2.437385 1_566
S3 Ti1 2.437561 1_665
S3 Ti5 2.437777 1_656
S4 Ti0 2.452121 1_455
S4 Ti3 2.452800 1_455
S4 Ti2 2.462922 1_555
S5 Ti3 2.452107 1_545
S5 Ti6 2.452697 1_545
S5 Ti2 2.462913 1_555
S6 Ti7 2.423244 1_656
S6 Ti4 2.464195 1_556
S6 Ti1 2.464741 1_655
S7 Ti7 2.423479 1_566
S7 Ti1 2.464175 1_565
S7 Ti5 2.464797 1_556
S8 Ti1 2.452107 1_565
S8 Ti4 2.452697 1_565
S8 Ti2 2.462913 1_555
S9 Ti7 2.423479 1_655
S9 Ti3 2.464175 1_545
S9 Ti0 2.464797 1_554
S10 Ti7 2.423244 1_565
S10 Ti6 2.464195 1_554
S10 Ti3 2.464741 1_455
S11 Ti0 2.451771 1_554
S11 Ti6 2.453025 1_554
S11 Ti2 2.462948 1_555
S12 Ti5 2.439755 1_555
S12 Ti1 2.439919 1_555
S12 Ti4 2.440131 1_555
S13 Ti0 2.439755 1_555
S13 Ti3 2.439919 1_555
S13 Ti6 2.440131 1_555
S14 Ti5 2.452121 1_655
S14 Ti1 2.452800 1_655
S14 Ti2 2.462922 1_555
S15 Ti6 2.437385 1_544
S15 Ti3 2.437561 1_445
S15 Ti0 2.437777 1_454
