# generated using pymatgen
data_Ce7C3I10
_symmetry_space_group_name_H-M   'P 1'
_cell_length_a   9.73353476
_cell_length_b   11.71413248
_cell_length_c   13.89177470
_cell_angle_alpha   79.57878501
_cell_angle_beta   71.26521898
_cell_angle_gamma   66.17156892
_symmetry_Int_Tables_number   1
_chemical_formula_structural   Ce7C3I10
_chemical_formula_sum   'Ce14 C6 I20'
_cell_volume   1369.76095895
_cell_formula_units_Z   2
loop_
 _symmetry_equiv_pos_site_id
 _symmetry_equiv_pos_as_xyz
  1  'x, y, z'
loop_
 _atom_site_type_symbol
 _atom_site_label
 _atom_site_symmetry_multiplicity
 _atom_site_fract_x
 _atom_site_fract_y
 _atom_site_fract_z
 _atom_site_occupancy
  Ce  Ce0  1  0.95475101  0.11428310  0.82699539  1
  Ce  Ce1  1  0.83444252  0.24426027  0.09931345  1
  Ce  Ce2  1  0.54464225  0.79484276  0.30731376  1
  Ce  Ce3  1  0.24764489  0.05194082  0.92048777  1
  Ce  Ce4  1  0.13607884  0.27438617  0.58749247  1
  Ce  Ce5  1  0.37653133  0.92661178  0.64099597  1
  Ce  Ce6  1  0.75235511  0.94805918  0.07951223  1
  Ce  Ce7  1  0.95661588  0.58151980  0.15952464  1
  Ce  Ce8  1  0.04338412  0.41848020  0.84047536  1
  Ce  Ce9  1  0.45535775  0.20515724  0.69268624  1
  Ce  Ce10  1  0.16555748  0.75573973  0.90068655  1
  Ce  Ce11  1  0.62346867  0.07338822  0.35900403  1
  Ce  Ce12  1  0.04524899  0.88571690  0.17300461  1
  Ce  Ce13  1  0.86392116  0.72561383  0.41250753  1
  C  C0  1  0.24317572  0.11010947  0.72532801  1
  C  C1  1  0.03866770  0.94257695  0.97676987  1
  C  C2  1  0.96133230  0.05742305  0.02323013  1
  C  C3  1  0.16507345  0.22580208  0.77177546  1
  C  C4  1  0.75682428  0.88989053  0.27467199  1
  C  C5  1  0.83492655  0.77419792  0.22822454  1
  I  I0  1  0.85286914  0.69741882  0.95533825  1
  I  I1  1  0.39334549  0.92143622  0.12074952  1
  I  I2  1  0.93191503  0.13029188  0.30364135  1
  I  I3  1  0.95881069  0.56529415  0.63841311  1
  I  I4  1  0.18678444  0.75299556  0.37346102  1
  I  I5  1  0.43756518  0.34439394  0.47600482  1
  I  I6  1  0.71557591  0.39104976  0.90825474  1
  I  I7  1  0.28578124  0.04689906  0.43042508  1
  I  I8  1  0.71421876  0.95310094  0.56957492  1
  I  I9  1  0.04118931  0.43470585  0.36158689  1
  I  I10  1  0.35158423  0.47768935  0.77636719  1
  I  I11  1  0.64841577  0.52231065  0.22363281  1
  I  I12  1  0.56243482  0.65560606  0.52399518  1
  I  I13  1  0.50417146  0.21860674  0.16839855  1
  I  I14  1  0.06808497  0.86970812  0.69635865  1
  I  I15  1  0.14713086  0.30258118  0.04466175  1
  I  I16  1  0.81321556  0.24700444  0.62653898  1
  I  I17  1  0.60665451  0.07856378  0.87925048  1
  I  I18  1  0.49582854  0.78139326  0.83160145  1
  I  I19  1  0.28442409  0.60895024  0.09174526  1
loop_
_geom_bond_atom_site_label_1
_geom_bond_atom_site_label_2
_geom_bond_distance
_geom_bond_site_symmetry_2
Ce0 I6 3.277563 1_555
Ce0 I14 3.280203 1_645
Ce0 I16 3.352175 1_555
Ce0 I17 3.411400 1_555
Ce1 I13 3.168605 1_555
Ce1 I6 3.170794 1_554
Ce1 I2 3.174115 1_555
Ce1 I15 3.211619 1_655
Ce1 I11 3.482949 1_555
Ce2 I12 3.175127 1_555
Ce2 I1 3.222043 1_555
Ce2 I11 3.247508 1_555
Ce2 I7 3.322499 1_565
Ce2 I4 3.518256 1_555
Ce3 I18 3.273829 1_545
Ce3 I15 3.313644 1_556
Ce3 I1 3.366280 1_546
Ce3 I17 3.488049 1_555
Ce4 I16 3.151120 1_455
Ce4 I5 3.201270 1_555
Ce4 I3 3.229132 1_455
Ce4 I7 3.302882 1_555
Ce4 I9 3.543551 1_555
Ce5 I14 3.161923 1_555
Ce5 I18 3.162713 1_555
Ce5 I7 3.238139 1_565
Ce5 I8 3.240706 1_555
Ce5 I12 3.366007 1_555
Ce6 I13 3.273829 1_565
Ce6 I0 3.313644 1_554
Ce6 I17 3.366280 1_564
Ce6 I1 3.488049 1_555
Ce7 I19 3.155890 1_655
Ce7 I11 3.164645 1_555
Ce7 I9 3.179410 1_655
Ce7 I0 3.201226 1_554
Ce7 I15 3.427991 1_655
Ce8 I6 3.155890 1_455
Ce8 I10 3.164645 1_555
Ce8 I3 3.179410 1_455
Ce8 I15 3.201226 1_556
Ce8 I0 3.427991 1_455
Ce9 I5 3.175127 1_555
Ce9 I17 3.222043 1_555
Ce9 I10 3.247508 1_555
Ce9 I8 3.322499 1_545
Ce9 I16 3.518256 1_555
Ce10 I18 3.168605 1_555
Ce10 I19 3.170794 1_556
Ce10 I14 3.174115 1_555
Ce10 I0 3.211619 1_455
Ce10 I10 3.482949 1_555
Ce11 I2 3.161923 1_555
Ce11 I13 3.162713 1_555
Ce11 I8 3.238139 1_545
Ce11 I7 3.240706 1_555
Ce11 I5 3.366007 1_555
Ce12 I19 3.277563 1_555
Ce12 I2 3.280203 1_465
Ce12 I4 3.352175 1_555
Ce12 I1 3.411400 1_555
Ce13 I4 3.151120 1_655
Ce13 I12 3.201270 1_555
Ce13 I9 3.229132 1_655
Ce13 I8 3.302882 1_555
Ce13 I3 3.543551 1_555
C0 C3 1.414115 1_555
C0 Ce5 2.314627 1_545
C0 Ce9 2.604691 1_555
C0 Ce4 2.604715 1_555
C0 Ce3 2.683252 1_555
C0 Ce0 2.691767 1_455
C1 C2 1.406009 1_466
C1 Ce10 2.290594 1_555
C1 Ce3 2.666759 1_565
C1 Ce6 2.672289 1_456
C1 Ce0 2.700396 1_465
C1 Ce12 2.701837 1_556
C2 Ce1 2.290594 1_555
C2 Ce6 2.666759 1_545
C2 Ce3 2.672289 1_654
C2 Ce12 2.700396 1_645
C2 Ce0 2.701837 1_554
C3 Ce8 2.302408 1_555
C3 Ce4 2.600863 1_555
C3 Ce9 2.607464 1_555
C3 Ce0 2.697310 1_455
C3 Ce3 2.698809 1_555
C4 C5 1.414115 1_555
C4 Ce11 2.314627 1_565
C4 Ce2 2.604691 1_555
C4 Ce13 2.604715 1_555
C4 Ce6 2.683252 1_555
C4 Ce12 2.691767 1_655
C5 Ce7 2.302408 1_555
C5 Ce13 2.600863 1_555
C5 Ce2 2.607464 1_555
C5 Ce12 2.697310 1_655
C5 Ce6 2.698809 1_555
