# generated using pymatgen
data_Ta
_symmetry_space_group_name_H-M   'P 1'
_cell_length_a   10.22441287
_cell_length_b   10.22439916
_cell_length_c   5.30303150
_cell_angle_alpha   90.00000428
_cell_angle_beta   89.99999659
_cell_angle_gamma   90.00012670
_symmetry_Int_Tables_number   1
_chemical_formula_structural   Ta
_chemical_formula_sum   Ta30
_cell_volume   554.37084370
_cell_formula_units_Z   30
loop_
 _symmetry_equiv_pos_site_id
 _symmetry_equiv_pos_as_xyz
  1  'x, y, z'
loop_
 _atom_site_type_symbol
 _atom_site_label
 _atom_site_symmetry_multiplicity
 _atom_site_fract_x
 _atom_site_fract_y
 _atom_site_fract_z
 _atom_site_occupancy
  Ta  Ta0  1  0.96545499  0.37180373  0.00000011  1
  Ta  Ta1  1  0.26066048  0.93245341  0.50000005  1
  Ta  Ta2  1  0.31877287  0.68121519  0.74932861  1
  Ta  Ta3  1  0.12819303  0.46548654  0.49999991  1
  Ta  Ta4  1  0.87179488  0.53451016  0.49999983  1
  Ta  Ta5  1  0.89496624  0.10506755  -0.00000014  1
  Ta  Ta6  1  0.81880318  0.81876973  0.75066832  1
  Ta  Ta7  1  0.18119844  0.18121155  0.24932892  1
  Ta  Ta8  1  0.73933864  0.06755568  0.50000009  1
  Ta  Ta9  1  0.93246134  0.26068148  0.49999996  1
  Ta  Ta10  1  0.39496127  0.39497437  0.50000003  1
  Ta  Ta11  1  0.50000574  0.50000127  0.00000002  1
  Ta  Ta12  1  0.53450522  0.87179368  0.50000005  1
  Ta  Ta13  1  0.56751546  0.76065208  -0.00000007  1
  Ta  Ta14  1  0.03453263  0.62819926  0.00000004  1
  Ta  Ta15  1  0.60504842  0.60502255  0.50000004  1
  Ta  Ta16  1  0.31877291  0.68121521  0.25067146  1
  Ta  Ta17  1  0.68123174  0.31880559  0.25067548  1
  Ta  Ta18  1  0.00000824  0.00000179  0.49999998  1
  Ta  Ta19  1  0.81880310  0.81876930  0.24933197  1
  Ta  Ta20  1  0.68123172  0.31880565  0.74932447  1
  Ta  Ta21  1  0.43248116  0.23934195  -0.00000012  1
  Ta  Ta22  1  0.18119844  0.18121150  0.75067109  1
  Ta  Ta23  1  0.76067178  0.56750499  -0.00000019  1
  Ta  Ta24  1  0.37179314  0.96546068  0.00000009  1
  Ta  Ta25  1  0.06754403  0.73932058  0.50000002  1
  Ta  Ta26  1  0.62819357  0.03453493  -0.00000006  1
  Ta  Ta27  1  0.46547927  0.12819877  0.50000003  1
  Ta  Ta28  1  0.23932497  0.43248753  0.00000006  1
  Ta  Ta29  1  0.10505310  0.89494331  -0.00000006  1
loop_
_geom_bond_atom_site_label_1
_geom_bond_atom_site_label_2
_geom_bond_distance
_geom_bond_site_symmetry_2
Ta0 Ta14 2.714964 1_655
Ta0 Ta5 2.820837 1_555
Ta0 Ta28 2.868075 1_655
Ta0 Ta23 2.896149 1_555
Ta0 Ta9 2.904339 1_555
Ta0 Ta9 2.904340 1_554
Ta0 Ta7 3.226670 1_655
Ta0 Ta22 3.226670 1_654
Ta0 Ta17 3.241248 1_555
Ta0 Ta20 3.241249 1_554
Ta0 Ta4 3.273386 1_555
Ta0 Ta4 3.273388 1_554
Ta0 Ta3 3.273617 1_655
Ta0 Ta3 3.273618 1_654
Ta1 Ta18 2.753054 1_565
Ta1 Ta25 2.792481 1_555
Ta1 Ta12 2.867772 1_555
Ta1 Ta27 2.896717 1_565
Ta1 Ta24 2.904398 1_555
Ta1 Ta24 2.904398 1_556
Ta1 Ta16 2.949537 1_555
Ta1 Ta2 2.949538 1_555
Ta1 Ta22 2.982627 1_565
Ta1 Ta7 2.982628 1_565
Ta1 Ta29 3.115907 1_556
Ta1 Ta29 3.115908 1_555
Ta2 Ta25 2.949443 1_555
Ta2 Ta28 2.982320 1_556
Ta2 Ta3 3.226483 1_555
Ta2 Ta24 3.241478 1_556
Ta2 Ta29 3.364121 1_556
Ta3 Ta4 2.714853 1_455
Ta3 Ta9 2.896519 1_455
Ta3 Ta7 3.241724 1_555
Ta4 Ta9 2.867623 1_555
Ta4 Ta6 3.241554 1_555
Ta5 Ta9 3.115922 1_554
Ta5 Ta9 3.115922 1_555
Ta5 Ta8 3.116015 1_554
Ta5 Ta8 3.116017 1_555
Ta5 Ta7 3.304397 1_655
Ta5 Ta6 3.305039 1_544
Ta6 Ta8 2.982870 1_565
Ta7 Ta9 2.982469 1_455
Ta8 Ta9 2.792476 1_555
Ta10 Ta3 2.821222 1_555
Ta10 Ta27 2.821306 1_555
Ta10 Ta15 3.037469 1_555
Ta10 Ta11 3.055678 1_556
Ta10 Ta11 3.055679 1_555
Ta10 Ta21 3.116050 1_556
Ta10 Ta21 3.116051 1_555
Ta10 Ta28 3.116063 1_555
Ta10 Ta28 3.116064 1_556
Ta10 Ta2 3.304580 1_555
Ta10 Ta16 3.304581 1_555
Ta10 Ta20 3.304796 1_555
Ta10 Ta17 3.304796 1_555
Ta10 Ta7 3.364630 1_555
Ta10 Ta22 3.364631 1_555
Ta11 Ta13 2.752934 1_555
Ta11 Ta21 2.753057 1_555
Ta11 Ta23 2.753073 1_555
Ta11 Ta28 2.753244 1_555
Ta11 Ta20 2.938145 1_554
Ta11 Ta17 2.938145 1_555
Ta11 Ta16 2.938297 1_555
Ta11 Ta2 2.938297 1_554
Ta11 Ta15 3.055652 1_554
Ta11 Ta15 3.055652 1_555
Ta12 Ta27 2.714924 1_565
Ta12 Ta15 2.821328 1_555
Ta12 Ta8 2.896943 1_565
Ta12 Ta13 2.904437 1_556
Ta12 Ta13 2.904438 1_555
Ta12 Ta16 3.226501 1_555
Ta12 Ta2 3.226501 1_555
Ta12 Ta19 3.241964 1_555
Ta12 Ta6 3.241964 1_555
Ta12 Ta24 3.273438 1_555
Ta12 Ta24 3.273438 1_556
Ta12 Ta26 3.273650 1_566
Ta12 Ta26 3.273651 1_565
Ta13 Ta23 2.792879 1_555
Ta13 Ta26 2.868187 1_565
Ta13 Ta24 2.896485 1_555
Ta13 Ta19 2.949996 1_555
Ta13 Ta6 2.949997 1_554
Ta13 Ta2 2.982422 1_554
Ta13 Ta16 2.982422 1_555
Ta13 Ta15 3.116051 1_554
Ta13 Ta15 3.116053 1_555
Ta14 Ta29 2.820998 1_555
Ta14 Ta23 2.868007 1_455
Ta14 Ta28 2.896290 1_555
Ta14 Ta25 2.904357 1_555
Ta14 Ta25 2.904357 1_554
Ta14 Ta19 3.226442 1_455
Ta14 Ta6 3.226444 1_454
Ta14 Ta2 3.241426 1_554
Ta14 Ta16 3.241427 1_555
Ta14 Ta3 3.273420 1_555
Ta14 Ta3 3.273421 1_554
Ta14 Ta4 3.273634 1_455
Ta14 Ta4 3.273636 1_454
Ta15 Ta4 2.821007 1_555
Ta15 Ta23 3.116001 1_556
Ta15 Ta23 3.116002 1_555
Ta15 Ta20 3.304343 1_555
Ta15 Ta17 3.304344 1_555
Ta15 Ta16 3.304908 1_555
Ta15 Ta2 3.304908 1_555
Ta15 Ta19 3.364463 1_555
Ta15 Ta6 3.364467 1_555
Ta16 Ta2 2.644395 1_555
Ta16 Ta2 2.658637 1_554
Ta16 Ta25 2.949443 1_555
Ta16 Ta28 2.982320 1_555
Ta16 Ta3 3.226483 1_555
Ta16 Ta24 3.241478 1_555
Ta16 Ta29 3.364121 1_555
Ta17 Ta20 2.644351 1_555
Ta17 Ta20 2.658680 1_554
Ta17 Ta9 2.949478 1_555
Ta17 Ta8 2.949621 1_555
Ta17 Ta23 2.982062 1_555
Ta17 Ta21 2.982576 1_555
Ta17 Ta4 3.226203 1_555
Ta17 Ta27 3.226808 1_555
Ta17 Ta26 3.241748 1_555
Ta17 Ta5 3.364293 1_555
Ta18 Ta8 2.753240 1_455
Ta18 Ta25 2.753305 1_545
Ta18 Ta9 2.753318 1_455
Ta18 Ta22 2.937989 1_555
Ta18 Ta7 2.937989 1_555
Ta18 Ta6 2.938222 1_445
Ta18 Ta19 2.938225 1_445
Ta18 Ta29 3.055795 1_546
Ta18 Ta29 3.055795 1_545
Ta18 Ta5 3.055810 1_456
Ta18 Ta5 3.055812 1_455
Ta19 Ta6 2.644429 1_554
Ta19 Ta6 2.658602 1_555
Ta19 Ta23 2.949815 1_555
Ta19 Ta25 2.982436 1_655
Ta19 Ta8 2.982873 1_565
Ta19 Ta26 3.226939 1_565
Ta19 Ta4 3.241549 1_555
Ta19 Ta29 3.304636 1_655
Ta19 Ta5 3.305044 1_565
Ta20 Ta9 2.949478 1_555
Ta20 Ta8 2.949621 1_555
Ta20 Ta23 2.982061 1_556
Ta20 Ta21 2.982576 1_556
Ta20 Ta4 3.226203 1_555
Ta20 Ta27 3.226808 1_555
Ta20 Ta26 3.241749 1_556
Ta20 Ta5 3.364294 1_556
Ta21 Ta28 2.792867 1_555
Ta21 Ta24 2.868193 1_545
Ta21 Ta26 2.896404 1_555
Ta21 Ta27 2.904428 1_554
Ta21 Ta27 2.904430 1_555
Ta21 Ta22 2.949972 1_554
Ta21 Ta7 2.949972 1_555
Ta22 Ta7 2.644398 1_556
Ta22 Ta7 2.658633 1_555
Ta22 Ta28 2.949902 1_556
Ta22 Ta9 2.982469 1_455
Ta22 Ta24 3.226737 1_546
Ta22 Ta3 3.241725 1_555
Ta22 Ta27 3.241794 1_555
Ta22 Ta5 3.304396 1_456
Ta22 Ta29 3.304722 1_546
Ta23 Ta4 2.904345 1_554
Ta23 Ta4 2.904346 1_555
Ta23 Ta6 2.949818 1_554
Ta24 Ta26 2.715007 1_565
Ta24 Ta29 2.820953 1_555
Ta24 Ta7 3.226737 1_565
Ta24 Ta27 3.273627 1_565
Ta24 Ta27 3.273627 1_564
Ta25 Ta3 2.867638 1_555
Ta25 Ta4 2.896682 1_455
Ta25 Ta6 2.982437 1_455
Ta25 Ta29 3.115985 1_556
Ta25 Ta29 3.115986 1_555
Ta26 Ta5 2.821316 1_555
Ta26 Ta8 2.904463 1_554
Ta26 Ta8 2.904464 1_555
Ta26 Ta6 3.226935 1_544
Ta26 Ta27 3.273439 1_554
Ta26 Ta27 3.273440 1_555
Ta27 Ta8 2.867881 1_555
Ta27 Ta7 3.241794 1_555
Ta28 Ta3 2.904385 1_555
Ta28 Ta3 2.904387 1_554
Ta28 Ta7 2.949901 1_555
Ta29 Ta5 3.038023 1_465
Ta29 Ta6 3.304634 1_454
Ta29 Ta7 3.304723 1_565
