# generated using pymatgen
data_CuC2S2(OF)6
_symmetry_space_group_name_H-M   'P 1'
_cell_length_a   4.87244200
_cell_length_b   5.10379013
_cell_length_c   10.91368882
_cell_angle_alpha   87.55831130
_cell_angle_beta   102.28943457
_cell_angle_gamma   117.65810002
_symmetry_Int_Tables_number   1
_chemical_formula_structural   CuC2S2(OF)6
_chemical_formula_sum   'Cu1 C2 S2 O6 F6'
_cell_volume   234.38435950
_cell_formula_units_Z   1
loop_
 _symmetry_equiv_pos_site_id
 _symmetry_equiv_pos_as_xyz
  1  'x, y, z'
loop_
 _atom_site_type_symbol
 _atom_site_label
 _atom_site_symmetry_multiplicity
 _atom_site_fract_x
 _atom_site_fract_y
 _atom_site_fract_z
 _atom_site_occupancy
  Cu  Cu0  1  0.50000000  0.50000000  0.00000000  1
  C  C0  1  0.05145900  0.28066100  0.32823500  1
  C  C1  1  0.94854100  0.71933900  0.67176500  1
  S  S0  1  0.05071200  0.76496200  0.84805400  1
  S  S1  1  0.94928800  0.23503800  0.15194600  1
  O  O0  1  0.09662000  0.05809600  0.87692300  1
  O  O1  1  0.90338000  0.94190400  0.12307700  1
  O  O2  1  0.22439000  0.48575400  0.11488200  1
  O  O3  1  0.65860300  0.27053000  0.11958600  1
  O  O4  1  0.77561000  0.51424600  0.88511800  1
  O  O5  1  0.34139700  0.72947000  0.88041400  1
  F  F0  1  0.66994700  0.72310100  0.62850100  1
  F  F1  1  0.33005300  0.27689900  0.37149900  1
  F  F2  1  0.82100000  0.05294700  0.37264500  1
  F  F3  1  0.07547500  0.53844000  0.36772700  1
  F  F4  1  0.17900000  0.94705300  0.62735500  1
  F  F5  1  0.92452500  0.46156000  0.63227300  1
loop_
_geom_bond_atom_site_label_1
_geom_bond_atom_site_label_2
_geom_bond_distance
_geom_bond_site_symmetry_2
Cu0 O5 1.988173 1_554
Cu0 O3 1.988173 1_555
Cu0 O2 1.999742 1_555
Cu0 O4 1.999742 1_554
Cu0 O1 2.402677 1_555
Cu0 O0 2.402677 1_554
C0 F3 1.346963 1_555
C0 F1 1.347781 1_555
C0 F2 1.348569 1_455
C1 F5 1.346963 1_555
C1 F0 1.347781 1_555
C1 F4 1.348569 1_655
O0 S0 1.444671 1_545
O1 S1 1.444671 1_565
O2 S1 1.480563 1_455
O3 S1 1.477625 1_555
O4 S0 1.480563 1_655
O5 S0 1.477625 1_555
