# generated using pymatgen
data_Zn2SiO4
_symmetry_space_group_name_H-M   'P 1'
_cell_length_a   5.99243821
_cell_length_b   5.99243821
_cell_length_c   5.99243821
_cell_angle_alpha   107.39011467
_cell_angle_beta   107.39011467
_cell_angle_gamma   113.71876830
_symmetry_Int_Tables_number   1
_chemical_formula_structural   Zn2SiO4
_chemical_formula_sum   'Zn4 Si2 O8'
_cell_volume   164.96091650
_cell_formula_units_Z   2
loop_
 _symmetry_equiv_pos_site_id
 _symmetry_equiv_pos_as_xyz
  1  'x, y, z'
loop_
 _atom_site_type_symbol
 _atom_site_label
 _atom_site_symmetry_multiplicity
 _atom_site_fract_x
 _atom_site_fract_y
 _atom_site_fract_z
 _atom_site_occupancy
  Zn  Zn0  1  0.96725700  0.87500000  0.59225700  1
  Zn  Zn1  1  0.28274300  0.37500000  0.40774300  1
  Zn  Zn2  1  0.62500000  0.03274300  0.90774300  1
  Zn  Zn3  1  0.12500000  0.71725700  0.09225700  1
  Si  Si0  1  0.50000000  0.50000000  0.00000000  1
  Si  Si1  1  0.75000000  0.25000000  0.50000000  1
  O  O0  1  0.41605300  0.12187800  0.31897300  1
  O  O1  1  0.87812200  0.19709500  0.29417500  1
  O  O2  1  0.44709500  0.62812200  0.79417500  1
  O  O3  1  0.37187800  0.16605300  0.81897300  1
  O  O4  1  0.34708000  0.55290500  0.18102700  1
  O  O5  1  0.90292000  0.58394700  0.70582500  1
  O  O6  1  0.80290500  0.09708000  0.68102700  1
  O  O7  1  0.83394700  0.65292000  0.20582500  1
loop_
_geom_bond_atom_site_label_1
_geom_bond_atom_site_label_2
_geom_bond_distance
_geom_bond_site_symmetry_2
O0 Si1 1.655100 1_555
O0 Zn1 1.992083 1_555
O0 Zn3 1.994772 1_545
O1 Si1 1.655100 1_555
O1 Zn2 1.992083 1_554
O1 Zn1 1.994772 1_655
O2 Si0 1.655100 1_556
O2 Zn1 1.992083 1_555
O2 Zn2 1.994772 1_565
O3 Si0 1.655100 1_556
O3 Zn2 1.992083 1_555
O3 Zn0 1.994772 1_445
O4 Si0 1.655100 1_555
O4 Zn3 1.992083 1_555
O4 Zn1 1.994772 1_555
O5 Si1 1.655100 1_555
O5 Zn3 1.992083 1_656
O5 Zn0 1.994772 1_555
O6 Si1 1.655100 1_555
O6 Zn0 1.992083 1_545
O6 Zn2 1.994772 1_555
O7 Si0 1.655100 1_555
O7 Zn0 1.992083 1_555
O7 Zn3 1.994772 1_655
