# generated using pymatgen
data_Li5VP2(O4F)2
_symmetry_space_group_name_H-M   'P 1'
_cell_length_a   10.93660400
_cell_length_b   6.45686200
_cell_length_c   10.52020955
_cell_angle_alpha   89.98153718
_cell_angle_beta   90.00000000
_cell_angle_gamma   90.00000000
_symmetry_Int_Tables_number   1
_chemical_formula_structural   Li5VP2(O4F)2
_chemical_formula_sum   'Li20 V4 P8 O32 F8'
_cell_volume   742.89658078
_cell_formula_units_Z   4
loop_
 _symmetry_equiv_pos_site_id
 _symmetry_equiv_pos_as_xyz
  1  'x, y, z'
loop_
 _atom_site_type_symbol
 _atom_site_label
 _atom_site_symmetry_multiplicity
 _atom_site_fract_x
 _atom_site_fract_y
 _atom_site_fract_z
 _atom_site_occupancy
  Li  Li0  1  0.33661100  0.03215100  0.75419800  1
  Li  Li1  1  0.83661100  0.96784900  0.74580200  1
  Li  Li2  1  0.66555200  0.49139800  0.26821900  1
  Li  Li3  1  0.08350000  0.74112100  0.72747600  1
  Li  Li4  1  0.72394100  0.74498400  0.47459800  1
  Li  Li5  1  0.50000000  0.50000000  0.50000000  1
  Li  Li6  1  0.66338900  0.96784900  0.24580200  1
  Li  Li7  1  0.22394100  0.25501600  0.02540200  1
  Li  Li8  1  0.58350000  0.25887900  0.77252400  1
  Li  Li9  1  0.33444800  0.50860200  0.73178100  1
  Li  Li10  1  0.50000000  0.50000000  0.00000000  1
  Li  Li11  1  0.91650000  0.25887900  0.27252400  1
  Li  Li12  1  0.41650000  0.74112100  0.22747600  1
  Li  Li13  1  0.83444800  0.49139800  0.76821900  1
  Li  Li14  1  0.77605900  0.74498400  0.97459800  1
  Li  Li15  1  0.16555200  0.50860200  0.23178100  1
  Li  Li16  1  0.00000000  0.50000000  0.00000000  1
  Li  Li17  1  0.27605900  0.25501600  0.52540200  1
  Li  Li18  1  0.16338900  0.03215100  0.25419800  1
  Li  Li19  1  0.00000000  0.50000000  0.50000000  1
  V  V0  1  0.50000000  0.00000000  0.50000000  1
  V  V1  1  0.00000000  0.00000000  0.00000000  1
  V  V2  1  0.50000000  0.00000000  0.00000000  1
  V  V3  1  0.00000000  0.00000000  0.50000000  1
  P  P0  1  0.25521700  0.74790400  0.47638000  1
  P  P1  1  0.07930500  0.25873500  0.74428500  1
  P  P2  1  0.42069500  0.25873500  0.24428500  1
  P  P3  1  0.24478300  0.74790400  0.97638000  1
  P  P4  1  0.92069500  0.74126500  0.25571500  1
  P  P5  1  0.57930500  0.74126500  0.75571500  1
  P  P6  1  0.75521700  0.25209600  0.02362000  1
  P  P7  1  0.74478300  0.25209600  0.52362000  1
  O  O0  1  0.51815000  0.94001500  0.81561100  1
  O  O1  1  0.32339600  0.94150400  0.53399000  1
  O  O2  1  0.82339600  0.05849600  0.96601000  1
  O  O3  1  0.51313700  0.54672600  0.80424300  1
  O  O4  1  0.48686300  0.45327400  0.19575700  1
  O  O5  1  0.61992100  0.23798700  0.97385600  1
  O  O6  1  0.98686300  0.54672600  0.30424300  1
  O  O7  1  0.25528000  0.75666800  0.32913200  1
  O  O8  1  0.68433000  0.44614300  0.46811800  1
  O  O9  1  0.98185000  0.94001500  0.31561100  1
  O  O10  1  0.18433000  0.55385700  0.03188200  1
  O  O11  1  0.81567000  0.44614300  0.96811800  1
  O  O12  1  0.44366800  0.23735500  0.39051800  1
  O  O13  1  0.28278500  0.26072200  0.21650800  1
  O  O14  1  0.55633200  0.76264500  0.60948200  1
  O  O15  1  0.38007900  0.76201300  0.02614400  1
  O  O16  1  0.31567000  0.55385700  0.53188200  1
  O  O17  1  0.71721500  0.73927800  0.78349200  1
  O  O18  1  0.74472000  0.24333200  0.67086800  1
  O  O19  1  0.48185000  0.05998500  0.18438900  1
  O  O20  1  0.24472000  0.75666800  0.82913200  1
  O  O21  1  0.78278500  0.73927800  0.28349200  1
  O  O22  1  0.01815000  0.05998500  0.68438900  1
  O  O23  1  0.01313700  0.45327400  0.69575700  1
  O  O24  1  0.05633200  0.23735500  0.89051800  1
  O  O25  1  0.17660400  0.94150400  0.03399000  1
  O  O26  1  0.67660400  0.05849600  0.46601000  1
  O  O27  1  0.94366800  0.76264500  0.10948200  1
  O  O28  1  0.21721500  0.26072200  0.71650800  1
  O  O29  1  0.11992100  0.76201300  0.52614400  1
  O  O30  1  0.75528000  0.24333200  0.17086800  1
  O  O31  1  0.88007900  0.23798700  0.47385600  1
  F  F0  1  0.03086500  0.22600700  0.13274600  1
  F  F1  1  0.62325600  0.78672700  0.05974900  1
  F  F2  1  0.12325600  0.21327300  0.44025100  1
  F  F3  1  0.53086500  0.77399300  0.36725400  1
  F  F4  1  0.96913500  0.77399300  0.86725400  1
  F  F5  1  0.37674400  0.21327300  0.94025100  1
  F  F6  1  0.87674400  0.78672700  0.55974900  1
  F  F7  1  0.46913500  0.22600700  0.63274600  1
loop_
_geom_bond_atom_site_label_1
_geom_bond_atom_site_label_2
_geom_bond_distance
_geom_bond_site_symmetry_2
Li0 O28 2.009989 1_555
Li0 O0 2.170940 1_545
Li0 O20 2.189633 1_545
Li0 O1 2.393977 1_545
Li1 O17 2.009989 1_555
Li1 O22 2.170940 1_665
Li1 O18 2.189633 1_565
Li1 O2 2.393977 1_565
Li2 O21 2.057068 1_555
Li2 O4 2.112093 1_555
Li2 O8 2.132999 1_555
Li2 O30 2.139735 1_555
Li3 O23 2.039186 1_555
Li3 O20 2.064637 1_555
Li3 O29 2.159359 1_555
Li3 O22 2.225888 1_565
Li4 O8 1.978803 1_555
Li4 O26 2.091380 1_565
Li4 O21 2.111297 1_555
Li4 O14 2.320959 1_555
Li5 O8 2.073049 1_555
Li5 O16 2.073049 1_555
Li5 O12 2.140875 1_555
Li5 O14 2.140875 1_555
Li6 O21 2.009989 1_555
Li6 O19 2.170940 1_565
Li6 O30 2.189633 1_565
Li6 O26 2.393977 1_565
Li7 O10 1.978803 1_555
Li7 O25 2.091380 1_545
Li7 O13 2.111297 1_555
Li7 O24 2.320959 1_554
Li8 O3 2.039186 1_555
Li8 O18 2.064637 1_555
Li8 O5 2.159359 1_555
Li8 O0 2.225888 1_545
Li9 O28 2.057068 1_555
Li9 O3 2.112093 1_555
Li9 O16 2.132999 1_555
Li9 O20 2.139735 1_555
Li10 O3 2.086244 1_554
Li10 O4 2.086244 1_555
Li10 O5 2.158282 1_554
Li10 O15 2.158282 1_555
Li11 O6 2.039186 1_555
Li11 O30 2.064637 1_555
Li11 O31 2.159359 1_555
Li11 O9 2.225888 1_545
Li12 O4 2.039186 1_555
Li12 O7 2.064637 1_555
Li12 O15 2.159359 1_555
Li12 O19 2.225888 1_565
Li13 O17 2.057068 1_555
Li13 O23 2.112093 1_655
Li13 O11 2.132999 1_555
Li13 O18 2.139735 1_555
Li14 O11 1.978803 1_555
Li14 O2 2.091380 1_565
Li14 O17 2.111297 1_555
Li14 O27 2.320959 1_556
Li15 O13 2.057068 1_555
Li15 O6 2.112093 1_455
Li15 O10 2.132999 1_555
Li15 O7 2.139735 1_555
Li16 O11 2.073049 1_454
Li16 O10 2.073049 1_555
Li16 O27 2.140875 1_455
Li16 O24 2.140875 1_554
Li17 O16 1.978803 1_555
Li17 O1 2.091380 1_545
Li17 O28 2.111297 1_555
Li17 O12 2.320959 1_555
Li18 O13 2.009989 1_555
Li18 O9 2.170940 1_445
Li18 O7 2.189633 1_545
Li18 O25 2.393977 1_545
Li19 O23 2.086244 1_555
Li19 O6 2.086244 1_455
Li19 O31 2.158282 1_455
Li19 O29 2.158282 1_555
O0 P5 1.578532 1_555
O0 V2 1.988156 1_566
O1 P0 1.576838 1_555
O1 V0 2.000232 1_565
O2 P6 1.576838 1_556
O2 V1 2.000232 1_656
O3 P5 1.536786 1_555
O4 P2 1.536786 1_555
O5 P6 1.572215 1_556
O5 V2 2.038816 1_556
O6 P4 1.536786 1_555
O7 P0 1.550095 1_555
O8 P7 1.532131 1_555
O9 P4 1.578532 1_555
O9 V3 1.988156 1_665
O10 P3 1.532131 1_554
O11 P6 1.532131 1_556
O12 P2 1.564840 1_555
O12 V0 2.013397 1_555
O13 P2 1.536367 1_555
O14 P5 1.564840 1_555
O14 V0 2.013397 1_565
O15 P3 1.572215 1_554
O15 V2 2.038816 1_565
O16 P0 1.532131 1_555
O17 P5 1.536367 1_555
O18 P7 1.550095 1_555
O19 P2 1.578532 1_555
O19 V2 1.988156 1_555
O20 P3 1.550095 1_555
O21 P4 1.536367 1_555
O22 P1 1.578532 1_555
O22 V3 1.988156 1_555
O23 P1 1.536786 1_555
O24 P1 1.564840 1_555
O24 V1 2.013397 1_556
O25 P3 1.576838 1_554
O25 V1 2.000232 1_565
O26 P7 1.576838 1_555
O26 V0 2.000232 1_555
O27 P4 1.564840 1_555
O27 V1 2.013397 1_665
O28 P1 1.536367 1_555
O29 P0 1.572215 1_555
O29 V3 2.038816 1_565
O30 P6 1.550095 1_555
O31 P7 1.572215 1_555
O31 V3 2.038816 1_655
F0 Li11 1.942168 1_455
F0 V1 2.048185 1_555
F0 Li16 2.278694 1_555
F0 Li18 2.301933 1_555
F0 Li7 2.401887 1_555
F0 Li15 2.566310 1_555
F1 Li14 1.915202 1_554
F1 V2 2.026817 1_565
F1 Li6 2.322261 1_555
F1 Li10 2.374970 1_555
F2 Li17 1.915202 1_555
F2 V3 2.026817 1_555
F2 Li18 2.322261 1_555
F2 Li19 2.374970 1_555
F3 Li12 1.942168 1_555
F3 V0 2.048185 1_565
F3 Li5 2.278694 1_555
F3 Li6 2.301933 1_555
F3 Li4 2.401887 1_555
F3 Li2 2.566310 1_555
F4 Li3 1.942168 1_655
F4 V1 2.048185 1_666
F4 Li16 2.278694 1_656
F4 Li1 2.301933 1_555
F4 Li14 2.401887 1_555
F4 Li13 2.566310 1_555
F5 Li7 1.915202 1_556
F5 V2 2.026817 1_556
F5 Li0 2.322261 1_555
F5 Li10 2.374970 1_556
F6 Li4 1.915202 1_555
F6 V3 2.026817 1_665
F6 Li1 2.322261 1_555
F6 Li19 2.374970 1_655
F7 Li8 1.942168 1_555
F7 V0 2.048185 1_555
F7 Li5 2.278694 1_555
F7 Li0 2.301933 1_555
F7 Li17 2.401887 1_555
F7 Li9 2.566310 1_555
