# generated using pymatgen
data_Ce3CuSnSe7
_symmetry_space_group_name_H-M   'P 1'
_cell_length_a   10.61878786
_cell_length_b   10.61878786
_cell_length_c   6.36837400
_cell_angle_alpha   90.00000000
_cell_angle_beta   90.00000000
_cell_angle_gamma   119.99999911
_symmetry_Int_Tables_number   1
_chemical_formula_structural   Ce3CuSnSe7
_chemical_formula_sum   'Ce6 Cu2 Sn2 Se14'
_cell_volume   621.88357314
_cell_formula_units_Z   2
loop_
 _symmetry_equiv_pos_site_id
 _symmetry_equiv_pos_as_xyz
  1  'x, y, z'
loop_
 _atom_site_type_symbol
 _atom_site_label
 _atom_site_symmetry_multiplicity
 _atom_site_fract_x
 _atom_site_fract_y
 _atom_site_fract_z
 _atom_site_occupancy
  Ce  Ce0  1  0.13703100  0.35769200  0.75412200  1
  Ce  Ce1  1  0.77934000  0.13703100  0.25412200  1
  Ce  Ce2  1  0.35769200  0.22066000  0.25412200  1
  Ce  Ce3  1  0.64230800  0.77934000  0.75412200  1
  Ce  Ce4  1  0.22066000  0.86296900  0.75412200  1
  Ce  Ce5  1  0.86296900  0.64230800  0.25412200  1
  Cu  Cu0  1  0.00000000  0.00000000  0.71383900  1
  Cu  Cu1  1  0.00000000  0.00000000  0.21383900  1
  Sn  Sn0  1  0.33333300  0.66666700  0.33095200  1
  Sn  Sn1  1  0.66666700  0.33333300  0.83095200  1
  Se  Se0  1  0.33333300  0.66666700  0.92808900  1
  Se  Se1  1  0.66666700  0.33333300  0.42808900  1
  Se  Se2  1  0.84391600  0.09998800  0.72853000  1
  Se  Se3  1  0.74392800  0.84391600  0.22853000  1
  Se  Se4  1  0.09998800  0.25607200  0.22853000  1
  Se  Se5  1  0.90001200  0.74392800  0.72853000  1
  Se  Se6  1  0.25607200  0.15608400  0.72853000  1
  Se  Se7  1  0.15608400  0.90001200  0.22853000  1
  Se  Se8  1  0.48881200  0.91952400  0.50662100  1
  Se  Se9  1  0.56928800  0.48881200  0.00662100  1
  Se  Se10  1  0.91952400  0.43071200  0.00662100  1
  Se  Se11  1  0.08047600  0.56928800  0.50662100  1
  Se  Se12  1  0.43071200  0.51118800  0.50662100  1
  Se  Se13  1  0.51118800  0.08047600  0.00662100  1
loop_
_geom_bond_atom_site_label_1
_geom_bond_atom_site_label_2
_geom_bond_distance
_geom_bond_site_symmetry_2
Ce0 Se2 2.947099 1_455
Ce0 Se6 2.985593 1_555
Ce0 Se11 3.040211 1_555
Ce0 Se0 3.081881 1_555
Ce0 Se12 3.127824 1_555
Ce0 Se4 3.165814 1_556
Ce0 Se10 3.211280 1_456
Ce0 Cu0 3.329118 1_555
Ce0 Se4 3.478248 1_555
Ce1 Se3 2.947095 1_545
Ce1 Se4 2.985583 1_655
Ce1 Se13 3.040220 1_555
Ce1 Se1 3.081881 1_555
Ce1 Se10 3.127825 1_555
Ce1 Se2 3.165811 1_555
Ce1 Se8 3.211286 1_545
Ce1 Cu1 3.329108 1_655
Ce1 Se2 3.478245 1_554
Ce2 Se4 2.947106 1_555
Ce2 Se7 2.985585 1_545
Ce2 Se9 3.040217 1_555
Ce2 Se1 3.081881 1_555
Ce2 Se13 3.127817 1_555
Ce2 Se6 3.165814 1_555
Ce2 Se12 3.211288 1_555
Ce2 Cu1 3.329117 1_555
Ce2 Se6 3.478247 1_554
Ce3 Se5 2.947106 1_555
Ce3 Se2 2.985585 1_565
Ce3 Se12 3.040217 1_555
Ce3 Se0 3.081881 1_555
Ce3 Se8 3.127817 1_555
Ce3 Se3 3.165814 1_556
Ce3 Se9 3.211288 1_556
Ce3 Cu0 3.329117 1_665
Ce3 Se3 3.478247 1_555
Ce4 Se6 2.947095 1_565
Ce4 Se5 2.985583 1_455
Ce4 Se8 3.040220 1_555
Ce4 Se0 3.081881 1_555
Ce4 Se11 3.127825 1_555
Ce4 Se7 3.165811 1_556
Ce4 Se13 3.211286 1_566
Ce4 Cu0 3.329108 1_565
Ce4 Se7 3.478245 1_555
Ce5 Se7 2.947099 1_655
Ce5 Se3 2.985593 1_555
Ce5 Se10 3.040211 1_555
Ce5 Se1 3.081881 1_555
Ce5 Se9 3.127824 1_555
Ce5 Se5 3.165814 1_555
Ce5 Se11 3.211280 1_655
Ce5 Cu1 3.329118 1_665
Ce5 Se5 3.478248 1_554
Cu0 Se2 2.375477 1_455
Cu0 Se5 2.375477 1_445
Cu0 Se6 2.375477 1_555
Cu1 Se7 2.375477 1_545
Cu1 Se4 2.375477 1_555
Cu1 Se3 2.375477 1_445
Se0 Sn0 2.565582 1_556
Se1 Sn1 2.565582 1_555
Se8 Sn0 2.598801 1_555
Se9 Sn1 2.598809 1_554
Se10 Sn1 2.598800 1_554
Se11 Sn0 2.598800 1_555
Se12 Sn0 2.598809 1_555
Se13 Sn1 2.598801 1_554
