# generated using pymatgen
data_CaNb2P2O11
_symmetry_space_group_name_H-M   'P 1'
_cell_length_a   9.26059973
_cell_length_b   9.26059973
_cell_length_c   5.24684498
_cell_angle_alpha   86.93412178
_cell_angle_beta   86.93412178
_cell_angle_gamma   71.61108418
_symmetry_Int_Tables_number   1
_chemical_formula_structural   CaNb2P2O11
_chemical_formula_sum   'Ca2 Nb4 P4 O22'
_cell_volume   426.05671006
_cell_formula_units_Z   2
loop_
 _symmetry_equiv_pos_site_id
 _symmetry_equiv_pos_as_xyz
  1  'x, y, z'
loop_
 _atom_site_type_symbol
 _atom_site_label
 _atom_site_symmetry_multiplicity
 _atom_site_fract_x
 _atom_site_fract_y
 _atom_site_fract_z
 _atom_site_occupancy
  Ca  Ca0  1  0.60495248  0.39504752  0.25000000  1
  Ca  Ca1  1  0.39504752  0.60495248  0.75000000  1
  Nb  Nb0  1  0.00456903  0.24570464  0.26303916  1
  Nb  Nb1  1  0.24570464  0.00456903  0.76303916  1
  Nb  Nb2  1  0.75429536  0.99543097  0.23696084  1
  Nb  Nb3  1  0.99543097  0.75429536  0.73696084  1
  P  P0  1  0.18584257  0.51905769  0.24531205  1
  P  P1  1  0.81415743  0.48094231  0.75468795  1
  P  P2  1  0.48094231  0.81415743  0.25468795  1
  P  P3  1  0.51905769  0.18584257  0.74531205  1
  O  O0  1  0.62456511  0.07478437  0.55581138  1
  O  O1  1  0.08472940  0.13777117  0.57817114  1
  O  O2  1  0.07478437  0.62456511  0.05581138  1
  O  O3  1  0.83189655  0.40668299  0.49437040  1
  O  O4  1  0.83016205  0.16983795  0.25000000  1
  O  O5  1  0.40668299  0.83189655  0.99437040  1
  O  O6  1  0.59331701  0.16810345  0.00562960  1
  O  O7  1  0.37163008  0.14245151  0.78663421  1
  O  O8  1  0.91527060  0.86222883  0.42182886  1
  O  O9  1  0.13777117  0.08472940  0.07817114  1
  O  O10  1  0.92521563  0.37543489  0.94418862  1
  O  O11  1  0.51460145  0.65372329  0.36612307  1
  O  O12  1  0.34627671  0.48539855  0.13387693  1
  O  O13  1  0.85754849  0.62836992  0.71336579  1
  O  O14  1  0.16983795  0.83016205  0.75000000  1
  O  O15  1  0.86222883  0.91527060  0.92182886  1
  O  O16  1  0.16810345  0.59331701  0.50562960  1
  O  O17  1  0.62836992  0.85754849  0.21336579  1
  O  O18  1  0.65372329  0.51460145  0.86612307  1
  O  O19  1  0.37543489  0.92521563  0.44418862  1
  O  O20  1  0.48539855  0.34627671  0.63387693  1
  O  O21  1  0.14245151  0.37163008  0.28663421  1
loop_
_geom_bond_atom_site_label_1
_geom_bond_atom_site_label_2
_geom_bond_distance
_geom_bond_site_symmetry_2
Ca0 O18 2.337983 1_554
Ca0 O20 2.337983 1_555
Ca0 O11 2.376276 1_555
Ca0 O12 2.376276 1_555
Ca0 O4 2.440274 1_555
Ca0 O6 2.553108 1_555
Ca0 O3 2.553108 1_555
Ca1 O11 2.337983 1_555
Ca1 O12 2.337983 1_556
Ca1 O18 2.376276 1_555
Ca1 O20 2.376276 1_555
Ca1 O14 2.440274 1_555
Ca1 O5 2.553108 1_555
Ca1 O16 2.553108 1_555
Nb0 O9 1.884465 1_555
Nb0 O1 1.941746 1_555
Nb0 O4 1.959535 1_455
Nb0 O21 1.994355 1_555
Nb0 O10 2.035098 1_454
Nb0 O3 2.175881 1_455
Nb1 O1 1.884465 1_555
Nb1 O9 1.941746 1_556
Nb1 O14 1.959535 1_545
Nb1 O7 1.994355 1_555
Nb1 O19 2.035098 1_545
Nb1 O5 2.175881 1_545
Nb2 O8 1.884465 1_555
Nb2 O15 1.941746 1_554
Nb2 O4 1.959535 1_565
Nb2 O17 1.994355 1_555
Nb2 O0 2.035098 1_565
Nb2 O6 2.175881 1_565
Nb3 O15 1.884465 1_555
Nb3 O8 1.941746 1_555
Nb3 O14 1.959535 1_655
Nb3 O13 1.994355 1_555
Nb3 O2 2.035098 1_656
Nb3 O16 2.175881 1_655
O0 P3 1.540275 1_555
O2 P0 1.540275 1_555
O3 P1 1.539685 1_555
O5 P2 1.539685 1_556
O6 P3 1.539685 1_554
O7 P3 1.541939 1_555
O10 P1 1.540275 1_555
O11 P2 1.510217 1_555
O12 P0 1.510217 1_555
O13 P1 1.541939 1_555
O16 P0 1.539685 1_555
O17 P2 1.541939 1_555
O18 P1 1.510217 1_555
O19 P2 1.540275 1_555
O20 P3 1.510217 1_555
O21 P0 1.541939 1_555
