# generated using pymatgen
data_Zr4(AlC2)3
_symmetry_space_group_name_H-M   'P 1'
_cell_length_a   3.34726310
_cell_length_b   3.34726266
_cell_length_c   33.03699755
_cell_angle_alpha   89.99999604
_cell_angle_beta   89.99999676
_cell_angle_gamma   120.00000395
_symmetry_Int_Tables_number   1
_chemical_formula_structural   Zr4(AlC2)3
_chemical_formula_sum   'Zr8 Al6 C12'
_cell_volume   320.56110632
_cell_formula_units_Z   2
loop_
 _symmetry_equiv_pos_site_id
 _symmetry_equiv_pos_as_xyz
  1  'x, y, z'
loop_
 _atom_site_type_symbol
 _atom_site_label
 _atom_site_symmetry_multiplicity
 _atom_site_fract_x
 _atom_site_fract_y
 _atom_site_fract_z
 _atom_site_occupancy
  Zr  Zr0  1  0.66666647  0.33333360  0.54011597  1
  Zr  Zr1  1  0.00000010  0.00000020  0.37923757  1
  Zr  Zr2  1  0.00000001  0.00000037  0.62069189  1
  Zr  Zr3  1  0.33333341  0.66666646  0.04017409  1
  Zr  Zr4  1  0.33333326  0.66666669  0.45978771  1
  Zr  Zr5  1  0.00000057  0.00000030  0.12072256  1
  Zr  Zr6  1  -0.00000006  -0.00000045  0.87934228  1
  Zr  Zr7  1  0.66666704  0.33333335  0.95987336  1
  Al  Al0  1  0.33333318  0.66666669  0.81071000  1
  Al  Al1  1  0.66666705  0.33333356  0.18934222  1
  Al  Al2  1  0.66666611  0.33333333  0.31062763  1
  Al  Al3  1  0.33333372  0.66666682  0.68934468  1
  Al  Al4  1  0.66666641  0.33333362  0.75005639  1
  Al  Al5  1  0.33333354  0.66666644  0.24996562  1
  C  C0  1  0.33333327  0.66666648  0.91678191  1
  C  C1  1  0.66666662  0.33333364  0.66850919  1
  C  C2  1  0.66666747  0.33333359  0.08328752  1
  C  C3  1  0.33333292  0.66666665  0.33143927  1
  C  C4  1  0.66666691  0.33333321  0.24997608  1
  C  C5  1  0.66666615  0.33333321  0.41668203  1
  C  C6  1  0.00000020  -0.00000007  0.00003086  1
  C  C7  1  0.66666644  0.33333321  0.83153489  1
  C  C8  1  0.33333313  0.66666691  0.75004760  1
  C  C9  1  0.33333352  0.66666738  0.58322540  1
  C  C10  1  0.33333378  0.66666679  0.16854251  1
  C  C11  1  -0.00000024  0.00000005  0.49995176  1
loop_
_geom_bond_atom_site_label_1
_geom_bond_atom_site_label_2
_geom_bond_distance
_geom_bond_site_symmetry_2
Al0 C8 2.004104 1_555
Al0 C7 2.051354 1_565
Al0 C7 2.051355 1_455
Al0 C7 2.051355 1_555
Al1 C4 2.003161 1_555
Al1 C10 2.051075 1_555
Al1 C10 2.051076 1_655
Al1 C10 2.051076 1_545
Al2 C4 2.003745 1_555
Al2 C3 2.051207 1_555
Al2 C3 2.051208 1_545
Al2 C3 2.051208 1_655
Al3 C8 2.005442 1_555
Al3 C1 2.051471 1_555
Al3 C1 2.051472 1_565
Al3 C1 2.051473 1_455
Al4 C8 1.932543 1_555
Al4 C8 1.932543 1_545
Al4 C8 1.932543 1_655
Al5 C4 1.932543 1_555
Al5 C4 1.932543 1_455
Al5 C4 1.932543 1_565
C0 Zr6 2.294477 1_565
C0 Zr6 2.294477 1_665
C0 Zr6 2.294478 1_555
C0 Zr7 2.400289 1_455
C0 Zr7 2.400291 1_565
C0 Zr7 2.400291 1_555
C1 Zr2 2.496057 1_665
C1 Zr2 2.496057 1_655
C1 Zr2 2.496057 1_555
C2 Zr5 2.294395 1_655
C2 Zr5 2.294396 1_665
C2 Zr5 2.294396 1_555
C2 Zr3 2.400719 1_655
C2 Zr3 2.400722 1_555
C2 Zr3 2.400722 1_545
C3 Zr1 2.495659 1_555
C3 Zr1 2.495659 1_565
C3 Zr1 2.495661 1_665
C5 Zr1 2.294562 1_555
C5 Zr1 2.294564 1_665
C5 Zr1 2.294564 1_655
C5 Zr4 2.400569 1_555
C5 Zr4 2.400569 1_545
C5 Zr4 2.400571 1_655
C6 Zr3 2.343834 1_555
C6 Zr3 2.343835 1_545
C6 Zr3 2.343835 1_445
C6 Zr7 2.344101 1_444
C6 Zr7 2.344101 1_454
C6 Zr7 2.344102 1_554
C7 Zr6 2.495849 1_665
C7 Zr6 2.495850 1_555
C7 Zr6 2.495851 1_655
C9 Zr2 2.294956 1_565
C9 Zr2 2.294956 1_665
C9 Zr2 2.294957 1_555
C9 Zr0 2.400642 1_565
C9 Zr0 2.400643 1_555
C9 Zr0 2.400644 1_455
C10 Zr5 2.496112 1_555
C10 Zr5 2.496113 1_565
C10 Zr5 2.496113 1_665
C11 Zr4 2.344224 1_555
C11 Zr4 2.344224 1_445
C11 Zr4 2.344224 1_545
C11 Zr0 2.344226 1_445
C11 Zr0 2.344227 1_555
C11 Zr0 2.344227 1_455
