# generated using pymatgen
data_Pm2O3
_symmetry_space_group_name_H-M   'P 1'
_cell_length_a   9.53549143
_cell_length_b   9.53549155
_cell_length_c   9.53549198
_cell_angle_alpha   109.47122157
_cell_angle_beta   109.47122182
_cell_angle_gamma   109.47121616
_symmetry_Int_Tables_number   1
_chemical_formula_structural   Pm2O3
_chemical_formula_sum   'Pm16 O24'
_cell_volume   667.43256516
_cell_formula_units_Z   8
loop_
 _symmetry_equiv_pos_site_id
 _symmetry_equiv_pos_as_xyz
  1  'x, y, z'
loop_
 _atom_site_type_symbol
 _atom_site_label
 _atom_site_symmetry_multiplicity
 _atom_site_fract_x
 _atom_site_fract_y
 _atom_site_fract_z
 _atom_site_occupancy
  Pm  Pm0  1  0.75000000  0.28089564  0.53089564  1
  Pm  Pm1  1  0.75000000  0.78089564  0.03089564  1
  Pm  Pm2  1  0.25000000  0.21910436  0.96910436  1
  Pm  Pm3  1  0.03089564  0.75000000  0.78089564  1
  Pm  Pm4  1  0.28089564  0.53089564  0.75000000  1
  Pm  Pm5  1  0.53089564  0.75000000  0.28089564  1
  Pm  Pm6  1  0.00000000  0.00000000  0.50000000  1
  Pm  Pm7  1  0.78089564  0.03089564  0.75000000  1
  Pm  Pm8  1  0.25000000  0.71910436  0.46910436  1
  Pm  Pm9  1  0.71910436  0.46910436  0.25000000  1
  Pm  Pm10  1  0.46910436  0.25000000  0.71910436  1
  Pm  Pm11  1  0.21910436  0.96910436  0.25000000  1
  Pm  Pm12  1  0.50000000  0.50000000  0.50000000  1
  Pm  Pm13  1  0.96910436  0.25000000  0.21910436  1
  Pm  Pm14  1  0.50000000  0.00000000  0.00000000  1
  Pm  Pm15  1  0.00000000  0.50000000  0.00000000  1
  O  O0  1  0.27121437  0.01205629  0.04067032  1
  O  O1  1  0.95932968  0.72878563  0.98794371  1
  O  O2  1  0.97138597  0.51205629  0.24084192  1
  O  O3  1  0.51205629  0.24084192  0.97138597  1
  O  O4  1  0.74084192  0.22878563  0.26945495  1
  O  O5  1  0.76945495  0.54067032  0.52861403  1
  O  O6  1  0.98794371  0.95932968  0.72878563  1
  O  O7  1  0.52861403  0.76945495  0.54067032  1
  O  O8  1  0.04067032  0.27121437  0.01205629  1
  O  O9  1  0.48794371  0.75915808  0.02861403  1
  O  O10  1  0.73054505  0.25915808  0.77121437  1
  O  O11  1  0.72878563  0.98794371  0.95932968  1
  O  O12  1  0.45932968  0.47138597  0.23054505  1
  O  O13  1  0.02861403  0.48794371  0.75915808  1
  O  O14  1  0.77121437  0.73054505  0.25915808  1
  O  O15  1  0.54067032  0.52861403  0.76945495  1
  O  O16  1  0.26945495  0.74084192  0.22878563  1
  O  O17  1  0.22878563  0.26945495  0.74084192  1
  O  O18  1  0.75915808  0.02861403  0.48794371  1
  O  O19  1  0.24084192  0.97138597  0.51205629  1
  O  O20  1  0.47138597  0.23054505  0.45932968  1
  O  O21  1  0.23054505  0.45932968  0.47138597  1
  O  O22  1  0.25915808  0.77121437  0.73054505  1
  O  O23  1  0.01205629  0.04067032  0.27121437  1
loop_
_geom_bond_atom_site_label_1
_geom_bond_atom_site_label_2
_geom_bond_distance
_geom_bond_site_symmetry_2
O0 Pm11 2.338690 1_545
O0 Pm2 2.340281 1_554
O0 Pm14 2.371587 1_555
O0 Pm3 2.429622 1_544
O1 Pm1 2.338690 1_556
O1 Pm3 2.340281 1_655
O1 Pm15 2.371587 1_656
O1 Pm11 2.429622 1_656
O2 Pm9 2.338690 1_555
O2 Pm8 2.340281 1_655
O2 Pm15 2.371588 1_655
O2 Pm13 2.429622 1_555
O3 Pm10 2.338690 1_555
O3 Pm9 2.340281 1_556
O3 Pm14 2.371587 1_556
O3 Pm2 2.429622 1_555
O4 Pm0 2.338700 1_555
O4 Pm13 2.340276 1_555
O4 Pm14 2.371583 1_555
O4 Pm9 2.429619 1_555
O5 Pm3 2.338695 1_655
O5 Pm9 2.340284 1_555
O5 Pm12 2.371578 1_555
O5 Pm0 2.429625 1_555
O6 Pm3 2.338690 1_655
O6 Pm7 2.340281 1_565
O6 Pm6 2.371588 1_665
O6 Pm2 2.429622 1_665
O7 Pm7 2.338695 1_565
O7 Pm8 2.340284 1_555
O7 Pm12 2.371578 1_555
O7 Pm5 2.429625 1_555
O8 Pm2 2.338690 1_554
O8 Pm13 2.340281 1_455
O8 Pm15 2.371587 1_555
O8 Pm7 2.429622 1_454
O9 Pm5 2.338690 1_555
O9 Pm4 2.340281 1_554
O9 Pm14 2.371587 1_565
O9 Pm1 2.429622 1_555
O10 Pm10 2.338700 1_555
O10 Pm7 2.340276 1_555
O10 Pm15 2.371583 1_656
O10 Pm0 2.429619 1_555
O11 Pm7 2.338690 1_565
O11 Pm1 2.340281 1_556
O11 Pm14 2.371587 1_566
O11 Pm13 2.429622 1_566
O12 Pm2 2.338695 1_554
O12 Pm5 2.340284 1_555
O12 Pm12 2.371578 1_555
O12 Pm9 2.429625 1_555
O13 Pm4 2.338690 1_555
O13 Pm0 2.340281 1_455
O13 Pm15 2.371588 1_556
O13 Pm3 2.429622 1_555
O14 Pm9 2.338700 1_555
O14 Pm1 2.340276 1_555
O14 Pm6 2.371583 1_665
O14 Pm5 2.429619 1_555
O15 Pm1 2.338695 1_556
O15 Pm10 2.340284 1_555
O15 Pm12 2.371578 1_555
O15 Pm4 2.429625 1_555
O16 Pm5 2.338700 1_555
O16 Pm11 2.340276 1_555
O16 Pm15 2.371583 1_555
O16 Pm8 2.429619 1_555
O17 Pm4 2.338700 1_555
O17 Pm2 2.340276 1_555
O17 Pm6 2.371583 1_555
O17 Pm10 2.429619 1_555
O18 Pm0 2.338690 1_555
O18 Pm5 2.340281 1_545
O18 Pm6 2.371587 1_655
O18 Pm7 2.429622 1_555
O19 Pm8 2.338690 1_555
O19 Pm10 2.340281 1_565
O19 Pm6 2.371587 1_565
O19 Pm11 2.429622 1_555
O20 Pm11 2.338695 1_545
O20 Pm0 2.340284 1_555
O20 Pm12 2.371578 1_555
O20 Pm10 2.429625 1_555
O21 Pm13 2.338695 1_455
O21 Pm4 2.340284 1_555
O21 Pm12 2.371578 1_555
O21 Pm8 2.429625 1_555
O22 Pm8 2.338700 1_555
O22 Pm3 2.340276 1_555
O22 Pm14 2.371583 1_566
O22 Pm4 2.429619 1_555
O23 Pm13 2.338690 1_455
O23 Pm11 2.340281 1_545
O23 Pm6 2.371588 1_555
O23 Pm1 2.429622 1_445
