# generated using pymatgen
data_Ga2Pt
_symmetry_space_group_name_H-M   'P 1'
_cell_length_a   8.47550248
_cell_length_b   8.47550916
_cell_length_c   12.36937160
_cell_angle_alpha   110.01248788
_cell_angle_beta   110.01247265
_cell_angle_gamma   89.93989383
_symmetry_Int_Tables_number   1
_chemical_formula_structural   Ga2Pt
_chemical_formula_sum   'Ga32 Pt16'
_cell_volume   777.67084407
_cell_formula_units_Z   16
loop_
 _symmetry_equiv_pos_site_id
 _symmetry_equiv_pos_as_xyz
  1  'x, y, z'
loop_
 _atom_site_type_symbol
 _atom_site_label
 _atom_site_symmetry_multiplicity
 _atom_site_fract_x
 _atom_site_fract_y
 _atom_site_fract_z
 _atom_site_occupancy
  Ga  Ga0  1  0.35362739  0.28983774  0.12429755  1
  Ga  Ga1  1  0.14646215  0.66674817  0.87589073  1
  Ga  Ga2  1  0.58320339  0.51971849  0.12364345  1
  Ga  Ga3  1  0.78991286  0.77132523  0.62431340  1
  Ga  Ga4  1  0.41679661  0.48028151  0.87635655  1
  Ga  Ga5  1  0.85353785  0.33325183  0.12410927  1
  Ga  Ga6  1  0.89627793  0.91689994  0.37634959  1
  Ga  Ga7  1  0.08310006  0.10372207  0.12365041  1
  Ga  Ga8  1  0.03977904  0.60379607  0.12379482  1
  Ga  Ga9  1  0.83340436  0.27128116  0.62423376  1
  Ga  Ga10  1  0.33325183  0.85353785  0.62410927  1
  Ga  Ga11  1  0.46012164  0.98008325  0.87636650  1
  Ga  Ga12  1  0.91689994  0.89627793  0.87634959  1
  Ga  Ga13  1  0.10372207  0.08310006  0.62365041  1
  Ga  Ga14  1  0.27128116  0.83340436  0.12423376  1
  Ga  Ga15  1  0.96022096  0.39620393  0.87620518  1
  Ga  Ga16  1  0.01991675  0.53987836  0.62363350  1
  Ga  Ga17  1  0.66674817  0.14646215  0.37589073  1
  Ga  Ga18  1  0.48028151  0.41679661  0.37635655  1
  Ga  Ga19  1  0.71016126  0.64637261  0.37570145  1
  Ga  Ga20  1  0.53987836  0.01991675  0.12363350  1
  Ga  Ga21  1  0.22867477  0.21008714  0.87568660  1
  Ga  Ga22  1  0.21008714  0.22867477  0.37568660  1
  Ga  Ga23  1  0.16659564  0.72871884  0.37576524  1
  Ga  Ga24  1  0.72871884  0.16659564  0.87576624  1
  Ga  Ga25  1  0.39620393  0.96022096  0.37620518  1
  Ga  Ga26  1  0.51971849  0.58320339  0.62364345  1
  Ga  Ga27  1  0.77132523  0.78991286  0.12431340  1
  Ga  Ga28  1  0.28983774  0.35362739  0.62429855  1
  Ga  Ga29  1  0.64637261  0.71016126  0.87570245  1
  Ga  Ga30  1  0.98008325  0.46012164  0.37636650  1
  Ga  Ga31  1  0.60379607  0.03977904  0.62379482  1
  Pt  Pt0  1  0.51515268  0.26518190  0.53061261  1
  Pt  Pt1  1  0.73481810  0.48484732  0.96938739  1
  Pt  Pt2  1  0.07400100  0.92599900  0.25000000  1
  Pt  Pt3  1  0.67628722  0.32371278  0.25000000  1
  Pt  Pt4  1  0.42577441  0.17602256  0.74990969  1
  Pt  Pt5  1  0.76527117  0.01512069  0.03061801  1
  Pt  Pt6  1  0.26518190  0.51515268  0.03061261  1
  Pt  Pt7  1  0.48484732  0.73481810  0.46938739  1
  Pt  Pt8  1  0.01512069  0.76527117  0.53061801  1
  Pt  Pt9  1  0.92599900  0.07400100  0.75000000  1
  Pt  Pt10  1  0.57422559  0.82397744  0.25009031  1
  Pt  Pt11  1  0.23472883  0.98487931  0.96938199  1
  Pt  Pt12  1  0.82397744  0.57422559  0.75009031  1
  Pt  Pt13  1  0.32371278  0.67628722  0.75000000  1
  Pt  Pt14  1  0.98487931  0.23472883  0.46938199  1
  Pt  Pt15  1  0.17602256  0.42577441  0.24990969  1
loop_
_geom_bond_atom_site_label_1
_geom_bond_atom_site_label_2
_geom_bond_distance
_geom_bond_site_symmetry_2
Ga0 Pt15 2.525738 1_555
Ga0 Pt6 2.543362 1_555
Ga0 Pt11 2.581042 1_544
Ga0 Pt3 2.600845 1_555
Ga0 Ga21 2.717502 1_554
Ga0 Ga18 2.728800 1_555
Ga0 Ga2 2.758932 1_555
Ga0 Ga20 2.777416 1_555
Ga0 Ga7 2.780630 1_555
Ga1 Pt13 2.525041 1_555
Ga1 Pt11 2.538711 1_555
Ga1 Pt6 2.586166 1_556
Ga1 Pt12 2.600974 1_455
Ga1 Ga14 2.712860 1_556
Ga1 Ga16 2.730936 1_555
Ga1 Ga12 2.749941 1_455
Ga1 Ga4 2.781544 1_555
Ga1 Ga15 2.787004 1_455
Ga2 Pt10 2.534260 1_555
Ga2 Pt6 2.537247 1_555
Ga2 Pt1 2.582762 1_554
Ga2 Pt3 2.599115 1_555
Ga2 Ga5 2.781544 1_555
Ga2 Ga27 2.787858 1_555
Ga2 Ga4 2.793835 1_554
Ga3 Pt9 2.525347 1_565
Ga3 Pt8 2.542111 1_655
Ga3 Pt7 2.580276 1_555
Ga3 Pt12 2.600934 1_555
Ga3 Ga31 2.767812 1_565
Ga4 Pt4 2.534260 1_555
Ga4 Pt1 2.537247 1_555
Ga4 Pt6 2.582762 1_556
Ga4 Pt13 2.599115 1_555
Ga5 Pt3 2.525041 1_555
Ga5 Pt5 2.538711 1_555
Ga5 Pt1 2.586166 1_554
Ga5 Pt15 2.600974 1_655
Ga5 Ga7 2.749941 1_655
Ga5 Ga8 2.787004 1_655
Ga6 Pt2 2.532081 1_655
Ga6 Pt14 2.536845 1_565
Ga6 Pt8 2.582164 1_655
Ga6 Pt10 2.598984 1_555
Ga7 Pt2 2.532082 1_545
Ga7 Pt5 2.536843 1_455
Ga7 Pt11 2.582163 1_544
Ga7 Pt15 2.598985 1_555
Ga8 Pt15 2.533348 1_555
Ga8 Pt6 2.540471 1_555
Ga8 Pt1 2.579451 1_454
Ga8 Pt2 2.598549 1_555
Ga9 Pt12 2.524155 1_555
Ga9 Pt0 2.537861 1_555
Ga9 Pt14 2.586337 1_555
Ga9 Pt9 2.602625 1_555
Ga10 Pt13 2.525042 1_555
Ga10 Pt8 2.538710 1_555
Ga10 Pt7 2.586165 1_555
Ga10 Pt4 2.600976 1_565
Ga10 Ga23 2.712870 1_555
Ga10 Ga11 2.730936 1_555
Ga10 Ga13 2.749941 1_565
Ga10 Ga26 2.781545 1_555
Ga10 Ga31 2.787003 1_565
Ga11 Pt13 2.534614 1_555
Ga11 Pt11 2.539073 1_555
Ga11 Pt5 2.579505 1_566
Ga11 Pt4 2.598958 1_565
Ga11 Ga21 2.764077 1_565
Ga11 Ga24 2.776424 1_565
Ga11 Ga29 2.777423 1_555
Ga11 Ga20 2.793599 1_566
Ga12 Pt9 2.532082 1_565
Ga12 Pt11 2.536843 1_655
Ga12 Pt5 2.582163 1_566
Ga12 Pt12 2.598985 1_555
Ga12 Ga3 2.728552 1_555
Ga12 Ga29 2.780635 1_555
Ga12 Ga24 2.790819 1_565
Ga12 Ga7 2.794192 1_666
Ga13 Pt9 2.532081 1_455
Ga13 Pt8 2.536845 1_545
Ga13 Pt14 2.582164 1_455
Ga13 Pt4 2.598984 1_555
Ga13 Ga21 2.728552 1_555
Ga13 Ga28 2.780625 1_555
Ga13 Ga9 2.790818 1_455
Ga13 Ga6 2.794192 1_445
Ga14 Pt10 2.524154 1_555
Ga14 Pt6 2.537862 1_555
Ga14 Pt11 2.586338 1_554
Ga14 Pt2 2.602624 1_555
Ga14 Ga25 2.727847 1_555
Ga14 Ga8 2.762325 1_555
Ga14 Ga20 2.776424 1_565
Ga14 Ga7 2.790819 1_565
Ga15 Pt12 2.533348 1_555
Ga15 Pt1 2.540471 1_555
Ga15 Pt6 2.579451 1_656
Ga15 Pt9 2.598549 1_555
Ga15 Ga9 2.727847 1_555
Ga15 Ga24 2.762325 1_555
Ga15 Ga21 2.767811 1_655
Ga15 Ga8 2.798289 1_656
Ga16 Pt13 2.534613 1_555
Ga16 Pt8 2.539075 1_555
Ga16 Pt14 2.579506 1_455
Ga16 Pt12 2.598957 1_455
Ga16 Ga3 2.764077 1_455
Ga16 Ga9 2.776425 1_455
Ga16 Ga28 2.777415 1_555
Ga16 Ga30 2.793599 1_455
Ga17 Pt3 2.525042 1_555
Ga17 Pt14 2.538710 1_555
Ga17 Pt0 2.586165 1_555
Ga17 Pt10 2.600976 1_545
Ga17 Ga9 2.712860 1_555
Ga17 Ga20 2.730936 1_555
Ga17 Ga6 2.749941 1_545
Ga17 Ga18 2.781545 1_555
Ga17 Ga25 2.787003 1_545
Ga18 Pt15 2.534259 1_555
Ga18 Pt7 2.537248 1_555
Ga18 Pt0 2.582764 1_555
Ga18 Pt3 2.599113 1_555
Ga18 Ga19 2.758932 1_555
Ga18 Ga22 2.787858 1_555
Ga18 Ga26 2.793835 1_555
Ga19 Pt10 2.525729 1_555
Ga19 Pt7 2.543360 1_555
Ga19 Pt8 2.581051 1_655
Ga19 Pt3 2.600844 1_555
Ga19 Ga3 2.717512 1_555
Ga19 Ga2 2.728789 1_555
Ga19 Ga30 2.777421 1_555
Ga19 Ga6 2.780630 1_555
Ga20 Pt3 2.534614 1_555
Ga20 Pt5 2.539073 1_555
Ga20 Pt11 2.579505 1_544
Ga20 Pt10 2.598958 1_545
Ga20 Ga27 2.764077 1_545
Ga21 Pt9 2.525346 1_455
Ga21 Pt11 2.542112 1_545
Ga21 Pt6 2.580277 1_556
Ga21 Pt4 2.600933 1_555
Ga21 Ga4 2.787858 1_555
Ga22 Pt2 2.525347 1_545
Ga22 Pt14 2.542111 1_455
Ga22 Pt0 2.580276 1_555
Ga22 Pt15 2.600934 1_555
Ga22 Ga28 2.717513 1_555
Ga22 Ga7 2.728552 1_555
Ga22 Ga30 2.764077 1_455
Ga22 Ga25 2.767812 1_545
Ga23 Pt15 2.524152 1_555
Ga23 Pt7 2.537862 1_555
Ga23 Pt8 2.586347 1_555
Ga23 Pt2 2.602617 1_555
Ga23 Ga8 2.727836 1_555
Ga23 Ga25 2.762319 1_555
Ga23 Ga30 2.776431 1_455
Ga23 Ga6 2.790820 1_455
Ga24 Pt4 2.524154 1_555
Ga24 Pt1 2.537862 1_555
Ga24 Pt5 2.586338 1_556
Ga24 Pt9 2.602624 1_555
Ga24 Ga5 2.712860 1_556
Ga24 Ga31 2.727847 1_555
Ga25 Pt10 2.533347 1_555
Ga25 Pt7 2.540472 1_555
Ga25 Pt0 2.579452 1_565
Ga25 Pt2 2.598548 1_555
Ga25 Ga31 2.798288 1_565
Ga26 Pt12 2.534259 1_555
Ga26 Pt0 2.537248 1_555
Ga26 Pt7 2.582764 1_555
Ga26 Pt13 2.599113 1_555
Ga26 Ga29 2.728800 1_555
Ga26 Ga28 2.758938 1_555
Ga26 Ga3 2.787858 1_555
Ga27 Pt2 2.525346 1_655
Ga27 Pt5 2.542112 1_565
Ga27 Pt1 2.580277 1_554
Ga27 Pt10 2.600933 1_555
Ga27 Ga29 2.717501 1_554
Ga27 Ga6 2.728552 1_555
Ga27 Ga8 2.767811 1_655
Ga28 Pt4 2.525731 1_555
Ga28 Pt0 2.543368 1_555
Ga28 Pt14 2.581044 1_455
Ga28 Pt13 2.600844 1_555
Ga28 Ga4 2.728789 1_555
Ga29 Pt12 2.525736 1_555
Ga29 Pt1 2.543354 1_555
Ga29 Pt5 2.581049 1_566
Ga29 Pt13 2.600845 1_555
Ga29 Ga4 2.758926 1_555
Ga30 Pt3 2.534613 1_555
Ga30 Pt14 2.539075 1_555
Ga30 Pt8 2.579506 1_655
Ga30 Pt15 2.598957 1_655
Ga30 Ga5 2.730936 1_555
Ga31 Pt4 2.533347 1_555
Ga31 Pt0 2.540472 1_555
Ga31 Pt7 2.579452 1_545
Ga31 Pt9 2.598548 1_555
Ga31 Ga9 2.762325 1_555
