# generated using pymatgen
data_SiC
_symmetry_space_group_name_H-M   'P 1'
_cell_length_a   3.07699899
_cell_length_b   3.07699814
_cell_length_c   52.83511290
_cell_angle_alpha   90.00000000
_cell_angle_beta   90.00000000
_cell_angle_gamma   119.99998780
_symmetry_Int_Tables_number   1
_chemical_formula_structural   SiC
_chemical_formula_sum   'Si21 C21'
_cell_volume   433.21941502
_cell_formula_units_Z   21
loop_
 _symmetry_equiv_pos_site_id
 _symmetry_equiv_pos_as_xyz
  1  'x, y, z'
loop_
 _atom_site_type_symbol
 _atom_site_label
 _atom_site_symmetry_multiplicity
 _atom_site_fract_x
 _atom_site_fract_y
 _atom_site_fract_z
 _atom_site_occupancy
  Si  Si0  1  0.66666700  0.33333300  0.47619269  1
  Si  Si1  1  0.66666700  0.33333300  0.19047420  1
  Si  Si2  1  0.33333300  0.66666700  0.61906628  1
  Si  Si3  1  0.66666700  0.33333300  0.09519542  1
  Si  Si4  1  0.33333300  0.66666700  0.76188325  1
  Si  Si5  1  0.66666700  0.33333300  0.90478046  1
  Si  Si6  1  -0.00000000  -0.00000000  0.71426867  1
  Si  Si7  1  -0.00000000  -0.00000000  0.28571807  1
  Si  Si8  1  0.33333300  0.66666700  0.95234483  1
  Si  Si9  1  0.33333300  0.66666700  0.52375160  1
  Si  Si10  1  0.00000000  0.00000000  0.14284073  1
  Si  Si11  1  0.33333300  0.66666700  0.23805511  1
  Si  Si12  1  0.00000000  0.00000000  0.99999108  1
  Si  Si13  1  -0.00000000  -0.00000000  0.42856314  1
  Si  Si14  1  0.33333300  0.66666700  0.33335458  1
  Si  Si15  1  0.33333300  0.66666700  0.04762735  1
  Si  Si16  1  0.66666700  0.33333300  0.80947546  1
  Si  Si17  1  0.66666700  0.33333300  0.66666373  1
  Si  Si18  1  -0.00000000  -0.00000000  0.57141810  1
  Si  Si19  1  0.66666700  0.33333300  0.38092187  1
  Si  Si20  1  -0.00000000  -0.00000000  0.85713670  1
  C  C0  1  0.33333300  0.66666700  0.27376332  1
  C  C1  1  0.66666700  0.33333300  0.70240139  1
  C  C2  1  0.66666700  0.33333300  0.94048628  1
  C  C3  1  0.33333300  0.66666700  0.65478991  1
  C  C4  1  0.33333300  0.66666700  0.79761571  1
  C  C5  1  -0.00000000  0.00000000  0.32152746  1
  C  C6  1  0.33333300  0.66666700  0.08333141  1
  C  C7  1  -0.00000000  0.00000000  0.60724065  1
  C  C8  1  -0.00000000  -0.00000000  0.03579755  1
  C  C9  1  0.66666700  0.33333300  0.22618657  1
  C  C10  1  0.00000000  -0.00000000  0.17864565  1
  C  C11  1  0.66666700  0.33333300  0.51189161  1
  C  C12  1  0.00000000  -0.00000000  0.89295228  1
  C  C13  1  0.00000000  -0.00000000  0.46436978  1
  C  C14  1  0.33333300  0.66666700  0.55946168  1
  C  C15  1  0.33333300  0.66666700  0.98804193  1
  C  C16  1  0.66666700  0.33333300  0.84518824  1
  C  C17  1  0.33333300  0.66666700  0.36905847  1
  C  C18  1  0.66666700  0.33333300  0.13089271  1
  C  C19  1  0.66666700  0.33333300  0.41661996  1
  C  C20  1  -0.00000000  0.00000000  0.75001210  1
loop_
_geom_bond_atom_site_label_1
_geom_bond_atom_site_label_2
_geom_bond_distance
_geom_bond_site_symmetry_2
C0 Si7 1.885451 1_565
C0 Si7 1.885453 1_555
C0 Si7 1.885454 1_665
C0 Si11 1.886647 1_555
C1 Si6 1.883907 1_655
C1 Si6 1.883910 1_665
C1 Si6 1.883910 1_555
C1 Si17 1.888203 1_555
C2 Si8 1.883754 1_545
C2 Si8 1.883754 1_655
C2 Si8 1.883759 1_555
C2 Si5 1.886521 1_555
C3 Si17 1.884023 1_565
C3 Si17 1.884023 1_455
C3 Si17 1.884027 1_555
C3 Si2 1.887462 1_555
C4 Si16 1.883775 1_565
C4 Si16 1.883776 1_455
C4 Si16 1.883780 1_555
C4 Si4 1.887929 1_555
C5 Si14 1.883202 1_545
C5 Si14 1.883205 1_555
C5 Si14 1.883205 1_445
C5 Si7 1.891993 1_555
C6 Si3 1.883850 1_565
C6 Si3 1.883850 1_455
C6 Si3 1.883855 1_555
C6 Si15 1.886428 1_555
C7 Si2 1.883176 1_545
C7 Si2 1.883179 1_555
C7 Si2 1.883179 1_445
C7 Si18 1.892688 1_555
C8 Si15 1.883249 1_545
C8 Si15 1.883252 1_555
C8 Si15 1.883252 1_445
C8 Si12 1.891839 1_554
C9 Si11 1.883930 1_545
C9 Si11 1.883930 1_655
C9 Si11 1.883935 1_555
C9 Si1 1.886867 1_555
C10 Si1 1.883227 1_455
C10 Si1 1.883230 1_445
C10 Si1 1.883230 1_555
C10 Si10 1.891757 1_555
C11 Si9 1.883779 1_545
C11 Si9 1.883780 1_655
C11 Si9 1.883784 1_555
C11 Si0 1.886156 1_555
C12 Si5 1.883221 1_455
C12 Si5 1.883223 1_445
C12 Si5 1.883224 1_555
C12 Si20 1.892320 1_555
C13 Si0 1.883128 1_455
C13 Si0 1.883131 1_445
C13 Si0 1.883132 1_555
C13 Si13 1.891848 1_555
C14 Si18 1.885480 1_565
C14 Si18 1.885483 1_555
C14 Si18 1.885483 1_665
C14 Si9 1.886746 1_555
C15 Si12 1.885351 1_565
C15 Si12 1.885354 1_555
C15 Si12 1.885355 1_665
C15 Si8 1.886060 1_555
C16 Si20 1.885339 1_655
C16 Si20 1.885342 1_665
C16 Si20 1.885342 1_555
C16 Si16 1.886889 1_555
C17 Si19 1.883839 1_565
C17 Si19 1.883840 1_455
C17 Si19 1.883844 1_555
C17 Si14 1.886419 1_555
C18 Si10 1.885331 1_655
C18 Si10 1.885334 1_665
C18 Si10 1.885335 1_555
C18 Si3 1.886070 1_555
C19 Si13 1.885246 1_655
C19 Si13 1.885248 1_665
C19 Si13 1.885249 1_555
C19 Si19 1.886113 1_555
C20 Si4 1.883975 1_545
C20 Si4 1.883978 1_555
C20 Si4 1.883979 1_445
C20 Si6 1.888508 1_555
