# generated using pymatgen
data_Si(PbO2)2
_symmetry_space_group_name_H-M   'P 1'
_cell_length_a   7.32009949
_cell_length_b   7.32009949
_cell_length_c   19.80596961
_cell_angle_alpha   83.95211614
_cell_angle_beta   83.95211614
_cell_angle_gamma   64.31129015
_symmetry_Int_Tables_number   1
_chemical_formula_structural   Si(PbO2)2
_chemical_formula_sum   'Si8 Pb16 O32'
_cell_volume   948.95091080
_cell_formula_units_Z   8
loop_
 _symmetry_equiv_pos_site_id
 _symmetry_equiv_pos_as_xyz
  1  'x, y, z'
loop_
 _atom_site_type_symbol
 _atom_site_label
 _atom_site_symmetry_multiplicity
 _atom_site_fract_x
 _atom_site_fract_y
 _atom_site_fract_z
 _atom_site_occupancy
  Si  Si0  1  0.08172800  0.90886400  0.33090900  1
  Si  Si1  1  0.65796200  0.33323700  0.33080900  1
  Si  Si2  1  0.90886400  0.08172800  0.83090900  1
  Si  Si3  1  0.34203800  0.66676300  0.66919100  1
  Si  Si4  1  0.09113600  0.91827200  0.16909100  1
  Si  Si5  1  0.91827200  0.09113600  0.66909100  1
  Si  Si6  1  0.33323700  0.65796200  0.83080900  1
  Si  Si7  1  0.66676300  0.34203800  0.16919100  1
  Pb  Pb0  1  0.49850500  0.74705200  0.00348500  1
  Pb  Pb1  1  0.25156000  0.99932700  0.49883600  1
  Pb  Pb2  1  0.00067300  0.74844000  0.00116400  1
  Pb  Pb3  1  0.39389300  0.14244300  0.84156900  1
  Pb  Pb4  1  0.60610700  0.85755700  0.15843100  1
  Pb  Pb5  1  0.74844000  0.00067300  0.50116400  1
  Pb  Pb6  1  0.85755700  0.60610700  0.65843100  1
  Pb  Pb7  1  0.74705200  0.49850500  0.50348500  1
  Pb  Pb8  1  0.50149500  0.25294800  0.99651500  1
  Pb  Pb9  1  0.39484000  0.14930000  0.65822600  1
  Pb  Pb10  1  0.14930000  0.39484000  0.15822600  1
  Pb  Pb11  1  0.60516000  0.85070000  0.34177400  1
  Pb  Pb12  1  0.99932700  0.25156000  0.99883600  1
  Pb  Pb13  1  0.85070000  0.60516000  0.84177400  1
  Pb  Pb14  1  0.25294800  0.50149500  0.49651500  1
  Pb  Pb15  1  0.14244300  0.39389300  0.34156900  1
  O  O0  1  0.83921300  0.58612400  0.95522200  1
  O  O1  1  0.13399200  0.88395400  0.66708500  1
  O  O2  1  0.08843200  0.33523100  0.45389100  1
  O  O3  1  0.16078700  0.41387600  0.04477800  1
  O  O4  1  0.50254700  0.71285900  0.86105500  1
  O  O5  1  0.70515100  0.52591600  0.12530400  1
  O  O6  1  0.47408400  0.29484900  0.37469600  1
  O  O7  1  0.49745300  0.28714100  0.13894500  1
  O  O8  1  0.95947100  0.25262400  0.86221400  1
  O  O9  1  0.04052900  0.74737600  0.13778600  1
  O  O10  1  0.33523100  0.08843200  0.95389100  1
  O  O11  1  0.27448600  0.95843500  0.12548300  1
  O  O12  1  0.91156800  0.66476900  0.54610900  1
  O  O13  1  0.14544500  0.85455500  0.25000000  1
  O  O14  1  0.71285900  0.50254700  0.36105500  1
  O  O15  1  0.95843500  0.27448600  0.62548300  1
  O  O16  1  0.04156500  0.72551400  0.37451700  1
  O  O17  1  0.29484900  0.47408400  0.87469600  1
  O  O18  1  0.11604600  0.86600800  0.83291500  1
  O  O19  1  0.86600800  0.11604600  0.33291500  1
  O  O20  1  0.66476900  0.91156800  0.04610900  1
  O  O21  1  0.85455500  0.14544500  0.75000000  1
  O  O22  1  0.28714100  0.49745300  0.63894500  1
  O  O23  1  0.52591600  0.70515100  0.62530400  1
  O  O24  1  0.39691900  0.60308100  0.75000000  1
  O  O25  1  0.74737600  0.04052900  0.63778600  1
  O  O26  1  0.41387600  0.16078700  0.54477800  1
  O  O27  1  0.60308100  0.39691900  0.25000000  1
  O  O28  1  0.88395400  0.13399200  0.16708500  1
  O  O29  1  0.58612400  0.83921300  0.45522200  1
  O  O30  1  0.72551400  0.04156500  0.87451700  1
  O  O31  1  0.25262400  0.95947100  0.36221400  1
loop_
_geom_bond_atom_site_label_1
_geom_bond_atom_site_label_2
_geom_bond_distance
_geom_bond_site_symmetry_2
O0 Pb13 2.231509 1_555
O0 Pb2 2.304022 1_656
O0 Pb12 2.323083 1_555
O0 Pb0 2.389428 1_556
O1 Si5 1.648758 1_465
O1 Si3 1.658002 1_555
O2 Pb15 2.247290 1_555
O2 Pb14 2.312066 1_555
O2 Pb1 2.341262 1_545
O2 Pb7 2.403908 1_455
O3 Pb10 2.231509 1_555
O3 Pb12 2.304022 1_454
O3 Pb2 2.323083 1_555
O3 Pb8 2.389428 1_554
O4 Si6 1.641747 1_555
O4 Pb13 2.319218 1_555
O5 Si7 1.635895 1_555
O5 Pb4 2.357768 1_555
O6 Si1 1.635895 1_555
O6 Pb15 2.357768 1_555
O7 Si7 1.641747 1_555
O7 Pb10 2.319218 1_555
O8 Si2 1.643233 1_555
O8 Pb13 2.350268 1_555
O8 Pb12 2.750852 1_555
O9 Si4 1.643233 1_555
O9 Pb10 2.350268 1_555
O9 Pb2 2.750852 1_555
O10 Pb3 2.247290 1_555
O10 Pb8 2.312066 1_555
O10 Pb12 2.341262 1_455
O10 Pb0 2.403908 1_546
O11 Si4 1.636480 1_555
O11 Pb4 2.354159 1_555
O12 Pb6 2.247290 1_555
O12 Pb7 2.312066 1_555
O12 Pb5 2.341262 1_565
O12 Pb14 2.403908 1_655
O13 Si4 1.661181 1_555
O13 Si0 1.661181 1_555
O14 Si1 1.641747 1_555
O14 Pb11 2.319218 1_555
O15 Si5 1.636480 1_555
O15 Pb6 2.354159 1_555
O16 Si0 1.636480 1_555
O16 Pb15 2.354159 1_555
O17 Si6 1.635895 1_555
O17 Pb3 2.357768 1_555
O18 Si2 1.648758 1_465
O18 Si6 1.658002 1_555
O19 Si0 1.648758 1_645
O19 Si1 1.658002 1_555
O20 Pb4 2.247290 1_555
O20 Pb0 2.312066 1_555
O20 Pb2 2.341262 1_655
O20 Pb8 2.403908 1_564
O21 Si5 1.661181 1_555
O21 Si2 1.661181 1_555
O22 Si3 1.641747 1_555
O22 Pb9 2.319218 1_555
O23 Si3 1.635895 1_555
O23 Pb6 2.357768 1_555
O24 Si3 1.660184 1_555
O24 Si6 1.660184 1_555
O25 Si5 1.643233 1_555
O25 Pb9 2.350268 1_555
O25 Pb5 2.750852 1_555
O26 Pb9 2.231509 1_555
O26 Pb1 2.304022 1_545
O26 Pb5 2.323083 1_555
O26 Pb14 2.389428 1_555
O27 Si7 1.660184 1_555
O27 Si1 1.660184 1_555
O28 Si4 1.648758 1_645
O28 Si7 1.658002 1_555
O29 Pb11 2.231509 1_555
O29 Pb5 2.304022 1_565
O29 Pb1 2.323083 1_555
O29 Pb7 2.389428 1_555
O30 Si2 1.636480 1_555
O30 Pb3 2.354159 1_555
O31 Si0 1.643233 1_555
O31 Pb11 2.350268 1_555
O31 Pb1 2.750852 1_555
