# generated using pymatgen
data_TmAlSi
_symmetry_space_group_name_H-M   'P 1'
_cell_length_a   3.95325631
_cell_length_b   5.43840393
_cell_length_c   5.62373686
_cell_angle_alpha   90.00000000
_cell_angle_beta   90.00000000
_cell_angle_gamma   111.31267923
_symmetry_Int_Tables_number   1
_chemical_formula_structural   TmAlSi
_chemical_formula_sum   'Tm2 Al2 Si2'
_cell_volume   112.63826410
_cell_formula_units_Z   2
loop_
 _symmetry_equiv_pos_site_id
 _symmetry_equiv_pos_as_xyz
  1  'x, y, z'
loop_
 _atom_site_type_symbol
 _atom_site_label
 _atom_site_symmetry_multiplicity
 _atom_site_fract_x
 _atom_site_fract_y
 _atom_site_fract_z
 _atom_site_occupancy
  Tm  Tm0  1  0.30457931  0.60915862  0.75000000  1
  Tm  Tm1  1  0.69542069  0.39084138  0.25000000  1
  Al  Al0  1  0.00000000  0.00000000  -0.00000000  1
  Al  Al1  1  0.00000000  0.00000000  0.50000000  1
  Si  Si0  1  0.60022866  0.20045833  0.75000000  1
  Si  Si1  1  0.39977134  0.79954167  0.25000000  1
loop_
_geom_bond_atom_site_label_1
_geom_bond_atom_site_label_2
_geom_bond_distance
_geom_bond_site_symmetry_2
Al0 Si1 2.629673 1_445
Al0 Si0 2.629673 1_554
Al0 Si0 2.629676 1_454
Al0 Si1 2.629676 1_545
Al0 Tm1 3.131271 1_455
Al0 Tm0 3.131271 1_544
Al0 Tm0 3.131271 1_444
Al0 Tm1 3.131271 1_555
Al1 Si0 2.629673 1_555
Al1 Si1 2.629673 1_445
Al1 Si1 2.629676 1_545
Al1 Si0 2.629676 1_455
Al1 Tm1 3.131271 1_455
Al1 Tm0 3.131271 1_545
Al1 Tm1 3.131271 1_555
Al1 Tm0 3.131271 1_445
Si0 Tm0 2.862643 1_555
Si0 Tm0 2.862646 1_655
Si0 Tm1 2.972709 1_556
Si0 Tm1 2.972709 1_555
Si0 Tm0 2.995806 1_545
Si1 Tm1 2.862643 1_555
Si1 Tm1 2.862646 1_455
Si1 Tm0 2.972709 1_555
Si1 Tm0 2.972709 1_554
Si1 Tm1 2.995806 1_565
