# generated using pymatgen
data_Ni(PO3)3
_symmetry_space_group_name_H-M   'P 1'
_cell_length_a   5.04665400
_cell_length_b   11.92903900
_cell_length_c   12.88116400
_cell_angle_alpha   90.00000000
_cell_angle_beta   90.00000000
_cell_angle_gamma   90.00000000
_symmetry_Int_Tables_number   1
_chemical_formula_structural   Ni(PO3)3
_chemical_formula_sum   'Ni4 P12 O36'
_cell_volume   775.46838794
_cell_formula_units_Z   4
loop_
 _symmetry_equiv_pos_site_id
 _symmetry_equiv_pos_as_xyz
  1  'x, y, z'
loop_
 _atom_site_type_symbol
 _atom_site_label
 _atom_site_symmetry_multiplicity
 _atom_site_fract_x
 _atom_site_fract_y
 _atom_site_fract_z
 _atom_site_occupancy
  Ni  Ni0  1  0.00000000  0.00000000  0.00000000  1
  Ni  Ni1  1  0.00000000  0.00000000  0.50000000  1
  Ni  Ni2  1  0.00000000  0.50000000  0.00000000  1
  Ni  Ni3  1  0.00000000  0.50000000  0.50000000  1
  P  P0  1  0.23184700  0.75000000  0.00000000  1
  P  P1  1  0.23184700  0.75000000  0.50000000  1
  P  P2  1  0.50163500  0.58305700  0.63167900  1
  P  P3  1  0.50163500  0.58305700  0.86832100  1
  P  P4  1  0.50163500  0.91694300  0.13167900  1
  P  P5  1  0.50163500  0.91694300  0.36832100  1
  P  P6  1  0.49836500  0.08305700  0.63167900  1
  P  P7  1  0.49836500  0.08305700  0.86832100  1
  P  P8  1  0.49836500  0.41694300  0.13167900  1
  P  P9  1  0.49836500  0.41694300  0.36832100  1
  P  P10  1  0.76815300  0.25000000  0.00000000  1
  P  P11  1  0.76815300  0.25000000  0.50000000  1
  O  O0  1  0.08023100  0.65360700  0.04624000  1
  O  O1  1  0.08023100  0.65360700  0.45376000  1
  O  O2  1  0.08023100  0.84639300  0.54624000  1
  O  O3  1  0.08023100  0.84639300  0.95376000  1
  O  O4  1  0.20626300  0.06171900  0.62251800  1
  O  O5  1  0.20626300  0.06171900  0.87748200  1
  O  O6  1  0.20626300  0.43828100  0.12251800  1
  O  O7  1  0.20626300  0.43828100  0.37748200  1
  O  O8  1  0.31691700  0.00388500  0.08650100  1
  O  O9  1  0.31691700  0.00388500  0.41349900  1
  O  O10  1  0.31691700  0.49611500  0.58650100  1
  O  O11  1  0.31691700  0.49611500  0.91349900  1
  O  O12  1  0.42365400  0.60298900  0.75000000  1
  O  O13  1  0.42365400  0.89701100  0.25000000  1
  O  O14  1  0.43318100  0.70586200  0.58727600  1
  O  O15  1  0.43318100  0.70586200  0.91272400  1
  O  O16  1  0.43318100  0.79413800  0.08727600  1
  O  O17  1  0.43318100  0.79413800  0.41272400  1
  O  O18  1  0.56681900  0.20586200  0.58727600  1
  O  O19  1  0.56681900  0.20586200  0.91272400  1
  O  O20  1  0.56681900  0.29413800  0.08727600  1
  O  O21  1  0.56681900  0.29413800  0.41272400  1
  O  O22  1  0.57634600  0.10298900  0.75000000  1
  O  O23  1  0.57634600  0.39701100  0.25000000  1
  O  O24  1  0.68308300  0.50388500  0.08650100  1
  O  O25  1  0.68308300  0.50388500  0.41349900  1
  O  O26  1  0.68308300  0.99611500  0.58650100  1
  O  O27  1  0.68308300  0.99611500  0.91349900  1
  O  O28  1  0.79373700  0.56171900  0.62251800  1
  O  O29  1  0.79373700  0.56171900  0.87748200  1
  O  O30  1  0.79373700  0.93828100  0.12251800  1
  O  O31  1  0.79373700  0.93828100  0.37748200  1
  O  O32  1  0.91976900  0.15360700  0.04624000  1
  O  O33  1  0.91976900  0.15360700  0.45376000  1
  O  O34  1  0.91976900  0.34639300  0.54624000  1
  O  O35  1  0.91976900  0.34639300  0.95376000  1
loop_
_geom_bond_atom_site_label_1
_geom_bond_atom_site_label_2
_geom_bond_distance
_geom_bond_site_symmetry_2
Ni0 O8 1.949782 1_555
Ni0 O27 1.949782 1_444
Ni0 O32 1.968843 1_455
Ni0 O3 1.968843 1_544
Ni0 O5 2.028854 1_554
Ni0 O30 2.028854 1_445
Ni1 O26 1.949782 1_445
Ni1 O9 1.949782 1_555
Ni1 O33 1.968843 1_455
Ni1 O2 1.968843 1_545
Ni1 O4 2.028854 1_555
Ni1 O31 2.028854 1_445
Ni2 O24 1.949782 1_455
Ni2 O11 1.949782 1_554
Ni2 O0 1.968843 1_555
Ni2 O35 1.968843 1_454
Ni2 O6 2.028854 1_555
Ni2 O29 2.028854 1_454
Ni3 O10 1.949782 1_555
Ni3 O25 1.949782 1_455
Ni3 O1 1.968843 1_555
Ni3 O34 1.968843 1_455
Ni3 O7 2.028854 1_555
Ni3 O28 2.028854 1_455
O0 P0 1.504142 1_555
O1 P1 1.504142 1_555
O2 P1 1.504142 1_555
O3 P0 1.504142 1_556
O4 P6 1.500599 1_555
O5 P7 1.500599 1_555
O6 P8 1.500599 1_555
O7 P9 1.500599 1_555
O8 P4 1.511066 1_545
O9 P5 1.511066 1_545
O10 P2 1.511066 1_555
O11 P3 1.511066 1_555
O12 P2 1.591957 1_555
O12 P3 1.591957 1_555
O13 P5 1.591957 1_555
O13 P4 1.591957 1_555
O14 P1 1.604205 1_555
O14 P2 1.610140 1_555
O15 P0 1.604205 1_556
O15 P3 1.610140 1_555
O16 P0 1.604205 1_555
O16 P4 1.610140 1_555
O17 P1 1.604205 1_555
O17 P5 1.610140 1_555
O18 P11 1.604205 1_555
O18 P6 1.610140 1_555
O19 P10 1.604205 1_556
O19 P7 1.610140 1_555
O20 P10 1.604205 1_555
O20 P8 1.610140 1_555
O21 P11 1.604205 1_555
O21 P9 1.610140 1_555
O22 P7 1.591957 1_555
O22 P6 1.591957 1_555
O23 P9 1.591957 1_555
O23 P8 1.591957 1_555
O24 P8 1.511066 1_555
O25 P9 1.511066 1_555
O26 P6 1.511066 1_565
O27 P7 1.511066 1_565
O28 P2 1.500599 1_555
O29 P3 1.500599 1_555
O30 P4 1.500599 1_555
O31 P5 1.500599 1_555
O32 P10 1.504142 1_555
O33 P11 1.504142 1_555
O34 P11 1.504142 1_555
O35 P10 1.504142 1_556
