# generated using pymatgen
data_HfGaPt
_symmetry_space_group_name_H-M   'P 1'
_cell_length_a   7.11829703
_cell_length_b   7.11829631
_cell_length_c   7.02387475
_cell_angle_alpha   90.00000000
_cell_angle_beta   90.00000000
_cell_angle_gamma   120.00000330
_symmetry_Int_Tables_number   1
_chemical_formula_structural   HfGaPt
_chemical_formula_sum   'Hf6 Ga6 Pt6'
_cell_volume   308.21909729
_cell_formula_units_Z   6
loop_
 _symmetry_equiv_pos_site_id
 _symmetry_equiv_pos_as_xyz
  1  'x, y, z'
loop_
 _atom_site_type_symbol
 _atom_site_label
 _atom_site_symmetry_multiplicity
 _atom_site_fract_x
 _atom_site_fract_y
 _atom_site_fract_z
 _atom_site_occupancy
  Hf  Hf0  1  0.40926187  0.38527045  0.25000000  1
  Hf  Hf1  1  0.59073813  0.97600959  0.75000000  1
  Hf  Hf2  1  0.38527045  0.40926187  0.75000000  1
  Hf  Hf3  1  0.02399041  0.61472955  0.75000000  1
  Hf  Hf4  1  0.97600959  0.59073813  0.25000000  1
  Hf  Hf5  1  0.61472955  0.02399041  0.25000000  1
  Ga  Ga0  1  0.26804580  -0.00000000  -0.00000000  1
  Ga  Ga1  1  0.26804580  -0.00000000  0.50000000  1
  Ga  Ga2  1  -0.00000000  0.26804580  0.50000000  1
  Ga  Ga3  1  -0.00000000  0.26804580  -0.00000000  1
  Ga  Ga4  1  0.73195420  0.73195420  -0.00000000  1
  Ga  Ga5  1  0.73195420  0.73195420  0.50000000  1
  Pt  Pt0  1  0.66666700  0.33333300  0.53338355  1
  Pt  Pt1  1  0.00000000  -0.00000000  0.75000000  1
  Pt  Pt2  1  0.66666700  0.33333300  0.96661645  1
  Pt  Pt3  1  0.33333300  0.66666700  0.03338355  1
  Pt  Pt4  1  0.33333300  0.66666700  0.46661645  1
  Pt  Pt5  1  0.00000000  -0.00000000  0.25000000  1
loop_
_geom_bond_atom_site_label_1
_geom_bond_atom_site_label_2
_geom_bond_distance
_geom_bond_site_symmetry_2
Hf0 Pt4 2.775236 1_555
Hf0 Pt3 2.775236 1_555
Hf0 Pt5 2.831723 1_555
Hf0 Pt2 2.851886 1_554
Hf0 Pt0 2.851886 1_555
Hf1 Pt2 2.775224 1_565
Hf1 Pt0 2.775224 1_565
Hf1 Pt1 2.831727 1_665
Hf1 Pt3 2.851886 1_556
Hf1 Pt4 2.851886 1_555
Hf2 Pt0 2.775236 1_555
Hf2 Pt2 2.775236 1_555
Hf2 Pt1 2.831723 1_555
Hf2 Pt3 2.851886 1_556
Hf2 Pt4 2.851886 1_555
Hf3 Pt2 2.775228 1_455
Hf3 Pt0 2.775228 1_455
Hf3 Pt1 2.831719 1_565
Hf3 Pt3 2.851886 1_556
Hf3 Pt4 2.851886 1_555
Hf4 Pt4 2.775225 1_655
Hf4 Pt3 2.775225 1_655
Hf4 Pt5 2.831726 1_665
Hf4 Pt2 2.851886 1_554
Hf4 Pt0 2.851886 1_555
Hf5 Pt3 2.775228 1_545
Hf5 Pt4 2.775228 1_545
Hf5 Pt5 2.831720 1_655
Hf5 Pt2 2.851886 1_554
Hf5 Pt0 2.851886 1_555
Ga0 Pt5 2.593068 1_555
Ga0 Pt1 2.593068 1_554
Ga0 Pt3 2.646444 1_545
Ga0 Pt2 2.646449 1_554
Ga0 Hf1 2.963301 1_544
Ga0 Hf5 2.963307 1_555
Ga0 Hf0 2.976281 1_555
Ga0 Hf3 2.976282 1_544
Ga0 Hf4 3.136206 1_445
Ga0 Hf2 3.136207 1_554
Ga1 Pt5 2.593068 1_555
Ga1 Pt1 2.593068 1_555
Ga1 Pt4 2.646444 1_545
Ga1 Pt0 2.646449 1_555
Ga1 Hf1 2.963301 1_545
Ga1 Hf5 2.963307 1_555
Ga1 Hf0 2.976281 1_555
Ga1 Hf3 2.976282 1_545
Ga1 Hf4 3.136206 1_445
Ga1 Hf2 3.136207 1_555
Ga2 Pt1 2.593068 1_555
Ga2 Pt5 2.593068 1_555
Ga2 Pt0 2.646444 1_455
Ga2 Pt4 2.646449 1_555
Ga2 Hf4 2.963301 1_455
Ga2 Hf3 2.963307 1_555
Ga2 Hf2 2.976281 1_555
Ga2 Hf5 2.976282 1_455
Ga2 Hf1 3.136206 1_445
Ga2 Hf0 3.136207 1_555
Ga3 Pt1 2.593068 1_554
Ga3 Pt5 2.593068 1_555
Ga3 Pt2 2.646444 1_454
Ga3 Pt3 2.646449 1_555
Ga3 Hf4 2.963301 1_455
Ga3 Hf3 2.963307 1_554
Ga3 Hf2 2.976281 1_554
Ga3 Hf5 2.976282 1_455
Ga3 Hf1 3.136206 1_444
Ga3 Hf0 3.136207 1_555
Ga4 Pt1 2.593068 1_664
Ga4 Pt5 2.593068 1_665
Ga4 Pt2 2.646451 1_554
Ga4 Pt3 2.646451 1_555
Ga4 Hf0 2.963304 1_555
Ga4 Hf2 2.963304 1_554
Ga4 Hf1 2.976286 1_554
Ga4 Hf4 2.976286 1_555
Ga4 Hf5 3.136202 1_565
Ga4 Hf3 3.136202 1_654
Ga5 Pt1 2.593068 1_665
Ga5 Pt5 2.593068 1_665
Ga5 Pt0 2.646451 1_555
Ga5 Pt4 2.646451 1_555
Ga5 Hf0 2.963304 1_555
Ga5 Hf2 2.963304 1_555
Ga5 Hf1 2.976286 1_555
Ga5 Hf4 2.976286 1_555
Ga5 Hf5 3.136202 1_565
Ga5 Hf3 3.136202 1_655
Pt0 Pt2 3.042974 1_555
Pt3 Pt4 3.042974 1_555
