# generated using pymatgen
data_GdH6C4NO9
_symmetry_space_group_name_H-M   'P 1'
_cell_length_a   6.15088100
_cell_length_b   7.95256000
_cell_length_c   12.38013230
_cell_angle_alpha   50.44057559
_cell_angle_beta   90.00000000
_cell_angle_gamma   90.00000000
_symmetry_Int_Tables_number   1
_chemical_formula_structural   GdH6C4NO9
_chemical_formula_sum   'Gd2 H12 C8 N2 O18'
_cell_volume   466.87855155
_cell_formula_units_Z   2
loop_
 _symmetry_equiv_pos_site_id
 _symmetry_equiv_pos_as_xyz
  1  'x, y, z'
loop_
 _atom_site_type_symbol
 _atom_site_label
 _atom_site_symmetry_multiplicity
 _atom_site_fract_x
 _atom_site_fract_y
 _atom_site_fract_z
 _atom_site_occupancy
  Gd  Gd0  1  0.60368000  0.50000000  0.25000000  1
  Gd  Gd1  1  0.39632000  0.50000000  0.75000000  1
  H  H0  1  0.91970900  0.03533600  0.30255400  1
  H  H1  1  0.08527600  0.60497200  0.16972800  1
  H  H2  1  0.88544400  0.86671800  0.82148600  1
  H  H3  1  0.08527600  0.39502800  0.33027200  1
  H  H4  1  0.91970900  0.96466400  0.19744600  1
  H  H5  1  0.91472400  0.39502800  0.83027200  1
  H  H6  1  0.11455600  0.86671800  0.32148600  1
  H  H7  1  0.91472400  0.60497200  0.66972800  1
  H  H8  1  0.08029100  0.03533600  0.80255400  1
  H  H9  1  0.08029100  0.96466400  0.69744600  1
  H  H10  1  0.88544400  0.13328200  0.67851400  1
  H  H11  1  0.11455600  0.13328200  0.17851400  1
  C  C0  1  0.40442200  0.42036900  0.04250700  1
  C  C1  1  0.40442200  0.57963100  0.45749300  1
  C  C2  1  0.61038200  0.03310500  0.01319800  1
  C  C3  1  0.38961800  0.96689500  0.98680200  1
  C  C4  1  0.38961800  0.03310500  0.51319800  1
  C  C5  1  0.61038200  0.96689500  0.48680200  1
  C  C6  1  0.59557800  0.42036900  0.54250700  1
  C  C7  1  0.59557800  0.57963100  0.95749300  1
  N  N0  1  0.01650500  0.00000000  0.25000000  1
  N  N1  1  0.98349500  0.00000000  0.75000000  1
  O  O0  1  0.38883800  0.33675400  0.16977100  1
  O  O1  1  0.72285000  0.88259400  0.11730600  1
  O  O2  1  0.33909600  0.76682600  0.07077400  1
  O  O3  1  0.27715000  0.11740600  0.88269400  1
  O  O4  1  0.27666400  0.38295700  0.97944600  1
  O  O5  1  0.61116200  0.33675400  0.66977100  1
  O  O6  1  0.72333600  0.38295700  0.47944600  1
  O  O7  1  0.66090400  0.23317400  0.92922600  1
  O  O8  1  0.66090400  0.76682600  0.57077400  1
  O  O9  1  0.72333600  0.61704300  0.02055400  1
  O  O10  1  0.27715000  0.88259400  0.61730600  1
  O  O11  1  0.33909600  0.23317400  0.42922600  1
  O  O12  1  0.38883800  0.66324600  0.33022900  1
  O  O13  1  0.72285000  0.11740600  0.38269400  1
  O  O14  1  0.99042400  0.50000000  0.25000000  1
  O  O15  1  0.00957600  0.50000000  0.75000000  1
  O  O16  1  0.61116200  0.66324600  0.83022900  1
  O  O17  1  0.27666400  0.61704300  0.52055400  1
loop_
_geom_bond_atom_site_label_1
_geom_bond_atom_site_label_2
_geom_bond_distance
_geom_bond_site_symmetry_2
Gd0 O14 2.378816 1_555
Gd0 O0 2.461839 1_555
Gd0 O12 2.461839 1_555
Gd0 O2 2.465208 1_555
Gd0 O11 2.465208 1_555
Gd0 O9 2.471663 1_555
Gd0 O6 2.471663 1_555
Gd0 O13 2.475237 1_555
Gd0 O1 2.475237 1_555
Gd1 O15 2.378816 1_555
Gd1 O16 2.461839 1_555
Gd1 O5 2.461839 1_555
Gd1 O7 2.465208 1_555
Gd1 O8 2.465208 1_555
Gd1 O4 2.471663 1_555
Gd1 O17 2.471663 1_555
Gd1 O10 2.475237 1_555
Gd1 O3 2.475237 1_555
H0 N0 1.043860 1_655
H1 O14 0.983947 1_455
H2 N1 1.037102 1_565
H3 O14 0.983947 1_455
H4 N0 1.043860 1_665
H5 O15 0.983947 1_655
H6 N0 1.037102 1_565
H7 O15 0.983947 1_655
H8 N1 1.043860 1_455
H9 N1 1.043860 1_465
H10 N1 1.037102 1_555
H11 N0 1.037102 1_555
C0 O0 1.264605 1_555
C0 O4 1.269409 1_554
C1 O12 1.264605 1_555
C1 O17 1.269409 1_555
C2 O7 1.265675 1_554
C2 O1 1.267829 1_545
C3 O2 1.265675 1_556
C3 O3 1.267829 1_565
C4 O11 1.265675 1_555
C4 O10 1.267829 1_545
C5 O8 1.265675 1_555
C5 O13 1.267829 1_565
C6 O5 1.264605 1_555
C6 O6 1.269409 1_555
C7 O16 1.264605 1_555
C7 O9 1.269409 1_556
