# generated using pymatgen
data_ZrI2
_symmetry_space_group_name_H-M   'P 1'
_cell_length_a   3.77437288
_cell_length_b   6.91824678
_cell_length_c   15.61077985
_cell_angle_alpha   90.00000000
_cell_angle_beta   90.00000000
_cell_angle_gamma   90.00000000
_symmetry_Int_Tables_number   1
_chemical_formula_structural   ZrI2
_chemical_formula_sum   'Zr4 I8'
_cell_volume   407.62935507
_cell_formula_units_Z   4
loop_
 _symmetry_equiv_pos_site_id
 _symmetry_equiv_pos_as_xyz
  1  'x, y, z'
loop_
 _atom_site_type_symbol
 _atom_site_label
 _atom_site_symmetry_multiplicity
 _atom_site_fract_x
 _atom_site_fract_y
 _atom_site_fract_z
 _atom_site_occupancy
  Zr  Zr0  1  -0.00000000  0.48941501  0.00673540  1
  Zr  Zr1  1  -0.00000000  0.88265308  0.50058586  1
  Zr  Zr2  1  0.50000000  0.11734692  0.00058586  1
  Zr  Zr3  1  0.50000000  0.51058499  0.50673540  1
  I  I0  1  0.00000000  0.88363083  0.10853806  1
  I  I1  1  0.50000000  0.77827704  0.36257773  1
  I  I2  1  0.00000000  0.22172296  0.86257773  1
  I  I3  1  0.50000000  0.72349233  0.89919562  1
  I  I4  1  0.50000000  0.11636917  0.60853806  1
  I  I5  1  0.50000000  0.38432104  0.14466832  1
  I  I6  1  -0.00000000  0.27650767  0.39919562  1
  I  I7  1  0.00000000  0.61567896  0.64466832  1
loop_
_geom_bond_atom_site_label_1
_geom_bond_atom_site_label_2
_geom_bond_distance
_geom_bond_site_symmetry_2
I0 Zr2 3.002635 1_465
I0 Zr2 3.002635 1_565
I0 Zr0 3.156531 1_555
I1 Zr3 2.914467 1_555
I1 Zr1 2.953710 1_655
I1 Zr1 2.953710 1_555
I2 Zr0 2.914467 1_556
I2 Zr2 2.953710 1_556
I2 Zr2 2.953710 1_456
I3 Zr0 3.000374 1_556
I3 Zr0 3.000374 1_656
I3 Zr2 3.151133 1_566
I4 Zr1 3.002635 1_545
I4 Zr1 3.002635 1_645
I4 Zr3 3.156531 1_555
I5 Zr2 2.910406 1_555
I5 Zr0 2.954072 1_655
I5 Zr0 2.954072 1_555
I6 Zr3 3.000374 1_455
I6 Zr3 3.000374 1_555
I6 Zr1 3.151133 1_545
I7 Zr1 2.910406 1_555
I7 Zr3 2.954072 1_555
I7 Zr3 2.954072 1_455
