# generated using pymatgen
data_CsV2P5O16
_symmetry_space_group_name_H-M   'P 1'
_cell_length_a   9.43563181
_cell_length_b   7.55282125
_cell_length_c   10.26754930
_cell_angle_alpha   67.97591134
_cell_angle_beta   90.00000000
_cell_angle_gamma   90.00000000
_symmetry_Int_Tables_number   1
_chemical_formula_structural   CsV2P5O16
_chemical_formula_sum   'Cs2 V4 P10 O32'
_cell_volume   678.32689040
_cell_formula_units_Z   2
loop_
 _symmetry_equiv_pos_site_id
 _symmetry_equiv_pos_as_xyz
  1  'x, y, z'
loop_
 _atom_site_type_symbol
 _atom_site_label
 _atom_site_symmetry_multiplicity
 _atom_site_fract_x
 _atom_site_fract_y
 _atom_site_fract_z
 _atom_site_occupancy
  Cs  Cs0  1  0.80439026  0.00037427  0.75375974  1
  Cs  Cs1  1  0.19560974  0.00037427  0.25375974  1
  V  V0  1  0.36924759  0.92431922  0.86235443  1
  V  V1  1  0.63075241  0.92431922  0.36235443  1
  V  V2  1  0.14295751  0.37687008  0.46798247  1
  V  V3  1  0.85704249  0.37687008  0.96798247  1
  P  P0  1  0.87317487  0.27814361  0.30253371  1
  P  P1  1  0.12682513  0.27814361  0.80253371  1
  P  P2  1  0.86127031  0.61368539  0.37194489  1
  P  P3  1  0.13872969  0.61368539  0.87194489  1
  P  P4  1  0.70603539  0.57009781  0.62840609  1
  P  P5  1  0.29396461  0.57009781  0.12840609  1
  P  P6  1  0.45977956  0.51500414  0.49220721  1
  P  P7  1  0.54022044  0.51500414  0.99220721  1
  P  P8  1  0.41879575  0.12527567  0.52482894  1
  P  P9  1  0.58120425  0.12527567  0.02482894  1
  O  O0  1  0.98803250  0.22837870  0.41297078  1
  O  O1  1  0.01196750  0.22837870  0.91297078  1
  O  O2  1  0.74566584  0.15154777  0.34832916  1
  O  O3  1  0.25433416  0.15154777  0.84832916  1
  O  O4  1  0.93161607  0.29923225  0.15917630  1
  O  O5  1  0.06838393  0.29923225  0.65917630  1
  O  O6  1  0.81919502  0.49168945  0.28437531  1
  O  O7  1  0.18080498  0.49168945  0.78437531  1
  O  O8  1  0.80004220  0.80911514  0.30438217  1
  O  O9  1  0.19995780  0.80911514  0.80438217  1
  O  O10  1  0.01834714  0.61073509  0.39632857  1
  O  O11  1  0.98165286  0.61073509  0.89632857  1
  O  O12  1  0.78733393  0.49792054  0.52071753  1
  O  O13  1  0.21266607  0.49792054  0.02071753  1
  O  O14  1  0.77017361  0.47853418  0.76853053  1
  O  O15  1  0.22982639  0.47853418  0.26853053  1
  O  O16  1  0.69981384  0.78348040  0.56580406  1
  O  O17  1  0.30018616  0.78348040  0.06580406  1
  O  O18  1  0.55167713  0.48184766  0.63194230  1
  O  O19  1  0.44832287  0.48184766  0.13194230  1
  O  O20  1  0.30631554  0.51622100  0.52488954  1
  O  O21  1  0.69368446  0.51622100  0.02488954  1
  O  O22  1  0.52033204  0.68541960  0.37784874  1
  O  O23  1  0.47966796  0.68541960  0.87784874  1
  O  O24  1  0.49549574  0.33275184  0.45783740  1
  O  O25  1  0.50450426  0.33275184  0.95783740  1
  O  O26  1  0.26005925  0.15483608  0.50544007  1
  O  O27  1  0.73994075  0.15483608  0.00544007  1
  O  O28  1  0.46148169  0.04594714  0.67663632  1
  O  O29  1  0.53851831  0.04594714  0.17663632  1
  O  O30  1  0.47024874  0.01617094  0.43907372  1
  O  O31  1  0.52975126  0.01617094  0.93907372  1
loop_
_geom_bond_atom_site_label_1
_geom_bond_atom_site_label_2
_geom_bond_distance
_geom_bond_site_symmetry_2
Cs0 O16 3.122908 1_545
Cs0 O11 3.220246 1_545
Cs0 O31 3.243478 1_555
Cs0 O5 3.255600 1_655
Cs0 O27 3.266438 1_556
Cs0 O28 3.318125 1_555
Cs0 O1 3.403721 1_655
Cs0 O12 3.623419 1_555
Cs0 O14 3.685191 1_555
Cs0 O0 3.700317 1_555
Cs0 O23 3.794305 1_545
Cs0 O21 3.818089 1_546
Cs1 O17 3.122908 1_545
Cs1 O10 3.220246 1_545
Cs1 O30 3.243478 1_555
Cs1 O4 3.255600 1_455
Cs1 O26 3.266438 1_555
Cs1 O29 3.318125 1_555
Cs1 O0 3.403721 1_455
Cs1 O13 3.623419 1_555
Cs1 O15 3.685191 1_555
Cs1 O1 3.700317 1_554
Cs1 O22 3.794305 1_545
Cs1 O20 3.818089 1_545
O0 P0 1.510603 1_555
O0 V2 2.046674 1_655
O1 P1 1.510603 1_555
O1 V3 2.046674 1_455
O2 P0 1.498551 1_555
O2 V1 1.989082 1_545
O3 P1 1.498551 1_555
O3 V0 1.989082 1_545
O4 P0 1.523216 1_555
O4 V3 1.956876 1_554
O5 P1 1.523216 1_555
O5 V2 1.956876 1_555
O6 P2 1.560893 1_555
O6 P0 1.634018 1_555
O7 P3 1.560893 1_555
O7 P1 1.634018 1_555
O8 P2 1.491897 1_555
O8 V1 2.012806 1_555
O9 P3 1.491897 1_555
O9 V0 2.012806 1_555
O10 P2 1.501889 1_455
O10 V2 2.017190 1_555
O11 P3 1.501889 1_655
O11 V3 2.017190 1_555
O12 P4 1.600082 1_555
O12 P2 1.607124 1_555
O13 P5 1.600082 1_555
O13 P3 1.607124 1_554
O14 P4 1.472495 1_555
O14 V3 2.067831 1_555
O15 P5 1.472495 1_555
O15 V2 2.067831 1_555
O16 P4 1.495679 1_555
O16 V1 2.062342 1_555
O17 P5 1.495679 1_555
O17 V0 2.062342 1_554
O18 P4 1.596477 1_555
O18 P6 1.613567 1_555
O19 P5 1.596477 1_555
O19 P7 1.613567 1_554
O20 P6 1.487210 1_555
O20 V2 2.070322 1_555
O21 P7 1.487210 1_554
O21 V3 2.070322 1_554
O22 P6 1.492764 1_555
O22 V1 2.037470 1_555
O23 P7 1.492764 1_555
O23 V0 2.037470 1_555
O24 P6 1.580263 1_555
O24 P8 1.626062 1_555
O25 P7 1.580263 1_555
O25 P9 1.626062 1_556
O26 P8 1.516406 1_555
O26 V2 1.922846 1_555
O27 P9 1.516406 1_555
O27 V3 1.922846 1_554
O28 P8 1.500102 1_555
O28 V0 1.980825 1_545
O29 P9 1.500102 1_555
O29 V1 1.980825 1_545
O30 P8 1.494726 1_555
O30 V1 1.950691 1_545
O31 P9 1.494726 1_556
O31 V0 1.950691 1_545
