# generated using pymatgen
data_BaH2C4S4N2(O3F4)3
_symmetry_space_group_name_H-M   'P 1'
_cell_length_a   22.84570600
_cell_length_b   8.78234000
_cell_length_c   13.29950539
_cell_angle_alpha   48.70095044
_cell_angle_beta   90.00000000
_cell_angle_gamma   90.00000000
_symmetry_Int_Tables_number   1
_chemical_formula_structural   BaH2C4S4N2(O3F4)3
_chemical_formula_sum   'Ba4 H8 C16 S16 N8 O36 F48'
_cell_volume   2004.69960245
_cell_formula_units_Z   4
loop_
 _symmetry_equiv_pos_site_id
 _symmetry_equiv_pos_as_xyz
  1  'x, y, z'
loop_
 _atom_site_type_symbol
 _atom_site_label
 _atom_site_symmetry_multiplicity
 _atom_site_fract_x
 _atom_site_fract_y
 _atom_site_fract_z
 _atom_site_occupancy
  Ba  Ba0  1  0.74939200  0.29095900  0.84112100  1
  Ba  Ba1  1  0.25060800  0.70904100  0.15887900  1
  Ba  Ba2  1  0.75060800  0.29095900  0.34112100  1
  Ba  Ba3  1  0.24939200  0.70904100  0.65887900  1
  H  H0  1  0.77026600  0.70047000  0.50836300  1
  H  H1  1  0.27026600  0.29953000  0.99163700  1
  H  H2  1  0.25774300  0.45975900  0.49403000  1
  H  H3  1  0.75774300  0.54024100  0.00597000  1
  H  H4  1  0.24225700  0.45975900  0.99403000  1
  H  H5  1  0.22973400  0.29953000  0.49163700  1
  H  H6  1  0.74225700  0.54024100  0.50597000  1
  H  H7  1  0.72973400  0.70047000  0.00836300  1
  C  C0  1  0.07742600  0.71884500  0.92842500  1
  C  C1  1  0.42133700  0.16325200  0.92160300  1
  C  C2  1  0.57742600  0.28115500  0.57157500  1
  C  C3  1  0.59087700  0.14681700  0.21371400  1
  C  C4  1  0.58725500  0.69819200  0.70978400  1
  C  C5  1  0.90912300  0.14681700  0.71371400  1
  C  C6  1  0.41274500  0.30180800  0.29021600  1
  C  C7  1  0.07866300  0.16325200  0.42160300  1
  C  C8  1  0.92257400  0.28115500  0.07157500  1
  C  C9  1  0.92133700  0.83674800  0.57839700  1
  C  C10  1  0.42257400  0.71884500  0.42842500  1
  C  C11  1  0.09087700  0.85318300  0.28628600  1
  C  C12  1  0.91274500  0.69819200  0.20978400  1
  C  C13  1  0.08725500  0.30180800  0.79021600  1
  C  C14  1  0.40912300  0.85318300  0.78628600  1
  C  C15  1  0.57866300  0.83674800  0.07839700  1
  S  S0  1  0.83723600  0.08401000  0.67892800  1
  S  S1  1  0.15390100  0.20601700  0.34969800  1
  S  S2  1  0.34027800  0.17323500  0.32285900  1
  S  S3  1  0.66276400  0.08401000  0.17892800  1
  S  S4  1  0.84787800  0.17493800  0.14737500  1
  S  S5  1  0.15972200  0.17323500  0.82285900  1
  S  S6  1  0.16276400  0.91599000  0.32107200  1
  S  S7  1  0.65390100  0.79398300  0.15030200  1
  S  S8  1  0.84027800  0.82676500  0.17714100  1
  S  S9  1  0.33723600  0.91599000  0.82107200  1
  S  S10  1  0.34787800  0.82506200  0.35262500  1
  S  S11  1  0.65212200  0.17493800  0.64737500  1
  S  S12  1  0.34609900  0.20601700  0.84969800  1
  S  S13  1  0.15212200  0.82506200  0.85262500  1
  S  S14  1  0.65972200  0.82676500  0.67714100  1
  S  S15  1  0.84609900  0.79398300  0.65030200  1
  N  N0  1  0.65153300  0.86173900  0.23447000  1
  N  N1  1  0.84846700  0.86173900  0.73447000  1
  N  N2  1  0.34846700  0.13826100  0.76553000  1
  N  N3  1  0.35153600  0.06169400  0.26734200  1
  N  N4  1  0.14846400  0.06169400  0.76734200  1
  N  N5  1  0.15153300  0.13826100  0.26553000  1
  N  N6  1  0.85153600  0.93830600  0.23265800  1
  N  N7  1  0.64846400  0.93830600  0.73265800  1
  O  O0  1  0.24740100  0.43395600  0.43536600  1
  O  O1  1  0.80808000  0.28396700  0.03360400  1
  O  O2  1  0.69192000  0.28396700  0.53360400  1
  O  O3  1  0.80755800  0.91242400  0.53409200  1
  O  O4  1  0.67222000  0.23967000  0.03551100  1
  O  O5  1  0.30808000  0.71603300  0.46639600  1
  O  O6  1  0.67007500  0.95748400  0.53415700  1
  O  O7  1  0.69244200  0.91242400  0.03409200  1
  O  O8  1  0.25259900  0.43395600  0.93536600  1
  O  O9  1  0.30042700  0.34215200  0.23388800  1
  O  O10  1  0.19957300  0.34215200  0.73388800  1
  O  O11  1  0.82992500  0.95748400  0.03415700  1
  O  O12  1  0.17007500  0.04251600  0.96584300  1
  O  O13  1  0.34166800  0.78955700  0.26118800  1
  O  O14  1  0.17222000  0.76033000  0.46448900  1
  O  O15  1  0.83932500  0.57597900  0.74196400  1
  O  O16  1  0.84166800  0.21044300  0.23881200  1
  O  O17  1  0.29658900  0.92460100  0.73348900  1
  O  O18  1  0.32778000  0.76033000  0.96448900  1
  O  O19  1  0.69957300  0.65784800  0.76611200  1
  O  O20  1  0.19244200  0.08757600  0.46590800  1
  O  O21  1  0.74740100  0.56604400  0.06463400  1
  O  O22  1  0.80042700  0.65784800  0.26611200  1
  O  O23  1  0.70341100  0.07539900  0.26651100  1
  O  O24  1  0.19192000  0.71603300  0.96639600  1
  O  O25  1  0.65833200  0.21044300  0.73881200  1
  O  O26  1  0.75259900  0.56604400  0.56463400  1
  O  O27  1  0.15833200  0.78955700  0.76118800  1
  O  O28  1  0.82778000  0.23967000  0.53551100  1
  O  O29  1  0.16067500  0.42402100  0.25803600  1
  O  O30  1  0.20341100  0.92460100  0.23348900  1
  O  O31  1  0.32992500  0.04251600  0.46584300  1
  O  O32  1  0.33932500  0.42402100  0.75803600  1
  O  O33  1  0.66067500  0.57597900  0.24196400  1
  O  O34  1  0.30755800  0.08757600  0.96590800  1
  O  O35  1  0.79658900  0.07539900  0.76651100  1
  F  F0  1  0.53849300  0.73749600  0.17726300  1
  F  F1  1  0.59389800  0.57063100  0.68664600  1
  F  F2  1  0.92307400  0.48065000  0.00639200  1
  F  F3  1  0.56643600  0.03704300  0.99143200  1
  F  F4  1  0.95131300  0.17868500  0.63090200  1
  F  F5  1  0.92301600  0.76763800  0.51324600  1
  F  F6  1  0.42301600  0.23236200  0.98675400  1
  F  F7  1  0.93496100  0.25578000  0.98418700  1
  F  F8  1  0.40150400  0.68213300  0.80623900  1
  F  F9  1  0.07089600  0.40906400  0.66196800  1
  F  F10  1  0.54531500  0.83476100  0.62828700  1
  F  F11  1  0.93356400  0.03704300  0.49143200  1
  F  F12  1  0.96350300  0.18605100  0.16880200  1
  F  F13  1  0.06643600  0.96295700  0.50856800  1
  F  F14  1  0.07698400  0.23236200  0.48675400  1
  F  F15  1  0.53649700  0.18605100  0.66880200  1
  F  F16  1  0.42543000  0.00454100  0.65859700  1
  F  F17  1  0.42910400  0.40906400  0.16196800  1
  F  F18  1  0.42307400  0.51935000  0.49360800  1
  F  F19  1  0.96150700  0.73749600  0.67726300  1
  F  F20  1  0.57692600  0.48065000  0.50639200  1
  F  F21  1  0.90150400  0.31786700  0.69376100  1
  F  F22  1  0.57698400  0.76763800  0.01324600  1
  F  F23  1  0.92543000  0.99545900  0.84140300  1
  F  F24  1  0.09849600  0.68213300  0.30623900  1
  F  F25  1  0.40610200  0.42936900  0.31335400  1
  F  F26  1  0.54868700  0.17868500  0.13090200  1
  F  F27  1  0.03649700  0.81394900  0.83119800  1
  F  F28  1  0.45468500  0.16523900  0.37171300  1
  F  F29  1  0.43356400  0.96295700  0.00856800  1
  F  F30  1  0.43496100  0.74422000  0.51581300  1
  F  F31  1  0.57089600  0.59093600  0.83803200  1
  F  F32  1  0.90610200  0.57063100  0.18664600  1
  F  F33  1  0.07457000  0.00454100  0.15859700  1
  F  F34  1  0.04868700  0.82131500  0.36909800  1
  F  F35  1  0.45131300  0.82131500  0.86909800  1
  F  F36  1  0.56503900  0.25578000  0.48418700  1
  F  F37  1  0.92910400  0.59093600  0.33803200  1
  F  F38  1  0.04531500  0.16523900  0.87171300  1
  F  F39  1  0.06503900  0.74422000  0.01581300  1
  F  F40  1  0.46350300  0.81394900  0.33119800  1
  F  F41  1  0.57457000  0.99545900  0.34140300  1
  F  F42  1  0.95468500  0.83476100  0.12828700  1
  F  F43  1  0.09389800  0.42936900  0.81335400  1
  F  F44  1  0.59849600  0.31786700  0.19376100  1
  F  F45  1  0.07692600  0.51935000  0.99360800  1
  F  F46  1  0.46150700  0.26250400  0.82273700  1
  F  F47  1  0.03849300  0.26250400  0.32273700  1
loop_
_geom_bond_atom_site_label_1
_geom_bond_atom_site_label_2
_geom_bond_distance
_geom_bond_site_symmetry_2
Ba0 O26 2.763537 1_555
Ba0 O15 2.805150 1_555
Ba0 O25 2.819432 1_555
Ba0 O7 2.840631 1_546
Ba0 O1 2.854325 1_556
Ba0 O35 2.865435 1_555
Ba0 O19 2.903427 1_555
Ba0 O4 2.908235 1_556
Ba0 O11 2.937437 1_546
Ba1 O0 2.763537 1_555
Ba1 O29 2.805150 1_555
Ba1 O13 2.819432 1_555
Ba1 O34 2.840631 1_564
Ba1 O24 2.854325 1_554
Ba1 O30 2.865435 1_555
Ba1 O9 2.903427 1_555
Ba1 O18 2.908235 1_554
Ba1 O12 2.937437 1_564
Ba2 O21 2.763537 1_555
Ba2 O33 2.805150 1_555
Ba2 O16 2.819432 1_555
Ba2 O3 2.840631 1_545
Ba2 O2 2.854325 1_555
Ba2 O23 2.865435 1_555
Ba2 O22 2.903427 1_555
Ba2 O28 2.908235 1_555
Ba2 O6 2.937437 1_545
Ba3 O8 2.763537 1_555
Ba3 O32 2.805150 1_555
Ba3 O27 2.819432 1_555
Ba3 O20 2.840631 1_565
Ba3 O5 2.854325 1_555
Ba3 O17 2.865435 1_555
Ba3 O10 2.903427 1_555
Ba3 O14 2.908235 1_555
Ba3 O31 2.937437 1_565
H0 O26 0.974941 1_555
H1 O8 0.974941 1_555
H2 O0 0.974303 1_555
H3 O21 0.974303 1_555
H4 O8 0.974303 1_555
H5 O0 0.974941 1_555
H6 O26 0.974303 1_555
H7 O21 0.974941 1_555
C0 F45 1.347751 1_555
C0 F27 1.348470 1_555
C0 F39 1.349953 1_556
C0 S13 1.886064 1_555
C1 F6 1.347153 1_555
C1 F46 1.348338 1_555
C1 F29 1.350743 1_546
C1 S12 1.880420 1_555
C2 F20 1.347751 1_555
C2 F15 1.348470 1_555
C2 F36 1.349953 1_555
C2 S11 1.886064 1_555
C3 F41 1.345348 1_545
C3 F26 1.346653 1_555
C3 F44 1.353214 1_555
C3 S3 1.884757 1_555
C4 F10 1.347374 1_555
C4 F31 1.347377 1_555
C4 F1 1.351965 1_555
C4 S14 1.886083 1_555
C5 F23 1.345348 1_545
C5 F4 1.346653 1_555
C5 F21 1.353214 1_555
C5 S0 1.884757 1_555
C6 F28 1.347374 1_555
C6 F17 1.347377 1_555
C6 F25 1.351965 1_555
C6 S2 1.886083 1_555
C7 F14 1.347153 1_555
C7 F47 1.348338 1_555
C7 F13 1.350743 1_545
C7 S1 1.880420 1_555
C8 F2 1.347751 1_555
C8 F12 1.348470 1_555
C8 F7 1.349953 1_554
C8 S4 1.886064 1_555
C9 F5 1.347153 1_555
C9 F19 1.348338 1_555
C9 F11 1.350743 1_565
C9 S15 1.880420 1_555
C10 F18 1.347751 1_555
C10 F40 1.348470 1_555
C10 F30 1.349953 1_555
C10 S10 1.886064 1_555
C11 F33 1.345348 1_565
C11 F34 1.346653 1_555
C11 F24 1.353214 1_555
C11 S6 1.884757 1_555
C12 F42 1.347374 1_555
C12 F37 1.347377 1_555
C12 F32 1.351965 1_555
C12 S8 1.886083 1_555
C13 F38 1.347374 1_555
C13 F9 1.347377 1_555
C13 F43 1.351965 1_555
C13 S5 1.886083 1_555
C14 F16 1.345348 1_565
C14 F35 1.346653 1_555
C14 F8 1.353214 1_555
C14 S9 1.884757 1_555
C15 F22 1.347153 1_555
C15 F0 1.348338 1_555
C15 F3 1.350743 1_564
C15 S7 1.880420 1_555
N0 S7 1.577751 1_555
N0 S3 1.587034 1_565
N1 S15 1.577751 1_555
N1 S0 1.587034 1_565
N2 S12 1.577751 1_555
N2 S9 1.587034 1_545
N3 S10 1.581436 1_545
N3 S2 1.589220 1_555
N4 S13 1.581436 1_545
N4 S5 1.589220 1_555
N5 S1 1.577751 1_555
N5 S6 1.587034 1_545
N6 S4 1.581436 1_565
N6 S8 1.589220 1_555
N7 S11 1.581436 1_565
N7 S14 1.589220 1_555
O1 S4 1.456216 1_555
O2 S11 1.456216 1_555
O3 S15 1.457355 1_555
O4 S3 1.453190 1_555
O5 S10 1.456216 1_555
O6 S14 1.452033 1_555
O7 S7 1.457355 1_555
O9 S2 1.453509 1_555
O10 S5 1.453509 1_555
O11 S8 1.452033 1_555
O12 S5 1.452033 1_555
O13 S10 1.447998 1_555
O14 S6 1.453190 1_555
O15 S15 1.447367 1_555
O16 S4 1.447998 1_555
O17 S9 1.452082 1_555
O18 S9 1.453190 1_555
O19 S14 1.453509 1_555
O20 S1 1.457355 1_555
O22 S8 1.453509 1_555
O23 S3 1.452082 1_555
O24 S13 1.456216 1_555
O25 S11 1.447998 1_555
O27 S13 1.447998 1_555
O28 S0 1.453190 1_555
O29 S1 1.447367 1_555
O30 S6 1.452082 1_555
O31 S2 1.452033 1_555
O32 S12 1.447367 1_555
O33 S7 1.447367 1_555
O34 S12 1.457355 1_555
O35 S0 1.452082 1_555
