# generated using pymatgen
data_Ca3Cu2(BrO2)2
_symmetry_space_group_name_H-M   'P 1'
_cell_length_a   12.26960226
_cell_length_b   12.26960226
_cell_length_c   12.26960226
_cell_angle_alpha   161.80740200
_cell_angle_beta   161.80740200
_cell_angle_gamma   25.83867432
_symmetry_Int_Tables_number   1
_chemical_formula_structural   Ca3Cu2(BrO2)2
_chemical_formula_sum   'Ca3 Cu2 Br2 O4'
_cell_volume   179.99001934
_cell_formula_units_Z   1
loop_
 _symmetry_equiv_pos_site_id
 _symmetry_equiv_pos_as_xyz
  1  'x, y, z'
loop_
 _atom_site_type_symbol
 _atom_site_label
 _atom_site_symmetry_multiplicity
 _atom_site_fract_x
 _atom_site_fract_y
 _atom_site_fract_z
 _atom_site_occupancy
  Ca  Ca0  1  0.86742600  0.86742600  0.00000000  1
  Ca  Ca1  1  0.13257400  0.13257400  0.00000000  1
  Ca  Ca2  1  0.00000000  0.00000000  0.00000000  1
  Cu  Cu0  1  0.56576300  0.56576300  0.00000000  1
  Cu  Cu1  1  0.43423700  0.43423700  0.00000000  1
  Br  Br0  1  0.69211900  0.69211900  0.00000000  1
  Br  Br1  1  0.30788100  0.30788100  0.00000000  1
  O  O0  1  0.56784400  0.06784400  0.50000000  1
  O  O1  1  0.43215600  0.93215600  0.50000000  1
  O  O2  1  0.06784400  0.56784400  0.50000000  1
  O  O3  1  0.93215600  0.43215600  0.50000000  1
loop_
_geom_bond_atom_site_label_1
_geom_bond_atom_site_label_2
_geom_bond_distance
_geom_bond_site_symmetry_2
Ca0 O1 2.481856 1_655
Ca0 O1 2.481856 1_554
Ca0 O3 2.481856 1_565
Ca0 O3 2.481856 1_554
Ca1 O0 2.481856 1_555
Ca1 O2 2.481856 1_544
Ca1 O0 2.481856 1_454
Ca1 O2 2.481856 1_555
Ca2 O2 2.528988 1_555
Ca2 O2 2.528988 1_544
Ca2 O3 2.528988 1_444
Ca2 O0 2.528988 1_454
Ca2 O3 2.528988 1_455
Ca2 O1 2.528988 1_545
Ca2 O1 2.528988 1_444
Ca2 O0 2.528988 1_555
Cu0 O0 1.940392 1_565
Cu0 O2 1.940392 1_554
Cu0 O2 1.940392 1_655
Cu0 O0 1.940392 1_554
Cu1 O1 1.940392 1_544
Cu1 O3 1.940392 1_454
Cu1 O3 1.940392 1_555
Cu1 O1 1.940392 1_555
Br0 Cu0 3.022185 1_555
Br0 Ca1 3.090895 1_554
Br0 Ca1 3.090895 1_655
Br0 Ca1 3.090895 1_666
Br0 Ca1 3.090895 1_565
Br1 Cu1 3.022185 1_555
Br1 Ca0 3.090895 1_545
Br1 Ca0 3.090895 1_556
Br1 Ca0 3.090895 1_455
Br1 Ca0 3.090895 1_444
