# generated using pymatgen
data_As2Pb4S6ICl
_symmetry_space_group_name_H-M   'P 1'
_cell_length_a   6.79900500
_cell_length_b   9.71726600
_cell_length_c   11.77591500
_cell_angle_alpha   90.00000000
_cell_angle_beta   90.00000000
_cell_angle_gamma   90.00000000
_symmetry_Int_Tables_number   1
_chemical_formula_structural   As2Pb4S6ICl
_chemical_formula_sum   'As4 Pb8 S12 I2 Cl2'
_cell_volume   778.00809190
_cell_formula_units_Z   2
loop_
 _symmetry_equiv_pos_site_id
 _symmetry_equiv_pos_as_xyz
  1  'x, y, z'
loop_
 _atom_site_type_symbol
 _atom_site_label
 _atom_site_symmetry_multiplicity
 _atom_site_fract_x
 _atom_site_fract_y
 _atom_site_fract_z
 _atom_site_occupancy
  As  As0  1  0.50000000  0.94928100  0.83083200  1
  As  As1  1  0.00000000  0.44928100  0.16916800  1
  As  As2  1  0.50000000  0.52404400  0.33081700  1
  As  As3  1  0.00000000  0.02404400  0.66918300  1
  Pb  Pb0  1  0.50000000  0.28333300  0.62830100  1
  Pb  Pb1  1  0.00000000  0.68851100  0.87204400  1
  Pb  Pb2  1  0.50000000  0.76724700  0.57071800  1
  Pb  Pb3  1  0.00000000  0.22018800  0.91716400  1
  Pb  Pb4  1  0.00000000  0.78333300  0.37169900  1
  Pb  Pb5  1  0.50000000  0.72018800  0.08283600  1
  Pb  Pb6  1  0.00000000  0.26724700  0.42928200  1
  Pb  Pb7  1  0.50000000  0.18851100  0.12795600  1
  S  S0  1  0.75114600  0.40336300  0.04491600  1
  S  S1  1  0.24672100  0.07380000  0.54399900  1
  S  S2  1  0.25327900  0.57380000  0.45600100  1
  S  S3  1  0.74672100  0.57380000  0.45600100  1
  S  S4  1  0.00000000  0.68186500  0.14914500  1
  S  S5  1  0.74885400  0.90336300  0.95508400  1
  S  S6  1  0.24885400  0.40336300  0.04491600  1
  S  S7  1  0.25114600  0.90336300  0.95508400  1
  S  S8  1  0.50000000  0.18186500  0.85085500  1
  S  S9  1  0.50000000  0.29262200  0.35173700  1
  S  S10  1  0.75327900  0.07380000  0.54399900  1
  S  S11  1  0.00000000  0.79262200  0.64826300  1
  I  I0  1  0.00000000  0.08518100  0.20885800  1
  I  I1  1  0.50000000  0.58518100  0.79114200  1
  Cl  Cl0  1  0.50000000  0.87171200  0.28329200  1
  Cl  Cl1  1  0.00000000  0.37171200  0.71670800  1
loop_
_geom_bond_atom_site_label_1
_geom_bond_atom_site_label_2
_geom_bond_distance
_geom_bond_site_symmetry_2
As0 S8 2.272347 1_565
As0 S7 2.280947 1_555
As0 S5 2.280947 1_555
As1 S4 2.272347 1_555
As1 S0 2.280947 1_455
As1 S6 2.280947 1_555
As2 S9 2.262243 1_555
As2 S3 2.284899 1_555
As2 S2 2.284899 1_555
As3 S11 2.262243 1_545
As3 S1 2.284899 1_555
As3 S10 2.284899 1_455
Pb0 S8 2.800116 1_555
Pb0 S1 2.845455 1_555
Pb0 S10 2.845455 1_555
Pb1 S11 2.822747 1_555
Pb1 S7 2.868926 1_555
Pb1 S5 2.868926 1_455
Pb2 S3 2.858731 1_555
Pb2 S2 2.858731 1_555
Pb3 S6 2.879964 1_556
Pb3 S0 2.879964 1_456
Pb4 S4 2.800116 1_555
Pb4 S2 2.845455 1_555
Pb4 S3 2.845455 1_455
Pb5 S7 2.879964 1_554
Pb5 S5 2.879964 1_554
Pb6 S10 2.858731 1_455
Pb6 S1 2.858731 1_555
Pb7 S9 2.822747 1_555
Pb7 S6 2.868926 1_555
Pb7 S0 2.868926 1_555
I0 Pb6 3.141280 1_555
I0 Pb4 3.504353 1_545
I1 Pb2 3.141280 1_555
I1 Pb0 3.504353 1_555
Cl0 Pb5 2.782116 1_555
Cl1 Pb3 2.782116 1_555
