# generated using pymatgen
data_MnPO4
_symmetry_space_group_name_H-M   'P 1'
_cell_length_a   5.11151900
_cell_length_b   7.73309700
_cell_length_c   10.10617600
_cell_angle_alpha   90.00000000
_cell_angle_beta   90.00000000
_cell_angle_gamma   90.00000000
_symmetry_Int_Tables_number   1
_chemical_formula_structural   MnPO4
_chemical_formula_sum   'Mn4 P4 O16'
_cell_volume   399.47563381
_cell_formula_units_Z   4
loop_
 _symmetry_equiv_pos_site_id
 _symmetry_equiv_pos_as_xyz
  1  'x, y, z'
loop_
 _atom_site_type_symbol
 _atom_site_label
 _atom_site_symmetry_multiplicity
 _atom_site_fract_x
 _atom_site_fract_y
 _atom_site_fract_z
 _atom_site_occupancy
  Mn  Mn0  1  0.67491700  0.78712300  0.14956400  1
  Mn  Mn1  1  0.17491700  0.28712300  0.35043600  1
  Mn  Mn2  1  0.82508300  0.78712300  0.64956400  1
  Mn  Mn3  1  0.32508300  0.28712300  0.85043600  1
  P  P0  1  0.34128900  0.53903500  0.58682400  1
  P  P1  1  0.15871100  0.53903500  0.08682400  1
  P  P2  1  0.65871100  0.03903500  0.41317600  1
  P  P3  1  0.84128900  0.03903500  0.91317600  1
  O  O0  1  0.26839100  0.49347500  0.44205500  1
  O  O1  1  0.30262800  0.37634400  0.67250700  1
  O  O2  1  0.13404100  0.09083300  0.90843800  1
  O  O3  1  0.73160900  0.99347500  0.55794500  1
  O  O4  1  0.17600000  0.69306600  0.63525500  1
  O  O5  1  0.23160900  0.49347500  0.94205500  1
  O  O6  1  0.19737200  0.37634400  0.17250700  1
  O  O7  1  0.32400000  0.69306600  0.13525500  1
  O  O8  1  0.36595900  0.09083300  0.40843800  1
  O  O9  1  0.86595900  0.59083300  0.09156200  1
  O  O10  1  0.82400000  0.19306600  0.36474500  1
  O  O11  1  0.69737200  0.87634400  0.32749300  1
  O  O12  1  0.63404100  0.59083300  0.59156200  1
  O  O13  1  0.80262800  0.87634400  0.82749300  1
  O  O14  1  0.76839100  0.99347500  0.05794500  1
  O  O15  1  0.67600000  0.19306600  0.86474500  1
loop_
_geom_bond_atom_site_label_1
_geom_bond_atom_site_label_2
_geom_bond_distance
_geom_bond_site_symmetry_2
Mn0 O9 1.897708 1_555
Mn0 O14 1.905780 1_555
Mn0 O11 1.929422 1_555
Mn0 O7 1.940974 1_555
Mn1 O8 1.897708 1_555
Mn1 O0 1.905780 1_555
Mn1 O6 1.929422 1_555
Mn1 O10 1.940974 1_455
Mn2 O12 1.897708 1_555
Mn2 O3 1.905780 1_555
Mn2 O13 1.929422 1_555
Mn2 O4 1.940974 1_655
Mn3 O2 1.897708 1_555
Mn3 O5 1.905780 1_555
Mn3 O1 1.929422 1_555
Mn3 O15 1.940974 1_555
O0 P0 1.550330 1_555
O1 P0 1.540036 1_555
O2 P3 1.549831 1_455
O3 P2 1.550330 1_565
O4 P0 1.540191 1_555
O5 P1 1.550330 1_556
O6 P1 1.540036 1_555
O7 P1 1.540191 1_555
O8 P2 1.549831 1_555
O9 P1 1.549831 1_655
O10 P2 1.540191 1_555
O11 P2 1.540036 1_565
O12 P0 1.549831 1_555
O13 P3 1.540036 1_565
O14 P3 1.550330 1_564
O15 P3 1.540191 1_555
