# generated using pymatgen
data_CsErZnTe3
_symmetry_space_group_name_H-M   'P 1'
_cell_length_a   4.41677600
_cell_length_b   8.83665725
_cell_length_c   11.69019000
_cell_angle_alpha   90.00000000
_cell_angle_beta   90.00000000
_cell_angle_gamma   104.47231365
_symmetry_Int_Tables_number   1
_chemical_formula_structural   CsErZnTe3
_chemical_formula_sum   'Cs2 Er2 Zn2 Te6'
_cell_volume   441.78479524
_cell_formula_units_Z   2
loop_
 _symmetry_equiv_pos_site_id
 _symmetry_equiv_pos_as_xyz
  1  'x, y, z'
loop_
 _atom_site_type_symbol
 _atom_site_label
 _atom_site_symmetry_multiplicity
 _atom_site_fract_x
 _atom_site_fract_y
 _atom_site_fract_z
 _atom_site_occupancy
  Cs  Cs0  1  0.74547500  0.49095000  0.75000000  1
  Cs  Cs1  1  0.25452500  0.50905000  0.25000000  1
  Er  Er0  1  0.00000000  0.00000000  0.00000000  1
  Er  Er1  1  0.00000000  0.00000000  0.50000000  1
  Zn  Zn0  1  0.46045700  0.92091400  0.75000000  1
  Zn  Zn1  1  0.53954300  0.07908600  0.25000000  1
  Te  Te0  1  0.05792700  0.11585400  0.75000000  1
  Te  Te1  1  0.62022600  0.24045200  0.05569000  1
  Te  Te2  1  0.94207300  0.88414600  0.25000000  1
  Te  Te3  1  0.37977400  0.75954800  0.55569000  1
  Te  Te4  1  0.37977400  0.75954800  0.94431000  1
  Te  Te5  1  0.62022600  0.24045200  0.44431000  1
loop_
_geom_bond_atom_site_label_1
_geom_bond_atom_site_label_2
_geom_bond_distance
_geom_bond_site_symmetry_2
Cs0 Te0 3.895811 1_655
Cs0 Te0 3.895811 1_555
Cs0 Te3 3.913883 1_555
Cs0 Te4 3.913883 1_555
Cs0 Te3 3.913883 1_655
Cs0 Te4 3.913883 1_655
Cs0 Te1 4.167046 1_556
Cs0 Te5 4.167046 1_555
Cs1 Te2 3.895811 1_455
Cs1 Te2 3.895811 1_555
Cs1 Te1 3.913883 1_455
Cs1 Te5 3.913883 1_555
Cs1 Te1 3.913883 1_555
Cs1 Te5 3.913883 1_455
Cs1 Te4 4.167046 1_554
Cs1 Te3 4.167046 1_555
Er0 Te0 3.086084 1_554
Er0 Te2 3.086084 1_445
Er0 Te4 3.087650 1_444
Er0 Te1 3.087650 1_455
Er0 Te4 3.087650 1_544
Er0 Te1 3.087650 1_555
Er1 Te0 3.086084 1_555
Er1 Te2 3.086084 1_445
Er1 Te3 3.087650 1_445
Er1 Te5 3.087650 1_455
Er1 Te5 3.087650 1_555
Er1 Te3 3.087650 1_545
Te0 Zn0 2.767500 1_445
Te0 Zn0 2.767500 1_545
Te1 Zn1 2.658215 1_555
Te2 Zn1 2.767500 1_565
Te2 Zn1 2.767500 1_665
Te3 Zn0 2.658215 1_555
Te4 Zn0 2.658215 1_555
Te5 Zn1 2.658215 1_555
