# generated using pymatgen
data_K3As11
_symmetry_space_group_name_H-M   'P 1'
_cell_length_a   10.81087562
_cell_length_b   11.07399972
_cell_length_c   14.65973195
_cell_angle_alpha   90.00000000
_cell_angle_beta   90.00000000
_cell_angle_gamma   90.00000000
_symmetry_Int_Tables_number   1
_chemical_formula_structural   K3As11
_chemical_formula_sum   'K12 As44'
_cell_volume   1755.05773756
_cell_formula_units_Z   4
loop_
 _symmetry_equiv_pos_site_id
 _symmetry_equiv_pos_as_xyz
  1  'x, y, z'
loop_
 _atom_site_type_symbol
 _atom_site_label
 _atom_site_symmetry_multiplicity
 _atom_site_fract_x
 _atom_site_fract_y
 _atom_site_fract_z
 _atom_site_occupancy
  K  K0  1  0.08864770  0.76827108  0.01448778  1
  K  K1  1  0.58864770  0.73172892  0.48551222  1
  K  K2  1  0.91135230  0.26827108  0.48551222  1
  K  K3  1  0.41135230  0.23172892  0.01448778  1
  K  K4  1  0.91135230  0.23172892  0.98551222  1
  K  K5  1  0.41135230  0.26827108  0.51448778  1
  K  K6  1  0.08864770  0.73172892  0.51448778  1
  K  K7  1  0.58864770  0.76827108  0.98551222  1
  K  K8  1  0.25000000  -0.00000000  0.29243973  1
  K  K9  1  0.75000000  0.50000000  0.20756027  1
  K  K10  1  0.75000000  -0.00000000  0.70756027  1
  K  K11  1  0.25000000  0.50000000  0.79243973  1
  As  As0  1  0.26837100  0.68828821  0.24375918  1
  As  As1  1  0.76837100  0.81171179  0.25624082  1
  As  As2  1  0.73162900  0.18828821  0.25624082  1
  As  As3  1  0.23162900  0.31171179  0.24375918  1
  As  As4  1  0.73162900  0.31171179  0.75624082  1
  As  As5  1  0.23162900  0.18828821  0.74375918  1
  As  As6  1  0.26837100  0.81171179  0.74375918  1
  As  As7  1  0.76837100  0.68828821  0.75624082  1
  As  As8  1  0.05792484  0.60778946  0.21449082  1
  As  As9  1  0.55792484  0.89221054  0.28550918  1
  As  As10  1  0.94207516  0.10778946  0.28550918  1
  As  As11  1  0.44207516  0.39221054  0.21449082  1
  As  As12  1  0.94207516  0.39221054  0.78550918  1
  As  As13  1  0.44207516  0.10778946  0.71449082  1
  As  As14  1  0.05792484  0.89221054  0.71449082  1
  As  As15  1  0.55792484  0.60778946  0.78550918  1
  As  As16  1  0.39661755  0.57910506  0.13084742  1
  As  As17  1  0.89661755  0.92089494  0.36915258  1
  As  As18  1  0.60338245  0.07910506  0.36915258  1
  As  As19  1  0.10338245  0.42089494  0.13084742  1
  As  As20  1  0.60338245  0.42089494  0.86915258  1
  As  As21  1  0.10338245  0.07910506  0.63084742  1
  As  As22  1  0.39661755  0.92089494  0.63084742  1
  As  As23  1  0.89661755  0.57910506  0.86915258  1
  As  As24  1  0.32392037  0.58411499  0.38781735  1
  As  As25  1  0.82392037  0.91588501  0.11218265  1
  As  As26  1  0.67607963  0.08411499  0.11218265  1
  As  As27  1  0.17607963  0.41588501  0.38781735  1
  As  As28  1  0.67607963  0.41588501  0.61218265  1
  As  As29  1  0.17607963  0.08411499  0.88781735  1
  As  As30  1  0.32392037  0.91588501  0.88781735  1
  As  As31  1  0.82392037  0.58411499  0.61218265  1
  As  As32  1  0.50943065  0.47232776  0.35779827  1
  As  As33  1  0.00943065  0.02767224  0.14220173  1
  As  As34  1  0.49056935  0.97232776  0.14220173  1
  As  As35  1  0.99056935  0.52767224  0.35779827  1
  As  As36  1  0.49056935  0.52767224  0.64220173  1
  As  As37  1  0.99056935  0.97232776  0.85779827  1
  As  As38  1  0.50943065  0.02767224  0.85779827  1
  As  As39  1  0.00943065  0.47232776  0.64220173  1
  As  As40  1  0.25000000  -0.00000000  0.52335658  1
  As  As41  1  0.75000000  0.50000000  0.97664342  1
  As  As42  1  0.75000000  -0.00000000  0.47664342  1
  As  As43  1  0.25000000  0.50000000  0.02335658  1
loop_
_geom_bond_atom_site_label_1
_geom_bond_atom_site_label_2
_geom_bond_distance
_geom_bond_site_symmetry_2
As0 As16 2.474681 1_555
As0 As24 2.480201 1_555
As0 As8 2.480903 1_555
As0 K8 3.530484 1_565
As1 As17 2.474681 1_555
As1 As25 2.480201 1_555
As1 As9 2.480903 1_555
As1 K9 3.530484 1_555
As2 As26 2.480201 1_555
As2 K9 3.530484 1_555
As3 K8 3.530484 1_555
As4 K10 3.530484 1_555
As5 K11 3.530484 1_555
As6 K11 3.530484 1_555
As7 K10 3.530484 1_565
As8 K0 3.444595 1_555
As8 K9 3.537933 1_455
As9 K1 3.444595 1_555
As9 K8 3.537933 1_565
As10 As33 2.393941 1_655
As10 As17 2.455318 1_545
As10 As2 2.480903 1_555
As10 K2 3.444595 1_555
As10 K8 3.537933 1_655
As11 As32 2.393941 1_555
As11 As16 2.455318 1_555
As11 As3 2.480903 1_555
As11 K3 3.444595 1_555
As11 K9 3.537933 1_555
As12 As39 2.393941 1_655
As12 As23 2.455318 1_555
As12 As4 2.480903 1_555
As12 K4 3.444595 1_555
As12 K11 3.537933 1_655
As13 As38 2.393941 1_555
As13 As22 2.455318 1_545
As13 As5 2.480903 1_555
As13 K5 3.444595 1_555
As13 K10 3.537933 1_555
As14 As37 2.393941 1_455
As14 As21 2.455318 1_565
As14 As6 2.480903 1_555
As14 K6 3.444595 1_555
As14 K10 3.537933 1_465
As15 As36 2.393941 1_555
As15 As20 2.455318 1_555
As15 As7 2.480903 1_555
As15 K7 3.444595 1_555
As15 K11 3.537933 1_555
As16 As43 2.400609 1_555
As16 K7 3.638334 1_554
As17 As42 2.400609 1_565
As17 K6 3.638334 1_655
As18 As42 2.400609 1_555
As18 As9 2.455318 1_545
As18 As2 2.474681 1_555
As18 K5 3.638334 1_555
As19 As43 2.400609 1_555
As19 As8 2.455318 1_555
As19 As3 2.474681 1_555
As19 K4 3.638334 1_454
As20 As41 2.400609 1_555
As20 As4 2.474681 1_555
As20 K3 3.638334 1_556
As21 As40 2.400609 1_555
As21 As5 2.474681 1_555
As21 K2 3.638334 1_455
As22 As40 2.400609 1_565
As22 As6 2.474681 1_555
As22 K1 3.638334 1_555
As23 As41 2.400609 1_555
As23 As7 2.474681 1_555
As23 K0 3.638334 1_656
As24 As32 2.397558 1_555
As24 As27 2.454631 1_555
As24 K6 3.548219 1_555
As24 K1 3.593602 1_555
As25 As33 2.397558 1_665
As25 As26 2.454631 1_565
As25 K7 3.548219 1_554
As25 K0 3.593602 1_655
As26 As34 2.397558 1_545
As26 K4 3.548219 1_554
As26 K3 3.593602 1_555
As27 As35 2.397558 1_455
As27 As3 2.480201 1_555
As27 K5 3.548219 1_555
As27 K2 3.593602 1_455
As28 As36 2.397558 1_555
As28 As31 2.454631 1_555
As28 As4 2.480201 1_555
As28 K2 3.548219 1_555
As28 K5 3.593602 1_555
As29 As37 2.397558 1_445
As29 As30 2.454631 1_545
As29 As5 2.480201 1_555
As29 K3 3.548219 1_556
As29 K4 3.593602 1_455
As30 As38 2.397558 1_565
As30 As6 2.480201 1_555
As30 K0 3.548219 1_556
As30 K7 3.593602 1_555
As31 As39 2.397558 1_655
As31 As7 2.480201 1_555
As31 K1 3.548219 1_555
As31 K6 3.593602 1_655
As32 K5 3.392189 1_555
As32 K9 3.421793 1_555
As32 K1 3.534210 1_555
As33 K4 3.392189 1_454
As33 K8 3.421793 1_555
As33 K0 3.534210 1_545
As34 As9 2.393941 1_555
As34 K7 3.392189 1_554
As34 K8 3.421793 1_565
As34 K3 3.534210 1_565
As35 As8 2.393941 1_655
As35 K6 3.392189 1_655
As35 K9 3.421793 1_555
As35 K2 3.534210 1_555
As36 K1 3.392189 1_555
As36 K11 3.421793 1_555
As36 K5 3.534210 1_555
As37 K0 3.392189 1_656
As37 K10 3.421793 1_565
As37 K4 3.534210 1_565
As38 K3 3.392189 1_556
As38 K10 3.421793 1_555
As38 K7 3.534210 1_545
As39 K2 3.392189 1_455
As39 K11 3.421793 1_555
As39 K6 3.534210 1_555
As40 K8 3.385179 1_555
As40 K5 3.447542 1_555
As40 K6 3.447542 1_545
As41 K9 3.385179 1_556
As41 K7 3.447542 1_555
As41 K4 3.447542 1_555
As42 K10 3.385179 1_555
As42 K1 3.447542 1_545
As42 K2 3.447542 1_555
As43 K11 3.385179 1_554
As43 K0 3.447542 1_555
As43 K3 3.447542 1_555
