# generated using pymatgen
data_SrLiCoF6
_symmetry_space_group_name_H-M   'P 1'
_cell_length_a   8.82581200
_cell_length_b   5.37426500
_cell_length_c   10.36527885
_cell_angle_alpha   87.36543827
_cell_angle_beta   90.00000000
_cell_angle_gamma   90.00000000
_symmetry_Int_Tables_number   1
_chemical_formula_structural   SrLiCoF6
_chemical_formula_sum   'Sr4 Li4 Co4 F24'
_cell_volume   491.12886329
_cell_formula_units_Z   4
loop_
 _symmetry_equiv_pos_site_id
 _symmetry_equiv_pos_as_xyz
  1  'x, y, z'
loop_
 _atom_site_type_symbol
 _atom_site_label
 _atom_site_symmetry_multiplicity
 _atom_site_fract_x
 _atom_site_fract_y
 _atom_site_fract_z
 _atom_site_occupancy
  Sr  Sr0  1  0.70478600  0.75343000  0.49879900  1
  Sr  Sr1  1  0.20478600  0.24657000  0.00120100  1
  Sr  Sr2  1  0.79521400  0.75343000  0.99879900  1
  Sr  Sr3  1  0.29521400  0.24657000  0.50120100  1
  Li  Li0  1  0.07808600  0.71643600  0.74467900  1
  Li  Li1  1  0.57808600  0.28356400  0.75532100  1
  Li  Li2  1  0.92191400  0.28356400  0.25532100  1
  Li  Li3  1  0.42191400  0.71643600  0.24467900  1
  Co  Co0  1  0.91632100  0.21549700  0.74088000  1
  Co  Co1  1  0.41632100  0.78450300  0.75912000  1
  Co  Co2  1  0.58367900  0.21549700  0.24088000  1
  Co  Co3  1  0.08367900  0.78450300  0.25912000  1
  F  F0  1  0.26477700  0.60908000  0.86262700  1
  F  F1  1  0.25163100  0.88277600  0.15191000  1
  F  F2  1  0.09480800  0.08244700  0.35694200  1
  F  F3  1  0.74836900  0.11722400  0.84809000  1
  F  F4  1  0.95126900  0.49074300  0.85998300  1
  F  F5  1  0.42253000  0.36802000  0.14914000  1
  F  F6  1  0.92253000  0.63198000  0.35086000  1
  F  F7  1  0.07747000  0.36802000  0.64914000  1
  F  F8  1  0.04873100  0.50925700  0.14001700  1
  F  F9  1  0.03769000  0.00249700  0.86174600  1
  F  F10  1  0.40519200  0.08244700  0.85694200  1
  F  F11  1  0.75163100  0.11722400  0.34809000  1
  F  F12  1  0.90519200  0.91755300  0.64305800  1
  F  F13  1  0.46231000  0.00249700  0.36174600  1
  F  F14  1  0.57747000  0.63198000  0.85086000  1
  F  F15  1  0.96231000  0.99750300  0.13825400  1
  F  F16  1  0.76477700  0.39092000  0.63737300  1
  F  F17  1  0.59480800  0.91755300  0.14305800  1
  F  F18  1  0.53769000  0.99750300  0.63825400  1
  F  F19  1  0.54873100  0.49074300  0.35998300  1
  F  F20  1  0.23522300  0.60908000  0.36262700  1
  F  F21  1  0.45126900  0.50925700  0.64001700  1
  F  F22  1  0.24836900  0.88277600  0.65191000  1
  F  F23  1  0.73522300  0.39092000  0.13737300  1
loop_
_geom_bond_atom_site_label_1
_geom_bond_atom_site_label_2
_geom_bond_distance
_geom_bond_site_symmetry_2
Co0 F7 1.878120 1_655
Co0 F3 1.912364 1_555
Co0 F16 1.932822 1_555
Co0 F12 1.936735 1_545
Co0 F9 1.973702 1_655
Co0 F4 1.993807 1_555
Co1 F14 1.878120 1_555
Co1 F22 1.912364 1_555
Co1 F0 1.932822 1_555
Co1 F10 1.936735 1_565
Co1 F18 1.973702 1_555
Co1 F21 1.993807 1_555
Co2 F5 1.878120 1_555
Co2 F11 1.912364 1_555
Co2 F23 1.932822 1_555
Co2 F17 1.936735 1_545
Co2 F13 1.973702 1_555
Co2 F19 1.993807 1_555
Co3 F6 1.878120 1_455
Co3 F1 1.912364 1_555
Co3 F20 1.932822 1_555
Co3 F2 1.936735 1_565
Co3 F15 1.973702 1_455
Co3 F8 1.993807 1_555
F0 Li0 2.116037 1_555
F0 Sr1 2.425240 1_556
F1 Li3 1.975709 1_555
F1 Sr1 2.480516 1_565
F2 Li2 2.121686 1_455
F2 Sr3 2.502715 1_555
F3 Li1 1.975709 1_555
F3 Sr2 2.480516 1_545
F4 Li0 2.004768 1_655
F4 Sr2 2.479335 1_555
F4 Sr1 2.948627 1_656
F5 Li3 2.158089 1_555
F5 Sr1 2.561763 1_555
F6 Li2 2.158089 1_555
F6 Sr0 2.561763 1_555
F7 Li0 2.158089 1_555
F7 Sr3 2.561763 1_555
F8 Li2 2.004768 1_455
F8 Sr1 2.479335 1_555
F8 Sr2 2.948627 1_454
F9 Li0 2.033353 1_545
F9 Sr1 2.481784 1_556
F9 Sr2 2.866147 1_445
F10 Li1 2.121686 1_555
F10 Sr1 2.502715 1_556
F11 Li2 1.975709 1_555
F11 Sr0 2.480516 1_545
F12 Li0 2.121686 1_655
F12 Sr0 2.502715 1_555
F13 Li3 2.033353 1_545
F13 Sr3 2.481784 1_555
F13 Sr0 2.866147 1_545
F14 Li1 2.158089 1_555
F14 Sr2 2.561763 1_555
F15 Li2 2.033353 1_565
F15 Sr2 2.481784 1_554
F15 Sr1 2.866147 1_665
F16 Li1 2.116037 1_555
F16 Sr0 2.425240 1_555
F17 Li3 2.121686 1_555
F17 Sr2 2.502715 1_554
F18 Li1 2.033353 1_565
F18 Sr0 2.481784 1_555
F18 Sr3 2.866147 1_565
F19 Li3 2.004768 1_555
F19 Sr0 2.479335 1_555
F19 Sr3 2.948627 1_555
F20 Li3 2.116037 1_555
F20 Sr3 2.425240 1_555
F21 Li1 2.004768 1_555
F21 Sr3 2.479335 1_555
F21 Sr0 2.948627 1_555
F22 Li0 1.975709 1_555
F22 Sr3 2.480516 1_565
F23 Li2 2.116037 1_555
F23 Sr2 2.425240 1_554
