# generated using pymatgen
data_Sr4Sn2Se9
_symmetry_space_group_name_H-M   'P 1'
_cell_length_a   8.75344200
_cell_length_b   12.12112600
_cell_length_c   16.36044000
_cell_angle_alpha   90.00000000
_cell_angle_beta   90.00000000
_cell_angle_gamma   90.00000000
_symmetry_Int_Tables_number   1
_chemical_formula_structural   Sr4Sn2Se9
_chemical_formula_sum   'Sr16 Sn8 Se36'
_cell_volume   1735.86842577
_cell_formula_units_Z   4
loop_
 _symmetry_equiv_pos_site_id
 _symmetry_equiv_pos_as_xyz
  1  'x, y, z'
loop_
 _atom_site_type_symbol
 _atom_site_label
 _atom_site_symmetry_multiplicity
 _atom_site_fract_x
 _atom_site_fract_y
 _atom_site_fract_z
 _atom_site_occupancy
  Sr  Sr0  1  0.74708200  0.11228400  0.67370300  1
  Sr  Sr1  1  0.24892900  0.25414400  0.92770900  1
  Sr  Sr2  1  0.74708200  0.61228400  0.82629700  1
  Sr  Sr3  1  0.25291800  0.11228400  0.67370300  1
  Sr  Sr4  1  0.25291800  0.88771600  0.32629700  1
  Sr  Sr5  1  0.25291800  0.61228400  0.82629700  1
  Sr  Sr6  1  0.24892900  0.75414400  0.57229100  1
  Sr  Sr7  1  0.75107100  0.25414400  0.92770900  1
  Sr  Sr8  1  0.74708200  0.38771600  0.17370300  1
  Sr  Sr9  1  0.25291800  0.38771600  0.17370300  1
  Sr  Sr10  1  0.24892900  0.24585600  0.42770900  1
  Sr  Sr11  1  0.75107100  0.75414400  0.57229100  1
  Sr  Sr12  1  0.75107100  0.24585600  0.42770900  1
  Sr  Sr13  1  0.75107100  0.74585600  0.07229100  1
  Sr  Sr14  1  0.24892900  0.74585600  0.07229100  1
  Sr  Sr15  1  0.74708200  0.88771600  0.32629700  1
  Sn  Sn0  1  0.50000000  0.91003500  0.82153500  1
  Sn  Sn1  1  0.50000000  0.08996500  0.17846500  1
  Sn  Sn2  1  0.50000000  0.58996500  0.32153500  1
  Sn  Sn3  1  0.50000000  0.41003500  0.67846500  1
  Sn  Sn4  1  0.00000000  0.95076900  0.89563800  1
  Sn  Sn5  1  0.00000000  0.45076900  0.60436200  1
  Sn  Sn6  1  0.00000000  0.54923100  0.39563800  1
  Sn  Sn7  1  0.00000000  0.04923100  0.10436200  1
  Se  Se0  1  0.50000000  0.74200700  0.43087800  1
  Se  Se1  1  0.50000000  0.75799300  0.93087800  1
  Se  Se2  1  0.75668100  0.13043400  0.24946000  1
  Se  Se3  1  0.24331900  0.13043400  0.24946000  1
  Se  Se4  1  0.00000000  0.13381100  0.81392600  1
  Se  Se5  1  0.22611800  0.00000000  0.00000000  1
  Se  Se6  1  0.22611800  0.50000000  0.50000000  1
  Se  Se7  1  0.77388200  0.00000000  0.00000000  1
  Se  Se8  1  0.00000000  0.46359500  0.92985400  1
  Se  Se9  1  0.77388200  0.50000000  0.50000000  1
  Se  Se10  1  0.00000000  0.24243200  0.57386900  1
  Se  Se11  1  0.00000000  0.36618900  0.31392600  1
  Se  Se12  1  0.00000000  0.53640500  0.07014600  1
  Se  Se13  1  0.50000000  0.54078700  0.06866400  1
  Se  Se14  1  0.00000000  0.25756800  0.07386900  1
  Se  Se15  1  0.50000000  0.62342200  0.67972400  1
  Se  Se16  1  0.24331900  0.86956600  0.75054000  1
  Se  Se17  1  0.00000000  0.86618900  0.18607400  1
  Se  Se18  1  0.50000000  0.12342200  0.82027600  1
  Se  Se19  1  0.24331900  0.36956600  0.74946000  1
  Se  Se20  1  0.75668100  0.63043400  0.25054000  1
  Se  Se21  1  0.50000000  0.25799300  0.56912200  1
  Se  Se22  1  0.00000000  0.74243200  0.92613100  1
  Se  Se23  1  0.50000000  0.95921300  0.56866400  1
  Se  Se24  1  0.50000000  0.24200700  0.06912200  1
  Se  Se25  1  0.50000000  0.87657800  0.17972400  1
  Se  Se26  1  0.75668100  0.86956600  0.75054000  1
  Se  Se27  1  0.50000000  0.04078700  0.43133600  1
  Se  Se28  1  0.50000000  0.45921300  0.93133600  1
  Se  Se29  1  0.75668100  0.36956600  0.74946000  1
  Se  Se30  1  0.00000000  0.75756800  0.42613100  1
  Se  Se31  1  0.50000000  0.37657800  0.32027600  1
  Se  Se32  1  0.00000000  0.03640500  0.42985400  1
  Se  Se33  1  0.00000000  0.63381100  0.68607400  1
  Se  Se34  1  0.00000000  0.96359500  0.57014600  1
  Se  Se35  1  0.24331900  0.63043400  0.25054000  1
loop_
_geom_bond_atom_site_label_1
_geom_bond_atom_site_label_2
_geom_bond_distance
_geom_bond_site_symmetry_2
Se0 Sn2 2.568369 1_555
Se0 Sr11 3.194422 1_555
Se0 Sr6 3.194422 1_555
Se0 Sr15 3.274841 1_555
Se0 Sr4 3.274841 1_555
Se1 Sn0 2.568369 1_555
Se1 Sr13 3.194422 1_556
Se1 Sr14 3.194422 1_556
Se1 Sr2 3.274841 1_555
Se1 Sr5 3.274841 1_555
Se2 Sn1 2.576436 1_555
Se2 Sr15 3.200435 1_545
Se2 Sr12 3.234833 1_555
Se2 Sr8 3.356867 1_555
Se3 Sn1 2.576436 1_555
Se3 Sr4 3.200435 1_545
Se3 Sr10 3.234833 1_555
Se3 Sr9 3.356867 1_555
Se4 Sn4 2.590303 1_545
Se4 Sr3 3.198811 1_555
Se4 Sr0 3.198811 1_455
Se4 Sr1 3.215702 1_555
Se4 Sr7 3.215702 1_455
Se5 Sn7 2.681232 1_555
Se5 Sn4 2.681232 1_544
Se5 Sr1 3.305787 1_554
Se5 Sr14 3.305787 1_545
Se6 Sn5 2.681232 1_555
Se6 Sn6 2.681232 1_555
Se6 Sr6 3.305787 1_555
Se6 Sr10 3.305787 1_555
Se7 Sn7 2.681232 1_655
Se7 Sn4 2.681232 1_644
Se7 Sr7 3.305787 1_554
Se7 Sr13 3.305787 1_545
Se8 Sr5 3.319641 1_555
Se8 Sr2 3.319641 1_455
Se8 Sr1 3.345837 1_555
Se8 Sr7 3.345837 1_455
Se9 Sn5 2.681232 1_655
Se9 Sn6 2.681232 1_655
Se9 Sr11 3.305787 1_555
Se9 Sr12 3.305787 1_555
Se10 Sn5 2.574085 1_555
Se10 Sr3 3.171397 1_555
Se10 Sr0 3.171397 1_455
Se10 Sr10 3.235388 1_555
Se10 Sr12 3.235388 1_455
Se11 Sn6 2.590303 1_555
Se11 Sr9 3.198811 1_555
Se11 Sr8 3.198811 1_455
Se11 Sr10 3.215702 1_555
Se11 Sr12 3.215702 1_455
Se12 Se8 2.459064 1_554
Se12 Sr9 3.319641 1_555
Se12 Sr8 3.319641 1_455
Se12 Sr14 3.345837 1_555
Se12 Sr13 3.345837 1_455
Se13 Se28 2.454696 1_554
Se13 Sr13 3.318449 1_555
Se13 Sr14 3.318449 1_555
Se13 Sr8 3.327680 1_555
Se13 Sr9 3.327680 1_555
Se14 Sn7 2.574085 1_555
Se14 Sr9 3.171397 1_555
Se14 Sr8 3.171397 1_455
Se14 Sr1 3.235388 1_554
Se14 Sr7 3.235388 1_454
Se15 Sn3 2.586573 1_555
Se15 Sr11 3.229553 1_555
Se15 Sr6 3.229553 1_555
Se15 Sr2 3.232090 1_555
Se15 Sr5 3.232090 1_555
Se16 Sn0 2.576436 1_555
Se16 Sr3 3.200435 1_565
Se16 Sr6 3.234833 1_555
Se16 Sr5 3.356867 1_555
Se17 Sn7 2.590303 1_565
Se17 Sr4 3.198811 1_555
Se17 Sr15 3.198811 1_455
Se17 Sr14 3.215702 1_555
Se17 Sr13 3.215702 1_455
Se18 Sn0 2.586573 1_545
Se18 Sr7 3.229553 1_555
Se18 Sr1 3.229553 1_555
Se18 Sr0 3.232090 1_555
Se18 Sr3 3.232090 1_555
Se19 Sn3 2.576436 1_555
Se19 Sr5 3.200435 1_555
Se19 Sr1 3.234833 1_555
Se19 Sr3 3.356867 1_555
Se20 Sn2 2.576436 1_555
Se20 Sr8 3.200435 1_555
Se20 Sr13 3.234833 1_555
Se20 Sr15 3.356867 1_555
Se21 Sn3 2.568369 1_555
Se21 Sr12 3.194422 1_555
Se21 Sr10 3.194422 1_555
Se21 Sr0 3.274841 1_555
Se21 Sr3 3.274841 1_555
Se22 Sn4 2.574085 1_555
Se22 Sr5 3.171397 1_555
Se22 Sr2 3.171397 1_455
Se22 Sr14 3.235388 1_556
Se22 Sr13 3.235388 1_456
Se23 Se27 2.454696 1_565
Se23 Sr11 3.318449 1_555
Se23 Sr6 3.318449 1_555
Se23 Sr0 3.327680 1_565
Se23 Sr3 3.327680 1_565
Se24 Sn1 2.568369 1_555
Se24 Sr7 3.194422 1_554
Se24 Sr1 3.194422 1_554
Se24 Sr8 3.274841 1_555
Se24 Sr9 3.274841 1_555
Se25 Sn1 2.586573 1_565
Se25 Sr13 3.229553 1_555
Se25 Sr14 3.229553 1_555
Se25 Sr15 3.232090 1_555
Se25 Sr4 3.232090 1_555
Se26 Sn0 2.576436 1_555
Se26 Sr0 3.200435 1_565
Se26 Sr11 3.234833 1_555
Se26 Sr2 3.356867 1_555
Se27 Sr12 3.318449 1_555
Se27 Sr10 3.318449 1_555
Se27 Sr15 3.327680 1_545
Se27 Sr4 3.327680 1_545
Se28 Sr7 3.318449 1_555
Se28 Sr1 3.318449 1_555
Se28 Sr2 3.327680 1_555
Se28 Sr5 3.327680 1_555
Se29 Sn3 2.576436 1_555
Se29 Sr2 3.200435 1_555
Se29 Sr7 3.234833 1_555
Se29 Sr0 3.356867 1_555
Se30 Sn6 2.574085 1_555
Se30 Sr4 3.171397 1_555
Se30 Sr15 3.171397 1_455
Se30 Sr6 3.235388 1_555
Se30 Sr11 3.235388 1_455
Se31 Sn2 2.586573 1_555
Se31 Sr12 3.229553 1_555
Se31 Sr10 3.229553 1_555
Se31 Sr8 3.232090 1_555
Se31 Sr9 3.232090 1_555
Se32 Se34 2.459064 1_545
Se32 Sr4 3.319641 1_545
Se32 Sr15 3.319641 1_445
Se32 Sr10 3.345837 1_555
Se32 Sr12 3.345837 1_455
Se33 Sn5 2.590303 1_555
Se33 Sr5 3.198811 1_555
Se33 Sr2 3.198811 1_455
Se33 Sr6 3.215702 1_555
Se33 Sr11 3.215702 1_455
Se34 Sr3 3.319641 1_565
Se34 Sr0 3.319641 1_465
Se34 Sr6 3.345837 1_555
Se34 Sr11 3.345837 1_455
Se35 Sn2 2.576436 1_555
Se35 Sr9 3.200435 1_555
Se35 Sr14 3.234833 1_555
Se35 Sr4 3.356867 1_555
