# generated using pymatgen
data_Pr6O11
_symmetry_space_group_name_H-M   'P 1'
_cell_length_a   12.15731000
_cell_length_b   6.96751700
_cell_length_c   13.41809000
_cell_angle_alpha   79.63495963
_cell_angle_beta   90.00000000
_cell_angle_gamma   90.00000000
_symmetry_Int_Tables_number   1
_chemical_formula_structural   Pr6O11
_chemical_formula_sum   'Pr24 O44'
_cell_volume   1118.04865284
_cell_formula_units_Z   4
loop_
 _symmetry_equiv_pos_site_id
 _symmetry_equiv_pos_as_xyz
  1  'x, y, z'
loop_
 _atom_site_type_symbol
 _atom_site_label
 _atom_site_symmetry_multiplicity
 _atom_site_fract_x
 _atom_site_fract_y
 _atom_site_fract_z
 _atom_site_occupancy
  Pr  Pr0  1  0.66582200  0.35944700  0.37738900  1
  Pr  Pr1  1  0.35025600  0.87256200  0.87507700  1
  Pr  Pr2  1  0.16582200  0.64055300  0.12261100  1
  Pr  Pr3  1  0.67035000  0.58502500  0.62362800  1
  Pr  Pr4  1  0.83417800  0.35944700  0.87738900  1
  Pr  Pr5  1  0.85025600  0.12743800  0.62492300  1
  Pr  Pr6  1  0.14974400  0.87256200  0.37507700  1
  Pr  Pr7  1  0.33417800  0.64055300  0.62261100  1
  Pr  Pr8  1  0.00021300  0.62255000  0.63037600  1
  Pr  Pr9  1  0.49978700  0.62255000  0.13037600  1
  Pr  Pr10  1  0.98581300  0.86407200  0.88367300  1
  Pr  Pr11  1  0.50021300  0.37745000  0.86962400  1
  Pr  Pr12  1  0.99978700  0.37745000  0.36962400  1
  Pr  Pr13  1  0.01418700  0.13592800  0.11632700  1
  Pr  Pr14  1  0.82971700  0.86368200  0.39551400  1
  Pr  Pr15  1  0.67028300  0.86368200  0.89551400  1
  Pr  Pr16  1  0.32965000  0.41497500  0.37637200  1
  Pr  Pr17  1  0.17028300  0.13631800  0.60448600  1
  Pr  Pr18  1  0.32971700  0.13631800  0.10448600  1
  Pr  Pr19  1  0.17035000  0.41497500  0.87637200  1
  Pr  Pr20  1  0.82965000  0.58502500  0.12362800  1
  Pr  Pr21  1  0.51418700  0.86407200  0.38367300  1
  Pr  Pr22  1  0.64974400  0.12743800  0.12492300  1
  Pr  Pr23  1  0.48581300  0.13592800  0.61632700  1
  O  O0  1  0.83752000  0.42421500  0.69341500  1
  O  O1  1  0.16907900  0.33672800  0.05688900  1
  O  O2  1  0.83268200  0.58663200  0.30354000  1
  O  O3  1  0.83139400  0.26598200  0.07180300  1
  O  O4  1  0.66248300  0.19078600  0.93769700  1
  O  O5  1  0.48807300  0.18499900  0.42510700  1
  O  O6  1  0.83092100  0.66327200  0.94311100  1
  O  O7  1  0.67248700  0.81099000  0.07944000  1
  O  O8  1  0.17248700  0.18901000  0.42056000  1
  O  O9  1  0.82194300  0.04320000  0.80722400  1
  O  O10  1  0.32751300  0.18901000  0.92056000  1
  O  O11  1  0.67805700  0.04320000  0.30722400  1
  O  O12  1  0.01192700  0.18499900  0.92510700  1
  O  O13  1  0.16248000  0.57578500  0.30658500  1
  O  O14  1  0.33268200  0.41336800  0.19646000  1
  O  O15  1  0.51992100  0.05182800  0.80051100  1
  O  O16  1  0.17805700  0.95680000  0.19277600  1
  O  O17  1  0.00499300  0.31879500  0.55956600  1
  O  O18  1  0.16731800  0.41336800  0.69646000  1
  O  O19  1  0.50123800  0.56594200  0.31465500  1
  O  O20  1  0.32194300  0.95680000  0.69277600  1
  O  O21  1  0.66907900  0.66327200  0.44311100  1
  O  O22  1  0.66860600  0.26598200  0.57180300  1
  O  O23  1  0.99876200  0.56594200  0.81465500  1
  O  O24  1  0.66731800  0.58663200  0.80354000  1
  O  O25  1  0.98807300  0.81500100  0.07489300  1
  O  O26  1  0.33751700  0.80921400  0.06230300  1
  O  O27  1  0.66248000  0.42421500  0.19341500  1
  O  O28  1  0.16860600  0.73401800  0.92819700  1
  O  O29  1  0.50499300  0.68120500  0.94043400  1
  O  O30  1  0.99500700  0.68120500  0.44043400  1
  O  O31  1  0.82751300  0.81099000  0.57944000  1
  O  O32  1  0.33092100  0.33672800  0.55688900  1
  O  O33  1  0.16248300  0.80921400  0.56230300  1
  O  O34  1  0.51192700  0.81500100  0.57489300  1
  O  O35  1  0.49500700  0.31879500  0.05956600  1
  O  O36  1  0.01992100  0.94817200  0.69948900  1
  O  O37  1  0.49876200  0.43405800  0.68534500  1
  O  O38  1  0.33139400  0.73401800  0.42819700  1
  O  O39  1  0.98007900  0.05182800  0.30051100  1
  O  O40  1  0.83751700  0.19078600  0.43769700  1
  O  O41  1  0.00123800  0.43405800  0.18534500  1
  O  O42  1  0.33752000  0.57578500  0.80658500  1
  O  O43  1  0.48007900  0.94817200  0.19948900  1
loop_
_geom_bond_atom_site_label_1
_geom_bond_atom_site_label_2
_geom_bond_distance
_geom_bond_site_symmetry_2
O0 Pr5 2.414169 1_555
O0 Pr3 2.425926 1_555
O0 Pr4 2.428646 1_555
O0 Pr8 2.473186 1_655
O1 Pr19 2.385226 1_554
O1 Pr13 2.395398 1_555
O1 Pr18 2.418827 1_555
O1 Pr2 2.435630 1_555
O2 Pr20 2.416396 1_555
O2 Pr14 2.471402 1_555
O2 Pr12 2.563719 1_555
O2 Pr0 2.652961 1_555
O3 Pr13 2.433458 1_655
O3 Pr20 2.445754 1_555
O3 Pr22 2.463574 1_555
O3 Pr4 2.572754 1_554
O4 Pr15 2.447012 1_545
O4 Pr11 2.447482 1_555
O4 Pr4 2.459806 1_555
O4 Pr22 2.476091 1_556
O5 Pr21 2.420168 1_545
O5 Pr0 2.505392 1_555
O5 Pr16 2.515473 1_555
O5 Pr23 2.526925 1_555
O6 Pr20 2.385226 1_556
O6 Pr10 2.395398 1_555
O6 Pr15 2.418827 1_555
O6 Pr4 2.435630 1_555
O7 Pr22 2.407178 1_565
O7 Pr15 2.429028 1_554
O7 Pr20 2.478936 1_555
O7 Pr9 2.505247 1_555
O8 Pr6 2.407178 1_545
O8 Pr17 2.429028 1_555
O8 Pr16 2.478936 1_555
O8 Pr12 2.505247 1_455
O9 Pr15 2.415424 1_545
O9 Pr5 2.435139 1_555
O9 Pr10 2.473500 1_545
O9 Pr4 2.551513 1_555
O10 Pr1 2.407178 1_545
O10 Pr18 2.429028 1_556
O10 Pr19 2.478936 1_555
O10 Pr11 2.505247 1_555
O11 Pr14 2.415424 1_545
O11 Pr22 2.435139 1_555
O11 Pr21 2.473500 1_545
O11 Pr0 2.551513 1_555
O12 Pr10 2.420168 1_445
O12 Pr4 2.505392 1_455
O12 Pr19 2.515473 1_555
O12 Pr13 2.526925 1_556
O13 Pr6 2.414169 1_555
O13 Pr16 2.425926 1_555
O13 Pr2 2.428646 1_555
O13 Pr12 2.473186 1_455
O14 Pr16 2.416396 1_555
O14 Pr18 2.471402 1_555
O14 Pr9 2.563719 1_555
O14 Pr2 2.652961 1_555
O15 Pr15 2.466525 1_545
O15 Pr23 2.470224 1_555
O15 Pr1 2.523109 1_545
O15 Pr11 2.611868 1_555
O16 Pr18 2.415424 1_565
O16 Pr6 2.435139 1_555
O16 Pr13 2.473500 1_565
O16 Pr2 2.551513 1_555
O17 Pr5 2.380091 1_455
O17 Pr17 2.396257 1_555
O17 Pr8 2.471629 1_555
O17 Pr12 2.508363 1_455
O18 Pr19 2.416396 1_555
O18 Pr17 2.471402 1_555
O18 Pr8 2.563719 1_555
O18 Pr7 2.652961 1_555
O19 Pr16 2.414614 1_555
O19 Pr21 2.426832 1_555
O19 Pr9 2.432909 1_555
O19 Pr0 2.519205 1_555
O20 Pr17 2.415424 1_565
O20 Pr1 2.435139 1_555
O20 Pr23 2.473500 1_565
O20 Pr7 2.551513 1_555
O21 Pr3 2.385226 1_555
O21 Pr21 2.395398 1_555
O21 Pr14 2.418827 1_555
O21 Pr0 2.435630 1_555
O22 Pr23 2.433458 1_555
O22 Pr3 2.445754 1_555
O22 Pr5 2.463574 1_555
O22 Pr0 2.572754 1_555
O23 Pr19 2.414614 1_655
O23 Pr10 2.426832 1_555
O23 Pr8 2.432909 1_655
O23 Pr4 2.519205 1_555
O24 Pr3 2.416396 1_555
O24 Pr15 2.471402 1_555
O24 Pr11 2.563719 1_555
O24 Pr4 2.652961 1_555
O25 Pr13 2.420168 1_665
O25 Pr2 2.505392 1_655
O25 Pr20 2.515473 1_555
O25 Pr10 2.526925 1_554
O26 Pr18 2.447012 1_565
O26 Pr9 2.447482 1_555
O26 Pr2 2.459806 1_555
O26 Pr1 2.476091 1_554
O27 Pr22 2.414169 1_555
O27 Pr20 2.425926 1_555
O27 Pr0 2.428646 1_555
O27 Pr9 2.473186 1_555
O28 Pr10 2.433458 1_455
O28 Pr19 2.445754 1_555
O28 Pr1 2.463574 1_555
O28 Pr2 2.572754 1_556
O29 Pr1 2.380091 1_555
O29 Pr15 2.396257 1_555
O29 Pr11 2.471629 1_555
O29 Pr9 2.508363 1_556
O30 Pr6 2.380091 1_655
O30 Pr14 2.396257 1_555
O30 Pr12 2.471629 1_555
O30 Pr8 2.508363 1_655
O31 Pr5 2.407178 1_565
O31 Pr14 2.429028 1_555
O31 Pr3 2.478936 1_555
O31 Pr8 2.505247 1_655
O32 Pr16 2.385226 1_555
O32 Pr23 2.395398 1_555
O32 Pr17 2.418827 1_555
O32 Pr7 2.435630 1_555
O33 Pr17 2.447012 1_565
O33 Pr8 2.447482 1_555
O33 Pr7 2.459806 1_555
O33 Pr6 2.476091 1_555
O34 Pr23 2.420168 1_565
O34 Pr7 2.505392 1_555
O34 Pr3 2.515473 1_555
O34 Pr21 2.526925 1_555
O35 Pr22 2.380091 1_555
O35 Pr18 2.396257 1_555
O35 Pr9 2.471629 1_555
O35 Pr11 2.508363 1_554
O36 Pr17 2.466525 1_565
O36 Pr10 2.470224 1_455
O36 Pr5 2.523109 1_465
O36 Pr8 2.611868 1_555
O37 Pr3 2.414614 1_555
O37 Pr23 2.426832 1_555
O37 Pr11 2.432909 1_555
O37 Pr7 2.519205 1_555
O38 Pr21 2.433458 1_555
O38 Pr16 2.445754 1_555
O38 Pr6 2.463574 1_555
O38 Pr7 2.572754 1_555
O39 Pr14 2.466525 1_545
O39 Pr13 2.470224 1_655
O39 Pr6 2.523109 1_645
O39 Pr12 2.611868 1_555
O40 Pr14 2.447012 1_545
O40 Pr12 2.447482 1_555
O40 Pr0 2.459806 1_555
O40 Pr5 2.476091 1_555
O41 Pr20 2.414614 1_455
O41 Pr13 2.426832 1_555
O41 Pr12 2.432909 1_455
O41 Pr2 2.519205 1_555
O42 Pr1 2.414169 1_555
O42 Pr19 2.425926 1_555
O42 Pr7 2.428646 1_555
O42 Pr11 2.473186 1_555
O43 Pr18 2.466525 1_565
O43 Pr21 2.470224 1_555
O43 Pr22 2.523109 1_565
O43 Pr9 2.611868 1_555
