# generated using pymatgen
data_GdP2H9O10
_symmetry_space_group_name_H-M   'P 1'
_cell_length_a   7.29204200
_cell_length_b   10.00373200
_cell_length_c   11.72081100
_cell_angle_alpha   90.00000000
_cell_angle_beta   90.00000000
_cell_angle_gamma   90.00000000
_symmetry_Int_Tables_number   1
_chemical_formula_structural   GdP2H9O10
_chemical_formula_sum   'Gd4 P8 H36 O40'
_cell_volume   855.00542985
_cell_formula_units_Z   4
loop_
 _symmetry_equiv_pos_site_id
 _symmetry_equiv_pos_as_xyz
  1  'x, y, z'
loop_
 _atom_site_type_symbol
 _atom_site_label
 _atom_site_symmetry_multiplicity
 _atom_site_fract_x
 _atom_site_fract_y
 _atom_site_fract_z
 _atom_site_occupancy
  Gd  Gd0  1  0.25000000  0.74244400  0.25000000  1
  Gd  Gd1  1  0.25000000  0.75755600  0.75000000  1
  Gd  Gd2  1  0.75000000  0.25755600  0.75000000  1
  Gd  Gd3  1  0.75000000  0.24244400  0.25000000  1
  P  P0  1  0.41469100  0.03010300  0.07284900  1
  P  P1  1  0.41469100  0.46989700  0.92715100  1
  P  P2  1  0.08530900  0.03010300  0.42715100  1
  P  P3  1  0.08530900  0.46989700  0.57284900  1
  P  P4  1  0.58530900  0.96989700  0.92715100  1
  P  P5  1  0.58530900  0.53010300  0.07284900  1
  P  P6  1  0.91469100  0.96989700  0.57284900  1
  P  P7  1  0.91469100  0.53010300  0.42715100  1
  H  H0  1  0.05627600  0.44205200  0.24223600  1
  H  H1  1  0.05627600  0.05794800  0.75776400  1
  H  H2  1  0.44372400  0.44205200  0.25776400  1
  H  H3  1  0.44372400  0.05794800  0.74223600  1
  H  H4  1  0.94372400  0.55794800  0.75776400  1
  H  H5  1  0.94372400  0.94205200  0.24223600  1
  H  H6  1  0.55627600  0.55794800  0.74223600  1
  H  H7  1  0.55627600  0.94205200  0.25776400  1
  H  H8  1  0.29956300  0.25000000  0.00000000  1
  H  H9  1  0.20043700  0.25000000  0.50000000  1
  H  H10  1  0.70043700  0.75000000  0.00000000  1
  H  H11  1  0.79956300  0.75000000  0.50000000  1
  H  H12  1  0.03605300  0.12857800  0.07366700  1
  H  H13  1  0.03605300  0.37142200  0.92633300  1
  H  H14  1  0.46394700  0.12857800  0.42633300  1
  H  H15  1  0.46394700  0.37142200  0.57366700  1
  H  H16  1  0.96394700  0.87142200  0.92633300  1
  H  H17  1  0.96394700  0.62857800  0.07366700  1
  H  H18  1  0.53605300  0.87142200  0.57366700  1
  H  H19  1  0.53605300  0.62857800  0.42633300  1
  H  H20  1  0.16132800  0.87744300  0.98534600  1
  H  H21  1  0.16132800  0.62255700  0.01465400  1
  H  H22  1  0.33867200  0.87744300  0.51465400  1
  H  H23  1  0.33867200  0.62255700  0.48534600  1
  H  H24  1  0.83867200  0.12255700  0.01465400  1
  H  H25  1  0.83867200  0.37744300  0.98534600  1
  H  H26  1  0.66132800  0.12255700  0.48534600  1
  H  H27  1  0.66132800  0.37744300  0.51465400  1
  H  H28  1  0.11657000  0.35183200  0.13933400  1
  H  H29  1  0.11657000  0.14816800  0.86066600  1
  H  H30  1  0.38343000  0.35183200  0.36066600  1
  H  H31  1  0.38343000  0.14816800  0.63933400  1
  H  H32  1  0.88343000  0.64816800  0.86066600  1
  H  H33  1  0.88343000  0.85183200  0.13933400  1
  H  H34  1  0.61657000  0.64816800  0.63933400  1
  H  H35  1  0.61657000  0.85183200  0.36066600  1
  O  O0  1  0.96058500  0.08498600  0.33300100  1
  O  O1  1  0.96058500  0.41501400  0.66699900  1
  O  O2  1  0.53941500  0.08498600  0.16699900  1
  O  O3  1  0.53941500  0.41501400  0.83300100  1
  O  O4  1  0.03941500  0.91501400  0.66699900  1
  O  O5  1  0.03941500  0.58498600  0.33300100  1
  O  O6  1  0.46058500  0.91501400  0.83300100  1
  O  O7  1  0.46058500  0.58498600  0.16699900  1
  O  O8  1  0.22600300  0.13518300  0.47326100  1
  O  O9  1  0.22600300  0.36481700  0.52673900  1
  O  O10  1  0.27399700  0.13518300  0.02673900  1
  O  O11  1  0.27399700  0.36481700  0.97326100  1
  O  O12  1  0.77399700  0.86481700  0.52673900  1
  O  O13  1  0.77399700  0.63518300  0.47326100  1
  O  O14  1  0.72600300  0.86481700  0.97326100  1
  O  O15  1  0.72600300  0.63518300  0.02673900  1
  O  O16  1  0.04681700  0.35055600  0.21036400  1
  O  O17  1  0.04681700  0.14944400  0.78963600  1
  O  O18  1  0.45318300  0.35055600  0.28963600  1
  O  O19  1  0.45318300  0.14944400  0.71036400  1
  O  O20  1  0.95318300  0.64944400  0.78963600  1
  O  O21  1  0.95318300  0.85055600  0.21036400  1
  O  O22  1  0.54681700  0.64944400  0.71036400  1
  O  O23  1  0.54681700  0.85055600  0.28963600  1
  O  O24  1  0.69133600  0.40333300  0.10686600  1
  O  O25  1  0.69133600  0.09666700  0.89313400  1
  O  O26  1  0.80866400  0.40333300  0.39313400  1
  O  O27  1  0.80866400  0.09666700  0.60686600  1
  O  O28  1  0.30866400  0.59666700  0.89313400  1
  O  O29  1  0.30866400  0.90333300  0.10686600  1
  O  O30  1  0.19133600  0.59666700  0.60686600  1
  O  O31  1  0.19133600  0.90333300  0.39313400  1
  O  O32  1  0.90276700  0.13244100  0.08887800  1
  O  O33  1  0.90276700  0.36755900  0.91112200  1
  O  O34  1  0.59723300  0.13244100  0.41112200  1
  O  O35  1  0.59723300  0.36755900  0.58887800  1
  O  O36  1  0.09723300  0.86755900  0.91112200  1
  O  O37  1  0.09723300  0.63244100  0.08887800  1
  O  O38  1  0.40276700  0.86755900  0.58887800  1
  O  O39  1  0.40276700  0.63244100  0.41112200  1
loop_
_geom_bond_atom_site_label_1
_geom_bond_atom_site_label_2
_geom_bond_distance
_geom_bond_site_symmetry_2
Gd0 O31 2.363885 1_555
Gd0 O29 2.363885 1_555
Gd0 O5 2.405332 1_555
Gd0 O7 2.405332 1_555
Gd0 O37 2.453220 1_555
Gd0 O39 2.453220 1_555
Gd0 O23 2.463768 1_555
Gd0 O21 2.463768 1_455
Gd1 O30 2.363885 1_555
Gd1 O28 2.363885 1_555
Gd1 O4 2.405332 1_555
Gd1 O6 2.405332 1_555
Gd1 O38 2.453220 1_555
Gd1 O36 2.453220 1_555
Gd1 O20 2.463768 1_455
Gd1 O22 2.463768 1_555
Gd2 O25 2.363885 1_555
Gd2 O27 2.363885 1_555
Gd2 O1 2.405332 1_555
Gd2 O3 2.405332 1_555
Gd2 O33 2.453220 1_555
Gd2 O35 2.453220 1_555
Gd2 O17 2.463768 1_655
Gd2 O19 2.463768 1_555
Gd3 O24 2.363885 1_555
Gd3 O26 2.363885 1_555
Gd3 O0 2.405332 1_555
Gd3 O2 2.405332 1_555
Gd3 O34 2.453220 1_555
Gd3 O32 2.453220 1_555
Gd3 O16 2.463768 1_655
Gd3 O18 2.463768 1_555
H0 O16 0.991002 1_555
H1 O17 0.991002 1_555
H2 O18 0.991002 1_555
H3 O19 0.991002 1_555
H4 O20 0.991002 1_555
H5 O21 0.991002 1_555
H6 O22 0.991002 1_555
H7 O23 0.991002 1_555
H8 O10 1.205096 1_555
H8 O11 1.205096 1_554
H9 O8 1.205096 1_555
H9 O9 1.205096 1_555
H10 O15 1.205096 1_555
H10 O14 1.205096 1_554
H11 O12 1.205096 1_555
H11 O13 1.205096 1_555
H12 O32 0.988899 1_455
H13 O33 0.988899 1_455
H14 O34 0.988899 1_555
H15 O35 0.988899 1_555
H16 O36 0.988899 1_655
H17 O37 0.988899 1_655
H18 O38 0.988899 1_555
H19 O39 0.988899 1_555
H20 O36 0.992504 1_555
H21 O37 0.992504 1_555
H22 O38 0.992504 1_555
H23 O39 0.992504 1_555
H24 O32 0.992504 1_555
H25 O33 0.992504 1_555
H26 O34 0.992504 1_555
H27 O35 0.992504 1_555
H28 O16 0.975697 1_555
H29 O17 0.975697 1_555
H30 O18 0.975697 1_555
H31 O19 0.975697 1_555
H32 O20 0.975697 1_555
H33 O21 0.975697 1_555
H34 O22 0.975697 1_555
H35 O23 0.975697 1_555
O0 P2 1.531783 1_655
O1 P3 1.531783 1_655
O2 P0 1.531783 1_555
O3 P1 1.531783 1_555
O4 P6 1.531783 1_455
O5 P7 1.531783 1_455
O6 P4 1.531783 1_555
O7 P5 1.531783 1_555
O8 P2 1.565137 1_555
O9 P3 1.565137 1_555
O10 P0 1.565137 1_555
O11 P1 1.565137 1_555
O12 P6 1.565137 1_555
O13 P7 1.565137 1_555
O14 P4 1.565137 1_555
O15 P5 1.565137 1_555
O24 P5 1.537854 1_555
O25 P4 1.537854 1_545
O26 P7 1.537854 1_555
O27 P6 1.537854 1_545
O28 P1 1.537854 1_555
O29 P0 1.537854 1_565
O30 P3 1.537854 1_555
O31 P2 1.537854 1_565
