# generated using pymatgen
data_La2Te3MoO12
_symmetry_space_group_name_H-M   'P 1'
_cell_length_a   7.48331900
_cell_length_b   11.82914600
_cell_length_c   13.71221900
_cell_angle_alpha   90.00000000
_cell_angle_beta   90.00000000
_cell_angle_gamma   90.00000000
_symmetry_Int_Tables_number   1
_chemical_formula_structural   La2Te3MoO12
_chemical_formula_sum   'La8 Te12 Mo4 O48'
_cell_volume   1213.82308175
_cell_formula_units_Z   4
loop_
 _symmetry_equiv_pos_site_id
 _symmetry_equiv_pos_as_xyz
  1  'x, y, z'
loop_
 _atom_site_type_symbol
 _atom_site_label
 _atom_site_symmetry_multiplicity
 _atom_site_fract_x
 _atom_site_fract_y
 _atom_site_fract_z
 _atom_site_occupancy
  La  La0  1  0.40715400  0.41563400  0.86964400  1
  La  La1  1  0.59284600  0.91563400  0.13035600  1
  La  La2  1  0.40715400  0.08436600  0.86964400  1
  La  La3  1  0.90715400  0.41563400  0.63035600  1
  La  La4  1  0.90715400  0.08436600  0.63035600  1
  La  La5  1  0.59284600  0.58436600  0.13035600  1
  La  La6  1  0.09284600  0.58436600  0.36964400  1
  La  La7  1  0.09284600  0.91563400  0.36964400  1
  Te  Te0  1  0.34462300  0.95590000  0.62177400  1
  Te  Te1  1  0.53134100  0.75000000  0.38032500  1
  Te  Te2  1  0.65537700  0.45590000  0.37822600  1
  Te  Te3  1  0.84462300  0.95590000  0.87822600  1
  Te  Te4  1  0.34462300  0.54410000  0.62177400  1
  Te  Te5  1  0.03134100  0.75000000  0.11967500  1
  Te  Te6  1  0.96865900  0.25000000  0.88032500  1
  Te  Te7  1  0.15537700  0.45590000  0.12177400  1
  Te  Te8  1  0.46865900  0.25000000  0.61967500  1
  Te  Te9  1  0.15537700  0.04410000  0.12177400  1
  Te  Te10  1  0.65537700  0.04410000  0.37822600  1
  Te  Te11  1  0.84462300  0.54410000  0.87822600  1
  Mo  Mo0  1  0.35266100  0.75000000  0.90440300  1
  Mo  Mo1  1  0.85266100  0.75000000  0.59559700  1
  Mo  Mo2  1  0.64733900  0.25000000  0.09559700  1
  Mo  Mo3  1  0.14733900  0.25000000  0.40440300  1
  O  O0  1  0.17366200  0.50066100  0.52779600  1
  O  O1  1  0.17366200  0.99933900  0.52779600  1
  O  O2  1  0.05384600  0.25000000  0.52752700  1
  O  O3  1  0.22821900  0.45819700  0.71933900  1
  O  O4  1  0.21546400  0.25000000  0.91131500  1
  O  O5  1  0.92368300  0.87350500  0.66206700  1
  O  O6  1  0.78453600  0.75000000  0.08868500  1
  O  O7  1  0.07631700  0.37350500  0.33793300  1
  O  O8  1  0.61648700  0.75000000  0.58384000  1
  O  O9  1  0.67366200  0.99933900  0.97220400  1
  O  O10  1  0.47469200  0.93110700  0.40109800  1
  O  O11  1  0.72821900  0.45819700  0.78066100  1
  O  O12  1  0.52530800  0.06889300  0.59890200  1
  O  O13  1  0.72821900  0.04180300  0.78066100  1
  O  O14  1  0.67366200  0.50066100  0.97220400  1
  O  O15  1  0.55384600  0.25000000  0.97247300  1
  O  O16  1  0.32633800  0.00066100  0.02779600  1
  O  O17  1  0.77178100  0.95819700  0.28066100  1
  O  O18  1  0.48608500  0.25000000  0.75777500  1
  O  O19  1  0.27178100  0.95819700  0.21933900  1
  O  O20  1  0.22821900  0.04180300  0.71933900  1
  O  O21  1  0.71546400  0.25000000  0.58868500  1
  O  O22  1  0.44615400  0.75000000  0.02752700  1
  O  O23  1  0.52530800  0.43110700  0.59890200  1
  O  O24  1  0.02530800  0.06889300  0.90109800  1
  O  O25  1  0.11648700  0.75000000  0.91616000  1
  O  O26  1  0.57631700  0.37350500  0.16206700  1
  O  O27  1  0.82633800  0.00066100  0.47220400  1
  O  O28  1  0.07631700  0.12649500  0.33793300  1
  O  O29  1  0.92368300  0.62649500  0.66206700  1
  O  O30  1  0.42368400  0.87350500  0.83793300  1
  O  O31  1  0.47469200  0.56889300  0.40109800  1
  O  O32  1  0.51391500  0.75000000  0.24222500  1
  O  O33  1  0.32633800  0.49933900  0.02779600  1
  O  O34  1  0.28453600  0.75000000  0.41131500  1
  O  O35  1  0.27178100  0.54180300  0.21933900  1
  O  O36  1  0.38351300  0.25000000  0.41616000  1
  O  O37  1  0.57631700  0.12649500  0.16206700  1
  O  O38  1  0.88351300  0.25000000  0.08384000  1
  O  O39  1  0.77178100  0.54180300  0.28066100  1
  O  O40  1  0.97469200  0.56889300  0.09890200  1
  O  O41  1  0.97469200  0.93110700  0.09890200  1
  O  O42  1  0.42368400  0.62649500  0.83793300  1
  O  O43  1  0.01391500  0.75000000  0.25777500  1
  O  O44  1  0.94615400  0.75000000  0.47247300  1
  O  O45  1  0.82633800  0.49933900  0.47220400  1
  O  O46  1  0.02530800  0.43110700  0.90109800  1
  O  O47  1  0.98608500  0.25000000  0.74222500  1
loop_
_geom_bond_atom_site_label_1
_geom_bond_atom_site_label_2
_geom_bond_distance
_geom_bond_site_symmetry_2
La0 O33 2.459482 1_556
La0 O4 2.494617 1_555
La0 O3 2.508839 1_555
La0 O42 2.534943 1_555
La0 O18 2.557508 1_555
La0 O14 2.639482 1_555
La0 O15 2.651805 1_555
La0 O11 2.741334 1_555
La0 O46 2.895633 1_555
La1 O9 2.459482 1_554
La1 O6 2.494617 1_555
La1 O17 2.508839 1_555
La1 O37 2.534943 1_565
La1 O32 2.557508 1_555
La1 O16 2.639482 1_565
La1 O22 2.651805 1_555
La1 O19 2.741334 1_555
La1 O41 2.895633 1_555
La2 O16 2.459482 1_556
La2 O4 2.494617 1_555
La2 O20 2.508839 1_555
La2 O30 2.534943 1_545
La2 O18 2.557508 1_555
La2 O9 2.639482 1_545
La2 O15 2.651805 1_555
La2 O13 2.741334 1_555
La2 O24 2.895633 1_555
La3 O45 2.459482 1_555
La3 O21 2.494617 1_555
La3 O11 2.508839 1_555
La3 O29 2.534943 1_555
La3 O47 2.557508 1_555
La3 O0 2.639482 1_655
La3 O2 2.651805 1_655
La3 O3 2.741334 1_655
La3 O23 2.895633 1_555
La4 O27 2.459482 1_555
La4 O21 2.494617 1_555
La4 O13 2.508839 1_555
La4 O5 2.534943 1_545
La4 O47 2.557508 1_555
La4 O1 2.639482 1_645
La4 O2 2.651805 1_655
La4 O20 2.741334 1_655
La4 O12 2.895633 1_555
La5 O14 2.459482 1_554
La5 O6 2.494617 1_555
La5 O39 2.508839 1_555
La5 O26 2.534943 1_555
La5 O32 2.557508 1_555
La5 O33 2.639482 1_555
La5 O22 2.651805 1_555
La5 O35 2.741334 1_555
La5 O40 2.895633 1_555
La6 O0 2.459482 1_555
La6 O34 2.494617 1_555
La6 O35 2.508839 1_555
La6 O7 2.534943 1_555
La6 O43 2.557508 1_555
La6 O45 2.639482 1_455
La6 O44 2.651805 1_455
La6 O39 2.741334 1_455
La6 O31 2.895633 1_555
La7 O1 2.459482 1_555
La7 O34 2.494617 1_555
La7 O19 2.508839 1_555
La7 O28 2.534943 1_565
La7 O43 2.557508 1_555
La7 O27 2.639482 1_465
La7 O44 2.651805 1_455
La7 O17 2.741334 1_455
La7 O10 2.895633 1_555
Mo0 O25 1.774703 1_555
Mo0 O30 1.802116 1_555
Mo0 O42 1.802116 1_555
Mo0 O22 1.827529 1_556
Mo1 O8 1.774703 1_555
Mo1 O5 1.802114 1_555
Mo1 O29 1.802114 1_555
Mo1 O44 1.827529 1_555
Mo2 O38 1.774703 1_555
Mo2 O26 1.802114 1_555
Mo2 O37 1.802114 1_555
Mo2 O15 1.827529 1_554
Mo3 O36 1.774703 1_555
Mo3 O7 1.802114 1_555
Mo3 O28 1.802114 1_555
Mo3 O2 1.827529 1_555
O0 Te4 1.887167 1_555
O1 Te0 1.887167 1_555
O3 Te4 1.892398 1_555
O4 Te6 1.895176 1_455
O6 Te5 1.895176 1_655
O9 Te3 1.887167 1_555
O10 Te10 1.926948 1_565
O10 Te1 2.202379 1_555
O11 Te11 1.892398 1_555
O12 Te0 1.926948 1_545
O12 Te8 2.202379 1_555
O13 Te3 1.892398 1_545
O14 Te11 1.887167 1_555
O16 Te9 1.887167 1_555
O17 Te10 1.892398 1_565
O18 Te8 1.898142 1_555
O19 Te9 1.892398 1_565
O20 Te0 1.892398 1_545
O21 Te8 1.895176 1_555
O23 Te4 1.926948 1_555
O23 Te8 2.202379 1_555
O24 Te3 1.926948 1_445
O24 Te6 2.202379 1_455
O27 Te10 1.887167 1_555
O31 Te2 1.926948 1_555
O31 Te1 2.202379 1_555
O32 Te1 1.898142 1_555
O33 Te7 1.887167 1_555
O34 Te1 1.895176 1_555
O35 Te7 1.892398 1_555
O39 Te2 1.892398 1_555
O40 Te7 1.926948 1_655
O40 Te5 2.202379 1_655
O41 Te9 1.926948 1_665
O41 Te5 2.202379 1_655
O43 Te5 1.898142 1_555
O45 Te2 1.887167 1_555
O46 Te11 1.926948 1_455
O46 Te6 2.202379 1_455
O47 Te6 1.898142 1_555
