# generated using pymatgen
data_Cs5CeCu2(NO2)12
_symmetry_space_group_name_H-M   'P 1'
_cell_length_a   11.28883200
_cell_length_b   11.28883200
_cell_length_c   11.28883200
_cell_angle_alpha   90.00000000
_cell_angle_beta   90.00000000
_cell_angle_gamma   90.00000000
_symmetry_Int_Tables_number   1
_chemical_formula_structural   Cs5CeCu2(NO2)12
_chemical_formula_sum   'Cs10 Ce2 Cu4 N24 O48'
_cell_volume   1438.62310100
_cell_formula_units_Z   2
loop_
 _symmetry_equiv_pos_site_id
 _symmetry_equiv_pos_as_xyz
  1  'x, y, z'
loop_
 _atom_site_type_symbol
 _atom_site_label
 _atom_site_symmetry_multiplicity
 _atom_site_fract_x
 _atom_site_fract_y
 _atom_site_fract_z
 _atom_site_occupancy
  Cs  Cs0  1  0.50000000  0.50000000  0.00000000  1
  Cs  Cs1  1  0.50000000  0.00000000  0.50000000  1
  Cs  Cs2  1  0.25000000  0.75000000  0.75000000  1
  Cs  Cs3  1  0.75000000  0.25000000  0.25000000  1
  Cs  Cs4  1  0.75000000  0.25000000  0.75000000  1
  Cs  Cs5  1  0.00000000  0.00000000  0.00000000  1
  Cs  Cs6  1  0.75000000  0.75000000  0.25000000  1
  Cs  Cs7  1  0.25000000  0.75000000  0.25000000  1
  Cs  Cs8  1  0.00000000  0.50000000  0.50000000  1
  Cs  Cs9  1  0.25000000  0.25000000  0.75000000  1
  Ce  Ce0  1  0.25000000  0.25000000  0.25000000  1
  Ce  Ce1  1  0.75000000  0.75000000  0.75000000  1
  Cu  Cu0  1  0.00000000  0.00000000  0.50000000  1
  Cu  Cu1  1  0.50000000  0.00000000  0.00000000  1
  Cu  Cu2  1  0.00000000  0.50000000  0.00000000  1
  Cu  Cu3  1  0.50000000  0.50000000  0.50000000  1
  N  N0  1  0.51042000  0.50893500  0.68953700  1
  N  N1  1  0.81046300  0.98958000  0.50893500  1
  N  N2  1  0.68953700  0.98958000  0.99106500  1
  N  N3  1  0.50893500  0.81046300  0.98958000  1
  N  N4  1  0.98958000  0.99106500  0.68953700  1
  N  N5  1  0.00893500  0.31046300  0.01042000  1
  N  N6  1  0.31046300  0.01042000  0.00893500  1
  N  N7  1  0.81046300  0.51042000  0.99106500  1
  N  N8  1  0.50893500  0.68953700  0.51042000  1
  N  N9  1  0.01042000  0.49106500  0.18953700  1
  N  N10  1  0.99106500  0.81046300  0.51042000  1
  N  N11  1  0.48958000  0.49106500  0.31046300  1
  N  N12  1  0.51042000  0.99106500  0.81046300  1
  N  N13  1  0.00893500  0.18953700  0.48958000  1
  N  N14  1  0.68953700  0.51042000  0.50893500  1
  N  N15  1  0.49106500  0.18953700  0.01042000  1
  N  N16  1  0.49106500  0.31046300  0.48958000  1
  N  N17  1  0.18953700  0.01042000  0.49106500  1
  N  N18  1  0.99106500  0.68953700  0.98958000  1
  N  N19  1  0.98958000  0.50893500  0.81046300  1
  N  N20  1  0.48958000  0.00893500  0.18953700  1
  N  N21  1  0.01042000  0.00893500  0.31046300  1
  N  N22  1  0.18953700  0.48958000  0.00893500  1
  N  N23  1  0.31046300  0.48958000  0.49106500  1
  O  O0  1  0.50041700  0.24315000  0.91348700  1
  O  O1  1  0.00041700  0.74315000  0.08651300  1
  O  O2  1  0.41348700  0.00041700  0.75685000  1
  O  O3  1  0.25685000  0.58651300  0.50041700  1
  O  O4  1  0.91348700  0.50041700  0.24315000  1
  O  O5  1  0.24712100  0.09949900  0.45326900  1
  O  O6  1  0.40050100  0.45326900  0.25287900  1
  O  O7  1  0.95326900  0.75287900  0.59949900  1
  O  O8  1  0.58651300  0.99958300  0.24315000  1
  O  O9  1  0.04673100  0.24712100  0.40050100  1
  O  O10  1  0.08651300  0.00041700  0.74315000  1
  O  O11  1  0.40050100  0.04673100  0.24712100  1
  O  O12  1  0.75685000  0.41348700  0.00041700  1
  O  O13  1  0.90050100  0.95326900  0.74712100  1
  O  O14  1  0.04673100  0.25287900  0.09949900  1
  O  O15  1  0.91348700  0.99958300  0.25685000  1
  O  O16  1  0.90050100  0.54673100  0.75287900  1
  O  O17  1  0.24315000  0.91348700  0.50041700  1
  O  O18  1  0.08651300  0.49958300  0.75685000  1
  O  O19  1  0.09949900  0.04673100  0.25287900  1
  O  O20  1  0.54673100  0.75287900  0.90050100  1
  O  O21  1  0.24315000  0.58651300  0.99958300  1
  O  O22  1  0.24712100  0.40050100  0.04673100  1
  O  O23  1  0.75685000  0.08651300  0.49958300  1
  O  O24  1  0.00041700  0.75685000  0.41348700  1
  O  O25  1  0.25287900  0.40050100  0.45326900  1
  O  O26  1  0.41348700  0.49958300  0.74315000  1
  O  O27  1  0.99958300  0.24315000  0.58651300  1
  O  O28  1  0.58651300  0.50041700  0.25685000  1
  O  O29  1  0.54673100  0.74712100  0.59949900  1
  O  O30  1  0.75287900  0.59949900  0.95326900  1
  O  O31  1  0.59949900  0.95326900  0.75287900  1
  O  O32  1  0.25685000  0.91348700  0.99958300  1
  O  O33  1  0.74712100  0.90050100  0.95326900  1
  O  O34  1  0.74315000  0.08651300  0.00041700  1
  O  O35  1  0.50041700  0.25685000  0.58651300  1
  O  O36  1  0.75287900  0.90050100  0.54673100  1
  O  O37  1  0.74315000  0.41348700  0.49958300  1
  O  O38  1  0.99958300  0.25685000  0.91348700  1
  O  O39  1  0.49958300  0.75685000  0.08651300  1
  O  O40  1  0.09949900  0.45326900  0.24712100  1
  O  O41  1  0.25287900  0.09949900  0.04673100  1
  O  O42  1  0.45326900  0.25287900  0.40050100  1
  O  O43  1  0.59949900  0.54673100  0.74712100  1
  O  O44  1  0.49958300  0.74315000  0.41348700  1
  O  O45  1  0.95326900  0.74712100  0.90050100  1
  O  O46  1  0.74712100  0.59949900  0.54673100  1
  O  O47  1  0.45326900  0.24712100  0.09949900  1
loop_
_geom_bond_atom_site_label_1
_geom_bond_atom_site_label_2
_geom_bond_distance
_geom_bond_site_symmetry_2
Cs0 O21 3.059598 1_554
Cs0 O28 3.059598 1_555
Cs0 O12 3.059598 1_555
Cs0 O0 3.059598 1_554
Cs0 O39 3.059598 1_555
Cs0 O26 3.059598 1_554
Cs0 O30 3.112764 1_554
Cs0 O22 3.112764 1_555
Cs0 O43 3.112764 1_554
Cs0 O47 3.112764 1_555
Cs0 O20 3.112764 1_554
Cs0 O6 3.112764 1_555
Cs1 O44 3.059598 1_545
Cs1 O35 3.059598 1_555
Cs1 O2 3.059598 1_555
Cs1 O17 3.059598 1_545
Cs1 O8 3.059598 1_545
Cs1 O23 3.059598 1_555
Cs1 O36 3.112764 1_545
Cs1 O31 3.112764 1_545
Cs1 O5 3.112764 1_555
Cs1 O11 3.112764 1_555
Cs1 O29 3.112764 1_545
Cs1 O42 3.112764 1_555
Cs2 O21 3.369042 1_555
Cs2 O3 3.369042 1_555
Cs2 O17 3.369042 1_555
Cs2 O32 3.369042 1_555
Cs2 O10 3.376920 1_565
Cs2 O2 3.376920 1_565
Cs2 O26 3.376920 1_555
Cs2 O18 3.376920 1_555
Cs2 O45 3.756114 1_455
Cs2 O7 3.756114 1_455
Cs2 O20 3.756114 1_555
Cs2 O29 3.756114 1_555
Cs3 O12 3.369042 1_555
Cs3 O23 3.369042 1_555
Cs3 O37 3.369042 1_555
Cs3 O34 3.369042 1_555
Cs3 O4 3.376920 1_555
Cs3 O28 3.376920 1_555
Cs3 O8 3.376920 1_545
Cs3 O15 3.376920 1_545
Cs3 O47 3.756114 1_555
Cs3 O42 3.756114 1_555
Cs3 O9 3.756114 1_655
Cs3 O14 3.756114 1_655
Cs4 O27 3.369042 1_555
Cs4 O38 3.369042 1_555
Cs4 O0 3.369042 1_555
Cs4 O35 3.369042 1_555
Cs4 O34 3.376920 1_556
Cs4 O12 3.376920 1_556
Cs4 O23 3.376920 1_555
Cs4 O37 3.376920 1_555
Cs4 O31 3.756114 1_545
Cs4 O16 3.756114 1_555
Cs4 O43 3.756114 1_555
Cs4 O13 3.756114 1_545
Cs5 O15 3.059598 1_445
Cs5 O32 3.059598 1_544
Cs5 O38 3.059598 1_454
Cs5 O34 3.059598 1_455
Cs5 O1 3.059598 1_545
Cs5 O10 3.059598 1_554
Cs5 O33 3.112764 1_444
Cs5 O13 3.112764 1_444
Cs5 O45 3.112764 1_444
Cs5 O14 3.112764 1_555
Cs5 O41 3.112764 1_555
Cs5 O19 3.112764 1_555
Cs6 O15 3.369042 1_555
Cs6 O4 3.369042 1_555
Cs6 O28 3.369042 1_555
Cs6 O8 3.369042 1_555
Cs6 O24 3.376920 1_655
Cs6 O1 3.376920 1_655
Cs6 O44 3.376920 1_555
Cs6 O39 3.376920 1_555
Cs6 O46 3.756114 1_555
Cs6 O36 3.756114 1_555
Cs6 O30 3.756114 1_554
Cs6 O33 3.756114 1_554
Cs7 O39 3.369042 1_555
Cs7 O1 3.369042 1_555
Cs7 O24 3.369042 1_555
Cs7 O44 3.369042 1_555
Cs7 O32 3.376920 1_554
Cs7 O21 3.376920 1_554
Cs7 O17 3.376920 1_555
Cs7 O3 3.376920 1_555
Cs7 O40 3.756114 1_555
Cs7 O6 3.756114 1_555
Cs7 O19 3.756114 1_565
Cs7 O11 3.756114 1_565
Cs8 O37 3.059598 1_455
Cs8 O27 3.059598 1_455
Cs8 O24 3.059598 1_555
Cs8 O18 3.059598 1_555
Cs8 O4 3.059598 1_455
Cs8 O3 3.059598 1_555
Cs8 O46 3.112764 1_455
Cs8 O16 3.112764 1_455
Cs8 O7 3.112764 1_455
Cs8 O40 3.112764 1_555
Cs8 O9 3.112764 1_555
Cs8 O25 3.112764 1_555
Cs9 O26 3.369042 1_555
Cs9 O10 3.369042 1_555
Cs9 O18 3.369042 1_555
Cs9 O2 3.369042 1_555
Cs9 O27 3.376920 1_455
Cs9 O38 3.376920 1_455
Cs9 O0 3.376920 1_555
Cs9 O35 3.376920 1_555
Cs9 O25 3.756114 1_555
Cs9 O5 3.756114 1_555
Cs9 O41 3.756114 1_556
Cs9 O22 3.756114 1_556
Ce0 O47 2.855363 1_555
Ce0 O6 2.855363 1_555
Ce0 O42 2.855363 1_555
Ce0 O25 2.855363 1_555
Ce0 O5 2.855363 1_555
Ce0 O41 2.855363 1_555
Ce0 O14 2.855363 1_555
Ce0 O11 2.855363 1_555
Ce0 O40 2.855363 1_555
Ce0 O22 2.855363 1_555
Ce0 O19 2.855363 1_555
Ce0 O9 2.855363 1_555
Ce1 O43 2.855363 1_555
Ce1 O31 2.855363 1_555
Ce1 O13 2.855363 1_555
Ce1 O36 2.855363 1_555
Ce1 O45 2.855363 1_555
Ce1 O16 2.855363 1_555
Ce1 O20 2.855363 1_555
Ce1 O29 2.855363 1_555
Ce1 O7 2.855363 1_555
Ce1 O30 2.855363 1_555
Ce1 O46 2.855363 1_555
Ce1 O33 2.855363 1_555
Cu0 N10 2.145255 1_445
Cu0 N4 2.145255 1_445
Cu0 N1 2.145255 1_445
Cu0 N13 2.145255 1_555
Cu0 N21 2.145255 1_555
Cu0 N17 2.145255 1_555
Cu1 N2 2.145255 1_544
Cu1 N3 2.145255 1_544
Cu1 N12 2.145255 1_544
Cu1 N6 2.145255 1_555
Cu1 N20 2.145255 1_555
Cu1 N15 2.145255 1_555
Cu2 N18 2.145255 1_454
Cu2 N19 2.145255 1_454
Cu2 N7 2.145255 1_454
Cu2 N5 2.145255 1_555
Cu2 N22 2.145255 1_555
Cu2 N9 2.145255 1_555
Cu3 N8 2.145255 1_555
Cu3 N0 2.145255 1_555
Cu3 N14 2.145255 1_555
Cu3 N23 2.145255 1_555
Cu3 N16 2.145255 1_555
Cu3 N11 2.145255 1_555
N0 O26 1.254931 1_555
N0 O43 1.271161 1_555
N1 O23 1.254931 1_565
N1 O36 1.271161 1_555
N2 O34 1.254931 1_566
N2 O33 1.271161 1_555
N3 O39 1.254931 1_556
N3 O20 1.271161 1_555
N4 O10 1.254931 1_665
N4 O13 1.271161 1_555
N5 O38 1.254931 1_454
N5 O14 1.271161 1_555
N6 O32 1.254931 1_544
N6 O41 1.271161 1_555
N7 O12 1.254931 1_556
N7 O30 1.271161 1_555
N8 O44 1.254931 1_555
N8 O29 1.271161 1_555
N9 O4 1.254931 1_455
N9 O40 1.271161 1_555
N10 O24 1.254931 1_655
N10 O7 1.271161 1_555
N11 O28 1.254931 1_555
N11 O6 1.271161 1_555
N12 O2 1.254931 1_565
N12 O31 1.271161 1_555
N13 O27 1.254931 1_455
N13 O9 1.271161 1_555
N14 O37 1.254931 1_555
N14 O46 1.271161 1_555
N15 O0 1.254931 1_554
N15 O47 1.271161 1_555
N16 O35 1.254931 1_555
N16 O42 1.271161 1_555
N17 O17 1.254931 1_545
N17 O5 1.271161 1_555
N18 O1 1.254931 1_656
N18 O45 1.271161 1_555
N19 O18 1.254931 1_655
N19 O16 1.271161 1_555
N20 O8 1.254931 1_545
N20 O11 1.271161 1_555
N21 O15 1.254931 1_445
N21 O19 1.271161 1_555
N22 O21 1.254931 1_554
N22 O22 1.271161 1_555
N23 O3 1.254931 1_555
N23 O25 1.271161 1_555
