# generated using pymatgen
data_CsCeSiSe4
_symmetry_space_group_name_H-M   'P 1'
_cell_length_a   6.81228700
_cell_length_b   7.16444600
_cell_length_c   18.79630000
_cell_angle_alpha   90.00000000
_cell_angle_beta   90.00000000
_cell_angle_gamma   90.00000000
_symmetry_Int_Tables_number   1
_chemical_formula_structural   CsCeSiSe4
_chemical_formula_sum   'Cs4 Ce4 Si4 Se16'
_cell_volume   917.37714897
_cell_formula_units_Z   4
loop_
 _symmetry_equiv_pos_site_id
 _symmetry_equiv_pos_as_xyz
  1  'x, y, z'
loop_
 _atom_site_type_symbol
 _atom_site_label
 _atom_site_symmetry_multiplicity
 _atom_site_fract_x
 _atom_site_fract_y
 _atom_site_fract_z
 _atom_site_occupancy
  Cs  Cs0  1  0.50379900  0.49427100  0.96634100  1
  Cs  Cs1  1  0.99620100  0.50572900  0.46634100  1
  Cs  Cs2  1  0.49620100  0.99427100  0.53365900  1
  Cs  Cs3  1  0.00379900  0.00572900  0.03365900  1
  Ce  Ce0  1  0.70800700  0.97661600  0.27342500  1
  Ce  Ce1  1  0.29199300  0.47661600  0.22657500  1
  Ce  Ce2  1  0.79199300  0.02338400  0.77342500  1
  Ce  Ce3  1  0.20800700  0.52338400  0.72657500  1
  Si  Si0  1  0.28706100  0.98494400  0.83565100  1
  Si  Si1  1  0.78706100  0.51505600  0.16434900  1
  Si  Si2  1  0.21293900  0.01505600  0.33565100  1
  Si  Si3  1  0.71293900  0.48494400  0.66434900  1
  Se  Se0  1  0.55289200  0.98929500  0.90854300  1
  Se  Se1  1  0.06684200  0.74907900  0.85788500  1
  Se  Se2  1  0.38209600  0.93454500  0.72026200  1
  Se  Se3  1  0.11790400  0.06545500  0.22026200  1
  Se  Se4  1  0.05289200  0.51070500  0.09145700  1
  Se  Se5  1  0.94710800  0.01070500  0.40854300  1
  Se  Se6  1  0.39527800  0.74696000  0.34989300  1
  Se  Se7  1  0.61790400  0.43454500  0.77973800  1
  Se  Se8  1  0.60472200  0.24696000  0.15010700  1
  Se  Se9  1  0.10472200  0.25304000  0.84989300  1
  Se  Se10  1  0.89527800  0.75304000  0.65010700  1
  Se  Se11  1  0.44710800  0.48929500  0.59145700  1
  Se  Se12  1  0.93315800  0.24907900  0.64211500  1
  Se  Se13  1  0.56684200  0.75092100  0.14211500  1
  Se  Se14  1  0.43315800  0.25092100  0.35788500  1
  Se  Se15  1  0.88209600  0.56545500  0.27973800  1
loop_
_geom_bond_atom_site_label_1
_geom_bond_atom_site_label_2
_geom_bond_distance
_geom_bond_site_symmetry_2
Cs0 Se7 3.617941 1_555
Cs0 Se0 3.724281 1_555
Cs0 Se0 3.792241 1_545
Cs0 Se13 3.805420 1_556
Cs0 Se4 3.870378 1_556
Cs0 Se9 3.894704 1_555
Cs0 Se8 3.942470 1_556
Cs0 Se1 4.043395 1_555
Cs1 Se15 3.617941 1_555
Cs1 Se5 3.724281 1_555
Cs1 Se5 3.792241 1_565
Cs1 Se12 3.805420 1_555
Cs1 Se11 3.870378 1_655
Cs1 Se6 3.894704 1_655
Cs1 Se10 3.942470 1_555
Cs1 Se14 4.043395 1_655
Cs2 Se2 3.617941 1_555
Cs2 Se11 3.724281 1_565
Cs2 Se11 3.792241 1_555
Cs2 Se14 3.805420 1_565
Cs2 Se5 3.870378 1_565
Cs2 Se10 3.894704 1_555
Cs2 Se6 3.942470 1_555
Cs2 Se12 4.043395 1_565
Cs3 Se3 3.617941 1_555
Cs3 Se4 3.724281 1_545
Cs3 Se4 3.792241 1_555
Cs3 Se1 3.805420 1_544
Cs3 Se0 3.870378 1_444
Cs3 Se8 3.894704 1_455
Cs3 Se9 3.942470 1_554
Cs3 Se13 4.043395 1_445
Ce0 Se5 3.027026 1_565
Ce0 Se3 3.033280 1_665
Ce0 Se6 3.051505 1_555
Ce0 Se8 3.101495 1_565
Ce0 Se13 3.103407 1_555
Ce0 Se14 3.144542 1_565
Ce0 Se15 3.177724 1_555
Ce1 Se4 3.027026 1_555
Ce1 Se15 3.033280 1_455
Ce1 Se8 3.051505 1_555
Ce1 Se6 3.101495 1_555
Ce1 Se14 3.103407 1_555
Ce1 Se13 3.144542 1_555
Ce1 Se3 3.177724 1_555
Ce2 Se0 3.027026 1_545
Ce2 Se2 3.033280 1_545
Ce2 Se9 3.051505 1_655
Ce2 Se10 3.101495 1_545
Ce2 Se12 3.103407 1_555
Ce2 Se1 3.144542 1_645
Ce2 Se7 3.177724 1_555
Ce3 Se11 3.027026 1_555
Ce3 Se7 3.033280 1_555
Ce3 Se10 3.051505 1_455
Ce3 Se9 3.101495 1_555
Ce3 Se1 3.103407 1_555
Ce3 Se12 3.144542 1_455
Ce3 Se2 3.177724 1_555
Se0 Si0 2.271028 1_555
Se1 Si0 2.298000 1_555
Se2 Si0 2.292069 1_555
Se3 Si2 2.292069 1_555
Se4 Si1 2.271028 1_455
Se5 Si2 2.271028 1_655
Se6 Si2 2.303021 1_565
Se7 Si3 2.292069 1_555
Se8 Si1 2.303021 1_555
Se9 Si0 2.303021 1_545
Se10 Si3 2.303021 1_555
Se11 Si3 2.271028 1_555
Se12 Si3 2.298000 1_555
Se13 Si1 2.298000 1_555
Se14 Si2 2.298000 1_555
Se15 Si1 2.292069 1_555
