# generated using pymatgen
data_K4MgFe3(PO4)5
_symmetry_space_group_name_H-M   'P 1'
_cell_length_a   9.68265515
_cell_length_b   9.68265515
_cell_length_c   9.52064590
_cell_angle_alpha   89.90425644
_cell_angle_beta   89.90425644
_cell_angle_gamma   89.67122872
_symmetry_Int_Tables_number   1
_chemical_formula_structural   K4MgFe3(PO4)5
_chemical_formula_sum   'K8 Mg2 Fe6 P10 O40'
_cell_volume   892.57966048
_cell_formula_units_Z   2
loop_
 _symmetry_equiv_pos_site_id
 _symmetry_equiv_pos_as_xyz
  1  'x, y, z'
loop_
 _atom_site_type_symbol
 _atom_site_label
 _atom_site_symmetry_multiplicity
 _atom_site_fract_x
 _atom_site_fract_y
 _atom_site_fract_z
 _atom_site_occupancy
  K  K0  1  0.43434920  0.33524254  0.95285729  1
  K  K1  1  0.56879894  0.66643765  0.96195539  1
  K  K2  1  0.92915306  0.17022354  0.54392581  1
  K  K3  1  0.07302211  0.83426562  0.53769197  1
  K  K4  1  0.33524254  0.43434920  0.45285729  1
  K  K5  1  0.66643765  0.56879894  0.46195539  1
  K  K6  1  0.17022354  0.92915306  0.04392581  1
  K  K7  1  0.83426562  0.07302211  0.03769197  1
  Mg  Mg0  1  0.80357269  0.42995306  0.78853901  1
  Mg  Mg1  1  0.42995306  0.80357269  0.28853901  1
  Fe  Fe0  1  0.19056147  0.57126345  0.78833771  1
  Fe  Fe1  1  0.30671820  0.07192858  0.71005398  1
  Fe  Fe2  1  0.69409231  0.92740074  0.71208221  1
  Fe  Fe3  1  0.57126345  0.19056147  0.28833771  1
  Fe  Fe4  1  0.92740074  0.69409231  0.21208221  1
  Fe  Fe5  1  0.07192858  0.30671820  0.21005398  1
  P  P0  1  0.50107169  0.99957756  0.99923339  1
  P  P1  1  0.91783550  0.75000699  0.86675563  1
  P  P2  1  0.07846840  0.25118228  0.86577493  1
  P  P3  1  0.41905096  0.75143135  0.63510130  1
  P  P4  1  0.57680690  0.24811166  0.63362375  1
  P  P5  1  0.99957756  0.50107169  0.49923339  1
  P  P6  1  0.75000699  0.91783550  0.36675563  1
  P  P7  1  0.25118228  0.07846840  0.36577493  1
  P  P8  1  0.24811166  0.57680690  0.13362375  1
  P  P9  1  0.75143135  0.41905096  0.13510130  1
  O  O0  1  0.27785860  0.59031492  0.97646030  1
  O  O1  1  0.71516559  0.41008440  0.98179553  1
  O  O2  1  0.38673146  0.05954598  0.90395424  1
  O  O3  1  0.62166838  0.94529476  0.90809948  1
  O  O4  1  0.82873028  0.62904967  0.82778455  1
  O  O5  1  0.16792946  0.37686112  0.82624809  1
  O  O6  1  0.07078988  0.72467911  0.82595932  1
  O  O7  1  0.92885466  0.27287334  0.82651983  1
  O  O8  1  0.87317358  0.88271455  0.78683863  1
  O  O9  1  0.13195525  0.12232318  0.78539916  1
  O  O10  1  0.36985871  0.62550400  0.72151515  1
  O  O11  1  0.62242739  0.37417260  0.71427932  1
  O  O12  1  0.57079982  0.77769615  0.67734572  1
  O  O13  1  0.42289112  0.22333189  0.66800256  1
  O  O14  1  0.33025878  0.87794613  0.67444190  1
  O  O15  1  0.66203357  0.11914457  0.67364502  1
  O  O16  1  0.11816025  0.55634857  0.59200171  1
  O  O17  1  0.88301672  0.44403994  0.58813698  1
  O  O18  1  0.78529966  0.91053133  0.52361848  1
  O  O19  1  0.21614529  0.09326988  0.52202067  1
  O  O20  1  0.59031492  0.27785860  0.47646030  1
  O  O21  1  0.41008440  0.71516559  0.48179553  1
  O  O22  1  0.94529476  0.62166838  0.40809948  1
  O  O23  1  0.05954598  0.38673146  0.40395424  1
  O  O24  1  0.37686112  0.16792946  0.32624809  1
  O  O25  1  0.62904967  0.82873028  0.32778455  1
  O  O26  1  0.27287334  0.92885466  0.32651983  1
  O  O27  1  0.72467911  0.07078988  0.32595932  1
  O  O28  1  0.88271455  0.87317358  0.28683863  1
  O  O29  1  0.12232318  0.13195525  0.28539916  1
  O  O30  1  0.37417260  0.62242739  0.21427932  1
  O  O31  1  0.62550400  0.36985871  0.22151515  1
  O  O32  1  0.22333189  0.42289112  0.16800256  1
  O  O33  1  0.77769615  0.57079982  0.17734572  1
  O  O34  1  0.11914457  0.66203357  0.17364502  1
  O  O35  1  0.87794613  0.33025878  0.17444190  1
  O  O36  1  0.55634857  0.11816025  0.09200171  1
  O  O37  1  0.44403994  0.88301672  0.08813698  1
  O  O38  1  0.91053133  0.78529966  0.02361848  1
  O  O39  1  0.09326988  0.21614529  0.02202067  1
loop_
_geom_bond_atom_site_label_1
_geom_bond_atom_site_label_2
_geom_bond_distance
_geom_bond_site_symmetry_2
K0 O36 2.745162 1_556
K0 O2 2.752171 1_555
K0 O1 2.831971 1_555
K0 O5 2.875208 1_555
K0 O0 2.898971 1_555
K0 O13 2.924660 1_555
K0 O11 2.934111 1_555
K0 O32 3.010396 1_556
K0 O31 3.179033 1_556
K1 O37 2.697149 1_556
K1 O3 2.797452 1_555
K1 O4 2.842102 1_555
K1 O1 2.857335 1_555
K1 O12 2.914363 1_555
K1 O0 2.918980 1_555
K1 O10 3.022305 1_555
K1 O33 3.023238 1_556
K1 O30 3.081327 1_556
K2 O17 2.719462 1_555
K2 O23 2.789282 1_655
K2 O7 2.869745 1_555
K2 O19 2.880191 1_655
K2 O18 2.888422 1_545
K2 O15 2.908853 1_555
K2 O27 3.032395 1_555
K2 O9 3.059000 1_655
K2 O29 3.110241 1_655
K3 O22 2.707776 1_455
K3 O16 2.771701 1_555
K3 O14 2.846484 1_555
K3 O19 2.875758 1_565
K3 O18 2.881304 1_455
K3 O26 2.937120 1_555
K3 O6 2.940908 1_555
K3 O28 3.040567 1_455
K3 O8 3.093390 1_455
K4 O16 2.745162 1_555
K4 O23 2.752171 1_555
K4 O21 2.831971 1_555
K4 O24 2.875208 1_555
K4 O20 2.898971 1_555
K4 O32 2.924660 1_555
K4 O30 2.934111 1_555
K4 O13 3.010396 1_555
K4 O10 3.179033 1_555
K5 O17 2.697149 1_555
K5 O22 2.797452 1_555
K5 O25 2.842102 1_555
K5 O21 2.857335 1_555
K5 O33 2.914363 1_555
K5 O20 2.918980 1_555
K5 O31 3.022305 1_555
K5 O12 3.023238 1_555
K5 O11 3.081327 1_555
K6 O37 2.719462 1_555
K6 O2 2.789282 1_564
K6 O26 2.869745 1_555
K6 O39 2.880191 1_565
K6 O38 2.888422 1_455
K6 O34 2.908853 1_555
K6 O6 3.032395 1_554
K6 O29 3.059000 1_565
K6 O9 3.110241 1_564
K7 O3 2.707776 1_544
K7 O36 2.771701 1_555
K7 O35 2.846484 1_555
K7 O39 2.875758 1_655
K7 O38 2.881304 1_545
K7 O7 2.937120 1_554
K7 O27 2.940908 1_555
K7 O8 3.040567 1_544
K7 O28 3.093390 1_545
Mg0 O11 1.970851 1_555
Mg0 O7 1.973326 1_555
Mg0 O4 1.980757 1_555
Mg0 O1 2.037289 1_555
Mg0 O17 2.060594 1_555
Mg1 O30 1.970851 1_555
Mg1 O26 1.973326 1_555
Mg1 O25 1.980757 1_555
Mg1 O21 2.037289 1_555
Mg1 O37 2.060594 1_555
Fe0 O6 1.913232 1_555
Fe0 O10 1.923584 1_555
Fe0 O5 1.929679 1_555
Fe0 O0 1.991059 1_555
Fe0 O16 2.003205 1_555
Fe1 O13 1.894775 1_555
Fe1 O9 1.898352 1_555
Fe1 O14 1.921392 1_545
Fe1 O19 2.004631 1_555
Fe1 O2 2.006363 1_555
Fe2 O12 1.912712 1_555
Fe2 O15 1.915383 1_565
Fe2 O8 1.922226 1_555
Fe2 O3 1.999959 1_555
Fe2 O18 2.005025 1_555
Fe3 O27 1.913232 1_555
Fe3 O31 1.923584 1_555
Fe3 O24 1.929679 1_555
Fe3 O20 1.991059 1_555
Fe3 O36 2.003205 1_555
Fe4 O33 1.912712 1_555
Fe4 O34 1.915383 1_655
Fe4 O28 1.922226 1_555
Fe4 O22 1.999959 1_555
Fe4 O38 2.005025 1_555
Fe5 O32 1.894775 1_555
Fe5 O29 1.898352 1_555
Fe5 O35 1.921392 1_455
Fe5 O39 2.004631 1_555
Fe5 O23 2.006363 1_555
O0 P8 1.528827 1_556
O1 P9 1.504551 1_556
O2 P0 1.542709 1_545
O3 P0 1.543920 1_555
O4 P1 1.505936 1_555
O5 P2 1.543467 1_555
O6 P1 1.548743 1_455
O7 P2 1.510117 1_655
O8 P1 1.551935 1_555
O9 P2 1.550804 1_555
O10 P3 1.546757 1_555
O11 P4 1.511659 1_555
O12 P3 1.546602 1_555
O13 P4 1.545297 1_555
O14 P3 1.538973 1_555
O15 P4 1.540509 1_555
O16 P5 1.548196 1_455
O17 P5 1.515767 1_555
O18 P6 1.534016 1_555
O19 P7 1.531971 1_555
O20 P4 1.528827 1_555
O21 P3 1.504551 1_555
O22 P5 1.543920 1_555
O23 P5 1.542709 1_455
O24 P7 1.543467 1_555
O25 P6 1.505936 1_555
O26 P7 1.510117 1_565
O27 P6 1.548743 1_545
O28 P6 1.551935 1_555
O29 P7 1.550804 1_555
O30 P8 1.511659 1_555
O31 P9 1.546757 1_555
O32 P8 1.545297 1_555
O33 P9 1.546602 1_555
O34 P8 1.540509 1_555
O35 P9 1.538973 1_555
O36 P0 1.548196 1_544
O37 P0 1.515767 1_554
O38 P1 1.534016 1_554
O39 P2 1.531971 1_554
