# generated using pymatgen
data_ZnS
_symmetry_space_group_name_H-M   'P 1'
_cell_length_a   3.80831795
_cell_length_b   3.80831634
_cell_length_c   43.62514150
_cell_angle_alpha   89.99992017
_cell_angle_beta   90.00008239
_cell_angle_gamma   119.99910569
_symmetry_Int_Tables_number   1
_chemical_formula_structural   ZnS
_chemical_formula_sum   'Zn14 S14'
_cell_volume   547.94580898
_cell_formula_units_Z   14
loop_
 _symmetry_equiv_pos_site_id
 _symmetry_equiv_pos_as_xyz
  1  'x, y, z'
loop_
 _atom_site_type_symbol
 _atom_site_label
 _atom_site_symmetry_multiplicity
 _atom_site_fract_x
 _atom_site_fract_y
 _atom_site_fract_z
 _atom_site_occupancy
  Zn  Zn0  1  0.66666751  0.33333249  0.14289912  1
  Zn  Zn1  1  0.33333643  0.66666357  0.07148045  1
  Zn  Zn2  1  0.66666278  0.33333722  0.57141545  1
  Zn  Zn3  1  0.00000117  0.99999883  0.21432170  1
  Zn  Zn4  1  0.00000093  0.99999907  0.78573326  1
  Zn  Zn5  1  0.33333359  0.66666641  0.64289906  1
  Zn  Zn6  1  0.33333248  0.66666752  0.42866609  1
  Zn  Zn7  1  0.66666477  0.33333523  0.85720139  1
  Zn  Zn8  1  0.33333339  0.66666661  0.92860190  1
  Zn  Zn9  1  0.66666749  0.33333251  0.71435637  1
  Zn  Zn10  1  0.33333605  0.66666395  0.28570942  1
  Zn  Zn11  1  0.66666721  0.33333279  0.35718281  1
  Zn  Zn12  1  0.99999988  0.00000012  0.00002566  1
  Zn  Zn13  1  0.99999781  0.00000219  0.50002803  1
  S  S0  1  0.99999240  0.00000760  0.55352393  1
  S  S1  1  0.33332752  0.66667248  0.48213161  1
  S  S2  1  0.66667056  0.33332944  0.19640063  1
  S  S3  1  0.33333703  0.66666297  0.33918921  1
  S  S4  1  0.66666338  0.33333662  0.91068853  1
  S  S5  1  0.99999698  0.00000302  0.83929599  1
  S  S6  1  0.66667039  0.33332961  0.76778297  1
  S  S7  1  0.00000396  0.99999604  0.26781977  1
  S  S8  1  0.33333685  0.66666315  0.69645197  1
  S  S9  1  0.66666164  0.33333836  0.41073995  1
  S  S10  1  0.00000402  0.99999598  0.05358467  1
  S  S11  1  0.66666334  0.33333666  0.62489799  1
  S  S12  1  0.33333020  0.66666980  0.98206255  1
  S  S13  1  0.33333721  0.66666279  0.12496650  1
loop_
_geom_bond_atom_site_label_1
_geom_bond_atom_site_label_2
_geom_bond_distance
_geom_bond_site_symmetry_2
S0 Zn2 2.333129 1_555
S0 Zn2 2.333190 1_545
S0 Zn2 2.333191 1_655
S0 Zn13 2.333766 1_555
S1 Zn6 2.332441 1_555
S1 Zn13 2.333201 1_465
S1 Zn13 2.333261 1_455
S1 Zn13 2.333262 1_565
S2 Zn3 2.333565 1_645
S2 Zn3 2.333619 1_655
S2 Zn3 2.333620 1_545
S2 Zn0 2.334011 1_555
S3 Zn10 2.333063 1_555
S3 Zn11 2.334624 1_555
S3 Zn11 2.334683 1_565
S3 Zn11 2.334684 1_455
S4 Zn7 2.333384 1_555
S4 Zn8 2.333451 1_555
S4 Zn8 2.333508 1_545
S4 Zn8 2.333508 1_655
S5 Zn7 2.333348 1_555
S5 Zn7 2.333384 1_545
S5 Zn7 2.333385 1_655
S5 Zn4 2.336682 1_645
S6 Zn9 2.330743 1_555
S6 Zn4 2.333992 1_645
S6 Zn4 2.334047 1_655
S6 Zn4 2.334048 1_545
S7 Zn10 2.333115 1_555
S7 Zn10 2.333156 1_565
S7 Zn10 2.333157 1_455
S7 Zn3 2.333861 1_555
S8 Zn9 2.333321 1_555
S8 Zn9 2.333376 1_565
S8 Zn9 2.333377 1_455
S8 Zn5 2.336253 1_555
S9 Zn6 2.333632 1_555
S9 Zn6 2.333697 1_545
S9 Zn6 2.333698 1_655
S9 Zn11 2.336438 1_555
S10 Zn1 2.333206 1_555
S10 Zn1 2.333244 1_565
S10 Zn1 2.333245 1_455
S10 Zn12 2.336519 1_465
S11 Zn2 2.333183 1_555
S11 Zn5 2.334733 1_555
S11 Zn5 2.334792 1_545
S11 Zn5 2.334793 1_655
S12 Zn8 2.332228 1_555
S12 Zn12 2.334180 1_466
S12 Zn12 2.334234 1_456
S12 Zn12 2.334235 1_566
S13 Zn1 2.333336 1_555
S13 Zn0 2.333732 1_555
S13 Zn0 2.333789 1_565
S13 Zn0 2.333790 1_455
