# generated using pymatgen
data_Ca4Mn3B3CO15
_symmetry_space_group_name_H-M   'P 1'
_cell_length_a   10.73243444
_cell_length_b   10.73243444
_cell_length_c   5.98860600
_cell_angle_alpha   90.00000000
_cell_angle_beta   90.00000000
_cell_angle_gamma   120.00000273
_symmetry_Int_Tables_number   1
_chemical_formula_structural   Ca4Mn3B3CO15
_chemical_formula_sum   'Ca8 Mn6 B6 C2 O30'
_cell_volume   597.38298628
_cell_formula_units_Z   2
loop_
 _symmetry_equiv_pos_site_id
 _symmetry_equiv_pos_as_xyz
  1  'x, y, z'
loop_
 _atom_site_type_symbol
 _atom_site_label
 _atom_site_symmetry_multiplicity
 _atom_site_fract_x
 _atom_site_fract_y
 _atom_site_fract_z
 _atom_site_occupancy
  Ca  Ca0  1  0.69806800  0.86871700  0.17996400  1
  Ca  Ca1  1  0.86871700  0.17064900  0.67996400  1
  Ca  Ca2  1  0.13128300  0.82935100  0.17996400  1
  Ca  Ca3  1  0.66666700  0.33333300  0.68468500  1
  Ca  Ca4  1  0.33333300  0.66666700  0.18468500  1
  Ca  Ca5  1  0.17064900  0.30193200  0.17996400  1
  Ca  Ca6  1  0.82935100  0.69806800  0.67996400  1
  Ca  Ca7  1  0.30193200  0.13128300  0.67996400  1
  Mn  Mn0  1  0.50028400  0.49974600  0.93053800  1
  Mn  Mn1  1  0.49971600  0.50025400  0.43053800  1
  Mn  Mn2  1  0.49974600  0.99946200  0.43053800  1
  Mn  Mn3  1  0.50025400  0.00053800  0.93053800  1
  Mn  Mn4  1  0.00053800  0.50028400  0.43053800  1
  Mn  Mn5  1  0.99946200  0.49971600  0.93053800  1
  B  B0  1  0.55302400  0.78317300  0.68048700  1
  B  B1  1  0.23014800  0.44697600  0.68048700  1
  B  B2  1  0.78317300  0.23014800  0.18048700  1
  B  B3  1  0.21682700  0.76985200  0.68048700  1
  B  B4  1  0.44697600  0.21682700  0.18048700  1
  B  B5  1  0.76985200  0.55302400  0.18048700  1
  C  C0  1  0.00000000  0.00000000  0.49547000  1
  C  C1  1  0.00000000  0.00000000  0.99547000  1
  O  O0  1  0.47145800  0.17012400  0.97651100  1
  O  O1  1  0.86192200  0.95003000  0.49938700  1
  O  O2  1  0.39973600  0.31586600  0.18246100  1
  O  O3  1  0.08810800  0.13807800  0.49938700  1
  O  O4  1  0.17012400  0.69866600  0.47651100  1
  O  O5  1  0.09575800  0.47427800  0.18006000  1
  O  O6  1  0.91613000  0.60026400  0.18246100  1
  O  O7  1  0.68413400  0.08387000  0.18246100  1
  O  O8  1  0.30057700  0.46703000  0.88454100  1
  O  O9  1  0.13807800  0.04997000  0.99938700  1
  O  O10  1  0.16645300  0.69942300  0.88454100  1
  O  O11  1  0.52854200  0.82987600  0.47651100  1
  O  O12  1  0.31586600  0.91613000  0.68246100  1
  O  O13  1  0.82987600  0.30133400  0.97651100  1
  O  O14  1  0.91189200  0.86192200  0.99938700  1
  O  O15  1  0.83354700  0.30057700  0.38454100  1
  O  O16  1  0.30133400  0.47145800  0.47651100  1
  O  O17  1  0.53297000  0.83354700  0.88454100  1
  O  O18  1  0.46703000  0.16645300  0.38454100  1
  O  O19  1  0.60026400  0.68413400  0.68246100  1
  O  O20  1  0.08387000  0.39973600  0.68246100  1
  O  O21  1  0.04997000  0.91189200  0.49938700  1
  O  O22  1  0.52572200  0.62148000  0.18006000  1
  O  O23  1  0.62148000  0.09575800  0.68006000  1
  O  O24  1  0.47427800  0.37852000  0.68006000  1
  O  O25  1  0.69942300  0.53297000  0.38454100  1
  O  O26  1  0.90424200  0.52572200  0.68006000  1
  O  O27  1  0.69866600  0.52854200  0.97651100  1
  O  O28  1  0.95003000  0.08810800  0.99938700  1
  O  O29  1  0.37852000  0.90424200  0.18006000  1
loop_
_geom_bond_atom_site_label_1
_geom_bond_atom_site_label_2
_geom_bond_distance
_geom_bond_site_symmetry_2
Ca0 O22 2.356716 1_555
Ca0 O7 2.387451 1_565
Ca0 O17 2.396511 1_554
Ca0 O11 2.424762 1_555
Ca0 O1 2.445118 1_555
Ca0 O14 2.570692 1_554
Ca0 O28 2.767464 1_564
Ca1 O23 2.356716 1_555
Ca1 O20 2.387450 1_655
Ca1 O15 2.396511 1_555
Ca1 O13 2.424762 1_555
Ca1 O28 2.445118 1_555
Ca1 O1 2.570692 1_545
Ca1 O3 2.767464 1_655
Ca2 O29 2.356716 1_555
Ca2 O6 2.387450 1_455
Ca2 O10 2.396511 1_554
Ca2 O4 2.424762 1_555
Ca2 O21 2.445118 1_555
Ca2 O9 2.570692 1_564
Ca2 O14 2.767464 1_454
Ca3 O23 2.345353 1_555
Ca3 O26 2.345356 1_555
Ca3 O24 2.345363 1_555
Ca3 O13 2.615707 1_555
Ca3 O0 2.615711 1_555
Ca3 O27 2.615714 1_555
Ca3 O15 2.681756 1_555
Ca3 O18 2.681761 1_555
Ca3 O25 2.681764 1_555
Ca4 O29 2.345353 1_555
Ca4 O5 2.345356 1_555
Ca4 O22 2.345363 1_555
Ca4 O4 2.615707 1_555
Ca4 O11 2.615711 1_555
Ca4 O16 2.615714 1_555
Ca4 O10 2.681756 1_554
Ca4 O17 2.681761 1_554
Ca4 O8 2.681764 1_554
Ca5 O5 2.356716 1_555
Ca5 O2 2.387451 1_555
Ca5 O8 2.396511 1_554
Ca5 O16 2.424762 1_555
Ca5 O3 2.445118 1_555
Ca5 O28 2.570692 1_454
Ca5 O9 2.767464 1_554
Ca6 O26 2.356716 1_555
Ca6 O19 2.387451 1_555
Ca6 O25 2.396511 1_555
Ca6 O27 2.424762 1_555
Ca6 O14 2.445118 1_555
Ca6 O21 2.570692 1_655
Ca6 O1 2.767464 1_555
Ca7 O24 2.356716 1_555
Ca7 O12 2.387451 1_545
Ca7 O18 2.396511 1_555
Ca7 O0 2.424762 1_555
Ca7 O9 2.445118 1_555
Ca7 O3 2.570692 1_555
Ca7 O21 2.767464 1_545
Mn0 O24 1.912470 1_555
Mn0 O22 1.912509 1_556
Mn0 O8 2.010101 1_555
Mn0 O27 2.011582 1_555
Mn0 O19 2.269631 1_555
Mn0 O2 2.281574 1_556
Mn1 O22 1.912470 1_555
Mn1 O24 1.912509 1_555
Mn1 O25 2.010101 1_555
Mn1 O16 2.011582 1_555
Mn1 O2 2.269631 1_555
Mn1 O19 2.281574 1_555
Mn2 O29 1.912470 1_555
Mn2 O23 1.912509 1_565
Mn2 O18 2.010101 1_565
Mn2 O11 2.011582 1_555
Mn2 O7 2.269631 1_565
Mn2 O12 2.281574 1_555
Mn3 O23 1.912470 1_555
Mn3 O29 1.912509 1_546
Mn3 O17 2.010101 1_545
Mn3 O0 2.011582 1_555
Mn3 O12 2.269631 1_545
Mn3 O7 2.281574 1_556
Mn4 O5 1.912470 1_555
Mn4 O26 1.912509 1_455
Mn4 O15 2.010101 1_455
Mn4 O4 2.011582 1_555
Mn4 O6 2.269631 1_455
Mn4 O20 2.281574 1_555
Mn5 O26 1.912470 1_555
Mn5 O5 1.912509 1_656
Mn5 O10 2.010101 1_655
Mn5 O13 2.011582 1_555
Mn5 O20 2.269631 1_655
Mn5 O6 2.281574 1_556
B0 O19 1.387773 1_555
B0 O11 1.394316 1_555
B0 O17 1.395798 1_555
B1 O20 1.387763 1_555
B1 O16 1.394321 1_555
B1 O8 1.395803 1_555
B2 O7 1.387765 1_555
B2 O13 1.394320 1_554
B2 O15 1.395802 1_555
B3 O12 1.387765 1_555
B3 O4 1.394320 1_555
B3 O10 1.395802 1_555
B4 O2 1.387773 1_555
B4 O0 1.394316 1_554
B4 O18 1.395798 1_555
B5 O6 1.387763 1_555
B5 O27 1.394321 1_554
B5 O25 1.395803 1_555
C0 O3 1.299802 1_555
C0 O1 1.299802 1_445
C0 O21 1.299802 1_545
C1 O14 1.299802 1_445
C1 O9 1.299802 1_555
C1 O28 1.299802 1_455
