# generated using pymatgen
data_Ti2MnO4
_symmetry_space_group_name_H-M   'P 1'
_cell_length_a   6.12073252
_cell_length_b   6.12073216
_cell_length_c   6.12073200
_cell_angle_alpha   60.00000089
_cell_angle_beta   60.00000280
_cell_angle_gamma   60.00000308
_symmetry_Int_Tables_number   1
_chemical_formula_structural   Ti2MnO4
_chemical_formula_sum   'Ti4 Mn2 O8'
_cell_volume   162.14186536
_cell_formula_units_Z   2
loop_
 _symmetry_equiv_pos_site_id
 _symmetry_equiv_pos_as_xyz
  1  'x, y, z'
loop_
 _atom_site_type_symbol
 _atom_site_label
 _atom_site_symmetry_multiplicity
 _atom_site_fract_x
 _atom_site_fract_y
 _atom_site_fract_z
 _atom_site_occupancy
  Ti  Ti0  1  0.50000000  0.50000000  0.00000000  1
  Ti  Ti1  1  0.50000000  0.00000000  0.50000000  1
  Ti  Ti2  1  0.50000000  0.50000000  0.50000000  1
  Ti  Ti3  1  0.00000000  0.50000000  0.50000000  1
  Mn  Mn0  1  0.12500000  0.12500000  0.12500000  1
  Mn  Mn1  1  0.87500000  0.87500000  0.87500000  1
  O  O0  1  0.73867300  0.73867300  0.28398000  1
  O  O1  1  0.26132700  0.26132700  0.26132700  1
  O  O2  1  0.26132700  0.26132700  0.71602000  1
  O  O3  1  0.28398000  0.73867300  0.73867300  1
  O  O4  1  0.73867300  0.28398000  0.73867300  1
  O  O5  1  0.26132700  0.71602000  0.26132700  1
  O  O6  1  0.73867300  0.73867300  0.73867300  1
  O  O7  1  0.71602000  0.26132700  0.26132700  1
loop_
_geom_bond_atom_site_label_1
_geom_bond_atom_site_label_2
_geom_bond_distance
_geom_bond_site_symmetry_2
Mn0 O2 2.043901 1_554
Mn0 O5 2.043901 1_545
Mn0 O7 2.043901 1_455
Mn0 O1 2.043906 1_555
Mn1 O0 2.043901 1_556
Mn1 O4 2.043901 1_565
Mn1 O3 2.043901 1_655
Mn1 O6 2.043906 1_555
O0 Ti2 2.070606 1_555
O0 Ti1 2.070611 1_565
O0 Ti3 2.070611 1_655
O1 Ti1 2.070607 1_555
O1 Ti3 2.070607 1_555
O1 Ti0 2.070607 1_555
O2 Ti2 2.070606 1_555
O2 Ti1 2.070611 1_555
O2 Ti3 2.070611 1_555
O3 Ti2 2.070606 1_555
O3 Ti0 2.070611 1_556
O3 Ti1 2.070611 1_565
O4 Ti2 2.070606 1_555
O4 Ti0 2.070611 1_556
O4 Ti3 2.070611 1_655
O5 Ti2 2.070606 1_555
O5 Ti0 2.070611 1_555
O5 Ti3 2.070611 1_555
O6 Ti1 2.070607 1_565
O6 Ti3 2.070607 1_655
O6 Ti0 2.070607 1_556
O7 Ti2 2.070606 1_555
O7 Ti0 2.070611 1_555
O7 Ti1 2.070611 1_555
