# generated using pymatgen
data_Tl3Ag3(SbS3)2
_symmetry_space_group_name_H-M   'P 1'
_cell_length_a   12.14193000
_cell_length_b   11.53770800
_cell_length_c   12.24557722
_cell_angle_alpha   60.21528494
_cell_angle_beta   90.00000000
_cell_angle_gamma   90.00000000
_symmetry_Int_Tables_number   1
_chemical_formula_structural   Tl3Ag3(SbS3)2
_chemical_formula_sum   'Tl12 Ag12 Sb8 S24'
_cell_volume   1488.86464798
_cell_formula_units_Z   4
loop_
 _symmetry_equiv_pos_site_id
 _symmetry_equiv_pos_as_xyz
  1  'x, y, z'
loop_
 _atom_site_type_symbol
 _atom_site_label
 _atom_site_symmetry_multiplicity
 _atom_site_fract_x
 _atom_site_fract_y
 _atom_site_fract_z
 _atom_site_occupancy
  Tl  Tl0  1  0.11522000  0.21503600  0.88811400  1
  Tl  Tl1  1  0.24648600  0.83811700  0.72910300  1
  Tl  Tl2  1  0.51034300  0.80575200  0.96537900  1
  Tl  Tl3  1  0.01034300  0.19424800  0.53462100  1
  Tl  Tl4  1  0.88478000  0.78496400  0.11188600  1
  Tl  Tl5  1  0.38478000  0.21503600  0.38811400  1
  Tl  Tl6  1  0.98965700  0.80575200  0.46537900  1
  Tl  Tl7  1  0.61522000  0.78496400  0.61188600  1
  Tl  Tl8  1  0.48965700  0.19424800  0.03462100  1
  Tl  Tl9  1  0.74648600  0.16188300  0.77089700  1
  Tl  Tl10  1  0.25351400  0.83811700  0.22910300  1
  Tl  Tl11  1  0.75351400  0.16188300  0.27089700  1
  Ag  Ag0  1  0.65342700  0.11009200  0.57096800  1
  Ag  Ag1  1  0.63484500  0.52678200  0.92540400  1
  Ag  Ag2  1  0.13484500  0.47321800  0.57459600  1
  Ag  Ag3  1  0.86515500  0.52678200  0.42540400  1
  Ag  Ag4  1  0.87488000  0.52683600  0.05078600  1
  Ag  Ag5  1  0.62512000  0.52683600  0.55078600  1
  Ag  Ag6  1  0.12512000  0.47316400  0.94921400  1
  Ag  Ag7  1  0.37488000  0.47316400  0.44921400  1
  Ag  Ag8  1  0.34657300  0.88990800  0.42903200  1
  Ag  Ag9  1  0.36515500  0.47321800  0.07459600  1
  Ag  Ag10  1  0.84657300  0.11009200  0.07096800  1
  Ag  Ag11  1  0.15342700  0.88990800  0.92903200  1
  Sb  Sb0  1  0.40966100  0.16924400  0.74053000  1
  Sb  Sb1  1  0.09033900  0.16924400  0.24053000  1
  Sb  Sb2  1  0.85335300  0.49796100  0.75529100  1
  Sb  Sb3  1  0.14664700  0.50203900  0.24470900  1
  Sb  Sb4  1  0.59033900  0.83075600  0.25947000  1
  Sb  Sb5  1  0.90966100  0.83075600  0.75947000  1
  Sb  Sb6  1  0.64664700  0.49796100  0.25529100  1
  Sb  Sb7  1  0.35335300  0.50203900  0.74470900  1
  S  S0  1  0.24883800  0.27083000  0.09903200  1
  S  S1  1  0.16312600  0.58394900  0.71194900  1
  S  S2  1  0.53176900  0.99448400  0.32185700  1
  S  S3  1  0.46823100  0.00551600  0.67814300  1
  S  S4  1  0.03176900  0.00551600  0.17814300  1
  S  S5  1  0.41789600  0.64512600  0.52596200  1
  S  S6  1  0.57420000  0.37112200  0.15710200  1
  S  S7  1  0.91789600  0.35487400  0.97403800  1
  S  S8  1  0.83687400  0.41605100  0.28805100  1
  S  S9  1  0.32121700  0.00413300  0.94334100  1
  S  S10  1  0.08210400  0.64512600  0.02596200  1
  S  S11  1  0.75116200  0.72917000  0.90096800  1
  S  S12  1  0.58210400  0.35487400  0.47403800  1
  S  S13  1  0.96823100  0.99448400  0.82185700  1
  S  S14  1  0.25116200  0.27083000  0.59903200  1
  S  S15  1  0.74883800  0.72917000  0.40096800  1
  S  S16  1  0.07420000  0.62887800  0.34289800  1
  S  S17  1  0.42580000  0.62887800  0.84289800  1
  S  S18  1  0.66312600  0.41605100  0.78805100  1
  S  S19  1  0.67878300  0.99586700  0.05665900  1
  S  S20  1  0.33687400  0.58394900  0.21194900  1
  S  S21  1  0.82121700  0.99586700  0.55665900  1
  S  S22  1  0.92580000  0.37112200  0.65710200  1
  S  S23  1  0.17878300  0.00413300  0.44334100  1
loop_
_geom_bond_atom_site_label_1
_geom_bond_atom_site_label_2
_geom_bond_distance
_geom_bond_site_symmetry_2
Ag0 S21 2.479423 1_545
Ag0 S3 2.580971 1_555
Ag0 S12 2.608575 1_555
Ag0 Tl9 3.013486 1_555
Ag1 S18 2.591137 1_555
Ag1 S6 2.599111 1_556
Ag1 S11 2.615845 1_555
Ag1 S17 2.769203 1_555
Ag2 S1 2.591137 1_555
Ag2 S16 2.599111 1_555
Ag2 S14 2.615845 1_555
Ag2 S22 2.769203 1_455
Ag3 S8 2.591137 1_555
Ag3 S22 2.599111 1_555
Ag3 S15 2.615845 1_555
Ag3 S16 2.769203 1_655
Ag4 S8 2.568817 1_555
Ag4 S11 2.610964 1_554
Ag4 S7 2.635339 1_554
Ag4 S10 2.806003 1_655
Ag5 S18 2.568817 1_555
Ag5 S15 2.610964 1_555
Ag5 S12 2.635339 1_555
Ag5 S5 2.806003 1_555
Ag6 S1 2.568817 1_555
Ag6 S0 2.610964 1_556
Ag6 S10 2.635339 1_556
Ag6 S7 2.806003 1_455
Ag7 S20 2.568817 1_555
Ag7 S14 2.610964 1_555
Ag7 S5 2.635339 1_555
Ag7 S12 2.806003 1_555
Ag8 S23 2.479423 1_565
Ag8 S2 2.580971 1_555
Ag8 S5 2.608575 1_555
Ag8 Tl10 3.013486 1_555
Ag9 S20 2.591137 1_555
Ag9 S17 2.599111 1_554
Ag9 S0 2.615845 1_555
Ag9 S6 2.769203 1_555
Ag10 S19 2.479423 1_545
Ag10 S4 2.580971 1_655
Ag10 S7 2.608575 1_554
Ag10 Tl11 3.013486 1_555
Ag11 S9 2.479423 1_565
Ag11 S13 2.580971 1_455
Ag11 S10 2.608575 1_556
Ag11 Tl1 3.013486 1_555
S0 Sb1 2.462129 1_555
S0 Tl8 3.262674 1_555
S1 Sb7 2.451984 1_555
S1 Tl1 3.206278 1_555
S2 Sb4 2.468124 1_555
S2 Tl8 3.145068 1_565
S2 Tl11 3.189264 1_565
S3 Sb0 2.468124 1_555
S3 Tl2 3.145068 1_545
S3 Tl1 3.189264 1_545
S4 Sb1 2.468124 1_555
S4 Tl6 3.145068 1_445
S4 Tl10 3.189264 1_545
S5 Sb7 2.474173 1_555
S6 Sb6 2.471693 1_555
S6 Tl11 3.027870 1_555
S6 Tl8 3.241706 1_555
S7 Sb2 2.474173 1_555
S8 Sb6 2.451984 1_555
S8 Tl11 3.206278 1_555
S9 Sb0 2.499979 1_555
S9 Tl10 3.151324 1_546
S9 Tl2 3.157736 1_545
S10 Sb3 2.474173 1_555
S11 Sb5 2.462129 1_555
S11 Tl2 3.262674 1_555
S12 Sb6 2.474173 1_555
S13 Sb5 2.468124 1_555
S13 Tl3 3.145068 1_665
S13 Tl9 3.189264 1_565
S14 Sb0 2.462129 1_555
S14 Tl3 3.262674 1_555
S15 Sb4 2.462129 1_555
S15 Tl6 3.262674 1_555
S16 Sb3 2.471693 1_555
S16 Tl10 3.027870 1_555
S16 Tl6 3.241706 1_455
S17 Sb7 2.471693 1_555
S17 Tl1 3.027870 1_555
S17 Tl2 3.241706 1_555
S18 Sb2 2.451984 1_555
S18 Tl9 3.206278 1_555
S19 Sb4 2.499979 1_555
S19 Tl9 3.151324 1_564
S19 Tl8 3.157736 1_565
S20 Sb3 2.451984 1_555
S20 Tl10 3.206278 1_555
S21 Sb5 2.499979 1_555
S21 Tl11 3.151324 1_565
S21 Tl3 3.157736 1_665
S22 Sb2 2.471693 1_555
S22 Tl9 3.027870 1_555
S22 Tl3 3.241706 1_655
S23 Sb1 2.499979 1_555
S23 Tl1 3.151324 1_545
S23 Tl6 3.157736 1_445
