# generated using pymatgen
data_Hg7(Sb2Br3)2
_symmetry_space_group_name_H-M   'P 1'
_cell_length_a   13.27304700
_cell_length_b   13.30817000
_cell_length_c   26.56652855
_cell_angle_alpha   89.42591389
_cell_angle_beta   90.00000000
_cell_angle_gamma   90.00000000
_symmetry_Int_Tables_number   1
_chemical_formula_structural   Hg7(Sb2Br3)2
_chemical_formula_sum   'Hg56 Sb32 Br48'
_cell_volume   4692.47513877
_cell_formula_units_Z   8
loop_
 _symmetry_equiv_pos_site_id
 _symmetry_equiv_pos_as_xyz
  1  'x, y, z'
loop_
 _atom_site_type_symbol
 _atom_site_label
 _atom_site_symmetry_multiplicity
 _atom_site_fract_x
 _atom_site_fract_y
 _atom_site_fract_z
 _atom_site_occupancy
  Hg  Hg0  1  0.99777300  0.99665400  0.74948600  1
  Hg  Hg1  1  0.00000000  0.00000000  0.00000000  1
  Hg  Hg2  1  0.00222700  0.00334600  0.25051400  1
  Hg  Hg3  1  0.00000000  0.50000000  0.50000000  1
  Hg  Hg4  1  0.04307800  0.33549600  0.86833200  1
  Hg  Hg5  1  0.04080200  0.31941400  0.36110300  1
  Hg  Hg6  1  0.04147700  0.17941000  0.11172000  1
  Hg  Hg7  1  0.04140300  0.18157900  0.61178000  1
  Hg  Hg8  1  0.17785500  0.71915500  0.77277100  1
  Hg  Hg9  1  0.17915000  0.72810600  0.27035400  1
  Hg  Hg10  1  0.16892800  0.76369900  0.02026400  1
  Hg  Hg11  1  0.18055000  0.77450600  0.52106200  1
  Hg  Hg12  1  0.22102200  0.46312400  0.15762100  1
  Hg  Hg13  1  0.22612900  0.45607600  0.66024400  1
  Hg  Hg14  1  0.23390800  0.04486900  0.91826100  1
  Hg  Hg15  1  0.22343700  0.04018100  0.40851900  1
  Hg  Hg16  1  0.27897800  0.96312400  0.15762100  1
  Hg  Hg17  1  0.26609200  0.54486900  0.91826100  1
  Hg  Hg18  1  0.27387100  0.95607600  0.66024400  1
  Hg  Hg19  1  0.27656300  0.54018100  0.40851900  1
  Hg  Hg20  1  0.33107200  0.26369900  0.02026400  1
  Hg  Hg21  1  0.31945000  0.27450600  0.52106200  1
  Hg  Hg22  1  0.32214500  0.21915500  0.77277100  1
  Hg  Hg23  1  0.32085000  0.22810600  0.27035400  1
  Hg  Hg24  1  0.45852300  0.67941000  0.11172000  1
  Hg  Hg25  1  0.45859700  0.68157900  0.61178000  1
  Hg  Hg26  1  0.45919800  0.81941400  0.36110300  1
  Hg  Hg27  1  0.45692200  0.83549600  0.86833200  1
  Hg  Hg28  1  0.50000000  0.50000000  0.00000000  1
  Hg  Hg29  1  0.50222700  0.49665400  0.74948600  1
  Hg  Hg30  1  0.50000000  0.00000000  0.50000000  1
  Hg  Hg31  1  0.49777300  0.50334600  0.25051400  1
  Hg  Hg32  1  0.54080200  0.18058600  0.63889700  1
  Hg  Hg33  1  0.54307800  0.16450400  0.13166800  1
  Hg  Hg34  1  0.54147700  0.32059000  0.88828000  1
  Hg  Hg35  1  0.54140300  0.31842100  0.38822000  1
  Hg  Hg36  1  0.67785500  0.78084500  0.22722900  1
  Hg  Hg37  1  0.67915000  0.77189400  0.72964600  1
  Hg  Hg38  1  0.66892800  0.73630100  0.97973600  1
  Hg  Hg39  1  0.68055000  0.72549400  0.47893800  1
  Hg  Hg40  1  0.73390800  0.45513100  0.08173900  1
  Hg  Hg41  1  0.72102200  0.03687600  0.84237900  1
  Hg  Hg42  1  0.72343700  0.45981900  0.59148100  1
  Hg  Hg43  1  0.72612900  0.04392400  0.33975600  1
  Hg  Hg44  1  0.76609200  0.95513100  0.08173900  1
  Hg  Hg45  1  0.77656300  0.95981900  0.59148100  1
  Hg  Hg46  1  0.77897800  0.53687600  0.84237900  1
  Hg  Hg47  1  0.77387100  0.54392400  0.33975600  1
  Hg  Hg48  1  0.83107200  0.23630100  0.97973600  1
  Hg  Hg49  1  0.81945000  0.22549400  0.47893800  1
  Hg  Hg50  1  0.82214500  0.28084500  0.22722900  1
  Hg  Hg51  1  0.82085000  0.27189400  0.72964600  1
  Hg  Hg52  1  0.95852300  0.82059000  0.88828000  1
  Hg  Hg53  1  0.95692200  0.66450400  0.13166800  1
  Hg  Hg54  1  0.95919800  0.68058600  0.63889700  1
  Hg  Hg55  1  0.95859700  0.81842100  0.38822000  1
  Sb  Sb0  1  0.15013800  0.65591700  0.17418500  1
  Sb  Sb1  1  0.15026100  0.64636000  0.67615200  1
  Sb  Sb2  1  0.15245200  0.85065700  0.92478500  1
  Sb  Sb3  1  0.15059400  0.84861000  0.42484400  1
  Sb  Sb4  1  0.22372500  0.22551300  0.86454300  1
  Sb  Sb5  1  0.22693100  0.22740600  0.36320400  1
  Sb  Sb6  1  0.22654900  0.27671400  0.11158400  1
  Sb  Sb7  1  0.22838000  0.27107100  0.61436500  1
  Sb  Sb8  1  0.27345100  0.77671400  0.11158400  1
  Sb  Sb9  1  0.27162000  0.77107100  0.61436500  1
  Sb  Sb10  1  0.27627500  0.72551300  0.86454300  1
  Sb  Sb11  1  0.27306900  0.72740600  0.36320400  1
  Sb  Sb12  1  0.34754800  0.35065700  0.92478500  1
  Sb  Sb13  1  0.34986200  0.15591700  0.17418500  1
  Sb  Sb14  1  0.34940600  0.34861000  0.42484400  1
  Sb  Sb15  1  0.34973900  0.14636000  0.67615200  1
  Sb  Sb16  1  0.65245200  0.64934300  0.07521500  1
  Sb  Sb17  1  0.65013800  0.84408300  0.82581500  1
  Sb  Sb18  1  0.65059400  0.65139000  0.57515600  1
  Sb  Sb19  1  0.65026100  0.85364000  0.32384800  1
  Sb  Sb20  1  0.72372500  0.27448700  0.13545700  1
  Sb  Sb21  1  0.72693100  0.27259400  0.63679600  1
  Sb  Sb22  1  0.72654900  0.22328600  0.88841600  1
  Sb  Sb23  1  0.72838000  0.22892900  0.38563500  1
  Sb  Sb24  1  0.77345100  0.72328600  0.88841600  1
  Sb  Sb25  1  0.77162000  0.72892900  0.38563500  1
  Sb  Sb26  1  0.77627500  0.77448700  0.13545700  1
  Sb  Sb27  1  0.77306900  0.77259400  0.63679600  1
  Sb  Sb28  1  0.84754800  0.14934300  0.07521500  1
  Sb  Sb29  1  0.84940600  0.15139000  0.57515600  1
  Sb  Sb30  1  0.84986200  0.34408300  0.82581500  1
  Sb  Sb31  1  0.84973900  0.35364000  0.32384800  1
  Br  Br0  1  0.04698800  0.96182300  0.14749500  1
  Br  Br1  1  0.04498000  0.95911800  0.64451300  1
  Br  Br2  1  0.05756300  0.54516000  0.87798700  1
  Br  Br3  1  0.04556900  0.54122300  0.39583400  1
  Br  Br4  1  0.04085100  0.27698300  0.97248300  1
  Br  Br5  1  0.04111700  0.29081200  0.47677100  1
  Br  Br6  1  0.04233700  0.21213000  0.22776000  1
  Br  Br7  1  0.03901600  0.20685600  0.72615700  1
  Br  Br8  1  0.21048500  0.95617500  0.27124200  1
  Br  Br9  1  0.22612200  0.55387800  0.02269600  1
  Br  Br10  1  0.20544500  0.95036700  0.76892300  1
  Br  Br11  1  0.20833600  0.54547100  0.51994300  1
  Br  Br12  1  0.27387800  0.05387800  0.02269600  1
  Br  Br13  1  0.29166400  0.04547100  0.51994300  1
  Br  Br14  1  0.29455500  0.45036700  0.76892300  1
  Br  Br15  1  0.28951500  0.45617500  0.27124200  1
  Br  Br16  1  0.45914900  0.77698300  0.97248300  1
  Br  Br17  1  0.45766300  0.71213000  0.22776000  1
  Br  Br18  1  0.45888300  0.79081200  0.47677100  1
  Br  Br19  1  0.46098400  0.70685600  0.72615700  1
  Br  Br20  1  0.44243700  0.04516000  0.87798700  1
  Br  Br21  1  0.45443100  0.04122300  0.39583400  1
  Br  Br22  1  0.45301200  0.46182300  0.14749500  1
  Br  Br23  1  0.45502000  0.45911800  0.64451300  1
  Br  Br24  1  0.54698800  0.53817700  0.85250500  1
  Br  Br25  1  0.54498000  0.54088200  0.35548700  1
  Br  Br26  1  0.55756300  0.95484000  0.12201300  1
  Br  Br27  1  0.54556900  0.95877700  0.60416600  1
  Br  Br28  1  0.54085100  0.22301700  0.02751700  1
  Br  Br29  1  0.54233700  0.28787000  0.77224000  1
  Br  Br30  1  0.54111700  0.20918800  0.52322900  1
  Br  Br31  1  0.53901600  0.29314400  0.27384300  1
  Br  Br32  1  0.70544500  0.54963300  0.23107700  1
  Br  Br33  1  0.71048500  0.54382500  0.72875800  1
  Br  Br34  1  0.72612200  0.94612200  0.97730400  1
  Br  Br35  1  0.70833600  0.95452900  0.48005700  1
  Br  Br36  1  0.79455500  0.04963300  0.23107700  1
  Br  Br37  1  0.77387800  0.44612200  0.97730400  1
  Br  Br38  1  0.78951500  0.04382500  0.72875800  1
  Br  Br39  1  0.79166400  0.45452900  0.48005700  1
  Br  Br40  1  0.95914900  0.72301700  0.02751700  1
  Br  Br41  1  0.96098400  0.79314400  0.27384300  1
  Br  Br42  1  0.95766300  0.78787000  0.77224000  1
  Br  Br43  1  0.95888300  0.70918800  0.52322900  1
  Br  Br44  1  0.94243700  0.45484000  0.12201300  1
  Br  Br45  1  0.95301200  0.03817700  0.85250500  1
  Br  Br46  1  0.95443100  0.45877700  0.60416600  1
  Br  Br47  1  0.95502000  0.04088200  0.35548700  1
loop_
_geom_bond_atom_site_label_1
_geom_bond_atom_site_label_2
_geom_bond_distance
_geom_bond_site_symmetry_2
Hg4 Sb30 2.804158 1_455
Hg4 Sb4 2.811505 1_555
Hg5 Sb5 2.757609 1_555
Hg5 Sb31 2.758486 1_455
Hg6 Sb6 2.776873 1_555
Hg6 Sb28 2.781015 1_455
Hg7 Sb7 2.753885 1_555
Hg7 Sb29 2.758657 1_455
Hg8 Sb10 2.768023 1_555
Hg8 Sb1 2.776888 1_555
Hg9 Sb11 2.763736 1_555
Hg9 Sb0 2.765468 1_555
Hg10 Sb2 2.786090 1_554
Hg10 Sb8 2.801584 1_555
Hg11 Sb9 2.757734 1_555
Hg11 Sb3 2.759382 1_555
Hg12 Sb0 2.772073 1_555
Hg12 Sb6 2.777817 1_555
Hg13 Sb7 2.758340 1_555
Hg13 Sb1 2.761667 1_555
Hg14 Sb4 2.786673 1_555
Hg14 Sb2 2.805384 1_545
Hg15 Sb5 2.756720 1_555
Hg15 Sb3 2.756896 1_545
Hg16 Sb13 2.772073 1_565
Hg16 Sb8 2.777817 1_555
Hg17 Sb10 2.786673 1_555
Hg17 Sb12 2.805384 1_555
Hg18 Sb9 2.758340 1_555
Hg18 Sb15 2.761667 1_565
Hg19 Sb11 2.756720 1_555
Hg19 Sb14 2.756896 1_555
Hg20 Sb12 2.786090 1_554
Hg20 Sb6 2.801584 1_555
Hg21 Sb7 2.757734 1_555
Hg21 Sb14 2.759382 1_555
Hg22 Sb4 2.768023 1_555
Hg22 Sb15 2.776888 1_555
Hg23 Sb5 2.763736 1_555
Hg23 Sb13 2.765468 1_555
Hg24 Sb8 2.776873 1_555
Hg24 Sb16 2.781015 1_555
Hg25 Sb9 2.753885 1_555
Hg25 Sb18 2.758657 1_555
Hg26 Sb11 2.757609 1_555
Hg26 Sb19 2.758486 1_555
Hg27 Sb17 2.804158 1_555
Hg27 Sb10 2.811505 1_555
Hg32 Sb21 2.757609 1_555
Hg32 Sb15 2.758486 1_555
Hg33 Sb13 2.804158 1_555
Hg33 Sb20 2.811505 1_555
Hg34 Sb22 2.776873 1_555
Hg34 Sb12 2.781015 1_555
Hg35 Sb23 2.753885 1_555
Hg35 Sb14 2.758657 1_555
Hg36 Sb26 2.768023 1_555
Hg36 Sb19 2.776888 1_555
Hg37 Sb27 2.763736 1_555
Hg37 Sb17 2.765468 1_555
Hg38 Sb16 2.786090 1_556
Hg38 Sb24 2.801584 1_555
Hg39 Sb25 2.757734 1_555
Hg39 Sb18 2.759382 1_555
Hg40 Sb20 2.786673 1_555
Hg40 Sb16 2.805384 1_555
Hg41 Sb17 2.772073 1_545
Hg41 Sb22 2.777817 1_555
Hg42 Sb21 2.756720 1_555
Hg42 Sb18 2.756896 1_555
Hg43 Sb23 2.758340 1_555
Hg43 Sb19 2.761667 1_545
Hg44 Sb26 2.786673 1_555
Hg44 Sb28 2.805384 1_565
Hg45 Sb27 2.756720 1_555
Hg45 Sb29 2.756896 1_565
Hg46 Sb30 2.772073 1_555
Hg46 Sb24 2.777817 1_555
Hg47 Sb25 2.758340 1_555
Hg47 Sb31 2.761667 1_555
Hg48 Sb28 2.786090 1_556
Hg48 Sb22 2.801584 1_555
Hg49 Sb23 2.757734 1_555
Hg49 Sb29 2.759382 1_555
Hg50 Sb20 2.768023 1_555
Hg50 Sb31 2.776888 1_555
Hg51 Sb21 2.763736 1_555
Hg51 Sb30 2.765468 1_555
Hg52 Sb24 2.776873 1_555
Hg52 Sb2 2.781015 1_655
Hg53 Sb0 2.804158 1_655
Hg53 Sb26 2.811505 1_555
Hg54 Sb27 2.757609 1_555
Hg54 Sb1 2.758486 1_655
Hg55 Sb25 2.753885 1_555
Hg55 Sb3 2.758657 1_655
Sb0 Sb8 2.824101 1_555
Sb1 Sb9 2.826487 1_555
Sb10 Sb2 2.844215 1_555
Sb11 Sb3 2.824703 1_555
Sb12 Sb4 2.844215 1_555
Sb13 Sb6 2.824101 1_555
Sb14 Sb5 2.824703 1_555
Sb15 Sb7 2.826487 1_555
Sb16 Sb26 2.844215 1_555
Sb17 Sb24 2.824101 1_555
Sb18 Sb27 2.824703 1_555
Sb19 Sb25 2.826487 1_555
Sb20 Sb28 2.844215 1_555
Sb21 Sb29 2.824703 1_555
Sb22 Sb30 2.824101 1_555
Sb23 Sb31 2.826487 1_555
Br0 Hg2 2.859900 1_565
Br0 Hg6 3.039488 1_565
Br0 Hg16 3.091006 1_555
Br1 Hg0 2.906421 1_455
Br1 Hg18 3.066903 1_555
Br1 Hg7 3.077616 1_565
Br2 Hg4 2.811149 1_555
Br2 Hg17 2.967407 1_555
Br3 Hg3 2.880014 1_555
Br3 Hg19 3.084475 1_555
Br3 Hg5 3.102172 1_555
Br4 Hg48 2.842723 1_455
Br4 Hg4 2.867050 1_555
Br5 Hg3 2.909166 1_555
Br5 Hg49 3.068298 1_455
Br5 Hg5 3.092598 1_555
Br6 Hg2 2.887115 1_555
Br6 Hg50 3.062335 1_455
Br6 Hg6 3.117719 1_555
Br7 Hg0 2.911101 1_445
Br7 Hg51 3.024003 1_455
Br7 Hg7 3.060675 1_555
Br8 Hg2 2.886398 1_565
Br8 Hg9 3.063870 1_555
Br8 Hg16 3.152916 1_555
Br9 Hg17 2.828464 1_554
Br9 Hg10 2.893783 1_555
Br10 Hg0 2.870136 1_455
Br10 Hg18 3.026930 1_555
Br10 Hg8 3.099393 1_555
Br11 Hg3 2.880963 1_555
Br11 Hg11 3.070707 1_555
Br11 Hg19 3.097045 1_555
Br12 Hg14 2.828464 1_554
Br12 Hg20 2.893783 1_555
Br13 Hg30 2.880963 1_555
Br13 Hg21 3.070707 1_555
Br13 Hg15 3.097045 1_555
Br14 Hg29 2.870136 1_555
Br14 Hg13 3.026930 1_555
Br14 Hg22 3.099393 1_555
Br15 Hg31 2.886398 1_555
Br15 Hg23 3.063870 1_555
Br15 Hg12 3.152916 1_555
Br16 Hg38 2.842723 1_555
Br16 Hg27 2.867050 1_555
Br17 Hg31 2.887115 1_555
Br17 Hg36 3.062335 1_555
Br17 Hg24 3.117719 1_555
Br18 Hg30 2.909166 1_565
Br18 Hg39 3.068298 1_555
Br18 Hg26 3.092598 1_555
Br19 Hg29 2.911101 1_555
Br19 Hg37 3.024003 1_555
Br19 Hg25 3.060675 1_555
Br20 Hg27 2.811149 1_545
Br20 Hg14 2.967407 1_555
Br21 Hg30 2.880014 1_555
Br21 Hg15 3.084475 1_555
Br21 Hg26 3.102172 1_545
Br22 Hg31 2.859900 1_555
Br22 Hg24 3.039488 1_555
Br22 Hg12 3.091006 1_555
Br23 Hg29 2.906421 1_555
Br23 Hg13 3.066903 1_555
Br23 Hg25 3.077616 1_555
Br24 Hg29 2.859900 1_555
Br24 Hg34 3.039488 1_555
Br24 Hg46 3.091006 1_555
Br25 Hg31 2.906421 1_555
Br25 Hg47 3.066903 1_555
Br25 Hg35 3.077616 1_555
Br26 Hg33 2.811149 1_565
Br26 Hg44 2.967407 1_555
Br27 Hg30 2.880014 1_565
Br27 Hg45 3.084475 1_555
Br27 Hg32 3.102172 1_565
Br28 Hg20 2.842723 1_555
Br28 Hg33 2.867050 1_555
Br29 Hg29 2.887115 1_555
Br29 Hg22 3.062335 1_555
Br29 Hg34 3.117719 1_555
Br30 Hg30 2.909166 1_555
Br30 Hg21 3.068298 1_555
Br30 Hg32 3.092598 1_555
Br31 Hg31 2.911101 1_555
Br31 Hg23 3.024003 1_555
Br31 Hg35 3.060675 1_555
Br32 Hg31 2.870136 1_555
Br32 Hg47 3.026930 1_555
Br32 Hg36 3.099393 1_555
Br33 Hg29 2.886398 1_555
Br33 Hg37 3.063870 1_555
Br33 Hg46 3.152916 1_555
Br34 Hg44 2.828464 1_556
Br34 Hg38 2.893783 1_555
Br35 Hg30 2.880963 1_565
Br35 Hg39 3.070707 1_555
Br35 Hg45 3.097045 1_555
Br36 Hg2 2.870136 1_655
Br36 Hg43 3.026930 1_555
Br36 Hg50 3.099393 1_555
Br37 Hg40 2.828464 1_556
Br37 Hg48 2.893783 1_555
Br38 Hg0 2.886398 1_545
Br38 Hg51 3.063870 1_555
Br38 Hg41 3.152916 1_555
Br39 Hg3 2.880963 1_655
Br39 Hg49 3.070707 1_555
Br39 Hg42 3.097045 1_555
Br40 Hg10 2.842723 1_655
Br40 Hg53 2.867050 1_555
Br41 Hg2 2.911101 1_665
Br41 Hg9 3.024003 1_655
Br41 Hg55 3.060675 1_555
Br42 Hg0 2.887115 1_555
Br42 Hg8 3.062335 1_655
Br42 Hg52 3.117719 1_555
Br43 Hg3 2.909166 1_655
Br43 Hg11 3.068298 1_655
Br43 Hg54 3.092598 1_555
Br44 Hg53 2.811149 1_555
Br44 Hg40 2.967407 1_555
Br45 Hg0 2.859900 1_545
Br45 Hg52 3.039488 1_545
Br45 Hg41 3.091006 1_555
Br46 Hg3 2.880014 1_655
Br46 Hg42 3.084475 1_555
Br46 Hg54 3.102172 1_555
Br47 Hg2 2.906421 1_655
Br47 Hg43 3.066903 1_555
Br47 Hg55 3.077616 1_545
