# generated using pymatgen
data_Li2U5MoO19
_symmetry_space_group_name_H-M   'P 1'
_cell_length_a   20.25926200
_cell_length_b   8.00843200
_cell_length_c   10.22175523
_cell_angle_alpha   88.60024527
_cell_angle_beta   90.00000000
_cell_angle_gamma   90.00000000
_symmetry_Int_Tables_number   1
_chemical_formula_structural   Li2U5MoO19
_chemical_formula_sum   'Li8 U20 Mo4 O76'
_cell_volume   1657.93299666
_cell_formula_units_Z   4
loop_
 _symmetry_equiv_pos_site_id
 _symmetry_equiv_pos_as_xyz
  1  'x, y, z'
loop_
 _atom_site_type_symbol
 _atom_site_label
 _atom_site_symmetry_multiplicity
 _atom_site_fract_x
 _atom_site_fract_y
 _atom_site_fract_z
 _atom_site_occupancy
  Li  Li0  1  0.11844500  0.25619900  0.83197300  1
  Li  Li1  1  0.60679200  0.29349100  0.66172700  1
  Li  Li2  1  0.38155500  0.25619900  0.33197300  1
  Li  Li3  1  0.39320800  0.70650900  0.33827300  1
  Li  Li4  1  0.88155500  0.74380100  0.16802700  1
  Li  Li5  1  0.61844500  0.74380100  0.66802700  1
  Li  Li6  1  0.10679200  0.70650900  0.83827300  1
  Li  Li7  1  0.89320800  0.29349100  0.16172700  1
  U  U0  1  0.74662700  0.27905400  0.40744100  1
  U  U1  1  0.35979800  0.97306800  0.81503100  1
  U  U2  1  0.14020200  0.97306800  0.31503100  1
  U  U3  1  0.75337300  0.27905400  0.90744100  1
  U  U4  1  0.63603300  0.51809100  0.18101100  1
  U  U5  1  0.23580200  0.22906600  0.56059300  1
  U  U6  1  0.86396700  0.51809100  0.68101100  1
  U  U7  1  0.24662700  0.72094600  0.09255900  1
  U  U8  1  0.50000000  0.50000000  0.50000000  1
  U  U9  1  0.64020200  0.02693200  0.18496900  1
  U  U10  1  0.13603300  0.48190900  0.31898900  1
  U  U11  1  0.36396700  0.48190900  0.81898900  1
  U  U12  1  0.00000000  0.00000000  0.00000000  1
  U  U13  1  0.00000000  0.50000000  0.00000000  1
  U  U14  1  0.85979800  0.02693200  0.68496900  1
  U  U15  1  0.73580200  0.77093400  0.93940700  1
  U  U16  1  0.25337300  0.72094600  0.59255900  1
  U  U17  1  0.50000000  0.00000000  0.50000000  1
  U  U18  1  0.76419800  0.77093400  0.43940700  1
  U  U19  1  0.26419800  0.22906600  0.06059300  1
  Mo  Mo0  1  0.01206900  0.79382600  0.53207700  1
  Mo  Mo1  1  0.98793100  0.20617400  0.46792300  1
  Mo  Mo2  1  0.48793100  0.79382600  0.03207700  1
  Mo  Mo3  1  0.51206900  0.20617400  0.96792300  1
  O  O0  1  0.56857300  0.54632200  0.61888600  1
  O  O1  1  0.80043800  0.06131200  0.53265400  1
  O  O2  1  0.54947500  0.63214900  0.04281000  1
  O  O3  1  0.33736800  0.22897900  0.16458000  1
  O  O4  1  0.96924600  0.25250800  0.02428800  1
  O  O5  1  0.19715200  0.50886700  0.46909800  1
  O  O6  1  0.21812200  0.00962400  0.17120400  1
  O  O7  1  0.83691000  0.77270600  0.63283000  1
  O  O8  1  0.05505600  0.02763700  0.45951000  1
  O  O9  1  0.93567400  0.93203100  0.11801300  1
  O  O10  1  0.55060500  0.21905200  0.81735800  1
  O  O11  1  0.43142700  0.45367800  0.38111400  1
  O  O12  1  0.55505600  0.97236300  0.04049000  1
  O  O13  1  0.57365900  0.54298400  0.31816600  1
  O  O14  1  0.46924600  0.74749200  0.47571200  1
  O  O15  1  0.66263200  0.77102100  0.83542000  1
  O  O16  1  0.78491700  0.55434100  0.83004100  1
  O  O17  1  0.28187800  0.00962400  0.67120400  1
  O  O18  1  0.69956200  0.06131200  0.03265400  1
  O  O19  1  0.94494400  0.97236300  0.54049000  1
  O  O20  1  0.07365900  0.45701600  0.18183400  1
  O  O21  1  0.92937800  0.28184400  0.59405300  1
  O  O22  1  0.28491700  0.44565900  0.66995900  1
  O  O23  1  0.53075400  0.25250800  0.52428800  1
  O  O24  1  0.80490600  0.76595900  0.05306900  1
  O  O25  1  0.06432600  0.06796900  0.88198700  1
  O  O26  1  0.68443900  0.28633100  0.79369600  1
  O  O27  1  0.31556100  0.71366900  0.20630400  1
  O  O28  1  0.45052500  0.36785100  0.95719000  1
  O  O29  1  0.57062200  0.28184400  0.09405300  1
  O  O30  1  0.17918300  0.72771300  0.97507100  1
  O  O31  1  0.71508300  0.55434100  0.33004100  1
  O  O32  1  0.04947500  0.36785100  0.45719000  1
  O  O33  1  0.82081700  0.27228700  0.02492900  1
  O  O34  1  0.44939500  0.78094800  0.18264200  1
  O  O35  1  0.19509400  0.23404100  0.94693100  1
  O  O36  1  0.30043800  0.93868800  0.96734600  1
  O  O37  1  0.57729500  0.98446500  0.32072000  1
  O  O38  1  0.66309000  0.77270600  0.13283000  1
  O  O39  1  0.30490600  0.23404100  0.44693100  1
  O  O40  1  0.78187800  0.99037600  0.82879600  1
  O  O41  1  0.30284800  0.50886700  0.96909800  1
  O  O42  1  0.05060500  0.78094800  0.68264200  1
  O  O43  1  0.06857300  0.45367800  0.88111400  1
  O  O44  1  0.92634100  0.54298400  0.81816600  1
  O  O45  1  0.92270500  0.98446500  0.82072000  1
  O  O46  1  0.07729500  0.01553500  0.17928000  1
  O  O47  1  0.33691000  0.22729400  0.86717000  1
  O  O48  1  0.56432600  0.93203100  0.61801300  1
  O  O49  1  0.42634100  0.45701600  0.68183400  1
  O  O50  1  0.94939500  0.21905200  0.31735800  1
  O  O51  1  0.95052500  0.63214900  0.54281000  1
  O  O52  1  0.66971300  0.27461500  0.24892100  1
  O  O53  1  0.67918300  0.27228700  0.52492900  1
  O  O54  1  0.16263200  0.22897900  0.66458000  1
  O  O55  1  0.07062200  0.71815600  0.40594700  1
  O  O56  1  0.16971300  0.72538500  0.25107900  1
  O  O57  1  0.69509400  0.76595900  0.55306900  1
  O  O58  1  0.69715200  0.49113300  0.03090200  1
  O  O59  1  0.18443900  0.71366900  0.70630400  1
  O  O60  1  0.80284800  0.49113300  0.53090200  1
  O  O61  1  0.83028700  0.27461500  0.74892100  1
  O  O62  1  0.81556100  0.28633100  0.29369600  1
  O  O63  1  0.44494400  0.02763700  0.95951000  1
  O  O64  1  0.42270500  0.01553500  0.67928000  1
  O  O65  1  0.43567400  0.06796900  0.38198700  1
  O  O66  1  0.33028700  0.72538500  0.75107900  1
  O  O67  1  0.71812200  0.99037600  0.32879600  1
  O  O68  1  0.19956200  0.93868800  0.46734600  1
  O  O69  1  0.83736800  0.77102100  0.33542000  1
  O  O70  1  0.93142700  0.54632200  0.11888600  1
  O  O71  1  0.16309000  0.22729400  0.36717000  1
  O  O72  1  0.42937800  0.71815600  0.90594700  1
  O  O73  1  0.32081700  0.72771300  0.47507100  1
  O  O74  1  0.21508300  0.44565900  0.16995900  1
  O  O75  1  0.03075400  0.74749200  0.97571200  1
loop_
_geom_bond_atom_site_label_1
_geom_bond_atom_site_label_2
_geom_bond_distance
_geom_bond_site_symmetry_2
Li0 O25 1.923060 1_555
Li0 O54 1.948027 1_555
Li0 O43 1.952717 1_555
Li0 O35 1.952805 1_555
Li1 O10 2.033595 1_555
Li1 O53 2.036321 1_555
Li1 O26 2.072134 1_555
Li1 O23 2.115883 1_555
Li1 O0 2.201750 1_555
Li2 O65 1.923060 1_555
Li2 O3 1.948027 1_555
Li2 O11 1.952717 1_555
Li2 O39 1.952805 1_555
Li3 O34 2.033595 1_555
Li3 O73 2.036321 1_555
Li3 O27 2.072134 1_555
Li3 O14 2.115883 1_555
Li3 O11 2.201750 1_555
Li4 O9 1.923060 1_555
Li4 O69 1.948027 1_555
Li4 O70 1.952717 1_555
Li4 O24 1.952805 1_555
Li5 O48 1.923060 1_555
Li5 O15 1.948027 1_555
Li5 O0 1.952717 1_555
Li5 O57 1.952805 1_555
Li6 O42 2.033595 1_555
Li6 O30 2.036321 1_555
Li6 O59 2.072134 1_555
Li6 O75 2.115883 1_555
Li6 O43 2.201750 1_555
Li7 O50 2.033595 1_555
Li7 O33 2.036321 1_555
Li7 O62 2.072134 1_555
Li7 O4 2.115883 1_555
Li7 O70 2.201750 1_555
Mo0 O42 1.726566 1_555
Mo0 O51 1.798930 1_455
Mo0 O55 1.864078 1_555
Mo0 O19 1.976631 1_455
Mo0 O8 2.178738 1_565
Mo1 O50 1.726566 1_555
Mo1 O32 1.798930 1_655
Mo1 O21 1.864078 1_555
Mo1 O8 1.976631 1_655
Mo1 O19 2.178738 1_545
Mo2 O34 1.726566 1_555
Mo2 O2 1.798930 1_555
Mo2 O72 1.864078 1_554
Mo2 O12 1.976631 1_555
Mo2 O63 2.178738 1_564
Mo3 O10 1.726566 1_555
Mo3 O28 1.798930 1_555
Mo3 O29 1.864078 1_556
Mo3 O63 1.976631 1_555
Mo3 O12 2.178738 1_546
O0 U8 1.888489 1_555
O1 U14 1.981188 1_555
O1 U0 2.399648 1_555
O1 U18 2.638872 1_545
O2 U4 2.417027 1_555
O3 U19 1.824063 1_555
O4 U13 2.086673 1_655
O4 U12 2.136264 1_655
O5 U10 1.987539 1_555
O5 U16 2.424721 1_555
O5 U5 2.531096 1_555
O6 U2 2.172106 1_545
O6 U19 2.267385 1_555
O6 U7 2.532828 1_545
O7 U6 2.156793 1_555
O7 U14 2.167293 1_565
O7 U18 2.465884 1_555
O8 U2 2.319298 1_545
O9 U12 1.848700 1_665
O11 U8 1.888489 1_555
O12 U9 2.319298 1_565
O13 U4 1.901504 1_555
O13 U8 2.401823 1_555
O14 U8 2.086673 1_555
O14 U17 2.136264 1_565
O15 U15 1.824063 1_555
O16 U6 2.234112 1_555
O16 U15 2.311556 1_555
O16 U3 2.410282 1_555
O17 U1 2.172106 1_545
O17 U5 2.267385 1_555
O17 U16 2.532828 1_545
O18 U9 1.981188 1_555
O18 U3 2.399648 1_554
O18 U15 2.638872 1_544
O19 U14 2.319298 1_565
O20 U10 1.901504 1_555
O20 U13 2.401823 1_555
O21 U6 2.491562 1_555
O21 U14 2.631641 1_555
O22 U11 2.234112 1_555
O22 U5 2.311556 1_555
O22 U16 2.410282 1_555
O23 U8 2.086673 1_555
O23 U17 2.136264 1_555
O24 U15 1.819108 1_554
O25 U12 1.848700 1_556
O26 U3 1.817210 1_555
O27 U7 1.817210 1_555
O28 U11 2.417027 1_555
O29 U4 2.491562 1_555
O29 U9 2.631641 1_555
O30 U7 1.819053 1_556
O31 U4 2.234112 1_555
O31 U18 2.311556 1_555
O31 U0 2.410282 1_555
O32 U10 2.417027 1_555
O33 U3 1.819053 1_554
O35 U19 1.819108 1_556
O36 U1 1.981188 1_555
O36 U7 2.399648 1_556
O36 U19 2.638872 1_566
O37 U9 1.908481 1_565
O37 U17 2.415998 1_565
O38 U4 2.156793 1_555
O38 U9 2.167293 1_565
O38 U15 2.465884 1_554
O39 U5 1.819108 1_555
O40 U14 2.172106 1_565
O40 U15 2.267385 1_555
O40 U3 2.532828 1_565
O41 U11 1.987539 1_555
O41 U7 2.424721 1_556
O41 U19 2.531096 1_556
O43 U13 1.888489 1_556
O44 U6 1.901504 1_555
O44 U13 2.401823 1_656
O45 U14 1.908481 1_565
O45 U12 2.415998 1_666
O46 U2 1.908481 1_545
O46 U12 2.415998 1_555
O47 U11 2.156793 1_555
O47 U1 2.167293 1_545
O47 U19 2.465884 1_556
O48 U17 1.848700 1_565
O49 U11 1.901504 1_555
O49 U8 2.401823 1_555
O51 U6 2.417027 1_555
O52 U4 2.164085 1_555
O52 U9 2.186917 1_555
O52 U0 2.248927 1_555
O53 U0 1.819053 1_555
O54 U5 1.824063 1_555
O55 U10 2.491562 1_555
O55 U2 2.631641 1_555
O56 U10 2.164085 1_555
O56 U2 2.186917 1_555
O56 U7 2.248927 1_555
O57 U18 1.819108 1_555
O58 U4 1.987539 1_555
O58 U3 2.424721 1_554
O58 U15 2.531096 1_554
O59 U16 1.817210 1_555
O60 U6 1.987539 1_555
O60 U0 2.424721 1_555
O60 U18 2.531096 1_555
O61 U6 2.164085 1_555
O61 U14 2.186917 1_555
O61 U3 2.248927 1_555
O62 U0 1.817210 1_555
O63 U1 2.319298 1_545
O64 U1 1.908481 1_545
O64 U17 2.415998 1_555
O65 U17 1.848700 1_555
O66 U11 2.164085 1_555
O66 U1 2.186917 1_555
O66 U16 2.248927 1_555
O67 U9 2.172106 1_565
O67 U18 2.267385 1_555
O67 U0 2.532828 1_565
O68 U2 1.981188 1_555
O68 U16 2.399648 1_555
O68 U5 2.638872 1_565
O69 U18 1.824063 1_555
O70 U13 1.888489 1_655
O71 U10 2.156793 1_555
O71 U2 2.167293 1_545
O71 U5 2.465884 1_555
O72 U11 2.491562 1_555
O72 U1 2.631641 1_555
O73 U16 1.819053 1_555
O74 U10 2.234112 1_555
O74 U19 2.311556 1_555
O74 U7 2.410282 1_555
O75 U13 2.086673 1_556
O75 U12 2.136264 1_566
