# generated using pymatgen
data_La3S3N
_symmetry_space_group_name_H-M   'P 1'
_cell_length_a   4.17128915
_cell_length_b   12.24028607
_cell_length_c   13.25564451
_cell_angle_alpha   90.00000000
_cell_angle_beta   90.00000000
_cell_angle_gamma   90.00000000
_symmetry_Int_Tables_number   1
_chemical_formula_structural   La3S3N
_chemical_formula_sum   'La12 S12 N4'
_cell_volume   676.80368142
_cell_formula_units_Z   4
loop_
 _symmetry_equiv_pos_site_id
 _symmetry_equiv_pos_as_xyz
  1  'x, y, z'
loop_
 _atom_site_type_symbol
 _atom_site_label
 _atom_site_symmetry_multiplicity
 _atom_site_fract_x
 _atom_site_fract_y
 _atom_site_fract_z
 _atom_site_occupancy
  La  La0  1  0.75000000  0.40489137  0.87439882  1
  La  La1  1  0.75000000  0.27114452  0.62990407  1
  La  La2  1  0.25000000  0.22885548  0.12990407  1
  La  La3  1  0.25000000  0.09510863  0.37439882  1
  La  La4  1  0.75000000  0.96613294  0.15282108  1
  La  La5  1  0.75000000  0.46613294  0.34717892  1
  La  La6  1  0.25000000  0.72885548  0.37009593  1
  La  La7  1  0.75000000  0.77114452  0.87009593  1
  La  La8  1  0.25000000  0.53386706  0.65282108  1
  La  La9  1  0.75000000  0.90489137  0.62560118  1
  La  La10  1  0.25000000  0.59510863  0.12560118  1
  La  La11  1  0.25000000  0.03386706  0.84717892  1
  S  S0  1  0.25000000  0.26572541  0.79493783  1
  S  S1  1  0.25000000  0.57166831  0.89290190  1
  S  S2  1  0.25000000  0.85546995  0.00159140  1
  S  S3  1  0.75000000  0.73427459  0.20506217  1
  S  S4  1  0.75000000  0.14453005  0.99840860  1
  S  S5  1  0.75000000  0.92833169  0.39290190  1
  S  S6  1  0.25000000  0.76572541  0.70506217  1
  S  S7  1  0.75000000  0.64453005  0.50159140  1
  S  S8  1  0.25000000  0.35546995  0.49840860  1
  S  S9  1  0.75000000  0.42833169  0.10709810  1
  S  S10  1  0.25000000  0.07166831  0.60709810  1
  S  S11  1  0.75000000  0.23427459  0.29493783  1
  N  N0  1  0.75000000  0.94506803  0.79803935  1
  N  N1  1  0.25000000  0.55493197  0.29803935  1
  N  N2  1  0.75000000  0.44506803  0.70196065  1
  N  N3  1  0.25000000  0.05493197  0.20196065  1
loop_
_geom_bond_atom_site_label_1
_geom_bond_atom_site_label_2
_geom_bond_distance
_geom_bond_site_symmetry_2
La0 N2 2.338082 1_555
La0 S0 2.891547 1_655
La0 S0 2.891547 1_555
La0 S1 2.928715 1_555
La0 S1 2.928715 1_655
La0 S9 3.097894 1_556
La0 S4 3.585873 1_555
La1 N2 2.333329 1_555
La1 S8 2.907496 1_655
La1 S8 2.907496 1_555
La1 S0 3.023249 1_655
La1 S0 3.023249 1_555
La1 S10 3.225359 1_555
La1 S10 3.225359 1_655
La2 N3 2.333329 1_555
La2 S4 2.907496 1_454
La2 S4 2.907496 1_554
La2 S11 3.023249 1_455
La2 S11 3.023249 1_555
La2 S9 3.225359 1_455
La2 S9 3.225359 1_555
La3 N3 2.338082 1_555
La3 S11 2.891547 1_455
La3 S11 2.891547 1_555
La3 S5 2.928715 1_445
La3 S5 2.928715 1_545
La3 S10 3.097894 1_555
La3 S8 3.585873 1_555
La4 N3 2.440412 1_665
La4 N3 2.440412 1_565
La4 S3 2.921277 1_555
La4 S4 2.992957 1_564
La4 S2 3.194263 1_555
La4 S2 3.194263 1_655
La4 S5 3.215886 1_555
La5 N1 2.440412 1_655
La5 N1 2.440412 1_555
La5 S11 2.921277 1_555
La5 S7 2.992957 1_555
La5 S8 3.194263 1_655
La5 S8 3.194263 1_555
La5 S9 3.215886 1_555
La6 N1 2.333329 1_555
La6 S7 2.907496 1_555
La6 S7 2.907496 1_455
La6 S3 3.023249 1_555
La6 S3 3.023249 1_455
La6 S5 3.225359 1_455
La6 S5 3.225359 1_555
La7 N0 2.333329 1_555
La7 S2 2.907496 1_556
La7 S2 2.907496 1_656
La7 S6 3.023249 1_655
La7 S6 3.023249 1_555
La7 S1 3.225359 1_555
La7 S1 3.225359 1_655
La8 N2 2.440412 1_455
La8 N2 2.440412 1_555
La8 S6 2.921277 1_555
La8 S8 2.992957 1_555
La8 S7 3.194263 1_555
La8 S7 3.194263 1_455
La8 S1 3.215886 1_555
La9 N0 2.338082 1_555
La9 S6 2.891547 1_655
La9 S6 2.891547 1_555
La9 S10 2.928715 1_665
La9 S10 2.928715 1_565
La9 S5 3.097894 1_555
La9 S7 3.585873 1_555
La10 N1 2.338082 1_555
La10 S3 2.891547 1_455
La10 S3 2.891547 1_555
La10 S9 2.928715 1_455
La10 S9 2.928715 1_555
La10 S1 3.097894 1_554
La10 S2 3.585873 1_555
La11 N0 2.440412 1_445
La11 N0 2.440412 1_545
La11 S0 2.921277 1_555
La11 S2 2.992957 1_546
La11 S4 3.194263 1_555
La11 S4 3.194263 1_455
La11 S10 3.215886 1_555
