# generated using pymatgen
data_Rb2Cr2O7
_symmetry_space_group_name_H-M   'P 1'
_cell_length_a   7.39097624
_cell_length_b   7.56618074
_cell_length_c   7.81844802
_cell_angle_alpha   109.79143614
_cell_angle_beta   91.26416340
_cell_angle_gamma   108.68153881
_symmetry_Int_Tables_number   1
_chemical_formula_structural   Rb2Cr2O7
_chemical_formula_sum   'Rb4 Cr4 O14'
_cell_volume   385.51777429
_cell_formula_units_Z   2
loop_
 _symmetry_equiv_pos_site_id
 _symmetry_equiv_pos_as_xyz
  1  'x, y, z'
loop_
 _atom_site_type_symbol
 _atom_site_label
 _atom_site_symmetry_multiplicity
 _atom_site_fract_x
 _atom_site_fract_y
 _atom_site_fract_z
 _atom_site_occupancy
  Rb  Rb0  1  0.38480165  0.99129422  0.74749745  1
  Rb  Rb1  1  0.61519835  0.00870578  0.25250255  1
  Rb  Rb2  1  0.18856850  0.41050937  0.25341359  1
  Rb  Rb3  1  0.81143150  0.58949063  0.74658641  1
  Cr  Cr0  1  0.29987749  0.47763957  0.75514244  1
  Cr  Cr1  1  0.91873956  0.12363192  0.77615926  1
  Cr  Cr2  1  0.08126044  0.87636808  0.22384074  1
  Cr  Cr3  1  0.70012251  0.52236043  0.24485756  1
  O  O0  1  0.23458939  0.84105760  0.34863582  1
  O  O1  1  0.81119264  0.43501319  0.35885747  1
  O  O2  1  0.17431588  0.91497171  0.04858346  1
  O  O3  1  0.82568412  0.08502829  0.95141654  1
  O  O4  1  0.02186690  0.06435865  0.34072760  1
  O  O5  1  0.60089816  0.66522297  0.38188127  1
  O  O6  1  0.53442793  0.33833305  0.08885032  1
  O  O7  1  0.97813310  0.93564135  0.65927240  1
  O  O8  1  0.18880736  0.56498681  0.64114253  1
  O  O9  1  0.76541061  0.15894240  0.65136418  1
  O  O10  1  0.86928737  0.65866875  0.13691835  1
  O  O11  1  0.46557207  0.66166695  0.91114968  1
  O  O12  1  0.13071263  0.34133125  0.86308165  1
  O  O13  1  0.39910184  0.33477703  0.61811873  1
loop_
_geom_bond_atom_site_label_1
_geom_bond_atom_site_label_2
_geom_bond_distance
_geom_bond_site_symmetry_2
Cr0 O13 1.616238 1_555
Cr0 O11 1.617981 1_555
Cr0 O8 1.618414 1_555
Cr0 O12 1.774538 1_555
Cr1 O7 1.608861 1_545
Cr1 O3 1.618585 1_555
Cr1 O9 1.621520 1_555
Cr1 O12 1.780811 1_655
Cr2 O4 1.608861 1_565
Cr2 O2 1.618585 1_555
Cr2 O0 1.621520 1_555
Cr2 O10 1.780811 1_455
Cr3 O5 1.616238 1_555
Cr3 O6 1.617981 1_555
Cr3 O1 1.618414 1_555
Cr3 O10 1.774538 1_555
O0 Rb1 2.922382 1_565
O0 Rb0 2.981250 1_555
O0 Rb2 2.986400 1_555
O1 Rb3 2.855654 1_555
O1 Rb1 2.886367 1_555
O1 Rb2 2.970311 1_655
O2 Rb0 2.966773 1_554
O2 Rb3 3.222545 1_454
O2 Rb1 3.344790 1_565
O3 Rb1 2.966773 1_556
O3 Rb2 3.222545 1_656
O3 Rb0 3.344790 1_545
O4 Rb2 2.832687 1_555
O4 Rb1 2.930572 1_455
O5 Rb2 2.966811 1_555
O5 Rb1 3.065521 1_565
O6 Rb0 2.916212 1_544
O6 Rb2 3.008584 1_555
O6 Rb1 3.360764 1_555
O7 Rb3 2.832687 1_555
O7 Rb0 2.930572 1_655
O8 Rb2 2.855654 1_555
O8 Rb0 2.886367 1_555
O8 Rb3 2.970311 1_455
O9 Rb0 2.922382 1_545
O9 Rb1 2.981250 1_555
O9 Rb3 2.986400 1_555
O10 Rb3 2.913341 1_554
O11 Rb1 2.916212 1_566
O11 Rb3 3.008584 1_555
O11 Rb0 3.360764 1_555
O12 Rb2 2.913341 1_556
O13 Rb3 2.966811 1_555
O13 Rb0 3.065521 1_545
