# generated using pymatgen
data_Rb5CeCu2(NO2)12
_symmetry_space_group_name_H-M   'P 1'
_cell_length_a   10.98676800
_cell_length_b   10.98676800
_cell_length_c   10.98676800
_cell_angle_alpha   90.00000000
_cell_angle_beta   90.00000000
_cell_angle_gamma   90.00000000
_symmetry_Int_Tables_number   1
_chemical_formula_structural   Rb5CeCu2(NO2)12
_chemical_formula_sum   'Rb10 Ce2 Cu4 N24 O48'
_cell_volume   1326.20255952
_cell_formula_units_Z   2
loop_
 _symmetry_equiv_pos_site_id
 _symmetry_equiv_pos_as_xyz
  1  'x, y, z'
loop_
 _atom_site_type_symbol
 _atom_site_label
 _atom_site_symmetry_multiplicity
 _atom_site_fract_x
 _atom_site_fract_y
 _atom_site_fract_z
 _atom_site_occupancy
  Rb  Rb0  1  0.50000000  0.50000000  0.00000000  1
  Rb  Rb1  1  0.50000000  0.00000000  0.50000000  1
  Rb  Rb2  1  0.25000000  0.75000000  0.75000000  1
  Rb  Rb3  1  0.75000000  0.25000000  0.25000000  1
  Rb  Rb4  1  0.75000000  0.25000000  0.75000000  1
  Rb  Rb5  1  0.00000000  0.00000000  0.00000000  1
  Rb  Rb6  1  0.75000000  0.75000000  0.25000000  1
  Rb  Rb7  1  0.25000000  0.75000000  0.25000000  1
  Rb  Rb8  1  0.00000000  0.50000000  0.50000000  1
  Rb  Rb9  1  0.25000000  0.25000000  0.75000000  1
  Ce  Ce0  1  0.25000000  0.25000000  0.25000000  1
  Ce  Ce1  1  0.75000000  0.75000000  0.75000000  1
  Cu  Cu0  1  0.00000000  0.00000000  0.50000000  1
  Cu  Cu1  1  0.50000000  0.00000000  0.00000000  1
  Cu  Cu2  1  0.00000000  0.50000000  0.00000000  1
  Cu  Cu3  1  0.50000000  0.50000000  0.50000000  1
  N  N0  1  0.50903000  0.50563800  0.69341700  1
  N  N1  1  0.80658300  0.99097000  0.50563800  1
  N  N2  1  0.69341700  0.99097000  0.99436200  1
  N  N3  1  0.50563800  0.80658300  0.99097000  1
  N  N4  1  0.99097000  0.99436200  0.69341700  1
  N  N5  1  0.00563800  0.30658300  0.00903000  1
  N  N6  1  0.30658300  0.00903000  0.00563800  1
  N  N7  1  0.80658300  0.50903000  0.99436200  1
  N  N8  1  0.50563800  0.69341700  0.50903000  1
  N  N9  1  0.00903000  0.49436200  0.19341700  1
  N  N10  1  0.99436200  0.80658300  0.50903000  1
  N  N11  1  0.49097000  0.49436200  0.30658300  1
  N  N12  1  0.50903000  0.99436200  0.80658300  1
  N  N13  1  0.00563800  0.19341700  0.49097000  1
  N  N14  1  0.69341700  0.50903000  0.50563800  1
  N  N15  1  0.49436200  0.19341700  0.00903000  1
  N  N16  1  0.49436200  0.30658300  0.49097000  1
  N  N17  1  0.19341700  0.00903000  0.49436200  1
  N  N18  1  0.99436200  0.69341700  0.99097000  1
  N  N19  1  0.99097000  0.50563800  0.80658300  1
  N  N20  1  0.49097000  0.00563800  0.19341700  1
  N  N21  1  0.00903000  0.00563800  0.30658300  1
  N  N22  1  0.19341700  0.49097000  0.00563800  1
  N  N23  1  0.30658300  0.49097000  0.49436200  1
  O  O0  1  0.50456200  0.25104400  0.91110500  1
  O  O1  1  0.00456200  0.75104400  0.08889500  1
  O  O2  1  0.41110500  0.00456200  0.74895600  1
  O  O3  1  0.24895600  0.58889500  0.50456200  1
  O  O4  1  0.91110500  0.50456200  0.25104400  1
  O  O5  1  0.25146600  0.10336200  0.46056100  1
  O  O6  1  0.39663800  0.46056100  0.24853400  1
  O  O7  1  0.96056100  0.74853400  0.60336200  1
  O  O8  1  0.58889500  0.99543800  0.25104400  1
  O  O9  1  0.03943900  0.25146600  0.39663800  1
  O  O10  1  0.08889500  0.00456200  0.75104400  1
  O  O11  1  0.39663800  0.03943900  0.25146600  1
  O  O12  1  0.74895600  0.41110500  0.00456200  1
  O  O13  1  0.89663800  0.96056100  0.75146600  1
  O  O14  1  0.03943900  0.24853400  0.10336200  1
  O  O15  1  0.91110500  0.99543800  0.24895600  1
  O  O16  1  0.89663800  0.53943900  0.74853400  1
  O  O17  1  0.25104400  0.91110500  0.50456200  1
  O  O18  1  0.08889500  0.49543800  0.74895600  1
  O  O19  1  0.10336200  0.03943900  0.24853400  1
  O  O20  1  0.53943900  0.74853400  0.89663800  1
  O  O21  1  0.25104400  0.58889500  0.99543800  1
  O  O22  1  0.25146600  0.39663800  0.03943900  1
  O  O23  1  0.74895600  0.08889500  0.49543800  1
  O  O24  1  0.00456200  0.74895600  0.41110500  1
  O  O25  1  0.24853400  0.39663800  0.46056100  1
  O  O26  1  0.41110500  0.49543800  0.75104400  1
  O  O27  1  0.99543800  0.25104400  0.58889500  1
  O  O28  1  0.58889500  0.50456200  0.24895600  1
  O  O29  1  0.53943900  0.75146600  0.60336200  1
  O  O30  1  0.74853400  0.60336200  0.96056100  1
  O  O31  1  0.60336200  0.96056100  0.74853400  1
  O  O32  1  0.24895600  0.91110500  0.99543800  1
  O  O33  1  0.75146600  0.89663800  0.96056100  1
  O  O34  1  0.75104400  0.08889500  0.00456200  1
  O  O35  1  0.50456200  0.24895600  0.58889500  1
  O  O36  1  0.74853400  0.89663800  0.53943900  1
  O  O37  1  0.75104400  0.41110500  0.49543800  1
  O  O38  1  0.99543800  0.24895600  0.91110500  1
  O  O39  1  0.49543800  0.74895600  0.08889500  1
  O  O40  1  0.10336200  0.46056100  0.25146600  1
  O  O41  1  0.24853400  0.10336200  0.03943900  1
  O  O42  1  0.46056100  0.24853400  0.39663800  1
  O  O43  1  0.60336200  0.53943900  0.75146600  1
  O  O44  1  0.49543800  0.75104400  0.41110500  1
  O  O45  1  0.96056100  0.75146600  0.89663800  1
  O  O46  1  0.75146600  0.60336200  0.53943900  1
  O  O47  1  0.46056100  0.25146600  0.10336200  1
loop_
_geom_bond_atom_site_label_1
_geom_bond_atom_site_label_2
_geom_bond_distance
_geom_bond_site_symmetry_2
Ce0 O40 2.819145 1_555
Ce0 O47 2.819145 1_555
Ce0 O5 2.819145 1_555
Ce0 O42 2.819145 1_555
Ce0 O25 2.819145 1_555
Ce0 O6 2.819145 1_555
Ce0 O9 2.819145 1_555
Ce0 O14 2.819145 1_555
Ce0 O22 2.819145 1_555
Ce0 O41 2.819145 1_555
Ce0 O19 2.819145 1_555
Ce0 O11 2.819145 1_555
Ce1 O16 2.819145 1_555
Ce1 O20 2.819145 1_555
Ce1 O36 2.819145 1_555
Ce1 O33 2.819145 1_555
Ce1 O13 2.819145 1_555
Ce1 O45 2.819145 1_555
Ce1 O46 2.819145 1_555
Ce1 O30 2.819145 1_555
Ce1 O31 2.819145 1_555
Ce1 O43 2.819145 1_555
Ce1 O29 2.819145 1_555
Ce1 O7 2.819145 1_555
Cu0 N13 2.128244 1_555
Cu0 N17 2.128244 1_555
Cu0 N4 2.128244 1_445
Cu0 N21 2.128244 1_555
Cu0 N1 2.128244 1_445
Cu0 N10 2.128244 1_445
Cu1 N20 2.128244 1_555
Cu1 N15 2.128244 1_555
Cu1 N2 2.128244 1_544
Cu1 N6 2.128244 1_555
Cu1 N12 2.128244 1_544
Cu1 N3 2.128244 1_544
Cu2 N22 2.128244 1_555
Cu2 N9 2.128244 1_555
Cu2 N18 2.128244 1_454
Cu2 N5 2.128244 1_555
Cu2 N7 2.128244 1_454
Cu2 N19 2.128244 1_454
Cu3 N0 2.128244 1_555
Cu3 N8 2.128244 1_555
Cu3 N14 2.128244 1_555
Cu3 N23 2.128244 1_555
Cu3 N16 2.128244 1_555
Cu3 N11 2.128244 1_555
N0 O26 1.253369 1_555
N0 O43 1.272319 1_555
N1 O23 1.253369 1_565
N1 O36 1.272319 1_555
N2 O34 1.253369 1_566
N2 O33 1.272319 1_555
N3 O39 1.253369 1_556
N3 O20 1.272319 1_555
N4 O10 1.253369 1_665
N4 O13 1.272319 1_555
N5 O38 1.253369 1_454
N5 O14 1.272319 1_555
N6 O32 1.253369 1_544
N6 O41 1.272319 1_555
N7 O12 1.253369 1_556
N7 O30 1.272319 1_555
N8 O44 1.253369 1_555
N8 O29 1.272319 1_555
N9 O4 1.253369 1_455
N9 O40 1.272319 1_555
N10 O24 1.253369 1_655
N10 O7 1.272319 1_555
N11 O28 1.253369 1_555
N11 O6 1.272319 1_555
N12 O2 1.253369 1_565
N12 O31 1.272319 1_555
N13 O27 1.253369 1_455
N13 O9 1.272319 1_555
N14 O37 1.253369 1_555
N14 O46 1.272319 1_555
N15 O0 1.253369 1_554
N15 O47 1.272319 1_555
N16 O35 1.253369 1_555
N16 O42 1.272319 1_555
N17 O17 1.253369 1_545
N17 O5 1.272319 1_555
N18 O1 1.253369 1_656
N18 O45 1.272319 1_555
N19 O18 1.253369 1_655
N19 O16 1.272319 1_555
N20 O8 1.253369 1_545
N20 O11 1.272319 1_555
N21 O15 1.253369 1_445
N21 O19 1.272319 1_555
N22 O21 1.253369 1_554
N22 O22 1.272319 1_555
N23 O3 1.253369 1_555
N23 O25 1.272319 1_555
O0 Rb0 2.904795 1_556
O0 Rb4 3.225617 1_555
O0 Rb9 3.309876 1_555
O1 Rb5 2.904795 1_565
O1 Rb7 3.225617 1_555
O1 Rb6 3.309876 1_455
O2 Rb1 2.904795 1_555
O2 Rb9 3.225617 1_555
O2 Rb2 3.309876 1_545
O3 Rb8 2.904795 1_555
O3 Rb2 3.225617 1_555
O3 Rb7 3.309876 1_555
O4 Rb8 2.904795 1_655
O4 Rb6 3.225617 1_555
O4 Rb3 3.309876 1_555
O5 Rb1 2.988891 1_555
O6 Rb0 2.988891 1_555
O7 Rb8 2.988891 1_655
O8 Rb1 2.904795 1_565
O8 Rb6 3.225617 1_555
O8 Rb3 3.309876 1_565
O9 Rb8 2.988891 1_555
O10 Rb5 2.904795 1_556
O10 Rb9 3.225617 1_555
O10 Rb2 3.309876 1_545
O11 Rb1 2.988891 1_555
O12 Rb0 2.904795 1_555
O12 Rb3 3.225617 1_555
O12 Rb4 3.309876 1_554
O13 Rb5 2.988891 1_666
O14 Rb5 2.988891 1_555
O15 Rb5 2.904795 1_665
O15 Rb6 3.225617 1_555
O15 Rb3 3.309876 1_565
O16 Rb8 2.988891 1_655
O17 Rb1 2.904795 1_565
O17 Rb2 3.225617 1_555
O17 Rb7 3.309876 1_555
O18 Rb8 2.904795 1_555
O18 Rb9 3.225617 1_555
O18 Rb2 3.309876 1_555
O19 Rb5 2.988891 1_555
O20 Rb0 2.988891 1_556
O21 Rb0 2.904795 1_556
O21 Rb2 3.225617 1_555
O21 Rb7 3.309876 1_556
O22 Rb0 2.988891 1_555
O23 Rb1 2.904795 1_555
O23 Rb3 3.225617 1_555
O23 Rb4 3.309876 1_555
O24 Rb8 2.904795 1_555
O24 Rb7 3.225617 1_555
O24 Rb6 3.309876 1_455
O25 Rb8 2.988891 1_555
O26 Rb0 2.904795 1_556
O26 Rb9 3.225617 1_555
O26 Rb2 3.309876 1_555
O27 Rb8 2.904795 1_655
O27 Rb4 3.225617 1_555
O27 Rb9 3.309876 1_655
O28 Rb0 2.904795 1_555
O28 Rb6 3.225617 1_555
O28 Rb3 3.309876 1_555
O29 Rb1 2.988891 1_565
O30 Rb0 2.988891 1_556
O31 Rb1 2.988891 1_565
O32 Rb5 2.904795 1_566
O32 Rb2 3.225617 1_555
O32 Rb7 3.309876 1_556
O33 Rb5 2.988891 1_666
O34 Rb5 2.904795 1_655
O34 Rb3 3.225617 1_555
O34 Rb4 3.309876 1_554
O35 Rb1 2.904795 1_555
O35 Rb4 3.225617 1_555
O35 Rb9 3.309876 1_555
O36 Rb1 2.988891 1_565
O37 Rb8 2.904795 1_655
O37 Rb3 3.225617 1_555
O37 Rb4 3.309876 1_555
O38 Rb5 2.904795 1_656
O38 Rb4 3.225617 1_555
O38 Rb9 3.309876 1_655
O39 Rb0 2.904795 1_555
O39 Rb7 3.225617 1_555
O39 Rb6 3.309876 1_555
O40 Rb8 2.988891 1_555
O41 Rb5 2.988891 1_555
O42 Rb1 2.988891 1_555
O43 Rb0 2.988891 1_556
O44 Rb1 2.904795 1_565
O44 Rb7 3.225617 1_555
O44 Rb6 3.309876 1_555
O45 Rb5 2.988891 1_666
O46 Rb8 2.988891 1_655
O47 Rb0 2.988891 1_555
