# generated using pymatgen
data_NaMo3P3O16
_symmetry_space_group_name_H-M   'P 1'
_cell_length_a   6.40831006
_cell_length_b   7.58596845
_cell_length_c   12.79672919
_cell_angle_alpha   79.55829660
_cell_angle_beta   78.87504158
_cell_angle_gamma   82.44419244
_symmetry_Int_Tables_number   1
_chemical_formula_structural   NaMo3P3O16
_chemical_formula_sum   'Na2 Mo6 P6 O32'
_cell_volume   597.28154259
_cell_formula_units_Z   2
loop_
 _symmetry_equiv_pos_site_id
 _symmetry_equiv_pos_as_xyz
  1  'x, y, z'
loop_
 _atom_site_type_symbol
 _atom_site_label
 _atom_site_symmetry_multiplicity
 _atom_site_fract_x
 _atom_site_fract_y
 _atom_site_fract_z
 _atom_site_occupancy
  Na  Na0  1  0.58987351  0.31707080  0.32489897  1
  Na  Na1  1  0.41012649  0.68292920  0.67510103  1
  Mo  Mo0  1  0.20343489  0.21253714  0.53780954  1
  Mo  Mo1  1  0.79656511  0.78746286  0.46219046  1
  Mo  Mo2  1  0.41354726  0.74584689  0.16252793  1
  Mo  Mo3  1  0.58645274  0.25415311  0.83747207  1
  Mo  Mo4  1  0.06006481  0.20402145  0.14593756  1
  Mo  Mo5  1  0.93993519  0.79597855  0.85406244  1
  P  P0  1  0.57469409  0.16152590  0.10265891  1
  P  P1  1  0.42530591  0.83847410  0.89734109  1
  P  P2  1  0.31083012  0.85092110  0.42063275  1
  P  P3  1  0.68916988  0.14907890  0.57936725  1
  P  P4  1  0.05904198  0.48660422  0.31577936  1
  P  P5  1  0.94095802  0.51339578  0.68422064  1
  O  O0  1  0.20555459  0.03315494  0.63484905  1
  O  O1  1  0.79444541  0.96684506  0.36515095  1
  O  O2  1  0.89574113  0.23158630  0.52631404  1
  O  O3  1  0.10425887  0.76841370  0.47368596  1
  O  O4  1  0.51996378  0.24647837  0.51280319  1
  O  O5  1  0.48003622  0.75352163  0.48719681  1
  O  O6  1  0.28664755  0.05394266  0.41936747  1
  O  O7  1  0.71335245  0.94605734  0.58063253  1
  O  O8  1  0.14168140  0.41571485  0.62453390  1
  O  O9  1  0.85831860  0.58428515  0.37546610  1
  O  O10  1  0.22025957  0.40890359  0.38900133  1
  O  O11  1  0.77974043  0.59109641  0.61099867  1
  O  O12  1  0.09295776  0.30714112  0.01843035  1
  O  O13  1  0.90704224  0.69285888  0.98156965  1
  O  O14  1  0.97635496  0.33429059  0.27242066  1
  O  O15  1  0.02364504  0.66570941  0.72757934  1
  O  O16  1  0.74675396  0.19310397  0.16510641  1
  O  O17  1  0.25324604  0.80689603  0.83489359  1
  O  O18  1  0.13823154  0.97913339  0.14290420  1
  O  O19  1  0.86176846  0.02086661  0.85709580  1
  O  O20  1  0.36029594  0.23613911  0.16496937  1
  O  O21  1  0.63970406  0.76386089  0.83503063  1
  O  O22  1  0.60390113  0.57734567  0.17928924  1
  O  O23  1  0.39609887  0.42265433  0.82071076  1
  O  O24  1  0.37834263  0.73483358  0.01123790  1
  O  O25  1  0.62165737  0.26516642  0.98876210  1
  O  O26  1  0.15853899  0.61137986  0.21583356  1
  O  O27  1  0.84146101  0.38862014  0.78416644  1
  O  O28  1  0.38053548  0.82248814  0.30418992  1
  O  O29  1  0.61946452  0.17751186  0.69581008  1
  O  O30  1  0.57876953  0.96056635  0.10177896  1
  O  O31  1  0.42123047  0.03943365  0.89822104  1
loop_
_geom_bond_atom_site_label_1
_geom_bond_atom_site_label_2
_geom_bond_distance
_geom_bond_site_symmetry_2
Na0 O4 2.334529 1_555
Na0 O16 2.394045 1_555
Na0 O10 2.406632 1_555
Na0 O14 2.452244 1_555
Na0 O22 2.454990 1_555
Na1 O5 2.334529 1_555
Na1 O17 2.394045 1_555
Na1 O11 2.406632 1_555
Na1 O15 2.452244 1_555
Na1 O23 2.454990 1_555
Mo0 O0 1.668265 1_555
Mo0 O2 1.989925 1_455
Mo0 O8 2.013446 1_555
Mo0 O4 2.034739 1_555
Mo0 O6 2.051681 1_555
Mo0 O10 2.188980 1_555
Mo1 O1 1.668265 1_555
Mo1 O3 1.989925 1_655
Mo1 O9 2.013446 1_555
Mo1 O5 2.034739 1_555
Mo1 O7 2.051681 1_555
Mo1 O11 2.188980 1_555
Mo2 O22 1.661166 1_555
Mo2 O28 1.967422 1_555
Mo2 O26 1.983016 1_555
Mo2 O24 2.009521 1_555
Mo2 O30 2.013824 1_555
Mo2 O18 2.344456 1_555
Mo3 O23 1.661166 1_555
Mo3 O29 1.967422 1_555
Mo3 O27 1.983016 1_555
Mo3 O25 2.009521 1_555
Mo3 O31 2.013824 1_555
Mo3 O19 2.344456 1_555
Mo4 O12 1.663344 1_555
Mo4 O18 1.718896 1_545
Mo4 O16 1.986094 1_455
Mo4 O14 1.997350 1_455
Mo4 O20 2.036163 1_555
Mo5 O13 1.663344 1_555
Mo5 O19 1.718896 1_565
Mo5 O17 1.986094 1_655
Mo5 O15 1.997350 1_655
Mo5 O21 2.036163 1_555
O2 P3 1.523842 1_555
O3 P2 1.523842 1_555
O4 P3 1.537810 1_555
O5 P2 1.537810 1_555
O6 P2 1.524925 1_545
O7 P3 1.524925 1_565
O8 P5 1.537005 1_455
O9 P4 1.537005 1_655
O10 P4 1.518550 1_555
O11 P5 1.518550 1_555
O14 P4 1.559019 1_655
O15 P5 1.559019 1_455
O16 P0 1.546161 1_555
O17 P1 1.546161 1_555
O20 P0 1.542779 1_555
O21 P1 1.542779 1_555
O24 P1 1.520075 1_554
O25 P0 1.520075 1_556
O26 P4 1.530846 1_555
O27 P5 1.530846 1_555
O28 P2 1.516812 1_555
O29 P3 1.516812 1_555
O30 P0 1.523307 1_565
O31 P1 1.523307 1_545
