# generated using pymatgen
data_Fe2(SeO4)3
_symmetry_space_group_name_H-M   'P 1'
_cell_length_a   8.93422158
_cell_length_b   8.57045447
_cell_length_c   14.58149849
_cell_angle_alpha   55.32907682
_cell_angle_beta   90.00000000
_cell_angle_gamma   90.00000000
_symmetry_Int_Tables_number   1
_chemical_formula_structural   Fe2(SeO4)3
_chemical_formula_sum   'Fe8 Se12 O48'
_cell_volume   918.25472274
_cell_formula_units_Z   4
loop_
 _symmetry_equiv_pos_site_id
 _symmetry_equiv_pos_as_xyz
  1  'x, y, z'
loop_
 _atom_site_type_symbol
 _atom_site_label
 _atom_site_symmetry_multiplicity
 _atom_site_fract_x
 _atom_site_fract_y
 _atom_site_fract_z
 _atom_site_occupancy
  Fe  Fe0  1  0.46772839  0.86948639  0.38210939  1
  Fe  Fe1  1  0.96772839  0.13051361  0.11789061  1
  Fe  Fe2  1  0.53227161  0.13051361  0.61789061  1
  Fe  Fe3  1  0.03227161  0.86948639  0.88210939  1
  Fe  Fe4  1  0.03147736  0.63212535  0.61586057  1
  Fe  Fe5  1  0.53147736  0.36787465  0.88413943  1
  Fe  Fe6  1  0.96852264  0.36787465  0.38413943  1
  Fe  Fe7  1  0.46852264  0.63212535  0.11586057  1
  Se  Se0  1  0.25286112  0.45551740  0.50747197  1
  Se  Se1  1  0.75286112  0.54448260  0.99252803  1
  Se  Se2  1  0.74713888  0.54448260  0.49252803  1
  Se  Se3  1  0.24713888  0.45551740  0.00747197  1
  Se  Se4  1  0.37592352  0.74511365  0.65182837  1
  Se  Se5  1  0.87592352  0.25488635  0.84817163  1
  Se  Se6  1  0.62407648  0.25488635  0.34817163  1
  Se  Se7  1  0.12407648  0.74511365  0.15182837  1
  Se  Se8  1  0.11891898  0.03231571  0.35690116  1
  Se  Se9  1  0.61891898  0.96768429  0.14309884  1
  Se  Se10  1  0.88108102  0.96768429  0.64309884  1
  Se  Se11  1  0.38108102  0.03231571  0.85690116  1
  O  O0  1  0.12081461  0.49481562  0.41731365  1
  O  O1  1  0.62081461  0.50518438  0.08268635  1
  O  O2  1  0.87918539  0.50518438  0.58268635  1
  O  O3  1  0.37918539  0.49481562  0.91731365  1
  O  O4  1  0.18795277  0.45691883  0.61327762  1
  O  O5  1  0.68795277  0.54308117  0.88672238  1
  O  O6  1  0.81204723  0.54308117  0.38672238  1
  O  O7  1  0.31204723  0.45691883  0.11327762  1
  O  O8  1  0.33023225  0.24828016  0.55476233  1
  O  O9  1  0.83023225  0.75171984  0.94523767  1
  O  O10  1  0.66976775  0.75171984  0.44523767  1
  O  O11  1  0.16976775  0.24828016  0.05476233  1
  O  O12  1  0.37764152  0.62392363  0.43550243  1
  O  O13  1  0.87764152  0.37607637  0.06449757  1
  O  O14  1  0.62235848  0.37607637  0.56449757  1
  O  O15  1  0.12235848  0.62392363  0.93550243  1
  O  O16  1  0.47697735  0.54868082  0.72128772  1
  O  O17  1  0.97697735  0.45131918  0.77871228  1
  O  O18  1  0.52302265  0.45131918  0.27871228  1
  O  O19  1  0.02302265  0.54868082  0.22128772  1
  O  O20  1  0.42110278  0.88595871  0.69025311  1
  O  O21  1  0.92110278  0.11404129  0.80974689  1
  O  O22  1  0.57889722  0.11404129  0.30974689  1
  O  O23  1  0.07889722  0.88595871  0.19025311  1
  O  O24  1  0.40477814  0.85449319  0.51711095  1
  O  O25  1  0.90477814  0.14550681  0.98288905  1
  O  O26  1  0.59522186  0.14550681  0.48288905  1
  O  O27  1  0.09522186  0.85449319  0.01711095  1
  O  O28  1  0.19449010  0.70487100  0.67580442  1
  O  O29  1  0.69449010  0.29512900  0.82419558  1
  O  O30  1  0.80550990  0.29512900  0.32419558  1
  O  O31  1  0.30550990  0.70487100  0.17580442  1
  O  O32  1  0.99600085  0.11881807  0.25538747  1
  O  O33  1  0.49600085  0.88118193  0.24461253  1
  O  O34  1  0.00399915  0.88118193  0.74461253  1
  O  O35  1  0.50399915  0.11881807  0.75538747  1
  O  O36  1  0.07641676  0.80847396  0.45423048  1
  O  O37  1  0.57641676  0.19152604  0.04576952  1
  O  O38  1  0.92358324  0.19152604  0.54576952  1
  O  O39  1  0.42358324  0.80847396  0.95423048  1
  O  O40  1  0.11202450  0.16488436  0.40630334  1
  O  O41  1  0.61202450  0.83511564  0.09369666  1
  O  O42  1  0.88797550  0.83511564  0.59369666  1
  O  O43  1  0.38797550  0.16488436  0.90630334  1
  O  O44  1  0.28634935  0.03669008  0.30860956  1
  O  O45  1  0.78634935  0.96330992  0.19139044  1
  O  O46  1  0.71365065  0.96330992  0.69139044  1
  O  O47  1  0.21365065  0.03669008  0.80860956  1
loop_
_geom_bond_atom_site_label_1
_geom_bond_atom_site_label_2
_geom_bond_distance
_geom_bond_site_symmetry_2
Fe0 O12 1.954231 1_555
Fe0 O33 1.965928 1_555
Fe0 O24 1.979929 1_555
Fe0 O22 1.994159 1_565
Fe0 O10 2.016746 1_555
Fe0 O44 2.020091 1_565
Fe1 O13 1.954231 1_555
Fe1 O32 1.965928 1_555
Fe1 O25 1.979929 1_554
Fe1 O23 1.994159 1_645
Fe1 O11 2.016746 1_655
Fe1 O45 2.020091 1_545
Fe2 O14 1.954231 1_555
Fe2 O35 1.965928 1_555
Fe2 O26 1.979929 1_555
Fe2 O20 1.994159 1_545
Fe2 O8 2.016746 1_555
Fe2 O46 2.020091 1_545
Fe3 O15 1.954231 1_555
Fe3 O34 1.965928 1_555
Fe3 O27 1.979929 1_556
Fe3 O21 1.994159 1_465
Fe3 O9 2.016746 1_455
Fe3 O47 2.020091 1_565
Fe4 O2 1.966627 1_455
Fe4 O28 1.973269 1_555
Fe4 O36 1.986809 1_555
Fe4 O17 2.022541 1_455
Fe4 O42 2.033497 1_455
Fe4 O4 2.067590 1_555
Fe5 O3 1.966627 1_555
Fe5 O29 1.973269 1_555
Fe5 O37 1.986809 1_556
Fe5 O16 2.022541 1_555
Fe5 O43 2.033497 1_555
Fe5 O5 2.067590 1_555
Fe6 O0 1.966627 1_655
Fe6 O30 1.973269 1_555
Fe6 O38 1.986809 1_555
Fe6 O19 2.022541 1_655
Fe6 O40 2.033497 1_655
Fe6 O6 2.067590 1_555
Fe7 O1 1.966627 1_555
Fe7 O31 1.973269 1_555
Fe7 O39 1.986809 1_554
Fe7 O18 2.022541 1_555
Fe7 O41 2.033497 1_555
Fe7 O7 2.067590 1_555
O0 Se0 1.652191 1_555
O1 Se1 1.652191 1_554
O2 Se2 1.652191 1_555
O3 Se3 1.652191 1_556
O4 Se0 1.654619 1_555
O5 Se1 1.654619 1_555
O6 Se2 1.654619 1_555
O7 Se3 1.654619 1_555
O8 Se0 1.647572 1_555
O9 Se1 1.647572 1_555
O10 Se2 1.647572 1_555
O11 Se3 1.647572 1_555
O12 Se0 1.644389 1_555
O13 Se1 1.644389 1_554
O14 Se2 1.644389 1_555
O15 Se3 1.644389 1_556
O16 Se4 1.653850 1_555
O17 Se5 1.653850 1_555
O18 Se6 1.653850 1_555
O19 Se7 1.653850 1_555
O20 Se4 1.644212 1_555
O21 Se5 1.644212 1_555
O22 Se6 1.644212 1_555
O23 Se7 1.644212 1_555
O24 Se4 1.645886 1_555
O25 Se5 1.645886 1_555
O26 Se6 1.645886 1_555
O27 Se7 1.645886 1_555
O28 Se4 1.652733 1_555
O29 Se5 1.652733 1_555
O30 Se6 1.652733 1_555
O31 Se7 1.652733 1_555
O32 Se8 1.642605 1_655
O33 Se9 1.642605 1_555
O34 Se10 1.642605 1_455
O35 Se11 1.642605 1_555
O36 Se8 1.655620 1_565
O37 Se9 1.655620 1_545
O38 Se10 1.655620 1_545
O39 Se11 1.655620 1_565
O40 Se8 1.656735 1_555
O41 Se9 1.656735 1_555
O42 Se10 1.656735 1_555
O43 Se11 1.656735 1_555
O44 Se8 1.644632 1_555
O45 Se9 1.644632 1_555
O46 Se10 1.644632 1_555
O47 Se11 1.644632 1_555
