# generated using pymatgen
data_Sc4Si7Ni12
_symmetry_space_group_name_H-M   'P 1'
_cell_length_a   11.56454592
_cell_length_b   11.56454592
_cell_length_c   11.56454592
_cell_angle_alpha   139.51958708
_cell_angle_beta   116.13449181
_cell_angle_gamma   78.39826175
_symmetry_Int_Tables_number   1
_chemical_formula_structural   Sc4Si7Ni12
_chemical_formula_sum   'Sc12 Si21 Ni36'
_cell_volume   877.27624588
_cell_formula_units_Z   3
loop_
 _symmetry_equiv_pos_site_id
 _symmetry_equiv_pos_as_xyz
  1  'x, y, z'
loop_
 _atom_site_type_symbol
 _atom_site_label
 _atom_site_symmetry_multiplicity
 _atom_site_fract_x
 _atom_site_fract_y
 _atom_site_fract_z
 _atom_site_occupancy
  Sc  Sc0  1  0.80903400  0.30903400  0.50000000  1
  Sc  Sc1  1  0.19096600  0.69096600  0.50000000  1
  Sc  Sc2  1  0.46945200  0.28550200  0.18394900  1
  Sc  Sc3  1  0.37081800  0.87081800  0.50000000  1
  Sc  Sc4  1  0.53054800  0.71449800  0.81605100  1
  Sc  Sc5  1  0.62918200  0.12918200  0.50000000  1
  Sc  Sc6  1  0.18140300  0.79583300  0.97723600  1
  Sc  Sc7  1  0.89844700  0.71449800  0.18394900  1
  Sc  Sc8  1  0.81859700  0.20416700  0.02276400  1
  Sc  Sc9  1  0.10155300  0.28550200  0.81605100  1
  Sc  Sc10  1  0.18140300  0.20416700  0.38557000  1
  Sc  Sc11  1  0.81859700  0.79583300  0.61443000  1
  Si  Si0  1  0.33152400  0.50904200  0.17751800  1
  Si  Si1  1  0.50000000  0.76761700  0.26761700  1
  Si  Si2  1  0.67679300  0.10221600  0.09188100  1
  Si  Si3  1  0.67410200  0.50000000  0.17410200  1
  Si  Si4  1  0.16630300  0.88341600  0.28288700  1
  Si  Si5  1  0.33152400  0.15400600  0.82248200  1
  Si  Si6  1  0.01033500  0.10221600  0.42542300  1
  Si  Si7  1  0.60052900  0.88341600  0.71711300  1
  Si  Si8  1  0.32320700  0.41508800  0.42542300  1
  Si  Si9  1  0.39947100  0.11658400  0.28288700  1
  Si  Si10  1  0.66847600  0.49095800  0.82248200  1
  Si  Si11  1  0.50000000  0.23238300  0.73238300  1
  Si  Si12  1  0.67679300  0.58491200  0.57457700  1
  Si  Si13  1  0.00000000  0.00000000  0.00000000  1
  Si  Si14  1  0.32320700  0.89778400  0.90811900  1
  Si  Si15  1  0.98966500  0.41508800  0.09188100  1
  Si  Si16  1  0.83369700  0.11658400  0.71711300  1
  Si  Si17  1  0.66847600  0.84599400  0.17751800  1
  Si  Si18  1  0.98966500  0.89778400  0.57457700  1
  Si  Si19  1  0.01033500  0.58491200  0.90811900  1
  Si  Si20  1  0.32589800  0.50000000  0.82589800  1
  Ni  Ni0  1  0.26840400  0.63958500  0.07602900  1
  Ni  Ni1  1  0.43644500  0.80762500  0.07602900  1
  Ni  Ni2  1  0.98682900  0.88722700  0.09960200  1
  Ni  Ni3  1  0.21237500  0.11277300  0.09960200  1
  Ni  Ni4  1  0.73159600  0.80762500  0.37118000  1
  Ni  Ni5  1  0.43644500  0.36041500  0.62882000  1
  Ni  Ni6  1  0.20980400  0.37735700  0.16755400  1
  Ni  Ni7  1  0.56355500  0.63958500  0.37118000  1
  Ni  Ni8  1  0.20980400  0.04225000  0.83244600  1
  Ni  Ni9  1  0.61834100  0.00000000  0.61834100  1
  Ni  Ni10  1  0.01317100  0.11277300  0.90039800  1
  Ni  Ni11  1  0.09530200  0.41953100  0.67577100  1
  Ni  Ni12  1  0.07468500  0.79482100  0.72013600  1
  Ni  Ni13  1  0.56878900  0.56878900  0.00000000  1
  Ni  Ni14  1  0.12608100  0.61207400  0.17382700  1
  Ni  Ni15  1  0.26840400  0.19237500  0.62882000  1
  Ni  Ni16  1  0.38165900  0.00000000  0.38165900  1
  Ni  Ni17  1  0.90469800  0.58046900  0.32422900  1
  Ni  Ni18  1  0.79019600  0.62264300  0.83244600  1
  Ni  Ni19  1  0.78762500  0.88722700  0.90039800  1
  Ni  Ni20  1  0.43824700  0.61207400  0.48599300  1
  Ni  Ni21  1  0.25624000  0.58046900  0.67577100  1
  Ni  Ni22  1  0.43824700  0.95225400  0.82617300  1
  Ni  Ni23  1  0.79019600  0.95775000  0.16755400  1
  Ni  Ni24  1  0.43121100  0.43121100  0.00000000  1
  Ni  Ni25  1  0.87391900  0.04774600  0.48599300  1
  Ni  Ni26  1  0.92531500  0.20517900  0.27986400  1
  Ni  Ni27  1  0.56355500  0.19237500  0.92397100  1
  Ni  Ni28  1  0.56175300  0.04774600  0.17382700  1
  Ni  Ni29  1  0.56175300  0.38792600  0.51400700  1
  Ni  Ni30  1  0.73159600  0.36041500  0.92397100  1
  Ni  Ni31  1  0.12608100  0.95225400  0.51400700  1
  Ni  Ni32  1  0.07468500  0.35454900  0.27986400  1
  Ni  Ni33  1  0.87391900  0.38792600  0.82617300  1
  Ni  Ni34  1  0.74376000  0.41953100  0.32422900  1
  Ni  Ni35  1  0.92531500  0.64545100  0.72013600  1
loop_
_geom_bond_atom_site_label_1
_geom_bond_atom_site_label_2
_geom_bond_distance
_geom_bond_site_symmetry_2
Sc0 Si6 2.876619 1_655
Sc0 Si19 2.876619 1_655
Sc0 Si2 2.876619 1_555
Sc0 Si12 2.876619 1_555
Sc1 Si18 2.876619 1_455
Sc1 Si14 2.876619 1_555
Sc1 Si8 2.876619 1_555
Sc1 Si15 2.876619 1_455
Sc2 Si5 2.786064 1_554
Sc2 Si0 2.786068 1_555
Sc2 Si2 2.854394 1_555
Sc2 Si12 2.854399 1_555
Sc2 Si14 3.111164 1_544
Sc2 Si8 3.111169 1_555
Sc2 Si9 3.260656 1_555
Sc3 Si7 2.665638 1_555
Sc3 Si4 2.665638 1_555
Sc3 Si0 2.674784 1_555
Sc3 Si5 2.674784 1_565
Sc3 Si11 2.969662 1_565
Sc3 Si1 2.969662 1_555
Sc4 Si17 2.786064 1_556
Sc4 Si10 2.786068 1_555
Sc4 Si14 2.854394 1_555
Sc4 Si8 2.854399 1_555
Sc4 Si2 3.111164 1_566
Sc4 Si12 3.111169 1_555
Sc4 Si7 3.260656 1_555
Sc5 Si9 2.665638 1_555
Sc5 Si16 2.665638 1_555
Sc5 Si17 2.674784 1_545
Sc5 Si10 2.674784 1_555
Sc5 Si1 2.969662 1_545
Sc5 Si11 2.969662 1_555
Sc6 Si13 2.755673 1_566
Sc6 Si14 2.843287 1_555
Sc6 Si19 2.843287 1_555
Sc6 Si9 2.928630 1_566
Sc6 Si4 2.928630 1_556
Sc6 Si20 2.954341 1_555
Sc7 Si10 2.786064 1_554
Sc7 Si17 2.786064 1_555
Sc7 Si15 2.854403 1_555
Sc7 Si18 2.854403 1_555
Sc7 Si19 3.111159 1_654
Sc7 Si6 3.111159 1_665
Sc7 Si4 3.260650 1_655
Sc8 Si13 2.755673 1_655
Sc8 Si15 2.843287 1_555
Sc8 Si2 2.843287 1_555
Sc8 Si16 2.928630 1_554
Sc8 Si7 2.928630 1_544
Sc8 Si3 2.954341 1_555
Sc9 Si5 2.786064 1_555
Sc9 Si0 2.786064 1_556
Sc9 Si6 2.854403 1_555
Sc9 Si19 2.854403 1_555
Sc9 Si18 3.111159 1_445
Sc9 Si15 3.111159 1_456
Sc9 Si16 3.260650 1_455
Sc10 Si13 2.755673 1_555
Sc10 Si6 2.843287 1_555
Sc10 Si8 2.843287 1_555
Sc10 Si4 2.928630 1_545
Sc10 Si9 2.928630 1_555
Sc10 Si20 2.954341 1_555
Sc11 Si13 2.755673 1_666
Sc11 Si12 2.843287 1_555
Sc11 Si18 2.843287 1_555
Sc11 Si16 2.928630 1_565
Sc11 Si7 2.928630 1_555
Sc11 Si3 2.954341 1_555
Si2 Si7 2.609887 1_544
Si4 Si6 2.609887 1_565
Si8 Si9 2.609887 1_555
Si12 Si7 2.609887 1_555
Si14 Si9 2.609887 1_566
Si15 Si16 2.609887 1_554
Si16 Si18 2.609887 1_545
Si19 Si4 2.609887 1_556
Ni0 Si20 2.361046 1_554
Ni0 Si1 2.377258 1_555
Ni0 Si0 2.384727 1_555
Ni0 Si4 2.440410 1_555
Ni0 Ni14 2.547010 1_555
Ni0 Ni24 2.556401 1_555
Ni0 Si19 2.619775 1_554
Ni0 Sc6 2.641823 1_554
Ni0 Ni16 2.699468 1_565
Ni0 Ni11 2.806356 1_554
Ni0 Sc3 2.967474 1_555
Ni0 Sc9 2.978041 1_554
Ni1 Si20 2.361050 1_554
Ni1 Si1 2.377259 1_555
Ni1 Si17 2.384716 1_555
Ni1 Si9 2.440414 1_565
Ni1 Ni28 2.547003 1_565
Ni1 Ni13 2.556395 1_555
Ni1 Si14 2.619776 1_554
Ni1 Sc6 2.641834 1_554
Ni1 Ni16 2.699476 1_565
Ni1 Ni21 2.806358 1_554
Ni1 Sc5 2.967471 1_565
Ni1 Sc4 2.978024 1_554
Ni2 Si4 2.243261 1_655
Ni2 Si13 2.360195 1_665
Ni2 Si6 2.360325 1_665
Ni2 Si19 2.360325 1_654
Ni2 Ni23 2.511366 1_555
Ni2 Ni35 2.639238 1_554
Ni2 Ni26 2.639238 1_565
Ni2 Sc6 2.784986 1_654
Ni2 Sc10 2.784986 1_665
Ni2 Sc7 3.263419 1_555
Ni3 Si9 2.243261 1_555
Ni3 Si13 2.360195 1_555
Ni3 Si8 2.360325 1_555
Ni3 Si14 2.360325 1_544
Ni3 Ni6 2.511355 1_555
Ni3 Ni8 2.511366 1_554
Ni3 Ni32 2.639238 1_555
Ni3 Sc10 2.784986 1_555
Ni3 Sc6 2.784986 1_544
Ni3 Sc2 3.263429 1_555
Ni4 Si3 2.361050 1_555
Ni4 Si1 2.377259 1_555
Ni4 Si17 2.384716 1_555
Ni4 Si16 2.440414 1_565
Ni4 Si18 2.619776 1_555
Ni4 Sc11 2.641834 1_555
Ni4 Ni9 2.699476 1_565
Ni4 Sc5 2.967471 1_565
Ni4 Sc7 2.978032 1_555
Ni5 Si20 2.361048 1_555
Ni5 Si11 2.377248 1_555
Ni5 Si10 2.384718 1_555
Ni5 Si9 2.440414 1_555
Ni5 Si8 2.619786 1_555
Ni5 Sc10 2.641833 1_555
Ni5 Sc5 2.967466 1_555
Ni5 Sc4 2.978039 1_555
Ni6 Si0 2.183173 1_555
Ni6 Si8 2.368277 1_555
Ni6 Si15 2.368287 1_455
Ni6 Ni8 2.681418 1_554
Ni6 Sc1 2.681468 1_555
Ni6 Sc9 2.950005 1_554
Ni6 Sc2 2.950006 1_555
Ni7 Si3 2.361048 1_555
Ni7 Si1 2.377248 1_555
Ni7 Si0 2.384718 1_555
Ni7 Si7 2.440414 1_555
Ni7 Si12 2.619786 1_555
Ni7 Sc11 2.641833 1_555
Ni7 Ni9 2.699467 1_565
Ni7 Sc3 2.967466 1_555
Ni7 Sc2 2.978039 1_555
Ni8 Si5 2.183164 1_555
Ni8 Si14 2.368284 1_545
Ni8 Si18 2.368284 1_445
Ni8 Sc1 2.681465 1_545
Ni8 Sc9 2.949998 1_555
Ni8 Sc2 2.950005 1_556
Ni9 Si11 2.356580 1_555
Ni9 Si1 2.356580 1_545
Ni9 Si16 2.413855 1_555
Ni9 Si7 2.413855 1_545
Ni9 Sc3 2.730797 1_545
Ni9 Sc5 2.730797 1_555
Ni9 Sc8 2.944587 1_556
Ni9 Sc11 2.944587 1_545
Ni10 Si16 2.243261 1_455
Ni10 Si13 2.360195 1_556
Ni10 Si15 2.360325 1_456
Ni10 Si18 2.360325 1_445
Ni10 Ni3 2.436967 1_556
Ni10 Ni6 2.511361 1_556
Ni10 Ni8 2.511366 1_555
Ni10 Ni32 2.639238 1_556
Ni10 Ni12 2.639238 1_545
Ni10 Sc8 2.784986 1_456
Ni10 Sc11 2.784986 1_445
Ni10 Sc9 3.263419 1_555
Ni11 Si20 2.335238 1_555
Ni11 Si19 2.365511 1_555
Ni11 Si6 2.365511 1_555
Ni11 Sc6 2.772810 1_555
Ni11 Sc10 2.772810 1_555
Ni11 Ni35 2.781592 1_455
Ni11 Ni26 2.781592 1_455
Ni11 Ni15 2.806358 1_555
Ni11 Ni21 2.884650 1_555
Ni11 Sc0 2.923414 1_455
Ni11 Sc9 2.952333 1_555
Ni12 Si14 2.517603 1_555
Ni12 Si18 2.517603 1_455
Ni12 Ni8 2.583227 1_565
Ni12 Si13 2.608985 1_566
Ni12 Ni3 2.639238 1_566
Ni12 Sc6 2.661523 1_555
Ni12 Sc11 2.661523 1_455
Ni12 Ni35 2.677305 1_455
Ni12 Sc1 2.728862 1_555
Ni12 Ni17 2.781592 1_455
Ni12 Ni21 2.781592 1_555
Ni13 Si10 2.282599 1_554
Ni13 Si17 2.282599 1_555
Ni13 Si20 2.461019 1_554
Ni13 Si3 2.461019 1_555
Ni13 Ni24 2.465946 1_555
Ni13 Si11 2.470979 1_554
Ni13 Si1 2.470979 1_555
Ni13 Ni5 2.556392 1_554
Ni13 Ni4 2.556395 1_555
Ni13 Ni30 2.556401 1_554
Ni14 Si15 2.328235 1_455
Ni14 Si4 2.388179 1_555
Ni14 Si0 2.432208 1_555
Ni14 Si19 2.531749 1_554
Ni14 Ni6 2.648754 1_555
Ni14 Sc9 2.662422 1_554
Ni14 Sc7 2.674521 1_455
Ni14 Ni31 2.722006 1_555
Ni14 Sc3 2.832549 1_555
Ni14 Sc1 2.858379 1_555
Ni14 Ni33 2.871420 1_454
Ni15 Si20 2.361050 1_555
Ni15 Si11 2.377259 1_555
Ni15 Si5 2.384716 1_555
Ni15 Si4 2.440414 1_545
Ni15 Ni31 2.547003 1_545
Ni15 Ni24 2.556395 1_556
Ni15 Si6 2.619776 1_555
Ni15 Sc10 2.641834 1_555
Ni15 Ni16 2.699476 1_555
Ni15 Sc3 2.967471 1_545
Ni15 Sc9 2.978032 1_555
Ni16 Si11 2.356580 1_555
Ni16 Si1 2.356580 1_545
Ni16 Si4 2.413855 1_545
Ni16 Si9 2.413855 1_555
Ni16 Ni5 2.699467 1_555
Ni16 Sc3 2.730797 1_545
Ni16 Sc5 2.730797 1_555
Ni16 Sc6 2.944587 1_544
Ni16 Sc10 2.944587 1_555
Ni17 Si3 2.335238 1_555
Ni17 Si18 2.365511 1_555
Ni17 Si15 2.365511 1_555
Ni17 Sc11 2.772810 1_555
Ni17 Sc8 2.772810 1_555
Ni17 Ni32 2.781592 1_655
Ni17 Ni30 2.806356 1_554
Ni17 Ni4 2.806358 1_555
Ni17 Ni34 2.884650 1_555
Ni17 Sc1 2.923414 1_655
Ni17 Sc7 2.952333 1_555
Ni18 Si10 2.183173 1_555
Ni18 Si12 2.368277 1_555
Ni18 Si19 2.368287 1_655
Ni18 Ni19 2.511355 1_555
Ni18 Ni2 2.511361 1_556
Ni18 Ni35 2.583220 1_555
Ni18 Ni29 2.648746 1_555
Ni18 Ni33 2.648754 1_555
Ni18 Ni23 2.681418 1_556
Ni18 Sc0 2.681468 1_555
Ni18 Sc7 2.950005 1_556
Ni18 Sc4 2.950006 1_555
Ni19 Si7 2.243261 1_555
Ni19 Si13 2.360195 1_666
Ni19 Si12 2.360325 1_555
Ni19 Si2 2.360325 1_566
Ni19 Ni2 2.436967 1_556
Ni19 Ni23 2.511366 1_556
Ni19 Ni26 2.639238 1_566
Ni19 Ni35 2.639238 1_555
Ni19 Sc11 2.784986 1_555
Ni19 Sc8 2.784986 1_566
Ni19 Sc4 3.263429 1_555
Ni20 Si8 2.328235 1_555
Ni20 Si7 2.388179 1_555
Ni20 Si0 2.432208 1_555
Ni20 Si12 2.531749 1_555
Ni20 Ni7 2.547010 1_555
Ni20 Ni6 2.648746 1_555
Ni20 Sc2 2.662427 1_555
Ni20 Sc4 2.674522 1_555
Ni20 Ni22 2.722006 1_555
Ni20 Sc3 2.832549 1_555
Ni20 Sc1 2.858379 1_555
Ni20 Ni29 2.871420 1_555
Ni21 Si20 2.335238 1_555
Ni21 Si14 2.365511 1_555
Ni21 Si8 2.365511 1_555
Ni21 Sc6 2.772810 1_555
Ni21 Sc10 2.772810 1_555
Ni21 Ni32 2.781592 1_555
Ni21 Ni5 2.806365 1_555
Ni21 Sc1 2.923414 1_555
Ni21 Sc4 2.952322 1_555
Ni22 Si14 2.328235 1_555
Ni22 Si7 2.388179 1_555
Ni22 Si5 2.432208 1_565
Ni22 Si2 2.531749 1_566
Ni22 Ni27 2.547003 1_565
Ni22 Ni8 2.648744 1_565
Ni22 Sc2 2.662419 1_566
Ni22 Sc4 2.674518 1_555
Ni22 Sc3 2.832549 1_555
Ni22 Sc1 2.858379 1_555
Ni22 Ni28 2.871420 1_566
Ni23 Si17 2.183164 1_555
Ni23 Si6 2.368284 1_665
Ni23 Si2 2.368284 1_565
Ni23 Ni26 2.583227 1_565
Ni23 Ni25 2.648744 1_565
Ni23 Ni28 2.648744 1_565
Ni23 Sc0 2.681465 1_565
Ni23 Sc7 2.949998 1_555
Ni23 Sc4 2.950005 1_554
Ni24 Si5 2.282599 1_554
Ni24 Si0 2.282599 1_555
Ni24 Si20 2.461019 1_554
Ni24 Si3 2.461019 1_555
Ni24 Si11 2.470979 1_554
Ni24 Si1 2.470979 1_555
Ni24 Ni7 2.556392 1_555
Ni24 Ni27 2.556395 1_554
Ni25 Si6 2.328235 1_655
Ni25 Si16 2.388179 1_555
Ni25 Si17 2.432208 1_545
Ni25 Si18 2.531749 1_545
Ni25 Ni4 2.547003 1_545
Ni25 Sc7 2.662422 1_545
Ni25 Sc9 2.674521 1_655
Ni25 Ni33 2.722006 1_555
Ni25 Sc5 2.832549 1_555
Ni25 Sc0 2.858379 1_555
Ni25 Ni31 2.871420 1_645
Ni26 Si6 2.517603 1_655
Ni26 Si2 2.517603 1_555
Ni26 Si13 2.608985 1_655
Ni26 Sc10 2.661523 1_655
Ni26 Sc8 2.661523 1_555
Ni26 Ni32 2.677305 1_655
Ni26 Sc0 2.728862 1_555
Ni26 Ni34 2.781592 1_555
Ni27 Si3 2.361050 1_556
Ni27 Si11 2.377259 1_555
Ni27 Si5 2.384716 1_555
Ni27 Si7 2.440414 1_545
Ni27 Si2 2.619776 1_556
Ni27 Sc8 2.641834 1_556
Ni27 Ni9 2.699476 1_555
Ni27 Ni34 2.806358 1_556
Ni27 Sc3 2.967471 1_545
Ni27 Sc2 2.978024 1_556
Ni28 Si2 2.328235 1_555
Ni28 Si9 2.388179 1_555
Ni28 Si17 2.432208 1_545
Ni28 Si14 2.531749 1_544
Ni28 Sc4 2.662419 1_544
Ni28 Sc2 2.674518 1_555
Ni28 Ni29 2.722006 1_555
Ni28 Sc5 2.832549 1_555
Ni28 Sc0 2.858379 1_555
Ni29 Si12 2.328235 1_555
Ni29 Si9 2.388179 1_555
Ni29 Si10 2.432208 1_555
Ni29 Si8 2.531749 1_555
Ni29 Ni5 2.547010 1_555
Ni29 Sc4 2.662427 1_555
Ni29 Sc2 2.674522 1_555
Ni29 Sc5 2.832549 1_555
Ni29 Sc0 2.858379 1_555
Ni30 Si3 2.361046 1_556
Ni30 Si11 2.377258 1_555
Ni30 Si10 2.384727 1_555
Ni30 Si16 2.440410 1_555
Ni30 Ni33 2.547010 1_555
Ni30 Si15 2.619775 1_556
Ni30 Sc8 2.641823 1_556
Ni30 Ni9 2.699468 1_555
Ni30 Sc5 2.967474 1_555
Ni30 Sc7 2.978041 1_556
Ni31 Si18 2.328235 1_455
Ni31 Si4 2.388179 1_555
Ni31 Si5 2.432208 1_565
Ni31 Si6 2.531749 1_565
Ni31 Ni8 2.648744 1_565
Ni31 Sc9 2.662422 1_565
Ni31 Sc7 2.674521 1_455
Ni31 Sc3 2.832549 1_555
Ni31 Sc1 2.858379 1_555
Ni32 Si8 2.517603 1_555
Ni32 Si15 2.517603 1_455
Ni32 Ni6 2.583220 1_555
Ni32 Si13 2.608985 1_555
Ni32 Sc8 2.661523 1_455
Ni32 Sc10 2.661523 1_555
Ni32 Sc1 2.728862 1_555
Ni33 Si19 2.328235 1_655
Ni33 Si16 2.388179 1_555
Ni33 Si10 2.432208 1_555
Ni33 Si15 2.531749 1_556
Ni33 Sc7 2.662422 1_556
Ni33 Sc9 2.674521 1_655
Ni33 Sc5 2.832549 1_555
Ni33 Sc0 2.858379 1_555
Ni34 Si3 2.335238 1_555
Ni34 Si2 2.365511 1_555
Ni34 Si12 2.365511 1_555
Ni34 Sc11 2.772810 1_555
Ni34 Sc8 2.772810 1_555
Ni34 Ni35 2.781592 1_555
Ni34 Ni7 2.806365 1_555
Ni34 Sc0 2.923414 1_555
Ni34 Sc2 2.952322 1_555
Ni35 Si19 2.517603 1_655
Ni35 Si12 2.517603 1_555
Ni35 Si13 2.608985 1_666
Ni35 Sc6 2.661523 1_655
Ni35 Sc11 2.661523 1_555
Ni35 Sc0 2.728862 1_555
