# generated using pymatgen
data_Na2UO4
_symmetry_space_group_name_H-M   'P 1'
_cell_length_a   3.49941152
_cell_length_b   5.66023308
_cell_length_c   9.68691987
_cell_angle_alpha   90.00000000
_cell_angle_beta   90.00000000
_cell_angle_gamma   90.00000000
_symmetry_Int_Tables_number   1
_chemical_formula_structural   Na2UO4
_chemical_formula_sum   'Na4 U2 O8'
_cell_volume   191.87351853
_cell_formula_units_Z   2
loop_
 _symmetry_equiv_pos_site_id
 _symmetry_equiv_pos_as_xyz
  1  'x, y, z'
loop_
 _atom_site_type_symbol
 _atom_site_label
 _atom_site_symmetry_multiplicity
 _atom_site_fract_x
 _atom_site_fract_y
 _atom_site_fract_z
 _atom_site_occupancy
  Na  Na0  1  0.50000000  0.44251198  0.18485122  1
  Na  Na1  1  0.50000000  0.05748802  0.68485122  1
  Na  Na2  1  0.50000000  0.94251198  0.31514878  1
  Na  Na3  1  0.50000000  0.55748802  0.81514878  1
  U  U0  1  0.00000000  0.00000000  0.00000000  1
  U  U1  1  -0.00000000  0.50000000  0.50000000  1
  O  O0  1  -0.00000000  0.35288981  0.67920358  1
  O  O1  1  0.50000000  0.28819690  0.44596393  1
  O  O2  1  0.00000000  0.85288981  0.82079642  1
  O  O3  1  0.50000000  0.71180310  0.55403607  1
  O  O4  1  0.00000000  0.64711019  0.32079642  1
  O  O5  1  0.50000000  0.21180310  0.94596393  1
  O  O6  1  -0.00000000  0.14711019  0.17920358  1
  O  O7  1  0.50000000  0.78819690  0.05403607  1
loop_
_geom_bond_atom_site_label_1
_geom_bond_atom_site_label_2
_geom_bond_distance
_geom_bond_site_symmetry_2
Na0 O7 2.331157 1_555
Na0 O6 2.420783 1_555
Na0 O6 2.420783 1_655
Na0 O4 2.477257 1_555
Na0 O4 2.477257 1_655
Na0 O5 2.657115 1_554
Na0 O1 2.675945 1_555
Na1 O3 2.331157 1_545
Na1 O0 2.420783 1_655
Na1 O0 2.420783 1_555
Na1 O2 2.477257 1_645
Na1 O2 2.477257 1_545
Na1 O1 2.657115 1_555
Na1 O5 2.675945 1_555
Na2 O1 2.331157 1_565
Na2 O4 2.420783 1_655
Na2 O4 2.420783 1_555
Na2 O6 2.477257 1_565
Na2 O6 2.477257 1_665
Na2 O3 2.657115 1_555
Na2 O7 2.675945 1_555
Na3 O5 2.331157 1_555
Na3 O2 2.420783 1_555
Na3 O2 2.420783 1_655
Na3 O0 2.477257 1_555
Na3 O0 2.477257 1_655
Na3 O7 2.657115 1_556
Na3 O3 2.675945 1_555
O0 U1 1.925307 1_555
O1 U1 2.184655 1_655
O1 U1 2.184655 1_555
O2 U0 1.925307 1_566
O3 U1 2.184655 1_655
O3 U1 2.184655 1_555
O4 U1 1.925307 1_555
O5 U0 2.184655 1_556
O5 U0 2.184655 1_656
O6 U0 1.925307 1_555
O7 U0 2.184655 1_665
O7 U0 2.184655 1_565
