# generated using pymatgen
data_Na2Cd(SiO3)2
_symmetry_space_group_name_H-M   'P 1'
_cell_length_a   7.55692300
_cell_length_b   10.54744600
_cell_length_c   10.66211700
_cell_angle_alpha   90.00000000
_cell_angle_beta   90.00000000
_cell_angle_gamma   90.00000000
_symmetry_Int_Tables_number   1
_chemical_formula_structural   Na2Cd(SiO3)2
_chemical_formula_sum   'Na12 Cd6 Si12 O36'
_cell_volume   849.83722739
_cell_formula_units_Z   6
loop_
 _symmetry_equiv_pos_site_id
 _symmetry_equiv_pos_as_xyz
  1  'x, y, z'
loop_
 _atom_site_type_symbol
 _atom_site_label
 _atom_site_symmetry_multiplicity
 _atom_site_fract_x
 _atom_site_fract_y
 _atom_site_fract_z
 _atom_site_occupancy
  Na  Na0  1  0.23320000  0.25566600  0.50812900  1
  Na  Na1  1  0.49494600  0.00000000  0.49089700  1
  Na  Na2  1  0.27224600  0.00000000  0.72652500  1
  Na  Na3  1  0.76680000  0.75566600  0.00812900  1
  Na  Na4  1  0.28273900  0.27446100  0.98093200  1
  Na  Na5  1  0.28273900  0.72553900  0.98093200  1
  Na  Na6  1  0.76680000  0.24433400  0.00812900  1
  Na  Na7  1  0.23320000  0.74433400  0.50812900  1
  Na  Na8  1  0.71726100  0.22553900  0.48093200  1
  Na  Na9  1  0.72775400  0.50000000  0.22652500  1
  Na  Na10  1  0.71726100  0.77446100  0.48093200  1
  Na  Na11  1  0.50505400  0.50000000  0.99089700  1
  Cd  Cd0  1  0.98213700  0.50000000  0.49737400  1
  Cd  Cd1  1  0.73489800  0.50000000  0.75427800  1
  Cd  Cd2  1  0.74933600  0.00000000  0.24704400  1
  Cd  Cd3  1  0.25066400  0.50000000  0.74704400  1
  Cd  Cd4  1  0.01786300  0.00000000  0.99737400  1
  Cd  Cd5  1  0.26510200  0.00000000  0.25427800  1
  Si  Si0  1  0.03191200  0.72176000  0.24070800  1
  Si  Si1  1  0.50083800  0.50000000  0.46426200  1
  Si  Si2  1  0.96808800  0.77824000  0.74070800  1
  Si  Si3  1  0.99794000  0.00000000  0.52822100  1
  Si  Si4  1  0.96808800  0.22176000  0.74070800  1
  Si  Si5  1  0.46595200  0.72195500  0.25542400  1
  Si  Si6  1  0.49916200  0.00000000  0.96426200  1
  Si  Si7  1  0.00206000  0.50000000  0.02822100  1
  Si  Si8  1  0.53404800  0.22195500  0.75542400  1
  Si  Si9  1  0.03191200  0.27824000  0.24070800  1
  Si  Si10  1  0.46595200  0.27804500  0.25542400  1
  Si  Si11  1  0.53404800  0.77804500  0.75542400  1
  O  O0  1  0.01965700  0.36302000  0.68885900  1
  O  O1  1  0.24734600  0.28235300  0.26060000  1
  O  O2  1  0.98034300  0.13698000  0.18885900  1
  O  O3  1  0.47921500  0.63683400  0.80303900  1
  O  O4  1  0.80801600  0.00000000  0.46058800  1
  O  O5  1  0.75265400  0.21764700  0.76060000  1
  O  O6  1  0.32299400  0.00000000  0.05373400  1
  O  O7  1  0.98125800  0.37515200  0.12309400  1
  O  O8  1  0.67700600  0.50000000  0.55373400  1
  O  O9  1  0.24734600  0.71764700  0.26060000  1
  O  O10  1  0.46040000  0.17139200  0.62394400  1
  O  O11  1  0.53960000  0.67139200  0.12394400  1
  O  O12  1  0.52823300  0.62492600  0.37175900  1
  O  O13  1  0.17990900  0.00000000  0.44782900  1
  O  O14  1  0.46040000  0.82860800  0.62394400  1
  O  O15  1  0.47176700  0.87507400  0.87175900  1
  O  O16  1  0.19198400  0.50000000  0.96058800  1
  O  O17  1  0.52078500  0.86316600  0.30303900  1
  O  O18  1  0.05747800  0.17247500  0.87011300  1
  O  O19  1  0.69481300  0.00000000  0.02804800  1
  O  O20  1  0.01965700  0.63698000  0.68885900  1
  O  O21  1  0.01874200  0.87515200  0.62309400  1
  O  O22  1  0.98034300  0.86302000  0.18885900  1
  O  O23  1  0.98125800  0.62484800  0.12309400  1
  O  O24  1  0.53960000  0.32860800  0.12394400  1
  O  O25  1  0.94252200  0.67247500  0.37011300  1
  O  O26  1  0.75265400  0.78235300  0.76060000  1
  O  O27  1  0.52078500  0.13683400  0.30303900  1
  O  O28  1  0.47921500  0.36316600  0.80303900  1
  O  O29  1  0.47176700  0.12492600  0.87175900  1
  O  O30  1  0.01874200  0.12484800  0.62309400  1
  O  O31  1  0.82009100  0.50000000  0.94782900  1
  O  O32  1  0.52823300  0.37507400  0.37175900  1
  O  O33  1  0.05747800  0.82752500  0.87011300  1
  O  O34  1  0.30518700  0.50000000  0.52804800  1
  O  O35  1  0.94252200  0.32752500  0.37011300  1
loop_
_geom_bond_atom_site_label_1
_geom_bond_atom_site_label_2
_geom_bond_distance
_geom_bond_site_symmetry_2
Na0 O10 2.294073 1_555
Na0 O30 2.456182 1_555
Na0 O34 2.642439 1_555
Na0 O1 2.656303 1_555
Na0 O35 2.750470 1_455
Na0 O0 2.756708 1_555
Na0 O13 2.801305 1_555
Na0 O32 2.944684 1_555
Na1 O10 2.312666 1_555
Na1 O14 2.312666 1_545
Na1 O4 2.387814 1_555
Na1 O13 2.424591 1_555
Na1 O27 2.476482 1_555
Na1 O17 2.476482 1_545
Na2 O29 2.531287 1_555
Na2 O15 2.531287 1_545
Na2 O14 2.546743 1_545
Na2 O10 2.546743 1_555
Na2 O30 2.572962 1_555
Na2 O21 2.572962 1_545
Na2 O18 2.878763 1_555
Na2 O33 2.878763 1_545
Na3 O11 2.294073 1_555
Na3 O23 2.456182 1_555
Na3 O19 2.642439 1_565
Na3 O26 2.656303 1_554
Na3 O33 2.750470 1_654
Na3 O22 2.756708 1_555
Na3 O31 2.801305 1_554
Na3 O15 2.944684 1_554
Na4 O18 2.334730 1_555
Na4 O29 2.425501 1_555
Na4 O16 2.485234 1_555
Na4 O24 2.533575 1_556
Na4 O28 2.584065 1_555
Na5 O33 2.334730 1_555
Na5 O15 2.425501 1_555
Na5 O16 2.485234 1_555
Na5 O11 2.533575 1_556
Na5 O3 2.584065 1_555
Na6 O24 2.294073 1_555
Na6 O7 2.456182 1_555
Na6 O19 2.642439 1_555
Na6 O5 2.656303 1_554
Na6 O18 2.750470 1_654
Na6 O2 2.756708 1_555
Na6 O31 2.801305 1_554
Na6 O29 2.944684 1_554
Na7 O14 2.294073 1_555
Na7 O21 2.456182 1_555
Na7 O34 2.642439 1_555
Na7 O9 2.656303 1_555
Na7 O25 2.750470 1_455
Na7 O20 2.756708 1_555
Na7 O13 2.801305 1_565
Na7 O12 2.944684 1_555
Na8 O35 2.334730 1_555
Na8 O32 2.425501 1_555
Na8 O4 2.485234 1_555
Na8 O10 2.533575 1_555
Na8 O27 2.584065 1_555
Na9 O12 2.531287 1_555
Na9 O32 2.531287 1_555
Na9 O11 2.546743 1_555
Na9 O24 2.546743 1_555
Na9 O23 2.572962 1_555
Na9 O7 2.572962 1_555
Na9 O25 2.878763 1_555
Na9 O35 2.878763 1_555
Na10 O25 2.334730 1_555
Na10 O12 2.425501 1_555
Na10 O4 2.485234 1_565
Na10 O14 2.533575 1_555
Na10 O17 2.584065 1_555
Na11 O11 2.312666 1_556
Na11 O24 2.312666 1_556
Na11 O16 2.387814 1_555
Na11 O31 2.424591 1_555
Na11 O28 2.476482 1_555
Na11 O3 2.476482 1_555
Cd0 O25 2.289127 1_555
Cd0 O35 2.289127 1_555
Cd0 O8 2.382866 1_555
Cd0 O34 2.463074 1_655
Cd0 O0 2.517158 1_655
Cd0 O20 2.517158 1_655
Cd1 O31 2.161754 1_555
Cd1 O8 2.182520 1_555
Cd1 O3 2.467097 1_555
Cd1 O28 2.467097 1_555
Cd1 O0 2.684141 1_655
Cd1 O20 2.684141 1_655
Cd2 O4 2.319612 1_555
Cd2 O27 2.328611 1_555
Cd2 O17 2.328611 1_545
Cd2 O22 2.349416 1_545
Cd2 O2 2.349416 1_555
Cd2 O19 2.371035 1_555
Cd3 O16 2.319612 1_555
Cd3 O28 2.328611 1_555
Cd3 O3 2.328611 1_555
Cd3 O0 2.349416 1_555
Cd3 O20 2.349416 1_555
Cd3 O34 2.371035 1_555
Cd4 O18 2.289127 1_555
Cd4 O33 2.289127 1_545
Cd4 O6 2.382866 1_556
Cd4 O19 2.463074 1_456
Cd4 O22 2.517158 1_446
Cd4 O2 2.517158 1_456
Cd5 O13 2.161754 1_555
Cd5 O6 2.182520 1_555
Cd5 O27 2.467097 1_555
Cd5 O17 2.467097 1_545
Cd5 O22 2.684141 1_445
Cd5 O2 2.684141 1_455
O0 Si4 1.636269 1_455
O1 Si9 1.642348 1_555
O1 Si10 1.653535 1_555
O2 Si9 1.636269 1_655
O3 Si11 1.627205 1_555
O4 Si3 1.606212 1_555
O5 Si4 1.642348 1_555
O5 Si8 1.653535 1_555
O6 Si6 1.637794 1_554
O7 Si9 1.662504 1_655
O7 Si7 1.667925 1_655
O8 Si1 1.637794 1_555
O9 Si0 1.642348 1_555
O9 Si5 1.653535 1_555
O10 Si8 1.599803 1_555
O11 Si5 1.599803 1_555
O12 Si1 1.658856 1_555
O12 Si5 1.675534 1_555
O13 Si3 1.620393 1_455
O14 Si11 1.599803 1_555
O15 Si6 1.658856 1_565
O15 Si11 1.675534 1_555
O16 Si7 1.606212 1_556
O17 Si5 1.627205 1_555
O18 Si4 1.621789 1_455
O19 Si6 1.627436 1_554
O20 Si2 1.636269 1_455
O21 Si2 1.662504 1_455
O21 Si3 1.667925 1_465
O22 Si0 1.636269 1_655
O23 Si0 1.662504 1_655
O23 Si7 1.667925 1_655
O24 Si10 1.599803 1_555
O25 Si0 1.621789 1_655
O26 Si2 1.642348 1_555
O26 Si11 1.653535 1_555
O27 Si10 1.627205 1_555
O28 Si8 1.627205 1_555
O29 Si6 1.658856 1_555
O29 Si8 1.675534 1_555
O30 Si4 1.662504 1_455
O30 Si3 1.667925 1_455
O31 Si7 1.620393 1_656
O32 Si1 1.658856 1_555
O32 Si10 1.675534 1_555
O33 Si2 1.621789 1_455
O34 Si1 1.627436 1_555
O35 Si9 1.621789 1_655
