# generated using pymatgen
data_ZrB2O5
_symmetry_space_group_name_H-M   'P 1'
_cell_length_a   6.94176839
_cell_length_b   4.40742382
_cell_length_c   8.99665017
_cell_angle_alpha   89.10666455
_cell_angle_beta   90.00000000
_cell_angle_gamma   90.00000000
_symmetry_Int_Tables_number   1
_chemical_formula_structural   ZrB2O5
_chemical_formula_sum   'Zr4 B8 O20'
_cell_volume   275.22189250
_cell_formula_units_Z   4
loop_
 _symmetry_equiv_pos_site_id
 _symmetry_equiv_pos_as_xyz
  1  'x, y, z'
loop_
 _atom_site_type_symbol
 _atom_site_label
 _atom_site_symmetry_multiplicity
 _atom_site_fract_x
 _atom_site_fract_y
 _atom_site_fract_z
 _atom_site_occupancy
  Zr  Zr0  1  0.11250747  0.00122714  0.32897452  1
  Zr  Zr1  1  0.61250747  0.99877286  0.17102548  1
  Zr  Zr2  1  0.88749253  0.99877286  0.67102548  1
  Zr  Zr3  1  0.38749253  0.00122714  0.82897452  1
  B  B0  1  0.41301947  0.46436515  0.33399916  1
  B  B1  1  0.72983502  0.47293996  0.92326730  1
  B  B2  1  0.58698053  0.53563485  0.66600084  1
  B  B3  1  0.27016498  0.52706004  0.07673270  1
  B  B4  1  0.08698053  0.46436515  0.83399916  1
  B  B5  1  0.22983502  0.52706004  0.57673270  1
  B  B6  1  0.91301947  0.53563485  0.16600084  1
  B  B7  1  0.77016498  0.47293996  0.42326730  1
  O  O0  1  0.59055805  0.21395051  0.67922658  1
  O  O1  1  0.34493939  0.30704227  0.19232554  1
  O  O2  1  0.89569363  0.33116073  0.85005450  1
  O  O3  1  0.27887846  0.34863847  0.44602378  1
  O  O4  1  0.72112154  0.65136153  0.55397622  1
  O  O5  1  0.59745058  0.23227071  0.96752759  1
  O  O6  1  0.22112154  0.34863847  0.94602378  1
  O  O7  1  0.09055805  0.78604949  0.82077342  1
  O  O8  1  0.90254942  0.23227071  0.46752759  1
  O  O9  1  0.15506061  0.30704227  0.69232554  1
  O  O10  1  0.90944195  0.21395051  0.17922658  1
  O  O11  1  0.84493939  0.69295773  0.30767446  1
  O  O12  1  0.77887846  0.65136153  0.05397622  1
  O  O13  1  0.40944195  0.78604949  0.32077342  1
  O  O14  1  0.60430637  0.33116073  0.35005450  1
  O  O15  1  0.10430637  0.66883927  0.14994550  1
  O  O16  1  0.09745058  0.76772929  0.53247241  1
  O  O17  1  0.65506061  0.69295773  0.80767446  1
  O  O18  1  0.39569363  0.66883927  0.64994550  1
  O  O19  1  0.40254942  0.76772929  0.03247241  1
loop_
_geom_bond_atom_site_label_1
_geom_bond_atom_site_label_2
_geom_bond_distance
_geom_bond_site_symmetry_2
B0 O13 1.421151 1_555
B0 O14 1.458125 1_555
B0 O3 1.458414 1_555
B0 O1 1.535014 1_555
B1 O5 1.454327 1_555
B1 O12 1.464914 1_556
B1 O2 1.470635 1_555
B1 O17 1.503269 1_555
B2 O0 1.421151 1_555
B2 O18 1.458125 1_555
B2 O4 1.458414 1_555
B2 O17 1.535014 1_555
B3 O19 1.454327 1_555
B3 O6 1.464914 1_554
B3 O15 1.470635 1_555
B3 O1 1.503269 1_555
B4 O7 1.421151 1_555
B4 O2 1.458125 1_455
B4 O6 1.458414 1_555
B4 O9 1.535014 1_555
B5 O16 1.454327 1_555
B5 O3 1.464914 1_555
B5 O18 1.470635 1_555
B5 O9 1.503269 1_555
B6 O10 1.421151 1_555
B6 O15 1.458125 1_655
B6 O12 1.458414 1_555
B6 O11 1.535014 1_555
B7 O8 1.454327 1_555
B7 O4 1.464914 1_555
B7 O14 1.470635 1_555
B7 O11 1.503269 1_555
O0 Zr3 2.154468 1_555
O0 Zr2 2.270639 1_545
O1 Zr1 2.311007 1_545
O1 Zr0 2.424825 1_555
O2 Zr2 2.194811 1_545
O3 Zr0 2.199443 1_555
O4 Zr2 2.199443 1_555
O5 Zr1 2.088803 1_546
O5 Zr3 2.180498 1_555
O6 Zr3 2.199443 1_555
O7 Zr2 2.154468 1_455
O7 Zr3 2.270639 1_565
O8 Zr2 2.088803 1_545
O8 Zr0 2.180498 1_655
O9 Zr2 2.311007 1_445
O9 Zr3 2.424825 1_555
O10 Zr0 2.154468 1_655
O10 Zr1 2.270639 1_545
O11 Zr0 2.311007 1_665
O11 Zr1 2.424825 1_555
O12 Zr1 2.199443 1_555
O13 Zr1 2.154468 1_555
O13 Zr0 2.270639 1_565
O14 Zr1 2.194811 1_545
O15 Zr0 2.194811 1_565
O16 Zr0 2.088803 1_565
O16 Zr2 2.180498 1_455
O17 Zr3 2.311007 1_565
O17 Zr2 2.424825 1_555
O18 Zr3 2.194811 1_565
O19 Zr3 2.088803 1_564
O19 Zr1 2.180498 1_555
