# generated using pymatgen
data_CsZr6CI14
_symmetry_space_group_name_H-M   'P 1'
_cell_length_a   11.03992870
_cell_length_b   11.03992870
_cell_length_c   13.22130100
_cell_angle_alpha   90.00000000
_cell_angle_beta   90.00000000
_cell_angle_gamma   93.90787412
_symmetry_Int_Tables_number   1
_chemical_formula_structural   CsZr6CI14
_chemical_formula_sum   'Cs2 Zr12 C2 I28'
_cell_volume   1607.66584564
_cell_formula_units_Z   2
loop_
 _symmetry_equiv_pos_site_id
 _symmetry_equiv_pos_as_xyz
  1  'x, y, z'
loop_
 _atom_site_type_symbol
 _atom_site_label
 _atom_site_symmetry_multiplicity
 _atom_site_fract_x
 _atom_site_fract_y
 _atom_site_fract_z
 _atom_site_occupancy
  Cs  Cs0  1  0.00000000  0.00000000  0.00000000  1
  Cs  Cs1  1  0.50000000  0.50000000  0.50000000  1
  Zr  Zr0  1  0.45712000  0.66379000  0.89424500  1
  Zr  Zr1  1  0.04288000  0.83621000  0.39424500  1
  Zr  Zr2  1  0.66379000  0.45712000  0.89424500  1
  Zr  Zr3  1  0.62553300  0.62553300  0.09331100  1
  Zr  Zr4  1  0.83621000  0.04288000  0.39424500  1
  Zr  Zr5  1  0.87446700  0.87446700  0.59331100  1
  Zr  Zr6  1  0.54288000  0.33621000  0.10575500  1
  Zr  Zr7  1  0.12553300  0.12553300  0.40668900  1
  Zr  Zr8  1  0.33621000  0.54288000  0.10575500  1
  Zr  Zr9  1  0.16379000  0.95712000  0.60575500  1
  Zr  Zr10  1  0.95712000  0.16379000  0.60575500  1
  Zr  Zr11  1  0.37446700  0.37446700  0.90668900  1
  C  C0  1  0.50000000  0.50000000  0.00000000  1
  C  C1  1  0.00000000  0.00000000  0.50000000  1
  I  I0  1  0.71122100  0.46456800  0.24559700  1
  I  I1  1  0.10888200  0.35682600  0.50682400  1
  I  I2  1  0.96456800  0.21122100  0.25440300  1
  I  I3  1  0.39111800  0.14317400  0.00682400  1
  I  I4  1  0.64317400  0.89111800  0.49317600  1
  I  I5  1  0.28877900  0.53543200  0.75440300  1
  I  I6  1  0.46456800  0.71122100  0.24559700  1
  I  I7  1  0.78877900  0.03543200  0.74559700  1
  I  I8  1  0.34866300  0.34866200  0.25654400  1
  I  I9  1  0.15133700  0.15133700  0.75654400  1
  I  I10  1  0.53543200  0.28877900  0.75440300  1
  I  I11  1  0.03543200  0.78877900  0.74559700  1
  I  I12  1  0.60624700  0.10624700  0.25000000  1
  I  I13  1  0.10624700  0.60624700  0.25000000  1
  I  I14  1  0.74917000  0.25083000  0.00000000  1
  I  I15  1  0.75083000  0.24917000  0.50000000  1
  I  I16  1  0.65133700  0.65133700  0.74345600  1
  I  I17  1  0.84866300  0.84866200  0.24345600  1
  I  I18  1  0.39375300  0.89375300  0.75000000  1
  I  I19  1  0.89111800  0.64317400  0.49317600  1
  I  I20  1  0.60888200  0.85682600  0.99317600  1
  I  I21  1  0.14317400  0.39111800  0.00682400  1
  I  I22  1  0.21122100  0.96456800  0.25440300  1
  I  I23  1  0.89375300  0.39375300  0.75000000  1
  I  I24  1  0.25083000  0.74917000  0.00000000  1
  I  I25  1  0.85682600  0.60888200  0.99317600  1
  I  I26  1  0.24917000  0.75083000  0.50000000  1
  I  I27  1  0.35682600  0.10888200  0.50682400  1
loop_
_geom_bond_atom_site_label_1
_geom_bond_atom_site_label_2
_geom_bond_distance
_geom_bond_site_symmetry_2
Cs0 I9 3.945001 1_554
Cs0 I17 3.945005 1_445
Cs0 I14 4.047411 1_455
Cs0 I24 4.047411 1_545
Cs0 I11 4.126539 1_544
Cs0 I22 4.126539 1_545
Cs0 I2 4.126539 1_455
Cs0 I7 4.126539 1_454
Cs0 I21 4.496736 1_555
Cs0 I3 4.496736 1_555
Cs0 I20 4.496736 1_444
Cs0 I25 4.496736 1_444
Cs1 I16 3.945001 1_555
Cs1 I8 3.945005 1_555
Cs1 I15 4.047411 1_555
Cs1 I26 4.047411 1_555
Cs1 I10 4.126539 1_555
Cs1 I5 4.126539 1_555
Cs1 I6 4.126539 1_555
Cs1 I0 4.126539 1_555
Cs1 I19 4.496736 1_555
Cs1 I4 4.496736 1_555
Cs1 I27 4.496736 1_555
Cs1 I1 4.496736 1_555
C0 Zr3 2.258651 1_555
C0 Zr11 2.258651 1_554
C0 Zr8 2.359129 1_555
C0 Zr6 2.359129 1_555
C0 Zr0 2.359129 1_554
C0 Zr2 2.359129 1_554
C1 Zr5 2.258651 1_445
C1 Zr7 2.258651 1_555
C1 Zr10 2.359129 1_455
C1 Zr9 2.359129 1_545
C1 Zr1 2.359129 1_545
C1 Zr4 2.359129 1_455
I0 Zr3 2.887173 1_555
I0 Zr6 2.919148 1_555
I1 Zr7 2.893211 1_555
I1 Zr10 2.927948 1_455
I2 Zr7 2.887173 1_655
I2 Zr4 2.919148 1_555
I3 Zr11 2.893211 1_554
I3 Zr6 2.927948 1_555
I4 Zr5 2.893211 1_555
I4 Zr4 2.927948 1_565
I5 Zr11 2.887173 1_555
I5 Zr0 2.919148 1_555
I6 Zr3 2.887173 1_555
I6 Zr8 2.919148 1_555
I7 Zr5 2.887173 1_545
I7 Zr10 2.919148 1_555
I8 Zr6 2.937851 1_555
I8 Zr8 2.937860 1_555
I9 Zr9 2.937852 1_545
I9 Zr10 2.937852 1_455
I10 Zr11 2.887173 1_555
I10 Zr2 2.919148 1_555
I11 Zr5 2.887173 1_455
I11 Zr9 2.919148 1_555
I12 Zr4 3.288451 1_555
I12 Zr6 3.288451 1_555
I13 Zr1 3.288451 1_555
I13 Zr8 3.288451 1_555
I14 Zr2 2.884920 1_554
I14 Zr6 2.884920 1_555
I15 Zr10 2.884920 1_555
I15 Zr4 2.884920 1_555
I16 Zr0 2.937852 1_555
I16 Zr2 2.937852 1_555
I17 Zr1 2.937851 1_655
I17 Zr4 2.937860 1_565
I18 Zr0 3.288451 1_555
I18 Zr9 3.288451 1_555
I19 Zr5 2.893211 1_555
I19 Zr1 2.927948 1_655
I20 Zr3 2.893211 1_556
I20 Zr0 2.927948 1_555
I21 Zr11 2.893211 1_554
I21 Zr8 2.927948 1_555
I22 Zr7 2.887173 1_565
I22 Zr1 2.919148 1_555
I23 Zr2 3.288451 1_555
I23 Zr10 3.288451 1_555
I24 Zr0 2.884920 1_554
I24 Zr8 2.884920 1_555
I25 Zr3 2.893211 1_556
I25 Zr2 2.927948 1_555
I26 Zr9 2.884920 1_555
I26 Zr1 2.884920 1_555
I27 Zr7 2.893211 1_555
I27 Zr9 2.927948 1_545
