# generated using pymatgen
data_Ce3(CuSn)4
_symmetry_space_group_name_H-M   'P 1'
_cell_length_a   8.57456915
_cell_length_b   8.57456915
_cell_length_c   8.57456915
_cell_angle_alpha   148.70425791
_cell_angle_beta   132.03150089
_cell_angle_gamma   58.39659529
_symmetry_Int_Tables_number   1
_chemical_formula_structural   Ce3(CuSn)4
_chemical_formula_sum   'Ce3 Cu4 Sn4'
_cell_volume   241.34871009
_cell_formula_units_Z   1
loop_
 _symmetry_equiv_pos_site_id
 _symmetry_equiv_pos_as_xyz
  1  'x, y, z'
loop_
 _atom_site_type_symbol
 _atom_site_label
 _atom_site_symmetry_multiplicity
 _atom_site_fract_x
 _atom_site_fract_y
 _atom_site_fract_z
 _atom_site_occupancy
  Ce  Ce0  1  0.13301900  0.13301900  0.00000000  1
  Ce  Ce1  1  0.86698100  0.86698100  0.00000000  1
  Ce  Ce2  1  0.50000000  0.00000000  0.50000000  1
  Cu  Cu0  1  0.51566500  0.33232500  0.18334000  1
  Cu  Cu1  1  0.48433500  0.66767500  0.81666000  1
  Cu  Cu2  1  0.85101600  0.66767500  0.18334000  1
  Cu  Cu3  1  0.14898400  0.33232500  0.81666000  1
  Sn  Sn0  1  0.71648800  0.21648800  0.50000000  1
  Sn  Sn1  1  0.28351200  0.78351200  0.50000000  1
  Sn  Sn2  1  0.20236600  0.50000000  0.70236600  1
  Sn  Sn3  1  0.79763400  0.50000000  0.29763400  1
loop_
_geom_bond_atom_site_label_1
_geom_bond_atom_site_label_2
_geom_bond_distance
_geom_bond_site_symmetry_2
Ce0 Sn1 3.228692 1_555
Ce0 Sn1 3.228692 1_544
Ce0 Cu2 3.238928 1_455
Ce0 Cu1 3.238931 1_544
Ce0 Cu1 3.238931 1_555
Ce0 Cu2 3.238931 1_444
Ce0 Cu3 3.245831 1_554
Ce0 Cu0 3.245836 1_555
Ce0 Sn3 3.362173 1_444
Ce0 Sn2 3.362173 1_555
Ce0 Sn3 3.362173 1_455
Ce0 Sn2 3.362173 1_544
Ce1 Sn0 3.228692 1_554
Ce1 Sn0 3.228692 1_565
Ce1 Cu3 3.238928 1_654
Ce1 Cu0 3.238931 1_554
Ce1 Cu0 3.238931 1_565
Ce1 Cu3 3.238931 1_665
Ce1 Cu2 3.245831 1_555
Ce1 Cu1 3.245836 1_554
Ce1 Sn2 3.362173 1_665
Ce1 Sn3 3.362173 1_554
Ce1 Sn3 3.362173 1_565
Ce1 Sn2 3.362173 1_654
Ce2 Sn3 3.107021 1_545
Ce2 Sn3 3.107021 1_556
Ce2 Sn2 3.107021 1_544
Ce2 Sn2 3.107021 1_555
Ce2 Sn1 3.240849 1_545
Ce2 Sn0 3.240849 1_555
Cu0 Cu3 2.556084 1_554
Cu0 Sn3 2.633523 1_555
Cu0 Sn1 2.741582 1_555
Cu0 Sn1 2.741582 1_544
Cu0 Sn0 2.807077 1_555
Cu1 Cu2 2.556084 1_556
Cu1 Sn2 2.633523 1_555
Cu1 Sn0 2.741582 1_555
Cu1 Sn0 2.741582 1_566
Cu1 Sn1 2.807077 1_555
Cu2 Sn3 2.633530 1_555
Cu2 Sn0 2.741580 1_554
Cu2 Sn0 2.741584 1_565
Cu2 Sn1 2.807070 1_655
Cu3 Sn2 2.633530 1_555
Cu3 Sn1 2.741580 1_556
Cu3 Sn1 2.741584 1_545
Cu3 Sn0 2.807070 1_455
Sn2 Sn3 2.821337 1_455
