# generated using pymatgen
data_SbS3N2Cl7
_symmetry_space_group_name_H-M   'P 1'
_cell_length_a   13.23671100
_cell_length_b   15.00581700
_cell_length_c   15.41978612
_cell_angle_alpha   88.58169434
_cell_angle_beta   90.00000000
_cell_angle_gamma   90.00000000
_symmetry_Int_Tables_number   1
_chemical_formula_structural   SbS3N2Cl7
_chemical_formula_sum   'Sb8 S24 N16 Cl56'
_cell_volume   3061.85773926
_cell_formula_units_Z   8
loop_
 _symmetry_equiv_pos_site_id
 _symmetry_equiv_pos_as_xyz
  1  'x, y, z'
loop_
 _atom_site_type_symbol
 _atom_site_label
 _atom_site_symmetry_multiplicity
 _atom_site_fract_x
 _atom_site_fract_y
 _atom_site_fract_z
 _atom_site_occupancy
  Sb  Sb0  1  0.17114500  0.17363100  0.55643700  1
  Sb  Sb1  1  0.63912000  0.79727000  0.91466400  1
  Sb  Sb2  1  0.67114500  0.32636900  0.44356300  1
  Sb  Sb3  1  0.32885500  0.67363100  0.55643700  1
  Sb  Sb4  1  0.13912000  0.70273000  0.08533600  1
  Sb  Sb5  1  0.82885500  0.82636900  0.44356300  1
  Sb  Sb6  1  0.36088000  0.20273000  0.08533600  1
  Sb  Sb7  1  0.86088000  0.29727000  0.91466400  1
  S  S0  1  0.94927800  0.61462000  0.65145500  1
  S  S1  1  0.44927800  0.88538000  0.34854500  1
  S  S2  1  0.78210700  0.64278100  0.66759600  1
  S  S3  1  0.21789300  0.35721900  0.33240400  1
  S  S4  1  0.70929600  0.59973800  0.29226800  1
  S  S5  1  0.28210700  0.85721900  0.33240400  1
  S  S6  1  0.55072200  0.11462000  0.65145500  1
  S  S7  1  0.78086700  0.59042800  0.12368800  1
  S  S8  1  0.33292600  0.03613000  0.31145400  1
  S  S9  1  0.16707400  0.53613000  0.31145400  1
  S  S10  1  0.71913300  0.09042800  0.12368800  1
  S  S11  1  0.71789300  0.14278100  0.66759600  1
  S  S12  1  0.88856200  0.10920900  0.13222200  1
  S  S13  1  0.29070400  0.40026200  0.70773200  1
  S  S14  1  0.38856200  0.39079100  0.86777900  1
  S  S15  1  0.66707400  0.96387000  0.68854600  1
  S  S16  1  0.28086700  0.90957200  0.87631200  1
  S  S17  1  0.61143800  0.60920900  0.13222200  1
  S  S18  1  0.83292600  0.46387000  0.68854600  1
  S  S19  1  0.79070400  0.09973800  0.29226800  1
  S  S20  1  0.11143800  0.89079100  0.86777900  1
  S  S21  1  0.20929600  0.90026200  0.70773200  1
  S  S22  1  0.05072200  0.38538000  0.34854500  1
  S  S23  1  0.21913300  0.40957200  0.87631200  1
  N  N0  1  0.24477600  0.45737300  0.30798800  1
  N  N1  1  0.93666600  0.51047000  0.65276900  1
  N  N2  1  0.43666600  0.98953000  0.34723100  1
  N  N3  1  0.70397800  0.08185400  0.22540600  1
  N  N4  1  0.61161600  0.62486900  0.23288700  1
  N  N5  1  0.56333400  0.01047000  0.65276900  1
  N  N6  1  0.20397800  0.41814600  0.77459400  1
  N  N7  1  0.88838400  0.12486900  0.23288700  1
  N  N8  1  0.11161600  0.87513100  0.76711300  1
  N  N9  1  0.06333400  0.48953000  0.34723100  1
  N  N10  1  0.75522400  0.54262700  0.69201200  1
  N  N11  1  0.74477600  0.04262700  0.69201200  1
  N  N12  1  0.25522400  0.95737300  0.30798800  1
  N  N13  1  0.79602200  0.58185400  0.22540600  1
  N  N14  1  0.29602200  0.91814600  0.77459400  1
  N  N15  1  0.38838400  0.37513100  0.76711300  1
  Cl  Cl0  1  0.87457300  0.82379300  0.59810300  1
  Cl  Cl1  1  0.20232000  0.15909000  0.15117300  1
  Cl  Cl2  1  0.94022200  0.97925800  0.11142500  1
  Cl  Cl3  1  0.42533600  0.23962700  0.22594100  1
  Cl  Cl4  1  0.76217500  0.46439300  0.46557100  1
  Cl  Cl5  1  0.44022200  0.52074200  0.88857500  1
  Cl  Cl6  1  0.23782500  0.53560700  0.53442900  1
  Cl  Cl7  1  0.58545200  0.18578000  0.42760300  1
  Cl  Cl8  1  0.12542700  0.17620700  0.40189700  1
  Cl  Cl9  1  0.70513300  0.83026900  0.05611200  1
  Cl  Cl10  1  0.49922800  0.15350900  0.77465100  1
  Cl  Cl11  1  0.82408500  0.24630900  0.47935800  1
  Cl  Cl12  1  0.41454800  0.81422000  0.57239700  1
  Cl  Cl13  1  0.28186100  0.67009500  0.70723400  1
  Cl  Cl14  1  0.73782500  0.96439300  0.46557100  1
  Cl  Cl15  1  0.08545200  0.31422000  0.57239700  1
  Cl  Cl16  1  0.17591500  0.75369100  0.52064200  1
  Cl  Cl17  1  0.29486700  0.16973100  0.94388800  1
  Cl  Cl18  1  0.48110000  0.75340000  0.97913100  1
  Cl  Cl19  1  0.79768000  0.84091000  0.84882700  1
  Cl  Cl20  1  0.50077200  0.84649100  0.22534900  1
  Cl  Cl21  1  0.57466400  0.76037300  0.77405900  1
  Cl  Cl22  1  0.05977800  0.02074200  0.88857500  1
  Cl  Cl23  1  0.57815900  0.94823400  0.89651200  1
  Cl  Cl24  1  0.00077200  0.65350900  0.77465100  1
  Cl  Cl25  1  0.79486700  0.33026900  0.05611200  1
  Cl  Cl26  1  0.78186100  0.82990500  0.29276600  1
  Cl  Cl27  1  0.67591500  0.74630900  0.47935800  1
  Cl  Cl28  1  0.70210900  0.64434100  0.93241100  1
  Cl  Cl29  1  0.52089200  0.40802600  0.41079700  1
  Cl  Cl30  1  0.26217500  0.03560700  0.53442900  1
  Cl  Cl31  1  0.07815900  0.55176600  0.10348800  1
  Cl  Cl32  1  0.20210900  0.85565900  0.06758900  1
  Cl  Cl33  1  0.42184100  0.05176600  0.10348800  1
  Cl  Cl34  1  0.29789100  0.35565900  0.06758900  1
  Cl  Cl35  1  0.20513300  0.66973100  0.94388800  1
  Cl  Cl36  1  0.92184100  0.44823400  0.89651200  1
  Cl  Cl37  1  0.55977800  0.47925800  0.11142500  1
  Cl  Cl38  1  0.71813900  0.32990500  0.29276600  1
  Cl  Cl39  1  0.51890000  0.24660000  0.02086900  1
  Cl  Cl40  1  0.47910800  0.59197400  0.58920300  1
  Cl  Cl41  1  0.32408500  0.25369100  0.52064200  1
  Cl  Cl42  1  0.70232000  0.34091000  0.84882700  1
  Cl  Cl43  1  0.29768000  0.65909000  0.15117300  1
  Cl  Cl44  1  0.98110000  0.74660000  0.02086900  1
  Cl  Cl45  1  0.21813900  0.17009500  0.70723400  1
  Cl  Cl46  1  0.91454800  0.68578000  0.42760300  1
  Cl  Cl47  1  0.92533600  0.26037300  0.77405900  1
  Cl  Cl48  1  0.02089200  0.09197400  0.58920300  1
  Cl  Cl49  1  0.79789100  0.14434100  0.93241100  1
  Cl  Cl50  1  0.01890000  0.25340000  0.97913100  1
  Cl  Cl51  1  0.07466400  0.73962700  0.22594100  1
  Cl  Cl52  1  0.97910800  0.90802600  0.41079700  1
  Cl  Cl53  1  0.62542700  0.32379300  0.59810300  1
  Cl  Cl54  1  0.99922800  0.34649100  0.22534900  1
  Cl  Cl55  1  0.37457300  0.67620700  0.40189700  1
loop_
_geom_bond_atom_site_label_1
_geom_bond_atom_site_label_2
_geom_bond_distance
_geom_bond_site_symmetry_2
N0 S9 1.568603 1_555
N0 S3 1.580837 1_555
N1 S0 1.571379 1_555
N1 S18 1.630902 1_555
N2 S1 1.571379 1_555
N2 S8 1.630902 1_565
N3 S19 1.570510 1_555
N3 S10 1.583320 1_555
N4 S17 1.575662 1_555
N4 S4 1.623352 1_555
N5 S6 1.571379 1_555
N5 S15 1.630902 1_545
N6 S13 1.570510 1_555
N6 S23 1.583320 1_555
N7 S12 1.575662 1_555
N7 S19 1.623352 1_555
N8 S20 1.575677 1_555
N8 S21 1.623352 1_555
N9 S22 1.571379 1_555
N9 S9 1.630902 1_555
N10 S18 1.568603 1_555
N10 S2 1.580837 1_555
N11 S15 1.568603 1_545
N11 S11 1.580837 1_555
N12 S8 1.568603 1_565
N12 S5 1.580837 1_555
N13 S4 1.570510 1_555
N13 S7 1.583320 1_555
N14 S21 1.570510 1_555
N14 S16 1.583320 1_555
N15 S14 1.575677 1_555
N15 S13 1.623352 1_555
Cl0 Sb5 2.457989 1_555
Cl1 Sb6 2.414861 1_555
Cl2 S12 2.098564 1_565
Cl3 Sb6 2.407188 1_555
Cl4 Sb2 2.427251 1_555
Cl5 S14 2.098561 1_555
Cl6 Sb3 2.427251 1_555
Cl7 Sb2 2.413198 1_555
Cl8 Sb0 2.457989 1_555
Cl9 Sb1 2.412337 1_554
Cl10 S6 2.113932 1_555
Cl11 Sb2 2.411098 1_555
Cl12 Sb3 2.413198 1_555
Cl13 Sb3 2.406340 1_555
Cl14 Sb5 2.427251 1_555
Cl15 Sb0 2.413198 1_555
Cl16 Sb3 2.411098 1_555
Cl17 Sb6 2.412337 1_556
Cl18 Sb1 2.400876 1_555
Cl19 Sb1 2.414861 1_555
Cl20 S1 2.113932 1_555
Cl21 Sb1 2.407188 1_555
Cl22 S20 2.098561 1_545
Cl23 Sb1 2.414506 1_555
Cl24 S0 2.113932 1_455
Cl25 Sb7 2.412337 1_554
Cl26 Sb5 2.406340 1_555
Cl27 Sb5 2.411098 1_555
Cl28 Sb1 2.450548 1_555
Cl29 Sb2 2.383612 1_555
Cl30 Sb0 2.427251 1_555
Cl31 Sb4 2.414506 1_555
Cl32 Sb4 2.450548 1_555
Cl33 Sb6 2.414506 1_555
Cl34 Sb6 2.450548 1_555
Cl35 Sb4 2.412337 1_556
Cl36 Sb7 2.414506 1_555
Cl37 S17 2.098564 1_555
Cl38 Sb2 2.406340 1_555
Cl39 Sb6 2.400876 1_555
Cl40 Sb3 2.383612 1_555
Cl41 Sb0 2.411098 1_555
Cl42 Sb7 2.414861 1_555
Cl43 Sb4 2.414861 1_555
Cl44 Sb4 2.400876 1_655
Cl45 Sb0 2.406340 1_555
Cl46 Sb5 2.413198 1_555
Cl47 Sb7 2.407188 1_555
Cl48 Sb0 2.383612 1_555
Cl49 Sb7 2.450548 1_555
Cl50 Sb7 2.400876 1_455
Cl51 Sb4 2.407188 1_555
Cl52 Sb5 2.383612 1_555
Cl53 Sb2 2.457989 1_555
Cl54 S22 2.113932 1_655
Cl55 Sb3 2.457989 1_555
