# generated using pymatgen
data_MgCl2
_symmetry_space_group_name_H-M   'P 1'
_cell_length_a   3.64433550
_cell_length_b   3.64433627
_cell_length_c   5.95717175
_cell_angle_alpha   90.00000000
_cell_angle_beta   90.00000000
_cell_angle_gamma   119.99999303
_symmetry_Int_Tables_number   1
_chemical_formula_structural   MgCl2
_chemical_formula_sum   'Mg1 Cl2'
_cell_volume   68.51845762
_cell_formula_units_Z   1
loop_
 _symmetry_equiv_pos_site_id
 _symmetry_equiv_pos_as_xyz
  1  'x, y, z'
loop_
 _atom_site_type_symbol
 _atom_site_label
 _atom_site_symmetry_multiplicity
 _atom_site_fract_x
 _atom_site_fract_y
 _atom_site_fract_z
 _atom_site_occupancy
  Mg  Mg0  1  0.00000000  -0.00000000  -0.00000000  1
  Cl  Cl0  1  0.33333300  0.66666700  0.22899248  1
  Cl  Cl1  1  0.66666700  0.33333300  0.77100752  1
loop_
_geom_bond_atom_site_label_1
_geom_bond_atom_site_label_2
_geom_bond_distance
_geom_bond_site_symmetry_2
Cl0 Mg0 2.507579 1_565
Cl0 Mg0 2.507581 1_665
Cl0 Mg0 2.507582 1_555
Cl1 Mg0 2.507579 1_656
Cl1 Mg0 2.507581 1_556
Cl1 Mg0 2.507582 1_666
