# generated using pymatgen
data_Li4Ni3P4O15
_symmetry_space_group_name_H-M   'P 1'
_cell_length_a   6.43708600
_cell_length_b   10.32644400
_cell_length_c   17.49305800
_cell_angle_alpha   90.00000000
_cell_angle_beta   90.00000000
_cell_angle_gamma   90.00000000
_symmetry_Int_Tables_number   1
_chemical_formula_structural   Li4Ni3P4O15
_chemical_formula_sum   'Li16 Ni12 P16 O60'
_cell_volume   1162.80219172
_cell_formula_units_Z   4
loop_
 _symmetry_equiv_pos_site_id
 _symmetry_equiv_pos_as_xyz
  1  'x, y, z'
loop_
 _atom_site_type_symbol
 _atom_site_label
 _atom_site_symmetry_multiplicity
 _atom_site_fract_x
 _atom_site_fract_y
 _atom_site_fract_z
 _atom_site_occupancy
  Li  Li0  1  0.23485600  0.51936600  0.00147100  1
  Li  Li1  1  0.11771600  0.95330000  0.03174400  1
  Li  Li2  1  0.84016900  0.17708700  0.09789600  1
  Li  Li3  1  0.29299300  0.76764800  0.20908200  1
  Li  Li4  1  0.79299300  0.26764800  0.29091800  1
  Li  Li5  1  0.34016900  0.67708700  0.40210400  1
  Li  Li6  1  0.61771600  0.45330000  0.46825600  1
  Li  Li7  1  0.73485600  0.01936600  0.49852900  1
  Li  Li8  1  0.23485600  0.98063400  0.50147100  1
  Li  Li9  1  0.11771600  0.54670000  0.53174400  1
  Li  Li10  1  0.84016900  0.32291300  0.59789600  1
  Li  Li11  1  0.29299300  0.73235200  0.70908200  1
  Li  Li12  1  0.79299300  0.23235200  0.79091800  1
  Li  Li13  1  0.34016900  0.82291300  0.90210400  1
  Li  Li14  1  0.61771600  0.04670000  0.96825600  1
  Li  Li15  1  0.73485600  0.48063400  0.99852900  1
  Ni  Ni0  1  0.48938400  0.51236600  0.13247900  1
  Ni  Ni1  1  0.50444700  0.00019000  0.17109800  1
  Ni  Ni2  1  0.23174200  0.25836200  0.23632000  1
  Ni  Ni3  1  0.73174200  0.75836200  0.26368000  1
  Ni  Ni4  1  0.00444700  0.50019000  0.32890200  1
  Ni  Ni5  1  0.98938400  0.01236600  0.36752100  1
  Ni  Ni6  1  0.48938400  0.98763400  0.63247900  1
  Ni  Ni7  1  0.50444700  0.49981000  0.67109800  1
  Ni  Ni8  1  0.23174200  0.24163800  0.73632000  1
  Ni  Ni9  1  0.73174200  0.74163800  0.76368000  1
  Ni  Ni10  1  0.00444700  0.99981000  0.82890200  1
  Ni  Ni11  1  0.98938400  0.48763400  0.86752100  1
  P  P0  1  0.54000700  0.78029000  0.04878800  1
  P  P1  1  0.36569100  0.23965200  0.06315800  1
  P  P2  1  0.98581200  0.51938000  0.17159700  1
  P  P3  1  0.99951700  0.99522400  0.20926400  1
  P  P4  1  0.49951700  0.49522400  0.29073600  1
  P  P5  1  0.48581200  0.01938000  0.32840300  1
  P  P6  1  0.86569100  0.73965200  0.43684200  1
  P  P7  1  0.04000700  0.28029000  0.45121200  1
  P  P8  1  0.54000700  0.71971000  0.54878800  1
  P  P9  1  0.36569100  0.26034800  0.56315800  1
  P  P10  1  0.98581200  0.98062000  0.67159700  1
  P  P11  1  0.99951700  0.50477600  0.70926400  1
  P  P12  1  0.49951700  0.00477600  0.79073600  1
  P  P13  1  0.48581200  0.48062000  0.82840300  1
  P  P14  1  0.86569100  0.76034800  0.93684200  1
  P  P15  1  0.04000700  0.21971000  0.95121200  1
  O  O0  1  0.40626400  0.87743700  0.00421600  1
  O  O1  1  0.77789900  0.81033400  0.01947800  1
  O  O2  1  0.49469600  0.63731100  0.03229800  1
  O  O3  1  0.45925100  0.37373900  0.04799100  1
  O  O4  1  0.53240800  0.13732300  0.08111700  1
  O  O5  1  0.79867400  0.50490400  0.11812400  1
  O  O6  1  0.18465400  0.23580700  0.11957200  1
  O  O7  1  0.18122000  0.54509000  0.12361200  1
  O  O8  1  0.54169900  0.81042600  0.13413400  1
  O  O9  1  0.81507300  0.01578500  0.15574400  1
  O  O10  1  0.18956100  0.95829600  0.15951600  1
  O  O11  1  0.00228400  0.39624400  0.22542900  1
  O  O12  1  0.96685900  0.63196100  0.23303500  1
  O  O13  1  0.46457400  0.38804700  0.22873300  1
  O  O14  1  0.52264600  0.62025200  0.23989800  1
  O  O15  1  0.02264600  0.12025200  0.26010200  1
  O  O16  1  0.96457400  0.88804700  0.27126700  1
  O  O17  1  0.46685900  0.13196100  0.26696500  1
  O  O18  1  0.50228400  0.89624400  0.27457100  1
  O  O19  1  0.68956100  0.45829600  0.34048400  1
  O  O20  1  0.31507300  0.51578500  0.34425600  1
  O  O21  1  0.04169900  0.31042600  0.36586600  1
  O  O22  1  0.68122000  0.04509000  0.37638800  1
  O  O23  1  0.68465400  0.73580700  0.38042800  1
  O  O24  1  0.29867400  0.00490400  0.38187600  1
  O  O25  1  0.03240800  0.63732300  0.41888300  1
  O  O26  1  0.95925100  0.87373900  0.45200900  1
  O  O27  1  0.99469600  0.13731100  0.46770200  1
  O  O28  1  0.27789900  0.31033400  0.48052200  1
  O  O29  1  0.90626400  0.37743700  0.49578400  1
  O  O30  1  0.40626400  0.62256300  0.50421600  1
  O  O31  1  0.77789900  0.68966600  0.51947800  1
  O  O32  1  0.49469600  0.86268900  0.53229800  1
  O  O33  1  0.45925100  0.12626100  0.54799100  1
  O  O34  1  0.53240800  0.36267700  0.58111700  1
  O  O35  1  0.79867400  0.99509600  0.61812400  1
  O  O36  1  0.18465400  0.26419300  0.61957200  1
  O  O37  1  0.18122000  0.95491000  0.62361200  1
  O  O38  1  0.54169900  0.68957400  0.63413400  1
  O  O39  1  0.81507300  0.48421500  0.65574400  1
  O  O40  1  0.18956100  0.54170400  0.65951600  1
  O  O41  1  0.00228400  0.10375600  0.72542900  1
  O  O42  1  0.96685900  0.86803900  0.73303500  1
  O  O43  1  0.46457400  0.11195300  0.72873300  1
  O  O44  1  0.52264600  0.87974800  0.73989800  1
  O  O45  1  0.02264600  0.37974800  0.76010200  1
  O  O46  1  0.96457400  0.61195300  0.77126700  1
  O  O47  1  0.46685900  0.36803900  0.76696500  1
  O  O48  1  0.50228400  0.60375600  0.77457100  1
  O  O49  1  0.68956100  0.04170400  0.84048400  1
  O  O50  1  0.31507300  0.98421500  0.84425600  1
  O  O51  1  0.04169900  0.18957400  0.86586600  1
  O  O52  1  0.68122000  0.45491000  0.87638800  1
  O  O53  1  0.68465400  0.76419300  0.88042800  1
  O  O54  1  0.29867400  0.49509600  0.88187600  1
  O  O55  1  0.03240800  0.86267700  0.91888300  1
  O  O56  1  0.95925100  0.62626100  0.95200900  1
  O  O57  1  0.99469600  0.36268900  0.96770200  1
  O  O58  1  0.27789900  0.18966600  0.98052200  1
  O  O59  1  0.90626400  0.12256300  0.99578400  1
loop_
_geom_bond_atom_site_label_1
_geom_bond_atom_site_label_2
_geom_bond_distance
_geom_bond_site_symmetry_2
Li0 O2 2.138186 1_555
Li0 O54 2.146713 1_554
Li0 O7 2.180576 1_555
Li0 O3 2.238328 1_555
Li0 O56 2.261531 1_454
Li0 O57 2.314413 1_454
Li1 O0 2.072574 1_555
Li1 O55 2.252797 1_554
Li1 O10 2.283050 1_555
Li1 O59 2.302932 1_464
Li2 O59 1.920604 1_554
Li2 O9 1.955657 1_555
Li2 O4 2.044372 1_555
Li2 O6 2.329952 1_655
Li3 O8 2.115906 1_555
Li3 O14 2.189216 1_555
Li3 O18 2.211525 1_555
Li3 O10 2.251872 1_555
Li3 O12 2.558537 1_455
Li4 O21 2.115906 1_655
Li4 O15 2.189216 1_655
Li4 O11 2.211525 1_655
Li4 O19 2.251872 1_555
Li4 O17 2.558537 1_555
Li5 O30 1.920604 1_555
Li5 O20 1.955657 1_555
Li5 O25 2.044372 1_555
Li5 O23 2.329952 1_555
Li6 O29 2.072574 1_555
Li6 O34 2.252797 1_555
Li6 O19 2.283050 1_555
Li6 O30 2.302932 1_555
Li7 O27 2.138186 1_555
Li7 O35 2.146713 1_545
Li7 O22 2.180576 1_555
Li7 O26 2.238328 1_545
Li7 O33 2.261531 1_555
Li7 O32 2.314413 1_545
Li8 O32 2.138186 1_555
Li8 O24 2.146713 1_565
Li8 O37 2.180576 1_555
Li8 O33 2.238328 1_565
Li8 O26 2.261531 1_455
Li8 O27 2.314413 1_465
Li9 O30 2.072574 1_555
Li9 O25 2.252797 1_555
Li9 O40 2.283050 1_555
Li9 O29 2.302932 1_455
Li10 O29 1.920604 1_555
Li10 O39 1.955657 1_555
Li10 O34 2.044372 1_555
Li10 O36 2.329952 1_655
Li11 O38 2.115906 1_555
Li11 O44 2.189216 1_555
Li11 O48 2.211525 1_555
Li11 O40 2.251872 1_555
Li11 O42 2.558537 1_455
Li12 O51 2.115906 1_655
Li12 O45 2.189216 1_655
Li12 O41 2.211525 1_655
Li12 O49 2.251872 1_555
Li12 O47 2.558537 1_555
Li13 O0 1.920604 1_556
Li13 O50 1.955657 1_555
Li13 O55 2.044372 1_555
Li13 O53 2.329952 1_555
Li14 O59 2.072574 1_555
Li14 O4 2.252797 1_556
Li14 O49 2.283050 1_555
Li14 O0 2.302932 1_546
Li15 O57 2.138186 1_555
Li15 O5 2.146713 1_556
Li15 O52 2.180576 1_555
Li15 O56 2.238328 1_555
Li15 O3 2.261531 1_556
Li15 O2 2.314413 1_556
Ni0 O5 2.008179 1_555
Ni0 O7 2.018225 1_555
Ni0 O3 2.066696 1_555
Ni0 O13 2.123366 1_555
Ni0 O2 2.176474 1_555
Ni0 O14 2.194990 1_555
Ni1 O9 2.023902 1_555
Ni1 O8 2.077400 1_545
Ni1 O10 2.082480 1_545
Ni1 O18 2.104443 1_545
Ni1 O4 2.124932 1_555
Ni1 O17 2.173125 1_555
Ni2 O15 2.004672 1_555
Ni2 O13 2.014277 1_555
Ni2 O11 2.060398 1_555
Ni2 O17 2.069227 1_555
Ni2 O6 2.077746 1_555
Ni3 O14 2.004672 1_555
Ni3 O16 2.014277 1_555
Ni3 O18 2.060398 1_555
Ni3 O12 2.069227 1_555
Ni3 O23 2.077746 1_555
Ni4 O20 2.023902 1_555
Ni4 O21 2.077400 1_555
Ni4 O19 2.082480 1_455
Ni4 O11 2.104443 1_555
Ni4 O25 2.124932 1_555
Ni4 O12 2.173125 1_455
Ni5 O24 2.008179 1_655
Ni5 O22 2.018225 1_555
Ni5 O26 2.066696 1_545
Ni5 O16 2.123366 1_545
Ni5 O27 2.176474 1_555
Ni5 O15 2.194990 1_655
Ni6 O35 2.008179 1_555
Ni6 O37 2.018225 1_555
Ni6 O33 2.066696 1_565
Ni6 O43 2.123366 1_565
Ni6 O32 2.176474 1_555
Ni6 O44 2.194990 1_555
Ni7 O39 2.023902 1_555
Ni7 O38 2.077400 1_555
Ni7 O40 2.082480 1_555
Ni7 O48 2.104443 1_555
Ni7 O34 2.124932 1_555
Ni7 O47 2.173125 1_555
Ni8 O45 2.004672 1_555
Ni8 O43 2.014277 1_555
Ni8 O41 2.060398 1_555
Ni8 O47 2.069227 1_555
Ni8 O36 2.077746 1_555
Ni9 O44 2.004672 1_555
Ni9 O46 2.014277 1_555
Ni9 O48 2.060398 1_555
Ni9 O42 2.069227 1_555
Ni9 O53 2.077746 1_555
Ni10 O50 2.023902 1_555
Ni10 O51 2.077400 1_565
Ni10 O49 2.082480 1_465
Ni10 O41 2.104443 1_565
Ni10 O55 2.124932 1_555
Ni10 O42 2.173125 1_455
Ni11 O54 2.008179 1_655
Ni11 O52 2.018225 1_555
Ni11 O56 2.066696 1_555
Ni11 O46 2.123366 1_555
Ni11 O57 2.176474 1_555
Ni11 O45 2.194990 1_655
O0 P0 1.534759 1_555
O1 P14 1.635677 1_554
O1 P0 1.644419 1_555
O2 P0 1.532393 1_555
O3 P1 1.533081 1_555
O4 P1 1.538505 1_555
O5 P2 1.532465 1_555
O6 P1 1.527579 1_555
O7 P2 1.535348 1_455
O8 P0 1.525090 1_555
O9 P3 1.526841 1_545
O10 P3 1.548960 1_455
O11 P2 1.585835 1_455
O12 P2 1.587922 1_555
O13 P4 1.565858 1_555
O14 P4 1.574791 1_555
O15 P3 1.574791 1_445
O16 P3 1.565858 1_555
O17 P5 1.587922 1_555
O18 P5 1.585835 1_565
O19 P4 1.548960 1_555
O20 P4 1.526841 1_555
O21 P7 1.525090 1_555
O22 P5 1.535348 1_555
O23 P6 1.527579 1_555
O24 P5 1.532465 1_555
O25 P6 1.538505 1_455
O26 P6 1.533081 1_555
O27 P7 1.532393 1_655
O28 P9 1.635677 1_555
O28 P7 1.644419 1_555
O29 P7 1.534759 1_655
O30 P8 1.534759 1_555
O31 P6 1.635677 1_555
O31 P8 1.644419 1_555
O32 P8 1.532393 1_555
O33 P9 1.533081 1_555
O34 P9 1.538505 1_555
O35 P10 1.532465 1_555
O36 P9 1.527579 1_555
O37 P10 1.535348 1_455
O38 P8 1.525090 1_555
O39 P11 1.526841 1_555
O40 P11 1.548960 1_455
O41 P10 1.585835 1_445
O42 P10 1.587922 1_555
O43 P12 1.565858 1_555
O44 P12 1.574791 1_565
O45 P11 1.574791 1_455
O46 P11 1.565858 1_555
O47 P13 1.587922 1_555
O48 P13 1.585835 1_555
O49 P12 1.548960 1_555
O50 P12 1.526841 1_565
O51 P15 1.525090 1_555
O52 P13 1.535348 1_555
O53 P14 1.527579 1_555
O54 P13 1.532465 1_555
O55 P14 1.538505 1_455
O56 P14 1.533081 1_555
O57 P15 1.532393 1_655
O58 P1 1.635677 1_556
O58 P15 1.644419 1_555
O59 P15 1.534759 1_655
