# generated using pymatgen
data_Rb2LiVS4
_symmetry_space_group_name_H-M   'P 1'
_cell_length_a   13.61514129
_cell_length_b   12.20133170
_cell_length_c   7.33931235
_cell_angle_alpha   84.43569503
_cell_angle_beta   63.11758166
_cell_angle_gamma   32.44672331
_symmetry_Int_Tables_number   1
_chemical_formula_structural   Rb2LiVS4
_chemical_formula_sum   'Rb4 Li2 V2 S8'
_cell_volume   469.03702005
_cell_formula_units_Z   2
loop_
 _symmetry_equiv_pos_site_id
 _symmetry_equiv_pos_as_xyz
  1  'x, y, z'
loop_
 _atom_site_type_symbol
 _atom_site_label
 _atom_site_symmetry_multiplicity
 _atom_site_fract_x
 _atom_site_fract_y
 _atom_site_fract_z
 _atom_site_occupancy
  Rb  Rb0  1  0.67831900  0.67831900  0.32168100  1
  Rb  Rb1  1  0.92831900  0.92831900  0.57168100  1
  Rb  Rb2  1  0.57168100  0.57168100  0.92831900  1
  Rb  Rb3  1  0.32168100  0.32168100  0.67831900  1
  Li  Li0  1  0.00000000  0.00000000  0.00000000  1
  Li  Li1  1  0.25000000  0.25000000  0.25000000  1
  V  V0  1  0.50000000  0.50000000  0.50000000  1
  V  V1  1  0.75000000  0.75000000  0.75000000  1
  S  S0  1  0.92320000  0.68101400  0.39065000  1
  S  S1  1  0.32680000  0.56898600  0.85935000  1
  S  S2  1  0.68101400  0.92320000  0.00513500  1
  S  S3  1  0.85935000  0.24486500  0.32680000  1
  S  S4  1  0.56898600  0.32680000  0.24486500  1
  S  S5  1  0.24486500  0.85935000  0.56898600  1
  S  S6  1  0.39065000  0.00513500  0.92320000  1
  S  S7  1  0.00513500  0.39065000  0.68101400  1
loop_
_geom_bond_atom_site_label_1
_geom_bond_atom_site_label_2
_geom_bond_distance
_geom_bond_site_symmetry_2
Rb0 S5 3.477244 1_555
Rb0 S3 3.477246 1_555
Rb0 S6 3.485460 1_565
Rb0 S7 3.485466 1_654
Rb0 S0 3.617722 1_555
Rb0 S2 3.617727 1_555
Rb0 S6 3.825897 1_654
Rb0 S7 3.825898 1_565
Rb1 S2 3.477253 1_556
Rb1 S0 3.477257 1_555
Rb1 S1 3.485464 1_565
Rb1 S4 3.485466 1_655
Rb1 S3 3.617732 1_565
Rb1 S5 3.617736 1_655
Rb1 S1 3.825896 1_654
Rb1 S4 3.825902 1_566
Rb2 S7 3.477244 1_655
Rb2 S6 3.477246 1_565
Rb2 S3 3.485460 1_555
Rb2 S5 3.485466 1_556
Rb2 S1 3.617722 1_555
Rb2 S4 3.617727 1_556
Rb2 S3 3.825897 1_466
Rb2 S5 3.825898 1_645
Rb3 S4 3.477253 1_555
Rb3 S1 3.477257 1_555
Rb3 S0 3.485464 1_545
Rb3 S2 3.485466 1_456
Rb3 S6 3.617732 1_555
Rb3 S7 3.617736 1_555
Rb3 S0 3.825896 1_456
Rb3 S2 3.825902 1_545
Li0 S4 2.434292 1_455
Li0 S1 2.434293 1_544
Li0 S5 2.434296 1_544
Li0 S3 2.434301 1_455
Li1 S2 2.434292 1_545
Li1 S0 2.434293 1_455
Li1 S7 2.434296 1_555
Li1 S6 2.434301 1_554
S0 V1 2.163625 1_555
S1 V0 2.163625 1_555
S2 V1 2.163619 1_554
S3 V0 2.163630 1_555
S4 V0 2.163619 1_555
S5 V0 2.163628 1_555
S6 V1 2.163630 1_545
S7 V1 2.163628 1_455
