# generated using pymatgen
data_K3ClO
_symmetry_space_group_name_H-M   'P 1'
_cell_length_a   7.16195439
_cell_length_b   7.31194696
_cell_length_c   10.22990925
_cell_angle_alpha   90.00404383
_cell_angle_beta   89.99970258
_cell_angle_gamma   89.99908910
_symmetry_Int_Tables_number   1
_chemical_formula_structural   K3ClO
_chemical_formula_sum   'K12 Cl4 O4'
_cell_volume   535.71815373
_cell_formula_units_Z   4
loop_
 _symmetry_equiv_pos_site_id
 _symmetry_equiv_pos_as_xyz
  1  'x, y, z'
loop_
 _atom_site_type_symbol
 _atom_site_label
 _atom_site_symmetry_multiplicity
 _atom_site_fract_x
 _atom_site_fract_y
 _atom_site_fract_z
 _atom_site_occupancy
  K  K0  1  0.06827659  0.47666090  0.24997771  1
  K  K1  1  0.79623045  0.79559325  0.03605479  1
  K  K2  1  0.43133125  0.97654185  0.24999033  1
  K  K3  1  0.29620296  0.70427434  0.96396004  1
  K  K4  1  0.70377427  0.29567788  0.46394396  1
  K  K5  1  0.70377831  0.29574594  0.03605514  1
  K  K6  1  0.20382771  0.20441811  0.96394808  1
  K  K7  1  0.93170234  0.52332109  0.75002644  1
  K  K8  1  0.20381338  0.20439559  0.53605311  1
  K  K9  1  0.56866743  0.02342249  0.75000251  1
  K  K10  1  0.29622950  0.70428742  0.53605808  1
  K  K11  1  0.79618520  0.79561750  0.46394198  1
  Cl  Cl0  1  0.49139828  0.45452355  0.75000175  1
  Cl  Cl1  1  0.00861443  0.95449801  0.75000152  1
  Cl  Cl2  1  0.50860220  0.54547714  0.24999675  1
  Cl  Cl3  1  0.99138785  0.04551217  0.24999649  1
  O  O0  1  -0.00000995  0.50002011  -0.00000272  1
  O  O1  1  0.49999892  -0.00000218  0.49999862  1
  O  O2  1  0.49999127  0.00001363  -0.00000669  1
  O  O3  1  -0.00000039  0.50000023  0.50000110  1
loop_
_geom_bond_atom_site_label_1
_geom_bond_atom_site_label_2
_geom_bond_distance
_geom_bond_site_symmetry_2
K0 O0 2.609233 1_555
K0 O3 2.609613 1_555
K1 O2 2.621382 1_565
K1 O0 2.633686 1_655
K2 O2 2.609952 1_565
K2 O1 2.610049 1_565
K3 O0 2.620537 1_556
K3 O2 2.634802 1_566
K4 O3 2.620895 1_655
K4 O1 2.634466 1_555
K5 O0 2.620643 1_655
K5 O2 2.634796 1_555
K6 O2 2.620854 1_556
K6 O0 2.634157 1_556
K7 O0 2.609110 1_656
K7 O3 2.609651 1_655
K8 O1 2.620934 1_555
K8 O3 2.634127 1_555
K9 O2 2.609881 1_556
K9 O1 2.609991 1_555
K10 O3 2.620775 1_555
K10 O1 2.634632 1_565
K11 O1 2.620868 1_565
K11 O3 2.634215 1_655
Cl0 K3 3.174788 1_555
Cl0 K10 3.174844 1_555
Cl0 K7 3.193317 1_555
Cl0 K9 3.200388 1_555
Cl0 K5 3.496452 1_556
Cl0 K4 3.496492 1_555
Cl0 K6 3.518097 1_555
Cl0 K8 3.518110 1_555
Cl1 K6 3.175510 1_565
Cl1 K8 3.175551 1_565
Cl1 K9 3.190922 1_465
Cl1 K7 3.200511 1_455
Cl1 K1 3.496775 1_456
Cl1 K11 3.496786 1_455
Cl1 K10 3.518470 1_555
Cl1 K3 3.518679 1_555
Cl2 K5 3.174527 1_555
Cl2 K4 3.175028 1_555
Cl2 K0 3.193491 1_555
Cl2 K2 3.200129 1_555
Cl2 K3 3.496416 1_554
Cl2 K10 3.496426 1_555
Cl2 K11 3.518127 1_555
Cl2 K1 3.518351 1_555
Cl3 K1 3.175294 1_545
Cl3 K11 3.175529 1_545
Cl3 K2 3.190950 1_645
Cl3 K0 3.200279 1_655
Cl3 K8 3.496757 1_655
Cl3 K6 3.496910 1_654
Cl3 K4 3.518319 1_555
Cl3 K5 3.518696 1_555
