# generated using pymatgen
data_K2Th(CuS2)2
_symmetry_space_group_name_H-M   'P 1'
_cell_length_a   7.54229380
_cell_length_b   7.54229380
_cell_length_c   7.62235470
_cell_angle_alpha   70.81615430
_cell_angle_beta   70.81615430
_cell_angle_gamma   30.92760054
_symmetry_Int_Tables_number   1
_chemical_formula_structural   K2Th(CuS2)2
_chemical_formula_sum   'K2 Th1 Cu2 S4'
_cell_volume   209.50164239
_cell_formula_units_Z   1
loop_
 _symmetry_equiv_pos_site_id
 _symmetry_equiv_pos_as_xyz
  1  'x, y, z'
loop_
 _atom_site_type_symbol
 _atom_site_label
 _atom_site_symmetry_multiplicity
 _atom_site_fract_x
 _atom_site_fract_y
 _atom_site_fract_z
 _atom_site_occupancy
  K  K0  1  0.13816200  0.13816200  0.43431500  1
  K  K1  1  0.86183800  0.86183800  0.56568500  1
  Th  Th0  1  0.00000000  0.00000000  0.00000000  1
  Cu  Cu0  1  0.68085600  0.68085600  0.01164400  1
  Cu  Cu1  1  0.31914400  0.31914400  0.98835600  1
  S  S0  1  0.52241500  0.52241500  0.23771400  1
  S  S1  1  0.47758500  0.47758500  0.76228600  1
  S  S2  1  0.20236300  0.20236300  0.82588800  1
  S  S3  1  0.79763700  0.79763700  0.17411200  1
loop_
_geom_bond_atom_site_label_1
_geom_bond_atom_site_label_2
_geom_bond_distance
_geom_bond_site_symmetry_2
K0 S3 3.196525 1_545
K0 S3 3.196525 1_455
K0 S0 3.292588 1_455
K0 S0 3.292588 1_545
K0 S2 3.417507 1_555
K0 S1 3.429897 1_455
K0 S1 3.429897 1_545
K1 S2 3.196525 1_565
K1 S2 3.196525 1_655
K1 S1 3.292588 1_565
K1 S1 3.292588 1_655
K1 S3 3.417507 1_555
K1 S0 3.429897 1_565
K1 S0 3.429897 1_655
Cu0 S0 2.359835 1_555
Cu0 S2 2.417594 1_654
Cu0 S2 2.417594 1_564
Cu0 S3 2.418660 1_555
Cu1 S1 2.359835 1_555
Cu1 S3 2.417594 1_456
Cu1 S3 2.417594 1_546
Cu1 S2 2.418660 1_555
S0 Th0 2.799299 1_655
S0 Th0 2.799299 1_565
S1 Th0 2.799299 1_566
S1 Th0 2.799299 1_656
S2 Th0 2.784702 1_556
S3 Th0 2.784702 1_665
