# generated using pymatgen
data_SrBi2B2O7
_symmetry_space_group_name_H-M   'P 1'
_cell_length_a   9.22214538
_cell_length_b   9.22214538
_cell_length_c   13.24999700
_cell_angle_alpha   90.00000000
_cell_angle_beta   90.00000000
_cell_angle_gamma   119.99999557
_symmetry_Int_Tables_number   1
_chemical_formula_structural   SrBi2B2O7
_chemical_formula_sum   'Sr6 Bi12 B12 O42'
_cell_volume   975.91132934
_cell_formula_units_Z   6
loop_
 _symmetry_equiv_pos_site_id
 _symmetry_equiv_pos_as_xyz
  1  'x, y, z'
loop_
 _atom_site_type_symbol
 _atom_site_label
 _atom_site_symmetry_multiplicity
 _atom_site_fract_x
 _atom_site_fract_y
 _atom_site_fract_z
 _atom_site_occupancy
  Sr  Sr0  1  0.36176200  0.04589200  0.75000000  1
  Sr  Sr1  1  0.31587000  0.36176200  0.25000000  1
  Sr  Sr2  1  0.68413000  0.63823800  0.75000000  1
  Sr  Sr3  1  0.95410800  0.31587000  0.75000000  1
  Sr  Sr4  1  0.63823800  0.95410800  0.25000000  1
  Sr  Sr5  1  0.04589200  0.68413000  0.25000000  1
  Bi  Bi0  1  0.03115400  0.67412000  0.90845400  1
  Bi  Bi1  1  0.35703400  0.03115400  0.09154600  1
  Bi  Bi2  1  0.03115400  0.67412000  0.59154600  1
  Bi  Bi3  1  0.32588000  0.35703400  0.59154600  1
  Bi  Bi4  1  0.64296600  0.96884600  0.90845400  1
  Bi  Bi5  1  0.67412000  0.64296600  0.40845400  1
  Bi  Bi6  1  0.67412000  0.64296600  0.09154600  1
  Bi  Bi7  1  0.96884600  0.32588000  0.40845400  1
  Bi  Bi8  1  0.35703400  0.03115400  0.40845400  1
  Bi  Bi9  1  0.32588000  0.35703400  0.90845400  1
  Bi  Bi10  1  0.96884600  0.32588000  0.09154600  1
  Bi  Bi11  1  0.64296600  0.96884600  0.59154600  1
  B  B0  1  0.66666700  0.33333300  0.36587900  1
  B  B1  1  0.66666700  0.33333300  0.58496100  1
  B  B2  1  0.33333300  0.66666700  0.41503900  1
  B  B3  1  0.00000000  0.00000000  0.88348100  1
  B  B4  1  0.33333300  0.66666700  0.08496100  1
  B  B5  1  0.00000000  0.00000000  0.38348100  1
  B  B6  1  0.00000000  0.00000000  0.61651900  1
  B  B7  1  0.66666700  0.33333300  0.13412100  1
  B  B8  1  0.00000000  0.00000000  0.11651900  1
  B  B9  1  0.33333300  0.66666700  0.86587900  1
  B  B10  1  0.33333300  0.66666700  0.63412100  1
  B  B11  1  0.66666700  0.33333300  0.91503900  1
  O  O0  1  0.16920200  0.11679000  0.38275100  1
  O  O1  1  0.94758900  0.83079800  0.11724900  1
  O  O2  1  0.49530100  0.80467100  0.41448900  1
  O  O3  1  0.94758900  0.83079800  0.38275100  1
  O  O4  1  0.19469500  0.50854800  0.63182100  1
  O  O5  1  0.31385300  0.80530500  0.86817900  1
  O  O6  1  0.31385300  0.80530500  0.63182100  1
  O  O7  1  0.11679000  0.94758900  0.61724900  1
  O  O8  1  0.50854800  0.31385300  0.36817900  1
  O  O9  1  0.61587100  0.65375200  0.25000000  1
  O  O10  1  0.96211900  0.61587100  0.75000000  1
  O  O11  1  0.69063000  0.49530100  0.91448900  1
  O  O12  1  0.19532900  0.69063000  0.41448900  1
  O  O13  1  0.88321000  0.05241100  0.11724900  1
  O  O14  1  0.03788100  0.38412900  0.25000000  1
  O  O15  1  0.30937000  0.50469900  0.08551100  1
  O  O16  1  0.83079800  0.88321000  0.61724900  1
  O  O17  1  0.19469500  0.50854800  0.86817900  1
  O  O18  1  0.83079800  0.88321000  0.88275100  1
  O  O19  1  0.50854800  0.31385300  0.13182100  1
  O  O20  1  0.30937000  0.50469900  0.41448900  1
  O  O21  1  0.49145200  0.68614700  0.63182100  1
  O  O22  1  0.50469900  0.19532900  0.58551100  1
  O  O23  1  0.50469900  0.19532900  0.91448900  1
  O  O24  1  0.68614700  0.19469500  0.36817900  1
  O  O25  1  0.11679000  0.94758900  0.88275100  1
  O  O26  1  0.69063000  0.49530100  0.58551100  1
  O  O27  1  0.34624800  0.96211900  0.25000000  1
  O  O28  1  0.38412900  0.34624800  0.75000000  1
  O  O29  1  0.05241100  0.16920200  0.61724900  1
  O  O30  1  0.49145200  0.68614700  0.86817900  1
  O  O31  1  0.68614700  0.19469500  0.13182100  1
  O  O32  1  0.05241100  0.16920200  0.88275100  1
  O  O33  1  0.88321000  0.05241100  0.38275100  1
  O  O34  1  0.80467100  0.30937000  0.91448900  1
  O  O35  1  0.16920200  0.11679000  0.11724900  1
  O  O36  1  0.80530500  0.49145200  0.13182100  1
  O  O37  1  0.65375200  0.03788100  0.75000000  1
  O  O38  1  0.19532900  0.69063000  0.08551100  1
  O  O39  1  0.80467100  0.30937000  0.58551100  1
  O  O40  1  0.80530500  0.49145200  0.36817900  1
  O  O41  1  0.49530100  0.80467100  0.08551100  1
loop_
_geom_bond_atom_site_label_1
_geom_bond_atom_site_label_2
_geom_bond_distance
_geom_bond_site_symmetry_2
Bi0 O10 2.181709 1_455
Bi0 O25 2.260155 1_555
Bi0 O5 2.321908 1_555
Bi0 O17 2.682138 1_555
Bi0 O11 2.721953 1_455
Bi0 O38 2.754765 1_556
Bi1 O27 2.181709 1_545
Bi1 O35 2.260147 1_555
Bi1 O19 2.321908 1_555
Bi1 O31 2.682138 1_555
Bi1 O38 2.721953 1_545
Bi1 O23 2.754765 1_554
Bi2 O10 2.181709 1_455
Bi2 O7 2.260155 1_555
Bi2 O6 2.321908 1_555
Bi2 O4 2.682138 1_555
Bi2 O26 2.721953 1_455
Bi2 O12 2.754765 1_555
Bi3 O28 2.181709 1_555
Bi3 O29 2.260154 1_555
Bi3 O4 2.321908 1_555
Bi3 O21 2.682138 1_555
Bi3 O22 2.721953 1_555
Bi3 O20 2.754765 1_555
Bi4 O37 2.181709 1_565
Bi4 O18 2.260147 1_555
Bi4 O30 2.321908 1_555
Bi4 O5 2.682138 1_555
Bi4 O34 2.721953 1_565
Bi4 O41 2.754765 1_556
Bi5 O9 2.181709 1_555
Bi5 O3 2.260154 1_555
Bi5 O40 2.321908 1_555
Bi5 O8 2.682138 1_555
Bi5 O2 2.721953 1_555
Bi5 O26 2.754765 1_555
Bi6 O9 2.181709 1_555
Bi6 O1 2.260154 1_555
Bi6 O36 2.321908 1_555
Bi6 O19 2.682138 1_555
Bi6 O41 2.721953 1_555
Bi6 O11 2.754765 1_554
Bi7 O14 2.181709 1_655
Bi7 O33 2.260155 1_555
Bi7 O24 2.321908 1_555
Bi7 O40 2.682138 1_555
Bi7 O20 2.721953 1_655
Bi7 O39 2.754765 1_555
Bi8 O27 2.181709 1_545
Bi8 O0 2.260147 1_555
Bi8 O8 2.321908 1_555
Bi8 O24 2.682138 1_555
Bi8 O12 2.721953 1_545
Bi8 O22 2.754765 1_555
Bi9 O28 2.181709 1_555
Bi9 O32 2.260154 1_555
Bi9 O17 2.321908 1_555
Bi9 O30 2.682138 1_555
Bi9 O23 2.721953 1_555
Bi9 O15 2.754765 1_556
Bi10 O14 2.181709 1_655
Bi10 O13 2.260155 1_555
Bi10 O31 2.321908 1_555
Bi10 O36 2.682138 1_555
Bi10 O15 2.721953 1_655
Bi10 O34 2.754765 1_554
Bi11 O37 2.181709 1_565
Bi11 O16 2.260147 1_555
Bi11 O21 2.321908 1_555
Bi11 O6 2.682138 1_555
Bi11 O39 2.721953 1_565
Bi11 O2 2.754765 1_555
B0 O24 1.377517 1_555
B0 O40 1.377522 1_555
B0 O8 1.377526 1_555
B1 O39 1.396385 1_555
B1 O22 1.396390 1_555
B1 O26 1.396394 1_555
B2 O12 1.396385 1_555
B2 O2 1.396390 1_555
B2 O20 1.396394 1_555
B3 O25 1.383598 1_545
B3 O18 1.383605 1_445
B3 O32 1.383607 1_555
B4 O38 1.396385 1_555
B4 O41 1.396390 1_555
B4 O15 1.396394 1_555
B5 O33 1.383598 1_455
B5 O0 1.383605 1_555
B5 O3 1.383607 1_445
B6 O7 1.383598 1_545
B6 O16 1.383605 1_445
B6 O29 1.383607 1_555
B7 O31 1.377517 1_555
B7 O36 1.377522 1_555
B7 O19 1.377526 1_555
B8 O13 1.383598 1_455
B8 O35 1.383605 1_555
B8 O1 1.383607 1_445
B9 O5 1.377517 1_555
B9 O17 1.377522 1_555
B9 O30 1.377526 1_555
B10 O6 1.377517 1_555
B10 O4 1.377522 1_555
B10 O21 1.377526 1_555
B11 O34 1.396385 1_555
B11 O23 1.396390 1_555
B11 O11 1.396394 1_555
O0 Sr1 2.640363 1_555
O1 Sr5 2.640358 1_655
O2 Sr4 2.563270 1_555
O3 Sr5 2.640358 1_655
O4 Sr3 2.567028 1_455
O5 Sr0 2.567027 1_565
O6 Sr0 2.567027 1_565
O7 Sr0 2.640364 1_565
O8 Sr1 2.567027 1_555
O9 Sr4 2.672767 1_555
O9 Sr1 2.730463 1_555
O10 Sr2 2.672767 1_555
O10 Sr3 2.730463 1_555
O11 Sr2 2.563270 1_555
O12 Sr5 2.563270 1_555
O13 Sr4 2.640364 1_545
O14 Sr1 2.672767 1_555
O14 Sr5 2.730463 1_555
O15 Sr1 2.563270 1_555
O16 Sr2 2.640363 1_555
O17 Sr3 2.567028 1_455
O18 Sr2 2.640363 1_555
O19 Sr1 2.567027 1_555
O20 Sr1 2.563270 1_555
O21 Sr2 2.567027 1_555
O22 Sr0 2.563270 1_555
O23 Sr0 2.563270 1_555
O24 Sr4 2.567027 1_545
O25 Sr0 2.640364 1_565
O26 Sr2 2.563270 1_555
O27 Sr5 2.672767 1_555
O27 Sr4 2.730463 1_555
O28 Sr0 2.672767 1_555
O28 Sr2 2.730463 1_555
O29 Sr3 2.640358 1_455
O30 Sr2 2.567027 1_555
O31 Sr4 2.567027 1_545
O32 Sr3 2.640358 1_455
O33 Sr4 2.640364 1_545
O34 Sr3 2.563270 1_555
O35 Sr1 2.640363 1_555
O36 Sr5 2.567028 1_655
O37 Sr3 2.672767 1_555
O37 Sr0 2.730463 1_555
O38 Sr5 2.563270 1_555
O39 Sr3 2.563270 1_555
O40 Sr5 2.567028 1_655
O41 Sr4 2.563270 1_555
