# generated using pymatgen
data_Ge3N4
_symmetry_space_group_name_H-M   'P 1'
_cell_length_a   5.95250091
_cell_length_b   5.95250091
_cell_length_c   5.95250091
_cell_angle_alpha   109.47122063
_cell_angle_beta   109.47122063
_cell_angle_gamma   109.47122063
_symmetry_Int_Tables_number   1
_chemical_formula_structural   Ge3N4
_chemical_formula_sum   'Ge6 N8'
_cell_volume   162.35905678
_cell_formula_units_Z   2
loop_
 _symmetry_equiv_pos_site_id
 _symmetry_equiv_pos_as_xyz
  1  'x, y, z'
loop_
 _atom_site_type_symbol
 _atom_site_label
 _atom_site_symmetry_multiplicity
 _atom_site_fract_x
 _atom_site_fract_y
 _atom_site_fract_z
 _atom_site_occupancy
  Ge  Ge0  1  0.87500000  0.25000000  0.12500000  1
  Ge  Ge1  1  0.75000000  0.37500000  0.62500000  1
  Ge  Ge2  1  0.25000000  0.12500000  0.87500000  1
  Ge  Ge3  1  0.62500000  0.75000000  0.37500000  1
  Ge  Ge4  1  0.12500000  0.87500000  0.25000000  1
  Ge  Ge5  1  0.37500000  0.62500000  0.75000000  1
  N  N0  1  0.50000000  0.00000000  0.94502000  1
  N  N1  1  0.00000000  0.44502000  0.50000000  1
  N  N2  1  0.55498000  0.55498000  0.55498000  1
  N  N3  1  0.94502000  0.50000000  0.00000000  1
  N  N4  1  0.05498000  0.05498000  0.05498000  1
  N  N5  1  0.50000000  0.00000000  0.44502000  1
  N  N6  1  0.44502000  0.50000000  0.00000000  1
  N  N7  1  0.00000000  0.94502000  0.50000000  1
loop_
_geom_bond_atom_site_label_1
_geom_bond_atom_site_label_2
_geom_bond_distance
_geom_bond_site_symmetry_2
Ge0 N0 1.863676 1_554
Ge0 N3 1.863676 1_555
Ge0 N1 1.863676 1_655
Ge0 N4 1.863676 1_655
Ge1 N2 1.863676 1_555
Ge1 N5 1.863676 1_555
Ge1 N3 1.863676 1_556
Ge1 N1 1.863676 1_655
Ge2 N7 1.863676 1_545
Ge2 N0 1.863676 1_555
Ge2 N6 1.863676 1_556
Ge2 N4 1.863676 1_556
Ge3 N7 1.863676 1_655
Ge3 N2 1.863676 1_555
Ge3 N6 1.863676 1_555
Ge3 N5 1.863676 1_565
Ge4 N7 1.863676 1_555
Ge4 N5 1.863676 1_565
Ge4 N4 1.863676 1_565
Ge4 N3 1.863676 1_455
Ge5 N2 1.863676 1_555
Ge5 N0 1.863676 1_565
Ge5 N1 1.863676 1_555
Ge5 N6 1.863676 1_556
