# generated using pymatgen
data_LaAl22O34
_symmetry_space_group_name_H-M   'P 1'
_cell_length_a   9.81579100
_cell_length_b   11.30419523
_cell_length_c   11.82845905
_cell_angle_alpha   103.85832092
_cell_angle_beta   98.02442727
_cell_angle_gamma   90.01157655
_symmetry_Int_Tables_number   1
_chemical_formula_structural   LaAl22O34
_chemical_formula_sum   'La2 Al44 O68'
_cell_volume   1261.02673731
_cell_formula_units_Z   2
loop_
 _symmetry_equiv_pos_site_id
 _symmetry_equiv_pos_as_xyz
  1  'x, y, z'
loop_
 _atom_site_type_symbol
 _atom_site_label
 _atom_site_symmetry_multiplicity
 _atom_site_fract_x
 _atom_site_fract_y
 _atom_site_fract_z
 _atom_site_occupancy
  La  La0  1  0.50000000  0.50000000  0.50000000  1
  La  La1  1  0.00000000  0.00000000  0.50000000  1
  Al  Al0  1  0.50067700  0.75105400  0.00214500  1
  Al  Al1  1  0.45015000  0.42722800  0.20491000  1
  Al  Al2  1  0.45322100  0.67805200  0.21617100  1
  Al  Al3  1  0.49932300  0.24894600  0.99785500  1
  Al  Al4  1  0.32380300  0.48754000  0.94949200  1
  Al  Al5  1  0.27168000  0.41041200  0.64910700  1
  Al  Al6  1  0.22193800  0.33606200  0.35103900  1
  Al  Al7  1  0.20329800  0.05288300  0.21563500  1
  Al  Al8  1  0.95020400  0.17977900  0.21604000  1
  Al  Al9  1  0.45171900  0.92965600  0.21588100  1
  Al  Al10  1  0.45052300  0.17813300  0.21531100  1
  Al  Al11  1  0.17422200  0.26183500  0.05119300  1
  Al  Al12  1  0.32616800  0.98606000  0.94981300  1
  Al  Al13  1  0.05001200  0.07471600  0.79473800  1
  Al  Al14  1  0.29569700  0.19507400  0.78344900  1
  Al  Al15  1  0.27832300  0.91043800  0.64889100  1
  Al  Al16  1  0.22809000  0.83597600  0.35086300  1
  Al  Al17  1  0.70430300  0.80492600  0.21655100  1
  Al  Al18  1  0.95347000  0.67976700  0.21544200  1
  Al  Al19  1  0.20410400  0.55317600  0.21641600  1
  Al  Al20  1  0.94998800  0.92528400  0.20526200  1
  Al  Al21  1  0.17580000  0.76214700  0.04954100  1
  Al  Al22  1  0.82577800  0.73816500  0.94880700  1
  Al  Al23  1  0.00000000  0.00000000  0.00000000  1
  Al  Al24  1  0.04809600  0.57174600  0.78453100  1
  Al  Al25  1  0.79670200  0.94711700  0.78436500  1
  Al  Al26  1  0.04979600  0.82022100  0.78396000  1
  Al  Al27  1  0.29693100  0.69502300  0.78455100  1
  Al  Al28  1  0.77806200  0.66393800  0.64896100  1
  Al  Al29  1  0.72832000  0.58958800  0.35089300  1
  Al  Al30  1  0.70306900  0.30497700  0.21544900  1
  Al  Al31  1  0.95190400  0.42825400  0.21546900  1
  Al  Al32  1  0.67619700  0.51246000  0.05050800  1
  Al  Al33  1  0.82420000  0.23785300  0.95045900  1
  Al  Al34  1  0.00000000  0.50000000  0.00000000  1
  Al  Al35  1  0.54677900  0.32194800  0.78382900  1
  Al  Al36  1  0.54985000  0.57277200  0.79509000  1
  Al  Al37  1  0.79589600  0.44682400  0.78358400  1
  Al  Al38  1  0.04653000  0.32023300  0.78455800  1
  Al  Al39  1  0.77191000  0.16402400  0.64913700  1
  Al  Al40  1  0.72167700  0.08956200  0.35110900  1
  Al  Al41  1  0.67383200  0.01394000  0.05018700  1
  Al  Al42  1  0.54947700  0.82186700  0.78468900  1
  Al  Al43  1  0.54828100  0.07034400  0.78411900  1
  O  O0  1  0.45492300  0.67506100  0.71332700  1
  O  O1  1  0.35168800  0.52778400  0.11116400  1
  O  O2  1  0.40479100  0.34370000  0.89897200  1
  O  O3  1  0.40661500  0.60724900  0.90082800  1
  O  O4  1  0.45181600  0.17899300  0.71627400  1
  O  O5  1  0.19908900  0.30000700  0.70865500  1
  O  O6  1  0.45444300  0.43010700  0.70628000  1
  O  O7  1  0.28088300  0.39057100  0.50012600  1
  O  O8  1  0.29668400  0.19649900  0.28867300  1
  O  O9  1  0.30476400  0.44899500  0.29383000  1
  O  O10  1  0.35186300  0.02718500  0.11077000  1
  O  O11  1  0.09386100  0.14158000  0.10106300  1
  O  O12  1  0.35947100  0.27567600  0.09877400  1
  O  O13  1  0.14067600  0.97583200  0.90073100  1
  O  O14  1  0.90633800  0.09322300  0.90069700  1
  O  O15  1  0.40710700  0.84126600  0.89950000  1
  O  O16  1  0.40278500  0.10668600  0.89893000  1
  O  O17  1  0.14809900  0.22178500  0.88941900  1
  O  O18  1  0.95489200  0.93142700  0.71324800  1
  O  O19  1  0.20377600  0.80185400  0.71096500  1
  O  O20  1  0.19531200  0.05200000  0.70604600  1
  O  O21  1  0.95455800  0.17291000  0.70639500  1
  O  O22  1  0.45419200  0.92632800  0.70844700  1
  O  O23  1  0.21926400  0.89054900  0.49988600  1
  O  O24  1  0.80468800  0.94800000  0.29395400  1
  O  O25  1  0.04544200  0.82709000  0.29360500  1
  O  O26  1  0.30064400  0.69574100  0.29174600  1
  O  O27  1  0.29825700  0.94660100  0.28884500  1
  O  O28  1  0.04510800  0.06857300  0.28675200  1
  O  O29  1  0.85190100  0.77821500  0.11058100  1
  O  O30  1  0.09428300  0.64426600  0.10046600  1
  O  O31  1  0.85932400  0.02416800  0.09926900  1
  O  O32  1  0.09366200  0.90677700  0.09930300  1
  O  O33  1  0.36006000  0.77445500  0.09923600  1
  O  O34  1  0.64052900  0.72432400  0.90122600  1
  O  O35  1  0.90313800  0.59261700  0.89900500  1
  O  O36  1  0.13972900  0.47537000  0.90130000  1
  O  O37  1  0.90613900  0.85842000  0.89893700  1
  O  O38  1  0.14842400  0.72243100  0.88869200  1
  O  O39  1  0.95187400  0.42894800  0.71638200  1
  O  O40  1  0.69523600  0.55100500  0.70617000  1
  O  O41  1  0.70331600  0.80350100  0.71132700  1
  O  O42  1  0.20163700  0.55202900  0.71140600  1
  O  O43  1  0.95400800  0.67766200  0.70838400  1
  O  O44  1  0.71911700  0.60942900  0.49987400  1
  O  O45  1  0.54555700  0.56989300  0.29372000  1
  O  O46  1  0.79836300  0.44797100  0.28859400  1
  O  O47  1  0.04599200  0.32233800  0.29161600  1
  O  O48  1  0.80091100  0.69999300  0.29134500  1
  O  O49  1  0.04812600  0.57105200  0.28361800  1
  O  O50  1  0.85157600  0.27756900  0.11130800  1
  O  O51  1  0.59338500  0.39275100  0.09917200  1
  O  O52  1  0.59520900  0.65630000  0.10102800  1
  O  O53  1  0.86027100  0.52463000  0.09870000  1
  O  O54  1  0.09686200  0.40738300  0.10099500  1
  O  O55  1  0.63994000  0.22554500  0.90076400  1
  O  O56  1  0.90571700  0.35573400  0.89953400  1
  O  O57  1  0.64831200  0.47221600  0.88883600  1
  O  O58  1  0.70174300  0.05339900  0.71115500  1
  O  O59  1  0.69935600  0.30425900  0.70825400  1
  O  O60  1  0.78073600  0.10945100  0.50011400  1
  O  O61  1  0.54580800  0.07367200  0.29155300  1
  O  O62  1  0.79622400  0.19814600  0.28903500  1
  O  O63  1  0.54507700  0.32493900  0.28667300  1
  O  O64  1  0.59721500  0.89331400  0.10107000  1
  O  O65  1  0.59289300  0.15873400  0.10050000  1
  O  O66  1  0.64813700  0.97281500  0.88923000  1
  O  O67  1  0.54818400  0.82100700  0.28372600  1
loop_
_geom_bond_atom_site_label_1
_geom_bond_atom_site_label_2
_geom_bond_distance
_geom_bond_site_symmetry_2
La0 O44 2.481302 1_555
La0 O7 2.481302 1_555
La0 O40 2.823709 1_555
La0 O9 2.823709 1_555
La0 O45 2.829426 1_555
La0 O6 2.829426 1_555
La0 O63 2.898117 1_555
La0 O0 2.898117 1_555
La1 O23 2.482754 1_545
La1 O60 2.482754 1_455
La1 O20 2.823062 1_555
La1 O24 2.823062 1_445
La1 O25 2.828077 1_545
La1 O21 2.828077 1_455
La1 O28 2.899609 1_555
La1 O18 2.899609 1_445
Al0 O33 1.895045 1_555
Al0 O15 1.907825 1_554
Al0 O64 1.908305 1_555
Al0 O52 1.916740 1_555
Al0 O34 1.919794 1_554
Al0 O3 1.920542 1_554
Al1 O63 1.850710 1_555
Al1 O45 1.869372 1_555
Al1 O9 1.870449 1_555
Al1 O1 1.939286 1_555
Al1 O51 1.987608 1_555
Al1 O12 1.990077 1_555
Al2 O67 1.814297 1_555
Al2 O26 1.835859 1_555
Al2 O45 1.861007 1_555
Al2 O1 2.016047 1_555
Al2 O52 2.056100 1_555
Al2 O33 2.075154 1_555
Al3 O55 1.895045 1_555
Al3 O65 1.907825 1_556
Al3 O16 1.908305 1_555
Al3 O2 1.916740 1_555
Al3 O12 1.919794 1_556
Al3 O51 1.920542 1_556
Al4 O36 1.811984 1_555
Al4 O2 1.816757 1_555
Al4 O3 1.823900 1_555
Al4 O1 1.837374 1_556
Al5 O7 1.737522 1_555
Al5 O5 1.767007 1_555
Al5 O42 1.776307 1_555
Al5 O6 1.820497 1_555
Al6 O7 1.737448 1_555
Al6 O47 1.763392 1_555
Al6 O8 1.779191 1_555
Al6 O9 1.820893 1_555
Al7 O8 1.824467 1_555
Al7 O27 1.826371 1_545
Al7 O28 1.855656 1_555
Al7 O10 2.020425 1_555
Al7 O11 2.059307 1_555
Al7 O32 2.067981 1_545
Al8 O62 1.830746 1_555
Al8 O47 1.831603 1_655
Al8 O28 1.853187 1_655
Al8 O50 2.003876 1_555
Al8 O11 2.068527 1_655
Al8 O31 2.071058 1_555
Al9 O67 1.819208 1_555
Al9 O27 1.826069 1_555
Al9 O61 1.837120 1_565
Al9 O10 2.009686 1_565
Al9 O33 2.069861 1_555
Al9 O64 2.080177 1_555
Al10 O8 1.831947 1_555
Al10 O61 1.832367 1_555
Al10 O63 1.854061 1_555
Al10 O10 2.008173 1_555
Al10 O65 2.057329 1_555
Al10 O12 2.073476 1_555
Al11 O54 1.814317 1_555
Al11 O12 1.821995 1_555
Al11 O11 1.825301 1_555
Al11 O17 1.838559 1_554
Al12 O16 1.818321 1_565
Al12 O15 1.824917 1_555
Al12 O13 1.827072 1_555
Al12 O10 1.829306 1_566
Al13 O18 1.850595 1_445
Al13 O21 1.866724 1_455
Al13 O20 1.868023 1_555
Al13 O17 1.936883 1_555
Al13 O14 1.992855 1_455
Al13 O13 1.993381 1_545
Al14 O4 1.812075 1_555
Al14 O5 1.832459 1_555
Al14 O20 1.860937 1_555
Al14 O17 2.021686 1_555
Al14 O16 2.054858 1_555
Al14 O2 2.080290 1_555
Al15 O23 1.737204 1_555
Al15 O22 1.763050 1_555
Al15 O19 1.778361 1_555
Al15 O20 1.821491 1_565
Al16 O23 1.736941 1_555
Al16 O26 1.765682 1_555
Al16 O27 1.776651 1_555
Al16 O25 1.819719 1_555
Al17 O67 1.812075 1_555
Al17 O48 1.832459 1_555
Al17 O24 1.860937 1_555
Al17 O29 2.021686 1_555
Al17 O64 2.054858 1_555
Al17 O52 2.080290 1_555
Al18 O49 1.813804 1_655
Al18 O48 1.837929 1_555
Al18 O25 1.863336 1_655
Al18 O29 2.021723 1_555
Al18 O30 2.045643 1_655
Al18 O53 2.075035 1_555
Al19 O49 1.811010 1_555
Al19 O26 1.834359 1_555
Al19 O9 1.861759 1_555
Al19 O1 2.015799 1_555
Al19 O54 2.051428 1_555
Al19 O30 2.089871 1_555
Al20 O28 1.850595 1_665
Al20 O25 1.866724 1_655
Al20 O24 1.868023 1_555
Al20 O29 1.936883 1_555
Al20 O32 1.992855 1_655
Al20 O31 1.993381 1_565
Al21 O30 1.815883 1_555
Al21 O33 1.816597 1_555
Al21 O32 1.827979 1_555
Al21 O38 1.828022 1_554
Al22 O35 1.814317 1_555
Al22 O34 1.821995 1_555
Al22 O37 1.825301 1_555
Al22 O29 1.838559 1_556
Al23 O37 1.901235 1_444
Al23 O11 1.901235 1_555
Al23 O32 1.904548 1_545
Al23 O14 1.904548 1_454
Al23 O31 1.912923 1_455
Al23 O13 1.912923 1_544
Al24 O39 1.819626 1_455
Al24 O42 1.827838 1_555
Al24 O43 1.839165 1_455
Al24 O38 2.011096 1_555
Al24 O36 2.068337 1_555
Al24 O35 2.073330 1_455
Al25 O41 1.824467 1_555
Al25 O58 1.826371 1_565
Al25 O18 1.855656 1_555
Al25 O66 2.020425 1_555
Al25 O37 2.059307 1_555
Al25 O14 2.067981 1_565
Al26 O19 1.830746 1_555
Al26 O43 1.831603 1_455
Al26 O18 1.853187 1_455
Al26 O38 2.003876 1_555
Al26 O37 2.068527 1_455
Al26 O13 2.071058 1_555
Al27 O19 1.825895 1_555
Al27 O42 1.827525 1_555
Al27 O0 1.854601 1_555
Al27 O38 2.014201 1_555
Al27 O15 2.064747 1_555
Al27 O3 2.067860 1_555
Al28 O44 1.737448 1_555
Al28 O43 1.763392 1_555
Al28 O41 1.779191 1_555
Al28 O40 1.820893 1_555
Al29 O44 1.737522 1_555
Al29 O48 1.767007 1_555
Al29 O46 1.776307 1_555
Al29 O45 1.820497 1_555
Al30 O62 1.825895 1_555
Al30 O46 1.827525 1_555
Al30 O63 1.854601 1_555
Al30 O50 2.014201 1_555
Al30 O65 2.064747 1_555
Al30 O51 2.067860 1_555
Al31 O49 1.819626 1_655
Al31 O46 1.827838 1_555
Al31 O47 1.839165 1_655
Al31 O50 2.011096 1_555
Al31 O53 2.068337 1_555
Al31 O54 2.073330 1_655
Al32 O53 1.811984 1_555
Al32 O52 1.816757 1_555
Al32 O51 1.823900 1_555
Al32 O57 1.837374 1_554
Al33 O56 1.815883 1_555
Al33 O55 1.816597 1_555
Al33 O14 1.827979 1_555
Al33 O50 1.828022 1_556
Al34 O53 1.900828 1_455
Al34 O36 1.900828 1_554
Al34 O30 1.921505 1_555
Al34 O56 1.921505 1_454
Al34 O35 1.926045 1_454
Al34 O54 1.926045 1_555
Al35 O4 1.814297 1_555
Al35 O59 1.835859 1_555
Al35 O6 1.861007 1_555
Al35 O57 2.016047 1_555
Al35 O2 2.056100 1_555
Al35 O55 2.075154 1_555
Al36 O0 1.850710 1_555
Al36 O6 1.869372 1_555
Al36 O40 1.870449 1_555
Al36 O57 1.939286 1_555
Al36 O3 1.987608 1_555
Al36 O34 1.990077 1_555
Al37 O39 1.811010 1_555
Al37 O59 1.834359 1_555
Al37 O40 1.861759 1_555
Al37 O57 2.015799 1_555
Al37 O35 2.051428 1_555
Al37 O56 2.089871 1_555
Al38 O39 1.813804 1_455
Al38 O5 1.837929 1_555
Al38 O21 1.863336 1_455
Al38 O17 2.021723 1_555
Al38 O56 2.045643 1_455
Al38 O36 2.075035 1_555
Al39 O60 1.736941 1_555
Al39 O59 1.765682 1_555
Al39 O58 1.776651 1_555
Al39 O21 1.819719 1_555
Al40 O60 1.737204 1_555
Al40 O61 1.763050 1_555
Al40 O62 1.778361 1_555
Al40 O24 1.821491 1_545
Al41 O64 1.818321 1_545
Al41 O65 1.824917 1_555
Al41 O31 1.827072 1_555
Al41 O66 1.829306 1_544
Al42 O41 1.831947 1_555
Al42 O22 1.832367 1_555
Al42 O0 1.854061 1_555
Al42 O66 2.008173 1_555
Al42 O15 2.057329 1_555
Al42 O34 2.073476 1_555
Al43 O4 1.819208 1_555
Al43 O58 1.826069 1_555
Al43 O22 1.837120 1_545
Al43 O66 2.009686 1_545
Al43 O55 2.069861 1_555
Al43 O16 2.080177 1_555
