# generated using pymatgen
data_Nd3Si2S8Br
_symmetry_space_group_name_H-M   'P 1'
_cell_length_a   8.81568033
_cell_length_b   8.81568033
_cell_length_c   10.95571511
_cell_angle_alpha   82.96722600
_cell_angle_beta   82.96722600
_cell_angle_gamma   52.17585636
_symmetry_Int_Tables_number   1
_chemical_formula_structural   Nd3Si2S8Br
_chemical_formula_sum   'Nd6 Si4 S16 Br2'
_cell_volume   666.26819213
_cell_formula_units_Z   2
loop_
 _symmetry_equiv_pos_site_id
 _symmetry_equiv_pos_as_xyz
  1  'x, y, z'
loop_
 _atom_site_type_symbol
 _atom_site_label
 _atom_site_symmetry_multiplicity
 _atom_site_fract_x
 _atom_site_fract_y
 _atom_site_fract_z
 _atom_site_occupancy
  Nd  Nd0  1  0.92568900  0.68008500  0.18384400  1
  Nd  Nd1  1  0.68008500  0.92568900  0.68384400  1
  Nd  Nd2  1  0.31991500  0.07431100  0.31615600  1
  Nd  Nd3  1  0.38750500  0.61249500  0.75000000  1
  Nd  Nd4  1  0.07431100  0.31991500  0.81615600  1
  Nd  Nd5  1  0.61249500  0.38750500  0.25000000  1
  Si  Si0  1  0.37500000  0.30584600  0.02907600  1
  Si  Si1  1  0.69415400  0.62500000  0.47092400  1
  Si  Si2  1  0.62500000  0.69415400  0.97092400  1
  Si  Si3  1  0.30584600  0.37500000  0.52907600  1
  S  S0  1  0.60392700  0.10562500  0.14480600  1
  S  S1  1  0.72420200  0.40902300  0.95395300  1
  S  S2  1  0.89437500  0.39607300  0.35519400  1
  S  S3  1  0.40902300  0.72420200  0.45395300  1
  S  S4  1  0.59097700  0.27579800  0.54604700  1
  S  S5  1  0.85437100  0.71235300  0.91432200  1
  S  S6  1  0.74187500  0.55404900  0.66196100  1
  S  S7  1  0.10562500  0.60392700  0.64480600  1
  S  S8  1  0.25812500  0.44595100  0.33803900  1
  S  S9  1  0.44595100  0.25812500  0.83803900  1
  S  S10  1  0.71235300  0.85437100  0.41432200  1
  S  S11  1  0.14562900  0.28764700  0.08567800  1
  S  S12  1  0.27579800  0.59097700  0.04604700  1
  S  S13  1  0.39607300  0.89437500  0.85519400  1
  S  S14  1  0.28764700  0.14562900  0.58567800  1
  S  S15  1  0.55404900  0.74187500  0.16196100  1
  Br  Br0  1  0.99532600  0.00467400  0.75000000  1
  Br  Br1  1  0.00467400  0.99532600  0.25000000  1
loop_
_geom_bond_atom_site_label_1
_geom_bond_atom_site_label_2
_geom_bond_distance
_geom_bond_site_symmetry_2
Nd0 S10 2.918339 1_555
Nd0 S12 2.932249 1_655
Nd0 S8 2.939779 1_655
Nd0 S11 3.009706 1_655
Nd0 S15 3.009917 1_555
Nd0 S0 3.025757 1_565
Nd0 S5 3.037241 1_554
Nd0 S2 3.072292 1_555
Nd1 S5 2.918339 1_555
Nd1 S4 2.932249 1_565
Nd1 S9 2.939779 1_565
Nd1 S14 3.009706 1_565
Nd1 S6 3.009917 1_555
Nd1 S7 3.025757 1_655
Nd1 S10 3.037241 1_555
Nd1 S13 3.072292 1_555
Nd2 S11 2.918339 1_555
Nd2 S3 2.932249 1_545
Nd2 S15 2.939779 1_545
Nd2 S10 3.009706 1_545
Nd2 S8 3.009917 1_555
Nd2 S2 3.025757 1_455
Nd2 S14 3.037241 1_555
Nd2 S0 3.072292 1_555
Nd3 S6 2.892217 1_555
Nd3 S9 2.892217 1_555
Nd3 S13 2.908910 1_555
Nd3 S7 2.908910 1_555
Nd3 S3 3.289646 1_555
Nd3 S12 3.289646 1_556
Nd3 S1 3.336639 1_555
Nd3 S4 3.336639 1_555
Nd4 S14 2.918339 1_555
Nd4 S1 2.932249 1_455
Nd4 S6 2.939779 1_455
Nd4 S5 3.009706 1_455
Nd4 S9 3.009917 1_555
Nd4 S13 3.025757 1_545
Nd4 S11 3.037241 1_556
Nd4 S7 3.072292 1_555
Nd5 S8 2.892217 1_555
Nd5 S15 2.892217 1_555
Nd5 S2 2.908910 1_555
Nd5 S0 2.908910 1_555
Nd5 S4 3.289646 1_555
Nd5 S1 3.289646 1_554
Nd5 S3 3.336639 1_555
Nd5 S12 3.336639 1_555
S0 Si0 2.122646 1_555
S1 Si2 2.120425 1_555
S2 Si1 2.122646 1_555
S3 Si1 2.120425 1_555
S4 Si3 2.120425 1_555
S5 Si2 2.136700 1_555
S6 Si1 2.126253 1_555
S7 Si3 2.122646 1_555
S8 Si3 2.126253 1_555
S9 Si0 2.126253 1_556
S10 Si1 2.136700 1_555
S11 Si0 2.136700 1_555
S12 Si0 2.120425 1_555
S13 Si2 2.122646 1_555
S14 Si3 2.136700 1_555
S15 Si2 2.126253 1_554
Br0 Nd3 3.040717 1_645
Br0 Nd1 3.423960 1_545
Br0 Nd4 3.423960 1_655
Br1 Nd5 3.040717 1_465
Br1 Nd0 3.423960 1_455
Br1 Nd2 3.423960 1_565
