# generated using pymatgen
data_K14(Tl7Cd3)3
_symmetry_space_group_name_H-M   'P 1'
_cell_length_a   10.21663573
_cell_length_b   10.21663573
_cell_length_c   17.57670300
_cell_angle_alpha   90.00000000
_cell_angle_beta   90.00000000
_cell_angle_gamma   119.99999822
_symmetry_Int_Tables_number   1
_chemical_formula_structural   K14(Tl7Cd3)3
_chemical_formula_sum   'K14 Tl21 Cd9'
_cell_volume   1588.85356061
_cell_formula_units_Z   1
loop_
 _symmetry_equiv_pos_site_id
 _symmetry_equiv_pos_as_xyz
  1  'x, y, z'
loop_
 _atom_site_type_symbol
 _atom_site_label
 _atom_site_symmetry_multiplicity
 _atom_site_fract_x
 _atom_site_fract_y
 _atom_site_fract_z
 _atom_site_occupancy
  K  K0  1  0.74850600  0.00000000  0.17809000  1
  K  K1  1  0.00000000  0.38782300  0.68379900  1
  K  K2  1  0.25149400  0.25149400  0.82191000  1
  K  K3  1  0.61217700  0.61217700  0.31620100  1
  K  K4  1  0.38782300  0.00000000  0.68379900  1
  K  K5  1  0.61217700  0.61217700  0.68379900  1
  K  K6  1  0.74850600  0.00000000  0.82191000  1
  K  K7  1  0.38782300  0.00000000  0.31620100  1
  K  K8  1  0.00000000  0.74850600  0.17809000  1
  K  K9  1  0.00000000  0.38782300  0.31620100  1
  K  K10  1  0.33333300  0.66666700  0.50000000  1
  K  K11  1  0.00000000  0.74850600  0.82191000  1
  K  K12  1  0.66666700  0.33333300  0.50000000  1
  K  K13  1  0.25149400  0.25149400  0.17809000  1
  Tl  Tl0  1  0.33333300  0.66666700  0.83557800  1
  Tl  Tl1  1  0.59939200  0.59939200  0.10879200  1
  Tl  Tl2  1  0.00000000  0.40060800  0.89120800  1
  Tl  Tl3  1  0.77897200  0.77897200  0.50000000  1
  Tl  Tl4  1  0.00000000  0.00000000  0.65250600  1
  Tl  Tl5  1  0.29464500  0.29464500  0.40601000  1
  Tl  Tl6  1  0.29464500  0.29464500  0.59399000  1
  Tl  Tl7  1  0.22102800  0.00000000  0.50000000  1
  Tl  Tl8  1  0.70535500  0.00000000  0.59399000  1
  Tl  Tl9  1  0.00000000  0.22102800  0.50000000  1
  Tl  Tl10  1  0.33333300  0.66666700  0.16442200  1
  Tl  Tl11  1  0.00000000  0.40060800  0.10879200  1
  Tl  Tl12  1  0.40060800  0.00000000  0.89120800  1
  Tl  Tl13  1  0.00000000  0.70535500  0.40601000  1
  Tl  Tl14  1  0.00000000  0.00000000  0.34749400  1
  Tl  Tl15  1  0.59939200  0.59939200  0.89120800  1
  Tl  Tl16  1  0.70535500  0.00000000  0.40601000  1
  Tl  Tl17  1  0.66666700  0.33333300  0.16442200  1
  Tl  Tl18  1  0.40060800  0.00000000  0.10879200  1
  Tl  Tl19  1  0.66666700  0.33333300  0.83557800  1
  Tl  Tl20  1  0.00000000  0.70535500  0.59399000  1
  Cd  Cd0  1  0.16479500  0.00000000  0.00000000  1
  Cd  Cd1  1  0.29921000  0.47169600  0.00000000  1
  Cd  Cd2  1  0.00000000  0.16479500  0.00000000  1
  Cd  Cd3  1  0.70079000  0.17248600  0.00000000  1
  Cd  Cd4  1  0.83520500  0.83520500  0.00000000  1
  Cd  Cd5  1  0.82751400  0.52830400  0.00000000  1
  Cd  Cd6  1  0.47169600  0.29921000  0.00000000  1
  Cd  Cd7  1  0.52830400  0.82751400  0.00000000  1
  Cd  Cd8  1  0.17248600  0.70079000  0.00000000  1
loop_
_geom_bond_atom_site_label_1
_geom_bond_atom_site_label_2
_geom_bond_distance
_geom_bond_site_symmetry_2
K0 Tl18 3.757257 1_555
K0 Tl1 3.784281 1_545
K0 Tl11 3.784281 1_655
K0 Tl17 3.898970 1_555
K0 Tl10 3.898976 1_545
K0 Tl14 3.932915 1_655
K0 Tl16 4.030267 1_555
K1 Tl20 3.607776 1_555
K1 Tl2 3.647906 1_555
K1 Tl9 3.652472 1_555
K1 Tl6 3.914782 1_555
K1 Tl8 3.914782 1_455
K1 Tl4 4.000241 1_555
K1 Tl19 4.138692 1_455
K1 Tl0 4.138695 1_555
K2 Tl15 3.757257 1_555
K2 Tl2 3.784281 1_555
K2 Tl12 3.784281 1_555
K2 Tl19 3.898980 1_555
K2 Tl0 3.898980 1_555
K2 Tl4 3.932915 1_555
K2 Tl6 4.030267 1_555
K3 Tl5 3.607776 1_555
K3 Tl1 3.647906 1_555
K3 Tl3 3.652472 1_555
K3 Tl13 3.914782 1_655
K3 Tl16 3.914782 1_565
K3 Tl14 4.000241 1_665
K3 Tl10 4.138700 1_555
K3 Tl17 4.138700 1_555
K4 Tl8 3.607776 1_555
K4 Tl12 3.647906 1_555
K4 Tl7 3.652472 1_555
K4 Tl6 3.914782 1_555
K4 Tl20 3.914782 1_545
K4 Tl4 4.000241 1_555
K4 Tl0 4.138692 1_545
K4 Tl19 4.138695 1_555
K5 Tl6 3.607776 1_555
K5 Tl15 3.647906 1_555
K5 Tl3 3.652472 1_555
K5 Tl8 3.914782 1_565
K5 Tl20 3.914782 1_655
K5 Tl4 4.000241 1_665
K5 Tl19 4.138700 1_555
K5 Tl0 4.138700 1_555
K6 Tl12 3.757257 1_555
K6 Tl15 3.784281 1_545
K6 Tl2 3.784281 1_655
K6 Tl19 3.898970 1_555
K6 Tl0 3.898976 1_545
K6 Tl4 3.932915 1_655
K6 Tl8 4.030267 1_555
K7 Tl16 3.607776 1_555
K7 Tl18 3.647906 1_555
K7 Tl7 3.652472 1_555
K7 Tl5 3.914782 1_555
K7 Tl13 3.914782 1_545
K7 Tl14 4.000241 1_555
K7 Tl10 4.138692 1_545
K7 Tl17 4.138695 1_555
K8 Tl11 3.757257 1_555
K8 Tl1 3.784281 1_455
K8 Tl18 3.784281 1_565
K8 Tl10 3.898970 1_555
K8 Tl17 3.898976 1_455
K8 Tl14 3.932915 1_565
K8 Tl13 4.030267 1_555
K9 Tl13 3.607776 1_555
K9 Tl11 3.647906 1_555
K9 Tl9 3.652472 1_555
K9 Tl5 3.914782 1_555
K9 Tl16 3.914782 1_455
K9 Tl14 4.000241 1_555
K9 Tl17 4.138692 1_455
K9 Tl10 4.138695 1_555
K10 Tl13 3.978598 1_555
K10 Tl20 3.978598 1_555
K10 Tl16 3.978604 1_565
K10 Tl8 3.978604 1_565
K10 Tl5 3.978607 1_555
K10 Tl6 3.978607 1_555
K10 Tl7 4.101420 1_565
K10 Tl9 4.101427 1_555
K10 Tl3 4.101430 1_555
K11 Tl2 3.757257 1_555
K11 Tl15 3.784281 1_455
K11 Tl12 3.784281 1_565
K11 Tl0 3.898970 1_555
K11 Tl19 3.898976 1_455
K11 Tl4 3.932915 1_565
K11 Tl20 4.030267 1_555
K12 Tl16 3.978598 1_555
K12 Tl8 3.978598 1_555
K12 Tl13 3.978604 1_655
K12 Tl20 3.978604 1_655
K12 Tl5 3.978607 1_555
K12 Tl6 3.978607 1_555
K12 Tl9 4.101420 1_655
K12 Tl7 4.101427 1_555
K12 Tl3 4.101430 1_555
K13 Tl1 3.757257 1_555
K13 Tl11 3.784281 1_555
K13 Tl18 3.784281 1_555
K13 Tl10 3.898980 1_555
K13 Tl17 3.898980 1_555
K13 Tl14 3.932915 1_555
K13 Tl5 4.030267 1_555
Tl0 Tl12 3.268868 1_565
Tl0 Tl2 3.268871 1_555
Tl0 Tl15 3.268877 1_555
Tl1 Tl10 3.268877 1_555
Tl1 Tl17 3.268877 1_555
Tl3 Tl8 3.176886 1_565
Tl3 Tl4 3.504948 1_665
Tl4 Tl8 3.181138 1_455
Tl4 Tl6 3.181138 1_555
Tl4 Tl7 3.504948 1_555
Tl4 Tl9 3.504948 1_555
Tl5 Tl7 3.176886 1_555
Tl5 Tl9 3.176886 1_555
Tl5 Tl6 3.304069 1_555
Tl6 Tl7 3.176886 1_555
Tl6 Tl9 3.176886 1_555
Tl8 Tl9 3.176886 1_655
Tl10 Tl18 3.268868 1_565
Tl10 Tl11 3.268871 1_555
Tl11 Tl17 3.268868 1_455
Tl12 Tl19 3.268871 1_555
Tl13 Tl3 3.176886 1_455
Tl13 Tl7 3.176886 1_565
Tl13 Tl14 3.181138 1_565
Tl13 Tl20 3.304069 1_555
Tl14 Tl16 3.181138 1_455
Tl14 Tl5 3.181138 1_555
Tl14 Tl9 3.504948 1_555
Tl14 Tl7 3.504948 1_555
Tl14 Tl3 3.504948 1_445
Tl15 Tl19 3.268877 1_555
Tl16 Tl3 3.176886 1_545
Tl16 Tl9 3.176886 1_655
Tl16 Tl8 3.304069 1_555
Tl17 Tl18 3.268871 1_555
Tl19 Tl2 3.268868 1_655
Tl20 Tl3 3.176886 1_455
Tl20 Tl7 3.176886 1_565
Tl20 Tl4 3.181138 1_565
Cd0 Cd2 2.916168 1_555
Cd0 Cd4 2.916168 1_445
Cd0 Tl12 3.075849 1_554
Cd0 Tl18 3.075849 1_555
Cd0 Cd8 3.096955 1_545
Cd0 Cd6 3.096955 1_555
Cd0 K2 3.861214 1_554
Cd0 K13 3.861214 1_555
Cd0 K11 3.861214 1_544
Cd0 K8 3.861214 1_545
Cd1 Cd6 3.052266 1_555
Cd1 Cd2 3.096955 1_555
Cd1 Cd8 3.191366 1_555
Cd1 Cd7 3.191366 1_555
Cd1 Tl15 3.280709 1_554
Cd1 Tl1 3.280709 1_555
Cd1 Tl2 3.362824 1_554
Cd1 Tl11 3.362824 1_555
Cd1 Tl10 3.427395 1_555
Cd1 Tl0 3.427395 1_554
Cd1 K2 3.741731 1_554
Cd1 K13 3.741731 1_555
Cd2 Cd4 2.916168 1_445
Cd2 Tl2 3.075849 1_554
Cd2 Tl11 3.075849 1_555
Cd2 Cd3 3.096955 1_455
Cd2 K2 3.861214 1_554
Cd2 K13 3.861214 1_555
Cd2 K6 3.861214 1_454
Cd2 K0 3.861214 1_455
Cd3 Cd7 3.052266 1_545
Cd3 Cd6 3.191366 1_555
Cd3 Cd5 3.191366 1_555
Cd3 Tl18 3.280709 1_555
Cd3 Tl12 3.280709 1_554
Cd3 Tl11 3.362824 1_655
Cd3 Tl2 3.362824 1_654
Cd3 Tl17 3.427390 1_555
Cd3 Tl19 3.427390 1_554
Cd3 K6 3.741731 1_554
Cd3 K0 3.741731 1_555
Cd4 Tl1 3.075849 1_555
Cd4 Tl15 3.075849 1_554
Cd4 Cd7 3.096955 1_555
Cd4 Cd5 3.096955 1_555
Cd4 K11 3.861214 1_654
Cd4 K6 3.861214 1_564
Cd4 K0 3.861214 1_565
Cd4 K8 3.861214 1_655
Cd5 Cd8 3.052266 1_655
Cd5 Cd6 3.191366 1_555
Cd5 Tl11 3.280709 1_655
Cd5 Tl2 3.280709 1_654
Cd5 Tl15 3.362824 1_554
Cd5 Tl1 3.362824 1_555
Cd5 Tl17 3.427393 1_555
Cd5 Tl19 3.427393 1_554
Cd5 K11 3.741731 1_654
Cd5 K8 3.741731 1_655
Cd6 Tl15 3.280709 1_554
Cd6 Tl1 3.280709 1_555
Cd6 Tl12 3.362824 1_554
Cd6 Tl18 3.362824 1_555
Cd6 Tl17 3.427395 1_555
Cd6 Tl19 3.427395 1_554
Cd6 K2 3.741731 1_554
Cd6 K13 3.741731 1_555
Cd7 Cd8 3.191366 1_555
Cd7 Tl12 3.280709 1_564
Cd7 Tl18 3.280709 1_565
Cd7 Tl15 3.362824 1_554
Cd7 Tl1 3.362824 1_555
Cd7 Tl10 3.427393 1_555
Cd7 Tl0 3.427393 1_554
Cd7 K6 3.741731 1_564
Cd7 K0 3.741731 1_565
Cd8 Tl2 3.280709 1_554
Cd8 Tl11 3.280709 1_555
Cd8 Tl18 3.362824 1_565
Cd8 Tl12 3.362824 1_564
Cd8 Tl10 3.427390 1_555
Cd8 Tl0 3.427390 1_554
Cd8 K11 3.741731 1_554
Cd8 K8 3.741731 1_555
