# generated using pymatgen
data_K2Fe(CO)4
_symmetry_space_group_name_H-M   'P 1'
_cell_length_a   13.16438672
_cell_length_b   12.14539761
_cell_length_c   6.45485719
_cell_angle_alpha   84.18905256
_cell_angle_beta   66.61436309
_cell_angle_gamma   29.19658436
_symmetry_Int_Tables_number   1
_chemical_formula_structural   K2Fe(CO)4
_chemical_formula_sum   'K4 Fe2 C8 O8'
_cell_volume   386.60194589
_cell_formula_units_Z   2
loop_
 _symmetry_equiv_pos_site_id
 _symmetry_equiv_pos_as_xyz
  1  'x, y, z'
loop_
 _atom_site_type_symbol
 _atom_site_label
 _atom_site_symmetry_multiplicity
 _atom_site_fract_x
 _atom_site_fract_y
 _atom_site_fract_z
 _atom_site_occupancy
  K  K0  1  0.17717600  0.17717600  0.82282400  1
  K  K1  1  0.82282400  0.82282400  0.17717600  1
  K  K2  1  0.42717600  0.42717600  0.07282400  1
  K  K3  1  0.07282400  0.07282400  0.42717600  1
  Fe  Fe0  1  0.50000000  0.50000000  0.50000000  1
  Fe  Fe1  1  0.75000000  0.75000000  0.75000000  1
  C  C0  1  0.06279200  0.52438000  0.58262000  1
  C  C1  1  0.72562000  0.18720800  0.41979200  1
  C  C2  1  0.41979200  0.66738000  0.72562000  1
  C  C3  1  0.66738000  0.41979200  0.18720800  1
  C  C4  1  0.58262000  0.83020800  0.06279200  1
  C  C5  1  0.18720800  0.72562000  0.66738000  1
  C  C6  1  0.52438000  0.06279200  0.83020800  1
  C  C7  1  0.83020800  0.58262000  0.52438000  1
  O  O0  1  0.36706800  0.28094700  0.89836600  1
  O  O1  1  0.45362000  0.89836600  0.28094700  1
  O  O2  1  0.88293200  0.96905300  0.35163400  1
  O  O3  1  0.35163400  0.79638000  0.88293200  1
  O  O4  1  0.79638000  0.35163400  0.96905300  1
  O  O5  1  0.89836600  0.45362000  0.36706800  1
  O  O6  1  0.96905300  0.88293200  0.79638000  1
  O  O7  1  0.28094700  0.36706800  0.45362000  1
loop_
_geom_bond_atom_site_label_1
_geom_bond_atom_site_label_2
_geom_bond_distance
_geom_bond_site_symmetry_2
K0 O1 2.779049 1_545
K0 O5 2.779054 1_456
K0 O3 2.935033 1_545
K0 O4 2.935034 1_455
K1 O7 2.779051 1_565
K1 O0 2.779052 1_654
K1 O2 2.935022 1_555
K1 O6 2.935025 1_554
K2 O6 2.779051 1_544
K2 O2 2.779052 1_455
K2 O0 2.935022 1_554
K2 O7 2.935025 1_555
K3 O4 2.779049 1_455
K3 O3 2.779054 1_544
K3 O5 2.935033 1_455
K3 O1 2.935034 1_545
C0 O7 1.198097 1_555
C0 Fe1 1.731963 1_455
C1 O2 1.198096 1_545
C1 Fe0 1.731963 1_555
C2 O3 1.198087 1_555
C2 Fe0 1.731963 1_555
C3 O4 1.198092 1_554
C3 Fe0 1.731963 1_555
C4 O1 1.198092 1_555
C4 Fe1 1.731963 1_554
C5 O6 1.198097 1_455
C5 Fe0 1.731963 1_555
C6 O0 1.198096 1_555
C6 Fe1 1.731963 1_545
C7 O5 1.198087 1_555
C7 Fe1 1.731963 1_555
