# generated using pymatgen
data_KFePO4
_symmetry_space_group_name_H-M   'P 1'
_cell_length_a   8.84079400
_cell_length_b   9.87956700
_cell_length_c   11.15101708
_cell_angle_alpha   63.06591031
_cell_angle_beta   90.00000000
_cell_angle_gamma   90.00000000
_symmetry_Int_Tables_number   1
_chemical_formula_structural   KFePO4
_chemical_formula_sum   'K8 Fe8 P8 O32'
_cell_volume   868.31787185
_cell_formula_units_Z   8
loop_
 _symmetry_equiv_pos_site_id
 _symmetry_equiv_pos_as_xyz
  1  'x, y, z'
loop_
 _atom_site_type_symbol
 _atom_site_label
 _atom_site_symmetry_multiplicity
 _atom_site_fract_x
 _atom_site_fract_y
 _atom_site_fract_z
 _atom_site_occupancy
  K  K0  1  0.99657100  0.53277200  0.65891000  1
  K  K1  1  0.47426300  0.93744500  0.83071100  1
  K  K2  1  0.00342900  0.46722800  0.34109000  1
  K  K3  1  0.49657100  0.46722800  0.84109000  1
  K  K4  1  0.50342900  0.53277200  0.15891000  1
  K  K5  1  0.52573700  0.06255500  0.16928900  1
  K  K6  1  0.02573700  0.93744500  0.33071100  1
  K  K7  1  0.97426300  0.06255500  0.66928900  1
  Fe  Fe0  1  0.12423800  0.65303200  0.94144700  1
  Fe  Fe1  1  0.62423800  0.34696800  0.55855300  1
  Fe  Fe2  1  0.65202200  0.84838100  0.54449200  1
  Fe  Fe3  1  0.37576200  0.65303200  0.44144700  1
  Fe  Fe4  1  0.84797800  0.84838100  0.04449200  1
  Fe  Fe5  1  0.15202200  0.15161900  0.95550800  1
  Fe  Fe6  1  0.34797800  0.15161900  0.45550800  1
  Fe  Fe7  1  0.87576200  0.34696800  0.05855300  1
  P  P0  1  0.19295200  0.30590800  0.14728800  1
  P  P1  1  0.69295200  0.69409200  0.35271200  1
  P  P2  1  0.71700000  0.19735600  0.37087000  1
  P  P3  1  0.21700000  0.80264400  0.12913000  1
  P  P4  1  0.30704800  0.30590800  0.64728800  1
  P  P5  1  0.78300000  0.19735600  0.87087000  1
  P  P6  1  0.80704800  0.69409200  0.85271200  1
  P  P7  1  0.28300000  0.80264400  0.62913000  1
  O  O0  1  0.79238300  0.31032700  0.23723400  1
  O  O1  1  0.57755600  0.78148600  0.40346000  1
  O  O2  1  0.39140000  0.45838200  0.61526200  1
  O  O3  1  0.60860000  0.54161800  0.38473800  1
  O  O4  1  0.84402300  0.66925700  0.42504300  1
  O  O5  1  0.34402300  0.33074300  0.07495700  1
  O  O6  1  0.95794100  0.21198200  0.85139300  1
  O  O7  1  0.76528600  0.03157000  0.40663000  1
  O  O8  1  0.89140000  0.54161800  0.88473800  1
  O  O9  1  0.04205900  0.78801800  0.14860700  1
  O  O10  1  0.54205900  0.21198200  0.35139300  1
  O  O11  1  0.70317200  0.78869100  0.19767400  1
  O  O12  1  0.26528600  0.96843000  0.09337000  1
  O  O13  1  0.15597700  0.33074300  0.57495700  1
  O  O14  1  0.20317200  0.21130900  0.30232600  1
  O  O15  1  0.07755600  0.21851400  0.09654000  1
  O  O16  1  0.42244400  0.21851400  0.59654000  1
  O  O17  1  0.20761700  0.68967300  0.76276600  1
  O  O18  1  0.73471400  0.03157000  0.90663000  1
  O  O19  1  0.73175400  0.23756000  0.98439300  1
  O  O20  1  0.45794100  0.78801800  0.64860700  1
  O  O21  1  0.10860000  0.45838200  0.11526200  1
  O  O22  1  0.29238300  0.68967300  0.26276600  1
  O  O23  1  0.65597700  0.66925700  0.92504300  1
  O  O24  1  0.26824600  0.76244000  0.01560700  1
  O  O25  1  0.29682800  0.21130900  0.80232600  1
  O  O26  1  0.23175400  0.76244000  0.51560700  1
  O  O27  1  0.79682800  0.78869100  0.69767400  1
  O  O28  1  0.92244400  0.78148600  0.90346000  1
  O  O29  1  0.70761700  0.31032700  0.73723400  1
  O  O30  1  0.23471400  0.96843000  0.59337000  1
  O  O31  1  0.76824600  0.23756000  0.48439300  1
loop_
_geom_bond_atom_site_label_1
_geom_bond_atom_site_label_2
_geom_bond_distance
_geom_bond_site_symmetry_2
K0 O4 2.693009 1_555
K0 O8 2.722668 1_555
K0 O13 2.922170 1_655
K0 O6 2.933477 1_555
K0 O26 2.956402 1_655
K0 O17 2.975168 1_655
K0 O29 3.221732 1_555
K0 O27 3.269243 1_555
K1 O24 2.707062 1_556
K1 O18 2.756184 1_565
K1 O16 2.858392 1_565
K1 O23 2.860540 1_555
K1 O20 3.006578 1_555
K1 O25 3.017556 1_565
K1 O30 3.293827 1_555
K2 O13 2.693009 1_555
K2 O21 2.722668 1_555
K2 O4 2.922170 1_455
K2 O9 2.933477 1_555
K2 O31 2.956402 1_455
K2 O0 2.975168 1_455
K2 O22 3.221732 1_555
K2 O14 3.269243 1_555
K3 O5 2.693009 1_556
K3 O2 2.722668 1_555
K3 O23 2.922170 1_555
K3 O20 2.933477 1_555
K3 O19 2.956402 1_555
K3 O29 2.975168 1_555
K3 O17 3.221732 1_555
K3 O25 3.269243 1_555
K4 O23 2.693009 1_554
K4 O3 2.722668 1_555
K4 O5 2.922170 1_555
K4 O10 2.933477 1_555
K4 O24 2.956402 1_555
K4 O22 2.975168 1_555
K4 O0 3.221732 1_555
K4 O11 3.269243 1_555
K5 O19 2.707062 1_554
K5 O12 2.756184 1_545
K5 O1 2.858392 1_545
K5 O5 2.860540 1_555
K5 O10 3.006578 1_555
K5 O11 3.017556 1_545
K5 O7 3.293827 1_555
K6 O26 2.707062 1_555
K6 O7 2.756184 1_465
K6 O15 2.858392 1_565
K6 O4 2.860540 1_455
K6 O9 3.006578 1_555
K6 O14 3.017556 1_565
K6 O12 3.293827 1_555
K7 O31 2.707062 1_555
K7 O30 2.756184 1_645
K7 O28 2.858392 1_545
K7 O13 2.860540 1_655
K7 O6 3.006578 1_555
K7 O27 3.017556 1_545
K7 O18 3.293827 1_555
Fe0 O17 1.997736 1_555
Fe0 O21 2.024170 1_556
Fe0 O24 2.069515 1_556
Fe0 O28 2.117946 1_455
Fe0 O8 2.545459 1_455
Fe1 O29 1.997736 1_555
Fe1 O3 2.024170 1_555
Fe1 O31 2.069515 1_555
Fe1 O16 2.117946 1_555
Fe1 O2 2.545459 1_555
Fe2 O27 1.997961 1_555
Fe2 O20 2.005087 1_555
Fe2 O7 2.030009 1_565
Fe2 O1 2.070025 1_555
Fe3 O22 1.997736 1_555
Fe3 O2 2.024170 1_555
Fe3 O26 2.069515 1_555
Fe3 O1 2.117946 1_555
Fe3 O3 2.545459 1_555
Fe4 O11 1.997961 1_555
Fe4 O9 2.005087 1_655
Fe4 O18 2.030009 1_564
Fe4 O28 2.070025 1_554
Fe5 O25 1.997961 1_555
Fe5 O6 2.005087 1_455
Fe5 O12 2.030009 1_546
Fe5 O15 2.070025 1_556
Fe6 O14 1.997961 1_555
Fe6 O10 2.005087 1_555
Fe6 O30 2.030009 1_545
Fe6 O16 2.070025 1_555
Fe7 O0 1.997736 1_555
Fe7 O8 2.024170 1_554
Fe7 O19 2.069515 1_554
Fe7 O15 2.117946 1_655
Fe7 O21 2.545459 1_655
O0 P2 1.550397 1_555
O1 P1 1.596605 1_555
O2 P4 1.570184 1_555
O3 P1 1.570184 1_555
O4 P1 1.521598 1_555
O5 P0 1.521598 1_555
O6 P5 1.559373 1_555
O7 P2 1.559567 1_555
O8 P6 1.570184 1_555
O9 P3 1.559373 1_555
O10 P2 1.559373 1_555
O11 P1 1.551363 1_555
O12 P3 1.559567 1_555
O13 P4 1.521598 1_555
O14 P0 1.551363 1_555
O15 P0 1.596605 1_555
O16 P4 1.596605 1_555
O17 P7 1.550397 1_555
O18 P5 1.559567 1_555
O19 P5 1.555967 1_555
O20 P7 1.559373 1_555
O21 P0 1.570184 1_555
O22 P3 1.550397 1_555
O23 P6 1.521598 1_555
O24 P3 1.555967 1_555
O25 P4 1.551363 1_555
O26 P7 1.555967 1_555
O27 P6 1.551363 1_555
O28 P6 1.596605 1_555
O29 P5 1.550397 1_555
O30 P7 1.559567 1_555
O31 P2 1.555967 1_555
