# generated using pymatgen
data_Rb4Ti3S14
_symmetry_space_group_name_H-M   'P 1'
_cell_length_a   11.42236442
_cell_length_b   11.42237000
_cell_length_c   13.47390468
_cell_angle_alpha   68.39980247
_cell_angle_beta   68.39982465
_cell_angle_gamma   42.15741484
_symmetry_Int_Tables_number   1
_chemical_formula_structural   Rb4Ti3S14
_chemical_formula_sum   'Rb8 Ti6 S28'
_cell_volume   1084.17423928
_cell_formula_units_Z   2
loop_
 _symmetry_equiv_pos_site_id
 _symmetry_equiv_pos_as_xyz
  1  'x, y, z'
loop_
 _atom_site_type_symbol
 _atom_site_label
 _atom_site_symmetry_multiplicity
 _atom_site_fract_x
 _atom_site_fract_y
 _atom_site_fract_z
 _atom_site_occupancy
  Rb  Rb0  1  0.11749421  0.47751477  0.11217656  1
  Rb  Rb1  1  0.52248539  0.88250523  0.38782328  1
  Rb  Rb2  1  0.88250649  0.52248635  0.88781990  1
  Rb  Rb3  1  0.47751423  0.11748915  0.61217975  1
  Rb  Rb4  1  0.82881623  0.30456855  0.35242039  1
  Rb  Rb5  1  0.69543179  0.17118346  0.14757979  1
  Rb  Rb6  1  0.17118393  0.69543716  0.64758064  1
  Rb  Rb7  1  0.30456305  0.82881673  0.85241922  1
  Ti  Ti0  1  0.08734774  0.57765467  0.41615183  1
  Ti  Ti1  1  0.42234510  0.91265243  0.08384869  1
  Ti  Ti2  1  0.91265360  0.42234333  0.58384864  1
  Ti  Ti3  1  0.57765653  0.08734700  0.91615127  1
  Ti  Ti4  1  0.26485871  0.73514112  0.25000017  1
  Ti  Ti5  1  0.73513893  0.26486102  0.74999987  1
  S  S0  1  0.07055292  0.73814177  0.21134782  1
  S  S1  1  0.26185758  0.92944780  0.28865240  1
  S  S2  1  0.92944142  0.26186090  0.78865174  1
  S  S3  1  0.73813840  0.07055946  0.71134783  1
  S  S4  1  0.93447163  0.50751081  0.40062139  1
  S  S5  1  0.49248837  0.06552914  0.09937873  1
  S  S6  1  0.06553251  0.49248218  0.59937921  1
  S  S7  1  0.50751678  0.93446815  0.90062142  1
  S  S8  1  0.97970922  0.15914754  0.58329784  1
  S  S9  1  0.84085190  0.02029250  0.91670181  1
  S  S10  1  0.02029399  0.84085110  0.41670370  1
  S  S11  1  0.15914793  0.97970686  0.08329658  1
  S  S12  1  0.31220604  0.34270699  0.83939793  1
  S  S13  1  0.65729405  0.68779308  0.66060207  1
  S  S14  1  0.68779313  0.65729207  0.16060454  1
  S  S15  1  0.34270882  0.31220596  0.33939540  1
  S  S16  1  0.30716839  0.61361120  0.10887506  1
  S  S17  1  0.38638916  0.69283154  0.39112492  1
  S  S18  1  0.69283124  0.38639025  0.89112316  1
  S  S19  1  0.61360996  0.30716896  0.60887612  1
  S  S20  1  0.43147535  0.39694514  0.86927176  1
  S  S21  1  0.60305562  0.56852411  0.63072784  1
  S  S22  1  0.56852453  0.60305450  0.13072841  1
  S  S23  1  0.39694621  0.43147476  0.36927173  1
  S  S24  1  0.10539017  0.18854545  0.10051788  1
  S  S25  1  0.81145571  0.89460833  0.39948250  1
  S  S26  1  0.89460886  0.81145595  0.89948154  1
  S  S27  1  0.18854417  0.10539257  0.60051869  1
loop_
_geom_bond_atom_site_label_1
_geom_bond_atom_site_label_2
_geom_bond_distance
_geom_bond_site_symmetry_2
Rb0 S5 3.269683 1_555
Rb0 S0 3.312116 1_555
Rb0 S16 3.461780 1_555
Rb0 S24 3.465953 1_555
Rb0 S26 3.488549 1_454
Rb0 S14 3.523989 1_455
Rb0 S20 3.619821 1_554
Rb0 S4 3.678175 1_455
Rb0 S15 3.727830 1_555
Rb0 S12 3.727872 1_554
Rb1 S4 3.269687 1_555
Rb1 S1 3.312109 1_555
Rb1 S17 3.461772 1_555
Rb1 S25 3.465958 1_555
Rb1 S27 3.488559 1_565
Rb1 S15 3.523991 1_565
Rb1 S21 3.619817 1_555
Rb1 S5 3.678173 1_565
Rb1 S14 3.727824 1_555
Rb1 S13 3.727875 1_555
Rb2 S7 3.269655 1_555
Rb2 S2 3.312119 1_555
Rb2 S18 3.461779 1_555
Rb2 S26 3.465958 1_555
Rb2 S24 3.488571 1_656
Rb2 S12 3.523974 1_655
Rb2 S22 3.619859 1_556
Rb2 S6 3.678136 1_655
Rb2 S13 3.727810 1_555
Rb2 S14 3.727937 1_556
Rb3 S6 3.269661 1_555
Rb3 S3 3.312141 1_555
Rb3 S19 3.461823 1_555
Rb3 S27 3.465908 1_555
Rb3 S25 3.488561 1_545
Rb3 S13 3.523938 1_545
Rb3 S23 3.619874 1_555
Rb3 S7 3.678139 1_545
Rb3 S12 3.727849 1_555
Rb3 S15 3.727928 1_555
Rb4 S14 3.359087 1_555
Rb4 S8 3.362367 1_555
Rb4 S19 3.420111 1_555
Rb4 S1 3.423891 1_645
Rb4 S17 3.465973 1_555
Rb4 S24 3.530794 1_655
Rb4 S4 3.617304 1_555
Rb4 S22 3.660331 1_555
Rb4 S10 3.798786 1_645
Rb4 S23 3.911915 1_555
Rb5 S15 3.359083 1_555
Rb5 S9 3.362366 1_554
Rb5 S18 3.420122 1_554
Rb5 S0 3.423894 1_645
Rb5 S16 3.465978 1_555
Rb5 S25 3.530799 1_545
Rb5 S5 3.617306 1_555
Rb5 S23 3.660331 1_555
Rb5 S11 3.798775 1_645
Rb5 S22 3.911922 1_555
Rb6 S12 3.359141 1_555
Rb6 S10 3.362362 1_555
Rb6 S17 3.420098 1_555
Rb6 S3 3.423914 1_465
Rb6 S19 3.465983 1_555
Rb6 S26 3.530777 1_455
Rb6 S6 3.617406 1_555
Rb6 S20 3.660323 1_555
Rb6 S8 3.798728 1_465
Rb6 S21 3.911885 1_555
Rb7 S13 3.359144 1_555
Rb7 S11 3.362367 1_556
Rb7 S16 3.420100 1_556
Rb7 S2 3.423906 1_465
Rb7 S18 3.465985 1_555
Rb7 S27 3.530774 1_565
Rb7 S7 3.617398 1_555
Rb7 S21 3.660334 1_555
Rb7 S9 3.798729 1_465
Rb7 S20 3.911892 1_555
S0 S16 2.057442 1_555
S0 Ti4 2.433799 1_555
S0 Ti0 2.675085 1_555
S1 S17 2.057445 1_555
S1 Ti4 2.433805 1_555
S1 Ti1 2.675083 1_555
S2 Ti5 2.433763 1_555
S2 Ti2 2.675066 1_555
S3 Ti5 2.433760 1_555
S3 Ti3 2.675069 1_555
S4 Ti2 2.289453 1_555
S4 Ti0 2.490324 1_655
S5 Ti3 2.289457 1_554
S5 Ti1 2.490322 1_545
S6 Ti0 2.289460 1_555
S6 Ti2 2.490306 1_455
S7 Ti1 2.289458 1_556
S7 Ti3 2.490310 1_565
S8 Ti2 2.494593 1_555
S8 Ti5 2.585165 1_555
S9 Ti3 2.494593 1_555
S9 Ti5 2.585155 1_555
S10 S25 2.062071 1_455
S10 Ti0 2.494618 1_555
S10 Ti4 2.585152 1_555
S11 S24 2.062073 1_565
S11 Ti1 2.494621 1_555
S11 Ti4 2.585157 1_555
S12 S20 2.059239 1_555
S12 Ti3 2.397157 1_555
S13 S21 2.059241 1_555
S13 Ti2 2.397154 1_555
S14 S22 2.059243 1_555
S14 Ti1 2.397158 1_555
S15 S23 2.059245 1_555
S15 Ti0 2.397168 1_555
S16 Ti4 2.459364 1_555
S17 Ti4 2.459364 1_555
S18 S2 2.057401 1_555
S18 Ti5 2.459348 1_555
S19 S3 2.057399 1_555
S19 Ti5 2.459349 1_555
S20 Ti3 2.463780 1_555
S20 Ti5 2.610033 1_555
S21 Ti2 2.463779 1_555
S21 Ti5 2.610032 1_555
S22 Ti1 2.463784 1_555
S22 Ti4 2.610044 1_555
S23 Ti0 2.463786 1_555
S23 Ti4 2.610046 1_555
S24 Ti1 2.468976 1_545
S25 Ti0 2.468967 1_655
S26 S9 2.062049 1_565
S26 Ti3 2.468956 1_565
S27 S8 2.062047 1_455
S27 Ti2 2.468947 1_455
