# generated using pymatgen
data_Ca2Ru2O7
_symmetry_space_group_name_H-M   'P 1'
_cell_length_a   7.23916112
_cell_length_b   7.23916112
_cell_length_c   7.23916112
_cell_angle_alpha   60.00000000
_cell_angle_beta   60.00000000
_cell_angle_gamma   60.00000000
_symmetry_Int_Tables_number   1
_chemical_formula_structural   Ca2Ru2O7
_chemical_formula_sum   'Ca4 Ru4 O14'
_cell_volume   268.25617685
_cell_formula_units_Z   2
loop_
 _symmetry_equiv_pos_site_id
 _symmetry_equiv_pos_as_xyz
  1  'x, y, z'
loop_
 _atom_site_type_symbol
 _atom_site_label
 _atom_site_symmetry_multiplicity
 _atom_site_fract_x
 _atom_site_fract_y
 _atom_site_fract_z
 _atom_site_occupancy
  Ca  Ca0  1  0.62500000  0.12500000  0.62500000  1
  Ca  Ca1  1  0.62500000  0.62500000  0.12500000  1
  Ca  Ca2  1  0.12500000  0.62500000  0.62500000  1
  Ca  Ca3  1  0.62500000  0.62500000  0.62500000  1
  Ru  Ru0  1  0.62500000  0.12500000  0.12500000  1
  Ru  Ru1  1  0.12500000  0.62500000  0.12500000  1
  Ru  Ru2  1  0.12500000  0.12500000  0.62500000  1
  Ru  Ru3  1  0.12500000  0.12500000  0.12500000  1
  O  O0  1  0.19548023  0.19548023  0.80451977  1
  O  O1  1  0.19548023  0.80451977  0.19548023  1
  O  O2  1  0.44548023  0.05451977  0.05451977  1
  O  O3  1  0.19548023  0.80451977  0.80451977  1
  O  O4  1  0.05451977  0.44548023  0.44548023  1
  O  O5  1  0.80451977  0.80451977  0.19548023  1
  O  O6  1  0.44548023  0.44548023  0.05451977  1
  O  O7  1  0.50000000  0.50000000  0.50000000  1
  O  O8  1  0.05451977  0.05451977  0.44548023  1
  O  O9  1  0.44548023  0.05451977  0.44548023  1
  O  O10  1  0.05451977  0.44548023  0.05451977  1
  O  O11  1  0.75000000  0.75000000  0.75000000  1
  O  O12  1  0.80451977  0.19548023  0.80451977  1
  O  O13  1  0.80451977  0.19548023  0.19548023  1
loop_
_geom_bond_atom_site_label_1
_geom_bond_atom_site_label_2
_geom_bond_distance
_geom_bond_site_symmetry_2
Ca0 O11 2.216531 1_545
Ca0 O7 2.216531 1_555
Ca0 O2 2.579364 1_556
Ca0 O8 2.579364 1_655
Ca0 O0 2.579364 1_555
Ca0 O12 2.579364 1_555
Ca0 O9 2.579364 1_555
Ca0 O13 2.579364 1_555
Ca1 O11 2.216531 1_554
Ca1 O7 2.216531 1_555
Ca1 O5 2.579364 1_555
Ca1 O6 2.579364 1_555
Ca1 O1 2.579364 1_555
Ca1 O13 2.579364 1_555
Ca1 O2 2.579364 1_565
Ca1 O10 2.579364 1_655
Ca2 O11 2.216531 1_455
Ca2 O7 2.216531 1_555
Ca2 O8 2.579364 1_565
Ca2 O3 2.579364 1_555
Ca2 O0 2.579364 1_555
Ca2 O1 2.579364 1_555
Ca2 O10 2.579364 1_556
Ca2 O4 2.579364 1_555
Ca3 O11 2.216531 1_555
Ca3 O7 2.216531 1_555
Ca3 O5 2.579364 1_555
Ca3 O3 2.579364 1_555
Ca3 O6 2.579364 1_556
Ca3 O12 2.579364 1_555
Ca3 O9 2.579364 1_565
Ca3 O4 2.579364 1_655
O0 Ru2 1.948329 1_555
O0 Ru3 1.948329 1_556
O1 Ru1 1.948329 1_555
O1 Ru3 1.948329 1_565
O2 Ru0 1.948329 1_555
O2 Ru3 1.948329 1_555
O3 Ru2 1.948329 1_565
O3 Ru1 1.948329 1_556
O4 Ru2 1.948329 1_555
O4 Ru1 1.948329 1_555
O5 Ru1 1.948329 1_655
O5 Ru0 1.948329 1_565
O6 Ru1 1.948329 1_555
O6 Ru0 1.948329 1_555
O8 Ru2 1.948329 1_555
O8 Ru3 1.948329 1_555
O9 Ru0 1.948329 1_555
O9 Ru2 1.948329 1_555
O10 Ru1 1.948329 1_555
O10 Ru3 1.948329 1_555
O12 Ru0 1.948329 1_556
O12 Ru2 1.948329 1_655
O13 Ru0 1.948329 1_555
O13 Ru3 1.948329 1_655
