# generated using pymatgen
data_SmCoSe2ClO6
_symmetry_space_group_name_H-M   'P 1'
_cell_length_a   7.24712300
_cell_length_b   9.03875531
_cell_length_c   12.10237544
_cell_angle_alpha   97.49894336
_cell_angle_beta   105.53335586
_cell_angle_gamma   107.96437855
_symmetry_Int_Tables_number   1
_chemical_formula_structural   SmCoSe2ClO6
_chemical_formula_sum   'Sm4 Co4 Se8 Cl4 O24'
_cell_volume   706.65892569
_cell_formula_units_Z   4
loop_
 _symmetry_equiv_pos_site_id
 _symmetry_equiv_pos_as_xyz
  1  'x, y, z'
loop_
 _atom_site_type_symbol
 _atom_site_label
 _atom_site_symmetry_multiplicity
 _atom_site_fract_x
 _atom_site_fract_y
 _atom_site_fract_z
 _atom_site_occupancy
  Sm  Sm0  1  0.16694900  0.38140400  0.43476800  1
  Sm  Sm1  1  0.18215100  0.90250500  0.93636400  1
  Sm  Sm2  1  0.81784900  0.09749500  0.06363600  1
  Sm  Sm3  1  0.83305100  0.61859600  0.56523200  1
  Co  Co0  1  0.09490800  0.09832700  0.65224900  1
  Co  Co1  1  0.90509200  0.90167300  0.34775100  1
  Co  Co2  1  0.07901700  0.61551400  0.15558600  1
  Co  Co3  1  0.92098300  0.38448600  0.84441400  1
  Se  Se0  1  0.48104800  0.25304600  0.92238400  1
  Se  Se1  1  0.24311500  0.01398600  0.25046200  1
  Se  Se2  1  0.51895200  0.74695400  0.07761600  1
  Se  Se3  1  0.53638900  0.26725600  0.59050900  1
  Se  Se4  1  0.73348700  0.39599800  0.25776900  1
  Se  Se5  1  0.75688500  0.98601400  0.74953800  1
  Se  Se6  1  0.46361100  0.73274400  0.40949100  1
  Se  Se7  1  0.26651300  0.60400200  0.74223100  1
  Cl  Cl0  1  0.87179000  0.62326000  0.94963100  1
  Cl  Cl1  1  0.84095500  0.11004400  0.46773000  1
  Cl  Cl2  1  0.12821000  0.37674000  0.05036900  1
  Cl  Cl3  1  0.15904500  0.88995600  0.53227000  1
  O  O0  1  0.86881600  0.88618300  0.67163800  1
  O  O1  1  0.31139200  0.28123200  0.61239600  1
  O  O2  1  0.47196900  0.64034900  0.52639000  1
  O  O3  1  0.27855800  0.09608900  0.81722100  1
  O  O4  1  0.90298000  0.50307000  0.39801100  1
  O  O5  1  0.52803100  0.35965100  0.47361000  1
  O  O6  1  0.12307000  0.72632800  0.75767800  1
  O  O7  1  0.11158600  0.01674100  0.10776300  1
  O  O8  1  0.10143900  0.82723900  0.26342600  1
  O  O9  1  0.88841400  0.98325900  0.89223700  1
  O  O10  1  0.68860800  0.71876800  0.38760400  1
  O  O11  1  0.69071500  0.22175100  0.89355700  1
  O  O12  1  0.51377600  0.84891000  0.96454300  1
  O  O13  1  0.89856100  0.17276100  0.73657400  1
  O  O14  1  0.72144200  0.90391100  0.18277900  1
  O  O15  1  0.09702000  0.49693000  0.60198900  1
  O  O16  1  0.73089000  0.43031600  0.69510900  1
  O  O17  1  0.87693000  0.27367200  0.24232200  1
  O  O18  1  0.26911000  0.56968400  0.30489100  1
  O  O19  1  0.30928500  0.77824900  0.10644300  1
  O  O20  1  0.79088800  0.51442400  0.16422900  1
  O  O21  1  0.48622400  0.15109000  0.03545700  1
  O  O22  1  0.13118400  0.11381700  0.32836200  1
  O  O23  1  0.20911200  0.48557600  0.83577100  1
loop_
_geom_bond_atom_site_label_1
_geom_bond_atom_site_label_2
_geom_bond_distance
_geom_bond_site_symmetry_2
Co0 O3 2.088524 1_555
Co0 O1 2.107292 1_555
Co0 O13 2.169799 1_455
Co0 O0 2.191340 1_445
Co1 O14 2.088524 1_555
Co1 O10 2.107292 1_555
Co1 O8 2.169799 1_655
Co1 O22 2.191340 1_665
Co2 O20 2.042310 1_455
Co2 O8 2.105890 1_555
Co2 O19 2.132590 1_555
Co2 O18 2.132755 1_555
Co3 O23 2.042310 1_655
Co3 O13 2.105890 1_555
Co3 O11 2.132590 1_555
Co3 O16 2.132755 1_555
Cl0 Co3 2.531191 1_555
Cl0 Co2 2.564876 1_656
Cl0 Sm1 2.872766 1_655
Cl1 Co1 2.461578 1_545
Cl1 Co0 2.523078 1_655
Cl1 Sm0 2.990377 1_655
Cl2 Co2 2.531191 1_555
Cl2 Co3 2.564876 1_454
Cl2 Sm2 2.872766 1_455
Cl3 Co0 2.461578 1_565
Cl3 Co1 2.523078 1_455
Cl3 Sm3 2.990377 1_455
O0 Se5 1.732089 1_555
O0 Sm3 2.489368 1_555
O1 Se3 1.759141 1_555
O1 Sm0 2.534624 1_555
O2 Se6 1.730998 1_555
O2 Sm0 2.532263 1_555
O2 Sm3 2.605757 1_555
O3 Se0 1.740732 1_555
O3 Sm1 2.464331 1_545
O4 Se4 1.745701 1_555
O4 Sm3 2.401461 1_555
O4 Sm0 2.456925 1_655
O5 Se3 1.730998 1_555
O5 Sm3 2.532263 1_555
O5 Sm0 2.605757 1_555
O6 Se7 1.759907 1_555
O6 Sm1 2.362264 1_555
O6 Sm3 2.512759 1_455
O7 Se1 1.742387 1_555
O7 Sm2 2.408499 1_455
O7 Sm1 2.442412 1_544
O8 Se1 1.736194 1_565
O9 Se5 1.742387 1_555
O9 Sm1 2.408499 1_655
O9 Sm2 2.442412 1_566
O10 Se6 1.759141 1_555
O10 Sm3 2.534624 1_555
O11 Se0 1.741796 1_555
O11 Sm2 2.563808 1_556
O12 Se2 1.745374 1_556
O12 Sm2 2.483910 1_566
O12 Sm1 2.539540 1_555
O13 Se5 1.736194 1_545
O14 Se2 1.740732 1_555
O14 Sm2 2.464331 1_565
O15 Se7 1.745701 1_555
O15 Sm0 2.401461 1_555
O15 Sm3 2.456925 1_455
O16 Se3 1.742829 1_555
O16 Sm3 2.541502 1_555
O17 Se4 1.759907 1_555
O17 Sm2 2.362264 1_555
O17 Sm0 2.512759 1_655
O18 Se6 1.742829 1_555
O18 Sm0 2.541502 1_555
O19 Se2 1.741796 1_555
O19 Sm1 2.563808 1_554
O20 Se4 1.701250 1_555
O21 Se0 1.745374 1_554
O21 Sm1 2.483910 1_544
O21 Sm2 2.539540 1_555
O22 Se1 1.732089 1_555
O22 Sm0 2.489368 1_555
O23 Se7 1.701250 1_555
