# generated using pymatgen
data_NiH12SO10
_symmetry_space_group_name_H-M   'P 1'
_cell_length_a   6.81737100
_cell_length_b   6.81737100
_cell_length_c   18.43761000
_cell_angle_alpha   90.00000000
_cell_angle_beta   90.00000000
_cell_angle_gamma   90.00000000
_symmetry_Int_Tables_number   1
_chemical_formula_structural   NiH12SO10
_chemical_formula_sum   'Ni4 H48 S4 O40'
_cell_volume   856.91645422
_cell_formula_units_Z   4
loop_
 _symmetry_equiv_pos_site_id
 _symmetry_equiv_pos_as_xyz
  1  'x, y, z'
loop_
 _atom_site_type_symbol
 _atom_site_label
 _atom_site_symmetry_multiplicity
 _atom_site_fract_x
 _atom_site_fract_y
 _atom_site_fract_z
 _atom_site_occupancy
  Ni  Ni0  1  0.28826500  0.71173500  0.25000000  1
  Ni  Ni1  1  0.78826500  0.78826500  0.50000000  1
  Ni  Ni2  1  0.71173500  0.28826500  0.75000000  1
  Ni  Ni3  1  0.21173500  0.21173500  0.00000000  1
  H  H0  1  0.42822200  0.85539500  0.54428000  1
  H  H1  1  0.14460500  0.57177800  0.95572000  1
  H  H2  1  0.50731600  0.96884800  0.18335500  1
  H  H3  1  0.57820500  0.64895000  0.70834400  1
  H  H4  1  0.64895000  0.57820500  0.29165600  1
  H  H5  1  0.72582600  0.01309300  0.38247700  1
  H  H6  1  0.58239500  0.75475000  0.34599700  1
  H  H7  1  0.22582600  0.48690700  0.36752300  1
  H  H8  1  0.07177800  0.35539500  0.70572000  1
  H  H9  1  0.53630000  0.37605700  0.05840100  1
  H  H10  1  0.41760500  0.24525000  0.84599700  1
  H  H11  1  0.03115200  0.49268400  0.31664500  1
  H  H12  1  0.77417400  0.51309300  0.86752300  1
  H  H13  1  0.48690700  0.22582600  0.63247700  1
  H  H14  1  0.08239500  0.74525000  0.40400300  1
  H  H15  1  0.53115200  0.00731600  0.43335500  1
  H  H16  1  0.00731600  0.53115200  0.56664500  1
  H  H17  1  0.25475000  0.91760500  0.09599700  1
  H  H18  1  0.96370000  0.87605700  0.19159900  1
  H  H19  1  0.14895000  0.92179500  0.45834400  1
  H  H20  1  0.57177800  0.14460500  0.04428000  1
  H  H21  1  0.46370000  0.62394300  0.55840100  1
  H  H22  1  0.35105000  0.42179500  0.79165600  1
  H  H23  1  0.51309300  0.77417400  0.13247700  1
  H  H24  1  0.01309300  0.72582600  0.61752300  1
  H  H25  1  0.92822200  0.64460500  0.20572000  1
  H  H26  1  0.74525000  0.08239500  0.59599700  1
  H  H27  1  0.85105000  0.07820500  0.95834400  1
  H  H28  1  0.37605700  0.53630000  0.94159900  1
  H  H29  1  0.62394300  0.46370000  0.44159900  1
  H  H30  1  0.35539500  0.07177800  0.29428000  1
  H  H31  1  0.03630000  0.12394300  0.69159900  1
  H  H32  1  0.49268400  0.03115200  0.68335500  1
  H  H33  1  0.27417400  0.98690700  0.88247700  1
  H  H34  1  0.42179500  0.35105000  0.20834400  1
  H  H35  1  0.85539500  0.42822200  0.45572000  1
  H  H36  1  0.96884800  0.50731600  0.81664500  1
  H  H37  1  0.46884800  0.99268400  0.93335500  1
  H  H38  1  0.87605700  0.96370000  0.80840100  1
  H  H39  1  0.24525000  0.41760500  0.15400300  1
  H  H40  1  0.12394300  0.03630000  0.30840100  1
  H  H41  1  0.64460500  0.92822200  0.79428000  1
  H  H42  1  0.75475000  0.58239500  0.65400300  1
  H  H43  1  0.98690700  0.27417400  0.11752300  1
  H  H44  1  0.92179500  0.14895000  0.54165600  1
  H  H45  1  0.91760500  0.25475000  0.90400300  1
  H  H46  1  0.07820500  0.85105000  0.04165600  1
  H  H47  1  0.99268400  0.46884800  0.06664500  1
  S  S0  1  0.70790100  0.70790100  0.00000000  1
  S  S1  1  0.29209900  0.29209900  0.50000000  1
  S  S2  1  0.20790100  0.79209900  0.75000000  1
  S  S3  1  0.79209900  0.20790100  0.25000000  1
  O  O0  1  0.25541400  0.97347900  0.30675200  1
  O  O1  1  0.85943200  0.42808700  0.83648700  1
  O  O2  1  0.17928300  0.95128700  0.05187500  1
  O  O3  1  0.88863600  0.12574700  0.18400400  1
  O  O4  1  0.14056800  0.57191300  0.33648700  1
  O  O5  1  0.17179200  0.57552100  0.75477000  1
  O  O6  1  0.42808700  0.85943200  0.16351300  1
  O  O7  1  0.37425300  0.38863600  0.43400400  1
  O  O8  1  0.42447900  0.82820800  0.74523000  1
  O  O9  1  0.62574700  0.61136400  0.93400400  1
  O  O10  1  0.52652100  0.75541400  0.55675200  1
  O  O11  1  0.47347900  0.24458600  0.05675200  1
  O  O12  1  0.67179200  0.92447900  0.99523000  1
  O  O13  1  0.95128700  0.17928300  0.94812500  1
  O  O14  1  0.75541400  0.52652100  0.44324800  1
  O  O15  1  0.61136400  0.62574700  0.06599600  1
  O  O16  1  0.07552100  0.32820800  0.50477000  1
  O  O17  1  0.57552100  0.17179200  0.24523000  1
  O  O18  1  0.04871300  0.82071700  0.44812500  1
  O  O19  1  0.32071700  0.45128700  0.19812500  1
  O  O20  1  0.02652100  0.74458600  0.19324800  1
  O  O21  1  0.64056800  0.92808700  0.41351300  1
  O  O22  1  0.97347900  0.25541400  0.69324800  1
  O  O23  1  0.87425300  0.11136400  0.31599600  1
  O  O24  1  0.35943200  0.07191300  0.91351300  1
  O  O25  1  0.24458600  0.47347900  0.94324800  1
  O  O26  1  0.12574700  0.88863600  0.81599600  1
  O  O27  1  0.92447900  0.67179200  0.00477000  1
  O  O28  1  0.74458600  0.02652100  0.80675200  1
  O  O29  1  0.11136400  0.87425300  0.68400400  1
  O  O30  1  0.57191300  0.14056800  0.66351300  1
  O  O31  1  0.54871300  0.67928300  0.30187500  1
  O  O32  1  0.38863600  0.37425300  0.56599600  1
  O  O33  1  0.82820800  0.42447900  0.25477000  1
  O  O34  1  0.92808700  0.64056800  0.58648700  1
  O  O35  1  0.82071700  0.04871300  0.55187500  1
  O  O36  1  0.45128700  0.32071700  0.80187500  1
  O  O37  1  0.32820800  0.07552100  0.49523000  1
  O  O38  1  0.67928300  0.54871300  0.69812500  1
  O  O39  1  0.07191300  0.35943200  0.08648700  1
loop_
_geom_bond_atom_site_label_1
_geom_bond_atom_site_label_2
_geom_bond_distance
_geom_bond_site_symmetry_2
Ni0 O31 2.028890 1_555
Ni0 O19 2.028890 1_555
Ni0 O0 2.080662 1_555
Ni0 O20 2.080662 1_555
Ni0 O4 2.113120 1_555
Ni0 O6 2.113120 1_555
Ni1 O18 2.028890 1_655
Ni1 O35 2.028890 1_565
Ni1 O10 2.080662 1_555
Ni1 O14 2.080662 1_555
Ni1 O34 2.113120 1_555
Ni1 O21 2.113120 1_555
Ni2 O38 2.028890 1_555
Ni2 O36 2.028890 1_555
Ni2 O28 2.080662 1_555
Ni2 O22 2.080662 1_555
Ni2 O1 2.113120 1_555
Ni2 O30 2.113120 1_555
Ni3 O2 2.028890 1_545
Ni3 O13 2.028890 1_454
Ni3 O11 2.080662 1_555
Ni3 O25 2.080662 1_554
Ni3 O39 2.113120 1_555
Ni3 O24 2.113120 1_554
H0 O10 0.983136 1_555
H1 O25 0.983136 1_555
H2 O6 0.990956 1_555
H3 O38 0.988590 1_555
H4 O31 0.988590 1_555
H5 O21 1.000561 1_545
H6 O31 0.989551 1_555
H7 O4 1.000561 1_555
H8 O22 0.983136 1_455
H9 O11 0.993817 1_555
H10 O36 0.989551 1_555
H11 O4 0.990956 1_555
H12 O1 1.000561 1_555
H13 O30 1.000561 1_555
H14 O18 0.989551 1_555
H15 O21 0.990956 1_545
H16 O34 0.990956 1_455
H17 O2 0.989551 1_555
H18 O20 0.993817 1_655
H19 O18 0.988590 1_555
H20 O11 0.983136 1_555
H21 O10 0.993817 1_555
H22 O36 0.988590 1_555
H23 O6 1.000561 1_555
H24 O34 1.000561 1_455
H25 O20 0.983136 1_655
H26 O35 0.989551 1_555
H27 O13 0.988590 1_555
H28 O25 0.993817 1_555
H29 O14 0.993817 1_555
H30 O0 0.983136 1_545
H31 O22 0.993817 1_455
H32 O30 0.990956 1_555
H33 O24 1.000561 1_565
H34 O19 0.988590 1_555
H35 O14 0.983136 1_555
H36 O1 0.990956 1_555
H37 O24 0.990956 1_565
H38 O28 0.993817 1_565
H39 O19 0.989551 1_555
H40 O0 0.993817 1_545
H41 O28 0.983136 1_565
H42 O38 0.989551 1_555
H43 O39 1.000561 1_655
H44 O35 0.988590 1_555
H45 O13 0.989551 1_555
H46 O2 0.988590 1_555
H47 O39 0.990956 1_655
O3 S3 1.492461 1_555
O5 S2 1.499455 1_555
O7 S1 1.492461 1_555
O8 S2 1.499455 1_555
O9 S0 1.492461 1_556
O12 S0 1.499455 1_556
O15 S0 1.492461 1_555
O16 S1 1.499455 1_555
O17 S3 1.499455 1_555
O23 S3 1.492461 1_555
O26 S2 1.492461 1_555
O27 S0 1.499455 1_555
O29 S2 1.492461 1_555
O32 S1 1.492461 1_555
O33 S3 1.499455 1_555
O37 S1 1.499455 1_555
