# generated using pymatgen
data_KNb2PS10
_symmetry_space_group_name_H-M   'P 1'
_cell_length_a   7.88311300
_cell_length_b   13.12532800
_cell_length_c   13.94504000
_cell_angle_alpha   90.00000000
_cell_angle_beta   90.00000000
_cell_angle_gamma   90.00000000
_symmetry_Int_Tables_number   1
_chemical_formula_structural   KNb2PS10
_chemical_formula_sum   'K4 Nb8 P4 S40'
_cell_volume   1442.87158733
_cell_formula_units_Z   4
loop_
 _symmetry_equiv_pos_site_id
 _symmetry_equiv_pos_as_xyz
  1  'x, y, z'
loop_
 _atom_site_type_symbol
 _atom_site_label
 _atom_site_symmetry_multiplicity
 _atom_site_fract_x
 _atom_site_fract_y
 _atom_site_fract_z
 _atom_site_occupancy
  K  K0  1  0.50227900  0.88152200  0.34839800  1
  K  K1  1  0.49772100  0.11847800  0.84839800  1
  K  K2  1  0.49772100  0.38152200  0.34839800  1
  K  K3  1  0.50227900  0.61847800  0.84839800  1
  Nb  Nb0  1  0.06933900  0.81353700  0.61266100  1
  Nb  Nb1  1  0.93066100  0.18646300  0.11266100  1
  Nb  Nb2  1  0.93066100  0.31353700  0.61266100  1
  Nb  Nb3  1  0.06933900  0.68646300  0.11266100  1
  Nb  Nb4  1  0.94869200  0.02399700  0.61350000  1
  Nb  Nb5  1  0.05130800  0.97600300  0.11350000  1
  Nb  Nb6  1  0.05130800  0.52399700  0.61350000  1
  Nb  Nb7  1  0.94869200  0.47600300  0.11350000  1
  P  P0  1  0.38947200  0.66033100  0.54046400  1
  P  P1  1  0.61052800  0.33966900  0.04046400  1
  P  P2  1  0.61052800  0.16033100  0.54046400  1
  P  P3  1  0.38947200  0.83966900  0.04046400  1
  S  S0  1  0.14003700  0.66648800  0.48730200  1
  S  S1  1  0.85996300  0.33351200  0.98730200  1
  S  S2  1  0.85996300  0.16648800  0.48730200  1
  S  S3  1  0.14003700  0.83351200  0.98730200  1
  S  S4  1  0.39663400  0.79274000  0.61983900  1
  S  S5  1  0.60336600  0.20726000  0.11983900  1
  S  S6  1  0.60336600  0.29274000  0.61983900  1
  S  S7  1  0.39663400  0.70726000  0.11983900  1
  S  S8  1  0.89893900  0.89839200  0.74483100  1
  S  S9  1  0.10106100  0.10160800  0.24483100  1
  S  S10  1  0.10106100  0.39839200  0.74483100  1
  S  S11  1  0.89893900  0.60160800  0.24483100  1
  S  S12  1  0.88661800  0.89074300  0.48560200  1
  S  S13  1  0.11338200  0.10925700  0.98560200  1
  S  S14  1  0.11338200  0.39074300  0.48560200  1
  S  S15  1  0.88661800  0.60925700  0.98560200  1
  S  S16  1  0.05024700  0.66891600  0.73776500  1
  S  S17  1  0.94975300  0.33108400  0.23776500  1
  S  S18  1  0.94975300  0.16891600  0.73776500  1
  S  S19  1  0.05024700  0.83108400  0.23776500  1
  S  S20  1  0.12800100  0.94807900  0.48260800  1
  S  S21  1  0.87199900  0.05192100  0.98260800  1
  S  S22  1  0.87199900  0.44807900  0.48260800  1
  S  S23  1  0.12800100  0.55192100  0.98260800  1
  S  S24  1  0.56952000  0.65082700  0.44124600  1
  S  S25  1  0.43048000  0.34917300  0.94124600  1
  S  S26  1  0.43048000  0.15082700  0.44124600  1
  S  S27  1  0.56952000  0.84917300  0.94124600  1
  S  S28  1  0.84655600  0.67376800  0.64610700  1
  S  S29  1  0.15344400  0.32623200  0.14610700  1
  S  S30  1  0.15344400  0.17376800  0.64610700  1
  S  S31  1  0.84655600  0.82623200  0.14610700  1
  S  S32  1  0.37966100  0.53256000  0.62760200  1
  S  S33  1  0.62033900  0.46744000  0.12760200  1
  S  S34  1  0.62033900  0.03256000  0.62760200  1
  S  S35  1  0.37966100  0.96744000  0.12760200  1
  S  S36  1  0.14410400  0.94410900  0.73622400  1
  S  S37  1  0.85589600  0.05589100  0.23622400  1
  S  S38  1  0.85589600  0.44410900  0.73622400  1
  S  S39  1  0.14410400  0.55589100  0.23622400  1
loop_
_geom_bond_atom_site_label_1
_geom_bond_atom_site_label_2
_geom_bond_distance
_geom_bond_site_symmetry_2
K0 S24 3.335546 1_555
K0 S35 3.418530 1_555
K0 S12 3.585392 1_555
K0 S20 3.601556 1_555
K1 S25 3.335546 1_555
K1 S34 3.418530 1_555
K1 S13 3.585392 1_555
K1 S21 3.601556 1_555
K2 S26 3.335546 1_555
K2 S33 3.418530 1_555
K2 S14 3.585392 1_555
K2 S22 3.601556 1_555
K3 S27 3.335546 1_555
K3 S32 3.418530 1_555
K3 S15 3.585392 1_555
K3 S23 3.601556 1_555
Nb0 S12 2.498218 1_455
Nb0 S36 2.500705 1_555
Nb0 S8 2.538094 1_455
Nb0 S20 2.573209 1_555
Nb0 S28 2.582111 1_455
Nb0 S16 2.582512 1_555
Nb0 S4 2.596433 1_555
Nb0 S0 2.663033 1_555
Nb1 S13 2.498218 1_654
Nb1 S37 2.500705 1_555
Nb1 S9 2.538094 1_655
Nb1 S21 2.573209 1_554
Nb1 S29 2.582111 1_655
Nb1 S17 2.582512 1_555
Nb1 S5 2.596433 1_555
Nb1 S1 2.663033 1_554
Nb2 S14 2.498218 1_655
Nb2 S38 2.500705 1_555
Nb2 S10 2.538094 1_655
Nb2 S22 2.573209 1_555
Nb2 S30 2.582111 1_655
Nb2 S18 2.582512 1_555
Nb2 S6 2.596433 1_555
Nb2 S2 2.663033 1_555
Nb3 S15 2.498218 1_454
Nb3 S39 2.500705 1_555
Nb3 S11 2.538094 1_455
Nb3 S23 2.573209 1_554
Nb3 S31 2.582111 1_455
Nb3 S19 2.582512 1_555
Nb3 S7 2.596433 1_555
Nb3 S3 2.663033 1_554
Nb4 S8 2.495159 1_545
Nb4 S20 2.514484 1_645
Nb4 S36 2.530085 1_645
Nb4 S12 2.545483 1_545
Nb4 S18 2.573124 1_555
Nb4 S30 2.583866 1_655
Nb4 S34 2.598335 1_555
Nb4 S2 2.661592 1_555
Nb5 S9 2.495159 1_565
Nb5 S21 2.514484 1_464
Nb5 S37 2.530085 1_465
Nb5 S13 2.545483 1_564
Nb5 S19 2.573124 1_555
Nb5 S31 2.583866 1_455
Nb5 S35 2.598335 1_555
Nb5 S3 2.661592 1_554
Nb6 S10 2.495159 1_555
Nb6 S22 2.514484 1_455
Nb6 S38 2.530085 1_455
Nb6 S14 2.545483 1_555
Nb6 S16 2.573124 1_555
Nb6 S28 2.583866 1_455
Nb6 S32 2.598335 1_555
Nb6 S0 2.661592 1_555
Nb7 S11 2.495159 1_555
Nb7 S23 2.514484 1_654
Nb7 S39 2.530085 1_655
Nb7 S15 2.545483 1_554
Nb7 S17 2.573124 1_555
Nb7 S29 2.583866 1_655
Nb7 S33 2.598335 1_555
Nb7 S1 2.661592 1_554
P0 S24 1.986059 1_555
P0 S4 2.061243 1_555
P0 S32 2.072439 1_555
P0 S0 2.102987 1_555
P1 S25 1.986059 1_554
P1 S5 2.061243 1_555
P1 S33 2.072439 1_555
P1 S1 2.102987 1_554
P2 S26 1.986059 1_555
P2 S6 2.061243 1_555
P2 S34 2.072439 1_555
P2 S2 2.102987 1_555
P3 S27 1.986059 1_554
P3 S7 2.061243 1_555
P3 S35 2.072439 1_555
P3 S3 2.102987 1_554
S10 S38 2.027228 1_455
S11 S39 2.027228 1_655
S12 S20 2.046684 1_655
S13 S21 2.046684 1_455
S14 S22 2.046684 1_455
S15 S23 2.046684 1_655
S16 S28 2.053319 1_455
S17 S29 2.053319 1_655
S18 S30 2.053319 1_655
S19 S31 2.053319 1_455
S36 S8 2.027228 1_455
S37 S9 2.027228 1_655
