# generated using pymatgen
data_Rb2ZnBr4
_symmetry_space_group_name_H-M   'P 1'
_cell_length_a   7.61667702
_cell_length_b   9.74691340
_cell_length_c   13.44919887
_cell_angle_alpha   90.00000000
_cell_angle_beta   90.00000000
_cell_angle_gamma   90.00000000
_symmetry_Int_Tables_number   1
_chemical_formula_structural   Rb2ZnBr4
_chemical_formula_sum   'Rb8 Zn4 Br16'
_cell_volume   998.45630295
_cell_formula_units_Z   4
loop_
 _symmetry_equiv_pos_site_id
 _symmetry_equiv_pos_as_xyz
  1  'x, y, z'
loop_
 _atom_site_type_symbol
 _atom_site_label
 _atom_site_symmetry_multiplicity
 _atom_site_fract_x
 _atom_site_fract_y
 _atom_site_fract_z
 _atom_site_occupancy
  Rb  Rb0  1  0.25000000  0.48167145  0.67283866  1
  Rb  Rb1  1  0.75000000  0.37833794  0.92130763  1
  Rb  Rb2  1  0.75000000  0.87833794  0.57869237  1
  Rb  Rb3  1  0.25000000  0.12166206  0.42130763  1
  Rb  Rb4  1  0.25000000  0.62166206  0.07869237  1
  Rb  Rb5  1  0.75000000  0.01832855  0.17283866  1
  Rb  Rb6  1  0.75000000  0.51832855  0.32716134  1
  Rb  Rb7  1  0.25000000  0.98167145  0.82716134  1
  Zn  Zn0  1  0.25000000  0.22524225  0.07701026  1
  Zn  Zn1  1  0.75000000  0.27475775  0.57701026  1
  Zn  Zn2  1  0.25000000  0.72524225  0.42298974  1
  Zn  Zn3  1  0.75000000  0.77475775  0.92298974  1
  Br  Br0  1  0.25000000  0.81496107  0.59120970  1
  Br  Br1  1  0.50635071  0.82272493  0.34626797  1
  Br  Br2  1  0.50635071  0.32272493  0.15373203  1
  Br  Br3  1  0.49364929  0.17727507  0.65373203  1
  Br  Br4  1  0.99364929  0.82272493  0.34626797  1
  Br  Br5  1  0.25000000  0.48030072  0.41181586  1
  Br  Br6  1  0.75000000  0.01969928  0.91181586  1
  Br  Br7  1  0.99364929  0.32272493  0.15373203  1
  Br  Br8  1  0.25000000  0.98030072  0.08818414  1
  Br  Br9  1  0.75000000  0.18503893  0.40879030  1
  Br  Br10  1  0.00635071  0.67727507  0.84626797  1
  Br  Br11  1  0.25000000  0.31496107  0.90879030  1
  Br  Br12  1  0.75000000  0.68503893  0.09120970  1
  Br  Br13  1  0.00635071  0.17727507  0.65373203  1
  Br  Br14  1  0.75000000  0.51969928  0.58818414  1
  Br  Br15  1  0.49364929  0.67727507  0.84626797  1
loop_
_geom_bond_atom_site_label_1
_geom_bond_atom_site_label_2
_geom_bond_distance
_geom_bond_site_symmetry_2
Br0 Zn2 2.425547 1_555
Br0 Rb0 3.429039 1_555
Br0 Rb7 3.565187 1_555
Br0 Rb3 3.762696 1_565
Br0 Rb2 3.861784 1_555
Br0 Rb2 3.861784 1_455
Br1 Zn2 2.404146 1_555
Br1 Rb6 3.508941 1_555
Br1 Rb5 3.538267 1_565
Br1 Rb3 3.649750 1_565
Br1 Rb2 3.675486 1_555
Br2 Zn0 2.404146 1_555
Br2 Rb5 3.508941 1_555
Br2 Rb6 3.538267 1_555
Br2 Rb4 3.649750 1_555
Br2 Rb1 3.675486 1_554
Br3 Zn1 2.404146 1_555
Br3 Rb0 3.508941 1_555
Br3 Rb7 3.538267 1_545
Br3 Rb2 3.649750 1_545
Br3 Rb3 3.675486 1_555
Br4 Zn2 2.404146 1_655
Br4 Rb6 3.508941 1_555
Br4 Rb5 3.538267 1_565
Br4 Rb3 3.649750 1_665
Br4 Rb2 3.675486 1_555
Br5 Zn2 2.392149 1_555
Br5 Rb3 3.497950 1_555
Br5 Rb0 3.510573 1_555
Br5 Rb6 3.992128 1_555
Br5 Rb6 3.992128 1_455
Br6 Zn3 2.392149 1_545
Br6 Rb1 3.497950 1_555
Br6 Rb5 3.510573 1_556
Br6 Rb7 3.992128 1_545
Br6 Rb7 3.992128 1_645
Br7 Zn0 2.404146 1_655
Br7 Rb5 3.508941 1_555
Br7 Rb6 3.538267 1_555
Br7 Rb4 3.649750 1_655
Br7 Rb1 3.675486 1_554
Br8 Zn0 2.392149 1_565
Br8 Rb4 3.497950 1_555
Br8 Rb7 3.510573 1_554
Br8 Rb5 3.992128 1_465
Br8 Rb5 3.992128 1_565
Br9 Zn1 2.425547 1_555
Br9 Rb6 3.429039 1_555
Br9 Rb5 3.565187 1_555
Br9 Rb2 3.762696 1_545
Br9 Rb3 3.861784 1_555
Br9 Rb3 3.861784 1_655
Br10 Zn3 2.404146 1_455
Br10 Rb7 3.508941 1_555
Br10 Rb0 3.538267 1_555
Br10 Rb1 3.649750 1_455
Br10 Rb4 3.675486 1_556
Br11 Zn0 2.425547 1_556
Br11 Rb7 3.429039 1_545
Br11 Rb0 3.565187 1_555
Br11 Rb4 3.762696 1_556
Br11 Rb1 3.861784 1_455
Br11 Rb1 3.861784 1_555
Br12 Zn3 2.425547 1_554
Br12 Rb5 3.429039 1_565
Br12 Rb6 3.565187 1_555
Br12 Rb1 3.762696 1_554
Br12 Rb4 3.861784 1_655
Br12 Rb4 3.861784 1_555
Br13 Zn1 2.404146 1_455
Br13 Rb0 3.508941 1_555
Br13 Rb7 3.538267 1_545
Br13 Rb2 3.649750 1_445
Br13 Rb3 3.675486 1_555
Br14 Zn1 2.392149 1_555
Br14 Rb2 3.497950 1_555
Br14 Rb6 3.510573 1_555
Br14 Rb0 3.992128 1_555
Br14 Rb0 3.992128 1_655
Br15 Zn3 2.404146 1_555
Br15 Rb7 3.508941 1_555
Br15 Rb0 3.538267 1_555
Br15 Rb1 3.649750 1_555
Br15 Rb4 3.675486 1_556
