# generated using pymatgen
data_Bi4RuI2
_symmetry_space_group_name_H-M   'P 1'
_cell_length_a   6.85939490
_cell_length_b   9.29720958
_cell_length_c   9.28803181
_cell_angle_alpha   82.12574441
_cell_angle_beta   68.60013954
_cell_angle_gamma   68.48063879
_symmetry_Int_Tables_number   1
_chemical_formula_structural   Bi4RuI2
_chemical_formula_sum   'Bi8 Ru2 I4'
_cell_volume   513.04496684
_cell_formula_units_Z   2
loop_
 _symmetry_equiv_pos_site_id
 _symmetry_equiv_pos_as_xyz
  1  'x, y, z'
loop_
 _atom_site_type_symbol
 _atom_site_label
 _atom_site_symmetry_multiplicity
 _atom_site_fract_x
 _atom_site_fract_y
 _atom_site_fract_z
 _atom_site_occupancy
  Bi  Bi0  1  0.93921569  0.89882131  0.22496121  1
  Bi  Bi1  1  0.16129771  0.77542518  0.89963461  1
  Bi  Bi2  1  0.83870229  0.22457482  0.10036539  1
  Bi  Bi3  1  0.06078431  0.10117869  0.77503879  1
  Bi  Bi4  1  0.32784979  0.08836776  0.25972418  1
  Bi  Bi5  1  0.58510411  0.73997222  0.08923330  1
  Bi  Bi6  1  0.41489589  0.26002778  0.91076670  1
  Bi  Bi7  1  0.67215021  0.91163224  0.74027582  1
  Ru  Ru0  1  0.29077358  -0.00005593  0.99991997  1
  Ru  Ru1  1  0.70922642  0.00005593  0.00008003  1
  I  I0  1  0.38477312  0.77174011  0.45947456  1
  I  I1  1  0.84060507  0.54109874  0.77292541  1
  I  I2  1  0.15939493  0.45890126  0.22707459  1
  I  I3  1  0.61522688  0.22825989  0.54052544  1
loop_
_geom_bond_atom_site_label_1
_geom_bond_atom_site_label_2
_geom_bond_distance
_geom_bond_site_symmetry_2
Bi0 Ru1 2.917869 1_565
Bi0 Ru0 2.917975 1_664
Bi0 Bi1 3.012596 1_654
Bi0 Bi2 3.012810 1_565
Bi1 Ru0 2.917206 1_565
Bi1 Ru1 2.918797 1_466
Bi1 Bi3 3.012810 1_565
Bi2 Ru1 2.917206 1_555
Bi2 Ru0 2.918797 1_654
Bi2 Bi3 3.012596 1_654
Bi3 Ru0 2.917869 1_555
Bi3 Ru1 2.917975 1_456
Bi4 Ru1 2.774233 1_555
Bi4 Ru0 2.776364 1_554
Bi4 I2 3.216183 1_555
Bi4 I0 3.232519 1_545
Bi5 Ru0 2.774711 1_564
Bi5 Ru1 2.775752 1_565
Bi5 I0 3.214515 1_555
Bi5 I1 3.236516 1_554
Bi6 Ru1 2.774711 1_556
Bi6 Ru0 2.775752 1_555
Bi6 I3 3.214515 1_555
Bi6 I2 3.236516 1_556
Bi7 Ru0 2.774233 1_565
Bi7 Ru1 2.776364 1_566
Bi7 I1 3.216183 1_555
Bi7 I3 3.232519 1_565
Ru0 Ru1 2.871258 1_556
