# generated using pymatgen
data_CsAuBr3
_symmetry_space_group_name_H-M   'P 1'
_cell_length_a   7.81013100
_cell_length_b   7.81013192
_cell_length_c   7.95857072
_cell_angle_alpha   119.38490699
_cell_angle_beta   119.38490621
_cell_angle_gamma   89.99999244
_symmetry_Int_Tables_number   1
_chemical_formula_structural   CsAuBr3
_chemical_formula_sum   'Cs2 Au2 Br6'
_cell_volume   349.55602410
_cell_formula_units_Z   2
loop_
 _symmetry_equiv_pos_site_id
 _symmetry_equiv_pos_as_xyz
  1  'x, y, z'
loop_
 _atom_site_type_symbol
 _atom_site_label
 _atom_site_symmetry_multiplicity
 _atom_site_fract_x
 _atom_site_fract_y
 _atom_site_fract_z
 _atom_site_occupancy
  Cs  Cs0  1  0.75000000  0.25000000  0.50000000  1
  Cs  Cs1  1  0.25000000  0.75000000  0.50000000  1
  Au  Au0  1  -0.00000000  -0.00000000  -0.00000000  1
  Au  Au1  1  0.50000000  0.50000000  -0.00000000  1
  Br  Br0  1  0.28690852  0.28690852  0.57381604  1
  Br  Br1  1  0.77455500  0.22544500  -0.00000000  1
  Br  Br2  1  0.71309148  0.71309148  0.42618396  1
  Br  Br3  1  0.22544500  0.22544500  -0.00000000  1
  Br  Br4  1  0.22544500  0.77455500  0.00000000  1
  Br  Br5  1  0.77455500  0.77455500  0.00000000  1
loop_
_geom_bond_atom_site_label_1
_geom_bond_atom_site_label_2
_geom_bond_distance
_geom_bond_site_symmetry_2
Au0 Br4 2.490084 1_545
Au0 Br1 2.490084 1_455
Au0 Br5 2.490084 1_445
Au0 Br3 2.490084 1_555
Au1 Br2 2.442290 1_555
Au1 Br0 2.442290 1_554
Au1 Br1 3.032513 1_555
Au1 Br4 3.032513 1_555
Au1 Br3 3.032513 1_555
Au1 Br5 3.032513 1_555
Br0 Cs0 3.927906 1_555
Br0 Cs1 3.927906 1_555
Br0 Cs0 3.927914 1_455
Br0 Cs1 3.927914 1_545
Br1 Cs0 3.988517 1_555
Br1 Cs0 3.988517 1_554
Br1 Cs1 3.988518 1_544
Br1 Cs1 3.988518 1_655
Br2 Cs1 3.927906 1_555
Br2 Cs0 3.927906 1_555
Br2 Cs1 3.927914 1_655
Br2 Cs0 3.927914 1_565
Br3 Cs0 3.988517 1_454
Br3 Cs0 3.988517 1_555
Br3 Cs1 3.988517 1_544
Br3 Cs1 3.988517 1_555
Br4 Cs1 3.988517 1_554
Br4 Cs1 3.988517 1_555
Br4 Cs0 3.988518 1_565
Br4 Cs0 3.988518 1_454
Br5 Cs1 3.988517 1_655
Br5 Cs1 3.988517 1_554
Br5 Cs0 3.988517 1_565
Br5 Cs0 3.988517 1_554
