# generated using pymatgen
data_CaBeB2O5
_symmetry_space_group_name_H-M   'P 1'
_cell_length_a   3.79386000
_cell_length_b   5.22266300
_cell_length_c   17.36012384
_cell_angle_alpha   80.31012674
_cell_angle_beta   90.00000000
_cell_angle_gamma   90.00000000
_symmetry_Int_Tables_number   1
_chemical_formula_structural   CaBeB2O5
_chemical_formula_sum   'Ca4 Be4 B8 O20'
_cell_volume   339.06699823
_cell_formula_units_Z   4
loop_
 _symmetry_equiv_pos_site_id
 _symmetry_equiv_pos_as_xyz
  1  'x, y, z'
loop_
 _atom_site_type_symbol
 _atom_site_label
 _atom_site_symmetry_multiplicity
 _atom_site_fract_x
 _atom_site_fract_y
 _atom_site_fract_z
 _atom_site_occupancy
  Ca  Ca0  1  0.88209200  0.72582200  0.57433500  1
  Ca  Ca1  1  0.11790800  0.27417800  0.42566500  1
  Ca  Ca2  1  0.38209200  0.27417800  0.92566500  1
  Ca  Ca3  1  0.61790800  0.72582200  0.07433500  1
  Be  Be0  1  0.76544500  0.60558200  0.78886100  1
  Be  Be1  1  0.26544500  0.39441800  0.71113900  1
  Be  Be2  1  0.73455500  0.60558200  0.28886100  1
  Be  Be3  1  0.23455500  0.39441800  0.21113900  1
  B  B0  1  0.74830800  0.09659200  0.78711400  1
  B  B1  1  0.02740000  0.79542600  0.90452800  1
  B  B2  1  0.24830800  0.90340800  0.71288600  1
  B  B3  1  0.25169200  0.90340800  0.21288600  1
  B  B4  1  0.97260000  0.20457400  0.09547200  1
  B  B5  1  0.52740000  0.20457400  0.59547200  1
  B  B6  1  0.47260000  0.79542600  0.40452800  1
  B  B7  1  0.75169200  0.09659200  0.28711400  1
  O  O0  1  0.40434500  0.95899200  0.63290900  1
  O  O1  1  0.42622900  0.42507600  0.62365700  1
  O  O2  1  0.02172200  0.12775800  0.72420900  1
  O  O3  1  0.74090700  0.20936000  0.53232300  1
  O  O4  1  0.09565500  0.95899200  0.13290900  1
  O  O5  1  0.25909300  0.79064000  0.46767700  1
  O  O6  1  0.05287400  0.65957000  0.71777100  1
  O  O7  1  0.75909300  0.20936000  0.03232300  1
  O  O8  1  0.52172200  0.87224200  0.77579100  1
  O  O9  1  0.94712600  0.34043000  0.28222900  1
  O  O10  1  0.07377100  0.42507600  0.12365700  1
  O  O11  1  0.57377100  0.57492400  0.37634300  1
  O  O12  1  0.24090700  0.79064000  0.96767700  1
  O  O13  1  0.97827800  0.87224200  0.27579100  1
  O  O14  1  0.90434500  0.04100800  0.86709100  1
  O  O15  1  0.44712600  0.65957000  0.21777100  1
  O  O16  1  0.59565500  0.04100800  0.36709100  1
  O  O17  1  0.47827800  0.12775800  0.22420900  1
  O  O18  1  0.55287400  0.34043000  0.78222900  1
  O  O19  1  0.92622900  0.57492400  0.87634300  1
loop_
_geom_bond_atom_site_label_1
_geom_bond_atom_site_label_2
_geom_bond_distance
_geom_bond_site_symmetry_2
Ca0 O5 2.318993 1_655
Ca0 O1 2.395537 1_555
Ca0 O0 2.493786 1_555
Ca0 O6 2.539670 1_655
Ca0 O3 2.564418 1_565
Ca0 O0 2.619076 1_655
Ca0 O1 2.647481 1_655
Ca0 O3 2.959143 1_555
Ca0 O5 2.986381 1_555
Ca1 O3 2.318993 1_455
Ca1 O11 2.395537 1_555
Ca1 O16 2.493786 1_555
Ca1 O9 2.539670 1_455
Ca1 O5 2.564418 1_545
Ca1 O16 2.619076 1_455
Ca1 O11 2.647481 1_455
Ca1 O5 2.959143 1_555
Ca1 O3 2.986381 1_555
Ca2 O7 2.318993 1_556
Ca2 O19 2.395537 1_455
Ca2 O14 2.493786 1_455
Ca2 O18 2.539670 1_555
Ca2 O12 2.564418 1_545
Ca2 O14 2.619076 1_555
Ca2 O19 2.647481 1_555
Ca2 O12 2.959143 1_555
Ca2 O7 2.986381 1_456
Ca3 O12 2.318993 1_554
Ca3 O10 2.395537 1_655
Ca3 O4 2.493786 1_655
Ca3 O15 2.539670 1_555
Ca3 O7 2.564418 1_565
Ca3 O4 2.619076 1_555
Ca3 O10 2.647481 1_555
Ca3 O7 2.959143 1_555
Ca3 O12 2.986381 1_654
Be0 O19 1.619356 1_555
Be0 O18 1.623262 1_555
Be0 O6 1.635407 1_655
Be0 O8 1.655184 1_555
Be1 O1 1.619356 1_555
Be1 O6 1.623262 1_555
Be1 O18 1.635407 1_555
Be1 O2 1.655184 1_555
Be2 O11 1.619356 1_555
Be2 O9 1.623262 1_555
Be2 O15 1.635407 1_555
Be2 O13 1.655184 1_555
Be3 O10 1.619356 1_555
Be3 O15 1.623262 1_555
Be3 O9 1.635407 1_455
Be3 O17 1.655184 1_555
B0 O18 1.463675 1_555
B0 O14 1.492220 1_555
B0 O8 1.492661 1_545
B0 O2 1.495054 1_655
B1 O12 1.359906 1_555
B1 O19 1.379354 1_455
B1 O14 1.415900 1_465
B2 O6 1.463675 1_555
B2 O0 1.492220 1_555
B2 O2 1.492661 1_565
B2 O8 1.495054 1_555
B3 O15 1.463675 1_555
B3 O4 1.492220 1_555
B3 O17 1.492661 1_565
B3 O13 1.495054 1_455
B4 O7 1.359906 1_555
B4 O10 1.379354 1_655
B4 O4 1.415900 1_645
B5 O3 1.359906 1_555
B5 O1 1.379354 1_555
B5 O0 1.415900 1_545
B6 O5 1.359906 1_555
B6 O11 1.379354 1_555
B6 O16 1.415900 1_565
B7 O9 1.463675 1_555
B7 O16 1.492220 1_555
B7 O13 1.492661 1_545
B7 O17 1.495054 1_555
