# generated using pymatgen
data_CsZr2(PO4)3
_symmetry_space_group_name_H-M   'P 1'
_cell_length_a   9.79488905
_cell_length_b   9.79488905
_cell_length_c   9.79488809
_cell_angle_alpha   53.15988967
_cell_angle_beta   53.15988967
_cell_angle_gamma   53.15989339
_symmetry_Int_Tables_number   1
_chemical_formula_structural   CsZr2(PO4)3
_chemical_formula_sum   'Cs2 Zr4 P6 O24'
_cell_volume   558.00636564
_cell_formula_units_Z   2
loop_
 _symmetry_equiv_pos_site_id
 _symmetry_equiv_pos_as_xyz
  1  'x, y, z'
loop_
 _atom_site_type_symbol
 _atom_site_label
 _atom_site_symmetry_multiplicity
 _atom_site_fract_x
 _atom_site_fract_y
 _atom_site_fract_z
 _atom_site_occupancy
  Cs  Cs0  1  0.00000000  0.00000000  0.00000000  1
  Cs  Cs1  1  0.50000000  0.50000000  0.50000000  1
  Zr  Zr0  1  0.15220400  0.15220400  0.15220400  1
  Zr  Zr1  1  0.65220400  0.65220400  0.65220400  1
  Zr  Zr2  1  0.34779600  0.34779600  0.34779600  1
  Zr  Zr3  1  0.84779600  0.84779600  0.84779600  1
  P  P0  1  0.53330500  0.96669500  0.25000000  1
  P  P1  1  0.96669500  0.25000000  0.53330500  1
  P  P2  1  0.25000000  0.53330500  0.96669500  1
  P  P3  1  0.03330500  0.75000000  0.46669500  1
  P  P4  1  0.46669500  0.03330500  0.75000000  1
  P  P5  1  0.75000000  0.46669500  0.03330500  1
  O  O0  1  0.19405200  0.57605800  0.42467300  1
  O  O1  1  0.80594800  0.42394200  0.57532700  1
  O  O2  1  0.01329500  0.73816600  0.64210400  1
  O  O3  1  0.07532700  0.92394200  0.30594800  1
  O  O4  1  0.73816600  0.64210400  0.01329500  1
  O  O5  1  0.69405200  0.92467300  0.07605800  1
  O  O6  1  0.64210400  0.01329500  0.73816600  1
  O  O7  1  0.57605800  0.42467300  0.19405200  1
  O  O8  1  0.76183400  0.48670500  0.85789600  1
  O  O9  1  0.57532700  0.80594800  0.42394200  1
  O  O10  1  0.14210400  0.23816600  0.51329500  1
  O  O11  1  0.92394200  0.30594800  0.07532700  1
  O  O12  1  0.42394200  0.57532700  0.80594800  1
  O  O13  1  0.48670500  0.85789600  0.76183400  1
  O  O14  1  0.98670500  0.26183400  0.35789600  1
  O  O15  1  0.35789600  0.98670500  0.26183400  1
  O  O16  1  0.26183400  0.35789600  0.98670500  1
  O  O17  1  0.92467300  0.07605800  0.69405200  1
  O  O18  1  0.51329500  0.14210400  0.23816600  1
  O  O19  1  0.07605800  0.69405200  0.92467300  1
  O  O20  1  0.23816600  0.51329500  0.14210400  1
  O  O21  1  0.30594800  0.07532700  0.92394200  1
  O  O22  1  0.85789600  0.76183400  0.48670500  1
  O  O23  1  0.42467300  0.19405200  0.57605800  1
loop_
_geom_bond_atom_site_label_1
_geom_bond_atom_site_label_2
_geom_bond_distance
_geom_bond_site_symmetry_2
Cs0 O3 3.065106 1_545
Cs0 O17 3.065106 1_454
Cs0 O11 3.065106 1_455
Cs0 O19 3.065106 1_544
Cs0 O21 3.065106 1_554
Cs0 O5 3.065106 1_445
Cs0 O22 3.564615 1_445
Cs0 O10 3.564615 1_554
Cs0 O13 3.564616 1_544
Cs0 O18 3.564616 1_455
Cs0 O8 3.564616 1_454
Cs0 O20 3.564616 1_545
Cs1 O12 3.065106 1_555
Cs1 O7 3.065106 1_555
Cs1 O1 3.065106 1_555
Cs1 O0 3.065106 1_555
Cs1 O9 3.065106 1_555
Cs1 O23 3.065106 1_555
Cs1 O16 3.564615 1_555
Cs1 O4 3.564615 1_555
Cs1 O15 3.564616 1_555
Cs1 O6 3.564616 1_555
Cs1 O14 3.564616 1_555
Cs1 O2 3.564616 1_555
O0 P3 1.548604 1_555
O0 Zr2 2.110725 1_555
O1 P1 1.548604 1_555
O1 Zr1 2.110725 1_555
O2 P3 1.545437 1_555
O2 Zr3 2.104875 1_455
O3 P3 1.548604 1_555
O3 Zr0 2.110725 1_565
O4 P5 1.545437 1_555
O4 Zr3 2.104875 1_554
O5 P0 1.548604 1_555
O5 Zr3 2.110725 1_554
O6 P4 1.545437 1_555
O6 Zr3 2.104875 1_545
O7 P5 1.548604 1_555
O7 Zr2 2.110725 1_555
O8 P5 1.545437 1_556
O8 Zr1 2.104875 1_555
O9 P0 1.548604 1_555
O9 Zr1 2.110725 1_555
O10 P1 1.545437 1_455
O10 Zr2 2.104875 1_555
O11 P5 1.548604 1_555
O11 Zr0 2.110725 1_655
O12 P2 1.548604 1_555
O12 Zr1 2.110725 1_555
O13 P4 1.545437 1_565
O13 Zr1 2.104875 1_555
O14 P1 1.545437 1_555
O14 Zr0 2.104875 1_655
O15 P0 1.545437 1_555
O15 Zr0 2.104875 1_565
O16 P2 1.545437 1_555
O16 Zr0 2.104875 1_556
O17 P1 1.548604 1_555
O17 Zr3 2.110725 1_545
O18 P0 1.545437 1_545
O18 Zr2 2.104875 1_555
O19 P2 1.548604 1_555
O19 Zr3 2.110725 1_455
O20 P2 1.545437 1_554
O20 Zr2 2.104875 1_555
O21 P4 1.548604 1_555
O21 Zr0 2.110725 1_556
O22 P3 1.545437 1_655
O22 Zr1 2.104875 1_555
O23 P4 1.548604 1_555
O23 Zr2 2.110725 1_555
