# generated using pymatgen
data_Li10Pb3
_symmetry_space_group_name_H-M   'P 1'
_cell_length_a   10.11005500
_cell_length_b   10.11005500
_cell_length_c   10.11005500
_cell_angle_alpha   90.00000000
_cell_angle_beta   90.00000000
_cell_angle_gamma   90.00000000
_symmetry_Int_Tables_number   1
_chemical_formula_structural   Li10Pb3
_chemical_formula_sum   'Li40 Pb12'
_cell_volume   1033.38119609
_cell_formula_units_Z   4
loop_
 _symmetry_equiv_pos_site_id
 _symmetry_equiv_pos_as_xyz
  1  'x, y, z'
loop_
 _atom_site_type_symbol
 _atom_site_label
 _atom_site_symmetry_multiplicity
 _atom_site_fract_x
 _atom_site_fract_y
 _atom_site_fract_z
 _atom_site_occupancy
  Li  Li0  1  0.11146500  0.11146500  0.11146500  1
  Li  Li1  1  0.88853500  0.11146500  0.88853500  1
  Li  Li2  1  0.88853500  0.88853500  0.11146500  1
  Li  Li3  1  0.11146500  0.88853500  0.88853500  1
  Li  Li4  1  0.60535100  0.60535100  0.60535100  1
  Li  Li5  1  0.39464900  0.60535100  0.39464900  1
  Li  Li6  1  0.39464900  0.39464900  0.60535100  1
  Li  Li7  1  0.60535100  0.39464900  0.39464900  1
  Li  Li8  1  0.81863400  0.81863400  0.81863400  1
  Li  Li9  1  0.18136600  0.81863400  0.18136600  1
  Li  Li10  1  0.18136600  0.18136600  0.81863400  1
  Li  Li11  1  0.81863400  0.18136600  0.18136600  1
  Li  Li12  1  0.31802600  0.31802600  0.31802600  1
  Li  Li13  1  0.68197400  0.31802600  0.68197400  1
  Li  Li14  1  0.68197400  0.68197400  0.31802600  1
  Li  Li15  1  0.31802600  0.68197400  0.68197400  1
  Li  Li16  1  0.34908100  0.00000000  0.00000000  1
  Li  Li17  1  0.65091900  0.00000000  0.00000000  1
  Li  Li18  1  0.00000000  0.00000000  0.34908100  1
  Li  Li19  1  0.00000000  0.00000000  0.65091900  1
  Li  Li20  1  0.00000000  0.65091900  0.00000000  1
  Li  Li21  1  0.00000000  0.34908100  0.00000000  1
  Li  Li22  1  0.85889900  0.50000000  0.50000000  1
  Li  Li23  1  0.14110100  0.50000000  0.50000000  1
  Li  Li24  1  0.50000000  0.50000000  0.85889900  1
  Li  Li25  1  0.50000000  0.50000000  0.14110100  1
  Li  Li26  1  0.50000000  0.14110100  0.50000000  1
  Li  Li27  1  0.50000000  0.85889900  0.50000000  1
  Li  Li28  1  0.81041600  0.81041600  0.53122900  1
  Li  Li29  1  0.18958400  0.53122900  0.18958400  1
  Li  Li30  1  0.18958400  0.46877100  0.81041600  1
  Li  Li31  1  0.46877100  0.18958400  0.81041600  1
  Li  Li32  1  0.53122900  0.18958400  0.18958400  1
  Li  Li33  1  0.81041600  0.18958400  0.46877100  1
  Li  Li34  1  0.18958400  0.81041600  0.46877100  1
  Li  Li35  1  0.53122900  0.81041600  0.81041600  1
  Li  Li36  1  0.81041600  0.53122900  0.81041600  1
  Li  Li37  1  0.46877100  0.81041600  0.18958400  1
  Li  Li38  1  0.81041600  0.46877100  0.18958400  1
  Li  Li39  1  0.18958400  0.18958400  0.53122900  1
  Pb  Pb0  1  0.31340900  0.31340900  0.03299900  1
  Pb  Pb1  1  0.68659100  0.03299900  0.68659100  1
  Pb  Pb2  1  0.68659100  0.96700100  0.31340900  1
  Pb  Pb3  1  0.96700100  0.68659100  0.31340900  1
  Pb  Pb4  1  0.03299900  0.68659100  0.68659100  1
  Pb  Pb5  1  0.31340900  0.68659100  0.96700100  1
  Pb  Pb6  1  0.68659100  0.31340900  0.96700100  1
  Pb  Pb7  1  0.03299900  0.31340900  0.31340900  1
  Pb  Pb8  1  0.31340900  0.03299900  0.31340900  1
  Pb  Pb9  1  0.96700100  0.31340900  0.68659100  1
  Pb  Pb10  1  0.31340900  0.96700100  0.68659100  1
  Pb  Pb11  1  0.68659100  0.68659100  0.03299900  1
loop_
_geom_bond_atom_site_label_1
_geom_bond_atom_site_label_2
_geom_bond_distance
_geom_bond_site_symmetry_2
Li0 Pb7 2.994346 1_555
Li0 Pb0 2.994346 1_555
Li0 Pb8 2.994346 1_555
Li1 Pb1 2.994346 1_555
Li1 Pb9 2.994346 1_555
Li1 Pb6 2.994346 1_555
Li2 Pb11 2.994346 1_555
Li2 Pb2 2.994346 1_555
Li2 Pb3 2.994346 1_555
Li3 Pb4 2.994346 1_555
Li3 Pb10 2.994346 1_555
Li3 Pb5 2.994346 1_555
Li4 Li6 3.012570 1_555
Li4 Li7 3.012570 1_555
Li4 Li5 3.012570 1_555
Li5 Li6 3.012570 1_555
Li5 Li7 3.012570 1_555
Li6 Li7 3.012570 1_555
Li8 Pb11 2.874228 1_556
Li8 Pb1 2.874228 1_565
Li8 Pb4 2.874228 1_655
Li9 Pb3 2.874228 1_455
Li9 Pb5 2.874228 1_554
Li9 Pb8 2.874228 1_565
Li10 Pb10 2.874228 1_545
Li10 Pb9 2.874228 1_455
Li10 Pb0 2.874228 1_556
Li11 Pb6 2.874228 1_554
Li11 Pb2 2.874228 1_545
Li11 Pb7 2.874228 1_655
Li12 Pb7 2.882395 1_555
Li12 Pb0 2.882395 1_555
Li12 Pb8 2.882395 1_555
Li12 Li6 3.104591 1_555
Li12 Li5 3.104591 1_555
Li12 Li7 3.104591 1_555
Li13 Pb6 2.882395 1_555
Li13 Pb1 2.882395 1_555
Li13 Pb9 2.882395 1_555
Li13 Li4 3.104591 1_555
Li13 Li6 3.104591 1_555
Li13 Li7 3.104591 1_555
Li14 Pb11 2.882395 1_555
Li14 Pb2 2.882395 1_555
Li14 Pb3 2.882395 1_555
Li14 Li4 3.104591 1_555
Li14 Li5 3.104591 1_555
Li14 Li7 3.104591 1_555
Li15 Pb10 2.882395 1_555
Li15 Pb4 2.882395 1_555
Li15 Pb5 2.882395 1_555
Li15 Li4 3.104591 1_555
Li15 Li6 3.104591 1_555
Li15 Li5 3.104591 1_555
Li16 Pb0 3.206444 1_555
Li16 Pb8 3.206444 1_555
Li16 Pb5 3.206444 1_544
Li16 Pb10 3.206444 1_544
Li17 Pb6 3.206444 1_554
Li17 Pb2 3.206444 1_545
Li17 Pb1 3.206444 1_554
Li17 Pb11 3.206444 1_545
Li18 Pb8 3.206444 1_555
Li18 Pb7 3.206444 1_555
Li18 Pb3 3.206444 1_445
Li18 Pb2 3.206444 1_445
Li19 Pb10 3.206444 1_545
Li19 Pb9 3.206444 1_455
Li19 Pb4 3.206444 1_545
Li19 Pb1 3.206444 1_455
Li20 Pb5 3.206444 1_554
Li20 Pb3 3.206444 1_455
Li20 Pb4 3.206444 1_554
Li20 Pb11 3.206444 1_455
Li21 Pb0 3.206444 1_555
Li21 Pb7 3.206444 1_555
Li21 Pb9 3.206444 1_454
Li21 Pb6 3.206444 1_454
Li22 Pb9 2.883023 1_555
Li22 Pb3 2.883023 1_555
Li22 Li4 2.973186 1_555
Li22 Li7 2.973186 1_555
Li22 Pb4 3.196172 1_655
Li22 Pb7 3.196172 1_655
Li23 Pb4 2.883023 1_555
Li23 Pb7 2.883023 1_555
Li23 Li6 2.973186 1_555
Li23 Li5 2.973186 1_555
Li23 Pb9 3.196172 1_455
Li23 Pb3 3.196172 1_455
Li24 Pb5 2.883023 1_555
Li24 Pb6 2.883023 1_555
Li24 Li4 2.973186 1_555
Li24 Li6 2.973186 1_555
Li24 Pb11 3.196172 1_556
Li24 Pb0 3.196172 1_556
Li25 Pb11 2.883023 1_555
Li25 Pb0 2.883023 1_555
Li25 Li7 2.973186 1_555
Li25 Li5 2.973186 1_555
Li25 Pb6 3.196172 1_554
Li25 Pb5 3.196172 1_554
Li26 Pb1 2.883023 1_555
Li26 Pb8 2.883023 1_555
Li26 Li7 2.973186 1_555
Li26 Li6 2.973186 1_555
Li26 Pb10 3.196172 1_545
Li26 Pb2 3.196172 1_545
Li27 Pb2 2.883023 1_555
Li27 Pb10 2.883023 1_555
Li27 Li4 2.973186 1_555
Li27 Li5 2.973186 1_555
Li27 Pb1 3.196172 1_565
Li27 Pb8 3.196172 1_565
Li28 Pb3 2.987124 1_555
Li28 Pb2 2.987124 1_555
Li28 Pb4 3.016343 1_655
Li28 Pb1 3.016343 1_565
Li28 Li4 3.026225 1_555
Li29 Pb7 2.987124 1_555
Li29 Pb0 2.987124 1_555
Li29 Pb3 3.016343 1_455
Li29 Pb5 3.016343 1_554
Li29 Li5 3.026225 1_555
Li30 Pb4 2.987124 1_555
Li30 Pb5 2.987124 1_555
Li30 Pb9 3.016343 1_455
Li30 Pb0 3.016343 1_556
Li30 Li6 3.026225 1_555
Li31 Pb1 2.987124 1_555
Li31 Pb6 2.987124 1_555
Li31 Pb10 3.016343 1_545
Li31 Pb0 3.016343 1_556
Li31 Li6 3.026225 1_555
Li32 Pb8 2.987124 1_555
Li32 Pb0 2.987124 1_555
Li32 Pb6 3.016343 1_554
Li32 Pb2 3.016343 1_545
Li32 Li7 3.026225 1_555
Li33 Pb1 2.987124 1_555
Li33 Pb9 2.987124 1_555
Li33 Pb2 3.016343 1_545
Li33 Pb7 3.016343 1_655
Li33 Li7 3.026225 1_555
Li34 Pb4 2.987124 1_555
Li34 Pb10 2.987124 1_555
Li34 Pb3 3.016343 1_455
Li34 Pb8 3.016343 1_565
Li34 Li5 3.026225 1_555
Li35 Pb5 2.987124 1_555
Li35 Pb10 2.987124 1_555
Li35 Pb11 3.016343 1_556
Li35 Pb1 3.016343 1_565
Li35 Li4 3.026225 1_555
Li36 Pb6 2.987124 1_555
Li36 Pb9 2.987124 1_555
Li36 Pb11 3.016343 1_556
Li36 Pb4 3.016343 1_655
Li36 Li4 3.026225 1_555
Li37 Pb11 2.987124 1_555
Li37 Pb2 2.987124 1_555
Li37 Pb5 3.016343 1_554
Li37 Pb8 3.016343 1_565
Li37 Li5 3.026225 1_555
Li38 Pb11 2.987124 1_555
Li38 Pb3 2.987124 1_555
Li38 Pb6 3.016343 1_554
Li38 Pb7 3.016343 1_655
Li38 Li7 3.026225 1_555
Li39 Pb7 2.987124 1_555
Li39 Pb8 2.987124 1_555
Li39 Pb9 3.016343 1_455
Li39 Pb10 3.016343 1_545
Li39 Li6 3.026225 1_555
