# generated using pymatgen
data_CdI2
_symmetry_space_group_name_H-M   'P 1'
_cell_length_a   4.28204023
_cell_length_b   4.28204060
_cell_length_c   57.27985182
_cell_angle_alpha   90.00000000
_cell_angle_beta   90.00000000
_cell_angle_gamma   119.99999724
_symmetry_Int_Tables_number   1
_chemical_formula_structural   CdI2
_chemical_formula_sum   'Cd8 I16'
_cell_volume   909.56565511
_cell_formula_units_Z   8
loop_
 _symmetry_equiv_pos_site_id
 _symmetry_equiv_pos_as_xyz
  1  'x, y, z'
loop_
 _atom_site_type_symbol
 _atom_site_label
 _atom_site_symmetry_multiplicity
 _atom_site_fract_x
 _atom_site_fract_y
 _atom_site_fract_z
 _atom_site_occupancy
  Cd  Cd0  1  0.33333300  0.66666700  0.53129135  1
  Cd  Cd1  1  0.66666700  0.33333300  0.90629673  1
  Cd  Cd2  1  0.33333300  0.66666700  0.78127343  1
  Cd  Cd3  1  0.66666700  0.33333300  0.03128739  1
  Cd  Cd4  1  0.66666700  0.33333300  0.40628192  1
  Cd  Cd5  1  0.00000000  -0.00000000  0.15626798  1
  Cd  Cd6  1  0.66666700  0.33333300  0.65633045  1
  Cd  Cd7  1  0.33333300  0.66666700  0.28115672  1
  I  I0  1  0.00000000  -0.00000000  0.00116418  1
  I  I1  1  0.33333300  0.66666700  0.68633715  1
  I  I2  1  0.66666700  0.33333300  0.12616410  1
  I  I3  1  0.00000000  -0.00000000  0.25094743  1
  I  I4  1  0.00000000  -0.00000000  0.37616417  1
  I  I5  1  0.33333300  0.66666700  0.06133693  1
  I  I6  1  0.66666700  0.33333300  0.81133716  1
  I  I7  1  0.33333300  0.66666700  0.18633701  1
  I  I8  1  0.66666700  0.33333300  0.56133679  1
  I  I9  1  0.00000000  -0.00000000  0.62617752  1
  I  I10  1  0.33333300  0.66666700  0.43633717  1
  I  I11  1  0.33333300  0.66666700  0.93633710  1
  I  I12  1  0.00000000  -0.00000000  0.87617302  1
  I  I13  1  0.66666700  0.33333300  0.31133584  1
  I  I14  1  0.00000000  -0.00000000  0.50116405  1
  I  I15  1  0.00000000  -0.00000000  0.75116440  1
loop_
_geom_bond_atom_site_label_1
_geom_bond_atom_site_label_2
_geom_bond_distance
_geom_bond_site_symmetry_2
Cd0 I8 3.012272 1_455
Cd0 I8 3.012272 1_565
Cd0 I8 3.012278 1_555
Cd0 I14 3.014953 1_565
Cd0 I14 3.014956 1_665
Cd0 I14 3.014956 1_555
Cd1 I11 3.012106 1_655
Cd1 I11 3.012106 1_545
Cd1 I11 3.012112 1_555
Cd1 I12 3.014835 1_655
Cd1 I12 3.014838 1_555
Cd1 I12 3.014838 1_665
Cd2 I6 3.012870 1_455
Cd2 I6 3.012870 1_565
Cd2 I6 3.012876 1_555
Cd2 I15 3.014354 1_565
Cd2 I15 3.014357 1_665
Cd2 I15 3.014357 1_555
Cd3 I5 3.012406 1_655
Cd3 I5 3.012406 1_545
Cd3 I5 3.012412 1_555
Cd3 I0 3.014819 1_655
Cd3 I0 3.014822 1_555
Cd3 I0 3.014822 1_665
Cd4 I10 3.012593 1_655
Cd4 I10 3.012593 1_545
Cd4 I10 3.012599 1_555
Cd4 I4 3.014640 1_655
Cd4 I4 3.014643 1_555
Cd4 I4 3.014643 1_665
Cd5 I7 3.013044 1_545
Cd5 I7 3.013047 1_445
Cd5 I7 3.013047 1_555
Cd5 I2 3.014185 1_455
Cd5 I2 3.014188 1_555
Cd5 I2 3.014188 1_445
Cd6 I1 3.011004 1_655
Cd6 I1 3.011004 1_545
Cd6 I1 3.011010 1_555
Cd6 I9 3.015793 1_655
Cd6 I9 3.015796 1_555
Cd6 I9 3.015797 1_665
Cd7 I13 3.016653 1_455
Cd7 I13 3.016653 1_565
Cd7 I13 3.016659 1_555
Cd7 I3 3.017643 1_565
Cd7 I3 3.017646 1_665
Cd7 I3 3.017647 1_555
