# generated using pymatgen
data_CsMn4Cl9
_symmetry_space_group_name_H-M   'P 1'
_cell_length_a   9.75876799
_cell_length_b   9.75883143
_cell_length_c   9.75888329
_cell_angle_alpha   106.32393816
_cell_angle_beta   106.32389521
_cell_angle_gamma   115.96486851
_symmetry_Int_Tables_number   1
_chemical_formula_structural   CsMn4Cl9
_chemical_formula_sum   'Cs2 Mn8 Cl18'
_cell_volume   708.49022163
_cell_formula_units_Z   2
loop_
 _symmetry_equiv_pos_site_id
 _symmetry_equiv_pos_as_xyz
  1  'x, y, z'
loop_
 _atom_site_type_symbol
 _atom_site_label
 _atom_site_symmetry_multiplicity
 _atom_site_fract_x
 _atom_site_fract_y
 _atom_site_fract_z
 _atom_site_occupancy
  Cs  Cs0  1  0.00000140  -0.00000001  -0.00000044  1
  Cs  Cs1  1  0.24999975  0.74999985  0.49999977  1
  Mn  Mn0  1  0.29977093  0.40058480  0.69021758  1
  Mn  Mn1  1  0.59940473  0.28962729  0.89918400  1
  Mn  Mn2  1  0.85955775  0.04978504  0.39919313  1
  Mn  Mn3  1  0.95023111  0.34941682  0.80978502  1
  Mn  Mn4  1  0.53962898  0.14044165  0.19021904  1
  Mn  Mn5  1  0.71037273  0.60955881  0.30978211  1
  Mn  Mn6  1  0.39044272  0.70021486  0.10080639  1
  Mn  Mn7  1  0.65059488  0.46037201  0.60081507  1
  Cl  Cl0  1  0.88589320  0.69037971  0.59216114  1
  Cl  Cl1  1  0.59991008  0.79498924  0.38464827  1
  Cl  Cl2  1  0.04498800  0.16033888  0.69507872  1
  Cl  Cl3  1  0.74999943  0.24999894  0.50000021  1
  Cl  Cl4  1  0.46526425  0.34991255  0.30492485  1
  Cl  Cl5  1  0.83965350  0.53473456  0.88464953  1
  Cl  Cl6  1  0.30961579  0.90178007  0.19550990  1
  Cl  Cl7  1  0.09821881  0.29373264  0.40783521  1
  Cl  Cl8  1  0.36410851  0.05961759  0.90783897  1
  Cl  Cl9  1  0.65009129  0.95501207  0.11535256  1
  Cl  Cl10  1  0.54372660  0.63589507  0.69550987  1
  Cl  Cl11  1  0.70627385  0.11410770  0.80449062  1
  Cl  Cl12  1  0.94038522  0.84822040  0.30449005  1
  Cl  Cl13  1  0.15178070  0.45626675  0.09216381  1
  Cl  Cl14  1  0.20501124  0.58966085  0.80492126  1
  Cl  Cl15  1  0.41034162  0.21526370  0.61535110  1
  Cl  Cl16  1  0.78473433  0.40008577  0.19507411  1
  Cl  Cl17  1  0.50000061  0.50000037  -0.00000085  1
loop_
_geom_bond_atom_site_label_1
_geom_bond_atom_site_label_2
_geom_bond_distance
_geom_bond_site_symmetry_2
Cl0 Mn7 2.453660 1_555
Cl0 Mn5 2.468154 1_555
Cl0 Cs0 3.743353 1_666
Cl0 Cs1 3.748762 1_655
Cl1 Mn5 2.525482 1_555
Cl1 Mn6 2.535382 1_555
Cl1 Mn2 2.589547 1_565
Cl1 Cs1 3.774383 1_555
Cl2 Mn2 2.525529 1_455
Cl2 Mn3 2.535291 1_455
Cl2 Mn0 2.589493 1_555
Cl2 Cs0 3.774389 1_556
Cl3 Mn2 2.695991 1_555
Cl3 Mn7 2.696056 1_555
Cl3 Mn4 2.696162 1_555
Cl3 Mn3 2.696187 1_555
Cl4 Mn7 2.525555 1_555
Cl4 Mn4 2.535304 1_555
Cl4 Mn5 2.589536 1_555
Cl4 Cs0 3.774572 1_555
Cl5 Mn3 2.525497 1_555
Cl5 Mn7 2.535329 1_555
Cl5 Mn1 2.589492 1_555
Cl5 Cs0 3.774490 1_666
Cl6 Mn4 2.453690 1_565
Cl6 Mn6 2.468200 1_555
Cl6 Cs0 3.743211 1_565
Cl6 Cs1 3.748798 1_555
Cl7 Mn2 2.453698 1_455
Cl7 Mn0 2.468187 1_555
Cl7 Cs0 3.743336 1_555
Cl7 Cs1 3.748825 1_555
Cl8 Mn1 2.453664 1_555
Cl8 Mn4 2.468153 1_556
Cl8 Cs1 3.743348 1_545
Cl8 Cs0 3.748768 1_556
Cl9 Mn4 2.525473 1_565
Cl9 Mn2 2.535373 1_565
Cl9 Mn6 2.589553 1_555
Cl9 Cs0 3.774392 1_665
Cl10 Mn0 2.453734 1_555
Cl10 Mn7 2.468166 1_555
Cl10 Cs1 3.743189 1_555
Cl10 Cs0 3.748975 1_666
Cl11 Mn3 2.453726 1_555
Cl11 Mn1 2.468143 1_555
Cl11 Cs0 3.743212 1_656
Cl11 Cs1 3.748980 1_545
Cl12 Mn5 2.453693 1_555
Cl12 Mn2 2.468198 1_565
Cl12 Cs1 3.743215 1_655
Cl12 Cs0 3.748801 1_665
Cl13 Mn6 2.453703 1_555
Cl13 Mn3 2.468158 1_454
Cl13 Cs1 3.743334 1_555
Cl13 Cs0 3.748825 1_555
Cl14 Mn6 2.525527 1_556
Cl14 Mn0 2.535290 1_555
Cl14 Mn3 2.589482 1_455
Cl14 Cs1 3.774398 1_555
Cl15 Mn0 2.525472 1_555
Cl15 Mn1 2.535326 1_555
Cl15 Mn7 2.589528 1_555
Cl15 Cs1 3.774485 1_545
Cl16 Mn1 2.525554 1_554
Cl16 Mn5 2.535304 1_555
Cl16 Mn4 2.589521 1_555
Cl16 Cs1 3.774590 1_655
Cl17 Mn6 2.695992 1_555
Cl17 Mn1 2.696053 1_554
Cl17 Mn0 2.696163 1_554
Cl17 Mn5 2.696178 1_555
