# generated using pymatgen
data_SrVClO3
_symmetry_space_group_name_H-M   'P 1'
_cell_length_a   5.33427200
_cell_length_b   7.08569100
_cell_length_c   10.24580900
_cell_angle_alpha   90.00000000
_cell_angle_beta   90.00000000
_cell_angle_gamma   90.00000000
_symmetry_Int_Tables_number   1
_chemical_formula_structural   SrVClO3
_chemical_formula_sum   'Sr4 V4 Cl4 O12'
_cell_volume   387.26087456
_cell_formula_units_Z   4
loop_
 _symmetry_equiv_pos_site_id
 _symmetry_equiv_pos_as_xyz
  1  'x, y, z'
loop_
 _atom_site_type_symbol
 _atom_site_label
 _atom_site_symmetry_multiplicity
 _atom_site_fract_x
 _atom_site_fract_y
 _atom_site_fract_z
 _atom_site_occupancy
  Sr  Sr0  1  0.75000000  0.90303700  0.81126400  1
  Sr  Sr1  1  0.75000000  0.59696300  0.31126400  1
  Sr  Sr2  1  0.25000000  0.09696300  0.18873600  1
  Sr  Sr3  1  0.25000000  0.40303700  0.68873600  1
  V  V0  1  0.75000000  0.05816800  0.46233400  1
  V  V1  1  0.75000000  0.44183200  0.96233400  1
  V  V2  1  0.25000000  0.55816800  0.03766600  1
  V  V3  1  0.25000000  0.94183200  0.53766600  1
  Cl  Cl0  1  0.25000000  0.43265800  0.39184900  1
  Cl  Cl1  1  0.25000000  0.06734200  0.89184900  1
  Cl  Cl2  1  0.75000000  0.93265800  0.10815100  1
  Cl  Cl3  1  0.75000000  0.56734200  0.60815100  1
  O  O0  1  0.75000000  0.26136400  0.86138100  1
  O  O1  1  0.00599800  0.90410600  0.40025800  1
  O  O2  1  0.49400200  0.90410600  0.40025800  1
  O  O3  1  0.99400200  0.09589400  0.59974200  1
  O  O4  1  0.75000000  0.23863600  0.36138100  1
  O  O5  1  0.25000000  0.73863600  0.13861900  1
  O  O6  1  0.49400200  0.59589400  0.90025800  1
  O  O7  1  0.50599800  0.09589400  0.59974200  1
  O  O8  1  0.00599800  0.59589400  0.90025800  1
  O  O9  1  0.25000000  0.76136400  0.63861900  1
  O  O10  1  0.99400200  0.40410600  0.09974200  1
  O  O11  1  0.50599800  0.40410600  0.09974200  1
loop_
_geom_bond_atom_site_label_1
_geom_bond_atom_site_label_2
_geom_bond_distance
_geom_bond_site_symmetry_2
Cl0 Sr1 3.025016 1_555
Cl0 Sr1 3.025016 1_455
Cl0 Sr3 3.049080 1_555
Cl0 Sr2 3.160488 1_555
Cl1 Sr0 3.025016 1_445
Cl1 Sr0 3.025016 1_545
Cl1 Sr2 3.049080 1_556
Cl1 Sr3 3.160488 1_555
Cl2 Sr2 3.025016 1_565
Cl2 Sr2 3.025016 1_665
Cl2 Sr0 3.049080 1_554
Cl2 Sr1 3.160488 1_555
Cl3 Sr3 3.025016 1_555
Cl3 Sr3 3.025016 1_655
Cl3 Sr1 3.049080 1_555
Cl3 Sr0 3.160488 1_555
O0 V1 1.644703 1_555
O0 Sr0 2.590398 1_545
O1 V0 1.860363 1_465
O1 V3 1.935874 1_555
O1 Sr1 2.726269 1_455
O1 Sr2 2.873726 1_565
O2 V0 1.860363 1_565
O2 V3 1.935874 1_555
O2 Sr1 2.726269 1_555
O2 Sr2 2.873726 1_565
O3 V3 1.860363 1_645
O3 V0 1.935874 1_555
O3 Sr3 2.726269 1_655
O3 Sr0 2.873726 1_545
O4 V0 1.644703 1_555
O4 Sr1 2.590398 1_555
O5 V2 1.644703 1_555
O5 Sr2 2.590398 1_565
O6 V1 1.860363 1_555
O6 V2 1.935874 1_556
O6 Sr0 2.726269 1_555
O6 Sr3 2.873726 1_555
O7 V3 1.860363 1_545
O7 V0 1.935874 1_555
O7 Sr3 2.726269 1_555
O7 Sr0 2.873726 1_545
O8 V1 1.860363 1_455
O8 V2 1.935874 1_556
O8 Sr0 2.726269 1_455
O8 Sr3 2.873726 1_555
O9 V3 1.644703 1_555
O9 Sr3 2.590398 1_555
O10 V2 1.860363 1_655
O10 V1 1.935874 1_554
O10 Sr2 2.726269 1_655
O10 Sr1 2.873726 1_555
O11 V2 1.860363 1_555
O11 V1 1.935874 1_554
O11 Sr2 2.726269 1_555
O11 Sr1 2.873726 1_555
