# generated using pymatgen
data_Na3Mg3In(SO4)6
_symmetry_space_group_name_H-M   'P 1'
_cell_length_a   8.99925056
_cell_length_b   8.99651092
_cell_length_c   18.01403426
_cell_angle_alpha   58.47334077
_cell_angle_beta   58.44973777
_cell_angle_gamma   58.42588095
_symmetry_Int_Tables_number   1
_chemical_formula_structural   Na3Mg3In(SO4)6
_chemical_formula_sum   'Na6 Mg6 In2 S12 O48'
_cell_volume   994.69409753
_cell_formula_units_Z   2
loop_
 _symmetry_equiv_pos_site_id
 _symmetry_equiv_pos_as_xyz
  1  'x, y, z'
loop_
 _atom_site_type_symbol
 _atom_site_label
 _atom_site_symmetry_multiplicity
 _atom_site_fract_x
 _atom_site_fract_y
 _atom_site_fract_z
 _atom_site_occupancy
  Na  Na0  1  0.99966600  0.99791300  0.00084900  1
  Na  Na1  1  0.02033900  0.00362300  0.49208600  1
  Na  Na2  1  0.49647200  0.52369400  0.23749100  1
  Na  Na3  1  0.59468500  0.24124800  0.44177900  1
  Na  Na4  1  0.46956000  0.49994200  0.76139100  1
  Na  Na5  1  0.87446000  0.59803000  0.62049500  1
  Mg  Mg0  1  0.34957000  0.35012000  0.18045600  1
  Mg  Mg1  1  0.14598100  0.14120600  0.57415400  1
  Mg  Mg2  1  0.35713400  0.35223100  0.67541200  1
  Mg  Mg3  1  0.64900300  0.65654600  0.32439000  1
  Mg  Mg4  1  0.85659500  0.84751300  0.41885100  1
  Mg  Mg5  1  0.64605400  0.64711400  0.82557900  1
  In  In0  1  0.14800900  0.14606100  0.07545100  1
  In  In1  1  0.85004200  0.84964100  0.92602500  1
  S  S0  1  0.04764300  0.74627500  0.22610900  1
  S  S1  1  0.45579100  0.05162100  0.37482600  1
  S  S2  1  0.74523400  0.45164900  0.02461600  1
  S  S3  1  0.25030400  0.54552000  0.47800800  1
  S  S4  1  0.54764000  0.95147400  0.12780400  1
  S  S5  1  0.04603500  0.74672600  0.72278800  1
  S  S6  1  0.94918600  0.25197200  0.27608100  1
  S  S7  1  0.45152000  0.04877600  0.87307900  1
  S  S8  1  0.75004000  0.45069700  0.52435600  1
  S  S9  1  0.25398100  0.54518200  0.97704600  1
  S  S10  1  0.54317400  0.95280900  0.62635200  1
  S  S11  1  0.95873100  0.24991700  0.77140100  1
  O  O0  1  0.97035600  0.21544200  0.19846500  1
  O  O1  1  0.20741400  0.39854300  0.98525100  1
  O  O2  1  0.40084300  0.96814700  0.10450900  1
  O  O3  1  0.10708800  0.29125000  0.25601100  1
  O  O4  1  0.29312400  0.49757000  0.05724700  1
  O  O5  1  0.06177900  0.91027300  0.13628500  1
  O  O6  1  0.49898400  0.11148800  0.14816000  1
  O  O7  1  0.22590600  0.59028800  0.21281600  1
  O  O8  1  0.28097800  0.06789100  0.45604300  1
  O  O9  1  0.98956800  0.20972800  0.69379000  1
  O  O10  1  0.43201700  0.22697800  0.29475200  1
  O  O11  1  0.58740300  0.42483400  0.11150200  1
  O  O12  1  0.21848400  0.38219800  0.49569100  1
  O  O13  1  0.08228900  0.71608400  0.46882300  1
  O  O14  1  0.38875400  0.98833800  0.60471200  1
  O  O15  1  0.11289300  0.29234000  0.75431300  1
  O  O16  1  0.90999500  0.27495700  0.03036800  1
  O  O17  1  0.41234300  0.56838900  0.39058400  1
  O  O18  1  0.28637800  0.51637000  0.55659600  1
  O  O19  1  0.57496000  0.77588800  0.20640800  1
  O  O20  1  0.06437100  0.91073600  0.63735200  1
  O  O21  1  0.72449700  0.93949500  0.04520300  1
  O  O22  1  0.51302900  0.10923500  0.64511000  1
  O  O23  1  0.22170000  0.58714600  0.71351400  1
  O  O24  1  0.77018700  0.40896000  0.29146600  1
  O  O25  1  0.49964000  0.89294200  0.35362700  1
  O  O26  1  0.27396600  0.06032400  0.95494700  1
  O  O27  1  0.92863200  0.08736000  0.36323400  1
  O  O28  1  0.42580700  0.22470900  0.79483500  1
  O  O29  1  0.70424900  0.48573200  0.44738100  1
  O  O30  1  0.59040400  0.43094000  0.61270400  1
  O  O31  1  0.09017800  0.72338900  0.96943600  1
  O  O32  1  0.89410900  0.70072700  0.24513000  1
  O  O33  1  0.60883300  0.02521500  0.39682000  1
  O  O34  1  0.91328100  0.27684800  0.53326400  1
  O  O35  1  0.79467000  0.60750300  0.50647100  1
  O  O36  1  0.41241900  0.57123900  0.88944700  1
  O  O37  1  0.57179100  0.77324500  0.70494800  1
  O  O38  1  0.01737300  0.79671600  0.29990800  1
  O  O39  1  0.72122800  0.93055300  0.54404200  1
  O  O40  1  0.78168000  0.41285600  0.78137800  1
  O  O41  1  0.50027100  0.89008100  0.85138100  1
  O  O42  1  0.93726900  0.08874300  0.86072100  1
  O  O43  1  0.70660000  0.50076200  0.94377600  1
  O  O44  1  0.89077100  0.70364800  0.74009100  1
  O  O45  1  0.59701100  0.02902800  0.89813300  1
  O  O46  1  0.79086600  0.59854400  0.01686800  1
  O  O47  1  0.01376200  0.78682700  0.80211100  1
loop_
_geom_bond_atom_site_label_1
_geom_bond_atom_site_label_2
_geom_bond_distance
_geom_bond_site_symmetry_2
Na0 O5 2.416691 1_655
Na0 O21 2.428975 1_555
Na0 O26 2.433579 1_664
Na0 O31 2.440478 1_654
Na0 O16 2.444771 1_565
Na0 O42 2.490112 1_564
Na1 O8 2.385657 1_555
Na1 O20 2.480845 1_545
Na1 O27 2.482192 1_455
Na1 O34 2.489887 1_455
Na1 O13 2.560693 1_545
Na1 O39 2.669626 1_445
Na2 O7 2.410746 1_555
Na2 O19 2.428155 1_555
Na2 O11 2.452930 1_555
Na2 O10 2.577196 1_555
Na2 O24 2.621554 1_555
Na2 O17 2.645061 1_555
Na3 O33 2.393447 1_555
Na3 O24 2.418759 1_555
Na3 O17 2.427528 1_555
Na3 O39 2.445499 1_545
Na3 O27 2.488370 1_555
Na3 O12 2.713734 1_555
Na3 O29 2.903015 1_555
Na4 O23 2.409926 1_555
Na4 O28 2.421136 1_555
Na4 O36 2.440865 1_555
Na4 O37 2.588676 1_555
Na4 O30 2.593411 1_555
Na4 O40 2.663059 1_555
Na5 O40 2.397258 1_555
Na5 O13 2.406010 1_655
Na5 O37 2.427661 1_555
Na5 O35 2.457280 1_555
Na5 O39 2.471123 1_555
Na5 O9 2.799658 1_555
Na5 O44 2.860721 1_555
Mg0 O6 2.054275 1_555
Mg0 O3 2.059874 1_555
Mg0 O4 2.083033 1_555
Mg0 O7 2.089751 1_555
Mg0 O10 2.090334 1_555
Mg0 O11 2.104021 1_555
Mg1 O14 2.070750 1_545
Mg1 O9 2.076543 1_455
Mg1 O8 2.088388 1_555
Mg1 O20 2.094194 1_545
Mg1 O34 2.101235 1_455
Mg1 O12 2.106095 1_555
Mg2 O22 2.068839 1_555
Mg2 O18 2.074461 1_555
Mg2 O15 2.076447 1_555
Mg2 O23 2.089797 1_555
Mg2 O28 2.096170 1_555
Mg2 O30 2.103059 1_555
Mg3 O25 2.010995 1_555
Mg3 O32 2.022577 1_555
Mg3 O29 2.075925 1_555
Mg3 O19 2.111928 1_555
Mg3 O24 2.159474 1_555
Mg3 O17 2.170015 1_555
Mg4 O38 1.995127 1_655
Mg4 O33 2.052913 1_565
Mg4 O35 2.059041 1_555
Mg4 O27 2.145789 1_565
Mg4 O13 2.149194 1_655
Mg4 O39 2.249871 1_555
Mg5 O43 2.023607 1_555
Mg5 O41 2.033834 1_555
Mg5 O44 2.070009 1_555
Mg5 O36 2.088178 1_555
Mg5 O37 2.145531 1_555
Mg5 O40 2.146968 1_555
In0 O0 2.133110 1_455
In0 O2 2.137616 1_545
In0 O1 2.142029 1_554
In0 O5 2.169262 1_545
In0 O16 2.196964 1_455
In0 O26 2.202838 1_554
In1 O47 2.116215 1_655
In1 O45 2.131447 1_565
In1 O46 2.132234 1_556
In1 O42 2.186948 1_565
In1 O31 2.200214 1_655
In1 O21 2.204361 1_556
O0 S6 1.495132 1_555
O1 S9 1.499355 1_555
O2 S4 1.500201 1_555
O3 S6 1.459250 1_455
O4 S9 1.456791 1_554
O5 S0 1.515161 1_555
O6 S4 1.456873 1_545
O7 S0 1.480587 1_555
O8 S1 1.486945 1_555
O9 S11 1.476459 1_555
O10 S1 1.484910 1_555
O11 S2 1.470667 1_555
O12 S3 1.482590 1_555
O13 S3 1.494925 1_555
O14 S10 1.468586 1_555
O15 S11 1.466236 1_455
O16 S2 1.502129 1_555
O17 S3 1.490301 1_555
O18 S3 1.477116 1_555
O19 S4 1.476207 1_555
O20 S5 1.478977 1_555
O21 S4 1.506174 1_555
O22 S10 1.473031 1_545
O23 S5 1.478473 1_555
O24 S6 1.492000 1_555
O25 S1 1.470364 1_565
O26 S7 1.503079 1_555
O27 S6 1.497888 1_555
O28 S7 1.473131 1_555
O29 S8 1.482158 1_555
O30 S8 1.485670 1_555
O31 S9 1.506282 1_555
O32 S0 1.464588 1_655
O33 S1 1.496745 1_555
O34 S8 1.485996 1_555
O35 S8 1.495932 1_555
O36 S9 1.478728 1_555
O37 S10 1.494840 1_555
O38 S0 1.473078 1_555
O39 S10 1.514696 1_555
O40 S11 1.499924 1_555
O41 S7 1.460068 1_565
O42 S11 1.502295 1_555
O43 S2 1.460430 1_556
O44 S5 1.478058 1_655
O45 S7 1.496828 1_555
O46 S2 1.500009 1_555
O47 S5 1.500477 1_555
