# generated using pymatgen
data_GePbO3
_symmetry_space_group_name_H-M   'P 1'
_cell_length_a   9.34683462
_cell_length_b   9.34683462
_cell_length_c   9.34683482
_cell_angle_alpha   113.50188580
_cell_angle_beta   113.50188584
_cell_angle_gamma   113.50187542
_symmetry_Int_Tables_number   1
_chemical_formula_structural   GePbO3
_chemical_formula_sum   'Ge6 Pb6 O18'
_cell_volume   513.91670662
_cell_formula_units_Z   6
loop_
 _symmetry_equiv_pos_site_id
 _symmetry_equiv_pos_as_xyz
  1  'x, y, z'
loop_
 _atom_site_type_symbol
 _atom_site_label
 _atom_site_symmetry_multiplicity
 _atom_site_fract_x
 _atom_site_fract_y
 _atom_site_fract_z
 _atom_site_occupancy
  Ge  Ge0  1  0.51998721  0.25648089  0.65437563  1
  Ge  Ge1  1  0.65437563  0.51998721  0.25648089  1
  Ge  Ge2  1  0.48001279  0.74351911  0.34562437  1
  Ge  Ge3  1  0.74351911  0.34562437  0.48001279  1
  Ge  Ge4  1  0.34562437  0.48001279  0.74351911  1
  Ge  Ge5  1  0.25648089  0.65437563  0.51998721  1
  Pb  Pb0  1  0.99109608  0.29178772  0.83138515  1
  Pb  Pb1  1  0.70821228  0.16861485  0.00890392  1
  Pb  Pb2  1  0.16861485  0.00890392  0.70821228  1
  Pb  Pb3  1  0.29178772  0.83138515  0.99109608  1
  Pb  Pb4  1  0.00890392  0.70821228  0.16861485  1
  Pb  Pb5  1  0.83138515  0.99109608  0.29178772  1
  O  O0  1  0.52066048  0.21867862  0.45294190  1
  O  O1  1  0.73764445  0.31684468  0.84704562  1
  O  O2  1  0.03060170  0.53742260  0.28389175  1
  O  O3  1  0.15295438  0.26235555  0.68315532  1
  O  O4  1  0.71610825  0.96939830  0.46257740  1
  O  O5  1  0.21867862  0.45294190  0.52066048  1
  O  O6  1  0.31684468  0.84704562  0.73764445  1
  O  O7  1  0.28389175  0.03060170  0.53742260  1
  O  O8  1  0.26235555  0.68315532  0.15295438  1
  O  O9  1  0.84704562  0.73764445  0.31684468  1
  O  O10  1  0.45294190  0.52066048  0.21867862  1
  O  O11  1  0.54705810  0.47933952  0.78132138  1
  O  O12  1  0.46257740  0.71610825  0.96939830  1
  O  O13  1  0.78132138  0.54705810  0.47933952  1
  O  O14  1  0.68315532  0.15295438  0.26235555  1
  O  O15  1  0.47933952  0.78132138  0.54705810  1
  O  O16  1  0.96939830  0.46257740  0.71610825  1
  O  O17  1  0.53742260  0.28389175  0.03060170  1
loop_
_geom_bond_atom_site_label_1
_geom_bond_atom_site_label_2
_geom_bond_distance
_geom_bond_site_symmetry_2
Ge0 O7 1.744028 1_555
Ge0 O1 1.747111 1_555
Ge0 O0 1.774923 1_555
Ge0 O11 1.783210 1_555
Ge1 O17 1.744028 1_555
Ge1 O9 1.747111 1_555
Ge1 O10 1.774923 1_555
Ge1 O13 1.783210 1_555
Ge2 O4 1.744028 1_555
Ge2 O8 1.747111 1_555
Ge2 O15 1.774923 1_555
Ge2 O10 1.783210 1_555
Ge3 O16 1.744028 1_555
Ge3 O14 1.747111 1_555
Ge3 O13 1.774923 1_555
Ge3 O0 1.783210 1_555
Ge4 O12 1.744028 1_555
Ge4 O3 1.747111 1_555
Ge4 O11 1.774923 1_555
Ge4 O5 1.783210 1_555
Ge5 O2 1.744028 1_555
Ge5 O6 1.747111 1_555
Ge5 O5 1.774923 1_555
Ge5 O15 1.783210 1_555
O1 Pb1 2.446150 1_556
O1 Pb0 2.525870 1_555
O1 Pb4 2.568976 1_656
O2 Pb4 2.281695 1_555
O2 Pb1 2.457886 1_455
O3 Pb0 2.446150 1_455
O3 Pb2 2.525870 1_555
O3 Pb5 2.568976 1_445
O4 Pb5 2.281695 1_555
O4 Pb0 2.457886 1_565
O6 Pb2 2.446150 1_565
O6 Pb3 2.525870 1_555
O6 Pb1 2.568976 1_566
O7 Pb2 2.281695 1_555
O7 Pb4 2.457886 1_545
O8 Pb3 2.446150 1_554
O8 Pb4 2.525870 1_555
O8 Pb0 2.568976 1_454
O9 Pb4 2.446150 1_655
O9 Pb5 2.525870 1_555
O9 Pb2 2.568976 1_665
O12 Pb3 2.281695 1_555
O12 Pb5 2.457886 1_556
O14 Pb5 2.446150 1_545
O14 Pb1 2.525870 1_555
O14 Pb3 2.568976 1_544
O16 Pb0 2.281695 1_555
O16 Pb3 2.457886 1_655
O17 Pb1 2.281695 1_555
O17 Pb2 2.457886 1_554
