# generated using pymatgen
data_Ba3YIr2O9
_symmetry_space_group_name_H-M   'P 1'
_cell_length_a   5.94110537
_cell_length_b   5.94110537
_cell_length_c   14.87244000
_cell_angle_alpha   90.00000000
_cell_angle_beta   90.00000000
_cell_angle_gamma   119.99999303
_symmetry_Int_Tables_number   1
_chemical_formula_structural   Ba3YIr2O9
_chemical_formula_sum   'Ba6 Y2 Ir4 O18'
_cell_volume   454.61880735
_cell_formula_units_Z   2
loop_
 _symmetry_equiv_pos_site_id
 _symmetry_equiv_pos_as_xyz
  1  'x, y, z'
loop_
 _atom_site_type_symbol
 _atom_site_label
 _atom_site_symmetry_multiplicity
 _atom_site_fract_x
 _atom_site_fract_y
 _atom_site_fract_z
 _atom_site_occupancy
  Ba  Ba0  1  0.00000000  0.00000000  0.25564700  1
  Ba  Ba1  1  0.00000000  0.00000000  0.75564700  1
  Ba  Ba2  1  0.33333300  0.66666700  0.07353400  1
  Ba  Ba3  1  0.66666700  0.33333300  0.57353400  1
  Ba  Ba4  1  0.33333300  0.66666700  0.39969500  1
  Ba  Ba5  1  0.66666700  0.33333300  0.89969500  1
  Y  Y0  1  0.33333300  0.66666700  0.65147600  1
  Y  Y1  1  0.66666700  0.33333300  0.15147600  1
  Ir  Ir0  1  0.00000000  0.00000000  0.49620000  1
  Ir  Ir1  1  0.00000000  0.00000000  0.99620000  1
  Ir  Ir2  1  0.33333300  0.66666700  0.84521400  1
  Ir  Ir3  1  0.66666700  0.33333300  0.34521400  1
  O  O0  1  0.15394400  0.84605600  0.57511400  1
  O  O1  1  0.30788800  0.15394400  0.07511400  1
  O  O2  1  0.84605600  0.69211200  0.07511400  1
  O  O3  1  0.15394400  0.30788800  0.57511400  1
  O  O4  1  0.69211200  0.84605600  0.57511400  1
  O  O5  1  0.84605600  0.15394400  0.07511400  1
  O  O6  1  0.83411800  0.16588200  0.42072300  1
  O  O7  1  0.66823700  0.83411800  0.92072300  1
  O  O8  1  0.16588200  0.33176300  0.92072300  1
  O  O9  1  0.83411800  0.66823700  0.42072300  1
  O  O10  1  0.33176300  0.16588200  0.42072300  1
  O  O11  1  0.16588200  0.83411800  0.92072300  1
  O  O12  1  0.48796500  0.51203500  0.76357400  1
  O  O13  1  0.97593000  0.48796500  0.26357400  1
  O  O14  1  0.51203500  0.02407000  0.26357400  1
  O  O15  1  0.48796500  0.97593000  0.76357400  1
  O  O16  1  0.02407000  0.51203500  0.76357400  1
  O  O17  1  0.51203500  0.48796500  0.26357400  1
loop_
_geom_bond_atom_site_label_1
_geom_bond_atom_site_label_2
_geom_bond_distance
_geom_bond_site_symmetry_2
Ba0 O14 2.975470 1_455
Ba0 O13 2.975470 1_455
Ba0 O14 2.975470 1_555
Ba0 O13 2.975470 1_445
Ba0 O17 2.975470 1_555
Ba0 O17 2.975470 1_445
Ba0 O10 2.990180 1_555
Ba0 O9 2.990180 1_445
Ba0 O6 2.990183 1_455
Ba0 O5 3.117452 1_455
Ba0 O1 3.117452 1_555
Ba0 O2 3.117452 1_445
Ba1 O16 2.975470 1_545
Ba1 O15 2.975470 1_545
Ba1 O15 2.975470 1_445
Ba1 O16 2.975470 1_555
Ba1 O12 2.975470 1_445
Ba1 O12 2.975470 1_555
Ba1 O8 2.990180 1_555
Ba1 O7 2.990180 1_445
Ba1 O11 2.990183 1_545
Ba1 O0 3.117452 1_545
Ba1 O3 3.117452 1_555
Ba1 O4 3.117452 1_445
Ba2 O11 2.852049 1_554
Ba2 O8 2.852055 1_554
Ba2 O7 2.852055 1_554
Ba2 O2 2.973526 1_455
Ba2 O1 2.973526 1_565
Ba2 O5 2.973530 1_455
Ba2 O5 2.973530 1_565
Ba2 O1 2.973532 1_555
Ba2 O2 2.973532 1_555
Ba2 O14 3.371917 1_565
Ba2 O13 3.371917 1_455
Ba2 O17 3.371920 1_555
Ba3 O6 2.852049 1_555
Ba3 O9 2.852055 1_555
Ba3 O10 2.852055 1_555
Ba3 O4 2.973526 1_545
Ba3 O3 2.973526 1_655
Ba3 O0 2.973530 1_545
Ba3 O0 2.973530 1_655
Ba3 O3 2.973532 1_555
Ba3 O4 2.973532 1_555
Ba3 O16 3.371917 1_655
Ba3 O15 3.371917 1_545
Ba3 O12 3.371920 1_555
Ba4 O13 2.734945 1_455
Ba4 O14 2.734945 1_565
Ba4 O17 2.734949 1_555
Ba4 O9 2.986981 1_455
Ba4 O10 2.986981 1_565
Ba4 O9 2.986981 1_555
Ba4 O10 2.986981 1_555
Ba4 O6 2.986981 1_455
Ba4 O6 2.986981 1_565
Ba4 O0 3.195934 1_555
Ba4 O4 3.195937 1_555
Ba4 O3 3.195937 1_555
Ba5 O15 2.734945 1_545
Ba5 O16 2.734945 1_655
Ba5 O12 2.734949 1_555
Ba5 O7 2.986981 1_545
Ba5 O8 2.986981 1_655
Ba5 O8 2.986981 1_555
Ba5 O7 2.986981 1_555
Ba5 O11 2.986981 1_545
Ba5 O11 2.986981 1_655
Ba5 O5 3.195934 1_556
Ba5 O1 3.195937 1_556
Ba5 O2 3.195937 1_556
Ir0 O0 1.971524 1_545
Ir0 O3 1.971524 1_555
Ir0 O4 1.971524 1_445
Ir0 O10 2.042991 1_555
Ir0 O9 2.042991 1_445
Ir0 O6 2.042995 1_455
Ir1 O5 1.971524 1_456
Ir1 O1 1.971524 1_556
Ir1 O2 1.971524 1_446
Ir1 O7 2.042991 1_445
Ir1 O8 2.042991 1_555
Ir1 O11 2.042995 1_545
Ir2 O15 2.001544 1_555
Ir2 O16 2.001544 1_555
Ir2 O12 2.001548 1_555
Ir2 O11 2.056764 1_555
Ir2 O7 2.056773 1_555
Ir2 O8 2.056773 1_555
Ir3 O14 2.001544 1_555
Ir3 O13 2.001544 1_555
Ir3 O17 2.001548 1_555
Ir3 O6 2.056764 1_555
Ir3 O9 2.056773 1_555
Ir3 O10 2.056773 1_555
O0 Y0 2.167344 1_555
O1 Y1 2.167349 1_555
O2 Y1 2.167349 1_555
O3 Y0 2.167349 1_555
O4 Y0 2.167349 1_555
O5 Y1 2.167344 1_555
O12 Y0 2.304648 1_555
O13 Y1 2.304645 1_555
O14 Y1 2.304645 1_555
O15 Y0 2.304645 1_555
O16 Y0 2.304645 1_555
O17 Y1 2.304648 1_555
