# generated using pymatgen
data_ZrHg3(SeBr3)2
_symmetry_space_group_name_H-M   'P 1'
_cell_length_a   7.79328300
_cell_length_b   7.18728500
_cell_length_c   13.89566734
_cell_angle_alpha   88.00183514
_cell_angle_beta   90.00000000
_cell_angle_gamma   90.00000000
_symmetry_Int_Tables_number   1
_chemical_formula_structural   ZrHg3(SeBr3)2
_chemical_formula_sum   'Zr2 Hg6 Se4 Br12'
_cell_volume   777.85843713
_cell_formula_units_Z   2
loop_
 _symmetry_equiv_pos_site_id
 _symmetry_equiv_pos_as_xyz
  1  'x, y, z'
loop_
 _atom_site_type_symbol
 _atom_site_label
 _atom_site_symmetry_multiplicity
 _atom_site_fract_x
 _atom_site_fract_y
 _atom_site_fract_z
 _atom_site_occupancy
  Zr  Zr0  1  0.00000000  0.50000000  0.00000000  1
  Zr  Zr1  1  0.50000000  0.50000000  0.50000000  1
  Hg  Hg0  1  0.19985900  0.00711400  0.23860200  1
  Hg  Hg1  1  0.80014100  0.99288600  0.76139800  1
  Hg  Hg2  1  0.30014100  0.00711400  0.73860200  1
  Hg  Hg3  1  0.69985900  0.99288600  0.26139800  1
  Hg  Hg4  1  0.50000000  0.00000000  0.00000000  1
  Hg  Hg5  1  0.00000000  0.00000000  0.50000000  1
  Se  Se0  1  0.54190300  0.16220800  0.83190900  1
  Se  Se1  1  0.95809700  0.16220800  0.33190900  1
  Se  Se2  1  0.45809700  0.83779200  0.16809100  1
  Se  Se3  1  0.04190300  0.83779200  0.66809100  1
  Br  Br0  1  0.20242500  0.36907800  0.56368700  1
  Br  Br1  1  0.05018700  0.35644100  0.82930500  1
  Br  Br2  1  0.44981300  0.35644100  0.32930500  1
  Br  Br3  1  0.70242500  0.63092200  0.93631300  1
  Br  Br4  1  0.29757500  0.36907800  0.06368700  1
  Br  Br5  1  0.14651000  0.81797700  0.93878000  1
  Br  Br6  1  0.55018700  0.64355900  0.67069500  1
  Br  Br7  1  0.85349000  0.18202300  0.06122000  1
  Br  Br8  1  0.79757500  0.63092200  0.43631300  1
  Br  Br9  1  0.64651000  0.18202300  0.56122000  1
  Br  Br10  1  0.94981300  0.64355900  0.17069500  1
  Br  Br11  1  0.35349000  0.81797700  0.43878000  1
loop_
_geom_bond_atom_site_label_1
_geom_bond_atom_site_label_2
_geom_bond_distance
_geom_bond_site_symmetry_2
Hg0 Se1 2.564047 1_455
Hg0 Se2 2.564060 1_545
Hg1 Se3 2.564047 1_655
Hg1 Se0 2.564060 1_565
Hg2 Se0 2.564047 1_555
Hg2 Se3 2.564060 1_545
Hg3 Se2 2.564047 1_555
Hg3 Se1 2.564060 1_565
Hg4 Se0 2.594530 1_554
Hg4 Se2 2.594530 1_545
Hg5 Se3 2.594530 1_545
Hg5 Se1 2.594530 1_455
Br0 Zr1 2.643615 1_555
Br0 Hg5 3.236080 1_555
Br1 Zr0 2.648445 1_556
Br2 Zr1 2.648445 1_555
Br3 Zr0 2.643615 1_656
Br3 Hg4 3.236080 1_566
Br4 Zr0 2.643615 1_555
Br4 Hg4 3.236080 1_555
Br5 Zr0 2.667360 1_556
Br5 Hg4 3.178363 1_566
Br6 Zr1 2.648445 1_555
Br7 Zr0 2.667360 1_655
Br7 Hg4 3.178363 1_555
Br8 Zr1 2.643615 1_555
Br8 Hg5 3.236080 1_665
Br9 Zr1 2.667360 1_555
Br9 Hg5 3.178363 1_655
Br10 Zr0 2.648445 1_655
Br11 Zr1 2.667360 1_555
Br11 Hg5 3.178363 1_565
