# generated using pymatgen
data_RbGeBiS4
_symmetry_space_group_name_H-M   'P 1'
_cell_length_a   6.95945600
_cell_length_b   6.71937000
_cell_length_c   18.29053523
_cell_angle_alpha   71.79404074
_cell_angle_beta   90.00000000
_cell_angle_gamma   90.00000000
_symmetry_Int_Tables_number   1
_chemical_formula_structural   RbGeBiS4
_chemical_formula_sum   'Rb4 Ge4 Bi4 S16'
_cell_volume   812.50536659
_cell_formula_units_Z   4
loop_
 _symmetry_equiv_pos_site_id
 _symmetry_equiv_pos_as_xyz
  1  'x, y, z'
loop_
 _atom_site_type_symbol
 _atom_site_label
 _atom_site_symmetry_multiplicity
 _atom_site_fract_x
 _atom_site_fract_y
 _atom_site_fract_z
 _atom_site_occupancy
  Rb  Rb0  1  0.75694600  0.28696700  0.46509700  1
  Rb  Rb1  1  0.25694600  0.71303300  0.03490300  1
  Rb  Rb2  1  0.24305400  0.71303300  0.53490300  1
  Rb  Rb3  1  0.74305400  0.28696700  0.96509700  1
  Ge  Ge0  1  0.22965200  0.20506500  0.34102100  1
  Ge  Ge1  1  0.72965200  0.79493500  0.15897900  1
  Ge  Ge2  1  0.77034800  0.79493500  0.65897900  1
  Ge  Ge3  1  0.27034800  0.20506500  0.84102100  1
  Bi  Bi0  1  0.81118000  0.23854500  0.22182100  1
  Bi  Bi1  1  0.68882000  0.23854500  0.72182100  1
  Bi  Bi2  1  0.31118000  0.76145500  0.27817900  1
  Bi  Bi3  1  0.18882000  0.76145500  0.77817900  1
  S  S0  1  0.51660100  0.98637100  0.86562800  1
  S  S1  1  0.76102200  0.58346700  0.08745500  1
  S  S2  1  0.01032200  0.00112200  0.85353000  1
  S  S3  1  0.48967800  0.00112200  0.35353000  1
  S  S4  1  0.98967800  0.99887800  0.14647000  1
  S  S5  1  0.33065600  0.40978400  0.71912500  1
  S  S6  1  0.23897800  0.41653300  0.91254500  1
  S  S7  1  0.98339900  0.98637100  0.36562800  1
  S  S8  1  0.26102200  0.41653300  0.41254500  1
  S  S9  1  0.01660100  0.01362900  0.63437200  1
  S  S10  1  0.73897800  0.58346700  0.58745500  1
  S  S11  1  0.66934400  0.59021600  0.28087500  1
  S  S12  1  0.51032200  0.99887800  0.64647000  1
  S  S13  1  0.83065600  0.59021600  0.78087500  1
  S  S14  1  0.16934400  0.40978400  0.21912500  1
  S  S15  1  0.48339900  0.01362900  0.13437200  1
loop_
_geom_bond_atom_site_label_1
_geom_bond_atom_site_label_2
_geom_bond_distance
_geom_bond_site_symmetry_2
Rb0 S11 3.403979 1_555
Rb0 S10 3.432143 1_555
Rb0 S7 3.488499 1_545
Rb0 S9 3.559700 1_655
Rb0 S8 3.615363 1_555
Rb0 S8 3.669562 1_655
Rb0 S12 3.699406 1_545
Rb0 S3 3.709727 1_555
Rb1 S14 3.403979 1_555
Rb1 S6 3.432143 1_554
Rb1 S15 3.488499 1_565
Rb1 S0 3.559700 1_554
Rb1 S1 3.615363 1_455
Rb1 S1 3.669562 1_555
Rb1 S2 3.699406 1_564
Rb1 S4 3.709727 1_455
Rb2 S5 3.403979 1_555
Rb2 S8 3.432143 1_555
Rb2 S9 3.488499 1_565
Rb2 S7 3.559700 1_455
Rb2 S10 3.615363 1_555
Rb2 S10 3.669562 1_455
Rb2 S3 3.699406 1_565
Rb2 S12 3.709727 1_555
Rb3 S13 3.403979 1_555
Rb3 S1 3.432143 1_556
Rb3 S0 3.488499 1_545
Rb3 S15 3.559700 1_556
Rb3 S6 3.615363 1_655
Rb3 S6 3.669562 1_555
Rb3 S4 3.699406 1_546
Rb3 S2 3.709727 1_655
Ge0 S7 2.210373 1_445
Ge0 S8 2.222540 1_555
Ge0 S3 2.238110 1_555
Ge0 S14 2.263367 1_555
Ge1 S15 2.210373 1_565
Ge1 S1 2.222540 1_555
Ge1 S4 2.238110 1_555
Ge1 S11 2.263367 1_555
Ge2 S9 2.210373 1_665
Ge2 S10 2.222540 1_555
Ge2 S12 2.238110 1_555
Ge2 S13 2.263367 1_555
Ge3 S0 2.210373 1_545
Ge3 S6 2.222540 1_555
Ge3 S2 2.238110 1_555
Ge3 S5 2.263367 1_555
Bi0 S4 2.724510 1_545
Bi0 S14 2.739359 1_655
Bi0 S1 2.823847 1_555
Bi0 S7 2.905377 1_545
Bi0 S11 3.052824 1_555
Bi1 S12 2.724510 1_545
Bi1 S5 2.739359 1_555
Bi1 S10 2.823847 1_555
Bi1 S0 2.905377 1_545
Bi1 S13 3.052824 1_555
Bi2 S3 2.724510 1_565
Bi2 S11 2.739359 1_555
Bi2 S8 2.823847 1_555
Bi2 S15 2.905377 1_565
Bi2 S14 3.052824 1_555
Bi3 S2 2.724510 1_565
Bi3 S13 2.739359 1_455
Bi3 S6 2.823847 1_555
Bi3 S9 2.905377 1_565
Bi3 S5 3.052824 1_555
