# generated using pymatgen
data_Rb4CO4
_symmetry_space_group_name_H-M   'P 1'
_cell_length_a   6.05433744
_cell_length_b   6.05433744
_cell_length_c   6.05433746
_cell_angle_alpha   75.13452712
_cell_angle_beta   75.13452712
_cell_angle_gamma   75.13451714
_symmetry_Int_Tables_number   1
_chemical_formula_structural   Rb4CO4
_chemical_formula_sum   'Rb4 C1 O4'
_cell_volume   202.94825267
_cell_formula_units_Z   1
loop_
 _symmetry_equiv_pos_site_id
 _symmetry_equiv_pos_as_xyz
  1  'x, y, z'
loop_
 _atom_site_type_symbol
 _atom_site_label
 _atom_site_symmetry_multiplicity
 _atom_site_fract_x
 _atom_site_fract_y
 _atom_site_fract_z
 _atom_site_occupancy
  Rb  Rb0  1  0.57503500  0.08858600  0.57503500  1
  Rb  Rb1  1  0.57503500  0.57503500  0.08858600  1
  Rb  Rb2  1  0.08858600  0.57503500  0.57503500  1
  Rb  Rb3  1  0.17798700  0.17798700  0.17798700  1
  C  C0  1  0.95385500  0.95385500  0.95385500  1
  O  O0  1  0.09873100  0.77812800  0.09873100  1
  O  O1  1  0.84556400  0.84556400  0.84556400  1
  O  O2  1  0.09873100  0.09873100  0.77812800  1
  O  O3  1  0.77812800  0.09873100  0.09873100  1
loop_
_geom_bond_atom_site_label_1
_geom_bond_atom_site_label_2
_geom_bond_distance
_geom_bond_site_symmetry_2
C0 O1 1.396862 1_555
C0 O3 1.451803 1_566
C0 O0 1.451803 1_656
C0 O2 1.451803 1_665
O0 Rb3 2.762496 1_565
O0 Rb1 2.821339 1_555
O0 Rb2 2.821339 1_555
O0 Rb3 3.462871 1_555
O1 Rb0 2.536444 1_565
O1 Rb2 2.536444 1_655
O1 Rb1 2.536444 1_556
O2 Rb3 2.762496 1_556
O2 Rb0 2.821339 1_555
O2 Rb2 2.821339 1_555
O2 Rb3 3.462871 1_555
O3 Rb3 2.762496 1_655
O3 Rb1 2.821339 1_555
O3 Rb0 2.821339 1_555
O3 Rb3 3.462871 1_555
