# generated using pymatgen
data_Sb4RuC6(O3F11)2
_symmetry_space_group_name_H-M   'P 1'
_cell_length_a   12.78376800
_cell_length_b   9.99189100
_cell_length_c   11.81301542
_cell_angle_alpha   58.54037153
_cell_angle_beta   90.00000000
_cell_angle_gamma   90.00000000
_symmetry_Int_Tables_number   1
_chemical_formula_structural   Sb4RuC6(O3F11)2
_chemical_formula_sum   'Sb8 Ru2 C12 O12 F44'
_cell_volume   1287.12433444
_cell_formula_units_Z   2
loop_
 _symmetry_equiv_pos_site_id
 _symmetry_equiv_pos_as_xyz
  1  'x, y, z'
loop_
 _atom_site_type_symbol
 _atom_site_label
 _atom_site_symmetry_multiplicity
 _atom_site_fract_x
 _atom_site_fract_y
 _atom_site_fract_z
 _atom_site_occupancy
  Sb  Sb0  1  0.29978500  0.60016700  0.99648900  1
  Sb  Sb1  1  0.79978500  0.39983300  0.50351100  1
  Sb  Sb2  1  0.13162200  0.24125000  0.27347400  1
  Sb  Sb3  1  0.63162200  0.75875000  0.22652600  1
  Sb  Sb4  1  0.20021500  0.60016700  0.49648900  1
  Sb  Sb5  1  0.36837800  0.24125000  0.77347400  1
  Sb  Sb6  1  0.86837800  0.75875000  0.72652600  1
  Sb  Sb7  1  0.70021500  0.39983300  0.00351100  1
  Ru  Ru0  1  0.00000000  0.00000000  0.00000000  1
  Ru  Ru1  1  0.50000000  0.00000000  0.50000000  1
  C  C0  1  0.52308600  0.76955700  0.57378900  1
  C  C1  1  0.55331500  0.97014600  0.67245500  1
  C  C2  1  0.14668700  0.95003500  0.07354800  1
  C  C3  1  0.47691400  0.23044300  0.42621100  1
  C  C4  1  0.64668700  0.04996500  0.42645200  1
  C  C5  1  0.44668500  0.02985400  0.32754500  1
  C  C6  1  0.35331300  0.95003500  0.57354800  1
  C  C7  1  0.02308600  0.23044300  0.92621100  1
  C  C8  1  0.05331500  0.02985400  0.82754500  1
  C  C9  1  0.97691400  0.76955700  0.07378900  1
  C  C10  1  0.94668500  0.97014600  0.17245500  1
  C  C11  1  0.85331300  0.04996500  0.92645200  1
  O  O0  1  0.77116400  0.08206400  0.88388600  1
  O  O1  1  0.27116400  0.91793600  0.61611400  1
  O  O2  1  0.72883600  0.08206400  0.38388600  1
  O  O3  1  0.03348600  0.36154800  0.88137700  1
  O  O4  1  0.46651400  0.36154800  0.38137700  1
  O  O5  1  0.41680400  0.04788300  0.22999300  1
  O  O6  1  0.22883600  0.91793600  0.11611400  1
  O  O7  1  0.58319600  0.95211700  0.77000700  1
  O  O8  1  0.53348600  0.63845200  0.61862300  1
  O  O9  1  0.91680400  0.95211700  0.27000700  1
  O  O10  1  0.96651400  0.63845200  0.11862300  1
  O  O11  1  0.08319600  0.04788300  0.72999300  1
  F  F0  1  0.73379200  0.46513700  0.61004100  1
  F  F1  1  0.99556400  0.70240300  0.82431200  1
  F  F2  1  0.61519700  0.58227300  0.92067000  1
  F  F3  1  0.68420300  0.53598900  0.36294000  1
  F  F4  1  0.72991800  0.79426700  0.65256200  1
  F  F5  1  0.08920000  0.03450900  0.40124500  1
  F  F6  1  0.27008200  0.20573300  0.34743800  1
  F  F7  1  0.65249200  0.34827400  0.87939800  1
  F  F8  1  0.81579700  0.53598900  0.86294000  1
  F  F9  1  0.41080000  0.03450900  0.90124500  1
  F  F10  1  0.68178200  0.82169000  0.34481900  1
  F  F11  1  0.39607000  0.73121200  0.85938000  1
  F  F12  1  0.22991800  0.20573300  0.84743800  1
  F  F13  1  0.91103400  0.66836100  0.62809800  1
  F  F14  1  0.30259900  0.76379300  0.44120400  1
  F  F15  1  0.81821800  0.82169000  0.84481900  1
  F  F16  1  0.10393000  0.73121200  0.35938000  1
  F  F17  1  0.91080000  0.96549100  0.59875500  1
  F  F18  1  0.11519700  0.41772700  0.57933000  1
  F  F19  1  0.88480300  0.58227300  0.42067000  1
  F  F20  1  0.18420300  0.46401100  0.13706000  1
  F  F21  1  0.80259900  0.23620700  0.05879600  1
  F  F22  1  0.50443600  0.70240300  0.32431200  1
  F  F23  1  0.49556400  0.29759700  0.67568800  1
  F  F24  1  0.31821800  0.17831000  0.65518100  1
  F  F25  1  0.76620800  0.46513700  0.11004100  1
  F  F26  1  0.41103400  0.33163900  0.87190200  1
  F  F27  1  0.77008200  0.79426700  0.15256200  1
  F  F28  1  0.19740100  0.76379300  0.94120400  1
  F  F29  1  0.58896600  0.66836100  0.12809800  1
  F  F30  1  0.15249200  0.65172600  0.62060200  1
  F  F31  1  0.23379200  0.53486300  0.88995900  1
  F  F32  1  0.00443600  0.29759700  0.17568800  1
  F  F33  1  0.58920000  0.96549100  0.09875500  1
  F  F34  1  0.69740100  0.23620700  0.55879600  1
  F  F35  1  0.31579700  0.46401100  0.63706000  1
  F  F36  1  0.08896600  0.33163900  0.37190200  1
  F  F37  1  0.60393000  0.26878800  0.14062000  1
  F  F38  1  0.26620800  0.53486300  0.38995900  1
  F  F39  1  0.18178200  0.17831000  0.15518100  1
  F  F40  1  0.89607000  0.26878800  0.64062000  1
  F  F41  1  0.34750800  0.65172600  0.12060200  1
  F  F42  1  0.38480300  0.41772700  0.07933000  1
  F  F43  1  0.84750800  0.34827400  0.37939800  1
loop_
_geom_bond_atom_site_label_1
_geom_bond_atom_site_label_2
_geom_bond_distance
_geom_bond_site_symmetry_2
C0 O8 1.135807 1_555
C0 Ru1 2.013386 1_565
C1 O7 1.135637 1_555
C1 Ru1 2.017286 1_565
C2 O6 1.135886 1_555
C2 Ru0 2.016871 1_565
C3 O4 1.135807 1_555
C3 Ru1 2.013386 1_555
C4 O2 1.135886 1_555
C4 Ru1 2.016871 1_555
C5 O5 1.135637 1_555
C5 Ru1 2.017286 1_555
C6 O1 1.135886 1_555
C6 Ru1 2.016871 1_565
C7 O3 1.135807 1_555
C7 Ru0 2.013386 1_556
C8 O11 1.135637 1_555
C8 Ru0 2.017286 1_556
C9 O10 1.135807 1_555
C9 Ru0 2.013386 1_665
C10 O9 1.135637 1_555
C10 Ru0 2.017286 1_665
C11 O0 1.135886 1_555
C11 Ru0 2.016871 1_656
F0 Sb1 1.891634 1_555
F1 Sb6 1.901607 1_555
F2 Sb7 1.897341 1_556
F3 Sb3 2.063724 1_555
F3 Sb1 2.105583 1_555
F4 Sb6 1.923213 1_555
F5 Sb2 1.893420 1_555
F6 Sb2 1.923213 1_555
F7 Sb7 1.890923 1_556
F8 Sb6 2.063724 1_555
F8 Sb7 2.105583 1_556
F9 Sb5 1.893420 1_555
F10 Sb3 1.917472 1_555
F11 Sb0 1.907682 1_555
F12 Sb5 1.923213 1_555
F13 Sb6 1.887091 1_555
F14 Sb4 1.923047 1_555
F15 Sb6 1.917472 1_555
F16 Sb4 1.907682 1_555
F17 Sb6 1.893420 1_555
F18 Sb4 1.897341 1_555
F19 Sb1 1.897341 1_555
F20 Sb2 2.063724 1_555
F20 Sb0 2.105583 1_554
F21 Sb7 1.923047 1_555
F22 Sb3 1.901607 1_555
F23 Sb5 1.901607 1_555
F24 Sb5 1.917472 1_555
F25 Sb7 1.891634 1_555
F26 Sb5 1.887091 1_555
F27 Sb3 1.923213 1_555
F28 Sb0 1.923047 1_555
F29 Sb3 1.887091 1_555
F30 Sb4 1.890923 1_555
F31 Sb0 1.891634 1_555
F32 Sb2 1.901607 1_555
F33 Sb3 1.893420 1_555
F34 Sb1 1.923047 1_555
F35 Sb5 2.063724 1_555
F35 Sb4 2.105583 1_555
F36 Sb2 1.887091 1_555
F37 Sb7 1.907682 1_555
F38 Sb4 1.891634 1_555
F39 Sb2 1.917472 1_555
F40 Sb1 1.907682 1_555
F41 Sb0 1.890923 1_554
F42 Sb0 1.897341 1_554
F43 Sb1 1.890923 1_555
