# generated using pymatgen
data_YbBO3
_symmetry_space_group_name_H-M   'P 1'
_cell_length_a   6.06944473
_cell_length_b   6.06944473
_cell_length_c   6.06944458
_cell_angle_alpha   47.62835114
_cell_angle_beta   47.62835114
_cell_angle_gamma   47.62834333
_symmetry_Int_Tables_number   1
_chemical_formula_structural   YbBO3
_chemical_formula_sum   'Yb2 B2 O6'
_cell_volume   111.70840703
_cell_formula_units_Z   2
loop_
 _symmetry_equiv_pos_site_id
 _symmetry_equiv_pos_as_xyz
  1  'x, y, z'
loop_
 _atom_site_type_symbol
 _atom_site_label
 _atom_site_symmetry_multiplicity
 _atom_site_fract_x
 _atom_site_fract_y
 _atom_site_fract_z
 _atom_site_occupancy
  Yb  Yb0  1  0.00000000  0.00000000  0.00000000  1
  Yb  Yb1  1  0.50000000  0.50000000  0.50000000  1
  B  B0  1  0.25000000  0.25000000  0.25000000  1
  B  B1  1  0.75000000  0.75000000  0.75000000  1
  O  O0  1  0.25000000  0.53151304  0.96848696  1
  O  O1  1  0.46848696  0.03151304  0.75000000  1
  O  O2  1  0.03151304  0.75000000  0.46848696  1
  O  O3  1  0.75000000  0.46848696  0.03151304  1
  O  O4  1  0.53151304  0.96848696  0.25000000  1
  O  O5  1  0.96848696  0.25000000  0.53151304  1
loop_
_geom_bond_atom_site_label_1
_geom_bond_atom_site_label_2
_geom_bond_distance
_geom_bond_site_symmetry_2
B0 O4 1.379791 1_545
B0 O5 1.379791 1_455
B0 O0 1.379791 1_554
B1 O1 1.379791 1_565
B1 O3 1.379791 1_556
B1 O2 1.379791 1_655
O0 Yb0 2.224997 1_566
O0 Yb1 2.224997 1_555
O1 Yb0 2.224997 1_556
O1 Yb1 2.224997 1_555
O2 Yb1 2.224997 1_555
O2 Yb0 2.224997 1_565
O3 Yb0 2.224997 1_655
O3 Yb1 2.224997 1_555
O4 Yb1 2.224997 1_555
O4 Yb0 2.224997 1_665
O5 Yb1 2.224997 1_555
O5 Yb0 2.224997 1_656
