# generated using pymatgen
data_Ni18Bi3AsS16
_symmetry_space_group_name_H-M   'P 1'
_cell_length_a   9.05732902
_cell_length_b   9.05732902
_cell_length_c   9.05732902
_cell_angle_alpha   110.91960861
_cell_angle_beta   110.91960861
_cell_angle_gamma   106.61173314
_symmetry_Int_Tables_number   1
_chemical_formula_structural   Ni18Bi3AsS16
_chemical_formula_sum   'Ni18 Bi3 As1 S16'
_cell_volume   570.91523186
_cell_formula_units_Z   1
loop_
 _symmetry_equiv_pos_site_id
 _symmetry_equiv_pos_as_xyz
  1  'x, y, z'
loop_
 _atom_site_type_symbol
 _atom_site_label
 _atom_site_symmetry_multiplicity
 _atom_site_fract_x
 _atom_site_fract_y
 _atom_site_fract_z
 _atom_site_occupancy
  Ni  Ni0  1  0.23562500  0.23562500  0.71375000  1
  Ni  Ni1  1  0.23562500  0.52187500  0.00000000  1
  Ni  Ni2  1  0.00000000  0.50000000  0.50000000  1
  Ni  Ni3  1  0.29772600  0.95469000  0.00000000  1
  Ni  Ni4  1  0.04531000  0.70227400  0.00000000  1
  Ni  Ni5  1  0.04531000  0.04531000  0.34303600  1
  Ni  Ni6  1  0.47812500  0.76437500  0.00000000  1
  Ni  Ni7  1  0.95469000  0.95469000  0.65696400  1
  Ni  Ni8  1  0.47812500  0.47812500  0.71375000  1
  Ni  Ni9  1  0.29772600  0.29772600  0.34303600  1
  Ni  Ni10  1  0.95469000  0.29772600  0.00000000  1
  Ni  Ni11  1  0.52187500  0.52187500  0.28625000  1
  Ni  Ni12  1  0.76437500  0.76437500  0.28625000  1
  Ni  Ni13  1  0.52187500  0.23562500  0.00000000  1
  Ni  Ni14  1  0.70227400  0.70227400  0.65696400  1
  Ni  Ni15  1  0.50000000  0.00000000  0.50000000  1
  Ni  Ni16  1  0.76437500  0.47812500  0.00000000  1
  Ni  Ni17  1  0.70227400  0.04531000  0.00000000  1
  Bi  Bi0  1  0.75000000  0.25000000  0.50000000  1
  Bi  Bi1  1  0.25000000  0.75000000  0.50000000  1
  Bi  Bi2  1  0.00000000  0.00000000  0.00000000  1
  As  As0  1  0.50000000  0.50000000  0.00000000  1
  S  S0  1  0.75947600  0.53218800  0.77271200  1
  S  S1  1  0.46781200  0.24052400  0.22728800  1
  S  S2  1  0.16350400  0.34765300  0.51115600  1
  S  S3  1  0.83649600  0.65234700  0.48884400  1
  S  S4  1  0.34765300  0.83649600  0.18414900  1
  S  S5  1  0.83649600  0.34765300  0.18414900  1
  S  S6  1  0.65234700  0.83649600  0.48884400  1
  S  S7  1  0.16350400  0.65234700  0.81585100  1
  S  S8  1  0.24052400  0.01323600  0.77271200  1
  S  S9  1  0.34765300  0.16350400  0.51115600  1
  S  S10  1  0.01323600  0.24052400  0.77271200  1
  S  S11  1  0.24052400  0.46781200  0.22728800  1
  S  S12  1  0.65234700  0.16350400  0.81585100  1
  S  S13  1  0.98676400  0.75947600  0.22728800  1
  S  S14  1  0.75947600  0.98676400  0.22728800  1
  S  S15  1  0.53218800  0.75947600  0.77271200  1
loop_
_geom_bond_atom_site_label_1
_geom_bond_atom_site_label_2
_geom_bond_distance
_geom_bond_site_symmetry_2
Ni0 S8 2.268637 1_555
Ni0 S10 2.268637 1_555
Ni0 S2 2.382426 1_555
Ni0 S9 2.382426 1_555
Ni1 S11 2.268637 1_555
Ni1 S10 2.268637 1_554
Ni1 S4 2.382419 1_555
Ni1 S7 2.382419 1_554
Ni2 S2 2.295298 1_555
Ni2 S3 2.295298 1_455
Ni2 S7 2.295299 1_555
Ni2 S5 2.295299 1_455
Ni3 S1 2.227670 1_565
Ni3 S8 2.227670 1_564
Ni3 S4 2.268401 1_555
Ni3 S7 2.268401 1_554
Ni4 S13 2.227670 1_455
Ni4 S0 2.227670 1_454
Ni4 S7 2.268401 1_554
Ni4 S4 2.268401 1_555
Ni5 S13 2.227670 1_445
Ni5 S14 2.227670 1_445
Ni5 S2 2.268400 1_555
Ni5 S9 2.268400 1_555
Ni6 S14 2.268637 1_555
Ni6 S15 2.268637 1_554
Ni6 S4 2.382419 1_555
Ni6 S7 2.382419 1_554
Ni7 S8 2.227670 1_665
Ni7 S10 2.227670 1_665
Ni7 S6 2.268400 1_555
Ni7 S3 2.268400 1_555
Ni8 S15 2.268637 1_555
Ni8 S0 2.268637 1_555
Ni8 S9 2.382420 1_555
Ni8 S2 2.382420 1_555
Ni9 S1 2.227670 1_555
Ni9 S11 2.227670 1_555
Ni9 S9 2.268393 1_555
Ni9 S2 2.268393 1_555
Ni10 S11 2.227670 1_655
Ni10 S10 2.227670 1_654
Ni10 S5 2.268401 1_555
Ni10 S12 2.268401 1_554
Ni11 S1 2.268637 1_555
Ni11 S11 2.268637 1_555
Ni11 S3 2.382420 1_555
Ni11 S6 2.382420 1_555
Ni12 S13 2.268637 1_555
Ni12 S14 2.268637 1_555
Ni12 S3 2.382426 1_555
Ni12 S6 2.382426 1_555
Ni13 S1 2.268637 1_555
Ni13 S8 2.268637 1_554
Ni13 S5 2.382419 1_555
Ni13 S12 2.382419 1_554
Ni14 S15 2.227670 1_555
Ni14 S0 2.227670 1_555
Ni14 S6 2.268393 1_555
Ni14 S3 2.268393 1_555
Ni15 S9 2.295298 1_555
Ni15 S6 2.295298 1_545
Ni15 S12 2.295299 1_555
Ni15 S4 2.295299 1_545
Ni16 S13 2.268637 1_555
Ni16 S0 2.268637 1_554
Ni16 S5 2.382419 1_555
Ni16 S12 2.382419 1_554
Ni17 S14 2.227670 1_545
Ni17 S15 2.227670 1_544
Ni17 S12 2.268401 1_554
Ni17 S5 2.268401 1_555
Bi0 Ni15 2.706072 1_555
Bi0 Ni2 2.706072 1_655
Bi0 S14 2.802828 1_545
Bi0 S1 2.802828 1_555
Bi0 S10 2.802828 1_655
Bi0 S0 2.802828 1_555
Bi1 Ni15 2.706072 1_565
Bi1 Ni2 2.706072 1_555
Bi1 S13 2.802828 1_455
Bi1 S8 2.802828 1_565
Bi1 S11 2.802828 1_555
Bi1 S15 2.802828 1_555
Bi2 Ni3 2.841273 1_545
Bi2 Ni7 2.841273 1_444
Bi2 Ni14 2.841273 1_444
Bi2 Ni5 2.841273 1_555
Bi2 Ni10 2.841273 1_455
Bi2 Ni9 2.841273 1_555
Bi2 Ni17 2.841273 1_455
Bi2 Ni4 2.841273 1_545
As0 Ni8 2.458515 1_554
As0 Ni16 2.458515 1_555
As0 Ni6 2.458515 1_555
As0 Ni12 2.458515 1_555
As0 Ni0 2.458515 1_554
As0 Ni1 2.458515 1_555
As0 Ni13 2.458515 1_555
As0 Ni11 2.458515 1_555
