# generated using pymatgen
data_Sr5Cd3
_symmetry_space_group_name_H-M   'P 1'
_cell_length_a   8.77162267
_cell_length_b   8.77162155
_cell_length_c   10.28697459
_cell_angle_alpha   115.23589381
_cell_angle_beta   115.23589577
_cell_angle_gamma   89.99999929
_symmetry_Int_Tables_number   1
_chemical_formula_structural   Sr5Cd3
_chemical_formula_sum   'Sr10 Cd6'
_cell_volume   631.44044040
_cell_formula_units_Z   2
loop_
 _symmetry_equiv_pos_site_id
 _symmetry_equiv_pos_as_xyz
  1  'x, y, z'
loop_
 _atom_site_type_symbol
 _atom_site_label
 _atom_site_symmetry_multiplicity
 _atom_site_fract_x
 _atom_site_fract_y
 _atom_site_fract_z
 _atom_site_occupancy
  Sr  Sr0  1  -0.00000000  0.00000000  0.00000000  1
  Sr  Sr1  1  0.50000000  0.50000000  0.00000000  1
  Sr  Sr2  1  0.31593726  0.81593726  0.29355051  1
  Sr  Sr3  1  0.47761425  0.31593726  0.29355051  1
  Sr  Sr4  1  0.81593726  0.97761425  0.29355051  1
  Sr  Sr5  1  0.52238575  0.68406274  0.70644949  1
  Sr  Sr6  1  0.18406274  0.02238575  0.70644949  1
  Sr  Sr7  1  0.02238575  0.52238575  0.70644949  1
  Sr  Sr8  1  0.68406274  0.18406274  0.70644949  1
  Sr  Sr9  1  0.97761425  0.47761425  0.29355051  1
  Cd  Cd0  1  0.25000000  0.25000000  0.50000000  1
  Cd  Cd1  1  0.75000000  0.75000000  0.50000000  1
  Cd  Cd2  1  0.37870042  0.87870042  0.00000000  1
  Cd  Cd3  1  0.12129958  0.37870042  0.00000000  1
  Cd  Cd4  1  0.87870042  0.62129958  -0.00000000  1
  Cd  Cd5  1  0.62129958  0.12129958  -0.00000000  1
loop_
_geom_bond_atom_site_label_1
_geom_bond_atom_site_label_2
_geom_bond_distance
_geom_bond_site_symmetry_2
Sr0 Sr4 4.053025 1_445
Sr0 Sr6 4.053025 1_554
Sr0 Sr8 4.053028 1_454
Sr0 Sr2 4.053028 1_545
Sr0 Sr7 4.053031 1_544
Sr0 Sr9 4.053031 1_455
Sr0 Sr5 4.053035 1_444
Sr0 Sr3 4.053035 1_555
Sr1 Sr5 4.053025 1_554
Sr1 Sr3 4.053025 1_555
Sr1 Sr2 4.053028 1_555
Sr1 Sr8 4.053028 1_554
Sr1 Sr7 4.053031 1_554
Sr1 Sr9 4.053031 1_555
Sr1 Sr6 4.053034 1_554
Sr1 Sr4 4.053034 1_555
Sr2 Sr8 3.937609 1_565
Sr2 Sr9 4.196879 1_455
Sr2 Sr5 4.504370 1_555
Sr2 Sr6 4.504370 1_565
Sr3 Sr5 3.937615 1_555
Sr3 Sr4 4.196879 1_545
Sr3 Sr7 4.504359 1_655
Sr3 Sr8 4.504370 1_555
Sr4 Sr6 3.937615 1_665
Sr4 Sr7 4.504358 1_665
Sr4 Sr8 4.504370 1_565
Sr5 Sr6 4.196879 1_565
Sr5 Sr9 4.504359 1_455
Sr6 Sr9 4.504358 1_445
Sr7 Sr9 3.937621 1_455
Sr7 Sr8 4.196879 1_455
Cd0 Sr5 3.673395 1_555
Cd0 Sr4 3.673396 1_445
Cd0 Sr2 3.673399 1_545
Cd0 Sr8 3.673399 1_555
Cd0 Sr9 3.673402 1_455
Cd0 Sr7 3.673402 1_555
Cd0 Sr6 3.673406 1_555
Cd0 Sr3 3.673406 1_555
Cd1 Sr3 3.673395 1_555
Cd1 Sr6 3.673396 1_665
Cd1 Sr8 3.673399 1_565
Cd1 Sr2 3.673399 1_555
Cd1 Sr7 3.673402 1_655
Cd1 Sr9 3.673402 1_555
Cd1 Sr4 3.673406 1_555
Cd1 Sr5 3.673406 1_555
Cd2 Cd5 3.009430 1_565
Cd2 Sr1 3.488058 1_555
Cd2 Sr0 3.488059 1_565
Cd2 Sr6 3.531483 1_564
Cd2 Sr5 3.531483 1_554
Cd2 Sr3 3.531488 1_565
Cd2 Sr4 3.531489 1_555
Cd2 Sr2 3.544038 1_555
Cd2 Sr7 3.544047 1_554
Cd3 Cd4 3.009430 1_455
Cd3 Sr0 3.488058 1_555
Cd3 Sr1 3.488059 1_555
Cd3 Sr7 3.531482 1_554
Cd3 Sr9 3.531482 1_455
Cd3 Sr2 3.531490 1_555
Cd3 Sr8 3.531490 1_454
Cd3 Sr6 3.544043 1_554
Cd3 Sr3 3.544043 1_555
Cd4 Sr0 3.488058 1_665
Cd4 Sr1 3.488059 1_555
Cd4 Sr9 3.531482 1_555
Cd4 Sr7 3.531482 1_654
Cd4 Sr8 3.531490 1_554
Cd4 Sr2 3.531490 1_655
Cd4 Sr4 3.544043 1_555
Cd4 Sr5 3.544043 1_554
Cd5 Sr1 3.488058 1_555
Cd5 Sr0 3.488059 1_655
Cd5 Sr4 3.531483 1_545
Cd5 Sr3 3.531483 1_555
Cd5 Sr5 3.531488 1_544
Cd5 Sr6 3.531489 1_554
Cd5 Sr8 3.544038 1_554
Cd5 Sr9 3.544047 1_555
