# generated using pymatgen
data_Ca(B3O5)2
_symmetry_space_group_name_H-M   'P 1'
_cell_length_a   8.70819421
_cell_length_b   9.08622774
_cell_length_c   9.79759981
_cell_angle_alpha   63.32347836
_cell_angle_beta   90.00000000
_cell_angle_gamma   90.00000000
_symmetry_Int_Tables_number   1
_chemical_formula_structural   Ca(B3O5)2
_chemical_formula_sum   'Ca4 B24 O40'
_cell_volume   692.71233327
_cell_formula_units_Z   4
loop_
 _symmetry_equiv_pos_site_id
 _symmetry_equiv_pos_as_xyz
  1  'x, y, z'
loop_
 _atom_site_type_symbol
 _atom_site_label
 _atom_site_symmetry_multiplicity
 _atom_site_fract_x
 _atom_site_fract_y
 _atom_site_fract_z
 _atom_site_occupancy
  Ca  Ca0  1  0.11841104  0.96053066  0.77992425  1
  Ca  Ca1  1  0.38158896  0.46053066  0.77992425  1
  Ca  Ca2  1  0.88158896  0.03946934  0.22007575  1
  Ca  Ca3  1  0.61841104  0.53946934  0.22007575  1
  B  B0  1  0.26390666  0.12157114  0.08290569  1
  B  B1  1  0.76390666  0.37842886  0.91709431  1
  B  B2  1  0.22707084  0.56009965  0.50059251  1
  B  B3  1  0.02559170  0.26439201  0.91847017  1
  B  B4  1  0.11911174  0.78173848  0.55623324  1
  B  B5  1  0.44747439  0.24725805  0.32436773  1
  B  B6  1  0.96976547  0.56379475  0.78395214  1
  B  B7  1  0.72707084  0.93990035  0.49940749  1
  B  B8  1  0.52559170  0.23560799  0.08152983  1
  B  B9  1  0.27292916  0.06009965  0.50059251  1
  B  B10  1  0.23609334  0.62157114  0.08290569  1
  B  B11  1  0.97440830  0.73560799  0.08152983  1
  B  B12  1  0.94747439  0.25274195  0.67563227  1
  B  B13  1  0.73609334  0.87842886  0.91709431  1
  B  B14  1  0.88088826  0.21826152  0.44376676  1
  B  B15  1  0.55252561  0.75274195  0.67563227  1
  B  B16  1  0.46976547  0.93620525  0.21604786  1
  B  B17  1  0.61911174  0.71826152  0.44376676  1
  B  B18  1  0.47440830  0.76439201  0.91847017  1
  B  B19  1  0.38088826  0.28173848  0.55623324  1
  B  B20  1  0.03023453  0.43620525  0.21604786  1
  B  B21  1  0.77292916  0.43990035  0.49940749  1
  B  B22  1  0.53023453  0.06379475  0.78395214  1
  B  B23  1  0.05252561  0.74725805  0.32436773  1
  O  O0  1  0.96471171  0.80154564  0.19547098  1
  O  O1  1  0.30920732  0.41984369  0.56836956  1
  O  O2  1  0.03528829  0.19845436  0.80452902  1
  O  O3  1  0.63376068  0.75042072  0.97523407  1
  O  O4  1  0.38877747  0.64986811  0.05273392  1
  O  O5  1  0.86274565  0.39584995  0.62739063  1
  O  O6  1  0.31702433  0.96459725  0.16905477  1
  O  O7  1  0.13376068  0.74957928  0.02476593  1
  O  O8  1  0.18297567  0.46459725  0.16905477  1
  O  O9  1  0.50663034  0.77958492  0.31788295  1
  O  O10  1  0.11122253  0.14986811  0.05273392  1
  O  O11  1  0.81702433  0.53540275  0.83094523  1
  O  O12  1  0.80920732  0.08015631  0.43163044  1
  O  O13  1  0.04713545  0.83691841  0.40476148  1
  O  O14  1  0.68297567  0.03540275  0.83094523  1
  O  O15  1  0.72934923  0.84672188  0.42226591  1
  O  O16  1  0.27065077  0.15327812  0.57773409  1
  O  O17  1  0.19079268  0.91984369  0.56836956  1
  O  O18  1  0.86623932  0.25042072  0.97523407  1
  O  O19  1  0.53528829  0.30154564  0.19547098  1
  O  O20  1  0.46471171  0.69845436  0.80452902  1
  O  O21  1  0.57676531  0.06284929  0.15353521  1
  O  O22  1  0.22934923  0.65327812  0.57773409  1
  O  O23  1  0.54713545  0.66308159  0.59523852  1
  O  O24  1  0.42323469  0.93715071  0.84646479  1
  O  O25  1  0.36623932  0.24957928  0.02476593  1
  O  O26  1  0.61122253  0.35013189  0.94726608  1
  O  O27  1  0.13725435  0.60415005  0.37260937  1
  O  O28  1  0.63725435  0.89584995  0.62739063  1
  O  O29  1  0.88877747  0.85013189  0.94726608  1
  O  O30  1  0.07676531  0.43715071  0.84646479  1
  O  O31  1  0.77065077  0.34672188  0.42226591  1
  O  O32  1  0.49336966  0.22041508  0.68211705  1
  O  O33  1  0.36274565  0.10415005  0.37260937  1
  O  O34  1  0.92323469  0.56284929  0.15353521  1
  O  O35  1  0.69079268  0.58015631  0.43163044  1
  O  O36  1  0.95286455  0.16308159  0.59523852  1
  O  O37  1  0.00663034  0.72041508  0.68211705  1
  O  O38  1  0.99336966  0.27958492  0.31788295  1
  O  O39  1  0.45286455  0.33691841  0.40476148  1
loop_
_geom_bond_atom_site_label_1
_geom_bond_atom_site_label_2
_geom_bond_distance
_geom_bond_site_symmetry_2
Ca0 O7 2.306025 1_556
Ca0 O17 2.349086 1_555
Ca0 O16 2.373580 1_565
Ca0 O2 2.392387 1_565
Ca0 O36 2.397790 1_465
Ca0 O29 2.493268 1_455
Ca0 O24 2.718818 1_555
Ca0 O37 2.916006 1_555
Ca1 O25 2.306025 1_556
Ca1 O1 2.349086 1_555
Ca1 O22 2.373580 1_555
Ca1 O20 2.392387 1_555
Ca1 O23 2.397790 1_555
Ca1 O26 2.493268 1_555
Ca1 O30 2.718818 1_555
Ca1 O32 2.916006 1_555
Ca2 O18 2.306025 1_554
Ca2 O12 2.349086 1_555
Ca2 O15 2.373580 1_545
Ca2 O0 2.392387 1_545
Ca2 O13 2.397790 1_645
Ca2 O10 2.493268 1_655
Ca2 O21 2.718818 1_555
Ca2 O38 2.916006 1_555
Ca3 O3 2.306025 1_554
Ca3 O35 2.349086 1_555
Ca3 O31 2.373580 1_555
Ca3 O19 2.392387 1_555
Ca3 O39 2.397790 1_555
Ca3 O4 2.493268 1_555
Ca3 O34 2.718818 1_555
Ca3 O9 2.916006 1_555
B0 O10 1.361283 1_555
B0 O25 1.369862 1_555
B0 O6 1.371042 1_545
B1 O26 1.361283 1_555
B1 O18 1.369862 1_555
B1 O11 1.371042 1_555
B2 O1 1.347881 1_555
B2 O22 1.364916 1_555
B2 O27 1.376093 1_555
B3 O10 1.462948 1_556
B3 O30 1.471725 1_555
B3 O18 1.479073 1_455
B3 O2 1.487570 1_555
B4 O22 1.451737 1_555
B4 O17 1.453416 1_555
B4 O37 1.474456 1_555
B4 O13 1.475995 1_555
B5 O39 1.364732 1_555
B5 O19 1.365139 1_555
B5 O33 1.380856 1_555
B6 O37 1.359710 1_655
B6 O30 1.390917 1_655
B6 O11 1.393216 1_555
B7 O12 1.347881 1_565
B7 O15 1.364916 1_555
B7 O28 1.376093 1_555
B8 O26 1.462948 1_554
B8 O21 1.471725 1_555
B8 O25 1.479073 1_555
B8 O19 1.487570 1_555
B9 O17 1.347881 1_545
B9 O16 1.364916 1_555
B9 O33 1.376093 1_555
B10 O4 1.361283 1_555
B10 O7 1.369862 1_555
B10 O8 1.371042 1_555
B11 O29 1.462948 1_554
B11 O34 1.471725 1_555
B11 O7 1.479073 1_655
B11 O0 1.487570 1_555
B12 O36 1.364732 1_555
B12 O2 1.365139 1_655
B12 O5 1.380856 1_555
B13 O29 1.361283 1_555
B13 O3 1.369862 1_555
B13 O14 1.371042 1_565
B14 O31 1.451737 1_555
B14 O12 1.453416 1_555
B14 O38 1.474456 1_555
B14 O36 1.475995 1_555
B15 O23 1.364732 1_555
B15 O20 1.365139 1_555
B15 O28 1.380856 1_555
B16 O9 1.359710 1_555
B16 O21 1.390917 1_565
B16 O6 1.393216 1_555
B17 O15 1.451737 1_555
B17 O35 1.453416 1_555
B17 O9 1.474456 1_555
B17 O23 1.475995 1_555
B18 O4 1.462948 1_556
B18 O24 1.471725 1_555
B18 O3 1.479073 1_555
B18 O20 1.487570 1_555
B19 O16 1.451737 1_555
B19 O1 1.453416 1_555
B19 O32 1.474456 1_555
B19 O39 1.475995 1_555
B20 O38 1.359710 1_455
B20 O34 1.390917 1_455
B20 O8 1.393216 1_555
B21 O35 1.347881 1_555
B21 O31 1.364916 1_555
B21 O5 1.376093 1_555
B22 O32 1.359710 1_555
B22 O24 1.390917 1_545
B22 O14 1.393216 1_555
B23 O13 1.364732 1_555
B23 O0 1.365139 1_455
B23 O27 1.380856 1_555
