# generated using pymatgen
data_CdI2
_symmetry_space_group_name_H-M   'P 1'
_cell_length_a   4.28384937
_cell_length_b   4.28384971
_cell_length_c   71.33146418
_cell_angle_alpha   90.00000000
_cell_angle_beta   90.00000000
_cell_angle_gamma   119.99999745
_symmetry_Int_Tables_number   1
_chemical_formula_structural   CdI2
_chemical_formula_sum   'Cd10 I20'
_cell_volume   1133.65315025
_cell_formula_units_Z   10
loop_
 _symmetry_equiv_pos_site_id
 _symmetry_equiv_pos_as_xyz
  1  'x, y, z'
loop_
 _atom_site_type_symbol
 _atom_site_label
 _atom_site_symmetry_multiplicity
 _atom_site_fract_x
 _atom_site_fract_y
 _atom_site_fract_z
 _atom_site_occupancy
  Cd  Cd0  1  0.00000000  -0.00000000  0.92511130  1
  Cd  Cd1  1  0.00000000  0.00000000  0.72493378  1
  Cd  Cd2  1  0.00000000  0.00000000  0.42492262  1
  Cd  Cd3  1  0.66666700  0.33333300  0.02492268  1
  Cd  Cd4  1  0.00000000  0.00000000  0.22464803  1
  Cd  Cd5  1  -0.00000000  -0.00000000  0.32539265  1
  Cd  Cd6  1  0.00000000  -0.00000000  0.52493289  1
  Cd  Cd7  1  -0.00000000  -0.00000000  0.12458180  1
  Cd  Cd8  1  0.00000000  0.00000000  0.82492795  1
  Cd  Cd9  1  0.00000000  -0.00000000  0.62570974  1
  I  I0  1  0.33333300  0.66666700  0.44911498  1
  I  I1  1  0.33333300  0.66666700  0.34960684  1
  I  I2  1  0.66666700  0.33333300  0.10048753  1
  I  I3  1  0.66666700  0.33333300  0.90098268  1
  I  I4  1  0.33333300  0.66666700  0.94917731  1
  I  I5  1  0.66666700  0.33333300  0.70070903  1
  I  I6  1  0.66666700  0.33333300  0.80070781  1
  I  I7  1  0.33333300  0.66666700  0.04910936  1
  I  I8  1  0.66666700  0.33333300  0.60161309  1
  I  I9  1  0.00000000  0.00000000  0.00070914  1
  I  I10  1  0.33333300  0.66666700  0.54911420  1
  I  I11  1  0.66666700  0.33333300  0.30118627  1
  I  I12  1  0.33333300  0.66666700  0.14864996  1
  I  I13  1  0.66666700  0.33333300  0.40070994  1
  I  I14  1  0.33333300  0.66666700  0.24872740  1
  I  I15  1  0.66666700  0.33333300  0.50070546  1
  I  I16  1  0.33333300  0.66666700  0.84911347  1
  I  I17  1  0.33333300  0.66666700  0.64981673  1
  I  I18  1  0.66666700  0.33333300  0.20056454  1
  I  I19  1  0.33333300  0.66666700  0.74911283  1
loop_
_geom_bond_atom_site_label_1
_geom_bond_atom_site_label_2
_geom_bond_distance
_geom_bond_site_symmetry_2
Cd0 I4 3.010655 1_545
Cd0 I4 3.010658 1_445
Cd0 I4 3.010658 1_555
Cd0 I3 3.013204 1_455
Cd0 I3 3.013207 1_555
Cd0 I3 3.013207 1_445
Cd1 I19 3.015260 1_545
Cd1 I19 3.015263 1_445
Cd1 I19 3.015263 1_555
Cd1 I5 3.017126 1_455
Cd1 I5 3.017129 1_555
Cd1 I5 3.017129 1_445
Cd2 I0 3.015803 1_545
Cd2 I0 3.015806 1_445
Cd2 I0 3.015806 1_555
Cd2 I13 3.016633 1_455
Cd2 I13 3.016636 1_555
Cd2 I13 3.016636 1_445
Cd3 I7 3.015571 1_655
Cd3 I7 3.015572 1_545
Cd3 I7 3.015577 1_555
Cd3 I9 3.016668 1_655
Cd3 I9 3.016671 1_555
Cd3 I9 3.016671 1_665
Cd4 I14 3.011199 1_545
Cd4 I14 3.011202 1_445
Cd4 I14 3.011202 1_555
Cd4 I18 3.011366 1_455
Cd4 I18 3.011369 1_555
Cd4 I18 3.011369 1_445
Cd5 I11 3.016376 1_455
Cd5 I11 3.016379 1_555
Cd5 I11 3.016379 1_445
Cd5 I1 3.016695 1_545
Cd5 I1 3.016698 1_445
Cd5 I1 3.016698 1_555
Cd6 I10 3.015352 1_545
Cd6 I10 3.015355 1_445
Cd6 I10 3.015355 1_555
Cd6 I15 3.017235 1_455
Cd6 I15 3.017238 1_555
Cd6 I15 3.017239 1_445
Cd7 I12 3.010743 1_545
Cd7 I12 3.010746 1_445
Cd7 I12 3.010746 1_555
Cd7 I2 3.011805 1_455
Cd7 I2 3.011808 1_555
Cd7 I2 3.011808 1_445
Cd8 I16 3.015524 1_545
Cd8 I16 3.015527 1_445
Cd8 I16 3.015527 1_555
Cd8 I6 3.016938 1_455
Cd8 I6 3.016941 1_555
Cd8 I6 3.016941 1_445
Cd9 I8 3.011902 1_455
Cd9 I8 3.011905 1_555
Cd9 I8 3.011905 1_445
Cd9 I17 3.012323 1_545
Cd9 I17 3.012326 1_445
Cd9 I17 3.012326 1_555
