# generated using pymatgen
data_TaTl2AgS4
_symmetry_space_group_name_H-M   'P 1'
_cell_length_a   10.62039000
_cell_length_b   8.12681800
_cell_length_c   13.00487454
_cell_angle_alpha   52.33039318
_cell_angle_beta   90.00000000
_cell_angle_gamma   90.00000000
_symmetry_Int_Tables_number   1
_chemical_formula_structural   TaTl2AgS4
_chemical_formula_sum   'Ta4 Tl8 Ag4 S16'
_cell_volume   888.47317312
_cell_formula_units_Z   4
loop_
 _symmetry_equiv_pos_site_id
 _symmetry_equiv_pos_as_xyz
  1  'x, y, z'
loop_
 _atom_site_type_symbol
 _atom_site_label
 _atom_site_symmetry_multiplicity
 _atom_site_fract_x
 _atom_site_fract_y
 _atom_site_fract_z
 _atom_site_occupancy
  Ta  Ta0  1  0.27430800  0.92357700  0.45344800  1
  Ta  Ta1  1  0.77430800  0.07642300  0.04655200  1
  Ta  Ta2  1  0.22569200  0.92357700  0.95344800  1
  Ta  Ta3  1  0.72569200  0.07642300  0.54655200  1
  Tl  Tl0  1  0.22908200  0.39658000  0.49737300  1
  Tl  Tl1  1  0.00526900  0.66053600  0.72554300  1
  Tl  Tl2  1  0.99473100  0.33946400  0.27445700  1
  Tl  Tl3  1  0.77091800  0.60342000  0.50262700  1
  Tl  Tl4  1  0.49473100  0.66053600  0.22554300  1
  Tl  Tl5  1  0.50526900  0.33946400  0.77445700  1
  Tl  Tl6  1  0.27091800  0.39658000  0.99737300  1
  Tl  Tl7  1  0.72908200  0.60342000  0.00262700  1
  Ag  Ag0  1  0.51213700  0.08896600  0.28802200  1
  Ag  Ag1  1  0.48786300  0.91103400  0.71197800  1
  Ag  Ag2  1  0.01213700  0.91103400  0.21197800  1
  Ag  Ag3  1  0.98786300  0.08896600  0.78802200  1
  S  S0  1  0.23466700  0.88005900  0.14419900  1
  S  S1  1  0.08142500  0.81395700  0.43505800  1
  S  S2  1  0.73466700  0.11994100  0.35580100  1
  S  S3  1  0.68958500  0.72931100  0.71457000  1
  S  S4  1  0.58142500  0.18604300  0.06494200  1
  S  S5  1  0.07077300  0.71537400  0.96589700  1
  S  S6  1  0.57077300  0.28462600  0.53410300  1
  S  S7  1  0.76533300  0.11994100  0.85580100  1
  S  S8  1  0.41857500  0.81395700  0.93505800  1
  S  S9  1  0.81041500  0.72931100  0.21457000  1
  S  S10  1  0.18958500  0.27068900  0.78543000  1
  S  S11  1  0.91857500  0.18604300  0.56494200  1
  S  S12  1  0.31041500  0.27068900  0.28543000  1
  S  S13  1  0.26533300  0.88005900  0.64419900  1
  S  S14  1  0.92922700  0.28462600  0.03410300  1
  S  S15  1  0.42922700  0.71537400  0.46589700  1
loop_
_geom_bond_atom_site_label_1
_geom_bond_atom_site_label_2
_geom_bond_distance
_geom_bond_site_symmetry_2
Ag0 S2 2.587852 1_555
Ag0 S12 2.590570 1_555
Ag0 S15 2.600093 1_545
Ag0 S4 2.604432 1_555
Ag1 S13 2.587852 1_555
Ag1 S3 2.590570 1_555
Ag1 S6 2.600093 1_565
Ag1 S8 2.604432 1_555
Ag2 S0 2.587852 1_555
Ag2 S9 2.590570 1_455
Ag2 S14 2.600093 1_465
Ag2 S1 2.604432 1_555
Ag3 S7 2.587852 1_555
Ag3 S10 2.590570 1_655
Ag3 S5 2.600093 1_645
Ag3 S11 2.604432 1_555
S0 Ta2 2.283794 1_554
S0 Tl4 3.102213 1_555
S1 Ta0 2.303814 1_555
S2 Ta3 2.283794 1_555
S2 Tl2 3.102213 1_555
S3 Ta3 2.312039 1_565
S3 Tl7 3.251454 1_556
S4 Ta1 2.303814 1_555
S5 Ta2 2.293769 1_555
S5 Tl6 3.178330 1_555
S6 Ta3 2.293769 1_555
S6 Tl3 3.178330 1_555
S7 Ta1 2.283794 1_556
S7 Tl5 3.102213 1_555
S8 Ta2 2.303814 1_555
S9 Ta1 2.312039 1_565
S9 Tl3 3.251454 1_555
S10 Ta2 2.312039 1_545
S10 Tl0 3.251454 1_555
S11 Ta3 2.303814 1_555
S12 Ta0 2.312039 1_545
S12 Tl6 3.251454 1_554
S13 Ta0 2.283794 1_555
S13 Tl1 3.102213 1_555
S14 Ta1 2.293769 1_555
S14 Tl7 3.178330 1_555
S15 Ta0 2.293769 1_555
S15 Tl0 3.178330 1_555
