# generated using pymatgen
data_LiTl3(MoO4)2
_symmetry_space_group_name_H-M   'P 1'
_cell_length_a   6.14308417
_cell_length_b   6.14308417
_cell_length_c   16.19244900
_cell_angle_alpha   90.00000000
_cell_angle_beta   90.00000000
_cell_angle_gamma   120.00000185
_symmetry_Int_Tables_number   1
_chemical_formula_structural   LiTl3(MoO4)2
_chemical_formula_sum   'Li2 Tl6 Mo4 O16'
_cell_volume   529.19544026
_cell_formula_units_Z   2
loop_
 _symmetry_equiv_pos_site_id
 _symmetry_equiv_pos_as_xyz
  1  'x, y, z'
loop_
 _atom_site_type_symbol
 _atom_site_label
 _atom_site_symmetry_multiplicity
 _atom_site_fract_x
 _atom_site_fract_y
 _atom_site_fract_z
 _atom_site_occupancy
  Li  Li0  1  0.66666700  0.33333300  0.39717100  1
  Li  Li1  1  0.33333300  0.66666700  0.89717100  1
  Tl  Tl0  1  0.66666700  0.33333300  0.59984800  1
  Tl  Tl1  1  0.33333300  0.66666700  0.09984800  1
  Tl  Tl2  1  0.00000000  0.00000000  0.00107400  1
  Tl  Tl3  1  0.00000000  0.00000000  0.25379800  1
  Tl  Tl4  1  0.00000000  0.00000000  0.75379800  1
  Tl  Tl5  1  0.00000000  0.00000000  0.50107400  1
  Mo  Mo0  1  0.33333300  0.66666700  0.39958700  1
  Mo  Mo1  1  0.33333300  0.66666700  0.67056600  1
  Mo  Mo2  1  0.66666700  0.33333300  0.17056600  1
  Mo  Mo3  1  0.66666700  0.33333300  0.89958700  1
  O  O0  1  0.98567900  0.49284000  0.93841700  1
  O  O1  1  0.82813700  0.17186300  0.13506100  1
  O  O2  1  0.33333300  0.66666700  0.77949200  1
  O  O3  1  0.17186300  0.82813700  0.63506100  1
  O  O4  1  0.50716000  0.01432100  0.93841700  1
  O  O5  1  0.65627400  0.82813700  0.63506100  1
  O  O6  1  0.82813700  0.65627400  0.13506100  1
  O  O7  1  0.34372600  0.17186300  0.13506100  1
  O  O8  1  0.17186300  0.34372600  0.63506100  1
  O  O9  1  0.66666700  0.33333300  0.27949200  1
  O  O10  1  0.49284000  0.50716000  0.43841700  1
  O  O11  1  0.49284000  0.98567900  0.43841700  1
  O  O12  1  0.01432100  0.50716000  0.43841700  1
  O  O13  1  0.33333300  0.66666700  0.28933100  1
  O  O14  1  0.66666700  0.33333300  0.78933100  1
  O  O15  1  0.50716000  0.49284000  0.93841700  1
loop_
_geom_bond_atom_site_label_1
_geom_bond_atom_site_label_2
_geom_bond_distance
_geom_bond_site_symmetry_2
Li0 O9 1.905511 1_555
Li0 O12 1.966434 1_655
Li0 O11 1.966434 1_545
Li0 O10 1.966434 1_555
Li1 O2 1.905511 1_555
Li1 O4 1.966434 1_565
Li1 O0 1.966434 1_455
Li1 O15 1.966434 1_555
Mo0 O13 1.785315 1_555
Mo0 O11 1.809889 1_555
Mo0 O12 1.809889 1_555
Mo0 O10 1.809899 1_555
Mo1 O2 1.763779 1_555
Mo1 O3 1.811702 1_555
Mo1 O8 1.811707 1_555
Mo1 O5 1.811707 1_555
Mo2 O9 1.763779 1_555
Mo2 O1 1.811702 1_555
Mo2 O6 1.811707 1_555
Mo2 O7 1.811707 1_555
Mo3 O14 1.785315 1_555
Mo3 O0 1.809889 1_555
Mo3 O4 1.809889 1_555
Mo3 O15 1.809899 1_555
O1 Tl3 2.653394 1_655
O1 Tl2 2.837430 1_655
O3 Tl4 2.653394 1_565
O3 Tl5 2.837430 1_565
O5 Tl4 2.653394 1_665
O5 Tl5 2.837430 1_665
O6 Tl3 2.653394 1_665
O6 Tl2 2.837430 1_665
O7 Tl3 2.653394 1_555
O7 Tl2 2.837430 1_555
O8 Tl4 2.653394 1_555
O8 Tl5 2.837430 1_555
