# generated using pymatgen
data_CdI2
_symmetry_space_group_name_H-M   'P 1'
_cell_length_a   4.33397573
_cell_length_b   4.33397573
_cell_length_c   120.71096700
_cell_angle_alpha   90.00000000
_cell_angle_beta   90.00000000
_cell_angle_gamma   119.99999583
_symmetry_Int_Tables_number   1
_chemical_formula_structural   CdI2
_chemical_formula_sum   'Cd16 I32'
_cell_volume   1963.58781424
_cell_formula_units_Z   16
loop_
 _symmetry_equiv_pos_site_id
 _symmetry_equiv_pos_as_xyz
  1  'x, y, z'
loop_
 _atom_site_type_symbol
 _atom_site_label
 _atom_site_symmetry_multiplicity
 _atom_site_fract_x
 _atom_site_fract_y
 _atom_site_fract_z
 _atom_site_occupancy
  Cd  Cd0  1  0.33333300  0.66666700  0.51565600  1
  Cd  Cd1  1  0.66666700  0.33333300  0.89065000  1
  Cd  Cd2  1  0.00000000  0.00000000  0.82812600  1
  Cd  Cd3  1  0.00000000  0.00000000  0.45313700  1
  Cd  Cd4  1  0.33333300  0.66666700  0.64060500  1
  Cd  Cd5  1  0.33333300  0.66666700  0.14062400  1
  Cd  Cd6  1  0.00000000  0.00000000  0.20313000  1
  Cd  Cd7  1  0.00000000  0.00000000  0.95307300  1
  Cd  Cd8  1  0.33333300  0.66666700  0.01564900  1
  Cd  Cd9  1  0.00000000  0.00000000  0.76563400  1
  Cd  Cd10  1  0.00000000  0.00000000  0.57812900  1
  Cd  Cd11  1  0.00000000  0.00000000  0.07812900  1
  Cd  Cd12  1  0.33333300  0.66666700  0.39062800  1
  Cd  Cd13  1  0.33333300  0.66666700  0.26561000  1
  Cd  Cd14  1  0.00000000  0.00000000  0.32812600  1
  Cd  Cd15  1  0.66666700  0.33333300  0.70317100  1
  I  I0  1  0.66666700  0.33333300  0.96734800  1
  I  I1  1  0.66666700  0.33333300  0.65488800  1
  I  I2  1  0.00000000  0.00000000  0.90494600  1
  I  I3  1  0.66666700  0.33333300  0.77991800  1
  I  I4  1  0.33333300  0.66666700  0.75135100  1
  I  I5  1  0.00000000  0.00000000  0.62630100  1
  I  I6  1  0.33333300  0.66666700  0.56385200  1
  I  I7  1  0.00000000  0.00000000  0.25131500  1
  I  I8  1  0.33333300  0.66666700  0.81384400  1
  I  I9  1  0.33333300  0.66666700  0.06385200  1
  I  I10  1  0.66666700  0.33333300  0.46742300  1
  I  I11  1  0.66666700  0.33333300  0.21741300  1
  I  I12  1  0.33333300  0.66666700  0.43885400  1
  I  I13  1  0.00000000  0.00000000  0.71746500  1
  I  I14  1  0.66666700  0.33333300  0.34241000  1
  I  I15  1  0.33333300  0.66666700  0.18884600  1
  I  I16  1  0.00000000  0.00000000  0.12632300  1
  I  I17  1  0.66666700  0.33333300  0.40492200  1
  I  I18  1  0.66666700  0.33333300  0.15491000  1
  I  I19  1  0.66666700  0.33333300  0.09240800  1
  I  I20  1  0.66666700  0.33333300  0.27989400  1
  I  I21  1  0.66666700  0.33333300  0.02994000  1
  I  I22  1  0.33333300  0.66666700  0.87636400  1
  I  I23  1  0.33333300  0.66666700  0.31384400  1
  I  I24  1  0.33333300  0.66666700  0.93882000  1
  I  I25  1  0.00000000  0.00000000  0.50135100  1
  I  I26  1  0.66666700  0.33333300  0.84241000  1
  I  I27  1  0.66666700  0.33333300  0.59240900  1
  I  I28  1  0.00000000  0.00000000  0.00134300  1
  I  I29  1  0.33333300  0.66666700  0.68888700  1
  I  I30  1  0.00000000  0.00000000  0.37632800  1
  I  I31  1  0.66666700  0.33333300  0.52994700  1
loop_
_geom_bond_atom_site_label_1
_geom_bond_atom_site_label_2
_geom_bond_distance
_geom_bond_site_symmetry_2
Cd0 I31 3.039244 1_565
Cd0 I31 3.039244 1_455
Cd0 I31 3.039250 1_555
Cd0 I25 3.040204 1_565
Cd0 I25 3.040207 1_555
Cd0 I25 3.040207 1_665
Cd1 I22 3.038902 1_655
Cd1 I22 3.038902 1_545
Cd1 I22 3.038908 1_555
Cd1 I2 3.039587 1_655
Cd1 I2 3.039590 1_665
Cd1 I2 3.039590 1_555
Cd2 I8 3.038628 1_545
Cd2 I8 3.038631 1_555
Cd2 I8 3.038631 1_445
Cd2 I26 3.038765 1_455
Cd2 I26 3.038768 1_555
Cd2 I26 3.038768 1_445
Cd3 I12 3.038696 1_545
Cd3 I12 3.038699 1_555
Cd3 I12 3.038699 1_445
Cd3 I10 3.038902 1_455
Cd3 I10 3.038905 1_445
Cd3 I10 3.038905 1_555
Cd4 I1 3.038696 1_455
Cd4 I1 3.038696 1_565
Cd4 I1 3.038702 1_555
Cd4 I5 3.040135 1_565
Cd4 I5 3.040138 1_665
Cd4 I5 3.040138 1_555
Cd5 I18 3.038902 1_565
Cd5 I18 3.038902 1_455
Cd5 I18 3.038908 1_555
Cd5 I16 3.039929 1_565
Cd5 I16 3.039933 1_665
Cd5 I16 3.039933 1_555
Cd6 I11 3.038696 1_455
Cd6 I11 3.038699 1_445
Cd6 I11 3.038699 1_555
Cd6 I15 3.038765 1_545
Cd6 I15 3.038768 1_555
Cd6 I15 3.038768 1_445
Cd7 I24 3.036643 1_545
Cd7 I24 3.036646 1_445
Cd7 I24 3.036646 1_555
Cd7 I0 3.038148 1_455
Cd7 I0 3.038152 1_555
Cd7 I0 3.038152 1_445
Cd8 I21 3.039244 1_455
Cd8 I21 3.039244 1_565
Cd8 I21 3.039250 1_555
Cd8 I28 3.040272 1_565
Cd8 I28 3.040275 1_665
Cd8 I28 3.040275 1_555
Cd9 I4 3.038696 1_545
Cd9 I4 3.038699 1_555
Cd9 I4 3.038699 1_445
Cd9 I3 3.038765 1_455
Cd9 I3 3.038768 1_555
Cd9 I3 3.038768 1_445
Cd10 I6 3.038285 1_545
Cd10 I6 3.038288 1_555
Cd10 I6 3.038288 1_445
Cd10 I27 3.038491 1_455
Cd10 I27 3.038494 1_445
Cd10 I27 3.038494 1_555
Cd11 I9 3.038285 1_545
Cd11 I9 3.038288 1_445
Cd11 I9 3.038288 1_555
Cd11 I19 3.038422 1_455
Cd11 I19 3.038425 1_445
Cd11 I19 3.038425 1_555
Cd12 I17 3.039450 1_455
Cd12 I17 3.039450 1_565
Cd12 I17 3.039456 1_555
Cd12 I30 3.039861 1_565
Cd12 I30 3.039864 1_555
Cd12 I30 3.039864 1_665
Cd13 I20 3.038765 1_455
Cd13 I20 3.038765 1_565
Cd13 I20 3.038771 1_555
Cd13 I7 3.039518 1_565
Cd13 I7 3.039521 1_665
Cd13 I7 3.039521 1_555
Cd14 I23 3.038628 1_545
Cd14 I23 3.038631 1_445
Cd14 I23 3.038631 1_555
Cd14 I14 3.038765 1_455
Cd14 I14 3.038768 1_445
Cd14 I14 3.038768 1_555
Cd15 I29 3.038765 1_545
Cd15 I29 3.038765 1_655
Cd15 I29 3.038771 1_555
Cd15 I13 3.039450 1_655
Cd15 I13 3.039453 1_555
Cd15 I13 3.039453 1_665
