# generated using pymatgen
data_Ag5IO6
_symmetry_space_group_name_H-M   'P 1'
_cell_length_a   11.48298265
_cell_length_b   11.48298265
_cell_length_c   11.48298231
_cell_angle_alpha   30.39157326
_cell_angle_beta   30.39157326
_cell_angle_gamma   30.39157435
_symmetry_Int_Tables_number   1
_chemical_formula_structural   Ag5IO6
_chemical_formula_sum   'Ag10 I2 O12'
_cell_volume   343.46762528
_cell_formula_units_Z   2
loop_
 _symmetry_equiv_pos_site_id
 _symmetry_equiv_pos_as_xyz
  1  'x, y, z'
loop_
 _atom_site_type_symbol
 _atom_site_label
 _atom_site_symmetry_multiplicity
 _atom_site_fract_x
 _atom_site_fract_y
 _atom_site_fract_z
 _atom_site_occupancy
  Ag  Ag0  1  0.25000000  0.54526500  0.95473500  1
  Ag  Ag1  1  0.54526500  0.95473500  0.25000000  1
  Ag  Ag2  1  0.95473500  0.25000000  0.54526500  1
  Ag  Ag3  1  0.14989200  0.14989200  0.14989200  1
  Ag  Ag4  1  0.64989200  0.64989200  0.64989200  1
  Ag  Ag5  1  0.75000000  0.45473500  0.04526500  1
  Ag  Ag6  1  0.35010800  0.35010800  0.35010800  1
  Ag  Ag7  1  0.45473500  0.04526500  0.75000000  1
  Ag  Ag8  1  0.85010800  0.85010800  0.85010800  1
  Ag  Ag9  1  0.04526500  0.75000000  0.45473500  1
  I  I0  1  0.50000000  0.50000000  0.50000000  1
  I  I1  1  0.00000000  0.00000000  0.00000000  1
  O  O0  1  0.01643500  0.67994500  0.20258200  1
  O  O1  1  0.98356500  0.32005500  0.79741800  1
  O  O2  1  0.29741800  0.82005500  0.48356500  1
  O  O3  1  0.32005500  0.79741800  0.98356500  1
  O  O4  1  0.17994500  0.51643500  0.70258200  1
  O  O5  1  0.70258200  0.17994500  0.51643500  1
  O  O6  1  0.51643500  0.70258200  0.17994500  1
  O  O7  1  0.79741800  0.98356500  0.32005500  1
  O  O8  1  0.82005500  0.48356500  0.29741800  1
  O  O9  1  0.67994500  0.20258200  0.01643500  1
  O  O10  1  0.48356500  0.29741800  0.82005500  1
  O  O11  1  0.20258200  0.01643500  0.67994500  1
loop_
_geom_bond_atom_site_label_1
_geom_bond_atom_site_label_2
_geom_bond_distance
_geom_bond_site_symmetry_2
Ag0 O0 2.225749 1_556
Ag0 O10 2.225749 1_555
Ag1 O9 2.225749 1_565
Ag1 O2 2.225749 1_555
Ag2 O8 2.225749 1_555
Ag2 O11 2.225749 1_655
Ag3 O4 2.523610 1_554
Ag3 O5 2.523610 1_455
Ag3 O6 2.523610 1_545
Ag3 O2 2.643616 1_545
Ag3 O10 2.643616 1_554
Ag3 O8 2.643616 1_455
Ag4 O0 2.523610 1_655
Ag4 O9 2.523610 1_556
Ag4 O11 2.523610 1_565
Ag4 O3 2.643616 1_555
Ag4 O7 2.643616 1_555
Ag4 O1 2.643616 1_555
Ag5 O1 2.225749 1_554
Ag5 O6 2.225749 1_555
Ag6 O1 2.523610 1_455
Ag6 O3 2.523610 1_554
Ag6 O7 2.523610 1_545
Ag6 O9 2.643616 1_555
Ag6 O11 2.643616 1_555
Ag6 O0 2.643616 1_555
Ag7 O5 2.225749 1_555
Ag7 O3 2.225749 1_545
Ag8 O8 2.523610 1_556
Ag8 O2 2.523610 1_655
Ag8 O10 2.523610 1_565
Ag8 O5 2.643616 1_565
Ag8 O6 2.643616 1_556
Ag8 O4 2.643616 1_655
Ag9 O4 2.225749 1_555
Ag9 O7 2.225749 1_455
I0 O10 1.940526 1_555
I0 O6 1.940526 1_555
I0 O8 1.940527 1_555
I0 O4 1.940527 1_555
I0 O2 1.940527 1_555
I0 O5 1.940527 1_555
I1 O7 1.940526 1_445
I1 O11 1.940526 1_554
I1 O1 1.940527 1_454
I1 O0 1.940527 1_545
I1 O3 1.940527 1_544
I1 O9 1.940527 1_455
