# generated using pymatgen
data_Tm2Fe14B
_symmetry_space_group_name_H-M   'P 1'
_cell_length_a   8.70990200
_cell_length_b   8.70990200
_cell_length_c   11.81841400
_cell_angle_alpha   90.00000000
_cell_angle_beta   90.00000000
_cell_angle_gamma   90.00000000
_symmetry_Int_Tables_number   1
_chemical_formula_structural   Tm2Fe14B
_chemical_formula_sum   'Tm8 Fe56 B4'
_cell_volume   896.57316573
_cell_formula_units_Z   4
loop_
 _symmetry_equiv_pos_site_id
 _symmetry_equiv_pos_as_xyz
  1  'x, y, z'
loop_
 _atom_site_type_symbol
 _atom_site_label
 _atom_site_symmetry_multiplicity
 _atom_site_fract_x
 _atom_site_fract_y
 _atom_site_fract_z
 _atom_site_occupancy
  Tm  Tm0  1  0.85643600  0.14356400  0.00000000  1
  Tm  Tm1  1  0.35643600  0.35643600  0.50000000  1
  Tm  Tm2  1  0.64356400  0.64356400  0.50000000  1
  Tm  Tm3  1  0.14356400  0.85643600  0.00000000  1
  Tm  Tm4  1  0.73348100  0.73348100  0.00000000  1
  Tm  Tm5  1  0.76651900  0.23348100  0.50000000  1
  Tm  Tm6  1  0.23348100  0.76651900  0.50000000  1
  Tm  Tm7  1  0.26651900  0.26651900  0.00000000  1
  Fe  Fe0  1  0.35830800  0.03721300  0.17410400  1
  Fe  Fe1  1  0.64169200  0.96278700  0.17410400  1
  Fe  Fe2  1  0.03721300  0.35830800  0.82589600  1
  Fe  Fe3  1  0.53721300  0.14169200  0.67410400  1
  Fe  Fe4  1  0.46278700  0.85830800  0.67410400  1
  Fe  Fe5  1  0.14169200  0.53721300  0.32589600  1
  Fe  Fe6  1  0.85830800  0.46278700  0.32589600  1
  Fe  Fe7  1  0.96278700  0.64169200  0.82589600  1
  Fe  Fe8  1  0.64169200  0.96278700  0.82589600  1
  Fe  Fe9  1  0.35830800  0.03721300  0.82589600  1
  Fe  Fe10  1  0.96278700  0.64169200  0.17410400  1
  Fe  Fe11  1  0.46278700  0.85830800  0.32589600  1
  Fe  Fe12  1  0.53721300  0.14169200  0.32589600  1
  Fe  Fe13  1  0.85830800  0.46278700  0.67410400  1
  Fe  Fe14  1  0.14169200  0.53721300  0.67410400  1
  Fe  Fe15  1  0.03721300  0.35830800  0.17410400  1
  Fe  Fe16  1  0.56587800  0.22434500  0.12583000  1
  Fe  Fe17  1  0.43412200  0.77565500  0.12583000  1
  Fe  Fe18  1  0.22434500  0.56587800  0.87417000  1
  Fe  Fe19  1  0.72434500  0.93412200  0.62583000  1
  Fe  Fe20  1  0.27565500  0.06587800  0.62583000  1
  Fe  Fe21  1  0.93412200  0.72434500  0.37417000  1
  Fe  Fe22  1  0.06587800  0.27565500  0.37417000  1
  Fe  Fe23  1  0.77565500  0.43412200  0.87417000  1
  Fe  Fe24  1  0.43412200  0.77565500  0.87417000  1
  Fe  Fe25  1  0.56587800  0.22434500  0.87417000  1
  Fe  Fe26  1  0.77565500  0.43412200  0.12583000  1
  Fe  Fe27  1  0.27565500  0.06587800  0.37417000  1
  Fe  Fe28  1  0.72434500  0.93412200  0.37417000  1
  Fe  Fe29  1  0.06587800  0.27565500  0.62583000  1
  Fe  Fe30  1  0.93412200  0.72434500  0.62583000  1
  Fe  Fe31  1  0.22434500  0.56587800  0.12583000  1
  Fe  Fe32  1  0.68307200  0.68307200  0.75406200  1
  Fe  Fe33  1  0.31692800  0.31692800  0.75406200  1
  Fe  Fe34  1  0.68307200  0.68307200  0.24593800  1
  Fe  Fe35  1  0.18307200  0.81692800  0.25406200  1
  Fe  Fe36  1  0.81692800  0.18307200  0.25406200  1
  Fe  Fe37  1  0.81692800  0.18307200  0.74593800  1
  Fe  Fe38  1  0.18307200  0.81692800  0.74593800  1
  Fe  Fe39  1  0.31692800  0.31692800  0.24593800  1
  Fe  Fe40  1  0.90295500  0.90295500  0.80110300  1
  Fe  Fe41  1  0.09704500  0.09704500  0.80110300  1
  Fe  Fe42  1  0.90295500  0.90295500  0.19889700  1
  Fe  Fe43  1  0.40295500  0.59704500  0.30110300  1
  Fe  Fe44  1  0.59704500  0.40295500  0.30110300  1
  Fe  Fe45  1  0.59704500  0.40295500  0.69889700  1
  Fe  Fe46  1  0.40295500  0.59704500  0.69889700  1
  Fe  Fe47  1  0.09704500  0.09704500  0.19889700  1
  Fe  Fe48  1  0.00000000  0.00000000  0.38391600  1
  Fe  Fe49  1  0.50000000  0.50000000  0.88391600  1
  Fe  Fe50  1  0.50000000  0.50000000  0.11608400  1
  Fe  Fe51  1  0.00000000  0.00000000  0.61608400  1
  Fe  Fe52  1  0.50000000  0.00000000  0.00000000  1
  Fe  Fe53  1  0.50000000  0.00000000  0.50000000  1
  Fe  Fe54  1  0.00000000  0.50000000  0.50000000  1
  Fe  Fe55  1  0.00000000  0.50000000  0.00000000  1
  B  B0  1  0.62508200  0.37491800  0.00000000  1
  B  B1  1  0.12508200  0.12508200  0.50000000  1
  B  B2  1  0.87491800  0.87491800  0.50000000  1
  B  B3  1  0.37491800  0.62508200  0.00000000  1
loop_
_geom_bond_atom_site_label_1
_geom_bond_atom_site_label_2
_geom_bond_distance
_geom_bond_site_symmetry_2
Fe0 Fe47 2.352802 1_555
Fe0 Fe52 2.421150 1_555
Fe0 Fe17 2.439565 1_545
Fe0 Fe27 2.484205 1_555
Fe0 Fe16 2.500126 1_555
Fe0 Fe11 2.544495 1_545
Fe0 Fe12 2.544495 1_555
Fe0 Fe1 2.551953 1_545
Fe0 Fe39 2.605024 1_555
Fe0 Fe35 2.627508 1_545
Fe0 Tm7 2.976903 1_555
Fe0 Tm3 3.195537 1_545
Fe1 Fe42 2.352802 1_555
Fe1 Fe52 2.421150 1_565
Fe1 Fe16 2.439565 1_565
Fe1 Fe28 2.484205 1_555
Fe1 Fe17 2.500126 1_555
Fe1 Fe11 2.544495 1_555
Fe1 Fe12 2.544495 1_565
Fe1 Fe34 2.605024 1_555
Fe1 Fe36 2.627508 1_565
Fe1 Tm4 2.976903 1_555
Fe1 Tm0 3.195537 1_565
Fe2 Fe41 2.352802 1_555
Fe2 Fe55 2.421150 1_556
Fe2 Fe23 2.439565 1_455
Fe2 Fe29 2.484205 1_555
Fe2 Fe7 2.551953 1_455
Fe2 Fe33 2.605024 1_555
Fe2 Fe37 2.627508 1_455
Fe2 Tm7 2.976903 1_556
Fe2 Tm0 3.195537 1_456
Fe3 Fe45 2.352802 1_555
Fe3 Fe53 2.421150 1_555
Fe3 Fe8 2.544495 1_545
Fe3 Fe9 2.544495 1_555
Fe3 Fe4 2.551953 1_545
Fe3 Fe37 2.605024 1_555
Fe3 Fe33 2.627508 1_555
Fe3 Tm5 2.976903 1_555
Fe3 Tm1 3.195537 1_555
Fe4 Fe46 2.352802 1_555
Fe4 Fe53 2.421150 1_565
Fe4 Fe8 2.544495 1_555
Fe4 Fe9 2.544495 1_565
Fe4 Tm6 2.976903 1_555
Fe4 Tm2 3.195537 1_555
Fe5 Fe54 2.421150 1_555
Fe5 Fe6 2.551953 1_455
Fe5 Tm6 2.976903 1_555
Fe5 Tm1 3.195537 1_555
Fe6 Tm5 2.976903 1_555
Fe6 Tm2 3.195537 1_555
Fe7 Tm4 2.976903 1_556
Fe7 Tm3 3.195537 1_656
Fe8 Fe9 2.551953 1_565
Fe8 Tm4 2.976903 1_556
Fe8 Tm0 3.195537 1_566
Fe9 Tm7 2.976903 1_556
Fe9 Tm3 3.195537 1_546
Fe10 Fe42 2.352802 1_555
Fe10 Fe55 2.421150 1_655
Fe10 Fe31 2.439565 1_655
Fe10 Fe21 2.484205 1_555
Fe10 Fe26 2.500126 1_555
Fe10 Fe6 2.544495 1_555
Fe10 Fe5 2.544495 1_655
Fe10 Fe15 2.551953 1_655
Fe10 Fe34 2.605024 1_555
Fe10 Fe35 2.627508 1_655
Fe10 Tm4 2.976903 1_555
Fe10 Tm3 3.195537 1_655
Fe11 Fe43 2.352802 1_555
Fe11 Fe53 2.421150 1_565
Fe11 Fe28 2.439565 1_555
Fe11 Fe17 2.484205 1_555
Fe11 Fe27 2.500126 1_565
Fe11 Fe12 2.551953 1_565
Fe11 Fe35 2.605024 1_555
Fe11 Fe34 2.627508 1_555
Fe11 Tm6 2.976903 1_555
Fe11 Tm2 3.195537 1_555
Fe12 Fe44 2.352802 1_555
Fe12 Fe53 2.421150 1_555
Fe12 Fe27 2.439565 1_555
Fe12 Fe16 2.484205 1_555
Fe12 Fe28 2.500126 1_545
Fe12 Fe36 2.605024 1_555
Fe12 Fe39 2.627508 1_555
Fe12 Tm5 2.976903 1_555
Fe12 Tm1 3.195537 1_555
Fe13 Fe45 2.352802 1_555
Fe13 Fe54 2.421150 1_655
Fe13 Fe30 2.439565 1_555
Fe13 Fe23 2.484205 1_555
Fe13 Fe29 2.500126 1_655
Fe13 Fe7 2.544495 1_555
Fe13 Fe2 2.544495 1_655
Fe13 Fe14 2.551953 1_655
Fe13 Fe37 2.605024 1_555
Fe13 Fe32 2.627508 1_555
Fe13 Tm5 2.976903 1_555
Fe13 Tm2 3.195537 1_555
Fe14 Fe46 2.352802 1_555
Fe14 Fe54 2.421150 1_555
Fe14 Fe29 2.439565 1_555
Fe14 Fe18 2.484205 1_555
Fe14 Fe30 2.500126 1_455
Fe14 Fe7 2.544495 1_455
Fe14 Fe2 2.544495 1_555
Fe14 Fe38 2.605024 1_555
Fe14 Fe33 2.627508 1_555
Fe14 Tm6 2.976903 1_555
Fe14 Tm1 3.195537 1_555
Fe15 Fe47 2.352802 1_555
Fe15 Fe55 2.421150 1_555
Fe15 Fe26 2.439565 1_455
Fe15 Fe22 2.484205 1_555
Fe15 Fe31 2.500126 1_555
Fe15 Fe6 2.544495 1_455
Fe15 Fe5 2.544495 1_555
Fe15 Fe39 2.605024 1_555
Fe15 Fe36 2.627508 1_455
Fe15 Tm7 2.976903 1_555
Fe15 Tm0 3.195537 1_455
Fe16 Fe52 2.521694 1_555
Fe16 Fe44 2.604749 1_555
Fe16 Fe36 2.684637 1_555
Fe16 Fe39 2.714196 1_555
Fe16 Tm0 3.018468 1_555
Fe16 Tm7 3.024054 1_555
Fe17 Fe52 2.521694 1_565
Fe17 Fe43 2.604749 1_555
Fe17 Fe35 2.684637 1_555
Fe17 Fe34 2.714196 1_555
Fe17 Tm3 3.018468 1_555
Fe17 Tm4 3.024054 1_555
Fe18 Fe7 2.439565 1_455
Fe18 Fe2 2.500126 1_555
Fe18 Fe55 2.521694 1_556
Fe18 Fe46 2.604749 1_555
Fe18 Fe38 2.684637 1_555
Fe18 Fe33 2.714196 1_555
Fe18 Tm3 3.018468 1_556
Fe18 Tm7 3.024054 1_556
Fe19 Fe4 2.439565 1_555
Fe19 Fe8 2.484205 1_555
Fe19 Fe3 2.500126 1_565
Fe19 Fe53 2.521694 1_565
Fe19 Fe40 2.604749 1_555
Fe19 Fe32 2.684637 1_555
Fe19 Fe37 2.714196 1_565
Fe19 Tm2 3.018468 1_555
Fe19 Tm5 3.024054 1_565
Fe20 Fe3 2.439565 1_555
Fe20 Fe9 2.484205 1_555
Fe20 Fe4 2.500126 1_545
Fe20 Fe53 2.521694 1_555
Fe20 Fe41 2.604749 1_555
Fe20 Fe33 2.684637 1_555
Fe20 Fe38 2.714196 1_545
Fe20 Tm1 3.018468 1_555
Fe20 Tm6 3.024054 1_545
Fe21 Fe6 2.439565 1_555
Fe21 Fe5 2.500126 1_655
Fe21 Fe54 2.521694 1_655
Fe21 Fe42 2.604749 1_555
Fe21 Fe34 2.684637 1_555
Fe21 Fe35 2.714196 1_655
Fe21 Tm2 3.018468 1_555
Fe21 Tm6 3.024054 1_655
Fe22 Fe5 2.439565 1_555
Fe22 Fe6 2.500126 1_455
Fe22 Fe54 2.521694 1_555
Fe22 Fe47 2.604749 1_555
Fe22 Fe39 2.684637 1_555
Fe22 Fe36 2.714196 1_455
Fe22 Tm1 3.018468 1_555
Fe22 Tm5 3.024054 1_455
Fe23 Fe7 2.500126 1_555
Fe23 Fe55 2.521694 1_656
Fe23 Fe45 2.604749 1_555
Fe23 Fe37 2.684637 1_555
Fe23 Fe32 2.714196 1_555
Fe23 Tm0 3.018468 1_556
Fe23 Tm4 3.024054 1_556
Fe24 Fe9 2.439565 1_565
Fe24 Fe4 2.484205 1_555
Fe24 Fe8 2.500126 1_555
Fe24 Fe52 2.521694 1_566
Fe24 Fe46 2.604749 1_555
Fe24 Fe38 2.684637 1_555
Fe24 Fe32 2.714196 1_555
Fe24 Tm3 3.018468 1_556
Fe24 Tm4 3.024054 1_556
Fe25 Fe8 2.439565 1_545
Fe25 Fe3 2.484205 1_555
Fe25 Fe9 2.500126 1_555
Fe25 Fe52 2.521694 1_556
Fe25 Fe45 2.604749 1_555
Fe25 Fe37 2.684637 1_555
Fe25 Fe33 2.714196 1_555
Fe25 Tm0 3.018468 1_556
Fe25 Tm7 3.024054 1_556
Fe26 Fe6 2.484205 1_555
Fe26 Fe55 2.521694 1_655
Fe26 Fe44 2.604749 1_555
Fe26 Fe36 2.684637 1_555
Fe26 Fe34 2.714196 1_555
Fe26 Tm0 3.018468 1_555
Fe26 Tm4 3.024054 1_555
Fe27 Fe53 2.521694 1_555
Fe27 Fe47 2.604749 1_555
Fe27 Fe39 2.684637 1_555
Fe27 Fe35 2.714196 1_545
Fe27 Tm1 3.018468 1_555
Fe27 Tm6 3.024054 1_545
Fe28 Fe53 2.521694 1_565
Fe28 Fe42 2.604749 1_555
Fe28 Fe34 2.684637 1_555
Fe28 Fe36 2.714196 1_565
Fe28 Tm2 3.018468 1_555
Fe28 Tm5 3.024054 1_565
Fe29 Fe54 2.521694 1_555
Fe29 Fe41 2.604749 1_555
Fe29 Fe33 2.684637 1_555
Fe29 Fe37 2.714196 1_455
Fe29 Tm1 3.018468 1_555
Fe29 Tm5 3.024054 1_455
Fe30 Fe7 2.484205 1_555
Fe30 Fe54 2.521694 1_655
Fe30 Fe40 2.604749 1_555
Fe30 Fe32 2.684637 1_555
Fe30 Fe38 2.714196 1_655
Fe30 Tm2 3.018468 1_555
Fe30 Tm6 3.024054 1_655
Fe31 Fe5 2.484205 1_555
Fe31 Fe55 2.521694 1_555
Fe31 Fe43 2.604749 1_555
Fe31 Fe35 2.684637 1_555
Fe31 Fe39 2.714196 1_555
Fe31 Tm3 3.018468 1_555
Fe31 Tm7 3.024054 1_555
Fe32 Fe7 2.605024 1_555
Fe32 Fe8 2.605024 1_555
Fe32 Fe4 2.627508 1_555
Fe32 Fe46 2.634211 1_555
Fe32 Fe45 2.634211 1_555
Fe32 Fe49 2.727694 1_555
Fe32 Fe40 2.764914 1_555
Fe32 Tm4 2.972179 1_556
Fe32 Tm2 3.041791 1_555
Fe33 Fe9 2.605024 1_555
Fe33 Fe45 2.634211 1_555
Fe33 Fe46 2.634211 1_555
Fe33 Fe49 2.727694 1_555
Fe33 Fe41 2.764914 1_555
Fe33 Tm7 2.972179 1_556
Fe33 Tm1 3.041791 1_555
Fe34 Fe6 2.627508 1_555
Fe34 Fe43 2.634211 1_555
Fe34 Fe44 2.634211 1_555
Fe34 Fe50 2.727694 1_555
Fe34 Fe42 2.764914 1_555
Fe34 Tm4 2.972179 1_555
Fe34 Tm2 3.041791 1_555
Fe35 Fe5 2.605024 1_555
Fe35 Fe47 2.634211 1_565
Fe35 Fe42 2.634211 1_455
Fe35 Fe48 2.727694 1_565
Fe35 Fe43 2.764914 1_555
Fe35 Tm6 2.972179 1_555
Fe35 Tm3 3.041791 1_555
Fe36 Fe6 2.605024 1_555
Fe36 Fe47 2.634211 1_655
Fe36 Fe42 2.634211 1_545
Fe36 Fe48 2.727694 1_655
Fe36 Fe44 2.764914 1_555
Fe36 Tm5 2.972179 1_555
Fe36 Tm0 3.041791 1_555
Fe37 Fe8 2.627508 1_545
Fe37 Fe41 2.634211 1_655
Fe37 Fe40 2.634211 1_545
Fe37 Fe51 2.727694 1_655
Fe37 Fe45 2.764914 1_555
Fe37 Tm5 2.972179 1_555
Fe37 Tm0 3.041791 1_556
Fe38 Fe4 2.605024 1_555
Fe38 Fe9 2.627508 1_565
Fe38 Fe7 2.627508 1_455
Fe38 Fe41 2.634211 1_565
Fe38 Fe40 2.634211 1_455
Fe38 Fe51 2.727694 1_565
Fe38 Fe46 2.764914 1_555
Fe38 Tm6 2.972179 1_555
Fe38 Tm3 3.041791 1_556
Fe39 Fe5 2.627508 1_555
Fe39 Fe43 2.634211 1_555
Fe39 Fe44 2.634211 1_555
Fe39 Fe50 2.727694 1_555
Fe39 Fe47 2.764914 1_555
Fe39 Tm7 2.972179 1_555
Fe39 Tm1 3.041791 1_555
Fe40 Fe8 2.352802 1_555
Fe40 Fe7 2.352802 1_555
Fe40 Fe41 2.390735 1_665
Fe40 Fe51 2.492039 1_665
Fe40 Tm4 3.143771 1_556
Fe40 Tm3 3.175152 1_656
Fe40 Tm0 3.175152 1_566
Fe41 Fe9 2.352802 1_555
Fe41 Fe51 2.492039 1_555
Fe41 Tm7 3.143771 1_556
Fe41 Tm3 3.175152 1_546
Fe41 Tm0 3.175152 1_456
Fe42 Fe47 2.390735 1_665
Fe42 Fe48 2.492039 1_665
Fe42 Tm4 3.143771 1_555
Fe42 Tm0 3.175152 1_565
Fe42 Tm3 3.175152 1_655
Fe43 Fe5 2.352802 1_555
Fe43 Fe44 2.390735 1_555
Fe43 Fe50 2.492039 1_555
Fe43 Tm6 3.143771 1_555
Fe43 Tm1 3.175152 1_555
Fe43 Tm2 3.175152 1_555
Fe44 Fe6 2.352802 1_555
Fe44 Fe50 2.492039 1_555
Fe44 Tm5 3.143771 1_555
Fe44 Tm1 3.175152 1_555
Fe44 Tm2 3.175152 1_555
Fe45 Fe46 2.390735 1_555
Fe45 Fe49 2.492039 1_555
Fe45 Tm5 3.143771 1_555
Fe45 Tm1 3.175152 1_555
Fe45 Tm2 3.175152 1_555
Fe46 Fe49 2.492039 1_555
Fe46 Tm6 3.143771 1_555
Fe46 Tm1 3.175152 1_555
Fe46 Tm2 3.175152 1_555
Fe47 Fe48 2.492039 1_555
Fe47 Tm7 3.143771 1_555
Fe47 Tm3 3.175152 1_545
Fe47 Tm0 3.175152 1_455
Fe48 Tm6 3.186412 1_545
Fe48 Tm5 3.186412 1_455
Fe49 Tm4 3.186412 1_556
Fe49 Tm7 3.186412 1_556
Fe50 Tm4 3.186412 1_555
Fe50 Tm7 3.186412 1_555
Fe51 Tm6 3.186412 1_545
Fe51 Tm5 3.186412 1_455
Fe52 Fe8 2.421150 1_544
Fe52 Fe9 2.421150 1_554
Fe52 Tm7 3.086130 1_555
Fe52 Tm4 3.086130 1_545
Fe52 Tm0 3.346884 1_555
Fe52 Tm3 3.346884 1_545
Fe53 Tm5 3.086130 1_555
Fe53 Tm6 3.086130 1_545
Fe53 Tm1 3.346884 1_555
Fe53 Tm2 3.346884 1_545
Fe54 Fe6 2.421150 1_455
Fe54 Tm6 3.086130 1_555
Fe54 Tm5 3.086130 1_455
Fe54 Tm2 3.346884 1_455
Fe54 Tm1 3.346884 1_555
Fe55 Fe7 2.421150 1_454
Fe55 Tm7 3.086130 1_555
Fe55 Tm4 3.086130 1_455
Fe55 Tm3 3.346884 1_555
Fe55 Tm0 3.346884 1_455
B0 Fe25 2.048750 1_554
B0 Fe23 2.048750 1_554
B0 Fe26 2.048750 1_555
B0 Fe16 2.048750 1_555
B0 Fe50 2.063007 1_555
B0 Fe49 2.063007 1_554
B0 Tm0 2.849740 1_555
B1 Fe20 2.048750 1_555
B1 Fe29 2.048750 1_555
B1 Fe27 2.048750 1_555
B1 Fe22 2.048750 1_555
B1 Fe51 2.063007 1_555
B1 Fe48 2.063007 1_555
B1 Tm1 2.849740 1_555
B2 Fe21 2.048750 1_555
B2 Fe28 2.048750 1_555
B2 Fe19 2.048750 1_555
B2 Fe30 2.048750 1_555
B2 Fe51 2.063007 1_665
B2 Fe48 2.063007 1_665
B2 Tm2 2.849740 1_555
B3 Fe24 2.048750 1_554
B3 Fe18 2.048750 1_554
B3 Fe17 2.048750 1_555
B3 Fe31 2.048750 1_555
B3 Fe50 2.063007 1_555
B3 Fe49 2.063007 1_554
B3 Tm3 2.849740 1_555
