# generated using pymatgen
data_CSNO3
_symmetry_space_group_name_H-M   'P 1'
_cell_length_a   5.49003725
_cell_length_b   5.49003725
_cell_length_c   12.43922986
_cell_angle_alpha   84.98684908
_cell_angle_beta   84.98684908
_cell_angle_gamma   98.64207615
_symmetry_Int_Tables_number   1
_chemical_formula_structural   CSNO3
_chemical_formula_sum   'C4 S4 N4 O12'
_cell_volume   367.32188988
_cell_formula_units_Z   4
loop_
 _symmetry_equiv_pos_site_id
 _symmetry_equiv_pos_as_xyz
  1  'x, y, z'
loop_
 _atom_site_type_symbol
 _atom_site_label
 _atom_site_symmetry_multiplicity
 _atom_site_fract_x
 _atom_site_fract_y
 _atom_site_fract_z
 _atom_site_occupancy
  C  C0  1  0.98743900  0.87779000  0.47665800  1
  C  C1  1  0.12221000  0.01256100  0.02334200  1
  C  C2  1  0.87779000  0.98743900  0.97665800  1
  C  C3  1  0.01256100  0.12221000  0.52334200  1
  S  S0  1  0.31917500  0.19408700  0.36981400  1
  S  S1  1  0.68082500  0.80591300  0.63018600  1
  S  S2  1  0.80591300  0.68082500  0.13018600  1
  S  S3  1  0.19408700  0.31917500  0.86981400  1
  N  N0  1  0.82101000  0.70101500  0.52481500  1
  N  N1  1  0.29898500  0.17899000  0.97518500  1
  N  N2  1  0.70101500  0.82101000  0.02481500  1
  N  N3  1  0.17899000  0.29898500  0.47518500  1
  O  O0  1  0.85712700  0.12157000  0.60910900  1
  O  O1  1  0.56803300  0.16690100  0.38580300  1
  O  O2  1  0.74703700  0.70256900  0.73043900  1
  O  O3  1  0.29743100  0.25296300  0.76956100  1
  O  O4  1  0.83309900  0.43196700  0.11419700  1
  O  O5  1  0.70256900  0.74703700  0.23043900  1
  O  O6  1  0.43196700  0.83309900  0.61419700  1
  O  O7  1  0.12157000  0.85712700  0.10910900  1
  O  O8  1  0.16690100  0.56803300  0.88580300  1
  O  O9  1  0.14287300  0.87843000  0.39089100  1
  O  O10  1  0.25296300  0.29743100  0.26956100  1
  O  O11  1  0.87843000  0.14287300  0.89089100  1
loop_
_geom_bond_atom_site_label_1
_geom_bond_atom_site_label_2
_geom_bond_distance
_geom_bond_site_symmetry_2
C0 N0 1.292987 1_555
C0 O9 1.306046 1_655
C1 N1 1.292987 1_554
C1 O7 1.306046 1_545
C2 N2 1.292987 1_556
C2 O11 1.306046 1_565
C3 N3 1.292987 1_555
C3 O0 1.306046 1_455
N0 S1 1.652517 1_555
N1 S3 1.652517 1_555
N2 S2 1.652517 1_555
N3 S0 1.652517 1_555
O0 S1 1.838728 1_545
O1 S0 1.425492 1_555
O2 S1 1.423647 1_555
O3 S3 1.423647 1_555
O4 S2 1.425492 1_555
O5 S2 1.423647 1_555
O6 S1 1.425492 1_555
O7 S2 1.838728 1_455
O8 S3 1.425492 1_555
O9 S0 1.838728 1_565
O10 S0 1.423647 1_555
O11 S3 1.838728 1_655
