# generated using pymatgen
data_H2O
_symmetry_space_group_name_H-M   'P 1'
_cell_length_a   3.91113571
_cell_length_b   7.96660694
_cell_length_c   8.05046515
_cell_angle_alpha   89.15868855
_cell_angle_beta   89.98229960
_cell_angle_gamma   89.97172430
_symmetry_Int_Tables_number   1
_chemical_formula_structural   H2O
_chemical_formula_sum   'H24 O12'
_cell_volume   250.81318165
_cell_formula_units_Z   12
loop_
 _symmetry_equiv_pos_site_id
 _symmetry_equiv_pos_as_xyz
  1  'x, y, z'
loop_
 _atom_site_type_symbol
 _atom_site_label
 _atom_site_symmetry_multiplicity
 _atom_site_fract_x
 _atom_site_fract_y
 _atom_site_fract_z
 _atom_site_occupancy
  H  H0  1  0.39418621  0.95089703  0.59126268  1
  H  H1  1  0.30643724  0.71870275  0.77409388  1
  H  H2  1  0.94961826  0.28170493  0.27504866  1
  H  H3  1  0.03717957  0.72076064  0.28315100  1
  H  H4  1  0.01441932  0.43027119  0.15244022  1
  H  H5  1  0.98714031  0.15329744  0.57673195  1
  H  H6  1  0.89401682  0.54995844  0.90543498  1
  H  H7  1  0.23801968  0.57424219  0.65121605  1
  H  H8  1  0.48667692  0.34825272  0.91951411  1
  H  H9  1  0.73775245  0.92700203  0.84511795  1
  H  H10  1  0.14417866  0.09644242  0.95795603  1
  H  H11  1  0.35639064  0.45146887  0.40570467  1
  H  H12  1  0.80645198  0.78211162  0.72267024  1
  H  H13  1  0.53704631  0.78125934  0.21263904  1
  H  H14  1  0.64459682  0.40545067  0.53780302  1
  H  H15  1  0.75634889  0.65575278  0.41488735  1
  H  H16  1  0.44966652  0.21952612  0.22197707  1
  H  H17  1  0.55791518  0.22390221  0.77793098  1
  H  H18  1  0.85656654  0.05031896  0.09040045  1
  H  H19  1  0.10173809  0.90422925  0.46276670  1
  H  H20  1  0.51501836  0.07084417  0.34438326  1
  H  H21  1  0.25628221  0.84611189  0.08084571  1
  H  H22  1  0.60138482  0.59705184  0.03375134  1
  H  H23  1  0.05794878  0.27804802  0.71791975  1
  O  O0  1  0.62427895  0.13514958  0.25258195  1
  O  O1  1  0.38190594  0.25281470  0.86096126  1
  O  O2  1  0.88216182  0.24899190  0.63491483  1
  O  O3  1  0.12394671  0.36610600  0.24426424  1
  O  O4  1  0.35861793  0.74526997  0.13421304  1
  O  O5  1  0.62935878  0.86430831  0.75391487  1
  O  O6  1  0.99893970  0.00398393  0.00062399  1
  O  O7  1  0.12957520  0.63655476  0.74273866  1
  O  O8  1  0.49903013  0.49789460  0.49527528  1
  O  O9  1  0.24970312  0.99662135  0.50075931  1
  O  O10  1  0.74935262  0.50446802  0.99598099  1
  O  O11  1  0.85855250  0.75663138  0.36162851  1
loop_
_geom_bond_atom_site_label_1
_geom_bond_atom_site_label_2
_geom_bond_distance
_geom_bond_site_symmetry_2
H0 O9 0.987486 1_555
H1 O7 0.987881 1_555
H2 O3 0.986845 1_655
H3 O11 0.986779 1_455
H4 O3 0.990024 1_555
H5 O2 0.989560 1_555
H6 O10 0.987425 1_555
H7 O7 0.989718 1_555
H8 O1 0.989518 1_555
H9 O5 0.989668 1_555
H10 O6 0.987969 1_456
H11 O8 0.988066 1_555
H12 O5 0.987975 1_555
H13 O4 0.986721 1_555
H14 O8 0.987945 1_555
H15 O11 0.989738 1_555
H16 O0 0.986780 1_555
H17 O1 0.988851 1_555
H18 O6 0.987963 1_555
H19 O9 0.988620 1_555
H20 O0 0.990024 1_555
H21 O4 0.989867 1_555
H22 O10 0.988664 1_554
H23 O2 0.988831 1_455
