# generated using pymatgen
data_ZnGa3N3O
_symmetry_space_group_name_H-M   'P 1'
_cell_length_a   6.47409000
_cell_length_b   6.47383697
_cell_length_c   10.52069933
_cell_angle_alpha   89.93566904
_cell_angle_beta   89.90404135
_cell_angle_gamma   59.99636672
_symmetry_Int_Tables_number   1
_chemical_formula_structural   ZnGa3N3O
_chemical_formula_sum   'Zn4 Ga12 N12 O4'
_cell_volume   381.85562935
_cell_formula_units_Z   4
loop_
 _symmetry_equiv_pos_site_id
 _symmetry_equiv_pos_as_xyz
  1  'x, y, z'
loop_
 _atom_site_type_symbol
 _atom_site_label
 _atom_site_symmetry_multiplicity
 _atom_site_fract_x
 _atom_site_fract_y
 _atom_site_fract_z
 _atom_site_occupancy
  Zn  Zn0  1  0.33846700  0.16162200  0.25421300  1
  Zn  Zn1  1  0.67807000  0.33933900  0.00442700  1
  Zn  Zn2  1  0.16712700  0.33421500  0.50581200  1
  Zn  Zn3  1  0.83865900  0.67789200  0.75687400  1
  Ga  Ga0  1  0.82600000  0.16457600  0.24785700  1
  Ga  Ga1  1  0.33504700  0.67446400  0.24963100  1
  Ga  Ga2  1  0.83524100  0.66672500  0.24964400  1
  Ga  Ga3  1  0.66924700  0.83454900  0.99962600  1
  Ga  Ga4  1  0.16010500  0.33559500  0.99945400  1
  Ga  Ga5  1  0.65956500  0.83915400  0.49972200  1
  Ga  Ga6  1  0.32497300  0.15951500  0.74784600  1
  Ga  Ga7  1  0.66161500  0.32138200  0.49760600  1
  Ga  Ga8  1  0.33630500  0.67071700  0.74963700  1
  Ga  Ga9  1  0.83430700  0.15865800  0.74809200  1
  Ga  Ga10  1  0.16008200  0.82447100  0.99810100  1
  Ga  Ga11  1  0.17945100  0.83828400  0.49789100  1
  N  N0  1  0.67713000  0.33952600  0.31319300  1
  N  N1  1  0.16090300  0.82343000  0.31399000  1
  N  N2  1  0.83769400  0.16086900  0.06390600  1
  N  N3  1  0.82635600  0.16320300  0.56375700  1
  N  N4  1  0.33695200  0.67358400  0.56380800  1
  N  N5  1  0.33735300  0.16309000  0.56300300  1
  N  N6  1  0.17688100  0.83757600  0.81413600  1
  N  N7  1  0.66674700  0.83268900  0.31327200  1
  N  N8  1  0.83757800  0.67680400  0.06342200  1
  N  N9  1  0.33418300  0.66665100  0.06319300  1
  N  N10  1  0.16730300  0.33433000  0.81231500  1
  N  N11  1  0.66097900  0.83730600  0.81410400  1
  O  O0  1  0.83254800  0.66658700  0.55365300  1
  O  O1  1  0.16146800  0.33966800  0.30294200  1
  O  O2  1  0.66046600  0.32184200  0.80455200  1
  O  O3  1  0.32119500  0.16168700  0.05433800  1
loop_
_geom_bond_atom_site_label_1
_geom_bond_atom_site_label_2
_geom_bond_distance
_geom_bond_site_symmetry_2
Ga0 N0 1.261741 1_555
Ga0 N2 1.936353 1_555
Ga0 N1 2.296801 1_645
Ga1 N1 1.253438 1_555
Ga1 N9 1.962256 1_555
Ga1 N0 2.291869 1_555
Ga2 N7 1.272577 1_555
Ga2 N8 1.960484 1_555
Ga2 O1 2.187938 1_655
Ga3 N8 1.252550 1_556
Ga3 N11 1.952462 1_555
Ga3 O3 2.262679 1_566
Ga4 O3 1.230806 1_556
Ga4 N10 1.969236 1_555
Ga4 N8 2.253452 1_456
Ga5 O0 1.254447 1_555
Ga5 N7 1.962055 1_555
Ga5 N5 2.194537 1_565
Ga6 N10 1.275482 1_555
Ga6 N5 1.946783 1_555
Ga6 N11 2.243395 1_545
Ga7 N3 1.256622 1_555
Ga7 N0 1.949030 1_555
Ga7 N4 2.303807 1_555
Ga8 N6 1.255737 1_555
Ga8 N4 1.955136 1_555
Ga8 O2 2.258294 1_555
Ga9 O2 1.243225 1_555
Ga9 N3 1.939902 1_555
Ga9 N6 2.261346 1_645
Ga10 N9 1.277725 1_556
Ga10 N6 1.942450 1_555
Ga10 N2 2.242981 1_466
Ga11 N4 1.253359 1_555
Ga11 N1 1.944154 1_555
Ga11 N3 2.306384 1_465
N2 Zn1 1.265252 1_555
N5 Zn2 1.258393 1_555
N7 Zn0 2.216485 1_565
N9 Zn1 2.260345 1_555
N10 Zn3 2.254448 1_455
N11 Zn3 1.250045 1_555
O0 Zn3 2.140470 1_555
O0 Zn2 2.216448 1_655
O1 Zn0 1.258135 1_555
O1 Zn2 2.134659 1_555
O2 Zn1 2.112331 1_556
O3 Zn0 2.105971 1_555
