# generated using pymatgen
data_NbIO2
_symmetry_space_group_name_H-M   'P 1'
_cell_length_a   3.80072832
_cell_length_b   3.96684060
_cell_length_c   21.41951638
_cell_angle_alpha   90.00000000
_cell_angle_beta   90.00000000
_cell_angle_gamma   90.00000000
_symmetry_Int_Tables_number   1
_chemical_formula_structural   NbIO2
_chemical_formula_sum   'Nb4 I4 O8'
_cell_volume   322.93955115
_cell_formula_units_Z   4
loop_
 _symmetry_equiv_pos_site_id
 _symmetry_equiv_pos_as_xyz
  1  'x, y, z'
loop_
 _atom_site_type_symbol
 _atom_site_label
 _atom_site_symmetry_multiplicity
 _atom_site_fract_x
 _atom_site_fract_y
 _atom_site_fract_z
 _atom_site_occupancy
  Nb  Nb0  1  0.25000000  0.54683546  0.93435315  1
  Nb  Nb1  1  0.75000000  0.04683546  0.56564685  1
  Nb  Nb2  1  0.75000000  0.45316454  0.06564685  1
  Nb  Nb3  1  0.25000000  0.95316454  0.43435315  1
  I  I0  1  0.25000000  0.99722134  0.67199568  1
  I  I1  1  0.75000000  0.00277866  0.32800432  1
  I  I2  1  0.25000000  0.50277866  0.17199568  1
  I  I3  1  0.75000000  0.49722134  0.82800432  1
  O  O0  1  0.25000000  0.49672904  0.42820253  1
  O  O1  1  0.75000000  0.50327096  0.57179747  1
  O  O2  1  0.25000000  0.00327096  0.92820253  1
  O  O3  1  0.75000000  0.00666902  0.46845561  1
  O  O4  1  0.25000000  0.99333098  0.53154439  1
  O  O5  1  0.25000000  0.50666902  0.03154439  1
  O  O6  1  0.75000000  0.99672904  0.07179747  1
  O  O7  1  0.75000000  0.49333098  0.96845561  1
loop_
_geom_bond_atom_site_label_1
_geom_bond_atom_site_label_2
_geom_bond_distance
_geom_bond_site_symmetry_2
Nb0 O2 1.815393 1_565
Nb0 O7 2.046949 1_555
Nb0 O7 2.046949 1_455
Nb0 O5 2.087878 1_556
Nb0 O2 2.160255 1_555
Nb1 O1 1.815393 1_555
Nb1 O4 2.046949 1_645
Nb1 O4 2.046949 1_545
Nb1 O3 2.087878 1_555
Nb1 O1 2.160255 1_545
Nb2 O6 1.815393 1_545
Nb2 O5 2.046949 1_655
Nb2 O5 2.046949 1_555
Nb2 O7 2.087878 1_554
Nb2 O6 2.160255 1_555
Nb3 O0 1.815393 1_555
Nb3 O3 2.046949 1_465
Nb3 O3 2.046949 1_565
Nb3 O4 2.087878 1_555
Nb3 O0 2.160255 1_565
I0 Nb1 2.973068 1_565
I0 Nb1 2.973068 1_465
I1 Nb3 2.973068 1_645
I1 Nb3 2.973068 1_545
I2 Nb2 2.973068 1_555
I2 Nb2 2.973068 1_455
I3 Nb0 2.973068 1_555
I3 Nb0 2.973068 1_655
