# generated using pymatgen
data_CsS2N(O2F)2
_symmetry_space_group_name_H-M   'P 1'
_cell_length_a   8.69918900
_cell_length_b   8.11631800
_cell_length_c   12.39888505
_cell_angle_alpha   59.21863184
_cell_angle_beta   90.00000000
_cell_angle_gamma   90.00000000
_symmetry_Int_Tables_number   1
_chemical_formula_structural   CsS2N(O2F)2
_chemical_formula_sum   'Cs4 S8 N4 O16 F8'
_cell_volume   752.10330973
_cell_formula_units_Z   4
loop_
 _symmetry_equiv_pos_site_id
 _symmetry_equiv_pos_as_xyz
  1  'x, y, z'
loop_
 _atom_site_type_symbol
 _atom_site_label
 _atom_site_symmetry_multiplicity
 _atom_site_fract_x
 _atom_site_fract_y
 _atom_site_fract_z
 _atom_site_occupancy
  Cs  Cs0  1  0.24387600  0.76698000  0.08832900  1
  Cs  Cs1  1  0.74387600  0.23302000  0.41167100  1
  Cs  Cs2  1  0.75612400  0.23302000  0.91167100  1
  Cs  Cs3  1  0.25612400  0.76698000  0.58832900  1
  S  S0  1  0.18754500  0.35689400  0.46156500  1
  S  S1  1  0.68754500  0.64310600  0.03843500  1
  S  S2  1  0.81245500  0.64310600  0.53843500  1
  S  S3  1  0.31245500  0.35689400  0.96156500  1
  S  S4  1  0.39777600  0.20876700  0.65648400  1
  S  S5  1  0.89777600  0.79123300  0.84351600  1
  S  S6  1  0.60222400  0.79123300  0.34351600  1
  S  S7  1  0.10222400  0.20876700  0.15648400  1
  N  N0  1  0.29209500  0.38072200  0.55767800  1
  N  N1  1  0.79209500  0.61927800  0.94232200  1
  N  N2  1  0.70790500  0.61927800  0.44232200  1
  N  N3  1  0.20790500  0.38072200  0.05767800  1
  O  O0  1  0.10246000  0.17970900  0.51414800  1
  O  O1  1  0.60246000  0.82029100  0.98585200  1
  O  O2  1  0.89754000  0.82029100  0.48585200  1
  O  O3  1  0.39754000  0.17970900  0.01414800  1
  O  O4  1  0.11088400  0.53530000  0.38079600  1
  O  O5  1  0.61088400  0.46470000  0.11920400  1
  O  O6  1  0.88911600  0.46470000  0.61920400  1
  O  O7  1  0.38911600  0.53530000  0.88079600  1
  O  O8  1  0.49321800  0.28050200  0.71755300  1
  O  O9  1  0.99321800  0.71949800  0.78244700  1
  O  O10  1  0.50678200  0.71949800  0.28244700  1
  O  O11  1  0.00678200  0.28050200  0.21755300  1
  O  O12  1  0.46270800  0.08963500  0.61300800  1
  O  O13  1  0.96270800  0.91036500  0.88699200  1
  O  O14  1  0.53729200  0.91036500  0.38699200  1
  O  O15  1  0.03729200  0.08963500  0.11300800  1
  F  F0  1  0.31201000  0.33916700  0.36909900  1
  F  F1  1  0.81201000  0.66083300  0.13090100  1
  F  F2  1  0.68799000  0.66083300  0.63090100  1
  F  F3  1  0.18799000  0.33916700  0.86909900  1
  F  F4  1  0.27647300  0.06767700  0.76360400  1
  F  F5  1  0.77647300  0.93232300  0.73639600  1
  F  F6  1  0.72352700  0.93232300  0.23639600  1
  F  F7  1  0.22352700  0.06767700  0.26360400  1
loop_
_geom_bond_atom_site_label_1
_geom_bond_atom_site_label_2
_geom_bond_distance
_geom_bond_site_symmetry_2
Cs0 O10 3.197302 1_555
Cs0 O13 3.255028 1_454
Cs0 O3 3.271200 1_565
Cs0 O1 3.312028 1_554
Cs0 O15 3.316833 1_565
Cs0 O4 3.323389 1_555
Cs0 N3 3.360056 1_555
Cs0 F0 3.486369 1_555
Cs0 F4 3.491392 1_564
Cs1 O11 3.197302 1_655
Cs1 O12 3.255028 1_555
Cs1 O2 3.271200 1_545
Cs1 O0 3.312028 1_655
Cs1 O14 3.316833 1_545
Cs1 O5 3.323389 1_555
Cs1 N2 3.360056 1_555
Cs1 F1 3.486369 1_555
Cs1 F5 3.491392 1_545
Cs2 O8 3.197302 1_555
Cs2 O15 3.255028 1_656
Cs2 O1 3.271200 1_545
Cs2 O3 3.312028 1_556
Cs2 O13 3.316833 1_545
Cs2 O6 3.323389 1_555
Cs2 N1 3.360056 1_555
Cs2 F2 3.486369 1_555
Cs2 F6 3.491392 1_546
Cs3 O9 3.197302 1_455
Cs3 O14 3.255028 1_555
Cs3 O0 3.271200 1_565
Cs3 O2 3.312028 1_455
Cs3 O12 3.316833 1_565
Cs3 O7 3.323389 1_555
Cs3 N0 3.360056 1_555
Cs3 F3 3.486369 1_555
Cs3 F7 3.491392 1_565
N0 S0 1.587645 1_555
N0 S4 1.594938 1_555
N1 S1 1.587645 1_556
N1 S5 1.594938 1_555
N2 S2 1.587645 1_555
N2 S6 1.594938 1_555
N3 S3 1.587645 1_554
N3 S7 1.594938 1_555
O0 S0 1.442695 1_555
O1 S1 1.442695 1_556
O2 S2 1.442695 1_555
O3 S3 1.442695 1_554
O4 S0 1.435314 1_555
O5 S1 1.435314 1_555
O6 S2 1.435314 1_555
O7 S3 1.435314 1_555
O8 S4 1.432790 1_555
O9 S5 1.432790 1_555
O10 S6 1.432790 1_555
O11 S7 1.432790 1_555
O12 S4 1.441542 1_555
O13 S5 1.441542 1_555
O14 S6 1.441542 1_555
O15 S7 1.441542 1_555
F0 S0 1.635933 1_555
F1 S1 1.635933 1_555
F2 S2 1.635933 1_555
F3 S3 1.635933 1_555
F4 S4 1.622398 1_555
F5 S5 1.622398 1_555
F6 S6 1.622398 1_555
F7 S7 1.622398 1_555
