# generated using pymatgen
data_SrMn5(SO4)6
_symmetry_space_group_name_H-M   'P 1'
_cell_length_a   14.83613046
_cell_length_b   14.83613046
_cell_length_c   7.59654000
_cell_angle_alpha   90.00000000
_cell_angle_beta   90.00000000
_cell_angle_gamma   120.00000203
_symmetry_Int_Tables_number   1
_chemical_formula_structural   SrMn5(SO4)6
_chemical_formula_sum   'Sr3 Mn15 S18 O72'
_cell_volume   1448.06393983
_cell_formula_units_Z   3
loop_
 _symmetry_equiv_pos_site_id
 _symmetry_equiv_pos_as_xyz
  1  'x, y, z'
loop_
 _atom_site_type_symbol
 _atom_site_label
 _atom_site_symmetry_multiplicity
 _atom_site_fract_x
 _atom_site_fract_y
 _atom_site_fract_z
 _atom_site_occupancy
  Sr  Sr0  1  0.66666700  0.33333300  0.00102800  1
  Sr  Sr1  1  0.33333300  0.66666700  0.99897200  1
  Sr  Sr2  1  0.00000000  0.00000000  0.50000000  1
  Mn  Mn0  1  0.00161600  0.34693900  0.96490300  1
  Mn  Mn1  1  0.65467700  0.00161600  0.03509700  1
  Mn  Mn2  1  0.32314400  0.00496400  0.54555900  1
  Mn  Mn3  1  0.66666700  0.33333300  0.50163900  1
  Mn  Mn4  1  0.34693900  0.34532300  0.03509700  1
  Mn  Mn5  1  0.65306100  0.65467700  0.96490300  1
  Mn  Mn6  1  0.99838400  0.65306100  0.03509700  1
  Mn  Mn7  1  0.99503600  0.31818000  0.54555900  1
  Mn  Mn8  1  0.33333300  0.66666700  0.49836100  1
  Mn  Mn9  1  0.00496400  0.68182000  0.45444100  1
  Mn  Mn10  1  0.67685600  0.99503600  0.45444100  1
  Mn  Mn11  1  0.00000000  0.00000000  0.00000000  1
  Mn  Mn12  1  0.68182000  0.67685600  0.54555900  1
  Mn  Mn13  1  0.31818000  0.32314400  0.45444100  1
  Mn  Mn14  1  0.34532300  0.99838400  0.96490300  1
  S  S0  1  0.77397300  0.90233100  0.75704400  1
  S  S1  1  0.44091300  0.23621500  0.74430200  1
  S  S2  1  0.56991100  0.46084700  0.25916900  1
  S  S3  1  0.43008900  0.53915300  0.74083100  1
  S  S4  1  0.20469800  0.44091300  0.25569800  1
  S  S5  1  0.55908700  0.76378500  0.25569800  1
  S  S6  1  0.76378500  0.20469800  0.74430200  1
  S  S7  1  0.46084700  0.89093600  0.74083100  1
  S  S8  1  0.89093600  0.43008900  0.25916900  1
  S  S9  1  0.10906400  0.56991100  0.74083100  1
  S  S10  1  0.87164200  0.77397300  0.24295600  1
  S  S11  1  0.09766900  0.87164200  0.75704400  1
  S  S12  1  0.90233100  0.12835800  0.24295600  1
  S  S13  1  0.22602700  0.09766900  0.24295600  1
  S  S14  1  0.12835800  0.22602700  0.75704400  1
  S  S15  1  0.23621500  0.79530200  0.25569800  1
  S  S16  1  0.79530200  0.55908700  0.74430200  1
  S  S17  1  0.53915300  0.10906400  0.25916900  1
  O  O0  1  0.42449800  0.96894600  0.74479400  1
  O  O1  1  0.24478900  0.36604100  0.23934300  1
  O  O2  1  0.41029500  0.27753100  0.59495200  1
  O  O3  1  0.49522800  0.11024800  0.08245700  1
  O  O4  1  0.25531200  0.04441900  0.11149500  1
  O  O5  1  0.86723600  0.58970500  0.59495200  1
  O  O6  1  0.41594700  0.63070500  0.70999600  1
  O  O7  1  0.25261100  0.70507300  0.28613400  1
  O  O8  1  0.84558000  0.55664800  0.91274400  1
  O  O9  1  0.91934400  0.03930100  0.20545200  1
  O  O10  1  0.08391100  0.62180000  0.60087600  1
  O  O11  1  0.15442000  0.44335200  0.08725600  1
  O  O12  1  0.74738900  0.29492700  0.71386600  1
  O  O13  1  0.08065600  0.96069900  0.79454800  1
  O  O14  1  0.21089300  0.25531200  0.88850500  1
  O  O15  1  0.94402200  0.16668100  0.42354900  1
  O  O16  1  0.88975200  0.38498000  0.08245700  1
  O  O17  1  0.08957400  0.30206900  0.75881100  1
  O  O18  1  0.57550200  0.03105400  0.25520600  1
  O  O19  1  0.27753100  0.86723600  0.40504800  1
  O  O20  1  0.37820000  0.46211100  0.60087600  1
  O  O21  1  0.61502000  0.50477200  0.08245700  1
  O  O22  1  0.91608900  0.37820000  0.39912400  1
  O  O23  1  0.63070500  0.21475800  0.29000400  1
  O  O24  1  0.54753800  0.25261100  0.71386600  1
  O  O25  1  0.03930100  0.11995700  0.79454800  1
  O  O26  1  0.22266000  0.05597800  0.42354900  1
  O  O27  1  0.13276400  0.41029500  0.40504800  1
  O  O28  1  0.87874800  0.24478900  0.76065700  1
  O  O29  1  0.44335200  0.28893200  0.91274400  1
  O  O30  1  0.69793100  0.78750500  0.75881100  1
  O  O31  1  0.53788900  0.91608900  0.60087600  1
  O  O32  1  0.78524200  0.41594700  0.29000400  1
  O  O33  1  0.63395900  0.87874800  0.23934300  1
  O  O34  1  0.29492700  0.54753800  0.28613400  1
  O  O35  1  0.55664800  0.71106800  0.08725600  1
  O  O36  1  0.70507300  0.45246200  0.71386600  1
  O  O37  1  0.36604100  0.12125200  0.76065700  1
  O  O38  1  0.96069900  0.88004300  0.20545200  1
  O  O39  1  0.45246200  0.74738900  0.28613400  1
  O  O40  1  0.58405300  0.36929500  0.29000400  1
  O  O41  1  0.11024800  0.61502000  0.91754300  1
  O  O42  1  0.88004300  0.91934400  0.79454800  1
  O  O43  1  0.72246900  0.13276400  0.59495200  1
  O  O44  1  0.30206900  0.21249500  0.24118900  1
  O  O45  1  0.71106800  0.15442000  0.91274400  1
  O  O46  1  0.58970500  0.72246900  0.40504800  1
  O  O47  1  0.03105400  0.45555200  0.74479400  1
  O  O48  1  0.96894600  0.54444800  0.25520600  1
  O  O49  1  0.95558100  0.21089300  0.11149500  1
  O  O50  1  0.28893200  0.84558000  0.08725600  1
  O  O51  1  0.45555200  0.42449800  0.25520600  1
  O  O52  1  0.50477200  0.88975200  0.91754300  1
  O  O53  1  0.75521100  0.63395900  0.76065700  1
  O  O54  1  0.62180000  0.53788900  0.39912400  1
  O  O55  1  0.04441900  0.78910700  0.88850500  1
  O  O56  1  0.36929500  0.78524200  0.70999600  1
  O  O57  1  0.78750500  0.08957400  0.24118900  1
  O  O58  1  0.54444800  0.57550200  0.74479400  1
  O  O59  1  0.74468800  0.95558100  0.88850500  1
  O  O60  1  0.78910700  0.74468800  0.11149500  1
  O  O61  1  0.12125200  0.75521100  0.23934300  1
  O  O62  1  0.46211100  0.08391100  0.39912400  1
  O  O63  1  0.11995700  0.08065600  0.20545200  1
  O  O64  1  0.21249500  0.91042600  0.75881100  1
  O  O65  1  0.05597800  0.83331900  0.57645100  1
  O  O66  1  0.38498000  0.49522800  0.91754300  1
  O  O67  1  0.91042600  0.69793100  0.24118900  1
  O  O68  1  0.21475800  0.58405300  0.70999600  1
  O  O69  1  0.83331900  0.77734000  0.42354900  1
  O  O70  1  0.77734000  0.94402200  0.57645100  1
  O  O71  1  0.16668100  0.22266000  0.57645100  1
loop_
_geom_bond_atom_site_label_1
_geom_bond_atom_site_label_2
_geom_bond_distance
_geom_bond_site_symmetry_2
Mn0 O49 2.098082 1_456
Mn0 O11 2.192389 1_556
Mn0 O16 2.192490 1_456
Mn0 O47 2.208932 1_555
Mn0 O28 2.294434 1_455
Mn0 O17 2.337911 1_555
Mn1 O59 2.098082 1_544
Mn1 O45 2.192389 1_554
Mn1 O52 2.192490 1_544
Mn1 O18 2.208932 1_555
Mn1 O33 2.294434 1_545
Mn1 O57 2.337911 1_555
Mn2 O19 2.095183 1_545
Mn2 O62 2.108364 1_555
Mn2 O26 2.186928 1_555
Mn2 O37 2.225652 1_555
Mn2 O64 2.232473 1_545
Mn2 O0 2.375051 1_545
Mn3 O23 2.241765 1_555
Mn3 O32 2.241767 1_555
Mn3 O40 2.241775 1_555
Mn3 O12 2.245099 1_555
Mn3 O24 2.245106 1_555
Mn3 O36 2.245108 1_555
Mn4 O14 2.098082 1_554
Mn4 O29 2.192389 1_554
Mn4 O66 2.192490 1_554
Mn4 O51 2.208932 1_555
Mn4 O1 2.294434 1_555
Mn4 O44 2.337911 1_555
Mn5 O60 2.098082 1_556
Mn5 O35 2.192389 1_556
Mn5 O21 2.192490 1_556
Mn5 O58 2.208932 1_555
Mn5 O53 2.294434 1_555
Mn5 O30 2.337911 1_555
Mn6 O55 2.098082 1_654
Mn6 O8 2.192389 1_554
Mn6 O41 2.192490 1_654
Mn6 O48 2.208932 1_555
Mn6 O61 2.294434 1_655
Mn6 O67 2.337911 1_555
Mn7 O27 2.095183 1_655
Mn7 O22 2.108364 1_555
Mn7 O15 2.186941 1_555
Mn7 O28 2.225652 1_555
Mn7 O17 2.232473 1_655
Mn7 O47 2.375051 1_655
Mn8 O56 2.241765 1_555
Mn8 O68 2.241767 1_555
Mn8 O6 2.241775 1_555
Mn8 O7 2.245099 1_555
Mn8 O39 2.245106 1_555
Mn8 O34 2.245108 1_555
Mn9 O5 2.095183 1_455
Mn9 O10 2.108364 1_555
Mn9 O65 2.186941 1_555
Mn9 O61 2.225652 1_555
Mn9 O67 2.232473 1_455
Mn9 O48 2.375051 1_455
Mn10 O43 2.095183 1_565
Mn10 O31 2.108364 1_555
Mn10 O70 2.186928 1_555
Mn10 O33 2.225652 1_555
Mn10 O57 2.232473 1_565
Mn10 O18 2.375051 1_565
Mn11 O63 2.214828 1_555
Mn11 O42 2.214828 1_444
Mn11 O25 2.214828 1_554
Mn11 O38 2.214828 1_445
Mn11 O13 2.214828 1_544
Mn11 O9 2.214828 1_455
Mn12 O46 2.095183 1_555
Mn12 O54 2.108364 1_555
Mn12 O69 2.186938 1_555
Mn12 O53 2.225652 1_555
Mn12 O30 2.232473 1_555
Mn12 O58 2.375051 1_555
Mn13 O2 2.095183 1_555
Mn13 O20 2.108364 1_555
Mn13 O71 2.186938 1_555
Mn13 O1 2.225652 1_555
Mn13 O44 2.232473 1_555
Mn13 O51 2.375051 1_555
Mn14 O4 2.098082 1_566
Mn14 O50 2.192389 1_556
Mn14 O3 2.192490 1_566
Mn14 O0 2.208932 1_555
Mn14 O37 2.294434 1_565
Mn14 O64 2.337911 1_555
O0 S7 1.501788 1_555
O1 S4 1.504601 1_555
O2 S1 1.465506 1_555
O3 S17 1.496154 1_555
O3 Sr0 3.063981 1_555
O4 S13 1.467465 1_555
O5 S16 1.465506 1_555
O6 S3 1.492913 1_555
O6 Sr1 2.694412 1_555
O7 S15 1.493399 1_555
O7 Sr1 2.683278 1_554
O8 S16 1.490647 1_555
O8 Sr0 3.110953 1_556
O9 S12 1.491343 1_555
O9 Sr2 2.734267 1_655
O10 S9 1.466124 1_555
O11 S4 1.490647 1_555
O11 Sr1 3.110953 1_554
O12 S6 1.493399 1_555
O12 Sr0 2.683278 1_556
O13 S11 1.491343 1_555
O13 Sr2 2.734267 1_565
O14 S14 1.467465 1_555
O15 S12 1.495404 1_555
O15 Sr2 3.032489 1_655
O16 S8 1.496154 1_555
O16 Sr0 3.063977 1_555
O17 S14 1.501063 1_555
O18 S17 1.501788 1_555
O19 S15 1.465506 1_555
O20 S3 1.466124 1_555
O21 S2 1.496154 1_555
O21 Sr0 3.063991 1_555
O22 S8 1.466124 1_555
O23 S17 1.492913 1_555
O23 Sr0 2.694404 1_555
O24 S1 1.493399 1_555
O24 Sr0 2.683284 1_556
O25 S14 1.491343 1_555
O25 Sr2 2.734267 1_555
O26 S13 1.495407 1_555
O26 Sr2 3.032503 1_555
O27 S4 1.465506 1_555
O28 S6 1.504601 1_555
O29 S1 1.490647 1_555
O29 Sr0 3.110958 1_556
O30 S0 1.501063 1_555
O31 S7 1.466124 1_555
O32 S8 1.492913 1_555
O32 Sr0 2.694406 1_555
O33 S5 1.504601 1_555
O34 S4 1.493399 1_555
O34 Sr1 2.683286 1_554
O35 S5 1.490647 1_555
O35 Sr1 3.110958 1_554
O36 S16 1.493399 1_555
O36 Sr0 2.683286 1_556
O37 S1 1.504601 1_555
O38 S10 1.491343 1_555
O38 Sr2 2.734267 1_665
O39 S5 1.493399 1_555
O39 Sr1 2.683284 1_554
O40 S2 1.492913 1_555
O40 Sr0 2.694412 1_555
O41 S9 1.496154 1_555
O41 Sr1 3.063977 1_555
O42 S0 1.491343 1_555
O42 Sr2 2.734267 1_665
O43 S6 1.465506 1_555
O44 S13 1.501063 1_555
O45 S6 1.490647 1_555
O45 Sr0 3.110943 1_556
O46 S5 1.465506 1_555
O47 S9 1.501788 1_555
O48 S8 1.501788 1_555
O49 S12 1.467465 1_555
O50 S15 1.490647 1_555
O50 Sr1 3.110943 1_554
O51 S2 1.501788 1_555
O52 S7 1.496154 1_555
O52 Sr1 3.063981 1_555
O53 S16 1.504601 1_555
O54 S2 1.466124 1_555
O55 S11 1.467465 1_555
O56 S7 1.492913 1_555
O56 Sr1 2.694404 1_555
O57 S12 1.501063 1_555
O58 S3 1.501788 1_555
O59 S0 1.467465 1_555
O60 S10 1.467465 1_555
O61 S15 1.504601 1_555
O62 S17 1.466124 1_555
O63 S13 1.491343 1_555
O63 Sr2 2.734267 1_555
O64 S11 1.501063 1_555
O65 S11 1.495404 1_555
O65 Sr2 3.032489 1_565
O66 S3 1.496154 1_555
O66 Sr1 3.063991 1_555
O67 S10 1.501063 1_555
O68 S9 1.492913 1_555
O68 Sr1 2.694406 1_555
O69 S10 1.495401 1_555
O69 Sr2 3.032499 1_665
O70 S0 1.495407 1_555
O70 Sr2 3.032503 1_665
O71 S14 1.495401 1_555
O71 Sr2 3.032499 1_555
