# generated using pymatgen
data_Li2FeSiO4
_symmetry_space_group_name_H-M   'P 1'
_cell_length_a   5.10541500
_cell_length_b   8.34659736
_cell_length_c   8.32494228
_cell_angle_alpha   99.14477533
_cell_angle_beta   89.99832551
_cell_angle_gamma   90.00008654
_symmetry_Int_Tables_number   1
_chemical_formula_structural   Li2FeSiO4
_chemical_formula_sum   'Li8 Fe4 Si4 O16'
_cell_volume   350.24056300
_cell_formula_units_Z   4
loop_
 _symmetry_equiv_pos_site_id
 _symmetry_equiv_pos_as_xyz
  1  'x, y, z'
loop_
 _atom_site_type_symbol
 _atom_site_label
 _atom_site_symmetry_multiplicity
 _atom_site_fract_x
 _atom_site_fract_y
 _atom_site_fract_z
 _atom_site_occupancy
  Li  Li0  1  0.59390500  0.42123900  0.91662400  1
  Li  Li1  1  0.67571300  0.92140400  0.41664400  1
  Li  Li2  1  0.09391400  0.57874800  0.08338200  1
  Li  Li3  1  0.17572200  0.07859600  0.58336200  1
  Li  Li4  1  0.07753300  0.33637300  0.33472100  1
  Li  Li5  1  0.69237400  0.16422600  0.16511100  1
  Li  Li6  1  0.57753100  0.66362500  0.66528700  1
  Li  Li7  1  0.19237000  0.83577100  0.83489200  1
  Fe  Fe0  1  0.18707100  0.20683800  0.95691500  1
  Fe  Fe1  1  0.58262000  0.29254000  0.54246900  1
  Fe  Fe2  1  0.68715500  0.79314500  0.04306900  1
  Fe  Fe3  1  0.08254400  0.70749000  0.45751400  1
  Si  Si0  1  0.69229600  0.04036100  0.79140700  1
  Si  Si1  1  0.57721400  0.54084400  0.29155800  1
  Si  Si2  1  0.19231900  0.95964000  0.20859600  1
  Si  Si3  1  0.07722300  0.45915800  0.70843900  1
  O  O0  1  0.17209800  0.31318500  0.56132700  1
  O  O1  1  0.67209600  0.68681400  0.43867500  1
  O  O2  1  0.09769800  0.81352000  0.06157200  1
  O  O3  1  0.59770400  0.18647700  0.93844400  1
  O  O4  1  0.69502700  0.57247200  0.11386200  1
  O  O5  1  0.57430100  0.07207100  0.61381500  1
  O  O6  1  0.07430300  0.92793900  0.38619200  1
  O  O7  1  0.19501300  0.42752300  0.88613500  1
  O  O8  1  0.08626500  0.13715200  0.16957400  1
  O  O9  1  0.58623100  0.86284800  0.83042600  1
  O  O10  1  0.68333600  0.36323100  0.33029900  1
  O  O11  1  0.18333400  0.63677100  0.66969400  1
  O  O12  1  0.75362300  0.46406900  0.71614700  1
  O  O13  1  0.01591500  0.03516700  0.78351700  1
  O  O14  1  0.51592300  0.96482900  0.21647100  1
  O  O15  1  0.25363200  0.53592700  0.28385800  1
loop_
_geom_bond_atom_site_label_1
_geom_bond_atom_site_label_2
_geom_bond_distance
_geom_bond_site_symmetry_2
Li0 O12 1.941058 1_555
Li0 O4 1.974150 1_556
Li0 O3 1.996499 1_555
Li0 O7 2.053973 1_555
Li1 O14 1.940604 1_555
Li1 O5 1.971714 1_565
Li1 O1 1.995495 1_555
Li1 O6 2.052486 1_655
Li2 O15 1.941068 1_555
Li2 O7 1.974116 1_554
Li2 O2 1.996561 1_555
Li2 O4 2.053921 1_455
Li3 O13 1.940476 1_555
Li3 O6 1.971700 1_545
Li3 O0 1.995496 1_555
Li3 O5 2.052443 1_555
Li4 O8 1.982541 1_555
Li4 O0 1.986321 1_555
Li4 O15 1.996487 1_555
Li4 O10 2.025969 1_455
Li5 O10 1.981455 1_555
Li5 O3 1.985013 1_554
Li5 O14 1.997590 1_545
Li5 O8 2.024635 1_655
Li6 O9 1.982514 1_555
Li6 O1 1.986344 1_555
Li6 O12 1.996491 1_555
Li6 O11 2.025958 1_555
Li7 O11 1.981473 1_555
Li7 O2 1.985093 1_556
Li7 O13 1.997649 1_565
Li7 O9 2.024484 1_555
Fe0 O8 2.016099 1_556
Fe0 O7 2.021556 1_555
Fe0 O13 2.059870 1_555
Fe0 O3 2.106968 1_555
Fe1 O10 2.015830 1_555
Fe1 O5 2.021930 1_555
Fe1 O12 2.060225 1_555
Fe1 O0 2.106765 1_555
Fe2 O9 2.016217 1_554
Fe2 O4 2.021501 1_555
Fe2 O14 2.060084 1_555
Fe2 O2 2.106543 1_655
Fe3 O11 2.016131 1_555
Fe3 O6 2.021675 1_555
Fe3 O15 2.060432 1_555
Fe3 O1 2.106406 1_455
O0 Si3 1.656692 1_555
O1 Si1 1.656732 1_555
O2 Si2 1.656636 1_555
O3 Si0 1.656619 1_555
O4 Si1 1.656473 1_555
O5 Si0 1.656254 1_555
O6 Si2 1.656269 1_555
O7 Si3 1.656480 1_555
O8 Si2 1.657378 1_545
O9 Si0 1.657388 1_565
O10 Si1 1.657482 1_555
O11 Si3 1.657468 1_555
O12 Si3 1.653611 1_655
O13 Si0 1.653807 1_455
O14 Si2 1.653729 1_555
O15 Si1 1.653522 1_555
