# generated using pymatgen
data_Nb2Se9
_symmetry_space_group_name_H-M   'P 1'
_cell_length_a   8.36952471
_cell_length_b   8.61899439
_cell_length_c   8.68947948
_cell_angle_alpha   99.89917202
_cell_angle_beta   95.11856605
_cell_angle_gamma   93.17649486
_symmetry_Int_Tables_number   1
_chemical_formula_structural   Nb2Se9
_chemical_formula_sum   'Nb4 Se18'
_cell_volume   613.43616536
_cell_formula_units_Z   2
loop_
 _symmetry_equiv_pos_site_id
 _symmetry_equiv_pos_as_xyz
  1  'x, y, z'
loop_
 _atom_site_type_symbol
 _atom_site_label
 _atom_site_symmetry_multiplicity
 _atom_site_fract_x
 _atom_site_fract_y
 _atom_site_fract_z
 _atom_site_occupancy
  Nb  Nb0  1  0.08841227  0.09733220  0.13805072  1
  Nb  Nb1  1  0.91158773  0.90266780  0.86194928  1
  Nb  Nb2  1  0.41542762  0.36180141  0.39950698  1
  Nb  Nb3  1  0.58457238  0.63819859  0.60049302  1
  Se  Se0  1  0.97391569  0.19030740  0.41060855  1
  Se  Se1  1  0.02608431  0.80969260  0.58939145  1
  Se  Se2  1  0.33455106  0.47981538  0.68340620  1
  Se  Se3  1  0.66544894  0.52018462  0.31659380  1
  Se  Se4  1  0.60792690  0.79549309  0.90609241  1
  Se  Se5  1  0.39207310  0.20450691  0.09390759  1
  Se  Se6  1  0.95745714  0.81135666  0.13943816  1
  Se  Se7  1  0.04254286  0.18864334  0.86056184  1
  Se  Se8  1  0.26476050  0.07875536  0.41021026  1
  Se  Se9  1  0.73523950  0.92124464  0.58978974  1
  Se  Se10  1  0.57052423  0.35106547  0.67523066  1
  Se  Se11  1  0.42947577  0.64893453  0.32476934  1
  Se  Se12  1  0.18112898  0.82135455  0.00078117  1
  Se  Se13  1  0.81887102  0.17864545  -0.00078117  1
  Se  Se14  1  0.90061117  0.60169877  0.69126298  1
  Se  Se15  1  0.09938883  0.39830123  0.30873702  1
  Se  Se16  1  0.54344851  0.09631974  0.28851380  1
  Se  Se17  1  0.45655149  0.90368026  0.71148620  1
loop_
_geom_bond_atom_site_label_1
_geom_bond_atom_site_label_2
_geom_bond_distance
_geom_bond_site_symmetry_2
Nb0 Se6 2.643853 1_445
Nb0 Se0 2.647119 1_455
Nb0 Se13 2.648784 1_455
Nb0 Se12 2.660283 1_545
Nb0 Se7 2.664883 1_554
Nb0 Se8 2.707488 1_555
Nb0 Se5 2.737742 1_555
Nb0 Se15 2.750229 1_555
Nb1 Se7 2.643853 1_665
Nb1 Se1 2.647119 1_655
Nb1 Se12 2.648784 1_656
Nb1 Se13 2.660283 1_566
Nb1 Se6 2.664883 1_556
Nb1 Se9 2.707488 1_555
Nb1 Se4 2.737742 1_555
Nb1 Se14 2.750229 1_555
Nb2 Se10 2.639791 1_555
Nb2 Se16 2.647898 1_555
Nb2 Se3 2.655560 1_555
Nb2 Se2 2.662722 1_555
Nb2 Se11 2.663494 1_555
Nb2 Se8 2.703391 1_555
Nb2 Se15 2.742786 1_555
Nb2 Se5 2.751009 1_555
Nb3 Se11 2.639791 1_555
Nb3 Se17 2.647898 1_555
Nb3 Se2 2.655560 1_555
Nb3 Se3 2.662722 1_555
Nb3 Se10 2.663494 1_555
Nb3 Se9 2.703391 1_555
Nb3 Se14 2.742786 1_555
Nb3 Se4 2.751009 1_555
Se0 Se15 2.367075 1_655
Se0 Se8 2.666393 1_655
Se1 Se14 2.367075 1_455
Se1 Se9 2.666393 1_455
Se10 Se2 2.319018 1_555
Se11 Se3 2.319018 1_555
Se12 Se6 2.320318 1_455
Se13 Se7 2.320318 1_654
Se16 Se5 2.371708 1_555
Se16 Se8 2.652866 1_555
Se17 Se4 2.371708 1_555
Se17 Se9 2.652866 1_555
