# generated using pymatgen
data_Yb5Ag3
_symmetry_space_group_name_H-M   'P 1'
_cell_length_a   9.24356842
_cell_length_b   9.24356842
_cell_length_c   9.24356842
_cell_angle_alpha   129.42471691
_cell_angle_beta   129.42471691
_cell_angle_gamma   74.32813949
_symmetry_Int_Tables_number   1
_chemical_formula_structural   Yb5Ag3
_chemical_formula_sum   'Yb10 Ag6'
_cell_volume   459.38265833
_cell_formula_units_Z   2
loop_
 _symmetry_equiv_pos_site_id
 _symmetry_equiv_pos_as_xyz
  1  'x, y, z'
loop_
 _atom_site_type_symbol
 _atom_site_label
 _atom_site_symmetry_multiplicity
 _atom_site_fract_x
 _atom_site_fract_y
 _atom_site_fract_z
 _atom_site_occupancy
  Yb  Yb0  1  0.81216200  0.97748800  0.50000000  1
  Yb  Yb1  1  0.68783800  0.18783800  0.16532500  1
  Yb  Yb2  1  0.52251200  0.68783800  0.50000000  1
  Yb  Yb3  1  0.02251200  0.52251200  0.83467500  1
  Yb  Yb4  1  0.00000000  0.00000000  0.00000000  1
  Yb  Yb5  1  0.47748800  0.31216200  0.50000000  1
  Yb  Yb6  1  0.31216200  0.81216200  0.83467500  1
  Yb  Yb7  1  0.18783800  0.02251200  0.50000000  1
  Yb  Yb8  1  0.97748800  0.47748800  0.16532500  1
  Yb  Yb9  1  0.50000000  0.50000000  0.00000000  1
  Ag  Ag0  1  0.12946300  0.37053700  0.50000000  1
  Ag  Ag1  1  0.25000000  0.25000000  0.00000000  1
  Ag  Ag2  1  0.87053700  0.62946300  0.50000000  1
  Ag  Ag3  1  0.75000000  0.75000000  0.00000000  1
  Ag  Ag4  1  0.62946300  0.12946300  0.75892600  1
  Ag  Ag5  1  0.37053700  0.87053700  0.24107400  1
loop_
_geom_bond_atom_site_label_1
_geom_bond_atom_site_label_2
_geom_bond_distance
_geom_bond_site_symmetry_2
Ag0 Ag2 2.891704 1_455
Ag0 Yb4 3.099601 1_555
Ag0 Yb9 3.099601 1_556
Ag0 Yb7 3.114866 1_555
Ag0 Yb5 3.114866 1_555
Ag0 Yb6 3.183621 1_555
Ag0 Yb1 3.183621 1_455
Ag0 Yb3 3.183631 1_555
Ag0 Yb8 3.183631 1_455
Ag1 Yb3 3.323935 1_554
Ag1 Yb8 3.323935 1_455
Ag1 Yb0 3.323940 1_444
Ag1 Yb7 3.323940 1_554
Ag1 Yb2 3.323940 1_555
Ag1 Yb5 3.323940 1_555
Ag1 Yb6 3.323942 1_544
Ag1 Yb1 3.323942 1_555
Ag1 Yb4 3.683141 1_555
Ag1 Yb9 3.683141 1_555
Ag2 Yb4 3.099601 1_666
Ag2 Yb9 3.099601 1_555
Ag2 Yb0 3.114866 1_555
Ag2 Yb2 3.114866 1_555
Ag2 Yb1 3.183621 1_555
Ag2 Yb6 3.183621 1_655
Ag2 Yb3 3.183631 1_655
Ag2 Yb8 3.183631 1_555
Ag3 Yb8 3.323935 1_555
Ag3 Yb3 3.323935 1_654
Ag3 Yb0 3.323940 1_555
Ag3 Yb2 3.323940 1_554
Ag3 Yb5 3.323940 1_554
Ag3 Yb7 3.323940 1_665
Ag3 Yb1 3.323942 1_565
Ag3 Yb6 3.323942 1_554
Ag3 Yb4 3.683141 1_665
Ag3 Yb9 3.683141 1_555
Ag4 Ag5 2.891704 1_545
Ag4 Yb9 3.099601 1_556
Ag4 Yb4 3.099601 1_656
Ag4 Yb1 3.114857 1_556
Ag4 Yb8 3.114867 1_556
Ag4 Yb5 3.183623 1_555
Ag4 Yb0 3.183623 1_545
Ag4 Yb7 3.183623 1_555
Ag4 Yb2 3.183623 1_545
Ag5 Yb9 3.099601 1_555
Ag5 Yb4 3.099601 1_565
Ag5 Yb6 3.114857 1_554
Ag5 Yb3 3.114867 1_554
Ag5 Yb7 3.183623 1_565
Ag5 Yb5 3.183623 1_565
Ag5 Yb2 3.183623 1_555
Ag5 Yb0 3.183623 1_555
