# generated using pymatgen
data_AlP3(HO2)6
_symmetry_space_group_name_H-M   'P 1'
_cell_length_a   4.96970500
_cell_length_b   8.10532300
_cell_length_c   11.83902605
_cell_angle_alpha   84.57132720
_cell_angle_beta   90.00000000
_cell_angle_gamma   90.00000000
_symmetry_Int_Tables_number   1
_chemical_formula_structural   AlP3(HO2)6
_chemical_formula_sum   'Al2 P6 H12 O24'
_cell_volume   474.74960205
_cell_formula_units_Z   2
loop_
 _symmetry_equiv_pos_site_id
 _symmetry_equiv_pos_as_xyz
  1  'x, y, z'
loop_
 _atom_site_type_symbol
 _atom_site_label
 _atom_site_symmetry_multiplicity
 _atom_site_fract_x
 _atom_site_fract_y
 _atom_site_fract_z
 _atom_site_occupancy
  Al  Al0  1  0.00000000  0.50000000  0.50000000  1
  Al  Al1  1  0.00000000  0.50000000  0.00000000  1
  P  P0  1  0.76659500  0.50000000  0.25000000  1
  P  P1  1  0.49932700  0.71627600  0.90374800  1
  P  P2  1  0.23340500  0.50000000  0.75000000  1
  P  P3  1  0.49932700  0.28372400  0.59625200  1
  P  P4  1  0.50067300  0.71627600  0.40374800  1
  P  P5  1  0.50067300  0.28372400  0.09625200  1
  H  H0  1  0.35048600  0.97348200  0.37057600  1
  H  H1  1  0.08172600  0.17357600  0.39608600  1
  H  H2  1  0.91827400  0.17357600  0.89608600  1
  H  H3  1  0.64951400  0.97348200  0.87057600  1
  H  H4  1  0.92028400  0.98480900  0.13350200  1
  H  H5  1  0.08172600  0.82642400  0.10391400  1
  H  H6  1  0.92028400  0.01519100  0.36649800  1
  H  H7  1  0.35048600  0.02651800  0.12942400  1
  H  H8  1  0.07971600  0.01519100  0.86649800  1
  H  H9  1  0.91827400  0.82642400  0.60391400  1
  H  H10  1  0.64951400  0.02651800  0.62942400  1
  H  H11  1  0.07971600  0.98480900  0.63350200  1
  O  O0  1  0.46701800  0.90761800  0.87735500  1
  O  O1  1  0.43069800  0.64378400  0.78296000  1
  O  O2  1  0.46701800  0.09238200  0.62264500  1
  O  O3  1  0.53298200  0.09238200  0.12264500  1
  O  O4  1  0.78852500  0.32456500  0.56795500  1
  O  O5  1  0.09580300  0.92958000  0.14014900  1
  O  O6  1  0.09580300  0.07042000  0.35985100  1
  O  O7  1  0.92110800  0.43181200  0.35339100  1
  O  O8  1  0.70789000  0.34967900  0.00966400  1
  O  O9  1  0.70789000  0.65032100  0.49033600  1
  O  O10  1  0.56930200  0.35621600  0.21704000  1
  O  O11  1  0.43069800  0.35621600  0.71704000  1
  O  O12  1  0.21147500  0.67543500  0.43204500  1
  O  O13  1  0.29211000  0.34967900  0.50966400  1
  O  O14  1  0.90419700  0.07042000  0.85985100  1
  O  O15  1  0.90419700  0.92958000  0.64014900  1
  O  O16  1  0.07889200  0.56818800  0.64660900  1
  O  O17  1  0.29211000  0.65032100  0.99033600  1
  O  O18  1  0.78852500  0.67543500  0.93204500  1
  O  O19  1  0.92110800  0.56818800  0.14660900  1
  O  O20  1  0.21147500  0.32456500  0.06795500  1
  O  O21  1  0.53298200  0.90761800  0.37735500  1
  O  O22  1  0.56930200  0.64378400  0.28296000  1
  O  O23  1  0.07889200  0.43181200  0.85339100  1
loop_
_geom_bond_atom_site_label_1
_geom_bond_atom_site_label_2
_geom_bond_distance
_geom_bond_site_symmetry_2
Al0 O4 1.886079 1_455
Al0 O12 1.886079 1_555
Al0 O9 1.891731 1_455
Al0 O13 1.891731 1_555
Al0 O16 1.911380 1_555
Al0 O7 1.911380 1_455
Al1 O20 1.886079 1_555
Al1 O18 1.886079 1_454
Al1 O17 1.891731 1_554
Al1 O8 1.891731 1_455
Al1 O23 1.911380 1_554
Al1 O19 1.911380 1_455
H0 O21 1.051613 1_555
H0 O6 1.488821 1_565
H1 O6 0.977689 1_555
H2 O14 0.977689 1_555
H3 O0 1.051613 1_555
H3 O14 1.488821 1_565
H4 O5 0.980196 1_655
H5 O5 0.977689 1_555
H6 O6 0.980196 1_655
H7 O3 1.051613 1_555
H7 O5 1.488821 1_545
H8 O14 0.980196 1_455
H9 O15 0.977689 1_555
H10 O2 1.051613 1_555
H10 O15 1.488821 1_545
H11 O15 0.980196 1_455
O0 P1 1.561083 1_555
O1 P2 1.599333 1_555
O1 P1 1.632631 1_555
O2 P3 1.561083 1_555
O3 P5 1.561083 1_555
O4 P3 1.505475 1_555
O7 P0 1.505124 1_555
O8 P5 1.514418 1_555
O9 P4 1.514418 1_555
O10 P0 1.599333 1_555
O10 P5 1.632631 1_555
O11 P2 1.599333 1_555
O11 P3 1.632631 1_555
O12 P4 1.505475 1_555
O13 P3 1.514418 1_555
O16 P2 1.505124 1_555
O17 P1 1.514418 1_555
O18 P1 1.505475 1_555
O19 P0 1.505124 1_555
O20 P5 1.505475 1_555
O21 P4 1.561083 1_555
O22 P0 1.599333 1_555
O22 P4 1.632631 1_555
O23 P2 1.505124 1_555
