# generated using pymatgen
data_K2Na2IrO4
_symmetry_space_group_name_H-M   'P 1'
_cell_length_a   11.29738800
_cell_length_b   6.08761600
_cell_length_c   9.45531088
_cell_angle_alpha   67.05554404
_cell_angle_beta   90.00000000
_cell_angle_gamma   90.00000000
_symmetry_Int_Tables_number   1
_chemical_formula_structural   K2Na2IrO4
_chemical_formula_sum   'K8 Na8 Ir4 O16'
_cell_volume   598.83291013
_cell_formula_units_Z   4
loop_
 _symmetry_equiv_pos_site_id
 _symmetry_equiv_pos_as_xyz
  1  'x, y, z'
loop_
 _atom_site_type_symbol
 _atom_site_label
 _atom_site_symmetry_multiplicity
 _atom_site_fract_x
 _atom_site_fract_y
 _atom_site_fract_z
 _atom_site_occupancy
  K  K0  1  0.36257100  0.33427000  0.50251600  1
  K  K1  1  0.63437300  0.34231900  0.27887300  1
  K  K2  1  0.36562700  0.65768100  0.72112700  1
  K  K3  1  0.13437300  0.65768100  0.22112700  1
  K  K4  1  0.86562700  0.34231900  0.77887300  1
  K  K5  1  0.63742900  0.66573000  0.49748400  1
  K  K6  1  0.13742900  0.33427000  0.00251600  1
  K  K7  1  0.86257100  0.66573000  0.99748400  1
  Na  Na0  1  0.11282700  0.06812600  0.40510700  1
  Na  Na1  1  0.60843500  0.43445500  0.90577700  1
  Na  Na2  1  0.39156500  0.56554500  0.09422300  1
  Na  Na3  1  0.61282700  0.93187400  0.09489300  1
  Na  Na4  1  0.89156500  0.43445500  0.40577700  1
  Na  Na5  1  0.38717300  0.06812600  0.90510700  1
  Na  Na6  1  0.10843500  0.56554500  0.59422300  1
  Na  Na7  1  0.88717300  0.93187400  0.59489300  1
  Ir  Ir0  1  0.37015300  0.98600200  0.27088100  1
  Ir  Ir1  1  0.62984700  0.01399800  0.72911900  1
  Ir  Ir2  1  0.12984700  0.98600200  0.77088100  1
  Ir  Ir3  1  0.87015300  0.01399800  0.22911900  1
  O  O0  1  0.53479900  0.28190700  0.72422200  1
  O  O1  1  0.03479900  0.71809300  0.77577800  1
  O  O2  1  0.73035000  0.22142400  0.56644400  1
  O  O3  1  0.76965000  0.22142400  0.06644400  1
  O  O4  1  0.46512400  0.20121900  0.10101000  1
  O  O5  1  0.96512400  0.79878100  0.39899000  1
  O  O6  1  0.46520100  0.71809300  0.27577800  1
  O  O7  1  0.03487600  0.20121900  0.60101000  1
  O  O8  1  0.77545500  0.74310800  0.23864700  1
  O  O9  1  0.22454500  0.25689200  0.76135300  1
  O  O10  1  0.27545500  0.25689200  0.26135300  1
  O  O11  1  0.53487600  0.79878100  0.89899000  1
  O  O12  1  0.72454500  0.74310800  0.73864700  1
  O  O13  1  0.26965000  0.77857600  0.43355600  1
  O  O14  1  0.23035000  0.77857600  0.93355600  1
  O  O15  1  0.96520100  0.28190700  0.22422200  1
loop_
_geom_bond_atom_site_label_1
_geom_bond_atom_site_label_2
_geom_bond_distance
_geom_bond_site_symmetry_2
K0 O10 2.688420 1_555
K0 O13 2.732739 1_555
K0 O6 2.737597 1_555
K0 O9 2.782851 1_555
K0 O0 2.785845 1_555
K1 O2 2.747807 1_555
K1 O8 2.813250 1_555
K1 O3 2.839758 1_555
K1 O4 2.889361 1_555
K1 O6 2.972258 1_555
K2 O13 2.747807 1_555
K2 O9 2.813250 1_555
K2 O14 2.839758 1_555
K2 O11 2.889361 1_555
K2 O0 2.972258 1_555
K3 O14 2.747807 1_554
K3 O10 2.813250 1_555
K3 O13 2.839758 1_555
K3 O5 2.889361 1_455
K3 O15 2.972258 1_455
K4 O3 2.747807 1_556
K4 O12 2.813250 1_555
K4 O2 2.839758 1_555
K4 O7 2.889361 1_655
K4 O1 2.972258 1_655
K5 O12 2.688420 1_555
K5 O2 2.732739 1_555
K5 O0 2.737597 1_555
K5 O8 2.782851 1_555
K5 O6 2.785845 1_555
K6 O9 2.688420 1_554
K6 O14 2.732739 1_554
K6 O1 2.737597 1_554
K6 O10 2.782851 1_555
K6 O15 2.785845 1_455
K7 O8 2.688420 1_556
K7 O3 2.732739 1_556
K7 O15 2.737597 1_556
K7 O12 2.782851 1_555
K7 O1 2.785845 1_655
Na0 O10 2.307768 1_555
Na0 O5 2.355891 1_445
Na0 O15 2.380120 1_455
Na0 O13 2.438968 1_545
Na0 O7 2.456261 1_555
Na1 O12 2.330951 1_555
Na1 O11 2.345789 1_555
Na1 O0 2.396729 1_555
Na1 O3 2.402242 1_556
Na1 O4 2.449773 1_556
Na2 O10 2.330951 1_555
Na2 O4 2.345789 1_555
Na2 O6 2.396729 1_555
Na2 O14 2.402242 1_554
Na2 O11 2.449773 1_554
Na3 O8 2.307768 1_555
Na3 O4 2.355891 1_565
Na3 O6 2.380120 1_555
Na3 O3 2.438968 1_565
Na3 O11 2.456261 1_554
Na4 O8 2.330951 1_555
Na4 O5 2.345789 1_555
Na4 O15 2.396729 1_555
Na4 O2 2.402242 1_555
Na4 O7 2.449773 1_655
Na5 O9 2.307768 1_555
Na5 O11 2.355891 1_545
Na5 O0 2.380120 1_555
Na5 O14 2.438968 1_545
Na5 O4 2.456261 1_556
Na6 O9 2.330951 1_555
Na6 O7 2.345789 1_555
Na6 O1 2.396729 1_555
Na6 O13 2.402242 1_555
Na6 O5 2.449773 1_455
Na7 O12 2.307768 1_555
Na7 O7 2.355891 1_665
Na7 O1 2.380120 1_655
Na7 O2 2.438968 1_565
Na7 O5 2.456261 1_555
Ir0 O13 1.932671 1_555
Ir0 O6 1.938098 1_555
Ir0 O10 1.938114 1_565
Ir0 O4 1.951099 1_565
Ir1 O2 1.932671 1_555
Ir1 O0 1.938098 1_555
Ir1 O12 1.938114 1_545
Ir1 O11 1.951099 1_545
Ir2 O14 1.932671 1_555
Ir2 O1 1.938098 1_555
Ir2 O9 1.938114 1_565
Ir2 O7 1.951099 1_565
Ir3 O3 1.932671 1_555
Ir3 O15 1.938098 1_555
Ir3 O8 1.938114 1_545
Ir3 O5 1.951099 1_545
