# generated using pymatgen
data_Zn3TeAs2Pb3O14
_symmetry_space_group_name_H-M   'P 1'
_cell_length_a   8.55367542
_cell_length_b   8.55367542
_cell_length_c   5.25045002
_cell_angle_alpha   90.00000000
_cell_angle_beta   90.00000000
_cell_angle_gamma   119.99999862
_symmetry_Int_Tables_number   1
_chemical_formula_structural   Zn3TeAs2Pb3O14
_chemical_formula_sum   'Zn3 Te1 As2 Pb3 O14'
_cell_volume   332.68460123
_cell_formula_units_Z   1
loop_
 _symmetry_equiv_pos_site_id
 _symmetry_equiv_pos_as_xyz
  1  'x, y, z'
loop_
 _atom_site_type_symbol
 _atom_site_label
 _atom_site_symmetry_multiplicity
 _atom_site_fract_x
 _atom_site_fract_y
 _atom_site_fract_z
 _atom_site_occupancy
  Zn  Zn0  1  0.24116379  -0.00000000  0.50000000  1
  Zn  Zn1  1  0.75883621  0.75883621  0.50000000  1
  Zn  Zn2  1  -0.00000000  0.24116379  0.50000000  1
  Te  Te0  1  -0.00000000  -0.00000000  0.00000000  1
  As  As0  1  0.33333300  0.66666700  0.54490133  1
  As  As1  1  0.66666700  0.33333300  0.45509867  1
  Pb  Pb0  1  0.60022640  1.00000000  0.00000000  1
  Pb  Pb1  1  0.39977360  0.39977360  0.00000000  1
  Pb  Pb2  1  1.00000000  0.60022640  0.00000000  1
  O  O0  1  0.53956637  0.72927060  0.67475591  1
  O  O1  1  0.46043363  0.18970422  0.32524409  1
  O  O2  1  0.12284464  0.21160276  0.21126855  1
  O  O3  1  0.27072940  0.81029578  0.67475591  1
  O  O4  1  0.08875812  0.87715536  0.21126855  1
  O  O5  1  0.91124188  0.78839724  0.78873145  1
  O  O6  1  0.66666700  0.33333300  0.77582604  1
  O  O7  1  0.87715536  0.08875812  0.78873145  1
  O  O8  1  0.18970422  0.46043363  0.67475591  1
  O  O9  1  0.78839724  0.91124188  0.21126855  1
  O  O10  1  0.33333300  0.66666700  0.22417396  1
  O  O11  1  0.21160276  0.12284464  0.78873145  1
  O  O12  1  0.81029578  0.27072940  0.32524409  1
  O  O13  1  0.72927060  0.53956637  0.32524409  1
loop_
_geom_bond_atom_site_label_1
_geom_bond_atom_site_label_2
_geom_bond_distance
_geom_bond_site_symmetry_2
As0 O10 1.683963 1_555
As0 O3 1.708455 1_555
As0 O8 1.708461 1_555
As0 O0 1.708463 1_555
As1 O6 1.683963 1_555
As1 O12 1.708455 1_555
As1 O1 1.708461 1_555
As1 O13 1.708463 1_555
O0 Zn1 1.987276 1_555
O0 Pb0 2.710432 1_556
O1 Zn0 1.987276 1_555
O1 Pb1 2.710432 1_555
O2 Te0 1.925805 1_555
O2 Zn2 1.931818 1_555
O2 Pb1 2.370546 1_555
O3 Zn0 1.987276 1_565
O3 Pb2 2.710432 1_456
O4 Te0 1.925805 1_565
O4 Zn0 1.931818 1_565
O4 Pb2 2.370546 1_455
O5 Te0 1.925805 1_666
O5 Zn1 1.931818 1_555
O5 Pb2 2.370546 1_556
O7 Te0 1.925805 1_656
O7 Zn2 1.931818 1_655
O7 Pb0 2.370546 1_546
O8 Zn2 1.987276 1_555
O8 Pb1 2.710432 1_556
O9 Te0 1.925805 1_665
O9 Zn1 1.931818 1_555
O9 Pb0 2.370546 1_555
O11 Te0 1.925805 1_556
O11 Zn0 1.931818 1_555
O11 Pb1 2.370546 1_556
O12 Zn2 1.987276 1_655
O12 Pb0 2.710432 1_545
O13 Zn1 1.987276 1_555
O13 Pb2 2.710432 1_555
