# generated using pymatgen
data_ZnS
_symmetry_space_group_name_H-M   'P 1'
_cell_length_a   9.60665599
_cell_length_b   9.60665593
_cell_length_c   9.60665543
_cell_angle_alpha   22.85165843
_cell_angle_beta   22.85166225
_cell_angle_gamma   22.85166008
_symmetry_Int_Tables_number   1
_chemical_formula_structural   ZnS
_chemical_formula_sum   'Zn3 S3'
_cell_volume   117.32830780
_cell_formula_units_Z   3
loop_
 _symmetry_equiv_pos_site_id
 _symmetry_equiv_pos_as_xyz
  1  'x, y, z'
loop_
 _atom_site_type_symbol
 _atom_site_label
 _atom_site_symmetry_multiplicity
 _atom_site_fract_x
 _atom_site_fract_y
 _atom_site_fract_z
 _atom_site_occupancy
  Zn  Zn0  1  0.99997114  0.99997114  0.99997114  1
  Zn  Zn1  1  0.22226941  0.22226941  0.22226941  1
  Zn  Zn2  1  0.44461344  0.44461344  0.44461344  1
  S  S0  1  0.08326717  0.08326717  0.08326717  1
  S  S1  1  0.52784230  0.52784230  0.52784230  1
  S  S2  1  0.30536254  0.30536254  0.30536254  1
loop_
_geom_bond_atom_site_label_1
_geom_bond_atom_site_label_2
_geom_bond_distance
_geom_bond_site_symmetry_2
S0 Zn2 2.333792 1_545
S0 Zn2 2.333793 1_554
S0 Zn2 2.333793 1_455
S0 Zn0 2.336940 1_444
S1 Zn1 2.331416 1_556
S1 Zn1 2.331416 1_565
S1 Zn1 2.331417 1_655
S1 Zn2 2.335056 1_555
S2 Zn1 2.331248 1_555
S2 Zn0 2.333122 1_445
S2 Zn0 2.333122 1_454
S2 Zn0 2.333123 1_544
