# generated using pymatgen
data_Mo3Pd2N
_symmetry_space_group_name_H-M   'P 1'
_cell_length_a   6.83050757
_cell_length_b   6.83050757
_cell_length_c   6.83050757
_cell_angle_alpha   90.00000000
_cell_angle_beta   90.00000000
_cell_angle_gamma   90.00000000
_symmetry_Int_Tables_number   1
_chemical_formula_structural   Mo3Pd2N
_chemical_formula_sum   'Mo12 Pd8 N4'
_cell_volume   318.68302503
_cell_formula_units_Z   4
loop_
 _symmetry_equiv_pos_site_id
 _symmetry_equiv_pos_as_xyz
  1  'x, y, z'
loop_
 _atom_site_type_symbol
 _atom_site_label
 _atom_site_symmetry_multiplicity
 _atom_site_fract_x
 _atom_site_fract_y
 _atom_site_fract_z
 _atom_site_occupancy
  Mo  Mo0  1  0.79752377  0.04752377  0.12500000  1
  Mo  Mo1  1  0.04752377  0.12500000  0.79752377  1
  Mo  Mo2  1  0.54752377  0.37500000  0.20247623  1
  Mo  Mo3  1  0.87500000  0.29752377  0.45247623  1
  Mo  Mo4  1  0.12500000  0.79752377  0.04752377  1
  Mo  Mo5  1  0.20247623  0.54752377  0.37500000  1
  Mo  Mo6  1  0.29752377  0.45247623  0.87500000  1
  Mo  Mo7  1  0.45247623  0.87500000  0.29752377  1
  Mo  Mo8  1  0.62500000  0.70247623  0.95247623  1
  Mo  Mo9  1  0.95247623  0.62500000  0.70247623  1
  Mo  Mo10  1  0.37500000  0.20247623  0.54752377  1
  Mo  Mo11  1  0.70247623  0.95247623  0.62500000  1
  Pd  Pd0  1  0.18940242  0.18940242  0.18940242  1
  Pd  Pd1  1  0.43940242  0.06059758  0.93940242  1
  Pd  Pd2  1  0.93940242  0.43940242  0.06059758  1
  Pd  Pd3  1  0.06059758  0.93940242  0.43940242  1
  Pd  Pd4  1  0.31059758  0.81059758  0.68940242  1
  Pd  Pd5  1  0.68940242  0.31059758  0.81059758  1
  Pd  Pd6  1  0.81059758  0.68940242  0.31059758  1
  Pd  Pd7  1  0.56059758  0.56059758  0.56059758  1
  N  N0  1  0.87500000  0.87500000  0.87500000  1
  N  N1  1  0.12500000  0.37500000  0.62500000  1
  N  N2  1  0.62500000  0.12500000  0.37500000  1
  N  N3  1  0.37500000  0.62500000  0.12500000  1
loop_
_geom_bond_atom_site_label_1
_geom_bond_atom_site_label_2
_geom_bond_distance
_geom_bond_site_symmetry_2
Mo0 N0 2.141198 1_544
Mo0 N2 2.141198 1_555
Mo0 Pd1 2.756584 1_554
Mo0 Pd6 2.756584 1_545
Mo0 Pd0 2.880548 1_655
Mo0 Pd2 2.880548 1_555
Mo0 Pd5 2.895901 1_554
Mo0 Pd3 2.895901 1_645
Mo1 N1 2.141198 1_555
Mo1 N0 2.141198 1_445
Mo1 Pd3 2.756584 1_545
Mo1 Pd5 2.756584 1_455
Mo1 Pd0 2.880548 1_556
Mo1 Pd1 2.880548 1_555
Mo1 Pd4 2.895901 1_545
Mo1 Pd2 2.895901 1_456
Mo2 N3 2.141198 1_555
Mo2 N2 2.141198 1_555
Mo2 Pd0 2.756584 1_555
Mo2 Pd7 2.756584 1_555
Mo2 Pd5 2.880548 1_554
Mo2 Pd2 2.880548 1_555
Mo2 Pd6 2.895901 1_555
Mo2 Pd1 2.895901 1_554
Mo3 N1 2.141198 1_655
Mo3 N2 2.141198 1_555
Mo3 Pd3 2.756584 1_645
Mo3 Pd5 2.756584 1_555
Mo3 Pd6 2.880548 1_555
Mo3 Pd2 2.880548 1_555
Mo3 Pd7 2.895901 1_555
Mo3 Pd0 2.895901 1_655
Mo4 N0 2.141198 1_454
Mo4 N3 2.141198 1_555
Mo4 Pd2 2.756584 1_455
Mo4 Pd4 2.756584 1_554
Mo4 Pd0 2.880548 1_565
Mo4 Pd3 2.880548 1_555
Mo4 Pd6 2.895901 1_455
Mo4 Pd1 2.895901 1_564
Mo5 N1 2.141198 1_555
Mo5 N3 2.141198 1_555
Mo5 Pd0 2.756584 1_555
Mo5 Pd7 2.756584 1_555
Mo5 Pd6 2.880548 1_455
Mo5 Pd3 2.880548 1_555
Mo5 Pd4 2.895901 1_555
Mo5 Pd2 2.895901 1_455
Mo6 N3 2.141198 1_556
Mo6 N1 2.141198 1_555
Mo6 Pd2 2.756584 1_456
Mo6 Pd4 2.756584 1_555
Mo6 Pd1 2.880548 1_555
Mo6 Pd5 2.880548 1_555
Mo6 Pd0 2.895901 1_556
Mo6 Pd7 2.895901 1_555
Mo7 N3 2.141198 1_555
Mo7 N2 2.141198 1_565
Mo7 Pd1 2.756584 1_564
Mo7 Pd6 2.756584 1_555
Mo7 Pd4 2.880548 1_555
Mo7 Pd3 2.880548 1_555
Mo7 Pd7 2.895901 1_555
Mo7 Pd0 2.895901 1_565
Mo8 N0 2.141198 1_555
Mo8 N3 2.141198 1_556
Mo8 Pd1 2.756584 1_565
Mo8 Pd6 2.756584 1_556
Mo8 Pd7 2.880548 1_555
Mo8 Pd5 2.880548 1_555
Mo8 Pd2 2.895901 1_556
Mo8 Pd4 2.895901 1_555
Mo9 N1 2.141198 1_655
Mo9 N0 2.141198 1_555
Mo9 Pd2 2.756584 1_556
Mo9 Pd4 2.756584 1_655
Mo9 Pd7 2.880548 1_555
Mo9 Pd6 2.880548 1_555
Mo9 Pd3 2.895901 1_655
Mo9 Pd5 2.895901 1_555
Mo10 N1 2.141198 1_555
Mo10 N2 2.141198 1_555
Mo10 Pd0 2.756584 1_555
Mo10 Pd7 2.756584 1_555
Mo10 Pd4 2.880548 1_545
Mo10 Pd1 2.880548 1_555
Mo10 Pd5 2.895901 1_555
Mo10 Pd3 2.895901 1_545
Mo11 N2 2.141198 1_565
Mo11 N0 2.141198 1_555
Mo11 Pd3 2.756584 1_655
Mo11 Pd5 2.756584 1_565
Mo11 Pd7 2.880548 1_555
Mo11 Pd4 2.880548 1_555
Mo11 Pd1 2.895901 1_565
Mo11 Pd6 2.895901 1_555
Pd0 Pd1 2.570220 1_554
Pd0 Pd2 2.570220 1_455
Pd0 Pd3 2.570220 1_545
Pd1 Pd5 2.570220 1_555
Pd1 Pd4 2.570220 1_545
Pd2 Pd6 2.570220 1_555
Pd2 Pd5 2.570220 1_554
Pd3 Pd4 2.570220 1_555
Pd3 Pd6 2.570220 1_455
Pd4 Pd7 2.570220 1_555
Pd5 Pd7 2.570220 1_555
Pd6 Pd7 2.570220 1_555
