# generated using pymatgen
data_Ti7O13
_symmetry_space_group_name_H-M   'P 1'
_cell_length_a   5.54886445
_cell_length_b   7.12903282
_cell_length_c   11.32792235
_cell_angle_alpha   83.81468465
_cell_angle_beta   89.27025124
_cell_angle_gamma   71.55016940
_symmetry_Int_Tables_number   1
_chemical_formula_structural   Ti7O13
_chemical_formula_sum   'Ti14 O26'
_cell_volume   422.49502709
_cell_formula_units_Z   2
loop_
 _symmetry_equiv_pos_site_id
 _symmetry_equiv_pos_as_xyz
  1  'x, y, z'
loop_
 _atom_site_type_symbol
 _atom_site_label
 _atom_site_symmetry_multiplicity
 _atom_site_fract_x
 _atom_site_fract_y
 _atom_site_fract_z
 _atom_site_occupancy
  Ti  Ti0  1  0.21105560  0.28814424  0.55204434  1
  Ti  Ti1  1  0.78900071  0.01401874  0.70548116  1
  Ti  Ti2  1  0.38790785  0.76365062  0.85574371  1
  Ti  Ti3  1  0.79594858  0.21102522  0.44189021  1
  Ti  Ti4  1  0.20405142  0.78897478  0.55810979  1
  Ti  Ti5  1  0.21286777  0.48857252  0.29221292  1
  Ti  Ti6  1  0.78894440  0.71185576  0.44795566  1
  Ti  Ti7  1  0.21099929  0.98598126  0.29451884  1
  Ti  Ti8  1  -0.00000000  0.00000000  -0.00000000  1
  Ti  Ti9  1  0.60531931  0.73998622  0.14778096  1
  Ti  Ti10  1  0.78713223  0.51142748  0.70778708  1
  Ti  Ti11  1  -0.00000000  0.50000000  -0.00000000  1
  Ti  Ti12  1  0.39468069  0.26001378  0.85221904  1
  Ti  Ti13  1  0.61209215  0.23634938  0.14425629  1
  O  O0  1  0.67944379  0.28818650  0.75061740  1
  O  O1  1  0.57184044  0.31412039  0.31569147  1
  O  O2  1  0.94259292  0.92908338  0.40838514  1
  O  O3  1  0.14943484  0.36750491  0.70572574  1
  O  O4  1  0.42815956  0.68587961  0.68430853  1
  O  O5  1  0.50225539  0.00426125  0.20508902  1
  O  O6  1  0.36587806  0.83150681  0.01438199  1
  O  O7  1  0.85056516  0.63249509  0.29427426  1
  O  O8  1  0.71863409  0.47210350  0.10007897  1
  O  O9  1  0.75765569  0.59683787  0.85965496  1
  O  O10  1  0.63412194  0.16849319  0.98561801  1
  O  O11  1  0.44545340  0.84473720  0.44395510  1
  O  O12  1  0.88768931  0.76686767  0.05175779  1
  O  O13  1  0.24234431  0.40316213  0.14034504  1
  O  O14  1  0.28136591  0.52789650  0.89992103  1
  O  O15  1  0.55454660  0.15526280  0.55604490  1
  O  O16  1  0.80066672  0.44954527  0.52795681  1
  O  O17  1  0.05740708  0.07091662  0.59161486  1
  O  O18  1  0.96731984  0.07639139  0.16812537  1
  O  O19  1  0.12791792  0.23949198  0.37766007  1
  O  O20  1  0.19933328  0.55045473  0.47204319  1
  O  O21  1  0.11231069  0.23313233  0.94824221  1
  O  O22  1  0.87208208  0.76050802  0.62233993  1
  O  O23  1  0.03268016  0.92360861  0.83187463  1
  O  O24  1  0.32055621  0.71181350  0.24938260  1
  O  O25  1  0.49774461  0.99573875  0.79491098  1
loop_
_geom_bond_atom_site_label_1
_geom_bond_atom_site_label_2
_geom_bond_distance
_geom_bond_site_symmetry_2
O0 Ti10 1.885063 1_555
O0 Ti1 1.976518 1_555
O0 Ti12 1.991602 1_555
O1 Ti3 1.835928 1_555
O1 Ti5 1.989806 1_555
O1 Ti13 2.066701 1_555
O2 Ti3 1.991854 1_565
O2 Ti6 2.000604 1_555
O2 Ti7 2.065710 1_655
O2 Ti4 2.181639 1_655
O3 Ti0 1.882111 1_555
O3 Ti10 1.947626 1_455
O3 Ti12 2.077587 1_555
O4 Ti4 1.835928 1_555
O4 Ti10 1.989806 1_555
O4 Ti2 2.066701 1_555
O5 Ti7 1.928296 1_545
O5 Ti9 1.967276 1_545
O5 Ti13 1.991427 1_555
O6 Ti2 1.903318 1_554
O6 Ti9 1.940224 1_555
O6 Ti8 2.003460 1_565
O7 Ti6 1.882111 1_555
O7 Ti5 1.947626 1_655
O7 Ti9 2.077587 1_555
O8 Ti9 1.946318 1_555
O8 Ti13 1.965912 1_555
O8 Ti11 1.966009 1_655
O9 Ti10 1.874199 1_555
O9 Ti11 2.010667 1_656
O9 Ti2 2.017975 1_555
O10 Ti13 1.903318 1_556
O10 Ti12 1.940224 1_555
O10 Ti8 2.003460 1_656
O11 Ti6 1.839118 1_555
O11 Ti4 1.951065 1_555
O11 Ti7 2.105141 1_555
O12 Ti9 1.943347 1_555
O12 Ti11 1.957622 1_655
O12 Ti8 1.982598 1_665
O13 Ti5 1.874199 1_555
O13 Ti11 2.010667 1_555
O13 Ti13 2.017975 1_555
O14 Ti12 1.946318 1_555
O14 Ti2 1.965912 1_555
O14 Ti11 1.966009 1_556
O15 Ti0 1.839118 1_555
O15 Ti3 1.951065 1_555
O15 Ti1 2.105141 1_555
O16 Ti6 1.970231 1_555
O16 Ti3 2.056384 1_555
O16 Ti10 2.125757 1_555
O16 Ti0 2.207652 1_655
O17 Ti4 1.991854 1_545
O17 Ti0 2.000604 1_555
O17 Ti1 2.065710 1_455
O17 Ti3 2.181639 1_455
O18 Ti7 1.895399 1_645
O18 Ti13 1.945045 1_555
O18 Ti8 2.027025 1_655
O19 Ti3 2.033320 1_455
O19 Ti7 2.047977 1_545
O19 Ti5 2.111875 1_555
O19 Ti0 2.123087 1_555
O20 Ti0 1.970231 1_555
O20 Ti4 2.056384 1_555
O20 Ti5 2.125757 1_555
O20 Ti6 2.207652 1_455
O21 Ti12 1.943347 1_555
O21 Ti11 1.957622 1_556
O21 Ti8 1.982598 1_556
O22 Ti4 2.033320 1_655
O22 Ti1 2.047977 1_565
O22 Ti10 2.111875 1_555
O22 Ti6 2.123087 1_555
O23 Ti1 1.895399 1_465
O23 Ti2 1.945045 1_555
O23 Ti8 2.027025 1_566
O24 Ti5 1.885063 1_555
O24 Ti7 1.976518 1_555
O24 Ti9 1.991602 1_555
O25 Ti1 1.928296 1_565
O25 Ti12 1.967276 1_565
O25 Ti2 1.991427 1_555
