# generated using pymatgen
data_CuH8C2(N6Cl)2
_symmetry_space_group_name_H-M   'P 1'
_cell_length_a   6.81053100
_cell_length_b   6.70956800
_cell_length_c   12.32194838
_cell_angle_alpha   84.37605196
_cell_angle_beta   90.00000000
_cell_angle_gamma   90.00000000
_symmetry_Int_Tables_number   1
_chemical_formula_structural   CuH8C2(N6Cl)2
_chemical_formula_sum   'Cu2 H16 C4 N24 Cl4'
_cell_volume   560.35003737
_cell_formula_units_Z   2
loop_
 _symmetry_equiv_pos_site_id
 _symmetry_equiv_pos_as_xyz
  1  'x, y, z'
loop_
 _atom_site_type_symbol
 _atom_site_label
 _atom_site_symmetry_multiplicity
 _atom_site_fract_x
 _atom_site_fract_y
 _atom_site_fract_z
 _atom_site_occupancy
  Cu  Cu0  1  0.00000000  0.00000000  0.00000000  1
  Cu  Cu1  1  0.50000000  0.00000000  0.50000000  1
  H  H0  1  0.66703000  0.40090500  0.58073500  1
  H  H1  1  0.63124500  0.28471700  0.04160100  1
  H  H2  1  0.83297000  0.40090500  0.08073500  1
  H  H3  1  0.13124500  0.71528300  0.45839900  1
  H  H4  1  0.85706100  0.79509200  0.79279100  1
  H  H5  1  0.16712700  0.11296300  0.34414800  1
  H  H6  1  0.33287300  0.11296300  0.84414800  1
  H  H7  1  0.83287300  0.88703700  0.65585200  1
  H  H8  1  0.66712700  0.88703700  0.15585200  1
  H  H9  1  0.16703000  0.59909500  0.91926500  1
  H  H10  1  0.35706100  0.20490800  0.70720900  1
  H  H11  1  0.36875500  0.71528300  0.95839900  1
  H  H12  1  0.86875500  0.28471700  0.54160100  1
  H  H13  1  0.14293900  0.20490800  0.20720900  1
  H  H14  1  0.33297000  0.59909500  0.41926500  1
  H  H15  1  0.64293900  0.79509200  0.29279100  1
  C  C0  1  0.86896200  0.09637500  0.76492700  1
  C  C1  1  0.36896200  0.90362500  0.73507300  1
  C  C2  1  0.63103800  0.09637500  0.26492700  1
  C  C3  1  0.13103800  0.90362500  0.23507300  1
  N  N0  1  0.58091400  0.15627100  0.36252400  1
  N  N1  1  0.25175800  0.72582400  0.90530100  1
  N  N2  1  0.40024500  0.64066400  0.64485600  1
  N  N3  1  0.74824200  0.27417600  0.09469900  1
  N  N4  1  0.24824200  0.72582400  0.40530100  1
  N  N5  1  0.65404600  0.42787800  0.25845200  1
  N  N6  1  0.62752800  0.91136700  0.23381800  1
  N  N7  1  0.15404600  0.57212200  0.24154800  1
  N  N8  1  0.87247200  0.91136700  0.73381800  1
  N  N9  1  0.12752800  0.08863300  0.26618200  1
  N  N10  1  0.75175800  0.27417600  0.59469900  1
  N  N11  1  0.34595400  0.57212200  0.74154800  1
  N  N12  1  0.82369400  0.26575000  0.70041400  1
  N  N13  1  0.90024500  0.35933600  0.85514400  1
  N  N14  1  0.17630600  0.73425000  0.29958600  1
  N  N15  1  0.84595400  0.42787800  0.75845200  1
  N  N16  1  0.37247200  0.08863300  0.76618200  1
  N  N17  1  0.41908600  0.84372900  0.63747600  1
  N  N18  1  0.32369400  0.73425000  0.79958600  1
  N  N19  1  0.59975500  0.35933600  0.35514400  1
  N  N20  1  0.67630600  0.26575000  0.20041400  1
  N  N21  1  0.91908600  0.15627100  0.86252400  1
  N  N22  1  0.08091400  0.84372900  0.13747600  1
  N  N23  1  0.09975500  0.64066400  0.14485600  1
  Cl  Cl0  1  0.76973700  0.78719600  0.48663200  1
  Cl  Cl1  1  0.23026300  0.21280400  0.51336800  1
  Cl  Cl2  1  0.26973700  0.21280400  0.01336800  1
  Cl  Cl3  1  0.73026300  0.78719600  0.98663200  1
loop_
_geom_bond_atom_site_label_1
_geom_bond_atom_site_label_2
_geom_bond_distance
_geom_bond_site_symmetry_2
Cu0 N22 1.981028 1_545
Cu0 N21 1.981028 1_454
Cu1 N0 1.981028 1_555
Cu1 N17 1.981028 1_545
H0 N10 1.028063 1_555
H1 N3 1.029034 1_555
H2 N3 1.028063 1_555
H3 N4 1.029034 1_555
H4 N8 1.018127 1_555
H5 N9 1.026182 1_555
H6 N16 1.026182 1_555
H7 N8 1.026182 1_555
H8 N6 1.026182 1_555
H9 N1 1.028063 1_555
H10 N16 1.018127 1_555
H11 N1 1.029034 1_555
H12 N10 1.029034 1_555
H13 N9 1.018127 1_555
H14 N4 1.028063 1_555
H15 N6 1.018127 1_555
C0 N8 1.334786 1_545
C0 N21 1.348693 1_555
C0 N12 1.356973 1_555
C1 N16 1.334786 1_565
C1 N17 1.348693 1_555
C1 N18 1.356973 1_555
C2 N6 1.334786 1_545
C2 N0 1.348693 1_555
C2 N20 1.356973 1_555
C3 N9 1.334786 1_565
C3 N22 1.348693 1_555
C3 N14 1.356973 1_555
N0 N19 1.362644 1_555
N1 N18 1.387657 1_555
N10 N12 1.387657 1_555
N11 N2 1.288540 1_555
N11 N18 1.367557 1_555
N12 N15 1.367557 1_555
N13 N15 1.288540 1_555
N13 N21 1.362644 1_555
N14 N7 1.367557 1_555
N14 N4 1.387657 1_555
N17 N2 1.362644 1_555
N19 N5 1.288540 1_555
N20 N5 1.367557 1_555
N20 N3 1.387657 1_555
N22 N23 1.362644 1_555
N23 N7 1.288540 1_555
Cl0 Cu1 2.342364 1_565
Cl1 Cu1 2.342364 1_555
Cl2 Cu0 2.342364 1_555
Cl3 Cu0 2.342364 1_666
