# generated using pymatgen
data_Ag2Hg2(TeO4)3
_symmetry_space_group_name_H-M   'P 1'
_cell_length_a   6.18582582
_cell_length_b   6.49099422
_cell_length_c   14.28034676
_cell_angle_alpha   66.87620983
_cell_angle_beta   90.00000000
_cell_angle_gamma   90.00000000
_symmetry_Int_Tables_number   1
_chemical_formula_structural   Ag2Hg2(TeO4)3
_chemical_formula_sum   'Ag4 Hg4 Te6 O24'
_cell_volume   527.32001821
_cell_formula_units_Z   2
loop_
 _symmetry_equiv_pos_site_id
 _symmetry_equiv_pos_as_xyz
  1  'x, y, z'
loop_
 _atom_site_type_symbol
 _atom_site_label
 _atom_site_symmetry_multiplicity
 _atom_site_fract_x
 _atom_site_fract_y
 _atom_site_fract_z
 _atom_site_occupancy
  Ag  Ag0  1  0.86482565  0.89816264  0.79268473  1
  Ag  Ag1  1  0.63517435  0.89816264  0.29268473  1
  Ag  Ag2  1  0.36482565  0.10183736  0.70731527  1
  Ag  Ag3  1  0.13517435  0.10183736  0.20731527  1
  Hg  Hg0  1  0.54262219  0.29636136  0.39892576  1
  Hg  Hg1  1  0.95737781  0.29636136  0.89892576  1
  Hg  Hg2  1  0.04262219  0.70363864  0.10107424  1
  Hg  Hg3  1  0.45737781  0.70363864  0.60107424  1
  Te  Te0  1  0.59417682  0.40774464  0.10699272  1
  Te  Te1  1  0.09417682  0.59225536  0.39300728  1
  Te  Te2  1  0.40582318  0.59225536  0.89300728  1
  Te  Te3  1  0.50000000  -0.00000000  -0.00000000  1
  Te  Te4  1  0.90582318  0.40774464  0.60699272  1
  Te  Te5  1  -0.00000000  -0.00000000  0.50000000  1
  O  O0  1  0.21829536  0.00054482  0.05581451  1
  O  O1  1  0.86971230  0.11835694  0.59363603  1
  O  O2  1  0.78170464  0.99945518  0.94418549  1
  O  O3  1  0.88395339  0.39575547  0.14988175  1
  O  O4  1  0.28170464  0.00054482  0.55581451  1
  O  O5  1  0.05900248  0.29295678  0.39163861  1
  O  O6  1  0.36971230  0.88164306  0.90636397  1
  O  O7  1  0.31333606  0.44961162  0.03707976  1
  O  O8  1  0.03518723  0.26170306  0.73290082  1
  O  O9  1  0.44099752  0.29295678  0.89163861  1
  O  O10  1  0.71829536  0.99945518  0.44418549  1
  O  O11  1  0.63028770  0.11835694  0.09363603  1
  O  O12  1  0.55900248  0.70704322  0.10836139  1
  O  O13  1  0.46481277  0.26170306  0.23290082  1
  O  O14  1  0.94099752  0.70704322  0.60836139  1
  O  O15  1  0.53518723  0.73829694  0.76709918  1
  O  O16  1  0.18666394  0.44961162  0.53707976  1
  O  O17  1  0.38395339  0.60424453  0.35011825  1
  O  O18  1  0.11604661  0.60424453  0.85011825  1
  O  O19  1  0.13028770  0.88164306  0.40636397  1
  O  O20  1  0.81333606  0.55038838  0.46292024  1
  O  O21  1  0.68666394  0.55038838  0.96292024  1
  O  O22  1  0.96481277  0.73829694  0.26709918  1
  O  O23  1  0.61604661  0.39575547  0.64988175  1
loop_
_geom_bond_atom_site_label_1
_geom_bond_atom_site_label_2
_geom_bond_distance
_geom_bond_site_symmetry_2
Ag0 O18 2.344867 1_655
Ag0 O15 2.380326 1_555
Ag0 O8 2.413596 1_665
Ag0 O2 2.548448 1_555
Ag0 O1 2.632958 1_565
Ag1 O17 2.344867 1_555
Ag1 O22 2.380326 1_555
Ag1 O13 2.413596 1_565
Ag1 O10 2.548448 1_555
Ag1 O11 2.632958 1_565
Ag2 O23 2.344867 1_555
Ag2 O8 2.380326 1_555
Ag2 O15 2.413596 1_545
Ag2 O4 2.548448 1_555
Ag2 O6 2.632958 1_545
Ag3 O3 2.344867 1_455
Ag3 O13 2.380326 1_555
Ag3 O22 2.413596 1_445
Ag3 O0 2.548448 1_555
Ag3 O19 2.632958 1_545
Hg0 O10 2.081930 1_545
Hg0 O17 2.085416 1_555
Hg0 O13 2.514427 1_555
Hg1 O2 2.081930 1_545
Hg1 O18 2.085416 1_655
Hg1 O8 2.514427 1_655
Hg2 O0 2.081930 1_565
Hg2 O3 2.085416 1_455
Hg2 O22 2.514427 1_455
Hg3 O4 2.081930 1_565
Hg3 O23 2.085416 1_555
Hg3 O15 2.514427 1_555
O0 Te3 1.916791 1_555
O1 Te5 1.958212 1_655
O1 Te4 1.973861 1_555
O2 Te3 1.916791 1_566
O3 Te0 1.885954 1_555
O4 Te5 1.916791 1_555
O5 Te5 1.957695 1_555
O5 Te1 1.962602 1_555
O6 Te3 1.958212 1_566
O6 Te2 1.973861 1_555
O7 Te0 1.968626 1_555
O7 Te2 1.980226 1_554
O8 Te4 1.852861 1_455
O9 Te3 1.957695 1_556
O9 Te2 1.962602 1_555
O10 Te5 1.916791 1_665
O11 Te3 1.958212 1_555
O11 Te0 1.973861 1_555
O12 Te3 1.957695 1_565
O12 Te0 1.962602 1_555
O13 Te0 1.852861 1_555
O14 Te5 1.957695 1_665
O14 Te4 1.962602 1_555
O15 Te2 1.852861 1_555
O16 Te4 1.968626 1_455
O16 Te1 1.980226 1_555
O17 Te1 1.885954 1_555
O18 Te2 1.885954 1_555
O19 Te5 1.958212 1_565
O19 Te1 1.973861 1_555
O20 Te1 1.968626 1_655
O20 Te4 1.980226 1_555
O21 Te2 1.968626 1_555
O21 Te0 1.980226 1_556
O22 Te1 1.852861 1_655
O23 Te4 1.885954 1_555
