# generated using pymatgen
data_Na5NbO5
_symmetry_space_group_name_H-M   'P 1'
_cell_length_a   5.98467663
_cell_length_b   5.98467663
_cell_length_c   9.99778937
_cell_angle_alpha   81.38289743
_cell_angle_beta   81.38289743
_cell_angle_gamma   116.81779352
_symmetry_Int_Tables_number   1
_chemical_formula_structural   Na5NbO5
_chemical_formula_sum   'Na10 Nb2 O10'
_cell_volume   306.22075740
_cell_formula_units_Z   2
loop_
 _symmetry_equiv_pos_site_id
 _symmetry_equiv_pos_as_xyz
  1  'x, y, z'
loop_
 _atom_site_type_symbol
 _atom_site_label
 _atom_site_symmetry_multiplicity
 _atom_site_fract_x
 _atom_site_fract_y
 _atom_site_fract_z
 _atom_site_occupancy
  Na  Na0  1  0.67678048  0.99572295  0.07783717  1
  Na  Na1  1  0.00427705  0.32321952  0.42216283  1
  Na  Na2  1  0.78547302  0.55590527  0.95005601  1
  Na  Na3  1  0.44409473  0.21452698  0.54994399  1
  Na  Na4  1  0.21452698  0.44409473  0.04994399  1
  Na  Na5  1  0.55590527  0.78547302  0.45005601  1
  Na  Na6  1  0.66876937  0.33123063  0.25000000  1
  Na  Na7  1  0.33123063  0.66876937  0.75000000  1
  Na  Na8  1  0.99572295  0.67678048  0.57783717  1
  Na  Na9  1  0.32321952  0.00427705  0.92216283  1
  Nb  Nb0  1  0.09169842  0.90830158  0.25000000  1
  Nb  Nb1  1  0.90830158  0.09169842  0.75000000  1
  O  O0  1  0.09582328  0.90417672  0.75000000  1
  O  O1  1  0.90417672  0.09582328  0.25000000  1
  O  O2  1  0.69494023  0.03673595  0.61702573  1
  O  O3  1  0.96326405  0.30505977  0.88297427  1
  O  O4  1  0.40696106  0.19183322  0.10292391  1
  O  O5  1  0.80816678  0.59303894  0.39707609  1
  O  O6  1  0.59303894  0.80816678  0.89707609  1
  O  O7  1  0.19183322  0.40696106  0.60292391  1
  O  O8  1  0.30505977  0.96326405  0.38297427  1
  O  O9  1  0.03673595  0.69494023  0.11702573  1
loop_
_geom_bond_atom_site_label_1
_geom_bond_atom_site_label_2
_geom_bond_distance
_geom_bond_site_symmetry_2
Na0 O6 2.269096 1_554
Na0 O3 2.283986 1_564
Na0 O1 2.334290 1_565
Na0 O4 2.392655 1_565
Na1 O7 2.269096 1_555
Na1 O2 2.283986 1_455
Na1 O1 2.334290 1_455
Na1 O5 2.392655 1_455
Na2 O3 2.316202 1_555
Na2 O6 2.323372 1_555
Na2 O4 2.392869 1_556
Na2 O9 2.404094 1_656
Na2 O0 2.436999 1_655
Na3 O2 2.316202 1_555
Na3 O7 2.323372 1_555
Na3 O5 2.392869 1_555
Na3 O8 2.404094 1_545
Na3 O0 2.436999 1_545
Na4 O9 2.316202 1_555
Na4 O4 2.323372 1_555
Na4 O6 2.392869 1_554
Na4 O3 2.404094 1_454
Na4 O1 2.436999 1_455
Na5 O8 2.316202 1_555
Na5 O5 2.323372 1_555
Na5 O7 2.392869 1_555
Na5 O2 2.404094 1_565
Na5 O1 2.436999 1_565
Na6 O5 2.278528 1_555
Na6 O4 2.278528 1_555
Na6 O9 2.298978 1_655
Na6 O8 2.298978 1_545
Na6 O1 2.400118 1_555
Na7 O6 2.278528 1_555
Na7 O7 2.278528 1_555
Na7 O3 2.298978 1_455
Na7 O2 2.298978 1_565
Na7 O0 2.400118 1_555
Na8 O5 2.269096 1_555
Na8 O8 2.283986 1_655
Na8 O0 2.334290 1_655
Na8 O7 2.392655 1_655
Na9 O4 2.269096 1_556
Na9 O9 2.283986 1_546
Na9 O0 2.334290 1_545
Na9 O6 2.392655 1_545
Nb0 O1 1.911895 1_465
Nb0 O9 1.940839 1_555
Nb0 O8 1.940839 1_555
Nb0 O4 2.033094 1_565
Nb0 O5 2.033094 1_455
Nb1 O0 1.911895 1_645
Nb1 O2 1.940839 1_555
Nb1 O3 1.940839 1_555
Nb1 O7 2.033094 1_655
Nb1 O6 2.033094 1_545
