# generated using pymatgen
data_TeC8(OF3)4
_symmetry_space_group_name_H-M   'P 1'
_cell_length_a   10.20033951
_cell_length_b   11.21584024
_cell_length_c   14.90575604
_cell_angle_alpha   69.32482590
_cell_angle_beta   87.70051856
_cell_angle_gamma   69.08997753
_symmetry_Int_Tables_number   1
_chemical_formula_structural   TeC8(OF3)4
_chemical_formula_sum   'Te4 C32 O16 F48'
_cell_volume   1483.18374238
_cell_formula_units_Z   4
loop_
 _symmetry_equiv_pos_site_id
 _symmetry_equiv_pos_as_xyz
  1  'x, y, z'
loop_
 _atom_site_type_symbol
 _atom_site_label
 _atom_site_symmetry_multiplicity
 _atom_site_fract_x
 _atom_site_fract_y
 _atom_site_fract_z
 _atom_site_occupancy
  Te  Te0  1  0.40832186  0.37553115  0.65810643  1
  Te  Te1  1  0.59167814  0.62446885  0.34189357  1
  Te  Te2  1  0.44464418  0.38392760  0.16544443  1
  Te  Te3  1  0.55535582  0.61607240  0.83455557  1
  C  C0  1  0.59483758  0.76815319  0.96179131  1
  C  C1  1  0.43158030  0.20890745  0.61309622  1
  C  C2  1  0.56841970  0.79109255  0.38690378  1
  C  C3  1  0.23783168  0.59826921  0.00334448  1
  C  C4  1  0.75802372  0.12767074  0.89353531  1
  C  C5  1  0.22697879  0.23101336  0.79758422  1
  C  C6  1  0.90595389  0.33240604  0.06026213  1
  C  C7  1  0.82299900  0.13261042  0.37368189  1
  C  C8  1  0.57398949  0.77774833  0.87105602  1
  C  C9  1  0.44614948  0.88928064  0.38806686  1
  C  C10  1  0.77748382  0.69625406  0.69845016  1
  C  C11  1  0.24197628  0.87232926  0.10646469  1
  C  C12  1  0.75560342  0.41603876  0.52649005  1
  C  C13  1  0.30329255  0.74738140  0.69650472  1
  C  C14  1  0.69670745  0.25261860  0.30349528  1
  C  C15  1  0.89239703  0.33614369  0.59816761  1
  C  C16  1  0.17700100  0.86738958  0.62631811  1
  C  C17  1  0.64214165  0.25091628  0.81645518  1
  C  C18  1  0.40516242  0.23184681  0.03820869  1
  C  C19  1  0.77302121  0.76898664  0.20241578  1
  C  C20  1  0.66704285  0.65596732  0.71043547  1
  C  C21  1  0.10760297  0.66385631  0.40183239  1
  C  C22  1  0.75991585  0.65032525  0.25637604  1
  C  C23  1  0.22251618  0.30374594  0.30154984  1
  C  C24  1  0.76216832  0.40173079  0.99665552  1
  C  C25  1  0.35785835  0.74908372  0.18354482  1
  C  C26  1  0.09404611  0.66759396  0.93973787  1
  C  C27  1  0.42601051  0.22225167  0.12894398  1
  C  C28  1  0.33295715  0.34403268  0.28956453  1
  C  C29  1  0.24008415  0.34967475  0.74362396  1
  C  C30  1  0.24439658  0.58396124  0.47350995  1
  C  C31  1  0.55385052  0.11071936  0.61193314  1
  O  O0  1  0.77122774  0.51354138  0.45238649  1
  O  O1  1  0.55541648  0.21194658  0.78276458  1
  O  O2  1  0.66099632  0.36876310  0.02671860  1
  O  O3  1  0.32407931  0.62712380  0.70860806  1
  O  O4  1  0.22877226  0.48645862  0.54761351  1
  O  O5  1  0.33900368  0.63123690  0.97328140  1
  O  O6  1  0.76467924  0.49732277  0.91636337  1
  O  O7  1  0.37930051  0.79105668  0.73562340  1
  O  O8  1  0.36007255  0.63176937  0.20458834  1
  O  O9  1  0.62069949  0.20894332  0.26437660  1
  O  O10  1  0.65048805  0.38522820  0.54298164  1
  O  O11  1  0.44458352  0.78805342  0.21723542  1
  O  O12  1  0.63992745  0.36823063  0.79541166  1
  O  O13  1  0.67592069  0.37287620  0.29139194  1
  O  O14  1  0.23532076  0.50267723  0.08363663  1
  O  O15  1  0.34951195  0.61477180  0.45701836  1
  F  F0  1  0.61092837  0.64359565  0.63446879  1
  F  F1  1  0.67903039  0.89161542  0.19190015  1
  F  F2  1  0.16167567  0.28434573  0.23387367  1
  F  F3  1  0.22721754  0.94149525  0.54899298  1
  F  F4  1  0.39356006  0.34296900  0.96152720  1
  F  F5  1  0.39256443  0.13371303  0.01357678  1
  F  F6  1  0.98197098  0.69642183  0.99097187  1
  F  F7  1  0.99380421  0.71036232  0.44718911  1
  F  F8  1  0.56391653  0.89501914  0.79823833  1
  F  F9  1  0.11710864  0.22347348  0.84653096  1
  F  F10  1  0.08709290  0.78496988  0.86799085  1
  F  F11  1  0.32096961  0.10838458  0.80809985  1
  F  F12  1  0.88063575  0.22736952  0.67072664  1
  F  F13  1  0.29894760  0.91087749  0.02124294  1
  F  F14  1  0.90219078  0.04693031  0.33047495  1
  F  F15  1  0.55997342  0.01015013  0.58255921  1
  F  F16  1  0.11936425  0.77263048  0.32927336  1
  F  F17  1  0.13572649  0.46835287  0.73773625  1
  F  F18  1  0.90743632  0.18060199  0.40691678  1
  F  F19  1  0.08360313  0.58043026  0.36190396  1
  F  F20  1  0.83682912  0.72294774  0.61685930  1
  F  F21  1  0.83832433  0.71565427  0.76612633  1
  F  F22  1  0.44002658  0.98984987  0.41744079  1
  F  F23  1  0.18924715  0.98216891  0.13350091  1
  F  F24  1  0.13395440  0.83717143  0.09008048  1
  F  F25  1  0.00619579  0.28963768  0.55281089  1
  F  F26  1  0.88289136  0.77652652  0.15346904  1
  F  F27  1  0.31079459  0.20471080  0.58270607  1
  F  F28  1  0.09780922  0.95306969  0.66952505  1
  F  F29  1  0.68920541  0.79528920  0.41729393  1
  F  F30  1  0.08305090  0.57963062  0.89898315  1
  F  F31  1  0.38907163  0.35640435  0.36553121  1
  F  F32  1  0.91694910  0.42036938  0.10101685  1
  F  F33  1  0.32014734  0.90029723  0.35953550  1
  F  F34  1  0.77278246  0.05850475  0.45100702  1
  F  F35  1  0.60643994  0.65703100  0.03847280  1
  F  F36  1  0.67985266  0.09970277  0.64046450  1
  F  F37  1  0.86604560  0.16282857  0.90991952  1
  F  F38  1  0.16317088  0.27705226  0.38314070  1
  F  F39  1  0.91290710  0.21503012  0.13200915  1
  F  F40  1  0.60743557  0.86628697  0.98642322  1
  F  F41  1  0.01802902  0.30357817  0.00902813  1
  F  F42  1  0.70105240  0.08912251  0.97875706  1
  F  F43  1  0.43608347  0.10498086  0.20176167  1
  F  F44  1  0.09256368  0.81939801  0.59308322  1
  F  F45  1  0.86427351  0.53164713  0.26226375  1
  F  F46  1  0.91639687  0.41956974  0.63809604  1
  F  F47  1  0.81075285  0.01783109  0.86649909  1
loop_
_geom_bond_atom_site_label_1
_geom_bond_atom_site_label_2
_geom_bond_distance
_geom_bond_site_symmetry_2
C0 F40 1.323956 1_555
C0 F35 1.331698 1_556
C1 F27 1.351521 1_555
C1 Te0 2.134252 1_555
C2 F29 1.351521 1_555
C2 Te1 2.134252 1_555
C3 O5 1.233205 1_554
C3 O14 1.301372 1_555
C4 F37 1.352393 1_555
C4 F47 1.352623 1_555
C4 F42 1.367688 1_555
C5 F9 1.324355 1_555
C5 F11 1.324392 1_555
C6 F39 1.351704 1_555
C6 F41 1.354668 1_655
C6 F32 1.364777 1_555
C7 F18 1.352928 1_555
C7 F14 1.353495 1_555
C7 F34 1.364445 1_555
C8 F8 1.350197 1_555
C8 Te3 2.138055 1_555
C9 F33 1.319635 1_555
C9 F22 1.328224 1_555
C10 F20 1.322243 1_555
C10 F21 1.323521 1_555
C11 F24 1.352393 1_555
C11 F23 1.352623 1_555
C11 F13 1.367688 1_555
C12 O10 1.229970 1_555
C12 O0 1.303339 1_555
C13 O3 1.234440 1_555
C13 O7 1.300047 1_555
C14 O13 1.234440 1_555
C14 O9 1.300047 1_555
C15 F25 1.352933 1_655
C15 F12 1.354565 1_555
C15 F46 1.363126 1_555
C16 F44 1.352928 1_555
C16 F28 1.353495 1_555
C16 F3 1.364445 1_555
C17 O12 1.232109 1_555
C17 O1 1.300932 1_555
C18 F5 1.323956 1_555
C18 F4 1.331698 1_554
C19 F26 1.324355 1_555
C19 F1 1.324392 1_555
C20 F0 1.359680 1_555
C20 Te3 2.128649 1_555
C21 F7 1.352933 1_455
C21 F16 1.354565 1_555
C21 F19 1.363126 1_555
C22 F45 1.351371 1_555
C22 Te1 2.138357 1_555
C23 F38 1.322243 1_555
C23 F2 1.323521 1_555
C24 O2 1.233205 1_556
C24 O6 1.301372 1_555
C25 O8 1.232109 1_555
C25 O11 1.300932 1_555
C26 F10 1.351704 1_555
C26 F6 1.354668 1_455
C26 F30 1.364777 1_555
C27 F43 1.350197 1_555
C27 Te2 2.138055 1_555
C28 F31 1.359680 1_555
C28 Te2 2.128649 1_555
C29 F17 1.351371 1_555
C29 Te0 2.138357 1_555
C30 O15 1.229970 1_555
C30 O4 1.303339 1_555
C31 F36 1.319635 1_555
C31 F15 1.328224 1_555
O0 Te1 2.187087 1_555
O1 Te0 2.218446 1_555
O4 Te0 2.187087 1_555
O6 Te3 2.202723 1_555
O7 Te3 2.214595 1_555
O9 Te2 2.214595 1_555
O11 Te1 2.218446 1_555
O14 Te2 2.202723 1_555
