# generated using pymatgen
data_K4Ru(NO2)6
_symmetry_space_group_name_H-M   'P 1'
_cell_length_a   8.70904473
_cell_length_b   8.70904473
_cell_length_c   8.70904471
_cell_angle_alpha   51.73121398
_cell_angle_beta   51.73121398
_cell_angle_gamma   51.73121499
_symmetry_Int_Tables_number   1
_chemical_formula_structural   K4Ru(NO2)6
_chemical_formula_sum   'K4 Ru1 N6 O12'
_cell_volume   376.21319293
_cell_formula_units_Z   1
loop_
 _symmetry_equiv_pos_site_id
 _symmetry_equiv_pos_as_xyz
  1  'x, y, z'
loop_
 _atom_site_type_symbol
 _atom_site_label
 _atom_site_symmetry_multiplicity
 _atom_site_fract_x
 _atom_site_fract_y
 _atom_site_fract_z
 _atom_site_occupancy
  K  K0  1  0.62097100  0.62097100  0.62097100  1
  K  K1  1  0.37902900  0.37902900  0.37902900  1
  K  K2  1  0.19252000  0.19252000  0.19252000  1
  K  K3  1  0.80748000  0.80748000  0.80748000  1
  Ru  Ru0  1  0.00000000  0.00000000  0.00000000  1
  N  N0  1  0.30759600  0.92739400  0.92803300  1
  N  N1  1  0.92803300  0.30759600  0.92739400  1
  N  N2  1  0.07260600  0.07196700  0.69240400  1
  N  N3  1  0.92739400  0.92803300  0.30759600  1
  N  N4  1  0.07196700  0.69240400  0.07260600  1
  N  N5  1  0.69240400  0.07260600  0.07196700  1
  O  O0  1  0.85796100  0.06812500  0.36717600  1
  O  O1  1  0.06812500  0.36717600  0.85796100  1
  O  O2  1  0.63282400  0.14203900  0.93187500  1
  O  O3  1  0.04330100  0.26055300  0.55761900  1
  O  O4  1  0.73944700  0.44238100  0.95669900  1
  O  O5  1  0.14203900  0.93187500  0.63282400  1
  O  O6  1  0.95669900  0.73944700  0.44238100  1
  O  O7  1  0.44238100  0.95669900  0.73944700  1
  O  O8  1  0.36717600  0.85796100  0.06812500  1
  O  O9  1  0.55761900  0.04330100  0.26055300  1
  O  O10  1  0.26055300  0.55761900  0.04330100  1
  O  O11  1  0.93187500  0.63282400  0.14203900  1
loop_
_geom_bond_atom_site_label_1
_geom_bond_atom_site_label_2
_geom_bond_distance
_geom_bond_site_symmetry_2
K0 O6 2.854595 1_555
K0 O4 2.854595 1_555
K0 O7 2.854595 1_555
K0 O10 3.002653 1_556
K0 O9 3.002653 1_565
K0 O3 3.002653 1_655
K0 O11 3.250066 1_555
K0 O2 3.250066 1_555
K0 O5 3.250066 1_555
K1 O3 2.854595 1_555
K1 O10 2.854595 1_555
K1 O9 2.854595 1_555
K1 O4 3.002653 1_554
K1 O7 3.002653 1_545
K1 O6 3.002653 1_455
K1 O1 3.250066 1_555
K1 O8 3.250066 1_555
K1 O0 3.250066 1_555
K2 O0 2.890655 1_455
K2 O1 2.890655 1_554
K2 O8 2.890655 1_545
K2 O10 2.900265 1_555
K2 O3 2.900265 1_555
K2 O9 2.900265 1_555
K2 O5 2.901043 1_545
K2 O2 2.901043 1_554
K2 O11 2.901043 1_455
K3 O5 2.890655 1_655
K3 O11 2.890655 1_556
K3 O2 2.890655 1_565
K3 O4 2.900265 1_555
K3 O6 2.900265 1_555
K3 O7 2.900265 1_555
K3 O0 2.901043 1_565
K3 O8 2.901043 1_556
K3 O1 2.901043 1_655
N0 O7 1.266603 1_555
N0 O8 1.266931 1_556
N0 Ru0 2.069264 1_566
N1 O4 1.266603 1_555
N1 O1 1.266931 1_655
N1 Ru0 2.069264 1_656
N2 O3 1.266603 1_555
N2 O5 1.266931 1_545
N2 Ru0 2.069264 1_556
N3 O6 1.266603 1_555
N3 O0 1.266931 1_565
N3 Ru0 2.069264 1_665
N4 O10 1.266603 1_555
N4 O11 1.266931 1_455
N4 Ru0 2.069264 1_565
N5 O9 1.266603 1_555
N5 O2 1.266931 1_554
N5 Ru0 2.069264 1_655
