# generated using pymatgen
data_Li4Be3As3ClO12
_symmetry_space_group_name_H-M   'P 1'
_cell_length_a   8.35570500
_cell_length_b   8.35570500
_cell_length_c   8.35570500
_cell_angle_alpha   90.00000000
_cell_angle_beta   90.00000000
_cell_angle_gamma   90.00000000
_symmetry_Int_Tables_number   1
_chemical_formula_structural   Li4Be3As3ClO12
_chemical_formula_sum   'Li8 Be6 As6 Cl2 O24'
_cell_volume   583.37699108
_cell_formula_units_Z   2
loop_
 _symmetry_equiv_pos_site_id
 _symmetry_equiv_pos_as_xyz
  1  'x, y, z'
loop_
 _atom_site_type_symbol
 _atom_site_label
 _atom_site_symmetry_multiplicity
 _atom_site_fract_x
 _atom_site_fract_y
 _atom_site_fract_z
 _atom_site_occupancy
  Li  Li0  1  0.82918100  0.82918100  0.17081900  1
  Li  Li1  1  0.32918100  0.32918100  0.67081900  1
  Li  Li2  1  0.17081900  0.17081900  0.17081900  1
  Li  Li3  1  0.67081900  0.67081900  0.67081900  1
  Li  Li4  1  0.82918100  0.17081900  0.82918100  1
  Li  Li5  1  0.32918100  0.67081900  0.32918100  1
  Li  Li6  1  0.17081900  0.82918100  0.82918100  1
  Li  Li7  1  0.67081900  0.32918100  0.32918100  1
  Be  Be0  1  0.50000000  0.75000000  0.00000000  1
  Be  Be1  1  0.25000000  0.00000000  0.50000000  1
  Be  Be2  1  0.00000000  0.50000000  0.25000000  1
  Be  Be3  1  0.50000000  0.25000000  0.00000000  1
  Be  Be4  1  0.00000000  0.50000000  0.75000000  1
  Be  Be5  1  0.75000000  0.00000000  0.50000000  1
  As  As0  1  0.50000000  0.00000000  0.25000000  1
  As  As1  1  0.00000000  0.25000000  0.50000000  1
  As  As2  1  0.25000000  0.50000000  0.00000000  1
  As  As3  1  0.00000000  0.75000000  0.50000000  1
  As  As4  1  0.50000000  0.00000000  0.75000000  1
  As  As5  1  0.75000000  0.50000000  0.00000000  1
  Cl  Cl0  1  0.50000000  0.50000000  0.50000000  1
  Cl  Cl1  1  0.00000000  0.00000000  0.00000000  1
  O  O0  1  0.09377200  0.36443800  0.64286400  1
  O  O1  1  0.59377200  0.85713600  0.13556200  1
  O  O2  1  0.13556200  0.40622800  0.14286400  1
  O  O3  1  0.14286400  0.13556200  0.40622800  1
  O  O4  1  0.35713600  0.90622800  0.36443800  1
  O  O5  1  0.86443800  0.59377200  0.14286400  1
  O  O6  1  0.86443800  0.40622800  0.85713600  1
  O  O7  1  0.35713600  0.09377200  0.63556200  1
  O  O8  1  0.85713600  0.86443800  0.40622800  1
  O  O9  1  0.90622800  0.36443800  0.35713600  1
  O  O10  1  0.13556200  0.59377200  0.85713600  1
  O  O11  1  0.36443800  0.35713600  0.90622800  1
  O  O12  1  0.40622800  0.14286400  0.13556200  1
  O  O13  1  0.90622800  0.63556200  0.64286400  1
  O  O14  1  0.40622800  0.85713600  0.86443800  1
  O  O15  1  0.64286400  0.09377200  0.36443800  1
  O  O16  1  0.63556200  0.35713600  0.09377200  1
  O  O17  1  0.85713600  0.13556200  0.59377200  1
  O  O18  1  0.64286400  0.90622800  0.63556200  1
  O  O19  1  0.63556200  0.64286400  0.90622800  1
  O  O20  1  0.59377200  0.14286400  0.86443800  1
  O  O21  1  0.09377200  0.63556200  0.35713600  1
  O  O22  1  0.36443800  0.64286400  0.09377200  1
  O  O23  1  0.14286400  0.86443800  0.59377200  1
loop_
_geom_bond_atom_site_label_1
_geom_bond_atom_site_label_2
_geom_bond_distance
_geom_bond_site_symmetry_2
Li0 O5 2.002616 1_555
Li0 O8 2.002616 1_555
Li0 O1 2.002616 1_555
Li1 O7 2.002616 1_555
Li1 O0 2.002616 1_555
Li1 O11 2.002616 1_555
Li2 O12 2.002616 1_555
Li2 O3 2.002616 1_555
Li2 O2 2.002616 1_555
Li3 O18 2.002616 1_555
Li3 O13 2.002616 1_555
Li3 O19 2.002616 1_555
Li4 O6 2.002616 1_555
Li4 O20 2.002616 1_555
Li4 O17 2.002616 1_555
Li5 O21 2.002616 1_555
Li5 O22 2.002616 1_555
Li5 O4 2.002616 1_555
Li6 O14 2.002616 1_555
Li6 O23 2.002616 1_555
Li6 O10 2.002616 1_555
Li7 O16 2.002616 1_555
Li7 O15 2.002616 1_555
Li7 O9 2.002616 1_555
Be0 O1 1.642664 1_555
Be0 O22 1.642664 1_555
Be0 O19 1.642664 1_554
Be0 O14 1.642664 1_554
Be1 O7 1.642664 1_555
Be1 O3 1.642664 1_555
Be1 O4 1.642664 1_545
Be1 O23 1.642664 1_545
Be2 O21 1.642664 1_555
Be2 O2 1.642664 1_555
Be2 O9 1.642664 1_455
Be2 O5 1.642664 1_455
Be3 O16 1.642664 1_555
Be3 O12 1.642664 1_555
Be3 O11 1.642664 1_554
Be3 O20 1.642664 1_554
Be4 O10 1.642664 1_555
Be4 O0 1.642664 1_555
Be4 O13 1.642664 1_455
Be4 O6 1.642664 1_455
Be5 O17 1.642664 1_555
Be5 O15 1.642664 1_555
Be5 O18 1.642664 1_545
Be5 O8 1.642664 1_545
As0 O1 1.718502 1_545
As0 O15 1.718502 1_555
As0 O12 1.718502 1_555
As0 O4 1.718502 1_545
As1 O0 1.718502 1_555
As1 O17 1.718502 1_455
As1 O3 1.718502 1_555
As1 O9 1.718502 1_455
As2 O22 1.718502 1_555
As2 O10 1.718502 1_554
As2 O2 1.718502 1_555
As2 O11 1.718502 1_554
As3 O23 1.718502 1_555
As3 O8 1.718502 1_455
As3 O21 1.718502 1_555
As3 O13 1.718502 1_455
As4 O20 1.718502 1_555
As4 O14 1.718502 1_545
As4 O7 1.718502 1_555
As4 O18 1.718502 1_545
As5 O6 1.718502 1_554
As5 O5 1.718502 1_555
As5 O16 1.718502 1_555
As5 O19 1.718502 1_554
Cl0 Li3 2.472179 1_555
Cl0 Li5 2.472179 1_555
Cl0 Li7 2.472179 1_555
Cl0 Li1 2.472179 1_555
Cl1 Li2 2.472179 1_555
Cl1 Li0 2.472179 1_445
Cl1 Li4 2.472179 1_454
Cl1 Li6 2.472179 1_544
