# generated using pymatgen
data_Cs2Co(NO3)4
_symmetry_space_group_name_H-M   'P 1'
_cell_length_a   8.04195700
_cell_length_b   12.88160110
_cell_length_c   13.77581118
_cell_angle_alpha   101.64529300
_cell_angle_beta   93.34390646
_cell_angle_gamma   105.88828858
_symmetry_Int_Tables_number   1
_chemical_formula_structural   Cs2Co(NO3)4
_chemical_formula_sum   'Cs8 Co4 N16 O48'
_cell_volume   1334.50124445
_cell_formula_units_Z   4
loop_
 _symmetry_equiv_pos_site_id
 _symmetry_equiv_pos_as_xyz
  1  'x, y, z'
loop_
 _atom_site_type_symbol
 _atom_site_label
 _atom_site_symmetry_multiplicity
 _atom_site_fract_x
 _atom_site_fract_y
 _atom_site_fract_z
 _atom_site_occupancy
  Cs  Cs0  1  0.28769200  0.51573800  0.62304600  1
  Cs  Cs1  1  0.71230800  0.48426200  0.37695400  1
  Cs  Cs2  1  0.06976300  0.36350700  0.90238800  1
  Cs  Cs3  1  0.93023700  0.63649300  0.09761200  1
  Cs  Cs4  1  0.70769600  0.87869600  0.92713500  1
  Cs  Cs5  1  0.29230400  0.12130400  0.07286500  1
  Cs  Cs6  1  0.82349800  0.11849100  0.58396500  1
  Cs  Cs7  1  0.17650200  0.88150900  0.41603500  1
  Co  Co0  1  0.11000000  0.83208100  0.72420100  1
  Co  Co1  1  0.89000000  0.16791900  0.27579900  1
  Co  Co2  1  0.53002100  0.31178800  0.75780800  1
  Co  Co3  1  0.46997900  0.68821200  0.24219200  1
  N  N0  1  0.80301400  0.71593700  0.62567800  1
  N  N1  1  0.19698600  0.28406300  0.37432200  1
  N  N2  1  0.10561000  0.68793100  0.86438500  1
  N  N3  1  0.89439000  0.31206900  0.13561500  1
  N  N4  1  0.44267800  0.89529900  0.69946000  1
  N  N5  1  0.55732200  0.10470100  0.30054000  1
  N  N6  1  0.05084000  0.02142200  0.78248600  1
  N  N7  1  0.94916000  0.97857800  0.21751400  1
  N  N8  1  0.31432800  0.17784700  0.60602500  1
  N  N9  1  0.68567200  0.82215300  0.39397500  1
  N  N10  1  0.80598000  0.42046300  0.64627800  1
  N  N11  1  0.19402000  0.57953700  0.35372200  1
  N  N12  1  0.58595700  0.50825700  0.88148700  1
  N  N13  1  0.41404300  0.49174300  0.11851300  1
  N  N14  1  0.57263400  0.18864600  0.87768100  1
  N  N15  1  0.42736600  0.81135400  0.12231900  1
  O  O0  1  0.81156100  0.75310200  0.71964100  1
  O  O1  1  0.18843900  0.24689800  0.28035900  1
  O  O2  1  0.94928900  0.73758200  0.58879600  1
  O  O3  1  0.05071100  0.26241800  0.41120400  1
  O  O4  1  0.66439200  0.66228900  0.57230500  1
  O  O5  1  0.33560800  0.33771100  0.42769500  1
  O  O6  1  0.15265500  0.70097000  0.77765300  1
  O  O7  1  0.84734500  0.29903000  0.22234700  1
  O  O8  1  0.02426500  0.74873800  0.91003700  1
  O  O9  1  0.97573500  0.25126200  0.08996300  1
  O  O10  1  0.14551800  0.61406000  0.89920100  1
  O  O11  1  0.85448200  0.38594000  0.10079900  1
  O  O12  1  0.39877300  0.91443000  0.78776500  1
  O  O13  1  0.60122700  0.08557000  0.21223500  1
  O  O14  1  0.31553800  0.84360900  0.62937000  1
  O  O15  1  0.68446200  0.15639100  0.37063000  1
  O  O16  1  0.59580000  0.92359000  0.68205900  1
  O  O17  1  0.40420000  0.07641000  0.31794100  1
  O  O18  1  0.06805500  0.98666700  0.69106600  1
  O  O19  1  0.93194500  0.01333300  0.30893400  1
  O  O20  1  0.07251900  0.95841000  0.84143600  1
  O  O21  1  0.92748100  0.04159000  0.15856400  1
  O  O22  1  0.01299800  0.10819900  0.81340200  1
  O  O23  1  0.98700200  0.89180100  0.18659800  1
  O  O24  1  0.46337900  0.16400000  0.62441900  1
  O  O25  1  0.53662100  0.83600000  0.37558100  1
  O  O26  1  0.28087100  0.25706800  0.66838600  1
  O  O27  1  0.71912900  0.74293200  0.33161400  1
  O  O28  1  0.20724300  0.11966000  0.53437000  1
  O  O29  1  0.79275700  0.88034000  0.46563000  1
  O  O30  1  0.64330300  0.40508200  0.65860700  1
  O  O31  1  0.35669700  0.59491800  0.34139300  1
  O  O32  1  0.89538600  0.37365000  0.69101100  1
  O  O33  1  0.10461400  0.62635000  0.30898900  1
  O  O34  1  0.87008900  0.48116000  0.58942600  1
  O  O35  1  0.12991100  0.51884000  0.41057400  1
  O  O36  1  0.70843700  0.46309100  0.88138000  1
  O  O37  1  0.29156300  0.53690900  0.11862000  1
  O  O38  1  0.44324100  0.44980200  0.82453900  1
  O  O39  1  0.55675900  0.55019800  0.17546100  1
  O  O40  1  0.59930300  0.60179100  0.93260600  1
  O  O41  1  0.40069700  0.39820900  0.06739400  1
  O  O42  1  0.42987400  0.21450400  0.87160700  1
  O  O43  1  0.57012600  0.78549600  0.12839300  1
  O  O44  1  0.68047300  0.22367600  0.81699200  1
  O  O45  1  0.31952700  0.77632400  0.18300800  1
  O  O46  1  0.60684900  0.13535900  0.93726600  1
  O  O47  1  0.39315100  0.86464100  0.06273400  1
loop_
_geom_bond_atom_site_label_1
_geom_bond_atom_site_label_2
_geom_bond_distance
_geom_bond_site_symmetry_2
Cs0 O35 3.133770 1_555
Cs0 O34 3.256935 1_455
Cs0 O5 3.280712 1_555
Cs0 O4 3.298213 1_555
Cs0 O6 3.323533 1_555
Cs0 O38 3.334566 1_555
Cs0 O32 3.472010 1_455
Cs0 O26 3.498574 1_555
Cs0 O30 3.577814 1_555
Cs1 O34 3.133770 1_555
Cs1 O35 3.256935 1_655
Cs1 O4 3.280712 1_555
Cs1 O5 3.298213 1_555
Cs1 O7 3.323533 1_555
Cs1 O39 3.334566 1_555
Cs1 O33 3.472010 1_655
Cs1 O27 3.498574 1_555
Cs1 O31 3.577814 1_555
Cs2 O10 3.126296 1_555
Cs2 O22 3.164222 1_555
Cs2 O44 3.171242 1_455
Cs2 O32 3.200040 1_455
Cs2 O38 3.230445 1_555
Cs2 O9 3.236831 1_456
Cs2 O41 3.268376 1_556
Cs2 O11 3.325464 1_456
Cs2 O37 3.399507 1_556
Cs2 O36 3.502214 1_455
Cs3 O11 3.126296 1_555
Cs3 O23 3.164222 1_555
Cs3 O45 3.171242 1_655
Cs3 O33 3.200040 1_655
Cs3 O39 3.230445 1_555
Cs3 O8 3.236831 1_654
Cs3 O40 3.268376 1_554
Cs3 O10 3.325464 1_654
Cs3 O36 3.399507 1_554
Cs3 O37 3.502214 1_655
Cs4 O20 3.209336 1_655
Cs4 O47 3.218357 1_556
Cs4 O12 3.239829 1_555
Cs4 O0 3.261455 1_555
Cs4 O43 3.365469 1_556
Cs4 O8 3.403457 1_655
Cs4 O40 3.450020 1_555
Cs4 O21 3.507489 1_566
Cs4 O46 3.592132 1_565
Cs4 O16 3.641580 1_555
Cs5 O21 3.209336 1_455
Cs5 O46 3.218357 1_554
Cs5 O13 3.239829 1_555
Cs5 O1 3.261455 1_555
Cs5 O42 3.365469 1_554
Cs5 O9 3.403457 1_455
Cs5 O41 3.450020 1_555
Cs5 O20 3.507489 1_544
Cs5 O47 3.592132 1_545
Cs5 O17 3.641580 1_555
Cs6 O29 3.106214 1_545
Cs6 O24 3.166600 1_555
Cs6 O28 3.196162 1_655
Cs6 O32 3.196190 1_555
Cs6 O15 3.258870 1_555
Cs6 O16 3.259386 1_545
Cs6 O18 3.380805 1_645
Cs6 O22 3.470992 1_655
Cs6 O3 3.588027 1_655
Cs6 O44 3.604431 1_555
Cs6 O26 3.624351 1_655
Cs7 O28 3.106214 1_565
Cs7 O25 3.166600 1_555
Cs7 O29 3.196162 1_455
Cs7 O33 3.196190 1_555
Cs7 O14 3.258870 1_555
Cs7 O17 3.259386 1_565
Cs7 O19 3.380805 1_465
Cs7 O23 3.470992 1_455
Cs7 O2 3.588027 1_455
Cs7 O45 3.604431 1_555
Cs7 O27 3.624351 1_455
Co0 O6 2.074156 1_555
Co0 O2 2.138288 1_455
Co0 O20 2.147472 1_555
Co0 O14 2.157930 1_555
Co0 O18 2.237017 1_555
Co0 O12 2.307396 1_555
Co0 O0 2.327845 1_455
Co1 O7 2.074156 1_555
Co1 O3 2.138288 1_655
Co1 O21 2.147472 1_555
Co1 O15 2.157930 1_555
Co1 O19 2.237017 1_555
Co1 O13 2.307396 1_555
Co1 O1 2.327845 1_655
Co2 O30 2.085792 1_555
Co2 O44 2.104128 1_555
Co2 O38 2.141776 1_555
Co2 O26 2.148766 1_555
Co2 O42 2.250437 1_555
Co2 O24 2.280850 1_555
Co2 O36 2.366373 1_555
Co3 O31 2.085792 1_555
Co3 O45 2.104128 1_555
Co3 O39 2.141776 1_555
Co3 O27 2.148766 1_555
Co3 O43 2.250437 1_555
Co3 O25 2.280850 1_555
Co3 O37 2.366373 1_555
N0 O4 1.240315 1_555
N0 O0 1.277053 1_555
N0 O2 1.291119 1_555
N1 O5 1.240315 1_555
N1 O1 1.277053 1_555
N1 O3 1.291119 1_555
N2 O8 1.251670 1_555
N2 O10 1.253809 1_555
N2 O6 1.303020 1_555
N3 O9 1.251670 1_555
N3 O11 1.253809 1_555
N3 O7 1.303020 1_555
N4 O16 1.237180 1_555
N4 O12 1.281378 1_555
N4 O14 1.293669 1_555
N5 O17 1.237180 1_555
N5 O13 1.281378 1_555
N5 O15 1.293669 1_555
N6 O22 1.238030 1_555
N6 O18 1.277618 1_545
N6 O20 1.294526 1_545
N7 O23 1.238030 1_555
N7 O19 1.277618 1_565
N7 O21 1.294526 1_565
N8 O28 1.235529 1_555
N8 O24 1.277769 1_555
N8 O26 1.294291 1_555
N9 O29 1.235529 1_555
N9 O25 1.277769 1_555
N9 O27 1.294291 1_555
N10 O34 1.250644 1_555
N10 O32 1.263356 1_555
N10 O30 1.295061 1_555
N11 O35 1.250644 1_555
N11 O33 1.263356 1_555
N11 O31 1.295061 1_555
N12 O40 1.239749 1_555
N12 O36 1.273689 1_555
N12 O38 1.297304 1_555
N13 O41 1.239749 1_555
N13 O37 1.273689 1_555
N13 O39 1.297304 1_555
N14 O46 1.234981 1_555
N14 O42 1.282748 1_555
N14 O44 1.295106 1_555
N15 O47 1.234981 1_555
N15 O43 1.282748 1_555
N15 O45 1.295106 1_555
