# generated using pymatgen
data_K3NdH6(C2O5)3
_symmetry_space_group_name_H-M   'P 1'
_cell_length_a   8.66359000
_cell_length_b   9.44765837
_cell_length_c   9.94491094
_cell_angle_alpha   98.29556632
_cell_angle_beta   91.38336312
_cell_angle_gamma   95.94498575
_symmetry_Int_Tables_number   1
_chemical_formula_structural   K3NdH6(C2O5)3
_chemical_formula_sum   'K6 Nd2 H12 C12 O30'
_cell_volume   800.51640783
_cell_formula_units_Z   2
loop_
 _symmetry_equiv_pos_site_id
 _symmetry_equiv_pos_as_xyz
  1  'x, y, z'
loop_
 _atom_site_type_symbol
 _atom_site_label
 _atom_site_symmetry_multiplicity
 _atom_site_fract_x
 _atom_site_fract_y
 _atom_site_fract_z
 _atom_site_occupancy
  K  K0  1  0.65035700  0.20810400  0.69630200  1
  K  K1  1  0.95583300  0.68368500  0.61369800  1
  K  K2  1  0.34964300  0.79189600  0.30369800  1
  K  K3  1  0.71111500  0.86040000  0.88767500  1
  K  K4  1  0.28888500  0.13960000  0.11232500  1
  K  K5  1  0.04416700  0.31631500  0.38630200  1
  Nd  Nd0  1  0.22852500  0.35759300  0.77914800  1
  Nd  Nd1  1  0.77147500  0.64240700  0.22085200  1
  H  H0  1  0.73181700  0.88923700  0.47397700  1
  H  H1  1  0.37080800  0.24774500  0.49684400  1
  H  H2  1  0.27584500  0.76133300  0.99351400  1
  H  H3  1  0.37951200  0.00430200  0.79465000  1
  H  H4  1  0.26818300  0.11076300  0.52602300  1
  H  H5  1  0.62919200  0.75225500  0.50315600  1
  H  H6  1  0.57252100  0.11712500  0.31432400  1
  H  H7  1  0.72415500  0.23866700  0.00648600  1
  H  H8  1  0.14734500  0.85752200  0.96523800  1
  H  H9  1  0.85265500  0.14247800  0.03476200  1
  H  H10  1  0.62048800  0.99569800  0.20535000  1
  H  H11  1  0.42747900  0.88287500  0.68567600  1
  C  C0  1  0.52842000  0.42412700  0.99853100  1
  C  C1  1  0.96484400  0.07594500  0.68105900  1
  C  C2  1  0.32677900  0.61554700  0.60264600  1
  C  C3  1  0.07225100  0.02233300  0.78770000  1
  C  C4  1  0.67322100  0.38445300  0.39735400  1
  C  C5  1  0.96698400  0.54161200  0.94541600  1
  C  C6  1  0.48969100  0.57747700  0.65099700  1
  C  C7  1  0.03515600  0.92405500  0.31894100  1
  C  C8  1  0.03301600  0.45838800  0.05458400  1
  C  C9  1  0.92774900  0.97766700  0.21230000  1
  C  C10  1  0.51030900  0.42252300  0.34900300  1
  C  C11  1  0.47158000  0.57587300  0.00146900  1
  O  O0  1  0.78679100  0.48357900  0.39769800  1
  O  O1  1  0.60827900  0.66483600  0.64179400  1
  O  O2  1  0.96922600  0.09599000  0.17299600  1
  O  O3  1  0.77785700  0.15815300  0.96266000  1
  O  O4  1  0.12544100  0.36700700  0.01533900  1
  O  O5  1  0.39172100  0.33516400  0.35820600  1
  O  O6  1  0.99836100  0.20605200  0.66044200  1
  O  O7  1  0.98882500  0.48902400  0.17528000  1
  O  O8  1  0.33139200  0.19709500  0.57314200  1
  O  O9  1  0.68474700  0.26242400  0.43011900  1
  O  O10  1  0.48829800  0.45888000  0.69745600  1
  O  O11  1  0.00163900  0.79394800  0.33955800  1
  O  O12  1  0.80325200  0.89526100  0.17276100  1
  O  O13  1  0.85320100  0.98933300  0.62655900  1
  O  O14  1  0.47085000  0.96053100  0.75841500  1
  O  O15  1  0.65124600  0.41579300  0.06691300  1
  O  O16  1  0.03077400  0.90401000  0.82700400  1
  O  O17  1  0.21320900  0.51642100  0.60230200  1
  O  O18  1  0.87455900  0.63299300  0.98466100  1
  O  O19  1  0.55207400  0.68206400  0.07201000  1
  O  O20  1  0.34875400  0.58420700  0.93308700  1
  O  O21  1  0.44792600  0.31793600  0.92799000  1
  O  O22  1  0.19674800  0.10473900  0.82723900  1
  O  O23  1  0.52915000  0.03946900  0.24158500  1
  O  O24  1  0.22214300  0.84184700  0.03734000  1
  O  O25  1  0.51170200  0.54112000  0.30254400  1
  O  O26  1  0.14679900  0.01066700  0.37344100  1
  O  O27  1  0.01117500  0.51097600  0.82472000  1
  O  O28  1  0.66860800  0.80290500  0.42685800  1
  O  O29  1  0.31525300  0.73757600  0.56988100  1
loop_
_geom_bond_atom_site_label_1
_geom_bond_atom_site_label_2
_geom_bond_distance
_geom_bond_site_symmetry_2
K0 O9 2.785328 1_555
K0 O14 2.825027 1_545
K0 O13 2.870353 1_545
K0 O10 2.875188 1_555
K0 O3 2.964287 1_555
K0 O8 2.981199 1_555
K0 O6 3.046242 1_555
K0 O21 3.056729 1_555
K1 O16 2.762922 1_655
K1 O17 2.858756 1_655
K1 O27 2.897929 1_655
K1 O0 2.904473 1_555
K1 O1 3.019968 1_555
K1 O11 3.075957 1_655
K1 O13 3.094563 1_555
K1 O29 3.153792 1_655
K2 O29 2.785328 1_555
K2 O23 2.825027 1_565
K2 O26 2.870353 1_565
K2 O25 2.875188 1_555
K2 O24 2.964287 1_555
K2 O28 2.981199 1_555
K2 O11 3.046242 1_555
K2 O19 3.056729 1_555
K3 O14 2.740415 1_555
K3 O3 2.800126 1_565
K3 O16 2.849457 1_655
K3 O12 2.889737 1_556
K3 O1 2.904637 1_555
K3 O19 2.937720 1_556
K3 O18 2.951862 1_555
K3 O13 3.240191 1_555
K4 O23 2.740415 1_555
K4 O24 2.800126 1_545
K4 O2 2.849457 1_455
K4 O22 2.889737 1_554
K4 O5 2.904637 1_555
K4 O21 2.937720 1_554
K4 O4 2.951862 1_555
K4 O26 3.240191 1_555
K5 O2 2.762922 1_455
K5 O0 2.858756 1_455
K5 O7 2.897929 1_455
K5 O17 2.904473 1_555
K5 O5 3.019968 1_555
K5 O6 3.075957 1_455
K5 O26 3.094563 1_555
K5 O9 3.153792 1_455
Nd0 O21 2.473089 1_555
Nd0 O17 2.480696 1_555
Nd0 O22 2.492202 1_555
Nd0 O6 2.495372 1_455
Nd0 O27 2.503611 1_555
Nd0 O4 2.525922 1_556
Nd0 O10 2.550937 1_555
Nd0 O20 2.554930 1_555
Nd0 O8 2.600457 1_555
Nd1 O19 2.473089 1_555
Nd1 O0 2.480696 1_555
Nd1 O12 2.492202 1_555
Nd1 O11 2.495372 1_655
Nd1 O7 2.503611 1_555
Nd1 O18 2.525922 1_554
Nd1 O25 2.550937 1_555
Nd1 O15 2.554930 1_555
Nd1 O28 2.600457 1_555
H0 O28 0.984644 1_555
H1 O8 1.002384 1_555
H2 O24 0.986140 1_556
H3 O14 0.982648 1_545
H4 O8 0.984644 1_555
H5 O28 1.002384 1_555
H6 O23 0.989628 1_555
H7 O3 0.986140 1_554
H8 O24 0.992020 1_556
H9 O3 0.992020 1_554
H10 O23 0.982648 1_565
H11 O14 0.989628 1_555
C0 O15 1.264467 1_556
C0 O21 1.270173 1_555
C1 O13 1.257632 1_545
C1 O6 1.280222 1_555
C2 O29 1.255378 1_555
C2 O17 1.285769 1_555
C3 O16 1.257462 1_545
C3 O22 1.281149 1_555
C4 O9 1.255378 1_555
C4 O0 1.285769 1_555
C5 O18 1.264874 1_555
C5 O27 1.271216 1_655
C6 O1 1.263247 1_555
C6 O10 1.271184 1_555
C7 O26 1.257632 1_565
C7 O11 1.280222 1_555
C8 O4 1.264874 1_555
C8 O7 1.271216 1_455
C9 O2 1.257462 1_565
C9 O12 1.281149 1_555
C10 O5 1.263247 1_555
C10 O25 1.271184 1_555
C11 O20 1.264467 1_554
C11 O19 1.270173 1_555
