# generated using pymatgen
data_CdI2
_symmetry_space_group_name_H-M   'P 1'
_cell_length_a   29.55172763
_cell_length_b   29.55172763
_cell_length_c   29.55172719
_cell_angle_alpha   8.43644090
_cell_angle_beta   8.43644090
_cell_angle_gamma   8.43644262
_symmetry_Int_Tables_number   1
_chemical_formula_structural   CdI2
_chemical_formula_sum   'Cd4 I8'
_cell_volume   481.94296345
_cell_formula_units_Z   4
loop_
 _symmetry_equiv_pos_site_id
 _symmetry_equiv_pos_as_xyz
  1  'x, y, z'
loop_
 _atom_site_type_symbol
 _atom_site_label
 _atom_site_symmetry_multiplicity
 _atom_site_fract_x
 _atom_site_fract_y
 _atom_site_fract_z
 _atom_site_occupancy
  Cd  Cd0  1  0.58333100  0.58333100  0.58333100  1
  Cd  Cd1  1  0.41666900  0.41666900  0.41666900  1
  Cd  Cd2  1  0.00000000  0.00000000  0.00000000  1
  Cd  Cd3  1  0.50000000  0.50000000  0.50000000  1
  I  I0  1  0.10281400  0.10281400  0.10281400  1
  I  I1  1  0.35281500  0.35281500  0.35281500  1
  I  I2  1  0.18615000  0.18615000  0.18615000  1
  I  I3  1  0.26948200  0.26948200  0.26948200  1
  I  I4  1  0.64718500  0.64718500  0.64718500  1
  I  I5  1  0.73051800  0.73051800  0.73051800  1
  I  I6  1  0.81385000  0.81385000  0.81385000  1
  I  I7  1  0.89718600  0.89718600  0.89718600  1
loop_
_geom_bond_atom_site_label_1
_geom_bond_atom_site_label_2
_geom_bond_distance
_geom_bond_site_symmetry_2
Cd0 I7 3.043091 1_554
Cd0 I7 3.043092 1_455
Cd0 I7 3.043092 1_545
Cd0 I3 3.043391 1_556
Cd0 I3 3.043392 1_655
Cd0 I3 3.043392 1_565
Cd1 I0 3.043091 1_556
Cd1 I0 3.043092 1_655
Cd1 I0 3.043092 1_565
Cd1 I5 3.043391 1_554
Cd1 I5 3.043392 1_455
Cd1 I5 3.043392 1_545
Cd2 I1 3.043258 1_554
Cd2 I4 3.043258 1_445
Cd2 I4 3.043258 1_454
Cd2 I1 3.043258 1_545
Cd2 I1 3.043258 1_455
Cd2 I4 3.043258 1_544
Cd3 I6 3.043341 1_554
Cd3 I2 3.043341 1_556
Cd3 I6 3.043342 1_455
Cd3 I6 3.043342 1_545
Cd3 I2 3.043342 1_565
Cd3 I2 3.043342 1_655
