# generated using pymatgen
data_KMg4(PO4)3
_symmetry_space_group_name_H-M   'P 1'
_cell_length_a   6.23398500
_cell_length_b   9.67637100
_cell_length_c   16.56205700
_cell_angle_alpha   90.00000000
_cell_angle_beta   90.00000000
_cell_angle_gamma   90.00000000
_symmetry_Int_Tables_number   1
_chemical_formula_structural   KMg4(PO4)3
_chemical_formula_sum   'K4 Mg16 P12 O48'
_cell_volume   999.06222671
_cell_formula_units_Z   4
loop_
 _symmetry_equiv_pos_site_id
 _symmetry_equiv_pos_as_xyz
  1  'x, y, z'
loop_
 _atom_site_type_symbol
 _atom_site_label
 _atom_site_symmetry_multiplicity
 _atom_site_fract_x
 _atom_site_fract_y
 _atom_site_fract_z
 _atom_site_occupancy
  K  K0  1  0.00000000  0.20080600  0.96518600  1
  K  K1  1  0.50000000  0.29919400  0.46518600  1
  K  K2  1  0.00000000  0.79919400  0.03481400  1
  K  K3  1  0.50000000  0.70080600  0.53481400  1
  Mg  Mg0  1  0.24682100  0.24902900  0.20181200  1
  Mg  Mg1  1  0.00000000  0.51925700  0.64189700  1
  Mg  Mg2  1  0.25317900  0.25097100  0.70181200  1
  Mg  Mg3  1  0.25317900  0.74902900  0.29818800  1
  Mg  Mg4  1  0.74682100  0.74902900  0.29818800  1
  Mg  Mg5  1  0.00000000  0.03649500  0.40812100  1
  Mg  Mg6  1  0.50000000  0.53649500  0.09187900  1
  Mg  Mg7  1  0.00000000  0.48074300  0.35810300  1
  Mg  Mg8  1  0.24682100  0.75097100  0.79818800  1
  Mg  Mg9  1  0.75317900  0.24902900  0.20181200  1
  Mg  Mg10  1  0.50000000  0.46350500  0.90812100  1
  Mg  Mg11  1  0.00000000  0.96350500  0.59187900  1
  Mg  Mg12  1  0.75317900  0.75097100  0.79818800  1
  Mg  Mg13  1  0.50000000  0.98074300  0.14189700  1
  Mg  Mg14  1  0.74682100  0.25097100  0.70181200  1
  Mg  Mg15  1  0.50000000  0.01925700  0.85810300  1
  P  P0  1  0.50000000  0.45617600  0.27879100  1
  P  P1  1  0.00000000  0.70898400  0.46381400  1
  P  P2  1  0.50000000  0.04436700  0.33360300  1
  P  P3  1  0.50000000  0.54382400  0.72120900  1
  P  P4  1  0.00000000  0.04382400  0.77879100  1
  P  P5  1  0.50000000  0.79101600  0.96381400  1
  P  P6  1  0.00000000  0.95617600  0.22120900  1
  P  P7  1  0.50000000  0.20898400  0.03618600  1
  P  P8  1  0.00000000  0.54436700  0.16639700  1
  P  P9  1  0.00000000  0.45563300  0.83360300  1
  P  P10  1  0.50000000  0.95563300  0.66639700  1
  P  P11  1  0.00000000  0.29101600  0.53618600  1
  O  O0  1  0.00000000  0.13258300  0.52056700  1
  O  O1  1  0.79776600  0.41002400  0.87827300  1
  O  O2  1  0.30346100  0.83604400  0.91085600  1
  O  O3  1  0.19653900  0.33604400  0.58914400  1
  O  O4  1  0.70666000  0.60033900  0.68219000  1
  O  O5  1  0.79334000  0.10033900  0.81781000  1
  O  O6  1  0.50000000  0.11558600  0.24579300  1
  O  O7  1  0.70666000  0.39966100  0.31781000  1
  O  O8  1  0.20666000  0.10033900  0.81781000  1
  O  O9  1  0.50000000  0.61650400  0.27330200  1
  O  O10  1  0.50000000  0.36741700  0.02056700  1
  O  O11  1  0.69653900  0.16395600  0.08914400  1
  O  O12  1  0.50000000  0.60748100  0.80952200  1
  O  O13  1  0.20223400  0.58997600  0.12172700  1
  O  O14  1  0.29776600  0.08997600  0.37827300  1
  O  O15  1  0.79334000  0.89966100  0.18219000  1
  O  O16  1  0.80346100  0.66395600  0.41085600  1
  O  O17  1  0.00000000  0.88349600  0.77330200  1
  O  O18  1  0.70223400  0.08997600  0.37827300  1
  O  O19  1  0.20223400  0.41002400  0.87827300  1
  O  O20  1  0.20666000  0.89966100  0.18219000  1
  O  O21  1  0.19653900  0.66395600  0.41085600  1
  O  O22  1  0.00000000  0.10748100  0.69047800  1
  O  O23  1  0.50000000  0.39251900  0.19047800  1
  O  O24  1  0.30346100  0.16395600  0.08914400  1
  O  O25  1  0.29776600  0.91002400  0.62172700  1
  O  O26  1  0.00000000  0.38441400  0.74579300  1
  O  O27  1  0.00000000  0.61616600  0.82000500  1
  O  O28  1  0.50000000  0.88441400  0.75420700  1
  O  O29  1  0.00000000  0.63827500  0.54586100  1
  O  O30  1  0.50000000  0.38349600  0.72669800  1
  O  O31  1  0.50000000  0.11616600  0.67999500  1
  O  O32  1  0.00000000  0.38383400  0.17999500  1
  O  O33  1  0.00000000  0.89251900  0.30952200  1
  O  O34  1  0.69653900  0.83604400  0.91085600  1
  O  O35  1  0.29334000  0.60033900  0.68219000  1
  O  O36  1  0.50000000  0.86172500  0.04586100  1
  O  O37  1  0.50000000  0.13827500  0.95413900  1
  O  O38  1  0.70223400  0.91002400  0.62172700  1
  O  O39  1  0.29334000  0.39966100  0.31781000  1
  O  O40  1  0.80346100  0.33604400  0.58914400  1
  O  O41  1  0.00000000  0.11650400  0.22669800  1
  O  O42  1  0.00000000  0.61558600  0.25420700  1
  O  O43  1  0.00000000  0.86741700  0.47943300  1
  O  O44  1  0.00000000  0.36172500  0.45413900  1
  O  O45  1  0.79776600  0.58997600  0.12172700  1
  O  O46  1  0.50000000  0.63258300  0.97943300  1
  O  O47  1  0.50000000  0.88383400  0.32000500  1
loop_
_geom_bond_atom_site_label_1
_geom_bond_atom_site_label_2
_geom_bond_distance
_geom_bond_site_symmetry_2
K0 O19 2.785668 1_555
K0 O1 2.785668 1_455
K0 O11 2.814383 1_456
K0 O24 2.814383 1_556
K0 O8 2.926191 1_555
K0 O5 2.926191 1_455
K0 O37 3.180445 1_555
K0 O37 3.180445 1_455
K1 O18 2.785668 1_555
K1 O14 2.785668 1_555
K1 O40 2.814383 1_555
K1 O3 2.814383 1_555
K1 O39 2.926191 1_555
K1 O7 2.926191 1_555
K1 O44 3.180445 1_655
K1 O44 3.180445 1_555
K2 O13 2.785668 1_555
K2 O45 2.785668 1_455
K2 O34 2.814383 1_454
K2 O2 2.814383 1_554
K2 O15 2.926191 1_455
K2 O20 2.926191 1_555
K2 O36 3.180445 1_455
K2 O36 3.180445 1_555
K3 O38 2.785668 1_555
K3 O25 2.785668 1_555
K3 O21 2.814383 1_555
K3 O16 2.814383 1_555
K3 O35 2.926191 1_555
K3 O4 2.926191 1_555
K3 O29 3.180445 1_555
K3 O29 3.180445 1_655
Mg0 O41 2.044960 1_555
Mg0 O32 2.049296 1_555
Mg0 O24 2.069864 1_555
Mg0 O23 2.110483 1_555
Mg0 O6 2.165404 1_555
Mg0 O39 2.428887 1_555
Mg1 O29 1.963718 1_555
Mg1 O4 2.098800 1_455
Mg1 O35 2.098800 1_555
Mg1 O26 2.159490 1_555
Mg1 O40 2.325396 1_455
Mg1 O3 2.325396 1_555
Mg2 O30 2.044960 1_555
Mg2 O31 2.049296 1_555
Mg2 O3 2.069864 1_555
Mg2 O22 2.110483 1_555
Mg2 O26 2.165404 1_555
Mg2 O8 2.428887 1_555
Mg3 O9 2.044960 1_555
Mg3 O47 2.049296 1_555
Mg3 O21 2.069864 1_555
Mg3 O33 2.110483 1_555
Mg3 O42 2.165404 1_555
Mg3 O20 2.428887 1_555
Mg4 O9 2.044960 1_555
Mg4 O47 2.049296 1_555
Mg4 O16 2.069864 1_555
Mg4 O33 2.110483 1_655
Mg4 O42 2.165404 1_655
Mg4 O15 2.428887 1_555
Mg5 O14 1.989452 1_555
Mg5 O18 1.989452 1_455
Mg5 O43 2.017828 1_545
Mg5 O0 2.081537 1_555
Mg5 O33 2.146533 1_545
Mg6 O13 1.989452 1_555
Mg6 O45 1.989452 1_555
Mg6 O10 2.017828 1_555
Mg6 O46 2.081537 1_554
Mg6 O23 2.146533 1_555
Mg7 O44 1.963718 1_555
Mg7 O7 2.098800 1_455
Mg7 O39 2.098800 1_555
Mg7 O42 2.159490 1_555
Mg7 O16 2.325396 1_455
Mg7 O21 2.325396 1_555
Mg8 O17 2.044960 1_555
Mg8 O27 2.049296 1_555
Mg8 O2 2.069864 1_555
Mg8 O12 2.110483 1_555
Mg8 O28 2.165404 1_555
Mg8 O35 2.428887 1_555
Mg9 O41 2.044960 1_655
Mg9 O32 2.049296 1_655
Mg9 O11 2.069864 1_555
Mg9 O23 2.110483 1_555
Mg9 O6 2.165404 1_555
Mg9 O7 2.428887 1_555
Mg10 O19 1.989452 1_555
Mg10 O1 1.989452 1_555
Mg10 O46 2.017828 1_555
Mg10 O10 2.081537 1_556
Mg10 O12 2.146533 1_555
Mg11 O25 1.989452 1_555
Mg11 O38 1.989452 1_455
Mg11 O0 2.017828 1_565
Mg11 O43 2.081537 1_555
Mg11 O22 2.146533 1_565
Mg12 O17 2.044960 1_655
Mg12 O27 2.049296 1_655
Mg12 O34 2.069864 1_555
Mg12 O12 2.110483 1_555
Mg12 O28 2.165404 1_555
Mg12 O4 2.428887 1_555
Mg13 O36 1.963718 1_555
Mg13 O20 2.098800 1_555
Mg13 O15 2.098800 1_555
Mg13 O6 2.159490 1_565
Mg13 O24 2.325396 1_565
Mg13 O11 2.325396 1_565
Mg14 O30 2.044960 1_555
Mg14 O31 2.049296 1_555
Mg14 O40 2.069864 1_555
Mg14 O22 2.110483 1_655
Mg14 O26 2.165404 1_655
Mg14 O5 2.428887 1_555
Mg15 O37 1.963718 1_555
Mg15 O5 2.098800 1_555
Mg15 O8 2.098800 1_555
Mg15 O28 2.159490 1_545
Mg15 O34 2.325396 1_545
Mg15 O2 2.325396 1_545
O0 P11 1.554728 1_555
O1 P9 1.526938 1_655
O2 P5 1.568535 1_555
O3 P11 1.568535 1_555
O4 P3 1.541568 1_555
O5 P4 1.541568 1_655
O6 P2 1.609331 1_555
O7 P0 1.541568 1_555
O8 P4 1.541568 1_555
O9 P0 1.554054 1_555
O10 P7 1.554728 1_555
O11 P7 1.568535 1_555
O12 P3 1.587056 1_555
O13 P8 1.526938 1_555
O14 P2 1.526938 1_555
O15 P6 1.541568 1_655
O16 P1 1.568535 1_655
O17 P4 1.554054 1_565
O18 P2 1.526938 1_555
O19 P9 1.526938 1_555
O20 P6 1.541568 1_555
O21 P1 1.568535 1_555
O22 P4 1.587056 1_555
O23 P0 1.587056 1_555
O24 P7 1.568535 1_555
O25 P10 1.526938 1_555
O26 P9 1.609331 1_555
O27 P9 1.569618 1_555
O28 P10 1.609331 1_555
O29 P1 1.521400 1_555
O30 P3 1.554054 1_555
O31 P10 1.569618 1_545
O32 P8 1.569618 1_555
O33 P6 1.587056 1_555
O34 P5 1.568535 1_555
O35 P3 1.541568 1_555
O36 P5 1.521400 1_554
O37 P7 1.521400 1_556
O38 P10 1.526938 1_555
O39 P0 1.541568 1_555
O40 P11 1.568535 1_655
O41 P6 1.554054 1_545
O42 P8 1.609331 1_555
O43 P1 1.554728 1_555
O44 P11 1.521400 1_555
O45 P8 1.526938 1_655
O46 P5 1.554728 1_555
O47 P2 1.569618 1_565
