# generated using pymatgen
data_NdFeSb3
_symmetry_space_group_name_H-M   'P 1'
_cell_length_a   6.23706600
_cell_length_b   12.70923800
_cell_length_c   18.49192700
_cell_angle_alpha   90.00000000
_cell_angle_beta   90.00000000
_cell_angle_gamma   90.00000000
_symmetry_Int_Tables_number   1
_chemical_formula_structural   NdFeSb3
_chemical_formula_sum   'Nd12 Fe12 Sb36'
_cell_volume   1465.82465655
_cell_formula_units_Z   12
loop_
 _symmetry_equiv_pos_site_id
 _symmetry_equiv_pos_as_xyz
  1  'x, y, z'
loop_
 _atom_site_type_symbol
 _atom_site_label
 _atom_site_symmetry_multiplicity
 _atom_site_fract_x
 _atom_site_fract_y
 _atom_site_fract_z
 _atom_site_occupancy
  Nd  Nd0  1  0.51947200  0.70051400  0.41715600  1
  Nd  Nd1  1  0.54770300  0.30711800  0.25000000  1
  Nd  Nd2  1  0.01947200  0.29948600  0.41715600  1
  Nd  Nd3  1  0.48052800  0.29948600  0.91715600  1
  Nd  Nd4  1  0.04770300  0.69288200  0.25000000  1
  Nd  Nd5  1  0.45229700  0.69288200  0.75000000  1
  Nd  Nd6  1  0.98052800  0.70051400  0.91715600  1
  Nd  Nd7  1  0.51947200  0.70051400  0.08284400  1
  Nd  Nd8  1  0.01947200  0.29948600  0.08284400  1
  Nd  Nd9  1  0.98052800  0.70051400  0.58284400  1
  Nd  Nd10  1  0.48052800  0.29948600  0.58284400  1
  Nd  Nd11  1  0.95229700  0.30711800  0.75000000  1
  Fe  Fe0  1  0.68278600  0.89874100  0.82143700  1
  Fe  Fe1  1  0.18278600  0.10125900  0.67856300  1
  Fe  Fe2  1  0.81721400  0.89874100  0.17856300  1
  Fe  Fe3  1  0.75000000  0.10500200  0.50000000  1
  Fe  Fe4  1  0.31721400  0.10125900  0.32143700  1
  Fe  Fe5  1  0.31721400  0.10125900  0.17856300  1
  Fe  Fe6  1  0.81721400  0.89874100  0.32143700  1
  Fe  Fe7  1  0.75000000  0.10500200  0.00000000  1
  Fe  Fe8  1  0.25000000  0.89499800  0.00000000  1
  Fe  Fe9  1  0.25000000  0.89499800  0.50000000  1
  Fe  Fe10  1  0.18278600  0.10125900  0.82143700  1
  Fe  Fe11  1  0.68278600  0.89874100  0.67856300  1
  Sb  Sb0  1  0.21700700  0.49684900  0.83436700  1
  Sb  Sb1  1  0.96695400  0.97081300  0.58777500  1
  Sb  Sb2  1  0.16742900  0.94122300  0.25000000  1
  Sb  Sb3  1  0.95836700  0.78201900  0.75000000  1
  Sb  Sb4  1  0.03304600  0.02918700  0.41222500  1
  Sb  Sb5  1  0.28299300  0.49684900  0.33436700  1
  Sb  Sb6  1  0.78299300  0.50315100  0.33436700  1
  Sb  Sb7  1  0.04163300  0.21798100  0.25000000  1
  Sb  Sb8  1  0.01615000  0.77933300  0.08456800  1
  Sb  Sb9  1  0.48385000  0.77933300  0.91543200  1
  Sb  Sb10  1  0.71700700  0.50315100  0.83436700  1
  Sb  Sb11  1  0.25000000  0.50274800  0.00000000  1
  Sb  Sb12  1  0.75000000  0.49725200  0.00000000  1
  Sb  Sb13  1  0.01615000  0.77933300  0.41543200  1
  Sb  Sb14  1  0.53304600  0.97081300  0.41222500  1
  Sb  Sb15  1  0.46695400  0.02918700  0.58777500  1
  Sb  Sb16  1  0.25000000  0.50274800  0.50000000  1
  Sb  Sb17  1  0.48385000  0.77933300  0.58456800  1
  Sb  Sb18  1  0.54163300  0.78201900  0.25000000  1
  Sb  Sb19  1  0.45836700  0.21798100  0.75000000  1
  Sb  Sb20  1  0.75000000  0.49725200  0.50000000  1
  Sb  Sb21  1  0.03304600  0.02918700  0.08777500  1
  Sb  Sb22  1  0.78299300  0.50315100  0.16563300  1
  Sb  Sb23  1  0.46695400  0.02918700  0.91222500  1
  Sb  Sb24  1  0.53304600  0.97081300  0.08777500  1
  Sb  Sb25  1  0.33257100  0.94122300  0.75000000  1
  Sb  Sb26  1  0.71700700  0.50315100  0.66563300  1
  Sb  Sb27  1  0.83257100  0.05877700  0.75000000  1
  Sb  Sb28  1  0.51615000  0.22066700  0.41543200  1
  Sb  Sb29  1  0.51615000  0.22066700  0.08456800  1
  Sb  Sb30  1  0.66742900  0.05877700  0.25000000  1
  Sb  Sb31  1  0.28299300  0.49684900  0.16563300  1
  Sb  Sb32  1  0.98385000  0.22066700  0.91543200  1
  Sb  Sb33  1  0.96695400  0.97081300  0.91222500  1
  Sb  Sb34  1  0.98385000  0.22066700  0.58456800  1
  Sb  Sb35  1  0.21700700  0.49684900  0.66563300  1
loop_
_geom_bond_atom_site_label_1
_geom_bond_atom_site_label_2
_geom_bond_distance
_geom_bond_site_symmetry_2
Nd0 Sb13 3.255906 1_655
Nd0 Sb17 3.261383 1_555
Nd0 Sb18 3.262918 1_555
Nd0 Sb13 3.295358 1_555
Nd0 Sb20 3.329811 1_555
Nd0 Sb5 3.349497 1_555
Nd0 Sb6 3.367030 1_555
Nd0 Sb16 3.389560 1_555
Nd0 Sb14 3.437547 1_555
Nd1 Sb30 3.243359 1_555
Nd1 Sb29 3.256435 1_555
Nd1 Sb28 3.256435 1_555
Nd1 Sb7 3.282367 1_655
Nd1 Sb22 3.285540 1_555
Nd1 Sb6 3.285540 1_555
Nd1 Sb5 3.312752 1_555
Nd1 Sb31 3.312752 1_555
Nd1 Sb7 3.353534 1_555
Nd2 Sb28 3.255906 1_555
Nd2 Sb34 3.261383 1_455
Nd2 Sb7 3.262918 1_555
Nd2 Sb28 3.295358 1_455
Nd2 Sb16 3.329811 1_555
Nd2 Sb6 3.349497 1_455
Nd2 Sb5 3.367030 1_555
Nd2 Sb20 3.389560 1_455
Nd2 Sb4 3.437547 1_555
Nd3 Sb32 3.255906 1_455
Nd3 Sb29 3.261383 1_556
Nd3 Sb19 3.262918 1_555
Nd3 Sb32 3.295358 1_555
Nd3 Sb11 3.329811 1_556
Nd3 Sb10 3.349497 1_555
Nd3 Sb0 3.367030 1_555
Nd3 Sb12 3.389560 1_556
Nd3 Sb23 3.437547 1_555
Nd4 Sb2 3.243359 1_555
Nd4 Sb8 3.256435 1_555
Nd4 Sb13 3.256435 1_555
Nd4 Sb18 3.282367 1_555
Nd4 Sb31 3.285540 1_555
Nd4 Sb5 3.285540 1_555
Nd4 Sb22 3.312752 1_455
Nd4 Sb6 3.312752 1_455
Nd4 Sb18 3.353534 1_455
Nd5 Sb25 3.243359 1_555
Nd5 Sb9 3.256435 1_555
Nd5 Sb17 3.256435 1_555
Nd5 Sb3 3.282367 1_455
Nd5 Sb35 3.285540 1_555
Nd5 Sb0 3.285540 1_555
Nd5 Sb10 3.312752 1_555
Nd5 Sb26 3.312752 1_555
Nd5 Sb3 3.353534 1_555
Nd6 Sb9 3.255906 1_555
Nd6 Sb8 3.261383 1_656
Nd6 Sb3 3.262918 1_555
Nd6 Sb9 3.295358 1_655
Nd6 Sb12 3.329811 1_556
Nd6 Sb0 3.349497 1_655
Nd6 Sb10 3.367030 1_555
Nd6 Sb11 3.389560 1_656
Nd6 Sb33 3.437547 1_555
Nd7 Sb8 3.255906 1_655
Nd7 Sb9 3.261383 1_554
Nd7 Sb18 3.262918 1_555
Nd7 Sb8 3.295358 1_555
Nd7 Sb12 3.329811 1_555
Nd7 Sb31 3.349497 1_555
Nd7 Sb22 3.367030 1_555
Nd7 Sb11 3.389560 1_555
Nd7 Sb24 3.437547 1_555
Nd8 Sb29 3.255906 1_555
Nd8 Sb32 3.261383 1_454
Nd8 Sb7 3.262918 1_555
Nd8 Sb29 3.295358 1_455
Nd8 Sb11 3.329811 1_555
Nd8 Sb22 3.349497 1_455
Nd8 Sb31 3.367030 1_555
Nd8 Sb12 3.389560 1_455
Nd8 Sb21 3.437547 1_555
Nd9 Sb17 3.255906 1_555
Nd9 Sb13 3.261383 1_655
Nd9 Sb3 3.262918 1_555
Nd9 Sb17 3.295358 1_655
Nd9 Sb20 3.329811 1_555
Nd9 Sb35 3.349497 1_655
Nd9 Sb26 3.367030 1_555
Nd9 Sb16 3.389560 1_655
Nd9 Sb1 3.437547 1_555
Nd10 Sb34 3.255906 1_455
Nd10 Sb28 3.261383 1_555
Nd10 Sb19 3.262918 1_555
Nd10 Sb34 3.295358 1_555
Nd10 Sb16 3.329811 1_555
Nd10 Sb26 3.349497 1_555
Nd10 Sb35 3.367030 1_555
Nd10 Sb20 3.389560 1_555
Nd10 Sb15 3.437547 1_555
Nd11 Sb27 3.243359 1_555
Nd11 Sb34 3.256435 1_555
Nd11 Sb32 3.256435 1_555
Nd11 Sb19 3.282367 1_555
Nd11 Sb10 3.285540 1_555
Nd11 Sb26 3.285540 1_555
Nd11 Sb35 3.312752 1_655
Nd11 Sb0 3.312752 1_655
Nd11 Sb19 3.353534 1_655
Fe0 Sb27 2.598985 1_565
Fe0 Sb33 2.607461 1_555
Fe0 Sb25 2.609175 1_555
Fe0 Sb9 2.619876 1_555
Fe0 Sb3 2.626787 1_555
Fe0 Sb23 2.716467 1_565
Fe0 Nd5 3.264470 1_555
Fe0 Nd6 3.595627 1_555
Fe1 Sb25 2.598985 1_545
Fe1 Sb15 2.607461 1_555
Fe1 Sb27 2.609175 1_455
Fe1 Sb34 2.619876 1_455
Fe1 Sb19 2.626787 1_555
Fe1 Sb1 2.716467 1_445
Fe1 Nd11 3.264470 1_455
Fe1 Nd10 3.595627 1_555
Fe2 Sb30 2.598985 1_565
Fe2 Sb24 2.607461 1_555
Fe2 Sb2 2.609175 1_655
Fe2 Sb8 2.619876 1_655
Fe2 Sb18 2.626787 1_555
Fe2 Sb21 2.716467 1_665
Fe2 Nd4 3.264470 1_655
Fe2 Nd7 3.595627 1_555
Fe3 Sb4 2.584479 1_655
Fe3 Sb15 2.584479 1_555
Fe3 Sb28 2.594961 1_555
Fe3 Sb34 2.594961 1_555
Fe3 Sb14 2.715530 1_545
Fe3 Sb1 2.715530 1_545
Fe3 Nd2 3.358746 1_655
Fe3 Nd10 3.358746 1_555
Fe4 Sb2 2.598985 1_545
Fe4 Sb4 2.607461 1_555
Fe4 Sb30 2.609175 1_555
Fe4 Sb28 2.619876 1_555
Fe4 Sb7 2.626787 1_555
Fe4 Sb14 2.716467 1_545
Fe4 Nd1 3.264470 1_555
Fe4 Nd2 3.595627 1_555
Fe5 Sb2 2.598985 1_545
Fe5 Sb21 2.607461 1_555
Fe5 Sb30 2.609175 1_555
Fe5 Sb29 2.619876 1_555
Fe5 Sb7 2.626787 1_555
Fe5 Sb24 2.716467 1_545
Fe5 Nd1 3.264470 1_555
Fe5 Nd8 3.595627 1_555
Fe6 Sb30 2.598985 1_565
Fe6 Sb14 2.607461 1_555
Fe6 Sb2 2.609175 1_655
Fe6 Sb13 2.619876 1_655
Fe6 Sb18 2.626787 1_555
Fe6 Sb4 2.716467 1_665
Fe6 Nd4 3.264470 1_655
Fe6 Nd0 3.595627 1_555
Fe7 Sb21 2.584479 1_655
Fe7 Sb23 2.584479 1_554
Fe7 Sb32 2.594961 1_554
Fe7 Sb29 2.594961 1_555
Fe7 Sb24 2.715530 1_545
Fe7 Sb33 2.715530 1_544
Fe7 Nd3 3.358746 1_554
Fe7 Nd8 3.358746 1_655
Fe8 Sb24 2.584479 1_555
Fe8 Sb33 2.584479 1_454
Fe8 Sb9 2.594961 1_554
Fe8 Sb8 2.594961 1_555
Fe8 Sb21 2.715530 1_565
Fe8 Sb23 2.715530 1_564
Fe8 Nd7 3.358746 1_555
Fe8 Nd6 3.358746 1_454
Fe9 Sb14 2.584479 1_555
Fe9 Sb1 2.584479 1_455
Fe9 Sb13 2.594961 1_555
Fe9 Sb17 2.594961 1_555
Fe9 Sb4 2.715530 1_565
Fe9 Sb15 2.715530 1_565
Fe9 Nd0 3.358746 1_555
Fe9 Nd9 3.358746 1_455
Fe10 Sb25 2.598985 1_545
Fe10 Sb23 2.607461 1_555
Fe10 Sb27 2.609175 1_455
Fe10 Sb32 2.619876 1_455
Fe10 Sb19 2.626787 1_555
Fe10 Sb33 2.716467 1_445
Fe10 Nd11 3.264470 1_455
Fe10 Nd3 3.595627 1_555
Fe11 Sb27 2.598985 1_565
Fe11 Sb1 2.607461 1_555
Fe11 Sb25 2.609175 1_555
Fe11 Sb17 2.619876 1_555
Fe11 Sb3 2.626787 1_555
Fe11 Sb15 2.716467 1_565
Fe11 Nd5 3.264470 1_555
Fe11 Nd9 3.595627 1_555
Sb0 Sb11 3.070694 1_556
Sb0 Sb10 3.119561 1_555
Sb0 Sb10 3.119561 1_455
Sb0 Sb35 3.120217 1_555
Sb5 Sb6 3.119561 1_455
Sb5 Sb6 3.119561 1_555
Sb10 Sb12 3.070694 1_556
Sb10 Sb26 3.120217 1_555
Sb11 Sb31 3.070694 1_555
Sb11 Sb12 3.119315 1_455
Sb11 Sb12 3.119315 1_555
Sb12 Sb22 3.070694 1_555
Sb16 Sb5 3.070694 1_555
Sb16 Sb35 3.070694 1_555
Sb16 Sb20 3.119315 1_455
Sb16 Sb20 3.119315 1_555
Sb18 Sb2 3.088891 1_555
Sb19 Sb27 3.088891 1_555
Sb20 Sb6 3.070694 1_555
Sb20 Sb26 3.070694 1_555
Sb22 Sb31 3.119561 1_655
Sb22 Sb31 3.119561 1_555
Sb22 Sb6 3.120217 1_555
Sb25 Sb3 3.088891 1_455
Sb26 Sb35 3.119561 1_555
Sb26 Sb35 3.119561 1_655
Sb30 Sb7 3.088891 1_655
Sb31 Sb5 3.120217 1_555
