# generated using pymatgen
data_SrBiBrO2
_symmetry_space_group_name_H-M   'P 1'
_cell_length_a   5.73557000
_cell_length_b   5.85980600
_cell_length_c   7.21026401
_cell_angle_alpha   66.02414094
_cell_angle_beta   90.00000000
_cell_angle_gamma   90.00000000
_symmetry_Int_Tables_number   1
_chemical_formula_structural   SrBiBrO2
_chemical_formula_sum   'Sr2 Bi2 Br2 O4'
_cell_volume   221.42292126
_cell_formula_units_Z   2
loop_
 _symmetry_equiv_pos_site_id
 _symmetry_equiv_pos_as_xyz
  1  'x, y, z'
loop_
 _atom_site_type_symbol
 _atom_site_label
 _atom_site_symmetry_multiplicity
 _atom_site_fract_x
 _atom_site_fract_y
 _atom_site_fract_z
 _atom_site_occupancy
  Sr  Sr0  1  0.75000000  0.89904200  0.20191600  1
  Sr  Sr1  1  0.25000000  0.10095800  0.79808400  1
  Bi  Bi0  1  0.25000000  0.42237800  0.15524400  1
  Bi  Bi1  1  0.75000000  0.57762200  0.84475600  1
  Br  Br0  1  0.75000000  0.24536200  0.50927600  1
  Br  Br1  1  0.25000000  0.75463800  0.49072400  1
  O  O0  1  0.50000000  0.73387300  0.00000000  1
  O  O1  1  0.00000000  0.26612700  0.00000000  1
  O  O2  1  0.50000000  0.26612700  0.00000000  1
  O  O3  1  0.00000000  0.73387300  0.00000000  1
loop_
_geom_bond_atom_site_label_1
_geom_bond_atom_site_label_2
_geom_bond_distance
_geom_bond_site_symmetry_2
Bi0 O1 2.231645 1_555
Bi0 O3 2.231645 1_555
Bi0 O2 2.231645 1_555
Bi0 O0 2.231645 1_555
Bi1 O2 2.231645 1_556
Bi1 O1 2.231645 1_656
Bi1 O0 2.231645 1_556
Bi1 O3 2.231645 1_656
Br0 Sr1 3.441582 1_555
Br0 Sr1 3.441582 1_655
Br0 Sr0 3.561555 1_555
Br0 Sr0 3.561555 1_545
Br1 Sr0 3.441582 1_555
Br1 Sr0 3.441582 1_455
Br1 Sr1 3.561555 1_565
Br1 Sr1 3.561555 1_555
O0 Sr0 2.501501 1_555
O0 Sr1 2.501501 1_564
O1 Sr0 2.501501 1_445
O1 Sr1 2.501501 1_554
O2 Sr0 2.501501 1_545
O2 Sr1 2.501501 1_554
O3 Sr0 2.501501 1_455
O3 Sr1 2.501501 1_564
