# generated using pymatgen
data_SnO2
_symmetry_space_group_name_H-M   'P 1'
_cell_length_a   3.57147500
_cell_length_b   5.30523300
_cell_length_c   7.31033000
_cell_angle_alpha   90.00000000
_cell_angle_beta   90.00000000
_cell_angle_gamma   90.00000000
_symmetry_Int_Tables_number   1
_chemical_formula_structural   SnO2
_chemical_formula_sum   'Sn4 O8'
_cell_volume   138.51252906
_cell_formula_units_Z   4
loop_
 _symmetry_equiv_pos_site_id
 _symmetry_equiv_pos_as_xyz
  1  'x, y, z'
loop_
 _atom_site_type_symbol
 _atom_site_label
 _atom_site_symmetry_multiplicity
 _atom_site_fract_x
 _atom_site_fract_y
 _atom_site_fract_z
 _atom_site_occupancy
  Sn  Sn0  1  0.25000000  0.26637600  0.91686700  1
  Sn  Sn1  1  0.75000000  0.73362400  0.08313300  1
  Sn  Sn2  1  0.75000000  0.23362400  0.41686700  1
  Sn  Sn3  1  0.25000000  0.76637600  0.58313300  1
  O  O0  1  0.75000000  0.97037000  0.63271300  1
  O  O1  1  0.75000000  0.11614900  0.11432000  1
  O  O2  1  0.25000000  0.02963000  0.36728700  1
  O  O3  1  0.25000000  0.88385100  0.88568000  1
  O  O4  1  0.25000000  0.52963000  0.13271300  1
  O  O5  1  0.25000000  0.38385100  0.61432000  1
  O  O6  1  0.75000000  0.61614900  0.38568000  1
  O  O7  1  0.75000000  0.47037000  0.86728700  1
loop_
_geom_bond_atom_site_label_1
_geom_bond_atom_site_label_2
_geom_bond_distance
_geom_bond_site_symmetry_2
O0 Sn2 2.107212 1_565
O0 Sn3 2.119306 1_655
O0 Sn3 2.119306 1_555
O1 Sn1 2.042150 1_545
O1 Sn2 2.297850 1_555
O1 Sn0 2.430553 1_554
O1 Sn0 2.430553 1_654
O2 Sn3 2.107212 1_545
O2 Sn2 2.119306 1_455
O2 Sn2 2.119306 1_555
O3 Sn0 2.042150 1_565
O3 Sn3 2.297850 1_555
O3 Sn1 2.430553 1_456
O3 Sn1 2.430553 1_556
O4 Sn0 2.107212 1_554
O4 Sn1 2.119306 1_555
O4 Sn1 2.119306 1_455
O5 Sn3 2.042150 1_555
O5 Sn0 2.297850 1_555
O5 Sn2 2.430553 1_555
O5 Sn2 2.430553 1_455
O6 Sn2 2.042150 1_555
O6 Sn1 2.297850 1_555
O6 Sn3 2.430553 1_555
O6 Sn3 2.430553 1_655
O7 Sn1 2.107212 1_556
O7 Sn0 2.119306 1_555
O7 Sn0 2.119306 1_655
