# generated using pymatgen
data_Ni3Mo2SeO11
_symmetry_space_group_name_H-M   'P 1'
_cell_length_a   6.54992800
_cell_length_b   6.55277410
_cell_length_c   10.16688021
_cell_angle_alpha   74.07341486
_cell_angle_beta   86.37084965
_cell_angle_gamma   84.81289597
_symmetry_Int_Tables_number   1
_chemical_formula_structural   Ni3Mo2SeO11
_chemical_formula_sum   'Ni6 Mo4 Se2 O22'
_cell_volume   417.55820294
_cell_formula_units_Z   2
loop_
 _symmetry_equiv_pos_site_id
 _symmetry_equiv_pos_as_xyz
  1  'x, y, z'
loop_
 _atom_site_type_symbol
 _atom_site_label
 _atom_site_symmetry_multiplicity
 _atom_site_fract_x
 _atom_site_fract_y
 _atom_site_fract_z
 _atom_site_occupancy
  Ni  Ni0  1  0.27145500  0.81368400  0.38615400  1
  Ni  Ni1  1  0.53664100  0.80476900  0.12655300  1
  Ni  Ni2  1  0.16792000  0.17797700  0.12963000  1
  Ni  Ni3  1  0.46335900  0.19523100  0.87344700  1
  Ni  Ni4  1  0.72854500  0.18631600  0.61384600  1
  Ni  Ni5  1  0.83208000  0.82202300  0.87037000  1
  Mo  Mo0  1  0.28760500  0.21335600  0.50062400  1
  Mo  Mo1  1  0.61031500  0.20833300  0.23361200  1
  Mo  Mo2  1  0.71239500  0.78664400  0.49937600  1
  Mo  Mo3  1  0.38968500  0.79166700  0.76638800  1
  Se  Se0  1  0.96859300  0.35543600  0.81970400  1
  Se  Se1  1  0.03140700  0.64456400  0.18029600  1
  O  O0  1  0.29707600  0.49138000  0.44313000  1
  O  O1  1  0.48843200  0.13743400  0.08660300  1
  O  O2  1  0.87307800  0.16998000  0.19507000  1
  O  O3  1  0.28222500  0.14790100  0.32543400  1
  O  O4  1  0.02982900  0.18115900  0.55646100  1
  O  O5  1  0.85313700  0.80817300  0.07061000  1
  O  O6  1  0.97017100  0.81884100  0.44353900  1
  O  O7  1  0.41491300  0.15603400  0.67620900  1
  O  O8  1  0.62506000  0.14994500  0.43573400  1
  O  O9  1  0.12692200  0.83002000  0.80493000  1
  O  O10  1  0.14686300  0.19182700  0.92939000  1
  O  O11  1  0.70292400  0.50862000  0.55687000  1
  O  O12  1  0.43443000  0.51387700  0.80900100  1
  O  O13  1  0.71777500  0.85209900  0.67456600  1
  O  O14  1  0.58508700  0.84396600  0.32379100  1
  O  O15  1  0.21727400  0.83393000  0.18478500  1
  O  O16  1  0.78272600  0.16607000  0.81521500  1
  O  O17  1  0.37494000  0.85005500  0.56426600  1
  O  O18  1  0.51156800  0.86256600  0.91339700  1
  O  O19  1  0.83184100  0.49535100  0.91519400  1
  O  O20  1  0.16815900  0.50464900  0.08480600  1
  O  O21  1  0.56557000  0.48612300  0.19099900  1
loop_
_geom_bond_atom_site_label_1
_geom_bond_atom_site_label_2
_geom_bond_distance
_geom_bond_site_symmetry_2
Ni0 O6 2.022078 1_455
Ni0 O0 2.025092 1_555
Ni0 O17 2.053497 1_555
Ni0 O15 2.066243 1_555
Ni0 O3 2.112540 1_565
Ni0 O14 2.121594 1_555
Ni1 O21 2.004587 1_555
Ni1 O1 2.102953 1_565
Ni1 O18 2.109558 1_554
Ni1 O5 2.115080 1_555
Ni1 O14 2.136781 1_555
Ni1 O15 2.143783 1_555
Ni2 O2 2.002851 1_455
Ni2 O10 2.025757 1_554
Ni2 O20 2.062771 1_555
Ni2 O3 2.123444 1_555
Ni2 O1 2.125043 1_555
Ni2 O15 2.167697 1_545
Ni3 O12 2.004587 1_555
Ni3 O18 2.102953 1_545
Ni3 O1 2.109558 1_556
Ni3 O10 2.115080 1_555
Ni3 O7 2.136781 1_555
Ni3 O16 2.143783 1_555
Ni4 O4 2.022078 1_655
Ni4 O11 2.025092 1_555
Ni4 O8 2.053497 1_555
Ni4 O16 2.066243 1_555
Ni4 O13 2.112540 1_545
Ni4 O7 2.121594 1_555
Ni5 O9 2.002851 1_655
Ni5 O5 2.025757 1_556
Ni5 O19 2.062771 1_555
Ni5 O13 2.123444 1_555
Ni5 O18 2.125043 1_555
Ni5 O16 2.167697 1_565
Mo0 O4 1.759222 1_555
Mo0 O0 1.759543 1_555
Mo0 O7 1.946019 1_555
Mo0 O3 1.946174 1_555
Mo0 O8 2.300679 1_555
Mo0 O17 2.317010 1_545
Mo1 O2 1.751936 1_555
Mo1 O21 1.753246 1_555
Mo1 O1 1.919964 1_555
Mo1 O8 1.991352 1_555
Mo1 O3 2.311577 1_555
Mo1 O14 2.327957 1_545
Mo2 O6 1.759222 1_555
Mo2 O11 1.759543 1_555
Mo2 O14 1.946019 1_555
Mo2 O13 1.946174 1_555
Mo2 O17 2.300679 1_555
Mo2 O8 2.317010 1_565
Mo3 O9 1.751936 1_555
Mo3 O12 1.753246 1_555
Mo3 O18 1.919964 1_555
Mo3 O17 1.991352 1_555
Mo3 O13 2.311577 1_555
Mo3 O7 2.327957 1_565
O5 Se1 1.743201 1_655
O10 Se0 1.743201 1_455
O15 Se1 1.826257 1_555
O16 Se0 1.826257 1_555
O19 Se0 1.677892 1_555
O20 Se1 1.677892 1_555
