# generated using pymatgen
data_CdI2
_symmetry_space_group_name_H-M   'P 1'
_cell_length_a   4.28929489
_cell_length_b   4.28929489
_cell_length_c   42.90433581
_cell_angle_alpha   90.00000000
_cell_angle_beta   90.00000000
_cell_angle_gamma   119.99998959
_symmetry_Int_Tables_number   1
_chemical_formula_structural   CdI2
_chemical_formula_sum   'Cd6 I12'
_cell_volume   683.60254304
_cell_formula_units_Z   6
loop_
 _symmetry_equiv_pos_site_id
 _symmetry_equiv_pos_as_xyz
  1  'x, y, z'
loop_
 _atom_site_type_symbol
 _atom_site_label
 _atom_site_symmetry_multiplicity
 _atom_site_fract_x
 _atom_site_fract_y
 _atom_site_fract_z
 _atom_site_occupancy
  Cd  Cd0  1  0.33333300  0.66666700  0.83419177  1
  Cd  Cd1  1  -0.00000000  -0.00000000  0.00000000  1
  Cd  Cd2  1  -0.00000000  -0.00000000  0.33436503  1
  Cd  Cd3  1  -0.00000000  -0.00000000  0.50000000  1
  Cd  Cd4  1  0.66666700  0.33333300  0.16580823  1
  Cd  Cd5  1  -0.00000000  -0.00000000  0.66563497  1
  I  I0  1  0.66666700  0.33333300  0.96004316  1
  I  I1  1  -0.00000000  -0.00000000  0.87439878  1
  I  I2  1  -0.00000000  -0.00000000  0.12560122  1
  I  I3  1  0.66666700  0.33333300  0.62543128  1
  I  I4  1  0.33333300  0.66666700  0.37456872  1
  I  I5  1  0.33333300  0.66666700  0.20594535  1
  I  I6  1  0.66666700  0.33333300  0.79405465  1
  I  I7  1  0.33333300  0.66666700  0.70573244  1
  I  I8  1  0.33333300  0.66666700  0.03995684  1
  I  I9  1  0.66666700  0.33333300  0.46004844  1
  I  I10  1  0.66666700  0.33333300  0.29426756  1
  I  I11  1  0.33333300  0.66666700  0.53995156  1
loop_
_geom_bond_atom_site_label_1
_geom_bond_atom_site_label_2
_geom_bond_distance
_geom_bond_site_symmetry_2
Cd0 I6 3.016314 1_455
Cd0 I6 3.016314 1_565
Cd0 I6 3.016320 1_555
Cd0 I1 3.018027 1_565
Cd0 I1 3.018030 1_665
Cd0 I1 3.018030 1_555
Cd1 I0 3.011905 1_454
Cd1 I8 3.011905 1_545
Cd1 I0 3.011908 1_444
Cd1 I0 3.011908 1_554
Cd1 I8 3.011908 1_555
Cd1 I8 3.011908 1_445
Cd2 I10 3.015343 1_455
Cd2 I10 3.015346 1_555
Cd2 I10 3.015346 1_445
Cd2 I4 3.017945 1_545
Cd2 I4 3.017949 1_445
Cd2 I4 3.017949 1_555
Cd3 I11 3.011776 1_545
Cd3 I9 3.011776 1_455
Cd3 I11 3.011779 1_445
Cd3 I11 3.011779 1_555
Cd3 I9 3.011779 1_445
Cd3 I9 3.011779 1_555
Cd4 I5 3.016314 1_545
Cd4 I5 3.016314 1_655
Cd4 I5 3.016320 1_555
Cd4 I2 3.018027 1_655
Cd4 I2 3.018030 1_665
Cd4 I2 3.018030 1_555
Cd5 I7 3.015343 1_545
Cd5 I7 3.015346 1_555
Cd5 I7 3.015346 1_445
Cd5 I3 3.017945 1_455
Cd5 I3 3.017949 1_555
Cd5 I3 3.017949 1_445
