# generated using pymatgen
data_SrMgF4
_symmetry_space_group_name_H-M   'P 1'
_cell_length_a   17.11305500
_cell_length_b   7.64152200
_cell_length_c   7.90727813
_cell_angle_alpha   75.10864143
_cell_angle_beta   90.00000000
_cell_angle_gamma   90.00000000
_symmetry_Int_Tables_number   1
_chemical_formula_structural   SrMgF4
_chemical_formula_sum   'Sr12 Mg12 F48'
_cell_volume   999.30491420
_cell_formula_units_Z   12
loop_
 _symmetry_equiv_pos_site_id
 _symmetry_equiv_pos_as_xyz
  1  'x, y, z'
loop_
 _atom_site_type_symbol
 _atom_site_label
 _atom_site_symmetry_multiplicity
 _atom_site_fract_x
 _atom_site_fract_y
 _atom_site_fract_z
 _atom_site_occupancy
  Sr  Sr0  1  0.00121300  0.84075500  0.66394100  1
  Sr  Sr1  1  0.83118300  0.15109000  0.83811500  1
  Sr  Sr2  1  0.98567100  0.79563100  0.17990200  1
  Sr  Sr3  1  0.16686300  0.16652400  0.83460400  1
  Sr  Sr4  1  0.64869400  0.77760900  0.68074700  1
  Sr  Sr5  1  0.14869400  0.22239100  0.31925300  1
  Sr  Sr6  1  0.48567100  0.20436900  0.82009800  1
  Sr  Sr7  1  0.66686300  0.83347600  0.16539600  1
  Sr  Sr8  1  0.33118300  0.84891000  0.16188500  1
  Sr  Sr9  1  0.32291000  0.81777900  0.66771200  1
  Sr  Sr10  1  0.50121300  0.15924500  0.33605900  1
  Sr  Sr11  1  0.82291000  0.18222100  0.33228800  1
  Mg  Mg0  1  0.14451800  0.66938300  0.45722500  1
  Mg  Mg1  1  0.97669400  0.34109500  0.54177200  1
  Mg  Mg2  1  0.14245000  0.67050600  0.95713400  1
  Mg  Mg3  1  0.64245000  0.32949400  0.04286600  1
  Mg  Mg4  1  0.30895100  0.33258500  0.54024300  1
  Mg  Mg5  1  0.80943000  0.66115600  0.95694000  1
  Mg  Mg6  1  0.47669400  0.65890500  0.45822800  1
  Mg  Mg7  1  0.97718400  0.33810000  0.03814800  1
  Mg  Mg8  1  0.30943000  0.33884400  0.04306000  1
  Mg  Mg9  1  0.64451800  0.33061700  0.54277500  1
  Mg  Mg10  1  0.47718400  0.66190000  0.96185200  1
  Mg  Mg11  1  0.80895100  0.66741500  0.45975700  1
  F  F0  1  0.91303000  0.10878900  0.58773600  1
  F  F1  1  0.19614300  0.42859700  0.54710000  1
  F  F2  1  0.07820100  0.90005400  0.92535400  1
  F  F3  1  0.40216000  0.17187200  0.09647300  1
  F  F4  1  0.57591100  0.79108900  0.94448200  1
  F  F5  1  0.13143900  0.62361500  0.21799000  1
  F  F6  1  0.30986100  0.28154500  0.80572900  1
  F  F7  1  0.95544700  0.33242800  0.79132000  1
  F  F8  1  0.24486500  0.79176600  0.41193600  1
  F  F9  1  0.41303000  0.89121100  0.41226400  1
  F  F10  1  0.69614300  0.57140300  0.45290000  1
  F  F11  1  0.74421200  0.90099600  0.42365600  1
  F  F12  1  0.86710500  0.43349700  0.05092900  1
  F  F13  1  0.02894500  0.57788700  0.95945300  1
  F  F14  1  0.87025700  0.44726600  0.46964300  1
  F  F15  1  0.80986100  0.71845500  0.19427100  1
  F  F16  1  0.24256600  0.11118900  0.12211800  1
  F  F17  1  0.29494300  0.37294100  0.28289700  1
  F  F18  1  0.20267100  0.44802700  0.98037500  1
  F  F19  1  0.74486500  0.20823400  0.58806400  1
  F  F20  1  0.23694900  0.83540700  0.92725100  1
  F  F21  1  0.41687100  0.90359800  0.88773800  1
  F  F22  1  0.99268400  0.34015500  0.29046900  1
  F  F23  1  0.57820100  0.09994600  0.07464600  1
  F  F24  1  0.49268400  0.65984500  0.70953100  1
  F  F25  1  0.63143900  0.37638500  0.78201000  1
  F  F26  1  0.70267100  0.55197300  0.01962500  1
  F  F27  1  0.73694900  0.16459300  0.07274900  1
  F  F28  1  0.24421200  0.09900400  0.57634400  1
  F  F29  1  0.53311400  0.42615600  0.49751900  1
  F  F30  1  0.07591100  0.20891100  0.05551800  1
  F  F31  1  0.40467500  0.18146800  0.56276900  1
  F  F32  1  0.79494300  0.62705900  0.71710300  1
  F  F33  1  0.06893200  0.17187500  0.59663300  1
  F  F34  1  0.14066700  0.71554600  0.69620800  1
  F  F35  1  0.64066700  0.28445400  0.30379200  1
  F  F36  1  0.90216000  0.82812800  0.90352700  1
  F  F37  1  0.58226300  0.09179800  0.62497600  1
  F  F38  1  0.36710500  0.56650300  0.94907100  1
  F  F39  1  0.91687100  0.09640200  0.11226200  1
  F  F40  1  0.90467500  0.81853200  0.43723100  1
  F  F41  1  0.56893200  0.82812500  0.40336700  1
  F  F42  1  0.74256600  0.88881100  0.87788200  1
  F  F43  1  0.37025700  0.55273400  0.53035700  1
  F  F44  1  0.03311400  0.57384400  0.50248100  1
  F  F45  1  0.45544700  0.66757200  0.20868000  1
  F  F46  1  0.08226300  0.90820200  0.37502400  1
  F  F47  1  0.52894500  0.42211300  0.04054700  1
loop_
_geom_bond_atom_site_label_1
_geom_bond_atom_site_label_2
_geom_bond_distance
_geom_bond_site_symmetry_2
F0 Mg1 2.034379 1_555
F0 Sr11 2.488127 1_555
F0 Sr0 2.490212 1_645
F0 Sr1 2.512949 1_555
F1 Mg0 1.999743 1_555
F1 Mg4 2.070859 1_555
F1 Sr3 2.662680 1_555
F1 Sr5 2.801308 1_555
F2 Mg2 2.030354 1_555
F2 Sr3 2.492451 1_565
F2 Sr2 2.523867 1_456
F2 Sr0 2.587531 1_555
F3 Mg8 2.011867 1_555
F3 Sr10 2.525420 1_555
F3 Sr6 2.569242 1_554
F3 Sr8 2.679070 1_545
F4 Mg10 1.943764 1_555
F4 Sr7 2.422750 1_556
F4 Sr4 2.453852 1_555
F5 Mg2 2.009626 1_554
F5 Mg0 2.022616 1_555
F5 Sr2 2.799599 1_455
F5 Sr5 2.977696 1_555
F6 Mg8 2.033687 1_556
F6 Mg4 2.034325 1_555
F6 Sr3 2.590361 1_555
F6 Sr6 3.062388 1_555
F7 Mg1 1.990759 1_555
F7 Mg7 1.998252 1_556
F7 Sr1 2.513106 1_555
F8 Mg0 1.944125 1_555
F8 Sr8 2.416267 1_555
F8 Sr9 2.473947 1_555
F9 Mg6 2.034379 1_555
F9 Sr9 2.488127 1_555
F9 Sr10 2.490212 1_565
F9 Sr8 2.512949 1_555
F10 Mg9 1.999743 1_555
F10 Mg11 2.070859 1_555
F10 Sr7 2.662680 1_555
F10 Sr4 2.801308 1_555
F11 Mg11 2.057408 1_555
F11 Sr11 2.481108 1_565
F11 Sr4 2.590061 1_555
F11 Sr7 2.594261 1_555
F12 Mg5 1.971903 1_554
F12 Mg7 2.031784 1_555
F12 Sr11 2.648196 1_555
F13 Mg7 1.985765 1_456
F13 Mg2 2.065808 1_555
F13 Sr0 2.703300 1_555
F13 Sr2 2.801122 1_456
F14 Mg11 1.967039 1_555
F14 Mg1 2.015790 1_555
F14 Sr11 2.658716 1_555
F15 Mg5 2.033687 1_554
F15 Mg11 2.034325 1_555
F15 Sr7 2.590361 1_555
F15 Sr2 3.062388 1_555
F16 Mg8 2.041436 1_555
F16 Sr8 2.468120 1_545
F16 Sr5 2.532467 1_555
F16 Sr3 2.555707 1_554
F17 Mg4 1.992706 1_555
F17 Mg8 1.994962 1_555
F17 Sr5 2.738612 1_555
F18 Mg2 1.955894 1_555
F18 Mg8 2.016695 1_556
F18 Sr3 2.757858 1_555
F18 Sr5 2.937982 1_556
F19 Mg9 1.944125 1_555
F19 Sr1 2.416267 1_555
F19 Sr11 2.473947 1_555
F20 Mg2 2.026293 1_555
F20 Sr8 2.480286 1_556
F20 Sr9 2.556551 1_555
F20 Sr3 2.724812 1_565
F21 Mg10 2.064856 1_555
F21 Sr6 2.514533 1_565
F21 Sr8 2.560952 1_556
F21 Sr9 2.574672 1_555
F22 Mg1 2.007716 1_555
F22 Mg7 2.016785 1_555
F22 Sr5 2.807885 1_655
F23 Mg3 2.030354 1_555
F23 Sr7 2.492451 1_545
F23 Sr6 2.523867 1_554
F23 Sr10 2.587531 1_555
F24 Mg6 2.007716 1_555
F24 Mg10 2.016785 1_555
F24 Sr4 2.807885 1_555
F25 Mg3 2.009626 1_556
F25 Mg9 2.022616 1_555
F25 Sr6 2.799599 1_555
F25 Sr4 2.977696 1_555
F26 Mg3 1.955894 1_555
F26 Mg5 2.016695 1_554
F26 Sr7 2.757858 1_555
F26 Sr4 2.937982 1_554
F27 Mg3 2.026293 1_555
F27 Sr1 2.480286 1_554
F27 Sr11 2.556551 1_555
F27 Sr7 2.724812 1_545
F28 Mg4 2.057408 1_555
F28 Sr9 2.481108 1_545
F28 Sr5 2.590061 1_555
F28 Sr3 2.594261 1_555
F29 Mg6 1.976868 1_555
F29 Mg9 2.039944 1_555
F29 Sr10 2.725141 1_555
F29 Sr6 2.795674 1_555
F30 Mg7 1.943764 1_455
F30 Sr3 2.422750 1_554
F30 Sr5 2.453852 1_555
F31 Mg4 1.985689 1_555
F31 Sr10 2.475527 1_555
F31 Sr6 2.505031 1_555
F32 Mg11 1.992706 1_555
F32 Mg5 1.994962 1_555
F32 Sr4 2.738612 1_555
F33 Mg1 2.015826 1_455
F33 Sr3 2.512283 1_555
F33 Sr5 2.527380 1_555
F33 Sr0 2.708566 1_545
F34 Mg2 2.002814 1_555
F34 Mg0 2.010568 1_555
F34 Sr0 2.559370 1_555
F35 Mg3 2.002814 1_555
F35 Mg9 2.010568 1_555
F35 Sr10 2.559370 1_555
F36 Mg5 2.011867 1_555
F36 Sr0 2.525420 1_655
F36 Sr2 2.569242 1_556
F36 Sr1 2.679070 1_565
F37 Mg9 2.068391 1_555
F37 Sr6 2.556358 1_555
F37 Sr4 2.589773 1_545
F37 Sr10 2.608336 1_555
F38 Mg8 1.971903 1_556
F38 Mg10 2.031784 1_555
F38 Sr9 2.648196 1_555
F39 Mg7 2.064856 1_555
F39 Sr2 2.514533 1_545
F39 Sr1 2.560952 1_554
F39 Sr11 2.574672 1_555
F40 Mg11 1.985689 1_555
F40 Sr0 2.475527 1_655
F40 Sr2 2.505031 1_555
F41 Mg6 2.015826 1_555
F41 Sr7 2.512283 1_555
F41 Sr4 2.527380 1_555
F41 Sr10 2.708566 1_565
F42 Mg5 2.041436 1_555
F42 Sr1 2.468120 1_565
F42 Sr4 2.532467 1_555
F42 Sr7 2.555707 1_556
F43 Mg4 1.967039 1_555
F43 Mg6 2.015790 1_555
F43 Sr9 2.658716 1_555
F44 Mg1 1.976868 1_455
F44 Mg0 2.039944 1_555
F44 Sr0 2.725141 1_555
F44 Sr2 2.795674 1_455
F45 Mg6 1.990759 1_555
F45 Mg10 1.998252 1_554
F45 Sr8 2.513106 1_555
F46 Mg0 2.068391 1_555
F46 Sr2 2.556358 1_455
F46 Sr5 2.589773 1_565
F46 Sr0 2.608336 1_555
F47 Mg10 1.985765 1_554
F47 Mg3 2.065808 1_555
F47 Sr10 2.703300 1_555
F47 Sr6 2.801122 1_554
