# generated using pymatgen
data_TaP2Se2Cl5
_symmetry_space_group_name_H-M   'P 1'
_cell_length_a   14.05919800
_cell_length_b   6.91207600
_cell_length_c   27.97961395
_cell_angle_alpha   79.67745644
_cell_angle_beta   90.00000000
_cell_angle_gamma   90.00000000
_symmetry_Int_Tables_number   1
_chemical_formula_structural   TaP2Se2Cl5
_chemical_formula_sum   'Ta8 P16 Se16 Cl40'
_cell_volume   2675.00154915
_cell_formula_units_Z   8
loop_
 _symmetry_equiv_pos_site_id
 _symmetry_equiv_pos_as_xyz
  1  'x, y, z'
loop_
 _atom_site_type_symbol
 _atom_site_label
 _atom_site_symmetry_multiplicity
 _atom_site_fract_x
 _atom_site_fract_y
 _atom_site_fract_z
 _atom_site_occupancy
  Ta  Ta0  1  0.20980800  0.74331100  0.97156500  1
  Ta  Ta1  1  0.29019200  0.74331100  0.47156500  1
  Ta  Ta2  1  0.61047600  0.03264600  0.29911700  1
  Ta  Ta3  1  0.38952400  0.96735400  0.70088300  1
  Ta  Ta4  1  0.11047600  0.96735400  0.20088300  1
  Ta  Ta5  1  0.70980800  0.25668900  0.52843500  1
  Ta  Ta6  1  0.88952400  0.03264600  0.79911700  1
  Ta  Ta7  1  0.79019200  0.25668900  0.02843500  1
  P  P0  1  0.33873800  0.66622700  0.90077700  1
  P  P1  1  0.57607300  0.52861100  0.88193400  1
  P  P2  1  0.66126200  0.33377300  0.09922300  1
  P  P3  1  0.40931000  0.75234400  0.79479400  1
  P  P4  1  0.92176300  0.08234000  0.64273900  1
  P  P5  1  0.09069000  0.75234400  0.29479400  1
  P  P6  1  0.83873800  0.33377300  0.59922300  1
  P  P7  1  0.57823700  0.08234000  0.14273900  1
  P  P8  1  0.07823700  0.91766000  0.35726100  1
  P  P9  1  0.42392700  0.47138900  0.11806600  1
  P  P10  1  0.16126200  0.66622700  0.40077700  1
  P  P11  1  0.42176300  0.91766000  0.85726100  1
  P  P12  1  0.92392700  0.52861100  0.38193400  1
  P  P13  1  0.59069000  0.24765600  0.20520600  1
  P  P14  1  0.07607300  0.47138900  0.61806600  1
  P  P15  1  0.90931000  0.24765600  0.70520600  1
  Se  Se0  1  0.44681100  0.42949100  0.92981600  1
  Se  Se1  1  0.07063500  0.13816100  0.61707700  1
  Se  Se2  1  0.57063500  0.86183900  0.88292300  1
  Se  Se3  1  0.22816200  0.61437100  0.32945600  1
  Se  Se4  1  0.46935100  0.46742700  0.19683600  1
  Se  Se5  1  0.94681100  0.57050900  0.57018400  1
  Se  Se6  1  0.96935100  0.53257300  0.30316400  1
  Se  Se7  1  0.05318900  0.42949100  0.42981600  1
  Se  Se8  1  0.53064900  0.53257300  0.80316400  1
  Se  Se9  1  0.03064900  0.46742700  0.69683600  1
  Se  Se10  1  0.72816200  0.38562900  0.17054400  1
  Se  Se11  1  0.55318900  0.57050900  0.07018400  1
  Se  Se12  1  0.27183800  0.61437100  0.82945600  1
  Se  Se13  1  0.42936500  0.13816100  0.11707700  1
  Se  Se14  1  0.92936500  0.86183900  0.38292300  1
  Se  Se15  1  0.77183800  0.38562900  0.67054400  1
  Cl  Cl0  1  0.48227500  0.71828400  0.67813500  1
  Cl  Cl1  1  0.86910600  0.84172800  0.87385600  1
  Cl  Cl2  1  0.30973700  0.03205500  0.41481300  1
  Cl  Cl3  1  0.19026300  0.03205500  0.91481300  1
  Cl  Cl4  1  0.75978300  0.56752100  0.48796100  1
  Cl  Cl5  1  0.85136300  0.12462700  0.50265100  1
  Cl  Cl6  1  0.10501800  0.58486500  0.92658100  1
  Cl  Cl7  1  0.75708800  0.24160000  0.79816800  1
  Cl  Cl8  1  0.74021700  0.56752100  0.98796100  1
  Cl  Cl9  1  0.89498200  0.41513500  0.07341900  1
  Cl  Cl10  1  0.13089400  0.15827200  0.12614400  1
  Cl  Cl11  1  0.36910600  0.15827200  0.62614400  1
  Cl  Cl12  1  0.70061600  0.83899900  0.25529800  1
  Cl  Cl13  1  0.51772500  0.28171600  0.32186500  1
  Cl  Cl14  1  0.74291200  0.24160000  0.29816800  1
  Cl  Cl15  1  0.63089400  0.84172800  0.37385600  1
  Cl  Cl16  1  0.25978300  0.43247900  0.01203900  1
  Cl  Cl17  1  0.52812000  0.10665700  0.72586300  1
  Cl  Cl18  1  0.47188000  0.89334300  0.27413700  1
  Cl  Cl19  1  0.98227500  0.28171600  0.82186500  1
  Cl  Cl20  1  0.89131000  0.18621800  0.97031000  1
  Cl  Cl21  1  0.80973700  0.96794500  0.08518700  1
  Cl  Cl22  1  0.69026300  0.96794500  0.58518700  1
  Cl  Cl23  1  0.01772500  0.71828400  0.17813500  1
  Cl  Cl24  1  0.79938400  0.83899900  0.75529800  1
  Cl  Cl25  1  0.97188000  0.10665700  0.22586300  1
  Cl  Cl26  1  0.39131000  0.81378200  0.52969000  1
  Cl  Cl27  1  0.20061600  0.16100100  0.24470200  1
  Cl  Cl28  1  0.60501800  0.41513500  0.57341900  1
  Cl  Cl29  1  0.29938400  0.16100100  0.74470200  1
  Cl  Cl30  1  0.64863700  0.12462700  0.00265100  1
  Cl  Cl31  1  0.39498200  0.58486500  0.42658100  1
  Cl  Cl32  1  0.14863700  0.87537300  0.49734900  1
  Cl  Cl33  1  0.24291200  0.75840000  0.20183200  1
  Cl  Cl34  1  0.24021700  0.43247900  0.51203900  1
  Cl  Cl35  1  0.02812000  0.89334300  0.77413700  1
  Cl  Cl36  1  0.25708800  0.75840000  0.70183200  1
  Cl  Cl37  1  0.60869000  0.18621800  0.47031000  1
  Cl  Cl38  1  0.35136300  0.87537300  0.99734900  1
  Cl  Cl39  1  0.10869000  0.81378200  0.02969000  1
loop_
_geom_bond_atom_site_label_1
_geom_bond_atom_site_label_2
_geom_bond_distance
_geom_bond_site_symmetry_2
P0 P11 2.259868 1_555
P0 Se0 2.273746 1_555
P0 Se12 2.291641 1_555
P0 Ta0 2.805468 1_555
P1 Se0 2.288657 1_555
P1 Se8 2.290060 1_555
P1 Se2 2.309682 1_555
P2 P7 2.259868 1_555
P2 Se11 2.273746 1_555
P2 Se10 2.291641 1_555
P2 Ta7 2.805468 1_555
P3 Se8 2.268288 1_555
P3 Se12 2.292186 1_555
P3 Ta3 2.791207 1_555
P4 Se1 2.223930 1_655
P4 P6 2.259868 1_555
P5 P8 2.259850 1_555
P5 Se6 2.268288 1_455
P5 Se3 2.292186 1_555
P5 Ta4 2.791207 1_555
P6 Se5 2.273746 1_555
P6 Se15 2.291641 1_555
P6 Ta5 2.805468 1_555
P7 Se13 2.223930 1_555
P8 Se14 2.223930 1_455
P9 Se11 2.288657 1_555
P9 Se4 2.290060 1_555
P9 Se13 2.309682 1_555
P10 P8 2.259868 1_555
P10 Se7 2.273746 1_555
P10 Se3 2.291641 1_555
P10 Ta1 2.805468 1_555
P11 Se2 2.223930 1_555
P11 P3 2.259850 1_555
P12 Se7 2.288657 1_655
P12 Se6 2.290060 1_555
P12 Se14 2.309682 1_555
P13 P7 2.259850 1_555
P13 Se4 2.268288 1_555
P13 Se10 2.292186 1_555
P13 Ta2 2.791207 1_555
P14 Se5 2.288657 1_455
P14 Se9 2.290060 1_555
P14 Se1 2.309682 1_555
P15 P4 2.259850 1_555
P15 Se9 2.268288 1_655
P15 Se15 2.292186 1_555
P15 Ta6 2.791207 1_555
Cl0 Ta3 2.337115 1_555
Cl1 Ta6 2.282074 1_565
Cl2 Ta1 2.333339 1_545
Cl3 Ta0 2.333339 1_545
Cl4 Ta5 2.349504 1_555
Cl5 Ta5 2.355929 1_555
Cl6 Ta0 2.334120 1_555
Cl7 Ta6 2.353681 1_555
Cl8 Ta7 2.349504 1_556
Cl9 Ta7 2.334120 1_555
Cl10 Ta4 2.282074 1_545
Cl11 Ta3 2.282074 1_545
Cl12 Ta2 2.342844 1_565
Cl13 Ta2 2.337115 1_555
Cl14 Ta2 2.353681 1_555
Cl15 Ta2 2.282074 1_565
Cl16 Ta0 2.349504 1_554
Cl17 Ta3 2.335306 1_545
Cl18 Ta2 2.335306 1_565
Cl19 Ta6 2.337115 1_555
Cl20 Ta7 2.277526 1_556
Cl21 Ta7 2.333339 1_565
Cl22 Ta5 2.333339 1_565
Cl23 Ta4 2.337115 1_555
Cl24 Ta6 2.342844 1_565
Cl25 Ta4 2.335306 1_645
Cl26 Ta1 2.277526 1_555
Cl27 Ta4 2.342844 1_545
Cl28 Ta5 2.334120 1_555
Cl29 Ta3 2.342844 1_545
Cl30 Ta7 2.355929 1_555
Cl31 Ta1 2.334120 1_555
Cl32 Ta1 2.355929 1_555
Cl33 Ta4 2.353681 1_555
Cl34 Ta1 2.349504 1_555
Cl35 Ta6 2.335306 1_465
Cl36 Ta3 2.353681 1_555
Cl37 Ta5 2.277526 1_555
Cl38 Ta0 2.355929 1_555
Cl39 Ta0 2.277526 1_554
