# generated using pymatgen
data_Li11La12Fe3O28
_symmetry_space_group_name_H-M   'P 1'
_cell_length_a   7.53197439
_cell_length_b   13.30443880
_cell_length_c   13.30443880
_cell_angle_alpha   90.00000000
_cell_angle_beta   90.00000000
_cell_angle_gamma   90.00000000
_symmetry_Int_Tables_number   1
_chemical_formula_structural   Li11La12Fe3O28
_chemical_formula_sum   'Li22 La24 Fe6 O56'
_cell_volume   1333.22041413
_cell_formula_units_Z   2
loop_
 _symmetry_equiv_pos_site_id
 _symmetry_equiv_pos_as_xyz
  1  'x, y, z'
loop_
 _atom_site_type_symbol
 _atom_site_label
 _atom_site_symmetry_multiplicity
 _atom_site_fract_x
 _atom_site_fract_y
 _atom_site_fract_z
 _atom_site_occupancy
  Li  Li0  1  0.50000000  0.12095112  0.37904888  1
  Li  Li1  1  0.15720445  0.59785827  0.09785827  1
  Li  Li2  1  0.84279555  0.40214173  0.90214173  1
  Li  Li3  1  0.34977593  0.07670957  0.57670957  1
  Li  Li4  1  0.65022407  0.42329043  0.07670957  1
  Li  Li5  1  0.50000000  0.87904888  0.62095112  1
  Li  Li6  1  0.84279555  0.90214173  0.59785827  1
  Li  Li7  1  0.34977593  0.57670957  0.92329043  1
  Li  Li8  1  0.50000000  0.00000000  0.00000000  1
  Li  Li9  1  0.65022407  0.57670957  0.92329043  1
  Li  Li10  1  0.15720445  0.09785827  0.40214173  1
  Li  Li11  1  0.65022407  0.07670957  0.57670957  1
  Li  Li12  1  0.84279555  0.59785827  0.09785827  1
  Li  Li13  1  0.50000000  0.50000000  0.50000000  1
  Li  Li14  1  0.65022407  0.92329043  0.42329043  1
  Li  Li15  1  0.84279555  0.09785827  0.40214173  1
  Li  Li16  1  0.15720445  0.90214173  0.59785827  1
  Li  Li17  1  0.34977593  0.42329043  0.07670957  1
  Li  Li18  1  0.15720445  0.40214173  0.90214173  1
  Li  Li19  1  0.50000000  0.62095112  0.12095112  1
  Li  Li20  1  0.34977593  0.92329043  0.42329043  1
  Li  Li21  1  0.50000000  0.37904888  0.87904888  1
  La  La0  1  0.25968385  0.00915990  0.19968478  1
  La  La1  1  0.25968385  0.69968478  0.50915990  1
  La  La2  1  0.50000000  0.72179640  0.77820360  1
  La  La3  1  0.74031615  0.80031522  0.00915990  1
  La  La4  1  0.74031615  0.00915990  0.19968478  1
  La  La5  1  0.74031615  0.19968478  0.99084010  1
  La  La6  1  0.25968385  0.50915990  0.30031522  1
  La  La7  1  0.25968385  0.30031522  0.49084010  1
  La  La8  1  0.74031615  0.99084010  0.80031522  1
  La  La9  1  0.00000000  0.75934089  0.74065911  1
  La  La10  1  0.00000000  0.25934089  0.75934089  1
  La  La11  1  0.00000000  0.24065911  0.25934089  1
  La  La12  1  0.74031615  0.49084010  0.69968478  1
  La  La13  1  0.50000000  0.77820360  0.27820360  1
  La  La14  1  0.25968385  0.19968478  0.99084010  1
  La  La15  1  0.50000000  0.22179640  0.72179640  1
  La  La16  1  0.25968385  0.49084010  0.69968478  1
  La  La17  1  0.74031615  0.69968478  0.50915990  1
  La  La18  1  0.00000000  0.74065911  0.24065911  1
  La  La19  1  0.74031615  0.30031522  0.49084010  1
  La  La20  1  0.50000000  0.27820360  0.22179640  1
  La  La21  1  0.74031615  0.50915990  0.30031522  1
  La  La22  1  0.25968385  0.99084010  0.80031522  1
  La  La23  1  0.25968385  0.80031522  0.00915990  1
  Fe  Fe0  1  0.00000000  0.91417871  0.41417871  1
  Fe  Fe1  1  0.00000000  0.58582129  0.91417871  1
  Fe  Fe2  1  0.00000000  0.41417871  0.08582129  1
  Fe  Fe3  1  0.00000000  0.00000000  0.00000000  1
  Fe  Fe4  1  0.00000000  0.08582129  0.58582129  1
  Fe  Fe5  1  0.00000000  0.50000000  0.50000000  1
  O  O0  1  0.00000000  0.12061803  0.10815872  1
  O  O1  1  0.50000000  0.62075057  0.62210640  1
  O  O2  1  0.71231967  0.81654939  0.68345061  1
  O  O3  1  0.50000000  0.18108352  0.51652891  1
  O  O4  1  0.74767157  0.00000000  0.00000000  1
  O  O5  1  0.50000000  0.31891648  0.01652891  1
  O  O6  1  0.28768033  0.81654939  0.68345061  1
  O  O7  1  0.00000000  0.97058340  0.68993652  1
  O  O8  1  0.00000000  0.68993652  0.02941660  1
  O  O9  1  0.00000000  0.60815872  0.62061803  1
  O  O10  1  0.18733214  0.00000000  0.50000000  1
  O  O11  1  0.80285708  0.34110089  0.15889911  1
  O  O12  1  0.18733214  0.50000000  0.00000000  1
  O  O13  1  0.00000000  0.37938197  0.60815872  1
  O  O14  1  0.50000000  0.37789360  0.62075057  1
  O  O15  1  0.19714292  0.65889911  0.84110089  1
  O  O16  1  0.00000000  0.18993652  0.47058340  1
  O  O17  1  0.00000000  0.62061803  0.39184128  1
  O  O18  1  0.50000000  0.81891648  0.48347109  1
  O  O19  1  0.50000000  0.98347109  0.31891648  1
  O  O20  1  0.50000000  0.87924943  0.12210640  1
  O  O21  1  0.50000000  0.48347109  0.18108352  1
  O  O22  1  0.80285708  0.15889911  0.65889911  1
  O  O23  1  0.19714292  0.84110089  0.34110089  1
  O  O24  1  0.28768033  0.18345061  0.31654939  1
  O  O25  1  0.71231967  0.68345061  0.18345061  1
  O  O26  1  0.71231967  0.18345061  0.31654939  1
  O  O27  1  0.28768033  0.31654939  0.81654939  1
  O  O28  1  0.00000000  0.31006348  0.97058340  1
  O  O29  1  0.71231967  0.31654939  0.81654939  1
  O  O30  1  0.50000000  0.12075057  0.87789360  1
  O  O31  1  0.50000000  0.68108352  0.98347109  1
  O  O32  1  0.19714292  0.15889911  0.65889911  1
  O  O33  1  0.74767157  0.50000000  0.50000000  1
  O  O34  1  0.00000000  0.39184128  0.37938197  1
  O  O35  1  0.25232843  0.00000000  0.00000000  1
  O  O36  1  0.00000000  0.52941660  0.18993652  1
  O  O37  1  0.50000000  0.01652891  0.68108352  1
  O  O38  1  0.00000000  0.87938197  0.89184128  1
  O  O39  1  0.50000000  0.12210640  0.12075057  1
  O  O40  1  0.80285708  0.84110089  0.34110089  1
  O  O41  1  0.81266786  0.50000000  0.00000000  1
  O  O42  1  0.00000000  0.02941660  0.31006348  1
  O  O43  1  0.50000000  0.37924943  0.37789360  1
  O  O44  1  0.25232843  0.50000000  0.50000000  1
  O  O45  1  0.19714292  0.34110089  0.15889911  1
  O  O46  1  0.50000000  0.87789360  0.87924943  1
  O  O47  1  0.80285708  0.65889911  0.84110089  1
  O  O48  1  0.00000000  0.81006348  0.52941660  1
  O  O49  1  0.50000000  0.51652891  0.81891648  1
  O  O50  1  0.00000000  0.89184128  0.12061803  1
  O  O51  1  0.50000000  0.62210640  0.37924943  1
  O  O52  1  0.00000000  0.10815872  0.87938197  1
  O  O53  1  0.28768033  0.68345061  0.18345061  1
  O  O54  1  0.00000000  0.47058340  0.81006348  1
  O  O55  1  0.81266786  0.00000000  0.50000000  1
loop_
_geom_bond_atom_site_label_1
_geom_bond_atom_site_label_2
_geom_bond_distance
_geom_bond_site_symmetry_2
Li0 O26 1.985006 1_555
Li0 O24 1.985006 1_555
Li0 O3 1.996405 1_555
Li0 O19 1.996405 1_545
Li1 O12 1.855165 1_555
Li1 O53 1.886616 1_555
Li1 O36 1.931812 1_555
Li1 O8 1.931812 1_555
Li2 O41 1.855165 1_556
Li2 O29 1.886616 1_555
Li2 O54 1.931812 1_655
Li2 O28 1.931812 1_655
Li3 O10 1.892132 1_555
Li3 O32 1.926932 1_555
Li3 O3 1.962050 1_555
Li3 O37 1.962050 1_555
Li4 O41 1.892132 1_555
Li4 O11 1.926932 1_555
Li4 O5 1.962050 1_555
Li4 O21 1.962050 1_555
Li5 O2 1.985006 1_555
Li5 O6 1.985006 1_555
Li5 O37 1.996405 1_565
Li5 O18 1.996405 1_555
Li6 O55 1.855165 1_565
Li6 O2 1.886616 1_555
Li6 O48 1.931812 1_655
Li6 O7 1.931812 1_655
Li7 O12 1.892132 1_556
Li7 O15 1.926932 1_555
Li7 O49 1.962050 1_555
Li7 O31 1.962050 1_555
Li8 O35 1.865456 1_555
Li8 O4 1.865456 1_555
Li8 O20 2.284751 1_545
Li8 O39 2.284751 1_555
Li8 O46 2.284751 1_544
Li8 O30 2.284751 1_554
Li9 O41 1.892132 1_556
Li9 O47 1.926932 1_555
Li9 O49 1.962050 1_555
Li9 O31 1.962050 1_555
Li10 O10 1.855165 1_555
Li10 O24 1.886616 1_555
Li10 O16 1.931812 1_555
Li10 O42 1.931812 1_555
Li11 O55 1.892132 1_555
Li11 O22 1.926932 1_555
Li11 O3 1.962050 1_555
Li11 O37 1.962050 1_555
Li12 O41 1.855165 1_555
Li12 O25 1.886616 1_555
Li12 O36 1.931812 1_655
Li12 O8 1.931812 1_655
Li13 O44 1.865456 1_555
Li13 O33 1.865456 1_555
Li13 O1 2.284751 1_555
Li13 O51 2.284751 1_555
Li13 O14 2.284751 1_555
Li13 O43 2.284751 1_555
Li14 O55 1.892132 1_565
Li14 O40 1.926932 1_555
Li14 O18 1.962050 1_555
Li14 O19 1.962050 1_555
Li15 O55 1.855165 1_555
Li15 O26 1.886616 1_555
Li15 O16 1.931812 1_655
Li15 O42 1.931812 1_655
Li16 O10 1.855165 1_565
Li16 O6 1.886616 1_555
Li16 O48 1.931812 1_555
Li16 O7 1.931812 1_555
Li17 O12 1.892132 1_555
Li17 O45 1.926932 1_555
Li17 O5 1.962050 1_555
Li17 O21 1.962050 1_555
Li18 O12 1.855165 1_556
Li18 O27 1.886616 1_555
Li18 O54 1.931812 1_555
Li18 O28 1.931812 1_555
Li19 O25 1.985006 1_555
Li19 O53 1.985006 1_555
Li19 O21 1.996405 1_555
Li19 O31 1.996405 1_554
Li20 O10 1.892132 1_565
Li20 O23 1.926932 1_555
Li20 O18 1.962050 1_555
Li20 O19 1.962050 1_555
Li21 O29 1.985006 1_555
Li21 O27 1.985006 1_555
Li21 O5 1.996405 1_556
Li21 O49 1.996405 1_555
La0 O19 2.430945 1_545
La0 O42 2.460665 1_555
La0 O39 2.576285 1_555
La0 O35 2.660065 1_555
La0 O20 2.707198 1_545
La0 O50 2.714503 1_545
La0 O0 2.739968 1_555
La0 O24 2.799811 1_555
La0 O23 2.959929 1_545
La1 O18 2.430945 1_555
La1 O48 2.460665 1_555
La1 O1 2.576285 1_555
La1 O44 2.660065 1_555
La1 O51 2.707198 1_555
La1 O17 2.714503 1_555
La1 O9 2.739968 1_555
La1 O6 2.799811 1_555
La1 O23 2.959929 1_555
La2 O2 2.394953 1_555
La2 O6 2.394953 1_555
La2 O46 2.473932 1_555
La2 O1 2.473932 1_555
La2 O15 2.569822 1_555
La2 O47 2.569822 1_555
La2 O31 2.784167 1_555
La2 O49 2.784167 1_555
La3 O31 2.430945 1_554
La3 O8 2.460665 1_655
La3 O20 2.576285 1_555
La3 O4 2.660065 1_565
La3 O46 2.707198 1_554
La3 O38 2.714503 1_654
La3 O50 2.739968 1_655
La3 O25 2.799811 1_555
La3 O47 2.959929 1_554
La4 O19 2.430945 1_545
La4 O42 2.460665 1_655
La4 O39 2.576285 1_555
La4 O4 2.660065 1_555
La4 O20 2.707198 1_545
La4 O50 2.714503 1_645
La4 O0 2.739968 1_655
La4 O26 2.799811 1_555
La4 O40 2.959929 1_545
La5 O5 2.430945 1_556
La5 O28 2.460665 1_655
La5 O30 2.576285 1_555
La5 O4 2.660065 1_556
La5 O39 2.707198 1_556
La5 O0 2.714503 1_656
La5 O52 2.739968 1_655
La5 O29 2.799811 1_555
La5 O11 2.959929 1_556
La6 O21 2.430945 1_555
La6 O36 2.460665 1_555
La6 O51 2.576285 1_555
La6 O44 2.660065 1_555
La6 O43 2.707198 1_555
La6 O34 2.714503 1_555
La6 O17 2.739968 1_555
La6 O53 2.799811 1_555
La6 O45 2.959929 1_555
La7 O3 2.430945 1_555
La7 O16 2.460665 1_555
La7 O43 2.576285 1_555
La7 O44 2.660065 1_555
La7 O14 2.707198 1_555
La7 O13 2.714503 1_555
La7 O34 2.739968 1_555
La7 O24 2.799811 1_555
La7 O32 2.959929 1_555
La8 O37 2.430945 1_565
La8 O7 2.460665 1_655
La8 O46 2.576285 1_555
La8 O4 2.660065 1_566
La8 O30 2.707198 1_565
La8 O52 2.714503 1_665
La8 O38 2.739968 1_655
La8 O2 2.799811 1_555
La8 O22 2.959929 1_565
La9 O15 2.403407 1_555
La9 O47 2.403407 1_455
La9 O6 2.419433 1_555
La9 O2 2.419433 1_455
La9 O38 2.568339 1_555
La9 O9 2.568339 1_555
La10 O32 2.403407 1_555
La10 O22 2.403407 1_455
La10 O27 2.419433 1_555
La10 O29 2.419433 1_455
La10 O13 2.568339 1_555
La10 O52 2.568339 1_555
La11 O45 2.403407 1_555
La11 O11 2.403407 1_455
La11 O24 2.419433 1_555
La11 O26 2.419433 1_455
La11 O34 2.568339 1_555
La11 O0 2.568339 1_555
La12 O49 2.430945 1_555
La12 O54 2.460665 1_655
La12 O14 2.576285 1_555
La12 O33 2.660065 1_555
La12 O1 2.707198 1_555
La12 O9 2.714503 1_655
La12 O13 2.739968 1_655
La12 O29 2.799811 1_555
La12 O47 2.959929 1_555
La13 O25 2.394953 1_555
La13 O53 2.394953 1_555
La13 O51 2.473932 1_555
La13 O20 2.473932 1_555
La13 O23 2.569822 1_555
La13 O40 2.569822 1_555
La13 O19 2.784167 1_555
La13 O18 2.784167 1_555
La14 O5 2.430945 1_556
La14 O28 2.460665 1_555
La14 O30 2.576285 1_555
La14 O35 2.660065 1_556
La14 O39 2.707198 1_556
La14 O0 2.714503 1_556
La14 O52 2.739968 1_555
La14 O27 2.799811 1_555
La14 O45 2.959929 1_556
La15 O27 2.394953 1_555
La15 O29 2.394953 1_555
La15 O30 2.473932 1_555
La15 O14 2.473932 1_555
La15 O32 2.569822 1_555
La15 O22 2.569822 1_555
La15 O37 2.784167 1_555
La15 O3 2.784167 1_555
La16 O49 2.430945 1_555
La16 O54 2.460665 1_555
La16 O14 2.576285 1_555
La16 O44 2.660065 1_555
La16 O1 2.707198 1_555
La16 O9 2.714503 1_555
La16 O13 2.739968 1_555
La16 O27 2.799811 1_555
La16 O15 2.959929 1_555
La17 O18 2.430945 1_555
La17 O48 2.460665 1_655
La17 O1 2.576285 1_555
La17 O33 2.660065 1_555
La17 O51 2.707198 1_555
La17 O17 2.714503 1_655
La17 O9 2.739968 1_655
La17 O2 2.799811 1_555
La17 O40 2.959929 1_555
La18 O23 2.403407 1_555
La18 O40 2.403407 1_455
La18 O53 2.419433 1_555
La18 O25 2.419433 1_455
La18 O50 2.568339 1_555
La18 O17 2.568339 1_555
La19 O3 2.430945 1_555
La19 O16 2.460665 1_655
La19 O43 2.576285 1_555
La19 O33 2.660065 1_555
La19 O14 2.707198 1_555
La19 O13 2.714503 1_655
La19 O34 2.739968 1_655
La19 O26 2.799811 1_555
La19 O22 2.959929 1_555
La20 O24 2.394953 1_555
La20 O26 2.394953 1_555
La20 O39 2.473932 1_555
La20 O43 2.473932 1_555
La20 O45 2.569822 1_555
La20 O11 2.569822 1_555
La20 O5 2.784167 1_555
La20 O21 2.784167 1_555
La21 O21 2.430945 1_555
La21 O36 2.460665 1_655
La21 O51 2.576285 1_555
La21 O33 2.660065 1_555
La21 O43 2.707198 1_555
La21 O34 2.714503 1_655
La21 O17 2.739968 1_655
La21 O25 2.799811 1_555
La21 O11 2.959929 1_555
La22 O37 2.430945 1_565
La22 O7 2.460665 1_555
La22 O46 2.576285 1_555
La22 O35 2.660065 1_566
La22 O30 2.707198 1_565
La22 O52 2.714503 1_565
La22 O38 2.739968 1_555
La22 O6 2.799811 1_555
La22 O32 2.959929 1_565
La23 O31 2.430945 1_554
La23 O8 2.460665 1_555
La23 O20 2.576285 1_555
La23 O35 2.660065 1_565
La23 O46 2.707198 1_554
La23 O38 2.714503 1_554
La23 O50 2.739968 1_555
La23 O53 2.799811 1_555
La23 O15 2.959929 1_554
Fe0 O23 2.023717 1_555
Fe0 O40 2.023717 1_455
Fe0 O42 2.066251 1_565
Fe0 O48 2.066251 1_555
Fe0 O10 2.144365 1_565
Fe0 O55 2.144365 1_465
Fe1 O15 2.023717 1_555
Fe1 O47 2.023717 1_455
Fe1 O8 2.066251 1_556
Fe1 O54 2.066251 1_555
Fe1 O12 2.144365 1_556
Fe1 O41 2.144365 1_456
Fe2 O11 2.023717 1_455
Fe2 O45 2.023717 1_555
Fe2 O36 2.066251 1_555
Fe2 O28 2.066251 1_554
Fe2 O12 2.144365 1_555
Fe2 O41 2.144365 1_455
Fe3 O4 1.900531 1_455
Fe3 O35 1.900531 1_555
Fe3 O38 2.155443 1_544
Fe3 O50 2.155443 1_545
Fe3 O52 2.155443 1_554
Fe3 O0 2.155443 1_555
Fe4 O22 2.023717 1_455
Fe4 O32 2.023717 1_555
Fe4 O7 2.066251 1_545
Fe4 O16 2.066251 1_555
Fe4 O55 2.144365 1_455
Fe4 O10 2.144365 1_555
Fe5 O33 1.900531 1_455
Fe5 O44 1.900531 1_555
Fe5 O34 2.155443 1_555
Fe5 O13 2.155443 1_555
Fe5 O17 2.155443 1_555
Fe5 O9 2.155443 1_555
