# generated using pymatgen
data_LaFe12O19
_symmetry_space_group_name_H-M   'P 1'
_cell_length_a   5.98872010
_cell_length_b   5.98872010
_cell_length_c   23.11900600
_cell_angle_alpha   90.00000000
_cell_angle_beta   90.00000000
_cell_angle_gamma   119.07593898
_symmetry_Int_Tables_number   1
_chemical_formula_structural   LaFe12O19
_chemical_formula_sum   'La2 Fe24 O38'
_cell_volume   724.66433033
_cell_formula_units_Z   2
loop_
 _symmetry_equiv_pos_site_id
 _symmetry_equiv_pos_as_xyz
  1  'x, y, z'
loop_
 _atom_site_type_symbol
 _atom_site_label
 _atom_site_symmetry_multiplicity
 _atom_site_fract_x
 _atom_site_fract_y
 _atom_site_fract_z
 _atom_site_occupancy
  La  La0  1  0.36238700  0.63761300  0.75000000  1
  La  La1  1  0.63761300  0.36238700  0.25000000  1
  Fe  Fe0  1  0.33535100  0.66464900  0.02790500  1
  Fe  Fe1  1  0.33535100  0.66464900  0.47209500  1
  Fe  Fe2  1  0.67019900  0.32980100  0.81026000  1
  Fe  Fe3  1  0.66464900  0.33535100  0.52790500  1
  Fe  Fe4  1  0.33303700  0.16862300  0.10893200  1
  Fe  Fe5  1  0.00143100  0.99856900  0.75000000  1
  Fe  Fe6  1  0.99856900  0.00143100  0.25000000  1
  Fe  Fe7  1  0.16999800  0.83000200  0.61032300  1
  Fe  Fe8  1  0.83000200  0.16999800  0.11032300  1
  Fe  Fe9  1  0.16862300  0.33303700  0.89106800  1
  Fe  Fe10  1  0.83137700  0.66696300  0.39106800  1
  Fe  Fe11  1  0.66464900  0.33535100  0.97209500  1
  Fe  Fe12  1  0.33303700  0.16862300  0.39106800  1
  Fe  Fe13  1  0.32980100  0.67019900  0.18974000  1
  Fe  Fe14  1  0.16862300  0.33303700  0.60893200  1
  Fe  Fe15  1  0.00000000  0.00000000  0.00000000  1
  Fe  Fe16  1  0.16999800  0.83000200  0.88967700  1
  Fe  Fe17  1  0.66696300  0.83137700  0.60893200  1
  Fe  Fe18  1  0.83137700  0.66696300  0.10893200  1
  Fe  Fe19  1  0.00000000  0.00000000  0.50000000  1
  Fe  Fe20  1  0.67019900  0.32980100  0.68974000  1
  Fe  Fe21  1  0.83000200  0.16999800  0.38967700  1
  Fe  Fe22  1  0.66696300  0.83137700  0.89106800  1
  Fe  Fe23  1  0.32980100  0.67019900  0.31026000  1
  O  O0  1  0.36226900  0.21342100  0.75000000  1
  O  O1  1  0.49537900  0.50462100  0.84715600  1
  O  O2  1  0.85174400  0.69383700  0.94520600  1
  O  O3  1  0.49061400  0.97504200  0.65705400  1
  O  O4  1  0.84615800  0.15384200  0.55582700  1
  O  O5  1  0.02495800  0.50938600  0.65705400  1
  O  O6  1  0.50462100  0.49537900  0.15284400  1
  O  O7  1  0.69383700  0.85174400  0.44520600  1
  O  O8  1  0.81586800  0.18413200  0.75000000  1
  O  O9  1  0.18413200  0.81586800  0.25000000  1
  O  O10  1  0.78657900  0.63773100  0.75000000  1
  O  O11  1  0.99872500  0.00127500  0.15492300  1
  O  O12  1  0.21342100  0.36226900  0.25000000  1
  O  O13  1  0.14825600  0.30616300  0.05479400  1
  O  O14  1  0.50938600  0.02495800  0.34294600  1
  O  O15  1  0.00127500  0.99872500  0.65492300  1
  O  O16  1  0.50462100  0.49537900  0.34715600  1
  O  O17  1  0.30616300  0.14825600  0.94520600  1
  O  O18  1  0.99872500  0.00127500  0.34507700  1
  O  O19  1  0.15384200  0.84615800  0.44417300  1
  O  O20  1  0.66461600  0.33538400  0.05872000  1
  O  O21  1  0.30616300  0.14825600  0.55479400  1
  O  O22  1  0.97504200  0.49061400  0.15705400  1
  O  O23  1  0.00127500  0.99872500  0.84507700  1
  O  O24  1  0.66461600  0.33538400  0.44128000  1
  O  O25  1  0.50938600  0.02495800  0.15705400  1
  O  O26  1  0.63773100  0.78657900  0.25000000  1
  O  O27  1  0.14825600  0.30616300  0.44520600  1
  O  O28  1  0.33538400  0.66461600  0.55872000  1
  O  O29  1  0.97504200  0.49061400  0.34294600  1
  O  O30  1  0.84615800  0.15384200  0.94417300  1
  O  O31  1  0.33538400  0.66461600  0.94128000  1
  O  O32  1  0.85174400  0.69383700  0.55479400  1
  O  O33  1  0.69383700  0.85174400  0.05479400  1
  O  O34  1  0.49061400  0.97504200  0.84294600  1
  O  O35  1  0.15384200  0.84615800  0.05582700  1
  O  O36  1  0.49537900  0.50462100  0.65284400  1
  O  O37  1  0.02495800  0.50938600  0.84294600  1
loop_
_geom_bond_atom_site_label_1
_geom_bond_atom_site_label_2
_geom_bond_distance
_geom_bond_site_symmetry_2
La0 O10 2.540024 1_555
La0 O0 2.540024 1_555
La0 O1 2.632564 1_555
La0 O36 2.632564 1_555
La0 O5 2.789693 1_555
La0 O34 2.789693 1_555
La0 O37 2.789693 1_555
La0 O3 2.789693 1_555
La0 O8 3.073836 1_565
La0 O8 3.073836 1_455
La1 O12 2.540024 1_555
La1 O26 2.540024 1_555
La1 O6 2.632564 1_555
La1 O16 2.632564 1_555
La1 O14 2.789693 1_555
La1 O22 2.789693 1_555
La1 O29 2.789693 1_555
La1 O25 2.789693 1_555
La1 O9 3.073836 1_545
La1 O9 3.073836 1_655
Fe0 O13 1.978120 1_555
Fe0 O33 1.978120 1_555
Fe0 O35 1.981994 1_555
Fe0 O31 2.002684 1_554
Fe1 O7 1.978120 1_555
Fe1 O27 1.978120 1_555
Fe1 O19 1.981994 1_555
Fe1 O28 2.002684 1_555
Fe2 O1 1.996283 1_555
Fe2 O34 2.005149 1_545
Fe2 O37 2.005149 1_655
Fe2 O8 2.050026 1_555
Fe2 O0 2.139661 1_555
Fe2 O10 2.139661 1_555
Fe3 O21 1.978120 1_555
Fe3 O32 1.978120 1_555
Fe3 O4 1.981994 1_555
Fe3 O24 2.002684 1_555
Fe4 O6 1.990333 1_555
Fe4 O25 1.994107 1_555
Fe4 O11 2.047719 1_455
Fe4 O13 2.086981 1_555
Fe4 O20 2.088209 1_555
Fe4 O35 2.091429 1_545
Fe5 O10 1.903380 1_455
Fe5 O0 1.903380 1_565
Fe5 O8 1.915778 1_465
Fe5 O15 2.198086 1_555
Fe5 O23 2.198086 1_555
Fe6 O26 1.903380 1_545
Fe6 O12 1.903380 1_655
Fe6 O9 1.915778 1_645
Fe6 O11 2.198086 1_555
Fe6 O18 2.198086 1_555
Fe7 O5 1.996848 1_555
Fe7 O3 1.996848 1_555
Fe7 O15 2.024220 1_555
Fe7 O28 2.082959 1_555
Fe7 O21 2.105954 1_565
Fe7 O32 2.105954 1_455
Fe8 O25 1.996848 1_555
Fe8 O22 1.996848 1_555
Fe8 O11 2.024220 1_555
Fe8 O20 2.082959 1_555
Fe8 O13 2.105954 1_655
Fe8 O33 2.105954 1_545
Fe9 O1 1.990333 1_555
Fe9 O37 1.994107 1_555
Fe9 O23 2.047719 1_545
Fe9 O17 2.086981 1_555
Fe9 O31 2.088209 1_555
Fe9 O30 2.091429 1_455
Fe10 O16 1.990333 1_555
Fe10 O29 1.994107 1_555
Fe10 O18 2.047719 1_565
Fe10 O7 2.086981 1_555
Fe10 O24 2.088209 1_555
Fe10 O19 2.091429 1_655
Fe11 O2 1.978120 1_555
Fe11 O17 1.978120 1_555
Fe11 O30 1.981994 1_555
Fe11 O20 2.002684 1_556
Fe12 O16 1.990333 1_555
Fe12 O14 1.994107 1_555
Fe12 O18 2.047719 1_455
Fe12 O27 2.086981 1_555
Fe12 O24 2.088209 1_555
Fe12 O19 2.091429 1_545
Fe13 O6 1.996283 1_555
Fe13 O25 2.005149 1_565
Fe13 O22 2.005149 1_455
Fe13 O9 2.050026 1_555
Fe13 O12 2.139661 1_555
Fe13 O26 2.139661 1_555
Fe14 O36 1.990333 1_555
Fe14 O5 1.994107 1_555
Fe14 O15 2.047719 1_545
Fe14 O21 2.086981 1_555
Fe14 O28 2.088209 1_555
Fe14 O4 2.091429 1_455
Fe15 O33 2.042699 1_445
Fe15 O2 2.042699 1_444
Fe15 O17 2.042699 1_554
Fe15 O13 2.042699 1_555
Fe15 O30 2.046575 1_454
Fe15 O35 2.046575 1_545
Fe16 O37 1.996848 1_555
Fe16 O34 1.996848 1_555
Fe16 O23 2.024220 1_555
Fe16 O31 2.082959 1_555
Fe16 O17 2.105954 1_565
Fe16 O2 2.105954 1_455
Fe17 O36 1.990333 1_555
Fe17 O3 1.994107 1_555
Fe17 O15 2.047719 1_655
Fe17 O32 2.086981 1_555
Fe17 O28 2.088209 1_555
Fe17 O4 2.091429 1_565
Fe18 O6 1.990333 1_555
Fe18 O22 1.994107 1_555
Fe18 O11 2.047719 1_565
Fe18 O33 2.086981 1_555
Fe18 O20 2.088209 1_555
Fe18 O35 2.091429 1_655
Fe19 O21 2.042699 1_555
Fe19 O7 2.042699 1_445
Fe19 O27 2.042699 1_555
Fe19 O32 2.042699 1_445
Fe19 O4 2.046575 1_455
Fe19 O19 2.046575 1_545
Fe20 O36 1.996283 1_555
Fe20 O3 2.005149 1_545
Fe20 O5 2.005149 1_655
Fe20 O8 2.050026 1_555
Fe20 O0 2.139661 1_555
Fe20 O10 2.139661 1_555
Fe21 O29 1.996848 1_555
Fe21 O14 1.996848 1_555
Fe21 O18 2.024220 1_555
Fe21 O24 2.082959 1_555
Fe21 O27 2.105954 1_655
Fe21 O7 2.105954 1_545
Fe22 O1 1.990333 1_555
Fe22 O34 1.994107 1_555
Fe22 O23 2.047719 1_655
Fe22 O2 2.086981 1_555
Fe22 O31 2.088209 1_555
Fe22 O30 2.091429 1_565
Fe23 O16 1.996283 1_555
Fe23 O14 2.005149 1_565
Fe23 O29 2.005149 1_455
Fe23 O9 2.050026 1_555
Fe23 O12 2.139661 1_555
Fe23 O26 2.139661 1_555
