# generated using pymatgen
data_Ce4FeSe6O
_symmetry_space_group_name_H-M   'P 1'
_cell_length_a   9.49440172
_cell_length_b   9.49440172
_cell_length_c   7.07191200
_cell_angle_alpha   90.00000000
_cell_angle_beta   90.00000000
_cell_angle_gamma   119.99999803
_symmetry_Int_Tables_number   1
_chemical_formula_structural   Ce4FeSe6O
_chemical_formula_sum   'Ce8 Fe2 Se12 O2'
_cell_volume   552.08086467
_cell_formula_units_Z   2
loop_
 _symmetry_equiv_pos_site_id
 _symmetry_equiv_pos_as_xyz
  1  'x, y, z'
loop_
 _atom_site_type_symbol
 _atom_site_label
 _atom_site_symmetry_multiplicity
 _atom_site_fract_x
 _atom_site_fract_y
 _atom_site_fract_z
 _atom_site_occupancy
  Ce  Ce0  1  0.19736300  0.80263700  0.84265900  1
  Ce  Ce1  1  0.80263700  0.19736300  0.34265900  1
  Ce  Ce2  1  0.39472500  0.19736300  0.34265900  1
  Ce  Ce3  1  0.80263700  0.60527500  0.34265900  1
  Ce  Ce4  1  0.60527500  0.80263700  0.84265900  1
  Ce  Ce5  1  0.33333300  0.66666700  0.28544500  1
  Ce  Ce6  1  0.66666700  0.33333300  0.78544500  1
  Ce  Ce7  1  0.19736300  0.39472500  0.84265900  1
  Fe  Fe0  1  0.00000000  0.00000000  0.50020200  1
  Fe  Fe1  1  0.00000000  0.00000000  0.00020200  1
  Se  Se0  1  0.12899300  0.25798700  0.23575800  1
  Se  Se1  1  0.87100700  0.74201300  0.73575800  1
  Se  Se2  1  0.25798700  0.12899300  0.73575800  1
  Se  Se3  1  0.05989000  0.52994500  0.55596200  1
  Se  Se4  1  0.12899300  0.87100700  0.23575800  1
  Se  Se5  1  0.52994500  0.05989000  0.05596200  1
  Se  Se6  1  0.52994500  0.47005500  0.05596200  1
  Se  Se7  1  0.94011000  0.47005500  0.05596200  1
  Se  Se8  1  0.47005500  0.94011000  0.55596200  1
  Se  Se9  1  0.74201300  0.87100700  0.23575800  1
  Se  Se10  1  0.47005500  0.52994500  0.55596200  1
  Se  Se11  1  0.87100700  0.12899300  0.73575800  1
  O  O0  1  0.33333300  0.66666700  0.95219500  1
  O  O1  1  0.66666700  0.33333300  0.45219500  1
loop_
_geom_bond_atom_site_label_1
_geom_bond_atom_site_label_2
_geom_bond_distance
_geom_bond_site_symmetry_2
Ce0 O0 2.366376 1_555
Ce0 Se2 2.953029 1_565
Ce0 Se1 2.953029 1_455
Ce0 Se4 2.998717 1_556
Ce0 Se8 3.022950 1_555
Ce0 Se3 3.022950 1_555
Ce0 Se5 3.240286 1_566
Ce0 Se7 3.240286 1_456
Ce1 O1 2.366376 1_555
Ce1 Se0 2.953029 1_655
Ce1 Se9 2.953029 1_545
Ce1 Se11 2.998717 1_555
Ce1 Se5 3.022950 1_555
Ce1 Se7 3.022950 1_555
Ce1 Se3 3.240286 1_655
Ce1 Se8 3.240286 1_545
Ce2 O1 2.366392 1_555
Ce2 Se0 2.953029 1_555
Ce2 Se4 2.953029 1_545
Ce2 Se2 2.998711 1_555
Ce2 Se6 3.022950 1_555
Ce2 Se5 3.022956 1_555
Ce2 Se10 3.240284 1_555
Ce2 Se8 3.240292 1_545
Ce3 O1 2.366392 1_555
Ce3 Se9 2.953029 1_555
Ce3 Se4 2.953029 1_655
Ce3 Se1 2.998711 1_555
Ce3 Se6 3.022950 1_555
Ce3 Se7 3.022956 1_555
Ce3 Se10 3.240284 1_555
Ce3 Se3 3.240292 1_655
Ce4 O0 2.366392 1_555
Ce4 Se1 2.953029 1_555
Ce4 Se11 2.953029 1_565
Ce4 Se9 2.998711 1_556
Ce4 Se10 3.022950 1_555
Ce4 Se8 3.022956 1_555
Ce4 Se6 3.240284 1_556
Ce4 Se5 3.240292 1_566
Ce5 O0 2.356715 1_554
Ce5 Se3 2.952109 1_555
Ce5 Se8 2.952109 1_555
Ce5 Se10 2.952116 1_555
Ce5 Se4 3.378649 1_555
Ce5 Se0 3.378649 1_555
Ce5 Se9 3.378649 1_555
Ce5 Se7 3.617672 1_455
Ce5 Se5 3.617672 1_565
Ce5 Se6 3.617680 1_555
Ce6 O1 2.356715 1_555
Ce6 Se7 2.952109 1_556
Ce6 Se5 2.952109 1_556
Ce6 Se6 2.952116 1_556
Ce6 Se11 3.378649 1_555
Ce6 Se2 3.378649 1_555
Ce6 Se1 3.378649 1_555
Ce6 Se8 3.617672 1_545
Ce6 Se3 3.617672 1_655
Ce6 Se10 3.617680 1_555
Ce7 O0 2.366392 1_555
Ce7 Se2 2.953029 1_555
Ce7 Se11 2.953029 1_455
Ce7 Se0 2.998711 1_556
Ce7 Se10 3.022950 1_555
Ce7 Se3 3.022956 1_555
Ce7 Se6 3.240284 1_556
Ce7 Se7 3.240292 1_456
Fe0 Se11 2.697174 1_455
Fe0 Se2 2.697181 1_555
Fe0 Se1 2.697181 1_445
Fe0 Se4 2.827918 1_545
Fe0 Se9 2.827924 1_445
Fe0 Se0 2.827924 1_555
Fe1 Se4 2.697174 1_545
Fe1 Se9 2.697181 1_445
Fe1 Se0 2.697181 1_555
Fe1 Se11 2.827918 1_454
Fe1 Se1 2.827924 1_444
Fe1 Se2 2.827924 1_554
