# generated using pymatgen
data_Hf(SiNi)2
_symmetry_space_group_name_H-M   'P 1'
_cell_length_a   3.72189917
_cell_length_b   3.72189899
_cell_length_c   5.47742028
_cell_angle_alpha   109.86158878
_cell_angle_beta   109.86159643
_cell_angle_gamma   89.99999177
_symmetry_Int_Tables_number   1
_chemical_formula_structural   Hf(SiNi)2
_chemical_formula_sum   'Hf1 Si2 Ni2'
_cell_volume   66.54389927
_cell_formula_units_Z   1
loop_
 _symmetry_equiv_pos_site_id
 _symmetry_equiv_pos_as_xyz
  1  'x, y, z'
loop_
 _atom_site_type_symbol
 _atom_site_label
 _atom_site_symmetry_multiplicity
 _atom_site_fract_x
 _atom_site_fract_y
 _atom_site_fract_z
 _atom_site_occupancy
  Hf  Hf0  1  -0.00000000  -0.00000000  0.00000000  1
  Si  Si0  1  0.38069471  0.38069471  0.76138943  1
  Si  Si1  1  0.61930529  0.61930529  0.23861057  1
  Ni  Ni0  1  0.25000000  0.75000000  0.50000000  1
  Ni  Ni1  1  0.75000000  0.25000000  0.50000000  1
loop_
_geom_bond_atom_site_label_1
_geom_bond_atom_site_label_2
_geom_bond_distance
_geom_bond_site_symmetry_2
Hf0 Si0 2.870556 1_454
Hf0 Si1 2.870556 1_545
Hf0 Si1 2.870556 1_445
Hf0 Si0 2.870556 1_554
Hf0 Si1 2.870556 1_455
Hf0 Si0 2.870556 1_544
Hf0 Si0 2.870556 1_444
Hf0 Si1 2.870556 1_555
Hf0 Ni1 3.038437 1_454
Hf0 Ni0 3.038437 1_545
Hf0 Ni0 3.038437 1_544
Hf0 Ni1 3.038437 1_455
Hf0 Ni0 3.038437 1_444
Hf0 Ni1 3.038437 1_555
Hf0 Ni1 3.038438 1_444
Hf0 Ni0 3.038438 1_555
Si0 Si1 2.292444 1_556
Ni0 Si0 2.244945 1_555
Ni0 Si1 2.244945 1_555
Ni0 Si1 2.244945 1_455
Ni0 Si0 2.244945 1_565
Ni0 Ni1 2.631780 1_465
Ni0 Ni1 2.631780 1_555
Ni0 Ni1 2.631780 1_455
Ni0 Ni1 2.631780 1_565
Ni1 Si1 2.244945 1_555
Ni1 Si0 2.244945 1_555
Ni1 Si0 2.244945 1_655
Ni1 Si1 2.244945 1_545
