# generated using pymatgen
data_YbCuGe
_symmetry_space_group_name_H-M   'P 1'
_cell_length_a   4.19911874
_cell_length_b   4.19911874
_cell_length_c   6.96687462
_cell_angle_alpha   90.00000000
_cell_angle_beta   90.00000000
_cell_angle_gamma   120.00000391
_symmetry_Int_Tables_number   1
_chemical_formula_structural   YbCuGe
_chemical_formula_sum   'Yb2 Cu2 Ge2'
_cell_volume   106.38610793
_cell_formula_units_Z   2
loop_
 _symmetry_equiv_pos_site_id
 _symmetry_equiv_pos_as_xyz
  1  'x, y, z'
loop_
 _atom_site_type_symbol
 _atom_site_label
 _atom_site_symmetry_multiplicity
 _atom_site_fract_x
 _atom_site_fract_y
 _atom_site_fract_z
 _atom_site_occupancy
  Yb  Yb0  1  0.00000000  0.00000000  0.00152098  1
  Yb  Yb1  1  0.00000000  0.00000000  0.50152098  1
  Cu  Cu0  1  0.66666700  0.33333300  0.20481965  1
  Cu  Cu1  1  0.33333300  0.66666700  0.70481965  1
  Ge  Ge0  1  0.66666700  0.33333300  0.78075938  1
  Ge  Ge1  1  0.33333300  0.66666700  0.28075938  1
loop_
_geom_bond_atom_site_label_1
_geom_bond_atom_site_label_2
_geom_bond_distance
_geom_bond_site_symmetry_2
Cu0 Ge1 2.481416 1_655
Cu0 Ge1 2.481416 1_545
Cu0 Ge1 2.481424 1_555
Cu0 Yb0 2.807773 1_655
Cu0 Yb0 2.807776 1_555
Cu0 Yb0 2.807776 1_665
Cu0 Ge0 2.954375 1_554
Cu0 Yb1 3.185961 1_655
Cu0 Yb1 3.185963 1_555
Cu0 Yb1 3.185963 1_665
Cu1 Ge0 2.481416 1_565
Cu1 Ge0 2.481416 1_455
Cu1 Ge0 2.481424 1_555
Cu1 Yb1 2.807773 1_565
Cu1 Yb1 2.807776 1_555
Cu1 Yb1 2.807776 1_665
Cu1 Ge1 2.954375 1_555
Cu1 Yb0 3.185961 1_566
Cu1 Yb0 3.185963 1_556
Cu1 Yb0 3.185963 1_666
Ge0 Yb0 2.871066 1_656
Ge0 Yb0 2.871069 1_556
Ge0 Yb0 2.871069 1_666
Ge0 Yb1 3.108404 1_655
Ge0 Yb1 3.108407 1_555
Ge0 Yb1 3.108407 1_665
Ge1 Yb1 2.871066 1_565
Ge1 Yb1 2.871069 1_555
Ge1 Yb1 2.871069 1_665
Ge1 Yb0 3.108404 1_565
Ge1 Yb0 3.108407 1_555
Ge1 Yb0 3.108407 1_665
