# generated using pymatgen
data_AsC4S2Cl2O2F13
_symmetry_space_group_name_H-M   'P 1'
_cell_length_a   11.38334900
_cell_length_b   10.20008300
_cell_length_c   13.17928743
_cell_angle_alpha   82.41245142
_cell_angle_beta   90.00000000
_cell_angle_gamma   90.00000000
_symmetry_Int_Tables_number   1
_chemical_formula_structural   AsC4S2Cl2O2F13
_chemical_formula_sum   'As4 C16 S8 Cl8 O8 F52'
_cell_volume   1516.86304684
_cell_formula_units_Z   4
loop_
 _symmetry_equiv_pos_site_id
 _symmetry_equiv_pos_as_xyz
  1  'x, y, z'
loop_
 _atom_site_type_symbol
 _atom_site_label
 _atom_site_symmetry_multiplicity
 _atom_site_fract_x
 _atom_site_fract_y
 _atom_site_fract_z
 _atom_site_occupancy
  As  As0  1  0.14886200  0.21929100  0.51197700  1
  As  As1  1  0.85113800  0.78070900  0.48802300  1
  As  As2  1  0.35113800  0.21929100  0.01197700  1
  As  As3  1  0.64886200  0.78070900  0.98802300  1
  C  C0  1  0.91383700  0.16464700  0.85526600  1
  C  C1  1  0.45701000  0.64990600  0.32736900  1
  C  C2  1  0.18491100  0.84990500  0.22444200  1
  C  C3  1  0.41383700  0.83535300  0.64473400  1
  C  C4  1  0.68491100  0.15009500  0.27555800  1
  C  C5  1  0.65215600  0.33321200  0.74553500  1
  C  C6  1  0.08616300  0.83535300  0.14473400  1
  C  C7  1  0.54299000  0.35009400  0.67263100  1
  C  C8  1  0.31508900  0.84990500  0.72444200  1
  C  C9  1  0.84784400  0.33321200  0.24553500  1
  C  C10  1  0.95701000  0.35009400  0.17263100  1
  C  C11  1  0.34784400  0.66678800  0.25446500  1
  C  C12  1  0.58616300  0.16464700  0.35526600  1
  C  C13  1  0.81508900  0.15009500  0.77555800  1
  C  C14  1  0.04299000  0.64990600  0.82736900  1
  C  C15  1  0.15215600  0.66678800  0.75446500  1
  S  S0  1  0.70356900  0.30329500  0.17590900  1
  S  S1  1  0.20356900  0.69670500  0.32409100  1
  S  S2  1  0.83827400  0.17718700  0.33839400  1
  S  S3  1  0.79643100  0.30329500  0.67590900  1
  S  S4  1  0.33827400  0.82281300  0.16160600  1
  S  S5  1  0.16172600  0.82281300  0.66160600  1
  S  S6  1  0.66172600  0.17718700  0.83839400  1
  S  S7  1  0.29643100  0.69670500  0.82409100  1
  Cl  Cl0  1  0.32120600  0.99351500  0.77569500  1
  Cl  Cl1  1  0.82120600  0.00648500  0.72430500  1
  Cl  Cl2  1  0.17879400  0.99351500  0.27569500  1
  Cl  Cl3  1  0.67879400  0.00648500  0.22430500  1
  Cl  Cl4  1  0.33548100  0.54103800  0.17943700  1
  Cl  Cl5  1  0.83548100  0.45896200  0.32056300  1
  Cl  Cl6  1  0.16451900  0.54103800  0.67943700  1
  Cl  Cl7  1  0.66451900  0.45896200  0.82056300  1
  O  O0  1  0.88063300  0.40262800  0.69104900  1
  O  O1  1  0.23063800  0.73828700  0.42109900  1
  O  O2  1  0.38063300  0.59737200  0.80895100  1
  O  O3  1  0.11936700  0.59737200  0.30895100  1
  O  O4  1  0.76936200  0.26171300  0.57890100  1
  O  O5  1  0.61936700  0.40262800  0.19104900  1
  O  O6  1  0.26936200  0.73828700  0.92109900  1
  O  O7  1  0.73063800  0.26171300  0.07890100  1
  F  F0  1  0.93869000  0.81535000  0.59555700  1
  F  F1  1  0.81230200  0.95366300  0.46635700  1
  F  F2  1  0.47138500  0.75645300  0.37706300  1
  F  F3  1  0.93719300  0.45786400  0.10293600  1
  F  F4  1  0.05556100  0.36855900  0.22443100  1
  F  F5  1  0.60737900  0.27463800  0.40071500  1
  F  F6  1  0.02465900  0.18214100  0.59153000  1
  F  F7  1  0.31230200  0.04633700  0.03364300  1
  F  F8  1  0.39249800  0.38686900  0.98961700  1
  F  F9  1  0.22956700  0.24788200  0.92932300  1
  F  F10  1  0.51891500  0.82353300  0.69127700  1
  F  F11  1  0.18769800  0.04633700  0.53364300  1
  F  F12  1  0.08412900  0.94077900  0.07155500  1
  F  F13  1  0.60750200  0.61313100  0.01038300  1
  F  F14  1  0.01891500  0.17646700  0.80872300  1
  F  F15  1  0.06280700  0.54213600  0.89706400  1
  F  F16  1  0.98108500  0.82353300  0.19127700  1
  F  F17  1  0.39262100  0.72536200  0.59928500  1
  F  F18  1  0.48108500  0.17646700  0.30872300  1
  F  F19  1  0.52861500  0.24354700  0.62293700  1
  F  F20  1  0.91587100  0.05922100  0.92844500  1
  F  F21  1  0.40701200  0.92763000  0.21614700  1
  F  F22  1  0.72956700  0.75211800  0.57067700  1
  F  F23  1  0.90701200  0.07237000  0.28385300  1
  F  F24  1  0.76548300  0.75110500  0.38160400  1
  F  F25  1  0.97138500  0.24354700  0.12293700  1
  F  F26  1  0.55556100  0.63144100  0.27556900  1
  F  F27  1  0.43869000  0.18465000  0.90444300  1
  F  F28  1  0.10737900  0.72536200  0.09928500  1
  F  F29  1  0.59298800  0.07237000  0.78385300  1
  F  F30  1  0.10750200  0.38686900  0.48961700  1
  F  F31  1  0.43719300  0.54213600  0.39706400  1
  F  F32  1  0.47534100  0.18214100  0.09153000  1
  F  F33  1  0.56280700  0.45786400  0.60293600  1
  F  F34  1  0.09298800  0.92763000  0.71614700  1
  F  F35  1  0.27043300  0.24788200  0.42932300  1
  F  F36  1  0.94443900  0.63144100  0.77556900  1
  F  F37  1  0.77043300  0.75211800  0.07067700  1
  F  F38  1  0.23451700  0.24889500  0.61839600  1
  F  F39  1  0.26548300  0.24889500  0.11839600  1
  F  F40  1  0.56131000  0.81535000  0.09555700  1
  F  F41  1  0.52465900  0.81785900  0.90847000  1
  F  F42  1  0.41587100  0.94077900  0.57155500  1
  F  F43  1  0.73451700  0.75110500  0.88160400  1
  F  F44  1  0.68769800  0.95366300  0.96635700  1
  F  F45  1  0.58412900  0.05922100  0.42844500  1
  F  F46  1  0.44443900  0.36855900  0.72443100  1
  F  F47  1  0.89262100  0.27463800  0.90071500  1
  F  F48  1  0.06131000  0.18465000  0.40444300  1
  F  F49  1  0.89249800  0.61313100  0.51038300  1
  F  F50  1  0.97534100  0.81785900  0.40847000  1
  F  F51  1  0.02861500  0.75645300  0.87706300  1
loop_
_geom_bond_atom_site_label_1
_geom_bond_atom_site_label_2
_geom_bond_distance
_geom_bond_site_symmetry_2
As0 F30 1.759894 1_555
As0 F35 1.761509 1_555
As0 F38 1.766581 1_555
As0 F6 1.771125 1_555
As0 F11 1.804481 1_555
As0 F48 1.805240 1_555
As1 F49 1.759894 1_555
As1 F22 1.761509 1_555
As1 F24 1.766581 1_555
As1 F50 1.771125 1_555
As1 F1 1.804481 1_555
As1 F0 1.805240 1_555
As2 F8 1.759894 1_554
As2 F9 1.761509 1_554
As2 F39 1.766581 1_555
As2 F32 1.771125 1_555
As2 F7 1.804481 1_555
As2 F27 1.805240 1_554
As3 F13 1.759894 1_556
As3 F37 1.761509 1_556
As3 F43 1.766581 1_555
As3 F41 1.771125 1_555
As3 F44 1.804481 1_555
As3 F40 1.805240 1_556
C0 F14 1.342393 1_655
C0 F20 1.346549 1_555
C0 F47 1.361350 1_555
C0 C13 1.558945 1_555
C1 F26 1.339409 1_555
C1 F2 1.350847 1_555
C1 F31 1.355109 1_555
C1 C11 1.566327 1_555
C2 C6 1.558945 1_555
C2 Cl2 1.693563 1_555
C2 S1 1.915672 1_555
C2 S4 1.967325 1_555
C3 F10 1.342393 1_555
C3 F42 1.346549 1_555
C3 F17 1.361350 1_555
C3 C8 1.558945 1_555
C4 Cl3 1.693563 1_555
C4 S0 1.915672 1_555
C4 S2 1.967325 1_555
C5 C7 1.566327 1_555
C5 Cl7 1.725607 1_555
C5 S6 1.878302 1_555
C5 S3 1.925189 1_555
C6 F16 1.342393 1_455
C6 F12 1.346549 1_555
C6 F28 1.361350 1_555
C7 F46 1.339409 1_555
C7 F19 1.350847 1_555
C7 F33 1.355109 1_555
C8 Cl0 1.693563 1_555
C8 S7 1.915672 1_555
C8 S5 1.967325 1_555
C9 Cl5 1.725607 1_555
C9 S2 1.878302 1_555
C9 S0 1.925189 1_555
C10 F4 1.339409 1_655
C10 F25 1.350847 1_555
C10 F3 1.355109 1_555
C10 C9 1.566327 1_555
C11 Cl4 1.725607 1_555
C11 S4 1.878302 1_555
C11 S1 1.925189 1_555
C12 F18 1.342393 1_555
C12 F45 1.346549 1_555
C12 F5 1.361350 1_555
C12 C4 1.558945 1_555
C13 Cl1 1.693563 1_555
C13 S3 1.915672 1_555
C13 S6 1.967325 1_555
C14 F36 1.339409 1_455
C14 F51 1.350847 1_555
C14 F15 1.355109 1_555
C14 C15 1.566327 1_555
C15 Cl6 1.725607 1_555
C15 S5 1.878302 1_555
C15 S7 1.925189 1_555
O0 S3 1.427764 1_555
O1 S1 1.432689 1_555
O2 S7 1.427764 1_555
O3 S1 1.427764 1_555
O4 S3 1.432689 1_555
O5 S0 1.427764 1_555
O6 S7 1.432689 1_555
O7 S0 1.432689 1_555
F21 S4 1.573201 1_555
F23 S2 1.573201 1_555
F29 S6 1.573201 1_555
F34 S5 1.573201 1_555
