# generated using pymatgen
data_Ag5(Sn3S8)2
_symmetry_space_group_name_H-M   'P 1'
_cell_length_a   10.74073824
_cell_length_b   10.74073824
_cell_length_c   10.72235800
_cell_angle_alpha   90.00000000
_cell_angle_beta   90.00000000
_cell_angle_gamma   90.97133587
_symmetry_Int_Tables_number   1
_chemical_formula_structural   Ag5(Sn3S8)2
_chemical_formula_sum   'Ag10 Sn12 S32'
_cell_volume   1236.79054630
_cell_formula_units_Z   2
loop_
 _symmetry_equiv_pos_site_id
 _symmetry_equiv_pos_as_xyz
  1  'x, y, z'
loop_
 _atom_site_type_symbol
 _atom_site_label
 _atom_site_symmetry_multiplicity
 _atom_site_fract_x
 _atom_site_fract_y
 _atom_site_fract_z
 _atom_site_occupancy
  Ag  Ag0  1  0.38814200  0.38814200  0.00000000  1
  Ag  Ag1  1  0.37117300  0.37117300  0.50000000  1
  Ag  Ag2  1  0.87788700  0.36427700  0.49274900  1
  Ag  Ag3  1  0.87708200  0.12291800  0.25000000  1
  Ag  Ag4  1  0.63572300  0.12211300  0.00725100  1
  Ag  Ag5  1  0.12291800  0.87708200  0.75000000  1
  Ag  Ag6  1  0.36427700  0.87788700  0.50725100  1
  Ag  Ag7  1  0.12211300  0.63572300  0.99274900  1
  Ag  Ag8  1  0.62882700  0.62882700  0.00000000  1
  Ag  Ag9  1  0.61185800  0.61185800  0.50000000  1
  Sn  Sn0  1  0.12559200  0.37775300  0.24413100  1
  Sn  Sn1  1  0.88501700  0.37376700  0.99288500  1
  Sn  Sn2  1  0.63487400  0.36512600  0.75000000  1
  Sn  Sn3  1  0.12742500  0.12742500  0.00000000  1
  Sn  Sn4  1  0.37775300  0.12559200  0.75586900  1
  Sn  Sn5  1  0.62623300  0.11498300  0.50711500  1
  Sn  Sn6  1  0.37376700  0.88501700  0.00711500  1
  Sn  Sn7  1  0.62224700  0.87440800  0.25586900  1
  Sn  Sn8  1  0.87257500  0.87257500  0.50000000  1
  Sn  Sn9  1  0.36512600  0.63487400  0.25000000  1
  Sn  Sn10  1  0.11498300  0.62623300  0.49288500  1
  Sn  Sn11  1  0.87440800  0.62224700  0.74413100  1
  S  S0  1  0.36407900  0.39469100  0.24118900  1
  S  S1  1  0.11809400  0.38639700  0.48393800  1
  S  S2  1  0.88713900  0.36848400  0.23619300  1
  S  S3  1  0.12834500  0.37791100  0.99688100  1
  S  S4  1  0.87783500  0.37519700  0.74668900  1
  S  S5  1  0.64276600  0.36505200  0.99005600  1
  S  S6  1  0.39469100  0.36407900  0.75881100  1
  S  S7  1  0.63494800  0.35723400  0.50994400  1
  S  S8  1  0.12202100  0.13962200  0.23889000  1
  S  S9  1  0.88813700  0.13579300  0.99843300  1
  S  S10  1  0.13962200  0.12202100  0.76111000  1
  S  S11  1  0.37791100  0.12834500  0.00311900  1
  S  S12  1  0.62480300  0.12216500  0.75331100  1
  S  S13  1  0.38639700  0.11809400  0.51606200  1
  S  S14  1  0.63151600  0.11286100  0.26380700  1
  S  S15  1  0.86420700  0.11186300  0.50156700  1
  S  S16  1  0.13579300  0.88813700  0.00156700  1
  S  S17  1  0.36848400  0.88713900  0.76380700  1
  S  S18  1  0.61360300  0.88190600  0.01606200  1
  S  S19  1  0.37519700  0.87783500  0.25331100  1
  S  S20  1  0.62208900  0.87165500  0.50311900  1
  S  S21  1  0.86037800  0.87797900  0.26111000  1
  S  S22  1  0.11186300  0.86420700  0.49843300  1
  S  S23  1  0.87797900  0.86037800  0.73889000  1
  S  S24  1  0.36505200  0.64276600  0.00994400  1
  S  S25  1  0.60530900  0.63592100  0.25881100  1
  S  S26  1  0.35723400  0.63494800  0.49005600  1
  S  S27  1  0.12216500  0.62480300  0.24668900  1
  S  S28  1  0.87165500  0.62208900  0.49688100  1
  S  S29  1  0.11286100  0.63151600  0.73619300  1
  S  S30  1  0.88190600  0.61360300  0.98393800  1
  S  S31  1  0.63592100  0.60530900  0.74118900  1
loop_
_geom_bond_atom_site_label_1
_geom_bond_atom_site_label_2
_geom_bond_distance
_geom_bond_site_symmetry_2
Ag0 S6 2.600068 1_554
Ag0 S0 2.600068 1_555
Ag0 S5 2.752321 1_554
Ag0 S24 2.752321 1_555
Ag0 S3 2.790913 1_554
Ag0 S11 2.790913 1_555
Ag1 S1 2.731370 1_555
Ag1 S13 2.731370 1_555
Ag1 S0 2.787696 1_555
Ag1 S6 2.787696 1_555
Ag1 S7 2.841626 1_555
Ag1 S26 2.841626 1_555
Ag2 S1 2.588628 1_655
Ag2 S7 2.615664 1_555
Ag2 S15 2.714250 1_555
Ag2 S4 2.725361 1_555
Ag2 S2 2.753023 1_555
Ag2 S28 2.771388 1_555
Ag3 S8 2.636593 1_655
Ag3 S21 2.636593 1_545
Ag3 S2 2.642092 1_555
Ag3 S14 2.642092 1_555
Ag3 S15 2.703440 1_555
Ag3 S9 2.703440 1_554
Ag4 S18 2.588628 1_545
Ag4 S5 2.615664 1_554
Ag4 S9 2.714250 1_554
Ag4 S12 2.725361 1_554
Ag4 S14 2.753023 1_555
Ag4 S11 2.771388 1_555
Ag5 S10 2.636593 1_565
Ag5 S23 2.636593 1_455
Ag5 S17 2.642092 1_555
Ag5 S29 2.642092 1_555
Ag5 S22 2.703440 1_555
Ag5 S16 2.703440 1_556
Ag6 S13 2.588628 1_565
Ag6 S26 2.615664 1_555
Ag6 S22 2.714250 1_555
Ag6 S19 2.725361 1_555
Ag6 S17 2.753023 1_555
Ag6 S20 2.771388 1_555
Ag7 S30 2.588628 1_455
Ag7 S24 2.615664 1_556
Ag7 S16 2.714250 1_556
Ag7 S27 2.725361 1_556
Ag7 S29 2.753023 1_555
Ag7 S3 2.771388 1_555
Ag8 S30 2.731370 1_554
Ag8 S18 2.731370 1_555
Ag8 S31 2.787696 1_554
Ag8 S25 2.787696 1_555
Ag8 S24 2.841626 1_555
Ag8 S5 2.841626 1_554
Ag9 S31 2.600068 1_555
Ag9 S25 2.600068 1_555
Ag9 S26 2.752321 1_555
Ag9 S7 2.752321 1_555
Ag9 S20 2.790913 1_555
Ag9 S28 2.790913 1_555
S0 Sn0 2.565095 1_555
S0 Sn9 2.581306 1_555
S1 Sn0 2.574281 1_555
S1 Sn10 2.578584 1_555
S2 Sn0 2.562822 1_655
S2 Sn1 2.609560 1_554
S3 Sn1 2.613498 1_455
S3 Sn0 2.651268 1_556
S3 Sn3 2.690463 1_556
S4 Sn2 2.610230 1_555
S4 Sn1 2.640981 1_555
S4 Sn11 2.654520 1_555
S5 Sn2 2.575362 1_555
S5 Sn1 2.602228 1_555
S6 Sn4 2.565095 1_555
S6 Sn2 2.581306 1_555
S7 Sn2 2.575362 1_555
S7 Sn5 2.602228 1_555
S8 Sn0 2.557957 1_555
S8 Sn3 2.565519 1_555
S9 Sn1 2.557496 1_555
S9 Sn3 2.573278 1_656
S10 Sn4 2.557957 1_555
S10 Sn3 2.565519 1_556
S11 Sn6 2.613498 1_545
S11 Sn4 2.651268 1_554
S11 Sn3 2.690463 1_555
S12 Sn2 2.610230 1_555
S12 Sn5 2.640981 1_555
S12 Sn4 2.654520 1_555
S13 Sn4 2.574281 1_555
S13 Sn5 2.578584 1_555
S14 Sn7 2.562822 1_545
S14 Sn5 2.609560 1_555
S15 Sn5 2.557496 1_555
S15 Sn8 2.573278 1_545
S16 Sn6 2.557496 1_555
S16 Sn3 2.573278 1_565
S17 Sn4 2.562822 1_565
S17 Sn6 2.609560 1_556
S18 Sn7 2.574281 1_555
S18 Sn6 2.578584 1_555
S19 Sn9 2.610230 1_555
S19 Sn6 2.640981 1_555
S19 Sn7 2.654520 1_555
S20 Sn5 2.613498 1_565
S20 Sn7 2.651268 1_555
S20 Sn8 2.690463 1_555
S21 Sn7 2.557957 1_555
S21 Sn8 2.565519 1_555
S22 Sn10 2.557496 1_555
S22 Sn8 2.573278 1_455
S23 Sn11 2.557957 1_555
S23 Sn8 2.565519 1_555
S24 Sn9 2.575362 1_555
S24 Sn6 2.602228 1_555
S25 Sn7 2.565095 1_555
S25 Sn9 2.581306 1_555
S26 Sn9 2.575362 1_555
S26 Sn10 2.602228 1_555
S27 Sn9 2.610230 1_555
S27 Sn10 2.640981 1_555
S27 Sn0 2.654520 1_555
S28 Sn10 2.613498 1_655
S28 Sn11 2.651268 1_555
S28 Sn8 2.690463 1_555
S29 Sn11 2.562822 1_455
S29 Sn10 2.609560 1_555
S30 Sn11 2.574281 1_555
S30 Sn1 2.578584 1_555
S31 Sn11 2.565095 1_555
S31 Sn2 2.581306 1_555
