# generated using pymatgen
data_NaCoPO4
_symmetry_space_group_name_H-M   'P 1'
_cell_length_a   5.29879108
_cell_length_b   7.47629132
_cell_length_c   10.13790900
_cell_angle_alpha   90.00003230
_cell_angle_beta   89.99999435
_cell_angle_gamma   90.23015767
_symmetry_Int_Tables_number   1
_chemical_formula_structural   NaCoPO4
_chemical_formula_sum   'Na4 Co4 P4 O16'
_cell_volume   401.61312429
_cell_formula_units_Z   4
loop_
 _symmetry_equiv_pos_site_id
 _symmetry_equiv_pos_as_xyz
  1  'x, y, z'
loop_
 _atom_site_type_symbol
 _atom_site_label
 _atom_site_symmetry_multiplicity
 _atom_site_fract_x
 _atom_site_fract_y
 _atom_site_fract_z
 _atom_site_occupancy
  Na  Na0  1  0.71578300  0.51579200  0.11893200  1
  Na  Na1  1  0.21578300  0.01579200  0.38106900  1
  Na  Na2  1  0.28421700  0.48420500  0.88106600  1
  Na  Na3  1  0.78421700  0.98420500  0.61893400  1
  Co  Co0  1  0.70316300  0.00794000  0.16934800  1
  Co  Co1  1  0.20316300  0.50794000  0.33065200  1
  Co  Co2  1  0.79684100  0.49206100  0.66934700  1
  Co  Co3  1  0.29684000  0.99206100  0.83065300  1
  P  P0  1  0.30009900  0.72010100  0.59888700  1
  P  P1  1  0.19990200  0.77990200  0.09888000  1
  P  P2  1  0.69990200  0.27990100  0.40112000  1
  P  P3  1  0.80009900  0.22010100  0.90111300  1
  O  O0  1  0.74927900  0.21421400  0.05182100  1
  O  O1  1  0.24927900  0.71421400  0.44817900  1
  O  O2  1  0.25071600  0.78578500  0.94818000  1
  O  O3  1  0.75071600  0.28578500  0.55182000  1
  O  O4  1  0.91377500  0.79784000  0.13015100  1
  O  O5  1  0.41377500  0.29784000  0.36984900  1
  O  O6  1  0.58622800  0.70216200  0.63014800  1
  O  O7  1  0.08622800  0.20216200  0.86985100  1
  O  O8  1  0.78242100  0.08790400  0.35582200  1
  O  O9  1  0.28242000  0.58790400  0.14417800  1
  O  O10  1  0.21757700  0.91209700  0.64417700  1
  O  O11  1  0.71757700  0.41209700  0.85582300  1
  O  O12  1  0.34714100  0.92823600  0.17299500  1
  O  O13  1  0.65285800  0.07176200  0.82700600  1
  O  O14  1  0.15285800  0.57176200  0.67299400  1
  O  O15  1  0.84714100  0.42823600  0.32700500  1
loop_
_geom_bond_atom_site_label_1
_geom_bond_atom_site_label_2
_geom_bond_distance
_geom_bond_site_symmetry_2
Na0 O15 2.316528 1_555
Na0 O4 2.354212 1_555
Na0 O0 2.362460 1_555
Na0 O9 2.374680 1_555
Na0 O11 2.777779 1_554
Na1 O12 2.316536 1_545
Na1 O5 2.354212 1_555
Na1 O1 2.362458 1_545
Na1 O8 2.374677 1_455
Na1 O10 2.777770 1_545
Na2 O14 2.316522 1_555
Na2 O7 2.354170 1_555
Na2 O2 2.362485 1_555
Na2 O11 2.374655 1_555
Na2 O9 2.777817 1_556
Na3 O13 2.316521 1_565
Na3 O6 2.354169 1_555
Na3 O3 2.362486 1_565
Na3 O10 2.374655 1_655
Na3 O8 2.777817 1_565
Co0 O0 1.963308 1_555
Co0 O4 1.970973 1_545
Co0 O12 1.976424 1_545
Co0 O8 2.026225 1_555
Co1 O1 1.963307 1_555
Co1 O5 1.970974 1_555
Co1 O15 1.976424 1_455
Co1 O9 2.026225 1_555
Co2 O3 1.963324 1_555
Co2 O6 1.970987 1_555
Co2 O14 1.976392 1_655
Co2 O11 2.026251 1_555
Co3 O2 1.963325 1_555
Co3 O7 1.970981 1_565
Co3 O13 1.976397 1_565
Co3 O10 2.026250 1_555
O0 P3 1.552007 1_554
O1 P0 1.552007 1_555
O2 P1 1.551920 1_556
O3 P2 1.551921 1_555
O4 P1 1.555238 1_655
O5 P2 1.555238 1_555
O6 P0 1.555228 1_555
O7 P3 1.555230 1_455
O8 P2 1.570849 1_555
O9 P1 1.570855 1_555
O10 P0 1.570823 1_555
O11 P3 1.570823 1_555
O12 P1 1.547952 1_555
O13 P3 1.547945 1_555
O14 P0 1.547945 1_555
O15 P2 1.547958 1_555
