# generated using pymatgen
data_Hg3Se3O10
_symmetry_space_group_name_H-M   'P 1'
_cell_length_a   5.36112469
_cell_length_b   8.41784154
_cell_length_c   11.25115219
_cell_angle_alpha   71.56990390
_cell_angle_beta   90.00000000
_cell_angle_gamma   90.00000000
_symmetry_Int_Tables_number   1
_chemical_formula_structural   Hg3Se3O10
_chemical_formula_sum   'Hg6 Se6 O20'
_cell_volume   481.71167020
_cell_formula_units_Z   2
loop_
 _symmetry_equiv_pos_site_id
 _symmetry_equiv_pos_as_xyz
  1  'x, y, z'
loop_
 _atom_site_type_symbol
 _atom_site_label
 _atom_site_symmetry_multiplicity
 _atom_site_fract_x
 _atom_site_fract_y
 _atom_site_fract_z
 _atom_site_occupancy
  Hg  Hg0  1  0.75067935  0.00911773  0.86725855  1
  Hg  Hg1  1  0.25067935  0.99088227  0.13274145  1
  Hg  Hg2  1  0.74609841  0.00392632  0.37441062  1
  Hg  Hg3  1  0.24609841  0.99607368  0.62558938  1
  Hg  Hg4  1  0.26138549  0.37533581  0.79699708  1
  Hg  Hg5  1  0.76138549  0.62466419  0.20300292  1
  Se  Se0  1  0.76894139  0.26048155  0.03834417  1
  Se  Se1  1  0.26894139  0.73951845  0.96165583  1
  Se  Se2  1  0.71799929  0.27004873  0.57647543  1
  Se  Se3  1  0.21799929  0.72995127  0.42352457  1
  Se  Se4  1  0.75210215  0.65103402  0.71491158  1
  Se  Se5  1  0.25210215  0.34896598  0.28508842  1
  O  O0  1  0.87331523  0.09901893  0.16483602  1
  O  O1  1  0.37331523  0.90098107  0.83516398  1
  O  O2  1  0.60020910  0.11910252  0.51724446  1
  O  O3  1  0.10020910  0.88089748  0.48275554  1
  O  O4  1  0.94196361  0.15813081  0.68058353  1
  O  O5  1  0.44196361  0.84186919  0.31941647  1
  O  O6  1  0.52315044  0.16623570  0.98694518  1
  O  O7  1  0.02315044  0.83376430  0.01305482  1
  O  O8  1  0.98249785  0.22631234  0.93424664  1
  O  O9  1  0.48249785  0.77368766  0.06575336  1
  O  O10  1  0.48174777  0.24718075  0.68219503  1
  O  O11  1  0.98174777  0.75281925  0.31780497  1
  O  O12  1  0.94056581  0.52467603  0.66784752  1
  O  O13  1  0.44056581  0.47532397  0.33215248  1
  O  O14  1  0.57900367  0.53390784  0.83579354  1
  O  O15  1  0.07900367  0.46609216  0.16420646  1
  O  O16  1  0.56500292  0.74998225  0.60004740  1
  O  O17  1  0.06500292  0.25001775  0.39995260  1
  O  O18  1  0.92187454  0.77683681  0.76911488  1
  O  O19  1  0.42187454  0.22316319  0.23088512  1
loop_
_geom_bond_atom_site_label_1
_geom_bond_atom_site_label_2
_geom_bond_distance
_geom_bond_site_symmetry_2
Hg0 O1 2.293415 1_545
Hg0 O4 2.317448 1_555
Hg0 O7 2.339334 1_646
Hg0 O6 2.485295 1_555
Hg0 O8 2.515280 1_555
Hg1 O0 2.293415 1_465
Hg1 O5 2.317448 1_555
Hg1 O6 2.339334 1_564
Hg1 O7 2.485295 1_555
Hg1 O9 2.515280 1_555
Hg2 O2 2.262629 1_555
Hg2 O3 2.316101 1_645
Hg2 O5 2.331537 1_545
Hg2 O0 2.339322 1_555
Hg3 O3 2.262629 1_555
Hg3 O2 2.316101 1_565
Hg3 O4 2.331537 1_465
Hg3 O1 2.339322 1_555
Hg4 O8 2.229101 1_455
Hg4 O10 2.260287 1_555
Hg4 O14 2.289155 1_555
Hg4 O12 2.344148 1_455
Hg5 O9 2.229101 1_555
Hg5 O11 2.260287 1_555
Hg5 O15 2.289155 1_655
Hg5 O13 2.344148 1_555
O0 Se0 1.721281 1_555
O1 Se1 1.721281 1_555
O2 Se2 1.729980 1_555
O3 Se3 1.729980 1_555
O4 Se2 1.733068 1_555
O5 Se3 1.733068 1_555
O6 Se0 1.729247 1_556
O7 Se1 1.729247 1_554
O8 Se0 1.725772 1_556
O9 Se1 1.725772 1_554
O10 Se2 1.706259 1_555
O11 Se3 1.706259 1_655
O12 Se4 1.669960 1_555
O13 Se5 1.669960 1_555
O14 Se4 1.683798 1_555
O15 Se5 1.683798 1_555
O16 Se4 1.639957 1_555
O17 Se5 1.639957 1_555
O18 Se4 1.652312 1_555
O19 Se5 1.652312 1_555
