# generated using pymatgen
data_CuSb2BrO3
_symmetry_space_group_name_H-M   'P 1'
_cell_length_a   8.04508617
_cell_length_b   8.04508617
_cell_length_c   19.34685500
_cell_angle_alpha   90.00000000
_cell_angle_beta   90.00000000
_cell_angle_gamma   120.17214517
_symmetry_Int_Tables_number   1
_chemical_formula_structural   CuSb2BrO3
_chemical_formula_sum   'Cu8 Sb16 Br8 O24'
_cell_volume   1082.54620932
_cell_formula_units_Z   8
loop_
 _symmetry_equiv_pos_site_id
 _symmetry_equiv_pos_as_xyz
  1  'x, y, z'
loop_
 _atom_site_type_symbol
 _atom_site_label
 _atom_site_symmetry_multiplicity
 _atom_site_fract_x
 _atom_site_fract_y
 _atom_site_fract_z
 _atom_site_occupancy
  Cu  Cu0  1  0.76731500  0.77388000  0.28292100  1
  Cu  Cu1  1  0.22612000  0.23268500  0.28292100  1
  Cu  Cu2  1  0.77388000  0.76731500  0.78292100  1
  Cu  Cu3  1  0.25586900  0.74413100  0.21511900  1
  Cu  Cu4  1  0.75565800  0.24434200  0.29013500  1
  Cu  Cu5  1  0.24434200  0.75565800  0.79013500  1
  Cu  Cu6  1  0.23268500  0.22612000  0.78292100  1
  Cu  Cu7  1  0.74413100  0.25586900  0.71511900  1
  Sb  Sb0  1  0.43242900  0.56757100  0.58171800  1
  Sb  Sb1  1  0.61169800  0.92736300  0.42339800  1
  Sb  Sb2  1  0.38830200  0.07263700  0.92339800  1
  Sb  Sb3  1  0.07997000  0.92003000  0.07827100  1
  Sb  Sb4  1  0.07263700  0.38830200  0.42339800  1
  Sb  Sb5  1  0.41768400  0.58231600  0.92570900  1
  Sb  Sb6  1  0.11369100  0.42809300  0.08114400  1
  Sb  Sb7  1  0.58231600  0.41768400  0.42570900  1
  Sb  Sb8  1  0.56757100  0.43242900  0.08171800  1
  Sb  Sb9  1  0.92003000  0.07997000  0.57827100  1
  Sb  Sb10  1  0.92736300  0.61169800  0.92339800  1
  Sb  Sb11  1  0.07091000  0.92909000  0.42182000  1
  Sb  Sb12  1  0.92909000  0.07091000  0.92182000  1
  Sb  Sb13  1  0.42809300  0.11369100  0.58114400  1
  Sb  Sb14  1  0.57190700  0.88630900  0.08114400  1
  Sb  Sb15  1  0.88630900  0.57190700  0.58114400  1
  Br  Br0  1  0.08847700  0.91152300  0.72747600  1
  Br  Br1  1  0.58808400  0.41191600  0.77845800  1
  Br  Br2  1  0.41562700  0.08355800  0.25215300  1
  Br  Br3  1  0.58437300  0.91644200  0.75215300  1
  Br  Br4  1  0.91644200  0.58437300  0.25215300  1
  Br  Br5  1  0.08355800  0.41562700  0.75215300  1
  Br  Br6  1  0.91152300  0.08847700  0.22747600  1
  Br  Br7  1  0.41191600  0.58808400  0.27845800  1
  O  O0  1  0.04424700  0.95575300  0.52363700  1
  O  O1  1  0.20673500  0.16280800  0.89434700  1
  O  O2  1  0.29456300  0.70543700  0.11038200  1
  O  O3  1  0.54080300  0.83555500  0.97902600  1
  O  O4  1  0.20374800  0.79625200  0.89405400  1
  O  O5  1  0.45919700  0.16444500  0.47902600  1
  O  O6  1  0.16444500  0.45919700  0.97902600  1
  O  O7  1  0.66441400  0.71005600  0.10497800  1
  O  O8  1  0.04209500  0.33124700  0.52394400  1
  O  O9  1  0.66875300  0.95790500  0.52394400  1
  O  O10  1  0.79625200  0.20374800  0.39405400  1
  O  O11  1  0.70543700  0.29456300  0.61038200  1
  O  O12  1  0.71005600  0.66441400  0.60497800  1
  O  O13  1  0.79326500  0.83719200  0.39434700  1
  O  O14  1  0.28994400  0.33558600  0.10497800  1
  O  O15  1  0.33558600  0.28994400  0.60497800  1
  O  O16  1  0.95575300  0.04424700  0.02363700  1
  O  O17  1  0.54356300  0.45643700  0.97835300  1
  O  O18  1  0.95790500  0.66875300  0.02394400  1
  O  O19  1  0.83555500  0.54080300  0.47902600  1
  O  O20  1  0.33124700  0.04209500  0.02394400  1
  O  O21  1  0.45643700  0.54356300  0.47835300  1
  O  O22  1  0.83719200  0.79326500  0.89434700  1
  O  O23  1  0.16280800  0.20673500  0.39434700  1
loop_
_geom_bond_atom_site_label_1
_geom_bond_atom_site_label_2
_geom_bond_distance
_geom_bond_site_symmetry_2
Cu0 O13 2.200763 1_555
Cu1 O23 2.200763 1_555
Cu2 O22 2.200763 1_555
Cu3 O2 2.096960 1_555
Cu4 O10 2.088697 1_555
Cu5 O4 2.088697 1_555
Cu6 O1 2.200763 1_555
Cu7 O11 2.096960 1_555
Br0 Cu2 2.439426 1_455
Br0 Cu6 2.439426 1_565
Br0 Cu5 2.488953 1_555
Br1 Cu6 2.474028 1_555
Br1 Cu2 2.474028 1_555
Br1 Cu7 2.497599 1_555
Br2 Cu1 2.440646 1_555
Br2 Cu3 2.468633 1_545
Br2 Cu4 2.477829 1_555
Br3 Cu2 2.440646 1_555
Br3 Cu7 2.468633 1_565
Br3 Cu5 2.477829 1_555
Br4 Cu0 2.440646 1_555
Br4 Cu3 2.468633 1_655
Br4 Cu4 2.477829 1_555
Br5 Cu6 2.440646 1_555
Br5 Cu7 2.468633 1_455
Br5 Cu5 2.477829 1_555
Br6 Cu0 2.439426 1_545
Br6 Cu1 2.439426 1_655
Br6 Cu4 2.488953 1_555
Br7 Cu1 2.474028 1_555
Br7 Cu0 2.474028 1_555
Br7 Cu3 2.497599 1_555
O0 Sb11 2.004630 1_555
O0 Sb9 2.029397 1_465
O1 Sb2 2.010230 1_555
O1 Sb12 2.039222 1_455
O2 Sb6 2.037703 1_555
O2 Sb14 2.037703 1_555
O3 Sb14 2.007455 1_556
O3 Sb5 2.041411 1_555
O4 Sb10 2.037732 1_455
O4 Sb2 2.037732 1_565
O5 Sb13 2.007455 1_555
O5 Sb7 2.041411 1_555
O6 Sb6 2.007455 1_556
O6 Sb5 2.041411 1_555
O7 Sb14 1.959060 1_555
O7 Sb8 2.012206 1_555
O8 Sb4 1.985369 1_555
O8 Sb9 2.039659 1_455
O9 Sb1 1.985369 1_555
O9 Sb9 2.039659 1_565
O10 Sb1 2.037732 1_545
O10 Sb4 2.037732 1_655
O11 Sb13 2.037703 1_555
O11 Sb15 2.037703 1_555
O12 Sb15 1.959060 1_555
O12 Sb0 2.012206 1_555
O13 Sb1 2.010230 1_555
O13 Sb11 2.039222 1_655
O14 Sb6 1.959060 1_555
O14 Sb8 2.012206 1_555
O15 Sb13 1.959060 1_555
O15 Sb0 2.012206 1_555
O16 Sb12 2.004630 1_554
O16 Sb3 2.029397 1_645
O17 Sb8 2.027625 1_556
O17 Sb5 2.029629 1_555
O18 Sb10 1.985369 1_554
O18 Sb3 2.039659 1_655
O19 Sb15 2.007455 1_555
O19 Sb7 2.041411 1_555
O20 Sb2 1.985369 1_554
O20 Sb3 2.039659 1_545
O21 Sb0 2.027625 1_555
O21 Sb7 2.029629 1_555
O22 Sb10 2.010230 1_555
O22 Sb12 2.039222 1_565
O23 Sb4 2.010230 1_555
O23 Sb11 2.039222 1_545
