# generated using pymatgen
data_CsAlSiO4
_symmetry_space_group_name_H-M   'P 1'
_cell_length_a   5.50247000
_cell_length_b   9.01174300
_cell_length_c   9.59451400
_cell_angle_alpha   90.00000000
_cell_angle_beta   90.00000000
_cell_angle_gamma   90.00000000
_symmetry_Int_Tables_number   1
_chemical_formula_structural   CsAlSiO4
_chemical_formula_sum   'Cs4 Al4 Si4 O16'
_cell_volume   475.76168342
_cell_formula_units_Z   4
loop_
 _symmetry_equiv_pos_site_id
 _symmetry_equiv_pos_as_xyz
  1  'x, y, z'
loop_
 _atom_site_type_symbol
 _atom_site_label
 _atom_site_symmetry_multiplicity
 _atom_site_fract_x
 _atom_site_fract_y
 _atom_site_fract_z
 _atom_site_occupancy
  Cs  Cs0  1  0.75000000  0.49953800  0.19883600  1
  Cs  Cs1  1  0.25000000  0.50046200  0.80116400  1
  Cs  Cs2  1  0.25000000  0.00046200  0.69883600  1
  Cs  Cs3  1  0.75000000  0.99953800  0.30116400  1
  Al  Al0  1  0.75000000  0.31692800  0.58424700  1
  Al  Al1  1  0.75000000  0.81692800  0.91575300  1
  Al  Al2  1  0.25000000  0.68307200  0.41575300  1
  Al  Al3  1  0.25000000  0.18307200  0.08424700  1
  Si  Si0  1  0.25000000  0.80964200  0.08446900  1
  Si  Si1  1  0.25000000  0.30964200  0.41553100  1
  Si  Si2  1  0.75000000  0.69035800  0.58446900  1
  Si  Si3  1  0.75000000  0.19035800  0.91553100  1
  O  O0  1  0.75000000  0.25336200  0.75632800  1
  O  O1  1  0.50789500  0.75344500  0.50305000  1
  O  O2  1  0.99210500  0.75344500  0.50305000  1
  O  O3  1  0.99210500  0.25344500  0.99695000  1
  O  O4  1  0.75000000  0.75336200  0.74367200  1
  O  O5  1  0.25000000  0.74663800  0.24367200  1
  O  O6  1  0.49210500  0.24655500  0.49695000  1
  O  O7  1  0.25000000  0.24663800  0.25632800  1
  O  O8  1  0.00789500  0.24655500  0.49695000  1
  O  O9  1  0.00789500  0.74655500  0.00305000  1
  O  O10  1  0.25000000  0.48980100  0.41187500  1
  O  O11  1  0.50789500  0.25344500  0.99695000  1
  O  O12  1  0.49210500  0.74655500  0.00305000  1
  O  O13  1  0.75000000  0.51019900  0.58812500  1
  O  O14  1  0.25000000  0.98980100  0.08812500  1
  O  O15  1  0.75000000  0.01019900  0.91187500  1
loop_
_geom_bond_atom_site_label_1
_geom_bond_atom_site_label_2
_geom_bond_distance
_geom_bond_site_symmetry_2
Cs0 O3 3.231867 1_554
Cs0 O11 3.231867 1_554
Cs0 O9 3.240015 1_655
Cs0 O12 3.240015 1_555
Cs0 O10 3.428550 1_655
Cs0 O10 3.428550 1_555
Cs0 O5 3.565529 1_655
Cs0 O5 3.565529 1_555
Cs0 O7 3.614931 1_655
Cs0 O7 3.614931 1_555
Cs0 O13 3.736274 1_555
Cs1 O12 3.231867 1_556
Cs1 O9 3.231867 1_556
Cs1 O11 3.240015 1_555
Cs1 O3 3.240015 1_455
Cs1 O13 3.428550 1_455
Cs1 O13 3.428550 1_555
Cs1 O0 3.565529 1_455
Cs1 O0 3.565529 1_555
Cs1 O4 3.614931 1_455
Cs1 O4 3.614931 1_555
Cs1 O10 3.736274 1_555
Cs2 O6 3.231867 1_555
Cs2 O8 3.231867 1_555
Cs2 O1 3.240015 1_545
Cs2 O2 3.240015 1_445
Cs2 O15 3.428550 1_455
Cs2 O15 3.428550 1_555
Cs2 O4 3.565529 1_445
Cs2 O4 3.565529 1_545
Cs2 O0 3.614931 1_455
Cs2 O0 3.614931 1_555
Cs2 O14 3.736274 1_546
Cs3 O2 3.231867 1_555
Cs3 O1 3.231867 1_555
Cs3 O8 3.240015 1_665
Cs3 O6 3.240015 1_565
Cs3 O14 3.428550 1_555
Cs3 O14 3.428550 1_655
Cs3 O7 3.565529 1_565
Cs3 O7 3.565529 1_665
Cs3 O5 3.614931 1_655
Cs3 O5 3.614931 1_555
Cs3 O15 3.736274 1_564
Al0 O13 1.742106 1_555
Al0 O0 1.747586 1_555
Al0 O8 1.765629 1_655
Al0 O6 1.765629 1_555
Al1 O15 1.742106 1_565
Al1 O4 1.747586 1_555
Al1 O9 1.765629 1_656
Al1 O12 1.765629 1_556
Al2 O10 1.742106 1_555
Al2 O5 1.747586 1_555
Al2 O1 1.765629 1_555
Al2 O2 1.765629 1_455
Al3 O14 1.742106 1_545
Al3 O7 1.747586 1_555
Al3 O11 1.765629 1_554
Al3 O3 1.765629 1_454
O0 Si3 1.629586 1_555
O1 Si2 1.645645 1_555
O2 Si2 1.645645 1_555
O3 Si3 1.645645 1_555
O4 Si2 1.629586 1_555
O5 Si0 1.629586 1_555
O6 Si1 1.645645 1_555
O7 Si1 1.629586 1_555
O8 Si1 1.645645 1_555
O9 Si0 1.645645 1_555
O10 Si1 1.623925 1_555
O11 Si3 1.645645 1_555
O12 Si0 1.645645 1_555
O13 Si2 1.623925 1_555
O14 Si0 1.623925 1_555
O15 Si3 1.623925 1_555
