# generated using pymatgen
data_Er(Al3Ni)3
_symmetry_space_group_name_H-M   'P 1'
_cell_length_a   9.96222208
_cell_length_b   9.96222208
_cell_length_c   9.96222279
_cell_angle_alpha   42.51461631
_cell_angle_beta   42.51461631
_cell_angle_gamma   42.51461783
_symmetry_Int_Tables_number   1
_chemical_formula_structural   Er(Al3Ni)3
_chemical_formula_sum   'Er2 Al18 Ni6'
_cell_volume   408.85503388
_cell_formula_units_Z   2
loop_
 _symmetry_equiv_pos_site_id
 _symmetry_equiv_pos_as_xyz
  1  'x, y, z'
loop_
 _atom_site_type_symbol
 _atom_site_label
 _atom_site_symmetry_multiplicity
 _atom_site_fract_x
 _atom_site_fract_y
 _atom_site_fract_z
 _atom_site_occupancy
  Er  Er0  1  0.16689860  0.16689860  0.16689860  1
  Er  Er1  1  0.83310140  0.83310140  0.83310140  1
  Al  Al0  1  0.10300625  0.43283401  0.76283439  1
  Al  Al1  1  0.43283401  0.76283439  0.10300625  1
  Al  Al2  1  0.56716599  0.89699375  0.23716561  1
  Al  Al3  1  0.94781318  0.94781318  0.94781318  1
  Al  Al4  1  0.05218682  0.05218682  0.05218682  1
  Al  Al5  1  0.29090787  0.70909213  0.50000000  1
  Al  Al6  1  0.89699375  0.23716561  0.56716599  1
  Al  Al7  1  0.38720147  0.38720147  0.38720147  1
  Al  Al8  1  0.50000000  0.29090787  0.70909213  1
  Al  Al9  1  0.23716561  0.56716599  0.89699375  1
  Al  Al10  1  0.71836039  0.71836039  0.71836039  1
  Al  Al11  1  0.61279853  0.61279853  0.61279853  1
  Al  Al12  1  0.33391113  0.00000000  0.66608887  1
  Al  Al13  1  0.70909213  0.50000000  0.29090787  1
  Al  Al14  1  0.66608887  0.33391113  0.00000000  1
  Al  Al15  1  0.28163961  0.28163961  0.28163961  1
  Al  Al16  1  -0.00000000  0.66608887  0.33391113  1
  Al  Al17  1  0.76283439  0.10300625  0.43283401  1
  Ni  Ni0  1  0.41828420  0.07824875  0.75834895  1
  Ni  Ni1  1  0.58171580  0.24165105  0.92175125  1
  Ni  Ni2  1  0.07824875  0.75834895  0.41828420  1
  Ni  Ni3  1  0.75834895  0.41828420  0.07824875  1
  Ni  Ni4  1  0.92175125  0.58171580  0.24165105  1
  Ni  Ni5  1  0.24165105  0.92175125  0.58171580  1
loop_
_geom_bond_atom_site_label_1
_geom_bond_atom_site_label_2
_geom_bond_distance
_geom_bond_site_symmetry_2
Er0 Ni1 3.251744 1_554
Er0 Ni4 3.251744 1_455
Er0 Ni5 3.251744 1_545
Er0 Ni2 3.260240 1_545
Er0 Ni3 3.260241 1_455
Er0 Ni0 3.260241 1_554
Er1 Ni3 3.251744 1_556
Er1 Ni0 3.251744 1_565
Er1 Ni2 3.251744 1_655
Er1 Ni5 3.260240 1_655
Er1 Ni1 3.260241 1_565
Er1 Ni4 3.260241 1_556
Al0 Ni3 2.416792 1_456
Al0 Ni0 2.452502 1_555
Al0 Ni2 2.453229 1_555
Al0 Al7 2.686553 1_555
Al0 Al4 2.740393 1_556
Al0 Al10 2.747244 1_455
Al0 Al8 2.770938 1_555
Al0 Al5 2.771277 1_555
Al0 Er1 3.025616 1_455
Al0 Er0 3.032691 1_556
Al1 Ni0 2.416792 1_564
Al1 Ni2 2.452502 1_555
Al1 Ni3 2.453229 1_555
Al1 Al7 2.686553 1_555
Al1 Al4 2.740393 1_565
Al1 Al10 2.747244 1_554
Al1 Al5 2.770938 1_555
Al1 Al13 2.771278 1_555
Al1 Er1 3.025616 1_554
Al1 Er0 3.032691 1_565
Al2 Ni1 2.416792 1_564
Al2 Ni4 2.452502 1_555
Al2 Ni5 2.453229 1_555
Al2 Al3 2.740393 1_554
Al2 Al5 2.771277 1_555
Al2 Er0 3.025616 1_565
Al2 Er1 3.032691 1_554
Al3 Ni4 2.544522 1_556
Al3 Ni1 2.544522 1_565
Al3 Ni5 2.544522 1_655
Al3 Al9 2.740393 1_655
Al3 Al6 2.740393 1_565
Al3 Al4 2.832866 1_666
Al3 Er1 3.113459 1_555
Al4 Ni0 2.544522 1_554
Al4 Ni3 2.544522 1_455
Al4 Ni2 2.544522 1_545
Al4 Er0 3.113459 1_555
Al5 Ni5 2.410978 1_555
Al5 Ni2 2.410978 1_555
Al5 Al8 2.616139 1_555
Al5 Al9 2.770938 1_555
Al5 Er1 2.960515 1_455
Al5 Er0 2.960515 1_565
Al6 Ni5 2.416792 1_645
Al6 Ni1 2.452502 1_555
Al6 Ni4 2.453229 1_555
Al6 Al8 2.770938 1_555
Al6 Er0 3.025617 1_655
Al6 Er1 3.032691 1_545
Al7 Ni3 2.597353 1_555
Al7 Ni2 2.597353 1_555
Al7 Ni0 2.597353 1_555
Al8 Ni0 2.410978 1_555
Al8 Ni1 2.410978 1_555
Al8 Al9 2.771278 1_555
Al8 Er1 2.960515 1_545
Al8 Er0 2.960515 1_556
Al9 Ni4 2.416792 1_456
Al9 Ni5 2.452502 1_555
Al9 Ni1 2.453229 1_555
Al9 Er0 3.025616 1_556
Al9 Er1 3.032691 1_455
Al10 Ni2 2.549331 1_655
Al10 Ni0 2.549331 1_565
Al10 Ni3 2.549331 1_556
Al10 Al17 2.747244 1_565
Al10 Al14 2.785062 1_556
Al10 Al12 2.785062 1_565
Al10 Al16 2.785062 1_655
Al10 Al11 2.865116 1_555
Al10 Er1 3.114252 1_555
Al11 Ni1 2.597353 1_555
Al11 Ni5 2.597353 1_555
Al11 Ni4 2.597353 1_555
Al11 Al9 2.686553 1_555
Al11 Al6 2.686553 1_555
Al11 Al2 2.686553 1_555
Al11 Al16 2.815255 1_655
Al11 Al12 2.815255 1_565
Al11 Al14 2.815255 1_556
Al12 Ni5 2.306524 1_545
Al12 Ni0 2.306524 1_555
Al12 Al15 2.785062 1_555
Al12 Al3 2.797223 1_445
Al12 Al4 2.797223 1_556
Al12 Al7 2.815255 1_555
Al13 Ni4 2.410978 1_555
Al13 Ni3 2.410978 1_555
Al13 Al5 2.616139 1_555
Al13 Al8 2.616139 1_555
Al13 Al17 2.770938 1_555
Al13 Al2 2.770938 1_555
Al13 Al6 2.771278 1_555
Al13 Er0 2.960515 1_655
Al13 Er1 2.960515 1_554
Al14 Ni3 2.306524 1_555
Al14 Ni1 2.306524 1_554
Al14 Al15 2.785062 1_555
Al14 Al4 2.797223 1_655
Al14 Al3 2.797223 1_544
Al14 Al7 2.815255 1_555
Al15 Ni5 2.549331 1_545
Al15 Ni4 2.549331 1_455
Al15 Ni1 2.549331 1_554
Al15 Al6 2.747244 1_455
Al15 Al2 2.747244 1_545
Al15 Al9 2.747244 1_554
Al15 Al16 2.785062 1_555
Al15 Al7 2.865116 1_555
Al15 Er0 3.114252 1_555
Al16 Ni2 2.306524 1_555
Al16 Ni4 2.306524 1_455
Al16 Al4 2.797223 1_565
Al16 Al3 2.797223 1_454
Al16 Al7 2.815255 1_555
Al17 Ni2 2.416792 1_645
Al17 Ni3 2.452502 1_555
Al17 Ni0 2.453229 1_555
Al17 Al7 2.686553 1_555
Al17 Al4 2.740393 1_655
Al17 Al8 2.771278 1_555
Al17 Er1 3.025617 1_545
Al17 Er0 3.032691 1_655
