# generated using pymatgen
data_GdMoO4F
_symmetry_space_group_name_H-M   'P 1'
_cell_length_a   12.56852600
_cell_length_b   5.32279200
_cell_length_c   6.82078809
_cell_angle_alpha   67.03656346
_cell_angle_beta   90.00000000
_cell_angle_gamma   90.00000000
_symmetry_Int_Tables_number   1
_chemical_formula_structural   GdMoO4F
_chemical_formula_sum   'Gd4 Mo4 O16 F4'
_cell_volume   420.14772887
_cell_formula_units_Z   4
loop_
 _symmetry_equiv_pos_site_id
 _symmetry_equiv_pos_as_xyz
  1  'x, y, z'
loop_
 _atom_site_type_symbol
 _atom_site_label
 _atom_site_symmetry_multiplicity
 _atom_site_fract_x
 _atom_site_fract_y
 _atom_site_fract_z
 _atom_site_occupancy
  Gd  Gd0  1  0.55239400  0.63850200  0.70063700  1
  Gd  Gd1  1  0.94760600  0.63850200  0.20063700  1
  Gd  Gd2  1  0.05239400  0.36149800  0.79936300  1
  Gd  Gd3  1  0.44760600  0.36149800  0.29936300  1
  Mo  Mo0  1  0.35690300  0.07787100  0.86975300  1
  Mo  Mo1  1  0.85690300  0.92212900  0.63024700  1
  Mo  Mo2  1  0.64309700  0.92212900  0.13024700  1
  Mo  Mo3  1  0.14309700  0.07787100  0.36975300  1
  O  O0  1  0.34683900  0.76414800  0.08942700  1
  O  O1  1  0.06582900  0.30579000  0.46060100  1
  O  O2  1  0.22455700  0.19257400  0.79411600  1
  O  O3  1  0.72455700  0.80742600  0.70588400  1
  O  O4  1  0.27544300  0.19257400  0.29411600  1
  O  O5  1  0.56936900  0.99406200  0.33570800  1
  O  O6  1  0.06936900  0.00593800  0.16429200  1
  O  O7  1  0.43417100  0.30579000  0.96060100  1
  O  O8  1  0.93417100  0.69421000  0.53939900  1
  O  O9  1  0.93063100  0.99406200  0.83570800  1
  O  O10  1  0.43063100  0.00593800  0.66429200  1
  O  O11  1  0.15316100  0.76414800  0.58942700  1
  O  O12  1  0.77544300  0.80742600  0.20588400  1
  O  O13  1  0.56582900  0.69421000  0.03939900  1
  O  O14  1  0.84683900  0.23585200  0.41057300  1
  O  O15  1  0.65316100  0.23585200  0.91057300  1
  F  F0  1  0.40192900  0.54911500  0.53510300  1
  F  F1  1  0.90192900  0.45088500  0.96489700  1
  F  F2  1  0.09807100  0.54911500  0.03510300  1
  F  F3  1  0.59807100  0.45088500  0.46489700  1
loop_
_geom_bond_atom_site_label_1
_geom_bond_atom_site_label_2
_geom_bond_distance
_geom_bond_site_symmetry_2
Gd0 O3 2.348838 1_555
Gd0 O10 2.418740 1_565
Gd0 O15 2.419332 1_555
Gd0 O13 2.447455 1_556
Gd0 O7 2.457234 1_555
Gd0 O5 2.479355 1_555
Gd1 O12 2.348838 1_555
Gd1 O6 2.418740 1_665
Gd1 O14 2.419332 1_555
Gd1 O8 2.447455 1_555
Gd1 O1 2.457234 1_655
Gd1 O9 2.479355 1_554
Gd2 O2 2.348838 1_555
Gd2 O9 2.418740 1_445
Gd2 O11 2.419332 1_555
Gd2 O1 2.447455 1_555
Gd2 O8 2.457234 1_455
Gd2 O6 2.479355 1_556
Gd3 O4 2.348838 1_555
Gd3 O5 2.418740 1_545
Gd3 O0 2.419332 1_555
Gd3 O7 2.447455 1_554
Gd3 O13 2.457234 1_555
Gd3 O10 2.479355 1_555
Mo0 O0 1.759894 1_546
Mo0 O2 1.777645 1_555
Mo0 O7 1.839957 1_555
Mo0 O10 1.840627 1_555
Mo1 O14 1.759894 1_565
Mo1 O3 1.777645 1_555
Mo1 O8 1.839957 1_555
Mo1 O9 1.840627 1_555
Mo2 O15 1.759894 1_564
Mo2 O12 1.777645 1_555
Mo2 O13 1.839957 1_555
Mo2 O5 1.840627 1_555
Mo3 O11 1.759894 1_545
Mo3 O4 1.777645 1_555
Mo3 O1 1.839957 1_555
Mo3 O6 1.840627 1_555
F0 Gd3 2.272724 1_555
F0 Gd0 2.344503 1_555
F1 Gd1 2.272724 1_556
F1 Gd2 2.344503 1_655
F2 Gd2 2.272724 1_554
F2 Gd1 2.344503 1_455
F3 Gd0 2.272724 1_555
F3 Gd3 2.344503 1_555
