# generated using pymatgen
data_CePS4
_symmetry_space_group_name_H-M   'P 1'
_cell_length_a   11.10649680
_cell_length_b   11.10649679
_cell_length_c   12.47772038
_cell_angle_alpha   116.42673770
_cell_angle_beta   116.42673772
_cell_angle_gamma   90.00000013
_symmetry_Int_Tables_number   1
_chemical_formula_structural   CePS4
_chemical_formula_sum   'Ce8 P8 S32'
_cell_volume   1196.06815910
_cell_formula_units_Z   8
loop_
 _symmetry_equiv_pos_site_id
 _symmetry_equiv_pos_as_xyz
  1  'x, y, z'
loop_
 _atom_site_type_symbol
 _atom_site_label
 _atom_site_symmetry_multiplicity
 _atom_site_fract_x
 _atom_site_fract_y
 _atom_site_fract_z
 _atom_site_occupancy
  Ce  Ce0  1  0.62500000  0.87500000  0.25000000  1
  Ce  Ce1  1  0.12500000  0.37500000  0.25000000  1
  Ce  Ce2  1  0.62500000  0.37500000  0.25000000  1
  Ce  Ce3  1  0.12500000  0.87500000  0.25000000  1
  Ce  Ce4  1  0.37500000  0.62500000  0.75000000  1
  Ce  Ce5  1  0.87500000  0.12500000  0.75000000  1
  Ce  Ce6  1  0.87500000  0.62500000  0.75000000  1
  Ce  Ce7  1  0.37500000  0.12500000  0.75000000  1
  P  P0  1  0.75000000  0.78583838  0.00000000  1
  P  P1  1  0.21416162  0.75000000  0.50000000  1
  P  P2  1  0.25000000  0.71416162  0.00000000  1
  P  P3  1  0.71416162  0.75000000  0.50000000  1
  P  P4  1  0.25000000  0.21416162  0.00000000  1
  P  P5  1  0.75000000  0.28583838  0.00000000  1
  P  P6  1  0.78583838  0.25000000  0.50000000  1
  P  P7  1  0.28583838  0.25000000  0.50000000  1
  S  S0  1  0.90829021  0.38631426  0.00371286  1
  S  S1  1  0.83954324  0.77090857  0.17555294  1
  S  S2  1  0.40829021  0.61739861  0.00371286  1
  S  S3  1  0.77090857  0.33600969  0.67555294  1
  S  S4  1  0.16045676  0.22909143  0.82444706  1
  S  S5  1  0.11739861  0.90829021  0.50371286  1
  S  S6  1  0.33954324  0.40464437  0.17555294  1
  S  S7  1  0.09170979  0.61368574  0.99628714  1
  S  S8  1  0.66045676  0.59535563  0.82444706  1
  S  S9  1  0.33600969  0.90464437  0.17555294  1
  S  S10  1  0.59535563  0.16399031  0.32444706  1
  S  S11  1  0.59542265  0.88631426  0.00371286  1
  S  S12  1  0.90457735  0.88260139  0.99628714  1
  S  S13  1  0.09535563  0.16045676  0.32444706  1
  S  S14  1  0.88260139  0.09170979  0.49628714  1
  S  S15  1  0.38260139  0.40457735  0.49628714  1
  S  S16  1  0.40464437  0.83600969  0.67555294  1
  S  S17  1  0.11368574  0.59170979  0.49628714  1
  S  S18  1  0.66399031  0.09535563  0.82444706  1
  S  S19  1  0.72909143  0.66045676  0.32444706  1
  S  S20  1  0.88631426  0.40829021  0.50371286  1
  S  S21  1  0.83600969  0.27090857  0.17555294  1
  S  S22  1  0.59170979  0.38260139  0.99628714  1
  S  S23  1  0.22909143  0.66399031  0.32444706  1
  S  S24  1  0.38631426  0.09542265  0.50371286  1
  S  S25  1  0.61368574  0.90457735  0.49628714  1
  S  S26  1  0.40457735  0.11368574  0.99628714  1
  S  S27  1  0.27090857  0.33954324  0.67555294  1
  S  S28  1  0.16399031  0.72909143  0.82444706  1
  S  S29  1  0.61739861  0.59542265  0.50371286  1
  S  S30  1  0.09542265  0.11739861  0.00371286  1
  S  S31  1  0.90464437  0.83954324  0.67555294  1
loop_
_geom_bond_atom_site_label_1
_geom_bond_atom_site_label_2
_geom_bond_distance
_geom_bond_site_symmetry_2
Ce0 S19 2.981883 1_555
Ce0 S1 2.981883 1_555
Ce0 S10 2.981883 1_565
Ce0 S9 2.981883 1_555
Ce0 S2 3.002135 1_555
Ce0 S14 3.002135 1_565
Ce0 S11 3.002135 1_555
Ce0 S25 3.002135 1_555
Ce1 S13 2.981883 1_555
Ce1 S6 2.981883 1_555
Ce1 S23 2.981883 1_555
Ce1 S21 2.981883 1_455
Ce1 S30 3.002135 1_555
Ce1 S15 3.002135 1_555
Ce1 S0 3.002135 1_455
Ce1 S17 3.002135 1_555
Ce2 S10 2.945112 1_555
Ce2 S21 2.945112 1_555
Ce2 S19 2.945112 1_555
Ce2 S6 2.945112 1_555
Ce2 S29 3.059720 1_555
Ce2 S22 3.059720 1_554
Ce2 S26 3.059720 1_554
Ce2 S20 3.059720 1_555
Ce3 S23 2.945112 1_555
Ce3 S9 2.945112 1_555
Ce3 S1 2.945112 1_455
Ce3 S13 2.945112 1_565
Ce3 S12 3.059720 1_454
Ce3 S5 3.059720 1_555
Ce3 S24 3.059720 1_565
Ce3 S7 3.059720 1_554
Ce4 S16 2.945112 1_555
Ce4 S28 2.945112 1_555
Ce4 S27 2.945112 1_555
Ce4 S8 2.945112 1_555
Ce4 S15 3.059720 1_555
Ce4 S2 3.059720 1_556
Ce4 S11 3.059720 1_556
Ce4 S17 3.059720 1_555
Ce5 S3 2.945112 1_555
Ce5 S18 2.945112 1_555
Ce5 S4 2.945112 1_655
Ce5 S31 2.945112 1_545
Ce5 S30 3.059720 1_656
Ce5 S14 3.059720 1_555
Ce5 S25 3.059720 1_545
Ce5 S0 3.059720 1_556
Ce6 S31 2.981883 1_555
Ce6 S8 2.981883 1_555
Ce6 S3 2.981883 1_555
Ce6 S28 2.981883 1_655
Ce6 S12 3.002135 1_555
Ce6 S29 3.002135 1_555
Ce6 S7 3.002135 1_655
Ce6 S20 3.002135 1_555
Ce7 S27 2.981883 1_555
Ce7 S4 2.981883 1_555
Ce7 S16 2.981883 1_545
Ce7 S18 2.981883 1_555
Ce7 S22 3.002135 1_555
Ce7 S5 3.002135 1_545
Ce7 S26 3.002135 1_555
Ce7 S24 3.002135 1_555
P0 S8 2.049164 1_554
P0 S1 2.049164 1_555
P0 S12 2.054186 1_554
P0 S11 2.054186 1_555
P1 S16 2.049164 1_555
P1 S23 2.049164 1_555
P1 S5 2.054186 1_555
P1 S17 2.054186 1_555
P2 S9 2.049164 1_555
P2 S28 2.049164 1_554
P2 S2 2.054186 1_555
P2 S7 2.054186 1_554
P3 S31 2.049164 1_555
P3 S19 2.049164 1_555
P3 S29 2.054186 1_555
P3 S25 2.054186 1_555
P4 S6 2.049164 1_555
P4 S4 2.049164 1_554
P4 S30 2.054186 1_555
P4 S26 2.054186 1_554
P5 S18 2.049164 1_554
P5 S21 2.049164 1_555
P5 S22 2.054186 1_554
P5 S0 2.054186 1_555
P6 S10 2.049164 1_555
P6 S3 2.049164 1_555
P6 S14 2.054186 1_555
P6 S20 2.054186 1_555
P7 S13 2.049164 1_555
P7 S27 2.049164 1_555
P7 S15 2.054186 1_555
P7 S24 2.054186 1_555
