# generated using pymatgen
data_Zr5SiSb3
_symmetry_space_group_name_H-M   'P 1'
_cell_length_a   8.63748235
_cell_length_b   8.63748183
_cell_length_c   5.84797639
_cell_angle_alpha   90.00000000
_cell_angle_beta   90.00000000
_cell_angle_gamma   119.99999797
_symmetry_Int_Tables_number   1
_chemical_formula_structural   Zr5SiSb3
_chemical_formula_sum   'Zr10 Si2 Sb6'
_cell_volume   377.84229549
_cell_formula_units_Z   2
loop_
 _symmetry_equiv_pos_site_id
 _symmetry_equiv_pos_as_xyz
  1  'x, y, z'
loop_
 _atom_site_type_symbol
 _atom_site_label
 _atom_site_symmetry_multiplicity
 _atom_site_fract_x
 _atom_site_fract_y
 _atom_site_fract_z
 _atom_site_occupancy
  Zr  Zr0  1  0.25969869  1.00000000  0.25000000  1
  Zr  Zr1  1  0.25969869  0.25969869  0.75000000  1
  Zr  Zr2  1  -0.00000000  0.74030131  0.75000000  1
  Zr  Zr3  1  0.00000000  0.25969869  0.25000000  1
  Zr  Zr4  1  0.74030131  0.74030131  0.25000000  1
  Zr  Zr5  1  0.74030131  0.00000000  0.75000000  1
  Zr  Zr6  1  0.33333300  0.66666700  -0.00000000  1
  Zr  Zr7  1  0.66666700  0.33333300  0.50000000  1
  Zr  Zr8  1  0.66666700  0.33333300  -0.00000000  1
  Zr  Zr9  1  0.33333300  0.66666700  0.50000000  1
  Si  Si0  1  -0.00000000  -0.00000000  -0.00000000  1
  Si  Si1  1  -0.00000000  -0.00000000  0.50000000  1
  Sb  Sb0  1  0.60495058  0.00000000  0.25000000  1
  Sb  Sb1  1  0.60495058  0.60495058  0.75000000  1
  Sb  Sb2  1  -0.00000000  0.39504942  0.75000000  1
  Sb  Sb3  1  -0.00000000  0.60495058  0.25000000  1
  Sb  Sb4  1  0.39504942  0.39504942  0.25000000  1
  Sb  Sb5  1  0.39504942  1.00000000  0.75000000  1
loop_
_geom_bond_atom_site_label_1
_geom_bond_atom_site_label_2
_geom_bond_distance
_geom_bond_site_symmetry_2
Si0 Zr3 2.677520 1_555
Si0 Zr2 2.677520 1_544
Si0 Zr5 2.677521 1_454
Si0 Zr0 2.677521 1_545
Si0 Zr1 2.677521 1_554
Si0 Zr4 2.677521 1_445
Si1 Zr2 2.677520 1_545
Si1 Zr3 2.677520 1_555
Si1 Zr5 2.677521 1_455
Si1 Zr0 2.677521 1_545
Si1 Zr4 2.677521 1_445
Si1 Zr1 2.677521 1_555
Sb0 Zr0 2.982107 1_545
Sb0 Zr4 3.003480 1_545
Sb0 Zr3 3.003481 1_655
Sb0 Zr8 3.029247 1_555
Sb0 Zr7 3.029247 1_555
Sb0 Zr6 3.029250 1_545
Sb0 Zr9 3.029250 1_545
Sb0 Zr5 3.149044 1_555
Sb0 Zr5 3.149044 1_554
Sb1 Zr1 2.982107 1_555
Sb1 Zr5 3.003480 1_565
Sb1 Zr2 3.003481 1_655
Sb1 Zr7 3.029255 1_555
Sb1 Zr8 3.029255 1_556
Sb1 Zr9 3.029255 1_555
Sb1 Zr6 3.029255 1_556
Sb1 Zr4 3.149044 1_555
Sb1 Zr4 3.149044 1_556
Sb2 Zr2 2.982107 1_555
Sb2 Zr1 3.003480 1_555
Sb2 Zr5 3.003480 1_455
Sb2 Zr7 3.029247 1_455
Sb2 Zr8 3.029247 1_456
Sb2 Zr6 3.029250 1_556
Sb2 Zr9 3.029250 1_555
Sb2 Zr3 3.149044 1_555
Sb2 Zr3 3.149044 1_556
Sb3 Zr3 2.982107 1_555
Sb3 Zr4 3.003480 1_455
Sb3 Zr0 3.003480 1_555
Sb3 Zr6 3.029247 1_555
Sb3 Zr9 3.029247 1_555
Sb3 Zr7 3.029250 1_455
Sb3 Zr8 3.029250 1_455
Sb3 Zr2 3.149044 1_555
Sb3 Zr2 3.149044 1_554
Sb4 Zr4 2.982107 1_555
Sb4 Zr0 3.003480 1_545
Sb4 Zr3 3.003481 1_555
Sb4 Zr9 3.029255 1_555
Sb4 Zr6 3.029255 1_555
Sb4 Zr8 3.029255 1_555
Sb4 Zr7 3.029255 1_555
Sb4 Zr1 3.149044 1_555
Sb4 Zr1 3.149044 1_554
Sb5 Zr5 2.982107 1_565
Sb5 Zr1 3.003480 1_565
Sb5 Zr2 3.003481 1_555
Sb5 Zr9 3.029247 1_555
Sb5 Zr6 3.029247 1_556
Sb5 Zr7 3.029250 1_565
Sb5 Zr8 3.029250 1_566
Sb5 Zr0 3.149044 1_555
Sb5 Zr0 3.149044 1_556
