# generated using pymatgen
data_La4CdCo
_symmetry_space_group_name_H-M   'P 1'
_cell_length_a   9.94635577
_cell_length_b   9.94633591
_cell_length_c   9.94627238
_cell_angle_alpha   60.00024049
_cell_angle_beta   60.00030139
_cell_angle_gamma   59.99994370
_symmetry_Int_Tables_number   1
_chemical_formula_structural   La4CdCo
_chemical_formula_sum   'La16 Cd4 Co4'
_cell_volume   695.78338826
_cell_formula_units_Z   4
loop_
 _symmetry_equiv_pos_site_id
 _symmetry_equiv_pos_as_xyz
  1  'x, y, z'
loop_
 _atom_site_type_symbol
 _atom_site_label
 _atom_site_symmetry_multiplicity
 _atom_site_fract_x
 _atom_site_fract_y
 _atom_site_fract_z
 _atom_site_occupancy
  La  La0  1  0.94123392  0.94121788  0.55877778  1
  La  La1  1  0.55873816  0.94124240  0.55878246  1
  La  La2  1  0.55874261  0.94123750  0.94124309  1
  La  La3  1  0.68929153  0.68931463  0.31069130  1
  La  La4  1  0.15478035  0.15474365  0.53574256  1
  La  La5  1  0.31070821  0.68930109  0.68931892  1
  La  La6  1  0.15478205  0.15474303  0.15472977  1
  La  La7  1  0.53573119  0.15476143  0.15475034  1
  La  La8  1  0.31071755  0.68930126  0.31066988  1
  La  La9  1  0.31071097  0.31067078  0.68931271  1
  La  La10  1  0.68928420  0.31069409  0.68932452  1
  La  La11  1  0.94124093  0.55876512  0.55877233  1
  La  La12  1  0.55873687  0.55877475  0.94124808  1
  La  La13  1  0.15478300  0.53574343  0.15473475  1
  La  La14  1  0.68928464  0.31070194  0.31069488  1
  La  La15  1  0.94123332  0.55877215  0.94122336  1
  Cd  Cd0  1  0.23325472  0.92223853  0.92225527  1
  Cd  Cd1  1  0.92225432  0.92224731  0.92225339  1
  Cd  Cd2  1  0.92225729  0.92224669  0.23324570  1
  Cd  Cd3  1  0.92224690  0.23324430  0.92225489  1
  Co  Co0  1  0.91923421  0.36025872  0.36025053  1
  Co  Co1  1  0.36025377  0.36026908  0.91923157  1
  Co  Co2  1  0.36024537  0.91923004  0.36025276  1
  Co  Co3  1  0.36024891  0.36027821  0.36023716  1
loop_
_geom_bond_atom_site_label_1
_geom_bond_atom_site_label_2
_geom_bond_distance
_geom_bond_site_symmetry_2
La0 La4 3.551363 1_665
La0 La6 3.551427 1_665
La0 La5 3.712041 1_655
La0 La10 3.712083 1_565
La0 La8 3.712117 1_655
La0 La14 3.712155 1_565
La0 La15 3.803935 1_555
La0 La11 3.803996 1_555
La0 La2 3.804267 1_555
La0 La1 3.804294 1_555
La1 La4 3.550694 1_565
La1 La7 3.551207 1_565
La1 La9 3.711605 1_565
La1 La5 3.711712 1_555
La1 La14 3.711965 1_565
La1 La3 3.712018 1_555
La1 La2 3.804055 1_555
La1 La12 3.804143 1_555
La1 La11 3.804375 1_555
La2 La6 3.550691 1_566
La2 La7 3.551114 1_566
La2 La8 3.711637 1_556
La2 La9 3.711639 1_565
La2 La3 3.711854 1_556
La10 La12 3.711916 1_555
La10 La2 3.711916 1_545
La10 La11 3.712128 1_555
La11 La4 3.551202 1_655
La11 La13 3.551304 1_655
La11 La9 3.712002 1_655
La11 La8 3.712059 1_655
La11 La3 3.712129 1_555
La11 La15 3.803959 1_555
La11 La12 3.804382 1_555
La12 La13 3.550647 1_556
La12 La7 3.551065 1_556
La12 La8 3.711525 1_556
La12 La5 3.711604 1_555
La12 La14 3.711836 1_556
La12 La2 3.804107 1_555
La12 La15 3.804310 1_555
La13 La15 3.551281 1_454
La14 La15 3.712071 1_554
La15 La6 3.551256 1_656
La15 La3 3.711987 1_556
La15 La5 3.712009 1_655
La15 La9 3.712035 1_655
La15 La2 3.804256 1_555
Cd0 Cd2 3.093257 1_456
Cd0 Cd1 3.093286 1_455
Cd0 Cd3 3.093379 1_465
Cd0 La12 3.436641 1_555
Cd0 La1 3.436703 1_555
Cd0 La2 3.436732 1_555
Cd0 La13 3.611186 1_556
Cd0 La6 3.611255 1_566
Cd0 La4 3.611318 1_565
Cd0 La8 3.623150 1_556
Cd0 La5 3.623157 1_555
Cd0 La9 3.623300 1_565
Cd1 Cd2 3.093226 1_556
Cd1 Cd3 3.093251 1_565
Cd1 La0 3.436876 1_555
Cd1 La15 3.436899 1_555
Cd1 La2 3.437133 1_555
Cd1 La13 3.611390 1_656
Cd1 La7 3.611480 1_566
Cd1 La4 3.611489 1_665
Cd1 La5 3.623347 1_655
Cd1 La3 3.623354 1_556
Cd1 La10 3.623389 1_565
Cd2 Cd3 3.093254 1_564
Cd2 La0 3.436929 1_555
Cd2 La11 3.436938 1_555
Cd2 La1 3.437197 1_555
Cd2 La13 3.611404 1_655
Cd2 La6 3.611458 1_665
Cd2 La7 3.611537 1_565
Cd2 La8 3.623390 1_655
Cd2 La3 3.623423 1_555
Cd2 La14 3.623448 1_565
Cd3 La11 3.436916 1_555
Cd3 La15 3.436946 1_555
Cd3 La12 3.437111 1_555
Cd3 La6 3.611401 1_656
Cd3 La7 3.611416 1_556
Cd3 La4 3.611429 1_655
Cd3 La10 3.623340 1_555
Cd3 La14 3.623346 1_556
Cd3 La9 3.623451 1_655
Co0 La3 2.866056 1_555
Co0 La14 2.866118 1_555
Co0 La10 2.866199 1_555
Co0 La6 2.906251 1_655
Co0 La13 2.906257 1_655
Co0 La4 2.906261 1_655
Co0 La15 3.550727 1_554
Co0 La11 3.550773 1_555
Co0 La0 3.550864 1_545
Co1 La10 2.865789 1_555
Co1 La5 2.865810 1_555
Co1 La9 2.865992 1_555
Co1 La13 2.905821 1_556
Co1 La7 2.905957 1_556
Co1 La6 2.905973 1_556
Co1 La12 3.550511 1_555
Co1 La15 3.550707 1_455
Co1 La2 3.550746 1_545
Co2 La8 2.865903 1_555
Co2 La3 2.865911 1_555
Co2 La5 2.866079 1_555
Co2 La6 2.905890 1_565
Co2 La4 2.906001 1_565
Co2 La7 2.906132 1_565
Co2 La2 3.550558 1_554
Co2 La0 3.550650 1_455
Co2 La1 3.550761 1_555
Co3 La8 2.865787 1_555
Co3 La14 2.865854 1_555
Co3 La9 2.866130 1_555
Co3 La13 2.905761 1_555
Co3 La4 2.906007 1_555
Co3 La7 2.906007 1_555
Co3 La12 3.550403 1_554
Co3 La11 3.550614 1_455
Co3 La1 3.550808 1_545
