# generated using pymatgen
data_CsTa(PO4)2
_symmetry_space_group_name_H-M   'P 1'
_cell_length_a   5.15352545
_cell_length_b   5.15352545
_cell_length_c   9.01689476
_cell_angle_alpha   87.18593427
_cell_angle_beta   87.18593427
_cell_angle_gamma   61.77108484
_symmetry_Int_Tables_number   1
_chemical_formula_structural   CsTa(PO4)2
_chemical_formula_sum   'Cs1 Ta1 P2 O8'
_cell_volume   210.65021890
_cell_formula_units_Z   1
loop_
 _symmetry_equiv_pos_site_id
 _symmetry_equiv_pos_as_xyz
  1  'x, y, z'
loop_
 _atom_site_type_symbol
 _atom_site_label
 _atom_site_symmetry_multiplicity
 _atom_site_fract_x
 _atom_site_fract_y
 _atom_site_fract_z
 _atom_site_occupancy
  Cs  Cs0  1  0.00000000  0.00000000  0.50000000  1
  Ta  Ta0  1  0.00000000  0.00000000  0.00000000  1
  P  P0  1  0.64493100  0.64493100  0.19181500  1
  P  P1  1  0.35506900  0.35506900  0.80818500  1
  O  O0  1  0.79136200  0.79136200  0.08483700  1
  O  O1  1  0.68522700  0.21198600  0.85412100  1
  O  O2  1  0.32388400  0.32388400  0.64754700  1
  O  O3  1  0.78801400  0.31477300  0.14587900  1
  O  O4  1  0.31477300  0.78801400  0.14587900  1
  O  O5  1  0.20863800  0.20863800  0.91516300  1
  O  O6  1  0.67611600  0.67611600  0.35245300  1
  O  O7  1  0.21198600  0.68522700  0.85412100  1
loop_
_geom_bond_atom_site_label_1
_geom_bond_atom_site_label_2
_geom_bond_distance
_geom_bond_site_symmetry_2
Cs0 O2 3.227035 1_555
Cs0 O6 3.227035 1_445
Cs0 O6 3.310288 1_455
Cs0 O6 3.310288 1_545
Cs0 O2 3.310288 1_545
Cs0 O2 3.310288 1_455
Cs0 O7 3.489720 1_545
Cs0 O1 3.489720 1_455
Cs0 O3 3.489720 1_455
Cs0 O4 3.489720 1_545
O0 P0 1.570092 1_555
O0 Ta0 1.956914 1_665
O1 P1 1.569284 1_555
O1 Ta0 1.986743 1_656
O2 P1 1.489909 1_555
O3 P0 1.569284 1_555
O3 Ta0 1.986743 1_655
O4 P0 1.569284 1_555
O4 Ta0 1.986743 1_565
O5 P1 1.570092 1_555
O5 Ta0 1.956914 1_556
O6 P0 1.489909 1_555
O7 P1 1.569284 1_555
O7 Ta0 1.986743 1_566
