# generated using pymatgen
data_Sc(PO3)3
_symmetry_space_group_name_H-M   'P 1'
_cell_length_a   12.61994042
_cell_length_b   12.61994042
_cell_length_c   12.61994042
_cell_angle_alpha   109.47122063
_cell_angle_beta   109.47122063
_cell_angle_gamma   109.47122063
_symmetry_Int_Tables_number   1
_chemical_formula_structural   Sc(PO3)3
_chemical_formula_sum   'Sc8 P24 O72'
_cell_volume   1547.21270574
_cell_formula_units_Z   8
loop_
 _symmetry_equiv_pos_site_id
 _symmetry_equiv_pos_as_xyz
  1  'x, y, z'
loop_
 _atom_site_type_symbol
 _atom_site_label
 _atom_site_symmetry_multiplicity
 _atom_site_fract_x
 _atom_site_fract_y
 _atom_site_fract_z
 _atom_site_occupancy
  Sc  Sc0  1  0.70782400  0.70782400  0.70782400  1
  Sc  Sc1  1  0.50000000  0.00000000  0.29217600  1
  Sc  Sc2  1  0.00000000  0.29217600  0.50000000  1
  Sc  Sc3  1  0.29217600  0.50000000  0.00000000  1
  Sc  Sc4  1  0.00000000  0.79217600  0.50000000  1
  Sc  Sc5  1  0.79217600  0.50000000  0.00000000  1
  Sc  Sc6  1  0.50000000  0.00000000  0.79217600  1
  Sc  Sc7  1  0.20782400  0.20782400  0.20782400  1
  P  P0  1  0.66944800  0.87829400  0.95783200  1
  P  P1  1  0.78838400  0.20884600  0.83055200  1
  P  P2  1  0.29115400  0.07953800  0.62170600  1
  P  P3  1  0.42046200  0.71161600  0.54216800  1
  P  P4  1  0.71161600  0.54216800  0.42046200  1
  P  P5  1  0.54216800  0.42046200  0.71161600  1
  P  P6  1  0.37829400  0.16944800  0.45783200  1
  P  P7  1  0.28838400  0.33055200  0.70884600  1
  P  P8  1  0.12170600  0.57953800  0.79115400  1
  P  P9  1  0.92046200  0.04216800  0.21161600  1
  P  P10  1  0.04216800  0.21161600  0.92046200  1
  P  P11  1  0.45783200  0.37829400  0.16944800  1
  P  P12  1  0.33055200  0.70884600  0.28838400  1
  P  P13  1  0.79115400  0.12170600  0.57953800  1
  P  P14  1  0.16944800  0.45783200  0.37829400  1
  P  P15  1  0.70884600  0.28838400  0.33055200  1
  P  P16  1  0.57953800  0.79115400  0.12170600  1
  P  P17  1  0.83055200  0.78838400  0.20884600  1
  P  P18  1  0.07953800  0.62170600  0.29115400  1
  P  P19  1  0.62170600  0.29115400  0.07953800  1
  P  P20  1  0.87829400  0.95783200  0.66944800  1
  P  P21  1  0.95783200  0.66944800  0.87829400  1
  P  P22  1  0.20884600  0.83055200  0.78838400  1
  P  P23  1  0.21161600  0.92046200  0.04216800  1
  O  O0  1  0.58396600  0.92092300  0.89233400  1
  O  O1  1  0.80836800  0.33695700  0.91603400  1
  O  O2  1  0.16304300  0.97141100  0.57907700  1
  O  O3  1  0.52858900  0.69163200  0.60766600  1
  O  O4  1  0.69163200  0.60766600  0.52858900  1
  O  O5  1  0.60766600  0.52858900  0.69163200  1
  O  O6  1  0.42092300  0.08396600  0.39233400  1
  O  O7  1  0.30836800  0.41603400  0.83695700  1
  O  O8  1  0.07907700  0.47141100  0.66304300  1
  O  O9  1  0.02858900  0.10766600  0.19163200  1
  O  O10  1  0.10766600  0.19163200  0.02858900  1
  O  O11  1  0.39233400  0.42092300  0.08396600  1
  O  O12  1  0.41603400  0.83695700  0.30836800  1
  O  O13  1  0.66304300  0.07907700  0.47141100  1
  O  O14  1  0.08396600  0.39233400  0.42092300  1
  O  O15  1  0.83695700  0.30836800  0.41603400  1
  O  O16  1  0.47141100  0.66304300  0.07907700  1
  O  O17  1  0.91603400  0.80836800  0.33695700  1
  O  O18  1  0.97141100  0.57907700  0.16304300  1
  O  O19  1  0.57907700  0.16304300  0.97141100  1
  O  O20  1  0.92092300  0.89233400  0.58396600  1
  O  O21  1  0.89233400  0.58396600  0.92092300  1
  O  O22  1  0.33695700  0.91603400  0.80836800  1
  O  O23  1  0.19163200  0.02858900  0.10766600  1
  O  O24  1  0.72138300  0.80988400  0.88621700  1
  O  O25  1  0.19011600  0.57633300  0.91149900  1
  O  O26  1  0.66483400  0.08850100  0.77861700  1
  O  O27  1  0.42366700  0.83516600  0.61378300  1
  O  O28  1  0.83516600  0.61378300  0.42366700  1
  O  O29  1  0.61378300  0.42366700  0.83516600  1
  O  O30  1  0.30988400  0.22138300  0.38621700  1
  O  O31  1  0.16483400  0.27861700  0.58850100  1
  O  O32  1  0.09520900  0.78498200  0.00346500  1
  O  O33  1  0.18977300  0.90825600  0.90479100  1
  O  O34  1  0.99653500  0.59174400  0.78151600  1
  O  O35  1  0.78151600  0.99653500  0.59174400  1
  O  O36  1  0.71848400  0.31022700  0.21501800  1
  O  O37  1  0.21501800  0.71848400  0.31022700  1
  O  O38  1  0.90825600  0.90479100  0.18977300  1
  O  O39  1  0.71501800  0.81022700  0.21848400  1
  O  O40  1  0.68977300  0.40479100  0.40825600  1
  O  O41  1  0.09174400  0.49653500  0.28151600  1
  O  O42  1  0.81022700  0.21848400  0.71501800  1
  O  O43  1  0.40825600  0.68977300  0.40479100  1
  O  O44  1  0.49653500  0.28151600  0.09174400  1
  O  O45  1  0.00346500  0.09520900  0.78498200  1
  O  O46  1  0.78498200  0.00346500  0.09520900  1
  O  O47  1  0.21848400  0.71501800  0.81022700  1
  O  O48  1  0.40479100  0.40825600  0.68977300  1
  O  O49  1  0.28151600  0.09174400  0.49653500  1
  O  O50  1  0.50346500  0.28498200  0.59520900  1
  O  O51  1  0.59520900  0.50346500  0.28498200  1
  O  O52  1  0.28498200  0.59520900  0.50346500  1
  O  O53  1  0.31022700  0.21501800  0.71848400  1
  O  O54  1  0.90479100  0.18977300  0.90825600  1
  O  O55  1  0.59174400  0.78151600  0.99653500  1
  O  O56  1  0.33516600  0.92366700  0.11378300  1
  O  O57  1  0.08850100  0.77861700  0.66483400  1
  O  O58  1  0.88621700  0.72138300  0.80988400  1
  O  O59  1  0.80988400  0.88621700  0.72138300  1
  O  O60  1  0.69011600  0.41149900  0.07633300  1
  O  O61  1  0.07633300  0.69011600  0.41149900  1
  O  O62  1  0.77861700  0.66483400  0.08850100  1
  O  O63  1  0.57633300  0.91149900  0.19011600  1
  O  O64  1  0.58850100  0.16483400  0.27861700  1
  O  O65  1  0.22138300  0.38621700  0.30988400  1
  O  O66  1  0.91149900  0.19011600  0.57633300  1
  O  O67  1  0.27861700  0.58850100  0.16483400  1
  O  O68  1  0.38621700  0.30988400  0.22138300  1
  O  O69  1  0.11378300  0.33516600  0.92366700  1
  O  O70  1  0.92366700  0.11378300  0.33516600  1
  O  O71  1  0.41149900  0.07633300  0.69011600  1
loop_
_geom_bond_atom_site_label_1
_geom_bond_atom_site_label_2
_geom_bond_distance
_geom_bond_site_symmetry_2
O0 P0 1.491747 1_555
O0 Sc6 2.090312 1_565
O1 P1 1.491747 1_555
O1 Sc5 2.090312 1_556
O2 P2 1.491747 1_565
O2 Sc4 2.090312 1_555
O3 P3 1.491747 1_555
O3 Sc0 2.090312 1_555
O4 P4 1.491747 1_555
O4 Sc0 2.090312 1_555
O5 P5 1.491747 1_555
O5 Sc0 2.090312 1_555
O6 P6 1.491747 1_555
O6 Sc1 2.090312 1_555
O7 P7 1.491747 1_555
O7 Sc3 2.090312 1_556
O8 P8 1.491747 1_555
O8 Sc2 2.090312 1_555
O9 P9 1.491747 1_455
O9 Sc7 2.090312 1_555
O10 P10 1.491747 1_554
O10 Sc7 2.090312 1_555
O11 P11 1.491747 1_555
O11 Sc3 2.090312 1_555
O12 P12 1.491747 1_555
O12 Sc1 2.090312 1_565
O13 P13 1.491747 1_555
O13 Sc1 2.090312 1_555
O14 P14 1.491747 1_555
O14 Sc2 2.090312 1_555
O15 P15 1.491747 1_555
O15 Sc2 2.090312 1_655
O16 P16 1.491747 1_555
O16 Sc3 2.090312 1_555
O17 P17 1.491747 1_555
O17 Sc4 2.090312 1_655
O18 P18 1.491747 1_655
O18 Sc5 2.090312 1_555
O19 P19 1.491747 1_556
O19 Sc6 2.090312 1_555
O20 P20 1.491747 1_555
O20 Sc4 2.090312 1_655
O21 P21 1.491747 1_555
O21 Sc5 2.090312 1_556
O22 P22 1.491747 1_555
O22 Sc6 2.090312 1_565
O23 P23 1.491747 1_545
O23 Sc7 2.090312 1_555
O24 P0 1.497891 1_555
O24 Sc0 2.102316 1_555
O25 P8 1.497891 1_555
O25 Sc3 2.102316 1_556
O26 P1 1.497891 1_555
O26 Sc6 2.102316 1_555
O27 P3 1.497891 1_555
O27 Sc6 2.102316 1_565
O28 P4 1.497891 1_555
O28 Sc4 2.102316 1_655
O29 P5 1.497891 1_555
O29 Sc5 2.102316 1_556
O30 P6 1.497891 1_555
O30 Sc7 2.102316 1_555
O31 P7 1.497891 1_555
O31 Sc2 2.102316 1_555
O32 P21 1.606377 1_454
O32 P23 1.615662 1_555
O33 P23 1.606377 1_556
O33 P22 1.615662 1_555
O34 P8 1.606374 1_655
O34 P21 1.615670 1_555
O35 P13 1.606374 1_565
O35 P20 1.615670 1_555
O36 P15 1.606381 1_555
O36 P19 1.615666 1_555
O37 P12 1.606381 1_555
O37 P18 1.615666 1_555
O38 P9 1.606377 1_565
O38 P17 1.615662 1_555
O39 P17 1.606381 1_555
O39 P16 1.615666 1_555
O40 P4 1.606377 1_555
O40 P15 1.615662 1_555
O41 P18 1.606374 1_555
O41 P14 1.615670 1_555
O42 P1 1.606381 1_555
O42 P13 1.615666 1_555
O43 P3 1.606377 1_555
O43 P12 1.615662 1_555
O44 P19 1.606374 1_555
O44 P11 1.615670 1_555
O45 P20 1.606377 1_445
O45 P10 1.615662 1_555
O46 P0 1.606377 1_544
O46 P9 1.615662 1_555
O47 P22 1.606381 1_555
O47 P8 1.615666 1_555
O48 P5 1.606377 1_555
O48 P7 1.615662 1_555
O49 P2 1.606374 1_555
O49 P6 1.615670 1_555
O50 P6 1.606377 1_555
O50 P5 1.615662 1_555
O51 P11 1.606377 1_555
O51 P4 1.615662 1_555
O52 P14 1.606377 1_555
O52 P3 1.615662 1_555
O53 P7 1.606381 1_555
O53 P2 1.615666 1_555
O54 P10 1.606377 1_655
O54 P1 1.615662 1_555
O55 P16 1.606374 1_556
O55 P0 1.615670 1_555
O56 P23 1.497891 1_555
O56 Sc1 2.102316 1_565
O57 P22 1.497891 1_555
O57 Sc4 2.102316 1_555
O58 P21 1.497891 1_555
O58 Sc0 2.102316 1_555
O59 P20 1.497891 1_555
O59 Sc0 2.102316 1_555
O60 P19 1.497891 1_555
O60 Sc5 2.102316 1_555
O61 P18 1.497891 1_555
O61 Sc4 2.102316 1_555
O62 P17 1.497891 1_555
O62 Sc5 2.102316 1_555
O63 P16 1.497891 1_555
O63 Sc1 2.102316 1_565
O64 P15 1.497891 1_555
O64 Sc1 2.102316 1_555
O65 P14 1.497891 1_555
O65 Sc7 2.102316 1_555
O66 P13 1.497891 1_555
O66 Sc2 2.102316 1_655
O67 P12 1.497891 1_555
O67 Sc3 2.102316 1_555
O68 P11 1.497891 1_555
O68 Sc7 2.102316 1_555
O69 P10 1.497891 1_555
O69 Sc3 2.102316 1_556
O70 P9 1.497891 1_555
O70 Sc2 2.102316 1_655
O71 P2 1.497891 1_555
O71 Sc6 2.102316 1_555
