# generated using pymatgen
data_NdVO3
_symmetry_space_group_name_H-M   'P 1'
_cell_length_a   5.44723174
_cell_length_b   5.67955965
_cell_length_c   7.71246632
_cell_angle_alpha   90.00000000
_cell_angle_beta   90.00000000
_cell_angle_gamma   90.00000000
_symmetry_Int_Tables_number   1
_chemical_formula_structural   NdVO3
_chemical_formula_sum   'Nd4 V4 O12'
_cell_volume   238.60733896
_cell_formula_units_Z   4
loop_
 _symmetry_equiv_pos_site_id
 _symmetry_equiv_pos_as_xyz
  1  'x, y, z'
loop_
 _atom_site_type_symbol
 _atom_site_label
 _atom_site_symmetry_multiplicity
 _atom_site_fract_x
 _atom_site_fract_y
 _atom_site_fract_z
 _atom_site_occupancy
  Nd  Nd0  1  0.98711142  0.05487260  0.25000000  1
  Nd  Nd1  1  0.48711142  0.44512740  0.75000000  1
  Nd  Nd2  1  0.51288858  0.55487260  0.25000000  1
  Nd  Nd3  1  0.01288858  0.94512740  0.75000000  1
  V  V0  1  0.50000000  -0.00000000  0.00000000  1
  V  V1  1  -0.00000000  0.50000000  0.00000000  1
  V  V2  1  -0.00000000  0.50000000  0.50000000  1
  V  V3  1  0.50000000  -0.00000000  0.50000000  1
  O  O0  1  0.08979325  0.47095824  0.25000000  1
  O  O1  1  0.58979325  0.02904176  0.75000000  1
  O  O2  1  0.41020675  0.97095824  0.25000000  1
  O  O3  1  0.91020675  0.52904176  0.75000000  1
  O  O4  1  0.70777460  0.30005565  0.04598913  1
  O  O5  1  0.20777460  0.19994435  0.95401087  1
  O  O6  1  0.79222540  0.80005565  0.45401087  1
  O  O7  1  0.29222540  0.69994435  0.54598913  1
  O  O8  1  0.29222540  0.69994435  0.95401087  1
  O  O9  1  0.79222540  0.80005565  0.04598913  1
  O  O10  1  0.20777460  0.19994435  0.54598913  1
  O  O11  1  0.70777460  0.30005565  0.45401087  1
loop_
_geom_bond_atom_site_label_1
_geom_bond_atom_site_label_2
_geom_bond_distance
_geom_bond_site_symmetry_2
Nd0 O2 2.353461 1_645
Nd0 O9 2.386875 1_545
Nd0 O6 2.386875 1_545
Nd0 O0 2.428474 1_655
Nd0 O11 2.594248 1_555
Nd0 O4 2.594248 1_555
Nd0 O5 2.708302 1_654
Nd0 O10 2.708302 1_655
Nd1 O3 2.353461 1_555
Nd1 O7 2.386875 1_555
Nd1 O8 2.386875 1_555
Nd1 O1 2.428474 1_555
Nd1 O5 2.594248 1_555
Nd1 O10 2.594248 1_555
Nd1 O4 2.708302 1_556
Nd1 O11 2.708302 1_555
Nd2 O0 2.353461 1_555
Nd2 O11 2.386875 1_555
Nd2 O4 2.386875 1_555
Nd2 O2 2.428474 1_555
Nd2 O9 2.594248 1_555
Nd2 O6 2.594248 1_555
Nd2 O8 2.708302 1_554
Nd2 O7 2.708302 1_555
Nd3 O1 2.353461 1_465
Nd3 O10 2.386875 1_565
Nd3 O5 2.386875 1_565
Nd3 O3 2.428474 1_455
Nd3 O8 2.594248 1_555
Nd3 O7 2.594248 1_555
Nd3 O9 2.708302 1_456
Nd3 O6 2.708302 1_455
O0 V1 1.996017 1_555
O0 V2 1.996017 1_555
O1 V0 1.996017 1_556
O1 V3 1.996017 1_555
O2 V0 1.996017 1_565
O2 V3 1.996017 1_565
O3 V2 1.996017 1_655
O3 V1 1.996017 1_656
O4 V1 1.987278 1_655
O4 V0 2.076297 1_555
O5 V0 1.987278 1_556
O5 V1 2.076297 1_556
O6 V3 1.987278 1_565
O6 V2 2.076297 1_655
O7 V2 1.987278 1_555
O7 V3 2.076297 1_565
O8 V1 1.987278 1_556
O8 V0 2.076297 1_566
O9 V0 1.987278 1_565
O9 V1 2.076297 1_655
O10 V3 1.987278 1_555
O10 V2 2.076297 1_555
O11 V2 1.987278 1_655
O11 V3 2.076297 1_555
