# generated using pymatgen
data_Yb4Cl6O
_symmetry_space_group_name_H-M   'P 1'
_cell_length_a   8.98508400
_cell_length_b   8.98508400
_cell_length_c   6.78149400
_cell_angle_alpha   90.00000000
_cell_angle_beta   90.00000000
_cell_angle_gamma   120.00000001
_symmetry_Int_Tables_number   1
_chemical_formula_structural   Yb4Cl6O
_chemical_formula_sum   'Yb8 Cl12 O2'
_cell_volume   474.13312361
_cell_formula_units_Z   2
loop_
 _symmetry_equiv_pos_site_id
 _symmetry_equiv_pos_as_xyz
  1  'x, y, z'
loop_
 _atom_site_type_symbol
 _atom_site_label
 _atom_site_symmetry_multiplicity
 _atom_site_fract_x
 _atom_site_fract_y
 _atom_site_fract_z
 _atom_site_occupancy
  Yb  Yb0  1  0.33333300  0.66666700  0.42998400  1
  Yb  Yb1  1  0.80115600  0.60231200  0.50189000  1
  Yb  Yb2  1  0.19884400  0.39768800  0.00189000  1
  Yb  Yb3  1  0.19884400  0.80115600  0.00189000  1
  Yb  Yb4  1  0.60231200  0.80115600  0.00189000  1
  Yb  Yb5  1  0.39768800  0.19884400  0.50189000  1
  Yb  Yb6  1  0.80115600  0.19884400  0.50189000  1
  Yb  Yb7  1  0.66666700  0.33333300  0.92998400  1
  Cl  Cl0  1  0.46461200  0.53538800  0.71220800  1
  Cl  Cl1  1  0.27704800  0.13852400  0.88752100  1
  Cl  Cl2  1  0.53538800  0.46461200  0.21220800  1
  Cl  Cl3  1  0.07077600  0.53538800  0.71220800  1
  Cl  Cl4  1  0.86147600  0.13852400  0.88752100  1
  Cl  Cl5  1  0.92922400  0.46461200  0.21220800  1
  Cl  Cl6  1  0.53538800  0.07077600  0.21220800  1
  Cl  Cl7  1  0.46461200  0.92922400  0.71220800  1
  Cl  Cl8  1  0.86147600  0.72295200  0.88752100  1
  Cl  Cl9  1  0.13852400  0.86147600  0.38752100  1
  Cl  Cl10  1  0.72295200  0.86147600  0.38752100  1
  Cl  Cl11  1  0.13852400  0.27704800  0.38752100  1
  O  O0  1  0.33333300  0.66666700  0.10665800  1
  O  O1  1  0.66666700  0.33333300  0.60665800  1
loop_
_geom_bond_atom_site_label_1
_geom_bond_atom_site_label_2
_geom_bond_distance
_geom_bond_site_symmetry_2
Cl0 Yb0 2.799473 1_555
Cl0 Yb2 2.852676 1_556
Cl0 Yb4 2.852676 1_556
Cl0 Yb1 3.117907 1_555
Cl0 Yb5 3.117907 1_555
Cl1 Yb5 2.778536 1_555
Cl1 Yb3 2.855514 1_546
Cl1 Yb2 2.855514 1_556
Cl1 Yb7 3.045392 1_555
Cl2 Yb7 2.799473 1_554
Cl2 Yb5 2.852676 1_555
Cl2 Yb1 2.852676 1_555
Cl2 Yb4 3.117907 1_555
Cl2 Yb2 3.117907 1_555
Cl3 Yb0 2.799467 1_555
Cl3 Yb3 2.852676 1_556
Cl3 Yb2 2.852676 1_556
Cl3 Yb6 3.117907 1_455
Cl3 Yb1 3.117907 1_455
Cl4 Yb6 2.778536 1_555
Cl4 Yb2 2.855514 1_656
Cl4 Yb4 2.855514 1_546
Cl4 Yb7 3.045384 1_555
Cl5 Yb7 2.799467 1_554
Cl5 Yb6 2.852676 1_555
Cl5 Yb1 2.852676 1_555
Cl5 Yb3 3.117907 1_655
Cl5 Yb2 3.117907 1_655
Cl6 Yb7 2.799467 1_554
Cl6 Yb6 2.852676 1_555
Cl6 Yb5 2.852676 1_555
Cl6 Yb3 3.117907 1_545
Cl6 Yb4 3.117907 1_545
Cl7 Yb0 2.799467 1_555
Cl7 Yb3 2.852676 1_556
Cl7 Yb4 2.852676 1_556
Cl7 Yb6 3.117907 1_565
Cl7 Yb5 3.117907 1_565
Cl8 Yb1 2.778536 1_555
Cl8 Yb3 2.855514 1_656
Cl8 Yb4 2.855514 1_556
Cl8 Yb7 3.045392 1_555
Cl9 Yb3 2.778536 1_555
Cl9 Yb5 2.855514 1_565
Cl9 Yb1 2.855514 1_455
Cl9 Yb0 3.045384 1_555
Cl10 Yb4 2.778536 1_555
Cl10 Yb6 2.855514 1_565
Cl10 Yb1 2.855514 1_555
Cl10 Yb0 3.045392 1_555
Cl11 Yb2 2.778536 1_555
Cl11 Yb6 2.855514 1_455
Cl11 Yb5 2.855514 1_555
Cl11 Yb0 3.045392 1_555
O0 Yb0 2.192633 1_555
O0 Yb3 2.210304 1_555
O0 Yb4 2.210311 1_555
O0 Yb2 2.210311 1_555
O1 Yb7 2.192633 1_555
O1 Yb6 2.210304 1_555
O1 Yb1 2.210311 1_555
O1 Yb5 2.210311 1_555
