# generated using pymatgen
data_RbTeNO3F4
_symmetry_space_group_name_H-M   'P 1'
_cell_length_a   8.47471800
_cell_length_b   8.55636214
_cell_length_c   10.69929854
_cell_angle_alpha   88.67279158
_cell_angle_beta   108.62278958
_cell_angle_gamma   111.72472109
_symmetry_Int_Tables_number   1
_chemical_formula_structural   RbTeNO3F4
_chemical_formula_sum   'Rb4 Te4 N4 O12 F16'
_cell_volume   679.00210577
_cell_formula_units_Z   4
loop_
 _symmetry_equiv_pos_site_id
 _symmetry_equiv_pos_as_xyz
  1  'x, y, z'
loop_
 _atom_site_type_symbol
 _atom_site_label
 _atom_site_symmetry_multiplicity
 _atom_site_fract_x
 _atom_site_fract_y
 _atom_site_fract_z
 _atom_site_occupancy
  Rb  Rb0  1  0.42544700  0.43489700  0.98002000  1
  Rb  Rb1  1  0.92264600  0.68880600  0.49462200  1
  Rb  Rb2  1  0.44847500  0.95650600  0.86809900  1
  Rb  Rb3  1  0.88682700  0.16610300  0.59806000  1
  Te  Te0  1  0.42289800  0.25204800  0.56769700  1
  Te  Te1  1  0.43978600  0.74570300  0.27380700  1
  Te  Te2  1  0.91660100  0.87558100  0.90093800  1
  Te  Te3  1  0.90969600  0.38000200  0.19589200  1
  N  N0  1  0.99633500  0.05828900  0.26136800  1
  N  N1  1  0.35642500  0.06660200  0.21096800  1
  N  N2  1  0.33996500  0.55843200  0.60312700  1
  N  N3  1  0.99817000  0.55759700  0.86922900  1
  O  O0  1  0.46325400  0.57422200  0.55507300  1
  O  O1  1  0.05916800  0.71005500  0.83230800  1
  O  O2  1  0.05945700  0.95569300  0.31740800  1
  O  O3  1  0.88801100  0.53063200  0.93033100  1
  O  O4  1  0.29571600  0.17159100  0.15726400  1
  O  O5  1  0.05186800  0.45053600  0.84206300  1
  O  O6  1  0.32272200  0.92859700  0.13754700  1
  O  O7  1  0.90567400  0.04010600  0.14052800  1
  O  O8  1  0.44694300  0.08158500  0.33163200  1
  O  O9  1  0.25500100  0.40762000  0.62950500  1
  O  O10  1  0.30020400  0.67829800  0.62476300  1
  O  O11  1  0.02750400  0.19691900  0.33265600  1
  F  F0  1  0.52894000  0.31560300  0.75507600  1
  F  F1  1  0.67915100  0.38312200  0.57402900  1
  F  F2  1  0.82247100  0.56235800  0.16547000  1
  F  F3  1  0.12094100  0.04901900  0.85662800  1
  F  F4  1  0.24056200  0.57676400  0.12664600  1
  F  F5  1  0.80568900  0.34185100  0.33420700  1
  F  F6  1  0.81137800  0.82834800  0.71186400  1
  F  F7  1  0.11441100  0.55114800  0.33975900  1
  F  F8  1  0.51635100  0.07335400  0.60382600  1
  F  F9  1  0.22476200  0.07687400  0.61920700  1
  F  F10  1  0.54967600  0.78701500  0.13887800  1
  F  F11  1  0.69462800  0.88839500  0.38739100  1
  F  F12  1  0.82773600  0.05725300  0.87359100  1
  F  F13  1  0.65423700  0.23446900  0.08580400  1
  F  F14  1  0.65981500  0.73711900  0.88982900  1
  F  F15  1  0.52476200  0.56188800  0.30659200  1
loop_
_geom_bond_atom_site_label_1
_geom_bond_atom_site_label_2
_geom_bond_distance
_geom_bond_site_symmetry_2
N0 O2 1.238828 1_645
N0 O7 1.254000 1_555
N0 O11 1.319019 1_655
N1 O4 1.237448 1_555
N1 O8 1.254584 1_555
N1 O6 1.320228 1_545
N2 O10 1.239226 1_555
N2 O0 1.268724 1_555
N2 O9 1.299357 1_555
N3 O5 1.239415 1_655
N3 O3 1.255196 1_555
N3 O1 1.316167 1_655
O1 Te2 2.426203 1_455
O1 Rb2 3.091699 1_555
O1 Rb1 3.410337 1_455
O2 Rb1 3.065535 1_455
O4 Rb0 3.029981 1_554
O5 Rb0 3.088673 1_555
O5 Rb3 3.183879 1_455
O6 Te1 2.382959 1_555
O6 Rb2 3.353487 1_554
O9 Rb3 2.950856 1_455
O10 Rb1 3.089767 1_455
O10 Rb2 3.163409 1_555
O11 Te3 2.389676 1_455
O11 Rb3 3.383662 1_455
F0 Te0 1.913293 1_555
F0 Rb0 3.119016 1_555
F0 Rb2 3.189269 1_545
F1 Te0 2.021154 1_555
F1 Rb3 2.952963 1_555
F1 Rb1 2.973601 1_555
F2 Te3 1.939993 1_555
F2 Rb0 3.093097 1_554
F2 Rb1 3.446840 1_555
F3 Te2 2.003786 1_445
F3 Rb2 3.122659 1_545
F3 Rb3 3.229714 1_455
F3 Rb0 3.319963 1_555
F4 Te1 2.005009 1_555
F4 Rb0 3.075015 1_554
F5 Te3 1.916040 1_555
F5 Rb1 3.116482 1_555
F5 Rb3 3.167450 1_555
F6 Te2 1.915682 1_555
F6 Rb3 3.034725 1_565
F6 Rb1 3.174768 1_555
F7 Te3 2.010414 1_455
F7 Rb1 3.162456 1_455
F8 Te0 1.946267 1_555
F8 Rb3 2.961095 1_555
F8 Rb2 3.131696 1_545
F9 Te0 2.014802 1_555
F9 Rb2 3.136966 1_545
F9 Rb3 3.167468 1_455
F9 Rb1 3.330058 1_445
F10 Te1 1.915119 1_555
F10 Rb0 3.133803 1_554
F10 Rb2 3.220462 1_554
F11 Te1 2.017996 1_555
F11 Rb3 2.901362 1_565
F11 Rb1 2.983813 1_555
F12 Te2 1.942662 1_545
F12 Rb2 2.984592 1_545
F12 Rb3 3.206127 1_555
F13 Te3 2.017062 1_555
F13 Rb2 2.952146 1_544
F13 Rb0 2.991915 1_554
F14 Te2 2.021438 1_555
F14 Rb0 2.978156 1_555
F14 Rb2 2.998061 1_555
F15 Te1 1.940854 1_555
F15 Rb1 3.107174 1_555
