# generated using pymatgen
data_MgZn
_symmetry_space_group_name_H-M   'P 1'
_cell_length_a   5.24375926
_cell_length_b   5.24376577
_cell_length_c   8.84977766
_cell_angle_alpha   90.00000000
_cell_angle_beta   90.00000000
_cell_angle_gamma   120.00003154
_symmetry_Int_Tables_number   1
_chemical_formula_structural   MgZn
_chemical_formula_sum   'Mg6 Zn6'
_cell_volume   210.74092576
_cell_formula_units_Z   6
loop_
 _symmetry_equiv_pos_site_id
 _symmetry_equiv_pos_as_xyz
  1  'x, y, z'
loop_
 _atom_site_type_symbol
 _atom_site_label
 _atom_site_symmetry_multiplicity
 _atom_site_fract_x
 _atom_site_fract_y
 _atom_site_fract_z
 _atom_site_occupancy
  Mg  Mg0  1  0.33333300  0.66666700  0.43397240  1
  Mg  Mg1  1  0.66666700  0.33333300  0.56602760  1
  Mg  Mg2  1  -0.00000000  0.00000000  0.50000000  1
  Mg  Mg3  1  0.66666700  0.33333300  0.93397240  1
  Mg  Mg4  1  0.33333300  0.66666700  0.06602760  1
  Mg  Mg5  1  -0.00000000  0.00000000  -0.00000000  1
  Zn  Zn0  1  0.82830538  0.17169462  0.25000000  1
  Zn  Zn1  1  0.17169462  0.82830538  0.75000000  1
  Zn  Zn2  1  0.65661076  0.82830538  0.75000000  1
  Zn  Zn3  1  0.17169462  0.34338924  0.75000000  1
  Zn  Zn4  1  0.34338924  0.17169462  0.25000000  1
  Zn  Zn5  1  0.82830538  0.65661076  0.25000000  1
loop_
_geom_bond_atom_site_label_1
_geom_bond_atom_site_label_2
_geom_bond_distance
_geom_bond_site_symmetry_2
Mg0 Mg2 3.083360 1_565
Mg0 Mg2 3.083361 1_665
Mg0 Mg2 3.083365 1_555
Mg0 Zn5 3.086597 1_455
Mg0 Zn0 3.086600 1_455
Mg0 Zn0 3.086600 1_565
Mg0 Zn4 3.086600 1_565
Mg0 Zn5 3.086602 1_555
Mg0 Zn4 3.086604 1_555
Mg0 Zn1 3.158669 1_555
Mg0 Zn2 3.158670 1_555
Mg0 Zn3 3.158671 1_555
Mg0 Mg1 3.245213 1_455
Mg0 Mg1 3.245217 1_565
Mg0 Mg1 3.245225 1_555
Mg0 Mg4 3.256230 1_555
Mg1 Mg2 3.083360 1_655
Mg1 Mg2 3.083361 1_555
Mg1 Mg2 3.083365 1_665
Mg1 Zn3 3.086597 1_655
Mg1 Zn1 3.086600 1_655
Mg1 Zn1 3.086600 1_545
Mg1 Zn2 3.086600 1_545
Mg1 Zn3 3.086602 1_555
Mg1 Zn2 3.086604 1_555
Mg1 Zn0 3.158669 1_555
Mg1 Zn4 3.158670 1_555
Mg1 Zn5 3.158671 1_555
Mg1 Mg3 3.256230 1_555
Mg2 Zn2 2.706781 1_445
Mg2 Zn4 2.706781 1_555
Mg2 Zn1 2.706782 1_545
Mg2 Zn0 2.706782 1_455
Mg2 Zn3 2.706782 1_555
Mg2 Zn5 2.706782 1_445
Mg3 Mg5 3.083360 1_656
Mg3 Mg5 3.083361 1_556
Mg3 Mg5 3.083365 1_666
Mg3 Zn3 3.086597 1_655
Mg3 Zn1 3.086600 1_655
Mg3 Zn1 3.086600 1_545
Mg3 Zn2 3.086600 1_545
Mg3 Zn3 3.086602 1_555
Mg3 Zn2 3.086604 1_555
Mg3 Zn0 3.158669 1_556
Mg3 Zn4 3.158670 1_556
Mg3 Zn5 3.158671 1_556
Mg3 Mg4 3.245213 1_656
Mg3 Mg4 3.245217 1_546
Mg3 Mg4 3.245225 1_556
Mg4 Mg5 3.083360 1_565
Mg4 Mg5 3.083361 1_665
Mg4 Mg5 3.083365 1_555
Mg4 Zn5 3.086597 1_455
Mg4 Zn0 3.086600 1_455
Mg4 Zn0 3.086600 1_565
Mg4 Zn4 3.086600 1_565
Mg4 Zn5 3.086602 1_555
Mg4 Zn4 3.086604 1_555
Mg4 Zn1 3.158669 1_554
Mg4 Zn2 3.158670 1_554
Mg4 Zn3 3.158671 1_554
Mg5 Zn2 2.706781 1_444
Mg5 Zn4 2.706781 1_555
Mg5 Zn1 2.706782 1_544
Mg5 Zn0 2.706782 1_455
Mg5 Zn3 2.706782 1_554
Mg5 Zn5 2.706782 1_445
Zn0 Zn4 2.542784 1_555
Zn0 Zn5 2.542787 1_555
Zn0 Zn4 2.700976 1_655
Zn0 Zn5 2.700979 1_545
Zn1 Zn2 2.542784 1_555
Zn1 Zn3 2.542787 1_555
Zn1 Zn2 2.700976 1_455
Zn1 Zn3 2.700979 1_565
Zn2 Zn3 2.542784 1_555
Zn2 Zn3 2.700976 1_665
Zn4 Zn5 2.542784 1_555
Zn4 Zn5 2.700976 1_445
