# generated using pymatgen
data_Sn4(PO4)3
_symmetry_space_group_name_H-M   'P 1'
_cell_length_a   9.71223454
_cell_length_b   9.71223454
_cell_length_c   6.95696800
_cell_angle_alpha   90.00000000
_cell_angle_beta   90.00000000
_cell_angle_gamma   120.00000371
_symmetry_Int_Tables_number   1
_chemical_formula_structural   Sn4(PO4)3
_chemical_formula_sum   'Sn8 P6 O24'
_cell_volume   568.31477219
_cell_formula_units_Z   2
loop_
 _symmetry_equiv_pos_site_id
 _symmetry_equiv_pos_as_xyz
  1  'x, y, z'
loop_
 _atom_site_type_symbol
 _atom_site_label
 _atom_site_symmetry_multiplicity
 _atom_site_fract_x
 _atom_site_fract_y
 _atom_site_fract_z
 _atom_site_occupancy
  Sn  Sn0  1  0.76193000  0.02013800  0.74498100  1
  Sn  Sn1  1  0.66666700  0.33333300  0.43662900  1
  Sn  Sn2  1  0.74179200  0.76193000  0.24498100  1
  Sn  Sn3  1  0.23807000  0.97986200  0.24498100  1
  Sn  Sn4  1  0.33333300  0.66666700  0.93662900  1
  Sn  Sn5  1  0.97986200  0.74179200  0.74498100  1
  Sn  Sn6  1  0.02013800  0.25820800  0.24498100  1
  Sn  Sn7  1  0.25820800  0.23807000  0.74498100  1
  P  P0  1  0.38614500  0.40822500  0.25611200  1
  P  P1  1  0.40822500  0.02208000  0.75611200  1
  P  P2  1  0.02208000  0.61385500  0.25611200  1
  P  P3  1  0.61385500  0.59177500  0.75611200  1
  P  P4  1  0.97792000  0.38614500  0.75611200  1
  P  P5  1  0.59177500  0.97792000  0.25611200  1
  O  O0  1  0.63960600  0.91590800  0.07392300  1
  O  O1  1  0.09921600  0.50733800  0.25237900  1
  O  O2  1  0.16301000  0.48960300  0.75308400  1
  O  O3  1  0.27630200  0.36039400  0.07392300  1
  O  O4  1  0.91590800  0.27630200  0.57392300  1
  O  O5  1  0.67340700  0.16301000  0.25308400  1
  O  O6  1  0.50733800  0.40812200  0.75237900  1
  O  O7  1  0.48960300  0.32659300  0.25308400  1
  O  O8  1  0.51039700  0.67340700  0.75308400  1
  O  O9  1  0.26912000  0.34584700  0.42852200  1
  O  O10  1  0.59187800  0.09921600  0.75237900  1
  O  O11  1  0.40812200  0.90078400  0.25237900  1
  O  O12  1  0.08409200  0.72369800  0.07392300  1
  O  O13  1  0.72369800  0.63960600  0.57392300  1
  O  O14  1  0.65415300  0.92327300  0.42852200  1
  O  O15  1  0.83699000  0.51039700  0.25308400  1
  O  O16  1  0.49266200  0.59187800  0.25237900  1
  O  O17  1  0.92327300  0.26912000  0.92852200  1
  O  O18  1  0.90078400  0.49266200  0.75237900  1
  O  O19  1  0.32659300  0.83699000  0.75308400  1
  O  O20  1  0.36039400  0.08409200  0.57392300  1
  O  O21  1  0.34584700  0.07672700  0.92852200  1
  O  O22  1  0.73088000  0.65415300  0.92852200  1
  O  O23  1  0.07672700  0.73088000  0.42852200  1
loop_
_geom_bond_atom_site_label_1
_geom_bond_atom_site_label_2
_geom_bond_distance
_geom_bond_site_symmetry_2
O0 P5 1.569980 1_555
O0 Sn2 2.474225 1_555
O0 Sn0 2.543717 1_564
O1 P2 1.551506 1_555
O1 Sn6 2.142125 1_555
O2 P4 1.560546 1_455
O2 Sn4 2.116492 1_555
O3 P0 1.569980 1_555
O3 Sn6 2.474225 1_555
O3 Sn7 2.543717 1_554
O4 P4 1.569980 1_555
O4 Sn0 2.474225 1_555
O4 Sn6 2.543717 1_655
O5 P5 1.560546 1_545
O5 Sn1 2.116488 1_555
O6 P3 1.551506 1_555
O6 Sn7 2.142125 1_555
O7 P0 1.560546 1_555
O7 Sn1 2.116496 1_555
O8 P3 1.560546 1_555
O8 Sn4 2.116496 1_555
O9 P0 1.552077 1_555
O9 Sn7 2.417233 1_555
O9 Sn6 2.478752 1_555
O10 P1 1.551506 1_555
O10 Sn0 2.142125 1_555
O11 P5 1.551506 1_555
O11 Sn3 2.142125 1_555
O12 P2 1.569980 1_555
O12 Sn3 2.474225 1_555
O12 Sn5 2.543717 1_454
O13 P3 1.569980 1_555
O13 Sn5 2.474225 1_555
O13 Sn2 2.543717 1_555
O14 P5 1.552077 1_555
O14 Sn0 2.417233 1_565
O14 Sn2 2.478753 1_555
O15 P2 1.560546 1_655
O15 Sn1 2.116492 1_555
O16 P0 1.551506 1_555
O16 Sn2 2.142125 1_555
O17 P4 1.552077 1_555
O17 Sn6 2.417233 1_656
O17 Sn0 2.478752 1_555
O18 P4 1.551506 1_555
O18 Sn5 2.142125 1_555
O19 P1 1.560546 1_565
O19 Sn4 2.116488 1_555
O20 P1 1.569980 1_555
O20 Sn7 2.474225 1_555
O20 Sn3 2.543717 1_545
O21 P1 1.552077 1_555
O21 Sn3 2.417233 1_546
O21 Sn7 2.478753 1_555
O22 P3 1.552077 1_555
O22 Sn2 2.417233 1_556
O22 Sn5 2.478752 1_555
O23 P2 1.552077 1_555
O23 Sn5 2.417233 1_455
O23 Sn3 2.478752 1_555
