# generated using pymatgen
data_Y2H16S3O20
_symmetry_space_group_name_H-M   'P 1'
_cell_length_a   7.56117518
_cell_length_b   7.56117518
_cell_length_c   18.35007670
_cell_angle_alpha   78.84642497
_cell_angle_beta   78.84642497
_cell_angle_gamma   53.06556569
_symmetry_Int_Tables_number   1
_chemical_formula_structural   Y2H16S3O20
_chemical_formula_sum   'Y4 H32 S6 O40'
_cell_volume   818.73470084
_cell_formula_units_Z   2
loop_
 _symmetry_equiv_pos_site_id
 _symmetry_equiv_pos_as_xyz
  1  'x, y, z'
loop_
 _atom_site_type_symbol
 _atom_site_label
 _atom_site_symmetry_multiplicity
 _atom_site_fract_x
 _atom_site_fract_y
 _atom_site_fract_z
 _atom_site_occupancy
  Y  Y0  1  0.64549000  0.68939500  0.10723900  1
  Y  Y1  1  0.31060500  0.35451000  0.39276100  1
  Y  Y2  1  0.35451000  0.31060500  0.89276100  1
  Y  Y3  1  0.68939500  0.64549000  0.60723900  1
  H  H0  1  0.79886600  0.21296800  0.15891700  1
  H  H1  1  0.78703200  0.20113400  0.34108300  1
  H  H2  1  0.20113400  0.78703200  0.84108300  1
  H  H3  1  0.21296800  0.79886600  0.65891700  1
  H  H4  1  0.54003500  0.35162100  0.14761100  1
  H  H5  1  0.64837900  0.45996500  0.35238900  1
  H  H6  1  0.45996500  0.64837900  0.85238900  1
  H  H7  1  0.35162100  0.54003500  0.64761100  1
  H  H8  1  0.18023300  0.83550300  0.10562500  1
  H  H9  1  0.16449700  0.81976700  0.39437500  1
  H  H10  1  0.81976700  0.16449700  0.89437500  1
  H  H11  1  0.83550300  0.18023300  0.60562500  1
  H  H12  1  0.30978800  0.66638100  0.04399500  1
  H  H13  1  0.33361900  0.69021200  0.45600500  1
  H  H14  1  0.69021200  0.33361900  0.95600500  1
  H  H15  1  0.66638100  0.30978800  0.54399500  1
  H  H16  1  0.70643900  0.74605700  0.25469800  1
  H  H17  1  0.25394300  0.29356100  0.24530200  1
  H  H18  1  0.29356100  0.25394300  0.74530200  1
  H  H19  1  0.74605700  0.70643900  0.75469800  1
  H  H20  1  0.86648700  0.79206400  0.19701500  1
  H  H21  1  0.20793600  0.13351300  0.30298500  1
  H  H22  1  0.13351300  0.20793600  0.80298500  1
  H  H23  1  0.79206400  0.86648700  0.69701500  1
  H  H24  1  0.79095400  0.96099700  0.00809400  1
  H  H25  1  0.03900300  0.20904600  0.49190600  1
  H  H26  1  0.20904600  0.03900300  0.99190600  1
  H  H27  1  0.96099700  0.79095400  0.50809400  1
  H  H28  1  0.00135400  0.70857600  0.01737800  1
  H  H29  1  0.29142400  0.99864600  0.48262200  1
  H  H30  1  0.99864600  0.29142400  0.98262200  1
  H  H31  1  0.70857600  0.00135400  0.51737800  1
  S  S0  1  0.25282500  0.31067300  0.09054000  1
  S  S1  1  0.68932700  0.74717500  0.40946000  1
  S  S2  1  0.74717500  0.68932700  0.90946000  1
  S  S3  1  0.31067300  0.25282500  0.59054000  1
  S  S4  1  0.17257200  0.82742800  0.25000000  1
  S  S5  1  0.82742800  0.17257200  0.75000000  1
  O  O0  1  0.30414400  0.37043900  0.15158300  1
  O  O1  1  0.62956100  0.69585600  0.34841700  1
  O  O2  1  0.69585600  0.62956100  0.84841700  1
  O  O3  1  0.37043900  0.30414400  0.65158300  1
  O  O4  1  0.40951300  0.07057400  0.08167500  1
  O  O5  1  0.92942600  0.59048700  0.41832500  1
  O  O6  1  0.59048700  0.92942600  0.91832500  1
  O  O7  1  0.07057400  0.40951300  0.58167500  1
  O  O8  1  0.02186900  0.37584500  0.10397700  1
  O  O9  1  0.62415500  0.97813100  0.39602300  1
  O  O10  1  0.97813100  0.62415500  0.89602300  1
  O  O11  1  0.37584500  0.02186900  0.60397700  1
  O  O12  1  0.27619300  0.43433600  0.01774400  1
  O  O13  1  0.56566400  0.72380700  0.48225600  1
  O  O14  1  0.72380700  0.56566400  0.98225600  1
  O  O15  1  0.43433600  0.27619300  0.51774400  1
  O  O16  1  0.38509700  0.78493500  0.21222600  1
  O  O17  1  0.21506500  0.61490300  0.28777400  1
  O  O18  1  0.61490300  0.21506500  0.78777400  1
  O  O19  1  0.78493500  0.38509700  0.71222600  1
  O  O20  1  0.01241600  0.91901300  0.19299900  1
  O  O21  1  0.08098700  0.98758400  0.30700100  1
  O  O22  1  0.98758400  0.08098700  0.80700100  1
  O  O23  1  0.91901300  0.01241600  0.69299900  1
  O  O24  1  0.67027900  0.35814200  0.13973500  1
  O  O25  1  0.64185800  0.32972100  0.36026500  1
  O  O26  1  0.32972100  0.64185800  0.86026500  1
  O  O27  1  0.35814200  0.67027900  0.63973500  1
  O  O28  1  0.29959300  0.78540100  0.06317000  1
  O  O29  1  0.21459900  0.70040700  0.43683000  1
  O  O30  1  0.70040700  0.21459900  0.93683000  1
  O  O31  1  0.78540100  0.29959300  0.56317000  1
  O  O32  1  0.76285100  0.75104700  0.20139900  1
  O  O33  1  0.24895300  0.23714900  0.29860100  1
  O  O34  1  0.23714900  0.24895300  0.79860100  1
  O  O35  1  0.75104700  0.76285100  0.70139900  1
  O  O36  1  0.85854800  0.82374900  0.04276000  1
  O  O37  1  0.17625100  0.14145200  0.45724000  1
  O  O38  1  0.14145200  0.17625100  0.95724000  1
  O  O39  1  0.82374900  0.85854800  0.54276000  1
loop_
_geom_bond_atom_site_label_1
_geom_bond_atom_site_label_2
_geom_bond_distance
_geom_bond_site_symmetry_2
H0 O24 0.987128 1_555
H1 O25 0.987128 1_555
H2 O26 0.987128 1_555
H3 O27 0.987128 1_555
H4 O24 0.996835 1_555
H4 O0 1.689838 1_555
H5 O25 0.996835 1_555
H5 O1 1.689838 1_555
H6 O26 0.996835 1_555
H6 O2 1.689838 1_555
H7 O27 0.996835 1_555
H7 O3 1.689838 1_555
H8 O28 0.998109 1_555
H9 O29 0.998109 1_555
H10 O30 0.998109 1_555
H11 O31 0.998109 1_555
H12 O28 0.984005 1_555
H13 O29 0.984005 1_555
H14 O30 0.984005 1_555
H15 O31 0.984005 1_555
H16 O32 0.991763 1_555
H16 O1 1.750826 1_555
H17 O33 0.991763 1_555
H17 O0 1.750826 1_555
H18 O34 0.991763 1_555
H18 O3 1.750826 1_555
H19 O35 0.991763 1_555
H19 O2 1.750826 1_555
H20 O32 0.987284 1_555
H21 O33 0.987284 1_555
H22 O34 0.987284 1_555
H23 O35 0.987284 1_555
H24 O36 0.987811 1_555
H25 O37 0.987811 1_555
H26 O38 0.987811 1_555
H27 O39 0.987811 1_555
H28 O36 0.986662 1_455
H29 O37 0.986662 1_565
H30 O38 0.986662 1_655
H31 O39 0.986662 1_545
O0 S0 1.477917 1_555
O1 S1 1.477917 1_555
O2 S2 1.477917 1_555
O3 S3 1.477917 1_555
O4 S0 1.476720 1_555
O4 Y0 2.308884 1_545
O5 S1 1.476720 1_555
O5 Y1 2.308884 1_655
O6 S2 1.476720 1_555
O6 Y2 2.308884 1_565
O7 S3 1.476720 1_555
O7 Y3 2.308884 1_455
O8 S0 1.483043 1_555
O8 Y0 2.367216 1_455
O9 S1 1.483043 1_555
O9 Y1 2.367216 1_565
O10 S2 1.483043 1_555
O10 Y2 2.367216 1_655
O11 S3 1.483043 1_555
O11 Y3 2.367216 1_545
O12 S0 1.521158 1_555
O12 Y2 2.474813 1_554
O13 S1 1.521158 1_555
O13 Y3 2.474813 1_555
O14 S2 1.521158 1_555
O14 Y0 2.474813 1_556
O15 S3 1.521158 1_555
O15 Y1 2.474813 1_555
O16 S4 1.483471 1_555
O16 Y0 2.339111 1_555
O17 S4 1.483471 1_555
O17 Y1 2.339111 1_555
O18 S5 1.483471 1_555
O18 Y2 2.339111 1_555
O19 S5 1.483471 1_555
O19 Y3 2.339111 1_555
O20 S4 1.497345 1_555
O21 S4 1.497345 1_555
O22 S5 1.497345 1_555
O23 S5 1.497345 1_555
O24 Y0 2.359082 1_555
O25 Y1 2.359082 1_555
O26 Y2 2.359082 1_555
O27 Y3 2.359082 1_555
O28 Y0 2.516069 1_555
O29 Y1 2.516069 1_555
O30 Y2 2.516069 1_555
O31 Y3 2.516069 1_555
O32 Y0 2.322100 1_555
O33 Y1 2.322100 1_555
O34 Y2 2.322100 1_555
O35 Y3 2.322100 1_555
O36 Y0 2.406558 1_555
O37 Y1 2.406558 1_555
O38 Y2 2.406558 1_555
O39 Y3 2.406558 1_555
