# generated using pymatgen
data_Cd(BiO2)2
_symmetry_space_group_name_H-M   'P 1'
_cell_length_a   11.45048233
_cell_length_b   11.45048233
_cell_length_c   11.45048233
_cell_angle_alpha   99.93203960
_cell_angle_beta   99.93203960
_cell_angle_gamma   130.92269167
_symmetry_Int_Tables_number   1
_chemical_formula_structural   Cd(BiO2)2
_chemical_formula_sum   'Cd8 Bi16 O32'
_cell_volume   1031.92745476
_cell_formula_units_Z   8
loop_
 _symmetry_equiv_pos_site_id
 _symmetry_equiv_pos_as_xyz
  1  'x, y, z'
loop_
 _atom_site_type_symbol
 _atom_site_label
 _atom_site_symmetry_multiplicity
 _atom_site_fract_x
 _atom_site_fract_y
 _atom_site_fract_z
 _atom_site_occupancy
  Cd  Cd0  1  0.23433300  0.87500000  0.85933300  1
  Cd  Cd1  1  0.62500000  0.98433300  0.85933300  1
  Cd  Cd2  1  0.12500000  0.76566700  0.14066700  1
  Cd  Cd3  1  0.01566700  0.37500000  0.14066700  1
  Cd  Cd4  1  0.01566700  0.87500000  0.64066700  1
  Cd  Cd5  1  0.62500000  0.76566700  0.64066700  1
  Cd  Cd6  1  0.12500000  0.98433300  0.35933300  1
  Cd  Cd7  1  0.23433300  0.37500000  0.35933300  1
  Bi  Bi0  1  0.34203000  0.34203000  0.68405900  1
  Bi  Bi1  1  0.90797000  0.09203000  0.50000000  1
  Bi  Bi2  1  0.59203000  0.40797000  0.50000000  1
  Bi  Bi3  1  0.65797000  0.65797000  0.31594100  1
  Bi  Bi4  1  0.90797000  0.40797000  0.81594100  1
  Bi  Bi5  1  0.34203000  0.65797000  0.00000000  1
  Bi  Bi6  1  0.65797000  0.34203000  0.00000000  1
  Bi  Bi7  1  0.59203000  0.09203000  0.18405900  1
  Bi  Bi8  1  0.84872700  0.98975100  0.14102500  1
  Bi  Bi9  1  0.95770200  0.59872700  0.35897500  1
  Bi  Bi10  1  0.23975100  0.59872700  0.64102500  1
  Bi  Bi11  1  0.84872700  0.70770200  0.85897500  1
  Bi  Bi12  1  0.01024900  0.15127300  0.85897500  1
  Bi  Bi13  1  0.29229800  0.15127300  0.14102500  1
  Bi  Bi14  1  0.40127300  0.04229800  0.64102500  1
  Bi  Bi15  1  0.40127300  0.76024900  0.35897500  1
  O  O0  1  0.58756200  0.93831600  0.04300300  1
  O  O1  1  0.79455900  0.33756200  0.14924700  1
  O  O2  1  0.18831600  0.64531200  0.85075300  1
  O  O3  1  0.89531200  0.54455900  0.95699700  1
  O  O4  1  0.06168400  0.41243800  0.95699700  1
  O  O5  1  0.45544100  0.10468800  0.04300300  1
  O  O6  1  0.66243800  0.20544100  0.85075300  1
  O  O7  1  0.35468800  0.81168400  0.14924700  1
  O  O8  1  0.66243800  0.81168400  0.45699700  1
  O  O9  1  0.45544100  0.41243800  0.35075300  1
  O  O10  1  0.06168400  0.10468800  0.64924700  1
  O  O11  1  0.35468800  0.20544100  0.54300300  1
  O  O12  1  0.18831600  0.33756200  0.54300300  1
  O  O13  1  0.79455900  0.64531200  0.45699700  1
  O  O14  1  0.58756200  0.54455900  0.64924700  1
  O  O15  1  0.89531200  0.93831600  0.35075300  1
  O  O16  1  0.31166100  0.54071700  0.22905600  1
  O  O17  1  0.33260600  0.06166100  0.27094400  1
  O  O18  1  0.79071700  0.06166100  0.72905600  1
  O  O19  1  0.31166100  0.08260600  0.77094400  1
  O  O20  1  0.45928300  0.68833900  0.77094400  1
  O  O21  1  0.91739400  0.68833900  0.22905600  1
  O  O22  1  0.93833900  0.66739400  0.72905600  1
  O  O23  1  0.93833900  0.20928300  0.27094400  1
  O  O24  1  0.10702300  0.10702300  0.21404600  1
  O  O25  1  0.14297700  0.85702300  0.50000000  1
  O  O26  1  0.35702300  0.64297700  0.50000000  1
  O  O27  1  0.89297700  0.89297700  0.78595400  1
  O  O28  1  0.14297700  0.64297700  0.28595400  1
  O  O29  1  0.10702300  0.89297700  0.00000000  1
  O  O30  1  0.89297700  0.10702300  0.00000000  1
  O  O31  1  0.35702300  0.85702300  0.71404600  1
loop_
_geom_bond_atom_site_label_1
_geom_bond_atom_site_label_2
_geom_bond_distance
_geom_bond_site_symmetry_2
Cd0 O5 2.298228 1_566
Cd0 O2 2.298234 1_555
Cd0 O22 2.416791 1_455
Cd0 O19 2.416801 1_565
Cd0 O29 2.418787 1_556
Cd0 O31 2.418787 1_555
Cd1 O0 2.298225 1_556
Cd1 O6 2.298228 1_565
Cd1 O20 2.416791 1_555
Cd1 O18 2.416791 1_565
Cd1 O30 2.418787 1_566
Cd1 O31 2.418787 1_555
Cd2 O3 2.298228 1_454
Cd2 O7 2.298234 1_555
Cd2 O17 2.416791 1_565
Cd2 O21 2.416801 1_455
Cd2 O29 2.418787 1_555
Cd2 O28 2.418787 1_555
Cd3 O4 2.298225 1_554
Cd3 O1 2.298228 1_455
Cd3 O16 2.416791 1_555
Cd3 O23 2.416791 1_455
Cd3 O30 2.418787 1_455
Cd3 O28 2.418787 1_555
Cd4 O13 2.298228 1_455
Cd4 O10 2.298234 1_565
Cd4 O19 2.416791 1_565
Cd4 O22 2.416801 1_455
Cd4 O27 2.418787 1_455
Cd4 O25 2.418787 1_555
Cd5 O8 2.298225 1_555
Cd5 O14 2.298228 1_555
Cd5 O18 2.416791 1_565
Cd5 O20 2.416791 1_555
Cd5 O27 2.418787 1_555
Cd5 O26 2.418787 1_555
Cd6 O11 2.298228 1_565
Cd6 O15 2.298234 1_455
Cd6 O21 2.416791 1_455
Cd6 O17 2.416801 1_565
Cd6 O24 2.418787 1_565
Cd6 O25 2.418787 1_555
Cd7 O12 2.298225 1_555
Cd7 O9 2.298228 1_555
Cd7 O23 2.416791 1_455
Cd7 O16 2.416791 1_555
Cd7 O26 2.418787 1_555
Cd7 O24 2.418787 1_555
Bi0 O12 2.140599 1_555
Bi0 O11 2.140607 1_555
Bi0 O14 2.367501 1_555
Bi0 O10 2.367517 1_555
Bi1 O10 2.140607 1_655
Bi1 O15 2.140607 1_545
Bi1 O12 2.367513 1_655
Bi1 O8 2.367513 1_545
Bi2 O9 2.140614 1_555
Bi2 O14 2.140614 1_555
Bi2 O13 2.367507 1_555
Bi2 O11 2.367507 1_555
Bi3 O8 2.140599 1_555
Bi3 O13 2.140607 1_555
Bi3 O9 2.367501 1_555
Bi3 O15 2.367517 1_555
Bi4 O4 2.140599 1_655
Bi4 O3 2.140607 1_555
Bi4 O6 2.367501 1_555
Bi4 O2 2.367517 1_655
Bi5 O7 2.140607 1_555
Bi5 O2 2.140607 1_554
Bi5 O0 2.367513 1_555
Bi5 O4 2.367513 1_554
Bi6 O1 2.140614 1_555
Bi6 O6 2.140614 1_554
Bi6 O3 2.367507 1_554
Bi6 O5 2.367507 1_555
Bi7 O0 2.140599 1_545
Bi7 O5 2.140607 1_555
Bi7 O1 2.367501 1_555
Bi7 O7 2.367517 1_545
Bi8 O23 2.095028 1_565
Bi8 O24 2.192336 1_665
Bi8 O30 2.192346 1_565
Bi8 O15 2.618421 1_555
Bi8 O0 2.618446 1_555
Bi9 O21 2.095024 1_555
Bi9 O25 2.192340 1_655
Bi9 O28 2.192340 1_655
Bi9 O13 2.618433 1_555
Bi9 O1 2.618433 1_555
Bi10 O20 2.095028 1_555
Bi10 O31 2.192336 1_555
Bi10 O26 2.192346 1_555
Bi10 O2 2.618421 1_555
Bi10 O12 2.618446 1_555
Bi11 O22 2.095024 1_555
Bi11 O27 2.192340 1_555
Bi11 O29 2.192340 1_656
Bi11 O14 2.618433 1_555
Bi11 O3 2.618433 1_555
Bi12 O18 2.095028 1_455
Bi12 O27 2.192336 1_445
Bi12 O30 2.192346 1_456
Bi12 O10 2.618421 1_555
Bi12 O4 2.618446 1_555
Bi13 O17 2.095024 1_555
Bi13 O29 2.192340 1_545
Bi13 O24 2.192340 1_555
Bi13 O5 2.618433 1_555
Bi13 O9 2.618433 1_555
Bi14 O19 2.095024 1_555
Bi14 O31 2.192340 1_545
Bi14 O25 2.192340 1_545
Bi14 O11 2.618433 1_555
Bi14 O6 2.618433 1_555
Bi15 O16 2.095028 1_555
Bi15 O28 2.192336 1_555
Bi15 O26 2.192346 1_555
Bi15 O7 2.618421 1_555
Bi15 O8 2.618446 1_555
