# generated using pymatgen
data_Yb2(ZnGe)3
_symmetry_space_group_name_H-M   'P 1'
_cell_length_a   8.23080055
_cell_length_b   8.23080055
_cell_length_c   11.62030818
_cell_angle_alpha   54.80151119
_cell_angle_beta   54.80151119
_cell_angle_gamma   30.35857007
_symmetry_Int_Tables_number   1
_chemical_formula_structural   Yb2(ZnGe)3
_chemical_formula_sum   'Yb4 Zn6 Ge6'
_cell_volume   319.11749904
_cell_formula_units_Z   2
loop_
 _symmetry_equiv_pos_site_id
 _symmetry_equiv_pos_as_xyz
  1  'x, y, z'
loop_
 _atom_site_type_symbol
 _atom_site_label
 _atom_site_symmetry_multiplicity
 _atom_site_fract_x
 _atom_site_fract_y
 _atom_site_fract_z
 _atom_site_occupancy
  Yb  Yb0  1  0.56758600  0.56758600  0.09005500  1
  Yb  Yb1  1  0.43241400  0.43241400  0.90994500  1
  Yb  Yb2  1  0.26114200  0.26114200  0.33347300  1
  Yb  Yb3  1  0.73885800  0.73885800  0.66652700  1
  Zn  Zn0  1  0.76793600  0.76793600  0.10160300  1
  Zn  Zn1  1  0.06194100  0.06194100  0.67530100  1
  Zn  Zn2  1  0.23206400  0.23206400  0.89839700  1
  Zn  Zn3  1  0.41977700  0.41977700  0.64220000  1
  Zn  Zn4  1  0.93805900  0.93805900  0.32469900  1
  Zn  Zn5  1  0.58022300  0.58022300  0.35780000  1
  Ge  Ge0  1  0.91632100  0.91632100  0.12266000  1
  Ge  Ge1  1  0.84568800  0.84568800  0.82326600  1
  Ge  Ge2  1  0.08367900  0.08367900  0.87734000  1
  Ge  Ge3  1  0.61728500  0.61728500  0.54105700  1
  Ge  Ge4  1  0.15431200  0.15431200  0.17673400  1
  Ge  Ge5  1  0.38271500  0.38271500  0.45894300  1
loop_
_geom_bond_atom_site_label_1
_geom_bond_atom_site_label_2
_geom_bond_distance
_geom_bond_site_symmetry_2
Yb0 Zn2 3.079201 1_654
Yb0 Zn2 3.079201 1_564
Yb0 Zn4 3.100264 1_455
Yb0 Zn4 3.100264 1_545
Yb0 Zn5 3.235197 1_555
Yb0 Zn0 3.264936 1_555
Yb1 Zn0 3.079201 1_456
Yb1 Zn0 3.079201 1_546
Yb1 Zn1 3.100264 1_565
Yb1 Zn1 3.100264 1_655
Yb1 Zn3 3.235197 1_555
Yb1 Zn2 3.264936 1_555
Yb2 Zn1 3.282953 1_555
Yb2 Zn0 3.401286 1_455
Yb2 Zn0 3.401286 1_545
Yb2 Zn4 3.494707 1_545
Yb2 Zn4 3.494707 1_455
Yb3 Zn4 3.282953 1_555
Yb3 Zn2 3.401286 1_565
Yb3 Zn2 3.401286 1_655
Yb3 Zn1 3.494707 1_655
Yb3 Zn1 3.494707 1_565
Zn0 Zn5 2.674252 1_555
Zn2 Zn3 2.674252 1_555
Ge0 Ge2 2.478346 1_664
Ge0 Zn0 2.511254 1_555
Ge0 Zn4 2.568997 1_555
Ge0 Yb0 3.078303 1_655
Ge0 Yb0 3.078303 1_565
Ge0 Yb2 3.083787 1_565
Ge0 Yb2 3.083787 1_655
Ge0 Yb1 3.172543 1_564
Ge0 Yb1 3.172543 1_654
Ge1 Zn2 2.604426 1_655
Ge1 Zn2 2.604426 1_565
Ge1 Zn0 2.686002 1_556
Ge1 Zn3 2.738410 1_655
Ge1 Zn3 2.738410 1_565
Ge1 Zn1 2.775596 1_665
Ge1 Yb1 3.035687 1_565
Ge1 Yb1 3.035687 1_655
Ge1 Yb3 3.144911 1_555
Ge1 Yb0 3.573620 1_556
Ge2 Zn2 2.511254 1_555
Ge2 Zn1 2.568997 1_555
Ge2 Yb1 3.078303 1_455
Ge2 Yb1 3.078303 1_545
Ge2 Yb3 3.083787 1_455
Ge2 Yb3 3.083787 1_545
Ge2 Yb0 3.172543 1_546
Ge2 Yb0 3.172543 1_456
Ge3 Zn1 2.492564 1_655
Ge3 Zn1 2.492564 1_565
Ge3 Zn5 2.525716 1_555
Ge3 Zn3 2.611950 1_555
Ge3 Yb2 3.016874 1_565
Ge3 Yb2 3.016874 1_655
Ge3 Yb3 3.036463 1_555
Ge3 Yb1 3.458691 1_555
Ge4 Zn0 2.604426 1_455
Ge4 Zn0 2.604426 1_545
Ge4 Zn2 2.686002 1_554
Ge4 Zn5 2.738410 1_455
Ge4 Zn5 2.738410 1_545
Ge4 Zn4 2.775596 1_445
Ge4 Yb0 3.035687 1_455
Ge4 Yb0 3.035687 1_545
Ge4 Yb2 3.144911 1_555
Ge4 Yb1 3.573620 1_554
Ge5 Zn4 2.492564 1_455
Ge5 Zn4 2.492564 1_545
Ge5 Zn3 2.525716 1_555
Ge5 Zn5 2.611950 1_555
Ge5 Yb3 3.016874 1_545
Ge5 Yb3 3.016874 1_455
Ge5 Yb2 3.036463 1_555
Ge5 Yb0 3.458691 1_555
