# generated using pymatgen
data_Zr5Si3
_symmetry_space_group_name_H-M   'P 1'
_cell_length_a   7.99291966
_cell_length_b   7.99291904
_cell_length_c   5.57157151
_cell_angle_alpha   90.00000000
_cell_angle_beta   90.00000000
_cell_angle_gamma   119.99999405
_symmetry_Int_Tables_number   1
_chemical_formula_structural   Zr5Si3
_chemical_formula_sum   'Zr10 Si6'
_cell_volume   308.26145825
_cell_formula_units_Z   2
loop_
 _symmetry_equiv_pos_site_id
 _symmetry_equiv_pos_as_xyz
  1  'x, y, z'
loop_
 _atom_site_type_symbol
 _atom_site_label
 _atom_site_symmetry_multiplicity
 _atom_site_fract_x
 _atom_site_fract_y
 _atom_site_fract_z
 _atom_site_occupancy
  Zr  Zr0  1  0.74524632  0.74524632  0.25000000  1
  Zr  Zr1  1  -0.00000000  0.25475368  0.25000000  1
  Zr  Zr2  1  0.74524632  0.00000000  0.75000000  1
  Zr  Zr3  1  0.33333300  0.66666700  0.50000000  1
  Zr  Zr4  1  0.25475368  -0.00000000  0.25000000  1
  Zr  Zr5  1  0.66666700  0.33333300  0.50000000  1
  Zr  Zr6  1  0.00000000  0.74524632  0.75000000  1
  Zr  Zr7  1  0.33333300  0.66666700  -0.00000000  1
  Zr  Zr8  1  0.25475368  0.25475368  0.75000000  1
  Zr  Zr9  1  0.66666700  0.33333300  -0.00000000  1
  Si  Si0  1  0.61119636  0.61119636  0.75000000  1
  Si  Si1  1  0.38880364  -0.00000000  0.75000000  1
  Si  Si2  1  0.61119636  0.00000000  0.25000000  1
  Si  Si3  1  -0.00000000  0.38880364  0.75000000  1
  Si  Si4  1  0.38880364  0.38880364  0.25000000  1
  Si  Si5  1  0.00000000  0.61119636  0.25000000  1
loop_
_geom_bond_atom_site_label_1
_geom_bond_atom_site_label_2
_geom_bond_distance
_geom_bond_site_symmetry_2
Si0 Zr2 2.734216 1_565
Si0 Zr6 2.734216 1_655
Si0 Zr5 2.837958 1_555
Si0 Zr9 2.837958 1_556
Si0 Zr3 2.837958 1_555
Si0 Zr7 2.837958 1_556
Si0 Zr8 2.849018 1_555
Si0 Zr0 2.984729 1_556
Si0 Zr0 2.984729 1_555
Si1 Zr8 2.734216 1_555
Si1 Zr6 2.734216 1_545
Si1 Zr3 2.837951 1_545
Si1 Zr7 2.837951 1_546
Si1 Zr5 2.837954 1_555
Si1 Zr9 2.837954 1_556
Si1 Zr2 2.849018 1_555
Si1 Zr4 2.984729 1_555
Si1 Zr4 2.984729 1_556
Si2 Zr0 2.734216 1_545
Si2 Zr1 2.734216 1_655
Si2 Zr5 2.837951 1_555
Si2 Zr9 2.837951 1_555
Si2 Zr3 2.837954 1_545
Si2 Zr7 2.837954 1_545
Si2 Zr4 2.849018 1_555
Si2 Zr2 2.984729 1_554
Si2 Zr2 2.984729 1_555
Si3 Zr8 2.734216 1_555
Si3 Zr2 2.734216 1_455
Si3 Zr9 2.837951 1_456
Si3 Zr5 2.837951 1_455
Si3 Zr3 2.837954 1_555
Si3 Zr7 2.837954 1_556
Si3 Zr6 2.849017 1_555
Si3 Zr1 2.984729 1_555
Si3 Zr1 2.984729 1_556
Si4 Zr4 2.734216 1_555
Si4 Zr1 2.734216 1_555
Si4 Zr3 2.837958 1_555
Si4 Zr7 2.837958 1_555
Si4 Zr5 2.837958 1_555
Si4 Zr9 2.837958 1_555
Si4 Zr0 2.849018 1_555
Si4 Zr8 2.984729 1_554
Si4 Zr8 2.984729 1_555
Si5 Zr0 2.734216 1_455
Si5 Zr4 2.734216 1_565
Si5 Zr3 2.837951 1_555
Si5 Zr7 2.837951 1_555
Si5 Zr5 2.837954 1_455
Si5 Zr9 2.837954 1_455
Si5 Zr1 2.849017 1_555
Si5 Zr6 2.984729 1_554
Si5 Zr6 2.984729 1_555
