# generated using pymatgen
data_CsGaS3
_symmetry_space_group_name_H-M   'P 1'
_cell_length_a   6.46740747
_cell_length_b   7.65688873
_cell_length_c   12.64182486
_cell_angle_alpha   90.00000000
_cell_angle_beta   90.00000000
_cell_angle_gamma   107.62892839
_symmetry_Int_Tables_number   1
_chemical_formula_structural   CsGaS3
_chemical_formula_sum   'Cs4 Ga4 S12'
_cell_volume   596.62643548
_cell_formula_units_Z   4
loop_
 _symmetry_equiv_pos_site_id
 _symmetry_equiv_pos_as_xyz
  1  'x, y, z'
loop_
 _atom_site_type_symbol
 _atom_site_label
 _atom_site_symmetry_multiplicity
 _atom_site_fract_x
 _atom_site_fract_y
 _atom_site_fract_z
 _atom_site_occupancy
  Cs  Cs0  1  0.28145313  0.25272391  0.91636931  1
  Cs  Cs1  1  0.78145313  0.25272391  0.58363069  1
  Cs  Cs2  1  0.21854687  0.74727609  0.41636931  1
  Cs  Cs3  1  0.71854687  0.74727609  0.08363069  1
  Ga  Ga0  1  0.35550491  0.80896578  0.77133178  1
  Ga  Ga1  1  0.14449609  0.19103422  0.27133178  1
  Ga  Ga2  1  0.85550391  0.80896578  0.72866822  1
  Ga  Ga3  1  0.64449609  0.19103422  0.22866822  1
  S  S0  1  0.81188467  0.02108276  0.32453531  1
  S  S1  1  0.31188467  0.02108276  0.17546469  1
  S  S2  1  0.36679306  0.55819734  0.67310019  1
  S  S3  1  0.64247475  0.69280390  0.58506979  1
  S  S4  1  0.35752525  0.30719610  0.41493021  1
  S  S5  1  0.14247475  0.69280390  0.91493021  1
  S  S6  1  0.86679306  0.55819734  0.82689981  1
  S  S7  1  0.13320694  0.44180266  0.17310019  1
  S  S8  1  0.68811533  0.97891724  0.82453531  1
  S  S9  1  0.18811533  0.97891724  0.67546469  1
  S  S10  1  0.63320694  0.44180266  0.32689981  1
  S  S11  1  0.85752525  0.30719610  0.08506979  1
loop_
_geom_bond_atom_site_label_1
_geom_bond_atom_site_label_2
_geom_bond_distance
_geom_bond_site_symmetry_2
Cs0 S11 3.596100 1_456
Cs0 S9 3.642540 1_545
Cs0 S5 3.741288 1_555
Cs0 S1 3.758258 1_556
Cs0 S7 3.793357 1_556
Cs0 S2 3.801497 1_555
Cs0 S8 3.949121 1_445
Cs0 S6 3.964583 1_555
Cs0 S8 4.000013 1_545
Cs1 S4 3.596100 1_555
Cs1 S8 3.642540 1_545
Cs1 S3 3.741288 1_555
Cs1 S0 3.758258 1_555
Cs1 S10 3.793357 1_555
Cs1 S6 3.801497 1_555
Cs1 S9 3.949121 1_545
Cs1 S2 3.964583 1_655
Cs1 S9 4.000013 1_645
Cs2 S3 3.596100 1_555
Cs2 S1 3.642540 1_565
Cs2 S4 3.741288 1_555
Cs2 S9 3.758258 1_555
Cs2 S2 3.793357 1_555
Cs2 S7 3.801497 1_555
Cs2 S0 3.949121 1_565
Cs2 S10 3.964583 1_455
Cs2 S0 4.000013 1_465
Cs3 S5 3.596100 1_654
Cs3 S0 3.642540 1_565
Cs3 S11 3.741288 1_555
Cs3 S8 3.758258 1_554
Cs3 S6 3.793357 1_554
Cs3 S10 3.801497 1_555
Cs3 S1 3.949121 1_665
Cs3 S7 3.964583 1_555
Cs3 S1 4.000013 1_565
Ga0 S8 2.253350 1_555
Ga0 S9 2.277592 1_555
Ga0 S5 2.289660 1_555
Ga0 S2 2.306334 1_555
Ga1 S0 2.253355 1_455
Ga1 S1 2.277588 1_555
Ga1 S4 2.289657 1_555
Ga1 S7 2.306336 1_555
Ga2 S9 2.253355 1_655
Ga2 S8 2.277588 1_555
Ga2 S3 2.289657 1_555
Ga2 S6 2.306336 1_555
Ga3 S1 2.253355 1_555
Ga3 S0 2.277588 1_555
Ga3 S11 2.289657 1_555
Ga3 S10 2.306336 1_555
