# generated using pymatgen
data_Tb2Fe14B
_symmetry_space_group_name_H-M   'P 1'
_cell_length_a   8.73650200
_cell_length_b   8.73650200
_cell_length_c   11.92804700
_cell_angle_alpha   90.00000000
_cell_angle_beta   90.00000000
_cell_angle_gamma   90.00000000
_symmetry_Int_Tables_number   1
_chemical_formula_structural   Tb2Fe14B
_chemical_formula_sum   'Tb8 Fe56 B4'
_cell_volume   910.42568806
_cell_formula_units_Z   4
loop_
 _symmetry_equiv_pos_site_id
 _symmetry_equiv_pos_as_xyz
  1  'x, y, z'
loop_
 _atom_site_type_symbol
 _atom_site_label
 _atom_site_symmetry_multiplicity
 _atom_site_fract_x
 _atom_site_fract_y
 _atom_site_fract_z
 _atom_site_occupancy
  Tb  Tb0  1  0.35646200  0.35646200  0.00000000  1
  Tb  Tb1  1  0.14353800  0.85646200  0.50000000  1
  Tb  Tb2  1  0.85646200  0.14353800  0.50000000  1
  Tb  Tb3  1  0.64353800  0.64353800  0.00000000  1
  Tb  Tb4  1  0.76752100  0.23247900  0.00000000  1
  Tb  Tb5  1  0.26752100  0.26752100  0.50000000  1
  Tb  Tb6  1  0.73247900  0.73247900  0.50000000  1
  Tb  Tb7  1  0.23247900  0.76752100  0.00000000  1
  Fe  Fe0  1  0.00000000  0.50000000  0.00000000  1
  Fe  Fe1  1  0.00000000  0.50000000  0.50000000  1
  Fe  Fe2  1  0.50000000  0.00000000  0.50000000  1
  Fe  Fe3  1  0.50000000  0.00000000  0.00000000  1
  Fe  Fe4  1  0.00000000  0.00000000  0.11588300  1
  Fe  Fe5  1  0.50000000  0.50000000  0.61588300  1
  Fe  Fe6  1  0.50000000  0.50000000  0.38411700  1
  Fe  Fe7  1  0.00000000  0.00000000  0.88411700  1
  Fe  Fe8  1  0.09741100  0.09741100  0.29910800  1
  Fe  Fe9  1  0.40258900  0.59741100  0.79910800  1
  Fe  Fe10  1  0.59741100  0.40258900  0.79910800  1
  Fe  Fe11  1  0.59741100  0.40258900  0.20089200  1
  Fe  Fe12  1  0.40258900  0.59741100  0.20089200  1
  Fe  Fe13  1  0.90258900  0.90258900  0.29910800  1
  Fe  Fe14  1  0.09741100  0.09741100  0.70089200  1
  Fe  Fe15  1  0.90258900  0.90258900  0.70089200  1
  Fe  Fe16  1  0.31723900  0.31723900  0.25416700  1
  Fe  Fe17  1  0.18276100  0.81723900  0.75416700  1
  Fe  Fe18  1  0.81723900  0.18276100  0.75416700  1
  Fe  Fe19  1  0.81723900  0.18276100  0.24583300  1
  Fe  Fe20  1  0.18276100  0.81723900  0.24583300  1
  Fe  Fe21  1  0.68276100  0.68276100  0.25416700  1
  Fe  Fe22  1  0.31723900  0.31723900  0.74583300  1
  Fe  Fe23  1  0.68276100  0.68276100  0.74583300  1
  Fe  Fe24  1  0.56640800  0.22453700  0.37361300  1
  Fe  Fe25  1  0.27546300  0.06640800  0.87361300  1
  Fe  Fe26  1  0.72453700  0.93359200  0.87361300  1
  Fe  Fe27  1  0.06640800  0.27546300  0.12638700  1
  Fe  Fe28  1  0.93359200  0.72453700  0.12638700  1
  Fe  Fe29  1  0.43359200  0.77546300  0.37361300  1
  Fe  Fe30  1  0.22453700  0.56640800  0.62638700  1
  Fe  Fe31  1  0.77546300  0.43359200  0.62638700  1
  Fe  Fe32  1  0.43359200  0.77546300  0.62638700  1
  Fe  Fe33  1  0.72453700  0.93359200  0.12638700  1
  Fe  Fe34  1  0.27546300  0.06640800  0.12638700  1
  Fe  Fe35  1  0.93359200  0.72453700  0.87361300  1
  Fe  Fe36  1  0.06640800  0.27546300  0.87361300  1
  Fe  Fe37  1  0.56640800  0.22453700  0.62638700  1
  Fe  Fe38  1  0.77546300  0.43359200  0.37361300  1
  Fe  Fe39  1  0.22453700  0.56640800  0.37361300  1
  Fe  Fe40  1  0.14094900  0.53700900  0.17490800  1
  Fe  Fe41  1  0.96299100  0.64094900  0.67490800  1
  Fe  Fe42  1  0.03700900  0.35905100  0.67490800  1
  Fe  Fe43  1  0.64094900  0.96299100  0.32509200  1
  Fe  Fe44  1  0.35905100  0.03700900  0.32509200  1
  Fe  Fe45  1  0.85905100  0.46299100  0.17490800  1
  Fe  Fe46  1  0.53700900  0.14094900  0.82509200  1
  Fe  Fe47  1  0.46299100  0.85905100  0.82509200  1
  Fe  Fe48  1  0.85905100  0.46299100  0.82509200  1
  Fe  Fe49  1  0.03700900  0.35905100  0.32509200  1
  Fe  Fe50  1  0.96299100  0.64094900  0.32509200  1
  Fe  Fe51  1  0.35905100  0.03700900  0.67490800  1
  Fe  Fe52  1  0.64094900  0.96299100  0.67490800  1
  Fe  Fe53  1  0.14094900  0.53700900  0.82509200  1
  Fe  Fe54  1  0.46299100  0.85905100  0.17490800  1
  Fe  Fe55  1  0.53700900  0.14094900  0.17490800  1
  B  B0  1  0.12428100  0.12428100  0.00000000  1
  B  B1  1  0.37571900  0.62428100  0.50000000  1
  B  B2  1  0.62428100  0.37571900  0.50000000  1
  B  B3  1  0.87571900  0.87571900  0.00000000  1
loop_
_geom_bond_atom_site_label_1
_geom_bond_atom_site_label_2
_geom_bond_distance
_geom_bond_site_symmetry_2
Fe0 Fe53 2.444092 1_554
Fe0 Fe48 2.444092 1_454
Fe0 Fe40 2.444092 1_555
Fe0 Fe45 2.444092 1_455
Fe0 Fe36 2.541151 1_554
Fe0 Fe28 2.541151 1_455
Fe0 Fe27 2.541151 1_555
Fe0 Fe35 2.541151 1_454
Fe0 Tb4 3.096396 1_455
Fe0 Tb7 3.096396 1_555
Fe0 Tb3 3.357231 1_455
Fe0 Tb0 3.357231 1_555
Fe1 Fe41 2.444092 1_455
Fe1 Fe42 2.444092 1_555
Fe1 Fe49 2.444092 1_555
Fe1 Fe50 2.444092 1_455
Fe1 Fe39 2.541151 1_555
Fe1 Fe30 2.541151 1_555
Fe1 Fe31 2.541151 1_455
Fe1 Fe38 2.541151 1_455
Fe1 Tb5 3.096396 1_555
Fe1 Tb6 3.096396 1_455
Fe1 Tb1 3.357231 1_555
Fe1 Tb2 3.357231 1_455
Fe2 Fe52 2.444092 1_545
Fe2 Fe51 2.444092 1_555
Fe2 Fe43 2.444092 1_545
Fe2 Fe44 2.444092 1_555
Fe2 Fe29 2.541151 1_545
Fe2 Fe24 2.541151 1_555
Fe2 Fe32 2.541151 1_545
Fe2 Fe37 2.541151 1_555
Fe2 Tb5 3.096396 1_555
Fe2 Tb6 3.096396 1_545
Fe2 Tb2 3.357231 1_555
Fe2 Tb1 3.357231 1_545
Fe3 Fe47 2.444092 1_544
Fe3 Fe46 2.444092 1_554
Fe3 Fe55 2.444092 1_555
Fe3 Fe54 2.444092 1_545
Fe3 Fe33 2.541151 1_545
Fe3 Fe34 2.541151 1_555
Fe3 Tb7 3.096396 1_545
Fe3 Tb4 3.096396 1_555
Fe3 Tb0 3.357231 1_555
Fe3 Tb3 3.357231 1_545
Fe4 Fe8 2.494993 1_555
Fe4 Tb7 3.187631 1_545
Fe4 Tb4 3.187631 1_455
Fe5 Fe9 2.494993 1_555
Fe5 Tb5 3.187631 1_555
Fe5 Tb6 3.187631 1_555
Fe6 Tb5 3.187631 1_555
Fe6 Tb6 3.187631 1_555
Fe7 Tb7 3.187631 1_546
Fe7 Tb4 3.187631 1_456
Fe8 Tb5 3.187380 1_555
Fe8 Tb1 3.214911 1_545
Fe8 Tb2 3.214911 1_455
Fe9 Tb7 3.187380 1_556
Fe9 Tb0 3.214911 1_556
Fe9 Tb3 3.214911 1_556
Fe10 Fe46 2.366326 1_555
Fe10 Fe48 2.366326 1_555
Fe10 Fe9 2.407080 1_555
Fe10 Fe5 2.494993 1_555
Fe10 Fe31 2.595694 1_555
Fe10 Fe37 2.595694 1_555
Fe10 Fe23 2.636508 1_555
Fe10 Fe22 2.636508 1_555
Fe10 Fe18 2.768431 1_555
Fe10 Tb4 3.187380 1_556
Fe10 Tb0 3.214911 1_556
Fe10 Tb3 3.214911 1_556
Fe11 Fe55 2.366326 1_555
Fe11 Fe45 2.366326 1_555
Fe11 Fe12 2.407080 1_555
Fe11 Fe6 2.494993 1_555
Fe11 Fe38 2.595694 1_555
Fe11 Fe24 2.595694 1_555
Fe11 Fe21 2.636508 1_555
Fe11 Fe16 2.636508 1_555
Fe11 Fe19 2.768431 1_555
Fe11 Tb4 3.187380 1_555
Fe11 Tb0 3.214911 1_555
Fe11 Tb3 3.214911 1_555
Fe12 Fe40 2.366326 1_555
Fe12 Fe54 2.366326 1_555
Fe12 Fe6 2.494993 1_555
Fe12 Fe39 2.595694 1_555
Fe12 Fe29 2.595694 1_555
Fe12 Fe21 2.636508 1_555
Fe12 Fe16 2.636508 1_555
Fe12 Fe20 2.768431 1_555
Fe12 Tb7 3.187380 1_555
Fe12 Tb0 3.214911 1_555
Fe12 Tb3 3.214911 1_555
Fe13 Fe43 2.366326 1_555
Fe13 Fe50 2.366326 1_555
Fe13 Fe8 2.407080 1_665
Fe13 Fe4 2.494993 1_665
Fe13 Fe28 2.595694 1_555
Fe13 Fe33 2.595694 1_555
Fe13 Fe19 2.636508 1_565
Fe13 Fe20 2.636508 1_655
Fe13 Fe21 2.768431 1_555
Fe13 Tb6 3.187380 1_555
Fe13 Tb1 3.214911 1_655
Fe13 Tb2 3.214911 1_565
Fe14 Fe51 2.366326 1_555
Fe14 Fe42 2.366326 1_555
Fe14 Fe15 2.407080 1_445
Fe14 Fe7 2.494993 1_555
Fe14 Fe36 2.595694 1_555
Fe14 Fe25 2.595694 1_555
Fe14 Fe18 2.636508 1_455
Fe14 Fe17 2.636508 1_545
Fe14 Fe22 2.768431 1_555
Fe14 Tb5 3.187380 1_555
Fe14 Tb2 3.214911 1_455
Fe14 Tb1 3.214911 1_545
Fe15 Fe52 2.366326 1_555
Fe15 Fe41 2.366326 1_555
Fe15 Fe7 2.494993 1_665
Fe15 Fe26 2.595694 1_555
Fe15 Fe35 2.595694 1_555
Fe15 Fe17 2.636508 1_655
Fe15 Fe18 2.636508 1_565
Fe15 Fe23 2.768431 1_555
Fe15 Tb6 3.187380 1_555
Fe15 Tb2 3.214911 1_565
Fe15 Tb1 3.214911 1_655
Fe16 Fe49 2.615909 1_555
Fe16 Fe44 2.615909 1_555
Fe16 Fe55 2.636732 1_555
Fe16 Fe40 2.636732 1_555
Fe16 Fe34 2.694153 1_555
Fe16 Fe27 2.694153 1_555
Fe16 Fe39 2.724812 1_555
Fe16 Fe24 2.724812 1_555
Fe16 Fe6 2.738887 1_555
Fe16 Fe8 2.768431 1_555
Fe16 Tb5 2.995959 1_555
Fe16 Tb0 3.070203 1_555
Fe17 Fe47 2.615909 1_555
Fe17 Fe53 2.615909 1_555
Fe17 Fe51 2.636732 1_565
Fe17 Fe41 2.636732 1_455
Fe17 Fe32 2.694153 1_555
Fe17 Fe30 2.694153 1_555
Fe17 Fe25 2.724812 1_565
Fe17 Fe35 2.724812 1_455
Fe17 Fe7 2.738887 1_565
Fe17 Fe9 2.768431 1_555
Fe17 Tb7 2.995959 1_556
Fe17 Tb1 3.070203 1_555
Fe18 Fe48 2.615909 1_555
Fe18 Fe46 2.615909 1_555
Fe18 Fe52 2.636732 1_545
Fe18 Fe42 2.636732 1_655
Fe18 Fe31 2.694153 1_555
Fe18 Fe37 2.694153 1_555
Fe18 Fe36 2.724812 1_655
Fe18 Fe26 2.724812 1_545
Fe18 Fe7 2.738887 1_655
Fe18 Tb4 2.995959 1_556
Fe18 Tb2 3.070203 1_555
Fe19 Fe45 2.615909 1_555
Fe19 Fe55 2.615909 1_555
Fe19 Fe8 2.636508 1_655
Fe19 Fe43 2.636732 1_545
Fe19 Fe49 2.636732 1_655
Fe19 Fe38 2.694153 1_555
Fe19 Fe24 2.694153 1_555
Fe19 Fe27 2.724812 1_655
Fe19 Fe33 2.724812 1_545
Fe19 Fe4 2.738887 1_655
Fe19 Tb4 2.995959 1_555
Fe19 Tb2 3.070203 1_555
Fe20 Fe54 2.615909 1_555
Fe20 Fe40 2.615909 1_555
Fe20 Fe8 2.636508 1_565
Fe20 Fe50 2.636732 1_455
Fe20 Fe44 2.636732 1_565
Fe20 Fe29 2.694153 1_555
Fe20 Fe39 2.694153 1_555
Fe20 Fe34 2.724812 1_565
Fe20 Fe28 2.724812 1_455
Fe20 Fe4 2.738887 1_565
Fe20 Tb7 2.995959 1_555
Fe20 Tb1 3.070203 1_555
Fe21 Fe50 2.615909 1_555
Fe21 Fe43 2.615909 1_555
Fe21 Fe45 2.636732 1_555
Fe21 Fe54 2.636732 1_555
Fe21 Fe28 2.694153 1_555
Fe21 Fe33 2.694153 1_555
Fe21 Fe38 2.724812 1_555
Fe21 Fe29 2.724812 1_555
Fe21 Fe6 2.738887 1_555
Fe21 Tb6 2.995959 1_555
Fe21 Tb3 3.070203 1_555
Fe22 Fe42 2.615909 1_555
Fe22 Fe51 2.615909 1_555
Fe22 Fe9 2.636508 1_555
Fe22 Fe53 2.636732 1_555
Fe22 Fe46 2.636732 1_555
Fe22 Fe25 2.694153 1_555
Fe22 Fe36 2.694153 1_555
Fe22 Fe37 2.724812 1_555
Fe22 Fe30 2.724812 1_555
Fe22 Fe5 2.738887 1_555
Fe22 Tb5 2.995959 1_555
Fe22 Tb0 3.070203 1_556
Fe23 Fe41 2.615909 1_555
Fe23 Fe52 2.615909 1_555
Fe23 Fe9 2.636508 1_555
Fe23 Fe48 2.636732 1_555
Fe23 Fe47 2.636732 1_555
Fe23 Fe35 2.694153 1_555
Fe23 Fe26 2.694153 1_555
Fe23 Fe31 2.724812 1_555
Fe23 Fe32 2.724812 1_555
Fe23 Fe5 2.738887 1_555
Fe23 Tb6 2.995959 1_555
Fe23 Tb3 3.070203 1_556
Fe24 Fe43 2.445460 1_545
Fe24 Fe55 2.493377 1_555
Fe24 Fe44 2.510164 1_555
Fe24 Tb2 3.032313 1_555
Fe24 Tb5 3.038459 1_555
Fe25 Fe46 2.445460 1_555
Fe25 Fe51 2.493377 1_555
Fe25 Fe47 2.510164 1_545
Fe25 Fe3 2.541151 1_556
Fe25 Tb0 3.032313 1_556
Fe25 Tb7 3.038459 1_546
Fe26 Fe47 2.445460 1_555
Fe26 Fe52 2.493377 1_555
Fe26 Fe46 2.510164 1_565
Fe26 Fe3 2.541151 1_566
Fe26 Tb3 3.032313 1_556
Fe26 Tb4 3.038459 1_566
Fe27 Fe40 2.445460 1_555
Fe27 Fe49 2.493377 1_555
Fe27 Fe45 2.510164 1_455
Fe27 Fe8 2.595694 1_555
Fe27 Tb0 3.032313 1_555
Fe27 Tb4 3.038459 1_455
Fe28 Fe45 2.445460 1_555
Fe28 Fe50 2.493377 1_555
Fe28 Fe40 2.510164 1_655
Fe28 Tb3 3.032313 1_555
Fe28 Tb7 3.038459 1_655
Fe29 Fe44 2.445460 1_565
Fe29 Fe54 2.493377 1_555
Fe29 Fe43 2.510164 1_555
Fe29 Tb1 3.032313 1_555
Fe29 Tb6 3.038459 1_555
Fe30 Fe41 2.445460 1_455
Fe30 Fe53 2.493377 1_555
Fe30 Fe42 2.510164 1_555
Fe30 Fe9 2.595694 1_555
Fe30 Tb1 3.032313 1_555
Fe30 Tb5 3.038459 1_555
Fe31 Fe42 2.445460 1_655
Fe31 Fe48 2.493377 1_555
Fe31 Fe41 2.510164 1_555
Fe31 Tb2 3.032313 1_555
Fe31 Tb6 3.038459 1_555
Fe32 Fe51 2.445460 1_565
Fe32 Fe47 2.493377 1_555
Fe32 Fe52 2.510164 1_555
Fe32 Fe9 2.595694 1_555
Fe32 Tb1 3.032313 1_555
Fe32 Tb6 3.038459 1_555
Fe33 Fe54 2.445460 1_555
Fe33 Fe43 2.493377 1_555
Fe33 Fe55 2.510164 1_565
Fe33 Tb3 3.032313 1_555
Fe33 Tb4 3.038459 1_565
Fe34 Fe55 2.445460 1_555
Fe34 Fe44 2.493377 1_555
Fe34 Fe54 2.510164 1_545
Fe34 Fe8 2.595694 1_555
Fe34 Tb0 3.032313 1_555
Fe34 Tb7 3.038459 1_545
Fe35 Fe48 2.445460 1_555
Fe35 Fe41 2.493377 1_555
Fe35 Fe53 2.510164 1_655
Fe35 Tb3 3.032313 1_556
Fe35 Tb7 3.038459 1_656
Fe36 Fe53 2.445460 1_555
Fe36 Fe42 2.493377 1_555
Fe36 Fe48 2.510164 1_455
Fe36 Tb0 3.032313 1_556
Fe36 Tb4 3.038459 1_456
Fe37 Fe52 2.445460 1_545
Fe37 Fe46 2.493377 1_555
Fe37 Fe51 2.510164 1_555
Fe37 Tb2 3.032313 1_555
Fe37 Tb5 3.038459 1_555
Fe38 Fe49 2.445460 1_655
Fe38 Fe45 2.493377 1_555
Fe38 Fe50 2.510164 1_555
Fe38 Tb2 3.032313 1_555
Fe38 Tb6 3.038459 1_555
Fe39 Fe50 2.445460 1_455
Fe39 Fe40 2.493377 1_555
Fe39 Fe49 2.510164 1_555
Fe39 Tb1 3.032313 1_555
Fe39 Tb5 3.038459 1_555
Fe40 Fe49 2.539863 1_555
Fe40 Fe50 2.539863 1_455
Fe40 Fe45 2.546284 1_455
Fe40 Tb7 3.007957 1_555
Fe40 Tb0 3.222696 1_555
Fe41 Fe53 2.539863 1_655
Fe41 Fe48 2.539863 1_555
Fe41 Fe42 2.546284 1_655
Fe41 Tb6 3.007957 1_555
Fe41 Tb1 3.222696 1_655
Fe42 Fe48 2.539863 1_455
Fe42 Fe53 2.539863 1_555
Fe42 Tb5 3.007957 1_555
Fe42 Tb2 3.222696 1_455
Fe43 Fe55 2.539863 1_565
Fe43 Fe54 2.539863 1_555
Fe43 Fe44 2.546284 1_565
Fe43 Tb6 3.007957 1_555
Fe43 Tb2 3.222696 1_565
Fe44 Fe8 2.366326 1_555
Fe44 Fe55 2.539863 1_555
Fe44 Fe54 2.539863 1_545
Fe44 Tb5 3.007957 1_555
Fe44 Tb1 3.222696 1_545
Fe45 Fe49 2.539863 1_655
Fe45 Fe50 2.539863 1_555
Fe45 Tb4 3.007957 1_555
Fe45 Tb3 3.222696 1_555
Fe46 Fe52 2.539863 1_545
Fe46 Fe51 2.539863 1_555
Fe46 Fe47 2.546284 1_545
Fe46 Tb4 3.007957 1_556
Fe46 Tb0 3.222696 1_556
Fe47 Fe9 2.366326 1_555
Fe47 Fe51 2.539863 1_565
Fe47 Fe52 2.539863 1_555
Fe47 Tb7 3.007957 1_556
Fe47 Tb3 3.222696 1_556
Fe48 Fe53 2.546284 1_655
Fe48 Tb4 3.007957 1_556
Fe48 Tb3 3.222696 1_556
Fe49 Fe8 2.366326 1_555
Fe49 Fe50 2.546284 1_455
Fe49 Tb5 3.007957 1_555
Fe49 Tb2 3.222696 1_455
Fe50 Tb6 3.007957 1_555
Fe50 Tb1 3.222696 1_655
Fe51 Fe52 2.546284 1_545
Fe51 Tb5 3.007957 1_555
Fe51 Tb1 3.222696 1_545
Fe52 Tb6 3.007957 1_555
Fe52 Tb2 3.222696 1_565
Fe53 Fe9 2.366326 1_555
Fe53 Tb7 3.007957 1_556
Fe53 Tb0 3.222696 1_556
Fe54 Fe55 2.546284 1_565
Fe54 Tb7 3.007957 1_555
Fe54 Tb3 3.222696 1_555
Fe55 Tb4 3.007957 1_555
Fe55 Tb0 3.222696 1_555
B0 Fe7 2.066030 1_554
B0 Fe4 2.066030 1_555
B0 Fe27 2.067091 1_555
B0 Fe25 2.067091 1_554
B0 Fe34 2.067091 1_555
B0 Fe36 2.067091 1_554
B0 Tb0 2.868661 1_555
B0 Tb4 3.257023 1_455
B0 Tb7 3.257023 1_545
B1 Fe5 2.066030 1_555
B1 Fe6 2.066030 1_555
B1 Fe29 2.067091 1_555
B1 Fe30 2.067091 1_555
B1 Fe39 2.067091 1_555
B1 Fe32 2.067091 1_555
B1 Tb1 2.868661 1_555
B1 Tb6 3.257023 1_555
B1 Tb5 3.257023 1_555
B2 Fe5 2.066030 1_555
B2 Fe6 2.066030 1_555
B2 Fe24 2.067091 1_555
B2 Fe31 2.067091 1_555
B2 Fe37 2.067091 1_555
B2 Fe38 2.067091 1_555
B2 Tb2 2.868661 1_555
B2 Tb6 3.257023 1_555
B2 Tb5 3.257023 1_555
B3 Fe7 2.066030 1_664
B3 Fe4 2.066030 1_665
B3 Fe33 2.067091 1_555
B3 Fe26 2.067091 1_554
B3 Fe35 2.067091 1_554
B3 Fe28 2.067091 1_555
B3 Tb3 2.868661 1_555
B3 Tb7 3.257023 1_655
B3 Tb4 3.257023 1_565
