# generated using pymatgen
data_CoTeMoO6
_symmetry_space_group_name_H-M   'P 1'
_cell_length_a   5.11611513
_cell_length_b   5.33199836
_cell_length_c   9.18593502
_cell_angle_alpha   90.01099808
_cell_angle_beta   89.99646012
_cell_angle_gamma   90.00615388
_symmetry_Int_Tables_number   1
_chemical_formula_structural   CoTeMoO6
_chemical_formula_sum   'Co2 Te2 Mo2 O12'
_cell_volume   250.58419426
_cell_formula_units_Z   2
loop_
 _symmetry_equiv_pos_site_id
 _symmetry_equiv_pos_as_xyz
  1  'x, y, z'
loop_
 _atom_site_type_symbol
 _atom_site_label
 _atom_site_symmetry_multiplicity
 _atom_site_fract_x
 _atom_site_fract_y
 _atom_site_fract_z
 _atom_site_occupancy
  Co  Co0  1  0.50001500  0.50000800  0.52594800  1
  Co  Co1  1  0.00000600  0.99996200  0.47405000  1
  Te  Te0  1  0.99996300  0.49998800  0.26033500  1
  Te  Te1  1  0.50004100  0.00000900  0.73971200  1
  Mo  Mo0  1  0.49998800  0.99996200  0.19800600  1
  Mo  Mo1  1  0.99999500  0.49999100  0.80196600  1
  O  O0  1  0.24200200  0.81523000  0.29968900  1
  O  O1  1  0.75793100  0.18477200  0.29970800  1
  O  O2  1  0.74203300  0.68481700  0.70031700  1
  O  O3  1  0.25801800  0.31520600  0.70031900  1
  O  O4  1  0.28127000  0.82084200  0.60369400  1
  O  O5  1  0.71879500  0.17918800  0.60372200  1
  O  O6  1  0.78126700  0.67914400  0.39633800  1
  O  O7  1  0.21872600  0.32084700  0.39631200  1
  O  O8  1  0.66089300  0.79137100  0.08352900  1
  O  O9  1  0.16096200  0.70865400  0.91643100  1
  O  O10  1  0.83907000  0.29135600  0.91641700  1
  O  O11  1  0.33902500  0.20865300  0.08350700  1
loop_
_geom_bond_atom_site_label_1
_geom_bond_atom_site_label_2
_geom_bond_distance
_geom_bond_site_symmetry_2
Co0 O6 2.097673 1_555
Co0 O7 2.097892 1_555
Co0 O4 2.165357 1_555
Co0 O5 2.165737 1_555
Co0 O2 2.251464 1_555
Co0 O3 2.251562 1_555
Co1 O5 2.098004 1_465
Co1 O4 2.098095 1_555
Co1 O6 2.165026 1_455
Co1 O7 2.165508 1_565
Co1 O0 2.251178 1_555
Co1 O1 2.251836 1_465
Mo0 O8 1.737853 1_555
Mo0 O11 1.738777 1_565
Mo0 O0 1.893326 1_555
Mo0 O1 1.893369 1_565
Mo1 O10 1.738053 1_555
Mo1 O9 1.738131 1_655
Mo1 O3 1.893403 1_655
Mo1 O2 1.893575 1_555
O0 Te0 2.118671 1_455
O1 Te0 2.118654 1_555
O2 Te1 2.118568 1_565
O3 Te1 2.118815 1_555
O4 Te1 1.930282 1_565
O5 Te1 1.930244 1_555
O6 Te0 1.929970 1_555
O7 Te0 1.930302 1_455
