# generated using pymatgen
data_Li15Cr2N9
_symmetry_space_group_name_H-M   'P 1'
_cell_length_a   9.27265953
_cell_length_b   10.09724823
_cell_length_c   10.10542572
_cell_angle_alpha   90.00000000
_cell_angle_beta   90.00000000
_cell_angle_gamma   90.00000000
_symmetry_Int_Tables_number   1
_chemical_formula_structural   Li15Cr2N9
_chemical_formula_sum   'Li60 Cr8 N36'
_cell_volume   946.15428595
_cell_formula_units_Z   4
loop_
 _symmetry_equiv_pos_site_id
 _symmetry_equiv_pos_as_xyz
  1  'x, y, z'
loop_
 _atom_site_type_symbol
 _atom_site_label
 _atom_site_symmetry_multiplicity
 _atom_site_fract_x
 _atom_site_fract_y
 _atom_site_fract_z
 _atom_site_occupancy
  Li  Li0  1  0.74859421  0.74963598  0.25651084  1
  Li  Li1  1  0.74148993  0.77755832  0.91070503  1
  Li  Li2  1  0.74113628  0.90955166  0.72119069  1
  Li  Li3  1  0.74234404  0.58768972  0.78292405  1
  Li  Li4  1  0.74272045  0.71637584  0.58695935  1
  Li  Li5  1  0.71462567  0.40553545  0.93684965  1
  Li  Li6  1  0.73224160  0.56297043  0.40013655  1
  Li  Li7  1  0.71861997  0.92818287  0.09702036  1
  Li  Li8  1  0.73874895  0.10160579  0.57395239  1
  Li  Li9  1  0.51676210  0.08369411  0.22687626  1
  Li  Li10  1  0.51547420  0.23444584  0.40359353  1
  Li  Li11  1  0.51599366  0.26739209  0.08180935  1
  Li  Li12  1  0.51604330  0.40701955  0.25995210  1
  Li  Li13  1  0.50070930  0.26945281  0.76936522  1
  Li  Li14  1  0.49929070  0.76945281  0.23063478  1
  Li  Li15  1  0.50099868  0.10005631  0.60030482  1
  Li  Li16  1  0.49900132  0.60005631  0.39969518  1
  Li  Li17  1  0.48400634  0.76739209  0.91819065  1
  Li  Li18  1  0.48395670  0.90701955  0.74004790  1
  Li  Li19  1  0.48323790  0.58369411  0.77312374  1
  Li  Li20  1  0.48452580  0.73444584  0.59640647  1
  Li  Li21  1  0.28138003  0.42818287  0.90297964  1
  Li  Li22  1  0.28537433  0.90553545  0.06315035  1
  Li  Li23  1  0.26125105  0.60160579  0.42604761  1
  Li  Li24  1  0.26775840  0.06297043  0.59986345  1
  Li  Li25  1  0.25886372  0.40955166  0.27880931  1
  Li  Li26  1  0.25851007  0.27755832  0.08929497  1
  Li  Li27  1  0.25727955  0.21637584  0.41304065  1
  Li  Li28  1  0.25765596  0.08768972  0.21707595  1
  Li  Li29  1  0.24859421  0.74963598  0.24348916  1
  Li  Li30  1  0.25140579  0.24963598  0.74348916  1
  Li  Li31  1  0.24113628  0.90955166  0.77880931  1
  Li  Li32  1  0.24272045  0.71637584  0.91304065  1
  Li  Li33  1  0.24148993  0.77755832  0.58929497  1
  Li  Li34  1  0.24234404  0.58768972  0.71707595  1
  Li  Li35  1  0.21861997  0.92818287  0.40297964  1
  Li  Li36  1  0.21462567  0.40553545  0.56315035  1
  Li  Li37  1  0.23874895  0.10160579  0.92604761  1
  Li  Li38  1  0.23224160  0.56297043  0.09986345  1
  Li  Li39  1  0.01599366  0.26739209  0.41819065  1
  Li  Li40  1  0.01604330  0.40701955  0.24004790  1
  Li  Li41  1  0.01676210  0.08369411  0.27312374  1
  Li  Li42  1  0.01547420  0.23444584  0.09640647  1
  Li  Li43  1  0.00099868  0.10005631  0.89969518  1
  Li  Li44  1  0.99900132  0.60005631  0.10030482  1
  Li  Li45  1  0.00070930  0.26945281  0.73063478  1
  Li  Li46  1  0.99929070  0.76945281  0.26936522  1
  Li  Li47  1  0.98323790  0.58369411  0.72687626  1
  Li  Li48  1  0.98452580  0.73444584  0.90359353  1
  Li  Li49  1  0.98400634  0.76739209  0.58180935  1
  Li  Li50  1  0.98395670  0.90701955  0.75995210  1
  Li  Li51  1  0.76775840  0.06297043  0.90013655  1
  Li  Li52  1  0.78138003  0.42818287  0.59702036  1
  Li  Li53  1  0.78537433  0.90553545  0.43684965  1
  Li  Li54  1  0.76125105  0.60160579  0.07395239  1
  Li  Li55  1  0.75851007  0.27755832  0.41070503  1
  Li  Li56  1  0.75765596  0.08768972  0.28292405  1
  Li  Li57  1  0.75886372  0.40955166  0.22119069  1
  Li  Li58  1  0.75727955  0.21637584  0.08695935  1
  Li  Li59  1  0.75140579  0.24963598  0.75651084  1
  Cr  Cr0  1  0.50387527  0.07831238  0.91902185  1
  Cr  Cr1  1  0.50352076  0.91853522  0.42196289  1
  Cr  Cr2  1  0.49612473  0.57831238  0.08097815  1
  Cr  Cr3  1  0.49647924  0.41853522  0.57803711  1
  Cr  Cr4  1  0.99612473  0.57831238  0.41902185  1
  Cr  Cr5  1  0.99647924  0.41853522  0.92196289  1
  Cr  Cr6  1  0.00387527  0.07831238  0.58097815  1
  Cr  Cr7  1  0.00352076  0.91853522  0.07803711  1
  N  N0  1  0.64309293  0.24803285  0.24747976  1
  N  N1  1  0.62476366  0.21141733  0.91777619  1
  N  N2  1  0.61193864  0.58816255  0.22187220  1
  N  N3  1  0.61242199  0.27833537  0.58784516  1
  N  N4  1  0.62427506  0.91770113  0.28909050  1
  N  N5  1  0.60604759  0.59060545  0.94242123  1
  N  N6  1  0.60801485  0.93597114  0.90987702  1
  N  N7  1  0.60389242  0.56017102  0.58045106  1
  N  N8  1  0.60608485  0.91848781  0.56635826  1
  N  N9  1  0.39391515  0.41848781  0.43364174  1
  N  N10  1  0.39610758  0.06017102  0.41954894  1
  N  N11  1  0.39198515  0.43597114  0.09012298  1
  N  N12  1  0.39395241  0.09060545  0.05757877  1
  N  N13  1  0.37572494  0.41770113  0.71090950  1
  N  N14  1  0.38757801  0.77833537  0.41215484  1
  N  N15  1  0.38806136  0.08816255  0.77812780  1
  N  N16  1  0.37523634  0.71141733  0.08222381  1
  N  N17  1  0.35690707  0.74803285  0.75252024  1
  N  N18  1  0.14309293  0.24803285  0.25252024  1
  N  N19  1  0.11242199  0.27833537  0.91215484  1
  N  N20  1  0.11193864  0.58816255  0.27812780  1
  N  N21  1  0.12476366  0.21141733  0.58222381  1
  N  N22  1  0.12427506  0.91770113  0.21090950  1
  N  N23  1  0.10608485  0.91848781  0.93364174  1
  N  N24  1  0.10389242  0.56017102  0.91954894  1
  N  N25  1  0.10801485  0.93597114  0.59012298  1
  N  N26  1  0.10604759  0.59060545  0.55757877  1
  N  N27  1  0.89610758  0.06017102  0.08045106  1
  N  N28  1  0.89395241  0.09060545  0.44242123  1
  N  N29  1  0.89198515  0.43597114  0.40987702  1
  N  N30  1  0.89391515  0.41848781  0.06635826  1
  N  N31  1  0.87572494  0.41770113  0.78909050  1
  N  N32  1  0.88806136  0.08816255  0.72187220  1
  N  N33  1  0.87523634  0.71141733  0.41777619  1
  N  N34  1  0.88757801  0.77833537  0.08784516  1
  N  N35  1  0.85690707  0.74803285  0.74747976  1
loop_
_geom_bond_atom_site_label_1
_geom_bond_atom_site_label_2
_geom_bond_distance
_geom_bond_site_symmetry_2
Li0 N33 2.045409 1_555
Li0 N4 2.077755 1_555
Li0 N2 2.094409 1_555
Li0 N34 2.156377 1_555
Li1 N35 1.988713 1_555
Li1 N6 2.022474 1_555
Li1 N34 2.244871 1_556
Li1 N5 2.289865 1_555
Li2 N35 1.970484 1_555
Li2 N8 2.006112 1_555
Li2 N32 2.260239 1_565
Li2 N6 2.287050 1_555
Li3 N35 1.969269 1_555
Li3 N5 2.048412 1_555
Li3 N31 2.116515 1_555
Li3 N7 2.431422 1_555
Li4 N35 1.963303 1_555
Li4 N7 2.036949 1_555
Li4 N33 2.106029 1_555
Li4 N8 2.411084 1_555
Li5 N31 2.115689 1_555
Li5 N30 2.119853 1_556
Li5 N5 2.123408 1_555
Li5 N1 2.138528 1_555
Li6 N29 1.961680 1_555
Li6 N33 2.009132 1_555
Li6 N2 2.134077 1_555
Li6 N7 2.176574 1_555
Li7 N27 2.124328 1_565
Li7 N4 2.131623 1_555
Li7 N6 2.152799 1_554
Li7 N34 2.180006 1_555
Li8 N28 1.962193 1_555
Li8 N32 2.041993 1_555
Li8 N3 2.139214 1_555
Li8 N8 2.222141 1_545
Li9 N0 2.041834 1_555
Li9 N4 2.048989 1_545
Li9 N12 2.056353 1_555
Li9 N10 2.258111 1_555
Li10 N0 1.976862 1_555
Li10 N10 2.085098 1_555
Li10 N3 2.114558 1_555
Li10 N9 2.194555 1_555
Li11 N1 2.020992 1_554
Li11 N11 2.055902 1_555
Li11 N0 2.056704 1_555
Li11 N12 2.127678 1_555
Li12 N0 1.995208 1_555
Li12 N2 2.069825 1_555
Li12 N11 2.086645 1_555
Li12 N9 2.092036 1_555
Li13 N1 1.978859 1_555
Li13 N13 1.983128 1_555
Li13 N3 2.108524 1_555
Li13 N15 2.109447 1_555
Li14 N16 1.978859 1_555
Li14 N4 1.983128 1_555
Li14 N14 2.108524 1_555
Li14 N2 2.109447 1_555
Li15 N3 2.079374 1_555
Li15 N15 2.083324 1_555
Li15 N8 2.104361 1_545
Li15 N10 2.108247 1_555
Li16 N14 2.079374 1_555
Li16 N2 2.083324 1_555
Li16 N9 2.104361 1_555
Li16 N7 2.108247 1_555
Li17 N16 2.020992 1_556
Li17 N6 2.055902 1_555
Li17 N17 2.056704 1_555
Li17 N5 2.127678 1_555
Li18 N17 1.995208 1_555
Li18 N15 2.069825 1_565
Li18 N6 2.086645 1_555
Li18 N8 2.092036 1_555
Li19 N17 2.041834 1_555
Li19 N13 2.048989 1_555
Li19 N5 2.056353 1_555
Li19 N7 2.258111 1_555
Li20 N17 1.976862 1_555
Li20 N7 2.085098 1_555
Li20 N14 2.114558 1_555
Li20 N8 2.194555 1_555
Li21 N24 2.124328 1_555
Li21 N13 2.131623 1_555
Li21 N11 2.152799 1_556
Li21 N19 2.180006 1_555
Li22 N22 2.115689 1_555
Li22 N23 2.119853 1_554
Li22 N12 2.123408 1_565
Li22 N16 2.138528 1_555
Li23 N26 1.962193 1_555
Li23 N20 2.041993 1_555
Li23 N14 2.139214 1_555
Li23 N9 2.222141 1_555
Li24 N25 1.961680 1_545
Li24 N21 2.009132 1_555
Li24 N15 2.134077 1_555
Li24 N10 2.176574 1_555
Li25 N18 1.970484 1_555
Li25 N9 2.006112 1_555
Li25 N20 2.260239 1_555
Li25 N11 2.287050 1_555
Li26 N18 1.988713 1_555
Li26 N11 2.022474 1_555
Li26 N19 2.244871 1_554
Li26 N12 2.289865 1_555
Li27 N18 1.963303 1_555
Li27 N10 2.036949 1_555
Li27 N21 2.106029 1_555
Li27 N9 2.411084 1_555
Li28 N18 1.969269 1_555
Li28 N12 2.048412 1_555
Li28 N22 2.116515 1_545
Li28 N10 2.431422 1_555
Li29 N16 2.045409 1_555
Li29 N22 2.077755 1_555
Li29 N20 2.094409 1_555
Li29 N14 2.156377 1_555
Li30 N21 2.045409 1_555
Li30 N13 2.077755 1_555
Li30 N15 2.094409 1_555
Li30 N19 2.156377 1_555
Li31 N17 1.970484 1_555
Li31 N23 2.006112 1_555
Li31 N15 2.260239 1_565
Li31 N25 2.287050 1_555
Li32 N17 1.963303 1_555
Li32 N24 2.036949 1_555
Li32 N16 2.106029 1_556
Li32 N23 2.411084 1_555
Li33 N17 1.988713 1_555
Li33 N25 2.022474 1_555
Li33 N14 2.244871 1_555
Li33 N26 2.289865 1_555
Li34 N17 1.969269 1_555
Li34 N26 2.048412 1_555
Li34 N13 2.116515 1_555
Li34 N24 2.431422 1_555
Li35 N10 2.124328 1_565
Li35 N22 2.131623 1_555
Li35 N25 2.152799 1_555
Li35 N14 2.180006 1_555
Li36 N13 2.115689 1_555
Li36 N9 2.119853 1_555
Li36 N26 2.123408 1_555
Li36 N21 2.138528 1_555
Li37 N12 1.962193 1_556
Li37 N15 2.041993 1_555
Li37 N19 2.139214 1_555
Li37 N23 2.222141 1_545
Li38 N11 1.961680 1_555
Li38 N16 2.009132 1_555
Li38 N20 2.134077 1_555
Li38 N24 2.176574 1_554
Li39 N21 2.020992 1_555
Li39 N29 2.055902 1_455
Li39 N18 2.056704 1_555
Li39 N28 2.127678 1_455
Li40 N18 1.995208 1_555
Li40 N20 2.069825 1_555
Li40 N29 2.086645 1_455
Li40 N30 2.092036 1_455
Li41 N18 2.041834 1_555
Li41 N22 2.048989 1_545
Li41 N28 2.056353 1_455
Li41 N27 2.258111 1_455
Li42 N18 1.976862 1_555
Li42 N27 2.085098 1_455
Li42 N19 2.114558 1_554
Li42 N30 2.194555 1_455
Li43 N19 2.079374 1_555
Li43 N32 2.083324 1_455
Li43 N23 2.104361 1_545
Li43 N27 2.108247 1_456
Li44 N34 2.079374 1_555
Li44 N20 2.083324 1_655
Li44 N30 2.104361 1_555
Li44 N24 2.108247 1_654
Li45 N21 1.978859 1_555
Li45 N31 1.983128 1_455
Li45 N19 2.108524 1_555
Li45 N32 2.109447 1_455
Li46 N33 1.978859 1_555
Li46 N22 1.983128 1_655
Li46 N34 2.108524 1_555
Li46 N20 2.109447 1_655
Li47 N35 2.041834 1_555
Li47 N31 2.048989 1_555
Li47 N26 2.056353 1_655
Li47 N24 2.258111 1_655
Li48 N35 1.976862 1_555
Li48 N24 2.085098 1_655
Li48 N34 2.114558 1_556
Li48 N23 2.194555 1_655
Li49 N33 2.020992 1_555
Li49 N25 2.055902 1_655
Li49 N35 2.056704 1_555
Li49 N26 2.127678 1_655
Li50 N35 1.995208 1_555
Li50 N32 2.069825 1_565
Li50 N25 2.086645 1_655
Li50 N23 2.092036 1_655
Li51 N6 1.961680 1_545
Li51 N1 2.009132 1_555
Li51 N32 2.134077 1_555
Li51 N27 2.176574 1_556
Li52 N7 2.124328 1_555
Li52 N31 2.131623 1_555
Li52 N29 2.152799 1_555
Li52 N3 2.180006 1_555
Li53 N4 2.115689 1_555
Li53 N8 2.119853 1_555
Li53 N28 2.123408 1_565
Li53 N33 2.138528 1_555
Li54 N5 1.962193 1_554
Li54 N2 2.041993 1_555
Li54 N34 2.139214 1_555
Li54 N30 2.222141 1_555
Li55 N0 1.988713 1_555
Li55 N29 2.022474 1_555
Li55 N3 2.244871 1_555
Li55 N28 2.289865 1_555
Li56 N0 1.969269 1_555
Li56 N28 2.048412 1_555
Li56 N4 2.116515 1_545
Li56 N27 2.431422 1_555
Li57 N0 1.970484 1_555
Li57 N30 2.006112 1_555
Li57 N2 2.260239 1_555
Li57 N29 2.287050 1_555
Li58 N0 1.963303 1_555
Li58 N27 2.036949 1_555
Li58 N1 2.106029 1_554
Li58 N30 2.411084 1_555
Li59 N1 2.045409 1_555
Li59 N31 2.077755 1_555
Li59 N32 2.094409 1_555
Li59 N3 2.156377 1_555
Cr0 N6 1.733991 1_545
Cr0 N12 1.736326 1_556
Cr0 N1 1.750149 1_555
Cr0 N15 1.786155 1_555
Cr1 N8 1.741746 1_555
Cr1 N10 1.742957 1_565
Cr1 N4 1.748359 1_555
Cr1 N14 1.780358 1_555
Cr2 N11 1.733991 1_555
Cr2 N5 1.736326 1_554
Cr2 N16 1.750149 1_555
Cr2 N2 1.786155 1_555
Cr3 N9 1.741746 1_555
Cr3 N7 1.742957 1_555
Cr3 N13 1.748359 1_555
Cr3 N3 1.780358 1_555
Cr4 N29 1.733991 1_555
Cr4 N26 1.736326 1_655
Cr4 N33 1.750149 1_555
Cr4 N20 1.786155 1_655
Cr5 N30 1.741746 1_556
Cr5 N24 1.742957 1_655
Cr5 N31 1.748359 1_555
Cr5 N19 1.780358 1_655
Cr6 N25 1.733991 1_545
Cr6 N28 1.736326 1_455
Cr6 N21 1.750149 1_555
Cr6 N32 1.786155 1_455
Cr7 N23 1.741746 1_554
Cr7 N27 1.742957 1_465
Cr7 N22 1.748359 1_555
Cr7 N34 1.780358 1_455
