# generated using pymatgen
data_ZnS
_symmetry_space_group_name_H-M   'P 1'
_cell_length_a   3.80656410
_cell_length_b   3.80656364
_cell_length_c   62.31713020
_cell_angle_alpha   90.00000000
_cell_angle_beta   90.00000000
_cell_angle_gamma   119.99999510
_symmetry_Int_Tables_number   1
_chemical_formula_structural   ZnS
_chemical_formula_sum   'Zn20 S20'
_cell_volume   781.99565717
_cell_formula_units_Z   20
loop_
 _symmetry_equiv_pos_site_id
 _symmetry_equiv_pos_as_xyz
  1  'x, y, z'
loop_
 _atom_site_type_symbol
 _atom_site_label
 _atom_site_symmetry_multiplicity
 _atom_site_fract_x
 _atom_site_fract_y
 _atom_site_fract_z
 _atom_site_occupancy
  Zn  Zn0  1  0.00000000  -0.00000000  0.40001495  1
  Zn  Zn1  1  0.33333300  0.66666700  0.45003521  1
  Zn  Zn2  1  0.33333300  0.66666700  0.35000780  1
  Zn  Zn3  1  0.33333300  0.66666700  0.20001586  1
  Zn  Zn4  1  0.66666700  0.33333300  0.80003167  1
  Zn  Zn5  1  0.66666700  0.33333300  0.65002418  1
  Zn  Zn6  1  0.00000000  -0.00000000  0.60000349  1
  Zn  Zn7  1  0.66666700  0.33333300  0.95002469  1
  Zn  Zn8  1  0.66666700  0.33333300  0.10002635  1
  Zn  Zn9  1  -0.00000000  -0.00000000  0.90000480  1
  Zn  Zn10  1  0.33333300  0.66666700  0.55005813  1
  Zn  Zn11  1  0.66666700  0.33333300  0.30002012  1
  Zn  Zn12  1  0.00000000  0.00000000  0.00005046  1
  Zn  Zn13  1  0.33333300  0.66666700  0.05002674  1
  Zn  Zn14  1  0.00000000  -0.00000000  0.14999320  1
  Zn  Zn15  1  0.33333300  0.66666700  0.85005966  1
  Zn  Zn16  1  0.00000000  -0.00000000  0.25004298  1
  Zn  Zn17  1  -0.00000000  0.00000000  0.70004944  1
  Zn  Zn18  1  0.66666700  0.33333300  0.50003331  1
  Zn  Zn19  1  0.33333300  0.66666700  0.75000969  1
  S  S0  1  0.00000000  -0.00000000  0.63742979  1
  S  S1  1  0.33333300  0.66666700  0.88748250  1
  S  S2  1  0.66666700  0.33333300  0.83752359  1
  S  S3  1  0.00000000  -0.00000000  0.03747986  1
  S  S4  1  0.00000000  -0.00000000  0.43750066  1
  S  S5  1  0.33333300  0.66666700  0.08747744  1
  S  S6  1  0.33333300  0.66666700  0.23750831  1
  S  S7  1  0.00000000  -0.00000000  0.73747956  1
  S  S8  1  0.00000000  -0.00000000  0.28747002  1
  S  S9  1  0.66666700  0.33333300  0.68752255  1
  S  S10  1  0.66666700  0.33333300  0.98751946  1
  S  S11  1  0.66666700  0.33333300  0.53751579  1
  S  S12  1  0.66666700  0.33333300  0.33746675  1
  S  S13  1  0.33333300  0.66666700  0.58747824  1
  S  S14  1  0.33333300  0.66666700  0.48743778  1
  S  S15  1  0.33333300  0.66666700  0.38742471  1
  S  S16  1  0.66666700  0.33333300  0.13746720  1
  S  S17  1  0.33333300  0.66666700  0.78743882  1
  S  S18  1  0.00000000  -0.00000000  0.93743020  1
  S  S19  1  0.00000000  0.00000000  0.18741705  1
loop_
_geom_bond_atom_site_label_1
_geom_bond_atom_site_label_2
_geom_bond_distance
_geom_bond_site_symmetry_2
S0 Zn6 2.332300 1_555
S0 Zn5 2.333656 1_455
S0 Zn5 2.333659 1_445
S0 Zn5 2.333659 1_555
S1 Zn15 2.332084 1_555
S1 Zn9 2.332149 1_565
S1 Zn9 2.332152 1_555
S1 Zn9 2.332152 1_665
S2 Zn15 2.332436 1_545
S2 Zn15 2.332436 1_655
S2 Zn15 2.332442 1_555
S2 Zn4 2.336389 1_555
S3 Zn12 2.332493 1_555
S3 Zn13 2.332662 1_545
S3 Zn13 2.332665 1_555
S3 Zn13 2.332665 1_445
S4 Zn1 2.332404 1_545
S4 Zn1 2.332408 1_555
S4 Zn1 2.332408 1_445
S4 Zn0 2.336002 1_555
S5 Zn8 2.332704 1_565
S5 Zn8 2.332705 1_455
S5 Zn8 2.332710 1_555
S5 Zn13 2.333820 1_555
S6 Zn16 2.332407 1_565
S6 Zn16 2.332410 1_555
S6 Zn16 2.332410 1_665
S6 Zn3 2.336422 1_555
S7 Zn19 2.332312 1_545
S7 Zn19 2.332315 1_555
S7 Zn19 2.332316 1_445
S7 Zn17 2.332538 1_555
S8 Zn16 2.332346 1_555
S8 Zn11 2.332729 1_455
S8 Zn11 2.332732 1_445
S8 Zn11 2.332732 1_555
S9 Zn17 2.332245 1_655
S9 Zn17 2.332248 1_665
S9 Zn17 2.332248 1_555
S9 Zn5 2.336791 1_555
S10 Zn12 2.332330 1_656
S10 Zn12 2.332333 1_666
S10 Zn12 2.332334 1_556
S10 Zn7 2.336566 1_555
S11 Zn10 2.332567 1_545
S11 Zn10 2.332567 1_655
S11 Zn10 2.332573 1_555
S11 Zn18 2.335801 1_555
S12 Zn2 2.332540 1_545
S12 Zn2 2.332540 1_655
S12 Zn2 2.332546 1_555
S12 Zn11 2.333567 1_555
S13 Zn10 2.331914 1_555
S13 Zn6 2.332210 1_565
S13 Zn6 2.332214 1_555
S13 Zn6 2.332214 1_665
S14 Zn1 2.330821 1_555
S14 Zn18 2.333680 1_565
S14 Zn18 2.333680 1_455
S14 Zn18 2.333686 1_555
S15 Zn2 2.331714 1_555
S15 Zn0 2.333569 1_565
S15 Zn0 2.333572 1_555
S15 Zn0 2.333572 1_665
S16 Zn14 2.332226 1_655
S16 Zn14 2.332229 1_665
S16 Zn14 2.332229 1_555
S16 Zn8 2.333206 1_555
S17 Zn19 2.332476 1_555
S17 Zn4 2.333624 1_565
S17 Zn4 2.333624 1_455
S17 Zn4 2.333630 1_555
S18 Zn9 2.332244 1_555
S18 Zn7 2.333658 1_455
S18 Zn7 2.333661 1_445
S18 Zn7 2.333661 1_555
S19 Zn14 2.332147 1_555
S19 Zn3 2.333749 1_545
S19 Zn3 2.333752 1_555
S19 Zn3 2.333752 1_445
