# generated using pymatgen
data_InAu3
_symmetry_space_group_name_H-M   'P 1'
_cell_length_a   4.83732732
_cell_length_b   5.27183027
_cell_length_c   5.77875826
_cell_angle_alpha   90.00000000
_cell_angle_beta   90.00000000
_cell_angle_gamma   90.00000000
_symmetry_Int_Tables_number   1
_chemical_formula_structural   InAu3
_chemical_formula_sum   'In2 Au6'
_cell_volume   147.36740014
_cell_formula_units_Z   2
loop_
 _symmetry_equiv_pos_site_id
 _symmetry_equiv_pos_as_xyz
  1  'x, y, z'
loop_
 _atom_site_type_symbol
 _atom_site_label
 _atom_site_symmetry_multiplicity
 _atom_site_fract_x
 _atom_site_fract_y
 _atom_site_fract_z
 _atom_site_occupancy
  In  In0  1  0.75000000  0.66453087  0.75000000  1
  In  In1  1  0.25000000  0.33546913  0.25000000  1
  Au  Au0  1  0.25000000  0.33732240  0.75000000  1
  Au  Au1  1  0.75000000  0.66267760  0.25000000  1
  Au  Au2  1  0.25000000  0.83677779  0.99853364  1
  Au  Au3  1  0.75000000  0.16322221  0.00146636  1
  Au  Au4  1  0.25000000  0.83677779  0.50146636  1
  Au  Au5  1  0.75000000  0.16322221  0.49853364  1
loop_
_geom_bond_atom_site_label_1
_geom_bond_atom_site_label_2
_geom_bond_distance
_geom_bond_site_symmetry_2
Au0 In1 2.889396 1_556
Au0 In1 2.889396 1_555
Au0 Au5 2.967157 1_455
Au0 Au3 2.967157 1_456
Au0 Au5 2.967157 1_555
Au0 Au3 2.967157 1_556
Au0 In0 2.970777 1_555
Au0 In0 2.970777 1_455
Au0 Au4 2.999273 1_555
Au0 Au2 2.999273 1_555
Au0 Au4 3.004315 1_545
Au0 Au2 3.004315 1_545
Au1 In0 2.889396 1_555
Au1 In0 2.889396 1_554
Au1 Au2 2.967157 1_654
Au1 Au2 2.967157 1_554
Au1 Au4 2.967157 1_555
Au1 Au4 2.967157 1_655
Au1 In1 2.970777 1_555
Au1 In1 2.970777 1_655
Au1 Au3 2.999273 1_555
Au1 Au5 2.999273 1_555
Au1 Au3 3.004315 1_565
Au1 Au5 3.004315 1_565
Au2 Au4 2.872432 1_555
Au2 Au4 2.906327 1_556
Au2 In0 2.955878 1_455
Au2 In0 2.955878 1_555
Au2 Au3 2.968488 1_466
Au2 Au3 2.968488 1_566
Au2 In1 3.003899 1_566
Au2 In1 3.015982 1_556
Au3 Au5 2.872432 1_555
Au3 Au5 2.906327 1_554
Au3 In1 2.955878 1_655
Au3 In1 2.955878 1_555
Au3 In0 3.003899 1_544
Au3 In0 3.015982 1_554
Au4 In0 2.955878 1_455
Au4 In0 2.955878 1_555
Au4 Au5 2.968488 1_565
Au4 Au5 2.968488 1_465
Au4 In1 3.003899 1_565
Au4 In1 3.015982 1_555
Au5 In1 2.955878 1_655
Au5 In1 2.955878 1_555
Au5 In0 3.003899 1_545
Au5 In0 3.015982 1_555
