# generated using pymatgen
data_Tb3CrSe6
_symmetry_space_group_name_H-M   'P 1'
_cell_length_a   3.93849841
_cell_length_b   13.95269839
_cell_length_c   16.78435688
_cell_angle_alpha   90.00000000
_cell_angle_beta   90.00000000
_cell_angle_gamma   90.00000000
_symmetry_Int_Tables_number   1
_chemical_formula_structural   Tb3CrSe6
_chemical_formula_sum   'Tb12 Cr4 Se24'
_cell_volume   922.34539975
_cell_formula_units_Z   4
loop_
 _symmetry_equiv_pos_site_id
 _symmetry_equiv_pos_as_xyz
  1  'x, y, z'
loop_
 _atom_site_type_symbol
 _atom_site_label
 _atom_site_symmetry_multiplicity
 _atom_site_fract_x
 _atom_site_fract_y
 _atom_site_fract_z
 _atom_site_occupancy
  Tb  Tb0  1  -0.00000000  0.31956501  0.14811551  1
  Tb  Tb1  1  0.00000000  0.68043499  0.85188449  1
  Tb  Tb2  1  0.50000000  0.81956501  0.35188449  1
  Tb  Tb3  1  0.50000000  0.18043499  0.64811551  1
  Tb  Tb4  1  -0.00000000  0.55116945  0.27783771  1
  Tb  Tb5  1  0.00000000  0.44883055  0.72216229  1
  Tb  Tb6  1  0.50000000  0.05116945  0.22216229  1
  Tb  Tb7  1  0.50000000  0.94883055  0.77783771  1
  Tb  Tb8  1  0.00000000  0.75715042  0.09683013  1
  Tb  Tb9  1  -0.00000000  0.24284958  0.90316987  1
  Tb  Tb10  1  0.50000000  0.25715042  0.40316987  1
  Tb  Tb11  1  0.50000000  0.74284958  0.59683013  1
  Cr  Cr0  1  -0.00000000  0.00000000  0.50000000  1
  Cr  Cr1  1  0.50000000  0.50000000  0.00000000  1
  Cr  Cr2  1  -0.00000000  0.00000000  0.00000000  1
  Cr  Cr3  1  0.50000000  0.50000000  0.50000000  1
  Se  Se0  1  -0.00000000  0.10284204  0.75426909  1
  Se  Se1  1  -0.00000000  0.89715796  0.24573091  1
  Se  Se2  1  0.50000000  0.60284204  0.74573091  1
  Se  Se3  1  0.50000000  0.39715796  0.25426909  1
  Se  Se4  1  -0.00000000  0.12069909  0.10905567  1
  Se  Se5  1  0.00000000  0.87930091  0.89094433  1
  Se  Se6  1  0.50000000  0.62069909  0.39094433  1
  Se  Se7  1  0.50000000  0.37930091  0.60905567  1
  Se  Se8  1  -0.00000000  0.19035632  0.29020771  1
  Se  Se9  1  0.00000000  0.80964368  0.70979229  1
  Se  Se10  1  0.50000000  0.69035632  0.20979229  1
  Se  Se11  1  0.50000000  0.30964368  0.79020771  1
  Se  Se12  1  -0.00000000  0.18073128  0.52061873  1
  Se  Se13  1  0.00000000  0.81926872  0.47938127  1
  Se  Se14  1  0.50000000  0.68073128  0.97938127  1
  Se  Se15  1  0.50000000  0.31926872  0.02061873  1
  Se  Se16  1  -0.00000000  0.41803518  0.42354292  1
  Se  Se17  1  -0.00000000  0.58196482  0.57645708  1
  Se  Se18  1  0.50000000  0.91803518  0.07645708  1
  Se  Se19  1  0.50000000  0.08196482  0.92354292  1
  Se  Se20  1  -0.00000000  0.52278978  0.09792176  1
  Se  Se21  1  -0.00000000  0.47721022  0.90207824  1
  Se  Se22  1  0.50000000  0.02278978  0.40207824  1
  Se  Se23  1  0.50000000  0.97721022  0.59792176  1
loop_
_geom_bond_atom_site_label_1
_geom_bond_atom_site_label_2
_geom_bond_distance
_geom_bond_site_symmetry_2
Cr0 Se13 2.545325 1_545
Cr0 Se12 2.545325 1_555
Cr0 Se22 2.584632 1_555
Cr0 Se23 2.584632 1_545
Cr0 Se23 2.584632 1_445
Cr0 Se22 2.584632 1_455
Cr1 Se15 2.545325 1_555
Cr1 Se14 2.545325 1_554
Cr1 Se21 2.584632 1_654
Cr1 Se20 2.584632 1_555
Cr1 Se21 2.584632 1_554
Cr1 Se20 2.584632 1_655
Cr2 Se5 2.487286 1_544
Cr2 Se4 2.487286 1_555
Cr2 Se18 2.613933 1_445
Cr2 Se18 2.613933 1_545
Cr2 Se19 2.613933 1_554
Cr2 Se19 2.613933 1_454
Cr3 Se6 2.487286 1_555
Cr3 Se7 2.487286 1_555
Cr3 Se16 2.613933 1_555
Cr3 Se16 2.613933 1_655
Cr3 Se17 2.613933 1_555
Cr3 Se17 2.613933 1_655
Se0 Tb3 2.867849 1_455
Se0 Tb3 2.867849 1_555
Se0 Tb7 2.941445 1_445
Se0 Tb7 2.941445 1_545
Se0 Tb9 3.172084 1_555
Se1 Tb2 2.867849 1_455
Se1 Tb2 2.867849 1_555
Se1 Tb6 2.941445 1_465
Se1 Tb6 2.941445 1_565
Se1 Tb8 3.172084 1_555
Se2 Tb1 2.867849 1_555
Se2 Tb1 2.867849 1_655
Se2 Tb5 2.941445 1_555
Se2 Tb5 2.941445 1_655
Se2 Tb11 3.172084 1_555
Se3 Tb0 2.867849 1_655
Se3 Tb0 2.867849 1_555
Se3 Tb4 2.941445 1_655
Se3 Tb4 2.941445 1_555
Se3 Tb10 3.172084 1_555
Se4 Tb0 2.851114 1_555
Se4 Tb6 2.902256 1_555
Se4 Tb6 2.902256 1_455
Se5 Tb1 2.851114 1_555
Se5 Tb7 2.902256 1_555
Se5 Tb7 2.902256 1_455
Se6 Tb2 2.851114 1_555
Se6 Tb4 2.902256 1_655
Se6 Tb4 2.902256 1_555
Se7 Tb3 2.851114 1_555
Se7 Tb5 2.902256 1_555
Se7 Tb5 2.902256 1_655
Se8 Tb10 2.888130 1_455
Se8 Tb10 2.888130 1_555
Se8 Tb0 2.989648 1_555
Se8 Tb6 2.992294 1_455
Se8 Tb6 2.992294 1_555
Se9 Tb11 2.888130 1_555
Se9 Tb11 2.888130 1_455
Se9 Tb1 2.989648 1_555
Se9 Tb7 2.992294 1_455
Se9 Tb7 2.992294 1_555
Se10 Tb8 2.888130 1_555
Se10 Tb8 2.888130 1_655
Se10 Tb2 2.989648 1_555
Se10 Tb4 2.992294 1_655
Se10 Tb4 2.992294 1_555
Se11 Tb9 2.888130 1_655
Se11 Tb9 2.888130 1_555
Se11 Tb3 2.989648 1_555
Se11 Tb5 2.992294 1_555
Se11 Tb5 2.992294 1_655
Se12 Tb3 2.908153 1_455
Se12 Tb3 2.908153 1_555
Se12 Tb10 2.983434 1_455
Se12 Tb10 2.983434 1_555
Se13 Tb2 2.908153 1_455
Se13 Tb2 2.908153 1_555
Se13 Tb11 2.983434 1_555
Se13 Tb11 2.983434 1_455
Se14 Tb1 2.908153 1_655
Se14 Tb1 2.908153 1_555
Se14 Tb8 2.983434 1_556
Se14 Tb8 2.983434 1_656
Se15 Tb0 2.908153 1_555
Se15 Tb0 2.908153 1_655
Se15 Tb9 2.983434 1_554
Se15 Tb9 2.983434 1_654
Se16 Tb10 3.005644 1_455
Se16 Tb10 3.005644 1_555
Se16 Tb4 3.071061 1_555
Se17 Tb11 3.005644 1_455
Se17 Tb11 3.005644 1_555
Se17 Tb5 3.071061 1_555
Se18 Tb8 3.005644 1_655
Se18 Tb8 3.005644 1_555
Se18 Tb6 3.071061 1_565
Se19 Tb9 3.005644 1_655
Se19 Tb9 3.005644 1_555
Se19 Tb7 3.071061 1_545
Se20 Tb0 2.958041 1_555
Se20 Tb4 3.045624 1_555
Se20 Tb8 3.270015 1_555
Se21 Tb1 2.958041 1_555
Se21 Tb5 3.045624 1_555
Se21 Tb9 3.270015 1_555
Se22 Tb2 2.958041 1_545
Se22 Tb6 3.045624 1_555
Se22 Tb10 3.270015 1_555
Se23 Tb3 2.958041 1_565
Se23 Tb7 3.045624 1_555
Se23 Tb11 3.270015 1_555
