# generated using pymatgen
data_Sr(CoAs)2
_symmetry_space_group_name_H-M   'P 1'
_cell_length_a   3.98151416
_cell_length_b   3.98151503
_cell_length_c   6.37922966
_cell_angle_alpha   108.18394518
_cell_angle_beta   108.18395132
_cell_angle_gamma   89.99999876
_symmetry_Int_Tables_number   1
_chemical_formula_structural   Sr(CoAs)2
_chemical_formula_sum   'Sr1 Co2 As2'
_cell_volume   90.74522962
_cell_formula_units_Z   1
loop_
 _symmetry_equiv_pos_site_id
 _symmetry_equiv_pos_as_xyz
  1  'x, y, z'
loop_
 _atom_site_type_symbol
 _atom_site_label
 _atom_site_symmetry_multiplicity
 _atom_site_fract_x
 _atom_site_fract_y
 _atom_site_fract_z
 _atom_site_occupancy
  Sr  Sr0  1  -0.00000000  -0.00000000  -0.00000000  1
  Co  Co0  1  0.25000000  0.75000000  0.50000000  1
  Co  Co1  1  0.75000000  0.25000000  0.50000000  1
  As  As0  1  0.35135421  0.35135421  0.70270942  1
  As  As1  1  0.64864579  0.64864579  0.29729058  1
loop_
_geom_bond_atom_site_label_1
_geom_bond_atom_site_label_2
_geom_bond_distance
_geom_bond_site_symmetry_2
Co0 Sr0 3.486430 1_666
Co0 Sr0 3.486431 1_555
Co0 Sr0 3.486431 1_565
Co0 Sr0 3.486431 1_566
Co1 Sr0 3.486430 1_555
Co1 Sr0 3.486431 1_666
Co1 Sr0 3.486431 1_656
Co1 Sr0 3.486431 1_655
As0 Co1 2.304255 1_455
As0 Co0 2.304256 1_545
As0 Co1 2.304259 1_555
As0 Co0 2.304259 1_555
As0 Sr0 3.289732 1_556
As0 Sr0 3.289734 1_656
As0 Sr0 3.289734 1_566
As0 Sr0 3.289736 1_666
As1 Co0 2.304255 1_655
As1 Co1 2.304256 1_565
As1 Co0 2.304259 1_555
As1 Co1 2.304259 1_555
As1 Sr0 3.289732 1_665
As1 Sr0 3.289734 1_565
As1 Sr0 3.289734 1_655
As1 Sr0 3.289736 1_555
