# generated using pymatgen
data_Ba3BiN
_symmetry_space_group_name_H-M   'P 1'
_cell_length_a   7.72798537
_cell_length_b   7.72798476
_cell_length_c   6.77933811
_cell_angle_alpha   90.00000000
_cell_angle_beta   90.00000000
_cell_angle_gamma   119.99999362
_symmetry_Int_Tables_number   1
_chemical_formula_structural   Ba3BiN
_chemical_formula_sum   'Ba6 Bi2 N2'
_cell_volume   350.63115470
_cell_formula_units_Z   2
loop_
 _symmetry_equiv_pos_site_id
 _symmetry_equiv_pos_as_xyz
  1  'x, y, z'
loop_
 _atom_site_type_symbol
 _atom_site_label
 _atom_site_symmetry_multiplicity
 _atom_site_fract_x
 _atom_site_fract_y
 _atom_site_fract_z
 _atom_site_occupancy
  Ba  Ba0  1  0.15809635  0.84190365  0.25000000  1
  Ba  Ba1  1  0.84190365  0.68380831  0.75000000  1
  Ba  Ba2  1  0.31619169  0.15809635  0.75000000  1
  Ba  Ba3  1  0.84190365  0.15809635  0.75000000  1
  Ba  Ba4  1  0.68380831  0.84190365  0.25000000  1
  Ba  Ba5  1  0.15809635  0.31619169  0.25000000  1
  Bi  Bi0  1  0.33333300  0.66666700  0.75000000  1
  Bi  Bi1  1  0.66666700  0.33333300  0.25000000  1
  N  N0  1  -0.00000000  0.00000000  0.00000000  1
  N  N1  1  -0.00000000  0.00000000  0.50000000  1
loop_
_geom_bond_atom_site_label_1
_geom_bond_atom_site_label_2
_geom_bond_distance
_geom_bond_site_symmetry_2
Ba0 N0 2.711199 1_565
Ba0 N1 2.711199 1_565
Ba0 Bi1 3.865696 1_455
Ba0 Bi1 3.865696 1_565
Ba0 Bi0 4.122092 1_554
Ba0 Bi0 4.122092 1_555
Ba1 N0 2.711194 1_666
Ba1 N1 2.711194 1_665
Ba1 Bi0 3.865695 1_555
Ba1 Bi0 3.865695 1_655
Ba1 Bi1 4.122100 1_555
Ba1 Bi1 4.122100 1_556
Ba2 N1 2.711194 1_555
Ba2 N0 2.711194 1_556
Ba2 Bi0 3.865695 1_555
Ba2 Bi0 3.865695 1_545
Ba2 Bi1 4.122100 1_556
Ba2 Bi1 4.122100 1_555
Ba3 N1 2.711199 1_655
Ba3 N0 2.711199 1_656
Ba3 Bi0 3.865696 1_655
Ba3 Bi0 3.865696 1_545
Ba3 Bi1 4.122092 1_555
Ba3 Bi1 4.122092 1_556
Ba4 N0 2.711194 1_665
Ba4 N1 2.711194 1_665
Ba4 Bi1 3.865695 1_555
Ba4 Bi1 3.865695 1_565
Ba4 Bi0 4.122100 1_555
Ba4 Bi0 4.122100 1_554
Ba5 N0 2.711194 1_555
Ba5 N1 2.711194 1_555
Ba5 Bi1 3.865695 1_555
Ba5 Bi1 3.865695 1_455
Ba5 Bi0 4.122100 1_554
Ba5 Bi0 4.122100 1_555
