# generated using pymatgen
data_Sr2B5ClO9
_symmetry_space_group_name_H-M   'P 1'
_cell_length_a   6.56679300
_cell_length_b   11.45429000
_cell_length_c   11.54026300
_cell_angle_alpha   90.00000000
_cell_angle_beta   90.00000000
_cell_angle_gamma   90.00000000
_symmetry_Int_Tables_number   1
_chemical_formula_structural   Sr2B5ClO9
_chemical_formula_sum   'Sr8 B20 Cl4 O36'
_cell_volume   868.03494138
_cell_formula_units_Z   4
loop_
 _symmetry_equiv_pos_site_id
 _symmetry_equiv_pos_as_xyz
  1  'x, y, z'
loop_
 _atom_site_type_symbol
 _atom_site_label
 _atom_site_symmetry_multiplicity
 _atom_site_fract_x
 _atom_site_fract_y
 _atom_site_fract_z
 _atom_site_occupancy
  Sr  Sr0  1  0.84163600  0.74150900  0.47346600  1
  Sr  Sr1  1  0.00600100  0.95594200  0.74754000  1
  Sr  Sr2  1  0.50600100  0.45594200  0.75246000  1
  Sr  Sr3  1  0.50600100  0.54405800  0.24754000  1
  Sr  Sr4  1  0.34163600  0.75849100  0.97346600  1
  Sr  Sr5  1  0.00600100  0.04405800  0.25246000  1
  Sr  Sr6  1  0.34163600  0.24150900  0.02653400  1
  Sr  Sr7  1  0.84163600  0.25849100  0.52653400  1
  B  B0  1  0.47422100  0.99346600  0.24940200  1
  B  B1  1  0.47422100  0.00653400  0.75059800  1
  B  B2  1  0.80850400  0.73485100  0.03580800  1
  B  B3  1  0.03009100  0.71513000  0.20664700  1
  B  B4  1  0.80850400  0.26514900  0.96419200  1
  B  B5  1  0.30850400  0.76514900  0.53580800  1
  B  B6  1  0.30850400  0.23485100  0.46419200  1
  B  B7  1  0.84817500  0.29429400  0.18804700  1
  B  B8  1  0.84817500  0.70570600  0.81195300  1
  B  B9  1  0.97422100  0.49346600  0.25059800  1
  B  B10  1  0.20033700  0.32156200  0.27361700  1
  B  B11  1  0.97422100  0.50653400  0.74940200  1
  B  B12  1  0.03009100  0.28487000  0.79335300  1
  B  B13  1  0.70033700  0.17843800  0.77361700  1
  B  B14  1  0.34817500  0.20570600  0.68804700  1
  B  B15  1  0.34817500  0.79429400  0.31195300  1
  B  B16  1  0.70033700  0.82156200  0.22638300  1
  B  B17  1  0.53009100  0.78487000  0.70664700  1
  B  B18  1  0.53009100  0.21513000  0.29335300  1
  B  B19  1  0.20033700  0.67843800  0.72638300  1
  Cl  Cl0  1  0.40365800  0.50000000  0.00000000  1
  Cl  Cl1  1  0.64880600  0.50000000  0.50000000  1
  Cl  Cl2  1  0.14880600  0.00000000  0.00000000  1
  Cl  Cl3  1  0.90365800  0.00000000  0.50000000  1
  O  O0  1  0.74828400  0.26604000  0.07725200  1
  O  O1  1  0.15362100  0.26612800  0.38764400  1
  O  O2  1  0.56870900  0.23392200  0.68481500  1
  O  O3  1  0.56870900  0.76607800  0.31518500  1
  O  O4  1  0.32023000  0.92175400  0.28771600  1
  O  O5  1  0.15362100  0.73387200  0.61235600  1
  O  O6  1  0.24828400  0.23396000  0.57725200  1
  O  O7  1  0.91690100  0.81432800  0.25569600  1
  O  O8  1  0.92938500  0.61024100  0.26309600  1
  O  O9  1  0.82023000  0.57824600  0.78771600  1
  O  O10  1  0.75017000  0.77800800  0.72126300  1
  O  O11  1  0.41690100  0.68567200  0.75569600  1
  O  O12  1  0.41690100  0.31432800  0.24430400  1
  O  O13  1  0.99866500  0.70820900  0.07683400  1
  O  O14  1  0.82023000  0.42175400  0.21228400  1
  O  O15  1  0.16048900  0.55025300  0.71862300  1
  O  O16  1  0.49866500  0.79179100  0.57683400  1
  O  O17  1  0.42938500  0.11024100  0.23690400  1
  O  O18  1  0.25017000  0.27800800  0.77873700  1
  O  O19  1  0.92938500  0.38975900  0.73690400  1
  O  O20  1  0.75017000  0.22199200  0.27873700  1
  O  O21  1  0.24828400  0.76604000  0.42274800  1
  O  O22  1  0.06870900  0.73392200  0.81518500  1
  O  O23  1  0.74828400  0.73396000  0.92274800  1
  O  O24  1  0.65362100  0.76612800  0.11235600  1
  O  O25  1  0.16048900  0.44974700  0.28137700  1
  O  O26  1  0.99866500  0.29179100  0.92316600  1
  O  O27  1  0.06870900  0.26607800  0.18481500  1
  O  O28  1  0.49866500  0.20820900  0.42316600  1
  O  O29  1  0.42938500  0.88975900  0.76309600  1
  O  O30  1  0.65362100  0.23387200  0.88764400  1
  O  O31  1  0.66048900  0.05025300  0.78137700  1
  O  O32  1  0.91690100  0.18567200  0.74430400  1
  O  O33  1  0.32023000  0.07824600  0.71228400  1
  O  O34  1  0.25017000  0.72199200  0.22126300  1
  O  O35  1  0.66048900  0.94974700  0.21862300  1
loop_
_geom_bond_atom_site_label_1
_geom_bond_atom_site_label_2
_geom_bond_distance
_geom_bond_site_symmetry_2
B0 O35 1.368617 1_555
B0 O4 1.375789 1_555
B0 O17 1.377170 1_565
B1 O31 1.368617 1_555
B1 O33 1.375789 1_555
B1 O29 1.377170 1_545
B2 O23 1.363392 1_554
B2 O13 1.369910 1_555
B2 O24 1.393978 1_555
B3 O34 1.457144 1_555
B3 O7 1.471032 1_455
B3 O13 1.514300 1_455
B3 O8 1.518268 1_455
B4 O0 1.363392 1_556
B4 O26 1.369910 1_555
B4 O30 1.393978 1_555
B5 O21 1.363392 1_555
B5 O16 1.369910 1_555
B5 O5 1.393978 1_555
B6 O6 1.363392 1_555
B6 O28 1.369910 1_555
B6 O1 1.393978 1_555
B7 O0 1.473041 1_555
B7 O20 1.481688 1_555
B7 O27 1.484295 1_655
B7 O14 1.497799 1_555
B8 O23 1.473041 1_555
B8 O10 1.481688 1_555
B8 O22 1.484295 1_655
B8 O9 1.497799 1_555
B9 O25 1.368617 1_655
B9 O14 1.375789 1_555
B9 O8 1.377170 1_555
B10 O12 1.464157 1_555
B10 O27 1.483662 1_555
B10 O1 1.492943 1_555
B10 O25 1.494090 1_555
B11 O15 1.368617 1_655
B11 O9 1.375789 1_555
B11 O19 1.377170 1_555
B12 O18 1.457144 1_555
B12 O32 1.471032 1_455
B12 O26 1.514300 1_455
B12 O19 1.518268 1_455
B13 O32 1.464157 1_555
B13 O2 1.483662 1_555
B13 O30 1.492943 1_555
B13 O31 1.494090 1_555
B14 O6 1.473041 1_555
B14 O18 1.481688 1_555
B14 O2 1.484295 1_555
B14 O33 1.497799 1_555
B15 O21 1.473041 1_555
B15 O34 1.481688 1_555
B15 O3 1.484295 1_555
B15 O4 1.497799 1_555
B16 O7 1.464157 1_555
B16 O3 1.483662 1_555
B16 O24 1.492943 1_555
B16 O35 1.494090 1_555
B17 O10 1.457144 1_555
B17 O11 1.471032 1_555
B17 O16 1.514300 1_555
B17 O29 1.518268 1_555
B18 O20 1.457144 1_555
B18 O12 1.471032 1_555
B18 O28 1.514300 1_555
B18 O17 1.518268 1_555
B19 O11 1.464157 1_555
B19 O22 1.483662 1_555
B19 O5 1.492943 1_555
B19 O15 1.494090 1_555
Cl0 Sr3 2.977742 1_555
Cl0 Sr2 2.977742 1_554
Cl0 Sr4 3.004358 1_554
Cl0 Sr6 3.004358 1_555
Cl1 Sr0 3.057729 1_555
Cl1 Sr7 3.057729 1_555
Cl1 Sr3 3.101984 1_555
Cl1 Sr2 3.101984 1_555
Cl2 Sr6 3.057729 1_555
Cl2 Sr4 3.057729 1_544
Cl2 Sr1 3.101984 1_544
Cl2 Sr5 3.101984 1_555
Cl3 Sr5 2.977742 1_655
Cl3 Sr1 2.977742 1_645
Cl3 Sr7 3.004358 1_555
Cl3 Sr0 3.004358 1_545
O0 Sr6 2.748167 1_555
O1 Sr7 2.602700 1_455
O1 Sr5 3.137464 1_555
O2 Sr7 2.574463 1_555
O2 Sr2 2.691883 1_555
O3 Sr0 2.574463 1_555
O3 Sr3 2.691883 1_555
O4 Sr5 2.527056 1_565
O5 Sr0 2.602700 1_455
O5 Sr1 3.137464 1_555
O6 Sr7 2.748167 1_455
O7 Sr0 2.693655 1_555
O7 Sr5 2.695918 1_665
O8 Sr3 2.887359 1_555
O8 Sr0 2.913185 1_555
O9 Sr2 2.527056 1_555
O10 Sr1 2.658609 1_655
O10 Sr0 2.951797 1_555
O11 Sr4 2.693655 1_555
O11 Sr2 2.695918 1_555
O12 Sr6 2.693655 1_555
O12 Sr3 2.695918 1_555
O13 Sr4 2.612891 1_654
O14 Sr3 2.527056 1_555
O15 Sr2 2.543106 1_555
O16 Sr0 2.612891 1_555
O17 Sr5 2.887359 1_555
O17 Sr6 2.913185 1_555
O18 Sr2 2.658609 1_555
O18 Sr6 2.951797 1_556
O19 Sr2 2.887359 1_555
O19 Sr7 2.913185 1_555
O20 Sr5 2.658609 1_655
O20 Sr7 2.951797 1_555
O21 Sr0 2.748167 1_455
O22 Sr4 2.574463 1_555
O22 Sr1 2.691883 1_555
O23 Sr4 2.748167 1_555
O24 Sr4 2.602700 1_554
O24 Sr3 3.137464 1_555
O25 Sr3 2.543106 1_555
O26 Sr6 2.612891 1_656
O27 Sr6 2.574463 1_555
O27 Sr5 2.691883 1_555
O28 Sr7 2.612891 1_555
O29 Sr1 2.887359 1_555
O29 Sr4 2.913185 1_555
O30 Sr6 2.602700 1_556
O30 Sr2 3.137464 1_555
O31 Sr1 2.543106 1_645
O32 Sr7 2.693655 1_555
O32 Sr1 2.695918 1_645
O33 Sr1 2.527056 1_545
O34 Sr3 2.658609 1_555
O34 Sr4 2.951797 1_554
O35 Sr5 2.543106 1_665
