# generated using pymatgen
data_K10MnMo7O27
_symmetry_space_group_name_H-M   'P 1'
_cell_length_a   8.13197800
_cell_length_b   10.82050700
_cell_length_c   18.77775600
_cell_angle_alpha   90.00000000
_cell_angle_beta   90.00000000
_cell_angle_gamma   90.00000000
_symmetry_Int_Tables_number   1
_chemical_formula_structural   K10MnMo7O27
_chemical_formula_sum   'K20 Mn2 Mo14 O54'
_cell_volume   1652.29465078
_cell_formula_units_Z   2
loop_
 _symmetry_equiv_pos_site_id
 _symmetry_equiv_pos_as_xyz
  1  'x, y, z'
loop_
 _atom_site_type_symbol
 _atom_site_label
 _atom_site_symmetry_multiplicity
 _atom_site_fract_x
 _atom_site_fract_y
 _atom_site_fract_z
 _atom_site_occupancy
  K  K0  1  0.04877400  0.69286600  0.67786000  1
  K  K1  1  0.04877400  0.69286600  0.32214000  1
  K  K2  1  0.26488800  0.50863300  0.15227200  1
  K  K3  1  0.95122600  0.19286600  0.17786000  1
  K  K4  1  0.90802400  0.62308400  0.00000000  1
  K  K5  1  0.38180300  0.76642400  0.50000000  1
  K  K6  1  0.73511200  0.00863300  0.34772800  1
  K  K7  1  0.26488800  0.50863300  0.84772800  1
  K  K8  1  0.73978400  0.52239100  0.18398200  1
  K  K9  1  0.73511200  0.00863300  0.65227200  1
  K  K10  1  0.38199300  0.36533000  0.64078700  1
  K  K11  1  0.61800700  0.86533000  0.14078700  1
  K  K12  1  0.26021600  0.02239100  0.31601800  1
  K  K13  1  0.95122600  0.19286600  0.82214000  1
  K  K14  1  0.73978400  0.52239100  0.81601800  1
  K  K15  1  0.26021600  0.02239100  0.68398200  1
  K  K16  1  0.09197600  0.12308400  0.50000000  1
  K  K17  1  0.61819700  0.26642400  0.00000000  1
  K  K18  1  0.61800700  0.86533000  0.85921300  1
  K  K19  1  0.38199300  0.36533000  0.35921300  1
  Mn  Mn0  1  0.70604000  0.51247600  0.50000000  1
  Mn  Mn1  1  0.29396000  0.01247600  0.00000000  1
  Mo  Mo0  1  0.46753600  0.17820200  0.16891000  1
  Mo  Mo1  1  0.90660100  0.34762800  0.34587200  1
  Mo  Mo2  1  0.11155000  0.49992000  0.50000000  1
  Mo  Mo3  1  0.90004000  0.82270700  0.50000000  1
  Mo  Mo4  1  0.88845000  0.99992000  0.00000000  1
  Mo  Mo5  1  0.09339900  0.84762800  0.15412800  1
  Mo  Mo6  1  0.55639200  0.18135900  0.50000000  1
  Mo  Mo7  1  0.09339900  0.84762800  0.84587200  1
  Mo  Mo8  1  0.46753600  0.17820200  0.83109000  1
  Mo  Mo9  1  0.90660100  0.34762800  0.65412800  1
  Mo  Mo10  1  0.44360800  0.68135900  0.00000000  1
  Mo  Mo11  1  0.53246400  0.67820200  0.66891000  1
  Mo  Mo12  1  0.53246400  0.67820200  0.33109000  1
  Mo  Mo13  1  0.09996000  0.32270700  0.00000000  1
  O  O0  1  0.99854400  0.88684300  0.42263800  1
  O  O1  1  0.20749600  0.57172500  0.57451200  1
  O  O2  1  0.56413300  0.06823600  0.77285900  1
  O  O3  1  0.02332300  0.20773800  0.64656100  1
  O  O4  1  0.90659000  0.43751800  0.42996300  1
  O  O5  1  0.70369100  0.30811900  0.67891600  1
  O  O6  1  0.44931800  0.12807900  0.42171600  1
  O  O7  1  0.41018700  0.10077500  0.08674200  1
  O  O8  1  0.19850600  0.34992200  0.50000000  1
  O  O9  1  0.76240900  0.12490700  0.50000000  1
  O  O10  1  0.00145600  0.38684300  0.92263800  1
  O  O11  1  0.09341000  0.93751800  0.07003700  1
  O  O12  1  0.29630900  0.80811900  0.82108400  1
  O  O13  1  0.58981300  0.60077500  0.41325800  1
  O  O14  1  0.97667700  0.70773800  0.85343900  1
  O  O15  1  0.71394600  0.73521000  0.71245900  1
  O  O16  1  0.71394600  0.73521000  0.28754100  1
  O  O17  1  0.44931800  0.12807900  0.57828400  1
  O  O18  1  0.99191400  0.44024200  0.72421900  1
  O  O19  1  0.28605400  0.23521000  0.78754100  1
  O  O20  1  0.00808600  0.94024200  0.77578100  1
  O  O21  1  0.39831500  0.80462900  0.64768600  1
  O  O22  1  0.55068200  0.62807900  0.07828400  1
  O  O23  1  0.60168500  0.30462900  0.85231400  1
  O  O24  1  0.00808600  0.94024200  0.22421900  1
  O  O25  1  0.99191400  0.44024200  0.27578100  1
  O  O26  1  0.92046500  0.65271000  0.50000000  1
  O  O27  1  0.43586700  0.56823600  0.72714100  1
  O  O28  1  0.20749600  0.57172500  0.42548800  1
  O  O29  1  0.43586700  0.56823600  0.27285900  1
  O  O30  1  0.07953500  0.15271000  0.00000000  1
  O  O31  1  0.99854400  0.88684300  0.57736200  1
  O  O32  1  0.79250400  0.07172500  0.92548800  1
  O  O33  1  0.56404100  0.34915800  0.50000000  1
  O  O34  1  0.43595900  0.84915800  0.00000000  1
  O  O35  1  0.39831500  0.80462900  0.35231400  1
  O  O36  1  0.56413300  0.06823600  0.22714100  1
  O  O37  1  0.79250400  0.07172500  0.07451200  1
  O  O38  1  0.29630900  0.80811900  0.17891600  1
  O  O39  1  0.02332300  0.20773800  0.35343900  1
  O  O40  1  0.31100000  0.36066800  0.00000000  1
  O  O41  1  0.90659000  0.43751800  0.57003700  1
  O  O42  1  0.70369100  0.30811900  0.32108400  1
  O  O43  1  0.68900000  0.86066800  0.50000000  1
  O  O44  1  0.23759100  0.62490700  0.00000000  1
  O  O45  1  0.60168500  0.30462900  0.14768600  1
  O  O46  1  0.55068200  0.62807900  0.92171600  1
  O  O47  1  0.97667700  0.70773800  0.14656100  1
  O  O48  1  0.28605400  0.23521000  0.21245900  1
  O  O49  1  0.58981300  0.60077500  0.58674200  1
  O  O50  1  0.41018700  0.10077500  0.91325800  1
  O  O51  1  0.09341000  0.93751800  0.92996300  1
  O  O52  1  0.80149400  0.84992200  0.00000000  1
  O  O53  1  0.00145600  0.38684300  0.07736200  1
loop_
_geom_bond_atom_site_label_1
_geom_bond_atom_site_label_2
_geom_bond_distance
_geom_bond_site_symmetry_2
K0 O1 2.674001 1_555
K0 O15 2.836503 1_455
K0 O31 2.851947 1_455
K0 O18 2.905810 1_455
K0 O21 3.140557 1_555
K0 O20 3.264251 1_555
K0 O14 3.352567 1_455
K1 O28 2.674001 1_555
K1 O16 2.836503 1_455
K1 O0 2.851947 1_455
K1 O25 2.905810 1_455
K1 O35 3.140557 1_555
K1 O24 3.264251 1_555
K1 O47 3.352567 1_455
K2 O29 2.734308 1_555
K2 O53 2.881742 1_555
K2 O22 3.000334 1_555
K2 O44 3.131764 1_555
K2 O48 3.171765 1_555
K2 O47 3.185288 1_455
K2 O38 3.288925 1_555
K2 O25 3.294544 1_455
K2 O40 3.298445 1_555
K3 O37 2.674001 1_555
K3 O48 2.836503 1_655
K3 O53 2.851947 1_655
K3 O24 2.905810 1_645
K3 O45 3.140557 1_555
K3 O25 3.264251 1_555
K3 O39 3.352567 1_655
K4 O52 2.602894 1_555
K4 O44 2.680104 1_655
K4 O47 2.953763 1_555
K4 O14 2.953763 1_554
K4 O53 3.036770 1_655
K4 O10 3.036770 1_654
K4 O22 3.257001 1_555
K4 O46 3.257001 1_554
K5 O43 2.698245 1_555
K5 O21 2.807068 1_555
K5 O35 2.807068 1_555
K5 O28 2.899177 1_555
K5 O1 2.899177 1_555
K5 O13 2.954159 1_555
K5 O49 2.954159 1_555
K6 O36 2.734308 1_555
K6 O0 2.881742 1_545
K6 O6 3.000334 1_555
K6 O9 3.131764 1_555
K6 O16 3.171765 1_545
K6 O39 3.185288 1_655
K6 O42 3.288925 1_555
K6 O24 3.294544 1_645
K6 O43 3.298445 1_545
K7 O27 2.734308 1_555
K7 O10 2.881742 1_555
K7 O46 3.000334 1_555
K7 O44 3.131764 1_556
K7 O19 3.171765 1_555
K7 O14 3.185288 1_455
K7 O12 3.288925 1_555
K7 O18 3.294544 1_455
K7 O40 3.298445 1_556
K8 O45 2.697743 1_555
K8 O22 2.758963 1_555
K8 O25 2.822294 1_555
K8 O47 2.868281 1_555
K8 O16 3.021352 1_555
K8 O29 3.023143 1_555
K8 O53 3.269182 1_655
K9 O2 2.734308 1_555
K9 O31 2.881742 1_545
K9 O17 3.000334 1_555
K9 O9 3.131764 1_555
K9 O15 3.171765 1_545
K9 O3 3.185288 1_655
K9 O5 3.288925 1_555
K9 O20 3.294544 1_645
K9 O43 3.298445 1_545
K10 O27 2.764368 1_555
K10 O5 2.781999 1_555
K10 O17 2.875348 1_555
K10 O1 2.924033 1_555
K10 O33 3.034995 1_555
K10 O8 3.040256 1_555
K10 O19 3.191391 1_555
K10 O49 3.221243 1_555
K10 O3 3.380335 1_555
K11 O36 2.764368 1_565
K11 O38 2.781999 1_555
K11 O22 2.875348 1_555
K11 O37 2.924033 1_565
K11 O34 3.034995 1_555
K11 O52 3.040256 1_555
K11 O16 3.191391 1_555
K11 O7 3.221243 1_565
K11 O47 3.380335 1_555
K12 O35 2.697743 1_545
K12 O6 2.758963 1_555
K12 O24 2.822294 1_545
K12 O39 2.868281 1_555
K12 O48 3.021352 1_555
K12 O36 3.023143 1_555
K12 O0 3.269182 1_445
K13 O32 2.674001 1_555
K13 O19 2.836503 1_655
K13 O10 2.851947 1_655
K13 O20 2.905810 1_645
K13 O23 3.140557 1_555
K13 O18 3.264251 1_555
K13 O3 3.352567 1_655
K14 O23 2.697743 1_555
K14 O46 2.758963 1_555
K14 O18 2.822294 1_555
K14 O14 2.868281 1_555
K14 O15 3.021352 1_555
K14 O27 3.023143 1_555
K14 O10 3.269182 1_655
K15 O21 2.697743 1_545
K15 O17 2.758963 1_555
K15 O20 2.822294 1_545
K15 O3 2.868281 1_555
K15 O19 3.021352 1_555
K15 O2 3.023143 1_555
K15 O31 3.269182 1_445
K16 O8 2.602894 1_555
K16 O9 2.680104 1_455
K16 O39 2.953763 1_555
K16 O3 2.953763 1_555
K16 O0 3.036770 1_445
K16 O31 3.036770 1_445
K16 O6 3.257001 1_555
K16 O17 3.257001 1_555
K17 O40 2.698245 1_555
K17 O23 2.807068 1_554
K17 O45 2.807068 1_555
K17 O37 2.899177 1_555
K17 O32 2.899177 1_554
K17 O50 2.954159 1_554
K17 O7 2.954159 1_555
K18 O2 2.764368 1_565
K18 O12 2.781999 1_555
K18 O46 2.875348 1_555
K18 O32 2.924033 1_565
K18 O34 3.034995 1_556
K18 O52 3.040256 1_556
K18 O15 3.191391 1_555
K18 O50 3.221243 1_565
K18 O14 3.380335 1_555
K19 O29 2.764368 1_555
K19 O42 2.781999 1_555
K19 O6 2.875348 1_555
K19 O28 2.924033 1_555
K19 O33 3.034995 1_555
K19 O8 3.040256 1_555
K19 O48 3.191391 1_555
K19 O13 3.221243 1_555
K19 O39 3.380335 1_555
Mn0 O33 2.111006 1_555
Mn0 O13 2.111691 1_555
Mn0 O49 2.111691 1_555
Mn0 O4 2.246592 1_555
Mn0 O41 2.246592 1_555
Mn0 O26 2.311493 1_555
Mn1 O34 2.111006 1_545
Mn1 O50 2.111691 1_554
Mn1 O7 2.111691 1_555
Mn1 O51 2.246592 1_544
Mn1 O11 2.246592 1_545
Mn1 O30 2.311493 1_555
Mo0 O45 1.794526 1_555
Mo0 O48 1.796451 1_555
Mo0 O36 1.796805 1_555
Mo0 O7 1.816600 1_555
Mo1 O42 1.766951 1_555
Mo1 O39 1.792307 1_655
Mo1 O25 1.793831 1_555
Mo1 O4 1.854569 1_555
Mo2 O8 1.770404 1_555
Mo2 O28 1.780480 1_555
Mo2 O1 1.780480 1_555
Mo2 O4 2.227891 1_455
Mo2 O41 2.227891 1_455
Mo2 O26 2.268896 1_455
Mo3 O43 1.764644 1_555
Mo3 O0 1.798210 1_555
Mo3 O31 1.798210 1_555
Mo3 O26 1.846937 1_555
Mo4 O52 1.770404 1_555
Mo4 O37 1.780480 1_565
Mo4 O32 1.780480 1_564
Mo4 O51 2.227891 1_654
Mo4 O11 2.227891 1_655
Mo4 O30 2.268896 1_665
Mo5 O38 1.766951 1_555
Mo5 O47 1.792307 1_455
Mo5 O24 1.793831 1_555
Mo5 O11 1.854569 1_555
Mo6 O9 1.783211 1_555
Mo6 O17 1.803171 1_555
Mo6 O6 1.803171 1_555
Mo6 O33 1.816735 1_555
Mo7 O12 1.766951 1_555
Mo7 O14 1.792307 1_455
Mo7 O20 1.793831 1_555
Mo7 O51 1.854569 1_555
Mo8 O23 1.794526 1_555
Mo8 O19 1.796451 1_555
Mo8 O2 1.796805 1_555
Mo8 O50 1.816600 1_555
Mo9 O5 1.766951 1_555
Mo9 O3 1.792307 1_655
Mo9 O18 1.793831 1_555
Mo9 O41 1.854569 1_555
Mo10 O44 1.783211 1_555
Mo10 O22 1.803171 1_555
Mo10 O46 1.803171 1_554
Mo10 O34 1.816735 1_555
Mo11 O21 1.794526 1_555
Mo11 O15 1.796451 1_555
Mo11 O27 1.796805 1_555
Mo11 O49 1.816600 1_555
Mo12 O35 1.794526 1_555
Mo12 O16 1.796451 1_555
Mo12 O29 1.796805 1_555
Mo12 O13 1.816600 1_555
Mo13 O40 1.764644 1_555
Mo13 O53 1.798210 1_555
Mo13 O10 1.798210 1_554
Mo13 O30 1.846937 1_555
