# generated using pymatgen
data_Sn(SeO3)2
_symmetry_space_group_name_H-M   'P 1'
_cell_length_a   8.23418081
_cell_length_b   8.23418081
_cell_length_c   8.23418081
_cell_angle_alpha   90.00000000
_cell_angle_beta   90.00000000
_cell_angle_gamma   90.00000000
_symmetry_Int_Tables_number   1
_chemical_formula_structural   Sn(SeO3)2
_chemical_formula_sum   'Sn4 Se8 O24'
_cell_volume   558.29173379
_cell_formula_units_Z   4
loop_
 _symmetry_equiv_pos_site_id
 _symmetry_equiv_pos_as_xyz
  1  'x, y, z'
loop_
 _atom_site_type_symbol
 _atom_site_label
 _atom_site_symmetry_multiplicity
 _atom_site_fract_x
 _atom_site_fract_y
 _atom_site_fract_z
 _atom_site_occupancy
  Sn  Sn0  1  0.50000000  0.50000000  0.00000000  1
  Sn  Sn1  1  0.50000000  -0.00000000  0.50000000  1
  Sn  Sn2  1  -0.00000000  -0.00000000  0.00000000  1
  Sn  Sn3  1  -0.00000000  0.50000000  0.50000000  1
  Se  Se0  1  0.83293778  0.16706222  0.66706222  1
  Se  Se1  1  0.16706222  0.83293778  0.33293778  1
  Se  Se2  1  0.66706222  0.66706222  0.66706222  1
  Se  Se3  1  0.16706222  0.66706222  0.83293778  1
  Se  Se4  1  0.33293778  0.16706222  0.83293778  1
  Se  Se5  1  0.83293778  0.33293778  0.16706222  1
  Se  Se6  1  0.66706222  0.83293778  0.16706222  1
  Se  Se7  1  0.33293778  0.33293778  0.33293778  1
  O  O0  1  0.24461181  0.46527905  0.46673878  1
  O  O1  1  0.96673878  0.24461181  0.03472095  1
  O  O2  1  0.03326122  0.74461181  0.46527905  1
  O  O3  1  0.46673878  0.25538819  0.96527905  1
  O  O4  1  0.25538819  0.96527905  0.46673878  1
  O  O5  1  0.53472095  0.53326122  0.75538819  1
  O  O6  1  0.96527905  0.03326122  0.75538819  1
  O  O7  1  0.53326122  0.74461181  0.03472095  1
  O  O8  1  0.53472095  0.96673878  0.25538819  1
  O  O9  1  0.46527905  0.03326122  0.74461181  1
  O  O10  1  0.75538819  0.96527905  0.03326122  1
  O  O11  1  0.25538819  0.53472095  0.96673878  1
  O  O12  1  0.03472095  0.53326122  0.74461181  1
  O  O13  1  0.03472095  0.96673878  0.24461181  1
  O  O14  1  0.24461181  0.03472095  0.96673878  1
  O  O15  1  0.46527905  0.46673878  0.24461181  1
  O  O16  1  0.75538819  0.53472095  0.53326122  1
  O  O17  1  0.96527905  0.46673878  0.25538819  1
  O  O18  1  0.03326122  0.75538819  0.96527905  1
  O  O19  1  0.46673878  0.24461181  0.46527905  1
  O  O20  1  0.53326122  0.75538819  0.53472095  1
  O  O21  1  0.96673878  0.25538819  0.53472095  1
  O  O22  1  0.74461181  0.03472095  0.53326122  1
  O  O23  1  0.74461181  0.46527905  0.03326122  1
loop_
_geom_bond_atom_site_label_1
_geom_bond_atom_site_label_2
_geom_bond_distance
_geom_bond_site_symmetry_2
O0 Se7 1.711807 1_555
O0 Sn3 2.052720 1_555
O1 Se5 1.711807 1_555
O1 Sn2 2.052720 1_655
O2 Se1 1.711807 1_555
O2 Sn3 2.052720 1_555
O3 Se4 1.711807 1_555
O3 Sn0 2.052720 1_556
O4 Se1 1.711807 1_555
O4 Sn1 2.052720 1_565
O5 Se2 1.711807 1_555
O5 Sn0 2.052720 1_556
O6 Se0 1.711807 1_555
O6 Sn2 2.052720 1_656
O7 Se6 1.711807 1_555
O7 Sn0 2.052720 1_555
O8 Se6 1.711807 1_555
O8 Sn1 2.052720 1_565
O9 Se4 1.711807 1_555
O9 Sn1 2.052720 1_555
O10 Se6 1.711807 1_555
O10 Sn2 2.052720 1_665
O11 Se3 1.711807 1_555
O11 Sn0 2.052720 1_556
O12 Se3 1.711807 1_555
O12 Sn3 2.052720 1_555
O13 Se1 1.711807 1_555
O13 Sn2 2.052720 1_565
O14 Se4 1.711807 1_555
O14 Sn2 2.052720 1_556
O15 Se7 1.711807 1_555
O15 Sn0 2.052720 1_555
O16 Se2 1.711807 1_555
O16 Sn3 2.052720 1_655
O17 Se5 1.711807 1_555
O17 Sn3 2.052720 1_655
O18 Se3 1.711807 1_555
O18 Sn2 2.052720 1_566
O19 Se7 1.711807 1_555
O19 Sn1 2.052720 1_555
O20 Se2 1.711807 1_555
O20 Sn1 2.052720 1_565
O21 Se0 1.711807 1_555
O21 Sn3 2.052720 1_655
O22 Se0 1.711807 1_555
O22 Sn1 2.052720 1_555
O23 Se5 1.711807 1_555
O23 Sn0 2.052720 1_555
