# generated using pymatgen
data_RbEu(SO4)2
_symmetry_space_group_name_H-M   'P 1'
_cell_length_a   7.43238130
_cell_length_b   7.43238130
_cell_length_c   9.72335654
_cell_angle_alpha   78.41220887
_cell_angle_beta   78.41220887
_cell_angle_gamma   43.45740572
_symmetry_Int_Tables_number   1
_chemical_formula_structural   RbEu(SO4)2
_chemical_formula_sum   'Rb2 Eu2 S4 O16'
_cell_volume   360.69968797
_cell_formula_units_Z   2
loop_
 _symmetry_equiv_pos_site_id
 _symmetry_equiv_pos_as_xyz
  1  'x, y, z'
loop_
 _atom_site_type_symbol
 _atom_site_label
 _atom_site_symmetry_multiplicity
 _atom_site_fract_x
 _atom_site_fract_y
 _atom_site_fract_z
 _atom_site_occupancy
  Rb  Rb0  1  0.50000000  0.00000000  0.00000000  1
  Rb  Rb1  1  0.00000000  0.50000000  0.50000000  1
  Eu  Eu0  1  0.17842000  0.82158000  0.75000000  1
  Eu  Eu1  1  0.82158000  0.17842000  0.25000000  1
  S  S0  1  0.64955800  0.17520000  0.61263500  1
  S  S1  1  0.17520000  0.64955800  0.11263500  1
  S  S2  1  0.35044200  0.82480000  0.38736500  1
  S  S3  1  0.82480000  0.35044200  0.88736500  1
  O  O0  1  0.78623900  0.17534900  0.90781200  1
  O  O1  1  0.60955100  0.60345800  0.31685100  1
  O  O2  1  0.39044900  0.39654200  0.68314900  1
  O  O3  1  0.15902000  0.60720200  0.97372900  1
  O  O4  1  0.84098000  0.39279800  0.02627100  1
  O  O5  1  0.92233700  0.78712900  0.20168200  1
  O  O6  1  0.07766300  0.21287100  0.79831800  1
  O  O7  1  0.21376100  0.82465100  0.09218800  1
  O  O8  1  0.17534900  0.78623900  0.40781200  1
  O  O9  1  0.78712900  0.92233700  0.70168200  1
  O  O10  1  0.21287100  0.07766300  0.29831800  1
  O  O11  1  0.60720200  0.15902000  0.47372900  1
  O  O12  1  0.60345800  0.60955100  0.81685100  1
  O  O13  1  0.39654200  0.39044900  0.18314900  1
  O  O14  1  0.82465100  0.21376100  0.59218800  1
  O  O15  1  0.39279800  0.84098000  0.52627100  1
loop_
_geom_bond_atom_site_label_1
_geom_bond_atom_site_label_2
_geom_bond_distance
_geom_bond_site_symmetry_2
Eu0 O2 2.464058 1_555
Eu0 O12 2.464058 1_555
Eu0 O3 2.471216 1_555
Eu0 O15 2.471216 1_555
Eu0 O14 2.542002 1_465
Eu0 O0 2.542002 1_465
Eu0 O6 2.546583 1_565
Eu0 O9 2.546583 1_455
Eu1 O13 2.464058 1_555
Eu1 O1 2.464058 1_555
Eu1 O4 2.471216 1_555
Eu1 O11 2.471216 1_555
Eu1 O8 2.542002 1_645
Eu1 O7 2.542002 1_645
Eu1 O5 2.546583 1_545
Eu1 O10 2.546583 1_655
O0 S3 1.493263 1_555
O0 Rb0 3.133326 1_556
O1 S2 1.486076 1_555
O1 Rb1 3.235814 1_655
O2 S0 1.486076 1_555
O2 Rb1 3.235814 1_555
O3 S1 1.492916 1_556
O3 Rb0 3.169776 1_556
O3 Rb0 3.408335 1_466
O4 S3 1.492916 1_554
O4 Rb0 3.169776 1_565
O4 Rb0 3.408335 1_655
O5 S1 1.496451 1_655
O5 Rb1 3.114265 1_655
O5 Rb0 3.196640 1_565
O6 S3 1.496451 1_455
O6 Rb1 3.114265 1_555
O6 Rb0 3.196640 1_556
O7 S1 1.493263 1_555
O7 Rb0 3.133326 1_565
O8 S2 1.493263 1_555
O8 Rb1 3.133326 1_555
O9 S0 1.496451 1_565
O9 Rb0 3.114265 1_566
O9 Rb1 3.196640 1_655
O10 S2 1.496451 1_545
O10 Rb0 3.114265 1_555
O10 Rb1 3.196640 1_555
O11 S0 1.492916 1_555
O11 Rb1 3.169776 1_555
O11 Rb1 3.408335 1_645
O12 S3 1.486076 1_555
O12 Rb0 3.235814 1_566
O13 S1 1.486076 1_555
O13 Rb0 3.235814 1_555
O14 S0 1.493263 1_555
O14 Rb1 3.133326 1_655
O15 S2 1.492916 1_555
O15 Rb1 3.169776 1_655
O15 Rb1 3.408335 1_565
