# generated using pymatgen
data_TeO2
_symmetry_space_group_name_H-M   'P 1'
_cell_length_a   4.83261952
_cell_length_b   4.83261952
_cell_length_c   7.65129122
_cell_angle_alpha   90.00000000
_cell_angle_beta   90.00000000
_cell_angle_gamma   90.00000000
_symmetry_Int_Tables_number   1
_chemical_formula_structural   TeO2
_chemical_formula_sum   'Te4 O8'
_cell_volume   178.68987283
_cell_formula_units_Z   4
loop_
 _symmetry_equiv_pos_site_id
 _symmetry_equiv_pos_as_xyz
  1  'x, y, z'
loop_
 _atom_site_type_symbol
 _atom_site_label
 _atom_site_symmetry_multiplicity
 _atom_site_fract_x
 _atom_site_fract_y
 _atom_site_fract_z
 _atom_site_occupancy
  Te  Te0  1  0.97227081  0.97227081  0.50000000  1
  Te  Te1  1  0.52772919  0.47227081  0.75000000  1
  Te  Te2  1  0.47227081  0.52772919  0.25000000  1
  Te  Te3  1  0.02772919  0.02772919  -0.00000000  1
  O  O0  1  0.73978736  0.86074215  0.31512349  1
  O  O1  1  0.26021264  0.13925785  0.81512349  1
  O  O2  1  0.86074215  0.73978736  0.68487651  1
  O  O3  1  0.36074215  0.76021264  0.06512349  1
  O  O4  1  0.13925785  0.26021264  0.18487651  1
  O  O5  1  0.23978736  0.63925785  0.43487651  1
  O  O6  1  0.76021264  0.36074215  0.93487651  1
  O  O7  1  0.63925785  0.23978736  0.56512349  1
loop_
_geom_bond_atom_site_label_1
_geom_bond_atom_site_label_2
_geom_bond_distance
_geom_bond_site_symmetry_2
O0 Te0 1.885124 1_555
O0 Te2 2.123571 1_555
O1 Te3 1.885124 1_556
O1 Te1 2.123571 1_555
O2 Te0 1.885124 1_555
O2 Te1 2.123571 1_555
O3 Te2 1.885124 1_555
O3 Te3 2.123571 1_565
O4 Te3 1.885124 1_555
O4 Te2 2.123571 1_555
O5 Te2 1.885124 1_555
O5 Te0 2.123571 1_455
O6 Te1 1.885124 1_555
O6 Te3 2.123571 1_656
O7 Te1 1.885124 1_555
O7 Te0 2.123571 1_545
