# generated using pymatgen
data_ScNiSn
_symmetry_space_group_name_H-M   'P 1'
_cell_length_a   4.31130236
_cell_length_b   6.66237812
_cell_length_c   7.39329728
_cell_angle_alpha   90.00000000
_cell_angle_beta   90.00000000
_cell_angle_gamma   90.00000000
_symmetry_Int_Tables_number   1
_chemical_formula_structural   ScNiSn
_chemical_formula_sum   'Sc4 Ni4 Sn4'
_cell_volume   212.36157043
_cell_formula_units_Z   4
loop_
 _symmetry_equiv_pos_site_id
 _symmetry_equiv_pos_as_xyz
  1  'x, y, z'
loop_
 _atom_site_type_symbol
 _atom_site_label
 _atom_site_symmetry_multiplicity
 _atom_site_fract_x
 _atom_site_fract_y
 _atom_site_fract_z
 _atom_site_occupancy
  Sc  Sc0  1  0.75000000  0.98796972  0.29522210  1
  Sc  Sc1  1  0.25000000  0.01203028  0.70477790  1
  Sc  Sc2  1  0.75000000  0.48796972  0.20477790  1
  Sc  Sc3  1  0.25000000  0.51203028  0.79522210  1
  Ni  Ni0  1  0.75000000  0.71020166  0.58067848  1
  Ni  Ni1  1  0.25000000  0.28979834  0.41932152  1
  Ni  Ni2  1  0.75000000  0.21020166  0.91932152  1
  Ni  Ni3  1  0.25000000  0.78979834  0.08067848  1
  Sn  Sn0  1  0.75000000  0.80575201  0.91073353  1
  Sn  Sn1  1  0.25000000  0.19424799  0.08926647  1
  Sn  Sn2  1  0.75000000  0.30575201  0.58926647  1
  Sn  Sn3  1  0.25000000  0.69424799  0.41073353  1
loop_
_geom_bond_atom_site_label_1
_geom_bond_atom_site_label_2
_geom_bond_distance
_geom_bond_site_symmetry_2
Sc0 Sn1 2.975589 1_665
Sc0 Sn1 2.975589 1_565
Sc0 Sn3 3.034067 1_555
Sc0 Sn3 3.034067 1_655
Sc0 Sn2 3.034562 1_565
Sc0 Sn0 3.091019 1_554
Sc0 Sc2 3.397640 1_565
Sc0 Sc2 3.397640 1_555
Sc1 Sn0 2.975589 1_445
Sc1 Sn0 2.975589 1_545
Sc1 Sn2 3.034067 1_455
Sc1 Sn2 3.034067 1_555
Sc1 Sn3 3.034562 1_545
Sc1 Sn1 3.091019 1_556
Sc1 Sc3 3.397640 1_545
Sc1 Sc3 3.397640 1_555
Sc2 Sn3 2.975589 1_655
Sc2 Sn3 2.975589 1_555
Sc2 Sn1 3.034067 1_655
Sc2 Sn1 3.034067 1_555
Sc2 Sn0 3.034562 1_554
Sc2 Sn2 3.091019 1_555
Sc3 Sn2 2.975589 1_555
Sc3 Sn2 2.975589 1_455
Sc3 Sn0 3.034067 1_555
Sc3 Sn0 3.034067 1_455
Sc3 Sn1 3.034562 1_556
Sc3 Sn3 3.091019 1_555
Ni0 Sn3 2.497360 1_555
Ni0 Sn3 2.497360 1_655
Ni0 Sn0 2.521865 1_555
Ni0 Sn2 2.695344 1_555
Ni0 Sc0 2.806913 1_555
Ni0 Sc3 2.984290 1_555
Ni0 Sc3 2.984290 1_655
Ni0 Sc1 3.087450 1_565
Ni0 Sc1 3.087450 1_665
Ni0 Sc2 3.148937 1_555
Ni1 Sn2 2.497360 1_555
Ni1 Sn2 2.497360 1_455
Ni1 Sn1 2.521865 1_555
Ni1 Sn3 2.695344 1_555
Ni1 Sc1 2.806913 1_555
Ni1 Sc2 2.984290 1_555
Ni1 Sc2 2.984290 1_455
Ni1 Sc0 3.087450 1_445
Ni1 Sc0 3.087450 1_545
Ni1 Sc3 3.148937 1_555
Ni2 Sn1 2.497360 1_556
Ni2 Sn1 2.497360 1_656
Ni2 Sn2 2.521865 1_555
Ni2 Sn0 2.695344 1_545
Ni2 Sc2 2.806913 1_556
Ni2 Sc1 2.984290 1_555
Ni2 Sc1 2.984290 1_655
Ni2 Sc3 3.087450 1_555
Ni2 Sc3 3.087450 1_655
Ni2 Sc0 3.148937 1_546
Ni3 Sn0 2.497360 1_554
Ni3 Sn0 2.497360 1_454
Ni3 Sn3 2.521865 1_555
Ni3 Sn1 2.695344 1_565
Ni3 Sc3 2.806913 1_554
Ni3 Sc0 2.984290 1_555
Ni3 Sc0 2.984290 1_455
Ni3 Sc2 3.087450 1_555
Ni3 Sc2 3.087450 1_455
Ni3 Sc1 3.148937 1_564
