# generated using pymatgen
data_Pr(NiAs)2
_symmetry_space_group_name_H-M   'P 1'
_cell_length_a   4.08146027
_cell_length_b   4.08146069
_cell_length_c   5.74961635
_cell_angle_alpha   110.78934052
_cell_angle_beta   110.78934625
_cell_angle_gamma   90.00000069
_symmetry_Int_Tables_number   1
_chemical_formula_structural   Pr(NiAs)2
_chemical_formula_sum   'Pr1 Ni2 As2'
_cell_volume   82.83882350
_cell_formula_units_Z   1
loop_
 _symmetry_equiv_pos_site_id
 _symmetry_equiv_pos_as_xyz
  1  'x, y, z'
loop_
 _atom_site_type_symbol
 _atom_site_label
 _atom_site_symmetry_multiplicity
 _atom_site_fract_x
 _atom_site_fract_y
 _atom_site_fract_z
 _atom_site_occupancy
  Pr  Pr0  1  0.00000000  0.00000000  -0.00000000  1
  Ni  Ni0  1  0.75000000  0.25000000  0.50000000  1
  Ni  Ni1  1  0.25000000  0.75000000  0.50000000  1
  As  As0  1  0.36346731  0.36346731  0.72693361  1
  As  As1  1  0.63653269  0.63653269  0.27306639  1
loop_
_geom_bond_atom_site_label_1
_geom_bond_atom_site_label_2
_geom_bond_distance
_geom_bond_site_symmetry_2
Ni0 Pr0 3.216646 1_656
Ni0 Pr0 3.216646 1_655
Ni0 Pr0 3.216647 1_555
Ni0 Pr0 3.216647 1_666
Ni1 Pr0 3.216646 1_565
Ni1 Pr0 3.216646 1_566
Ni1 Pr0 3.216647 1_666
Ni1 Pr0 3.216647 1_555
As0 Ni0 2.331970 1_555
As0 Ni1 2.331970 1_555
As0 Ni0 2.331974 1_455
As0 Ni1 2.331974 1_545
As0 Pr0 3.189524 1_666
As0 Pr0 3.189526 1_656
As0 Pr0 3.189527 1_566
As0 Pr0 3.189529 1_556
As1 Ni1 2.331970 1_555
As1 Ni0 2.331970 1_555
As1 Ni1 2.331974 1_655
As1 Ni0 2.331974 1_565
As1 Pr0 3.189524 1_555
As1 Pr0 3.189526 1_565
As1 Pr0 3.189527 1_655
As1 Pr0 3.189529 1_665
