# generated using pymatgen
data_RbRe3Br10
_symmetry_space_group_name_H-M   'P 1'
_cell_length_a   9.31825803
_cell_length_b   9.31846284
_cell_length_c   10.57033340
_cell_angle_alpha   88.34626866
_cell_angle_beta   88.35060425
_cell_angle_gamma   72.12845451
_symmetry_Int_Tables_number   1
_chemical_formula_structural   RbRe3Br10
_chemical_formula_sum   'Rb2 Re6 Br20'
_cell_volume   872.99742405
_cell_formula_units_Z   2
loop_
 _symmetry_equiv_pos_site_id
 _symmetry_equiv_pos_as_xyz
  1  'x, y, z'
loop_
 _atom_site_type_symbol
 _atom_site_label
 _atom_site_symmetry_multiplicity
 _atom_site_fract_x
 _atom_site_fract_y
 _atom_site_fract_z
 _atom_site_occupancy
  Rb  Rb0  1  0.78415946  0.21583643  0.00000900  1
  Rb  Rb1  1  0.21584119  0.78416993  0.00000753  1
  Re  Re0  1  0.40907416  0.18744542  0.37249639  1
  Re  Re1  1  0.81255321  0.59093287  0.62750479  1
  Re  Re2  1  0.18744956  0.40906405  0.37250000  1
  Re  Re3  1  0.59092890  0.81254751  0.62750250  1
  Re  Re4  1  0.23697100  0.23698784  0.19338280  1
  Re  Re5  1  0.76303390  0.76301642  0.80661265  1
  Br  Br0  1  0.29141130  0.60811424  0.29944998  1
  Br  Br1  1  0.92285476  0.92281920  0.74028506  1
  Br  Br2  1  0.07715138  0.07717412  0.25970187  1
  Br  Br3  1  0.15886494  0.15884674  0.96312140  1
  Br  Br4  1  0.52916038  0.99651119  0.81156078  1
  Br  Br5  1  0.99890696  0.67824916  0.49669199  1
  Br  Br6  1  0.70859404  0.39188272  0.70054115  1
  Br  Br7  1  0.35944713  0.35946018  0.56335341  1
  Br  Br8  1  0.32175024  0.00111796  0.50331417  1
  Br  Br9  1  0.47083032  0.00347373  0.18844297  1
  Br  Br10  1  0.39190576  0.70858653  0.70054932  1
  Br  Br11  1  0.60809971  0.29141677  0.29943379  1
  Br  Br12  1  0.63081669  0.63078099  0.95505164  1
  Br  Br13  1  0.99656422  0.52915965  0.81157100  1
  Br  Br14  1  0.84112527  0.84113653  0.03686015  1
  Br  Br15  1  0.67824709  0.99888132  0.49670014  1
  Br  Br16  1  0.36916945  0.36926580  0.04495676  1
  Br  Br17  1  0.00343788  0.47083907  0.18844400  1
  Br  Br18  1  0.64054153  0.64053546  0.43665223  1
  Br  Br19  1  0.00110659  0.32174818  0.50330252  1
loop_
_geom_bond_atom_site_label_1
_geom_bond_atom_site_label_2
_geom_bond_distance
_geom_bond_site_symmetry_2
Re0 Re2 2.431474 1_555
Re0 Re4 2.457532 1_555
Re1 Re3 2.431450 1_555
Re1 Re5 2.457522 1_555
Re2 Re4 2.457556 1_555
Re3 Re5 2.457518 1_555
Br0 Re2 2.439726 1_555
Br0 Rb1 3.510755 1_555
Br1 Re5 2.483476 1_555
Br1 Rb1 3.836872 1_656
Br1 Rb0 3.837359 1_566
Br2 Re4 2.483524 1_555
Br2 Rb0 3.836689 1_455
Br2 Rb1 3.837050 1_545
Br3 Re4 2.741081 1_556
Br3 Rb1 3.379273 1_546
Br3 Rb0 3.379474 1_456
Br4 Re5 2.564351 1_555
Br4 Re3 2.564684 1_555
Br5 Re1 2.500685 1_555
Br5 Re2 2.907651 1_655
Br6 Re1 2.439670 1_555
Br6 Rb0 3.510958 1_556
Br7 Re2 2.555350 1_555
Br7 Re0 2.555613 1_555
Br8 Re0 2.500541 1_555
Br8 Re3 2.907506 1_545
Br9 Re4 2.564378 1_555
Br9 Re0 2.564691 1_555
Br10 Re3 2.439491 1_555
Br10 Rb1 3.511093 1_556
Br11 Re0 2.439618 1_555
Br11 Rb0 3.510758 1_555
Br12 Re5 2.491412 1_555
Br12 Rb0 3.709509 1_556
Br12 Rb1 3.709778 1_556
Br13 Re5 2.564450 1_555
Br13 Re1 2.564868 1_555
Br14 Re5 2.740825 1_554
Br14 Rb0 3.379466 1_565
Br14 Rb1 3.379570 1_655
Br15 Re3 2.500474 1_555
Br15 Re0 2.907524 1_565
Br16 Re4 2.491469 1_555
Br16 Rb1 3.709144 1_555
Br16 Rb0 3.709919 1_555
Br17 Re4 2.564431 1_555
Br17 Re2 2.564788 1_555
Br18 Re1 2.555421 1_555
Br18 Re3 2.555545 1_555
Br19 Re2 2.500548 1_555
Br19 Re1 2.907731 1_455
