# generated using pymatgen
data_Sr9YbV7O28
_symmetry_space_group_name_H-M   'P 1'
_cell_length_a   14.95423912
_cell_length_b   14.95423912
_cell_length_c   14.95423954
_cell_angle_alpha   44.65909986
_cell_angle_beta   44.65909986
_cell_angle_gamma   44.65909887
_symmetry_Int_Tables_number   1
_chemical_formula_structural   Sr9YbV7O28
_chemical_formula_sum   'Sr18 Yb2 V14 O56'
_cell_volume   1502.72235492
_cell_formula_units_Z   2
loop_
 _symmetry_equiv_pos_site_id
 _symmetry_equiv_pos_as_xyz
  1  'x, y, z'
loop_
 _atom_site_type_symbol
 _atom_site_label
 _atom_site_symmetry_multiplicity
 _atom_site_fract_x
 _atom_site_fract_y
 _atom_site_fract_z
 _atom_site_occupancy
  Sr  Sr0  1  0.95002300  0.54496500  0.52719400  1
  Sr  Sr1  1  0.65073100  0.09029800  0.06341900  1
  Sr  Sr2  1  0.43321700  0.42443500  0.84403500  1
  Sr  Sr3  1  0.34403500  0.92443500  0.93321700  1
  Sr  Sr4  1  0.42443500  0.84403500  0.43321700  1
  Sr  Sr5  1  0.54496500  0.52719400  0.95002300  1
  Sr  Sr6  1  0.92443500  0.93321700  0.34403500  1
  Sr  Sr7  1  0.56341900  0.59029800  0.15073100  1
  Sr  Sr8  1  0.93321700  0.34403500  0.92443500  1
  Sr  Sr9  1  0.45002300  0.02719400  0.04496500  1
  Sr  Sr10  1  0.06341900  0.65073100  0.09029800  1
  Sr  Sr11  1  0.02719400  0.04496500  0.45002300  1
  Sr  Sr12  1  0.59029800  0.15073100  0.56341900  1
  Sr  Sr13  1  0.04496500  0.45002300  0.02719400  1
  Sr  Sr14  1  0.52719400  0.95002300  0.54496500  1
  Sr  Sr15  1  0.15073100  0.56341900  0.59029800  1
  Sr  Sr16  1  0.84403500  0.43321700  0.42443500  1
  Sr  Sr17  1  0.09029800  0.06341900  0.65073100  1
  Yb  Yb0  1  0.00009000  0.00009000  0.00009000  1
  Yb  Yb1  1  0.50009000  0.50009000  0.50009000  1
  V  V0  1  0.68041300  0.22382600  0.19234600  1
  V  V1  1  0.31111300  0.27993900  0.81261900  1
  V  V2  1  0.22382600  0.19234600  0.68041300  1
  V  V3  1  0.81111300  0.31261900  0.77993900  1
  V  V4  1  0.27993900  0.81261900  0.31111300  1
  V  V5  1  0.19234600  0.68041300  0.22382600  1
  V  V6  1  0.18041300  0.69234600  0.72382600  1
  V  V7  1  0.69234600  0.72382600  0.18041300  1
  V  V8  1  0.31261900  0.77993900  0.81111300  1
  V  V9  1  0.81261900  0.31111300  0.27993900  1
  V  V10  1  0.72382600  0.18041300  0.69234600  1
  V  V11  1  0.77993900  0.81111300  0.31261900  1
  V  V12  1  0.72941000  0.72941000  0.72941000  1
  V  V13  1  0.22941000  0.22941000  0.22941000  1
  O  O0  1  0.10549400  0.66211700  0.39471700  1
  O  O1  1  0.60153000  0.23227300  0.14059600  1
  O  O2  1  0.14388100  0.37340900  0.62122900  1
  O  O3  1  0.39630500  0.22507700  0.10180100  1
  O  O4  1  0.16211700  0.60549400  0.89471700  1
  O  O5  1  0.60549400  0.89471700  0.16211700  1
  O  O6  1  0.10180100  0.39630500  0.22507700  1
  O  O7  1  0.23227300  0.14059600  0.60153000  1
  O  O8  1  0.63071600  0.38454500  0.36644600  1
  O  O9  1  0.66211700  0.39471700  0.10549400  1
  O  O10  1  0.13071600  0.86644600  0.88454500  1
  O  O11  1  0.35695200  0.60072500  0.90574400  1
  O  O12  1  0.82495500  0.39192500  0.81264600  1
  O  O13  1  0.39192500  0.81264600  0.82495500  1
  O  O14  1  0.89630500  0.60180100  0.72507700  1
  O  O15  1  0.36644600  0.63071600  0.38454500  1
  O  O16  1  0.10153000  0.64059600  0.73227300  1
  O  O17  1  0.32495500  0.31264600  0.89192500  1
  O  O18  1  0.89471700  0.16211700  0.60549400  1
  O  O19  1  0.38454500  0.36644600  0.63071600  1
  O  O20  1  0.12502900  0.86285700  0.12605100  1
  O  O21  1  0.36719400  0.84585900  0.63404400  1
  O  O22  1  0.34585900  0.86719400  0.13404400  1
  O  O23  1  0.89192500  0.32495500  0.31264600  1
  O  O24  1  0.64059600  0.73227300  0.10153000  1
  O  O25  1  0.72507700  0.89630500  0.60180100  1
  O  O26  1  0.18599000  0.18599000  0.18599000  1
  O  O27  1  0.31264600  0.89192500  0.32495500  1
  O  O28  1  0.86644600  0.88454500  0.13071600  1
  O  O29  1  0.13404400  0.34585900  0.86719400  1
  O  O30  1  0.87340900  0.64388100  0.12122900  1
  O  O31  1  0.86719400  0.13404400  0.34585900  1
  O  O32  1  0.12605100  0.12502900  0.86285700  1
  O  O33  1  0.62122900  0.14388100  0.37340900  1
  O  O34  1  0.14059600  0.60153000  0.23227300  1
  O  O35  1  0.88454500  0.13071600  0.86644600  1
  O  O36  1  0.36285700  0.62502900  0.62605100  1
  O  O37  1  0.90574400  0.35695200  0.60072500  1
  O  O38  1  0.81264600  0.82495500  0.39192500  1
  O  O39  1  0.85695200  0.40574400  0.10072500  1
  O  O40  1  0.62605100  0.36285700  0.62502900  1
  O  O41  1  0.12122900  0.87340900  0.64388100  1
  O  O42  1  0.37340900  0.62122900  0.14388100  1
  O  O43  1  0.68599000  0.68599000  0.68599000  1
  O  O44  1  0.62502900  0.62605100  0.36285700  1
  O  O45  1  0.60180100  0.72507700  0.89630500  1
  O  O46  1  0.60072500  0.90574400  0.35695200  1
  O  O47  1  0.63404400  0.36719400  0.84585900  1
  O  O48  1  0.86285700  0.12605100  0.12502900  1
  O  O49  1  0.73227300  0.10153000  0.64059600  1
  O  O50  1  0.84585900  0.63404400  0.36719400  1
  O  O51  1  0.40574400  0.10072500  0.85695200  1
  O  O52  1  0.39471700  0.10549400  0.66211700  1
  O  O53  1  0.22507700  0.10180100  0.39630500  1
  O  O54  1  0.10072500  0.85695200  0.40574400  1
  O  O55  1  0.64388100  0.12122900  0.87340900  1
loop_
_geom_bond_atom_site_label_1
_geom_bond_atom_site_label_2
_geom_bond_distance
_geom_bond_site_symmetry_2
O0 V5 1.755439 1_555
O0 Sr15 2.538404 1_555
O0 Sr0 2.589191 1_455
O0 Sr6 2.696978 1_455
O1 V0 1.718730 1_555
O1 Sr1 2.537046 1_555
O1 Sr5 2.920609 1_554
O2 V2 1.742140 1_555
O2 Sr15 2.602928 1_555
O2 Sr0 2.655217 1_455
O2 Sr8 3.080746 1_455
O3 V13 1.745039 1_555
O3 Sr1 2.549041 1_555
O3 Sr2 2.648971 1_554
O3 Sr9 3.057694 1_555
O4 V6 1.755439 1_555
O4 Sr10 2.538404 1_556
O4 Sr13 2.589191 1_556
O4 Sr2 2.696978 1_555
O5 V7 1.755439 1_555
O5 Sr1 2.538404 1_565
O5 Sr9 2.589191 1_565
O5 Sr4 2.696978 1_555
O6 V13 1.745039 1_555
O6 Sr10 2.549041 1_555
O6 Sr16 2.648971 1_455
O6 Sr13 3.057694 1_555
O7 V2 1.718730 1_555
O7 Sr17 2.537046 1_555
O7 Sr14 2.920609 1_545
O8 V9 1.744783 1_555
O8 Yb1 2.313594 1_555
O8 Sr7 2.641829 1_555
O8 Sr12 2.662579 1_555
O9 V0 1.755439 1_555
O9 Sr7 2.538404 1_555
O9 Sr5 2.589191 1_554
O9 Sr8 2.696978 1_554
O10 V8 1.744783 1_555
O10 Yb0 2.313594 1_566
O10 Sr10 2.641829 1_556
O10 Sr17 2.662579 1_565
O11 V8 1.742499 1_555
O11 Sr5 2.601373 1_555
O11 Sr2 2.605512 1_555
O11 Sr10 2.911416 1_556
O12 V3 1.734082 1_555
O12 Sr8 2.535007 1_555
O12 Sr5 2.733056 1_555
O12 Sr0 2.791274 1_555
O13 V8 1.734082 1_555
O13 Sr3 2.535007 1_555
O13 Sr14 2.733056 1_555
O13 Sr5 2.791274 1_555
O14 V12 1.745039 1_555
O14 Sr15 2.549041 1_655
O14 Sr8 2.648971 1_555
O14 Sr0 3.057694 1_555
O15 V4 1.744783 1_555
O15 Yb1 2.313594 1_555
O15 Sr15 2.641829 1_555
O15 Sr7 2.662579 1_555
O16 V6 1.718730 1_555
O16 Sr15 2.537046 1_555
O16 Sr13 2.920609 1_556
O17 V1 1.734082 1_555
O17 Sr2 2.535006 1_555
O17 Sr13 2.733056 1_556
O17 Sr9 2.791274 1_556
O18 V10 1.755439 1_555
O18 Sr17 2.538404 1_655
O18 Sr11 2.589191 1_655
O18 Sr16 2.696978 1_555
O19 V1 1.744783 1_555
O19 Yb1 2.313594 1_555
O19 Sr12 2.641829 1_555
O19 Sr15 2.662579 1_555
O20 V5 1.762567 1_555
O20 Yb0 2.302867 1_565
O20 Sr3 2.639499 1_554
O20 Sr6 2.685151 1_455
O21 V8 1.733834 1_555
O21 Sr4 2.485750 1_555
O21 Sr14 2.782402 1_555
O21 Sr17 2.883258 1_565
O22 V4 1.733834 1_555
O22 Sr3 2.485750 1_554
O22 Sr9 2.782402 1_565
O22 Sr7 2.883258 1_555
O23 V9 1.734082 1_555
O23 Sr16 2.535007 1_555
O23 Sr11 2.733056 1_655
O23 Sr13 2.791274 1_655
O24 V7 1.718730 1_555
O24 Sr7 2.537046 1_555
O24 Sr9 2.920609 1_565
O25 V12 1.745039 1_555
O25 Sr12 2.549041 1_565
O25 Sr6 2.648971 1_555
O25 Sr14 3.057694 1_555
O26 V13 1.750475 1_555
O26 Sr9 2.759805 1_555
O26 Sr13 2.759805 1_555
O26 Sr11 2.759805 1_555
O27 V4 1.734082 1_555
O27 Sr4 2.535007 1_555
O27 Sr9 2.733056 1_565
O27 Sr11 2.791274 1_565
O28 V11 1.744783 1_555
O28 Yb0 2.313594 1_665
O28 Sr1 2.641829 1_565
O28 Sr10 2.662579 1_655
O29 V1 1.733833 1_555
O29 Sr8 2.485750 1_455
O29 Sr13 2.782402 1_556
O29 Sr15 2.883258 1_555
O30 V7 1.742140 1_555
O30 Sr10 2.602928 1_655
O30 Sr13 2.655217 1_655
O30 Sr16 3.080746 1_555
O31 V9 1.733833 1_555
O31 Sr6 2.485750 1_545
O31 Sr11 2.782402 1_655
O31 Sr12 2.883258 1_555
O32 V2 1.762568 1_555
O32 Yb0 2.302867 1_556
O32 Sr8 2.639499 1_455
O32 Sr3 2.685151 1_545
O33 V0 1.742140 1_555
O33 Sr12 2.602928 1_555
O33 Sr14 2.655217 1_545
O33 Sr6 3.080746 1_545
O34 V5 1.718730 1_555
O34 Sr10 2.537046 1_555
O34 Sr0 2.920609 1_455
O35 V3 1.744783 1_555
O35 Yb0 2.313594 1_656
O35 Sr17 2.641829 1_655
O35 Sr1 2.662579 1_556
O36 V6 1.762567 1_555
O36 Yb1 2.302867 1_555
O36 Sr4 2.639499 1_555
O36 Sr2 2.685151 1_555
O37 V3 1.742499 1_555
O37 Sr0 2.601373 1_555
O37 Sr16 2.605512 1_555
O37 Sr17 2.911416 1_655
O38 V11 1.734082 1_555
O38 Sr6 2.535006 1_555
O38 Sr0 2.733056 1_555
O38 Sr14 2.791274 1_555
O39 V9 1.742499 1_555
O39 Sr13 2.601373 1_655
O39 Sr8 2.605512 1_554
O39 Sr7 2.911416 1_555
O40 V10 1.762567 1_555
O40 Yb1 2.302867 1_555
O40 Sr2 2.639499 1_555
O40 Sr16 2.685151 1_555
O41 V6 1.742140 1_555
O41 Sr17 2.602928 1_565
O41 Sr11 2.655217 1_565
O41 Sr4 3.080746 1_555
O42 V5 1.742140 1_555
O42 Sr7 2.602928 1_555
O42 Sr5 2.655217 1_554
O42 Sr3 3.080746 1_554
O43 V12 1.750475 1_555
O43 Sr14 2.759805 1_555
O43 Sr0 2.759805 1_555
O43 Sr5 2.759805 1_555
O44 V7 1.762568 1_555
O44 Yb1 2.302867 1_555
O44 Sr16 2.639499 1_555
O44 Sr4 2.685151 1_555
O45 V12 1.745039 1_555
O45 Sr7 2.549041 1_556
O45 Sr3 2.648971 1_555
O45 Sr5 3.057694 1_555
O46 V11 1.742499 1_555
O46 Sr14 2.601373 1_555
O46 Sr4 2.605512 1_555
O46 Sr1 2.911416 1_565
O47 V3 1.733833 1_555
O47 Sr2 2.485750 1_555
O47 Sr5 2.782402 1_555
O47 Sr1 2.883258 1_556
O48 V0 1.762567 1_555
O48 Yb0 2.302867 1_655
O48 Sr6 2.639499 1_545
O48 Sr8 2.685151 1_554
O49 V10 1.718730 1_555
O49 Sr12 2.537046 1_555
O49 Sr11 2.920609 1_655
O50 V11 1.733833 1_555
O50 Sr16 2.485750 1_555
O50 Sr0 2.782402 1_555
O50 Sr10 2.883258 1_655
O51 V1 1.742499 1_555
O51 Sr9 2.601373 1_556
O51 Sr3 2.605512 1_545
O51 Sr12 2.911416 1_555
O52 V2 1.755439 1_555
O52 Sr12 2.538404 1_555
O52 Sr14 2.589191 1_545
O52 Sr3 2.696978 1_545
O53 V13 1.745039 1_555
O53 Sr17 2.549041 1_555
O53 Sr4 2.648971 1_545
O53 Sr11 3.057694 1_555
O54 V4 1.742499 1_555
O54 Sr11 2.601373 1_565
O54 Sr6 2.605512 1_455
O54 Sr15 2.911416 1_555
O55 V10 1.742140 1_555
O55 Sr1 2.602928 1_556
O55 Sr9 2.655217 1_556
O55 Sr2 3.080746 1_555
