# generated using pymatgen
data_Na2RuO3
_symmetry_space_group_name_H-M   'P 1'
_cell_length_a   5.48273973
_cell_length_b   5.48273973
_cell_length_c   10.87913333
_cell_angle_alpha   85.07866080
_cell_angle_beta   85.07866080
_cell_angle_gamma   119.83434611
_symmetry_Int_Tables_number   1
_chemical_formula_structural   Na2RuO3
_chemical_formula_sum   'Na8 Ru4 O12'
_cell_volume   279.50342135
_cell_formula_units_Z   4
loop_
 _symmetry_equiv_pos_site_id
 _symmetry_equiv_pos_as_xyz
  1  'x, y, z'
loop_
 _atom_site_type_symbol
 _atom_site_label
 _atom_site_symmetry_multiplicity
 _atom_site_fract_x
 _atom_site_fract_y
 _atom_site_fract_z
 _atom_site_occupancy
  Na  Na0  1  0.91309300  0.08690700  0.75000000  1
  Na  Na1  1  0.31979900  0.15662600  0.49798700  1
  Na  Na2  1  0.15662600  0.31979900  0.99798700  1
  Na  Na3  1  0.84337400  0.68020100  0.00201300  1
  Na  Na4  1  0.50000000  0.00000000  0.00000000  1
  Na  Na5  1  0.68020100  0.84337400  0.50201300  1
  Na  Na6  1  0.08690700  0.91309300  0.25000000  1
  Na  Na7  1  0.00000000  0.50000000  0.50000000  1
  Ru  Ru0  1  0.41979000  0.58021000  0.25000000  1
  Ru  Ru1  1  0.24620700  0.75379300  0.75000000  1
  Ru  Ru2  1  0.58021000  0.41979000  0.75000000  1
  Ru  Ru3  1  0.75379300  0.24620700  0.25000000  1
  O  O0  1  0.87380800  0.41951200  0.85295000  1
  O  O1  1  0.68346600  0.50917800  0.35033000  1
  O  O2  1  0.31653400  0.49082200  0.64967000  1
  O  O3  1  0.95268100  0.75556100  0.64565700  1
  O  O4  1  0.49082200  0.31653400  0.14967000  1
  O  O5  1  0.12619200  0.58048800  0.14705000  1
  O  O6  1  0.24443900  0.04731900  0.85434300  1
  O  O7  1  0.41951200  0.87380800  0.35295000  1
  O  O8  1  0.58048800  0.12619200  0.64705000  1
  O  O9  1  0.04731900  0.24443900  0.35434300  1
  O  O10  1  0.50917800  0.68346600  0.85033000  1
  O  O11  1  0.75556100  0.95268100  0.14565700  1
loop_
_geom_bond_atom_site_label_1
_geom_bond_atom_site_label_2
_geom_bond_distance
_geom_bond_site_symmetry_2
Na0 O10 2.299017 1_545
Na0 O2 2.299017 1_655
Na0 O8 2.307841 1_555
Na0 O0 2.307841 1_555
Na0 O6 2.310830 1_655
Na0 O3 2.310830 1_545
Na1 O8 2.299805 1_555
Na1 O1 2.318465 1_555
Na1 O9 2.427525 1_555
Na1 O3 2.429578 1_445
Na1 O7 2.511623 1_545
Na1 O2 2.574320 1_555
Na2 O5 2.299805 1_556
Na2 O10 2.318465 1_555
Na2 O6 2.427525 1_555
Na2 O11 2.429578 1_446
Na2 O0 2.511623 1_455
Na2 O4 2.574320 1_556
Na3 O0 2.299805 1_554
Na3 O4 2.318465 1_555
Na3 O11 2.427525 1_555
Na3 O6 2.429578 1_664
Na3 O5 2.511623 1_655
Na3 O10 2.574320 1_554
Na4 O11 2.283361 1_545
Na4 O6 2.283361 1_554
Na4 O0 2.483104 1_554
Na4 O5 2.483104 1_545
Na4 O10 2.494669 1_544
Na4 O4 2.494669 1_555
Na5 O7 2.299805 1_555
Na5 O2 2.318465 1_555
Na5 O3 2.427525 1_555
Na5 O9 2.429578 1_665
Na5 O8 2.511623 1_565
Na5 O1 2.574320 1_555
Na6 O1 2.299017 1_455
Na6 O4 2.299017 1_565
Na6 O5 2.307841 1_555
Na6 O7 2.307841 1_555
Na6 O9 2.310830 1_565
Na6 O11 2.310830 1_455
Na7 O3 2.283361 1_455
Na7 O9 2.283361 1_555
Na7 O7 2.483104 1_555
Na7 O8 2.483104 1_455
Na7 O1 2.494669 1_455
Na7 O2 2.494669 1_555
O0 Ru2 2.038898 1_555
O0 Ru1 2.077111 1_655
O1 Ru3 2.042009 1_555
O1 Ru0 2.047193 1_555
O2 Ru1 2.042009 1_555
O2 Ru2 2.047193 1_555
O3 Ru1 2.050779 1_655
O3 Ru2 2.085936 1_555
O4 Ru3 2.042009 1_555
O4 Ru0 2.047193 1_555
O5 Ru0 2.038898 1_555
O5 Ru3 2.077111 1_455
O6 Ru1 2.050779 1_545
O6 Ru2 2.085936 1_555
O7 Ru0 2.038898 1_555
O7 Ru3 2.077111 1_565
O8 Ru2 2.038898 1_555
O8 Ru1 2.077111 1_545
O9 Ru3 2.050779 1_455
O9 Ru0 2.085936 1_555
O10 Ru1 2.042009 1_555
O10 Ru2 2.047193 1_555
O11 Ru3 2.050779 1_565
O11 Ru0 2.085936 1_555
