# generated using pymatgen
data_La2SiS5
_symmetry_space_group_name_H-M   'P 1'
_cell_length_a   12.68343128
_cell_length_b   7.64170337
_cell_length_c   7.92982959
_cell_angle_alpha   78.58429424
_cell_angle_beta   90.00000000
_cell_angle_gamma   90.00000000
_symmetry_Int_Tables_number   1
_chemical_formula_structural   La2SiS5
_chemical_formula_sum   'La8 Si4 S20'
_cell_volume   753.37811723
_cell_formula_units_Z   4
loop_
 _symmetry_equiv_pos_site_id
 _symmetry_equiv_pos_as_xyz
  1  'x, y, z'
loop_
 _atom_site_type_symbol
 _atom_site_label
 _atom_site_symmetry_multiplicity
 _atom_site_fract_x
 _atom_site_fract_y
 _atom_site_fract_z
 _atom_site_occupancy
  La  La0  1  0.59482303  0.74038881  0.45479330  1
  La  La1  1  0.83488943  0.33566956  0.63307485  1
  La  La2  1  0.90517697  0.74038881  0.95479330  1
  La  La3  1  0.33488943  0.66433044  0.86692515  1
  La  La4  1  0.09482303  0.25961119  0.04520670  1
  La  La5  1  0.16511057  0.66433044  0.36692515  1
  La  La6  1  0.66511057  0.33566956  0.13307485  1
  La  La7  1  0.40517697  0.25961119  0.54520670  1
  Si  Si0  1  0.61640263  0.82917627  0.90370704  1
  Si  Si1  1  0.38359737  0.17082373  0.09629296  1
  Si  Si2  1  0.11640263  0.17082373  0.59629296  1
  Si  Si3  1  0.88359737  0.82917627  0.40370704  1
  S  S0  1  0.77437705  0.02240899  0.44883041  1
  S  S1  1  0.62105065  0.36194046  0.49676999  1
  S  S2  1  0.29793214  0.37181650  0.19415852  1
  S  S3  1  0.37894935  0.63805954  0.50323001  1
  S  S4  1  0.87894935  0.36194046  0.99676999  1
  S  S5  1  0.27437705  0.97759101  0.05116959  1
  S  S6  1  0.96963986  0.67611469  0.61122678  1
  S  S7  1  0.00055521  0.92086588  0.21917893  1
  S  S8  1  0.46963986  0.32388531  0.88877322  1
  S  S9  1  0.49944479  0.92086588  0.71917893  1
  S  S10  1  0.70206786  0.62818350  0.80584148  1
  S  S11  1  0.99944479  0.07913412  0.78082107  1
  S  S12  1  0.72562295  0.02240899  0.94883041  1
  S  S13  1  0.53036014  0.67611469  0.11122678  1
  S  S14  1  0.22562295  0.97759101  0.55116959  1
  S  S15  1  0.03036014  0.32388531  0.38877322  1
  S  S16  1  0.50055521  0.07913412  0.28082107  1
  S  S17  1  0.12105065  0.63805954  0.00323001  1
  S  S18  1  0.79793214  0.62818350  0.30584148  1
  S  S19  1  0.20206786  0.37181650  0.69415852  1
loop_
_geom_bond_atom_site_label_1
_geom_bond_atom_site_label_2
_geom_bond_distance
_geom_bond_site_symmetry_2
La0 S3 2.852518 1_555
La0 S1 2.864263 1_555
La0 S16 2.935971 1_565
La0 S13 2.976898 1_555
La0 S9 2.984212 1_555
La0 S18 3.027813 1_555
La0 S10 3.064287 1_555
La0 S0 3.129343 1_565
La1 S1 2.911834 1_555
La1 S11 2.943231 1_555
La1 S4 2.983199 1_555
La1 S6 3.088824 1_555
La1 S18 3.107047 1_555
La1 S0 3.136660 1_555
La1 S15 3.158609 1_655
La1 S10 3.305111 1_555
La1 S12 3.398218 1_555
La2 S17 2.852518 1_656
La2 S4 2.864263 1_555
La2 S11 2.935971 1_565
La2 S6 2.976898 1_555
La2 S7 2.984212 1_656
La2 S10 3.027813 1_555
La2 S18 3.064287 1_556
La2 S12 3.129343 1_565
La3 S17 2.911834 1_556
La3 S9 2.943231 1_555
La3 S3 2.983199 1_555
La3 S8 3.088824 1_555
La3 S2 3.107047 1_556
La3 S5 3.136660 1_556
La3 S13 3.158609 1_556
La3 S19 3.305111 1_555
La3 S14 3.398218 1_555
La4 S4 2.852518 1_454
La4 S17 2.864263 1_555
La4 S7 2.935971 1_545
La4 S15 2.976898 1_555
La4 S11 2.984212 1_454
La4 S2 3.027813 1_555
La4 S19 3.064287 1_554
La4 S5 3.129343 1_545
La5 S3 2.911834 1_555
La5 S7 2.943231 1_555
La5 S17 2.983199 1_555
La5 S15 3.088824 1_555
La5 S19 3.107047 1_555
La5 S14 3.136660 1_555
La5 S6 3.158609 1_455
La5 S2 3.305111 1_555
La5 S5 3.398218 1_555
La6 S4 2.911834 1_554
La6 S16 2.943231 1_555
La6 S1 2.983199 1_555
La6 S13 3.088824 1_555
La6 S10 3.107047 1_554
La6 S12 3.136660 1_554
La6 S8 3.158609 1_554
La6 S18 3.305111 1_555
La6 S0 3.398218 1_555
La7 S1 2.852518 1_555
La7 S3 2.864263 1_555
La7 S9 2.935971 1_545
La7 S8 2.976898 1_555
La7 S16 2.984212 1_555
La7 S19 3.027813 1_555
La7 S2 3.064287 1_555
La7 S14 3.129343 1_545
S0 Si3 2.106334 1_545
S2 Si1 2.147958 1_555
S5 Si1 2.106334 1_565
S6 Si3 2.122525 1_555
S7 Si3 2.103999 1_455
S8 Si1 2.122525 1_556
S9 Si0 2.103999 1_555
S10 Si0 2.147958 1_555
S11 Si2 2.103999 1_655
S12 Si0 2.106334 1_545
S13 Si0 2.122525 1_554
S14 Si2 2.106334 1_565
S15 Si2 2.122525 1_555
S16 Si1 2.103999 1_555
S18 Si3 2.147958 1_555
S19 Si2 2.147958 1_555
