# generated using pymatgen
data_LuTaO4
_symmetry_space_group_name_H-M   'P 1'
_cell_length_a   5.02917513
_cell_length_b   5.20097356
_cell_length_c   5.42305868
_cell_angle_alpha   90.00000000
_cell_angle_beta   90.00000000
_cell_angle_gamma   95.63602483
_symmetry_Int_Tables_number   1
_chemical_formula_structural   LuTaO4
_chemical_formula_sum   'Lu2 Ta2 O8'
_cell_volume   141.16309523
_cell_formula_units_Z   2
loop_
 _symmetry_equiv_pos_site_id
 _symmetry_equiv_pos_as_xyz
  1  'x, y, z'
loop_
 _atom_site_type_symbol
 _atom_site_label
 _atom_site_symmetry_multiplicity
 _atom_site_fract_x
 _atom_site_fract_y
 _atom_site_fract_z
 _atom_site_occupancy
  Lu  Lu0  1  0.00000000  0.75000000  0.77190453  1
  Lu  Lu1  1  0.00000000  0.25000000  0.22809547  1
  Ta  Ta0  1  0.50000000  0.25000000  0.69731240  1
  Ta  Ta1  1  0.50000000  0.75000000  0.30268760  1
  O  O0  1  0.73327243  -0.00481284  0.56992999  1
  O  O1  1  0.26672757  0.50481284  0.56992999  1
  O  O2  1  0.26672757  0.00481284  0.43007001  1
  O  O3  1  0.73327243  0.49518716  0.43007001  1
  O  O4  1  0.24543990  0.59222722  0.08359545  1
  O  O5  1  0.75456010  0.90777278  0.08359545  1
  O  O6  1  0.75456010  0.40777278  0.91640455  1
  O  O7  1  0.24543990  0.09222722  0.91640455  1
loop_
_geom_bond_atom_site_label_1
_geom_bond_atom_site_label_2
_geom_bond_distance
_geom_bond_site_symmetry_2
Lu0 O6 2.207777 1_455
Lu0 O7 2.207777 1_565
Lu0 O1 2.227395 1_555
Lu0 O0 2.227395 1_465
Lu0 O5 2.291966 1_456
Lu0 O4 2.291966 1_556
Lu0 O3 2.577423 1_455
Lu0 O2 2.577423 1_565
Lu1 O5 2.207777 1_445
Lu1 O4 2.207777 1_555
Lu1 O3 2.227395 1_455
Lu1 O2 2.227395 1_555
Lu1 O7 2.291966 1_554
Lu1 O6 2.291966 1_454
Lu1 O0 2.577423 1_455
Lu1 O1 2.577423 1_555
O0 Ta0 1.978704 1_555
O0 Ta1 2.192950 1_545
O1 Ta0 1.978704 1_555
O1 Ta1 2.192950 1_555
O2 Ta1 1.978704 1_545
O2 Ta0 2.192950 1_555
O3 Ta1 1.978704 1_555
O3 Ta0 2.192950 1_555
O4 Ta1 1.875548 1_555
O5 Ta1 1.875548 1_555
O6 Ta0 1.875548 1_555
O7 Ta0 1.875548 1_555
