# generated using pymatgen
data_Rb2SbBr6
_symmetry_space_group_name_H-M   'P 1'
_cell_length_a   13.54166434
_cell_length_b   13.54166434
_cell_length_c   13.54166434
_cell_angle_alpha   131.98828296
_cell_angle_beta   131.98828296
_cell_angle_gamma   70.24753331
_symmetry_Int_Tables_number   1
_chemical_formula_structural   Rb2SbBr6
_chemical_formula_sum   'Rb8 Sb4 Br24'
_cell_volume   1344.64702458
_cell_formula_units_Z   4
loop_
 _symmetry_equiv_pos_site_id
 _symmetry_equiv_pos_as_xyz
  1  'x, y, z'
loop_
 _atom_site_type_symbol
 _atom_site_label
 _atom_site_symmetry_multiplicity
 _atom_site_fract_x
 _atom_site_fract_y
 _atom_site_fract_z
 _atom_site_occupancy
  Rb  Rb0  1  0.09896600  0.62500000  0.97396600  1
  Rb  Rb1  1  0.37500000  0.90103400  0.02603400  1
  Rb  Rb2  1  0.65103400  0.62500000  0.52603400  1
  Rb  Rb3  1  0.37500000  0.34896600  0.47396600  1
  Rb  Rb4  1  0.87500000  0.34896600  0.97396600  1
  Rb  Rb5  1  0.87500000  0.90103400  0.52603400  1
  Rb  Rb6  1  0.09896600  0.12500000  0.47396600  1
  Rb  Rb7  1  0.65103400  0.12500000  0.02603400  1
  Sb  Sb0  1  0.75000000  0.25000000  0.50000000  1
  Sb  Sb1  1  0.50000000  0.50000000  0.00000000  1
  Sb  Sb2  1  0.25000000  0.75000000  0.50000000  1
  Sb  Sb3  1  0.00000000  0.00000000  0.00000000  1
  Br  Br0  1  0.24804400  0.99749300  0.25055100  1
  Br  Br1  1  0.00250700  0.75195600  0.74944900  1
  Br  Br2  1  0.24847600  0.99009600  0.74162000  1
  Br  Br3  1  0.74749300  0.49804400  0.75055100  1
  Br  Br4  1  0.49314400  0.75152400  0.74162000  1
  Br  Br5  1  0.12497600  0.12497600  0.00000000  1
  Br  Br6  1  0.50152400  0.74314400  0.24162000  1
  Br  Br7  1  0.87497600  0.37497600  0.50000000  1
  Br  Br8  1  0.00250700  0.25305800  0.25055100  1
  Br  Br9  1  0.38070200  0.38070200  0.00000000  1
  Br  Br10  1  0.61929800  0.61929800  0.00000000  1
  Br  Br11  1  0.50152400  0.25990400  0.75838000  1
  Br  Br12  1  0.25685600  0.49847600  0.75838000  1
  Br  Br13  1  0.50195600  0.25250700  0.24944900  1
  Br  Br14  1  0.36929800  0.86929800  0.50000000  1
  Br  Br15  1  0.62502400  0.12502400  0.50000000  1
  Br  Br16  1  0.24847600  0.50685600  0.25838000  1
  Br  Br17  1  0.13070200  0.63070200  0.50000000  1
  Br  Br18  1  0.00990400  0.75152400  0.25838000  1
  Br  Br19  1  0.00305800  0.25250700  0.75055100  1
  Br  Br20  1  0.74694200  0.99749300  0.74944900  1
  Br  Br21  1  0.74009600  0.49847600  0.24162000  1
  Br  Br22  1  0.74749300  0.99694200  0.24944900  1
  Br  Br23  1  0.87502400  0.87502400  0.00000000  1
loop_
_geom_bond_atom_site_label_1
_geom_bond_atom_site_label_2
_geom_bond_distance
_geom_bond_site_symmetry_2
Br0 Sb3 2.761208 1_565
Br0 Rb3 3.750672 1_565
Br0 Rb1 3.750672 1_555
Br0 Rb6 3.877658 1_565
Br0 Rb0 3.877658 1_554
Br1 Sb3 2.761208 1_566
Br1 Rb0 3.750672 1_555
Br1 Rb2 3.750672 1_455
Br1 Rb1 3.877658 1_556
Br1 Rb5 3.877658 1_455
Br2 Sb2 2.662459 1_555
Br2 Rb5 3.900366 1_455
Br2 Rb1 3.900366 1_556
Br2 Rb7 4.136919 1_566
Br2 Rb6 4.136919 1_565
Br3 Sb0 2.761208 1_555
Br3 Rb0 3.750672 1_655
Br3 Rb2 3.750672 1_555
Br3 Rb3 3.877658 1_555
Br3 Rb4 3.877658 1_555
Br4 Sb2 2.662459 1_555
Br4 Rb2 3.900366 1_555
Br4 Rb7 3.900366 1_566
Br4 Rb3 4.136919 1_555
Br4 Rb1 4.136919 1_556
Br5 Sb3 2.768438 1_555
Br5 Rb4 3.698294 1_454
Br5 Rb5 3.698294 1_444
Br5 Rb3 3.698294 1_555
Br5 Rb1 3.698294 1_545
Br6 Sb1 2.662459 1_555
Br6 Rb1 3.900366 1_555
Br6 Rb5 3.900366 1_555
Br6 Rb2 4.136919 1_555
Br6 Rb0 4.136919 1_554
Br7 Sb0 2.768438 1_555
Br7 Rb6 3.698294 1_655
Br7 Rb7 3.698294 1_555
Br7 Rb2 3.698294 1_555
Br7 Rb0 3.698294 1_655
Br8 Sb3 2.761208 1_555
Br8 Rb6 3.750672 1_555
Br8 Rb7 3.750672 1_455
Br8 Rb3 3.877658 1_555
Br8 Rb4 3.877658 1_454
Br9 Sb1 2.642660 1_555
Br9 Rb2 4.105355 1_555
Br9 Rb0 4.105355 1_554
Br9 Rb7 4.105355 1_555
Br9 Rb6 4.105355 1_554
Br10 Sb1 2.642660 1_555
Br10 Rb5 4.105355 1_555
Br10 Rb3 4.105355 1_554
Br10 Rb1 4.105355 1_555
Br10 Rb4 4.105355 1_554
Br11 Sb1 2.662459 1_556
Br11 Rb3 3.900366 1_555
Br11 Rb4 3.900366 1_555
Br11 Rb6 4.136919 1_555
Br11 Rb7 4.136919 1_556
Br12 Sb1 2.662459 1_556
Br12 Rb0 3.900366 1_555
Br12 Rb6 3.900366 1_555
Br12 Rb1 4.136919 1_556
Br12 Rb3 4.136919 1_555
Br13 Sb0 2.761208 1_555
Br13 Rb3 3.750672 1_555
Br13 Rb1 3.750672 1_545
Br13 Rb7 3.877658 1_555
Br13 Rb2 3.877658 1_555
Br14 Sb2 2.642660 1_555
Br14 Rb0 4.105355 1_554
Br14 Rb2 4.105355 1_555
Br14 Rb6 4.105355 1_565
Br14 Rb7 4.105355 1_566
Br15 Sb0 2.768438 1_555
Br15 Rb5 3.698294 1_545
Br15 Rb4 3.698294 1_555
Br15 Rb3 3.698294 1_555
Br15 Rb1 3.698294 1_545
Br16 Sb2 2.662459 1_555
Br16 Rb3 3.900366 1_555
Br16 Rb4 3.900366 1_454
Br16 Rb2 4.136919 1_555
Br16 Rb0 4.136919 1_554
Br17 Sb2 2.642660 1_555
Br17 Rb4 4.105355 1_454
Br17 Rb3 4.105355 1_555
Br17 Rb5 4.105355 1_455
Br17 Rb1 4.105355 1_556
Br18 Sb2 2.662459 1_555
Br18 Rb0 3.900366 1_554
Br18 Rb6 3.900366 1_565
Br18 Rb5 4.136919 1_455
Br18 Rb4 4.136919 1_454
Br19 Sb0 2.761208 1_455
Br19 Rb4 3.750672 1_455
Br19 Rb5 3.750672 1_445
Br19 Rb6 3.877658 1_555
Br19 Rb0 3.877658 1_555
Br20 Sb3 2.761208 1_666
Br20 Rb4 3.750672 1_565
Br20 Rb5 3.750672 1_555
Br20 Rb2 3.877658 1_555
Br20 Rb7 3.877658 1_566
Br21 Sb1 2.662459 1_555
Br21 Rb7 3.900366 1_555
Br21 Rb2 3.900366 1_555
Br21 Rb5 4.136919 1_555
Br21 Rb4 4.136919 1_554
Br22 Sb0 2.761208 1_565
Br22 Rb6 3.750672 1_665
Br22 Rb7 3.750672 1_565
Br22 Rb5 3.877658 1_555
Br22 Rb1 3.877658 1_555
Br23 Sb3 2.768438 1_665
Br23 Rb0 3.698294 1_654
Br23 Rb7 3.698294 1_565
Br23 Rb6 3.698294 1_665
Br23 Rb2 3.698294 1_554
