# generated using pymatgen
data_MnSiNi
_symmetry_space_group_name_H-M   'P 1'
_cell_length_a   4.05641437
_cell_length_b   4.05641437
_cell_length_c   4.84421900
_cell_angle_alpha   90.00000000
_cell_angle_beta   90.00000000
_cell_angle_gamma   120.00000604
_symmetry_Int_Tables_number   1
_chemical_formula_structural   MnSiNi
_chemical_formula_sum   'Mn2 Si2 Ni2'
_cell_volume   69.03017894
_cell_formula_units_Z   2
loop_
 _symmetry_equiv_pos_site_id
 _symmetry_equiv_pos_as_xyz
  1  'x, y, z'
loop_
 _atom_site_type_symbol
 _atom_site_label
 _atom_site_symmetry_multiplicity
 _atom_site_fract_x
 _atom_site_fract_y
 _atom_site_fract_z
 _atom_site_occupancy
  Mn  Mn0  1  0.33333300  0.66666700  0.25000000  1
  Mn  Mn1  1  0.66666700  0.33333300  0.75000000  1
  Si  Si0  1  0.66666700  0.33333300  0.25000000  1
  Si  Si1  1  0.33333300  0.66666700  0.75000000  1
  Ni  Ni0  1  0.00000000  0.00000000  0.00000000  1
  Ni  Ni1  1  0.00000000  0.00000000  0.50000000  1
loop_
_geom_bond_atom_site_label_1
_geom_bond_atom_site_label_2
_geom_bond_distance
_geom_bond_site_symmetry_2
Mn0 Si0 2.341969 1_455
Mn0 Si0 2.341969 1_565
Mn0 Si0 2.341977 1_555
Mn0 Si1 2.422109 1_555
Mn0 Si1 2.422109 1_554
Mn0 Ni1 2.636565 1_565
Mn0 Ni0 2.636565 1_565
Mn0 Ni0 2.636568 1_665
Mn0 Ni1 2.636568 1_665
Mn0 Ni0 2.636568 1_555
Mn0 Ni1 2.636568 1_555
Mn1 Si1 2.341969 1_545
Mn1 Si1 2.341969 1_655
Mn1 Si1 2.341977 1_555
Mn1 Si0 2.422109 1_556
Mn1 Si0 2.422109 1_555
Mn1 Ni0 2.636565 1_656
Mn1 Ni1 2.636565 1_655
Mn1 Ni1 2.636568 1_665
Mn1 Ni0 2.636568 1_666
Mn1 Ni0 2.636568 1_556
Mn1 Ni1 2.636568 1_555
Ni0 Ni1 2.422109 1_554
Ni0 Ni1 2.422109 1_555
Ni0 Si1 2.636565 1_544
Ni0 Si0 2.636565 1_455
Ni0 Si0 2.636568 1_445
Ni0 Si1 2.636568 1_554
Ni0 Si0 2.636568 1_555
Ni0 Si1 2.636568 1_444
Ni1 Si1 2.636565 1_545
Ni1 Si0 2.636565 1_455
Ni1 Si0 2.636568 1_445
Ni1 Si0 2.636568 1_555
Ni1 Si1 2.636568 1_445
Ni1 Si1 2.636568 1_555
