# generated using pymatgen
data_Ca(MnAs)2
_symmetry_space_group_name_H-M   'P 1'
_cell_length_a   4.00033771
_cell_length_b   4.00033771
_cell_length_c   6.99553500
_cell_angle_alpha   90.00000000
_cell_angle_beta   90.00000000
_cell_angle_gamma   119.99999525
_symmetry_Int_Tables_number   1
_chemical_formula_structural   Ca(MnAs)2
_chemical_formula_sum   'Ca1 Mn2 As2'
_cell_volume   96.94934945
_cell_formula_units_Z   1
loop_
 _symmetry_equiv_pos_site_id
 _symmetry_equiv_pos_as_xyz
  1  'x, y, z'
loop_
 _atom_site_type_symbol
 _atom_site_label
 _atom_site_symmetry_multiplicity
 _atom_site_fract_x
 _atom_site_fract_y
 _atom_site_fract_z
 _atom_site_occupancy
  Ca  Ca0  1  0.00000000  0.00000000  0.00000000  1
  Mn  Mn0  1  0.33333300  0.66666700  0.61586900  1
  Mn  Mn1  1  0.66666700  0.33333300  0.38413100  1
  As  As0  1  0.66666700  0.33333300  0.72909900  1
  As  As1  1  0.33333300  0.66666700  0.27090100  1
loop_
_geom_bond_atom_site_label_1
_geom_bond_atom_site_label_2
_geom_bond_distance
_geom_bond_site_symmetry_2
As0 Mn1 2.413236 1_555
As0 Mn0 2.441650 1_545
As0 Mn0 2.441650 1_655
As0 Mn0 2.441656 1_555
As0 Ca0 2.987577 1_656
As0 Ca0 2.987580 1_556
As0 Ca0 2.987580 1_666
As1 Mn0 2.413236 1_555
As1 Mn1 2.441650 1_565
As1 Mn1 2.441650 1_455
As1 Mn1 2.441656 1_555
As1 Ca0 2.987577 1_565
As1 Ca0 2.987580 1_665
As1 Ca0 2.987580 1_555
