# generated using pymatgen
data_Nd23Mg4Rh7
_symmetry_space_group_name_H-M   'P 1'
_cell_length_a   10.08008402
_cell_length_b   10.08008414
_cell_length_c   22.69994118
_cell_angle_alpha   90.00000000
_cell_angle_beta   90.00000000
_cell_angle_gamma   119.99999961
_symmetry_Int_Tables_number   1
_chemical_formula_structural   Nd23Mg4Rh7
_chemical_formula_sum   'Nd46 Mg8 Rh14'
_cell_volume   1997.48567978
_cell_formula_units_Z   2
loop_
 _symmetry_equiv_pos_site_id
 _symmetry_equiv_pos_as_xyz
  1  'x, y, z'
loop_
 _atom_site_type_symbol
 _atom_site_label
 _atom_site_symmetry_multiplicity
 _atom_site_fract_x
 _atom_site_fract_y
 _atom_site_fract_z
 _atom_site_occupancy
  Nd  Nd0  1  0.45788635  0.91577270  0.85791800  1
  Nd  Nd1  1  0.00000000  0.00000000  0.99926136  1
  Nd  Nd2  1  0.74427148  0.87213574  0.13581236  1
  Nd  Nd3  1  0.87213574  0.74427148  0.63581236  1
  Nd  Nd4  1  0.79186341  0.20813659  0.94871051  1
  Nd  Nd5  1  0.20855246  0.41710491  0.72094164  1
  Nd  Nd6  1  0.58289509  0.79144754  0.72094164  1
  Nd  Nd7  1  0.54211365  0.08422730  0.35791800  1
  Nd  Nd8  1  0.78936663  0.57873326  0.49183516  1
  Nd  Nd9  1  0.54020272  0.45979728  0.08563246  1
  Nd  Nd10  1  0.79144754  0.58289509  0.22094164  1
  Nd  Nd11  1  0.41627319  0.20813659  0.94871051  1
  Nd  Nd12  1  0.78936663  0.21063337  0.49183516  1
  Nd  Nd13  1  0.21063337  0.42126674  0.99183516  1
  Nd  Nd14  1  0.25572852  0.12786426  0.63581236  1
  Nd  Nd15  1  0.45788635  0.54211365  0.85791800  1
  Nd  Nd16  1  0.40985851  0.20492925  0.78260793  1
  Nd  Nd17  1  0.79144754  0.20855246  0.22094164  1
  Nd  Nd18  1  0.79507075  0.20492925  0.78260793  1
  Nd  Nd19  1  0.21063337  0.78936663  0.99183516  1
  Nd  Nd20  1  0.42126674  0.21063337  0.49183516  1
  Nd  Nd21  1  0.58372681  0.79186341  0.44871051  1
  Nd  Nd22  1  0.20813659  0.41627319  0.44871051  1
  Nd  Nd23  1  0.12786426  0.25572852  0.13581236  1
  Nd  Nd24  1  0.08040544  0.54020272  0.58563246  1
  Nd  Nd25  1  0.66666700  0.33333300  0.64480219  1
  Nd  Nd26  1  0.79507075  0.59014149  0.78260793  1
  Nd  Nd27  1  0.87213574  0.12786426  0.63581236  1
  Nd  Nd28  1  0.79186341  0.58372681  0.94871051  1
  Nd  Nd29  1  0.57873326  0.78936663  0.99183516  1
  Nd  Nd30  1  0.20492925  0.79507075  0.28260793  1
  Nd  Nd31  1  0.45979728  0.91959456  0.58563246  1
  Nd  Nd32  1  0.20855246  0.79144754  0.72094164  1
  Nd  Nd33  1  0.41710491  0.20855246  0.22094164  1
  Nd  Nd34  1  0.91959456  0.45979728  0.08563246  1
  Nd  Nd35  1  0.12786426  0.87213574  0.13581236  1
  Nd  Nd36  1  0.59014149  0.79507075  0.28260793  1
  Nd  Nd37  1  0.45979728  0.54020272  0.58563246  1
  Nd  Nd38  1  0.91577270  0.45788635  0.35791800  1
  Nd  Nd39  1  0.00000000  0.00000000  0.49926136  1
  Nd  Nd40  1  0.33333300  0.66666700  0.14480219  1
  Nd  Nd41  1  0.08422730  0.54211365  0.85791800  1
  Nd  Nd42  1  0.54211365  0.45788635  0.35791800  1
  Nd  Nd43  1  0.54020272  0.08040544  0.08563246  1
  Nd  Nd44  1  0.20492925  0.40985851  0.28260793  1
  Nd  Nd45  1  0.20813659  0.79186341  0.44871051  1
  Mg  Mg0  1  0.00000000  0.00000000  0.25109715  1
  Mg  Mg1  1  0.10631085  0.21262171  0.86397505  1
  Mg  Mg2  1  0.10631085  0.89368915  0.86397505  1
  Mg  Mg3  1  0.89368915  0.78737829  0.36397505  1
  Mg  Mg4  1  0.78737829  0.89368915  0.86397505  1
  Mg  Mg5  1  0.21262171  0.10631085  0.36397505  1
  Mg  Mg6  1  0.00000000  0.00000000  0.75109715  1
  Mg  Mg7  1  0.89368915  0.10631085  0.36397505  1
  Rh  Rh0  1  0.66666700  0.33333300  0.86424094  1
  Rh  Rh1  1  0.52173973  0.04347946  0.71046730  1
  Rh  Rh2  1  0.47826027  0.52173973  0.21046730  1
  Rh  Rh3  1  0.04347946  0.52173973  0.21046730  1
  Rh  Rh4  1  0.47826027  0.95652054  0.21046730  1
  Rh  Rh5  1  0.14300800  0.28601601  0.56406904  1
  Rh  Rh6  1  0.85699200  0.71398399  0.06406904  1
  Rh  Rh7  1  0.85699200  0.14300800  0.06406904  1
  Rh  Rh8  1  0.33333300  0.66666700  0.36424094  1
  Rh  Rh9  1  0.95652054  0.47826027  0.71046730  1
  Rh  Rh10  1  0.28601601  0.14300800  0.06406904  1
  Rh  Rh11  1  0.52173973  0.47826027  0.71046730  1
  Rh  Rh12  1  0.14300800  0.85699200  0.56406904  1
  Rh  Rh13  1  0.71398399  0.85699200  0.56406904  1
loop_
_geom_bond_atom_site_label_1
_geom_bond_atom_site_label_2
_geom_bond_distance
_geom_bond_site_symmetry_2
Nd0 Rh1 3.527899 1_565
Nd0 Nd16 3.614357 1_565
Nd0 Nd18 3.614357 1_565
Nd0 Rh0 3.647963 1_565
Nd0 Nd29 3.728355 1_555
Nd0 Nd19 3.728355 1_555
Nd0 Nd15 3.766515 1_555
Nd0 Nd41 3.766515 1_555
Nd0 Nd11 3.787467 1_565
Nd0 Nd4 3.787468 1_565
Nd0 Nd32 3.795476 1_555
Nd0 Nd6 3.795476 1_555
Nd1 Rh7 2.897978 1_456
Nd1 Rh10 2.897978 1_556
Nd1 Rh6 2.897978 1_446
Nd1 Nd19 3.681356 1_545
Nd1 Nd29 3.681356 1_445
Nd1 Nd13 3.681356 1_555
Nd2 Rh7 2.880285 1_565
Nd2 Rh6 2.880285 1_555
Nd2 Nd29 3.573497 1_554
Nd2 Rh4 3.614724 1_555
Nd2 Rh2 3.614724 1_555
Nd3 Rh12 2.880285 1_655
Nd3 Rh13 2.880285 1_555
Nd3 Nd8 3.573497 1_555
Nd3 Rh9 3.614724 1_555
Nd3 Rh11 3.614724 1_555
Nd4 Rh7 2.854858 1_556
Nd4 Rh0 2.907661 1_555
Nd4 Nd41 3.787468 1_655
Nd5 Rh11 2.908057 1_555
Nd5 Rh9 2.908057 1_455
Nd6 Rh11 2.908057 1_555
Nd6 Rh1 2.908057 1_565
Nd7 Rh4 3.527899 1_545
Nd7 Rh8 3.647963 1_545
Nd8 Rh12 3.642066 1_655
Nd8 Rh13 3.642066 1_555
Nd9 Rh6 2.969791 1_555
Nd9 Rh10 2.969792 1_555
Nd9 Rh2 3.033096 1_555
Nd10 Rh2 2.908057 1_555
Nd10 Rh3 2.908057 1_655
Nd10 Nd42 3.795476 1_555
Nd10 Nd38 3.795476 1_555
Nd11 Rh10 2.854858 1_556
Nd11 Rh0 2.907667 1_555
Nd11 Nd19 3.784686 1_545
Nd11 Nd13 3.784686 1_555
Nd11 Nd15 3.787468 1_555
Nd12 Nd27 3.573497 1_555
Nd12 Rh5 3.642066 1_655
Nd12 Rh13 3.642066 1_545
Nd12 Nd39 3.681356 1_655
Nd12 Nd20 3.710478 1_555
Nd12 Nd8 3.710478 1_555
Nd12 Nd7 3.728355 1_555
Nd12 Nd38 3.728355 1_555
Nd12 Nd22 3.784686 1_655
Nd12 Nd21 3.784686 1_545
Nd12 Nd31 3.798724 1_545
Nd12 Nd24 3.798724 1_655
Nd12 Nd25 4.079994 1_555
Nd13 Nd23 3.573497 1_556
Nd13 Rh7 3.642066 1_456
Nd13 Rh10 3.642066 1_556
Nd13 Nd29 3.710478 1_555
Nd13 Nd19 3.710478 1_555
Nd13 Nd15 3.728355 1_555
Nd13 Nd41 3.728355 1_555
Nd13 Nd4 3.784686 1_455
Nd13 Nd9 3.798724 1_556
Nd13 Nd34 3.798724 1_456
Nd13 Nd40 4.079999 1_556
Nd14 Rh12 2.880285 1_545
Nd14 Rh5 2.880285 1_555
Nd14 Nd20 3.573497 1_555
Nd14 Rh1 3.614724 1_555
Nd14 Rh11 3.614724 1_555
Nd15 Rh11 3.527899 1_555
Nd15 Nd26 3.614357 1_555
Nd15 Nd16 3.614357 1_555
Nd15 Rh0 3.647972 1_555
Nd15 Nd29 3.728355 1_555
Nd15 Nd41 3.766515 1_555
Nd15 Nd28 3.787468 1_555
Nd15 Nd5 3.795476 1_555
Nd15 Nd6 3.795476 1_555
Nd16 Rh1 2.904729 1_555
Nd16 Rh11 2.904729 1_555
Nd16 Rh0 2.908554 1_555
Nd17 Rh4 2.908057 1_545
Nd17 Rh3 2.908057 1_655
Nd17 Nd7 3.795476 1_555
Nd17 Nd38 3.795476 1_555
Nd18 Rh1 2.904729 1_555
Nd18 Rh9 2.904729 1_555
Nd18 Rh0 2.908547 1_555
Nd18 Nd41 3.614357 1_655
Nd19 Nd35 3.573497 1_556
Nd19 Rh6 3.642066 1_456
Nd19 Rh10 3.642066 1_566
Nd19 Nd29 3.710478 1_555
Nd19 Nd41 3.728355 1_555
Nd19 Nd28 3.784686 1_455
Nd19 Nd43 3.798724 1_566
Nd19 Nd34 3.798724 1_456
Nd19 Nd40 4.079994 1_556
Nd20 Rh12 3.642066 1_545
Nd20 Rh5 3.642066 1_555
Nd20 Nd39 3.681356 1_555
Nd20 Nd8 3.710478 1_555
Nd20 Nd7 3.728355 1_555
Nd20 Nd42 3.728355 1_555
Nd20 Nd45 3.784686 1_545
Nd20 Nd22 3.784686 1_555
Nd20 Nd31 3.798724 1_545
Nd20 Nd37 3.798724 1_555
Nd20 Nd25 4.079999 1_555
Nd21 Rh13 2.854858 1_555
Nd21 Rh8 2.907667 1_555
Nd21 Nd8 3.784686 1_555
Nd21 Nd7 3.787467 1_565
Nd21 Nd42 3.787468 1_555
Nd22 Rh5 2.854858 1_555
Nd22 Rh8 2.907667 1_555
Nd22 Nd38 3.787467 1_455
Nd22 Nd42 3.787468 1_555
Nd23 Rh7 2.880285 1_455
Nd23 Rh10 2.880285 1_555
Nd23 Rh3 3.614724 1_555
Nd23 Rh2 3.614724 1_555
Nd24 Rh5 2.969791 1_555
Nd24 Rh12 2.969792 1_555
Nd24 Rh9 3.033096 1_455
Nd24 Nd8 3.798724 1_455
Nd25 Rh9 2.936721 1_555
Nd25 Rh1 2.936721 1_555
Nd25 Rh11 2.936728 1_555
Nd25 Nd8 4.079999 1_555
Nd26 Rh9 2.904729 1_555
Nd26 Rh11 2.904729 1_555
Nd26 Rh0 2.908554 1_555
Nd26 Nd41 3.614357 1_655
Nd27 Rh5 2.880285 1_655
Nd27 Rh13 2.880285 1_545
Nd27 Rh1 3.614724 1_555
Nd27 Rh9 3.614724 1_555
Nd28 Rh6 2.854858 1_556
Nd28 Rh0 2.907667 1_555
Nd28 Nd29 3.784686 1_555
Nd28 Nd41 3.787467 1_655
Nd29 Rh7 3.642066 1_566
Nd29 Rh6 3.642066 1_556
Nd29 Nd4 3.784686 1_565
Nd29 Nd43 3.798724 1_566
Nd29 Nd9 3.798724 1_556
Nd29 Nd40 4.079999 1_556
Nd30 Rh4 2.904729 1_555
Nd30 Rh3 2.904729 1_555
Nd30 Rh8 2.908547 1_555
Nd30 Nd7 3.614357 1_565
Nd30 Nd38 3.614357 1_455
Nd31 Rh13 2.969791 1_555
Nd31 Rh12 2.969791 1_555
Nd31 Rh1 3.033096 1_565
Nd32 Rh1 2.908057 1_565
Nd32 Rh9 2.908057 1_455
Nd32 Nd41 3.795476 1_555
Nd33 Rh2 2.908057 1_555
Nd33 Rh4 2.908057 1_545
Nd33 Nd42 3.795476 1_555
Nd33 Nd7 3.795476 1_555
Nd34 Rh6 2.969791 1_555
Nd34 Rh7 2.969792 1_555
Nd34 Rh3 3.033096 1_655
Nd35 Rh6 2.880285 1_455
Nd35 Rh10 2.880285 1_565
Nd35 Rh4 3.614724 1_555
Nd35 Rh3 3.614724 1_555
Nd36 Rh4 2.904729 1_555
Nd36 Rh2 2.904729 1_555
Nd36 Rh8 2.908554 1_555
Nd36 Nd7 3.614357 1_565
Nd36 Nd42 3.614357 1_555
Nd37 Rh5 2.969791 1_555
Nd37 Rh13 2.969792 1_555
Nd37 Rh11 3.033096 1_555
Nd37 Nd8 3.798724 1_555
Nd38 Rh3 3.527899 1_655
Nd38 Nd44 3.614357 1_655
Nd38 Rh8 3.647963 1_655
Nd38 Nd8 3.728355 1_555
Nd38 Nd42 3.766515 1_555
Nd38 Nd7 3.766515 1_555
Nd38 Nd45 3.787468 1_655
Nd39 Rh12 2.897978 1_545
Nd39 Rh13 2.897978 1_445
Nd39 Rh5 2.897978 1_555
Nd39 Nd8 3.681356 1_445
Nd40 Rh3 2.936721 1_555
Nd40 Rh4 2.936721 1_555
Nd40 Rh2 2.936728 1_555
Nd41 Rh9 3.527899 1_455
Nd41 Rh0 3.647963 1_455
Nd41 Nd5 3.795476 1_555
Nd42 Rh2 3.527899 1_555
Nd42 Nd44 3.614357 1_555
Nd42 Rh8 3.647972 1_555
Nd42 Nd8 3.728355 1_555
Nd42 Nd7 3.766515 1_555
Nd43 Rh10 2.969791 1_555
Nd43 Rh7 2.969791 1_555
Nd43 Rh4 3.033096 1_545
Nd44 Rh3 2.904729 1_555
Nd44 Rh2 2.904729 1_555
Nd44 Rh8 2.908554 1_555
Nd45 Rh12 2.854858 1_555
Nd45 Rh8 2.907661 1_555
Nd45 Nd8 3.784686 1_455
Nd45 Nd7 3.787468 1_565
Mg0 Mg7 3.163956 1_455
Mg0 Mg5 3.163956 1_555
Mg0 Mg3 3.163956 1_445
Mg0 Nd35 3.439785 1_545
Mg0 Nd2 3.439785 1_445
Mg0 Nd23 3.439785 1_555
Mg0 Nd30 3.648704 1_545
Mg0 Nd36 3.648704 1_445
Mg0 Nd44 3.648705 1_555
Mg0 Nd33 3.704949 1_555
Mg0 Nd10 3.704949 1_445
Mg0 Nd17 3.704949 1_455
Mg1 Mg6 3.163956 1_555
Mg1 Mg2 3.214867 1_545
Mg1 Mg4 3.214867 1_445
Mg1 Nd13 3.426585 1_555
Mg1 Nd41 3.440766 1_555
Mg1 Nd15 3.440766 1_555
Mg1 Nd1 3.588330 1_555
Mg1 Nd18 3.607918 1_455
Mg1 Nd16 3.607918 1_555
Mg1 Nd4 3.688533 1_455
Mg1 Nd11 3.688534 1_555
Mg1 Nd5 3.705195 1_555
Mg2 Mg6 3.163956 1_565
Mg2 Mg4 3.214867 1_455
Mg2 Nd19 3.426585 1_555
Mg2 Nd0 3.440766 1_555
Mg2 Nd41 3.440766 1_555
Mg2 Nd1 3.588330 1_565
Mg2 Nd26 3.607918 1_455
Mg2 Nd16 3.607918 1_565
Mg2 Nd28 3.688534 1_455
Mg2 Nd11 3.688534 1_565
Mg2 Nd32 3.705195 1_555
Mg3 Mg5 3.214867 1_665
Mg3 Mg7 3.214867 1_565
Mg3 Nd8 3.426585 1_555
Mg3 Nd38 3.440766 1_555
Mg3 Nd42 3.440766 1_555
Mg3 Nd39 3.588330 1_665
Mg3 Nd30 3.607918 1_655
Mg3 Nd36 3.607918 1_555
Mg3 Nd45 3.688533 1_655
Mg3 Nd21 3.688534 1_555
Mg3 Nd10 3.705195 1_555
Mg4 Mg6 3.163956 1_665
Mg4 Nd29 3.426585 1_555
Mg4 Nd0 3.440766 1_555
Mg4 Nd15 3.440766 1_555
Mg4 Nd1 3.588330 1_665
Mg4 Nd18 3.607918 1_565
Mg4 Nd26 3.607919 1_555
Mg4 Nd4 3.688534 1_565
Mg4 Nd28 3.688534 1_555
Mg4 Nd6 3.705195 1_555
Mg5 Mg7 3.214867 1_455
Mg5 Nd20 3.426585 1_555
Mg5 Nd7 3.440766 1_555
Mg5 Nd42 3.440766 1_555
Mg5 Nd39 3.588330 1_555
Mg5 Nd30 3.607918 1_545
Mg5 Nd44 3.607919 1_555
Mg5 Nd45 3.688534 1_545
Mg5 Nd22 3.688534 1_555
Mg5 Nd33 3.705195 1_555
Mg6 Nd27 3.439785 1_455
Mg6 Nd14 3.439785 1_555
Mg6 Nd3 3.439785 1_445
Mg6 Nd18 3.648704 1_455
Mg6 Nd16 3.648704 1_555
Mg6 Nd26 3.648705 1_445
Mg6 Nd6 3.704949 1_445
Mg6 Nd5 3.704949 1_555
Mg6 Nd32 3.704949 1_545
Mg7 Nd12 3.426585 1_555
Mg7 Nd7 3.440766 1_555
Mg7 Nd38 3.440766 1_555
Mg7 Nd39 3.588330 1_655
Mg7 Nd44 3.607918 1_655
Mg7 Nd36 3.607918 1_545
Mg7 Nd22 3.688534 1_655
Mg7 Nd21 3.688534 1_545
Mg7 Nd17 3.705195 1_555
