# generated using pymatgen
data_Al3FeSi2
_symmetry_space_group_name_H-M   'P 1'
_cell_length_a   6.06556200
_cell_length_b   6.07229800
_cell_length_c   9.48355200
_cell_angle_alpha   90.00000000
_cell_angle_beta   90.00000000
_cell_angle_gamma   90.00000000
_symmetry_Int_Tables_number   1
_chemical_formula_structural   Al3FeSi2
_chemical_formula_sum   'Al12 Fe4 Si8'
_cell_volume   349.29723892
_cell_formula_units_Z   4
loop_
 _symmetry_equiv_pos_site_id
 _symmetry_equiv_pos_as_xyz
  1  'x, y, z'
loop_
 _atom_site_type_symbol
 _atom_site_label
 _atom_site_symmetry_multiplicity
 _atom_site_fract_x
 _atom_site_fract_y
 _atom_site_fract_z
 _atom_site_occupancy
  Al  Al0  1  0.00000000  0.00000000  0.00000000  1
  Al  Al1  1  0.50000000  0.50000000  0.00000000  1
  Al  Al2  1  0.00000000  0.00000000  0.50000000  1
  Al  Al3  1  0.50000000  0.50000000  0.50000000  1
  Al  Al4  1  0.14039300  0.63359600  0.86379000  1
  Al  Al5  1  0.64039300  0.86640400  0.13621000  1
  Al  Al6  1  0.85960700  0.63359600  0.63621000  1
  Al  Al7  1  0.35960700  0.86640400  0.36379000  1
  Al  Al8  1  0.85960700  0.36640400  0.13621000  1
  Al  Al9  1  0.35960700  0.13359600  0.86379000  1
  Al  Al10  1  0.14039300  0.36640400  0.36379000  1
  Al  Al11  1  0.64039300  0.13359600  0.63621000  1
  Fe  Fe0  1  0.00000000  0.01116400  0.25000000  1
  Fe  Fe1  1  0.50000000  0.48883600  0.75000000  1
  Fe  Fe2  1  0.00000000  0.98883600  0.75000000  1
  Fe  Fe3  1  0.50000000  0.51116400  0.25000000  1
  Si  Si0  1  0.16279400  0.67117000  0.15444000  1
  Si  Si1  1  0.66279400  0.82883000  0.84556000  1
  Si  Si2  1  0.83720600  0.67117000  0.34556000  1
  Si  Si3  1  0.33720600  0.82883000  0.65444000  1
  Si  Si4  1  0.83720600  0.32883000  0.84556000  1
  Si  Si5  1  0.33720600  0.17117000  0.15444000  1
  Si  Si6  1  0.16279400  0.32883000  0.65444000  1
  Si  Si7  1  0.66279400  0.17117000  0.34556000  1
loop_
_geom_bond_atom_site_label_1
_geom_bond_atom_site_label_2
_geom_bond_distance
_geom_bond_site_symmetry_2
Al0 Fe0 2.371857 1_555
Al0 Fe2 2.371857 1_544
Al0 Al5 2.661662 1_445
Al0 Al9 2.661662 1_554
Al0 Si4 2.665938 1_454
Al0 Si0 2.665938 1_545
Al0 Al8 2.709987 1_455
Al0 Al4 2.709987 1_544
Al0 Si1 2.721938 1_444
Al0 Si5 2.721938 1_555
Al1 Fe3 2.371857 1_555
Al1 Fe1 2.371857 1_554
Al1 Al4 2.661662 1_554
Al1 Al8 2.661662 1_555
Al1 Si1 2.665938 1_554
Al1 Si5 2.665938 1_555
Al1 Al5 2.709987 1_555
Al1 Al9 2.709987 1_554
Al1 Si4 2.721938 1_554
Al1 Si0 2.721938 1_555
Al2 Fe0 2.371857 1_555
Al2 Fe2 2.371857 1_545
Al2 Al7 2.661662 1_545
Al2 Si2 2.665938 1_445
Al2 Si6 2.665938 1_555
Al2 Al6 2.709987 1_445
Al2 Si3 2.721938 1_545
Al2 Si7 2.721938 1_455
Al3 Fe3 2.371857 1_555
Al3 Fe1 2.371857 1_555
Al3 Al6 2.661662 1_555
Al3 Si7 2.665938 1_555
Al3 Si3 2.665938 1_555
Al3 Al7 2.709987 1_555
Al3 Si2 2.721938 1_555
Al3 Si6 2.721938 1_555
Al4 Fe2 2.557903 1_555
Al4 Fe1 2.587456 1_555
Al4 Si3 2.602366 1_555
Al4 Si4 2.614697 1_455
Al4 Si6 2.717542 1_555
Al4 Al6 2.749318 1_455
Al4 Si0 2.769157 1_556
Al5 Fe3 2.557903 1_555
Al5 Fe0 2.587456 1_665
Al5 Si2 2.602366 1_555
Al5 Si5 2.614697 1_565
Al5 Si7 2.717542 1_565
Al5 Al7 2.749318 1_555
Al5 Si1 2.769157 1_554
Al6 Fe2 2.557903 1_655
Al6 Fe1 2.587456 1_555
Al6 Si1 2.602366 1_555
Al6 Si6 2.614697 1_655
Al6 Si4 2.717542 1_555
Al6 Si2 2.769157 1_555
Al7 Fe3 2.557903 1_555
Al7 Fe0 2.587456 1_565
Al7 Si0 2.602366 1_555
Al7 Si7 2.614697 1_565
Al7 Si5 2.717542 1_565
Al7 Si3 2.769157 1_555
Al8 Fe0 2.557903 1_655
Al8 Fe3 2.587456 1_555
Al8 Si7 2.602366 1_555
Al8 Si0 2.614697 1_655
Al8 Si2 2.717542 1_555
Al8 Si4 2.769157 1_554
Al9 Fe1 2.557903 1_555
Al9 Fe2 2.587456 1_545
Al9 Si6 2.602366 1_555
Al9 Si1 2.614697 1_545
Al9 Si3 2.717542 1_545
Al9 Si5 2.769157 1_556
Al10 Fe0 2.557903 1_555
Al10 Fe3 2.587456 1_555
Al10 Si5 2.602366 1_555
Al10 Si2 2.614697 1_455
Al10 Al3 2.661662 1_555
Al10 Al2 2.709987 1_555
Al10 Si0 2.717542 1_555
Al10 Al8 2.749318 1_455
Al10 Si6 2.769157 1_555
Al11 Fe1 2.557903 1_555
Al11 Fe2 2.587456 1_645
Al11 Si4 2.602366 1_555
Al11 Si3 2.614697 1_545
Al11 Al2 2.661662 1_655
Al11 Al3 2.709987 1_555
Al11 Si1 2.717542 1_545
Al11 Al9 2.749318 1_555
Al11 Si7 2.769157 1_555
Fe0 Si7 2.439002 1_455
Fe0 Si5 2.439002 1_555
Fe0 Si2 2.461435 1_445
Fe0 Si0 2.461435 1_545
Fe1 Si6 2.439002 1_555
Fe1 Si4 2.439002 1_555
Fe1 Si3 2.461435 1_555
Fe1 Si1 2.461435 1_555
Fe2 Si3 2.439002 1_555
Fe2 Si1 2.439002 1_455
Fe2 Si6 2.461435 1_565
Fe2 Si4 2.461435 1_465
Fe3 Si0 2.439002 1_555
Fe3 Si2 2.439002 1_555
Fe3 Si7 2.461435 1_555
Fe3 Si5 2.461435 1_555
Si0 Si2 2.680536 1_455
Si1 Si3 2.680536 1_555
Si4 Si6 2.680536 1_655
Si5 Si7 2.680536 1_555
