# generated using pymatgen
data_Cs4Tc6S13
_symmetry_space_group_name_H-M   'P 1'
_cell_length_a   9.99459637
_cell_length_b   9.99459637
_cell_length_c   13.74296833
_cell_angle_alpha   84.69306186
_cell_angle_beta   84.69306186
_cell_angle_gamma   119.36373781
_symmetry_Int_Tables_number   1
_chemical_formula_structural   Cs4Tc6S13
_chemical_formula_sum   'Cs8 Tc12 S26'
_cell_volume   1176.18496606
_cell_formula_units_Z   2
loop_
 _symmetry_equiv_pos_site_id
 _symmetry_equiv_pos_as_xyz
  1  'x, y, z'
loop_
 _atom_site_type_symbol
 _atom_site_label
 _atom_site_symmetry_multiplicity
 _atom_site_fract_x
 _atom_site_fract_y
 _atom_site_fract_z
 _atom_site_occupancy
  Cs  Cs0  1  0.34046890  0.09214541  0.08534143  1
  Cs  Cs1  1  0.09214541  0.34046890  0.58534143  1
  Cs  Cs2  1  0.90785459  0.65953110  0.41465857  1
  Cs  Cs3  1  0.27641951  0.31597845  0.28309282  1
  Cs  Cs4  1  0.68402155  0.72358049  0.21690718  1
  Cs  Cs5  1  0.65953110  0.90785459  0.91465857  1
  Cs  Cs6  1  0.31597845  0.27641951  0.78309282  1
  Cs  Cs7  1  0.72358049  0.68402155  0.71690718  1
  Tc  Tc0  1  0.31254371  0.99467750  0.52153904  1
  Tc  Tc1  1  0.99467750  0.31254371  0.02153904  1
  Tc  Tc2  1  0.15206218  0.56392497  0.89129272  1
  Tc  Tc3  1  0.14919385  0.58135415  0.07847479  1
  Tc  Tc4  1  0.84793782  0.43607503  0.10870728  1
  Tc  Tc5  1  0.85080615  0.41864585  0.92152521  1
  Tc  Tc6  1  0.68745629  0.00532250  0.47846096  1
  Tc  Tc7  1  0.43607503  0.84793782  0.60870728  1
  Tc  Tc8  1  0.00532250  0.68745629  0.97846096  1
  Tc  Tc9  1  0.58135415  0.14919385  0.57847479  1
  Tc  Tc10  1  0.41864585  0.85080615  0.42152521  1
  Tc  Tc11  1  0.56392497  0.15206218  0.39129272  1
  S  S0  1  0.27433314  0.46057920  0.99438170  1
  S  S1  1  0.00926756  0.65602251  0.80796043  1
  S  S2  1  0.35844698  0.64155302  0.75000000  1
  S  S3  1  0.72566686  0.53942080  0.00561830  1
  S  S4  1  0.00666009  0.69016072  0.15171383  1
  S  S5  1  0.64155302  0.35844698  0.25000000  1
  S  S6  1  0.65602251  0.00926756  0.30796043  1
  S  S7  1  0.80434937  0.28104634  0.45083839  1
  S  S8  1  0.19565063  0.71895366  0.54916161  1
  S  S9  1  0.28010672  0.64246783  0.32569374  1
  S  S10  1  0.97407030  0.04551371  0.06091912  1
  S  S11  1  0.53942080  0.72566686  0.50561830  1
  S  S12  1  0.99073244  0.34397749  0.19203957  1
  S  S13  1  0.02592970  0.95448629  0.93908088  1
  S  S14  1  0.99333991  0.30983928  0.84828617  1
  S  S15  1  0.64246783  0.28010672  0.82569374  1
  S  S16  1  0.69016072  0.00666009  0.65171383  1
  S  S17  1  0.95448629  0.02592970  0.43908088  1
  S  S18  1  0.34397749  0.99073244  0.69203957  1
  S  S19  1  0.71895366  0.19565063  0.04916161  1
  S  S20  1  0.46057920  0.27433314  0.49438170  1
  S  S21  1  0.04551371  0.97407030  0.56091912  1
  S  S22  1  0.28104634  0.80434937  0.95083839  1
  S  S23  1  0.71989328  0.35753217  0.67430626  1
  S  S24  1  0.30983928  0.99333991  0.34828617  1
  S  S25  1  0.35753217  0.71989328  0.17430626  1
loop_
_geom_bond_atom_site_label_1
_geom_bond_atom_site_label_2
_geom_bond_distance
_geom_bond_site_symmetry_2
Cs0 S19 3.368404 1_555
Cs0 S22 3.399198 1_544
Cs0 S10 3.510364 1_455
Cs0 S24 3.600845 1_545
Cs0 S13 3.640710 1_544
Cs0 S4 3.703810 1_545
Cs0 Cs3 3.873969 1_555
Cs0 S25 3.896857 1_545
Cs0 S5 3.972295 1_555
Cs0 S15 4.071775 1_554
Cs0 S0 4.153030 1_554
Cs0 S3 4.176302 1_555
Cs1 S8 3.368404 1_555
Cs1 S7 3.399198 1_455
Cs1 S21 3.510364 1_545
Cs1 S14 3.600845 1_455
Cs1 S17 3.640710 1_455
Cs1 S16 3.703810 1_455
Cs1 Cs6 3.873969 1_555
Cs1 S23 3.896857 1_455
Cs1 S2 3.972295 1_555
Cs1 S9 4.071775 1_555
Cs1 S20 4.153030 1_555
Cs1 S11 4.176302 1_555
Cs2 S7 3.368404 1_555
Cs2 S8 3.399198 1_655
Cs2 S17 3.510364 1_565
Cs2 S4 3.600845 1_655
Cs2 S21 3.640710 1_655
Cs2 S24 3.703810 1_655
Cs2 Cs4 3.873969 1_555
Cs2 S9 3.896857 1_655
Cs2 S5 3.972295 1_555
Cs2 S23 4.071775 1_555
Cs2 S11 4.153030 1_555
Cs2 S20 4.176302 1_555
Cs3 S12 3.343178 1_455
Cs3 S9 3.351357 1_555
Cs3 S17 3.432079 1_455
Cs3 S5 3.441368 1_555
Cs3 S24 3.448164 1_545
Cs3 S20 3.675481 1_555
Cs4 S6 3.343178 1_565
Cs4 S25 3.351357 1_555
Cs4 S10 3.432079 1_565
Cs4 S5 3.441368 1_555
Cs4 S4 3.448164 1_655
Cs4 S3 3.675481 1_555
Cs5 S22 3.368404 1_555
Cs5 S19 3.399198 1_566
Cs5 S13 3.510364 1_655
Cs5 S16 3.600845 1_565
Cs5 S10 3.640710 1_566
Cs5 S14 3.703810 1_565
Cs5 Cs7 3.873969 1_555
Cs5 S15 3.896857 1_565
Cs5 S2 3.972295 1_555
Cs5 S25 4.071775 1_556
Cs5 S3 4.153030 1_556
Cs5 S0 4.176302 1_555
Cs6 S18 3.343178 1_545
Cs6 S15 3.351357 1_555
Cs6 S13 3.432079 1_545
Cs6 S2 3.441368 1_555
Cs6 S14 3.448164 1_455
Cs6 S0 3.675481 1_555
Cs7 S1 3.343178 1_655
Cs7 S23 3.351357 1_555
Cs7 S21 3.432079 1_655
Cs7 S2 3.441368 1_555
Cs7 S16 3.448164 1_565
Cs7 S11 3.675481 1_555
S0 Tc1 2.406223 1_456
S0 Tc3 2.414181 1_556
S0 Tc2 2.419696 1_555
S1 Tc2 2.364602 1_555
S1 Tc8 2.392070 1_555
S1 Tc5 2.397015 1_455
S2 Tc7 2.457279 1_555
S2 Tc2 2.457279 1_555
S3 Tc8 2.406223 1_654
S3 Tc5 2.414181 1_554
S3 Tc4 2.419696 1_555
S4 Tc3 2.383614 1_555
S4 Tc8 2.384859 1_554
S4 Tc4 2.411458 1_455
S5 Tc4 2.457279 1_555
S5 Tc11 2.457279 1_555
S6 Tc11 2.364602 1_555
S6 Tc6 2.392070 1_555
S6 Tc10 2.397015 1_545
S7 Tc11 2.372053 1_555
S7 Tc6 2.381220 1_555
S7 Tc9 2.397841 1_555
S8 Tc7 2.372053 1_555
S8 Tc0 2.381220 1_555
S8 Tc10 2.397841 1_555
S9 Tc10 2.450431 1_555
S10 S13 2.117484 1_644
S10 Tc1 2.575119 1_555
S11 Tc6 2.406223 1_565
S11 Tc10 2.414181 1_555
S11 Tc7 2.419696 1_555
S12 Tc4 2.364602 1_555
S12 Tc1 2.392070 1_555
S12 Tc3 2.397015 1_655
S13 Tc8 2.575119 1_555
S14 Tc5 2.383614 1_555
S14 Tc1 2.384859 1_556
S14 Tc2 2.411458 1_655
S15 S23 2.084053 1_555
S15 Tc5 2.450431 1_555
S16 Tc9 2.383614 1_555
S16 Tc6 2.384859 1_555
S16 Tc7 2.411458 1_545
S17 S21 2.117484 1_645
S17 Tc6 2.575119 1_555
S18 Tc7 2.364602 1_555
S18 Tc0 2.392070 1_555
S18 Tc9 2.397015 1_565
S19 Tc4 2.372053 1_555
S19 Tc1 2.381220 1_555
S19 Tc5 2.397841 1_554
S20 Tc0 2.406223 1_545
S20 Tc9 2.414181 1_555
S20 Tc11 2.419696 1_555
S21 Tc0 2.575119 1_555
S22 Tc2 2.372053 1_555
S22 Tc8 2.381220 1_555
S22 Tc3 2.397841 1_556
S23 Tc9 2.450431 1_555
S24 Tc10 2.383614 1_555
S24 Tc0 2.384859 1_555
S24 Tc11 2.411458 1_565
S25 S9 2.084053 1_555
S25 Tc3 2.450431 1_555
