# generated using pymatgen
data_LiRe(OF2)2
_symmetry_space_group_name_H-M   'P 1'
_cell_length_a   4.83907700
_cell_length_b   4.83907700
_cell_length_c   9.06250400
_cell_angle_alpha   90.00000000
_cell_angle_beta   90.00000000
_cell_angle_gamma   90.00000000
_symmetry_Int_Tables_number   1
_chemical_formula_structural   LiRe(OF2)2
_chemical_formula_sum   'Li2 Re2 O4 F8'
_cell_volume   212.21363121
_cell_formula_units_Z   2
loop_
 _symmetry_equiv_pos_site_id
 _symmetry_equiv_pos_as_xyz
  1  'x, y, z'
loop_
 _atom_site_type_symbol
 _atom_site_label
 _atom_site_symmetry_multiplicity
 _atom_site_fract_x
 _atom_site_fract_y
 _atom_site_fract_z
 _atom_site_occupancy
  Li  Li0  1  0.00000000  0.50000000  0.41818700  1
  Li  Li1  1  0.50000000  0.00000000  0.58181300  1
  Re  Re0  1  0.00000000  0.50000000  0.77451100  1
  Re  Re1  1  0.50000000  0.00000000  0.22548900  1
  O  O0  1  0.19468200  0.30531800  0.89288100  1
  O  O1  1  0.30531800  0.80531800  0.10711900  1
  O  O2  1  0.80531800  0.69468200  0.89288100  1
  O  O3  1  0.69468200  0.19468200  0.10711900  1
  F  F0  1  0.68465000  0.18465000  0.40428900  1
  F  F1  1  0.81535000  0.68465000  0.59571100  1
  F  F2  1  0.31535000  0.81535000  0.40428900  1
  F  F3  1  0.27445700  0.77445700  0.73948700  1
  F  F4  1  0.72554300  0.22554300  0.73948700  1
  F  F5  1  0.22554300  0.27445700  0.26051300  1
  F  F6  1  0.77445700  0.72554300  0.26051300  1
  F  F7  1  0.18465000  0.31535000  0.59571100  1
loop_
_geom_bond_atom_site_label_1
_geom_bond_atom_site_label_2
_geom_bond_distance
_geom_bond_site_symmetry_2
O0 Re0 1.710491 1_555
O1 Re1 1.710491 1_565
O2 Re0 1.710491 1_655
O3 Re1 1.710491 1_555
F0 Li1 2.045749 1_555
F0 Re1 2.054855 1_555
F0 Li0 2.161766 1_655
F1 Li0 2.045749 1_655
F1 Re0 2.054855 1_655
F1 Li1 2.161766 1_565
F2 Li1 2.045749 1_565
F2 Re1 2.054855 1_565
F2 Li0 2.161766 1_555
F3 Re0 1.904874 1_555
F3 Li1 2.103381 1_565
F4 Re0 1.904874 1_655
F4 Li1 2.103381 1_555
F5 Re1 1.904874 1_555
F5 Li0 2.103381 1_555
F6 Re1 1.904874 1_565
F6 Li0 2.103381 1_655
F7 Li0 2.045749 1_555
F7 Re0 2.054855 1_555
F7 Li1 2.161766 1_555
