# generated using pymatgen
data_TcBi3O8
_symmetry_space_group_name_H-M   'P 1'
_cell_length_a   11.50615417
_cell_length_b   11.50615417
_cell_length_c   11.50615417
_cell_angle_alpha   90.00000000
_cell_angle_beta   90.00000000
_cell_angle_gamma   90.00000000
_symmetry_Int_Tables_number   1
_chemical_formula_structural   TcBi3O8
_chemical_formula_sum   'Tc8 Bi24 O64'
_cell_volume   1523.31797383
_cell_formula_units_Z   8
loop_
 _symmetry_equiv_pos_site_id
 _symmetry_equiv_pos_as_xyz
  1  'x, y, z'
loop_
 _atom_site_type_symbol
 _atom_site_label
 _atom_site_symmetry_multiplicity
 _atom_site_fract_x
 _atom_site_fract_y
 _atom_site_fract_z
 _atom_site_occupancy
  Tc  Tc0  1  0.11565660  0.88434340  0.38434340  1
  Tc  Tc1  1  0.88434340  0.38434340  0.11565660  1
  Tc  Tc2  1  0.12040465  0.12040465  0.12040465  1
  Tc  Tc3  1  0.87959535  0.62040465  0.37959535  1
  Tc  Tc4  1  0.38434340  0.11565660  0.88434340  1
  Tc  Tc5  1  0.61565660  0.61565660  0.61565660  1
  Tc  Tc6  1  0.62040465  0.37959535  0.87959535  1
  Tc  Tc7  1  0.37959535  0.87959535  0.62040465  1
  Bi  Bi0  1  0.35506254  0.64215983  0.88707987  1
  Bi  Bi1  1  0.15048995  0.63702554  0.11612127  1
  Bi  Bi2  1  0.13702554  0.38387873  0.84951005  1
  Bi  Bi3  1  0.38387873  0.84951005  0.13702554  1
  Bi  Bi4  1  0.85784017  0.11292013  0.85506254  1
  Bi  Bi5  1  0.85506254  0.85784017  0.11292013  1
  Bi  Bi6  1  0.65048995  0.86297446  0.88387873  1
  Bi  Bi7  1  0.86297446  0.88387873  0.65048995  1
  Bi  Bi8  1  0.11612127  0.15048995  0.63702554  1
  Bi  Bi9  1  0.61292013  0.64493746  0.14215983  1
  Bi  Bi10  1  0.14215983  0.61292013  0.64493746  1
  Bi  Bi11  1  0.34951005  0.36297446  0.61612127  1
  Bi  Bi12  1  0.38707987  0.14493746  0.35784017  1
  Bi  Bi13  1  0.35784017  0.38707987  0.14493746  1
  Bi  Bi14  1  0.61612127  0.34951005  0.36297446  1
  Bi  Bi15  1  0.63702554  0.11612127  0.15048995  1
  Bi  Bi16  1  0.11292013  0.85506254  0.85784017  1
  Bi  Bi17  1  0.84951005  0.13702554  0.38387873  1
  Bi  Bi18  1  0.14493746  0.35784017  0.38707987  1
  Bi  Bi19  1  0.88707987  0.35506254  0.64215983  1
  Bi  Bi20  1  0.36297446  0.61612127  0.34951005  1
  Bi  Bi21  1  0.88387873  0.65048995  0.86297446  1
  Bi  Bi22  1  0.64215983  0.88707987  0.35506254  1
  Bi  Bi23  1  0.64493746  0.14215983  0.61292013  1
  O  O0  1  0.46598300  0.96598300  0.53401700  1
  O  O1  1  0.77063653  0.77063653  0.77063653  1
  O  O2  1  0.22770772  0.50213739  0.24456280  1
  O  O3  1  0.27229228  0.49786261  0.74456280  1
  O  O4  1  0.11784774  0.74660164  0.43957924  1
  O  O5  1  0.22936347  0.27063653  0.72936347  1
  O  O6  1  0.25287254  0.05608508  0.14174973  1
  O  O7  1  0.72936347  0.22936347  0.27063653  1
  O  O8  1  0.77229228  0.00213739  0.25543720  1
  O  O9  1  0.24245604  0.46902362  0.50259719  1
  O  O10  1  0.53097638  0.00259719  0.25754396  1
  O  O11  1  0.24712746  0.94391492  0.64174973  1
  O  O12  1  0.53401700  0.46598300  0.96598300  1
  O  O13  1  0.78147147  0.21852853  0.71852853  1
  O  O14  1  0.24660164  0.06042076  0.88215226  1
  O  O15  1  0.74245604  0.03097638  0.49740281  1
  O  O16  1  0.35825027  0.74712746  0.55608508  1
  O  O17  1  0.55608508  0.35825027  0.74712746  1
  O  O18  1  0.75543720  0.72770772  0.99786261  1
  O  O19  1  0.47116970  0.02883030  0.97116970  1
  O  O20  1  0.28147147  0.28147147  0.28147147  1
  O  O21  1  0.49740281  0.74245604  0.03097638  1
  O  O22  1  0.75754396  0.96902362  0.99740281  1
  O  O23  1  0.72770772  0.99786261  0.75543720  1
  O  O24  1  0.03401700  0.03401700  0.03401700  1
  O  O25  1  0.21852853  0.71852853  0.78147147  1
  O  O26  1  0.25754396  0.53097638  0.00259719  1
  O  O27  1  0.85825027  0.75287254  0.44391492  1
  O  O28  1  0.93957924  0.38215226  0.25339836  1
  O  O29  1  0.52883030  0.52883030  0.52883030  1
  O  O30  1  0.24456280  0.22770772  0.50213739  1
  O  O31  1  0.43957924  0.11784774  0.74660164  1
  O  O32  1  0.99740281  0.75754396  0.96902362  1
  O  O33  1  0.96902362  0.99740281  0.75754396  1
  O  O34  1  0.03097638  0.49740281  0.74245604  1
  O  O35  1  0.38215226  0.25339836  0.93957924  1
  O  O36  1  0.00213739  0.25543720  0.77229228  1
  O  O37  1  0.61784774  0.75339836  0.56042076  1
  O  O38  1  0.94391492  0.64174973  0.24712746  1
  O  O39  1  0.74712746  0.55608508  0.35825027  1
  O  O40  1  0.06042076  0.88215226  0.24660164  1
  O  O41  1  0.56042076  0.61784774  0.75339836  1
  O  O42  1  0.71852853  0.78147147  0.21852853  1
  O  O43  1  0.75287254  0.44391492  0.85825027  1
  O  O44  1  0.74660164  0.43957924  0.11784774  1
  O  O45  1  0.25543720  0.77229228  0.00213739  1
  O  O46  1  0.88215226  0.24660164  0.06042076  1
  O  O47  1  0.99786261  0.75543720  0.72770772  1
  O  O48  1  0.02883030  0.97116970  0.47116970  1
  O  O49  1  0.97116970  0.47116970  0.02883030  1
  O  O50  1  0.44391492  0.85825027  0.75287254  1
  O  O51  1  0.27063653  0.72936347  0.22936347  1
  O  O52  1  0.25339836  0.93957924  0.38215226  1
  O  O53  1  0.49786261  0.74456280  0.27229228  1
  O  O54  1  0.75339836  0.56042076  0.61784774  1
  O  O55  1  0.96598300  0.53401700  0.46598300  1
  O  O56  1  0.14174973  0.25287254  0.05608508  1
  O  O57  1  0.64174973  0.24712746  0.94391492  1
  O  O58  1  0.46902362  0.50259719  0.24245604  1
  O  O59  1  0.50213739  0.24456280  0.22770772  1
  O  O60  1  0.74456280  0.27229228  0.49786261  1
  O  O61  1  0.00259719  0.25754396  0.53097638  1
  O  O62  1  0.50259719  0.24245604  0.46902362  1
  O  O63  1  0.05608508  0.14174973  0.25287254  1
loop_
_geom_bond_atom_site_label_1
_geom_bond_atom_site_label_2
_geom_bond_distance
_geom_bond_site_symmetry_2
Bi0 O26 2.159233 1_556
Bi0 O25 2.171795 1_555
Bi0 O45 2.304045 1_556
Bi0 O3 2.520445 1_555
Bi0 O21 2.599125 1_556
Bi0 O41 2.833268 1_555
Bi1 O26 2.170815 1_555
Bi1 O51 2.176619 1_555
Bi1 O2 2.319985 1_555
Bi1 O45 2.366560 1_555
Bi1 O32 2.808965 1_454
Bi1 O38 2.815088 1_455
Bi2 O34 2.170815 1_555
Bi2 O5 2.176619 1_555
Bi2 O36 2.319985 1_555
Bi2 O3 2.366560 1_555
Bi2 O26 2.808965 1_556
Bi2 O56 2.815088 1_556
Bi3 O21 2.170815 1_555
Bi3 O51 2.176619 1_555
Bi3 O45 2.319985 1_555
Bi3 O53 2.366560 1_555
Bi3 O10 2.808965 1_565
Bi3 O6 2.815088 1_565
Bi4 O33 2.159233 1_545
Bi4 O13 2.171795 1_555
Bi4 O23 2.304045 1_545
Bi4 O36 2.520445 1_655
Bi4 O22 2.599125 1_545
Bi4 O46 2.833268 1_556
Bi5 O22 2.159233 1_554
Bi5 O42 2.171795 1_555
Bi5 O18 2.304045 1_554
Bi5 O8 2.520445 1_565
Bi5 O32 2.599125 1_554
Bi5 O40 2.833268 1_655
Bi6 O22 2.170815 1_555
Bi6 O1 2.176619 1_555
Bi6 O23 2.319985 1_555
Bi6 O18 2.366560 1_555
Bi6 O21 2.808965 1_556
Bi6 O50 2.815088 1_555
Bi7 O33 2.170815 1_555
Bi7 O1 2.176619 1_555
Bi7 O47 2.319985 1_555
Bi7 O23 2.366560 1_555
Bi7 O15 2.808965 1_565
Bi7 O27 2.815088 1_555
Bi8 O61 2.170815 1_555
Bi8 O5 2.176619 1_555
Bi8 O30 2.319985 1_555
Bi8 O36 2.366560 1_555
Bi8 O33 2.808965 1_445
Bi8 O11 2.815088 1_545
Bi9 O21 2.159233 1_555
Bi9 O42 2.171795 1_555
Bi9 O53 2.304045 1_555
Bi9 O18 2.520445 1_554
Bi9 O58 2.599125 1_555
Bi9 O44 2.833268 1_555
Bi10 O34 2.159233 1_555
Bi10 O25 2.171795 1_555
Bi10 O3 2.304045 1_555
Bi10 O47 2.520445 1_455
Bi10 O9 2.599125 1_555
Bi10 O4 2.833268 1_555
Bi11 O9 2.170815 1_555
Bi11 O5 2.176619 1_555
Bi11 O3 2.319985 1_555
Bi11 O30 2.366560 1_555
Bi11 O62 2.808965 1_555
Bi11 O17 2.815088 1_555
Bi12 O62 2.159233 1_555
Bi12 O20 2.171795 1_555
Bi12 O59 2.304045 1_555
Bi12 O30 2.520445 1_555
Bi12 O10 2.599125 1_555
Bi12 O52 2.833268 1_545
Bi13 O58 2.159233 1_555
Bi13 O20 2.171795 1_555
Bi13 O2 2.304045 1_555
Bi13 O59 2.520445 1_555
Bi13 O26 2.599125 1_555
Bi13 O35 2.833268 1_554
Bi14 O62 2.170815 1_555
Bi14 O7 2.176619 1_555
Bi14 O60 2.319985 1_555
Bi14 O59 2.366560 1_555
Bi14 O58 2.808965 1_555
Bi14 O39 2.815088 1_555
Bi15 O10 2.170815 1_555
Bi15 O7 2.176619 1_555
Bi15 O59 2.319985 1_555
Bi15 O8 2.366560 1_555
Bi15 O22 2.808965 1_544
Bi15 O57 2.815088 1_554
Bi16 O32 2.159233 1_455
Bi16 O25 2.171795 1_555
Bi16 O47 2.304045 1_455
Bi16 O45 2.520445 1_556
Bi16 O33 2.599125 1_455
Bi16 O14 2.833268 1_565
Bi17 O15 2.170815 1_555
Bi17 O7 2.176619 1_555
Bi17 O8 2.319985 1_555
Bi17 O60 2.366560 1_555
Bi17 O61 2.808965 1_655
Bi17 O63 2.815088 1_655
Bi18 O9 2.159233 1_555
Bi18 O20 2.171795 1_555
Bi18 O30 2.304045 1_555
Bi18 O2 2.520445 1_555
Bi18 O61 2.599125 1_555
Bi18 O28 2.833268 1_455
Bi19 O61 2.159233 1_655
Bi19 O13 2.171795 1_555
Bi19 O36 2.304045 1_655
Bi19 O60 2.520445 1_555
Bi19 O34 2.599125 1_655
Bi19 O54 2.833268 1_555
Bi20 O58 2.170815 1_555
Bi20 O51 2.176619 1_555
Bi20 O53 2.319985 1_555
Bi20 O2 2.366560 1_555
Bi20 O9 2.808965 1_555
Bi20 O16 2.815088 1_555
Bi21 O32 2.170815 1_555
Bi21 O1 2.176619 1_555
Bi21 O18 2.319985 1_555
Bi21 O47 2.366560 1_555
Bi21 O34 2.808965 1_655
Bi21 O43 2.815088 1_555
Bi22 O10 2.159233 1_565
Bi22 O42 2.171795 1_555
Bi22 O8 2.304045 1_565
Bi22 O53 2.520445 1_555
Bi22 O15 2.599125 1_565
Bi22 O37 2.833268 1_555
Bi23 O15 2.159233 1_555
Bi23 O13 2.171795 1_555
Bi23 O60 2.304045 1_555
Bi23 O23 2.520445 1_545
Bi23 O62 2.599125 1_555
Bi23 O31 2.833268 1_555
O0 Tc7 1.721641 1_555
O4 Tc0 1.707747 1_555
O6 Tc2 1.712074 1_555
O11 Tc7 1.712074 1_555
O12 Tc6 1.721641 1_555
O14 Tc4 1.707747 1_555
O16 Tc7 1.712074 1_555
O17 Tc6 1.712074 1_555
O19 Tc4 1.730382 1_555
O24 Tc2 1.721641 1_555
O27 Tc3 1.712074 1_555
O28 Tc1 1.707747 1_555
O29 Tc5 1.730382 1_555
O31 Tc4 1.707747 1_555
O35 Tc4 1.707747 1_555
O37 Tc5 1.707747 1_555
O38 Tc3 1.712074 1_555
O39 Tc3 1.712074 1_555
O40 Tc0 1.707747 1_555
O41 Tc5 1.707747 1_555
O43 Tc6 1.712074 1_555
O44 Tc1 1.707747 1_555
O46 Tc1 1.707747 1_555
O48 Tc0 1.730382 1_555
O49 Tc1 1.730382 1_555
O50 Tc7 1.712074 1_555
O52 Tc0 1.707747 1_555
O54 Tc5 1.707747 1_555
O55 Tc3 1.721641 1_555
O56 Tc2 1.712074 1_555
O57 Tc6 1.712074 1_555
O63 Tc2 1.712074 1_555
