# generated using pymatgen
data_Rb4P2Se9
_symmetry_space_group_name_H-M   'P 1'
_cell_length_a   7.22549953
_cell_length_b   7.22546751
_cell_length_c   19.33043277
_cell_angle_alpha   87.82479974
_cell_angle_beta   87.82577990
_cell_angle_gamma   94.72900386
_symmetry_Int_Tables_number   1
_chemical_formula_structural   Rb4P2Se9
_chemical_formula_sum   'Rb8 P4 Se18'
_cell_volume   1004.18059650
_cell_formula_units_Z   2
loop_
 _symmetry_equiv_pos_site_id
 _symmetry_equiv_pos_as_xyz
  1  'x, y, z'
loop_
 _atom_site_type_symbol
 _atom_site_label
 _atom_site_symmetry_multiplicity
 _atom_site_fract_x
 _atom_site_fract_y
 _atom_site_fract_z
 _atom_site_occupancy
  Rb  Rb0  1  0.78043508  0.28416488  0.52566907  1
  Rb  Rb1  1  0.21956347  0.71580057  0.47433182  1
  Rb  Rb2  1  0.56625966  0.75307797  0.67925986  1
  Rb  Rb3  1  0.43374360  0.24688835  0.32074204  1
  Rb  Rb4  1  0.24692422  0.43373624  0.82074818  1
  Rb  Rb5  1  0.28419262  0.78041179  0.02566910  1
  Rb  Rb6  1  0.71581862  0.21957778  0.97433310  1
  Rb  Rb7  1  0.75308716  0.56624694  0.17925499  1
  P  P0  1  0.25460492  0.26976859  0.61804519  1
  P  P1  1  0.73024767  0.74541557  0.88195941  1
  P  P2  1  0.74537740  0.73019990  0.38194830  1
  P  P3  1  0.26975714  0.25460534  0.11804110  1
  Se  Se0  1  0.95488531  0.98984151  0.35253610  1
  Se  Se1  1  0.51945790  0.12177053  0.14148526  1
  Se  Se2  1  0.04509282  0.01012392  0.64747167  1
  Se  Se3  1  0.50052944  0.24513546  0.67694221  1
  Se  Se4  1  0.27695762  0.21328228  0.50796185  1
  Se  Se5  1  0.72305273  0.78675306  0.49202323  1
  Se  Se6  1  0.48054778  0.87825376  0.85850733  1
  Se  Se7  1  0.01011187  0.04507662  0.14746753  1
  Se  Se8  1  0.75488331  0.49948330  0.82307122  1
  Se  Se9  1  0.98984384  0.95497073  0.85255018  1
  Se  Se10  1  0.21324817  0.27691568  0.00796216  1
  Se  Se11  1  0.49943410  0.75484631  0.32304855  1
  Se  Se12  1  0.24514987  0.50054965  0.17693792  1
  Se  Se13  1  0.78681586  0.72310389  0.99204009  1
  Se  Se14  1  0.89916050  0.10083530  0.74999777  1
  Se  Se15  1  0.12178950  0.51946096  0.64149100  1
  Se  Se16  1  0.87821307  0.48051090  0.35851447  1
  Se  Se17  1  0.10081273  0.89919122  0.24998729  1
loop_
_geom_bond_atom_site_label_1
_geom_bond_atom_site_label_2
_geom_bond_distance
_geom_bond_site_symmetry_2
Rb0 Se3 3.480703 1_555
Rb0 Se16 3.502261 1_555
Rb0 Se4 3.662539 1_555
Rb0 Se5 3.669357 1_545
Rb0 Se4 3.670642 1_655
Rb0 Se2 3.705839 1_655
Rb0 Se5 3.724468 1_555
Rb0 Se15 3.742055 1_655
Rb1 Se11 3.480725 1_555
Rb1 Se15 3.502321 1_555
Rb1 Se5 3.662612 1_555
Rb1 Se4 3.669787 1_565
Rb1 Se5 3.670652 1_455
Rb1 Se0 3.705841 1_455
Rb1 Se4 3.723948 1_555
Rb1 Se16 3.741960 1_455
Rb2 Se15 3.615772 1_555
Rb2 Se3 3.624361 1_565
Rb2 Se8 3.640822 1_555
Rb2 Se6 3.657152 1_555
Rb2 Se3 3.663885 1_555
Rb2 Se14 3.671936 1_565
Rb2 Se5 3.744204 1_555
Rb2 Se2 3.806556 1_665
Rb3 Se16 3.615801 1_555
Rb3 Se11 3.624194 1_545
Rb3 Se12 3.640863 1_555
Rb3 Se1 3.657201 1_555
Rb3 Se11 3.663970 1_555
Rb3 Se17 3.671927 1_545
Rb3 Se4 3.743879 1_555
Rb3 Se0 3.806727 1_445
Rb4 Se6 3.616033 1_555
Rb4 Se8 3.624282 1_455
Rb4 Se3 3.640751 1_555
Rb4 Se15 3.657233 1_555
Rb4 Se8 3.664031 1_555
Rb4 Se14 3.672068 1_455
Rb4 Se10 3.743822 1_556
Rb4 Se9 3.806250 1_445
Rb5 Se12 3.480434 1_555
Rb5 Se6 3.502484 1_554
Rb5 Se10 3.662687 1_555
Rb5 Se13 3.669024 1_454
Rb5 Se10 3.670587 1_565
Rb5 Se7 3.706019 1_565
Rb5 Se13 3.724590 1_554
Rb5 Se1 3.741914 1_565
Rb6 Se8 3.480495 1_555
Rb6 Se1 3.502297 1_556
Rb6 Se13 3.662925 1_555
Rb6 Se10 3.669405 1_656
Rb6 Se13 3.670459 1_545
Rb6 Se9 3.705363 1_545
Rb6 Se10 3.724261 1_556
Rb6 Se6 3.741888 1_545
Rb7 Se1 3.615847 1_555
Rb7 Se12 3.624364 1_655
Rb7 Se11 3.640739 1_555
Rb7 Se16 3.657269 1_555
Rb7 Se12 3.663851 1_555
Rb7 Se17 3.671935 1_655
Rb7 Se13 3.743909 1_554
Rb7 Se7 3.806456 1_665
P0 Se3 2.162316 1_555
P0 Se15 2.166987 1_555
P0 Se4 2.184397 1_555
P0 Se2 2.349510 1_555
P1 Se8 2.162282 1_555
P1 Se6 2.167139 1_555
P1 Se13 2.184458 1_555
P1 Se9 2.349370 1_555
P2 Se11 2.162473 1_555
P2 Se16 2.166987 1_555
P2 Se5 2.184339 1_555
P2 Se0 2.349425 1_555
P3 Se12 2.162422 1_555
P3 Se1 2.167098 1_555
P3 Se10 2.184327 1_555
P3 Se7 2.349585 1_555
Se0 Se17 2.350357 1_655
Se14 Se2 2.350158 1_655
Se14 Se9 2.350273 1_545
Se17 Se7 2.349855 1_565
