# generated using pymatgen
data_TiSe
_symmetry_space_group_name_H-M   'P 1'
_cell_length_a   3.49263977
_cell_length_b   6.24232284
_cell_length_c   6.45402690
_cell_angle_alpha   90.00000000
_cell_angle_beta   90.00000000
_cell_angle_gamma   90.00000000
_symmetry_Int_Tables_number   1
_chemical_formula_structural   TiSe
_chemical_formula_sum   'Ti4 Se4'
_cell_volume   140.71188852
_cell_formula_units_Z   4
loop_
 _symmetry_equiv_pos_site_id
 _symmetry_equiv_pos_as_xyz
  1  'x, y, z'
loop_
 _atom_site_type_symbol
 _atom_site_label
 _atom_site_symmetry_multiplicity
 _atom_site_fract_x
 _atom_site_fract_y
 _atom_site_fract_z
 _atom_site_occupancy
  Ti  Ti0  1  0.25000000  0.69205023  0.50599802  1
  Ti  Ti1  1  0.25000000  0.80794977  0.00599802  1
  Ti  Ti2  1  0.75000000  0.30794977  0.49400198  1
  Ti  Ti3  1  0.75000000  0.19205023  0.99400198  1
  Se  Se0  1  0.75000000  0.91714446  0.28403287  1
  Se  Se1  1  0.25000000  0.08285554  0.71596713  1
  Se  Se2  1  0.25000000  0.41714446  0.21596713  1
  Se  Se3  1  0.75000000  0.58285554  0.78403287  1
loop_
_geom_bond_atom_site_label_1
_geom_bond_atom_site_label_2
_geom_bond_distance
_geom_bond_site_symmetry_2
Se0 Ti3 2.539432 1_564
Se0 Ti1 2.595049 1_555
Se0 Ti1 2.595049 1_655
Se0 Ti0 2.660117 1_555
Se0 Ti0 2.660117 1_655
Se0 Ti2 2.790653 1_565
Se1 Ti1 2.539432 1_546
Se1 Ti3 2.595049 1_455
Se1 Ti3 2.595049 1_555
Se1 Ti2 2.660117 1_455
Se1 Ti2 2.660117 1_555
Se1 Ti0 2.790653 1_545
Se2 Ti0 2.539432 1_555
Se2 Ti2 2.595049 1_555
Se2 Ti2 2.595049 1_455
Se2 Ti3 2.660117 1_554
Se2 Ti3 2.660117 1_454
Se2 Ti1 2.790653 1_555
Se3 Ti2 2.539432 1_555
Se3 Ti0 2.595049 1_655
Se3 Ti0 2.595049 1_555
Se3 Ti1 2.660117 1_656
Se3 Ti1 2.660117 1_556
Se3 Ti3 2.790653 1_555
