# generated using pymatgen
data_SiO2
_symmetry_space_group_name_H-M   'P 1'
_cell_length_a   8.37370053
_cell_length_b   13.21356456
_cell_length_c   13.21356423
_cell_angle_alpha   66.65160702
_cell_angle_beta   71.52686577
_cell_angle_gamma   71.52686355
_symmetry_Int_Tables_number   1
_chemical_formula_structural   SiO2
_chemical_formula_sum   'Si24 O48'
_cell_volume   1242.04957130
_cell_formula_units_Z   24
loop_
 _symmetry_equiv_pos_site_id
 _symmetry_equiv_pos_as_xyz
  1  'x, y, z'
loop_
 _atom_site_type_symbol
 _atom_site_label
 _atom_site_symmetry_multiplicity
 _atom_site_fract_x
 _atom_site_fract_y
 _atom_site_fract_z
 _atom_site_occupancy
  Si  Si0  1  0.75241767  0.62424381  0.49543257  1
  Si  Si1  1  0.51184969  0.23240701  0.12185412  1
  Si  Si2  1  0.30334556  0.76379954  0.26379954  1
  Si  Si3  1  0.68496414  0.37829521  0.87829521  1
  Si  Si4  1  0.24758233  0.00456743  0.87575619  1
  Si  Si5  1  0.12790595  0.62424381  0.49543257  1
  Si  Si6  1  0.33094465  0.23620046  0.73620046  1
  Si  Si7  1  0.94155555  0.62170479  0.12170479  1
  Si  Si8  1  0.51184969  0.62185412  0.73240701  1
  Si  Si9  1  0.13388817  0.62185412  0.73240701  1
  Si  Si10  1  0.66905535  0.76379954  0.26379954  1
  Si  Si11  1  0.24758233  0.37575619  0.50456743  1
  Si  Si12  1  0.86611183  0.76759299  0.87814588  1
  Si  Si13  1  0.31503586  0.62170479  0.12170479  1
  Si  Si14  1  0.87209405  0.37575619  0.50456743  1
  Si  Si15  1  0.13388817  0.23240701  0.12185412  1
  Si  Si16  1  0.48815031  0.37814588  0.26759299  1
  Si  Si17  1  0.05844445  0.37829521  0.87829521  1
  Si  Si18  1  0.12790595  0.99543257  0.12424381  1
  Si  Si19  1  0.75241767  0.99543257  0.12424381  1
  Si  Si20  1  0.69665444  0.23620046  0.73620046  1
  Si  Si21  1  0.48815031  0.76759299  0.87814588  1
  Si  Si22  1  0.86611183  0.37814588  0.26759299  1
  Si  Si23  1  0.87209405  0.00456743  0.87575619  1
  O  O0  1  0.77329910  0.28209300  0.60213192  1
  O  O1  1  0.22670090  0.71790700  0.39786808  1
  O  O2  1  0.50000000  0.28426387  0.21573613  1
  O  O3  1  0.09140495  0.64203901  0.61457836  1
  O  O4  1  0.51113412  0.73886588  0.23886588  1
  O  O5  1  0.14750983  0.60249017  0.10249017  1
  O  O6  1  0.88600810  0.50229931  0.18114423  1
  O  O7  1  0.34247599  0.10213192  0.78209300  1
  O  O8  1  0.67189457  0.36624409  0.28996578  1
  O  O9  1  0.34802132  0.35796099  0.38542164  1
  O  O10  1  0.11399190  0.49770069  0.81885577  1
  O  O11  1  0.67189457  0.78996578  0.86624409  1
  O  O12  1  0.94786233  0.63759531  0.46667802  1
  O  O13  1  0.34247599  0.28209300  0.60213192  1
  O  O14  1  0.34802132  0.88542164  0.85796099  1
  O  O15  1  0.94786233  0.96667802  0.13759531  1
  O  O16  1  0.77329910  0.10213192  0.78209300  1
  O  O17  1  0.50000000  0.71573613  0.78426387  1
  O  O18  1  -0.00000000  0.28426387  0.21573613  1
  O  O19  1  0.90859505  0.88542164  0.85796099  1
  O  O20  1  0.56945164  0.49770069  0.81885577  1
  O  O21  1  0.65752401  0.71790700  0.39786808  1
  O  O22  1  0.74924444  0.29942874  0.79942874  1
  O  O23  1  0.24678835  0.50000000  0.50000000  1
  O  O24  1  0.65752401  0.89786808  0.21790700  1
  O  O25  1  0.05213767  0.36240469  0.53332198  1
  O  O26  1  0.85249017  0.39750983  0.89750983  1
  O  O27  1  0.75321165  0.00000000  0.00000000  1
  O  O28  1  0.24678835  -0.00000000  -0.00000000  1
  O  O29  1  0.25075556  0.70057126  0.20057126  1
  O  O30  1  0.15190008  0.29942874  0.79942874  1
  O  O31  1  0.22670090  0.89786808  0.21790700  1
  O  O32  1  0.65197868  0.64203901  0.61457836  1
  O  O33  1  0.88600810  0.68114423  0.00229931  1
  O  O34  1  0.75321165  0.50000000  0.50000000  1
  O  O35  1  0.32810543  0.63375591  0.71003422  1
  O  O36  1  0.32810543  0.21003422  0.13375591  1
  O  O37  1  0.05213767  0.03332198  0.86240469  1
  O  O38  1  0.48886588  0.26113412  0.76113412  1
  O  O39  1  0.90859505  0.35796099  0.38542164  1
  O  O40  1  0.11399190  0.31885577  0.99770069  1
  O  O41  1  0.65197868  0.11457836  0.14203901  1
  O  O42  1  0.09140495  0.11457836  0.14203901  1
  O  O43  1  0.00000000  0.71573613  0.78426387  1
  O  O44  1  0.84809992  0.70057126  0.20057126  1
  O  O45  1  0.43054836  0.68114423  0.00229931  1
  O  O46  1  0.43054836  0.50229931  0.18114423  1
  O  O47  1  0.56945164  0.31885577  0.99770069  1
loop_
_geom_bond_atom_site_label_1
_geom_bond_atom_site_label_2
_geom_bond_distance
_geom_bond_site_symmetry_2
O0 Si14 1.608222 1_555
O0 Si20 1.610138 1_555
O1 Si5 1.608222 1_555
O1 Si2 1.610138 1_555
O2 Si1 1.603406 1_555
O2 Si16 1.603406 1_555
O3 Si5 1.603183 1_555
O3 Si9 1.607314 1_555
O4 Si10 1.613699 1_555
O4 Si2 1.613699 1_555
O5 Si7 1.612233 1_455
O5 Si13 1.612241 1_555
O6 Si7 1.604340 1_555
O6 Si22 1.609690 1_555
O7 Si4 1.608222 1_555
O7 Si6 1.610138 1_555
O8 Si16 1.605470 1_555
O8 Si22 1.605486 1_555
O9 Si11 1.603182 1_555
O9 Si16 1.607322 1_555
O10 Si17 1.604340 1_555
O10 Si9 1.609690 1_555
O11 Si21 1.605470 1_555
O11 Si12 1.605486 1_555
O12 Si0 1.609257 1_555
O12 Si5 1.609274 1_655
O13 Si11 1.608222 1_555
O13 Si6 1.610138 1_555
O14 Si4 1.603182 1_565
O14 Si21 1.607322 1_555
O15 Si19 1.609257 1_555
O15 Si18 1.609274 1_655
O16 Si23 1.608222 1_555
O16 Si20 1.610138 1_555
O17 Si21 1.603406 1_555
O17 Si8 1.603406 1_555
O18 Si22 1.603404 1_455
O18 Si15 1.603404 1_555
O19 Si23 1.603183 1_565
O19 Si12 1.607314 1_555
O20 Si3 1.604337 1_555
O20 Si8 1.609691 1_555
O21 Si0 1.608222 1_555
O21 Si10 1.610138 1_555
O22 Si20 1.615407 1_555
O22 Si3 1.616032 1_555
O23 Si11 1.616688 1_555
O23 Si5 1.616688 1_555
O24 Si19 1.608222 1_555
O24 Si10 1.610138 1_555
O25 Si11 1.609257 1_555
O25 Si14 1.609274 1_455
O26 Si17 1.612233 1_655
O26 Si3 1.612241 1_555
O27 Si19 1.616688 1_545
O27 Si23 1.616688 1_554
O28 Si4 1.616688 1_554
O28 Si18 1.616688 1_545
O29 Si2 1.615407 1_555
O29 Si13 1.616032 1_555
O30 Si6 1.615397 1_555
O30 Si17 1.616034 1_555
O31 Si18 1.608222 1_555
O31 Si2 1.610138 1_555
O32 Si0 1.603182 1_555
O32 Si8 1.607322 1_555
O33 Si7 1.604340 1_555
O33 Si12 1.609690 1_554
O34 Si0 1.616688 1_555
O34 Si14 1.616688 1_555
O35 Si8 1.605470 1_555
O35 Si9 1.605486 1_555
O36 Si1 1.605470 1_555
O36 Si15 1.605486 1_555
O37 Si4 1.609257 1_555
O37 Si23 1.609274 1_455
O38 Si6 1.613699 1_555
O38 Si20 1.613699 1_555
O39 Si14 1.603183 1_555
O39 Si22 1.607314 1_555
O40 Si17 1.604340 1_555
O40 Si15 1.609690 1_556
O41 Si19 1.603182 1_545
O41 Si1 1.607322 1_555
O42 Si18 1.603183 1_545
O42 Si15 1.607314 1_555
O43 Si9 1.603404 1_555
O43 Si12 1.603404 1_455
O44 Si10 1.615397 1_555
O44 Si7 1.616034 1_555
O45 Si13 1.604337 1_555
O45 Si21 1.609691 1_554
O46 Si13 1.604337 1_555
O46 Si16 1.609691 1_555
O47 Si3 1.604337 1_555
O47 Si1 1.609691 1_556
