# generated using pymatgen
data_Rb2V4O9
_symmetry_space_group_name_H-M   'P 1'
_cell_length_a   5.65315101
_cell_length_b   5.65315101
_cell_length_c   14.86385126
_cell_angle_alpha   90.00000000
_cell_angle_beta   90.00000000
_cell_angle_gamma   90.00000000
_symmetry_Int_Tables_number   1
_chemical_formula_structural   Rb2V4O9
_chemical_formula_sum   'Rb4 V8 O18'
_cell_volume   475.02068786
_cell_formula_units_Z   2
loop_
 _symmetry_equiv_pos_site_id
 _symmetry_equiv_pos_as_xyz
  1  'x, y, z'
loop_
 _atom_site_type_symbol
 _atom_site_label
 _atom_site_symmetry_multiplicity
 _atom_site_fract_x
 _atom_site_fract_y
 _atom_site_fract_z
 _atom_site_occupancy
  Rb  Rb0  1  0.27074653  0.24754616  0.50000000  1
  Rb  Rb1  1  0.75245384  0.27074653  -0.00000000  1
  Rb  Rb2  1  0.24754616  0.72925347  -0.00000000  1
  Rb  Rb3  1  0.72925347  0.75245384  0.50000000  1
  V  V0  1  0.28588807  0.15071736  0.19961003  1
  V  V1  1  0.84928264  0.28588807  0.69961003  1
  V  V2  1  0.15071736  0.71411193  0.69961003  1
  V  V3  1  0.71411193  0.84928264  0.19961003  1
  V  V4  1  0.71411193  0.84928264  0.80038997  1
  V  V5  1  0.15071736  0.71411193  0.30038997  1
  V  V6  1  0.84928264  0.28588807  0.30038997  1
  V  V7  1  0.28588807  0.15071736  0.80038997  1
  O  O0  1  0.00000000  0.00000000  0.25000000  1
  O  O1  1  0.00000000  0.00000000  0.75000000  1
  O  O2  1  0.22323168  0.23521078  0.09651036  1
  O  O3  1  0.76478922  0.22323168  0.59651036  1
  O  O4  1  0.23521078  0.77676832  0.59651036  1
  O  O5  1  0.77676832  0.76478922  0.09651036  1
  O  O6  1  0.77676832  0.76478922  0.90348964  1
  O  O7  1  0.23521078  0.77676832  0.40348964  1
  O  O8  1  0.76478922  0.22323168  0.40348964  1
  O  O9  1  0.22323168  0.23521078  0.90348964  1
  O  O10  1  0.18408715  0.37768222  0.28876120  1
  O  O11  1  0.62231778  0.18408715  0.78876120  1
  O  O12  1  0.37768222  0.81591285  0.78876120  1
  O  O13  1  0.81591285  0.62231778  0.28876120  1
  O  O14  1  0.81591285  0.62231778  0.71123880  1
  O  O15  1  0.37768222  0.81591285  0.21123880  1
  O  O16  1  0.62231778  0.18408715  0.21123880  1
  O  O17  1  0.18408715  0.37768222  0.71123880  1
loop_
_geom_bond_atom_site_label_1
_geom_bond_atom_site_label_2
_geom_bond_distance
_geom_bond_site_symmetry_2
O0 V6 1.974573 1_455
O0 V0 1.974573 1_555
O0 V3 1.974573 1_445
O0 V5 1.974573 1_545
O1 V7 1.974573 1_555
O1 V1 1.974573 1_455
O1 V2 1.974573 1_545
O1 V4 1.974573 1_445
O2 V0 1.643789 1_555
O2 Rb1 3.030037 1_455
O2 Rb2 3.142771 1_555
O2 Rb2 3.202776 1_545
O2 Rb1 3.323988 1_555
O3 V1 1.643789 1_555
O3 Rb3 3.030037 1_545
O3 Rb0 3.142771 1_555
O3 Rb0 3.202776 1_655
O3 Rb3 3.323988 1_555
O4 V2 1.643789 1_555
O4 Rb0 3.030037 1_565
O4 Rb3 3.142771 1_555
O4 Rb3 3.202776 1_455
O4 Rb0 3.323988 1_555
O5 V3 1.643789 1_555
O5 Rb2 3.030037 1_655
O5 Rb1 3.142771 1_555
O5 Rb1 3.202776 1_565
O5 Rb2 3.323988 1_555
O6 V4 1.643789 1_555
O6 Rb2 3.030037 1_656
O6 Rb1 3.142771 1_556
O6 Rb1 3.202776 1_566
O6 Rb2 3.323988 1_556
O7 V5 1.643789 1_555
O7 Rb0 3.030037 1_565
O7 Rb3 3.142771 1_555
O7 Rb3 3.202776 1_455
O7 Rb0 3.323988 1_555
O8 V6 1.643789 1_555
O8 Rb3 3.030037 1_545
O8 Rb0 3.142771 1_555
O8 Rb0 3.202776 1_655
O8 Rb3 3.323988 1_555
O9 V7 1.643789 1_555
O9 Rb1 3.030037 1_456
O9 Rb2 3.142771 1_556
O9 Rb2 3.202776 1_546
O9 Rb1 3.323988 1_556
O10 V5 1.919021 1_555
O10 V0 1.932207 1_555
O10 V6 1.970146 1_455
O10 Rb0 3.261856 1_555
O11 V7 1.919021 1_555
O11 V1 1.932207 1_555
O11 V4 1.970146 1_545
O11 Rb1 3.261856 1_556
O12 V4 1.919021 1_555
O12 V2 1.932207 1_555
O12 V7 1.970146 1_565
O12 Rb2 3.261856 1_556
O13 V6 1.919021 1_555
O13 V3 1.932207 1_555
O13 V5 1.970146 1_655
O13 Rb3 3.261856 1_555
O14 V1 1.919021 1_555
O14 V4 1.932207 1_555
O14 V2 1.970146 1_655
O14 Rb3 3.261856 1_555
O15 V3 1.919021 1_555
O15 V5 1.932207 1_555
O15 V0 1.970146 1_565
O15 Rb2 3.261856 1_555
O16 V0 1.919021 1_555
O16 V6 1.932207 1_555
O16 V3 1.970146 1_545
O16 Rb1 3.261856 1_555
O17 V2 1.919021 1_555
O17 V7 1.932207 1_555
O17 V1 1.970146 1_455
O17 Rb0 3.261856 1_555
