# generated using pymatgen
data_Ca2Si3PbO9
_symmetry_space_group_name_H-M   'P 1'
_cell_length_a   6.78195500
_cell_length_b   6.83082317
_cell_length_c   9.65654459
_cell_angle_alpha   82.88141920
_cell_angle_beta   69.64032260
_cell_angle_gamma   76.75777555
_symmetry_Int_Tables_number   1
_chemical_formula_structural   Ca2Si3PbO9
_chemical_formula_sum   'Ca4 Si6 Pb2 O18'
_cell_volume   407.77337083
_cell_formula_units_Z   2
loop_
 _symmetry_equiv_pos_site_id
 _symmetry_equiv_pos_as_xyz
  1  'x, y, z'
loop_
 _atom_site_type_symbol
 _atom_site_label
 _atom_site_symmetry_multiplicity
 _atom_site_fract_x
 _atom_site_fract_y
 _atom_site_fract_z
 _atom_site_occupancy
  Ca  Ca0  1  0.76397700  0.72761500  0.50515900  1
  Ca  Ca1  1  0.23602300  0.27238500  0.49484100  1
  Ca  Ca2  1  0.93041900  0.55796400  0.83157800  1
  Ca  Ca3  1  0.06958100  0.44203600  0.16842200  1
  Si  Si0  1  0.15827600  0.90376100  0.21908400  1
  Si  Si1  1  0.84172400  0.09623900  0.78091600  1
  Si  Si2  1  0.28065400  0.76691300  0.48353000  1
  Si  Si3  1  0.71934600  0.23308700  0.51647000  1
  Si  Si4  1  0.51495500  0.56192000  0.20172900  1
  Si  Si5  1  0.48504500  0.43808000  0.79827100  1
  Pb  Pb0  1  0.28108500  0.90701900  0.84191500  1
  Pb  Pb1  1  0.71891500  0.09298100  0.15808500  1
  O  O0  1  0.97479100  0.76957700  0.25645900  1
  O  O1  1  0.02520900  0.23042300  0.74354100  1
  O  O2  1  0.90593000  0.89232300  0.87406000  1
  O  O3  1  0.09407000  0.10767700  0.12594000  1
  O  O4  1  0.39642700  0.76671400  0.12379400  1
  O  O5  1  0.60357300  0.23328600  0.87620600  1
  O  O6  1  0.19411000  0.95437100  0.37338200  1
  O  O7  1  0.80589000  0.04562900  0.62661800  1
  O  O8  1  0.10547900  0.62619900  0.55950900  1
  O  O9  1  0.89452100  0.37380100  0.44049100  1
  O  O10  1  0.36096300  0.87222700  0.58959100  1
  O  O11  1  0.63903700  0.12777300  0.41040900  1
  O  O12  1  0.50697600  0.64123500  0.36238900  1
  O  O13  1  0.49302400  0.35876500  0.63761100  1
  O  O14  1  0.24033300  0.52216100  0.90181600  1
  O  O15  1  0.75966700  0.47783900  0.09818400  1
  O  O16  1  0.62739800  0.61254400  0.75917600  1
  O  O17  1  0.37260200  0.38745600  0.24082400  1
loop_
_geom_bond_atom_site_label_1
_geom_bond_atom_site_label_2
_geom_bond_distance
_geom_bond_site_symmetry_2
Ca0 O0 2.349858 1_555
Ca0 O16 2.401540 1_555
Ca0 O9 2.454381 1_555
Ca0 O8 2.477919 1_655
Ca0 O10 2.554037 1_555
Ca0 O7 2.705855 1_565
Ca0 O12 2.762542 1_555
Ca0 O11 2.808052 1_565
Ca1 O1 2.349858 1_555
Ca1 O17 2.401540 1_555
Ca1 O8 2.454381 1_555
Ca1 O9 2.477919 1_455
Ca1 O11 2.554037 1_555
Ca1 O6 2.705855 1_545
Ca1 O13 2.762542 1_555
Ca1 O10 2.808052 1_545
Ca2 O2 2.328801 1_555
Ca2 O16 2.331372 1_555
Ca2 O1 2.360939 1_655
Ca2 O14 2.377571 1_655
Ca2 O15 2.476945 1_556
Ca2 O8 2.511740 1_655
Ca3 O3 2.328801 1_555
Ca3 O17 2.331372 1_555
Ca3 O0 2.360939 1_455
Ca3 O15 2.377571 1_455
Ca3 O14 2.476945 1_554
Ca3 O9 2.511740 1_455
O0 Si0 1.626942 1_655
O0 Pb1 2.768510 1_565
O1 Si1 1.626942 1_455
O1 Pb0 2.768510 1_545
O2 Si1 1.619556 1_565
O2 Pb0 2.477814 1_655
O3 Si0 1.619556 1_545
O3 Pb1 2.477814 1_455
O4 Si4 1.677601 1_555
O4 Si0 1.678806 1_555
O5 Si5 1.677601 1_555
O5 Si1 1.678806 1_555
O6 Si0 1.678317 1_555
O6 Si2 1.693523 1_555
O7 Si1 1.678317 1_555
O7 Si3 1.693523 1_555
O8 Si2 1.617240 1_555
O9 Si3 1.617240 1_555
O10 Si2 1.616590 1_555
O10 Pb0 2.335153 1_555
O11 Si3 1.616590 1_555
O11 Pb1 2.335153 1_555
O12 Si4 1.685184 1_555
O12 Si2 1.690328 1_555
O13 Si5 1.685184 1_555
O13 Si3 1.690328 1_555
O14 Si5 1.623257 1_555
O14 Pb0 2.677091 1_555
O15 Si4 1.623257 1_555
O15 Pb1 2.677091 1_555
O16 Si5 1.629968 1_555
O16 Pb0 2.670016 1_555
O17 Si4 1.629968 1_555
O17 Pb1 2.670016 1_555
