# generated using pymatgen
data_Co5P4(HO2)10
_symmetry_space_group_name_H-M   'P 1'
_cell_length_a   9.81028294
_cell_length_b   9.81028294
_cell_length_c   9.41172035
_cell_angle_alpha   84.03936862
_cell_angle_beta   84.03936862
_cell_angle_gamma   54.60238057
_symmetry_Int_Tables_number   1
_chemical_formula_structural   Co5P4(HO2)10
_chemical_formula_sum   'Co10 P8 H20 O40'
_cell_volume   733.30494526
_cell_formula_units_Z   2
loop_
 _symmetry_equiv_pos_site_id
 _symmetry_equiv_pos_as_xyz
  1  'x, y, z'
loop_
 _atom_site_type_symbol
 _atom_site_label
 _atom_site_symmetry_multiplicity
 _atom_site_fract_x
 _atom_site_fract_y
 _atom_site_fract_z
 _atom_site_occupancy
  Co  Co0  1  0.72863900  0.90105200  0.81197400  1
  Co  Co1  1  0.09894800  0.27136100  0.68802600  1
  Co  Co2  1  0.27136100  0.09894800  0.18802600  1
  Co  Co3  1  0.90105200  0.72863900  0.31197400  1
  Co  Co4  1  0.59699900  0.40300100  0.25000000  1
  Co  Co5  1  0.40300100  0.59699900  0.75000000  1
  Co  Co6  1  0.34848700  0.30199300  0.86968700  1
  Co  Co7  1  0.69800700  0.65151300  0.63031300  1
  Co  Co8  1  0.65151300  0.69800700  0.13031300  1
  Co  Co9  1  0.30199300  0.34848700  0.36968700  1
  P  P0  1  0.40359800  0.76271300  0.41066300  1
  P  P1  1  0.23728700  0.59640200  0.08933700  1
  P  P2  1  0.59640200  0.23728700  0.58933700  1
  P  P3  1  0.76271300  0.40359800  0.91066300  1
  P  P4  1  0.59828600  0.07943600  0.12858300  1
  P  P5  1  0.92056400  0.40171400  0.37141700  1
  P  P6  1  0.40171400  0.92056400  0.87141700  1
  P  P7  1  0.07943600  0.59828600  0.62858300  1
  H  H0  1  0.88195000  0.58739600  0.91066300  1
  H  H1  1  0.41260400  0.11805000  0.58933700  1
  H  H2  1  0.11805000  0.41260400  0.08933700  1
  H  H3  1  0.58739600  0.88195000  0.41066300  1
  H  H4  1  0.92405700  0.67236000  0.02234500  1
  H  H5  1  0.32764000  0.07594300  0.47765500  1
  H  H6  1  0.07594300  0.32764000  0.97765500  1
  H  H7  1  0.67236000  0.92405700  0.52234500  1
  H  H8  1  0.01670800  0.84749600  0.77632600  1
  H  H9  1  0.15250400  0.98329200  0.72367400  1
  H  H10  1  0.98329200  0.15250400  0.22367400  1
  H  H11  1  0.84749600  0.01670800  0.27632600  1
  H  H12  1  0.89651700  0.02803900  0.85497500  1
  H  H13  1  0.97196100  0.10348300  0.64502500  1
  H  H14  1  0.10348300  0.97196100  0.14502500  1
  H  H15  1  0.02803900  0.89651700  0.35497500  1
  H  H16  1  0.19754200  0.75424000  0.52004100  1
  H  H17  1  0.24576000  0.80245800  0.97995900  1
  H  H18  1  0.80245800  0.24576000  0.47995900  1
  H  H19  1  0.75424000  0.19754200  0.02004100  1
  O  O0  1  0.56754500  0.10349200  0.96551000  1
  O  O1  1  0.89650800  0.43245500  0.53449000  1
  O  O2  1  0.43245500  0.89650800  0.03449000  1
  O  O3  1  0.10349200  0.56754500  0.46551000  1
  O  O4  1  0.69225800  0.15896400  0.16030100  1
  O  O5  1  0.84103600  0.30774200  0.33969900  1
  O  O6  1  0.30774200  0.84103600  0.83969900  1
  O  O7  1  0.15896400  0.69225800  0.66030100  1
  O  O8  1  0.50975500  0.64607400  0.28836000  1
  O  O9  1  0.35392600  0.49024500  0.21164000  1
  O  O10  1  0.49024500  0.35392600  0.71164000  1
  O  O11  1  0.64607400  0.50975500  0.78836000  1
  O  O12  1  0.57284600  0.83134100  0.78336600  1
  O  O13  1  0.16865900  0.42715400  0.71663400  1
  O  O14  1  0.42715400  0.16865900  0.21663400  1
  O  O15  1  0.83134100  0.57284600  0.28336600  1
  O  O16  1  0.89120000  0.70169400  0.67449700  1
  O  O17  1  0.29830600  0.10880000  0.82550300  1
  O  O18  1  0.10880000  0.29830600  0.32550300  1
  O  O19  1  0.70169400  0.89120000  0.17449700  1
  O  O20  1  0.83166500  0.68651700  0.96896800  1
  O  O21  1  0.31348300  0.16833500  0.53103200  1
  O  O22  1  0.16833500  0.31348300  0.03103200  1
  O  O23  1  0.68651700  0.83166500  0.46896800  1
  O  O24  1  0.91931600  0.91739700  0.84378800  1
  O  O25  1  0.08260300  0.08068400  0.65621200  1
  O  O26  1  0.08068400  0.08260300  0.15621200  1
  O  O27  1  0.91739700  0.91931600  0.34378800  1
  O  O28  1  0.48067600  0.68565200  0.55783600  1
  O  O29  1  0.31434800  0.51932400  0.94216400  1
  O  O30  1  0.51932400  0.31434800  0.44216400  1
  O  O31  1  0.68565200  0.48067600  0.05783600  1
  O  O32  1  0.61660400  0.06933800  0.62984400  1
  O  O33  1  0.93066200  0.38339600  0.87015600  1
  O  O34  1  0.38339600  0.93066200  0.37015600  1
  O  O35  1  0.06933800  0.61660400  0.12984400  1
  O  O36  1  0.22368500  0.79848600  0.42367800  1
  O  O37  1  0.20151400  0.77631500  0.07632200  1
  O  O38  1  0.77631500  0.20151400  0.57632200  1
  O  O39  1  0.79848600  0.22368500  0.92367800  1
loop_
_geom_bond_atom_site_label_1
_geom_bond_atom_site_label_2
_geom_bond_distance
_geom_bond_site_symmetry_2
Co0 O24 2.021950 1_555
Co0 O12 2.052005 1_555
Co0 O16 2.127470 1_555
Co0 O32 2.138536 1_565
Co0 O20 2.198702 1_555
Co0 O0 2.239544 1_565
Co1 O25 2.021950 1_555
Co1 O13 2.052005 1_555
Co1 O17 2.127470 1_555
Co1 O33 2.138536 1_455
Co1 O21 2.198702 1_555
Co1 O1 2.239544 1_455
Co2 O26 2.021950 1_555
Co2 O14 2.052005 1_555
Co2 O18 2.127470 1_555
Co2 O34 2.138536 1_545
Co2 O22 2.198702 1_555
Co2 O2 2.239544 1_545
Co3 O27 2.021950 1_555
Co3 O15 2.052005 1_555
Co3 O19 2.127470 1_555
Co3 O35 2.138536 1_655
Co3 O23 2.198702 1_555
Co3 O3 2.239544 1_655
Co4 O9 2.073514 1_555
Co4 O8 2.073514 1_555
Co4 O30 2.182413 1_555
Co4 O31 2.182413 1_555
Co4 O4 2.231955 1_555
Co4 O5 2.231955 1_555
Co5 O10 2.073514 1_555
Co5 O11 2.073514 1_555
Co5 O29 2.182413 1_555
Co5 O28 2.182413 1_555
Co5 O7 2.231955 1_555
Co5 O6 2.231955 1_555
Co6 O13 2.084685 1_555
Co6 O0 2.100812 1_555
Co6 O29 2.133215 1_555
Co6 O10 2.154066 1_555
Co6 O22 2.165529 1_556
Co6 O17 2.300972 1_555
Co7 O12 2.084685 1_555
Co7 O1 2.100812 1_555
Co7 O28 2.133215 1_555
Co7 O11 2.154066 1_555
Co7 O23 2.165529 1_555
Co7 O16 2.300972 1_555
Co8 O15 2.084685 1_555
Co8 O2 2.100812 1_555
Co8 O31 2.133215 1_555
Co8 O8 2.154066 1_555
Co8 O20 2.165529 1_554
Co8 O19 2.300972 1_555
Co9 O14 2.084685 1_555
Co9 O3 2.100812 1_555
Co9 O30 2.133215 1_555
Co9 O9 2.154066 1_555
Co9 O21 2.165529 1_555
Co9 O18 2.300972 1_555
H0 O20 0.994449 1_555
H1 O21 0.994449 1_555
H2 O22 0.994449 1_555
H3 O23 0.994449 1_555
H4 O20 1.013634 1_554
H4 O35 1.623442 1_655
H5 O21 1.013634 1_555
H5 O34 1.623442 1_545
H6 O22 1.013634 1_556
H6 O33 1.623442 1_455
H7 O23 1.013634 1_555
H7 O32 1.623442 1_565
H8 O24 0.995821 1_455
H8 O7 1.739556 1_555
H9 O25 0.995821 1_565
H9 O6 1.739556 1_555
H10 O26 0.995821 1_655
H10 O5 1.739556 1_555
H11 O27 0.995821 1_545
H11 O4 1.739556 1_555
H12 O24 0.988364 1_545
H13 O25 0.988364 1_655
H14 O26 0.988364 1_565
H15 O27 0.988364 1_455
H16 O36 1.037126 1_555
H16 O7 1.500577 1_555
H17 O37 1.037126 1_556
H17 O6 1.500577 1_555
H18 O38 1.037126 1_555
H18 O5 1.500577 1_555
H19 O39 1.037126 1_554
H19 O4 1.500577 1_555
O0 P4 1.562274 1_556
O1 P5 1.562274 1_555
O2 P6 1.562274 1_554
O3 P7 1.562274 1_555
O4 P4 1.576857 1_555
O5 P5 1.576857 1_555
O6 P6 1.576857 1_555
O7 P7 1.576857 1_555
O8 P0 1.537187 1_555
O9 P1 1.537187 1_555
O10 P2 1.537187 1_555
O11 P3 1.537187 1_555
O12 P6 1.559086 1_555
O13 P7 1.559086 1_555
O14 P4 1.559086 1_555
O15 P5 1.559086 1_555
O16 P7 1.543056 1_655
O17 P6 1.543056 1_545
O18 P5 1.543056 1_455
O19 P4 1.543056 1_565
O28 P0 1.549108 1_555
O29 P1 1.549108 1_556
O30 P2 1.549108 1_555
O31 P3 1.549108 1_554
O32 P2 1.551205 1_555
O33 P3 1.551205 1_555
O34 P0 1.551205 1_555
O35 P1 1.551205 1_555
O36 P0 1.581082 1_555
O37 P1 1.581082 1_555
O38 P2 1.581082 1_555
O39 P3 1.581082 1_555
