# generated using pymatgen
data_Ti4Bi2O11
_symmetry_space_group_name_H-M   'P 1'
_cell_length_a   7.58566072
_cell_length_b   7.58566072
_cell_length_c   14.98301253
_cell_angle_alpha   86.92724789
_cell_angle_beta   86.92724789
_cell_angle_gamma   29.00710378
_symmetry_Int_Tables_number   1
_chemical_formula_structural   Ti4Bi2O11
_chemical_formula_sum   'Ti8 Bi4 O22'
_cell_volume   417.43379262
_cell_formula_units_Z   2
loop_
 _symmetry_equiv_pos_site_id
 _symmetry_equiv_pos_as_xyz
  1  'x, y, z'
loop_
 _atom_site_type_symbol
 _atom_site_label
 _atom_site_symmetry_multiplicity
 _atom_site_fract_x
 _atom_site_fract_y
 _atom_site_fract_z
 _atom_site_occupancy
  Ti  Ti0  1  0.40315980  0.89018698  0.48350990  1
  Ti  Ti1  1  0.19648118  0.69673937  0.64083506  1
  Ti  Ti2  1  0.69673937  0.19648118  0.14083506  1
  Ti  Ti3  1  0.59684020  0.10981302  0.51649010  1
  Ti  Ti4  1  0.80351882  0.30326063  0.35916494  1
  Ti  Ti5  1  0.10981302  0.59684020  0.01649010  1
  Ti  Ti6  1  0.89018698  0.40315980  0.98350990  1
  Ti  Ti7  1  0.30326063  0.80351882  0.85916494  1
  Bi  Bi0  1  0.36782903  0.98996947  0.17986464  1
  Bi  Bi1  1  0.01003053  0.63217097  0.32013536  1
  Bi  Bi2  1  0.98996947  0.36782903  0.67986464  1
  Bi  Bi3  1  0.63217097  0.01003053  0.82013536  1
  O  O0  1  0.53276000  0.00657730  0.41634544  1
  O  O1  1  0.46724000  0.99342270  0.58365456  1
  O  O2  1  0.66860122  0.17226242  0.62923564  1
  O  O3  1  0.10825621  0.61428419  0.53456420  1
  O  O4  1  0.80383776  0.30302188  0.07428156  1
  O  O5  1  0.44089771  0.92612436  0.77632630  1
  O  O6  1  0.22999802  0.77000198  0.75000000  1
  O  O7  1  0.07387564  0.55910229  0.72367370  1
  O  O8  1  0.38571581  0.89174379  0.96543580  1
  O  O9  1  0.30302188  0.80383776  0.57428156  1
  O  O10  1  0.33139878  0.82773758  0.37076436  1
  O  O11  1  0.92612436  0.44089771  0.27632630  1
  O  O12  1  0.82773758  0.33139878  0.87076436  1
  O  O13  1  0.00657730  0.53276000  0.91634544  1
  O  O14  1  0.55910229  0.07387564  0.22367370  1
  O  O15  1  0.19616224  0.69697812  0.92571844  1
  O  O16  1  0.69697812  0.19616224  0.42571844  1
  O  O17  1  0.99342270  0.46724000  0.08365456  1
  O  O18  1  0.77000198  0.22999802  0.25000000  1
  O  O19  1  0.17226242  0.66860122  0.12923564  1
  O  O20  1  0.61428419  0.10825621  0.03456420  1
  O  O21  1  0.89174379  0.38571581  0.46543580  1
loop_
_geom_bond_atom_site_label_1
_geom_bond_atom_site_label_2
_geom_bond_distance
_geom_bond_site_symmetry_2
Bi0 O14 2.168725 1_565
Bi0 O11 2.231582 1_465
Bi0 O17 2.268457 1_465
Bi0 O11 2.555374 1_555
Bi0 O17 2.699468 1_555
Bi1 O11 2.168725 1_455
Bi1 O14 2.231582 1_465
Bi1 O0 2.268457 1_465
Bi1 O14 2.555374 1_555
Bi1 O0 2.699468 1_555
Bi2 O7 2.168725 1_655
Bi2 O5 2.231582 1_645
Bi2 O1 2.268457 1_645
Bi2 O5 2.555374 1_555
Bi2 O1 2.699468 1_555
Bi3 O5 2.168725 1_545
Bi3 O7 2.231582 1_645
Bi3 O13 2.268457 1_645
Bi3 O7 2.555374 1_555
Bi3 O13 2.699468 1_555
O0 Ti3 1.992723 1_555
O0 Ti0 2.018805 1_545
O1 Ti0 1.992723 1_555
O1 Ti3 2.018805 1_565
O2 Ti1 1.941646 1_555
O2 Ti1 1.954256 1_645
O2 Ti3 2.002444 1_555
O3 Ti3 1.910381 1_555
O3 Ti3 1.936443 1_465
O3 Ti1 2.080284 1_555
O4 Ti2 1.811823 1_555
O4 Ti6 1.876106 1_554
O5 Ti7 2.220661 1_555
O6 Ti7 1.854164 1_555
O6 Ti1 1.854164 1_555
O7 Ti1 2.220661 1_555
O8 Ti6 1.910381 1_555
O8 Ti6 1.936443 1_465
O8 Ti7 2.080284 1_555
O9 Ti1 1.811823 1_555
O9 Ti0 1.876106 1_555
O10 Ti4 1.941646 1_555
O10 Ti4 1.954256 1_465
O10 Ti0 2.002444 1_555
O11 Ti4 2.220661 1_555
O12 Ti7 1.941646 1_555
O12 Ti7 1.954256 1_645
O12 Ti6 2.002444 1_555
O13 Ti5 1.992723 1_556
O13 Ti6 2.018805 1_455
O14 Ti2 2.220661 1_555
O15 Ti7 1.811823 1_555
O15 Ti5 1.876106 1_556
O16 Ti4 1.811823 1_555
O16 Ti3 1.876106 1_555
O17 Ti6 1.992723 1_554
O17 Ti5 2.018805 1_655
O18 Ti4 1.854164 1_555
O18 Ti2 1.854164 1_555
O19 Ti2 1.941646 1_555
O19 Ti2 1.954256 1_465
O19 Ti5 2.002444 1_555
O20 Ti5 1.910381 1_555
O20 Ti5 1.936443 1_645
O20 Ti2 2.080284 1_555
O21 Ti0 1.910381 1_555
O21 Ti0 1.936443 1_645
O21 Ti4 2.080284 1_555
