# generated using pymatgen
data_CeCrS2O
_symmetry_space_group_name_H-M   'P 1'
_cell_length_a   5.95918329
_cell_length_b   5.95918329
_cell_length_c   8.02688650
_cell_angle_alpha   89.79610506
_cell_angle_beta   89.79610506
_cell_angle_gamma   36.96267961
_symmetry_Int_Tables_number   1
_chemical_formula_structural   CeCrS2O
_chemical_formula_sum   'Ce2 Cr2 S4 O2'
_cell_volume   171.39767344
_cell_formula_units_Z   2
loop_
 _symmetry_equiv_pos_site_id
 _symmetry_equiv_pos_as_xyz
  1  'x, y, z'
loop_
 _atom_site_type_symbol
 _atom_site_label
 _atom_site_symmetry_multiplicity
 _atom_site_fract_x
 _atom_site_fract_y
 _atom_site_fract_z
 _atom_site_occupancy
  Ce  Ce0  1  0.73468200  0.73468200  0.29338700  1
  Ce  Ce1  1  0.26531800  0.26531800  0.70661300  1
  Cr  Cr0  1  0.00000000  0.00000000  0.50000000  1
  Cr  Cr1  1  0.50000000  0.50000000  0.00000000  1
  S  S0  1  0.45120400  0.45120400  0.29771100  1
  S  S1  1  0.85875900  0.85875900  0.96522300  1
  S  S2  1  0.14124100  0.14124100  0.03477700  1
  S  S3  1  0.54879600  0.54879600  0.70228900  1
  O  O0  1  0.17361200  0.17361200  0.43318000  1
  O  O1  1  0.82638800  0.82638800  0.56682000  1
loop_
_geom_bond_atom_site_label_1
_geom_bond_atom_site_label_2
_geom_bond_distance
_geom_bond_site_symmetry_2
Ce0 O0 2.301803 1_655
Ce0 O0 2.301803 1_565
Ce0 O1 2.430816 1_555
Ce0 S1 2.979603 1_554
Ce0 S2 3.001602 1_565
Ce0 S2 3.001602 1_655
Ce0 S0 3.092015 1_565
Ce0 S0 3.092015 1_655
Ce0 S0 3.204408 1_555
Ce1 O1 2.301803 1_545
Ce1 O1 2.301803 1_455
Ce1 O0 2.430816 1_555
Ce1 S2 2.979603 1_556
Ce1 S1 3.001602 1_545
Ce1 S1 3.001602 1_455
Ce1 S3 3.092015 1_455
Ce1 S3 3.092015 1_545
Ce1 S3 3.204408 1_555
Cr0 O0 2.032491 1_555
Cr0 O1 2.032491 1_445
Cr0 S3 2.552642 1_545
Cr0 S0 2.552642 1_545
Cr0 S3 2.552642 1_455
Cr0 S0 2.552642 1_455
Cr1 S3 2.450505 1_554
Cr1 S0 2.450505 1_555
Cr1 S2 2.489716 1_565
Cr1 S2 2.489716 1_655
Cr1 S1 2.489716 1_454
Cr1 S1 2.489716 1_544
