# generated using pymatgen
data_Sr3La21Zn2(Cu5O24)2
_symmetry_space_group_name_H-M   'P 1'
_cell_length_a   5.36805000
_cell_length_b   5.53392500
_cell_length_c   39.24638072
_cell_angle_alpha   89.80141967
_cell_angle_beta   90.00000000
_cell_angle_gamma   90.00000000
_symmetry_Int_Tables_number   1
_chemical_formula_structural   Sr3La21Zn2(Cu5O24)2
_chemical_formula_sum   'Sr3 La21 Zn2 Cu10 O48'
_cell_volume   1165.86113616
_cell_formula_units_Z   1
loop_
 _symmetry_equiv_pos_site_id
 _symmetry_equiv_pos_as_xyz
  1  'x, y, z'
loop_
 _atom_site_type_symbol
 _atom_site_label
 _atom_site_symmetry_multiplicity
 _atom_site_fract_x
 _atom_site_fract_y
 _atom_site_fract_z
 _atom_site_occupancy
  Sr  Sr0  1  0.00000000  0.50307700  0.54577700  1
  Sr  Sr1  1  0.00000000  0.50292000  0.21357100  1
  Sr  Sr2  1  0.50000000  0.50198200  0.04835600  1
  La  La0  1  0.00000000  0.51134900  0.88103000  1
  La  La1  1  0.00000000  0.01518700  0.95490400  1
  La  La2  1  0.50000000  0.51357000  0.71275800  1
  La  La3  1  0.50000000  0.01533500  0.78632200  1
  La  La4  1  0.50000000  0.98436800  0.88132800  1
  La  La5  1  0.50000000  0.48611700  0.95584400  1
  La  La6  1  0.00000000  0.01864900  0.61761600  1
  La  La7  1  0.00000000  0.98323700  0.71325600  1
  La  La8  1  0.00000000  0.48658800  0.78713300  1
  La  La9  1  0.50000000  0.51297500  0.37920100  1
  La  La10  1  0.50000000  0.01260100  0.45289300  1
  La  La11  1  0.50000000  0.97973700  0.54491500  1
  La  La12  1  0.50000000  0.49187000  0.61858400  1
  La  La13  1  0.00000000  0.01477100  0.28561700  1
  La  La14  1  0.00000000  0.98519000  0.37917500  1
  La  La15  1  0.00000000  0.48373900  0.45364000  1
  La  La16  1  0.50000000  0.01360800  0.11999600  1
  La  La17  1  0.50000000  0.98288600  0.21248200  1
  La  La18  1  0.50000000  0.48675100  0.28568400  1
  La  La19  1  0.00000000  0.98102600  0.04751100  1
  La  La20  1  0.00000000  0.48755100  0.12121300  1
  Zn  Zn0  1  0.00000000  0.99855600  0.83510700  1
  Zn  Zn1  1  0.50000000  0.00314600  0.66385900  1
  Cu  Cu0  1  0.50000000  0.50069200  0.83384100  1
  Cu  Cu1  1  0.00000000  0.99592800  0.50004100  1
  Cu  Cu2  1  0.00000000  0.49776200  0.66576100  1
  Cu  Cu3  1  0.50000000  0.49710500  0.49913500  1
  Cu  Cu4  1  0.00000000  0.49885700  0.33202500  1
  Cu  Cu5  1  0.50000000  0.99627800  0.00213900  1
  Cu  Cu6  1  0.50000000  0.49802200  0.16601100  1
  Cu  Cu7  1  0.50000000  0.99982200  0.33346900  1
  Cu  Cu8  1  0.00000000  0.49952400  0.00153800  1
  Cu  Cu9  1  0.00000000  0.99710400  0.16792200  1
  O  O0  1  0.24642500  0.75063200  0.99542900  1
  O  O1  1  0.00000000  0.94913100  0.89238500  1
  O  O2  1  0.00000000  0.44267500  0.93766800  1
  O  O3  1  0.74501300  0.74427400  0.82879500  1
  O  O4  1  0.74577400  0.25692700  0.83759400  1
  O  O5  1  0.75357500  0.75063200  0.99542900  1
  O  O6  1  0.50000000  0.94455500  0.72766400  1
  O  O7  1  0.50000000  0.43245800  0.77062700  1
  O  O8  1  0.50000000  0.56577700  0.89642500  1
  O  O9  1  0.50000000  0.05612900  0.93816700  1
  O  O10  1  0.24609800  0.74346600  0.66348300  1
  O  O11  1  0.24565600  0.25482400  0.67235700  1
  O  O12  1  0.25498700  0.74427400  0.82879500  1
  O  O13  1  0.25422600  0.25692700  0.83759400  1
  O  O14  1  0.00000000  0.96542400  0.56065800  1
  O  O15  1  0.00000000  0.43320200  0.60718500  1
  O  O16  1  0.00000000  0.56688300  0.73012400  1
  O  O17  1  0.00000000  0.05381400  0.77342500  1
  O  O18  1  0.74602300  0.75032000  0.49505500  1
  O  O19  1  0.74499000  0.24304700  0.50130200  1
  O  O20  1  0.75390200  0.74346600  0.66348300  1
  O  O21  1  0.75434400  0.25482400  0.67235700  1
  O  O22  1  0.50000000  0.94347500  0.39417100  1
  O  O23  1  0.50000000  0.44531200  0.43753500  1
  O  O24  1  0.50000000  0.56606500  0.56223200  1
  O  O25  1  0.50000000  0.05083400  0.60739600  1
  O  O26  1  0.25184600  0.75101400  0.32968900  1
  O  O27  1  0.25171800  0.24819200  0.33758300  1
  O  O28  1  0.25397700  0.75032000  0.49505500  1
  O  O29  1  0.25501000  0.24304700  0.50130200  1
  O  O30  1  0.00000000  0.96877000  0.22816100  1
  O  O31  1  0.00000000  0.44790900  0.27630900  1
  O  O32  1  0.00000000  0.55424900  0.39427600  1
  O  O33  1  0.00000000  0.05556300  0.43753200  1
  O  O34  1  0.74949500  0.75344000  0.16288000  1
  O  O35  1  0.74797700  0.24160300  0.16898000  1
  O  O36  1  0.74815400  0.75101400  0.32968900  1
  O  O37  1  0.74828200  0.24819200  0.33758300  1
  O  O38  1  0.50000000  0.97466500  0.06082000  1
  O  O39  1  0.50000000  0.45680900  0.11070300  1
  O  O40  1  0.50000000  0.55377300  0.22764600  1
  O  O41  1  0.50000000  0.05611100  0.27179000  1
  O  O42  1  0.24494600  0.24514800  0.00146700  1
  O  O43  1  0.25050500  0.75344000  0.16288000  1
  O  O44  1  0.25202300  0.24160300  0.16898000  1
  O  O45  1  0.00000000  0.56027400  0.06252600  1
  O  O46  1  0.00000000  0.05356900  0.10526500  1
  O  O47  1  0.75505400  0.24514800  0.00146700  1
loop_
_geom_bond_atom_site_label_1
_geom_bond_atom_site_label_2
_geom_bond_distance
_geom_bond_site_symmetry_2
La0 O2 2.253791 1_555
La0 O1 2.464818 1_555
La0 O4 2.601421 1_455
La0 O13 2.601421 1_555
La0 O8 2.767856 1_555
La0 O8 2.767856 1_455
La0 O12 2.778378 1_555
La0 O3 2.778378 1_455
La0 O1 3.141497 1_545
La1 O2 2.458244 1_555
La1 O1 2.481978 1_545
La1 O0 2.531137 1_545
La1 O5 2.531137 1_445
La1 O42 2.589210 1_556
La1 O47 2.589210 1_456
La1 O9 2.772321 1_455
La1 O9 2.772321 1_555
La1 O2 3.241940 1_545
La2 O7 2.313554 1_555
La2 O6 2.457705 1_555
La2 O21 2.538554 1_555
La2 O11 2.538554 1_555
La2 O10 2.683095 1_555
La2 O20 2.683095 1_555
La2 O16 2.785129 1_655
La2 O16 2.785129 1_555
La2 O6 3.200773 1_545
La3 O6 2.336536 1_545
La3 O7 2.387036 1_555
La3 O12 2.596385 1_545
La3 O3 2.596385 1_545
La3 O17 2.739486 1_655
La3 O17 2.739486 1_555
La3 O13 2.756052 1_555
La3 O4 2.756052 1_555
La4 O9 2.267152 1_565
La4 O8 2.389036 1_555
La4 O13 2.635099 1_565
La4 O4 2.635099 1_565
La4 O1 2.725755 1_655
La4 O1 2.725755 1_555
La4 O12 2.786561 1_555
La4 O3 2.786561 1_555
La4 O8 3.273593 1_565
La5 O8 2.371780 1_555
La5 O9 2.480900 1_555
La5 O0 2.534747 1_555
La5 O5 2.534747 1_555
La5 O47 2.615771 1_556
La5 O42 2.615771 1_556
La5 O2 2.787800 1_555
La5 O2 2.787800 1_655
La6 O14 2.255729 1_545
La6 O15 2.328948 1_555
La6 O20 2.699198 1_445
La6 O10 2.699198 1_545
La6 O25 2.719577 1_555
La6 O25 2.719577 1_455
La6 O21 2.842914 1_455
La6 O11 2.842914 1_555
La6 O15 3.266989 1_545
La7 O17 2.394832 1_565
La7 O16 2.395084 1_555
La7 O21 2.560768 1_465
La7 O11 2.560768 1_565
La7 O10 2.709168 1_555
La7 O20 2.709168 1_455
La7 O6 2.751131 1_455
La7 O6 2.751131 1_555
La8 O16 2.279583 1_555
La8 O17 2.456440 1_555
La8 O12 2.568413 1_555
La8 O3 2.568413 1_455
La8 O4 2.717027 1_455
La8 O13 2.717027 1_555
La8 O7 2.777537 1_455
La8 O7 2.777537 1_555
La8 O17 3.182917 1_565
La9 O23 2.318536 1_555
La9 O22 2.455706 1_555
La9 O37 2.570573 1_555
La9 O27 2.570573 1_555
La9 O26 2.695905 1_555
La9 O36 2.695905 1_555
La9 O32 2.758103 1_655
La9 O32 2.758103 1_555
La9 O22 3.203863 1_545
La10 O22 2.337466 1_545
La10 O23 2.467258 1_555
La10 O28 2.563639 1_545
La10 O18 2.563639 1_545
La10 O19 2.642382 1_555
La10 O29 2.642382 1_555
La10 O33 2.760972 1_555
La10 O33 2.760972 1_655
La10 O23 3.198725 1_545
La11 O24 2.385725 1_555
La11 O25 2.484863 1_565
La11 O19 2.601010 1_565
La11 O29 2.601010 1_565
La11 O28 2.683721 1_555
La11 O18 2.683721 1_555
La11 O14 2.755299 1_555
La11 O14 2.755299 1_655
La12 O24 2.248003 1_555
La12 O25 2.481340 1_555
La12 O20 2.630262 1_555
La12 O10 2.630262 1_555
La12 O15 2.740537 1_655
La12 O15 2.740537 1_555
La12 O21 2.831875 1_555
La12 O11 2.831875 1_555
La12 O25 3.122767 1_565
La13 O30 2.270140 1_545
La13 O31 2.423378 1_555
La13 O26 2.632946 1_545
La13 O36 2.632946 1_445
La13 O41 2.747717 1_555
La13 O41 2.747717 1_455
La13 O37 2.769863 1_455
La13 O27 2.769863 1_555
La13 O31 3.159428 1_545
La14 O33 2.324505 1_565
La14 O32 2.455340 1_555
La14 O27 2.567523 1_565
La14 O37 2.567523 1_465
La14 O36 2.701196 1_455
La14 O26 2.701196 1_555
La14 O22 2.757302 1_555
La14 O22 2.757302 1_455
La14 O32 3.206431 1_565
La15 O32 2.360937 1_555
La15 O33 2.454493 1_555
La15 O28 2.587198 1_555
La15 O18 2.587198 1_455
La15 O19 2.670165 1_455
La15 O29 2.670165 1_555
La15 O23 2.765799 1_455
La15 O23 2.765799 1_555
La15 O33 3.224812 1_565
La16 O38 2.333165 1_545
La16 O39 2.478360 1_555
La16 O43 2.585042 1_545
La16 O34 2.585042 1_545
La16 O44 2.660165 1_555
La16 O35 2.660165 1_555
La16 O46 2.754315 1_555
La16 O46 2.754315 1_655
La16 O39 3.104049 1_545
La17 O41 2.364017 1_565
La17 O40 2.446117 1_555
La17 O35 2.592240 1_565
La17 O44 2.592240 1_565
La17 O43 2.685653 1_555
La17 O34 2.685653 1_555
La17 O30 2.754706 1_555
La17 O30 2.754706 1_655
La17 O40 3.216838 1_565
La18 O40 2.306511 1_555
La18 O41 2.446560 1_555
La18 O26 2.629317 1_555
La18 O36 2.629317 1_555
La18 O31 2.717741 1_555
La18 O31 2.717741 1_655
La18 O27 2.765734 1_555
La18 O37 2.765734 1_555
La18 O41 3.195770 1_565
La19 O46 2.303281 1_565
La19 O45 2.399841 1_555
La19 O42 2.666916 1_565
La19 O47 2.666916 1_465
La19 O38 2.734581 1_455
La19 O38 2.734581 1_555
La19 O5 2.751647 1_454
La19 O0 2.751647 1_554
La19 O45 3.261238 1_565
La20 O45 2.336773 1_555
La20 O46 2.483942 1_555
La20 O34 2.581500 1_455
La20 O43 2.581500 1_555
La20 O35 2.679456 1_455
La20 O44 2.679456 1_555
La20 O39 2.720948 1_455
La20 O39 2.720948 1_555
La20 O46 3.192095 1_565
Cu0 O13 1.892269 1_555
Cu0 O4 1.892269 1_555
Cu0 O12 1.893208 1_555
Cu0 O3 1.893208 1_555
Cu0 O8 2.483698 1_555
Cu0 O7 2.510786 1_555
Cu1 O18 1.935523 1_455
Cu1 O28 1.935523 1_555
Cu1 O19 1.935713 1_465
Cu1 O29 1.935713 1_565
Cu1 O14 2.384396 1_555
Cu1 O33 2.474216 1_565
Cu2 O20 1.897675 1_455
Cu2 O10 1.897675 1_555
Cu2 O21 1.900254 1_455
Cu2 O11 1.900254 1_555
Cu2 O15 2.327715 1_555
Cu2 O16 2.556123 1_555
Cu3 O29 1.926811 1_555
Cu3 O19 1.926811 1_555
Cu3 O18 1.931788 1_555
Cu3 O28 1.931788 1_555
Cu3 O23 2.435494 1_555
Cu3 O24 2.506868 1_555
Cu4 O36 1.944840 1_455
Cu4 O26 1.944840 1_555
Cu4 O27 1.948214 1_555
Cu4 O37 1.948214 1_455
Cu4 O31 2.205722 1_555
Cu4 O32 2.463336 1_555
Cu5 O47 1.942100 1_565
Cu5 O42 1.942100 1_565
Cu5 O5 1.942328 1_554
Cu5 O0 1.942328 1_554
Cu5 O38 2.305707 1_555
Cu5 O9 2.531284 1_564
Cu6 O35 1.948838 1_555
Cu6 O44 1.948838 1_555
Cu6 O43 1.950770 1_555
Cu6 O34 1.950770 1_555
Cu6 O39 2.183374 1_555
Cu6 O40 2.439607 1_555
Cu7 O27 1.921739 1_565
Cu7 O37 1.921739 1_565
Cu7 O26 1.921909 1_555
Cu7 O36 1.921909 1_555
Cu7 O22 2.401582 1_555
Cu7 O41 2.439566 1_565
Cu8 O42 1.926282 1_555
Cu8 O47 1.926282 1_455
Cu8 O5 1.932888 1_454
Cu8 O0 1.932888 1_554
Cu8 O45 2.418206 1_555
Cu8 O2 2.527413 1_554
Cu9 O44 1.913920 1_565
Cu9 O35 1.913920 1_465
Cu9 O34 1.915077 1_455
Cu9 O43 1.915077 1_555
Cu9 O30 2.368814 1_555
Cu9 O46 2.477759 1_565
O0 Sr2 2.835701 1_556
O1 Zn0 2.263591 1_555
O3 Zn0 1.979267 1_655
O4 Zn0 1.979202 1_645
O5 Sr2 2.835701 1_556
O6 Zn1 2.523905 1_565
O10 Zn1 1.980690 1_565
O11 Zn1 1.979490 1_555
O12 Zn0 1.979267 1_555
O13 Zn0 1.979202 1_545
O14 Sr0 2.626375 1_555
O14 Sr0 3.030122 1_565
O15 Sr0 2.439542 1_555
O17 Zn0 2.438981 1_545
O18 Sr0 2.770310 1_655
O19 Sr0 2.647396 1_655
O20 Zn1 1.980690 1_565
O21 Zn1 1.979490 1_555
O24 Sr0 2.782824 1_655
O24 Sr0 2.782824 1_555
O25 Zn1 2.230719 1_555
O28 Sr0 2.770310 1_555
O29 Sr0 2.647396 1_555
O30 Sr1 2.642742 1_555
O30 Sr1 3.008947 1_565
O31 Sr1 2.479940 1_555
O34 Sr1 2.769299 1_655
O35 Sr1 2.646065 1_655
O38 Sr2 2.662804 1_555
O38 Sr2 2.957176 1_565
O39 Sr2 2.458769 1_555
O40 Sr1 2.754887 1_555
O40 Sr1 2.754887 1_655
O42 Sr2 2.701703 1_555
O43 Sr1 2.769299 1_555
O44 Sr1 2.646065 1_555
O45 Sr2 2.760175 1_455
O45 Sr2 2.760175 1_555
O47 Sr2 2.701703 1_555
