# generated using pymatgen
data_CsU2O6
_symmetry_space_group_name_H-M   'P 1'
_cell_length_a   11.04877353
_cell_length_b   11.04877353
_cell_length_c   11.04877375
_cell_angle_alpha   89.36702723
_cell_angle_beta   89.36702723
_cell_angle_gamma   89.36703186
_symmetry_Int_Tables_number   1
_chemical_formula_structural   CsU2O6
_chemical_formula_sum   'Cs8 U16 O48'
_cell_volume   1348.53832325
_cell_formula_units_Z   8
loop_
 _symmetry_equiv_pos_site_id
 _symmetry_equiv_pos_as_xyz
  1  'x, y, z'
loop_
 _atom_site_type_symbol
 _atom_site_label
 _atom_site_symmetry_multiplicity
 _atom_site_fract_x
 _atom_site_fract_y
 _atom_site_fract_z
 _atom_site_occupancy
  Cs  Cs0  1  0.62642300  0.12508700  0.61336600  1
  Cs  Cs1  1  0.14529800  0.14529800  0.14529800  1
  Cs  Cs2  1  0.37357700  0.87491300  0.38663400  1
  Cs  Cs3  1  0.61336600  0.62642300  0.12508700  1
  Cs  Cs4  1  0.85470200  0.85470200  0.85470200  1
  Cs  Cs5  1  0.38663400  0.37357700  0.87491300  1
  Cs  Cs6  1  0.12508700  0.61336600  0.62642300  1
  Cs  Cs7  1  0.87491300  0.38663400  0.37357700  1
  U  U0  1  0.99721900  0.21537500  0.74580800  1
  U  U1  1  0.74101500  0.76194200  0.49355400  1
  U  U2  1  0.21537500  0.74580800  0.99721900  1
  U  U3  1  0.23805800  0.50644600  0.25898500  1
  U  U4  1  0.49355400  0.74101500  0.76194200  1
  U  U5  1  0.78462500  0.25419200  0.00278100  1
  U  U6  1  0.50000000  0.00000000  0.00000000  1
  U  U7  1  0.25898500  0.23805800  0.50644600  1
  U  U8  1  0.76194200  0.49355400  0.74101500  1
  U  U9  1  0.74580800  0.99721900  0.21537500  1
  U  U10  1  0.25419200  0.00278100  0.78462500  1
  U  U11  1  0.00000000  0.00000000  0.50000000  1
  U  U12  1  0.50644600  0.25898500  0.23805800  1
  U  U13  1  0.00278100  0.78462500  0.25419200  1
  U  U14  1  0.00000000  0.50000000  0.00000000  1
  U  U15  1  0.50000000  0.50000000  0.50000000  1
  O  O0  1  0.57033000  0.85362300  0.89190700  1
  O  O1  1  0.56000800  0.91822300  0.14969900  1
  O  O2  1  0.83184400  0.86611300  0.13529600  1
  O  O3  1  0.32318400  0.11525900  0.62448100  1
  O  O4  1  0.70097600  0.34095300  0.87108800  1
  O  O5  1  0.63332000  0.60375500  0.81481500  1
  O  O6  1  0.65904700  0.12891200  0.29902400  1
  O  O7  1  0.86470400  0.16815600  0.13388700  1
  O  O8  1  0.08202300  0.02007000  0.67795400  1
  O  O9  1  0.10809300  0.42967000  0.14637700  1
  O  O10  1  0.67795400  0.08202300  0.02007000  1
  O  O11  1  0.86611300  0.13529600  0.83184400  1
  O  O12  1  0.60375500  0.81481500  0.63332000  1
  O  O13  1  0.57122500  0.38383200  0.36412300  1
  O  O14  1  0.91822300  0.14969900  0.56000800  1
  O  O15  1  0.39624500  0.18518500  0.36668000  1
  O  O16  1  0.13529600  0.83184400  0.86611300  1
  O  O17  1  0.67681600  0.88474100  0.37551900  1
  O  O18  1  0.85362300  0.89190700  0.57033000  1
  O  O19  1  0.38383200  0.36412300  0.57122500  1
  O  O20  1  0.34095300  0.87108800  0.70097600  1
  O  O21  1  0.43999200  0.08177700  0.85030100  1
  O  O22  1  0.14637700  0.10809300  0.42967000  1
  O  O23  1  0.61616800  0.63587700  0.42877500  1
  O  O24  1  0.42877500  0.61616800  0.63587700  1
  O  O25  1  0.87108800  0.70097600  0.34095300  1
  O  O26  1  0.16815600  0.13388700  0.86470400  1
  O  O27  1  0.36668000  0.39624500  0.18518500  1
  O  O28  1  0.32204600  0.91797700  0.97993000  1
  O  O29  1  0.02007000  0.67795400  0.08202300  1
  O  O30  1  0.13388700  0.86470400  0.16815600  1
  O  O31  1  0.36412300  0.57122500  0.38383200  1
  O  O32  1  0.29902400  0.65904700  0.12891200  1
  O  O33  1  0.88474100  0.37551900  0.67681600  1
  O  O34  1  0.62448100  0.32318400  0.11525900  1
  O  O35  1  0.91797700  0.97993000  0.32204600  1
  O  O36  1  0.08177700  0.85030100  0.43999200  1
  O  O37  1  0.14969900  0.56000800  0.91822300  1
  O  O38  1  0.85030100  0.43999200  0.08177700  1
  O  O39  1  0.11525900  0.62448100  0.32318400  1
  O  O40  1  0.81481500  0.63332000  0.60375500  1
  O  O41  1  0.12891200  0.29902400  0.65904700  1
  O  O42  1  0.42967000  0.14637700  0.10809300  1
  O  O43  1  0.97993000  0.32204600  0.91797700  1
  O  O44  1  0.63587700  0.42877500  0.61616800  1
  O  O45  1  0.18518500  0.36668000  0.39624500  1
  O  O46  1  0.37551900  0.67681600  0.88474100  1
  O  O47  1  0.89190700  0.57033000  0.85362300  1
loop_
_geom_bond_atom_site_label_1
_geom_bond_atom_site_label_2
_geom_bond_distance
_geom_bond_site_symmetry_2
Cs0 O14 3.284771 1_555
Cs0 O21 3.346633 1_555
Cs0 O3 3.354226 1_555
Cs0 O44 3.358654 1_555
Cs0 O12 3.444478 1_545
Cs0 O6 3.487625 1_555
Cs0 O11 3.606515 1_555
Cs0 O18 3.608740 1_545
Cs1 O30 3.111539 1_545
Cs1 O7 3.111539 1_455
Cs1 O26 3.111539 1_554
Cs1 O42 3.164368 1_555
Cs1 O9 3.164368 1_555
Cs1 O22 3.164368 1_555
Cs2 O36 3.284771 1_555
Cs2 O1 3.346633 1_555
Cs2 O17 3.354226 1_555
Cs2 O31 3.358654 1_555
Cs2 O15 3.444478 1_565
Cs2 O20 3.487625 1_555
Cs2 O30 3.606515 1_555
Cs2 O22 3.608740 1_565
Cs3 O1 3.284771 1_555
Cs3 O38 3.346633 1_555
Cs3 O34 3.354226 1_555
Cs3 O23 3.358654 1_555
Cs3 O5 3.444478 1_554
Cs3 O32 3.487625 1_555
Cs3 O2 3.606515 1_555
Cs3 O0 3.608740 1_554
Cs4 O11 3.111539 1_565
Cs4 O16 3.111539 1_655
Cs4 O2 3.111539 1_556
Cs4 O0 3.164368 1_555
Cs4 O47 3.164368 1_555
Cs4 O18 3.164368 1_555
Cs5 O21 3.284771 1_555
Cs5 O37 3.346633 1_555
Cs5 O46 3.354226 1_555
Cs5 O19 3.358654 1_555
Cs5 O27 3.444478 1_556
Cs5 O4 3.487625 1_555
Cs5 O26 3.606515 1_555
Cs5 O42 3.608740 1_556
Cs6 O37 3.284771 1_555
Cs6 O36 3.346633 1_555
Cs6 O39 3.354226 1_555
Cs6 O24 3.358654 1_555
Cs6 O40 3.444478 1_455
Cs6 O41 3.487625 1_555
Cs6 O16 3.606515 1_555
Cs6 O47 3.608740 1_455
Cs7 O38 3.284771 1_555
Cs7 O14 3.346633 1_555
Cs7 O33 3.354226 1_555
Cs7 O13 3.358654 1_555
Cs7 O45 3.444478 1_655
Cs7 O25 3.487625 1_555
Cs7 O7 3.606515 1_555
Cs7 O9 3.608740 1_655
O0 U4 2.102197 1_555
O0 U6 2.154108 1_566
O1 U6 1.992392 1_565
O1 U9 2.364124 1_555
O2 U9 1.940126 1_555
O2 U13 2.468683 1_655
O3 U7 2.001212 1_555
O3 U10 2.280084 1_555
O4 U5 1.967125 1_556
O4 U8 2.304793 1_555
O5 U8 2.031025 1_555
O5 U4 2.230360 1_555
O6 U9 1.967125 1_545
O6 U12 2.304794 1_555
O7 U5 1.940126 1_555
O7 U9 2.468683 1_545
O8 U11 2.188549 1_555
O8 U10 2.254032 1_555
O8 U0 2.464140 1_455
O9 U3 2.102197 1_555
O9 U14 2.154108 1_555
O10 U6 2.188549 1_555
O10 U5 2.254032 1_555
O10 U9 2.464140 1_545
O11 U0 1.940126 1_555
O11 U5 2.468683 1_556
O12 U4 2.031025 1_555
O12 U1 2.230360 1_555
O13 U12 2.107460 1_555
O13 U15 2.124777 1_555
O14 U11 1.992392 1_655
O14 U0 2.364125 1_555
O15 U12 2.031025 1_555
O15 U7 2.230360 1_555
O16 U2 1.940126 1_555
O16 U10 2.468683 1_565
O17 U1 2.001212 1_555
O17 U9 2.280084 1_555
O18 U1 2.102197 1_555
O18 U11 2.154108 1_665
O19 U7 2.107460 1_555
O19 U15 2.124776 1_555
O20 U10 1.967125 1_565
O20 U4 2.304794 1_555
O21 U6 1.992392 1_556
O21 U10 2.364124 1_555
O22 U7 2.102197 1_555
O22 U11 2.154108 1_555
O23 U1 2.107460 1_555
O23 U15 2.124776 1_555
O24 U4 2.107460 1_555
O24 U15 2.124777 1_555
O25 U13 1.967124 1_655
O25 U1 2.304794 1_555
O26 U10 1.940126 1_555
O26 U0 2.468683 1_455
O27 U3 2.031025 1_555
O27 U12 2.230360 1_555
O28 U6 2.188549 1_566
O28 U2 2.254032 1_555
O28 U10 2.464140 1_565
O29 U14 2.188549 1_555
O29 U13 2.254032 1_555
O29 U2 2.464140 1_554
O30 U13 1.940126 1_555
O30 U2 2.468683 1_554
O31 U3 2.107460 1_555
O31 U15 2.124777 1_555
O32 U2 1.967125 1_554
O32 U3 2.304793 1_555
O33 U8 2.001212 1_555
O33 U0 2.280084 1_555
O34 U12 2.001212 1_555
O34 U5 2.280084 1_555
O35 U11 2.188549 1_665
O35 U9 2.254032 1_555
O35 U13 2.464140 1_655
O36 U11 1.992392 1_565
O36 U13 2.364125 1_555
O37 U14 1.992391 1_556
O37 U2 2.364124 1_555
O38 U14 1.992391 1_655
O38 U5 2.364124 1_555
O39 U3 2.001212 1_555
O39 U13 2.280084 1_555
O40 U1 2.031025 1_555
O40 U8 2.230360 1_555
O41 U0 1.967124 1_455
O41 U7 2.304794 1_555
O42 U12 2.102197 1_555
O42 U6 2.154108 1_555
O43 U14 2.188549 1_656
O43 U0 2.254032 1_555
O43 U5 2.464140 1_556
O44 U8 2.107460 1_555
O44 U15 2.124777 1_555
O45 U7 2.031025 1_555
O45 U3 2.230360 1_555
O46 U4 2.001212 1_555
O46 U2 2.280084 1_555
O47 U8 2.102197 1_555
O47 U14 2.154108 1_656
