# generated using pymatgen
data_LiCrPO4
_symmetry_space_group_name_H-M   'P 1'
_cell_length_a   5.06591278
_cell_length_b   5.06591278
_cell_length_c   16.79451230
_cell_angle_alpha   88.88760371
_cell_angle_beta   88.88760371
_cell_angle_gamma   88.58451656
_symmetry_Int_Tables_number   1
_chemical_formula_structural   LiCrPO4
_chemical_formula_sum   'Li4 Cr4 P4 O16'
_cell_volume   430.71547252
_cell_formula_units_Z   4
loop_
 _symmetry_equiv_pos_site_id
 _symmetry_equiv_pos_as_xyz
  1  'x, y, z'
loop_
 _atom_site_type_symbol
 _atom_site_label
 _atom_site_symmetry_multiplicity
 _atom_site_fract_x
 _atom_site_fract_y
 _atom_site_fract_z
 _atom_site_occupancy
  Li  Li0  1  0.44659700  0.84086300  0.44113300  1
  Li  Li1  1  0.84086300  0.44659700  0.94113300  1
  Li  Li2  1  0.15913700  0.55340300  0.05886700  1
  Li  Li3  1  0.55340300  0.15913700  0.55886700  1
  Cr  Cr0  1  0.65987900  0.83670900  0.25146100  1
  Cr  Cr1  1  0.83670900  0.65987900  0.75146100  1
  Cr  Cr2  1  0.16329100  0.34012100  0.24853900  1
  Cr  Cr3  1  0.34012100  0.16329100  0.74853900  1
  P  P0  1  0.68597800  0.35309500  0.13444100  1
  P  P1  1  0.35309500  0.68597800  0.63444100  1
  P  P2  1  0.64690500  0.31402200  0.36555900  1
  P  P3  1  0.31402200  0.64690500  0.86555900  1
  O  O0  1  0.84274300  0.52185800  0.19694300  1
  O  O1  1  0.52185800  0.84274300  0.69694300  1
  O  O2  1  0.94064600  0.25587500  0.34565500  1
  O  O3  1  0.78848800  0.42854000  0.05175500  1
  O  O4  1  0.56843900  0.61360200  0.35319900  1
  O  O5  1  0.25587500  0.94064600  0.84565500  1
  O  O6  1  0.42854000  0.78848800  0.55175500  1
  O  O7  1  0.61360200  0.56843900  0.85319900  1
  O  O8  1  0.38639800  0.43156100  0.14680100  1
  O  O9  1  0.57146000  0.21151200  0.44824500  1
  O  O10  1  0.74412500  0.05935400  0.15434500  1
  O  O11  1  0.43156100  0.38639800  0.64680100  1
  O  O12  1  0.21151200  0.57146000  0.94824500  1
  O  O13  1  0.05935400  0.74412500  0.65434500  1
  O  O14  1  0.47814200  0.15725700  0.30305700  1
  O  O15  1  0.15725700  0.47814200  0.80305700  1
loop_
_geom_bond_atom_site_label_1
_geom_bond_atom_site_label_2
_geom_bond_distance
_geom_bond_site_symmetry_2
Li0 O6 1.872380 1_555
Li0 O4 1.970513 1_555
Li0 O9 2.002590 1_565
Li1 O3 1.872380 1_556
Li1 O7 1.970513 1_555
Li1 O12 2.002590 1_655
Li2 O12 1.872380 1_554
Li2 O8 1.970513 1_555
Li2 O3 2.002590 1_455
Li3 O9 1.872380 1_555
Li3 O11 1.970513 1_555
Li3 O6 2.002590 1_545
Cr0 O10 2.009936 1_565
Cr0 O14 2.045786 1_565
Cr0 O0 2.047271 1_555
Cr0 O4 2.081256 1_555
Cr1 O13 2.009936 1_655
Cr1 O15 2.045786 1_655
Cr1 O1 2.047271 1_555
Cr1 O7 2.081256 1_555
Cr2 O2 2.009936 1_455
Cr2 O0 2.045786 1_455
Cr2 O14 2.047271 1_555
Cr2 O8 2.081256 1_555
Cr3 O5 2.009936 1_545
Cr3 O1 2.045786 1_545
Cr3 O15 2.047271 1_555
Cr3 O11 2.081256 1_555
O0 P0 1.601316 1_555
O1 P1 1.601316 1_555
O2 P2 1.541333 1_555
O3 P0 1.518341 1_555
O4 P2 1.570196 1_555
O5 P3 1.541333 1_555
O6 P1 1.518341 1_555
O7 P3 1.570196 1_555
O8 P0 1.570196 1_555
O9 P2 1.518341 1_555
O10 P0 1.541333 1_555
O11 P1 1.570196 1_555
O12 P3 1.518341 1_555
O13 P1 1.541333 1_555
O14 P2 1.601316 1_555
O15 P3 1.601316 1_555
