# generated using pymatgen
data_BaYMn2O6
_symmetry_space_group_name_H-M   'P 1'
_cell_length_a   5.56680952
_cell_length_b   5.56680952
_cell_length_c   7.85606111
_cell_angle_alpha   89.62810576
_cell_angle_beta   89.62810576
_cell_angle_gamma   88.96596794
_symmetry_Int_Tables_number   1
_chemical_formula_structural   BaYMn2O6
_chemical_formula_sum   'Ba2 Y2 Mn4 O12'
_cell_volume   243.40465103
_cell_formula_units_Z   2
loop_
 _symmetry_equiv_pos_site_id
 _symmetry_equiv_pos_as_xyz
  1  'x, y, z'
loop_
 _atom_site_type_symbol
 _atom_site_label
 _atom_site_symmetry_multiplicity
 _atom_site_fract_x
 _atom_site_fract_y
 _atom_site_fract_z
 _atom_site_occupancy
  Ba  Ba0  1  0.24725400  0.24725400  0.00596300  1
  Ba  Ba1  1  0.75274600  0.75274600  0.99403700  1
  Y  Y0  1  0.76879500  0.76879500  0.49285500  1
  Y  Y1  1  0.23120500  0.23120500  0.50714500  1
  Mn  Mn0  1  0.74704100  0.25066800  0.74161100  1
  Mn  Mn1  1  0.74933200  0.25295900  0.25838900  1
  Mn  Mn2  1  0.25295900  0.74933200  0.25838900  1
  Mn  Mn3  1  0.25066800  0.74704100  0.74161100  1
  O  O0  1  0.03221100  0.03221100  0.75700200  1
  O  O1  1  0.96778900  0.96778900  0.24299800  1
  O  O2  1  0.80637400  0.19362600  0.50000000  1
  O  O3  1  0.73141200  0.26858800  0.00000000  1
  O  O4  1  0.53397800  0.53397800  0.30632300  1
  O  O5  1  0.96691900  0.52873100  0.71430500  1
  O  O6  1  0.19362600  0.80637400  0.50000000  1
  O  O7  1  0.26858800  0.73141200  0.00000000  1
  O  O8  1  0.03308100  0.47126900  0.28569500  1
  O  O9  1  0.52873100  0.96691900  0.71430500  1
  O  O10  1  0.46602200  0.46602200  0.69367700  1
  O  O11  1  0.47126900  0.03308100  0.28569500  1
loop_
_geom_bond_atom_site_label_1
_geom_bond_atom_site_label_2
_geom_bond_distance
_geom_bond_site_symmetry_2
Ba0 O0 2.608445 1_554
Ba0 O3 2.700060 1_555
Ba0 O7 2.700060 1_555
Ba0 O8 2.784587 1_555
Ba0 O11 2.784587 1_555
Ba0 O3 2.872580 1_455
Ba0 O7 2.872580 1_545
Ba0 O1 2.884505 1_445
Ba0 O10 2.993508 1_554
Ba0 O5 3.170518 1_454
Ba0 O9 3.170518 1_544
Ba0 O4 3.294386 1_555
Ba1 O1 2.608445 1_556
Ba1 O3 2.700060 1_556
Ba1 O7 2.700060 1_556
Ba1 O9 2.784587 1_555
Ba1 O5 2.784587 1_555
Ba1 O7 2.872580 1_656
Ba1 O3 2.872580 1_566
Ba1 O0 2.884505 1_665
Ba1 O4 2.993508 1_556
Ba1 O8 3.170518 1_656
Ba1 O11 3.170518 1_566
Ba1 O10 3.294386 1_555
Mn0 O2 1.951577 1_555
Mn0 O0 1.986091 1_655
Mn0 O10 1.990073 1_555
Mn0 O5 2.000243 1_555
Mn0 O9 2.023630 1_545
Mn0 O3 2.034237 1_556
Mn1 O2 1.951577 1_555
Mn1 O1 1.986091 1_545
Mn1 O4 1.990073 1_555
Mn1 O11 2.000243 1_555
Mn1 O8 2.023630 1_655
Mn1 O3 2.034237 1_555
Mn2 O6 1.951577 1_555
Mn2 O1 1.986091 1_455
Mn2 O4 1.990073 1_555
Mn2 O8 2.000243 1_555
Mn2 O11 2.023630 1_565
Mn2 O7 2.034237 1_555
Mn3 O6 1.951577 1_555
Mn3 O0 1.986091 1_565
Mn3 O10 1.990073 1_555
Mn3 O9 2.000243 1_555
Mn3 O5 2.023630 1_455
Mn3 O7 2.034237 1_556
O0 Y1 2.508994 1_555
O1 Y0 2.508994 1_555
O2 Y0 2.379002 1_545
O2 Y1 2.379002 1_655
O4 Y0 2.382492 1_555
O4 Y1 2.864301 1_555
O5 Y0 2.443469 1_555
O5 Y1 2.733558 1_655
O6 Y0 2.379002 1_455
O6 Y1 2.379002 1_565
O8 Y1 2.443469 1_555
O8 Y0 2.733558 1_455
O9 Y0 2.443469 1_555
O9 Y1 2.733558 1_565
O10 Y1 2.382492 1_555
O10 Y0 2.864301 1_555
O11 Y1 2.443469 1_555
O11 Y0 2.733558 1_545
