# generated using pymatgen
data_SbP(OF3)2
_symmetry_space_group_name_H-M   'P 1'
_cell_length_a   5.70032500
_cell_length_b   7.55809066
_cell_length_c   7.61625666
_cell_angle_alpha   88.35251523
_cell_angle_beta   76.15580268
_cell_angle_gamma   83.42640666
_symmetry_Int_Tables_number   1
_chemical_formula_structural   SbP(OF3)2
_chemical_formula_sum   'Sb2 P2 O4 F12'
_cell_volume   316.50828185
_cell_formula_units_Z   2
loop_
 _symmetry_equiv_pos_site_id
 _symmetry_equiv_pos_as_xyz
  1  'x, y, z'
loop_
 _atom_site_type_symbol
 _atom_site_label
 _atom_site_symmetry_multiplicity
 _atom_site_fract_x
 _atom_site_fract_y
 _atom_site_fract_z
 _atom_site_occupancy
  Sb  Sb0  1  0.58248900  0.23059300  0.75587700  1
  Sb  Sb1  1  0.41751100  0.76940700  0.24412300  1
  P  P0  1  0.22994100  0.19214500  0.16737300  1
  P  P1  1  0.77005900  0.80785500  0.83262700  1
  O  O0  1  0.56473900  0.73644200  0.97130800  1
  O  O1  1  0.78269100  0.00700200  0.82512800  1
  O  O2  1  0.43526100  0.26355800  0.02869200  1
  O  O3  1  0.21730900  0.99299800  0.17487200  1
  F  F0  1  0.39066400  0.43934400  0.70947300  1
  F  F1  1  0.24198200  0.26301300  0.35162400  1
  F  F2  1  0.01637200  0.72202700  0.85910900  1
  F  F3  1  0.73643700  0.18340100  0.51000700  1
  F  F4  1  0.26356300  0.81659900  0.48999300  1
  F  F5  1  0.60933600  0.56065600  0.29052700  1
  F  F6  1  0.83309600  0.35796500  0.79370200  1
  F  F7  1  0.16690400  0.64203500  0.20629800  1
  F  F8  1  0.33429800  0.08199000  0.75449500  1
  F  F9  1  0.66570200  0.91801000  0.24550500  1
  F  F10  1  0.75801800  0.73698700  0.64837600  1
  F  F11  1  0.98362800  0.27797300  0.14089100  1
loop_
_geom_bond_atom_site_label_1
_geom_bond_atom_site_label_2
_geom_bond_distance
_geom_bond_site_symmetry_2
O0 P1 1.515591 1_555
O0 Sb1 2.056976 1_556
O1 P1 1.513899 1_545
O1 Sb0 2.057094 1_555
O2 P0 1.515591 1_555
O2 Sb0 2.056976 1_554
O3 P0 1.513899 1_565
O3 Sb1 2.057094 1_555
F0 Sb0 1.888855 1_555
F1 P0 1.535773 1_555
F2 P1 1.533736 1_455
F3 Sb0 1.893223 1_555
F4 Sb1 1.893223 1_555
F5 Sb1 1.888855 1_555
F6 Sb0 1.891630 1_555
F7 Sb1 1.891630 1_555
F8 Sb0 1.906511 1_555
F9 Sb1 1.906511 1_555
F10 P1 1.535773 1_555
F11 P0 1.533736 1_655
