# generated using pymatgen
data_Ce
_symmetry_space_group_name_H-M   'P 1'
_cell_length_a   6.60591191
_cell_length_b   6.60591191
_cell_length_c   11.40873490
_cell_angle_alpha   73.16686979
_cell_angle_beta   73.16686979
_cell_angle_gamma   60.02328480
_symmetry_Int_Tables_number   1
_chemical_formula_structural   Ce
_chemical_formula_sum   Ce16
_cell_volume   406.42587728
_cell_formula_units_Z   16
loop_
 _symmetry_equiv_pos_site_id
 _symmetry_equiv_pos_as_xyz
  1  'x, y, z'
loop_
 _atom_site_type_symbol
 _atom_site_label
 _atom_site_symmetry_multiplicity
 _atom_site_fract_x
 _atom_site_fract_y
 _atom_site_fract_z
 _atom_site_occupancy
  Ce  Ce0_0  1  0.37277526  0.37277526  0.12503384  1
  Ce  Ce0_1  1  0.37277526  0.37277526  0.62503384  1
  Ce  Ce0_2  1  0.37277526  0.87277526  0.12503384  1
  Ce  Ce0_3  1  0.37277526  0.87277526  0.62503384  1
  Ce  Ce0_4  1  0.87277526  0.37277526  0.12503384  1
  Ce  Ce0_5  1  0.87277526  0.37277526  0.62503384  1
  Ce  Ce0_6  1  0.87277526  0.87277526  0.12503384  1
  Ce  Ce0_7  1  0.87277526  0.87277526  0.62503384  1
  Ce  Ce1_0  1  0.12722474  0.12722474  0.37496616  1
  Ce  Ce1_1  1  0.12722474  0.12722474  0.87496616  1
  Ce  Ce1_2  1  0.12722474  0.62722474  0.37496616  1
  Ce  Ce1_3  1  0.12722474  0.62722474  0.87496616  1
  Ce  Ce1_4  1  0.62722474  0.12722474  0.37496616  1
  Ce  Ce1_5  1  0.62722474  0.12722474  0.87496616  1
  Ce  Ce1_6  1  0.62722474  0.62722474  0.37496616  1
  Ce  Ce1_7  1  0.62722474  0.62722474  0.87496616  1
loop_
_geom_bond_atom_site_label_1
_geom_bond_atom_site_label_2
_geom_bond_distance
_geom_bond_site_symmetry_2
Ce0_0 Ce1_0 3.265667 1_555
Ce0_0 Ce1_5 3.282394 1_554
Ce0_0 Ce1_3 3.282394 1_554
Ce0_0 Ce0_4 3.302956 1_455
Ce0_0 Ce0_2 3.302956 1_555
Ce0_0 Ce0_4 3.302956 1_555
Ce0_0 Ce0_2 3.302956 1_545
Ce0_0 Ce0_6 3.304118 1_455
Ce0_0 Ce0_6 3.304118 1_545
Ce0_0 Ce1_2 3.310517 1_555
Ce0_0 Ce1_4 3.310517 1_555
Ce0_0 Ce1_7 3.325444 1_554
Ce0_1 Ce1_1 3.265667 1_555
Ce0_1 Ce1_4 3.282394 1_555
Ce0_1 Ce1_2 3.282394 1_555
Ce0_1 Ce0_3 3.302956 1_555
Ce0_1 Ce0_5 3.302956 1_455
Ce0_1 Ce0_5 3.302956 1_555
Ce0_1 Ce0_3 3.302956 1_545
Ce0_1 Ce0_7 3.304118 1_455
Ce0_1 Ce0_7 3.304118 1_545
Ce0_1 Ce1_5 3.310517 1_555
Ce0_1 Ce1_3 3.310517 1_555
Ce0_1 Ce1_6 3.325444 1_555
Ce0_2 Ce1_2 3.265667 1_555
Ce0_2 Ce1_1 3.282394 1_564
Ce0_2 Ce1_7 3.282394 1_554
Ce0_2 Ce0_6 3.302956 1_555
Ce0_2 Ce0_6 3.302956 1_455
Ce0_2 Ce0_4 3.304118 1_555
Ce0_2 Ce0_4 3.304118 1_465
Ce0_2 Ce1_0 3.310517 1_565
Ce0_2 Ce1_6 3.310517 1_555
Ce0_2 Ce1_5 3.325444 1_564
Ce0_3 Ce1_3 3.265667 1_555
Ce0_3 Ce1_6 3.282394 1_555
Ce0_3 Ce1_0 3.282394 1_565
Ce0_3 Ce0_7 3.302956 1_455
Ce0_3 Ce0_7 3.302956 1_555
Ce0_3 Ce0_5 3.304118 1_555
Ce0_3 Ce0_5 3.304118 1_465
Ce0_3 Ce1_7 3.310517 1_555
Ce0_3 Ce1_1 3.310517 1_565
Ce0_3 Ce1_4 3.325444 1_565
Ce0_4 Ce1_4 3.265667 1_555
Ce0_4 Ce1_1 3.282394 1_654
Ce0_4 Ce1_7 3.282394 1_554
Ce0_4 Ce0_6 3.302956 1_555
Ce0_4 Ce0_6 3.302956 1_545
Ce0_4 Ce1_6 3.310517 1_555
Ce0_4 Ce1_0 3.310517 1_655
Ce0_4 Ce1_3 3.325444 1_654
Ce0_5 Ce1_5 3.265667 1_555
Ce0_5 Ce1_6 3.282394 1_555
Ce0_5 Ce1_0 3.282394 1_655
Ce0_5 Ce0_7 3.302956 1_555
Ce0_5 Ce0_7 3.302956 1_545
Ce0_5 Ce1_7 3.310517 1_555
Ce0_5 Ce1_1 3.310517 1_655
Ce0_5 Ce1_2 3.325444 1_655
Ce0_6 Ce1_6 3.265667 1_555
Ce0_6 Ce1_5 3.282394 1_564
Ce0_6 Ce1_3 3.282394 1_654
Ce0_6 Ce1_4 3.310517 1_565
Ce0_6 Ce1_2 3.310517 1_655
Ce0_6 Ce1_1 3.325444 1_664
Ce0_7 Ce1_7 3.265667 1_555
Ce0_7 Ce1_2 3.282394 1_655
Ce0_7 Ce1_4 3.282394 1_565
Ce0_7 Ce1_5 3.310517 1_565
Ce0_7 Ce1_3 3.310517 1_655
Ce0_7 Ce1_0 3.325444 1_665
Ce1_0 Ce1_4 3.302956 1_455
Ce1_0 Ce1_2 3.302956 1_555
Ce1_0 Ce1_2 3.302956 1_545
Ce1_0 Ce1_4 3.302956 1_555
Ce1_0 Ce1_6 3.304118 1_455
Ce1_0 Ce1_6 3.304118 1_545
Ce1_1 Ce1_5 3.302956 1_455
Ce1_1 Ce1_3 3.302956 1_545
Ce1_1 Ce1_3 3.302956 1_555
Ce1_1 Ce1_5 3.302956 1_555
Ce1_1 Ce1_7 3.304118 1_545
Ce1_1 Ce1_7 3.304118 1_455
Ce1_2 Ce1_6 3.302956 1_555
Ce1_2 Ce1_6 3.302956 1_455
Ce1_2 Ce1_4 3.304118 1_555
Ce1_2 Ce1_4 3.304118 1_465
Ce1_3 Ce1_7 3.302956 1_555
Ce1_3 Ce1_7 3.302956 1_455
Ce1_3 Ce1_5 3.304118 1_555
Ce1_3 Ce1_5 3.304118 1_465
Ce1_4 Ce1_6 3.302956 1_555
Ce1_4 Ce1_6 3.302956 1_545
Ce1_5 Ce1_7 3.302956 1_555
Ce1_5 Ce1_7 3.302956 1_545
