# generated using pymatgen
data_Eu(SiRu)2
_symmetry_space_group_name_H-M   'P 1'
_cell_length_a   5.75496690
_cell_length_b   5.75496690
_cell_length_c   5.75496690
_cell_angle_alpha   137.08593666
_cell_angle_beta   137.08593666
_cell_angle_gamma   62.30585373
_symmetry_Int_Tables_number   1
_chemical_formula_structural   Eu(SiRu)2
_chemical_formula_sum   'Eu1 Si2 Ru2'
_cell_volume   87.30736265
_cell_formula_units_Z   1
loop_
 _symmetry_equiv_pos_site_id
 _symmetry_equiv_pos_as_xyz
  1  'x, y, z'
loop_
 _atom_site_type_symbol
 _atom_site_label
 _atom_site_symmetry_multiplicity
 _atom_site_fract_x
 _atom_site_fract_y
 _atom_site_fract_z
 _atom_site_occupancy
  Eu  Eu0  1  0.00000000  0.00000000  0.00000000  1
  Si  Si0  1  0.36007042  0.36007042  -0.00000000  1
  Si  Si1  1  0.63992958  0.63992958  0.00000000  1
  Ru  Ru0  1  0.25000000  0.75000000  0.50000000  1
  Ru  Ru1  1  0.75000000  0.25000000  0.50000000  1
loop_
_geom_bond_atom_site_label_1
_geom_bond_atom_site_label_2
_geom_bond_distance
_geom_bond_site_symmetry_2
Eu0 Ru0 3.239725 1_444
Eu0 Ru1 3.239725 1_444
Eu0 Ru1 3.239725 1_455
Eu0 Ru0 3.239725 1_544
Eu0 Ru0 3.239725 1_555
Eu0 Ru1 3.239725 1_454
Eu0 Ru0 3.239725 1_545
Eu0 Ru1 3.239725 1_555
Eu0 Si0 3.280759 1_444
Eu0 Si1 3.280759 1_556
Eu0 Si0 3.280759 1_455
Eu0 Si1 3.280759 1_455
Eu0 Si1 3.280759 1_444
Eu0 Si0 3.280759 1_545
Eu0 Si0 3.280759 1_556
Eu0 Si1 3.280759 1_545
Ru0 Si1 2.367975 1_556
Ru0 Si1 2.367975 1_455
Ru0 Si0 2.367975 1_566
Ru0 Si0 2.367975 1_555
Ru1 Si1 2.367975 1_556
Ru1 Si0 2.367975 1_555
Ru1 Si0 2.367975 1_656
Ru1 Si1 2.367975 1_545
