# generated using pymatgen
data_Ni3TeMo2O11
_symmetry_space_group_name_H-M   'P 1'
_cell_length_a   6.56195881
_cell_length_b   6.56195881
_cell_length_c   10.29998148
_cell_angle_alpha   80.21775383
_cell_angle_beta   80.21775383
_cell_angle_gamma   84.97074872
_symmetry_Int_Tables_number   1
_chemical_formula_structural   Ni3TeMo2O11
_chemical_formula_sum   'Ni6 Te2 Mo4 O22'
_cell_volume   429.91690070
_cell_formula_units_Z   2
loop_
 _symmetry_equiv_pos_site_id
 _symmetry_equiv_pos_as_xyz
  1  'x, y, z'
loop_
 _atom_site_type_symbol
 _atom_site_label
 _atom_site_symmetry_multiplicity
 _atom_site_fract_x
 _atom_site_fract_y
 _atom_site_fract_z
 _atom_site_occupancy
  Ni  Ni0  1  0.91172100  0.56020300  0.86857200  1
  Ni  Ni1  1  0.08827900  0.43979700  0.13142800  1
  Ni  Ni2  1  0.43979700  0.08827900  0.13142800  1
  Ni  Ni3  1  0.73814900  0.73814900  0.61085900  1
  Ni  Ni4  1  0.56020300  0.91172100  0.86857200  1
  Ni  Ni5  1  0.26185100  0.26185100  0.38914100  1
  Te  Te0  1  0.41427700  0.41427700  0.81622100  1
  Te  Te1  1  0.58572300  0.58572300  0.18377900  1
  Mo  Mo0  1  0.21236500  0.78763500  0.50000000  1
  Mo  Mo1  1  0.96904500  0.96904500  0.23918400  1
  Mo  Mo2  1  0.78763500  0.21236500  0.50000000  1
  Mo  Mo3  1  0.03095500  0.03095500  0.76081600  1
  O  O0  1  0.71742300  0.03032400  0.19788500  1
  O  O1  1  0.80227900  0.47096700  0.06761400  1
  O  O2  1  0.22124500  0.54769100  0.44274700  1
  O  O3  1  0.52903300  0.19772100  0.93238600  1
  O  O4  1  0.72618100  0.03344600  0.67043500  1
  O  O5  1  0.45230900  0.77875500  0.55725300  1
  O  O6  1  0.38140600  0.38140600  0.19221200  1
  O  O7  1  0.19772100  0.52903300  0.93238600  1
  O  O8  1  0.77875500  0.45230900  0.55725300  1
  O  O9  1  0.03032400  0.71742300  0.19788500  1
  O  O10  1  0.96967600  0.28257700  0.80211500  1
  O  O11  1  0.03344600  0.72618100  0.67043500  1
  O  O12  1  0.47096700  0.80227900  0.06761400  1
  O  O13  1  0.61859400  0.61859400  0.80778800  1
  O  O14  1  0.10642900  0.10642900  0.56204000  1
  O  O15  1  0.89357100  0.89357100  0.43796000  1
  O  O16  1  0.27381900  0.96655400  0.32956500  1
  O  O17  1  0.28257700  0.96967600  0.80211500  1
  O  O18  1  0.86647400  0.86647400  0.89386400  1
  O  O19  1  0.96655400  0.27381900  0.32956500  1
  O  O20  1  0.13352600  0.13352600  0.10613600  1
  O  O21  1  0.54769100  0.22124500  0.44274700  1
loop_
_geom_bond_atom_site_label_1
_geom_bond_atom_site_label_2
_geom_bond_distance
_geom_bond_site_symmetry_2
Ni0 O10 2.036133 1_555
Ni0 O1 2.056004 1_556
Ni0 O18 2.059628 1_555
Ni0 O7 2.074154 1_655
Ni0 O13 2.106434 1_555
Ni0 O11 2.198280 1_655
Ni1 O9 2.036133 1_555
Ni1 O7 2.056004 1_554
Ni1 O20 2.059628 1_555
Ni1 O1 2.074154 1_455
Ni1 O6 2.106434 1_555
Ni1 O19 2.198280 1_455
Ni2 O0 2.036133 1_555
Ni2 O3 2.056004 1_554
Ni2 O20 2.059628 1_555
Ni2 O12 2.074154 1_545
Ni2 O6 2.106434 1_555
Ni2 O16 2.198280 1_545
Ni3 O5 2.026893 1_555
Ni3 O8 2.026893 1_555
Ni3 O15 2.049328 1_555
Ni3 O13 2.090846 1_555
Ni3 O4 2.120964 1_565
Ni3 O11 2.120964 1_655
Ni4 O17 2.036133 1_555
Ni4 O12 2.056004 1_556
Ni4 O18 2.059628 1_555
Ni4 O3 2.074154 1_565
Ni4 O13 2.106434 1_555
Ni4 O4 2.198280 1_565
Ni5 O2 2.026893 1_555
Ni5 O21 2.026893 1_555
Ni5 O14 2.049328 1_555
Ni5 O6 2.090846 1_555
Ni5 O19 2.120964 1_455
Ni5 O16 2.120964 1_545
Mo0 O2 1.765773 1_555
Mo0 O5 1.765773 1_555
Mo0 O11 1.940317 1_555
Mo0 O16 1.940317 1_555
Mo0 O14 2.305645 1_565
Mo0 O15 2.305645 1_455
Mo1 O9 1.770033 1_655
Mo1 O0 1.770033 1_565
Mo1 O20 1.845768 1_665
Mo1 O15 2.009041 1_555
Mo1 O16 2.342708 1_655
Mo1 O19 2.342708 1_565
Mo2 O21 1.765773 1_555
Mo2 O8 1.765773 1_555
Mo2 O4 1.940317 1_555
Mo2 O19 1.940317 1_555
Mo2 O14 2.305645 1_655
Mo2 O15 2.305645 1_545
Mo3 O10 1.770033 1_455
Mo3 O17 1.770033 1_545
Mo3 O18 1.845768 1_445
Mo3 O14 2.009041 1_555
Mo3 O11 2.342708 1_545
Mo3 O4 2.342708 1_455
O1 Te1 1.886470 1_555
O3 Te0 1.886470 1_555
O6 Te1 1.959239 1_555
O7 Te0 1.886470 1_555
O12 Te1 1.886470 1_555
O13 Te0 1.959239 1_555
