# generated using pymatgen
data_Li4Zn(PO4)2
_symmetry_space_group_name_H-M   'P 1'
_cell_length_a   10.40428300
_cell_length_b   8.20926700
_cell_length_c   8.22224366
_cell_angle_alpha   75.36017307
_cell_angle_beta   90.00000000
_cell_angle_gamma   90.00000000
_symmetry_Int_Tables_number   1
_chemical_formula_structural   Li4Zn(PO4)2
_chemical_formula_sum   'Li16 Zn4 P8 O32'
_cell_volume   679.47423019
_cell_formula_units_Z   4
loop_
 _symmetry_equiv_pos_site_id
 _symmetry_equiv_pos_as_xyz
  1  'x, y, z'
loop_
 _atom_site_type_symbol
 _atom_site_label
 _atom_site_symmetry_multiplicity
 _atom_site_fract_x
 _atom_site_fract_y
 _atom_site_fract_z
 _atom_site_occupancy
  Li  Li0  1  0.07294300  0.27231300  0.47796700  1
  Li  Li1  1  0.65129400  0.15098700  0.85047100  1
  Li  Li2  1  0.15129400  0.34901300  0.14952900  1
  Li  Li3  1  0.92705700  0.72768700  0.52203300  1
  Li  Li4  1  0.42705700  0.77231300  0.47796700  1
  Li  Li5  1  0.34870600  0.84901300  0.14952900  1
  Li  Li6  1  0.16445900  0.59934300  0.39829000  1
  Li  Li7  1  0.83794500  0.15743400  0.34532500  1
  Li  Li8  1  0.57294300  0.22768700  0.52203300  1
  Li  Li9  1  0.84870600  0.65098700  0.85047100  1
  Li  Li10  1  0.33794500  0.34256600  0.65467500  1
  Li  Li11  1  0.66205500  0.65743400  0.34532500  1
  Li  Li12  1  0.83554100  0.40065700  0.60171000  1
  Li  Li13  1  0.16205500  0.84256600  0.65467500  1
  Li  Li14  1  0.66445900  0.90065700  0.60171000  1
  Li  Li15  1  0.33554100  0.09934300  0.39829000  1
  Zn  Zn0  1  0.84329400  0.90870800  0.09221400  1
  Zn  Zn1  1  0.65670600  0.40870800  0.09221400  1
  Zn  Zn2  1  0.15670600  0.09129200  0.90778600  1
  Zn  Zn3  1  0.34329400  0.59129200  0.90778600  1
  P  P0  1  0.09327100  0.46567800  0.76756800  1
  P  P1  1  0.90672900  0.53432200  0.23243200  1
  P  P2  1  0.90852800  0.02669500  0.71115200  1
  P  P3  1  0.40852800  0.47330500  0.28884800  1
  P  P4  1  0.40672900  0.96567800  0.76756800  1
  P  P5  1  0.59147200  0.52669500  0.71115200  1
  P  P6  1  0.09147200  0.97330500  0.28884800  1
  P  P7  1  0.59327100  0.03432200  0.23243200  1
  O  O0  1  0.65526900  0.08772500  0.38333600  1
  O  O1  1  0.34996400  0.62831300  0.33761600  1
  O  O2  1  0.05354100  0.99119200  0.75565200  1
  O  O3  1  0.94645900  0.00880800  0.24434800  1
  O  O4  1  0.15526900  0.41227500  0.61666400  1
  O  O5  1  0.84996400  0.87168700  0.66238400  1
  O  O6  1  0.33033200  0.11583200  0.80483400  1
  O  O7  1  0.60097100  0.68683900  0.56286300  1
  O  O8  1  0.65003600  0.37168700  0.66238400  1
  O  O9  1  0.89693600  0.68455600  0.07173700  1
  O  O10  1  0.95270900  0.52179900  0.72542400  1
  O  O11  1  0.10306400  0.31544400  0.92826300  1
  O  O12  1  0.54729100  0.02179900  0.72542400  1
  O  O13  1  0.34473100  0.91227500  0.61666400  1
  O  O14  1  0.45270900  0.97820100  0.27457600  1
  O  O15  1  0.84473100  0.58772500  0.38333600  1
  O  O16  1  0.66685300  0.56060000  0.86364800  1
  O  O17  1  0.16966800  0.61583200  0.80483400  1
  O  O18  1  0.66966800  0.88416800  0.19516600  1
  O  O19  1  0.16685300  0.93940000  0.13635200  1
  O  O20  1  0.83033200  0.38416800  0.19516600  1
  O  O21  1  0.44645900  0.49119200  0.75565200  1
  O  O22  1  0.10097100  0.81316100  0.43713700  1
  O  O23  1  0.83314700  0.06060000  0.86364800  1
  O  O24  1  0.04729100  0.47820100  0.27457600  1
  O  O25  1  0.39693600  0.81544400  0.92826300  1
  O  O26  1  0.33314700  0.43940000  0.13635200  1
  O  O27  1  0.55354100  0.50880800  0.24434800  1
  O  O28  1  0.60306400  0.18455600  0.07173700  1
  O  O29  1  0.15003600  0.12831300  0.33761600  1
  O  O30  1  0.89902900  0.18683900  0.56286300  1
  O  O31  1  0.39902900  0.31316100  0.43713700  1
loop_
_geom_bond_atom_site_label_1
_geom_bond_atom_site_label_2
_geom_bond_distance
_geom_bond_site_symmetry_2
Li0 O30 2.001533 1_455
Li0 O4 2.004167 1_555
Li0 O29 2.015463 1_555
Li0 O24 2.072651 1_555
Li1 O28 1.972571 1_556
Li1 O12 1.975840 1_555
Li1 O23 2.025225 1_555
Li1 O8 2.063508 1_555
Li2 O11 1.972571 1_554
Li2 O24 1.975840 1_555
Li2 O26 2.025225 1_555
Li2 O29 2.063508 1_555
Li3 O22 2.001533 1_655
Li3 O15 2.004167 1_555
Li3 O5 2.015463 1_555
Li3 O10 2.072651 1_555
Li4 O7 2.001533 1_555
Li4 O13 2.004167 1_555
Li4 O1 2.015463 1_555
Li4 O14 2.072651 1_555
Li5 O25 1.972571 1_554
Li5 O14 1.975840 1_555
Li5 O19 2.025225 1_555
Li5 O1 2.063508 1_555
Li6 O22 1.975547 1_555
Li6 O1 1.992622 1_555
Li6 O24 2.005278 1_555
Li6 O4 2.048802 1_555
Li7 O20 1.957931 1_555
Li7 O30 1.969695 1_555
Li7 O0 1.986727 1_555
Li7 O3 1.991160 1_555
Li8 O31 2.001533 1_555
Li8 O0 2.004167 1_555
Li8 O8 2.015463 1_555
Li8 O12 2.072651 1_555
Li9 O9 1.972571 1_556
Li9 O10 1.975840 1_555
Li9 O16 2.025225 1_555
Li9 O5 2.063508 1_555
Li10 O6 1.957931 1_555
Li10 O31 1.969695 1_555
Li10 O4 1.986727 1_555
Li10 O21 1.991160 1_555
Li11 O18 1.957931 1_555
Li11 O7 1.969695 1_555
Li11 O15 1.986727 1_555
Li11 O27 1.991160 1_555
Li12 O30 1.975547 1_555
Li12 O8 1.992622 1_555
Li12 O10 2.005278 1_555
Li12 O15 2.048802 1_555
Li13 O17 1.957931 1_555
Li13 O22 1.969695 1_555
Li13 O13 1.986727 1_555
Li13 O2 1.991160 1_555
Li14 O7 1.975547 1_555
Li14 O5 1.992622 1_555
Li14 O12 2.005278 1_565
Li14 O0 2.048802 1_565
Li15 O31 1.975547 1_555
Li15 O29 1.992622 1_555
Li15 O14 2.005278 1_545
Li15 O13 2.048802 1_545
O0 P7 1.556517 1_555
O1 P3 1.552172 1_555
O2 P2 1.562454 1_465
O2 Zn2 1.977793 1_565
O3 P6 1.562454 1_645
O3 Zn0 1.977793 1_545
O4 P0 1.556517 1_555
O5 P2 1.552172 1_565
O6 P4 1.560782 1_545
O6 Zn2 1.983486 1_555
O7 P5 1.553857 1_555
O8 P5 1.552172 1_555
O9 P1 1.566363 1_555
O9 Zn0 1.970404 1_555
O10 P0 1.546086 1_655
O11 P0 1.566363 1_555
O11 Zn2 1.970404 1_555
O12 P4 1.546086 1_545
O13 P4 1.556517 1_555
O14 P7 1.546086 1_565
O15 P1 1.556517 1_555
O16 P5 1.562417 1_555
O16 Zn1 1.978203 1_556
O17 P0 1.560782 1_555
O17 Zn3 1.983486 1_555
O18 P7 1.560782 1_565
O18 Zn0 1.983486 1_555
O19 P6 1.562417 1_555
O19 Zn2 1.978203 1_564
O20 P1 1.560782 1_555
O20 Zn1 1.983486 1_555
O21 P5 1.562454 1_555
O21 Zn3 1.977793 1_555
O22 P6 1.553857 1_555
O23 P2 1.562417 1_555
O23 Zn0 1.978203 1_546
O24 P1 1.546086 1_455
O25 P4 1.566363 1_555
O25 Zn3 1.970404 1_555
O26 P3 1.562417 1_555
O26 Zn3 1.978203 1_554
O27 P3 1.562454 1_555
O27 Zn1 1.977793 1_555
O28 P7 1.566363 1_555
O28 Zn1 1.970404 1_555
O29 P6 1.552172 1_545
O30 P2 1.553857 1_555
O31 P3 1.553857 1_555
