# generated using pymatgen
data_Li2Co3(SeO3)4
_symmetry_space_group_name_H-M   'P 1'
_cell_length_a   9.34648600
_cell_length_b   7.86681900
_cell_length_c   8.28138412
_cell_angle_alpha   64.54013486
_cell_angle_beta   90.00000000
_cell_angle_gamma   90.00000000
_symmetry_Int_Tables_number   1
_chemical_formula_structural   Li2Co3(SeO3)4
_chemical_formula_sum   'Li4 Co6 Se8 O24'
_cell_volume   549.77333134
_cell_formula_units_Z   2
loop_
 _symmetry_equiv_pos_site_id
 _symmetry_equiv_pos_as_xyz
  1  'x, y, z'
loop_
 _atom_site_type_symbol
 _atom_site_label
 _atom_site_symmetry_multiplicity
 _atom_site_fract_x
 _atom_site_fract_y
 _atom_site_fract_z
 _atom_site_occupancy
  Li  Li0  1  0.63905800  0.07528900  0.09933700  1
  Li  Li1  1  0.36094200  0.92471100  0.90066300  1
  Li  Li2  1  0.86094200  0.57528900  0.09933700  1
  Li  Li3  1  0.13905800  0.42471100  0.90066300  1
  Co  Co0  1  0.99368200  0.17142100  0.29654700  1
  Co  Co1  1  0.00631800  0.82857900  0.70345300  1
  Co  Co2  1  0.49368200  0.32857900  0.70345300  1
  Co  Co3  1  0.00000000  0.00000000  0.00000000  1
  Co  Co4  1  0.50000000  0.50000000  0.00000000  1
  Co  Co5  1  0.50631800  0.67142100  0.29654700  1
  Se  Se0  1  0.82747700  0.73561300  0.40119300  1
  Se  Se1  1  0.68400600  0.87468600  0.82408700  1
  Se  Se2  1  0.18400600  0.62531400  0.17591300  1
  Se  Se3  1  0.31599400  0.12531400  0.17591300  1
  Se  Se4  1  0.67252300  0.23561300  0.40119300  1
  Se  Se5  1  0.32747700  0.76438700  0.59880700  1
  Se  Se6  1  0.17252300  0.26438700  0.59880700  1
  Se  Se7  1  0.81599400  0.37468600  0.82408700  1
  O  O0  1  0.15277500  0.81544800  0.96769600  1
  O  O1  1  0.58181000  0.26276300  0.21104100  1
  O  O2  1  0.91819000  0.76276300  0.21104100  1
  O  O3  1  0.86824700  0.92146700  0.83510100  1
  O  O4  1  0.89632800  0.55308200  0.85834400  1
  O  O5  1  0.66221200  0.83672100  0.32177400  1
  O  O6  1  0.36824700  0.57853300  0.16489900  1
  O  O7  1  0.33778800  0.16327900  0.67822600  1
  O  O8  1  0.08181000  0.23723700  0.78895900  1
  O  O9  1  0.16221200  0.66327900  0.67822600  1
  O  O10  1  0.39632800  0.94691800  0.14165600  1
  O  O11  1  0.90056100  0.90870800  0.45592300  1
  O  O12  1  0.10367200  0.44691800  0.14165600  1
  O  O13  1  0.59943900  0.40870800  0.45592300  1
  O  O14  1  0.63175300  0.42146700  0.83510100  1
  O  O15  1  0.41819000  0.73723700  0.78895900  1
  O  O16  1  0.34722500  0.31544800  0.96769600  1
  O  O17  1  0.13175300  0.07853300  0.16489900  1
  O  O18  1  0.84722500  0.18455200  0.03230400  1
  O  O19  1  0.40056100  0.59129200  0.54407700  1
  O  O20  1  0.60367200  0.05308200  0.85834400  1
  O  O21  1  0.83778800  0.33672100  0.32177400  1
  O  O22  1  0.65277500  0.68455200  0.03230400  1
  O  O23  1  0.09943900  0.09129200  0.54407700  1
loop_
_geom_bond_atom_site_label_1
_geom_bond_atom_site_label_2
_geom_bond_distance
_geom_bond_site_symmetry_2
Li0 O5 1.997512 1_545
Li0 O18 2.102910 1_555
Li0 O20 2.103023 1_554
Li0 O1 2.118990 1_555
Li0 O10 2.446478 1_545
Li1 O7 1.997512 1_565
Li1 O0 2.102910 1_555
Li1 O10 2.103023 1_556
Li1 O15 2.118990 1_555
Li1 O20 2.446478 1_565
Li2 O21 1.997512 1_555
Li2 O22 2.102910 1_555
Li2 O4 2.103023 1_554
Li2 O2 2.118990 1_555
Li2 O12 2.446478 1_655
Li3 O9 1.997512 1_555
Li3 O16 2.102910 1_555
Li3 O12 2.103023 1_556
Li3 O8 2.118990 1_555
Li3 O4 2.446478 1_455
Co0 O17 2.018128 1_655
Co0 O21 2.022682 1_555
Co0 O11 2.103718 1_545
Co0 O23 2.113173 1_655
Co0 O12 2.238118 1_655
Co0 O18 2.545338 1_555
Co1 O3 2.018128 1_455
Co1 O9 2.022682 1_555
Co1 O23 2.103718 1_565
Co1 O11 2.113173 1_455
Co1 O4 2.238118 1_455
Co1 O0 2.545338 1_555
Co2 O14 2.018128 1_555
Co2 O7 2.022682 1_555
Co2 O19 2.103718 1_555
Co2 O13 2.113173 1_555
Co2 O20 2.238118 1_555
Co2 O16 2.545338 1_555
Co3 O8 2.077961 1_554
Co3 O2 2.077961 1_445
Co3 O3 2.118558 1_444
Co3 O17 2.118558 1_555
Co3 O18 2.133601 1_455
Co3 O0 2.133601 1_544
Co4 O1 2.077961 1_555
Co4 O15 2.077961 1_554
Co4 O6 2.118558 1_555
Co4 O14 2.118558 1_554
Co4 O16 2.133601 1_554
Co4 O22 2.133601 1_555
Co5 O6 2.018128 1_555
Co5 O5 2.022682 1_555
Co5 O13 2.103718 1_555
Co5 O19 2.113173 1_555
Co5 O10 2.238118 1_555
Co5 O22 2.545338 1_555
O0 Se2 1.754514 1_556
O1 Se4 1.719025 1_555
O2 Se0 1.719025 1_555
O3 Se1 1.771418 1_555
O4 Se7 1.719333 1_555
O5 Se0 1.732453 1_555
O6 Se2 1.771418 1_555
O7 Se6 1.732453 1_555
O8 Se6 1.719025 1_555
O9 Se5 1.732453 1_555
O10 Se3 1.719333 1_565
O11 Se0 1.748398 1_555
O12 Se2 1.719333 1_555
O13 Se4 1.748398 1_555
O14 Se7 1.771418 1_555
O15 Se5 1.719025 1_555
O16 Se3 1.754514 1_556
O17 Se3 1.771418 1_555
O18 Se7 1.754514 1_554
O19 Se5 1.748398 1_555
O20 Se1 1.719333 1_545
O21 Se4 1.732453 1_555
O22 Se1 1.754514 1_554
O23 Se6 1.748398 1_555
