# generated using pymatgen
data_Tb5Se2Cl3O10
_symmetry_space_group_name_H-M   'P 1'
_cell_length_a   6.73083542
_cell_length_b   6.73083542
_cell_length_c   9.90766473
_cell_angle_alpha   89.09558221
_cell_angle_beta   89.09558221
_cell_angle_gamma   48.32254246
_symmetry_Int_Tables_number   1
_chemical_formula_structural   Tb5Se2Cl3O10
_chemical_formula_sum   'Tb5 Se2 Cl3 O10'
_cell_volume   335.20201443
_cell_formula_units_Z   1
loop_
 _symmetry_equiv_pos_site_id
 _symmetry_equiv_pos_as_xyz
  1  'x, y, z'
loop_
 _atom_site_type_symbol
 _atom_site_label
 _atom_site_symmetry_multiplicity
 _atom_site_fract_x
 _atom_site_fract_y
 _atom_site_fract_z
 _atom_site_occupancy
  Tb  Tb0  1  0.78629500  0.78629500  0.10321700  1
  Tb  Tb1  1  0.09872100  0.09872100  0.23429700  1
  Tb  Tb2  1  0.90127900  0.90127900  0.76570300  1
  Tb  Tb3  1  0.50000000  0.50000000  0.00000000  1
  Tb  Tb4  1  0.21370500  0.21370500  0.89678300  1
  Se  Se0  1  0.59239000  0.59239000  0.68385900  1
  Se  Se1  1  0.40761000  0.40761000  0.31614100  1
  Cl  Cl0  1  0.33658400  0.33658400  0.64952500  1
  Cl  Cl1  1  0.66341600  0.66341600  0.35047500  1
  Cl  Cl2  1  0.00000000  0.00000000  0.50000000  1
  O  O0  1  0.61000600  0.10161200  0.94117200  1
  O  O1  1  0.20555800  0.68305500  0.20418000  1
  O  O2  1  0.68305500  0.20555800  0.20418000  1
  O  O3  1  0.89838800  0.38999400  0.05882800  1
  O  O4  1  0.31694500  0.79444200  0.79582000  1
  O  O5  1  0.38999400  0.89838800  0.05882800  1
  O  O6  1  0.79444200  0.31694500  0.79582000  1
  O  O7  1  0.27336000  0.27336000  0.28410000  1
  O  O8  1  0.72664000  0.72664000  0.71590000  1
  O  O9  1  0.10161200  0.61000600  0.94117200  1
loop_
_geom_bond_atom_site_label_1
_geom_bond_atom_site_label_2
_geom_bond_distance
_geom_bond_site_symmetry_2
Cl0 Tb4 2.855026 1_555
Cl0 Tb2 3.094811 1_545
Cl0 Tb2 3.094811 1_455
Cl1 Tb0 2.855026 1_555
Cl1 Tb1 3.094811 1_655
Cl1 Tb1 3.094811 1_565
Cl2 Tb2 2.879205 1_445
Cl2 Tb1 2.879205 1_555
O0 Tb0 2.256863 1_546
O0 Tb2 2.266041 1_545
O0 Tb4 2.286488 1_555
O0 Tb3 2.339576 1_556
O1 Se1 1.773937 1_555
O1 Tb1 2.403692 1_565
O1 Tb3 2.498575 1_555
O1 Tb0 2.628010 1_455
O2 Se1 1.773937 1_555
O2 Tb1 2.403692 1_655
O2 Tb3 2.498575 1_555
O2 Tb0 2.628010 1_545
O3 Tb4 2.256863 1_654
O3 Tb1 2.266041 1_655
O3 Tb0 2.286488 1_555
O3 Tb3 2.339576 1_555
O4 Se0 1.773937 1_555
O4 Tb2 2.403692 1_455
O4 Tb3 2.498575 1_556
O4 Tb4 2.628010 1_565
O5 Tb4 2.256863 1_564
O5 Tb1 2.266041 1_565
O5 Tb0 2.286488 1_555
O5 Tb3 2.339576 1_555
O6 Se0 1.773937 1_555
O6 Tb2 2.403692 1_545
O6 Tb3 2.498575 1_556
O6 Tb4 2.628010 1_655
O7 Se1 1.684575 1_555
O7 Tb1 2.209310 1_555
O8 Se0 1.684575 1_555
O8 Tb2 2.209310 1_555
O9 Tb0 2.256863 1_456
O9 Tb2 2.266041 1_455
O9 Tb4 2.286488 1_555
O9 Tb3 2.339576 1_556
