# generated using pymatgen
data_LaSc3(BO3)4
_symmetry_space_group_name_H-M   'P 1'
_cell_length_a   6.32020625
_cell_length_b   6.32020625
_cell_length_c   12.18716568
_cell_angle_alpha   80.47144259
_cell_angle_beta   80.47144259
_cell_angle_gamma   103.68583807
_symmetry_Int_Tables_number   1
_chemical_formula_structural   LaSc3(BO3)4
_chemical_formula_sum   'La2 Sc6 B8 O24'
_cell_volume   455.69965732
_cell_formula_units_Z   2
loop_
 _symmetry_equiv_pos_site_id
 _symmetry_equiv_pos_as_xyz
  1  'x, y, z'
loop_
 _atom_site_type_symbol
 _atom_site_label
 _atom_site_symmetry_multiplicity
 _atom_site_fract_x
 _atom_site_fract_y
 _atom_site_fract_z
 _atom_site_occupancy
  La  La0  1  0.82011600  0.74880600  0.25584800  1
  La  La1  1  0.74880600  0.82011600  0.75584800  1
  Sc  Sc0  1  0.21396600  0.36442200  0.75583300  1
  Sc  Sc1  1  0.09386700  0.59025400  0.97975000  1
  Sc  Sc2  1  0.49680900  0.99430500  0.03032200  1
  Sc  Sc3  1  0.36442200  0.21396600  0.25583300  1
  Sc  Sc4  1  0.59025400  0.09386700  0.47975000  1
  Sc  Sc5  1  0.99430500  0.49680900  0.53032200  1
  B  B0  1  0.28364900  0.89681000  0.73158100  1
  B  B1  1  0.06238900  0.01595500  0.50485700  1
  B  B2  1  0.89681000  0.28364900  0.23158100  1
  B  B3  1  0.57321600  0.52010700  0.00552000  1
  B  B4  1  0.01595500  0.06238900  0.00485700  1
  B  B5  1  0.68949000  0.29704300  0.77981400  1
  B  B6  1  0.52010700  0.57321600  0.50552000  1
  B  B7  1  0.29704300  0.68949000  0.27981400  1
  O  O0  1  0.78677700  0.59941200  0.93830400  1
  O  O1  1  0.42943200  0.54650200  0.26677200  1
  O  O2  1  0.30758900  0.49770200  0.57408600  1
  O  O3  1  0.92406300  0.15719100  0.51016200  1
  O  O4  1  0.66138500  0.43510500  0.49878900  1
  O  O5  1  0.23317700  0.68426000  0.79939500  1
  O  O6  1  0.59941200  0.78677700  0.43830400  1
  O  O7  1  0.68426000  0.23317700  0.29939500  1
  O  O8  1  0.02800600  0.13967200  0.24825500  1
  O  O9  1  0.48276200  0.96838300  0.65250900  1
  O  O10  1  0.49770200  0.30758900  0.07408600  1
  O  O11  1  0.27591400  0.08820900  0.43707500  1
  O  O12  1  0.97982200  0.80256500  0.57200200  1
  O  O13  1  0.09688800  0.63093400  0.35737400  1
  O  O14  1  0.80256500  0.97982200  0.07200200  1
  O  O15  1  0.43510500  0.66138500  0.99878900  1
  O  O16  1  0.54650200  0.42943200  0.76677200  1
  O  O17  1  0.90164000  0.36700700  0.71085300  1
  O  O18  1  0.15719100  0.92406300  0.01016200  1
  O  O19  1  0.36700700  0.90164000  0.21085300  1
  O  O20  1  0.08820900  0.27591400  0.93707500  1
  O  O21  1  0.96838300  0.48276200  0.15250900  1
  O  O22  1  0.63093400  0.09688800  0.85737400  1
  O  O23  1  0.13967200  0.02800600  0.74825500  1
loop_
_geom_bond_atom_site_label_1
_geom_bond_atom_site_label_2
_geom_bond_distance
_geom_bond_site_symmetry_2
La0 O1 2.467870 1_555
La0 O13 2.484729 1_655
La0 O8 2.487110 1_665
La0 O14 2.498012 1_555
La0 O6 2.501196 1_555
La0 O21 2.519421 1_555
La1 O16 2.467870 1_555
La1 O22 2.484729 1_565
La1 O23 2.487110 1_665
La1 O12 2.498012 1_555
La1 O0 2.501196 1_555
La1 O9 2.519421 1_555
B0 O9 1.379034 1_555
B0 O23 1.381479 1_565
B0 O5 1.389883 1_555
B1 O12 1.386022 1_445
B1 O11 1.388000 1_555
B1 O3 1.391032 1_455
B2 O21 1.379034 1_555
B2 O8 1.381479 1_655
B2 O7 1.389883 1_555
B3 O0 1.386348 1_554
B3 O10 1.386777 1_555
B3 O15 1.390761 1_554
B4 O14 1.386022 1_445
B4 O20 1.388000 1_554
B4 O18 1.391032 1_545
B5 O22 1.377489 1_555
B5 O16 1.379641 1_555
B5 O17 1.386727 1_555
B6 O6 1.386348 1_555
B6 O2 1.386777 1_555
B6 O4 1.390761 1_555
B7 O13 1.377489 1_555
B7 O1 1.379641 1_555
B7 O19 1.386727 1_555
O0 Sc1 2.096073 1_655
O1 Sc3 2.075089 1_555
O2 Sc5 2.133150 1_455
O2 Sc0 2.162943 1_555
O3 Sc5 2.150471 1_555
O3 Sc4 2.158010 1_555
O4 Sc4 2.156083 1_555
O4 Sc5 2.157810 1_555
O5 Sc1 2.153803 1_555
O5 Sc0 2.154839 1_555
O6 Sc4 2.096073 1_565
O7 Sc4 2.153803 1_555
O7 Sc3 2.154839 1_555
O8 Sc3 2.087285 1_555
O9 Sc4 2.059626 1_565
O10 Sc2 2.133150 1_545
O10 Sc3 2.162943 1_555
O11 Sc4 2.129166 1_555
O11 Sc3 2.150081 1_555
O12 Sc5 2.096194 1_555
O13 Sc5 2.068208 1_455
O14 Sc2 2.096194 1_555
O15 Sc1 2.156083 1_555
O15 Sc2 2.157810 1_556
O16 Sc0 2.075089 1_555
O17 Sc0 2.137254 1_655
O17 Sc5 2.145968 1_555
O18 Sc2 2.150471 1_555
O18 Sc1 2.158010 1_554
O19 Sc3 2.137254 1_565
O19 Sc2 2.145968 1_555
O20 Sc1 2.129166 1_555
O20 Sc0 2.150081 1_555
O21 Sc1 2.059626 1_654
O22 Sc2 2.068208 1_546
O23 Sc0 2.087285 1_555
