# generated using pymatgen
data_Sm2IO2
_symmetry_space_group_name_H-M   'P 1'
_cell_length_a   6.76029049
_cell_length_b   6.76029049
_cell_length_c   9.38237647
_cell_angle_alpha   62.79782133
_cell_angle_beta   62.79782133
_cell_angle_gamma   35.81514096
_symmetry_Int_Tables_number   1
_chemical_formula_structural   Sm2IO2
_chemical_formula_sum   'Sm4 I2 O4'
_cell_volume   220.06435040
_cell_formula_units_Z   2
loop_
 _symmetry_equiv_pos_site_id
 _symmetry_equiv_pos_as_xyz
  1  'x, y, z'
loop_
 _atom_site_type_symbol
 _atom_site_label
 _atom_site_symmetry_multiplicity
 _atom_site_fract_x
 _atom_site_fract_y
 _atom_site_fract_z
 _atom_site_occupancy
  Sm  Sm0  1  0.97244900  0.97244900  0.28301200  1
  Sm  Sm1  1  0.34843200  0.34843200  0.05042200  1
  Sm  Sm2  1  0.02755100  0.02755100  0.71698800  1
  Sm  Sm3  1  0.65156800  0.65156800  0.94957800  1
  I  I0  1  0.31493300  0.31493300  0.62833500  1
  I  I1  1  0.68506700  0.68506700  0.37166500  1
  O  O0  1  0.53271900  0.53271900  0.81346600  1
  O  O1  1  0.84300200  0.84300200  0.92412200  1
  O  O2  1  0.46728100  0.46728100  0.18653400  1
  O  O3  1  0.15699800  0.15699800  0.07587800  1
loop_
_geom_bond_atom_site_label_1
_geom_bond_atom_site_label_2
_geom_bond_distance
_geom_bond_site_symmetry_2
I0 Sm2 3.377465 1_555
I0 Sm3 3.425803 1_455
I0 Sm3 3.425803 1_545
I0 Sm0 3.551961 1_545
I0 Sm0 3.551961 1_455
I0 Sm2 3.831647 1_655
I0 Sm2 3.831647 1_565
I1 Sm0 3.377465 1_555
I1 Sm1 3.425803 1_565
I1 Sm1 3.425803 1_655
I1 Sm2 3.551961 1_565
I1 Sm2 3.551961 1_655
I1 Sm0 3.831647 1_455
I1 Sm0 3.831647 1_545
O0 Sm2 2.280897 1_565
O0 Sm2 2.280897 1_655
O0 Sm1 2.345108 1_556
O0 Sm3 2.417655 1_555
O1 Sm2 2.231772 1_665
O1 Sm3 2.357491 1_555
O1 Sm1 2.410290 1_566
O1 Sm1 2.410290 1_656
O2 Sm0 2.280897 1_545
O2 Sm0 2.280897 1_455
O2 Sm3 2.345108 1_554
O2 Sm1 2.417655 1_555
O3 Sm0 2.231772 1_445
O3 Sm1 2.357491 1_555
O3 Sm3 2.410290 1_544
O3 Sm3 2.410290 1_454
