# generated using pymatgen
data_Fe2(SO4)3
_symmetry_space_group_name_H-M   'P 1'
_cell_length_a   8.82311764
_cell_length_b   8.82311082
_cell_length_c   8.82312335
_cell_angle_alpha   55.60850051
_cell_angle_beta   55.60844303
_cell_angle_gamma   55.60848957
_symmetry_Int_Tables_number   1
_chemical_formula_structural   Fe2(SO4)3
_chemical_formula_sum   'Fe4 S6 O24'
_cell_volume   436.18266334
_cell_formula_units_Z   2
loop_
 _symmetry_equiv_pos_site_id
 _symmetry_equiv_pos_as_xyz
  1  'x, y, z'
loop_
 _atom_site_type_symbol
 _atom_site_label
 _atom_site_symmetry_multiplicity
 _atom_site_fract_x
 _atom_site_fract_y
 _atom_site_fract_z
 _atom_site_occupancy
  Fe  Fe0  1  0.14405732  0.14405932  0.14405832  1
  Fe  Fe1  1  0.85594268  0.85594068  0.85594168  1
  Fe  Fe2  1  0.35071947  0.35071947  0.35071847  1
  Fe  Fe3  1  0.64928053  0.64928053  0.64928153  1
  S  S0  1  0.54093132  0.24766147  0.96406739  1
  S  S1  1  0.96406739  0.54093132  0.24766247  1
  S  S2  1  0.24766247  0.96406739  0.54093032  1
  S  S3  1  0.45906868  0.75233853  0.03593261  1
  S  S4  1  0.03593261  0.45906868  0.75233753  1
  S  S5  1  0.75233753  0.03593261  0.45906968  1
  O  O0  1  0.38825444  0.20505342  0.98868543  1
  O  O1  1  0.98868543  0.38825544  0.20505342  1
  O  O2  1  0.20505342  0.98868643  0.38825444  1
  O  O3  1  0.61174556  0.79494658  0.01131457  1
  O  O4  1  0.01131457  0.61174456  0.79494658  1
  O  O5  1  0.79494658  0.01131357  0.61174556  1
  O  O6  1  0.52282906  0.21523065  0.15561651  1
  O  O7  1  0.15561651  0.52282906  0.21523165  1
  O  O8  1  0.21523165  0.15561651  0.52283006  1
  O  O9  1  0.47717094  0.78476935  0.84438349  1
  O  O10  1  0.84438349  0.47717094  0.78476835  1
  O  O11  1  0.78476835  0.84438349  0.47716994  1
  O  O12  1  0.73599920  0.11631708  0.87833140  1
  O  O13  1  0.87833240  0.73599920  0.11631708  1
  O  O14  1  0.11631708  0.87833240  0.73599820  1
  O  O15  1  0.26400080  0.88368292  0.12166860  1
  O  O16  1  0.12166760  0.26400080  0.88368292  1
  O  O17  1  0.88368292  0.12166760  0.26400180  1
  O  O18  1  0.51798167  0.45320632  0.83037388  1
  O  O19  1  0.83037288  0.51798167  0.45320732  1
  O  O20  1  0.45320632  0.83037288  0.51798267  1
  O  O21  1  0.48201833  0.54679368  0.16962612  1
  O  O22  1  0.16962712  0.48201833  0.54679268  1
  O  O23  1  0.54679368  0.16962712  0.48201733  1
loop_
_geom_bond_atom_site_label_1
_geom_bond_atom_site_label_2
_geom_bond_distance
_geom_bond_site_symmetry_2
Fe0 O1 1.987674 1_455
Fe0 O0 1.987677 1_554
Fe0 O2 1.987681 1_545
Fe0 O17 1.991651 1_455
Fe0 O16 1.991657 1_554
Fe0 O15 1.991658 1_545
Fe1 O4 1.987674 1_655
Fe1 O3 1.987677 1_556
Fe1 O5 1.987681 1_565
Fe1 O14 1.991651 1_655
Fe1 O13 1.991657 1_556
Fe1 O12 1.991658 1_565
Fe2 O21 1.984487 1_555
Fe2 O22 1.984488 1_555
Fe2 O23 1.984490 1_555
Fe2 O7 2.004790 1_555
Fe2 O8 2.004792 1_555
Fe2 O6 2.004793 1_555
Fe3 O18 1.984487 1_555
Fe3 O19 1.984488 1_555
Fe3 O20 1.984490 1_555
Fe3 O10 2.004790 1_555
Fe3 O11 2.004792 1_555
Fe3 O9 2.004793 1_555
O0 S0 1.467123 1_555
O1 S1 1.467120 1_555
O2 S2 1.467118 1_555
O3 S3 1.467123 1_555
O4 S4 1.467120 1_555
O5 S5 1.467118 1_555
O6 S0 1.471078 1_554
O7 S1 1.471076 1_455
O8 S2 1.471083 1_545
O9 S3 1.471078 1_556
O10 S4 1.471076 1_655
O11 S5 1.471083 1_565
O12 S0 1.464150 1_555
O13 S1 1.464152 1_555
O14 S2 1.464151 1_555
O15 S3 1.464150 1_555
O16 S4 1.464152 1_555
O17 S5 1.464151 1_555
O18 S0 1.469588 1_555
O19 S1 1.469590 1_555
O20 S2 1.469586 1_555
O21 S3 1.469588 1_555
O22 S4 1.469590 1_555
O23 S5 1.469586 1_555
