# generated using pymatgen
data_Zn2B2PbO6
_symmetry_space_group_name_H-M   'P 1'
_cell_length_a   5.03378800
_cell_length_b   10.74117000
_cell_length_c   11.52302100
_cell_angle_alpha   90.00000000
_cell_angle_beta   90.00000000
_cell_angle_gamma   90.00000000
_symmetry_Int_Tables_number   1
_chemical_formula_structural   Zn2B2PbO6
_chemical_formula_sum   'Zn8 B8 Pb4 O24'
_cell_volume   623.03560271
_cell_formula_units_Z   4
loop_
 _symmetry_equiv_pos_site_id
 _symmetry_equiv_pos_as_xyz
  1  'x, y, z'
loop_
 _atom_site_type_symbol
 _atom_site_label
 _atom_site_symmetry_multiplicity
 _atom_site_fract_x
 _atom_site_fract_y
 _atom_site_fract_z
 _atom_site_occupancy
  Zn  Zn0  1  0.18117300  0.84958500  0.50072900  1
  Zn  Zn1  1  0.68117300  0.15041500  0.00072900  1
  Zn  Zn2  1  0.31882700  0.34958500  0.50072900  1
  Zn  Zn3  1  0.81882700  0.15041500  0.49927100  1
  Zn  Zn4  1  0.31882700  0.84958500  0.99927100  1
  Zn  Zn5  1  0.81882700  0.65041500  0.00072900  1
  Zn  Zn6  1  0.68117300  0.65041500  0.49927100  1
  Zn  Zn7  1  0.18117300  0.34958500  0.99927100  1
  B  B0  1  0.69372900  0.41594400  0.10171000  1
  B  B1  1  0.30627100  0.08405600  0.60171000  1
  B  B2  1  0.30627100  0.58405600  0.89829000  1
  B  B3  1  0.80627100  0.91594400  0.10171000  1
  B  B4  1  0.19372900  0.08405600  0.89829000  1
  B  B5  1  0.69372900  0.91594400  0.39829000  1
  B  B6  1  0.80627100  0.41594400  0.39829000  1
  B  B7  1  0.19372900  0.58405600  0.60171000  1
  Pb  Pb0  1  0.25000000  0.55941000  0.25000000  1
  Pb  Pb1  1  0.75000000  0.44059000  0.75000000  1
  Pb  Pb2  1  0.25000000  0.05941000  0.25000000  1
  Pb  Pb3  1  0.75000000  0.94059000  0.75000000  1
  O  O0  1  0.66038400  0.52252600  0.37652500  1
  O  O1  1  0.33961600  0.47747400  0.62347500  1
  O  O2  1  0.31814800  0.18686500  0.94681100  1
  O  O3  1  0.31814800  0.68686500  0.55318900  1
  O  O4  1  0.33961600  0.97747400  0.87652500  1
  O  O5  1  0.68185200  0.81313500  0.05318900  1
  O  O6  1  0.83961600  0.02252600  0.37652500  1
  O  O7  1  0.68185200  0.31313500  0.44681100  1
  O  O8  1  0.57797100  0.58943900  0.87535600  1
  O  O9  1  0.92202900  0.08943900  0.87535600  1
  O  O10  1  0.66038400  0.02252600  0.12347500  1
  O  O11  1  0.16038400  0.47747400  0.87652500  1
  O  O12  1  0.18185200  0.68686500  0.94681100  1
  O  O13  1  0.92202900  0.58943900  0.62464400  1
  O  O14  1  0.18185200  0.18686500  0.55318900  1
  O  O15  1  0.57797100  0.08943900  0.62464400  1
  O  O16  1  0.07797100  0.91056100  0.12464400  1
  O  O17  1  0.42202900  0.91056100  0.37535600  1
  O  O18  1  0.16038400  0.97747400  0.62347500  1
  O  O19  1  0.81814800  0.31313500  0.05318900  1
  O  O20  1  0.07797100  0.41056100  0.37535600  1
  O  O21  1  0.83961600  0.52252600  0.12347500  1
  O  O22  1  0.81814800  0.81313500  0.44681100  1
  O  O23  1  0.42202900  0.41056100  0.12464400  1
loop_
_geom_bond_atom_site_label_1
_geom_bond_atom_site_label_2
_geom_bond_distance
_geom_bond_site_symmetry_2
B0 O21 1.383038 1_555
B0 O19 1.387194 1_555
B0 O23 1.394177 1_555
B1 O18 1.383038 1_545
B1 O14 1.387194 1_555
B1 O15 1.394177 1_555
B2 O11 1.383038 1_555
B2 O12 1.387194 1_555
B2 O8 1.394177 1_555
B3 O10 1.383038 1_565
B3 O5 1.387194 1_555
B3 O16 1.394177 1_655
B4 O4 1.383038 1_545
B4 O2 1.387194 1_555
B4 O9 1.394177 1_455
B5 O6 1.383038 1_565
B5 O22 1.387194 1_555
B5 O17 1.394177 1_555
B6 O0 1.383038 1_555
B6 O7 1.387194 1_555
B6 O20 1.394177 1_655
B7 O1 1.383038 1_555
B7 O3 1.387194 1_555
B7 O13 1.394177 1_455
O0 Zn6 1.974457 1_555
O0 Pb0 2.559306 1_555
O1 Zn2 1.974457 1_555
O1 Pb1 2.559306 1_555
O2 Zn1 1.969430 1_556
O2 Zn7 1.973740 1_555
O3 Zn6 1.969430 1_555
O3 Zn0 1.973740 1_555
O4 Zn4 1.974457 1_555
O4 Pb3 2.559306 1_555
O5 Zn4 1.969430 1_554
O5 Zn5 1.973740 1_555
O6 Zn3 1.974457 1_555
O6 Pb2 2.559306 1_655
O7 Zn2 1.969430 1_555
O7 Zn3 1.973740 1_555
O8 Zn5 1.996499 1_556
O8 Pb1 2.322198 1_555
O9 Zn1 1.996499 1_556
O9 Pb3 2.322198 1_545
O10 Zn1 1.974457 1_555
O10 Pb2 2.559306 1_555
O11 Zn7 1.974457 1_555
O11 Pb1 2.559306 1_455
O12 Zn5 1.969430 1_456
O12 Zn4 1.973740 1_555
O13 Zn6 1.996499 1_555
O13 Pb1 2.322198 1_555
O14 Zn3 1.969430 1_455
O14 Zn2 1.973740 1_555
O15 Zn3 1.996499 1_555
O15 Pb3 2.322198 1_545
O16 Zn4 1.996499 1_554
O16 Pb2 2.322198 1_565
O17 Zn0 1.996499 1_555
O17 Pb2 2.322198 1_565
O18 Zn0 1.974457 1_555
O18 Pb3 2.559306 1_455
O19 Zn7 1.969430 1_654
O19 Zn1 1.973740 1_555
O20 Zn2 1.996499 1_555
O20 Pb0 2.322198 1_555
O21 Zn5 1.974457 1_555
O21 Pb0 2.559306 1_655
O22 Zn0 1.969430 1_655
O22 Zn6 1.973740 1_555
O23 Zn7 1.996499 1_554
O23 Pb0 2.322198 1_555
