# generated using pymatgen
data_GePb5O7
_symmetry_space_group_name_H-M   'P 1'
_cell_length_a   9.55875700
_cell_length_b   11.88163100
_cell_length_c   17.66468600
_cell_angle_alpha   90.00000000
_cell_angle_beta   90.00000000
_cell_angle_gamma   90.00000000
_symmetry_Int_Tables_number   1
_chemical_formula_structural   GePb5O7
_chemical_formula_sum   'Ge8 Pb40 O56'
_cell_volume   2006.24239688
_cell_formula_units_Z   8
loop_
 _symmetry_equiv_pos_site_id
 _symmetry_equiv_pos_as_xyz
  1  'x, y, z'
loop_
 _atom_site_type_symbol
 _atom_site_label
 _atom_site_symmetry_multiplicity
 _atom_site_fract_x
 _atom_site_fract_y
 _atom_site_fract_z
 _atom_site_occupancy
  Ge  Ge0  1  0.51253700  0.18837400  0.59990200  1
  Ge  Ge1  1  0.98746300  0.68837400  0.59990200  1
  Ge  Ge2  1  0.01253700  0.31162600  0.40009800  1
  Ge  Ge3  1  0.98746300  0.81162600  0.09990200  1
  Ge  Ge4  1  0.48746300  0.68837400  0.90009800  1
  Ge  Ge5  1  0.51253700  0.31162600  0.09990200  1
  Ge  Ge6  1  0.48746300  0.81162600  0.40009800  1
  Ge  Ge7  1  0.01253700  0.18837400  0.90009800  1
  Pb  Pb0  1  0.70367900  0.07780900  0.41884800  1
  Pb  Pb1  1  0.70849100  0.88594800  0.57643800  1
  Pb  Pb2  1  0.01406700  0.88700900  0.42703800  1
  Pb  Pb3  1  0.98028400  0.41784100  0.77019500  1
  Pb  Pb4  1  0.51406700  0.61299100  0.57296200  1
  Pb  Pb5  1  0.29150900  0.11405200  0.42356200  1
  Pb  Pb6  1  0.98028400  0.08215900  0.27019500  1
  Pb  Pb7  1  0.98593300  0.11299100  0.57296200  1
  Pb  Pb8  1  0.29150900  0.38594800  0.92356200  1
  Pb  Pb9  1  0.70367900  0.42219100  0.91884800  1
  Pb  Pb10  1  0.48028400  0.41784100  0.72980500  1
  Pb  Pb11  1  0.48593300  0.11299100  0.92703800  1
  Pb  Pb12  1  0.01406700  0.61299100  0.92703800  1
  Pb  Pb13  1  0.24278600  0.84836400  0.25702500  1
  Pb  Pb14  1  0.79632100  0.57780900  0.41884800  1
  Pb  Pb15  1  0.25721400  0.15163600  0.75702500  1
  Pb  Pb16  1  0.29632100  0.92219100  0.58115200  1
  Pb  Pb17  1  0.74278600  0.65163600  0.74297500  1
  Pb  Pb18  1  0.48593300  0.38700900  0.42703800  1
  Pb  Pb19  1  0.48028400  0.08215900  0.22980500  1
  Pb  Pb20  1  0.20367900  0.07780900  0.08115200  1
  Pb  Pb21  1  0.51971600  0.91784100  0.77019500  1
  Pb  Pb22  1  0.24278600  0.65163600  0.75702500  1
  Pb  Pb23  1  0.01971600  0.91784100  0.72980500  1
  Pb  Pb24  1  0.01971600  0.58215900  0.22980500  1
  Pb  Pb25  1  0.79150900  0.38594800  0.57643800  1
  Pb  Pb26  1  0.75721400  0.15163600  0.74297500  1
  Pb  Pb27  1  0.79632100  0.92219100  0.91884800  1
  Pb  Pb28  1  0.70849100  0.61405200  0.07643800  1
  Pb  Pb29  1  0.20849100  0.88594800  0.92356200  1
  Pb  Pb30  1  0.51971600  0.58215900  0.27019500  1
  Pb  Pb31  1  0.20849100  0.61405200  0.42356200  1
  Pb  Pb32  1  0.25721400  0.34836400  0.25702500  1
  Pb  Pb33  1  0.51406700  0.88700900  0.07296200  1
  Pb  Pb34  1  0.74278600  0.84836400  0.24297500  1
  Pb  Pb35  1  0.29632100  0.57780900  0.08115200  1
  Pb  Pb36  1  0.75721400  0.34836400  0.24297500  1
  Pb  Pb37  1  0.20367900  0.42219100  0.58115200  1
  Pb  Pb38  1  0.79150900  0.11405200  0.07643800  1
  Pb  Pb39  1  0.98593300  0.38700900  0.07296200  1
  O  O0  1  0.59216600  0.89911900  0.45809800  1
  O  O1  1  0.85499900  0.01573100  0.66870500  1
  O  O2  1  0.64500100  0.51573100  0.66870500  1
  O  O3  1  0.09216600  0.89911900  0.04190200  1
  O  O4  1  0.14500100  0.98426900  0.33129500  1
  O  O5  1  0.85228200  0.99154500  0.50118700  1
  O  O6  1  0.03470600  0.37980000  0.31021300  1
  O  O7  1  0.40783400  0.10088100  0.54190200  1
  O  O8  1  0.67223200  0.03191500  0.82983900  1
  O  O9  1  0.46529400  0.62020000  0.81021300  1
  O  O10  1  0.32776800  0.53191500  0.67016100  1
  O  O11  1  0.40783400  0.39911900  0.04190200  1
  O  O12  1  0.96529400  0.87980000  0.18978700  1
  O  O13  1  0.06846100  0.67773000  0.11595700  1
  O  O14  1  0.14771800  0.00845500  0.49881300  1
  O  O15  1  0.43153900  0.32227000  0.61595700  1
  O  O16  1  0.93153900  0.17773000  0.38404300  1
  O  O17  1  0.35228200  0.50845500  0.49881300  1
  O  O18  1  0.82776800  0.96808500  0.32983900  1
  O  O19  1  0.64500100  0.98426900  0.16870500  1
  O  O20  1  0.14500100  0.51573100  0.83129500  1
  O  O21  1  0.46529400  0.87980000  0.31021300  1
  O  O22  1  0.67926000  0.28516900  0.05668200  1
  O  O23  1  0.35499900  0.48426900  0.33129500  1
  O  O24  1  0.85228200  0.50845500  0.00118700  1
  O  O25  1  0.32776800  0.96808500  0.17016100  1
  O  O26  1  0.35499900  0.01573100  0.83129500  1
  O  O27  1  0.90783400  0.10088100  0.95809800  1
  O  O28  1  0.17926000  0.28516900  0.44331800  1
  O  O29  1  0.93153900  0.32227000  0.88404300  1
  O  O30  1  0.67223200  0.46808500  0.32983900  1
  O  O31  1  0.56846100  0.82227000  0.88404300  1
  O  O32  1  0.03470600  0.12020000  0.81021300  1
  O  O33  1  0.82074000  0.71483100  0.55668200  1
  O  O34  1  0.85499900  0.48426900  0.16870500  1
  O  O35  1  0.43153900  0.17773000  0.11595700  1
  O  O36  1  0.17223200  0.46808500  0.17016100  1
  O  O37  1  0.59216600  0.60088100  0.95809800  1
  O  O38  1  0.64771800  0.00845500  0.00118700  1
  O  O39  1  0.17926000  0.21483100  0.94331800  1
  O  O40  1  0.56846100  0.67773000  0.38404300  1
  O  O41  1  0.14771800  0.49154500  0.99881300  1
  O  O42  1  0.82776800  0.53191500  0.82983900  1
  O  O43  1  0.53470600  0.12020000  0.68978700  1
  O  O44  1  0.90783400  0.39911900  0.45809800  1
  O  O45  1  0.32074000  0.78516900  0.44331800  1
  O  O46  1  0.64771800  0.49154500  0.50118700  1
  O  O47  1  0.67926000  0.21483100  0.55668200  1
  O  O48  1  0.35228200  0.99154500  0.99881300  1
  O  O49  1  0.17223200  0.03191500  0.67016100  1
  O  O50  1  0.09216600  0.60088100  0.54190200  1
  O  O51  1  0.06846100  0.82227000  0.61595700  1
  O  O52  1  0.82074000  0.78516900  0.05668200  1
  O  O53  1  0.53470600  0.37980000  0.18978700  1
  O  O54  1  0.32074000  0.71483100  0.94331800  1
  O  O55  1  0.96529400  0.62020000  0.68978700  1
loop_
_geom_bond_atom_site_label_1
_geom_bond_atom_site_label_2
_geom_bond_distance
_geom_bond_site_symmetry_2
Ge0 O7 1.769760 1_555
Ge0 O15 1.791885 1_555
Ge0 O47 1.794845 1_555
Ge0 O43 1.795024 1_555
Ge1 O50 1.769760 1_655
Ge1 O51 1.791885 1_655
Ge1 O33 1.794845 1_555
Ge1 O55 1.795024 1_555
Ge2 O44 1.769760 1_455
Ge2 O16 1.791885 1_455
Ge2 O28 1.794845 1_555
Ge2 O6 1.795024 1_555
Ge3 O3 1.769760 1_655
Ge3 O13 1.791885 1_655
Ge3 O52 1.794845 1_555
Ge3 O12 1.795024 1_555
Ge4 O37 1.769760 1_555
Ge4 O31 1.791885 1_555
Ge4 O54 1.794845 1_555
Ge4 O9 1.795024 1_555
Ge5 O11 1.769760 1_555
Ge5 O35 1.791885 1_555
Ge5 O22 1.794845 1_555
Ge5 O53 1.795024 1_555
Ge6 O0 1.769760 1_555
Ge6 O40 1.791885 1_555
Ge6 O45 1.794845 1_555
Ge6 O21 1.795024 1_555
Ge7 O27 1.769760 1_455
Ge7 O29 1.791885 1_455
Ge7 O39 1.794845 1_555
Ge7 O32 1.795024 1_555
O0 Pb1 2.372930 1_555
O0 Pb0 2.474791 1_565
O1 Pb23 2.235334 1_645
O1 Pb26 2.280875 1_555
O1 Pb7 2.400467 1_555
O1 Pb1 2.644911 1_545
O2 Pb10 2.235334 1_555
O2 Pb17 2.280875 1_555
O2 Pb4 2.400467 1_555
O2 Pb25 2.644911 1_555
O3 Pb29 2.372930 1_554
O3 Pb20 2.474791 1_565
O4 Pb6 2.235334 1_465
O4 Pb13 2.280875 1_555
O4 Pb2 2.400467 1_555
O4 Pb5 2.644911 1_565
O5 Pb0 2.276794 1_565
O5 Pb1 2.286992 1_555
O5 Pb7 2.306905 1_565
O5 Pb2 2.376948 1_655
O6 Pb32 2.354988 1_555
O6 Pb24 2.796237 1_555
O7 Pb5 2.372930 1_555
O7 Pb16 2.474791 1_545
O8 Pb26 2.244500 1_555
O8 Pb21 2.252219 1_545
O8 Pb27 2.361934 1_545
O8 Pb11 2.654662 1_555
O9 Pb22 2.354988 1_555
O9 Pb10 2.796237 1_555
O10 Pb22 2.244500 1_555
O10 Pb10 2.252219 1_555
O10 Pb37 2.361934 1_555
O10 Pb4 2.654662 1_555
O11 Pb8 2.372930 1_554
O11 Pb35 2.474791 1_555
O12 Pb34 2.354988 1_555
O12 Pb6 2.796237 1_565
O13 Pb24 2.356063 1_555
O13 Pb35 2.555669 1_555
O14 Pb16 2.276794 1_545
O14 Pb5 2.286992 1_555
O14 Pb2 2.306905 1_545
O14 Pb7 2.376948 1_455
O15 Pb10 2.356063 1_555
O15 Pb37 2.555669 1_555
O16 Pb6 2.356063 1_555
O16 Pb0 2.555669 1_555
O17 Pb37 2.276794 1_555
O17 Pb31 2.286992 1_555
O17 Pb18 2.306905 1_555
O17 Pb4 2.376948 1_555
O18 Pb34 2.244500 1_555
O18 Pb6 2.252219 1_565
O18 Pb0 2.361934 1_565
O18 Pb2 2.654662 1_655
O19 Pb19 2.235334 1_565
O19 Pb34 2.280875 1_555
O19 Pb33 2.400467 1_555
O19 Pb38 2.644911 1_565
O20 Pb3 2.235334 1_455
O20 Pb22 2.280875 1_555
O20 Pb12 2.400467 1_555
O20 Pb8 2.644911 1_555
O21 Pb13 2.354988 1_555
O21 Pb19 2.796237 1_565
O22 Pb38 2.325238 1_555
O23 Pb30 2.235334 1_555
O23 Pb32 2.280875 1_555
O23 Pb18 2.400467 1_555
O23 Pb31 2.644911 1_555
O24 Pb9 2.276794 1_554
O24 Pb28 2.286992 1_555
O24 Pb39 2.306905 1_555
O24 Pb12 2.376948 1_654
O25 Pb13 2.244500 1_555
O25 Pb19 2.252219 1_565
O25 Pb20 2.361934 1_565
O25 Pb33 2.654662 1_555
O26 Pb21 2.235334 1_545
O26 Pb15 2.280875 1_555
O26 Pb11 2.400467 1_555
O26 Pb29 2.644911 1_545
O27 Pb38 2.372930 1_556
O27 Pb27 2.474791 1_545
O28 Pb5 2.325238 1_555
O29 Pb3 2.356063 1_555
O29 Pb9 2.555669 1_555
O30 Pb36 2.244500 1_555
O30 Pb30 2.252219 1_555
O30 Pb14 2.361934 1_555
O30 Pb18 2.654662 1_555
O31 Pb21 2.356063 1_555
O31 Pb27 2.555669 1_555
O32 Pb15 2.354988 1_555
O32 Pb23 2.796237 1_545
O33 Pb1 2.325238 1_555
O34 Pb24 2.235334 1_655
O34 Pb36 2.280875 1_555
O34 Pb39 2.400467 1_555
O34 Pb28 2.644911 1_555
O35 Pb19 2.356063 1_555
O35 Pb20 2.555669 1_555
O36 Pb32 2.244500 1_555
O36 Pb24 2.252219 1_555
O36 Pb35 2.361934 1_555
O36 Pb39 2.654662 1_455
O37 Pb28 2.372930 1_556
O37 Pb9 2.474791 1_555
O38 Pb27 2.276794 1_544
O38 Pb38 2.286992 1_555
O38 Pb33 2.306905 1_545
O38 Pb11 2.376948 1_554
O39 Pb8 2.325238 1_555
O40 Pb30 2.356063 1_555
O40 Pb14 2.555669 1_555
O41 Pb35 2.276794 1_556
O41 Pb8 2.286992 1_555
O41 Pb12 2.306905 1_555
O41 Pb39 2.376948 1_456
O42 Pb17 2.244500 1_555
O42 Pb3 2.252219 1_555
O42 Pb9 2.361934 1_555
O42 Pb12 2.654662 1_655
O43 Pb26 2.354988 1_555
O43 Pb21 2.796237 1_545
O44 Pb25 2.372930 1_555
O44 Pb14 2.474791 1_555
O45 Pb31 2.325238 1_555
O46 Pb14 2.276794 1_555
O46 Pb25 2.286992 1_555
O46 Pb4 2.306905 1_555
O46 Pb18 2.376948 1_555
O47 Pb25 2.325238 1_555
O48 Pb20 2.276794 1_566
O48 Pb29 2.286992 1_555
O48 Pb11 2.306905 1_565
O48 Pb33 2.376948 1_556
O49 Pb15 2.244500 1_555
O49 Pb23 2.252219 1_545
O49 Pb16 2.361934 1_545
O49 Pb7 2.654662 1_455
O50 Pb31 2.372930 1_555
O50 Pb37 2.474791 1_555
O51 Pb23 2.356063 1_555
O51 Pb16 2.555669 1_555
O52 Pb28 2.325238 1_555
O53 Pb36 2.354988 1_555
O53 Pb30 2.796237 1_555
O54 Pb29 2.325238 1_555
O55 Pb17 2.354988 1_555
O55 Pb3 2.796237 1_555
