# generated using pymatgen
data_Rb2UCr(IO6)2
_symmetry_space_group_name_H-M   'P 1'
_cell_length_a   7.45067800
_cell_length_b   11.54242700
_cell_length_c   16.40635573
_cell_angle_alpha   72.98279600
_cell_angle_beta   90.00000000
_cell_angle_gamma   90.00000000
_symmetry_Int_Tables_number   1
_chemical_formula_structural   Rb2UCr(IO6)2
_chemical_formula_sum   'Rb8 U4 Cr4 I8 O48'
_cell_volume   1349.15386165
_cell_formula_units_Z   4
loop_
 _symmetry_equiv_pos_site_id
 _symmetry_equiv_pos_as_xyz
  1  'x, y, z'
loop_
 _atom_site_type_symbol
 _atom_site_label
 _atom_site_symmetry_multiplicity
 _atom_site_fract_x
 _atom_site_fract_y
 _atom_site_fract_z
 _atom_site_occupancy
  Rb  Rb0  1  0.25147500  0.49935300  0.44438400  1
  Rb  Rb1  1  0.24966000  0.74744500  0.13964600  1
  Rb  Rb2  1  0.74852500  0.50064700  0.55561600  1
  Rb  Rb3  1  0.75034000  0.25255500  0.86035400  1
  Rb  Rb4  1  0.75147500  0.50064700  0.05561600  1
  Rb  Rb5  1  0.74966000  0.25255500  0.36035400  1
  Rb  Rb6  1  0.25034000  0.74744500  0.63964600  1
  Rb  Rb7  1  0.24852500  0.49935300  0.94438400  1
  U  U0  1  0.48765500  0.16446600  0.13231500  1
  U  U1  1  0.98765500  0.83553400  0.36768500  1
  U  U2  1  0.01234500  0.16446600  0.63231500  1
  U  U3  1  0.51234500  0.83553400  0.86768500  1
  Cr  Cr0  1  0.73803300  0.92268400  0.05321800  1
  Cr  Cr1  1  0.76196700  0.92268400  0.55321800  1
  Cr  Cr2  1  0.26196700  0.07731600  0.94678200  1
  Cr  Cr3  1  0.23803300  0.07731600  0.44678200  1
  I  I0  1  0.51750900  0.16664000  0.60648200  1
  I  I1  1  0.01750900  0.83336000  0.89351800  1
  I  I2  1  0.71809800  0.60379100  0.77618900  1
  I  I3  1  0.48249100  0.83336000  0.39351800  1
  I  I4  1  0.28190200  0.39620900  0.22381100  1
  I  I5  1  0.98249100  0.16664000  0.10648200  1
  I  I6  1  0.78190200  0.60379100  0.27619000  1
  I  I7  1  0.21809800  0.39620900  0.72381100  1
  O  O0  1  0.29167000  0.08090900  0.04986600  1
  O  O1  1  0.82381800  0.78675600  0.83851100  1
  O  O2  1  0.89178900  0.51209600  0.21737600  1
  O  O3  1  0.97525800  0.29510000  0.01191900  1
  O  O4  1  0.68247500  0.06333400  0.06243500  1
  O  O5  1  0.52270500  0.70269700  0.78208500  1
  O  O6  1  0.97729500  0.70269700  0.28208500  1
  O  O7  1  0.98082400  0.96808100  0.27481900  1
  O  O8  1  0.37938600  0.18383900  0.88182300  1
  O  O9  1  0.17618200  0.21324400  0.16148900  1
  O  O10  1  0.20479300  0.78873700  0.83429600  1
  O  O11  1  0.18247500  0.93666600  0.43756500  1
  O  O12  1  0.67618200  0.78675600  0.33851100  1
  O  O13  1  0.79167000  0.91909100  0.45013400  1
  O  O14  1  0.47729500  0.29730300  0.21791500  1
  O  O15  1  0.02270500  0.29730300  0.71791500  1
  O  O16  1  0.99640900  0.70252700  0.46107300  1
  O  O17  1  0.78492200  0.49957100  0.38254700  1
  O  O18  1  0.81752500  0.06333400  0.56243500  1
  O  O19  1  0.00359100  0.29747300  0.53892700  1
  O  O20  1  0.79520700  0.21126300  0.16570400  1
  O  O21  1  0.70833000  0.91909100  0.95013400  1
  O  O22  1  0.47525800  0.70490000  0.48808100  1
  O  O23  1  0.48082400  0.03191900  0.22518100  1
  O  O24  1  0.87938600  0.81616100  0.61817700  1
  O  O25  1  0.52474200  0.29510000  0.51191900  1
  O  O26  1  0.44855300  0.09875300  0.42192600  1
  O  O27  1  0.29520700  0.78873700  0.33429600  1
  O  O28  1  0.49640900  0.29747300  0.03892700  1
  O  O29  1  0.60821100  0.51209600  0.71737600  1
  O  O30  1  0.39178900  0.48790400  0.28262400  1
  O  O31  1  0.31752500  0.93666600  0.93756500  1
  O  O32  1  0.32381800  0.21324400  0.66148900  1
  O  O33  1  0.21507800  0.50042900  0.61745300  1
  O  O34  1  0.02474200  0.70490000  0.98808100  1
  O  O35  1  0.50359100  0.70252700  0.96107300  1
  O  O36  1  0.51917600  0.96808100  0.77481900  1
  O  O37  1  0.12061400  0.18383900  0.38182300  1
  O  O38  1  0.01917600  0.03191900  0.72518100  1
  O  O39  1  0.10821100  0.48790400  0.78262400  1
  O  O40  1  0.20833000  0.08090900  0.54986600  1
  O  O41  1  0.62061400  0.81616100  0.11817700  1
  O  O42  1  0.55144700  0.90124700  0.57807400  1
  O  O43  1  0.28492200  0.50042900  0.11745300  1
  O  O44  1  0.05144700  0.09875300  0.92192600  1
  O  O45  1  0.94855300  0.90124700  0.07807400  1
  O  O46  1  0.70479300  0.21126300  0.66570400  1
  O  O47  1  0.71507800  0.49957100  0.88254700  1
loop_
_geom_bond_atom_site_label_1
_geom_bond_atom_site_label_2
_geom_bond_distance
_geom_bond_site_symmetry_2
Cr0 O45 1.621329 1_555
Cr0 O41 1.626635 1_555
Cr0 O21 1.718144 1_554
Cr0 O4 1.724376 1_565
Cr1 O42 1.621329 1_555
Cr1 O24 1.626635 1_555
Cr1 O13 1.718144 1_555
Cr1 O18 1.724376 1_565
Cr2 O44 1.621329 1_555
Cr2 O8 1.626635 1_555
Cr2 O0 1.718144 1_556
Cr2 O31 1.724376 1_545
Cr3 O26 1.621329 1_555
Cr3 O37 1.626635 1_555
Cr3 O40 1.718144 1_555
Cr3 O11 1.724376 1_545
I0 O25 1.806079 1_555
I0 O46 1.857246 1_555
I0 O32 1.862947 1_555
I1 O34 1.806079 1_555
I1 O10 1.857246 1_555
I1 O1 1.862947 1_455
I2 O47 1.806601 1_555
I2 O29 1.821893 1_555
I2 O5 1.869937 1_555
I3 O22 1.806079 1_555
I3 O27 1.857246 1_555
I3 O12 1.862947 1_555
I4 O43 1.806601 1_555
I4 O30 1.821893 1_555
I4 O14 1.869937 1_555
I5 O3 1.806079 1_555
I5 O20 1.857246 1_555
I5 O9 1.862947 1_655
I6 O17 1.806588 1_555
I6 O2 1.821904 1_555
I6 O6 1.869933 1_555
I7 O33 1.806601 1_555
I7 O39 1.821893 1_555
I7 O15 1.869937 1_555
O0 U0 2.378188 1_555
O1 U3 2.467670 1_555
O2 Rb4 2.891162 1_555
O2 Rb5 3.388979 1_555
O3 Rb7 3.066311 1_654
O3 Rb4 3.149337 1_555
O3 Rb3 3.153965 1_554
O4 U0 2.359516 1_555
O4 Rb3 3.432121 1_554
O5 U3 2.364212 1_555
O5 Rb6 3.023158 1_555
O6 U1 2.364212 1_555
O6 Rb1 3.023158 1_655
O7 U1 1.816647 1_555
O8 Rb3 2.868544 1_555
O9 U0 2.467670 1_555
O10 U3 2.452727 1_555
O10 Rb7 3.315731 1_555
O10 Rb6 3.381069 1_555
O11 U1 2.359516 1_455
O11 Rb6 3.432121 1_555
O12 U1 2.467670 1_555
O13 U1 2.378188 1_555
O14 U0 2.364212 1_555
O14 Rb5 3.023158 1_555
O15 U2 2.364212 1_555
O15 Rb3 3.023158 1_455
O16 U1 1.825345 1_555
O16 Rb2 3.021787 1_555
O16 Rb0 3.092244 1_655
O17 Rb2 2.855995 1_555
O17 Rb5 2.989711 1_555
O18 U2 2.359516 1_655
O18 Rb5 3.432121 1_555
O19 U2 1.825345 1_555
O19 Rb0 3.021787 1_555
O19 Rb2 3.092244 1_455
O20 U0 2.452727 1_555
O20 Rb4 3.315731 1_555
O20 Rb5 3.381069 1_555
O21 U3 2.378188 1_555
O22 Rb2 3.066311 1_555
O22 Rb0 3.149337 1_555
O22 Rb6 3.153965 1_555
O23 U0 1.816647 1_555
O24 Rb6 2.868544 1_655
O25 Rb0 3.066311 1_555
O25 Rb2 3.149337 1_555
O25 Rb5 3.153965 1_555
O26 Rb5 2.855762 1_555
O27 U1 2.452727 1_455
O27 Rb0 3.315731 1_555
O27 Rb1 3.381069 1_555
O28 U0 1.825345 1_555
O28 Rb7 3.021787 1_554
O28 Rb4 3.092244 1_555
O29 Rb2 2.891162 1_555
O29 Rb3 3.388979 1_555
O30 Rb0 2.891162 1_555
O30 Rb1 3.388979 1_555
O31 U3 2.359516 1_555
O31 Rb1 3.432121 1_556
O32 U2 2.467670 1_555
O33 Rb0 2.855995 1_555
O33 Rb6 2.989711 1_555
O34 Rb4 3.066311 1_456
O34 Rb7 3.149337 1_555
O34 Rb1 3.153965 1_556
O35 U3 1.825345 1_555
O35 Rb4 3.021787 1_556
O35 Rb7 3.092244 1_555
O36 U3 1.816647 1_555
O37 Rb5 2.868544 1_455
O38 U2 1.816647 1_555
O39 Rb7 2.891162 1_555
O39 Rb6 3.388979 1_555
O40 U2 2.378188 1_555
O41 Rb1 2.868544 1_555
O42 Rb6 2.855762 1_555
O43 Rb7 2.855995 1_554
O43 Rb1 2.989711 1_555
O44 Rb3 2.855762 1_455
O45 Rb1 2.855762 1_655
O46 U2 2.452727 1_655
O46 Rb2 3.315731 1_555
O46 Rb3 3.381069 1_555
O47 Rb4 2.855995 1_556
O47 Rb3 2.989711 1_555
