# generated using pymatgen
data_Cs2CuO2
_symmetry_space_group_name_H-M   'P 1'
_cell_length_a   6.28457342
_cell_length_b   6.28457342
_cell_length_c   6.28457342
_cell_angle_alpha   134.88444316
_cell_angle_beta   134.88444316
_cell_angle_gamma   65.70980181
_symmetry_Int_Tables_number   1
_chemical_formula_structural   Cs2CuO2
_chemical_formula_sum   'Cs2 Cu1 O2'
_cell_volume   122.73883613
_cell_formula_units_Z   1
loop_
 _symmetry_equiv_pos_site_id
 _symmetry_equiv_pos_as_xyz
  1  'x, y, z'
loop_
 _atom_site_type_symbol
 _atom_site_label
 _atom_site_symmetry_multiplicity
 _atom_site_fract_x
 _atom_site_fract_y
 _atom_site_fract_z
 _atom_site_occupancy
  Cs  Cs0  1  0.75000000  0.25000000  0.50000000  1
  Cs  Cs1  1  0.25000000  0.75000000  0.50000000  1
  Cu  Cu0  1  0.00000000  0.00000000  0.00000000  1
  O  O0  1  0.50000000  0.00000000  0.50000000  1
  O  O1  1  0.00000000  0.50000000  0.50000000  1
loop_
_geom_bond_atom_site_label_1
_geom_bond_atom_site_label_2
_geom_bond_distance
_geom_bond_site_symmetry_2
Cs0 O0 2.639669 1_555
Cs0 O1 2.639669 1_655
Cs1 O1 2.639669 1_555
Cs1 O0 2.639669 1_565
Cu0 O1 2.410856 1_544
Cu0 O1 2.410856 1_555
Cu0 O0 2.410856 1_555
Cu0 O0 2.410856 1_454
