# generated using pymatgen
data_NiAs2S6(NF3)6
_symmetry_space_group_name_H-M   'P 1'
_cell_length_a   9.17039600
_cell_length_b   9.56288500
_cell_length_c   16.33306268
_cell_angle_alpha   54.40948209
_cell_angle_beta   90.00000000
_cell_angle_gamma   90.00000000
_symmetry_Int_Tables_number   1
_chemical_formula_structural   NiAs2S6(NF3)6
_chemical_formula_sum   'Ni2 As4 S12 N12 F36'
_cell_volume   1164.77077763
_cell_formula_units_Z   2
loop_
 _symmetry_equiv_pos_site_id
 _symmetry_equiv_pos_as_xyz
  1  'x, y, z'
loop_
 _atom_site_type_symbol
 _atom_site_label
 _atom_site_symmetry_multiplicity
 _atom_site_fract_x
 _atom_site_fract_y
 _atom_site_fract_z
 _atom_site_occupancy
  Ni  Ni0  1  0.00000000  0.00000000  0.00000000  1
  Ni  Ni1  1  0.50000000  0.00000000  0.50000000  1
  As  As0  1  0.44916800  0.74308000  0.25515700  1
  As  As1  1  0.55083200  0.25692000  0.74484300  1
  As  As2  1  0.94916800  0.25692000  0.24484300  1
  As  As3  1  0.05083200  0.74308000  0.75515700  1
  S  S0  1  0.50290600  0.17361200  0.24421300  1
  S  S1  1  0.19058400  0.24574400  0.45793900  1
  S  S2  1  0.49709400  0.82638800  0.75578700  1
  S  S3  1  0.69058400  0.75425600  0.04206100  1
  S  S4  1  0.00290600  0.82638800  0.25578700  1
  S  S5  1  0.80941600  0.75425600  0.54206100  1
  S  S6  1  0.99709400  0.17361200  0.74421300  1
  S  S7  1  0.70076100  0.34512500  0.46047800  1
  S  S8  1  0.29923900  0.65487500  0.53952200  1
  S  S9  1  0.30941600  0.24574400  0.95793900  1
  S  S10  1  0.79923900  0.34512500  0.96047800  1
  S  S11  1  0.20076100  0.65487500  0.03952200  1
  N  N0  1  0.10923100  0.78176000  0.03409300  1
  N  N1  1  0.19526600  0.13650000  0.96471800  1
  N  N2  1  0.98885200  0.08059800  0.85166800  1
  N  N3  1  0.51114800  0.08059800  0.35166800  1
  N  N4  1  0.39076900  0.78176000  0.53409300  1
  N  N5  1  0.69526600  0.86350000  0.53528200  1
  N  N6  1  0.60923100  0.21824000  0.46590700  1
  N  N7  1  0.80473400  0.86350000  0.03528200  1
  N  N8  1  0.48885200  0.91940200  0.64833200  1
  N  N9  1  0.89076900  0.21824000  0.96590700  1
  N  N10  1  0.30473400  0.13650000  0.46471800  1
  N  N11  1  0.01114800  0.91940200  0.14833200  1
  F  F0  1  0.79580900  0.38387200  0.23003500  1
  F  F1  1  0.56825800  0.59630000  0.25576600  1
  F  F2  1  0.33012800  0.89094100  0.25454400  1
  F  F3  1  0.56772900  0.13889500  0.87787600  1
  F  F4  1  0.43227100  0.86110500  0.12212400  1
  F  F5  1  0.06825800  0.40370000  0.24423400  1
  F  F6  1  0.16987200  0.89094100  0.75454400  1
  F  F7  1  0.20765700  0.30572000  0.53577600  1
  F  F8  1  0.70419100  0.38387200  0.73003500  1
  F  F9  1  0.83012800  0.10905900  0.24545600  1
  F  F10  1  0.43174200  0.40370000  0.74423400  1
  F  F11  1  0.64581500  0.26745500  0.02972600  1
  F  F12  1  0.44934300  0.37938300  0.18257000  1
  F  F13  1  0.03668500  0.62262400  0.88862200  1
  F  F14  1  0.60030300  0.87063100  0.24087000  1
  F  F15  1  0.93174200  0.59630000  0.75576600  1
  F  F16  1  0.70765700  0.69428000  0.96422400  1
  F  F17  1  0.35418500  0.73254500  0.97027400  1
  F  F18  1  0.06772900  0.86110500  0.62212400  1
  F  F19  1  0.46331500  0.62262400  0.38862200  1
  F  F20  1  0.05065700  0.37938300  0.68257000  1
  F  F21  1  0.85418500  0.26745500  0.52972600  1
  F  F22  1  0.29580900  0.61612800  0.26996500  1
  F  F23  1  0.55065700  0.62061700  0.81743000  1
  F  F24  1  0.96331500  0.37737600  0.11137800  1
  F  F25  1  0.79234300  0.69428000  0.46422400  1
  F  F26  1  0.20419100  0.61612800  0.76996500  1
  F  F27  1  0.10030300  0.12936900  0.25913000  1
  F  F28  1  0.14581500  0.73254500  0.47027400  1
  F  F29  1  0.39969700  0.12936900  0.75913000  1
  F  F30  1  0.89969700  0.87063100  0.74087000  1
  F  F31  1  0.29234300  0.30572000  0.03577600  1
  F  F32  1  0.53668500  0.37737600  0.61137800  1
  F  F33  1  0.93227100  0.13889500  0.37787600  1
  F  F34  1  0.66987200  0.10905900  0.74545600  1
  F  F35  1  0.94934300  0.62061700  0.31743000  1
loop_
_geom_bond_atom_site_label_1
_geom_bond_atom_site_label_2
_geom_bond_distance
_geom_bond_site_symmetry_2
As0 F14 1.769706 1_555
As0 F1 1.773906 1_555
As0 F4 1.778924 1_555
As0 F22 1.780012 1_555
As0 F19 1.781254 1_555
As0 F2 1.781752 1_555
As1 F29 1.769706 1_555
As1 F10 1.773906 1_555
As1 F3 1.778924 1_555
As1 F8 1.780012 1_555
As1 F32 1.781254 1_555
As1 F34 1.781752 1_555
As2 F27 1.769706 1_655
As2 F5 1.773906 1_655
As2 F33 1.778924 1_555
As2 F0 1.780012 1_555
As2 F24 1.781254 1_555
As2 F9 1.781752 1_555
As3 F30 1.769706 1_455
As3 F15 1.773906 1_455
As3 F18 1.778924 1_555
As3 F26 1.780012 1_555
As3 F13 1.781254 1_555
As3 F6 1.781752 1_555
N0 S11 1.435085 1_555
N0 Ni0 2.077583 1_565
N1 S9 1.436937 1_555
N1 Ni0 2.089713 1_556
N2 S6 1.435295 1_555
N2 Ni0 2.073778 1_656
N3 S0 1.435295 1_555
N3 Ni1 2.073778 1_555
N4 S8 1.435085 1_555
N4 Ni1 2.077583 1_565
N5 S5 1.436937 1_555
N5 Ni1 2.089713 1_565
N6 S7 1.435085 1_555
N6 Ni1 2.077583 1_555
N7 S3 1.436937 1_555
N7 Ni0 2.089713 1_665
N8 S2 1.435295 1_555
N8 Ni1 2.073778 1_565
N9 S10 1.435085 1_555
N9 Ni0 2.077583 1_656
N10 S1 1.436937 1_555
N10 Ni1 2.089713 1_555
N11 S4 1.435295 1_555
N11 Ni0 2.073778 1_565
F7 S1 1.678818 1_555
F11 S10 1.683038 1_554
F12 S0 1.679584 1_555
F16 S3 1.678818 1_556
F17 S11 1.683038 1_556
F20 S6 1.679584 1_455
F21 S7 1.683038 1_555
F23 S2 1.679584 1_555
F25 S5 1.678818 1_555
F28 S8 1.683038 1_555
F31 S9 1.678818 1_554
F35 S4 1.679584 1_655
