# generated using pymatgen
data_CuAs4S3Cl
_symmetry_space_group_name_H-M   'P 1'
_cell_length_a   7.51407100
_cell_length_b   11.19217700
_cell_length_c   11.25481200
_cell_angle_alpha   90.00000000
_cell_angle_beta   90.00000000
_cell_angle_gamma   90.00000000
_symmetry_Int_Tables_number   1
_chemical_formula_structural   CuAs4S3Cl
_chemical_formula_sum   'Cu4 As16 S12 Cl4'
_cell_volume   946.51632549
_cell_formula_units_Z   4
loop_
 _symmetry_equiv_pos_site_id
 _symmetry_equiv_pos_as_xyz
  1  'x, y, z'
loop_
 _atom_site_type_symbol
 _atom_site_label
 _atom_site_symmetry_multiplicity
 _atom_site_fract_x
 _atom_site_fract_y
 _atom_site_fract_z
 _atom_site_occupancy
  Cu  Cu0  1  0.00000000  0.69229300  0.75000000  1
  Cu  Cu1  1  0.50000000  0.69229300  0.75000000  1
  Cu  Cu2  1  0.00000000  0.30770700  0.25000000  1
  Cu  Cu3  1  0.50000000  0.30770700  0.25000000  1
  As  As0  1  0.25000000  0.25149700  0.78768500  1
  As  As1  1  0.58316700  0.36193500  0.55285800  1
  As  As2  1  0.08316700  0.36193500  0.94714200  1
  As  As3  1  0.25000000  0.92385400  0.55988700  1
  As  As4  1  0.08316700  0.63806500  0.44714200  1
  As  As5  1  0.41683300  0.36193500  0.94714200  1
  As  As6  1  0.25000000  0.07614600  0.05988700  1
  As  As7  1  0.91683300  0.63806500  0.05285800  1
  As  As8  1  0.41683300  0.63806500  0.44714200  1
  As  As9  1  0.91683300  0.36193500  0.55285800  1
  As  As10  1  0.75000000  0.92385400  0.94011300  1
  As  As11  1  0.75000000  0.74850300  0.21231500  1
  As  As12  1  0.75000000  0.07614600  0.44011300  1
  As  As13  1  0.25000000  0.74850300  0.28768500  1
  As  As14  1  0.75000000  0.25149700  0.71231500  1
  As  As15  1  0.58316700  0.63806500  0.05285800  1
  S  S0  1  0.98213400  0.20973600  0.42543000  1
  S  S1  1  0.25000000  0.06292400  0.85982300  1
  S  S2  1  0.75000000  0.93707600  0.14017700  1
  S  S3  1  0.98213400  0.79026400  0.92543000  1
  S  S4  1  0.01786600  0.20973600  0.07457000  1
  S  S5  1  0.25000000  0.93707600  0.35982300  1
  S  S6  1  0.51786600  0.20973600  0.42543000  1
  S  S7  1  0.01786600  0.79026400  0.57457000  1
  S  S8  1  0.48213400  0.79026400  0.57457000  1
  S  S9  1  0.48213400  0.20973600  0.07457000  1
  S  S10  1  0.75000000  0.06292400  0.64017700  1
  S  S11  1  0.51786600  0.79026400  0.92543000  1
  Cl  Cl0  1  0.25000000  0.56060600  0.77075700  1
  Cl  Cl1  1  0.25000000  0.43939400  0.27075700  1
  Cl  Cl2  1  0.75000000  0.43939400  0.22924300  1
  Cl  Cl3  1  0.75000000  0.56060600  0.72924300  1
loop_
_geom_bond_atom_site_label_1
_geom_bond_atom_site_label_2
_geom_bond_distance
_geom_bond_site_symmetry_2
Cu0 S7 2.262462 1_555
Cu0 S3 2.262462 1_455
Cu1 S11 2.262462 1_555
Cu1 S8 2.262462 1_555
Cu2 S0 2.262462 1_455
Cu2 S4 2.262462 1_555
Cu3 S6 2.262462 1_555
Cu3 S9 2.262462 1_555
As0 S1 2.261320 1_555
As1 S6 2.280204 1_555
As2 S4 2.280204 1_556
As3 S5 2.256540 1_555
As3 S7 2.303325 1_555
As3 S8 2.303325 1_555
As4 S7 2.280204 1_555
As5 S9 2.280204 1_556
As6 S1 2.256540 1_554
As6 S4 2.303325 1_555
As6 S9 2.303325 1_555
As7 S3 2.280204 1_554
As8 S8 2.280204 1_555
As9 S0 2.280204 1_555
As10 S2 2.256540 1_556
As10 S3 2.303325 1_555
As10 S11 2.303325 1_555
As11 S2 2.261320 1_555
As12 S10 2.256540 1_555
As12 S0 2.303325 1_555
As12 S6 2.303325 1_555
As13 S5 2.261320 1_555
As14 S10 2.261320 1_555
As15 S11 2.280204 1_554
Cl0 Cu0 2.399100 1_555
Cl0 Cu1 2.399100 1_555
Cl1 Cu2 2.399100 1_555
Cl1 Cu3 2.399100 1_555
Cl2 Cu3 2.399100 1_555
Cl2 Cu2 2.399100 1_655
Cl3 Cu0 2.399100 1_655
Cl3 Cu1 2.399100 1_555
