# generated using pymatgen
data_Ca(AsPd)2
_symmetry_space_group_name_H-M   'P 1'
_cell_length_a   4.30978983
_cell_length_b   4.30979092
_cell_length_c   5.95261503
_cell_angle_alpha   111.22357528
_cell_angle_beta   111.22358146
_cell_angle_gamma   90.00000126
_symmetry_Int_Tables_number   1
_chemical_formula_structural   Ca(AsPd)2
_chemical_formula_sum   'Ca1 As2 Pd2'
_cell_volume   94.97709408
_cell_formula_units_Z   1
loop_
 _symmetry_equiv_pos_site_id
 _symmetry_equiv_pos_as_xyz
  1  'x, y, z'
loop_
 _atom_site_type_symbol
 _atom_site_label
 _atom_site_symmetry_multiplicity
 _atom_site_fract_x
 _atom_site_fract_y
 _atom_site_fract_z
 _atom_site_occupancy
  Ca  Ca0  1  -0.00000000  0.00000000  -0.00000000  1
  As  As0  1  0.37974782  0.37974782  0.75949464  1
  As  As1  1  0.62025218  0.62025218  0.24050536  1
  Pd  Pd0  1  0.25000000  0.75000000  0.50000000  1
  Pd  Pd1  1  0.75000000  0.25000000  0.50000000  1
loop_
_geom_bond_atom_site_label_1
_geom_bond_atom_site_label_2
_geom_bond_distance
_geom_bond_site_symmetry_2
Ca0 Pd0 3.343679 1_444
Ca0 Pd1 3.343679 1_555
Ca0 Pd1 3.343680 1_454
Ca0 Pd0 3.343680 1_545
Ca0 Pd0 3.343680 1_544
Ca0 Pd1 3.343680 1_455
Ca0 Pd0 3.343680 1_555
Ca0 Pd1 3.343680 1_444
As0 As1 2.459582 1_556
As0 Pd1 2.530652 1_555
As0 Pd0 2.530653 1_555
As0 Pd1 2.530656 1_455
As0 Pd0 2.530656 1_545
As0 Ca0 3.286261 1_666
As0 Ca0 3.286264 1_656
As0 Ca0 3.286264 1_566
As0 Ca0 3.286267 1_556
As1 Pd0 2.530652 1_555
As1 Pd1 2.530653 1_555
As1 Pd0 2.530656 1_655
As1 Pd1 2.530656 1_565
As1 Ca0 3.286261 1_555
As1 Ca0 3.286264 1_565
As1 Ca0 3.286264 1_655
As1 Ca0 3.286267 1_665
