# generated using pymatgen
data_Pb2CO3F2
_symmetry_space_group_name_H-M   'P 1'
_cell_length_a   7.00141800
_cell_length_b   8.17462600
_cell_length_c   8.38976100
_cell_angle_alpha   90.00000000
_cell_angle_beta   90.00000000
_cell_angle_gamma   90.00000000
_symmetry_Int_Tables_number   1
_chemical_formula_structural   Pb2CO3F2
_chemical_formula_sum   'Pb8 C4 O12 F8'
_cell_volume   480.17935975
_cell_formula_units_Z   4
loop_
 _symmetry_equiv_pos_site_id
 _symmetry_equiv_pos_as_xyz
  1  'x, y, z'
loop_
 _atom_site_type_symbol
 _atom_site_label
 _atom_site_symmetry_multiplicity
 _atom_site_fract_x
 _atom_site_fract_y
 _atom_site_fract_z
 _atom_site_occupancy
  Pb  Pb0  1  0.55331300  0.31663200  0.34118000  1
  Pb  Pb1  1  0.44668700  0.81663200  0.15882000  1
  Pb  Pb2  1  0.05331300  0.31663200  0.65882000  1
  Pb  Pb3  1  0.44668700  0.68336800  0.65882000  1
  Pb  Pb4  1  0.05331300  0.18336800  0.15882000  1
  Pb  Pb5  1  0.94668700  0.81663200  0.84118000  1
  Pb  Pb6  1  0.55331300  0.18336800  0.84118000  1
  Pb  Pb7  1  0.94668700  0.68336800  0.34118000  1
  C  C0  1  0.25000000  0.50000000  0.01963500  1
  C  C1  1  0.25000000  0.00000000  0.51963500  1
  C  C2  1  0.75000000  0.00000000  0.48036500  1
  C  C3  1  0.75000000  0.50000000  0.98036500  1
  O  O0  1  0.75000000  0.00000000  0.32544800  1
  O  O1  1  0.25000000  0.50000000  0.17455200  1
  O  O2  1  0.80575600  0.62986500  0.05762200  1
  O  O3  1  0.30575600  0.87013500  0.44237800  1
  O  O4  1  0.69424400  0.12986500  0.55762200  1
  O  O5  1  0.75000000  0.50000000  0.82544800  1
  O  O6  1  0.19424400  0.37013500  0.94237800  1
  O  O7  1  0.69424400  0.37013500  0.05762200  1
  O  O8  1  0.80575600  0.87013500  0.55762200  1
  O  O9  1  0.25000000  0.00000000  0.67455200  1
  O  O10  1  0.30575600  0.62986500  0.94237800  1
  O  O11  1  0.19424400  0.12986500  0.44237800  1
  F  F0  1  0.10098700  0.88717300  0.11337700  1
  F  F1  1  0.60098700  0.88717300  0.88662300  1
  F  F2  1  0.89901300  0.11282700  0.88662300  1
  F  F3  1  0.39901300  0.38717300  0.61337700  1
  F  F4  1  0.60098700  0.61282700  0.38662300  1
  F  F5  1  0.89901300  0.38717300  0.38662300  1
  F  F6  1  0.10098700  0.61282700  0.61337700  1
  F  F7  1  0.39901300  0.11282700  0.11337700  1
loop_
_geom_bond_atom_site_label_1
_geom_bond_atom_site_label_2
_geom_bond_distance
_geom_bond_site_symmetry_2
C0 O1 1.299717 1_555
C0 O10 1.303649 1_554
C0 O6 1.303649 1_554
C1 O9 1.299717 1_555
C1 O11 1.303649 1_555
C1 O3 1.303649 1_545
C2 O0 1.299717 1_555
C2 O4 1.303649 1_555
C2 O8 1.303649 1_545
C3 O5 1.299717 1_555
C3 O2 1.303649 1_556
C3 O7 1.303649 1_556
O2 Pb5 2.569447 1_554
O2 Pb7 2.612368 1_555
O3 Pb3 2.569447 1_555
O3 Pb1 2.612368 1_555
O4 Pb0 2.569447 1_555
O4 Pb6 2.612368 1_555
O6 Pb4 2.569447 1_556
O6 Pb2 2.612368 1_555
O7 Pb6 2.569447 1_554
O7 Pb0 2.612368 1_555
O8 Pb7 2.569447 1_555
O8 Pb5 2.612368 1_555
O10 Pb1 2.569447 1_556
O10 Pb3 2.612368 1_555
O11 Pb2 2.569447 1_555
O11 Pb4 2.612368 1_555
F0 Pb4 2.473738 1_565
F0 Pb1 2.517174 1_555
F0 Pb5 2.591283 1_454
F0 Pb7 2.755989 1_455
F1 Pb6 2.473738 1_565
F1 Pb5 2.517174 1_555
F1 Pb1 2.591283 1_556
F1 Pb3 2.755989 1_555
F2 Pb5 2.473738 1_545
F2 Pb6 2.517174 1_555
F2 Pb4 2.591283 1_656
F2 Pb2 2.755989 1_655
F3 Pb3 2.473738 1_555
F3 Pb2 2.517174 1_555
F3 Pb0 2.591283 1_555
F3 Pb6 2.755989 1_555
F4 Pb0 2.473738 1_555
F4 Pb7 2.517174 1_555
F4 Pb3 2.591283 1_555
F4 Pb1 2.755989 1_555
F5 Pb7 2.473738 1_555
F5 Pb0 2.517174 1_555
F5 Pb2 2.591283 1_655
F5 Pb4 2.755989 1_655
F6 Pb2 2.473738 1_555
F6 Pb3 2.517174 1_555
F6 Pb7 2.591283 1_455
F6 Pb5 2.755989 1_455
F7 Pb1 2.473738 1_545
F7 Pb4 2.517174 1_555
F7 Pb6 2.591283 1_554
F7 Pb0 2.755989 1_555
