# generated using pymatgen
data_Pu(SiAu)2
_symmetry_space_group_name_H-M   'P 1'
_cell_length_a   5.99095011
_cell_length_b   5.99095011
_cell_length_c   5.99095011
_cell_angle_alpha   137.97843547
_cell_angle_beta   137.97843547
_cell_angle_gamma   60.93602724
_symmetry_Int_Tables_number   1
_chemical_formula_structural   Pu(SiAu)2
_chemical_formula_sum   'Pu1 Si2 Au2'
_cell_volume   95.30029295
_cell_formula_units_Z   1
loop_
 _symmetry_equiv_pos_site_id
 _symmetry_equiv_pos_as_xyz
  1  'x, y, z'
loop_
 _atom_site_type_symbol
 _atom_site_label
 _atom_site_symmetry_multiplicity
 _atom_site_fract_x
 _atom_site_fract_y
 _atom_site_fract_z
 _atom_site_occupancy
  Pu  Pu0  1  0.00000000  0.00000000  0.00000000  1
  Si  Si0  1  0.38818400  0.38818400  0.00000000  1
  Si  Si1  1  0.61181600  0.61181600  0.00000000  1
  Au  Au0  1  0.75000000  0.25000000  0.50000000  1
  Au  Au1  1  0.25000000  0.75000000  0.50000000  1
loop_
_geom_bond_atom_site_label_1
_geom_bond_atom_site_label_2
_geom_bond_distance
_geom_bond_site_symmetry_2
Pu0 Si1 3.249836 1_556
Pu0 Si0 3.249836 1_444
Pu0 Si0 3.249836 1_556
Pu0 Si1 3.249836 1_444
Pu0 Si0 3.249836 1_545
Pu0 Si1 3.249836 1_545
Pu0 Si0 3.249836 1_455
Pu0 Si1 3.249836 1_455
Si0 Si1 2.309525 1_555
Au0 Si0 2.578860 1_656
Au0 Si1 2.578860 1_556
Au0 Si0 2.578860 1_555
Au0 Si1 2.578860 1_545
Au0 Pu0 3.358550 1_655
Au0 Pu0 3.358550 1_555
Au0 Pu0 3.358550 1_656
Au0 Pu0 3.358550 1_666
Au1 Si0 2.578860 1_566
Au1 Si1 2.578860 1_556
Au1 Si0 2.578860 1_555
Au1 Si1 2.578860 1_455
Au1 Pu0 3.358550 1_565
Au1 Pu0 3.358550 1_566
Au1 Pu0 3.358550 1_555
Au1 Pu0 3.358550 1_666
