# generated using pymatgen
data_TlCr3S5
_symmetry_space_group_name_H-M   'P 1'
_cell_length_a   9.91447060
_cell_length_b   9.91447060
_cell_length_c   12.09326674
_cell_angle_alpha   58.17423795
_cell_angle_beta   58.17423795
_cell_angle_gamma   20.35311075
_symmetry_Int_Tables_number   1
_chemical_formula_structural   TlCr3S5
_chemical_formula_sum   'Tl2 Cr6 S10'
_cell_volume   349.09946235
_cell_formula_units_Z   2
loop_
 _symmetry_equiv_pos_site_id
 _symmetry_equiv_pos_as_xyz
  1  'x, y, z'
loop_
 _atom_site_type_symbol
 _atom_site_label
 _atom_site_symmetry_multiplicity
 _atom_site_fract_x
 _atom_site_fract_y
 _atom_site_fract_z
 _atom_site_occupancy
  Tl  Tl0  1  0.26244146  0.26244146  0.82183328  1
  Tl  Tl1  1  0.73755854  0.73755854  0.17816672  1
  Cr  Cr0  1  0.50000000  0.50000000  -0.00000000  1
  Cr  Cr1  1  0.50000000  0.50000000  0.50000000  1
  Cr  Cr2  1  0.16439603  0.16439603  0.61118987  1
  Cr  Cr3  1  0.83560397  0.83560397  0.38881013  1
  Cr  Cr4  1  0.98214244  0.98214244  0.77320410  1
  Cr  Cr5  1  0.01785756  0.01785756  0.22679590  1
  S  S0  1  0.07454416  0.07454416  0.84805217  1
  S  S1  1  0.92545584  0.92545584  0.15194783  1
  S  S2  1  0.40844807  0.40844807  0.91990369  1
  S  S3  1  0.59155193  0.59155193  0.08009631  1
  S  S4  1  0.57553001  0.57553001  0.60760026  1
  S  S5  1  0.42446999  0.42446999  0.39239974  1
  S  S6  1  0.74404575  0.74404575  0.61847968  1
  S  S7  1  0.25595425  0.25595425  0.38152032  1
  S  S8  1  0.91870028  0.91870028  0.65210403  1
  S  S9  1  0.08129972  0.08129972  0.34789597  1
loop_
_geom_bond_atom_site_label_1
_geom_bond_atom_site_label_2
_geom_bond_distance
_geom_bond_site_symmetry_2
Cr0 S1 2.386857 1_545
Cr0 S1 2.386857 1_455
Cr0 S0 2.386857 1_654
Cr0 S0 2.386857 1_564
Cr0 S3 2.446533 1_555
Cr0 S2 2.446533 1_554
Cr1 S8 2.417073 1_545
Cr1 S8 2.417073 1_455
Cr1 S9 2.417073 1_655
Cr1 S9 2.417073 1_565
Cr1 S5 2.433442 1_555
Cr1 S4 2.433442 1_555
Cr2 S7 2.364157 1_555
Cr2 S6 2.374793 1_545
Cr2 S6 2.374793 1_455
Cr2 S0 2.428527 1_555
Cr2 S4 2.481769 1_545
Cr2 S4 2.481769 1_455
Cr3 S6 2.364157 1_555
Cr3 S7 2.374793 1_655
Cr3 S7 2.374793 1_565
Cr3 S1 2.428527 1_555
Cr3 S5 2.481769 1_565
Cr3 S5 2.481769 1_655
Cr4 S2 2.355918 1_565
Cr4 S2 2.355918 1_655
Cr4 S8 2.370852 1_555
Cr4 S0 2.412614 1_665
Cr4 S4 2.547545 1_655
Cr4 S4 2.547545 1_565
Cr5 S3 2.355918 1_545
Cr5 S3 2.355918 1_455
Cr5 S9 2.370852 1_555
Cr5 S1 2.412614 1_445
Cr5 S5 2.547545 1_455
Cr5 S5 2.547545 1_545
S6 Tl0 3.192363 1_565
S6 Tl0 3.192363 1_655
S7 Tl1 3.192363 1_545
S7 Tl1 3.192363 1_455
S8 Tl0 3.142406 1_565
S8 Tl0 3.142406 1_655
S9 Tl1 3.142406 1_455
S9 Tl1 3.142406 1_545
