# generated using pymatgen
data_K4CO4
_symmetry_space_group_name_H-M   'P 1'
_cell_length_a   7.22292500
_cell_length_b   7.22292500
_cell_length_c   5.53430100
_cell_angle_alpha   90.00000000
_cell_angle_beta   90.00000000
_cell_angle_gamma   90.00000000
_symmetry_Int_Tables_number   1
_chemical_formula_structural   K4CO4
_chemical_formula_sum   'K8 C2 O8'
_cell_volume   288.72805587
_cell_formula_units_Z   2
loop_
 _symmetry_equiv_pos_site_id
 _symmetry_equiv_pos_as_xyz
  1  'x, y, z'
loop_
 _atom_site_type_symbol
 _atom_site_label
 _atom_site_symmetry_multiplicity
 _atom_site_fract_x
 _atom_site_fract_y
 _atom_site_fract_z
 _atom_site_occupancy
  K  K0  1  0.27885600  0.01380400  0.85872800  1
  K  K1  1  0.01380400  0.72114400  0.14127200  1
  K  K2  1  0.98619600  0.27885600  0.14127200  1
  K  K3  1  0.77885600  0.51380400  0.64127200  1
  K  K4  1  0.22114400  0.48619600  0.64127200  1
  K  K5  1  0.48619600  0.77885600  0.35872800  1
  K  K6  1  0.51380400  0.22114400  0.35872800  1
  K  K7  1  0.72114400  0.98619600  0.85872800  1
  C  C0  1  0.00000000  0.00000000  0.50000000  1
  C  C1  1  0.50000000  0.50000000  0.00000000  1
  O  O0  1  0.83509600  0.99258300  0.35265500  1
  O  O1  1  0.33509600  0.49258300  0.14734500  1
  O  O2  1  0.49258300  0.66490400  0.85265500  1
  O  O3  1  0.00741700  0.83509600  0.64734500  1
  O  O4  1  0.16490400  0.00741700  0.35265500  1
  O  O5  1  0.99258300  0.16490400  0.64734500  1
  O  O6  1  0.66490400  0.50741700  0.14734500  1
  O  O7  1  0.50741700  0.33509600  0.85265500  1
loop_
_geom_bond_atom_site_label_1
_geom_bond_atom_site_label_2
_geom_bond_distance
_geom_bond_site_symmetry_2
K0 O5 2.614419 1_455
K0 O3 2.622709 1_545
K0 O7 2.848163 1_555
K0 O4 2.855138 1_556
K0 O4 2.919559 1_555
K0 O2 2.955510 1_545
K1 O4 2.614419 1_565
K1 O0 2.622709 1_455
K1 O1 2.848163 1_555
K1 O3 2.855138 1_554
K1 O3 2.919559 1_555
K1 O6 2.955510 1_455
K2 O0 2.614419 1_545
K2 O4 2.622709 1_655
K2 O6 2.848163 1_555
K2 O5 2.855138 1_554
K2 O5 2.919559 1_555
K2 O1 2.955510 1_655
K3 O2 2.614419 1_555
K3 O7 2.622709 1_555
K3 O3 2.848163 1_655
K3 O6 2.855138 1_555
K3 O6 2.919559 1_556
K3 O5 2.955510 1_555
K4 O7 2.614419 1_555
K4 O2 2.622709 1_555
K4 O5 2.848163 1_455
K4 O1 2.855138 1_555
K4 O1 2.919559 1_556
K4 O3 2.955510 1_555
K5 O1 2.614419 1_555
K5 O6 2.622709 1_555
K5 O4 2.848163 1_565
K5 O2 2.855138 1_555
K5 O2 2.919559 1_554
K5 O0 2.955510 1_555
K6 O6 2.614419 1_555
K6 O1 2.622709 1_555
K6 O0 2.848163 1_545
K6 O7 2.855138 1_555
K6 O7 2.919559 1_554
K6 O4 2.955510 1_555
K7 O3 2.614419 1_655
K7 O5 2.622709 1_565
K7 O2 2.848163 1_555
K7 O0 2.855138 1_556
K7 O0 2.919559 1_555
K7 O7 2.955510 1_565
C0 O5 1.444481 1_455
C0 O4 1.444481 1_555
C0 O3 1.444481 1_545
C0 O0 1.444481 1_445
C1 O7 1.444481 1_554
C1 O1 1.444481 1_555
C1 O2 1.444481 1_554
C1 O6 1.444481 1_555
