# generated using pymatgen
data_Na11Ti10O21
_symmetry_space_group_name_H-M   'P 1'
_cell_length_a   5.71964300
_cell_length_b   9.13658615
_cell_length_c   18.36867357
_cell_angle_alpha   89.96309853
_cell_angle_beta   97.65872289
_cell_angle_gamma   105.52608815
_symmetry_Int_Tables_number   1
_chemical_formula_structural   Na11Ti10O21
_chemical_formula_sum   'Na22 Ti20 O42'
_cell_volume   916.01454185
_cell_formula_units_Z   2
loop_
 _symmetry_equiv_pos_site_id
 _symmetry_equiv_pos_as_xyz
  1  'x, y, z'
loop_
 _atom_site_type_symbol
 _atom_site_label
 _atom_site_symmetry_multiplicity
 _atom_site_fract_x
 _atom_site_fract_y
 _atom_site_fract_z
 _atom_site_occupancy
  Na  Na0  1  0.15389700  0.85521900  0.14694300  1
  Na  Na1  1  0.00274800  0.65808300  0.00060500  1
  Na  Na2  1  0.28979000  0.71567400  0.28630500  1
  Na  Na3  1  0.14689100  0.52988200  0.14359900  1
  Na  Na4  1  0.99725200  0.34191700  0.99939500  1
  Na  Na5  1  0.42901700  0.57136700  0.42866200  1
  Na  Na6  1  0.28613900  0.38085300  0.28533900  1
  Na  Na7  1  0.14305200  0.19176200  0.14348500  1
  Na  Na8  1  0.57158100  0.09411200  0.07116600  1
  Na  Na9  1  0.57098300  0.42863300  0.57133800  1
  Na  Na10  1  0.42937000  0.23840600  0.42885700  1
  Na  Na11  1  0.28867200  0.04781800  0.28834300  1
  Na  Na12  1  0.43034000  0.90476900  0.42846200  1
  Na  Na13  1  0.84610300  0.14478100  0.85305700  1
  Na  Na14  1  0.57063000  0.76159400  0.57114300  1
  Na  Na15  1  0.71021000  0.28432600  0.71369500  1
  Na  Na16  1  0.56966000  0.09523100  0.57153800  1
  Na  Na17  1  0.85694800  0.80823800  0.85651500  1
  Na  Na18  1  0.71386100  0.61914700  0.71466100  1
  Na  Na19  1  0.71132800  0.95218200  0.71165700  1
  Na  Na20  1  0.42841900  0.90588800  0.92883400  1
  Na  Na21  1  0.85310900  0.47011800  0.85640100  1
  Ti  Ti0  1  0.00000000  0.00000000  0.00000000  1
  Ti  Ti1  1  0.56220200  0.77137400  0.06708700  1
  Ti  Ti2  1  0.71503400  0.61926600  0.21430100  1
  Ti  Ti3  1  0.55796300  0.41693000  0.06947900  1
  Ti  Ti4  1  0.86051600  0.47766500  0.35955000  1
  Ti  Ti5  1  0.71161200  0.28266000  0.21270400  1
  Ti  Ti6  1  0.85914900  0.14559100  0.35707700  1
  Ti  Ti7  1  0.99760700  0.32998800  0.49772200  1
  Ti  Ti8  1  0.72430200  0.95128500  0.20889700  1
  Ti  Ti9  1  0.85718000  0.80580500  0.35689600  1
  Ti  Ti10  1  0.14282000  0.19419500  0.64310400  1
  Ti  Ti11  1  0.00000000  0.00000000  0.50000000  1
  Ti  Ti12  1  0.27569800  0.04871500  0.79110300  1
  Ti  Ti13  1  0.14085100  0.85440900  0.64292300  1
  Ti  Ti14  1  0.00239300  0.67001200  0.50227800  1
  Ti  Ti15  1  0.28838800  0.71734000  0.78729600  1
  Ti  Ti16  1  0.13948400  0.52233500  0.64045000  1
  Ti  Ti17  1  0.44203700  0.58307000  0.93052100  1
  Ti  Ti18  1  0.28496600  0.38073400  0.78569900  1
  Ti  Ti19  1  0.43779800  0.22862600  0.93291300  1
  O  O0  1  0.30676800  0.86676500  0.03982400  1
  O  O1  1  0.33555400  0.55300900  0.03464900  1
  O  O2  1  0.47637800  0.74467300  0.17794100  1
  O  O3  1  0.79787500  0.63175800  0.11081200  1
  O  O4  1  0.46866400  0.40883800  0.17721600  1
  O  O5  1  0.29091700  0.21932100  0.03055700  1
  O  O6  1  0.61086000  0.60149200  0.31924900  1
  O  O7  1  0.95468500  0.49309200  0.25403700  1
  O  O8  1  0.81782800  0.32464500  0.11420500  1
  O  O9  1  0.75641000  0.45973600  0.46283000  1
  O  O10  1  0.61864800  0.27186900  0.32052500  1
  O  O11  1  0.48791800  0.08079200  0.18820900  1
  O  O12  1  0.84789100  0.96352600  0.10659300  1
  O  O13  1  0.10675700  0.34972600  0.39417800  1
  O  O14  1  0.96054800  0.16026000  0.25159100  1
  O  O15  1  0.89636000  0.31497100  0.60498200  1
  O  O16  1  0.62568000  0.93499300  0.31906100  1
  O  O17  1  0.75262500  0.12475600  0.46189200  1
  O  O18  1  0.10113600  0.01724500  0.39585000  1
  O  O19  1  0.96133100  0.82654400  0.25278300  1
  O  O20  1  0.24405800  0.20780200  0.53777800  1
  O  O21  1  0.89886400  0.98275500  0.60415000  1
  O  O22  1  0.03866900  0.17345600  0.74721700  1
  O  O23  1  0.75594200  0.79219800  0.46222200  1
  O  O24  1  0.10364000  0.68502900  0.39501800  1
  O  O25  1  0.37432000  0.06500700  0.68093900  1
  O  O26  1  0.24737500  0.87524400  0.53810800  1
  O  O27  1  0.15210900  0.03647400  0.89340700  1
  O  O28  1  0.89324300  0.65027400  0.60582200  1
  O  O29  1  0.03945200  0.83974000  0.74840900  1
  O  O30  1  0.38135200  0.72813100  0.67947500  1
  O  O31  1  0.24359000  0.54026400  0.53717000  1
  O  O32  1  0.51208200  0.91920800  0.81179100  1
  O  O33  1  0.18217200  0.67535500  0.88579500  1
  O  O34  1  0.04531500  0.50690800  0.74596300  1
  O  O35  1  0.38914000  0.39850800  0.68075100  1
  O  O36  1  0.70908300  0.78067900  0.96944300  1
  O  O37  1  0.53133600  0.59116200  0.82278400  1
  O  O38  1  0.20212500  0.36824200  0.88918800  1
  O  O39  1  0.66444600  0.44699100  0.96535100  1
  O  O40  1  0.52362200  0.25532700  0.82205900  1
  O  O41  1  0.69323200  0.13323500  0.96017600  1
loop_
_geom_bond_atom_site_label_1
_geom_bond_atom_site_label_2
_geom_bond_distance
_geom_bond_site_symmetry_2
Na0 O0 2.248590 1_555
Na0 O12 2.274295 1_455
Na0 O2 2.337325 1_555
Na0 O19 2.340307 1_455
Na0 O11 2.445441 1_565
Na0 O3 2.484205 1_455
Na1 O0 2.251871 1_555
Na1 O36 2.270169 1_454
Na1 O39 2.356461 1_454
Na1 O1 2.365667 1_555
Na1 O3 2.451480 1_455
Na1 O33 2.452612 1_554
Na2 O6 2.357017 1_555
Na2 O2 2.363349 1_555
Na2 O24 2.367713 1_555
Na2 O19 2.375778 1_455
Na2 O16 2.387622 1_555
Na2 O7 2.402643 1_455
Na3 O8 2.278414 1_455
Na3 O2 2.346378 1_555
Na3 O1 2.380576 1_555
Na3 O4 2.403624 1_555
Na3 O7 2.415056 1_455
Na3 O3 2.426452 1_455
Na4 O41 2.251871 1_555
Na4 O5 2.270169 1_656
Na4 O1 2.356461 1_656
Na4 O39 2.365667 1_555
Na4 O38 2.451480 1_655
Na4 O8 2.452612 1_556
Na5 O31 2.362114 1_555
Na5 O13 2.364667 1_555
Na5 O6 2.366409 1_555
Na5 O23 2.371071 1_555
Na5 O9 2.376775 1_555
Na5 O24 2.377206 1_555
Na6 O4 2.347097 1_555
Na6 O13 2.349525 1_555
Na6 O6 2.364350 1_555
Na6 O14 2.366212 1_455
Na6 O10 2.389886 1_555
Na6 O7 2.392853 1_455
Na7 O5 2.331196 1_555
Na7 O12 2.338796 1_445
Na7 O4 2.345750 1_555
Na7 O14 2.346629 1_455
Na7 O8 2.482954 1_455
Na7 O11 2.496261 1_555
Na8 O41 2.238836 1_554
Na8 O0 2.241657 1_545
Na8 O12 2.253655 1_545
Na8 O5 2.259417 1_555
Na8 O11 2.260238 1_555
Na8 O8 2.272077 1_555
Na9 O9 2.362114 1_555
Na9 O28 2.364667 1_555
Na9 O35 2.366409 1_555
Na9 O20 2.371071 1_555
Na9 O31 2.376775 1_555
Na9 O15 2.377206 1_555
Na10 O13 2.352809 1_555
Na10 O17 2.364915 1_555
Na10 O20 2.368629 1_555
Na10 O10 2.370970 1_555
Na10 O18 2.375395 1_555
Na10 O9 2.375526 1_555
Na11 O11 2.268659 1_555
Na11 O18 2.351966 1_555
Na11 O19 2.380887 1_445
Na11 O14 2.393106 1_455
Na11 O10 2.395373 1_555
Na11 O16 2.422727 1_545
Na12 O17 2.351858 1_565
Na12 O24 2.363693 1_555
Na12 O23 2.372224 1_555
Na12 O26 2.373665 1_555
Na12 O18 2.386376 1_565
Na12 O16 2.407368 1_555
Na13 O41 2.248590 1_555
Na13 O27 2.274295 1_655
Na13 O40 2.337325 1_555
Na13 O22 2.340307 1_655
Na13 O32 2.445441 1_545
Na13 O38 2.484205 1_655
Na14 O28 2.352809 1_555
Na14 O26 2.364915 1_555
Na14 O23 2.368629 1_555
Na14 O30 2.370970 1_555
Na14 O21 2.375395 1_555
Na14 O31 2.375526 1_555
Na15 O35 2.357017 1_555
Na15 O40 2.363349 1_555
Na15 O15 2.367713 1_555
Na15 O22 2.375778 1_655
Na15 O25 2.387622 1_555
Na15 O34 2.402643 1_655
Na16 O26 2.351858 1_545
Na16 O15 2.363693 1_555
Na16 O20 2.372224 1_555
Na16 O17 2.373665 1_555
Na16 O21 2.386376 1_545
Na16 O25 2.407368 1_555
Na17 O36 2.331196 1_555
Na17 O27 2.338796 1_665
Na17 O37 2.345750 1_555
Na17 O29 2.346629 1_655
Na17 O33 2.482954 1_655
Na17 O32 2.496261 1_555
Na18 O37 2.347097 1_555
Na18 O28 2.349525 1_555
Na18 O35 2.364350 1_555
Na18 O29 2.366212 1_655
Na18 O30 2.389886 1_555
Na18 O34 2.392853 1_655
Na19 O32 2.268659 1_555
Na19 O21 2.351966 1_555
Na19 O22 2.380887 1_665
Na19 O29 2.393106 1_655
Na19 O30 2.395373 1_555
Na19 O25 2.422727 1_565
Na20 O0 2.238836 1_556
Na20 O41 2.241657 1_565
Na20 O27 2.253655 1_565
Na20 O36 2.259417 1_555
Na20 O32 2.260238 1_555
Na20 O33 2.272077 1_555
Na21 O33 2.278414 1_655
Na21 O40 2.346378 1_555
Na21 O39 2.380576 1_555
Na21 O37 2.403624 1_555
Na21 O34 2.415056 1_655
Na21 O38 2.426452 1_655
O0 Ti1 1.905513 1_555
O0 Ti0 2.428127 1_565
O1 Ti3 2.049904 1_555
O1 Ti17 2.079673 1_554
O1 Ti1 2.104053 1_555
O2 Ti2 2.053176 1_555
O2 Ti8 2.061811 1_555
O2 Ti1 2.156022 1_555
O3 Ti2 2.015444 1_555
O3 Ti3 2.143427 1_555
O3 Ti1 2.172538 1_555
O4 Ti5 2.073665 1_555
O4 Ti3 2.105170 1_555
O4 Ti2 2.107495 1_555
O5 Ti19 2.071998 1_554
O5 Ti3 2.082811 1_555
O5 Ti0 2.250918 1_555
O6 Ti9 2.069245 1_555
O6 Ti2 2.086047 1_555
O6 Ti4 2.109273 1_555
O7 Ti4 2.074509 1_555
O7 Ti2 2.078162 1_555
O7 Ti5 2.120228 1_555
O8 Ti3 1.984851 1_555
O8 Ti5 1.989247 1_555
O9 Ti4 2.056435 1_555
O9 Ti7 2.087614 1_555
O9 Ti14 2.116256 1_655
O10 Ti6 2.068001 1_555
O10 Ti4 2.075558 1_555
O10 Ti5 2.113604 1_555
O11 Ti5 1.955886 1_555
O11 Ti8 2.022725 1_545
O12 Ti8 2.086868 1_555
O12 Ti1 2.104436 1_555
O12 Ti0 2.235982 1_665
O13 Ti6 2.068580 1_455
O13 Ti7 2.072565 1_455
O13 Ti4 2.096717 1_455
O14 Ti6 2.089581 1_555
O14 Ti5 2.090087 1_555
O14 Ti8 2.103487 1_545
O15 Ti10 2.064904 1_655
O15 Ti16 2.073004 1_655
O15 Ti7 2.120658 1_555
O16 Ti9 2.054211 1_555
O16 Ti6 2.085853 1_565
O16 Ti8 2.166582 1_555
O17 Ti7 2.064412 1_555
O17 Ti6 2.089113 1_555
O17 Ti11 2.095125 1_655
O18 Ti11 2.065230 1_555
O18 Ti6 2.098353 1_455
O18 Ti9 2.117437 1_445
O19 Ti9 2.071443 1_555
O19 Ti8 2.078811 1_555
O19 Ti2 2.092547 1_555
O20 Ti7 2.083167 1_455
O20 Ti10 2.086520 1_555
O20 Ti11 2.087937 1_555
O21 Ti11 2.065230 1_665
O21 Ti13 2.098353 1_655
O21 Ti10 2.117437 1_665
O22 Ti10 2.071443 1_555
O22 Ti12 2.078811 1_555
O22 Ti18 2.092547 1_555
O23 Ti14 2.083167 1_655
O23 Ti9 2.086520 1_555
O23 Ti11 2.087937 1_665
O24 Ti9 2.064904 1_455
O24 Ti4 2.073004 1_455
O24 Ti14 2.120658 1_555
O25 Ti10 2.054211 1_555
O25 Ti13 2.085853 1_545
O25 Ti12 2.166582 1_555
O26 Ti14 2.064412 1_555
O26 Ti13 2.089113 1_555
O26 Ti11 2.095125 1_565
O27 Ti12 2.086868 1_555
O27 Ti19 2.104436 1_555
O27 Ti0 2.235982 1_556
O28 Ti13 2.068580 1_655
O28 Ti14 2.072565 1_655
O28 Ti16 2.096717 1_655
O29 Ti13 2.089581 1_555
O29 Ti15 2.090087 1_555
O29 Ti12 2.103487 1_565
O30 Ti13 2.068001 1_555
O30 Ti16 2.075558 1_555
O30 Ti15 2.113604 1_555
O31 Ti16 2.056435 1_555
O31 Ti14 2.087614 1_555
O31 Ti7 2.116256 1_455
O32 Ti15 1.955886 1_555
O32 Ti12 2.022725 1_565
O33 Ti17 1.984851 1_555
O33 Ti15 1.989247 1_555
O34 Ti16 2.074509 1_555
O34 Ti18 2.078162 1_555
O34 Ti15 2.120228 1_555
O35 Ti10 2.069245 1_555
O35 Ti18 2.086047 1_555
O35 Ti16 2.109273 1_555
O36 Ti1 2.071998 1_556
O36 Ti17 2.082811 1_555
O36 Ti0 2.250918 1_666
O37 Ti15 2.073665 1_555
O37 Ti17 2.105170 1_555
O37 Ti18 2.107495 1_555
O38 Ti18 2.015444 1_555
O38 Ti17 2.143427 1_555
O38 Ti19 2.172538 1_555
O39 Ti17 2.049904 1_555
O39 Ti3 2.079673 1_556
O39 Ti19 2.104053 1_555
O40 Ti18 2.053176 1_555
O40 Ti12 2.061811 1_555
O40 Ti19 2.156022 1_555
O41 Ti19 1.905513 1_555
O41 Ti0 2.428127 1_656
