# generated using pymatgen
data_Yb(PRu)2
_symmetry_space_group_name_H-M   'P 1'
_cell_length_a   5.60071338
_cell_length_b   5.60071338
_cell_length_c   5.60071338
_cell_angle_alpha   137.40540278
_cell_angle_beta   137.40540278
_cell_angle_gamma   61.81488315
_symmetry_Int_Tables_number   1
_chemical_formula_structural   Yb(PRu)2
_chemical_formula_sum   'Yb1 P2 Ru2'
_cell_volume   79.53999437
_cell_formula_units_Z   1
loop_
 _symmetry_equiv_pos_site_id
 _symmetry_equiv_pos_as_xyz
  1  'x, y, z'
loop_
 _atom_site_type_symbol
 _atom_site_label
 _atom_site_symmetry_multiplicity
 _atom_site_fract_x
 _atom_site_fract_y
 _atom_site_fract_z
 _atom_site_occupancy
  Yb  Yb0  1  0.00000000  0.00000000  0.00000000  1
  P  P0  1  0.36990100  0.36990100  0.00000000  1
  P  P1  1  0.63009900  0.63009900  0.00000000  1
  Ru  Ru0  1  0.25000000  0.75000000  0.50000000  1
  Ru  Ru1  1  0.75000000  0.25000000  0.50000000  1
loop_
_geom_bond_atom_site_label_1
_geom_bond_atom_site_label_2
_geom_bond_distance
_geom_bond_site_symmetry_2
P0 Ru0 2.337937 1_555
P0 Ru1 2.337937 1_555
P0 Ru0 2.337937 1_544
P0 Ru1 2.337937 1_454
P0 P1 2.500712 1_555
P0 Yb0 3.136796 1_666
P0 Yb0 3.136796 1_554
P0 Yb0 3.136796 1_655
P0 Yb0 3.136796 1_565
P1 Ru1 2.337937 1_565
P1 Ru0 2.337937 1_554
P1 Ru1 2.337937 1_554
P1 Ru0 2.337937 1_655
P1 Yb0 3.136796 1_666
P1 Yb0 3.136796 1_554
P1 Yb0 3.136796 1_655
P1 Yb0 3.136796 1_565
Ru0 Yb0 3.148178 1_555
Ru0 Yb0 3.148178 1_566
Ru0 Yb0 3.148178 1_666
Ru0 Yb0 3.148178 1_565
Ru1 Yb0 3.148178 1_656
Ru1 Yb0 3.148178 1_555
Ru1 Yb0 3.148178 1_655
Ru1 Yb0 3.148178 1_666
