# generated using pymatgen
data_Fe4Cu2S7
_symmetry_space_group_name_H-M   'P 1'
_cell_length_a   5.12039500
_cell_length_b   8.27593600
_cell_length_c   11.70760900
_cell_angle_alpha   90.00000000
_cell_angle_beta   90.00000000
_cell_angle_gamma   90.00000000
_symmetry_Int_Tables_number   1
_chemical_formula_structural   Fe4Cu2S7
_chemical_formula_sum   'Fe8 Cu4 S14'
_cell_volume   496.12235683
_cell_formula_units_Z   2
loop_
 _symmetry_equiv_pos_site_id
 _symmetry_equiv_pos_as_xyz
  1  'x, y, z'
loop_
 _atom_site_type_symbol
 _atom_site_label
 _atom_site_symmetry_multiplicity
 _atom_site_fract_x
 _atom_site_fract_y
 _atom_site_fract_z
 _atom_site_occupancy
  Fe  Fe0  1  0.00040500  0.34693800  0.27240100  1
  Fe  Fe1  1  0.50040500  0.65306200  0.72759900  1
  Fe  Fe2  1  0.99959500  0.34693800  0.72759900  1
  Fe  Fe3  1  0.49959500  0.65306200  0.27240100  1
  Fe  Fe4  1  0.99959500  0.65306200  0.72759900  1
  Fe  Fe5  1  0.49959500  0.34693800  0.27240100  1
  Fe  Fe6  1  0.00040500  0.65306200  0.27240100  1
  Fe  Fe7  1  0.50040500  0.34693800  0.72759900  1
  Cu  Cu0  1  0.98924400  0.00000000  0.22744200  1
  Cu  Cu1  1  0.48924400  0.00000000  0.77255800  1
  Cu  Cu2  1  0.01075600  0.00000000  0.77255800  1
  Cu  Cu3  1  0.51075600  0.00000000  0.22744200  1
  S  S0  1  0.25000000  0.21470500  0.16197300  1
  S  S1  1  0.75000000  0.78529500  0.83802700  1
  S  S2  1  0.75000000  0.21470500  0.83802700  1
  S  S3  1  0.25000000  0.78529500  0.16197300  1
  S  S4  1  0.25000000  0.50000000  0.83222000  1
  S  S5  1  0.75000000  0.50000000  0.16778000  1
  S  S6  1  0.25000000  0.00000000  0.94523800  1
  S  S7  1  0.75000000  0.00000000  0.05476200  1
  S  S8  1  0.25000000  0.19128000  0.63397600  1
  S  S9  1  0.75000000  0.80872000  0.36602400  1
  S  S10  1  0.75000000  0.19128000  0.36602400  1
  S  S11  1  0.25000000  0.80872000  0.63397600  1
  S  S12  1  0.25000000  0.50000000  0.37854600  1
  S  S13  1  0.75000000  0.50000000  0.62145400  1
loop_
_geom_bond_atom_site_label_1
_geom_bond_atom_site_label_2
_geom_bond_distance
_geom_bond_site_symmetry_2
Fe0 S0 2.121888 1_555
Fe0 S10 2.122476 1_455
Fe0 S5 2.179188 1_455
Fe0 S12 2.186840 1_555
Fe1 S1 2.121888 1_555
Fe1 S11 2.122476 1_555
Fe1 S4 2.179188 1_555
Fe1 S13 2.186840 1_555
Fe2 S2 2.121888 1_555
Fe2 S8 2.122476 1_655
Fe2 S4 2.179188 1_655
Fe2 S13 2.186840 1_555
Fe3 S3 2.121888 1_555
Fe3 S9 2.122476 1_555
Fe3 S5 2.179188 1_555
Fe3 S12 2.186840 1_555
Fe4 S1 2.121888 1_555
Fe4 S11 2.122476 1_655
Fe4 S4 2.179188 1_655
Fe4 S13 2.186840 1_555
Fe5 S0 2.121888 1_555
Fe5 S10 2.122476 1_555
Fe5 S5 2.179188 1_555
Fe5 S12 2.186840 1_555
Fe6 S3 2.121888 1_555
Fe6 S9 2.122476 1_455
Fe6 S5 2.179188 1_455
Fe6 S12 2.186840 1_555
Fe7 S2 2.121888 1_555
Fe7 S8 2.122476 1_555
Fe7 S4 2.179188 1_555
Fe7 S13 2.186840 1_555
Cu0 S0 2.351065 1_655
Cu0 S3 2.351065 1_645
Cu0 S7 2.363860 1_555
Cu0 S10 2.576631 1_555
Cu0 S9 2.576631 1_545
Cu1 S2 2.351065 1_555
Cu1 S1 2.351065 1_545
Cu1 S6 2.363860 1_555
Cu1 S8 2.576631 1_555
Cu1 S11 2.576631 1_545
Cu2 S2 2.351065 1_455
Cu2 S1 2.351065 1_445
Cu2 S6 2.363860 1_555
Cu2 S8 2.576631 1_555
Cu2 S11 2.576631 1_545
Cu3 S3 2.351065 1_545
Cu3 S0 2.351065 1_555
Cu3 S7 2.363860 1_555
Cu3 S10 2.576631 1_555
Cu3 S9 2.576631 1_545
