# generated using pymatgen
data_K2SnCl6
_symmetry_space_group_name_H-M   'P 1'
_cell_length_a   7.17931570
_cell_length_b   7.10260185
_cell_length_c   10.02880474
_cell_angle_alpha   90.32323798
_cell_angle_beta   90.00000000
_cell_angle_gamma   90.00000000
_symmetry_Int_Tables_number   1
_chemical_formula_structural   K2SnCl6
_chemical_formula_sum   'K4 Sn2 Cl12'
_cell_volume   511.37887752
_cell_formula_units_Z   2
loop_
 _symmetry_equiv_pos_site_id
 _symmetry_equiv_pos_as_xyz
  1  'x, y, z'
loop_
 _atom_site_type_symbol
 _atom_site_label
 _atom_site_symmetry_multiplicity
 _atom_site_fract_x
 _atom_site_fract_y
 _atom_site_fract_z
 _atom_site_occupancy
  K  K0  1  0.45215249  0.01068344  0.74917230  1
  K  K1  1  0.54784751  0.98931656  0.25082770  1
  K  K2  1  0.04784751  0.51068344  0.24917230  1
  K  K3  1  0.95215249  0.48931656  0.75082770  1
  Sn  Sn0  1  0.50000000  0.50000000  0.50000000  1
  Sn  Sn1  1  0.00000000  -0.00000000  0.00000000  1
  Cl  Cl0  1  0.72325617  0.19896353  0.97374686  1
  Cl  Cl1  1  0.20005658  0.27622636  0.96867172  1
  Cl  Cl2  1  0.77674383  0.69896353  0.47374686  1
  Cl  Cl3  1  0.22325617  0.30103647  0.52625314  1
  Cl  Cl4  1  0.29994342  0.77622636  0.46867172  1
  Cl  Cl5  1  0.70005658  0.22377364  0.53132828  1
  Cl  Cl6  1  0.00357543  0.94258191  0.75945741  1
  Cl  Cl7  1  0.79994342  0.72377364  0.03132828  1
  Cl  Cl8  1  0.99642457  0.05741809  0.24054259  1
  Cl  Cl9  1  0.27674383  0.80103647  0.02625314  1
  Cl  Cl10  1  0.50357543  0.55741809  0.74054259  1
  Cl  Cl11  1  0.49642457  0.44258191  0.25945741  1
loop_
_geom_bond_atom_site_label_1
_geom_bond_atom_site_label_2
_geom_bond_distance
_geom_bond_site_symmetry_2
Cl0 Sn1 2.453168 1_656
Cl0 K0 3.258072 1_555
Cl0 K1 3.401686 1_546
Cl0 K3 3.464593 1_555
Cl1 Sn1 2.453098 1_556
Cl1 K3 3.204462 1_455
Cl1 K0 3.410538 1_555
Cl1 K2 3.439155 1_556
Cl2 Sn0 2.453168 1_555
Cl2 K2 3.258072 1_655
Cl2 K3 3.401686 1_555
Cl2 K1 3.464593 1_555
Cl3 Sn0 2.453168 1_555
Cl3 K3 3.258072 1_455
Cl3 K2 3.401686 1_555
Cl3 K0 3.464593 1_555
Cl4 Sn0 2.453098 1_555
Cl4 K1 3.204462 1_555
Cl4 K2 3.410538 1_555
Cl4 K0 3.439155 1_565
Cl5 Sn0 2.453098 1_555
Cl5 K0 3.204462 1_555
Cl5 K3 3.410538 1_555
Cl5 K1 3.439155 1_545
Cl6 Sn1 2.444449 1_566
Cl6 K3 3.241133 1_455
Cl6 K0 3.258318 1_565
Cl7 Sn1 2.453098 1_665
Cl7 K2 3.204462 1_655
Cl7 K1 3.410538 1_555
Cl7 K3 3.439155 1_554
Cl8 Sn1 2.444449 1_655
Cl8 K2 3.241133 1_655
Cl8 K1 3.258318 1_545
Cl9 Sn1 2.453168 1_565
Cl9 K1 3.258072 1_555
Cl9 K0 3.401686 1_564
Cl9 K2 3.464593 1_555
Cl10 Sn0 2.444449 1_555
Cl10 K0 3.241133 1_565
Cl10 K3 3.258318 1_555
Cl11 Sn0 2.444449 1_555
Cl11 K1 3.241133 1_545
Cl11 K2 3.258318 1_555
