# generated using pymatgen
data_Li2Ni(PO4)2
_symmetry_space_group_name_H-M   'P 1'
_cell_length_a   4.90913631
_cell_length_b   17.60255700
_cell_length_c   6.58876073
_cell_angle_alpha   90.00000000
_cell_angle_beta   93.58072688
_cell_angle_gamma   90.00000000
_symmetry_Int_Tables_number   1
_chemical_formula_structural   Li2Ni(PO4)2
_chemical_formula_sum   'Li8 Ni4 P8 O32'
_cell_volume   568.24539676
_cell_formula_units_Z   4
loop_
 _symmetry_equiv_pos_site_id
 _symmetry_equiv_pos_as_xyz
  1  'x, y, z'
loop_
 _atom_site_type_symbol
 _atom_site_label
 _atom_site_symmetry_multiplicity
 _atom_site_fract_x
 _atom_site_fract_y
 _atom_site_fract_z
 _atom_site_occupancy
  Li  Li0  1  0.23202100  0.55661700  0.22014500  1
  Li  Li1  1  0.77528100  0.11523700  0.52202700  1
  Li  Li2  1  0.72471900  0.61523700  0.97797300  1
  Li  Li3  1  0.21201400  0.88405100  0.52183100  1
  Li  Li4  1  0.81256000  0.30281300  0.19616400  1
  Li  Li5  1  0.26797900  0.05661700  0.27985500  1
  Li  Li6  1  0.28798600  0.38405100  0.97816900  1
  Li  Li7  1  0.68744000  0.80281300  0.30383600  1
  Ni  Ni0  1  0.30171100  0.37229300  0.49049000  1
  Ni  Ni1  1  0.70394400  0.62977600  0.51632300  1
  Ni  Ni2  1  0.19828900  0.87229300  0.00951000  1
  Ni  Ni3  1  0.79605600  0.12977600  0.98367700  1
  P  P0  1  0.17931500  0.71531800  0.28170900  1
  P  P1  1  0.77885400  0.46501600  0.27721300  1
  P  P2  1  0.82261400  0.28453900  0.71589500  1
  P  P3  1  0.72114600  0.96501600  0.22278700  1
  P  P4  1  0.32068500  0.21531800  0.21829100  1
  P  P5  1  0.28247100  0.03440500  0.77783700  1
  P  P6  1  0.21752900  0.53440500  0.72216300  1
  P  P7  1  0.67738600  0.78453900  0.78410500  1
  O  O0  1  0.36185700  0.55599900  0.93008700  1
  O  O1  1  0.49141100  0.70179600  0.31213300  1
  O  O2  1  0.64188000  0.69733000  0.76360300  1
  O  O3  1  0.64117700  0.43296000  0.46320700  1
  O  O4  1  0.06456000  0.66316900  0.11095500  1
  O  O5  1  0.41590200  0.93989600  0.22052700  1
  O  O6  1  0.14455800  0.06803200  0.96234700  1
  O  O7  1  0.38704500  0.30139700  0.25384500  1
  O  O8  1  0.63019600  0.43310400  0.08374600  1
  O  O9  1  0.94710200  0.32276300  0.91123700  1
  O  O10  1  0.46685300  0.19615500  0.02289000  1
  O  O11  1  0.00858900  0.20179600  0.18786700  1
  O  O12  1  0.11295500  0.80139700  0.24615500  1
  O  O13  1  0.85882300  0.93296000  0.03679300  1
  O  O14  1  0.86980400  0.93310400  0.41625400  1
  O  O15  1  0.28384900  0.94623200  0.78434300  1
  O  O16  1  0.55289800  0.82276300  0.58876300  1
  O  O17  1  0.53978100  0.80922100  0.97978100  1
  O  O18  1  0.51506000  0.30557200  0.69545700  1
  O  O19  1  0.85812000  0.19733000  0.73639700  1
  O  O20  1  0.58094700  0.06334100  0.77671600  1
  O  O21  1  0.21615100  0.44623200  0.71565700  1
  O  O22  1  0.13814300  0.05599900  0.56991300  1
  O  O23  1  0.96021900  0.30922100  0.52021900  1
  O  O24  1  0.91905300  0.56334100  0.72328400  1
  O  O25  1  0.77532200  0.55338400  0.27725600  1
  O  O26  1  0.08409800  0.43989600  0.27947300  1
  O  O27  1  0.98494000  0.80557200  0.80454300  1
  O  O28  1  0.72467800  0.05338400  0.22274400  1
  O  O29  1  0.35544200  0.56803200  0.53765300  1
  O  O30  1  0.43544000  0.16316900  0.38904500  1
  O  O31  1  0.03314700  0.69615500  0.47711000  1
loop_
_geom_bond_atom_site_label_1
_geom_bond_atom_site_label_2
_geom_bond_distance
_geom_bond_site_symmetry_2
Li0 O0 2.052053 1_554
Li0 O29 2.150709 1_555
Li0 O4 2.153453 1_555
Li0 O26 2.221918 1_555
Li0 O25 2.297121 1_455
Li1 O30 2.019975 1_555
Li1 O19 2.043712 1_555
Li1 O22 2.071188 1_655
Li1 O20 2.181872 1_555
Li1 O28 2.252632 1_555
Li2 O4 2.019975 1_656
Li2 O2 2.043712 1_555
Li2 O0 2.071188 1_555
Li2 O24 2.181872 1_555
Li2 O25 2.252632 1_556
Li3 O14 1.976292 1_455
Li3 O16 2.016577 1_555
Li3 O15 2.058595 1_555
Li3 O12 2.354172 1_555
Li3 O5 2.481420 1_555
Li3 O27 2.622993 1_455
Li4 O11 2.024225 1_655
Li4 O9 2.058824 1_554
Li4 O7 2.146572 1_555
Li4 O23 2.214405 1_555
Li5 O22 2.052053 1_555
Li5 O6 2.150709 1_554
Li5 O30 2.153453 1_555
Li5 O5 2.221918 1_545
Li5 O28 2.297121 1_555
Li6 O8 1.976292 1_556
Li6 O9 2.016577 1_455
Li6 O21 2.058595 1_555
Li6 O7 2.354172 1_556
Li6 O26 2.481420 1_556
Li6 O18 2.622993 1_555
Li7 O1 2.024225 1_555
Li7 O16 2.058824 1_555
Li7 O12 2.146572 1_655
Li7 O17 2.214405 1_554
Ni0 O3 1.996823 1_555
Ni0 O23 2.030372 1_455
Ni0 O18 2.030624 1_555
Ni0 O21 2.036955 1_555
Ni0 O7 2.060475 1_555
Ni0 O26 2.074809 1_555
Ni1 O31 2.023845 1_655
Ni1 O29 2.039122 1_555
Ni1 O24 2.040165 1_555
Ni1 O2 2.055083 1_555
Ni1 O1 2.080961 1_555
Ni1 O25 2.116848 1_555
Ni2 O13 1.996823 1_455
Ni2 O17 2.030372 1_554
Ni2 O27 2.030624 1_454
Ni2 O15 2.036955 1_554
Ni2 O12 2.060475 1_555
Ni2 O5 2.074809 1_555
Ni3 O10 2.023845 1_556
Ni3 O6 2.039122 1_655
Ni3 O20 2.040165 1_555
Ni3 O19 2.055083 1_555
Ni3 O11 2.080961 1_656
Ni3 O28 2.116848 1_556
O0 P6 1.549852 1_555
O1 P0 1.551087 1_555
O2 P7 1.549911 1_555
O3 P1 1.542867 1_555
O4 P0 1.531858 1_555
O5 P3 1.561541 1_555
O6 P5 1.545788 1_555
O7 P4 1.564395 1_555
O8 P1 1.535190 1_555
O9 P2 1.544173 1_555
O10 P4 1.549709 1_555
O11 P4 1.551087 1_555
O12 P0 1.564395 1_555
O13 P3 1.542867 1_555
O14 P3 1.535190 1_555
O15 P5 1.552665 1_565
O16 P7 1.544173 1_555
O17 P7 1.554373 1_555
O18 P2 1.552218 1_555
O19 P2 1.549911 1_555
O20 P5 1.551717 1_555
O21 P6 1.552665 1_555
O22 P5 1.549852 1_555
O23 P2 1.554373 1_555
O24 P6 1.551717 1_655
O25 P1 1.555600 1_555
O26 P1 1.561541 1_455
O27 P7 1.552218 1_555
O28 P3 1.555600 1_545
O29 P6 1.545788 1_555
O30 P4 1.531858 1_555
O31 P0 1.549709 1_555
