# generated using pymatgen
data_Pr3OsI3
_symmetry_space_group_name_H-M   'P 1'
_cell_length_a   4.36026069
_cell_length_b   9.33648757
_cell_length_c   12.67142561
_cell_angle_alpha   92.94678295
_cell_angle_beta   90.00000000
_cell_angle_gamma   90.00000000
_symmetry_Int_Tables_number   1
_chemical_formula_structural   Pr3OsI3
_chemical_formula_sum   'Pr6 Os2 I6'
_cell_volume   515.16555280
_cell_formula_units_Z   2
loop_
 _symmetry_equiv_pos_site_id
 _symmetry_equiv_pos_as_xyz
  1  'x, y, z'
loop_
 _atom_site_type_symbol
 _atom_site_label
 _atom_site_symmetry_multiplicity
 _atom_site_fract_x
 _atom_site_fract_y
 _atom_site_fract_z
 _atom_site_occupancy
  Pr  Pr0  1  0.75000000  0.30808326  0.11857601  1
  Pr  Pr1  1  0.25000000  0.11673028  0.33146667  1
  Pr  Pr2  1  0.25000000  0.69191674  0.88142399  1
  Pr  Pr3  1  0.25000000  0.09717713  0.88975765  1
  Pr  Pr4  1  0.75000000  0.88326972  0.66853333  1
  Pr  Pr5  1  0.75000000  0.90282287  0.11024235  1
  Os  Os0  1  0.25000000  0.10930917  0.12029303  1
  Os  Os1  1  0.75000000  0.89069083  0.87970697  1
  I  I0  1  0.25000000  0.60387163  0.13316399  1
  I  I1  1  0.75000000  0.86655587  0.38258945  1
  I  I2  1  0.75000000  0.39612837  0.86683601  1
  I  I3  1  0.25000000  0.63147801  0.62378145  1
  I  I4  1  0.75000000  0.36852199  0.37621855  1
  I  I5  1  0.25000000  0.13344413  0.61741055  1
loop_
_geom_bond_atom_site_label_1
_geom_bond_atom_site_label_2
_geom_bond_distance
_geom_bond_site_symmetry_2
Os0 Pr1 2.673205 1_555
Os0 Pr0 2.863875 1_455
Os0 Pr0 2.863875 1_555
Os0 Pr5 2.908707 1_445
Os0 Pr5 2.908707 1_545
Os0 Pr3 2.917583 1_554
Os1 Pr4 2.673205 1_555
Os1 Pr2 2.863875 1_655
Os1 Pr2 2.863875 1_555
Os1 Pr3 2.908707 1_565
Os1 Pr3 2.908707 1_665
Os1 Pr5 2.917583 1_556
I0 Pr2 3.334792 1_554
I0 Pr0 3.515853 1_455
I0 Pr0 3.515853 1_555
I0 Pr5 3.565281 1_455
I0 Pr5 3.565281 1_555
I1 Pr1 3.283887 1_665
I1 Pr1 3.283887 1_565
I1 Pr5 3.484879 1_555
I1 Pr4 3.618652 1_555
I2 Pr0 3.334792 1_556
I2 Pr2 3.515853 1_555
I2 Pr2 3.515853 1_655
I2 Pr3 3.565281 1_555
I2 Pr3 3.565281 1_655
I3 Pr4 3.234806 1_455
I3 Pr4 3.234806 1_555
I3 Pr2 3.284397 1_555
I4 Pr1 3.234806 1_655
I4 Pr1 3.234806 1_555
I4 Pr0 3.284397 1_555
I5 Pr4 3.283887 1_445
I5 Pr4 3.283887 1_545
I5 Pr3 3.484879 1_555
I5 Pr1 3.618652 1_555
