# generated using pymatgen
data_NaTaN2
_symmetry_space_group_name_H-M   'P 1'
_cell_length_a   5.91380359
_cell_length_b   5.91380359
_cell_length_c   5.91380338
_cell_angle_alpha   30.63657341
_cell_angle_beta   30.63657341
_cell_angle_gamma   30.63658621
_symmetry_Int_Tables_number   1
_chemical_formula_structural   NaTaN2
_chemical_formula_sum   'Na1 Ta1 N2'
_cell_volume   47.61947277
_cell_formula_units_Z   1
loop_
 _symmetry_equiv_pos_site_id
 _symmetry_equiv_pos_as_xyz
  1  'x, y, z'
loop_
 _atom_site_type_symbol
 _atom_site_label
 _atom_site_symmetry_multiplicity
 _atom_site_fract_x
 _atom_site_fract_y
 _atom_site_fract_z
 _atom_site_occupancy
  Na  Na0  1  0.50000000  0.50000000  0.50000000  1
  Ta  Ta0  1  -0.00000000  -0.00000000  0.00000000  1
  N  N0  1  0.73117881  0.73117881  0.73117881  1
  N  N1  1  0.26882119  0.26882119  0.26882119  1
loop_
_geom_bond_atom_site_label_1
_geom_bond_atom_site_label_2
_geom_bond_distance
_geom_bond_site_symmetry_2
N0 Ta0 2.107723 1_665
N0 Ta0 2.107724 1_656
N0 Ta0 2.107724 1_566
N0 Na0 2.496687 1_556
N0 Na0 2.496687 1_565
N0 Na0 2.496687 1_655
N1 Ta0 2.107723 1_556
N1 Ta0 2.107724 1_565
N1 Ta0 2.107724 1_655
N1 Na0 2.496687 1_554
N1 Na0 2.496687 1_545
N1 Na0 2.496687 1_455
