# generated using pymatgen
data_Tb(SiOs)2
_symmetry_space_group_name_H-M   'P 1'
_cell_length_a   4.17426589
_cell_length_b   4.17426588
_cell_length_c   5.63943407
_cell_angle_alpha   111.72154616
_cell_angle_beta   111.72154040
_cell_angle_gamma   90.00000168
_symmetry_Int_Tables_number   1
_chemical_formula_structural   Tb(SiOs)2
_chemical_formula_sum   'Tb1 Si2 Os2'
_cell_volume   83.73004579
_cell_formula_units_Z   1
loop_
 _symmetry_equiv_pos_site_id
 _symmetry_equiv_pos_as_xyz
  1  'x, y, z'
loop_
 _atom_site_type_symbol
 _atom_site_label
 _atom_site_symmetry_multiplicity
 _atom_site_fract_x
 _atom_site_fract_y
 _atom_site_fract_z
 _atom_site_occupancy
  Tb  Tb0  1  -0.00000000  0.00000000  0.00000000  1
  Si  Si0  1  0.63006025  0.63006025  0.26012050  1
  Si  Si1  1  0.36993975  0.36993975  0.73987950  1
  Os  Os0  1  0.25000000  0.75000000  0.50000000  1
  Os  Os1  1  0.75000000  0.25000000  0.50000000  1
loop_
_geom_bond_atom_site_label_1
_geom_bond_atom_site_label_2
_geom_bond_distance
_geom_bond_site_symmetry_2
Si0 Tb0 3.205409 1_665
Si0 Tb0 3.205409 1_655
Si0 Tb0 3.205409 1_555
Si0 Tb0 3.205409 1_565
Si1 Tb0 3.205409 1_556
Si1 Tb0 3.205409 1_566
Si1 Tb0 3.205409 1_666
Si1 Tb0 3.205409 1_656
Os0 Si0 2.384288 1_555
Os0 Si1 2.384288 1_555
Os0 Si1 2.384288 1_565
Os0 Si0 2.384288 1_455
Os0 Tb0 3.182588 1_566
Os0 Tb0 3.182588 1_565
Os0 Tb0 3.182588 1_555
Os0 Tb0 3.182588 1_666
Os1 Si1 2.384288 1_555
Os1 Si0 2.384288 1_555
Os1 Si0 2.384288 1_545
Os1 Si1 2.384288 1_655
Os1 Tb0 3.182588 1_655
Os1 Tb0 3.182588 1_656
Os1 Tb0 3.182588 1_666
Os1 Tb0 3.182588 1_555
