# generated using pymatgen
data_TbTaO4
_symmetry_space_group_name_H-M   'P 1'
_cell_length_a   5.07045837
_cell_length_b   5.35200314
_cell_length_c   6.52171307
_cell_angle_alpha   111.92318029
_cell_angle_beta   110.45955301
_cell_angle_gamma   95.48003908
_symmetry_Int_Tables_number   1
_chemical_formula_structural   TbTaO4
_chemical_formula_sum   'Tb2 Ta2 O8'
_cell_volume   148.53402038
_cell_formula_units_Z   2
loop_
 _symmetry_equiv_pos_site_id
 _symmetry_equiv_pos_as_xyz
  1  'x, y, z'
loop_
 _atom_site_type_symbol
 _atom_site_label
 _atom_site_symmetry_multiplicity
 _atom_site_fract_x
 _atom_site_fract_y
 _atom_site_fract_z
 _atom_site_occupancy
  Tb  Tb0  1  0.38159716  0.63160695  0.76322599  1
  Tb  Tb1  1  0.61840284  0.36839305  0.23677401  1
  Ta  Ta0  1  0.14855034  0.89860176  0.29708819  1
  Ta  Ta1  1  0.85144966  0.10139824  0.70291181  1
  O  O0  1  0.56135882  0.27312625  0.56265765  1
  O  O1  1  0.79388890  0.63319031  0.08032022  1
  O  O2  1  0.43864218  0.72687375  0.43734235  1
  O  O3  1  0.71361542  0.05289109  0.91971153  1
  O  O4  1  0.00132554  0.78951232  0.56265420  1
  O  O5  1  0.28638458  0.94710891  0.08028847  1
  O  O6  1  0.20611110  0.36680969  0.91967978  1
  O  O7  1  0.99867446  0.21048768  0.43734580  1
loop_
_geom_bond_atom_site_label_1
_geom_bond_atom_site_label_2
_geom_bond_distance
_geom_bond_site_symmetry_2
O0 Ta1 1.946874 1_555
O0 Ta0 2.338942 1_545
O0 Tb0 2.348675 1_555
O0 Tb1 2.464015 1_555
O1 Ta0 1.866949 1_655
O1 Tb1 2.305413 1_555
O1 Tb0 2.368153 1_554
O2 Ta0 1.946878 1_555
O2 Ta1 2.338939 1_565
O2 Tb1 2.348672 1_555
O2 Tb0 2.464017 1_555
O3 Ta1 1.866874 1_555
O3 Tb0 2.305437 1_545
O3 Tb1 2.367783 1_556
O4 Ta1 1.946430 1_465
O4 Ta0 2.339543 1_555
O4 Tb0 2.348727 1_555
O4 Tb1 2.463529 1_455
O5 Ta0 1.866874 1_555
O5 Tb1 2.305437 1_565
O5 Tb0 2.367783 1_554
O6 Ta1 1.866949 1_455
O6 Tb0 2.305413 1_555
O6 Tb1 2.368153 1_556
O7 Ta0 1.946430 1_645
O7 Ta1 2.339543 1_555
O7 Tb1 2.348727 1_555
O7 Tb0 2.463529 1_655
