# generated using pymatgen
data_KLaGeS4
_symmetry_space_group_name_H-M   'P 1'
_cell_length_a   6.74221400
_cell_length_b   6.71891300
_cell_length_c   8.72688800
_cell_angle_alpha   72.41856987
_cell_angle_beta   90.00000000
_cell_angle_gamma   90.00000000
_symmetry_Int_Tables_number   1
_chemical_formula_structural   KLaGeS4
_chemical_formula_sum   'K2 La2 Ge2 S8'
_cell_volume   376.86461376
_cell_formula_units_Z   2
loop_
 _symmetry_equiv_pos_site_id
 _symmetry_equiv_pos_as_xyz
  1  'x, y, z'
loop_
 _atom_site_type_symbol
 _atom_site_label
 _atom_site_symmetry_multiplicity
 _atom_site_fract_x
 _atom_site_fract_y
 _atom_site_fract_z
 _atom_site_occupancy
  K  K0  1  0.48512600  0.27154700  0.93443800  1
  K  K1  1  0.98512600  0.72845300  0.06556200  1
  La  La0  1  0.00014200  0.76761000  0.55434800  1
  La  La1  1  0.50014200  0.23239000  0.44565200  1
  Ge  Ge0  1  0.47416000  0.78341900  0.31270900  1
  Ge  Ge1  1  0.97416000  0.21658100  0.68729100  1
  S  S0  1  0.72998100  0.98016200  0.73241000  1
  S  S1  1  0.47139200  0.58555100  0.15209700  1
  S  S2  1  0.24318300  0.01385300  0.72031500  1
  S  S3  1  0.43517600  0.59100200  0.57072400  1
  S  S4  1  0.97139200  0.41444900  0.84790300  1
  S  S5  1  0.74318300  0.98614700  0.27968500  1
  S  S6  1  0.22998100  0.01983800  0.26759000  1
  S  S7  1  0.93517600  0.40899800  0.42927600  1
loop_
_geom_bond_atom_site_label_1
_geom_bond_atom_site_label_2
_geom_bond_distance
_geom_bond_site_symmetry_2
K0 S1 3.238631 1_556
K0 S3 3.267947 1_555
K0 S2 3.332428 1_555
K0 S6 3.361819 1_556
K0 S0 3.428119 1_545
K0 S4 3.435515 1_555
K0 S5 3.505952 1_546
K0 S4 3.612671 1_455
K1 S4 3.238631 1_554
K1 S7 3.267947 1_555
K1 S5 3.332428 1_555
K1 S0 3.361819 1_554
K1 S6 3.428119 1_665
K1 S1 3.435515 1_655
K1 S2 3.505952 1_664
K1 S1 3.612671 1_555
La0 S4 2.925508 1_455
La0 S5 2.962537 1_455
La0 S7 2.962703 1_455
La0 S2 2.994646 1_565
La0 S6 2.995629 1_565
La0 S0 3.018721 1_455
La0 S3 3.151041 1_555
La1 S1 2.925508 1_555
La1 S2 2.962537 1_555
La1 S3 2.962703 1_555
La1 S5 2.994646 1_545
La1 S0 2.995629 1_545
La1 S6 3.018721 1_555
La1 S7 3.151041 1_555
Ge0 S1 2.204120 1_555
Ge0 S5 2.234091 1_555
Ge0 S6 2.238476 1_565
Ge0 S3 2.247642 1_555
Ge1 S4 2.204120 1_555
Ge1 S2 2.234091 1_655
Ge1 S0 2.238476 1_545
Ge1 S7 2.247642 1_555
