# generated using pymatgen
data_NbO2
_symmetry_space_group_name_H-M   'P 1'
_cell_length_a   6.04045043
_cell_length_b   7.54400471
_cell_length_c   7.54320008
_cell_angle_alpha   80.77263263
_cell_angle_beta   66.40185113
_cell_angle_gamma   66.39344222
_symmetry_Int_Tables_number   1
_chemical_formula_structural   NbO2
_chemical_formula_sum   'Nb8 O16'
_cell_volume   288.63310882
_cell_formula_units_Z   8
loop_
 _symmetry_equiv_pos_site_id
 _symmetry_equiv_pos_as_xyz
  1  'x, y, z'
loop_
 _atom_site_type_symbol
 _atom_site_label
 _atom_site_symmetry_multiplicity
 _atom_site_fract_x
 _atom_site_fract_y
 _atom_site_fract_z
 _atom_site_occupancy
  Nb  Nb0  1  0.23362983  0.75353803  0.73003181  1
  Nb  Nb1  1  0.79078887  0.72979576  0.24656778  1
  Nb  Nb2  1  0.21379995  0.76997161  0.25341802  1
  Nb  Nb3  1  0.71723692  0.24652678  0.27007927  1
  Nb  Nb4  1  0.23728751  0.23008338  0.74652402  1
  Nb  Nb5  1  0.28763077  0.25325748  0.22994491  1
  Nb  Nb6  1  0.76731549  0.27012607  0.75348373  1
  Nb  Nb7  1  0.77070229  0.74661806  0.77003242  1
  O  O0  1  0.12904323  0.52578070  0.74447272  1
  O  O1  1  0.60548977  0.02565926  0.24442983  1
  O  O2  1  0.41143538  0.95013561  0.74593647  1
  O  O3  1  0.39939909  0.47420741  0.25547530  1
  O  O4  1  0.90494051  0.24447515  0.97429163  1
  O  O5  1  0.59707972  0.74599321  0.04998860  1
  O  O6  1  0.39304816  0.25411956  0.95001356  1
  O  O7  1  0.87542281  0.97435893  0.75549466  1
  O  O8  1  0.12370803  0.75537812  0.02574839  1
  O  O9  1  0.09976256  0.25552022  0.52572490  1
  O  O10  1  0.61158288  0.24599938  0.55000355  1
  O  O11  1  0.89716444  0.44998608  0.24594871  1
  O  O12  1  0.88093580  0.74452252  0.47427927  1
  O  O13  1  0.59305072  0.55003941  0.75403584  1
  O  O14  1  0.10764847  0.04987313  0.25399331  1
  O  O15  1  0.40749482  0.75403314  0.45007831  1
loop_
_geom_bond_atom_site_label_1
_geom_bond_atom_site_label_2
_geom_bond_distance
_geom_bond_site_symmetry_2
Nb0 O15 1.946125 1_555
Nb0 O0 2.029147 1_555
Nb0 O8 2.057566 1_556
Nb0 O7 2.092072 1_455
Nb0 O13 2.158538 1_555
Nb0 O2 2.191717 1_555
Nb1 O11 1.945039 1_555
Nb1 O12 2.029227 1_555
Nb1 O1 2.058377 1_565
Nb1 O8 2.093244 1_655
Nb1 O15 2.157734 1_555
Nb1 O5 2.190748 1_555
Nb2 O14 1.945828 1_565
Nb2 O8 2.028415 1_555
Nb2 O3 2.057902 1_555
Nb2 O12 2.092793 1_455
Nb2 O5 2.157940 1_555
Nb2 O15 2.191741 1_555
Nb3 O10 1.945834 1_555
Nb3 O3 2.028760 1_555
Nb3 O4 2.058049 1_554
Nb3 O1 2.092393 1_555
Nb3 O11 2.158321 1_555
Nb3 O14 2.191716 1_655
Nb4 O2 1.945967 1_545
Nb4 O4 2.029177 1_455
Nb4 O0 2.057382 1_555
Nb4 O9 2.092481 1_555
Nb4 O6 2.157868 1_555
Nb4 O10 2.191023 1_555
Nb5 O6 1.945935 1_554
Nb5 O1 2.028288 1_555
Nb5 O9 2.058051 1_555
Nb5 O3 2.092751 1_555
Nb5 O14 2.158206 1_555
Nb5 O11 2.192285 1_455
Nb6 O13 1.945826 1_555
Nb6 O9 2.029193 1_655
Nb6 O7 2.057992 1_545
Nb6 O4 2.092640 1_555
Nb6 O10 2.157931 1_555
Nb6 O6 2.191154 1_555
Nb7 O5 1.946031 1_556
Nb7 O7 2.029385 1_555
Nb7 O12 2.057715 1_555
Nb7 O0 2.092528 1_655
Nb7 O2 2.158137 1_555
Nb7 O13 2.191112 1_555
