# generated using pymatgen
data_K2MgP2WO10
_symmetry_space_group_name_H-M   'P 1'
_cell_length_a   9.29843900
_cell_length_b   9.31372819
_cell_length_c   10.87907087
_cell_angle_alpha   90.27421242
_cell_angle_beta   90.44223076
_cell_angle_gamma   90.17448251
_symmetry_Int_Tables_number   1
_chemical_formula_structural   K2MgP2WO10
_chemical_formula_sum   'K8 Mg4 P8 W4 O40'
_cell_volume   942.11829723
_cell_formula_units_Z   4
loop_
 _symmetry_equiv_pos_site_id
 _symmetry_equiv_pos_as_xyz
  1  'x, y, z'
loop_
 _atom_site_type_symbol
 _atom_site_label
 _atom_site_symmetry_multiplicity
 _atom_site_fract_x
 _atom_site_fract_y
 _atom_site_fract_z
 _atom_site_occupancy
  K  K0  1  0.84264100  0.50000300  0.34200800  1
  K  K1  1  0.50826400  0.18852600  0.19953800  1
  K  K2  1  0.00374000  0.33596000  0.67735600  1
  K  K3  1  0.66234100  0.99774900  0.87340800  1
  K  K4  1  0.25705200  0.00758400  0.45018200  1
  K  K5  1  0.51642700  0.75383100  0.57519200  1
  K  K6  1  0.26352800  0.47636300  0.93939300  1
  K  K7  1  0.98946600  0.73013800  0.05230400  1
  Mg  Mg0  1  0.35425500  0.35632700  0.49507400  1
  Mg  Mg1  1  0.86678300  0.12314400  0.24183100  1
  Mg  Mg2  1  0.64324800  0.62521200  0.01277000  1
  Mg  Mg3  1  0.15497300  0.84326100  0.75076900  1
  P  P0  1  0.17327700  0.31748100  0.23463900  1
  P  P1  1  0.83455400  0.68166200  0.76072300  1
  P  P2  1  0.67603700  0.18360400  0.49506900  1
  P  P3  1  0.67728200  0.81364700  0.26764500  1
  P  P4  1  0.32937900  0.15775000  0.74152700  1
  P  P5  1  0.82485900  0.31193000  0.98838400  1
  P  P6  1  0.33957600  0.82182700  0.00819000  1
  P  P7  1  0.16613400  0.65860700  0.49666000  1
  W  W0  1  0.37975300  0.61124700  0.25244300  1
  W  W1  1  0.11980800  0.10200700  0.99319600  1
  W  W2  1  0.60883700  0.39251800  0.74463100  1
  W  W3  1  0.89213500  0.89216000  0.50916400  1
  O  O0  1  0.05522000  0.97900000  0.87726200  1
  O  O1  1  0.99746100  0.67149900  0.77134400  1
  O  O2  1  0.69470400  0.97094300  0.23630700  1
  O  O3  1  0.25598700  0.75711600  0.89965700  1
  O  O4  1  0.74340900  0.77684700  0.39815900  1
  O  O5  1  0.33448300  0.99503000  0.72980000  1
  O  O6  1  0.22813100  0.24791000  0.11052700  1
  O  O7  1  0.51042300  0.77797600  0.28777500  1
  O  O8  1  0.95728800  0.99066200  0.37919300  1
  O  O9  1  0.77199600  0.52939200  0.71689700  1
  O  O10  1  0.20836600  0.48414400  0.21531800  1
  O  O11  1  0.73924800  0.70929800  0.17274200  1
  O  O12  1  0.98883500  0.26909000  0.96037700  1
  O  O13  1  0.27857400  0.74799100  0.12762800  1
  O  O14  1  0.50171200  0.80819000  0.99971800  1
  O  O15  1  0.73014200  0.02794100  0.53722000  1
  O  O16  1  0.24185800  0.71327900  0.37588600  1
  O  O17  1  0.00306700  0.70879200  0.48020100  1
  O  O18  1  0.81665600  0.47033200  0.02163300  1
  O  O19  1  0.29871300  0.98703700  0.02495900  1
  O  O20  1  0.01358300  0.03353300  0.11730100  1
  O  O21  1  0.48425500  0.45815400  0.63045700  1
  O  O22  1  0.24161100  0.20874200  0.85699500  1
  O  O23  1  0.44689600  0.49972100  0.37490500  1
  O  O24  1  0.16861100  0.49588700  0.50725000  1
  O  O25  1  0.48881400  0.21564500  0.76973900  1
  O  O26  1  0.26551000  0.25890900  0.33970000  1
  O  O27  1  0.23683600  0.73979500  0.60354300  1
  O  O28  1  0.76151000  0.72841600  0.87981300  1
  O  O29  1  0.48863700  0.53773700  0.13049900  1
  O  O30  1  0.75103700  0.27937600  0.85967700  1
  O  O31  1  0.26653500  0.23310100  0.62872100  1
  O  O32  1  0.02436600  0.95357900  0.61919900  1
  O  O33  1  0.01265000  0.29878700  0.25021800  1
  O  O34  1  0.75696200  0.23017900  0.38013300  1
  O  O35  1  0.76417000  0.20944900  0.08448700  1
  O  O36  1  0.54747100  0.49609700  0.87437600  1
  O  O37  1  0.72231100  0.28120400  0.60725100  1
  O  O38  1  0.78544700  0.78503900  0.65454400  1
  O  O39  1  0.51345400  0.18139900  0.47724600  1
loop_
_geom_bond_atom_site_label_1
_geom_bond_atom_site_label_2
_geom_bond_distance
_geom_bond_site_symmetry_2
K0 O33 2.651945 1_655
K0 O34 2.669292 1_555
K0 O4 2.807323 1_555
K0 O11 2.851933 1_555
K0 O17 2.861235 1_655
K1 O2 2.700106 1_545
K1 O35 2.704113 1_555
K1 O26 2.811140 1_555
K1 O6 2.829057 1_555
K1 O39 3.022268 1_555
K1 O34 3.045545 1_555
K1 O19 3.288159 1_545
K1 O29 3.346757 1_555
K2 O31 2.682942 1_555
K2 O37 2.765322 1_455
K2 O24 2.837226 1_555
K2 O9 2.846868 1_455
K2 O30 3.131716 1_455
K2 O12 3.148300 1_455
K2 O22 3.175976 1_555
K2 O1 3.284317 1_455
K3 O28 2.676279 1_555
K3 O14 2.697207 1_555
K3 O30 2.752289 1_565
K3 O25 2.829803 1_565
K3 O35 3.157390 1_566
K3 O38 3.303823 1_555
K3 O5 3.414804 1_555
K4 O26 2.637676 1_555
K4 O31 2.854703 1_555
K4 O16 2.856823 1_545
K4 O39 2.890091 1_555
K4 O8 2.890235 1_445
K4 O32 2.894627 1_545
K4 O27 3.013536 1_545
K4 O5 3.123432 1_545
K5 O27 2.623293 1_555
K5 O38 2.654599 1_555
K5 O21 2.836952 1_555
K5 O4 2.876411 1_555
K5 O7 3.136059 1_555
K5 O15 3.260258 1_565
K5 O23 3.269046 1_555
K5 O5 3.281579 1_555
K6 O22 2.651526 1_555
K6 O3 2.653439 1_555
K6 O36 2.744449 1_555
K6 O6 2.853941 1_556
K6 O29 2.990771 1_556
K6 O10 3.049771 1_556
K6 O12 3.207194 1_455
K6 O13 3.249188 1_556
K7 O11 2.685967 1_555
K7 O13 2.808528 1_655
K7 O28 2.820040 1_554
K7 O18 2.917004 1_555
K7 O20 2.917131 1_665
K7 O3 3.004375 1_654
K7 O0 3.069869 1_654
K7 O1 3.103914 1_554
Mg0 O31 2.031025 1_555
Mg0 O23 2.064432 1_555
Mg0 O26 2.078606 1_555
Mg0 O21 2.117087 1_555
Mg0 O24 2.168502 1_555
Mg0 O39 2.213460 1_555
Mg1 O34 2.077486 1_555
Mg1 O20 2.102356 1_655
Mg1 O8 2.113867 1_545
Mg1 O35 2.116425 1_555
Mg1 O33 2.123030 1_655
Mg1 O2 2.134756 1_545
Mg2 O28 2.063202 1_554
Mg2 O11 2.097064 1_555
Mg2 O29 2.098156 1_555
Mg2 O36 2.112228 1_554
Mg2 O14 2.160926 1_554
Mg2 O18 2.168673 1_555
Mg3 O27 2.020384 1_555
Mg3 O3 2.035472 1_555
Mg3 O0 2.088673 1_555
Mg3 O32 2.138738 1_555
Mg3 O1 2.179129 1_455
Mg3 O5 2.197913 1_555
O0 W1 1.798403 1_565
O1 P1 1.521561 1_555
O2 P3 1.514240 1_555
O3 P6 1.528945 1_556
O4 P3 1.582418 1_555
O4 W3 2.115907 1_555
O5 P4 1.521197 1_565
O6 P0 1.583474 1_555
O6 W1 2.108478 1_554
O7 P3 1.602616 1_555
O7 W0 2.002754 1_555
O8 W3 1.797284 1_555
O9 P1 1.600377 1_555
O9 W2 2.004196 1_555
O10 P0 1.600383 1_555
O10 W0 2.019448 1_555
O11 P3 1.531501 1_555
O12 P5 1.608267 1_555
O12 W1 2.010578 1_655
O13 P6 1.581324 1_555
O13 W0 2.086890 1_555
O14 P6 1.516812 1_556
O15 P2 1.603919 1_555
O15 W3 1.994075 1_545
O16 P7 1.581114 1_555
O16 W0 2.091032 1_555
O17 P7 1.597038 1_555
O17 W3 2.022517 1_455
O18 P5 1.519609 1_554
O19 P6 1.596013 1_555
O19 W1 2.009699 1_564
O20 W1 1.797280 1_554
O21 W2 1.802176 1_555
O22 P4 1.575455 1_555
O22 W1 2.121243 1_555
O23 W0 1.802230 1_555
O24 P7 1.520683 1_555
O25 P4 1.602896 1_555
O25 W2 2.007908 1_555
O26 P0 1.527472 1_555
O27 P7 1.527355 1_555
O28 P1 1.529530 1_555
O29 W0 1.808324 1_555
O30 P5 1.582259 1_555
O30 W2 2.102571 1_555
O31 P4 1.529621 1_555
O32 W3 1.799567 1_455
O33 P0 1.514077 1_555
O34 P2 1.528271 1_555
O35 P5 1.529037 1_554
O36 W2 1.803150 1_555
O37 P2 1.574742 1_555
O37 W2 2.106669 1_555
O38 P1 1.573225 1_555
O38 W3 2.124683 1_555
O39 P2 1.522731 1_555
