# generated using pymatgen
data_Na3VB6O13
_symmetry_space_group_name_H-M   'P 1'
_cell_length_a   7.75098400
_cell_length_b   10.33245000
_cell_length_c   12.76914300
_cell_angle_alpha   90.00000000
_cell_angle_beta   90.00000000
_cell_angle_gamma   90.00000000
_symmetry_Int_Tables_number   1
_chemical_formula_structural   Na3VB6O13
_chemical_formula_sum   'Na12 V4 B24 O52'
_cell_volume   1022.63794537
_cell_formula_units_Z   4
loop_
 _symmetry_equiv_pos_site_id
 _symmetry_equiv_pos_as_xyz
  1  'x, y, z'
loop_
 _atom_site_type_symbol
 _atom_site_label
 _atom_site_symmetry_multiplicity
 _atom_site_fract_x
 _atom_site_fract_y
 _atom_site_fract_z
 _atom_site_occupancy
  Na  Na0  1  0.73521100  0.28928200  0.23814000  1
  Na  Na1  1  0.75824400  0.27568900  0.73908100  1
  Na  Na2  1  0.12947100  0.49483300  0.52206300  1
  Na  Na3  1  0.23521100  0.21071800  0.76186000  1
  Na  Na4  1  0.62947100  0.00516700  0.47793700  1
  Na  Na5  1  0.26478900  0.78928200  0.26186000  1
  Na  Na6  1  0.74175600  0.72431100  0.23908100  1
  Na  Na7  1  0.76478900  0.71071800  0.73814000  1
  Na  Na8  1  0.24175600  0.77568900  0.76091900  1
  Na  Na9  1  0.25824400  0.22431100  0.26091900  1
  Na  Na10  1  0.87052900  0.99483300  0.97793700  1
  Na  Na11  1  0.37052900  0.50516700  0.02206300  1
  V  V0  1  0.05056600  0.50881900  0.24701200  1
  V  V1  1  0.94943400  0.00881900  0.25298800  1
  V  V2  1  0.55056600  0.99118100  0.75298800  1
  V  V3  1  0.44943400  0.49118100  0.74701200  1
  B  B0  1  0.03005600  0.12924100  0.57501400  1
  B  B1  1  0.40547500  0.50087900  0.27787200  1
  B  B2  1  0.02929200  0.87027000  0.57554400  1
  B  B3  1  0.79967900  0.72429800  0.49484600  1
  B  B4  1  0.90547500  0.99912100  0.72212800  1
  B  B5  1  0.53005600  0.37075900  0.42498600  1
  B  B6  1  0.22169300  0.99845100  0.44191900  1
  B  B7  1  0.09452500  0.49912100  0.77787200  1
  B  B8  1  0.52929200  0.62973000  0.42445600  1
  B  B9  1  0.29737000  0.22420200  0.50358600  1
  B  B10  1  0.47070800  0.12973000  0.07554400  1
  B  B11  1  0.20263000  0.77579800  0.00358600  1
  B  B12  1  0.97070800  0.37027000  0.92445600  1
  B  B13  1  0.70263000  0.72420200  0.99641400  1
  B  B14  1  0.77830700  0.49845100  0.05808100  1
  B  B15  1  0.79737000  0.27579800  0.49641400  1
  B  B16  1  0.29967900  0.77570200  0.50515400  1
  B  B17  1  0.46994400  0.87075900  0.07501400  1
  B  B18  1  0.96994400  0.62924100  0.92498600  1
  B  B19  1  0.59452500  0.00087900  0.22212800  1
  B  B20  1  0.27830700  0.00154900  0.94191900  1
  B  B21  1  0.72169300  0.50154900  0.55808100  1
  B  B22  1  0.70032100  0.27570200  0.99484600  1
  B  B23  1  0.20032100  0.22429800  0.00515400  1
  O  O0  1  0.17741500  0.88087000  0.93773000  1
  O  O1  1  0.88938600  0.16299600  0.50440600  1
  O  O2  1  0.11589300  0.33955000  0.99248900  1
  O  O3  1  0.53321300  0.11643800  0.18469000  1
  O  O4  1  0.33878200  0.88606300  0.44791100  1
  O  O5  1  0.88410700  0.83955000  0.50751100  1
  O  O6  1  0.16121800  0.11393700  0.94791100  1
  O  O7  1  0.60497100  0.50023900  0.46159700  1
  O  O8  1  0.33541900  0.22607200  0.07528200  1
  O  O9  1  0.61589300  0.16045000  0.00751100  1
  O  O10  1  0.61061400  0.83700400  0.00440600  1
  O  O11  1  0.10497100  0.99976100  0.53840300  1
  O  O12  1  0.87938500  0.48432700  0.15512900  1
  O  O13  1  0.22121200  0.49926200  0.70073000  1
  O  O14  1  0.03602700  0.61503900  0.81671600  1
  O  O15  1  0.54055100  0.10467100  0.65897600  1
  O  O16  1  0.37938500  0.01567300  0.84487100  1
  O  O17  1  0.52536200  0.84664700  0.69478400  1
  O  O18  1  0.46678700  0.61643800  0.31531000  1
  O  O19  1  0.89502900  0.49976100  0.96159700  1
  O  O20  1  0.82258500  0.38087000  0.56227000  1
  O  O21  1  0.32258500  0.11913000  0.43773000  1
  O  O22  1  0.83217900  0.72418500  0.92242600  1
  O  O23  1  0.33217900  0.77581500  0.07757400  1
  O  O24  1  0.66121800  0.38606300  0.05208900  1
  O  O25  1  0.11061400  0.66299600  0.99559400  1
  O  O26  1  0.53602700  0.88496100  0.18328400  1
  O  O27  1  0.16782100  0.22418500  0.57757400  1
  O  O28  1  0.67741500  0.61913000  0.06227000  1
  O  O29  1  0.03321300  0.38356200  0.81531000  1
  O  O30  1  0.77878800  0.99926200  0.79927000  1
  O  O31  1  0.62061500  0.51567300  0.65512900  1
  O  O32  1  0.95944900  0.89532900  0.15897600  1
  O  O33  1  0.47463800  0.34664700  0.80521600  1
  O  O34  1  0.04055100  0.39532900  0.34102400  1
  O  O35  1  0.83878200  0.61393700  0.55208900  1
  O  O36  1  0.96678700  0.88356200  0.68469000  1
  O  O37  1  0.66782100  0.27581500  0.42242600  1
  O  O38  1  0.38938600  0.33700400  0.49559400  1
  O  O39  1  0.27878800  0.50073800  0.20073000  1
  O  O40  1  0.46397300  0.38496100  0.31671600  1
  O  O41  1  0.97463800  0.15335300  0.19478400  1
  O  O42  1  0.72121200  0.00073800  0.29927000  1
  O  O43  1  0.45944900  0.60467100  0.84102400  1
  O  O44  1  0.83541900  0.27392800  0.92471800  1
  O  O45  1  0.38410700  0.66045000  0.49248900  1
  O  O46  1  0.12061500  0.98432700  0.34487100  1
  O  O47  1  0.39502900  0.00023900  0.03840300  1
  O  O48  1  0.16458100  0.77392800  0.57528200  1
  O  O49  1  0.66458100  0.72607200  0.42471800  1
  O  O50  1  0.02536200  0.65335300  0.30521600  1
  O  O51  1  0.96397300  0.11503900  0.68328400  1
loop_
_geom_bond_atom_site_label_1
_geom_bond_atom_site_label_2
_geom_bond_distance
_geom_bond_site_symmetry_2
Na0 O41 2.392286 1_555
Na0 O37 2.414462 1_555
Na0 O3 2.471160 1_555
Na0 O40 2.530604 1_555
Na0 O12 2.536483 1_555
Na0 O24 2.640625 1_555
Na0 O34 2.920227 1_655
Na1 O51 2.409498 1_555
Na1 O44 2.444805 1_555
Na1 O33 2.466352 1_555
Na1 O20 2.554822 1_555
Na1 O29 2.594637 1_655
Na1 O15 2.648732 1_555
Na2 O13 2.390111 1_555
Na2 O35 2.595774 1_455
Na2 O38 2.613851 1_555
Na2 O34 2.622226 1_555
Na2 O45 2.639380 1_555
Na2 O20 2.703368 1_455
Na2 O27 2.900167 1_555
Na2 O48 2.975196 1_555
Na3 O33 2.392286 1_555
Na3 O27 2.414462 1_555
Na3 O29 2.471160 1_555
Na3 O51 2.530604 1_455
Na3 O16 2.536483 1_555
Na3 O6 2.640625 1_555
Na3 O15 2.920227 1_555
Na4 O42 2.390111 1_555
Na4 O4 2.595774 1_545
Na4 O1 2.613851 1_555
Na4 O15 2.622226 1_555
Na4 O5 2.639380 1_545
Na4 O21 2.703368 1_555
Na4 O37 2.900167 1_555
Na4 O49 2.975196 1_545
Na5 O50 2.392286 1_555
Na5 O23 2.414462 1_555
Na5 O18 2.471160 1_555
Na5 O26 2.530604 1_555
Na5 O46 2.536483 1_555
Na5 O4 2.640625 1_555
Na5 O32 2.920227 1_455
Na6 O26 2.409498 1_555
Na6 O49 2.444805 1_555
Na6 O50 2.466352 1_655
Na6 O28 2.554822 1_555
Na6 O18 2.594637 1_555
Na6 O32 2.648732 1_555
Na7 O17 2.392286 1_555
Na7 O22 2.414462 1_555
Na7 O36 2.471160 1_555
Na7 O14 2.530604 1_655
Na7 O31 2.536483 1_555
Na7 O35 2.640625 1_555
Na7 O43 2.920227 1_555
Na8 O14 2.409498 1_555
Na8 O48 2.444805 1_555
Na8 O17 2.466352 1_555
Na8 O0 2.554822 1_555
Na8 O36 2.594637 1_455
Na8 O43 2.648732 1_555
Na9 O40 2.409498 1_555
Na9 O8 2.444805 1_555
Na9 O41 2.466352 1_455
Na9 O21 2.554822 1_555
Na9 O3 2.594637 1_555
Na9 O34 2.648732 1_555
Na10 O30 2.390111 1_555
Na10 O6 2.595774 1_665
Na10 O10 2.613851 1_556
Na10 O32 2.622226 1_556
Na10 O9 2.639380 1_566
Na10 O0 2.703368 1_655
Na10 O22 2.900167 1_555
Na10 O44 2.975196 1_565
Na11 O39 2.390111 1_555
Na11 O24 2.595774 1_555
Na11 O25 2.613851 1_554
Na11 O43 2.622226 1_554
Na11 O2 2.639380 1_554
Na11 O28 2.703368 1_555
Na11 O23 2.900167 1_555
Na11 O8 2.975196 1_555
B0 O27 1.450402 1_555
B0 O1 1.457173 1_455
B0 O51 1.481634 1_455
B0 O11 1.531519 1_545
B1 O18 1.371142 1_555
B1 O40 1.373366 1_555
B1 O39 1.390872 1_555
B2 O48 1.445870 1_555
B2 O5 1.456637 1_455
B2 O36 1.481884 1_455
B2 O11 1.535949 1_555
B3 O5 1.368387 1_555
B3 O49 1.377940 1_555
B3 O35 1.387957 1_555
B4 O36 1.371142 1_555
B4 O51 1.373366 1_565
B4 O30 1.390872 1_555
B5 O37 1.450402 1_555
B5 O38 1.457173 1_555
B5 O40 1.481634 1_555
B5 O7 1.531519 1_555
B6 O21 1.472816 1_565
B6 O46 1.473351 1_555
B6 O4 1.475804 1_555
B6 O11 1.528579 1_555
B7 O29 1.371142 1_555
B7 O14 1.373366 1_555
B7 O13 1.390872 1_555
B8 O49 1.445870 1_555
B8 O45 1.456637 1_555
B8 O18 1.481884 1_555
B8 O7 1.535949 1_555
B9 O38 1.370229 1_555
B9 O27 1.378717 1_555
B9 O21 1.387080 1_555
B10 O8 1.445870 1_555
B10 O9 1.456637 1_555
B10 O3 1.481884 1_555
B10 O47 1.535949 1_555
B11 O25 1.370229 1_554
B11 O23 1.378717 1_555
B11 O0 1.387080 1_554
B12 O44 1.445870 1_555
B12 O2 1.456637 1_655
B12 O29 1.481884 1_655
B12 O19 1.535949 1_555
B13 O10 1.370229 1_556
B13 O22 1.378717 1_555
B13 O28 1.387080 1_556
B14 O28 1.472816 1_555
B14 O12 1.473351 1_555
B14 O24 1.475804 1_555
B14 O19 1.528579 1_554
B15 O1 1.370229 1_555
B15 O37 1.378717 1_555
B15 O20 1.387080 1_555
B16 O45 1.368387 1_555
B16 O48 1.377940 1_555
B16 O4 1.387957 1_555
B17 O23 1.450402 1_555
B17 O10 1.457173 1_555
B17 O26 1.481634 1_555
B17 O47 1.531519 1_565
B18 O22 1.450402 1_555
B18 O25 1.457173 1_655
B18 O14 1.481634 1_655
B18 O19 1.531519 1_555
B19 O3 1.371142 1_555
B19 O26 1.373366 1_545
B19 O42 1.390872 1_555
B20 O0 1.472816 1_545
B20 O16 1.473351 1_555
B20 O6 1.475804 1_555
B20 O47 1.528579 1_556
B21 O20 1.472816 1_555
B21 O31 1.473351 1_555
B21 O35 1.475804 1_555
B21 O7 1.528579 1_555
B22 O9 1.368387 1_556
B22 O44 1.377940 1_555
B22 O24 1.387957 1_556
B23 O2 1.368387 1_554
B23 O8 1.377940 1_555
B23 O6 1.387957 1_554
O12 V0 1.789148 1_655
O13 V3 1.866922 1_555
O15 V2 1.679932 1_545
O16 V2 1.789148 1_545
O17 V2 1.679508 1_555
O30 V2 1.866922 1_555
O31 V3 1.789148 1_555
O32 V1 1.679932 1_565
O33 V3 1.679508 1_555
O34 V0 1.679932 1_555
O39 V0 1.866922 1_555
O41 V1 1.679508 1_555
O42 V1 1.866922 1_555
O43 V3 1.679932 1_555
O46 V1 1.789148 1_465
O50 V0 1.679508 1_555
