# generated using pymatgen
data_S
_symmetry_space_group_name_H-M   'P 1'
_cell_length_a   12.93778824
_cell_length_b   13.33856392
_cell_length_c   18.07733430
_cell_angle_alpha   69.81984919
_cell_angle_beta   90.00000000
_cell_angle_gamma   90.00000000
_symmetry_Int_Tables_number   1
_chemical_formula_structural   S
_chemical_formula_sum   S104
_cell_volume   2928.12678396
_cell_formula_units_Z   104
loop_
 _symmetry_equiv_pos_site_id
 _symmetry_equiv_pos_as_xyz
  1  'x, y, z'
loop_
 _atom_site_type_symbol
 _atom_site_label
 _atom_site_symmetry_multiplicity
 _atom_site_fract_x
 _atom_site_fract_y
 _atom_site_fract_z
 _atom_site_occupancy
  S  S0  1  0.19307935  0.35766987  0.26212524  1
  S  S1  1  0.55524957  0.59347523  0.72332909  1
  S  S2  1  0.34319018  0.29299314  0.88247892  1
  S  S3  1  0.32972591  0.94917548  0.76021040  1
  S  S4  1  0.70241488  0.22670627  0.37095371  1
  S  S5  1  0.55707733  0.73782847  0.73257521  1
  S  S6  1  0.35840822  0.79618843  0.10951225  1
  S  S7  1  0.65498642  0.92352675  0.87512201  1
  S  S8  1  0.39582729  0.76181848  0.01033230  1
  S  S9  1  0.78641444  0.47028510  0.46606536  1
  S  S10  1  0.94482326  0.61443869  0.91238914  1
  S  S11  1  0.20651522  0.47643420  0.74444805  1
  S  S12  1  0.37096393  0.91168995  0.56374794  1
  S  S13  1  0.17027409  0.94917548  0.26021040  1
  S  S14  1  0.99246358  0.66126980  0.99935431  1
  S  S15  1  0.05517674  0.38556131  0.08761086  1
  S  S16  1  0.40685588  0.07191042  0.77961957  1
  S  S17  1  0.96771080  0.72049373  0.35087053  1
  S  S18  1  0.29758512  0.77329373  0.62904629  1
  S  S19  1  0.87096393  0.08831005  0.93625206  1
  S  S20  1  0.05524957  0.40652477  0.77667091  1
  S  S21  1  0.05707733  0.26217153  0.76742479  1
  S  S22  1  0.82429629  0.01248381  0.25847175  1
  S  S23  1  0.44482326  0.38556131  0.58761086  1
  S  S24  1  0.32429629  0.98751619  0.24152825  1
  S  S25  1  0.89582729  0.23818152  0.48966770  1
  S  S26  1  0.53228920  0.72049373  0.85087053  1
  S  S27  1  0.67570371  0.01248381  0.75847175  1
  S  S28  1  0.84501358  0.92352675  0.37512201  1
  S  S29  1  0.94292267  0.73782847  0.23257521  1
  S  S30  1  0.30692065  0.35766987  0.76212524  1
  S  S31  1  0.40828993  0.90085332  0.45621436  1
  S  S32  1  0.55517674  0.61443869  0.41238914  1
  S  S33  1  0.19370827  0.68588111  0.86437367  1
  S  S34  1  0.09703457  0.04857840  0.39796879  1
  S  S35  1  0.22755182  0.54039401  0.41938526  1
  S  S36  1  0.90685588  0.92808958  0.72038043  1
  S  S37  1  0.92449406  0.39888951  0.45566611  1
  S  S38  1  0.33135654  0.23541399  0.11253541  1
  S  S39  1  0.82972591  0.05082452  0.73978960  1
  S  S40  1  0.14159178  0.79618843  0.60951225  1
  S  S41  1  0.06125764  0.65777913  0.82006660  1
  S  S42  1  0.20241488  0.77329373  0.12904629  1
  S  S43  1  0.67027409  0.05082452  0.23978960  1
  S  S44  1  0.69307935  0.64233013  0.23787476  1
  S  S45  1  0.71358556  0.47028510  0.96606536  1
  S  S46  1  0.60417271  0.23818152  0.98966770  1
  S  S47  1  0.46771080  0.27950627  0.14912947  1
  S  S48  1  0.03228920  0.27950627  0.64912947  1
  S  S49  1  0.93874236  0.34222087  0.17993340  1
  S  S50  1  0.69370827  0.31411889  0.63562633  1
  S  S51  1  0.15680982  0.29299314  0.38247892  1
  S  S52  1  0.16864346  0.23541399  0.61253541  1
  S  S53  1  0.15498642  0.07647325  0.62487799  1
  S  S54  1  0.09314412  0.07191042  0.27961957  1
  S  S55  1  0.85840822  0.20381157  0.39048775  1
  S  S56  1  0.50753642  0.66126980  0.49935431  1
  S  S57  1  0.95351614  0.82318955  0.97011273  1
  S  S58  1  0.79348478  0.52356580  0.25555195  1
  S  S59  1  0.59703457  0.95142160  0.10203121  1
  S  S60  1  0.56125764  0.34222087  0.67993340  1
  S  S61  1  0.28531740  0.14226914  0.91522877  1
  S  S62  1  0.77244818  0.45960599  0.58061474  1
  S  S63  1  0.65680982  0.70700686  0.11752108  1
  S  S64  1  0.59171007  0.09914668  0.54378564  1
  S  S65  1  0.44475043  0.40652477  0.27667091  1
  S  S66  1  0.83135654  0.76458601  0.38746459  1
  S  S67  1  0.21468260  0.14226914  0.41522877  1
  S  S68  1  0.94475043  0.59347523  0.22332909  1
  S  S69  1  0.72755182  0.45960599  0.08061474  1
  S  S70  1  0.71468260  0.85773086  0.08477123  1
  S  S71  1  0.00753642  0.33873020  0.00064569  1
  S  S72  1  0.45351614  0.17681045  0.52988727  1
  S  S73  1  0.28641444  0.52971490  0.03393464  1
  S  S74  1  0.04648386  0.17681045  0.02988727  1
  S  S75  1  0.44292267  0.26217153  0.26742479  1
  S  S76  1  0.21358556  0.52971490  0.53393464  1
  S  S77  1  0.42449406  0.60111049  0.04433389  1
  S  S78  1  0.43874236  0.65777913  0.32006660  1
  S  S79  1  0.80629173  0.31411889  0.13562633  1
  S  S80  1  0.09171007  0.90085332  0.95621436  1
  S  S81  1  0.64159178  0.20381157  0.89048775  1
  S  S82  1  0.10417271  0.76181848  0.51033230  1
  S  S83  1  0.30629173  0.68588111  0.36437367  1
  S  S84  1  0.62903607  0.08831005  0.43625206  1
  S  S85  1  0.80692065  0.64233013  0.73787476  1
  S  S86  1  0.34501358  0.07647325  0.12487799  1
  S  S87  1  0.54648386  0.82318955  0.47011273  1
  S  S88  1  0.29348478  0.47643420  0.24444805  1
  S  S89  1  0.27244818  0.54039401  0.91938526  1
  S  S90  1  0.12903607  0.91168995  0.06374794  1
  S  S91  1  0.90828993  0.09914668  0.04378564  1
  S  S92  1  0.17570371  0.98751619  0.74152825  1
  S  S93  1  0.84319018  0.70700686  0.61752108  1
  S  S94  1  0.78531740  0.85773086  0.58477123  1
  S  S95  1  0.90296543  0.95142160  0.60203121  1
  S  S96  1  0.66864346  0.76458601  0.88746459  1
  S  S97  1  0.70651522  0.52356580  0.75555195  1
  S  S98  1  0.40296543  0.04857840  0.89796879  1
  S  S99  1  0.57550594  0.39888951  0.95566611  1
  S  S100  1  0.59314412  0.92808958  0.22038043  1
  S  S101  1  0.79758512  0.22670627  0.87095371  1
  S  S102  1  0.07550594  0.60111049  0.54433389  1
  S  S103  1  0.49246358  0.33873020  0.50064569  1
loop_
_geom_bond_atom_site_label_1
_geom_bond_atom_site_label_2
_geom_bond_distance
_geom_bond_site_symmetry_2
S0 S88 1.987418 1_555
S0 S51 2.098333 1_555
S1 S5 1.989462 1_555
S1 S97 2.159653 1_555
S2 S61 2.032681 1_555
S2 S30 2.098333 1_555
S3 S92 2.056043 1_555
S4 S84 2.049141 1_555
S4 S55 2.053465 1_555
S6 S8 2.055765 1_555
S7 S96 2.061363 1_555
S10 S14 1.979682 1_555
S10 S41 2.173283 1_655
S11 S30 1.987418 1_555
S11 S20 2.159653 1_555
S12 S18 2.049141 1_555
S12 S31 2.055916 1_555
S13 S54 2.048249 1_565
S13 S24 2.056043 1_555
S14 S57 2.100066 1_555
S15 S71 1.979682 1_555
S15 S49 2.173283 1_455
S16 S3 2.048249 1_545
S16 S98 2.053582 1_555
S17 S66 2.040604 1_555
S17 S29 2.094802 1_555
S18 S40 2.053465 1_555
S19 S91 2.055916 1_556
S20 S21 1.989462 1_555
S21 S48 2.094802 1_555
S22 S28 2.049428 1_545
S22 S43 2.056043 1_555
S23 S60 2.173283 1_555
S24 S86 2.049428 1_565
S25 S37 2.049725 1_555
S25 S55 2.055765 1_555
S26 S96 2.040604 1_555
S26 S5 2.094802 1_555
S27 S7 2.049428 1_545
S27 S39 2.056043 1_555
S28 S66 2.061363 1_555
S29 S68 1.989462 1_555
S31 S87 2.037979 1_555
S32 S56 1.979682 1_555
S32 S78 2.173283 1_555
S33 S41 1.981328 1_555
S33 S89 2.112142 1_555
S34 S54 2.053582 1_555
S34 S67 2.060324 1_555
S35 S76 2.034066 1_555
S35 S83 2.112142 1_555
S36 S39 2.048249 1_565
S36 S95 2.053582 1_555
S37 S9 2.063286 1_555
S38 S47 2.040604 1_555
S38 S86 2.061363 1_555
S40 S82 2.055765 1_555
S42 S90 2.049141 1_555
S42 S6 2.053465 1_555
S44 S58 1.987418 1_555
S44 S63 2.098333 1_555
S45 S69 2.034066 1_556
S45 S99 2.063286 1_555
S46 S99 2.049725 1_555
S46 S81 2.055765 1_555
S47 S75 2.094802 1_555
S48 S52 2.040604 1_555
S49 S79 1.981328 1_555
S50 S60 1.981328 1_555
S50 S62 2.112142 1_555
S51 S67 2.032681 1_555
S52 S53 2.061363 1_555
S53 S92 2.049428 1_545
S56 S87 2.100066 1_555
S57 S80 2.037979 1_655
S58 S68 2.159653 1_555
S59 S70 2.060324 1_555
S61 S98 2.060324 1_555
S62 S9 2.034066 1_555
S63 S70 2.032681 1_555
S64 S72 2.037979 1_555
S64 S84 2.055916 1_555
S65 S75 1.989462 1_555
S65 S88 2.159653 1_555
S69 S79 2.112142 1_555
S71 S74 2.100066 1_555
S73 S89 2.034066 1_554
S73 S77 2.063286 1_555
S74 S91 2.037979 1_455
S77 S8 2.049725 1_555
S78 S83 1.981328 1_555
S80 S90 2.055916 1_556
S85 S97 1.987418 1_555
S85 S93 2.098333 1_555
S93 S94 2.032681 1_555
S94 S95 2.060324 1_555
S100 S43 2.048249 1_565
S100 S59 2.053582 1_555
S101 S19 2.049141 1_555
S101 S81 2.053465 1_555
S102 S82 2.049725 1_555
S102 S76 2.063286 1_555
S103 S23 1.979682 1_555
S103 S72 2.100066 1_555
