# generated using pymatgen
data_ZnS
_symmetry_space_group_name_H-M   'P 1'
_cell_length_a   37.83834020
_cell_length_b   37.83834018
_cell_length_c   37.83834087
_cell_angle_alpha   5.84490073
_cell_angle_beta   5.84490103
_cell_angle_gamma   5.84490009
_symmetry_Int_Tables_number   1
_chemical_formula_structural   ZnS
_chemical_formula_sum   'Zn12 S12'
_cell_volume   486.97346728
_cell_formula_units_Z   12
loop_
 _symmetry_equiv_pos_site_id
 _symmetry_equiv_pos_as_xyz
  1  'x, y, z'
loop_
 _atom_site_type_symbol
 _atom_site_label
 _atom_site_symmetry_multiplicity
 _atom_site_fract_x
 _atom_site_fract_y
 _atom_site_fract_z
 _atom_site_occupancy
  Zn  Zn0  1  0.08333854  0.08333854  0.08333854  1
  Zn  Zn1  1  0.61112492  0.61112492  0.61112492  1
  Zn  Zn2  1  0.50001107  0.50001107  0.50001107  1
  Zn  Zn3  1  0.19445376  0.19445376  0.19445376  1
  Zn  Zn4  1  0.91667137  0.91667137  0.91667137  1
  Zn  Zn5  1  0.36112728  0.36112728  0.36112728  1
  Zn  Zn6  1  0.00000151  0.00000151  0.00000151  1
  Zn  Zn7  1  0.80554950  0.80554950  0.80554950  1
  Zn  Zn8  1  0.72222096  0.72222096  0.72222096  1
  Zn  Zn9  1  0.55556323  0.55556323  0.55556323  1
  Zn  Zn10  1  0.30555417  0.30555417  0.30555417  1
  Zn  Zn11  1  0.44445299  0.44445299  0.44445299  1
  S  S0  1  0.93751127  0.93751127  0.93751127  1
  S  S1  1  0.10416357  0.10416357  0.10416357  1
  S  S2  1  0.52081595  0.52081595  0.52081595  1
  S  S3  1  0.38193929  0.38193929  0.38193929  1
  S  S4  1  0.21529054  0.21529054  0.21529054  1
  S  S5  1  0.46525487  0.46525487  0.46525487  1
  S  S6  1  0.74304768  0.74304768  0.74304768  1
  S  S7  1  0.02084356  0.02084356  0.02084356  1
  S  S8  1  0.82639230  0.82639230  0.82639230  1
  S  S9  1  0.57636818  0.57636818  0.57636818  1
  S  S10  1  0.63193937  0.63193937  0.63193937  1
  S  S11  1  0.32636613  0.32636613  0.32636613  1
loop_
_geom_bond_atom_site_label_1
_geom_bond_atom_site_label_2
_geom_bond_distance
_geom_bond_site_symmetry_2
S0 Zn4 2.361539 1_555
S0 Zn1 2.362610 1_565
S0 Zn1 2.362610 1_655
S0 Zn1 2.362610 1_556
S1 Zn0 2.359854 1_555
S1 Zn11 2.362954 1_545
S1 Zn11 2.362954 1_455
S1 Zn11 2.362954 1_554
S2 Zn2 2.357570 1_555
S2 Zn3 2.363523 1_565
S2 Zn3 2.363523 1_655
S2 Zn3 2.363524 1_556
S3 Zn5 2.358378 1_555
S3 Zn8 2.362661 1_545
S3 Zn8 2.362661 1_455
S3 Zn8 2.362661 1_554
S4 Zn3 2.361185 1_555
S4 Zn9 2.362322 1_545
S4 Zn9 2.362322 1_455
S4 Zn9 2.362322 1_554
S5 Zn11 2.357230 1_555
S5 Zn7 2.363151 1_545
S5 Zn7 2.363151 1_455
S5 Zn7 2.363151 1_554
S6 Zn8 2.360045 1_555
S6 Zn0 2.363008 1_656
S6 Zn0 2.363008 1_566
S6 Zn0 2.363008 1_665
S7 Zn6 2.361782 1_555
S7 Zn5 2.362738 1_545
S7 Zn5 2.362738 1_455
S7 Zn5 2.362738 1_554
S8 Zn7 2.361867 1_555
S8 Zn2 2.362803 1_565
S8 Zn2 2.362803 1_655
S8 Zn2 2.362804 1_556
S9 Zn9 2.357578 1_555
S9 Zn4 2.363475 1_545
S9 Zn4 2.363475 1_455
S9 Zn4 2.363475 1_554
S10 Zn1 2.358655 1_555
S10 Zn10 2.362653 1_565
S10 Zn10 2.362653 1_655
S10 Zn10 2.362654 1_556
S11 Zn10 2.358373 1_555
S11 Zn6 2.363431 1_565
S11 Zn6 2.363431 1_655
S11 Zn6 2.363432 1_556
