# generated using pymatgen
data_Cs2MnS2
_symmetry_space_group_name_H-M   'P 1'
_cell_length_a   6.51347173
_cell_length_b   7.37160844
_cell_length_c   8.52536226
_cell_angle_alpha   115.62441734
_cell_angle_beta   112.38447383
_cell_angle_gamma   89.98485176
_symmetry_Int_Tables_number   1
_chemical_formula_structural   Cs2MnS2
_chemical_formula_sum   'Cs4 Mn2 S4'
_cell_volume   334.56967336
_cell_formula_units_Z   2
loop_
 _symmetry_equiv_pos_site_id
 _symmetry_equiv_pos_as_xyz
  1  'x, y, z'
loop_
 _atom_site_type_symbol
 _atom_site_label
 _atom_site_symmetry_multiplicity
 _atom_site_fract_x
 _atom_site_fract_y
 _atom_site_fract_z
 _atom_site_occupancy
  Cs  Cs0  1  0.14933308  0.48877733  0.29881680  1
  Cs  Cs1  1  0.85066692  0.51122267  0.70118320  1
  Cs  Cs2  1  0.35075233  0.18990427  0.70114525  1
  Cs  Cs3  1  0.64924767  0.81009573  0.29885475  1
  Mn  Mn0  1  0.24992559  0.99992396  0.99988697  1
  Mn  Mn1  1  0.75007441  0.00007604  0.00011303  1
  S  S0  1  0.90590213  0.08052635  0.81148669  1
  S  S1  1  0.09409787  0.91947365  0.18851331  1
  S  S2  1  0.59405361  0.26896027  0.18851494  1
  S  S3  1  0.40594639  0.73103973  0.81148506  1
loop_
_geom_bond_atom_site_label_1
_geom_bond_atom_site_label_2
_geom_bond_distance
_geom_bond_site_symmetry_2
Cs0 S2 3.557375 1_555
Cs0 S2 3.561732 1_455
Cs0 S3 3.573821 1_555
Cs0 S0 3.605933 1_454
Cs0 S1 3.663058 1_555
Cs1 S3 3.557375 1_555
Cs1 S3 3.561732 1_655
Cs1 S2 3.573821 1_555
Cs1 S1 3.605933 1_656
Cs1 S0 3.663058 1_555
Cs2 S0 3.558639 1_455
Cs2 S0 3.560041 1_555
Cs2 S1 3.573569 1_545
Cs2 S2 3.606396 1_556
Cs2 S3 3.663894 1_555
Cs3 S1 3.558639 1_655
Cs3 S1 3.560041 1_555
Cs3 S0 3.573569 1_565
Cs3 S3 3.606396 1_554
Cs3 S2 3.663894 1_555
Mn0 S3 2.455571 1_555
Mn0 S1 2.456877 1_556
Mn0 S0 2.457133 1_465
Mn0 S2 2.458025 1_566
Mn1 S2 2.455571 1_555
Mn1 S0 2.456877 1_554
Mn1 S1 2.457133 1_645
Mn1 S3 2.458025 1_544
