# generated using pymatgen
data_VP2H4O9
_symmetry_space_group_name_H-M   'P 1'
_cell_length_a   9.16932800
_cell_length_b   9.16932800
_cell_length_c   7.88660900
_cell_angle_alpha   90.00000000
_cell_angle_beta   90.00000000
_cell_angle_gamma   90.00000000
_symmetry_Int_Tables_number   1
_chemical_formula_structural   VP2H4O9
_chemical_formula_sum   'V4 P8 H16 O36'
_cell_volume   663.07908075
_cell_formula_units_Z   4
loop_
 _symmetry_equiv_pos_site_id
 _symmetry_equiv_pos_as_xyz
  1  'x, y, z'
loop_
 _atom_site_type_symbol
 _atom_site_label
 _atom_site_symmetry_multiplicity
 _atom_site_fract_x
 _atom_site_fract_y
 _atom_site_fract_z
 _atom_site_occupancy
  V  V0  1  0.00000000  0.50000000  0.20437800  1
  V  V1  1  0.50000000  0.00000000  0.29562200  1
  V  V2  1  0.50000000  0.00000000  0.79562200  1
  V  V3  1  0.00000000  0.50000000  0.70437800  1
  P  P0  1  0.79569300  0.20430700  0.25000000  1
  P  P1  1  0.70430700  0.70430700  0.25000000  1
  P  P2  1  0.29569300  0.29569300  0.25000000  1
  P  P3  1  0.20430700  0.79569300  0.25000000  1
  P  P4  1  0.70430700  0.29569300  0.75000000  1
  P  P5  1  0.79569300  0.79569300  0.75000000  1
  P  P6  1  0.20430700  0.20430700  0.75000000  1
  P  P7  1  0.29569300  0.70430700  0.75000000  1
  H  H0  1  0.33411100  0.46506000  0.44812300  1
  H  H1  1  0.96506000  0.16588900  0.44812300  1
  H  H2  1  0.03494000  0.83411100  0.44812300  1
  H  H3  1  0.66588900  0.53494000  0.44812300  1
  H  H4  1  0.16588900  0.96506000  0.05187700  1
  H  H5  1  0.83411100  0.03494000  0.05187700  1
  H  H6  1  0.46506000  0.33411100  0.05187700  1
  H  H7  1  0.53494000  0.66588900  0.05187700  1
  H  H8  1  0.16588900  0.03494000  0.55187700  1
  H  H9  1  0.53494000  0.33411100  0.55187700  1
  H  H10  1  0.46506000  0.66588900  0.55187700  1
  H  H11  1  0.83411100  0.96506000  0.55187700  1
  H  H12  1  0.33411100  0.53494000  0.94812300  1
  H  H13  1  0.66588900  0.46506000  0.94812300  1
  H  H14  1  0.03494000  0.16588900  0.94812300  1
  H  H15  1  0.96506000  0.83411100  0.94812300  1
  O  O0  1  0.82919600  0.36581400  0.24331900  1
  O  O1  1  0.86581400  0.67080400  0.24331900  1
  O  O2  1  0.13418600  0.32919600  0.24331900  1
  O  O3  1  0.17080400  0.63418600  0.24331900  1
  O  O4  1  0.67080400  0.86581400  0.25668100  1
  O  O5  1  0.32919600  0.13418600  0.25668100  1
  O  O6  1  0.36581400  0.82919600  0.25668100  1
  O  O7  1  0.63418600  0.17080400  0.25668100  1
  O  O8  1  0.67080400  0.13418600  0.75668100  1
  O  O9  1  0.63418600  0.82919600  0.75668100  1
  O  O10  1  0.36581400  0.17080400  0.75668100  1
  O  O11  1  0.32919600  0.86581400  0.75668100  1
  O  O12  1  0.82919600  0.63418600  0.74331900  1
  O  O13  1  0.17080400  0.36581400  0.74331900  1
  O  O14  1  0.13418600  0.67080400  0.74331900  1
  O  O15  1  0.86581400  0.32919600  0.74331900  1
  O  O16  1  0.86963600  0.13236300  0.08694100  1
  O  O17  1  0.63236300  0.63036400  0.08694100  1
  O  O18  1  0.36763700  0.36963600  0.08694100  1
  O  O19  1  0.13036400  0.86763700  0.08694100  1
  O  O20  1  0.63036400  0.63236300  0.41305900  1
  O  O21  1  0.36963600  0.36763700  0.41305900  1
  O  O22  1  0.13236300  0.86963600  0.41305900  1
  O  O23  1  0.86763700  0.13036400  0.41305900  1
  O  O24  1  0.63036400  0.36763700  0.91305900  1
  O  O25  1  0.86763700  0.86963600  0.91305900  1
  O  O26  1  0.13236300  0.13036400  0.91305900  1
  O  O27  1  0.36963600  0.63236300  0.91305900  1
  O  O28  1  0.86963600  0.86763700  0.58694100  1
  O  O29  1  0.13036400  0.13236300  0.58694100  1
  O  O30  1  0.36763700  0.63036400  0.58694100  1
  O  O31  1  0.63236300  0.36963600  0.58694100  1
  O  O32  1  0.00000000  0.50000000  0.99359900  1
  O  O33  1  0.50000000  0.00000000  0.50640100  1
  O  O34  1  0.50000000  0.00000000  0.00640100  1
  O  O35  1  0.00000000  0.50000000  0.49359900  1
loop_
_geom_bond_atom_site_label_1
_geom_bond_atom_site_label_2
_geom_bond_distance
_geom_bond_site_symmetry_2
H0 O21 0.990237 1_555
H1 O23 0.990237 1_555
H2 O22 0.990237 1_555
H3 O20 0.990237 1_555
H4 O19 0.990237 1_555
H5 O16 0.990237 1_555
H6 O18 0.990237 1_555
H7 O17 0.990237 1_555
H8 O29 0.990237 1_555
H9 O31 0.990237 1_555
H10 O30 0.990237 1_555
H11 O28 0.990237 1_555
H12 O27 0.990237 1_555
H13 O24 0.990237 1_555
H14 O26 0.990237 1_555
H15 O25 0.990237 1_555
O0 P0 1.513355 1_555
O0 V0 2.015203 1_655
O1 P1 1.513355 1_555
O1 V0 2.015203 1_655
O2 P2 1.513355 1_555
O2 V0 2.015203 1_555
O3 P3 1.513355 1_555
O3 V0 2.015203 1_555
O4 P1 1.513355 1_555
O4 V1 2.015203 1_565
O5 P2 1.513355 1_555
O5 V1 2.015203 1_555
O6 P3 1.513355 1_555
O6 V1 2.015203 1_565
O7 P0 1.513355 1_555
O7 V1 2.015203 1_555
O8 P4 1.513355 1_555
O8 V2 2.015203 1_555
O9 P5 1.513355 1_555
O9 V2 2.015203 1_565
O10 P6 1.513355 1_555
O10 V2 2.015203 1_555
O11 P7 1.513355 1_555
O11 V2 2.015203 1_565
O12 P5 1.513355 1_555
O12 V3 2.015203 1_655
O13 P6 1.513355 1_555
O13 V3 2.015203 1_555
O14 P7 1.513355 1_555
O14 V3 2.015203 1_555
O15 P4 1.513355 1_555
O15 V3 2.015203 1_655
O16 P0 1.596440 1_555
O17 P1 1.596440 1_555
O18 P2 1.596440 1_555
O19 P3 1.596440 1_555
O20 P1 1.596440 1_555
O21 P2 1.596440 1_555
O22 P3 1.596440 1_555
O23 P0 1.596440 1_555
O24 P4 1.596440 1_555
O25 P5 1.596440 1_555
O26 P6 1.596440 1_555
O27 P7 1.596440 1_555
O28 P5 1.596440 1_555
O29 P6 1.596440 1_555
O30 P7 1.596440 1_555
O31 P4 1.596440 1_555
O32 V0 1.662332 1_556
O32 V3 2.280973 1_555
O33 V1 1.662332 1_555
O33 V2 2.280973 1_555
O34 V2 1.662332 1_554
O34 V1 2.280973 1_555
O35 V3 1.662332 1_555
O35 V0 2.280973 1_555
