# generated using pymatgen
data_V2CdO6
_symmetry_space_group_name_H-M   'P 1'
_cell_length_a   5.02701851
_cell_length_b   5.02701851
_cell_length_c   6.97869178
_cell_angle_alpha   68.49643365
_cell_angle_beta   68.49643365
_cell_angle_gamma   41.38653188
_symmetry_Int_Tables_number   1
_chemical_formula_structural   V2CdO6
_chemical_formula_sum   'V2 Cd1 O6'
_cell_volume   107.27274426
_cell_formula_units_Z   1
loop_
 _symmetry_equiv_pos_site_id
 _symmetry_equiv_pos_as_xyz
  1  'x, y, z'
loop_
 _atom_site_type_symbol
 _atom_site_label
 _atom_site_symmetry_multiplicity
 _atom_site_fract_x
 _atom_site_fract_y
 _atom_site_fract_z
 _atom_site_occupancy
  V  V0  1  0.18317496  0.18317496  0.36472948  1
  V  V1  1  0.81682504  0.81682504  0.63527052  1
  Cd  Cd0  1  -0.00000000  -0.00000000  -0.00000000  1
  O  O0  1  0.02528080  0.02528080  0.30612166  1
  O  O1  1  0.97471920  0.97471920  0.69387834  1
  O  O2  1  0.33250240  0.33250240  0.12981256  1
  O  O3  1  0.66749760  0.66749760  0.87018744  1
  O  O4  1  0.30597552  0.30597552  0.56222296  1
  O  O5  1  0.69402448  0.69402448  0.43777704  1
loop_
_geom_bond_atom_site_label_1
_geom_bond_atom_site_label_2
_geom_bond_distance
_geom_bond_site_symmetry_2
Cd0 O1 2.240206 1_444
Cd0 O0 2.240206 1_555
Cd0 O2 2.310753 1_545
Cd0 O3 2.310753 1_544
Cd0 O2 2.310753 1_455
Cd0 O3 2.310753 1_454
O0 V0 1.687806 1_555
O0 V1 2.364526 1_445
O1 V1 1.687806 1_555
O1 V0 2.364526 1_665
O2 V0 1.689915 1_555
O3 V1 1.689915 1_555
O4 V1 1.861867 1_545
O4 V1 1.861867 1_455
O4 V0 2.116853 1_555
O5 V0 1.861867 1_655
O5 V0 1.861867 1_565
O5 V1 2.116853 1_555
