# generated using pymatgen
data_Mn4P7O24
_symmetry_space_group_name_H-M   'P 1'
_cell_length_a   10.26482200
_cell_length_b   10.49790261
_cell_length_c   10.72313595
_cell_angle_alpha   109.75592462
_cell_angle_beta   111.10941168
_cell_angle_gamma   105.98743481
_symmetry_Int_Tables_number   1
_chemical_formula_structural   Mn4P7O24
_chemical_formula_sum   'Mn8 P14 O48'
_cell_volume   904.79161327
_cell_formula_units_Z   2
loop_
 _symmetry_equiv_pos_site_id
 _symmetry_equiv_pos_as_xyz
  1  'x, y, z'
loop_
 _atom_site_type_symbol
 _atom_site_label
 _atom_site_symmetry_multiplicity
 _atom_site_fract_x
 _atom_site_fract_y
 _atom_site_fract_z
 _atom_site_occupancy
  Mn  Mn0  1  0.49580500  0.10225800  0.26045500  1
  Mn  Mn1  1  0.49039700  0.33686200  0.10825800  1
  Mn  Mn2  1  0.98810600  0.61693600  0.92437800  1
  Mn  Mn3  1  0.98868300  0.82328100  0.41469700  1
  Mn  Mn4  1  0.01189400  0.38306400  0.07562200  1
  Mn  Mn5  1  0.50419500  0.89774200  0.73954500  1
  Mn  Mn6  1  0.01131700  0.17671900  0.58530300  1
  Mn  Mn7  1  0.50960300  0.66313800  0.89174200  1
  P  P0  1  0.25221900  0.39107100  0.52585800  1
  P  P1  1  0.74778100  0.60892900  0.47414200  1
  P  P2  1  0.22778700  0.20811300  0.22850700  1
  P  P3  1  0.77221300  0.79188700  0.77149300  1
  P  P4  1  0.25209900  0.45283400  0.95343100  1
  P  P5  1  0.73184500  0.18477000  0.11245900  1
  P  P6  1  0.19507100  0.61896600  0.43500000  1
  P  P7  1  0.26410400  0.02248000  0.75734100  1
  P  P8  1  0.80581200  0.06361400  0.73761400  1
  P  P9  1  0.73589600  0.97752000  0.24265900  1
  P  P10  1  0.74790100  0.54716600  0.04656900  1
  P  P11  1  0.80492900  0.38103400  0.56500000  1
  P  P12  1  0.19418800  0.93638600  0.26238600  1
  P  P13  1  0.26815500  0.81523000  0.88754100  1
  O  O0  1  0.13241000  0.04644300  0.20630400  1
  O  O1  1  0.62554400  0.97845200  0.65285300  1
  O  O2  1  0.83164900  0.68585300  0.20616100  1
  O  O3  1  0.62331100  0.00474200  0.29972000  1
  O  O4  1  0.33797500  0.16701700  0.90460700  1
  O  O5  1  0.14219300  0.92795300  0.37548800  1
  O  O6  1  0.63714100  0.40785800  0.03487400  1
  O  O7  1  0.87097400  0.51452100  0.00501300  1
  O  O8  1  0.68869100  0.66801000  0.59318700  1
  O  O9  1  0.12938300  0.78536400  0.12480300  1
  O  O10  1  0.37257700  0.72330800  0.54094200  1
  O  O11  1  0.14285800  0.24856600  0.50806900  1
  O  O12  1  0.90961500  0.31414700  0.53757600  1
  O  O13  1  0.37445600  0.02154800  0.34714700  1
  O  O14  1  0.63375000  0.79455500  0.79662100  1
  O  O15  1  0.60369500  0.50187600  0.32079500  1
  O  O16  1  0.12902600  0.48547900  0.99498700  1
  O  O17  1  0.80772800  0.11542800  0.21455100  1
  O  O18  1  0.87061700  0.21463600  0.87519700  1
  O  O19  1  0.12900900  0.67752300  0.84528000  1
  O  O20  1  0.85714200  0.75143400  0.49193100  1
  O  O21  1  0.35963500  0.93605100  0.05391600  1
  O  O22  1  0.16733600  0.55496900  0.27205100  1
  O  O23  1  0.11826800  0.24190500  0.12633300  1
  O  O24  1  0.39630500  0.49812400  0.67920500  1
  O  O25  1  0.87099100  0.32247700  0.15472000  1
  O  O26  1  0.83266400  0.44503100  0.72794900  1
  O  O27  1  0.31130900  0.33199000  0.40681300  1
  O  O28  1  0.86759000  0.95355700  0.79369600  1
  O  O29  1  0.09038500  0.68585300  0.46242400  1
  O  O30  1  0.36625000  0.20544500  0.20337900  1
  O  O31  1  0.62742300  0.27669200  0.45905800  1
  O  O32  1  0.38013100  0.77373500  0.82919900  1
  O  O33  1  0.61986900  0.22626500  0.17080100  1
  O  O34  1  0.66202500  0.83298300  0.09539300  1
  O  O35  1  0.36285900  0.59214200  0.96512600  1
  O  O36  1  0.85780700  0.07204700  0.62451200  1
  O  O37  1  0.16835100  0.31414700  0.79383900  1
  O  O38  1  0.87796800  0.99251200  0.37348200  1
  O  O39  1  0.84262800  0.52506100  0.53147800  1
  O  O40  1  0.34809800  0.42134200  0.07838100  1
  O  O41  1  0.12203200  0.00748800  0.62651800  1
  O  O42  1  0.88173200  0.75809500  0.87366700  1
  O  O43  1  0.15737200  0.47493900  0.46852200  1
  O  O44  1  0.65190200  0.57865800  0.92161900  1
  O  O45  1  0.19227200  0.88457200  0.78544900  1
  O  O46  1  0.64036500  0.06394900  0.94608400  1
  O  O47  1  0.37668900  0.99525800  0.70028000  1
loop_
_geom_bond_atom_site_label_1
_geom_bond_atom_site_label_2
_geom_bond_distance
_geom_bond_site_symmetry_2
Mn0 O3 1.889659 1_555
Mn0 O31 1.908482 1_555
Mn0 O21 1.928101 1_545
Mn0 O13 1.979601 1_555
Mn0 O30 1.992989 1_555
Mn0 O33 2.248431 1_555
Mn1 O40 1.895079 1_555
Mn1 O4 1.940603 1_554
Mn1 O15 1.964591 1_555
Mn1 O6 2.018786 1_555
Mn1 O33 2.073261 1_555
Mn1 O30 2.342385 1_555
Mn2 O9 1.903148 1_656
Mn2 O26 1.913791 1_555
Mn2 O19 1.989334 1_655
Mn2 O7 2.003597 1_556
Mn2 O42 2.166172 1_555
Mn2 O16 2.363738 1_655
Mn3 O2 1.903103 1_555
Mn3 O5 1.924304 1_655
Mn3 O20 1.935127 1_555
Mn3 O41 2.026182 1_665
Mn3 O29 2.092156 1_655
Mn3 O38 2.433985 1_555
Mn4 O18 1.903148 1_454
Mn4 O22 1.913791 1_555
Mn4 O25 1.989334 1_455
Mn4 O16 2.003597 1_554
Mn4 O23 2.166172 1_555
Mn4 O7 2.363738 1_455
Mn5 O47 1.889659 1_555
Mn5 O10 1.908482 1_555
Mn5 O46 1.928101 1_565
Mn5 O1 1.979601 1_555
Mn5 O14 1.992989 1_555
Mn5 O32 2.248431 1_555
Mn6 O37 1.903103 1_555
Mn6 O36 1.924304 1_455
Mn6 O11 1.935127 1_555
Mn6 O38 2.026182 1_445
Mn6 O12 2.092156 1_455
Mn6 O41 2.433985 1_555
Mn7 O44 1.895079 1_555
Mn7 O34 1.940603 1_556
Mn7 O24 1.964591 1_555
Mn7 O35 2.018786 1_555
Mn7 O32 2.073261 1_555
Mn7 O14 2.342385 1_555
O0 P2 1.593515 1_555
O0 P12 1.642337 1_545
O1 P8 1.541876 1_565
O2 P10 1.534236 1_555
O3 P9 1.537749 1_545
O4 P7 1.501626 1_555
O5 P12 1.508776 1_555
O6 P10 1.518055 1_555
O7 P10 1.566124 1_555
O8 P3 1.614350 1_555
O8 P1 1.616116 1_555
O9 P12 1.504506 1_555
O10 P6 1.542310 1_555
O11 P0 1.504106 1_555
O12 P11 1.495969 1_555
O13 P12 1.541876 1_545
O14 P3 1.544719 1_555
O15 P1 1.495900 1_555
O16 P4 1.566124 1_555
O17 P5 1.603733 1_555
O17 P9 1.611685 1_545
O18 P8 1.504506 1_555
O19 P13 1.512870 1_555
O20 P1 1.504106 1_555
O21 P13 1.510254 1_554
O22 P6 1.525870 1_555
O23 P2 1.478273 1_555
O24 P0 1.495900 1_555
O25 P5 1.512870 1_555
O26 P11 1.525870 1_555
O27 P2 1.614350 1_555
O27 P0 1.616116 1_555
O28 P3 1.593515 1_555
O28 P8 1.642337 1_565
O29 P6 1.495969 1_555
O30 P2 1.544719 1_555
O31 P11 1.542310 1_555
O32 P13 1.584875 1_555
O33 P5 1.584875 1_555
O34 P9 1.501626 1_555
O35 P4 1.518055 1_555
O36 P8 1.508776 1_555
O37 P4 1.534236 1_555
O38 P9 1.539542 1_555
O39 P1 1.583671 1_555
O39 P11 1.646318 1_555
O40 P4 1.550301 1_554
O41 P7 1.539542 1_555
O42 P3 1.478273 1_555
O43 P0 1.583671 1_555
O43 P6 1.646318 1_555
O44 P10 1.550301 1_556
O45 P13 1.603733 1_555
O45 P7 1.611685 1_565
O46 P5 1.510254 1_556
O47 P7 1.537749 1_565
