# generated using pymatgen
data_SbPb2S2I3
_symmetry_space_group_name_H-M   'P 1'
_cell_length_a   16.74820200
_cell_length_b   7.80417800
_cell_length_c   8.75846233
_cell_angle_alpha   73.34339378
_cell_angle_beta   90.00000000
_cell_angle_gamma   90.00000000
_symmetry_Int_Tables_number   1
_chemical_formula_structural   SbPb2S2I3
_chemical_formula_sum   'Sb4 Pb8 S8 I12'
_cell_volume   1096.74787193
_cell_formula_units_Z   4
loop_
 _symmetry_equiv_pos_site_id
 _symmetry_equiv_pos_as_xyz
  1  'x, y, z'
loop_
 _atom_site_type_symbol
 _atom_site_label
 _atom_site_symmetry_multiplicity
 _atom_site_fract_x
 _atom_site_fract_y
 _atom_site_fract_z
 _atom_site_occupancy
  Sb  Sb0  1  0.98101000  0.30363600  0.67772800  1
  Sb  Sb1  1  0.48101000  0.69636400  0.82227200  1
  Sb  Sb2  1  0.51899000  0.30363600  0.17772800  1
  Sb  Sb3  1  0.01899000  0.69636400  0.32227200  1
  Pb  Pb0  1  0.47278100  0.75596800  0.30813600  1
  Pb  Pb1  1  0.73368000  0.61170800  0.33606000  1
  Pb  Pb2  1  0.52721900  0.24403200  0.69186400  1
  Pb  Pb3  1  0.02721900  0.75596800  0.80813600  1
  Pb  Pb4  1  0.23368000  0.38829200  0.16394000  1
  Pb  Pb5  1  0.26632000  0.38829200  0.66394000  1
  Pb  Pb6  1  0.97278100  0.24403200  0.19186400  1
  Pb  Pb7  1  0.76632000  0.61170800  0.83606000  1
  S  S0  1  0.42419500  0.53861300  0.63298400  1
  S  S1  1  0.91463200  0.46165700  0.40595200  1
  S  S2  1  0.92419500  0.46138700  0.86701600  1
  S  S3  1  0.08536800  0.53834300  0.59404800  1
  S  S4  1  0.41463200  0.53834300  0.09404800  1
  S  S5  1  0.57580500  0.46138700  0.36701600  1
  S  S6  1  0.58536800  0.46165700  0.90595200  1
  S  S7  1  0.07580500  0.53861300  0.13298400  1
  I  I0  1  0.88291900  0.86698100  0.03280400  1
  I  I1  1  0.38025800  0.10226800  0.96778200  1
  I  I2  1  0.11974200  0.10226800  0.46778200  1
  I  I3  1  0.74131600  0.31025200  0.66921800  1
  I  I4  1  0.11708100  0.13301900  0.96719600  1
  I  I5  1  0.61974200  0.89773200  0.03221800  1
  I  I6  1  0.24131600  0.68974800  0.83078200  1
  I  I7  1  0.88025800  0.89773200  0.53221800  1
  I  I8  1  0.61708100  0.86698100  0.53280400  1
  I  I9  1  0.38291900  0.13301900  0.46719600  1
  I  I10  1  0.75868400  0.31025200  0.16921800  1
  I  I11  1  0.25868400  0.68974800  0.33078200  1
loop_
_geom_bond_atom_site_label_1
_geom_bond_atom_site_label_2
_geom_bond_distance
_geom_bond_site_symmetry_2
Pb0 S5 2.801563 1_555
Pb0 S0 2.977882 1_555
Pb0 S4 3.028951 1_555
Pb1 S5 2.873812 1_555
Pb1 S1 3.243415 1_555
Pb2 S0 2.801563 1_555
Pb2 S5 2.977882 1_555
Pb2 S6 3.028951 1_555
Pb3 S2 2.801563 1_455
Pb3 S7 2.977882 1_556
Pb3 S3 3.028951 1_555
Pb4 S7 2.873812 1_555
Pb4 S4 3.243415 1_555
Pb5 S0 2.873812 1_555
Pb5 S3 3.243415 1_555
Pb6 S7 2.801563 1_655
Pb6 S2 2.977882 1_554
Pb6 S1 3.028951 1_555
Pb7 S2 2.873812 1_555
Pb7 S6 3.243415 1_555
S0 Sb1 2.517876 1_555
S1 Sb3 2.485458 1_655
S1 Sb0 2.596138 1_555
S2 Sb0 2.517876 1_555
S3 Sb0 2.485458 1_455
S3 Sb3 2.596138 1_555
S4 Sb2 2.485458 1_555
S4 Sb1 2.596138 1_554
S5 Sb2 2.517876 1_555
S6 Sb1 2.485458 1_555
S6 Sb2 2.596138 1_556
S7 Sb3 2.517876 1_555
I0 Pb3 3.382406 1_654
I0 Sb3 3.385117 1_655
I0 Pb7 3.566466 1_554
I1 Pb2 3.404335 1_555
I1 Pb5 3.507226 1_555
I2 Pb6 3.404335 1_455
I2 Pb4 3.507226 1_555
I3 Pb7 3.133100 1_555
I3 Pb1 3.182798 1_555
I4 Pb6 3.382406 1_456
I4 Sb0 3.385117 1_455
I4 Pb4 3.566466 1_556
I5 Pb0 3.404335 1_555
I5 Pb1 3.507226 1_555
I6 Pb5 3.133100 1_555
I6 Pb4 3.182798 1_556
I7 Pb3 3.404335 1_655
I7 Pb7 3.507226 1_555
I8 Pb0 3.382406 1_555
I8 Sb1 3.385117 1_555
I8 Pb1 3.566466 1_555
I9 Pb2 3.382406 1_555
I9 Sb2 3.385117 1_555
I9 Pb5 3.566466 1_555
I10 Pb1 3.133100 1_555
I10 Pb7 3.182798 1_554
I11 Pb4 3.133100 1_555
I11 Pb5 3.182798 1_555
