# generated using pymatgen
data_SmHgPd
_symmetry_space_group_name_H-M   'P 1'
_cell_length_a   7.75934895
_cell_length_b   7.75934958
_cell_length_c   3.84427933
_cell_angle_alpha   90.00000000
_cell_angle_beta   90.00000000
_cell_angle_gamma   119.99999736
_symmetry_Int_Tables_number   1
_chemical_formula_structural   SmHgPd
_chemical_formula_sum   'Sm3 Hg3 Pd3'
_cell_volume   200.44544024
_cell_formula_units_Z   3
loop_
 _symmetry_equiv_pos_site_id
 _symmetry_equiv_pos_as_xyz
  1  'x, y, z'
loop_
 _atom_site_type_symbol
 _atom_site_label
 _atom_site_symmetry_multiplicity
 _atom_site_fract_x
 _atom_site_fract_y
 _atom_site_fract_z
 _atom_site_occupancy
  Sm  Sm0  1  0.60245764  -0.00000000  0.50000000  1
  Sm  Sm1  1  -0.00000000  0.60245764  0.50000000  1
  Sm  Sm2  1  0.39754236  0.39754236  0.50000000  1
  Hg  Hg0  1  0.26796570  -0.00000000  0.00000000  1
  Hg  Hg1  1  0.73203430  0.73203430  -0.00000000  1
  Hg  Hg2  1  -0.00000000  0.26796570  -0.00000000  1
  Pd  Pd0  1  0.00000000  -0.00000000  0.50000000  1
  Pd  Pd1  1  0.66666700  0.33333300  -0.00000000  1
  Pd  Pd2  1  0.33333300  0.66666700  -0.00000000  1
loop_
_geom_bond_atom_site_label_1
_geom_bond_atom_site_label_2
_geom_bond_distance
_geom_bond_site_symmetry_2
Hg0 Pd0 2.831582 1_555
Hg0 Pd0 2.831582 1_554
Hg0 Pd2 2.873819 1_545
Hg0 Pd1 2.873824 1_555
Hg0 Sm0 3.229695 1_554
Hg0 Sm0 3.229695 1_555
Hg0 Sm1 3.334558 1_544
Hg0 Sm1 3.334558 1_545
Hg0 Sm2 3.334558 1_555
Hg0 Sm2 3.334558 1_554
Hg1 Pd0 2.831582 1_664
Hg1 Pd0 2.831582 1_665
Hg1 Pd2 2.873826 1_555
Hg1 Pd1 2.873827 1_555
Hg1 Sm2 3.229695 1_555
Hg1 Sm2 3.229695 1_554
Hg1 Sm1 3.334558 1_655
Hg1 Sm1 3.334558 1_654
Hg1 Sm0 3.334558 1_565
Hg1 Sm0 3.334558 1_564
Hg2 Pd0 2.831582 1_555
Hg2 Pd0 2.831582 1_554
Hg2 Pd1 2.873819 1_455
Hg2 Pd2 2.873824 1_555
Hg2 Sm1 3.229695 1_554
Hg2 Sm1 3.229695 1_555
Hg2 Sm2 3.334558 1_554
Hg2 Sm2 3.334558 1_555
Hg2 Sm0 3.334558 1_454
Hg2 Sm0 3.334558 1_455
Pd0 Sm0 3.084670 1_455
Pd0 Sm2 3.084670 1_555
Pd0 Sm1 3.084670 1_545
Pd1 Sm0 3.056784 1_554
Pd1 Sm0 3.056784 1_555
Pd1 Sm1 3.056786 1_655
Pd1 Sm1 3.056786 1_654
Pd1 Sm2 3.056790 1_555
Pd1 Sm2 3.056790 1_554
Pd2 Sm1 3.056784 1_554
Pd2 Sm1 3.056784 1_555
Pd2 Sm0 3.056786 1_565
Pd2 Sm0 3.056786 1_564
Pd2 Sm2 3.056790 1_554
Pd2 Sm2 3.056790 1_555
