# generated using pymatgen
data_Rb
_symmetry_space_group_name_H-M   'P 1'
_cell_length_a   10.24667315
_cell_length_b   10.24667478
_cell_length_c   25.55224869
_cell_angle_alpha   90.00000000
_cell_angle_beta   90.00000000
_cell_angle_gamma   111.18671016
_symmetry_Int_Tables_number   1
_chemical_formula_structural   Rb
_chemical_formula_sum   Rb26
_cell_volume   2501.50163735
_cell_formula_units_Z   26
loop_
 _symmetry_equiv_pos_site_id
 _symmetry_equiv_pos_as_xyz
  1  'x, y, z'
loop_
 _atom_site_type_symbol
 _atom_site_label
 _atom_site_symmetry_multiplicity
 _atom_site_fract_x
 _atom_site_fract_y
 _atom_site_fract_z
 _atom_site_occupancy
  Rb  Rb0  1  0.39356047  0.60764963  0.92595323  1
  Rb  Rb1  1  0.60764963  0.39356047  0.07404677  1
  Rb  Rb2  1  0.16475093  0.94032653  0.40018040  1
  Rb  Rb3  1  0.10662658  0.89337342  0.75000000  1
  Rb  Rb4  1  0.40736711  0.13726294  0.23957570  1
  Rb  Rb5  1  0.83524907  0.05967347  0.90018040  1
  Rb  Rb6  1  0.05967347  0.83524907  0.09981960  1
  Rb  Rb7  1  0.69203240  0.95907857  0.45327076  1
  Rb  Rb8  1  0.95907857  0.69203240  0.54672924  1
  Rb  Rb9  1  0.04092143  0.30796860  0.04672924  1
  Rb  Rb10  1  0.86273706  0.59263289  0.26042430  1
  Rb  Rb11  1  0.39235037  0.60643953  0.57404677  1
  Rb  Rb12  1  0.40119817  0.10653611  0.58896444  1
  Rb  Rb13  1  0.48074635  0.73032697  0.31689537  1
  Rb  Rb14  1  0.59263289  0.86273706  0.73957570  1
  Rb  Rb15  1  0.51925365  0.26967303  0.81689537  1
  Rb  Rb16  1  0.26967303  0.51925365  0.18310463  1
  Rb  Rb17  1  0.10653611  0.40119817  0.41103556  1
  Rb  Rb18  1  0.89337342  0.10662658  0.25000000  1
  Rb  Rb19  1  0.60643953  0.39235037  0.42595323  1
  Rb  Rb20  1  0.13726294  0.40736711  0.76042430  1
  Rb  Rb21  1  0.94032653  0.16475093  0.59981960  1
  Rb  Rb22  1  0.73032697  0.48074635  0.68310463  1
  Rb  Rb23  1  0.59880183  0.89346389  0.08896444  1
  Rb  Rb24  1  0.30796860  0.04092143  0.95327076  1
  Rb  Rb25  1  0.89346389  0.59880183  0.91103556  1
loop_
_geom_bond_atom_site_label_1
_geom_bond_atom_site_label_2
_geom_bond_distance
_geom_bond_site_symmetry_2
Rb0 Rb24 4.876560 1_565
Rb0 Rb9 4.897932 1_556
Rb0 Rb15 4.964033 1_555
Rb0 Rb20 5.010261 1_555
Rb0 Rb23 5.088971 1_556
Rb0 Rb25 5.106509 1_455
Rb0 Rb25 5.169877 1_555
Rb0 Rb5 5.217076 1_565
Rb0 Rb1 5.236666 1_556
Rb1 Rb9 4.876559 1_655
Rb1 Rb24 4.897932 1_554
Rb1 Rb16 4.964033 1_555
Rb1 Rb4 5.010261 1_555
Rb1 Rb25 5.088971 1_554
Rb1 Rb23 5.106510 1_545
Rb1 Rb23 5.169878 1_555
Rb1 Rb6 5.217076 1_655
Rb2 Rb8 4.589240 1_455
Rb2 Rb4 4.844327 1_565
Rb5 Rb9 4.589244 1_656
Rb10 Rb13 4.835802 1_555
Rb10 Rb6 4.844327 1_655
Rb10 Rb16 4.911375 1_655
Rb10 Rb19 5.010261 1_555
Rb10 Rb18 5.108754 1_555
Rb10 Rb18 5.168447 1_565
Rb11 Rb8 4.876564 1_455
Rb11 Rb7 4.897936 1_555
Rb11 Rb22 4.964033 1_555
Rb11 Rb14 5.010261 1_555
Rb11 Rb17 5.088971 1_555
Rb11 Rb12 5.106510 1_565
Rb11 Rb12 5.169878 1_555
Rb11 Rb21 5.217076 1_455
Rb11 Rb19 5.236666 1_555
Rb12 Rb22 4.745063 1_555
Rb12 Rb21 4.976944 1_455
Rb12 Rb8 5.081279 1_445
Rb12 Rb19 5.088971 1_555
Rb12 Rb3 5.103701 1_545
Rb12 Rb7 5.142038 1_545
Rb13 Rb16 4.202556 1_555
Rb13 Rb7 4.319297 1_555
Rb13 Rb17 4.745063 1_555
Rb13 Rb18 4.886900 1_565
Rb13 Rb4 4.911376 1_565
Rb13 Rb19 4.964033 1_555
Rb13 Rb2 4.967818 1_555
Rb14 Rb22 4.835802 1_555
Rb14 Rb5 4.844327 1_565
Rb14 Rb15 4.911376 1_565
Rb14 Rb3 5.108753 1_555
Rb14 Rb3 5.168446 1_655
Rb15 Rb22 4.202556 1_555
Rb15 Rb24 4.319294 1_555
Rb15 Rb25 4.745063 1_555
Rb15 Rb20 4.835802 1_555
Rb15 Rb3 4.886900 1_545
Rb15 Rb5 4.967818 1_555
Rb16 Rb9 4.319294 1_555
Rb16 Rb23 4.745063 1_555
Rb16 Rb4 4.835802 1_555
Rb16 Rb18 4.886900 1_455
Rb16 Rb6 4.967819 1_555
Rb17 Rb2 4.976944 1_545
Rb17 Rb7 5.081280 1_445
Rb17 Rb18 5.103701 1_455
Rb17 Rb19 5.106509 1_455
Rb17 Rb8 5.142038 1_455
Rb17 Rb19 5.169877 1_555
Rb18 Rb23 5.103701 1_545
Rb18 Rb4 5.108753 1_555
Rb18 Rb4 5.168446 1_655
Rb19 Rb7 4.876565 1_545
Rb19 Rb8 4.897935 1_555
Rb19 Rb2 5.217076 1_545
Rb20 Rb21 4.844327 1_455
Rb20 Rb22 4.911375 1_455
Rb20 Rb3 5.108754 1_555
Rb20 Rb3 5.168447 1_545
Rb21 Rb7 4.589240 1_545
Rb21 Rb22 4.967819 1_555
Rb22 Rb8 4.319297 1_555
Rb22 Rb3 4.886900 1_655
Rb23 Rb6 4.976944 1_655
Rb23 Rb9 5.081285 1_665
Rb23 Rb24 5.142031 1_564
Rb24 Rb6 4.589244 1_546
Rb24 Rb25 5.081285 1_445
Rb25 Rb5 4.976944 1_565
Rb25 Rb3 5.103701 1_655
Rb25 Rb9 5.142031 1_656
