# generated using pymatgen
data_LiNb3(Bi2O7)2
_symmetry_space_group_name_H-M   'P 1'
_cell_length_a   7.69466390
_cell_length_b   7.69466390
_cell_length_c   12.25300206
_cell_angle_alpha   80.05054554
_cell_angle_beta   80.05054554
_cell_angle_gamma   60.84877041
_symmetry_Int_Tables_number   1
_chemical_formula_structural   LiNb3(Bi2O7)2
_chemical_formula_sum   'Li2 Nb6 Bi8 O28'
_cell_volume   620.73428043
_cell_formula_units_Z   2
loop_
 _symmetry_equiv_pos_site_id
 _symmetry_equiv_pos_as_xyz
  1  'x, y, z'
loop_
 _atom_site_type_symbol
 _atom_site_label
 _atom_site_symmetry_multiplicity
 _atom_site_fract_x
 _atom_site_fract_y
 _atom_site_fract_z
 _atom_site_occupancy
  Li  Li0  1  0.46697800  0.53302200  0.75000000  1
  Li  Li1  1  0.53302200  0.46697800  0.25000000  1
  Nb  Nb0  1  0.87415200  0.62097400  0.73960000  1
  Nb  Nb1  1  0.37902600  0.12584800  0.76040000  1
  Nb  Nb2  1  0.12876000  0.87124000  0.25000000  1
  Nb  Nb3  1  0.62097400  0.87415200  0.23960000  1
  Nb  Nb4  1  0.12584800  0.37902600  0.26040000  1
  Nb  Nb5  1  0.87124000  0.12876000  0.75000000  1
  Bi  Bi0  1  0.27559900  0.49250400  0.50567800  1
  Bi  Bi1  1  0.02398300  0.74171800  0.97673800  1
  Bi  Bi2  1  0.97601700  0.25828200  0.02326200  1
  Bi  Bi3  1  0.50749600  0.72440100  0.99432200  1
  Bi  Bi4  1  0.74171800  0.02398300  0.47673800  1
  Bi  Bi5  1  0.72440100  0.50749600  0.49432200  1
  Bi  Bi6  1  0.25828200  0.97601700  0.52326200  1
  Bi  Bi7  1  0.49250400  0.27559900  0.00567800  1
  O  O0  1  0.85997900  0.14830300  0.58416700  1
  O  O1  1  0.38486900  0.57729600  0.91085400  1
  O  O2  1  0.14830300  0.85997900  0.08416700  1
  O  O3  1  0.15151500  0.26762300  0.41405000  1
  O  O4  1  0.14947400  0.44376400  0.08652400  1
  O  O5  1  0.42270400  0.61513100  0.58914600  1
  O  O6  1  0.92384900  0.85349200  0.77129400  1
  O  O7  1  0.14002100  0.85169700  0.41583300  1
  O  O8  1  0.26762300  0.15151500  0.91405000  1
  O  O9  1  0.14650800  0.07615100  0.72870600  1
  O  O10  1  0.85052600  0.55623600  0.91347600  1
  O  O11  1  0.85349200  0.92384900  0.27129400  1
  O  O12  1  0.61513100  0.42270400  0.08914600  1
  O  O13  1  0.22674000  0.55901000  0.28135000  1
  O  O14  1  0.55623600  0.85052600  0.41347600  1
  O  O15  1  0.44376400  0.14947400  0.58652400  1
  O  O16  1  0.55901000  0.22674000  0.78135000  1
  O  O17  1  0.77326000  0.44099000  0.71865000  1
  O  O18  1  0.84852000  0.55921000  0.28327300  1
  O  O19  1  0.15148000  0.44079000  0.71672700  1
  O  O20  1  0.44099000  0.77326000  0.21865000  1
  O  O21  1  0.55921000  0.84852000  0.78327300  1
  O  O22  1  0.84848500  0.73237700  0.58595000  1
  O  O23  1  0.57729600  0.38486900  0.41085400  1
  O  O24  1  0.85169700  0.14002100  0.91583300  1
  O  O25  1  0.44079000  0.15148000  0.21672700  1
  O  O26  1  0.73237700  0.84848500  0.08595000  1
  O  O27  1  0.07615100  0.14650800  0.22870600  1
loop_
_geom_bond_atom_site_label_1
_geom_bond_atom_site_label_2
_geom_bond_distance
_geom_bond_site_symmetry_2
Li0 O1 1.997969 1_555
Li0 O5 1.997969 1_555
Li0 O16 2.087699 1_555
Li0 O17 2.087699 1_555
Li1 O23 1.997969 1_555
Li1 O12 1.997969 1_555
Li1 O13 2.087699 1_555
Li1 O20 2.087699 1_555
Nb0 O19 1.897301 1_655
Nb0 O22 1.929805 1_555
Nb0 O17 1.955950 1_555
Nb0 O10 2.099496 1_555
Nb0 O6 2.110936 1_555
Nb0 O21 2.228594 1_555
Nb1 O21 1.897301 1_545
Nb1 O8 1.929805 1_555
Nb1 O16 1.955950 1_555
Nb1 O15 2.099496 1_555
Nb1 O9 2.110936 1_555
Nb1 O19 2.228594 1_555
Nb2 O27 1.930925 1_565
Nb2 O11 1.930925 1_455
Nb2 O7 2.025218 1_555
Nb2 O2 2.025218 1_555
Nb2 O13 2.122386 1_555
Nb2 O20 2.122386 1_555
Nb3 O25 1.897301 1_565
Nb3 O26 1.929805 1_555
Nb3 O20 1.955950 1_555
Nb3 O14 2.099496 1_555
Nb3 O11 2.110936 1_555
Nb3 O18 2.228594 1_555
Nb4 O18 1.897301 1_455
Nb4 O3 1.929805 1_555
Nb4 O13 1.955950 1_555
Nb4 O4 2.099496 1_555
Nb4 O27 2.110936 1_555
Nb4 O25 2.228594 1_555
Nb5 O9 1.930925 1_655
Nb5 O6 1.930925 1_545
Nb5 O24 2.025218 1_555
Nb5 O0 2.025218 1_555
Nb5 O16 2.122386 1_555
Nb5 O17 2.122386 1_555
Bi0 O23 2.225401 1_555
Bi0 O5 2.234191 1_555
Bi0 O15 2.415492 1_555
Bi0 O7 2.544721 1_555
Bi0 O19 2.630398 1_555
Bi0 O13 2.764438 1_555
Bi0 O3 2.796008 1_555
Bi1 O26 2.246499 1_456
Bi1 O2 2.274416 1_556
Bi1 O4 2.285742 1_556
Bi1 O1 2.473676 1_555
Bi1 O6 2.635658 1_455
Bi1 O10 2.648556 1_455
Bi1 O24 2.701970 1_465
Bi2 O8 2.246499 1_654
Bi2 O24 2.274416 1_554
Bi2 O10 2.285742 1_554
Bi2 O12 2.473676 1_555
Bi2 O27 2.635658 1_655
Bi2 O4 2.648556 1_655
Bi2 O2 2.701970 1_645
Bi3 O12 2.225401 1_556
Bi3 O1 2.234191 1_555
Bi3 O10 2.415492 1_555
Bi3 O2 2.544721 1_556
Bi3 O21 2.630398 1_555
Bi3 O20 2.764438 1_556
Bi3 O26 2.796008 1_556
Bi4 O22 2.246499 1_545
Bi4 O0 2.274416 1_555
Bi4 O15 2.285742 1_555
Bi4 O23 2.473676 1_555
Bi4 O11 2.635658 1_545
Bi4 O14 2.648556 1_545
Bi4 O7 2.701970 1_645
Bi5 O5 2.225401 1_555
Bi5 O23 2.234191 1_555
Bi5 O14 2.415492 1_555
Bi5 O0 2.544721 1_555
Bi5 O18 2.630398 1_555
Bi5 O17 2.764438 1_555
Bi5 O22 2.796008 1_555
Bi6 O3 2.246499 1_565
Bi6 O7 2.274416 1_555
Bi6 O14 2.285742 1_555
Bi6 O5 2.473676 1_555
Bi6 O9 2.635658 1_565
Bi6 O15 2.648556 1_565
Bi6 O0 2.701970 1_465
Bi7 O1 2.225401 1_554
Bi7 O12 2.234191 1_555
Bi7 O4 2.415492 1_555
Bi7 O24 2.544721 1_554
Bi7 O25 2.630398 1_555
Bi7 O16 2.764438 1_554
Bi7 O8 2.796008 1_554
