# generated using pymatgen
data_RbMgF3
_symmetry_space_group_name_H-M   'P 1'
_cell_length_a   6.90687593
_cell_length_b   6.90687593
_cell_length_c   14.35836500
_cell_angle_alpha   90.00000000
_cell_angle_beta   90.00000000
_cell_angle_gamma   119.99999936
_symmetry_Int_Tables_number   1
_chemical_formula_structural   RbMgF3
_chemical_formula_sum   'Rb6 Mg6 F18'
_cell_volume   593.19698309
_cell_formula_units_Z   6
loop_
 _symmetry_equiv_pos_site_id
 _symmetry_equiv_pos_as_xyz
  1  'x, y, z'
loop_
 _atom_site_type_symbol
 _atom_site_label
 _atom_site_symmetry_multiplicity
 _atom_site_fract_x
 _atom_site_fract_y
 _atom_site_fract_z
 _atom_site_occupancy
  Rb  Rb0  1  0.33333300  0.66666700  0.13783700  1
  Rb  Rb1  1  0.33333300  0.66666700  0.36216300  1
  Rb  Rb2  1  0.66666700  0.33333300  0.86216300  1
  Rb  Rb3  1  0.66666700  0.33333300  0.63783700  1
  Rb  Rb4  1  0.00000000  0.00000000  0.25000000  1
  Rb  Rb5  1  0.00000000  0.00000000  0.75000000  1
  Mg  Mg0  1  0.33333300  0.66666700  0.65949500  1
  Mg  Mg1  1  0.66666700  0.33333300  0.15949500  1
  Mg  Mg2  1  0.66666700  0.33333300  0.34050500  1
  Mg  Mg3  1  0.00000000  0.00000000  0.50000000  1
  Mg  Mg4  1  0.33333300  0.66666700  0.84050500  1
  Mg  Mg5  1  0.00000000  0.00000000  0.00000000  1
  F  F0  1  0.54415300  0.45584700  0.25000000  1
  F  F1  1  0.73079000  0.86539500  0.08481200  1
  F  F2  1  0.73079000  0.86539500  0.41518800  1
  F  F3  1  0.26921000  0.13460500  0.91518800  1
  F  F4  1  0.13460500  0.86539500  0.08481200  1
  F  F5  1  0.86539500  0.13460500  0.58481200  1
  F  F6  1  0.45584700  0.91169400  0.75000000  1
  F  F7  1  0.13460500  0.86539500  0.41518800  1
  F  F8  1  0.13460500  0.26921000  0.41518800  1
  F  F9  1  0.54415300  0.08830600  0.25000000  1
  F  F10  1  0.26921000  0.13460500  0.58481200  1
  F  F11  1  0.13460500  0.26921000  0.08481200  1
  F  F12  1  0.86539500  0.13460500  0.91518800  1
  F  F13  1  0.08830600  0.54415300  0.75000000  1
  F  F14  1  0.45584700  0.54415300  0.75000000  1
  F  F15  1  0.91169400  0.45584700  0.25000000  1
  F  F16  1  0.86539500  0.73079000  0.91518800  1
  F  F17  1  0.86539500  0.73079000  0.58481200  1
loop_
_geom_bond_atom_site_label_1
_geom_bond_atom_site_label_2
_geom_bond_distance
_geom_bond_site_symmetry_2
F0 Mg1 1.958780 1_555
F0 Mg2 1.958780 1_555
F0 Rb0 2.992388 1_555
F0 Rb1 2.992388 1_555
F1 Mg5 2.018903 1_665
F1 Rb0 2.496336 1_555
F1 Rb4 2.866810 1_665
F2 Mg3 2.018903 1_665
F2 Rb1 2.496336 1_555
F2 Rb4 2.866810 1_665
F3 Mg5 2.018903 1_556
F3 Rb2 2.496336 1_555
F3 Rb5 2.866810 1_555
F4 Mg5 2.018903 1_565
F4 Rb0 2.496330 1_555
F4 Rb4 2.866810 1_565
F5 Mg3 2.018903 1_655
F5 Rb3 2.496330 1_555
F5 Rb5 2.866810 1_655
F6 Mg0 1.958775 1_555
F6 Mg4 1.958775 1_555
F6 Rb3 2.992383 1_565
F6 Rb2 2.992383 1_565
F7 Mg3 2.018903 1_565
F7 Rb1 2.496330 1_555
F7 Rb4 2.866810 1_565
F8 Mg3 2.018903 1_555
F8 Rb1 2.496336 1_555
F8 Rb4 2.866810 1_555
F9 Mg1 1.958775 1_555
F9 Mg2 1.958775 1_555
F9 Rb0 2.992383 1_545
F9 Rb1 2.992383 1_545
F10 Mg3 2.018903 1_555
F10 Rb3 2.496336 1_555
F10 Rb5 2.866810 1_555
F11 Mg5 2.018903 1_555
F11 Rb0 2.496336 1_555
F11 Rb4 2.866810 1_555
F12 Mg5 2.018903 1_656
F12 Rb2 2.496330 1_555
F12 Rb5 2.866810 1_655
F13 Mg0 1.958775 1_555
F13 Mg4 1.958775 1_555
F13 Rb3 2.992383 1_455
F13 Rb2 2.992383 1_455
F14 Mg0 1.958780 1_555
F14 Mg4 1.958780 1_555
F14 Rb3 2.992388 1_555
F14 Rb2 2.992388 1_555
F15 Mg1 1.958775 1_555
F15 Mg2 1.958775 1_555
F15 Rb0 2.992383 1_655
F15 Rb1 2.992383 1_655
F16 Mg5 2.018903 1_666
F16 Rb2 2.496336 1_555
F16 Rb5 2.866810 1_665
F17 Mg3 2.018903 1_665
F17 Rb3 2.496336 1_555
F17 Rb5 2.866810 1_665
