# generated using pymatgen
data_Na2Mn2O3
_symmetry_space_group_name_H-M   'P 1'
_cell_length_a   6.35008338
_cell_length_b   6.35292068
_cell_length_c   9.42140931
_cell_angle_alpha   90.00183920
_cell_angle_beta   89.99902980
_cell_angle_gamma   90.00008661
_symmetry_Int_Tables_number   1
_chemical_formula_structural   Na2Mn2O3
_chemical_formula_sum   'Na8 Mn8 O12'
_cell_volume   380.07449981
_cell_formula_units_Z   4
loop_
 _symmetry_equiv_pos_site_id
 _symmetry_equiv_pos_as_xyz
  1  'x, y, z'
loop_
 _atom_site_type_symbol
 _atom_site_label
 _atom_site_symmetry_multiplicity
 _atom_site_fract_x
 _atom_site_fract_y
 _atom_site_fract_z
 _atom_site_occupancy
  Na  Na0  1  0.52323634  0.73586740  0.36224236  1
  Na  Na1  1  0.47682610  0.26411376  0.86236072  1
  Na  Na2  1  0.23588692  0.97732473  0.60995164  1
  Na  Na3  1  0.76416454  0.02270597  0.11001650  1
  Na  Na4  1  0.02314582  0.76410818  0.88755182  1
  Na  Na5  1  0.97675003  0.23587421  0.38783926  1
  Na  Na6  1  0.26411816  0.47731514  0.14002651  1
  Na  Na7  1  0.73583746  0.52267565  0.64000926  1
  Mn  Mn0  1  0.74106106  0.03994017  0.63435451  1
  Mn  Mn1  1  0.75894393  0.53995639  0.11566622  1
  Mn  Mn2  1  0.25889346  0.96001550  0.13432349  1
  Mn  Mn3  1  0.24110949  0.46002807  0.61566365  1
  Mn  Mn4  1  0.46014127  0.24147089  0.38446026  1
  Mn  Mn5  1  0.96013320  0.25852730  0.86552634  1
  Mn  Mn6  1  0.53984213  0.75853597  0.88448673  1
  Mn  Mn7  1  0.03986197  0.74144168  0.36551882  1
  O  O0  1  0.18829639  0.18929412  0.00051533  1
  O  O1  1  0.68835836  0.31075050  0.24953038  1
  O  O2  1  0.81168462  0.81070847  0.50051014  1
  O  O3  1  0.31176544  0.68929421  0.74944589  1
  O  O4  1  0.74479187  0.00544981  0.85509068  1
  O  O5  1  0.25520024  0.99457119  0.35508284  1
  O  O6  1  0.24479309  0.49457281  0.39492795  1
  O  O7  1  0.99434703  0.25504134  0.64474538  1
  O  O8  1  0.50565257  0.75505017  0.10527943  1
  O  O9  1  0.49434536  0.24494225  0.60527460  1
  O  O10  1  0.75518802  0.50547401  0.89490909  1
  O  O11  1  0.00562611  0.74494913  0.14469022  1
loop_
_geom_bond_atom_site_label_1
_geom_bond_atom_site_label_2
_geom_bond_distance
_geom_bond_site_symmetry_2
Na0 O2 2.297408 1_555
Na0 O6 2.360298 1_555
Na0 O5 2.367007 1_555
Na0 O8 2.426594 1_555
Na1 O0 2.297170 1_556
Na1 O10 2.360008 1_555
Na1 O4 2.366535 1_555
Na1 O9 2.427718 1_555
Na2 O3 2.303876 1_555
Na2 O7 2.360666 1_465
Na2 O9 2.363493 1_565
Na2 O5 2.406850 1_555
Na3 O1 2.303880 1_555
Na3 O11 2.360400 1_645
Na3 O8 2.363914 1_545
Na3 O4 2.407405 1_554
Na4 O3 2.297342 1_555
Na4 O4 2.359803 1_465
Na4 O10 2.366391 1_455
Na4 O11 2.428214 1_556
Na5 O1 2.297406 1_555
Na5 O5 2.360443 1_645
Na5 O6 2.366990 1_655
Na5 O7 2.426051 1_555
Na6 O0 2.303776 1_555
Na6 O8 2.360682 1_555
Na6 O11 2.363716 1_555
Na6 O6 2.407157 1_555
Na7 O2 2.303862 1_555
Na7 O9 2.360475 1_555
Na7 O7 2.363810 1_555
Na7 O10 2.407145 1_555
Mn0 O2 1.977852 1_545
Mn0 O9 2.055649 1_555
Mn0 O4 2.091299 1_555
Mn0 O7 2.112785 1_555
Mn1 O1 1.977854 1_555
Mn1 O11 2.055365 1_655
Mn1 O10 2.091478 1_554
Mn1 O8 2.112786 1_555
Mn2 O0 1.977885 1_565
Mn2 O8 2.055648 1_555
Mn2 O5 2.091542 1_555
Mn2 O11 2.112543 1_555
Mn3 O3 1.977695 1_555
Mn3 O7 2.055806 1_455
Mn3 O6 2.091326 1_555
Mn3 O9 2.112480 1_555
Mn4 O1 1.977342 1_555
Mn4 O5 2.056819 1_545
Mn4 O9 2.091809 1_555
Mn4 O6 2.113096 1_555
Mn5 O0 1.977416 1_656
Mn5 O10 2.057068 1_555
Mn5 O7 2.091496 1_555
Mn5 O4 2.112935 1_555
Mn6 O3 1.977321 1_555
Mn6 O4 2.056954 1_565
Mn6 O8 2.091592 1_556
Mn6 O10 2.112881 1_555
Mn7 O2 1.977494 1_455
Mn7 O6 2.056687 1_555
Mn7 O11 2.091967 1_555
Mn7 O5 2.113177 1_555
