# generated using pymatgen
data_Na2Sn2C3(O2F)3
_symmetry_space_group_name_H-M   'P 1'
_cell_length_a   6.11776800
_cell_length_b   8.93046759
_cell_length_c   9.36281496
_cell_angle_alpha   70.46291339
_cell_angle_beta   82.14787688
_cell_angle_gamma   82.83503800
_symmetry_Int_Tables_number   1
_chemical_formula_structural   Na2Sn2C3(O2F)3
_chemical_formula_sum   'Na4 Sn4 C6 O12 F6'
_cell_volume   475.84699875
_cell_formula_units_Z   2
loop_
 _symmetry_equiv_pos_site_id
 _symmetry_equiv_pos_as_xyz
  1  'x, y, z'
loop_
 _atom_site_type_symbol
 _atom_site_label
 _atom_site_symmetry_multiplicity
 _atom_site_fract_x
 _atom_site_fract_y
 _atom_site_fract_z
 _atom_site_occupancy
  Na  Na0  1  0.70693000  0.04349800  0.57949600  1
  Na  Na1  1  0.86008400  0.73745400  0.37502300  1
  Na  Na2  1  0.13991600  0.26254600  0.62497700  1
  Na  Na3  1  0.29307000  0.95650200  0.42050400  1
  Sn  Sn0  1  0.83756400  0.57116700  0.81624700  1
  Sn  Sn1  1  0.82685600  0.13809600  0.13619400  1
  Sn  Sn2  1  0.17314400  0.86190400  0.86380600  1
  Sn  Sn3  1  0.16243600  0.42883300  0.18375300  1
  C  C0  1  0.41276900  0.60662300  0.33410100  1
  C  C1  1  0.39788500  0.49572400  0.72920400  1
  C  C2  1  0.41606300  0.07505100  0.98707400  1
  C  C3  1  0.58393700  0.92494900  0.01292600  1
  C  C4  1  0.58723100  0.39337700  0.66589900  1
  C  C5  1  0.60211500  0.50427600  0.27079600  1
  O  O0  1  0.78701200  0.41808600  0.67754600  1
  O  O1  1  0.45566900  0.59020100  0.79054700  1
  O  O2  1  0.75318600  0.92222400  0.08074300  1
  O  O3  1  0.45661600  0.18446600  0.03356700  1
  O  O4  1  0.54338400  0.81553400  0.96643300  1
  O  O5  1  0.79766200  0.52388000  0.28517100  1
  O  O6  1  0.46250500  0.70361600  0.39148800  1
  O  O7  1  0.24681400  0.07777600  0.91925700  1
  O  O8  1  0.21298800  0.58191400  0.32245400  1
  O  O9  1  0.54433100  0.40979900  0.20945300  1
  O  O10  1  0.20233800  0.47612000  0.71482900  1
  O  O11  1  0.53749500  0.29638400  0.60851200  1
  F  F0  1  0.13271200  0.23332000  0.38492300  1
  F  F1  1  0.86728800  0.76668000  0.61507700  1
  F  F2  1  0.93978500  0.04491400  0.74208600  1
  F  F3  1  0.06021500  0.95508600  0.25791400  1
  F  F4  1  0.36303300  0.95798400  0.65499400  1
  F  F5  1  0.63696700  0.04201600  0.34500600  1
loop_
_geom_bond_atom_site_label_1
_geom_bond_atom_site_label_2
_geom_bond_distance
_geom_bond_site_symmetry_2
Na0 O11 2.449091 1_555
Na1 O5 2.415384 1_555
Na1 O6 2.465946 1_555
Na1 O8 2.500349 1_655
Na1 O2 2.815032 1_555
Na2 O10 2.415384 1_555
Na2 O11 2.465946 1_555
Na2 O0 2.500349 1_455
Na2 O7 2.815032 1_555
Na3 O6 2.449091 1_555
C0 O6 1.246300 1_555
C0 O8 1.293900 1_555
C1 O10 1.261715 1_555
C1 O1 1.273066 1_555
C2 O3 1.257095 1_556
C2 O7 1.280191 1_555
C3 O4 1.257095 1_554
C3 O2 1.280191 1_555
C4 O11 1.246300 1_555
C4 O0 1.293900 1_555
C5 O5 1.261715 1_555
C5 O9 1.273066 1_555
O0 Sn0 2.248026 1_555
O1 Sn0 2.360611 1_555
O2 Sn1 2.267010 1_565
O3 Sn1 2.513911 1_555
O4 Sn2 2.513911 1_555
O5 Sn3 2.467745 1_655
O7 Sn2 2.267010 1_545
O8 Sn3 2.248026 1_555
O9 Sn3 2.360611 1_555
O10 Sn0 2.467745 1_455
F0 Sn3 2.101273 1_555
F0 Na2 2.354564 1_555
F0 Na3 2.473510 1_545
F1 Sn0 2.101273 1_555
F1 Na1 2.354564 1_555
F1 Na0 2.473510 1_565
F2 Sn2 2.150539 1_645
F2 Na0 2.226390 1_555
F2 Na2 2.297863 1_655
F3 Sn1 2.150539 1_465
F3 Na3 2.226390 1_555
F3 Na1 2.297863 1_455
F4 Sn2 2.100990 1_555
F4 Na0 2.267728 1_565
F4 Na3 2.298074 1_555
F4 Na2 2.829726 1_565
F5 Sn1 2.100990 1_555
F5 Na3 2.267728 1_545
F5 Na0 2.298074 1_555
F5 Na1 2.829726 1_545
