# generated using pymatgen
data_Nb2P
_symmetry_space_group_name_H-M   'P 1'
_cell_length_a   3.98060400
_cell_length_b   13.25761600
_cell_length_c   18.63925600
_cell_angle_alpha   90.00000000
_cell_angle_beta   90.00000000
_cell_angle_gamma   90.00000000
_symmetry_Int_Tables_number   1
_chemical_formula_structural   Nb2P
_chemical_formula_sum   'Nb36 P18'
_cell_volume   983.65540803
_cell_formula_units_Z   18
loop_
 _symmetry_equiv_pos_site_id
 _symmetry_equiv_pos_as_xyz
  1  'x, y, z'
loop_
 _atom_site_type_symbol
 _atom_site_label
 _atom_site_symmetry_multiplicity
 _atom_site_fract_x
 _atom_site_fract_y
 _atom_site_fract_z
 _atom_site_occupancy
  Nb  Nb0  1  0.50000000  0.04735700  0.75000000  1
  Nb  Nb1  1  0.00000000  0.44179200  0.63377700  1
  Nb  Nb2  1  0.00000000  0.55820800  0.36622300  1
  Nb  Nb3  1  0.50000000  0.22808200  0.33011500  1
  Nb  Nb4  1  0.50000000  0.00725100  0.11861100  1
  Nb  Nb5  1  0.50000000  0.15076200  0.49231800  1
  Nb  Nb6  1  0.50000000  0.99274900  0.88138900  1
  Nb  Nb7  1  0.00000000  0.89047100  0.75000000  1
  Nb  Nb8  1  0.50000000  0.22808200  0.16988500  1
  Nb  Nb9  1  0.00000000  0.55820800  0.13377700  1
  Nb  Nb10  1  0.00000000  0.67721500  0.57803200  1
  Nb  Nb11  1  0.50000000  0.84923800  0.99231800  1
  Nb  Nb12  1  0.50000000  0.00725100  0.38138900  1
  Nb  Nb13  1  0.00000000  0.60558300  0.75000000  1
  Nb  Nb14  1  0.00000000  0.10952900  0.25000000  1
  Nb  Nb15  1  0.50000000  0.77191800  0.66988500  1
  Nb  Nb16  1  0.00000000  0.32278500  0.42196800  1
  Nb  Nb17  1  0.50000000  0.23016400  0.83956000  1
  Nb  Nb18  1  0.50000000  0.23016400  0.66044000  1
  Nb  Nb19  1  0.50000000  0.76983600  0.33956000  1
  Nb  Nb20  1  0.50000000  0.77191800  0.83011500  1
  Nb  Nb21  1  0.50000000  0.76983600  0.16044000  1
  Nb  Nb22  1  0.50000000  0.50000000  0.50000000  1
  Nb  Nb23  1  0.00000000  0.39441700  0.25000000  1
  Nb  Nb24  1  0.00000000  0.67721500  0.92196800  1
  Nb  Nb25  1  0.00000000  0.35596500  0.75000000  1
  Nb  Nb26  1  0.50000000  0.99274900  0.61861100  1
  Nb  Nb27  1  0.00000000  0.64403500  0.25000000  1
  Nb  Nb28  1  0.50000000  0.84923800  0.50768200  1
  Nb  Nb29  1  0.50000000  0.15076200  0.00768200  1
  Nb  Nb30  1  0.00000000  0.50000000  0.00000000  1
  Nb  Nb31  1  0.50000000  0.95264300  0.25000000  1
  Nb  Nb32  1  0.00000000  0.32278500  0.07803200  1
  Nb  Nb33  1  0.00000000  0.44179200  0.86622300  1
  Nb  Nb34  1  0.00000000  0.50000000  0.50000000  1
  Nb  Nb35  1  0.50000000  0.50000000  0.00000000  1
  P  P0  1  0.50000000  0.57648300  0.64989800  1
  P  P1  1  0.00000000  0.12036200  0.91423100  1
  P  P2  1  0.50000000  0.32065300  0.54102300  1
  P  P3  1  0.50000000  0.67934700  0.04102300  1
  P  P4  1  0.00000000  0.87963800  0.41423100  1
  P  P5  1  0.00000000  0.87963800  0.08576900  1
  P  P6  1  0.00000000  0.86454400  0.60527300  1
  P  P7  1  0.50000000  0.32065300  0.95897700  1
  P  P8  1  0.00000000  0.16607700  0.75000000  1
  P  P9  1  0.00000000  0.12036200  0.58576900  1
  P  P10  1  0.00000000  0.86454400  0.89472700  1
  P  P11  1  0.00000000  0.83392300  0.25000000  1
  P  P12  1  0.00000000  0.13545600  0.10527300  1
  P  P13  1  0.50000000  0.67934700  0.45897700  1
  P  P14  1  0.50000000  0.42351700  0.14989800  1
  P  P15  1  0.50000000  0.42351700  0.35010200  1
  P  P16  1  0.00000000  0.13545600  0.39472700  1
  P  P17  1  0.50000000  0.57648300  0.85010200  1
loop_
_geom_bond_atom_site_label_1
_geom_bond_atom_site_label_2
_geom_bond_distance
_geom_bond_site_symmetry_2
Nb0 P8 2.537440 1_655
Nb0 P8 2.537440 1_555
Nb1 Nb25 2.446963 1_555
Nb1 Nb34 2.610188 1_555
Nb1 P0 2.690771 1_455
Nb1 P0 2.690771 1_555
Nb1 P2 3.086999 1_555
Nb1 P2 3.086999 1_455
Nb2 Nb27 2.446963 1_555
Nb2 Nb34 2.610188 1_555
Nb2 P15 2.690771 1_455
Nb2 P15 2.690771 1_555
Nb2 P13 3.086999 1_455
Nb2 P13 3.086999 1_555
Nb3 P15 2.617648 1_555
Nb3 P16 2.630527 1_655
Nb3 P16 2.630527 1_555
Nb4 P12 2.629081 1_655
Nb4 P12 2.629081 1_555
Nb4 P5 2.682977 1_545
Nb4 P5 2.682977 1_645
Nb5 P2 2.428420 1_555
Nb5 P9 2.675407 1_655
Nb5 P9 2.675407 1_555
Nb5 P16 2.703946 1_555
Nb5 P16 2.703946 1_655
Nb6 P10 2.629081 1_555
Nb6 P10 2.629081 1_655
Nb6 P1 2.682977 1_665
Nb6 P1 2.682977 1_565
Nb7 P10 2.719415 1_555
Nb7 P6 2.719415 1_555
Nb8 P14 2.617648 1_555
Nb8 P12 2.630527 1_655
Nb8 P12 2.630527 1_555
Nb9 P14 2.690771 1_555
Nb9 P14 2.690771 1_455
Nb9 P3 3.086999 1_555
Nb9 P3 3.086999 1_455
Nb10 P6 2.534909 1_555
Nb10 P0 2.745744 1_455
Nb10 P0 2.745744 1_555
Nb10 P13 2.981022 1_455
Nb10 P13 2.981022 1_555
Nb11 P3 2.428420 1_556
Nb11 P5 2.675407 1_556
Nb11 P5 2.675407 1_656
Nb11 P10 2.703946 1_555
Nb11 P10 2.703946 1_655
Nb12 P16 2.629081 1_655
Nb12 P16 2.629081 1_555
Nb12 P4 2.682977 1_645
Nb12 P4 2.682977 1_545
Nb13 P17 2.755259 1_455
Nb13 P17 2.755259 1_555
Nb13 P0 2.755259 1_455
Nb13 P0 2.755259 1_555
Nb14 P16 2.719415 1_555
Nb14 P12 2.719415 1_555
Nb15 P0 2.617648 1_555
Nb15 P6 2.630527 1_655
Nb15 P6 2.630527 1_555
Nb16 P16 2.534909 1_555
Nb16 P15 2.745744 1_555
Nb16 P15 2.745744 1_455
Nb16 P2 2.981022 1_455
Nb16 P2 2.981022 1_555
Nb17 P7 2.528554 1_555
Nb17 P8 2.733104 1_655
Nb17 P8 2.733104 1_555
Nb17 P1 2.831526 1_555
Nb17 P1 2.831526 1_655
Nb18 P2 2.528554 1_555
Nb18 P8 2.733104 1_655
Nb18 P8 2.733104 1_555
Nb18 P9 2.831526 1_655
Nb18 P9 2.831526 1_555
Nb19 P13 2.528554 1_555
Nb19 P11 2.733104 1_555
Nb19 P11 2.733104 1_655
Nb19 P4 2.831526 1_555
Nb19 P4 2.831526 1_655
Nb20 P17 2.617648 1_555
Nb20 P10 2.630527 1_655
Nb20 P10 2.630527 1_555
Nb21 P3 2.528554 1_555
Nb21 P11 2.733104 1_555
Nb21 P11 2.733104 1_655
Nb21 P5 2.831526 1_655
Nb21 P5 2.831526 1_555
Nb22 Nb34 1.990302 1_655
Nb22 Nb34 1.990302 1_555
Nb22 P13 2.497638 1_555
Nb22 P2 2.497638 1_555
Nb22 P0 2.972293 1_555
Nb22 P15 2.972293 1_555
Nb23 P15 2.755259 1_455
Nb23 P15 2.755259 1_555
Nb23 P14 2.755259 1_455
Nb23 P14 2.755259 1_555
Nb24 P10 2.534909 1_555
Nb24 P17 2.745744 1_455
Nb24 P17 2.745744 1_555
Nb24 P3 2.981022 1_456
Nb24 P3 2.981022 1_556
Nb25 Nb33 2.446963 1_555
Nb25 P8 2.517462 1_555
Nb26 P6 2.629081 1_655
Nb26 P6 2.629081 1_555
Nb26 P9 2.682977 1_565
Nb26 P9 2.682977 1_665
Nb27 Nb9 2.446963 1_555
Nb27 P11 2.517462 1_555
Nb28 P13 2.428420 1_555
Nb28 P4 2.675407 1_655
Nb28 P4 2.675407 1_555
Nb28 P6 2.703946 1_555
Nb28 P6 2.703946 1_655
Nb29 P7 2.428420 1_554
Nb29 P1 2.675407 1_554
Nb29 P1 2.675407 1_654
Nb29 P12 2.703946 1_655
Nb29 P12 2.703946 1_555
Nb30 Nb35 1.990302 1_455
Nb30 Nb35 1.990302 1_555
Nb30 Nb9 2.610188 1_555
Nb30 Nb33 2.610188 1_554
Nb31 P11 2.537440 1_555
Nb31 P11 2.537440 1_655
Nb32 P12 2.534909 1_555
Nb32 P14 2.745744 1_455
Nb32 P14 2.745744 1_555
Nb32 P7 2.981022 1_554
Nb32 P7 2.981022 1_454
Nb33 P17 2.690771 1_555
Nb33 P17 2.690771 1_455
Nb33 P7 3.086999 1_555
Nb33 P7 3.086999 1_455
Nb35 P3 2.497638 1_555
Nb35 P7 2.497638 1_554
Nb35 P14 2.972293 1_555
Nb35 P17 2.972293 1_554
