# generated using pymatgen
data_SbSe9Cl7
_symmetry_space_group_name_H-M   'P 1'
_cell_length_a   13.07007700
_cell_length_b   12.54356600
_cell_length_c   15.18245864
_cell_angle_alpha   65.24233759
_cell_angle_beta   90.00000000
_cell_angle_gamma   90.00000000
_symmetry_Int_Tables_number   1
_chemical_formula_structural   SbSe9Cl7
_chemical_formula_sum   'Sb4 Se36 Cl28'
_cell_volume   2260.31420831
_cell_formula_units_Z   4
loop_
 _symmetry_equiv_pos_site_id
 _symmetry_equiv_pos_as_xyz
  1  'x, y, z'
loop_
 _atom_site_type_symbol
 _atom_site_label
 _atom_site_symmetry_multiplicity
 _atom_site_fract_x
 _atom_site_fract_y
 _atom_site_fract_z
 _atom_site_occupancy
  Sb  Sb0  1  0.83281200  0.30368100  0.41268700  1
  Sb  Sb1  1  0.66718800  0.30368100  0.91268700  1
  Sb  Sb2  1  0.16718800  0.69631900  0.58731300  1
  Sb  Sb3  1  0.33281200  0.69631900  0.08731300  1
  Se  Se0  1  0.25241300  0.38744800  0.42515200  1
  Se  Se1  1  0.76377500  0.76885400  0.64293300  1
  Se  Se2  1  0.32689400  0.04394200  0.75461000  1
  Se  Se3  1  0.03079800  0.30987000  0.11327200  1
  Se  Se4  1  0.73622500  0.76885400  0.14293300  1
  Se  Se5  1  0.75241300  0.61255200  0.07484800  1
  Se  Se6  1  0.17310600  0.04394200  0.25461000  1
  Se  Se7  1  0.38260500  0.12935900  0.40456600  1
  Se  Se8  1  0.30014400  0.08844400  0.13127300  1
  Se  Se9  1  0.67310600  0.95605800  0.24539000  1
  Se  Se10  1  0.94063600  0.62158400  0.05054000  1
  Se  Se11  1  0.23622500  0.23114600  0.35706700  1
  Se  Se12  1  0.51829800  0.89797900  0.33079900  1
  Se  Se13  1  0.48170200  0.10202100  0.66920100  1
  Se  Se14  1  0.82657000  0.71073500  0.41863800  1
  Se  Se15  1  0.80014400  0.91155600  0.36872700  1
  Se  Se16  1  0.53079800  0.69013000  0.38672800  1
  Se  Se17  1  0.46920200  0.30987000  0.61327200  1
  Se  Se18  1  0.69985600  0.91155600  0.86872700  1
  Se  Se19  1  0.67343000  0.71073500  0.91863800  1
  Se  Se20  1  0.19985600  0.08844400  0.63127300  1
  Se  Se21  1  0.17343000  0.28926500  0.58136200  1
  Se  Se22  1  0.32657000  0.28926500  0.08136200  1
  Se  Se23  1  0.61739500  0.87064100  0.59543400  1
  Se  Se24  1  0.01829800  0.10202100  0.16920100  1
  Se  Se25  1  0.74758700  0.61255200  0.57484800  1
  Se  Se26  1  0.96920200  0.69013000  0.88672800  1
  Se  Se27  1  0.05936400  0.37841600  0.94946000  1
  Se  Se28  1  0.44063600  0.37841600  0.44946000  1
  Se  Se29  1  0.24758700  0.38744800  0.92515200  1
  Se  Se30  1  0.26377500  0.23114600  0.85706700  1
  Se  Se31  1  0.98170200  0.89797900  0.83079900  1
  Se  Se32  1  0.88260500  0.87064100  0.09543400  1
  Se  Se33  1  0.11739500  0.12935900  0.90456600  1
  Se  Se34  1  0.55936500  0.62158400  0.55054000  1
  Se  Se35  1  0.82689400  0.95605800  0.74539000  1
  Cl  Cl0  1  0.79150700  0.46166400  0.85296100  1
  Cl  Cl1  1  0.29150700  0.53833600  0.64703900  1
  Cl  Cl2  1  0.79995500  0.17031400  0.00913600  1
  Cl  Cl3  1  0.04578300  0.85583700  0.52661600  1
  Cl  Cl4  1  0.12852300  0.64367500  0.45562700  1
  Cl  Cl5  1  0.20727500  0.74441600  0.72114700  1
  Cl  Cl6  1  0.45421700  0.85583700  0.02661600  1
  Cl  Cl7  1  0.49523000  0.21269800  0.28556900  1
  Cl  Cl8  1  0.00477000  0.21269800  0.78556900  1
  Cl  Cl9  1  0.29272500  0.74441600  0.22114700  1
  Cl  Cl10  1  0.70849300  0.46166400  0.35296100  1
  Cl  Cl11  1  0.37147700  0.64367500  0.95562700  1
  Cl  Cl12  1  0.29995500  0.82968600  0.49086400  1
  Cl  Cl13  1  0.46555000  0.56409200  0.18443300  1
  Cl  Cl14  1  0.53445000  0.43590800  0.81556700  1
  Cl  Cl15  1  0.54578300  0.14416300  0.97338400  1
  Cl  Cl16  1  0.99523000  0.78730200  0.21443100  1
  Cl  Cl17  1  0.62852300  0.35632500  0.04437300  1
  Cl  Cl18  1  0.70004500  0.17031400  0.50913600  1
  Cl  Cl19  1  0.20849300  0.53833600  0.14703900  1
  Cl  Cl20  1  0.79272500  0.25558400  0.27885300  1
  Cl  Cl21  1  0.87147700  0.35632500  0.54437300  1
  Cl  Cl22  1  0.95421700  0.14416300  0.47338400  1
  Cl  Cl23  1  0.50477000  0.78730200  0.71443100  1
  Cl  Cl24  1  0.70727500  0.25558400  0.77885300  1
  Cl  Cl25  1  0.96555000  0.43590800  0.31556700  1
  Cl  Cl26  1  0.03445000  0.56409200  0.68443300  1
  Cl  Cl27  1  0.20004500  0.82968600  0.99086400  1
loop_
_geom_bond_atom_site_label_1
_geom_bond_atom_site_label_2
_geom_bond_distance
_geom_bond_site_symmetry_2
Se0 Se21 2.400160 1_555
Se0 Se28 2.483154 1_555
Se0 Se11 2.579658 1_555
Se1 Se23 2.244850 1_555
Se1 Se25 2.579658 1_555
Se2 Se20 2.387363 1_555
Se4 Se5 2.579658 1_555
Se6 Se8 2.387363 1_555
Se10 Se26 2.296330 1_554
Se10 Se5 2.483154 1_555
Se11 Se7 2.244850 1_555
Se12 Se9 2.348391 1_555
Se12 Se16 2.385543 1_555
Se13 Se2 2.348391 1_555
Se13 Se17 2.385543 1_555
Se14 Se15 2.332415 1_555
Se14 Se25 2.400160 1_555
Se15 Se9 2.387363 1_555
Se16 Se34 2.296332 1_555
Se17 Se28 2.296330 1_555
Se18 Se19 2.332415 1_555
Se18 Se35 2.387363 1_555
Se19 Se5 2.400160 1_556
Se20 Se21 2.332415 1_555
Se22 Se8 2.332415 1_555
Se22 Se29 2.400160 1_554
Se24 Se6 2.348391 1_555
Se24 Se3 2.385543 1_555
Se25 Se34 2.483141 1_555
Se26 Se31 2.385543 1_555
Se27 Se3 2.296330 1_556
Se27 Se29 2.483154 1_555
Se29 Se30 2.579658 1_555
Se30 Se33 2.244850 1_555
Se31 Se35 2.348391 1_555
Se32 Se4 2.244850 1_555
Cl0 Sb1 2.425775 1_555
Cl1 Sb2 2.425775 1_555
Cl2 Sb1 2.429460 1_554
Cl3 Sb2 2.413788 1_555
Cl4 Sb2 2.407174 1_555
Cl5 Sb2 2.407069 1_555
Cl6 Sb3 2.413788 1_555
Cl7 Se7 2.223022 1_555
Cl8 Se33 2.223022 1_555
Cl9 Sb3 2.407069 1_555
Cl10 Sb0 2.425775 1_555
Cl11 Sb3 2.407174 1_556
Cl12 Sb2 2.429460 1_555
Cl13 Sb3 2.426242 1_555
Cl14 Sb1 2.426242 1_555
Cl15 Sb1 2.413788 1_555
Cl16 Se32 2.223022 1_555
Cl17 Sb1 2.407174 1_554
Cl18 Sb0 2.429460 1_555
Cl19 Sb3 2.425775 1_555
Cl20 Sb0 2.407069 1_555
Cl21 Sb0 2.407174 1_555
Cl22 Sb0 2.413788 1_555
Cl23 Se23 2.223022 1_555
Cl24 Sb1 2.407069 1_555
Cl25 Sb0 2.426242 1_555
Cl26 Sb2 2.426242 1_555
Cl27 Sb3 2.429460 1_556
