# generated using pymatgen
data_Cs2Sn(AuS2)2
_symmetry_space_group_name_H-M   'P 1'
_cell_length_a   14.84152908
_cell_length_b   13.21945398
_cell_length_c   8.06981900
_cell_angle_alpha   84.72777093
_cell_angle_beta   62.49105598
_cell_angle_gamma   32.78117309
_symmetry_Int_Tables_number   1
_chemical_formula_structural   Cs2Sn(AuS2)2
_chemical_formula_sum   'Cs4 Sn2 Au4 S8'
_cell_volume   598.15699115
_cell_formula_units_Z   2
loop_
 _symmetry_equiv_pos_site_id
 _symmetry_equiv_pos_as_xyz
  1  'x, y, z'
loop_
 _atom_site_type_symbol
 _atom_site_label
 _atom_site_symmetry_multiplicity
 _atom_site_fract_x
 _atom_site_fract_y
 _atom_site_fract_z
 _atom_site_occupancy
  Cs  Cs0  1  0.18007100  0.18007100  0.81992900  1
  Cs  Cs1  1  0.06992900  0.06992900  0.43007100  1
  Cs  Cs2  1  0.81992900  0.81992900  0.18007100  1
  Cs  Cs3  1  0.43007100  0.43007100  0.06992900  1
  Sn  Sn0  1  0.25000000  0.25000000  0.25000000  1
  Sn  Sn1  1  0.00000000  0.00000000  0.00000000  1
  Au  Au0  1  0.43867400  0.43867400  0.56132600  1
  Au  Au1  1  0.68867400  0.68867400  0.81132600  1
  Au  Au2  1  0.81132600  0.81132600  0.68867400  1
  Au  Au3  1  0.56132600  0.56132600  0.43867400  1
  S  S0  1  0.05347600  0.83117200  0.75134700  1
  S  S1  1  0.88599600  0.49865300  0.41882800  1
  S  S2  1  0.75134700  0.36400400  0.05347600  1
  S  S3  1  0.49865300  0.88599600  0.19652400  1
  S  S4  1  0.41882800  0.19652400  0.88599600  1
  S  S5  1  0.19652400  0.41882800  0.49865300  1
  S  S6  1  0.36400400  0.75134700  0.83117200  1
  S  S7  1  0.83117200  0.05347600  0.36400400  1
loop_
_geom_bond_atom_site_label_1
_geom_bond_atom_site_label_2
_geom_bond_distance
_geom_bond_site_symmetry_2
Cs0 S3 3.672958 1_545
Cs0 S1 3.672965 1_456
Cs0 S6 3.701368 1_545
Cs0 S2 3.701370 1_456
Cs0 S5 3.993810 1_555
Cs0 S4 3.993814 1_555
Cs0 S3 4.089771 1_456
Cs0 S1 4.089772 1_545
Cs1 S2 3.672958 1_456
Cs1 S6 3.672965 1_544
Cs1 S1 3.701368 1_455
Cs1 S3 3.701370 1_545
Cs1 S0 3.993810 1_545
Cs1 S7 3.993814 1_455
Cs1 S2 4.089771 1_545
Cs1 S6 4.089772 1_455
Cs2 S5 3.672960 1_565
Cs2 S4 3.672962 1_654
Cs2 S7 3.701356 1_565
Cs2 S0 3.701360 1_654
Cs2 S3 3.993800 1_555
Cs2 S1 3.993804 1_555
Cs2 S5 4.089767 1_654
Cs2 S4 4.089774 1_565
Cs3 S0 3.672960 1_644
Cs3 S7 3.672962 1_465
Cs3 S4 3.701356 1_554
Cs3 S5 3.701360 1_555
Cs3 S2 3.993800 1_555
Cs3 S6 3.993804 1_554
Cs3 S0 4.089767 1_555
Cs3 S7 4.089774 1_554
Au0 S7 2.332892 1_555
Au0 S0 2.332894 1_555
Au0 Cs3 4.040956 1_556
Au0 Cs3 4.040956 1_555
Au1 S1 2.332890 1_555
Au1 S3 2.332897 1_556
Au1 Cs0 4.040956 1_655
Au1 Cs0 4.040956 1_565
Au2 S4 2.332892 1_565
Au2 S5 2.332894 1_655
Au2 Cs2 4.040956 1_556
Au2 Cs2 4.040956 1_555
Au3 S6 2.332890 1_555
Au3 S2 2.332897 1_555
Au3 Cs1 4.040956 1_565
Au3 Cs1 4.040956 1_655
S0 Sn1 2.451669 1_566
S1 Sn0 2.451657 1_655
S2 Sn1 2.451659 1_655
S3 Sn0 2.451659 1_565
S4 Sn0 2.451663 1_556
S5 Sn0 2.451669 1_555
S6 Sn1 2.451657 1_566
S7 Sn1 2.451663 1_655
