# generated using pymatgen
data_K2NaCo(CN)6
_symmetry_space_group_name_H-M   'P 1'
_cell_length_a   7.60428300
_cell_length_b   7.10452200
_cell_length_c   12.52555586
_cell_angle_alpha   56.17302723
_cell_angle_beta   90.00000000
_cell_angle_gamma   90.00000000
_symmetry_Int_Tables_number   1
_chemical_formula_structural   K2NaCo(CN)6
_chemical_formula_sum   'K4 Na2 Co2 C12 N12'
_cell_volume   562.14210148
_cell_formula_units_Z   2
loop_
 _symmetry_equiv_pos_site_id
 _symmetry_equiv_pos_as_xyz
  1  'x, y, z'
loop_
 _atom_site_type_symbol
 _atom_site_label
 _atom_site_symmetry_multiplicity
 _atom_site_fract_x
 _atom_site_fract_y
 _atom_site_fract_z
 _atom_site_occupancy
  K  K0  1  0.42263400  0.22232400  0.25213100  1
  K  K1  1  0.57736600  0.77767600  0.74786900  1
  K  K2  1  0.92263400  0.77767600  0.24786900  1
  K  K3  1  0.07736600  0.22232400  0.75213100  1
  Na  Na0  1  0.00000000  0.00000000  0.50000000  1
  Na  Na1  1  0.50000000  0.00000000  0.00000000  1
  Co  Co0  1  0.00000000  0.50000000  0.00000000  1
  Co  Co1  1  0.50000000  0.50000000  0.50000000  1
  C  C0  1  0.02734800  0.41408600  0.17019900  1
  C  C1  1  0.62945400  0.75458000  0.46266900  1
  C  C2  1  0.70723600  0.32780900  0.54705800  1
  C  C3  1  0.29276400  0.67219100  0.45294200  1
  C  C4  1  0.79276400  0.32780900  0.04705800  1
  C  C5  1  0.87054600  0.75458000  0.96266900  1
  C  C6  1  0.52734800  0.58591400  0.32980100  1
  C  C7  1  0.97265200  0.58591400  0.82980100  1
  C  C8  1  0.20723600  0.67219100  0.95294200  1
  C  C9  1  0.12945400  0.24542000  0.03733100  1
  C  C10  1  0.37054600  0.24542000  0.53733100  1
  C  C11  1  0.47265200  0.41408600  0.67019900  1
  N  N0  1  0.95294300  0.64177600  0.72285400  1
  N  N1  1  0.54705700  0.64177600  0.22285400  1
  N  N2  1  0.79039900  0.91607900  0.93724600  1
  N  N3  1  0.04705700  0.35822400  0.27714600  1
  N  N4  1  0.70960100  0.91607900  0.43724600  1
  N  N5  1  0.66485800  0.21642000  0.07732500  1
  N  N6  1  0.29039900  0.08392100  0.56275400  1
  N  N7  1  0.20960100  0.08392100  0.06275400  1
  N  N8  1  0.33514200  0.78358000  0.92267500  1
  N  N9  1  0.45294300  0.35822400  0.77714600  1
  N  N10  1  0.83514200  0.21642000  0.57732500  1
  N  N11  1  0.16485800  0.78358000  0.42267500  1
loop_
_geom_bond_atom_site_label_1
_geom_bond_atom_site_label_2
_geom_bond_distance
_geom_bond_site_symmetry_2
K0 N5 2.879384 1_555
K0 N1 2.948459 1_555
K0 N4 3.042232 1_545
K0 N3 3.086080 1_555
K0 N11 3.272341 1_545
K1 N8 2.879384 1_555
K1 N9 2.948459 1_555
K1 N6 3.042232 1_565
K1 N0 3.086080 1_555
K1 N10 3.272341 1_565
K2 N11 2.879384 1_655
K2 N3 2.948459 1_655
K2 N7 3.042232 1_665
K2 N1 3.086080 1_555
K2 N5 3.272341 1_565
K3 N10 2.879384 1_455
K3 N0 2.948459 1_455
K3 N2 3.042232 1_445
K3 N9 3.086080 1_555
K3 N8 3.272341 1_545
C0 N3 1.175800 1_555
C0 Co0 1.873976 1_555
C1 N4 1.175806 1_555
C1 Co1 1.875468 1_555
C2 N10 1.175573 1_555
C2 Co1 1.877380 1_555
C3 N11 1.175573 1_555
C3 Co1 1.877380 1_555
C4 N5 1.175573 1_555
C4 Co0 1.877380 1_655
C5 N2 1.175806 1_555
C5 Co0 1.875468 1_656
C6 N1 1.175800 1_555
C6 Co1 1.873976 1_555
C7 N0 1.175800 1_555
C7 Co0 1.873976 1_656
C8 N8 1.175573 1_555
C8 Co0 1.877380 1_556
C9 N7 1.175806 1_555
C9 Co0 1.875468 1_555
C10 N6 1.175806 1_555
C10 Co1 1.875468 1_555
C11 N9 1.175800 1_555
C11 Co1 1.873976 1_555
N0 Na0 2.547036 1_665
N1 Na1 2.547036 1_565
N2 Na1 2.524199 1_566
N3 Na0 2.547036 1_555
N4 Na0 2.524199 1_665
N5 Na1 2.555731 1_555
N6 Na0 2.524199 1_555
N7 Na1 2.524199 1_555
N8 Na1 2.555731 1_566
N9 Na1 2.547036 1_556
N10 Na0 2.555731 1_655
N11 Na0 2.555731 1_565
