# generated using pymatgen
data_Tm3(CuSn)4
_symmetry_space_group_name_H-M   'P 1'
_cell_length_a   8.17007330
_cell_length_b   8.17007330
_cell_length_c   8.42842042
_cell_angle_alpha   59.07861511
_cell_angle_beta   59.07861511
_cell_angle_gamma   29.42090997
_symmetry_Int_Tables_number   1
_chemical_formula_structural   Tm3(CuSn)4
_chemical_formula_sum   'Tm3 Cu4 Sn4'
_cell_volume   234.13210223
_cell_formula_units_Z   1
loop_
 _symmetry_equiv_pos_site_id
 _symmetry_equiv_pos_as_xyz
  1  'x, y, z'
loop_
 _atom_site_type_symbol
 _atom_site_label
 _atom_site_symmetry_multiplicity
 _atom_site_fract_x
 _atom_site_fract_y
 _atom_site_fract_z
 _atom_site_occupancy
  Tm  Tm0  1  0.85369900  0.85369900  0.15143000  1
  Tm  Tm1  1  0.14630100  0.14630100  0.84857000  1
  Tm  Tm2  1  0.50000000  0.50000000  0.50000000  1
  Cu  Cu0  1  0.30910600  0.30910600  0.92742500  1
  Cu  Cu1  1  0.69089400  0.69089400  0.07257500  1
  Cu  Cu2  1  0.31207500  0.31207500  0.45008400  1
  Cu  Cu3  1  0.68792500  0.68792500  0.54991600  1
  Sn  Sn0  1  0.17483500  0.17483500  0.32483600  1
  Sn  Sn1  1  0.82516500  0.82516500  0.67516400  1
  Sn  Sn2  1  0.49776300  0.49776300  0.84057400  1
  Sn  Sn3  1  0.50223700  0.50223700  0.15942600  1
loop_
_geom_bond_atom_site_label_1
_geom_bond_atom_site_label_2
_geom_bond_distance
_geom_bond_site_symmetry_2
Cu0 Cu1 2.619692 1_456
Cu0 Cu1 2.619692 1_546
Cu0 Sn2 2.665872 1_555
Cu0 Sn0 2.858334 1_556
Cu0 Sn1 2.883717 1_455
Cu0 Sn1 2.883717 1_545
Cu0 Tm1 2.979838 1_555
Cu0 Tm0 3.127196 1_546
Cu0 Tm0 3.127196 1_456
Cu0 Tm2 3.245265 1_555
Cu1 Sn3 2.665872 1_555
Cu1 Sn1 2.858334 1_554
Cu1 Sn0 2.883717 1_655
Cu1 Sn0 2.883717 1_565
Cu1 Tm0 2.979838 1_555
Cu1 Tm1 3.127196 1_654
Cu1 Tm1 3.127196 1_564
Cu1 Tm2 3.245265 1_555
Cu2 Cu3 2.666070 1_545
Cu2 Cu3 2.666070 1_455
Cu2 Sn3 2.685299 1_555
Cu2 Sn0 2.872619 1_555
Cu2 Sn1 2.891870 1_545
Cu2 Sn1 2.891870 1_455
Cu2 Tm1 2.965575 1_555
Cu2 Tm0 3.051834 1_545
Cu2 Tm0 3.051834 1_455
Cu2 Tm2 3.213411 1_555
Cu3 Sn2 2.685299 1_555
Cu3 Sn1 2.872619 1_555
Cu3 Sn0 2.891870 1_655
Cu3 Sn0 2.891870 1_565
Cu3 Tm0 2.965575 1_555
Cu3 Tm1 3.051834 1_565
Cu3 Tm1 3.051834 1_655
Cu3 Tm2 3.213411 1_555
Sn0 Tm2 3.128007 1_545
Sn0 Tm2 3.128007 1_455
Sn0 Tm0 3.168828 1_545
Sn0 Tm0 3.168828 1_455
Sn1 Tm2 3.128007 1_655
Sn1 Tm2 3.128007 1_565
Sn1 Tm1 3.168828 1_565
Sn1 Tm1 3.168828 1_655
Sn2 Sn3 2.725643 1_556
Sn2 Tm2 2.851875 1_555
Sn2 Tm1 3.160377 1_655
Sn2 Tm1 3.160377 1_565
Sn2 Tm0 3.164535 1_546
Sn2 Tm0 3.164535 1_456
Sn3 Tm2 2.851875 1_555
Sn3 Tm0 3.160377 1_455
Sn3 Tm0 3.160377 1_545
Sn3 Tm1 3.164535 1_564
Sn3 Tm1 3.164535 1_654
