# generated using pymatgen
data_SiO2
_symmetry_space_group_name_H-M   'P 1'
_cell_length_a   13.48489068
_cell_length_b   13.48489068
_cell_length_c   5.45161186
_cell_angle_alpha   84.74048979
_cell_angle_beta   84.74048979
_cell_angle_gamma   88.33778408
_symmetry_Int_Tables_number   1
_chemical_formula_structural   SiO2
_chemical_formula_sum   'Si16 O32'
_cell_volume   982.79128017
_cell_formula_units_Z   16
loop_
 _symmetry_equiv_pos_site_id
 _symmetry_equiv_pos_as_xyz
  1  'x, y, z'
loop_
 _atom_site_type_symbol
 _atom_site_label
 _atom_site_symmetry_multiplicity
 _atom_site_fract_x
 _atom_site_fract_y
 _atom_site_fract_z
 _atom_site_occupancy
  Si  Si0  1  0.05709600  0.44052100  0.42119300  1
  Si  Si1  1  0.24582900  0.39737800  0.13995000  1
  Si  Si2  1  0.44160500  0.44160500  0.95937400  1
  Si  Si3  1  0.55947900  0.94290400  0.57880700  1
  Si  Si4  1  0.39737800  0.24582900  0.13995000  1
  Si  Si5  1  0.60262200  0.75417100  0.86005000  1
  Si  Si6  1  0.05865400  0.05865400  0.03637900  1
  Si  Si7  1  0.25051200  0.09974300  0.20922100  1
  Si  Si8  1  0.94290400  0.55947900  0.57880700  1
  Si  Si9  1  0.74948800  0.90025700  0.79077900  1
  Si  Si10  1  0.55839500  0.55839500  0.04062600  1
  Si  Si11  1  0.75417100  0.60262200  0.86005000  1
  Si  Si12  1  0.44052100  0.05709600  0.42119300  1
  Si  Si13  1  0.90025700  0.74948800  0.79077900  1
  Si  Si14  1  0.09974300  0.25051200  0.20922100  1
  Si  Si15  1  0.94134600  0.94134600  0.96362100  1
  O  O0  1  0.17394300  0.46282200  0.32518200  1
  O  O1  1  0.48228100  0.48228100  0.21757100  1
  O  O2  1  0.17363200  0.17363200  0.36680200  1
  O  O3  1  0.03386200  0.32340600  0.38968600  1
  O  O4  1  0.82605700  0.53717800  0.67481800  1
  O  O5  1  0.32283700  0.32283700  0.29489200  1
  O  O6  1  0.46282200  0.17394300  0.32518200  1
  O  O7  1  0.32640500  0.17000400  0.01424900  1
  O  O8  1  0.03441100  0.17770000  0.06479000  1
  O  O9  1  0.32340600  0.03386200  0.38968600  1
  O  O10  1  0.53597200  0.67888600  0.05995500  1
  O  O11  1  0.51771900  0.51771900  0.78242900  1
  O  O12  1  0.46402800  0.32111400  0.94004500  1
  O  O13  1  0.01868500  0.01868500  0.78277900  1
  O  O14  1  0.82999600  0.67359500  0.98575100  1
  O  O15  1  0.97634100  0.52355200  0.29699200  1
  O  O16  1  0.96558900  0.82230000  0.93521000  1
  O  O17  1  0.17770000  0.03441100  0.06479000  1
  O  O18  1  0.47644800  0.02365900  0.70300800  1
  O  O19  1  0.67359500  0.82999600  0.98575100  1
  O  O20  1  0.53717800  0.82605700  0.67481800  1
  O  O21  1  0.67888600  0.53597200  0.05995500  1
  O  O22  1  0.32111400  0.46402800  0.94004500  1
  O  O23  1  0.67716300  0.67716300  0.70510800  1
  O  O24  1  0.52355200  0.97634100  0.29699200  1
  O  O25  1  0.96613800  0.67659400  0.61031400  1
  O  O26  1  0.02365900  0.47644800  0.70300800  1
  O  O27  1  0.82230000  0.96558900  0.93521000  1
  O  O28  1  0.17000400  0.32640500  0.01424900  1
  O  O29  1  0.82636800  0.82636800  0.63319800  1
  O  O30  1  0.67659400  0.96613800  0.61031400  1
  O  O31  1  0.98131500  0.98131500  0.21722100  1
loop_
_geom_bond_atom_site_label_1
_geom_bond_atom_site_label_2
_geom_bond_distance
_geom_bond_site_symmetry_2
O0 Si1 1.634782 1_555
O0 Si0 1.641513 1_555
O1 Si10 1.653950 1_555
O1 Si2 1.698114 1_554
O2 Si14 1.655080 1_555
O2 Si7 1.655080 1_555
O3 Si14 1.640056 1_555
O3 Si0 1.646239 1_555
O4 Si11 1.634782 1_555
O4 Si8 1.641513 1_555
O5 Si1 1.657358 1_555
O5 Si4 1.657358 1_555
O6 Si4 1.634782 1_555
O6 Si12 1.641513 1_555
O7 Si4 1.654246 1_555
O7 Si7 1.657415 1_555
O8 Si14 1.636847 1_555
O8 Si6 1.647355 1_555
O9 Si7 1.640056 1_555
O9 Si12 1.646239 1_555
O10 Si5 1.642143 1_554
O10 Si10 1.655167 1_555
O11 Si2 1.653950 1_555
O11 Si10 1.698114 1_556
O12 Si4 1.642143 1_556
O12 Si2 1.655167 1_555
O13 Si6 1.668069 1_556
O13 Si15 1.683262 1_445
O14 Si11 1.654246 1_555
O14 Si13 1.657415 1_555
O15 Si8 1.671874 1_555
O15 Si0 1.680304 1_655
O16 Si13 1.636847 1_555
O16 Si15 1.647355 1_555
O17 Si7 1.636847 1_555
O17 Si6 1.647355 1_555
O18 Si12 1.671874 1_555
O18 Si3 1.680304 1_545
O19 Si5 1.654246 1_555
O19 Si9 1.657415 1_555
O20 Si5 1.634782 1_555
O20 Si3 1.641513 1_555
O21 Si11 1.642143 1_554
O21 Si10 1.655167 1_555
O22 Si1 1.642143 1_556
O22 Si2 1.655167 1_555
O23 Si11 1.657358 1_555
O23 Si5 1.657358 1_555
O24 Si3 1.671874 1_555
O24 Si12 1.680304 1_565
O25 Si13 1.640056 1_555
O25 Si8 1.646239 1_555
O26 Si0 1.671874 1_555
O26 Si8 1.680304 1_455
O27 Si9 1.636847 1_555
O27 Si15 1.647355 1_555
O28 Si1 1.654246 1_555
O28 Si14 1.657415 1_555
O29 Si13 1.655080 1_555
O29 Si9 1.655080 1_555
O30 Si9 1.640056 1_555
O30 Si3 1.646239 1_555
O31 Si15 1.668069 1_554
O31 Si6 1.683262 1_665
