# generated using pymatgen
data_Na4Si3(SnO6)2
_symmetry_space_group_name_H-M   'P 1'
_cell_length_a   8.95333110
_cell_length_b   8.95333110
_cell_length_c   8.95333146
_cell_angle_alpha   60.85719271
_cell_angle_beta   60.85719271
_cell_angle_gamma   60.85719709
_symmetry_Int_Tables_number   1
_chemical_formula_structural   Na4Si3(SnO6)2
_chemical_formula_sum   'Na8 Si6 Sn4 O24'
_cell_volume   517.31180045
_cell_formula_units_Z   2
loop_
 _symmetry_equiv_pos_site_id
 _symmetry_equiv_pos_as_xyz
  1  'x, y, z'
loop_
 _atom_site_type_symbol
 _atom_site_label
 _atom_site_symmetry_multiplicity
 _atom_site_fract_x
 _atom_site_fract_y
 _atom_site_fract_z
 _atom_site_occupancy
  Na  Na0  1  0.00000000  -0.00000000  -0.00000000  1
  Na  Na1  1  0.75000000  0.38124559  0.11875441  1
  Na  Na2  1  0.38124559  0.11875441  0.75000000  1
  Na  Na3  1  0.11875441  0.75000000  0.38124559  1
  Na  Na4  1  0.88124559  0.25000000  0.61875441  1
  Na  Na5  1  0.50000000  0.50000000  0.50000000  1
  Na  Na6  1  0.61875441  0.88124559  0.25000000  1
  Na  Na7  1  0.25000000  0.61875441  0.88124559  1
  Si  Si0  1  0.45514629  0.75000000  0.04485371  1
  Si  Si1  1  0.25000000  0.95514629  0.54485371  1
  Si  Si2  1  0.54485371  0.25000000  0.95514629  1
  Si  Si3  1  0.04485371  0.45514629  0.75000000  1
  Si  Si4  1  0.95514629  0.54485371  0.25000000  1
  Si  Si5  1  0.75000000  0.04485371  0.45514629  1
  Sn  Sn0  1  0.64526561  0.64526561  0.64526561  1
  Sn  Sn1  1  0.14526561  0.14526561  0.14526561  1
  Sn  Sn2  1  0.85473439  0.85473439  0.85473439  1
  Sn  Sn3  1  0.35473439  0.35473439  0.35473439  1
  O  O0  1  0.28884599  0.12747450  0.51717204  1
  O  O1  1  0.73268364  0.07983396  0.93614610  1
  O  O2  1  0.92016604  0.06385390  0.26731636  1
  O  O3  1  0.98282796  0.37252550  0.21115401  1
  O  O4  1  0.62747450  0.78884599  0.01717204  1
  O  O5  1  0.78884599  0.01717204  0.62747450  1
  O  O6  1  0.37252550  0.21115401  0.98282796  1
  O  O7  1  0.21115401  0.98282796  0.37252550  1
  O  O8  1  0.42016604  0.76731636  0.56385390  1
  O  O9  1  0.56385390  0.42016604  0.76731636  1
  O  O10  1  0.07983396  0.93614610  0.73268364  1
  O  O11  1  0.71115401  0.87252550  0.48282796  1
  O  O12  1  0.23268364  0.43614610  0.57983396  1
  O  O13  1  0.93614610  0.73268364  0.07983396  1
  O  O14  1  0.57983396  0.23268364  0.43614610  1
  O  O15  1  0.51717204  0.28884599  0.12747450  1
  O  O16  1  0.12747450  0.51717204  0.28884599  1
  O  O17  1  0.26731636  0.92016604  0.06385390  1
  O  O18  1  0.43614610  0.57983396  0.23268364  1
  O  O19  1  0.76731636  0.56385390  0.42016604  1
  O  O20  1  0.06385390  0.26731636  0.92016604  1
  O  O21  1  0.87252550  0.48282796  0.71115401  1
  O  O22  1  0.48282796  0.71115401  0.87252550  1
  O  O23  1  0.01717204  0.62747450  0.78884599  1
loop_
_geom_bond_atom_site_label_1
_geom_bond_atom_site_label_2
_geom_bond_distance
_geom_bond_site_symmetry_2
Na0 O20 2.415462 1_554
Na0 O13 2.415462 1_445
Na0 O17 2.415462 1_545
Na0 O1 2.415462 1_454
Na0 O2 2.415462 1_455
Na0 O10 2.415462 1_544
Na1 O20 2.491302 1_654
Na1 O18 2.491302 1_555
Na1 O14 2.498251 1_555
Na1 O2 2.498251 1_555
Na1 O15 2.548379 1_555
Na1 O3 2.548379 1_555
Na2 O14 2.491302 1_555
Na2 O17 2.491302 1_546
Na2 O12 2.498251 1_555
Na2 O20 2.498251 1_555
Na2 O6 2.548379 1_555
Na2 O0 2.548379 1_555
Na3 O12 2.491302 1_555
Na3 O2 2.491302 1_465
Na3 O17 2.498251 1_555
Na3 O18 2.498251 1_555
Na3 O7 2.548379 1_555
Na3 O16 2.548379 1_555
Na4 O19 2.491302 1_555
Na4 O10 2.491302 1_645
Na4 O1 2.498251 1_555
Na4 O9 2.498251 1_555
Na4 O5 2.548379 1_555
Na4 O21 2.548379 1_555
Na5 O19 2.415462 1_555
Na5 O12 2.415462 1_555
Na5 O8 2.415462 1_555
Na5 O14 2.415462 1_555
Na5 O18 2.415462 1_555
Na5 O9 2.415462 1_555
Na6 O8 2.491302 1_555
Na6 O1 2.491302 1_564
Na6 O13 2.498251 1_555
Na6 O19 2.498251 1_555
Na6 O11 2.548379 1_555
Na6 O4 2.548379 1_555
Na7 O13 2.491302 1_456
Na7 O9 2.491302 1_555
Na7 O8 2.498251 1_555
Na7 O10 2.498251 1_555
Na7 O22 2.548379 1_555
Na7 O23 2.548379 1_555
O0 Si1 1.621488 1_545
O0 Sn3 2.013591 1_555
O1 Si2 1.629905 1_555
O1 Sn2 2.072972 1_545
O2 Si5 1.629905 1_555
O2 Sn1 2.072972 1_655
O3 Si4 1.621488 1_555
O3 Sn1 2.013591 1_655
O4 Si0 1.621488 1_555
O4 Sn2 2.013591 1_554
O5 Si5 1.621488 1_555
O5 Sn2 2.013591 1_545
O6 Si2 1.621488 1_555
O6 Sn1 2.013591 1_556
O7 Si1 1.621488 1_555
O7 Sn1 2.013591 1_565
O8 Si1 1.629905 1_555
O8 Sn0 2.072972 1_555
O9 Si2 1.629905 1_555
O9 Sn0 2.072972 1_555
O10 Si1 1.629905 1_555
O10 Sn2 2.072972 1_455
O11 Si5 1.621488 1_565
O11 Sn0 2.013591 1_555
O12 Si3 1.629905 1_555
O12 Sn3 2.072972 1_555
O13 Si4 1.629905 1_555
O13 Sn2 2.072972 1_554
O14 Si5 1.629905 1_555
O14 Sn3 2.072972 1_555
O15 Si2 1.621488 1_554
O15 Sn3 2.013591 1_555
O16 Si4 1.621488 1_455
O16 Sn3 2.013591 1_555
O17 Si0 1.629905 1_555
O17 Sn1 2.072972 1_565
O18 Si0 1.629905 1_555
O18 Sn3 2.072972 1_555
O19 Si4 1.629905 1_555
O19 Sn0 2.072972 1_555
O20 Si3 1.629905 1_555
O20 Sn1 2.072972 1_556
O21 Si3 1.621488 1_655
O21 Sn0 2.013591 1_555
O22 Si0 1.621488 1_556
O22 Sn0 2.013591 1_555
O23 Si3 1.621488 1_555
O23 Sn2 2.013591 1_455
