# generated using pymatgen
data_Pr10S19
_symmetry_space_group_name_H-M   'P 1'
_cell_length_a   9.03818614
_cell_length_b   9.03818614
_cell_length_c   16.31251838
_cell_angle_alpha   90.00000000
_cell_angle_beta   90.00000000
_cell_angle_gamma   90.00000000
_symmetry_Int_Tables_number   1
_chemical_formula_structural   Pr10S19
_chemical_formula_sum   'Pr20 S38'
_cell_volume   1332.55019397
_cell_formula_units_Z   2
loop_
 _symmetry_equiv_pos_site_id
 _symmetry_equiv_pos_as_xyz
  1  'x, y, z'
loop_
 _atom_site_type_symbol
 _atom_site_label
 _atom_site_symmetry_multiplicity
 _atom_site_fract_x
 _atom_site_fract_y
 _atom_site_fract_z
 _atom_site_occupancy
  Pr  Pr0  1  0.75000000  0.25000000  0.88621063  1
  Pr  Pr1  1  0.35424598  0.44404337  0.89752255  1
  Pr  Pr2  1  0.85424598  0.94404337  0.10247745  1
  Pr  Pr3  1  0.34815347  0.45914328  0.37714180  1
  Pr  Pr4  1  0.84815247  0.95914328  0.62285820  1
  Pr  Pr5  1  0.44404337  0.14575402  0.60247745  1
  Pr  Pr6  1  0.75000000  0.25000000  0.38621063  1
  Pr  Pr7  1  0.25000000  0.75000000  0.11378937  1
  Pr  Pr8  1  0.05595663  0.35424598  0.60247745  1
  Pr  Pr9  1  0.54085672  0.84815247  0.87714180  1
  Pr  Pr10  1  0.64575402  0.55595663  0.10247745  1
  Pr  Pr11  1  0.65184753  0.54085672  0.62285820  1
  Pr  Pr12  1  0.15184653  0.04085672  0.37714180  1
  Pr  Pr13  1  0.14575402  0.05595663  0.89752255  1
  Pr  Pr14  1  0.94404337  0.64575402  0.39752255  1
  Pr  Pr15  1  0.45914328  0.15184653  0.12285820  1
  Pr  Pr16  1  0.95914328  0.65184753  0.87714180  1
  Pr  Pr17  1  0.25000000  0.75000000  0.61378937  1
  Pr  Pr18  1  0.55595663  0.85424598  0.39752255  1
  Pr  Pr19  1  0.04085672  0.34815347  0.12285820  1
  S  S0  1  0.25000000  0.75000000  0.93389308  1
  S  S1  1  0.96990068  0.19852266  0.75103363  1
  S  S2  1  0.88910381  0.41991280  0.75009874  1
  S  S3  1  0.84828774  0.95087979  0.92603526  1
  S  S4  1  0.80147734  0.46990068  0.25103363  1
  S  S5  1  0.95087979  0.65171226  0.57396474  1
  S  S6  1  0.30147734  0.96990068  0.74896637  1
  S  S7  1  0.15171226  0.04912021  0.07396474  1
  S  S8  1  0.91991280  0.11089619  0.25009874  1
  S  S9  1  0.03009932  0.80147734  0.24896637  1
  S  S10  1  0.38910381  0.91991280  0.24990126  1
  S  S11  1  0.25000000  0.25000000  0.25000000  1
  S  S12  1  0.14805366  0.05300378  0.56192689  1
  S  S13  1  0.45087979  0.15171226  0.42603526  1
  S  S14  1  0.55300378  0.85194634  0.06192689  1
  S  S15  1  0.46990068  0.69852266  0.24896637  1
  S  S16  1  0.35194634  0.44699622  0.56192689  1
  S  S17  1  0.54912021  0.84828774  0.57396474  1
  S  S18  1  0.53009932  0.30147734  0.75103363  1
  S  S19  1  0.11089619  0.58008720  0.24990126  1
  S  S20  1  0.19852266  0.53009932  0.74896637  1
  S  S21  1  0.34828774  0.45087979  0.07396474  1
  S  S22  1  0.58008720  0.38910381  0.25009874  1
  S  S23  1  0.75000000  0.25000000  0.56610692  1
  S  S24  1  0.41991280  0.61089619  0.74990126  1
  S  S25  1  0.25000000  0.75000000  0.43389308  1
  S  S26  1  0.08008720  0.88910381  0.74990126  1
  S  S27  1  0.64805366  0.55300378  0.43807311  1
  S  S28  1  0.61089619  0.08008720  0.75009874  1
  S  S29  1  0.85194634  0.94699622  0.43807311  1
  S  S30  1  0.69852266  0.03009932  0.25103363  1
  S  S31  1  0.04912021  0.34828774  0.42603526  1
  S  S32  1  0.44699622  0.14805366  0.93807311  1
  S  S33  1  0.94699622  0.64805366  0.06192689  1
  S  S34  1  0.65171226  0.54912021  0.92603526  1
  S  S35  1  0.75000000  0.25000000  0.06610692  1
  S  S36  1  0.75000000  0.75000000  0.75000000  1
  S  S37  1  0.05300378  0.35194634  0.93807311  1
loop_
_geom_bond_atom_site_label_1
_geom_bond_atom_site_label_2
_geom_bond_distance
_geom_bond_site_symmetry_2
Pr0 S3 2.918924 1_545
Pr0 S34 2.918924 1_555
Pr0 S35 2.934562 1_556
Pr0 S28 2.978071 1_555
Pr0 S2 2.978071 1_555
Pr0 S18 3.004830 1_555
Pr0 S1 3.004830 1_555
Pr0 S32 3.010761 1_555
Pr0 S37 3.010761 1_655
Pr1 S21 2.879383 1_556
Pr1 S32 2.880459 1_555
Pr1 S34 2.889048 1_555
Pr1 S24 2.902634 1_555
Pr1 S20 2.908332 1_555
Pr1 S37 2.922915 1_555
Pr1 S0 2.981036 1_555
Pr1 S18 3.145904 1_555
Pr2 S3 2.879383 1_554
Pr2 S33 2.880459 1_555
Pr2 S7 2.889048 1_665
Pr2 S8 2.902634 1_565
Pr2 S30 2.908332 1_565
Pr2 S14 2.922915 1_555
Pr2 S35 2.981036 1_565
Pr2 S9 3.145904 1_655
Pr3 S25 2.924842 1_555
Pr3 S11 2.943065 1_555
Pr3 S31 2.990766 1_555
Pr3 S27 3.009101 1_555
Pr3 S22 3.014937 1_555
Pr3 S16 3.016504 1_555
Pr3 S13 3.036262 1_555
Pr3 S19 3.178272 1_555
Pr3 S15 3.203671 1_555
Pr4 S23 2.924840 1_565
Pr4 S36 2.943062 1_555
Pr4 S17 2.990758 1_555
Pr4 S12 3.009109 1_665
Pr4 S26 3.014943 1_655
Pr4 S29 3.016504 1_555
Pr4 S5 3.036265 1_555
Pr4 S28 3.178266 1_565
Pr4 S1 3.203674 1_565
Pr5 S13 2.879383 1_555
Pr5 S12 2.880459 1_555
Pr5 S17 2.889048 1_545
Pr5 S28 2.902634 1_555
Pr5 S18 2.908332 1_555
Pr5 S16 2.922915 1_555
Pr5 S23 2.981036 1_555
Pr5 S6 3.145904 1_545
Pr6 S13 2.918924 1_555
Pr6 S31 2.918924 1_655
Pr6 S23 2.934562 1_555
Pr6 S8 2.978071 1_555
Pr6 S22 2.978071 1_555
Pr6 S30 3.004830 1_555
Pr6 S4 3.004830 1_555
Pr6 S29 3.010761 1_545
Pr6 S27 3.010761 1_555
Pr7 S21 2.918924 1_555
Pr7 S7 2.918924 1_565
Pr7 S0 2.934562 1_554
Pr7 S19 2.978071 1_555
Pr7 S10 2.978071 1_555
Pr7 S9 3.004830 1_555
Pr7 S15 3.004830 1_555
Pr7 S33 3.010761 1_455
Pr7 S14 3.010761 1_555
Pr8 S31 2.879383 1_555
Pr8 S16 2.880459 1_555
Pr8 S5 2.889048 1_455
Pr8 S2 2.902634 1_455
Pr8 S1 2.908332 1_455
Pr8 S12 2.922915 1_555
Pr8 S23 2.981036 1_455
Pr8 S20 3.145904 1_555
Pr9 S0 2.924840 1_555
Pr9 S36 2.943062 1_555
Pr9 S34 2.990758 1_555
Pr9 S32 3.009109 1_565
Pr9 S28 3.014943 1_565
Pr9 S14 3.016504 1_556
Pr9 S3 3.036265 1_555
Pr9 S24 3.178266 1_555
Pr9 S6 3.203674 1_555
Pr10 S34 2.879383 1_554
Pr10 S14 2.880459 1_555
Pr10 S21 2.889048 1_555
Pr10 S22 2.902634 1_555
Pr10 S4 2.908332 1_555
Pr10 S33 2.922915 1_555
Pr10 S35 2.981036 1_555
Pr10 S15 3.145904 1_555
Pr11 S23 2.924840 1_555
Pr11 S36 2.943062 1_555
Pr11 S5 2.990758 1_555
Pr11 S16 3.009109 1_555
Pr11 S24 3.014943 1_555
Pr11 S27 3.016504 1_555
Pr11 S17 3.036265 1_555
Pr11 S2 3.178266 1_555
Pr11 S18 3.203674 1_555
Pr12 S25 2.924842 1_545
Pr12 S11 2.943065 1_555
Pr12 S13 2.990766 1_555
Pr12 S29 3.009101 1_445
Pr12 S8 3.014937 1_455
Pr12 S12 3.016504 1_555
Pr12 S31 3.036262 1_555
Pr12 S10 3.178272 1_545
Pr12 S9 3.203671 1_545
Pr13 S7 2.879383 1_556
Pr13 S37 2.880459 1_555
Pr13 S3 2.889048 1_445
Pr13 S26 2.902634 1_545
Pr13 S6 2.908332 1_545
Pr13 S32 2.922915 1_555
Pr13 S0 2.981036 1_545
Pr13 S1 3.145904 1_455
Pr14 S5 2.879383 1_555
Pr14 S27 2.880459 1_555
Pr14 S31 2.889048 1_655
Pr14 S19 2.902634 1_655
Pr14 S9 2.908332 1_655
Pr14 S29 2.922915 1_555
Pr14 S25 2.981036 1_655
Pr14 S4 3.145904 1_555
Pr15 S35 2.924842 1_555
Pr15 S11 2.943065 1_555
Pr15 S21 2.990766 1_555
Pr15 S14 3.009101 1_545
Pr15 S10 3.014937 1_545
Pr15 S32 3.016504 1_554
Pr15 S7 3.036262 1_555
Pr15 S22 3.178272 1_555
Pr15 S30 3.203671 1_555
Pr16 S0 2.924840 1_655
Pr16 S36 2.943062 1_555
Pr16 S3 2.990758 1_555
Pr16 S37 3.009109 1_655
Pr16 S2 3.014943 1_555
Pr16 S33 3.016504 1_556
Pr16 S34 3.036265 1_555
Pr16 S26 3.178266 1_655
Pr16 S20 3.203674 1_655
Pr17 S5 2.918924 1_455
Pr17 S17 2.918924 1_555
Pr17 S25 2.934562 1_555
Pr17 S24 2.978071 1_555
Pr17 S26 2.978071 1_555
Pr17 S20 3.004830 1_555
Pr17 S6 3.004830 1_555
Pr17 S16 3.010761 1_555
Pr17 S12 3.010761 1_565
Pr18 S17 2.879383 1_555
Pr18 S29 2.880459 1_555
Pr18 S13 2.889048 1_565
Pr18 S10 2.902634 1_555
Pr18 S15 2.908332 1_555
Pr18 S27 2.922915 1_555
Pr18 S25 2.981036 1_555
Pr18 S30 3.145904 1_565
Pr19 S35 2.924842 1_455
Pr19 S11 2.943065 1_555
Pr19 S7 2.990766 1_555
Pr19 S33 3.009101 1_455
Pr19 S19 3.014937 1_555
Pr19 S37 3.016504 1_554
Pr19 S21 3.036262 1_555
Pr19 S8 3.178272 1_455
Pr19 S4 3.203671 1_455
S1 S2 2.130110 1_555
S10 S15 2.130110 1_555
S18 S28 2.130110 1_555
S19 S9 2.130110 1_555
S20 S24 2.130110 1_555
S22 S4 2.130110 1_555
S26 S6 2.130110 1_555
S30 S8 2.130110 1_555
