# generated using pymatgen
data_Cs2Na3TlO4
_symmetry_space_group_name_H-M   'P 1'
_cell_length_a   10.33736900
_cell_length_b   6.50598600
_cell_length_c   12.79587424
_cell_angle_alpha   69.34073710
_cell_angle_beta   90.00000000
_cell_angle_gamma   90.00000000
_symmetry_Int_Tables_number   1
_chemical_formula_structural   Cs2Na3TlO4
_chemical_formula_sum   'Cs8 Na12 Tl4 O16'
_cell_volume   805.24394531
_cell_formula_units_Z   4
loop_
 _symmetry_equiv_pos_site_id
 _symmetry_equiv_pos_as_xyz
  1  'x, y, z'
loop_
 _atom_site_type_symbol
 _atom_site_label
 _atom_site_symmetry_multiplicity
 _atom_site_fract_x
 _atom_site_fract_y
 _atom_site_fract_z
 _atom_site_occupancy
  Cs  Cs0  1  0.72889900  0.28501500  0.60843000  1
  Cs  Cs1  1  0.22889900  0.71498500  0.89157000  1
  Cs  Cs2  1  0.27110100  0.71498500  0.39157000  1
  Cs  Cs3  1  0.00166100  0.72151800  0.13462100  1
  Cs  Cs4  1  0.77110100  0.28501500  0.10843000  1
  Cs  Cs5  1  0.99833900  0.27848200  0.86537900  1
  Cs  Cs6  1  0.49833900  0.72151800  0.63462100  1
  Cs  Cs7  1  0.50166100  0.27848200  0.36537900  1
  Na  Na0  1  0.74409000  0.61205000  0.80121100  1
  Na  Na1  1  0.97402100  0.91288800  0.70603000  1
  Na  Na2  1  0.52597900  0.91288800  0.20603000  1
  Na  Na3  1  0.25591000  0.38795000  0.19878900  1
  Na  Na4  1  0.99158000  0.36016900  0.43155900  1
  Na  Na5  1  0.24409000  0.38795000  0.69878900  1
  Na  Na6  1  0.50842000  0.36016900  0.93155900  1
  Na  Na7  1  0.47402100  0.08711200  0.79397000  1
  Na  Na8  1  0.49158000  0.63983100  0.06844100  1
  Na  Na9  1  0.02597900  0.08711200  0.29397000  1
  Na  Na10  1  0.00842000  0.63983100  0.56844100  1
  Na  Na11  1  0.75591000  0.61205000  0.30121100  1
  Tl  Tl0  1  0.28074100  0.09932600  0.06337500  1
  Tl  Tl1  1  0.21925900  0.09932600  0.56337500  1
  Tl  Tl2  1  0.71925900  0.90067400  0.93662500  1
  Tl  Tl3  1  0.78074100  0.90067400  0.43662500  1
  O  O0  1  0.30943600  0.22272700  0.88105100  1
  O  O1  1  0.19056400  0.22272700  0.38105100  1
  O  O2  1  0.80943600  0.77727300  0.61894900  1
  O  O3  1  0.09778400  0.22267000  0.10816700  1
  O  O4  1  0.32236900  0.75088000  0.15607000  1
  O  O5  1  0.90221600  0.77733000  0.89183300  1
  O  O6  1  0.59778400  0.77733000  0.39183300  1
  O  O7  1  0.17763100  0.75088000  0.65607000  1
  O  O8  1  0.67763100  0.24912000  0.84393000  1
  O  O9  1  0.05881400  0.26690400  0.62323200  1
  O  O10  1  0.44118600  0.26690400  0.12323200  1
  O  O11  1  0.82236900  0.24912000  0.34393000  1
  O  O12  1  0.69056400  0.77727300  0.11894900  1
  O  O13  1  0.94118600  0.73309600  0.37676800  1
  O  O14  1  0.40221600  0.22267000  0.60816700  1
  O  O15  1  0.55881400  0.73309600  0.87676800  1
loop_
_geom_bond_atom_site_label_1
_geom_bond_atom_site_label_2
_geom_bond_distance
_geom_bond_site_symmetry_2
Cs0 O8 2.986569 1_555
Cs1 O7 2.986569 1_555
Cs2 O4 2.986569 1_555
Cs3 O5 3.169248 1_454
Cs3 O13 3.187754 1_455
Cs3 O12 3.234600 1_455
Cs3 O3 3.309674 1_565
Cs3 O4 3.337645 1_555
Cs3 O3 3.522840 1_555
Cs4 O11 2.986569 1_555
Cs5 O3 3.169248 1_656
Cs5 O9 3.187754 1_655
Cs5 O0 3.234600 1_655
Cs5 O5 3.309674 1_545
Cs5 O8 3.337645 1_555
Cs5 O5 3.522840 1_555
Cs6 O6 3.169248 1_555
Cs6 O15 3.187754 1_555
Cs6 O2 3.234600 1_555
Cs6 O14 3.309674 1_565
Cs6 O7 3.337645 1_555
Cs6 O14 3.522840 1_555
Cs7 O14 3.169248 1_555
Cs7 O10 3.187754 1_555
Cs7 O1 3.234600 1_555
Cs7 O6 3.309674 1_545
Cs7 O11 3.337645 1_555
Cs7 O6 3.522840 1_555
Na0 O2 2.298259 1_555
Na0 O8 2.331392 1_555
Na0 O15 2.400089 1_555
Na0 O5 2.460228 1_555
Na1 O9 2.339611 1_665
Na1 O5 2.345590 1_555
Na1 O2 2.368224 1_555
Na1 O7 2.534808 1_655
Na2 O10 2.339611 1_565
Na2 O6 2.345590 1_555
Na2 O12 2.368224 1_555
Na2 O4 2.534808 1_555
Na3 O1 2.298259 1_555
Na3 O4 2.331392 1_555
Na3 O10 2.400089 1_555
Na3 O3 2.460228 1_555
Na4 O11 2.326068 1_555
Na4 O13 2.334385 1_555
Na4 O9 2.411741 1_655
Na4 O1 2.419958 1_655
Na5 O0 2.298259 1_555
Na5 O7 2.331392 1_555
Na5 O9 2.400089 1_555
Na5 O14 2.460228 1_555
Na6 O8 2.326068 1_555
Na6 O15 2.334385 1_555
Na6 O10 2.411741 1_556
Na6 O0 2.419958 1_555
Na7 O15 2.339611 1_545
Na7 O14 2.345590 1_555
Na7 O0 2.368224 1_555
Na7 O8 2.534808 1_555
Na8 O4 2.326068 1_555
Na8 O10 2.334385 1_555
Na8 O15 2.411741 1_554
Na8 O12 2.419958 1_555
Na9 O13 2.339611 1_445
Na9 O3 2.345590 1_555
Na9 O1 2.368224 1_555
Na9 O11 2.534808 1_455
Na10 O7 2.326068 1_555
Na10 O9 2.334385 1_555
Na10 O13 2.411741 1_455
Na10 O2 2.419958 1_455
Na11 O12 2.298259 1_555
Na11 O11 2.331392 1_555
Na11 O13 2.400089 1_555
Na11 O6 2.460228 1_555
O0 Tl0 2.203127 1_556
O1 Tl1 2.203127 1_555
O2 Tl3 2.203127 1_555
O3 Tl0 2.207715 1_555
O4 Tl0 2.198619 1_565
O5 Tl2 2.207715 1_555
O6 Tl3 2.207715 1_555
O7 Tl1 2.198619 1_565
O8 Tl2 2.198619 1_545
O9 Tl1 2.261730 1_555
O10 Tl0 2.261730 1_555
O11 Tl3 2.198619 1_545
O12 Tl2 2.203127 1_554
O13 Tl3 2.261730 1_555
O14 Tl1 2.207715 1_555
O15 Tl2 2.261730 1_555
