# generated using pymatgen
data_TlMo2Cl7O2
_symmetry_space_group_name_H-M   'P 1'
_cell_length_a   7.26701900
_cell_length_b   9.62580344
_cell_length_c   10.28145424
_cell_angle_alpha   103.51288780
_cell_angle_beta   90.43926368
_cell_angle_gamma   109.13855377
_symmetry_Int_Tables_number   1
_chemical_formula_structural   TlMo2Cl7O2
_chemical_formula_sum   'Tl2 Mo4 Cl14 O4'
_cell_volume   657.85084768
_cell_formula_units_Z   2
loop_
 _symmetry_equiv_pos_site_id
 _symmetry_equiv_pos_as_xyz
  1  'x, y, z'
loop_
 _atom_site_type_symbol
 _atom_site_label
 _atom_site_symmetry_multiplicity
 _atom_site_fract_x
 _atom_site_fract_y
 _atom_site_fract_z
 _atom_site_occupancy
  Tl  Tl0  1  0.22832500  0.75611500  0.93509600  1
  Tl  Tl1  1  0.77167500  0.24388500  0.06490400  1
  Mo  Mo0  1  0.77605800  0.85442500  0.20990400  1
  Mo  Mo1  1  0.63449000  0.37353700  0.59579600  1
  Mo  Mo2  1  0.36551000  0.62646300  0.40420400  1
  Mo  Mo3  1  0.22394200  0.14557500  0.79009600  1
  Cl  Cl0  1  0.89545000  0.60377300  0.65554100  1
  Cl  Cl1  1  0.42386800  0.59725200  0.16920200  1
  Cl  Cl2  1  0.74904600  0.84218700  0.97751100  1
  Cl  Cl3  1  0.25095400  0.15781300  0.02248900  1
  Cl  Cl4  1  0.57613200  0.40274800  0.83079800  1
  Cl  Cl5  1  0.10455000  0.39622700  0.34445900  1
  Cl  Cl6  1  0.70944800  0.80185300  0.43782600  1
  Cl  Cl7  1  0.41216900  0.59740200  0.62661600  1
  Cl  Cl8  1  0.08693100  0.34534800  0.84369700  1
  Cl  Cl9  1  0.29055200  0.19814700  0.56217400  1
  Cl  Cl10  1  0.53963300  0.98142700  0.23212500  1
  Cl  Cl11  1  0.91306900  0.65465200  0.15630300  1
  Cl  Cl12  1  0.58783100  0.40259800  0.37338400  1
  Cl  Cl13  1  0.46036700  0.01857300  0.76787500  1
  O  O0  1  0.25038600  0.75533900  0.43407900  1
  O  O1  1  0.01783700  0.99565500  0.72996600  1
  O  O2  1  0.74961400  0.24466100  0.56592100  1
  O  O3  1  0.98216300  0.00434500  0.27003400  1
loop_
_geom_bond_atom_site_label_1
_geom_bond_atom_site_label_2
_geom_bond_distance
_geom_bond_site_symmetry_2
Mo0 O3 1.691052 1_565
Mo1 O2 1.685104 1_555
Mo2 O0 1.685104 1_555
Mo3 O1 1.691052 1_545
Cl0 Mo1 2.339949 1_555
Cl1 Mo2 2.423461 1_555
Cl1 Mo0 2.863332 1_555
Cl2 Mo0 2.368006 1_556
Cl3 Mo3 2.368006 1_554
Cl4 Mo1 2.423461 1_555
Cl4 Mo3 2.863332 1_555
Cl5 Mo2 2.339949 1_555
Cl6 Mo2 2.482724 1_555
Cl6 Mo0 2.528386 1_555
Cl7 Mo2 2.402405 1_555
Cl7 Mo1 3.053797 1_555
Cl8 Mo3 2.400310 1_555
Cl9 Mo1 2.482724 1_555
Cl9 Mo3 2.528386 1_555
Cl10 Mo0 2.398188 1_555
Cl11 Mo0 2.400310 1_555
Cl12 Mo1 2.402405 1_555
Cl12 Mo2 3.053797 1_555
Cl13 Mo3 2.398188 1_555
