# generated using pymatgen
data_Cs2SeO4
_symmetry_space_group_name_H-M   'P 1'
_cell_length_a   6.44846081
_cell_length_b   8.39029182
_cell_length_c   11.28439475
_cell_angle_alpha   90.00000000
_cell_angle_beta   90.00000000
_cell_angle_gamma   90.00000000
_symmetry_Int_Tables_number   1
_chemical_formula_structural   Cs2SeO4
_chemical_formula_sum   'Cs8 Se4 O16'
_cell_volume   610.53617449
_cell_formula_units_Z   4
loop_
 _symmetry_equiv_pos_site_id
 _symmetry_equiv_pos_as_xyz
  1  'x, y, z'
loop_
 _atom_site_type_symbol
 _atom_site_label
 _atom_site_symmetry_multiplicity
 _atom_site_fract_x
 _atom_site_fract_y
 _atom_site_fract_z
 _atom_site_occupancy
  Cs  Cs0  1  0.75000000  0.67372559  0.41026014  1
  Cs  Cs1  1  0.75000000  0.48998577  0.79624390  1
  Cs  Cs2  1  0.25000000  0.51001423  0.20375610  1
  Cs  Cs3  1  0.25000000  0.01001423  0.29624390  1
  Cs  Cs4  1  0.75000000  0.98998577  0.70375610  1
  Cs  Cs5  1  0.25000000  0.32627441  0.58973986  1
  Cs  Cs6  1  0.75000000  0.17372559  0.08973986  1
  Cs  Cs7  1  0.25000000  0.82627441  0.91026014  1
  Se  Se0  1  0.25000000  0.76582674  0.58058813  1
  Se  Se1  1  0.75000000  0.23417326  0.41941187  1
  Se  Se2  1  0.75000000  0.73417326  0.08058813  1
  Se  Se3  1  0.25000000  0.26582674  0.91941187  1
  O  O0  1  0.75000000  0.03707602  0.41670951  1
  O  O1  1  0.03997822  0.19721116  0.85141466  1
  O  O2  1  0.46002178  0.69721116  0.64858534  1
  O  O3  1  0.25000000  0.19857376  0.05795619  1
  O  O4  1  0.75000000  0.53707602  0.08329049  1
  O  O5  1  0.96002178  0.30278884  0.35141466  1
  O  O6  1  0.53997822  0.30278884  0.35141466  1
  O  O7  1  0.53997822  0.80278884  0.14858534  1
  O  O8  1  0.75000000  0.80142624  0.94204381  1
  O  O9  1  0.03997822  0.69721116  0.64858534  1
  O  O10  1  0.46002178  0.19721116  0.85141466  1
  O  O11  1  0.25000000  0.69857376  0.44204381  1
  O  O12  1  0.25000000  0.46292398  0.91670951  1
  O  O13  1  0.75000000  0.30142624  0.55795619  1
  O  O14  1  0.96002178  0.80278884  0.14858534  1
  O  O15  1  0.25000000  0.96292398  0.58329049  1
loop_
_geom_bond_atom_site_label_1
_geom_bond_atom_site_label_2
_geom_bond_distance
_geom_bond_site_symmetry_2
Cs0 O0 3.049485 1_565
Cs0 O11 3.250810 1_655
Cs0 O11 3.250810 1_555
Cs0 O2 3.281469 1_555
Cs0 O9 3.281469 1_655
Cs0 O14 3.424336 1_555
Cs0 O7 3.424336 1_555
Cs0 O5 3.458515 1_555
Cs0 O6 3.458515 1_555
Cs0 O13 3.540517 1_555
Cs1 O2 3.048924 1_555
Cs1 O9 3.048924 1_655
Cs1 O8 3.087889 1_555
Cs1 O13 3.119824 1_555
Cs1 O10 3.149347 1_555
Cs1 O1 3.149347 1_655
Cs1 O4 3.263155 1_556
Cs1 O12 3.506442 1_555
Cs1 O12 3.506442 1_655
Cs2 O6 3.048924 1_555
Cs2 O5 3.048924 1_455
Cs2 O3 3.087889 1_555
Cs2 O11 3.119824 1_555
Cs2 O14 3.149347 1_455
Cs2 O7 3.149347 1_555
Cs2 O12 3.263155 1_554
Cs2 O4 3.506442 1_455
Cs2 O4 3.506442 1_555
Cs3 O14 3.048924 1_445
Cs3 O7 3.048924 1_545
Cs3 O11 3.087889 1_545
Cs3 O3 3.119824 1_555
Cs3 O5 3.149347 1_455
Cs3 O6 3.149347 1_555
Cs3 O15 3.263155 1_545
Cs3 O0 3.506442 1_455
Cs3 O0 3.506442 1_555
Cs4 O10 3.048924 1_565
Cs4 O1 3.048924 1_665
Cs4 O13 3.087889 1_565
Cs4 O8 3.119824 1_555
Cs4 O9 3.149347 1_655
Cs4 O2 3.149347 1_555
Cs4 O0 3.263155 1_565
Cs4 O15 3.506442 1_655
Cs4 O15 3.506442 1_555
Cs5 O15 3.049485 1_545
Cs5 O13 3.250810 1_555
Cs5 O13 3.250810 1_455
Cs5 O6 3.281469 1_555
Cs5 O5 3.281469 1_455
Cs5 O1 3.424336 1_555
Cs5 O10 3.424336 1_555
Cs5 O2 3.458515 1_555
Cs5 O9 3.458515 1_555
Cs5 O11 3.540517 1_555
Cs6 O4 3.049485 1_555
Cs6 O3 3.250810 1_555
Cs6 O3 3.250810 1_655
Cs6 O1 3.281469 1_654
Cs6 O10 3.281469 1_554
Cs6 O5 3.424336 1_555
Cs6 O6 3.424336 1_555
Cs6 O7 3.458515 1_545
Cs6 O14 3.458515 1_545
Cs6 O8 3.540517 1_544
Cs7 O12 3.049485 1_555
Cs7 O8 3.250810 1_555
Cs7 O8 3.250810 1_455
Cs7 O14 3.281469 1_456
Cs7 O7 3.281469 1_556
Cs7 O2 3.424336 1_555
Cs7 O9 3.424336 1_555
Cs7 O10 3.458515 1_565
Cs7 O1 3.458515 1_565
Cs7 O3 3.540517 1_566
O0 Se1 1.653984 1_555
O1 Se3 1.659630 1_555
O2 Se0 1.659630 1_555
O3 Se3 1.662103 1_554
O4 Se2 1.653984 1_555
O5 Se1 1.659630 1_555
O6 Se1 1.659630 1_555
O7 Se2 1.659630 1_555
O8 Se2 1.662103 1_556
O9 Se0 1.659630 1_555
O10 Se3 1.659630 1_555
O11 Se0 1.662103 1_555
O12 Se3 1.653984 1_555
O13 Se1 1.662103 1_555
O14 Se2 1.659630 1_555
O15 Se0 1.653984 1_555
