# generated using pymatgen
data_CdI2
_symmetry_space_group_name_H-M   'P 1'
_cell_length_a   4.28557005
_cell_length_b   4.28557044
_cell_length_c   57.34747709
_cell_angle_alpha   90.00000000
_cell_angle_beta   90.00000000
_cell_angle_gamma   119.99999707
_symmetry_Int_Tables_number   1
_chemical_formula_structural   CdI2
_chemical_formula_sum   'Cd8 I16'
_cell_volume   912.14146160
_cell_formula_units_Z   8
loop_
 _symmetry_equiv_pos_site_id
 _symmetry_equiv_pos_as_xyz
  1  'x, y, z'
loop_
 _atom_site_type_symbol
 _atom_site_label
 _atom_site_symmetry_multiplicity
 _atom_site_fract_x
 _atom_site_fract_y
 _atom_site_fract_z
 _atom_site_occupancy
  Cd  Cd0  1  0.00000000  -0.00000000  0.78079417  1
  Cd  Cd1  1  0.00000000  -0.00000000  0.40625787  1
  Cd  Cd2  1  -0.00000000  -0.00000000  0.90624200  1
  Cd  Cd3  1  0.66666700  0.33333300  0.03125132  1
  Cd  Cd4  1  0.66666700  0.33333300  0.53169935  1
  Cd  Cd5  1  0.00000000  -0.00000000  0.15623831  1
  Cd  Cd6  1  0.00000000  0.00000000  0.65625977  1
  Cd  Cd7  1  0.66666700  0.33333300  0.28125381  1
  I  I0  1  0.33333300  0.66666700  0.81071087  1
  I  I1  1  0.33333300  0.66666700  0.56161060  1
  I  I2  1  0.66666700  0.33333300  0.12619562  1
  I  I3  1  -0.00000000  -0.00000000  0.25119798  1
  I  I4  1  0.33333300  0.66666700  0.06130675  1
  I  I5  1  0.33333300  0.66666700  0.43630301  1
  I  I6  1  0.66666700  0.33333300  0.62620825  1
  I  I7  1  0.33333300  0.66666700  0.18630086  1
  I  I8  1  0.66666700  0.33333300  0.87619103  1
  I  I9  1  0.66666700  0.33333300  0.75088854  1
  I  I10  1  0.33333300  0.66666700  0.31130767  1
  I  I11  1  0.33333300  0.66666700  0.93630623  1
  I  I12  1  0.66666700  0.33333300  0.37619357  1
  I  I13  1  -0.00000000  -0.00000000  0.00119130  1
  I  I14  1  0.33333300  0.66666700  0.68630643  1
  I  I15  1  -0.00000000  -0.00000000  0.50178468  1
loop_
_geom_bond_atom_site_label_1
_geom_bond_atom_site_label_2
_geom_bond_distance
_geom_bond_site_symmetry_2
Cd0 I9 3.010530 1_455
Cd0 I9 3.010533 1_555
Cd0 I9 3.010534 1_445
Cd0 I0 3.010892 1_545
Cd0 I0 3.010895 1_445
Cd0 I0 3.010895 1_555
Cd1 I5 3.015095 1_545
Cd1 I5 3.015098 1_445
Cd1 I5 3.015098 1_555
Cd1 I12 3.015723 1_455
Cd1 I12 3.015726 1_555
Cd1 I12 3.015726 1_445
Cd2 I8 3.015286 1_455
Cd2 I8 3.015289 1_555
Cd2 I8 3.015289 1_445
Cd2 I11 3.015721 1_545
Cd2 I11 3.015724 1_445
Cd2 I11 3.015724 1_555
Cd3 I4 3.015432 1_655
Cd3 I4 3.015433 1_545
Cd3 I4 3.015438 1_555
Cd3 I13 3.015583 1_655
Cd3 I13 3.015586 1_555
Cd3 I13 3.015586 1_665
Cd4 I1 3.010714 1_655
Cd4 I1 3.010714 1_545
Cd4 I1 3.010720 1_555
Cd4 I15 3.010826 1_655
Cd4 I15 3.010829 1_555
Cd4 I15 3.010829 1_665
Cd5 I2 3.015015 1_455
Cd5 I2 3.015018 1_555
Cd5 I2 3.015018 1_445
Cd5 I7 3.015666 1_545
Cd5 I7 3.015669 1_445
Cd5 I7 3.015669 1_555
Cd6 I14 3.015145 1_545
Cd6 I14 3.015148 1_445
Cd6 I14 3.015148 1_555
Cd6 I6 3.015304 1_455
Cd6 I6 3.015307 1_555
Cd6 I6 3.015307 1_445
Cd7 I10 3.015381 1_655
Cd7 I10 3.015381 1_545
Cd7 I10 3.015387 1_555
Cd7 I3 3.015446 1_655
Cd7 I3 3.015449 1_555
Cd7 I3 3.015449 1_665
