# generated using pymatgen
data_Na2Pd(SeO4)2
_symmetry_space_group_name_H-M   'P 1'
_cell_length_a   5.04166300
_cell_length_b   6.13614213
_cell_length_c   7.35018042
_cell_angle_alpha   106.48968220
_cell_angle_beta   86.64465451
_cell_angle_gamma   109.20140910
_symmetry_Int_Tables_number   1
_chemical_formula_structural   Na2Pd(SeO4)2
_chemical_formula_sum   'Na2 Pd1 Se2 O8'
_cell_volume   205.75355031
_cell_formula_units_Z   1
loop_
 _symmetry_equiv_pos_site_id
 _symmetry_equiv_pos_as_xyz
  1  'x, y, z'
loop_
 _atom_site_type_symbol
 _atom_site_label
 _atom_site_symmetry_multiplicity
 _atom_site_fract_x
 _atom_site_fract_y
 _atom_site_fract_z
 _atom_site_occupancy
  Na  Na0  1  0.19998900  0.26759100  0.18863000  1
  Na  Na1  1  0.80001100  0.73240900  0.81137000  1
  Pd  Pd0  1  0.50000000  0.00000000  0.50000000  1
  Se  Se0  1  0.88240100  0.68787900  0.28361400  1
  Se  Se1  1  0.11759900  0.31212100  0.71638600  1
  O  O0  1  0.73851800  0.78793100  0.49730800  1
  O  O1  1  0.20862600  0.69218300  0.34448200  1
  O  O2  1  0.71455900  0.40087200  0.18212300  1
  O  O3  1  0.79137400  0.30781700  0.65551800  1
  O  O4  1  0.89731700  0.86363000  0.14657200  1
  O  O5  1  0.10268300  0.13637000  0.85342800  1
  O  O6  1  0.26148200  0.21206900  0.50269200  1
  O  O7  1  0.28544100  0.59912800  0.81787700  1
loop_
_geom_bond_atom_site_label_1
_geom_bond_atom_site_label_2
_geom_bond_distance
_geom_bond_site_symmetry_2
Na0 O4 2.387586 1_445
Na0 O5 2.390556 1_554
Na0 O2 2.452253 1_555
Na0 O6 2.478036 1_555
Na0 O1 2.517732 1_555
Na0 O2 2.830769 1_455
Na1 O5 2.387586 1_665
Na1 O4 2.390556 1_556
Na1 O7 2.452253 1_555
Na1 O0 2.478036 1_555
Na1 O3 2.517732 1_555
Na1 O7 2.830769 1_655
O0 Se0 1.726948 1_555
O0 Pd0 2.037577 1_565
O1 Se0 1.719536 1_455
O1 Pd0 2.044014 1_565
O2 Se0 1.649818 1_555
O3 Se1 1.719536 1_655
O3 Pd0 2.044014 1_555
O4 Se0 1.654615 1_555
O5 Se1 1.654615 1_555
O6 Se1 1.726948 1_555
O6 Pd0 2.037577 1_555
O7 Se1 1.649818 1_555
