# generated using pymatgen
data_LiCu4(PO4)3
_symmetry_space_group_name_H-M   'P 1'
_cell_length_a   6.02545800
_cell_length_b   10.25601100
_cell_length_c   14.38277300
_cell_angle_alpha   90.00000000
_cell_angle_beta   90.00000000
_cell_angle_gamma   90.00000000
_symmetry_Int_Tables_number   1
_chemical_formula_structural   LiCu4(PO4)3
_chemical_formula_sum   'Li4 Cu16 P12 O48'
_cell_volume   888.81457507
_cell_formula_units_Z   4
loop_
 _symmetry_equiv_pos_site_id
 _symmetry_equiv_pos_as_xyz
  1  'x, y, z'
loop_
 _atom_site_type_symbol
 _atom_site_label
 _atom_site_symmetry_multiplicity
 _atom_site_fract_x
 _atom_site_fract_y
 _atom_site_fract_z
 _atom_site_occupancy
  Li  Li0  1  0.06279000  0.72696400  0.25000000  1
  Li  Li1  1  0.43721000  0.22696400  0.75000000  1
  Li  Li2  1  0.56279000  0.77303600  0.25000000  1
  Li  Li3  1  0.93721000  0.27303600  0.75000000  1
  Cu  Cu0  1  0.05301800  0.84879500  0.63351300  1
  Cu  Cu1  1  0.05301800  0.84879500  0.86648700  1
  Cu  Cu2  1  0.14588300  0.44111000  0.58584600  1
  Cu  Cu3  1  0.14588300  0.44111000  0.91415400  1
  Cu  Cu4  1  0.35411700  0.94111000  0.08584600  1
  Cu  Cu5  1  0.35411700  0.94111000  0.41415400  1
  Cu  Cu6  1  0.44698200  0.34879500  0.13351300  1
  Cu  Cu7  1  0.44698200  0.34879500  0.36648700  1
  Cu  Cu8  1  0.55301800  0.65120500  0.63351300  1
  Cu  Cu9  1  0.55301800  0.65120500  0.86648700  1
  Cu  Cu10  1  0.64588300  0.05889000  0.58584600  1
  Cu  Cu11  1  0.64588300  0.05889000  0.91415400  1
  Cu  Cu12  1  0.85411700  0.55889000  0.08584600  1
  Cu  Cu13  1  0.85411700  0.55889000  0.41415400  1
  Cu  Cu14  1  0.94698200  0.15120500  0.13351300  1
  Cu  Cu15  1  0.94698200  0.15120500  0.36648700  1
  P  P0  1  0.02010600  0.40047700  0.25000000  1
  P  P1  1  0.13463900  0.13375300  0.57274800  1
  P  P2  1  0.13463900  0.13375300  0.92725200  1
  P  P3  1  0.36536100  0.63375300  0.07274800  1
  P  P4  1  0.36536100  0.63375300  0.42725200  1
  P  P5  1  0.47989400  0.90047700  0.75000000  1
  P  P6  1  0.52010600  0.09952300  0.25000000  1
  P  P7  1  0.63463900  0.36624700  0.57274800  1
  P  P8  1  0.63463900  0.36624700  0.92725200  1
  P  P9  1  0.86536100  0.86624700  0.07274800  1
  P  P10  1  0.86536100  0.86624700  0.42725200  1
  P  P11  1  0.97989400  0.59952300  0.75000000  1
  O  O0  1  0.04184600  0.96781400  0.11298300  1
  O  O1  1  0.04184600  0.96781400  0.38701700  1
  O  O2  1  0.03826900  0.20309400  0.01246500  1
  O  O3  1  0.03826900  0.20309400  0.48753500  1
  O  O4  1  0.04438000  0.45525400  0.75000000  1
  O  O5  1  0.07418100  0.66262100  0.66026100  1
  O  O6  1  0.07418100  0.66262100  0.83973900  1
  O  O7  1  0.16195200  0.54518900  0.04836400  1
  O  O8  1  0.16195200  0.54518900  0.45163600  1
  O  O9  1  0.18647500  0.23743200  0.64675600  1
  O  O10  1  0.18647500  0.23743200  0.85324400  1
  O  O11  1  0.21518900  0.88672900  0.75000000  1
  O  O12  1  0.28481100  0.38672900  0.25000000  1
  O  O13  1  0.31352500  0.73743200  0.14675600  1
  O  O14  1  0.31352500  0.73743200  0.35324400  1
  O  O15  1  0.33804800  0.04518900  0.54836400  1
  O  O16  1  0.33804800  0.04518900  0.95163600  1
  O  O17  1  0.42581900  0.16262100  0.16026100  1
  O  O18  1  0.42581900  0.16262100  0.33973900  1
  O  O19  1  0.45562000  0.95525400  0.25000000  1
  O  O20  1  0.46173100  0.70309400  0.51246500  1
  O  O21  1  0.46173100  0.70309400  0.98753500  1
  O  O22  1  0.45815400  0.46781400  0.61298300  1
  O  O23  1  0.45815400  0.46781400  0.88701700  1
  O  O24  1  0.54184600  0.53218600  0.11298300  1
  O  O25  1  0.54184600  0.53218600  0.38701700  1
  O  O26  1  0.53826900  0.29690600  0.01246500  1
  O  O27  1  0.53826900  0.29690600  0.48753500  1
  O  O28  1  0.54438000  0.04474600  0.75000000  1
  O  O29  1  0.57418100  0.83737900  0.66026100  1
  O  O30  1  0.57418100  0.83737900  0.83973900  1
  O  O31  1  0.66195200  0.95481100  0.04836400  1
  O  O32  1  0.66195200  0.95481100  0.45163600  1
  O  O33  1  0.68647500  0.26256800  0.64675600  1
  O  O34  1  0.68647500  0.26256800  0.85324400  1
  O  O35  1  0.71518900  0.61327100  0.75000000  1
  O  O36  1  0.78481100  0.11327100  0.25000000  1
  O  O37  1  0.81352500  0.76256800  0.14675600  1
  O  O38  1  0.81352500  0.76256800  0.35324400  1
  O  O39  1  0.83804800  0.45481100  0.54836400  1
  O  O40  1  0.83804800  0.45481100  0.95163600  1
  O  O41  1  0.92581900  0.33737900  0.16026100  1
  O  O42  1  0.92581900  0.33737900  0.33973900  1
  O  O43  1  0.95562000  0.54474600  0.25000000  1
  O  O44  1  0.96173100  0.79690600  0.51246500  1
  O  O45  1  0.96173100  0.79690600  0.98753500  1
  O  O46  1  0.95815400  0.03218600  0.61298300  1
  O  O47  1  0.95815400  0.03218600  0.88701700  1
loop_
_geom_bond_atom_site_label_1
_geom_bond_atom_site_label_2
_geom_bond_distance
_geom_bond_site_symmetry_2
Li0 O43 1.977250 1_455
Li0 O13 2.121097 1_555
Li0 O14 2.121097 1_555
Li0 O38 2.143404 1_455
Li0 O37 2.143404 1_455
Li1 O28 1.977250 1_555
Li1 O10 2.121097 1_555
Li1 O9 2.121097 1_555
Li1 O33 2.143404 1_555
Li1 O34 2.143404 1_555
Li2 O19 1.977250 1_555
Li2 O38 2.121097 1_555
Li2 O37 2.121097 1_555
Li2 O14 2.143404 1_555
Li2 O13 2.143404 1_555
Li3 O4 1.977250 1_655
Li3 O33 2.121097 1_555
Li3 O34 2.121097 1_555
Li3 O9 2.143404 1_655
Li3 O10 2.143404 1_655
Cu0 O44 1.901805 1_455
Cu0 O5 1.951943 1_555
Cu0 O11 1.978175 1_555
Cu0 O46 1.987850 1_465
Cu1 O45 1.901805 1_455
Cu1 O6 1.951943 1_555
Cu1 O11 1.978175 1_555
Cu1 O47 1.987850 1_465
Cu2 O39 1.936705 1_455
Cu2 O22 1.941050 1_555
Cu2 O8 2.207917 1_555
Cu2 O9 2.278354 1_555
Cu2 O4 2.443230 1_555
Cu2 O5 2.548205 1_555
Cu3 O40 1.936705 1_455
Cu3 O23 1.941050 1_555
Cu3 O7 2.207917 1_556
Cu3 O10 2.278354 1_555
Cu3 O4 2.443230 1_555
Cu3 O6 2.548205 1_555
Cu4 O31 1.936705 1_555
Cu4 O0 1.941050 1_555
Cu4 O16 2.207917 1_564
Cu4 O13 2.278354 1_555
Cu4 O19 2.443230 1_555
Cu4 O17 2.548205 1_565
Cu5 O32 1.936705 1_555
Cu5 O1 1.941050 1_555
Cu5 O15 2.207917 1_565
Cu5 O14 2.278354 1_555
Cu5 O19 2.443230 1_555
Cu5 O18 2.548205 1_565
Cu6 O26 1.901805 1_555
Cu6 O17 1.951943 1_555
Cu6 O12 1.978175 1_555
Cu6 O24 1.987850 1_555
Cu7 O27 1.901805 1_555
Cu7 O18 1.951943 1_555
Cu7 O12 1.978175 1_555
Cu7 O25 1.987850 1_555
Cu8 O20 1.901805 1_555
Cu8 O29 1.951943 1_555
Cu8 O35 1.978175 1_555
Cu8 O22 1.987850 1_555
Cu9 O21 1.901805 1_555
Cu9 O30 1.951943 1_555
Cu9 O35 1.978175 1_555
Cu9 O23 1.987850 1_555
Cu10 O15 1.936705 1_555
Cu10 O46 1.941050 1_555
Cu10 O32 2.207917 1_545
Cu10 O33 2.278354 1_555
Cu10 O28 2.443230 1_555
Cu10 O29 2.548205 1_545
Cu11 O16 1.936705 1_555
Cu11 O47 1.941050 1_555
Cu11 O31 2.207917 1_546
Cu11 O34 2.278354 1_555
Cu11 O28 2.443230 1_555
Cu11 O30 2.548205 1_545
Cu12 O7 1.936705 1_655
Cu12 O24 1.941050 1_555
Cu12 O40 2.207917 1_554
Cu12 O37 2.278354 1_555
Cu12 O43 2.443230 1_555
Cu12 O41 2.548205 1_555
Cu13 O8 1.936705 1_655
Cu13 O25 1.941050 1_555
Cu13 O39 2.207917 1_555
Cu13 O38 2.278354 1_555
Cu13 O43 2.443230 1_555
Cu13 O42 2.548205 1_555
Cu14 O2 1.901805 1_655
Cu14 O41 1.951943 1_555
Cu14 O36 1.978175 1_555
Cu14 O0 1.987850 1_645
Cu15 O3 1.901805 1_655
Cu15 O42 1.951943 1_555
Cu15 O36 1.978175 1_555
Cu15 O1 1.987850 1_645
O0 P9 1.597119 1_455
O1 P10 1.597119 1_455
O2 P2 1.531348 1_554
O3 P1 1.531348 1_555
O4 P11 1.529793 1_455
O5 P11 1.551593 1_455
O6 P11 1.551593 1_455
O7 P3 1.565313 1_555
O8 P4 1.565313 1_555
O9 P1 1.536640 1_555
O10 P2 1.536640 1_555
O11 P5 1.601189 1_555
O12 P0 1.601189 1_555
O13 P3 1.536640 1_555
O14 P4 1.536640 1_555
O15 P1 1.565313 1_555
O16 P2 1.565313 1_555
O17 P6 1.551593 1_555
O18 P6 1.551593 1_555
O19 P6 1.529793 1_565
O20 P4 1.531348 1_555
O21 P3 1.531348 1_556
O22 P7 1.597119 1_555
O23 P8 1.597119 1_555
O24 P3 1.597119 1_555
O25 P4 1.597119 1_555
O26 P8 1.531348 1_554
O27 P7 1.531348 1_555
O28 P5 1.529793 1_545
O29 P5 1.551593 1_555
O30 P5 1.551593 1_555
O31 P9 1.565313 1_555
O32 P10 1.565313 1_555
O33 P7 1.536640 1_555
O34 P8 1.536640 1_555
O35 P11 1.601189 1_555
O36 P6 1.601189 1_555
O37 P9 1.536640 1_555
O38 P10 1.536640 1_555
O39 P7 1.565313 1_555
O40 P8 1.565313 1_555
O41 P0 1.551593 1_655
O42 P0 1.551593 1_655
O43 P0 1.529793 1_655
O44 P10 1.531348 1_555
O45 P9 1.531348 1_556
O46 P1 1.597119 1_655
O47 P2 1.597119 1_655
