# generated using pymatgen
data_Cs2LiCr(CN)6
_symmetry_space_group_name_H-M   'P 1'
_cell_length_a   7.66881600
_cell_length_b   7.66881600
_cell_length_c   10.87448500
_cell_angle_alpha   90.00000000
_cell_angle_beta   90.00000000
_cell_angle_gamma   90.00000000
_symmetry_Int_Tables_number   1
_chemical_formula_structural   Cs2LiCr(CN)6
_chemical_formula_sum   'Cs4 Li2 Cr2 C12 N12'
_cell_volume   639.53649737
_cell_formula_units_Z   2
loop_
 _symmetry_equiv_pos_site_id
 _symmetry_equiv_pos_as_xyz
  1  'x, y, z'
loop_
 _atom_site_type_symbol
 _atom_site_label
 _atom_site_symmetry_multiplicity
 _atom_site_fract_x
 _atom_site_fract_y
 _atom_site_fract_z
 _atom_site_occupancy
  Cs  Cs0  1  0.50000000  0.00000000  0.25000000  1
  Cs  Cs1  1  0.00000000  0.50000000  0.25000000  1
  Cs  Cs2  1  0.50000000  0.00000000  0.75000000  1
  Cs  Cs3  1  0.00000000  0.50000000  0.75000000  1
  Li  Li0  1  0.00000000  0.00000000  0.50000000  1
  Li  Li1  1  0.50000000  0.50000000  0.00000000  1
  Cr  Cr0  1  0.00000000  0.00000000  0.00000000  1
  Cr  Cr1  1  0.50000000  0.50000000  0.50000000  1
  C  C0  1  0.83672500  0.79012000  0.00000000  1
  C  C1  1  0.00000000  0.00000000  0.81241700  1
  C  C2  1  0.66327500  0.29012000  0.50000000  1
  C  C3  1  0.00000000  0.00000000  0.18758300  1
  C  C4  1  0.33672500  0.70988000  0.50000000  1
  C  C5  1  0.79012000  0.16327500  0.00000000  1
  C  C6  1  0.50000000  0.50000000  0.31241700  1
  C  C7  1  0.50000000  0.50000000  0.68758300  1
  C  C8  1  0.16327500  0.20988000  0.00000000  1
  C  C9  1  0.70988000  0.66327500  0.50000000  1
  C  C10  1  0.29012000  0.33672500  0.50000000  1
  C  C11  1  0.20988000  0.83672500  0.00000000  1
  N  N0  1  0.24253700  0.83093100  0.50000000  1
  N  N1  1  0.00000000  0.00000000  0.70430200  1
  N  N2  1  0.16906900  0.24253700  0.50000000  1
  N  N3  1  0.50000000  0.50000000  0.20430200  1
  N  N4  1  0.75746300  0.16906900  0.50000000  1
  N  N5  1  0.33093100  0.74253700  0.00000000  1
  N  N6  1  0.74253700  0.66906900  0.00000000  1
  N  N7  1  0.66906900  0.25746300  0.00000000  1
  N  N8  1  0.50000000  0.50000000  0.79569800  1
  N  N9  1  0.83093100  0.75746300  0.50000000  1
  N  N10  1  0.00000000  0.00000000  0.29569800  1
  N  N11  1  0.25746300  0.33093100  0.00000000  1
loop_
_geom_bond_atom_site_label_1
_geom_bond_atom_site_label_2
_geom_bond_distance
_geom_bond_site_symmetry_2
Cs0 N4 3.601439 1_555
Cs0 N0 3.601439 1_545
Cs0 N7 3.601439 1_555
Cs0 N5 3.601439 1_545
Cs1 N2 3.601439 1_555
Cs1 N11 3.601439 1_555
Cs1 N6 3.601439 1_455
Cs1 N9 3.601439 1_455
Cs2 N4 3.601439 1_555
Cs2 N0 3.601439 1_545
Cs2 N5 3.601439 1_546
Cs2 N7 3.601439 1_556
Cs3 N2 3.601439 1_555
Cs3 N9 3.601439 1_455
Cs3 N6 3.601439 1_456
Cs3 N11 3.601439 1_556
Li0 N1 2.221679 1_555
Li0 N10 2.221679 1_555
Li0 N4 2.267280 1_455
Li0 N2 2.267280 1_555
Li0 N0 2.267280 1_545
Li0 N9 2.267280 1_445
Li1 N8 2.221679 1_554
Li1 N3 2.221679 1_555
Li1 N5 2.267280 1_555
Li1 N6 2.267280 1_555
Li1 N11 2.267280 1_555
Li1 N7 2.267280 1_555
C0 N6 1.176225 1_555
C0 Cr0 2.039218 1_665
C1 N1 1.175695 1_555
C1 Cr0 2.039869 1_556
C2 N4 1.176225 1_555
C2 Cr1 2.039218 1_555
C3 N10 1.175695 1_555
C3 Cr0 2.039869 1_555
C4 N0 1.176225 1_555
C4 Cr1 2.039218 1_555
C5 N7 1.176225 1_555
C5 Cr0 2.039218 1_655
C6 N3 1.175695 1_555
C6 Cr1 2.039869 1_555
C7 N8 1.175695 1_555
C7 Cr1 2.039869 1_555
C8 N11 1.176225 1_555
C8 Cr0 2.039218 1_555
C9 N9 1.176225 1_555
C9 Cr1 2.039218 1_555
C10 N2 1.176225 1_555
C10 Cr1 2.039218 1_555
C11 N5 1.176225 1_555
C11 Cr0 2.039218 1_565
