# generated using pymatgen
data_U2PdS4
_symmetry_space_group_name_H-M   'P 1'
_cell_length_a   8.51616139
_cell_length_b   7.82588020
_cell_length_c   6.81877756
_cell_angle_alpha   70.73373500
_cell_angle_beta   60.16704123
_cell_angle_gamma   49.09922377
_symmetry_Int_Tables_number   1
_chemical_formula_structural   U2PdS4
_chemical_formula_sum   'U4 Pd2 S8'
_cell_volume   297.96567096
_cell_formula_units_Z   2
loop_
 _symmetry_equiv_pos_site_id
 _symmetry_equiv_pos_as_xyz
  1  'x, y, z'
loop_
 _atom_site_type_symbol
 _atom_site_label
 _atom_site_symmetry_multiplicity
 _atom_site_fract_x
 _atom_site_fract_y
 _atom_site_fract_z
 _atom_site_occupancy
  U  U0  1  0.41753156  0.53199106  0.17751262  1
  U  U1  1  0.87296476  0.17751262  0.53199106  1
  U  U2  1  0.07248738  0.37703524  0.83246844  1
  U  U3  1  0.71800894  0.83246844  0.37703524  1
  Pd  Pd0  1  0.24968329  0.25031671  0.25031671  1
  Pd  Pd1  1  -0.00031671  0.00031671  0.00031671  1
  S  S0  1  0.70048078  0.55275366  0.23872711  1
  S  S1  1  0.50803845  0.23872711  0.55275366  1
  S  S2  1  0.01127289  0.74196155  0.54951922  1
  S  S3  1  0.69724634  0.54951922  0.74196155  1
  S  S4  1  0.13466282  0.58921282  0.02708602  1
  S  S5  1  0.24903834  0.02708602  0.58921282  1
  S  S6  1  0.66078718  0.11533718  0.00096166  1
  S  S7  1  0.22291398  0.00096166  0.11533718  1
loop_
_geom_bond_atom_site_label_1
_geom_bond_atom_site_label_2
_geom_bond_distance
_geom_bond_site_symmetry_2
Pd0 S5 2.393295 1_555
Pd0 S4 2.393295 1_555
Pd0 S7 2.585292 1_555
Pd0 S6 2.585292 1_555
Pd1 S6 2.393295 1_455
Pd1 S7 2.393295 1_555
Pd1 S4 2.585292 1_545
Pd1 S5 2.585292 1_554
S0 U0 2.750489 1_555
S0 U3 2.762935 1_555
S0 U2 2.771067 1_654
S0 U1 2.859844 1_555
S1 U1 2.750489 1_555
S1 U2 2.762935 1_555
S1 U3 2.771067 1_545
S1 U0 2.859844 1_555
S2 U2 2.750489 1_555
S2 U1 2.762935 1_465
S2 U0 2.771067 1_555
S2 U3 2.859844 1_455
S3 U3 2.750489 1_555
S3 U0 2.762935 1_556
S3 U1 2.771067 1_555
S3 U2 2.859844 1_655
S4 U3 2.763426 1_455
S4 U0 2.792562 1_555
S4 U2 2.846617 1_554
S5 U2 2.763426 1_555
S5 U1 2.792562 1_455
S5 U3 2.846617 1_545
S6 U0 2.763426 1_555
S6 U3 2.792562 1_545
S6 U1 2.846617 1_554
S7 U1 2.763426 1_455
S7 U2 2.792562 1_554
S7 U0 2.846617 1_545
