# generated using pymatgen
data_Ca2InN
_symmetry_space_group_name_H-M   'P 1'
_cell_length_a   7.00524234
_cell_length_b   9.94903698
_cell_length_c   20.59360124
_cell_angle_alpha   90.00000000
_cell_angle_beta   99.79264979
_cell_angle_gamma   90.00000000
_symmetry_Int_Tables_number   1
_chemical_formula_structural   Ca2InN
_chemical_formula_sum   'Ca32 In16 N16'
_cell_volume   1414.36717008
_cell_formula_units_Z   16
loop_
 _symmetry_equiv_pos_site_id
 _symmetry_equiv_pos_as_xyz
  1  'x, y, z'
loop_
 _atom_site_type_symbol
 _atom_site_label
 _atom_site_symmetry_multiplicity
 _atom_site_fract_x
 _atom_site_fract_y
 _atom_site_fract_z
 _atom_site_occupancy
  Ca  Ca0_0  1  0.39057781  0.12500000  0.28115564  1
  Ca  Ca0_1  1  0.39057781  0.12500000  0.78115564  1
  Ca  Ca0_2  1  0.39057781  0.62500000  0.28115564  1
  Ca  Ca0_3  1  0.39057781  0.62500000  0.78115564  1
  Ca  Ca0_4  1  0.89057782  0.12500000  0.28115564  1
  Ca  Ca0_5  1  0.89057781  0.12500000  0.78115564  1
  Ca  Ca0_6  1  0.89057782  0.62500000  0.28115564  1
  Ca  Ca0_7  1  0.89057781  0.62500000  0.78115564  1
  Ca  Ca1_0  1  0.10942219  0.37500000  0.21884437  1
  Ca  Ca1_1  1  0.10942219  0.37500000  0.71884437  1
  Ca  Ca1_2  1  0.10942219  0.87500000  0.21884437  1
  Ca  Ca1_3  1  0.10942219  0.87500000  0.71884437  1
  Ca  Ca1_4  1  0.60942219  0.37500000  0.21884437  1
  Ca  Ca1_5  1  0.60942219  0.37500000  0.71884437  1
  Ca  Ca1_6  1  0.60942219  0.87500000  0.21884437  1
  Ca  Ca1_7  1  0.60942219  0.87500000  0.71884437  1
  Ca  Ca2_0  1  0.31054734  0.12500000  0.12109519  1
  Ca  Ca2_1  1  0.31054734  0.12500000  0.62109519  1
  Ca  Ca2_2  1  0.31054734  0.62500000  0.12109519  1
  Ca  Ca2_3  1  0.31054734  0.62500000  0.62109519  1
  Ca  Ca2_4  1  0.81054734  0.12500000  0.12109519  1
  Ca  Ca2_5  1  0.81054734  0.12500000  0.62109519  1
  Ca  Ca2_6  1  0.81054734  0.62500000  0.12109519  1
  Ca  Ca2_7  1  0.81054734  0.62500000  0.62109519  1
  Ca  Ca3_0  1  0.18945266  0.37500000  0.37890482  1
  Ca  Ca3_1  1  0.18945266  0.37500000  0.87890482  1
  Ca  Ca3_2  1  0.18945266  0.87500000  0.37890482  1
  Ca  Ca3_3  1  0.18945266  0.87500000  0.87890482  1
  Ca  Ca3_4  1  0.68945266  0.37500000  0.37890482  1
  Ca  Ca3_5  1  0.68945266  0.37500000  0.87890482  1
  Ca  Ca3_6  1  0.68945266  0.87500000  0.37890482  1
  Ca  Ca3_7  1  0.68945266  0.87500000  0.87890482  1
  In  In0_0  1  0.48088194  0.12500000  0.46176289  1
  In  In0_1  1  0.48088194  0.12500000  0.96176289  1
  In  In0_2  1  0.48088194  0.62500000  0.46176289  1
  In  In0_3  1  0.48088194  0.62500000  0.96176289  1
  In  In0_4  1  0.98088194  0.12500000  0.46176289  1
  In  In0_5  1  0.98088194  0.12500000  0.96176289  1
  In  In0_6  1  0.98088194  0.62500000  0.46176289  1
  In  In0_7  1  0.98088194  0.62500000  0.96176289  1
  In  In1_0  1  0.01911806  0.37500000  0.03823712  1
  In  In1_1  1  0.01911806  0.37500000  0.53823712  1
  In  In1_2  1  0.01911806  0.87500000  0.03823712  1
  In  In1_3  1  0.01911806  0.87500000  0.53823712  1
  In  In1_4  1  0.51911806  0.37500000  0.03823712  1
  In  In1_5  1  0.51911806  0.37500000  0.53823712  1
  In  In1_6  1  0.51911806  0.87500000  0.03823712  1
  In  In1_7  1  0.51911806  0.87500000  0.53823712  1
  N  N0_0  1  0.09963486  0.12500000  0.19926972  1
  N  N0_1  1  0.09963486  0.12500000  0.69926972  1
  N  N0_2  1  0.09963486  0.62500000  0.19926972  1
  N  N0_3  1  0.09963486  0.62500000  0.69926972  1
  N  N0_4  1  0.59963486  0.12500000  0.19926972  1
  N  N0_5  1  0.59963486  0.12500000  0.69926972  1
  N  N0_6  1  0.59963486  0.62500000  0.19926972  1
  N  N0_7  1  0.59963486  0.62500000  0.69926972  1
  N  N1_0  1  0.40036514  0.37500000  0.30073029  1
  N  N1_1  1  0.40036514  0.37500000  0.80073029  1
  N  N1_2  1  0.40036514  0.87500000  0.30073029  1
  N  N1_3  1  0.40036514  0.87500000  0.80073029  1
  N  N1_4  1  0.90036514  0.37500000  0.30073029  1
  N  N1_5  1  0.90036514  0.37500000  0.80073029  1
  N  N1_6  1  0.90036514  0.87500000  0.30073029  1
  N  N1_7  1  0.90036514  0.87500000  0.80073029  1
loop_
_geom_bond_atom_site_label_1
_geom_bond_atom_site_label_2
_geom_bond_distance
_geom_bond_site_symmetry_2
Ca0_0 N0_0 2.414233 1_555
Ca0_0 N0_4 2.414233 1_555
Ca0_0 N1_0 2.518781 1_555
Ca0_0 N1_2 2.518781 1_545
Ca0_0 In0_0 3.665162 1_555
Ca0_1 N0_1 2.414233 1_555
Ca0_1 N0_5 2.414233 1_555
Ca0_1 N1_1 2.518781 1_555
Ca0_1 N1_3 2.518781 1_545
Ca0_1 In0_1 3.665162 1_555
Ca0_2 N0_2 2.414233 1_555
Ca0_2 N0_6 2.414233 1_555
Ca0_2 N1_2 2.518781 1_555
Ca0_2 N1_0 2.518781 1_555
Ca0_2 In0_2 3.665162 1_555
Ca0_3 N0_3 2.414233 1_555
Ca0_3 N0_7 2.414233 1_555
Ca0_3 N1_1 2.518781 1_555
Ca0_3 N1_3 2.518781 1_555
Ca0_3 In0_3 3.665162 1_555
Ca0_4 N0_4 2.414233 1_555
Ca0_4 N0_0 2.414233 1_655
Ca0_4 N1_4 2.518781 1_555
Ca0_4 N1_6 2.518781 1_545
Ca0_4 In0_4 3.665162 1_555
Ca0_5 N0_5 2.414233 1_555
Ca0_5 N0_1 2.414233 1_655
Ca0_5 N1_5 2.518781 1_555
Ca0_5 N1_7 2.518781 1_545
Ca0_5 In0_5 3.665162 1_555
Ca0_6 N0_6 2.414233 1_555
Ca0_6 N0_2 2.414233 1_655
Ca0_6 N1_6 2.518781 1_555
Ca0_6 N1_4 2.518781 1_555
Ca0_6 In0_6 3.665162 1_555
Ca0_7 N0_7 2.414233 1_555
Ca0_7 N0_3 2.414233 1_655
Ca0_7 N1_7 2.518781 1_555
Ca0_7 N1_5 2.518781 1_555
Ca0_7 In0_7 3.665162 1_555
Ca1_0 N1_0 2.414233 1_555
Ca1_0 N1_4 2.414233 1_455
Ca1_0 N0_0 2.518781 1_555
Ca1_0 N0_2 2.518781 1_555
Ca1_0 In1_0 3.665162 1_555
Ca1_1 N1_1 2.414233 1_555
Ca1_1 N1_5 2.414233 1_455
Ca1_1 N0_1 2.518781 1_555
Ca1_1 N0_3 2.518781 1_555
Ca1_1 In1_1 3.665162 1_555
Ca1_2 N1_2 2.414233 1_555
Ca1_2 N1_6 2.414233 1_455
Ca1_2 N0_2 2.518781 1_555
Ca1_2 N0_0 2.518781 1_565
Ca1_2 In1_2 3.665162 1_555
Ca1_3 N1_3 2.414233 1_555
Ca1_3 N1_7 2.414233 1_455
Ca1_3 N0_3 2.518781 1_555
Ca1_3 N0_1 2.518781 1_565
Ca1_3 In1_3 3.665162 1_555
Ca1_4 N1_4 2.414233 1_555
Ca1_4 N1_0 2.414233 1_555
Ca1_4 N0_4 2.518781 1_555
Ca1_4 N0_6 2.518781 1_555
Ca1_4 In1_4 3.665162 1_555
Ca1_5 N1_5 2.414233 1_555
Ca1_5 N1_1 2.414233 1_555
Ca1_5 N0_5 2.518781 1_555
Ca1_5 N0_7 2.518781 1_555
Ca1_5 In1_5 3.665162 1_555
Ca1_6 N1_6 2.414233 1_555
Ca1_6 N1_2 2.414233 1_555
Ca1_6 N0_6 2.518781 1_555
Ca1_6 N0_4 2.518781 1_565
Ca1_6 In1_6 3.665162 1_555
Ca1_7 N1_7 2.414233 1_555
Ca1_7 N1_3 2.414233 1_555
Ca1_7 N0_7 2.518781 1_555
Ca1_7 N0_5 2.518781 1_565
Ca1_7 In1_7 3.665162 1_555
Ca2_0 N0_0 2.363021 1_555
Ca2_0 N0_4 2.363024 1_555
Ca2_0 In1_4 3.475763 1_555
Ca2_0 In1_6 3.475763 1_545
Ca2_0 In1_2 3.475765 1_545
Ca2_0 In1_0 3.475765 1_555
Ca2_0 In0_5 3.677235 1_454
Ca2_0 In0_1 3.677240 1_554
Ca2_1 N0_1 2.363021 1_555
Ca2_1 N0_5 2.363024 1_555
Ca2_1 In1_5 3.475763 1_555
Ca2_1 In1_7 3.475763 1_545
Ca2_1 In1_1 3.475765 1_555
Ca2_1 In1_3 3.475765 1_545
Ca2_1 In0_4 3.677235 1_455
Ca2_1 In0_0 3.677240 1_555
Ca2_2 N0_2 2.363021 1_555
Ca2_2 N0_6 2.363024 1_555
Ca2_2 In1_6 3.475763 1_555
Ca2_2 In1_4 3.475763 1_555
Ca2_2 In1_2 3.475765 1_555
Ca2_2 In1_0 3.475765 1_555
Ca2_2 In0_7 3.677235 1_454
Ca2_2 In0_3 3.677240 1_554
Ca2_3 N0_3 2.363021 1_555
Ca2_3 N0_7 2.363024 1_555
Ca2_3 In1_7 3.475763 1_555
Ca2_3 In1_5 3.475763 1_555
Ca2_3 In1_3 3.475765 1_555
Ca2_3 In1_1 3.475765 1_555
Ca2_3 In0_6 3.677235 1_455
Ca2_3 In0_2 3.677240 1_555
Ca2_4 N0_4 2.363021 1_555
Ca2_4 N0_0 2.363024 1_655
Ca2_4 In1_0 3.475763 1_655
Ca2_4 In1_2 3.475763 1_645
Ca2_4 In1_6 3.475765 1_545
Ca2_4 In1_4 3.475765 1_555
Ca2_4 In0_1 3.677235 1_554
Ca2_4 In0_5 3.677240 1_554
Ca2_5 N0_5 2.363021 1_555
Ca2_5 N0_1 2.363024 1_655
Ca2_5 In1_1 3.475763 1_655
Ca2_5 In1_3 3.475763 1_645
Ca2_5 In1_7 3.475765 1_545
Ca2_5 In1_5 3.475765 1_555
Ca2_5 In0_0 3.677235 1_555
Ca2_5 In0_4 3.677240 1_555
Ca2_6 N0_6 2.363021 1_555
Ca2_6 N0_2 2.363024 1_655
Ca2_6 In1_2 3.475763 1_655
Ca2_6 In1_0 3.475763 1_655
Ca2_6 In1_6 3.475765 1_555
Ca2_6 In1_4 3.475765 1_555
Ca2_6 In0_3 3.677235 1_554
Ca2_6 In0_7 3.677240 1_554
Ca2_7 N0_7 2.363021 1_555
Ca2_7 N0_3 2.363024 1_655
Ca2_7 In1_1 3.475763 1_655
Ca2_7 In1_3 3.475763 1_655
Ca2_7 In1_7 3.475765 1_555
Ca2_7 In1_5 3.475765 1_555
Ca2_7 In0_2 3.677235 1_555
Ca2_7 In0_6 3.677240 1_555
Ca3_0 N1_0 2.363021 1_555
Ca3_0 N1_4 2.363024 1_455
Ca3_0 In0_4 3.475763 1_455
Ca3_0 In0_6 3.475763 1_455
Ca3_0 In0_0 3.475765 1_555
Ca3_0 In0_2 3.475765 1_555
Ca3_0 In1_5 3.677235 1_555
Ca3_0 In1_1 3.677240 1_555
Ca3_1 N1_1 2.363021 1_555
Ca3_1 N1_5 2.363024 1_455
Ca3_1 In0_5 3.475763 1_455
Ca3_1 In0_7 3.475763 1_455
Ca3_1 In0_1 3.475765 1_555
Ca3_1 In0_3 3.475765 1_555
Ca3_1 In1_4 3.677235 1_556
Ca3_1 In1_0 3.677240 1_556
Ca3_2 N1_2 2.363021 1_555
Ca3_2 N1_6 2.363024 1_455
Ca3_2 In0_4 3.475763 1_465
Ca3_2 In0_6 3.475763 1_455
Ca3_2 In0_0 3.475765 1_565
Ca3_2 In0_2 3.475765 1_555
Ca3_2 In1_7 3.677235 1_555
Ca3_2 In1_3 3.677240 1_555
Ca3_3 N1_3 2.363021 1_555
Ca3_3 N1_7 2.363024 1_455
Ca3_3 In0_5 3.475763 1_465
Ca3_3 In0_7 3.475763 1_455
Ca3_3 In0_1 3.475765 1_565
Ca3_3 In0_3 3.475765 1_555
Ca3_3 In1_6 3.677235 1_556
Ca3_3 In1_2 3.677240 1_556
Ca3_4 N1_4 2.363021 1_555
Ca3_4 N1_0 2.363024 1_555
Ca3_4 In0_0 3.475763 1_555
Ca3_4 In0_2 3.475763 1_555
Ca3_4 In0_4 3.475765 1_555
Ca3_4 In0_6 3.475765 1_555
Ca3_4 In1_1 3.677235 1_655
Ca3_4 In1_5 3.677240 1_555
Ca3_5 N1_5 2.363021 1_555
Ca3_5 N1_1 2.363024 1_555
Ca3_5 In0_1 3.475763 1_555
Ca3_5 In0_3 3.475763 1_555
Ca3_5 In0_5 3.475765 1_555
Ca3_5 In0_7 3.475765 1_555
Ca3_5 In1_0 3.677235 1_656
Ca3_5 In1_4 3.677240 1_556
Ca3_6 N1_6 2.363021 1_555
Ca3_6 N1_2 2.363024 1_555
Ca3_6 In0_0 3.475763 1_565
Ca3_6 In0_2 3.475763 1_555
Ca3_6 In0_6 3.475765 1_555
Ca3_6 In0_4 3.475765 1_565
Ca3_6 In1_3 3.677235 1_655
Ca3_6 In1_7 3.677240 1_555
Ca3_7 N1_7 2.363021 1_555
Ca3_7 N1_3 2.363024 1_555
Ca3_7 In0_1 3.475763 1_565
Ca3_7 In0_3 3.475763 1_555
Ca3_7 In0_5 3.475765 1_565
Ca3_7 In0_7 3.475765 1_555
Ca3_7 In1_2 3.677235 1_656
Ca3_7 In1_6 3.677240 1_556
In0_0 In1_7 2.931715 1_545
In0_0 In1_5 2.931715 1_555
In0_0 In0_4 3.502621 1_555
In0_0 In0_4 3.502621 1_455
In0_1 In1_4 2.931715 1_556
In0_1 In1_6 2.931715 1_546
In0_1 In0_5 3.502621 1_455
In0_1 In0_5 3.502621 1_555
In0_2 In1_7 2.931715 1_555
In0_2 In1_5 2.931715 1_555
In0_2 In0_6 3.502621 1_555
In0_2 In0_6 3.502621 1_455
In0_3 In1_6 2.931715 1_556
In0_3 In1_4 2.931715 1_556
In0_3 In0_7 3.502621 1_455
In0_3 In0_7 3.502621 1_555
In0_4 In1_1 2.931715 1_655
In0_4 In1_3 2.931715 1_645
In0_5 In1_0 2.931715 1_656
In0_5 In1_2 2.931715 1_646
In0_6 In1_3 2.931715 1_655
In0_6 In1_1 2.931715 1_655
In0_7 In1_2 2.931715 1_656
In0_7 In1_0 2.931715 1_656
In1_0 In1_4 3.502621 1_455
In1_0 In1_4 3.502621 1_555
In1_1 In1_5 3.502621 1_455
In1_1 In1_5 3.502621 1_555
In1_2 In1_6 3.502621 1_455
In1_2 In1_6 3.502621 1_555
In1_3 In1_7 3.502621 1_455
In1_3 In1_7 3.502621 1_555
