# generated using pymatgen
data_K3V3(AsO7)2
_symmetry_space_group_name_H-M   'P 1'
_cell_length_a   7.95635800
_cell_length_b   10.34250300
_cell_length_c   16.67131800
_cell_angle_alpha   90.00000000
_cell_angle_beta   90.00000000
_cell_angle_gamma   90.00000000
_symmetry_Int_Tables_number   1
_chemical_formula_structural   K3V3(AsO7)2
_chemical_formula_sum   'K12 V12 As8 O56'
_cell_volume   1371.86036004
_cell_formula_units_Z   4
loop_
 _symmetry_equiv_pos_site_id
 _symmetry_equiv_pos_as_xyz
  1  'x, y, z'
loop_
 _atom_site_type_symbol
 _atom_site_label
 _atom_site_symmetry_multiplicity
 _atom_site_fract_x
 _atom_site_fract_y
 _atom_site_fract_z
 _atom_site_occupancy
  K  K0  1  0.41894900  0.03890900  0.38981400  1
  K  K1  1  0.45861300  0.34832700  0.75000000  1
  K  K2  1  0.58105100  0.96109100  0.61018600  1
  K  K3  1  0.95861300  0.15167300  0.75000000  1
  K  K4  1  0.41894900  0.03890900  0.11018600  1
  K  K5  1  0.54138700  0.65167300  0.25000000  1
  K  K6  1  0.58105100  0.96109100  0.88981400  1
  K  K7  1  0.91894900  0.46109100  0.11018600  1
  K  K8  1  0.08105100  0.53890900  0.88981400  1
  K  K9  1  0.08105100  0.53890900  0.61018600  1
  K  K10  1  0.91894900  0.46109100  0.38981400  1
  K  K11  1  0.04138700  0.84832700  0.25000000  1
  V  V0  1  0.79828300  0.78389200  0.44253000  1
  V  V1  1  0.73967500  0.72735700  0.75000000  1
  V  V2  1  0.20171700  0.21610800  0.94253000  1
  V  V3  1  0.29828300  0.71610800  0.05747000  1
  V  V4  1  0.76032500  0.22735700  0.25000000  1
  V  V5  1  0.70171700  0.28389200  0.94253000  1
  V  V6  1  0.23967500  0.77264300  0.75000000  1
  V  V7  1  0.70171700  0.28389200  0.55747000  1
  V  V8  1  0.26032500  0.27264300  0.25000000  1
  V  V9  1  0.20171700  0.21610800  0.55747000  1
  V  V10  1  0.29828300  0.71610800  0.44253000  1
  V  V11  1  0.79828300  0.78389200  0.05747000  1
  As  As0  1  0.60913200  0.59584200  0.92526800  1
  As  As1  1  0.10913200  0.90415800  0.92526800  1
  As  As2  1  0.89086800  0.09584200  0.42526800  1
  As  As3  1  0.39086800  0.40415800  0.42526800  1
  As  As4  1  0.10913200  0.90415800  0.57473200  1
  As  As5  1  0.60913200  0.59584200  0.57473200  1
  As  As6  1  0.39086800  0.40415800  0.07473200  1
  As  As7  1  0.89086800  0.09584200  0.07473200  1
  O  O0  1  0.08680700  0.12235100  0.46375200  1
  O  O1  1  0.41319300  0.62235100  0.96375200  1
  O  O2  1  0.58680700  0.37764900  0.46375200  1
  O  O3  1  0.90196500  0.62649600  0.75000000  1
  O  O4  1  0.78048500  0.62691200  0.51423500  1
  O  O5  1  0.80858800  0.70327100  0.35570800  1
  O  O6  1  0.09803500  0.37350400  0.25000000  1
  O  O7  1  0.87914200  0.20431400  0.34539500  1
  O  O8  1  0.41319300  0.62235100  0.53624800  1
  O  O9  1  0.09744200  0.67546500  0.45605600  1
  O  O10  1  0.12085800  0.79568600  0.65460500  1
  O  O11  1  0.12085800  0.79568600  0.84539500  1
  O  O12  1  0.78048500  0.62691200  0.98576500  1
  O  O13  1  0.09744200  0.67546500  0.04394400  1
  O  O14  1  0.40196500  0.87350400  0.75000000  1
  O  O15  1  0.87914200  0.20431400  0.15460500  1
  O  O16  1  0.69848100  0.38105900  0.25000000  1
  O  O17  1  0.28048500  0.87308800  0.98576500  1
  O  O18  1  0.12471400  0.05544100  0.61679300  1
  O  O19  1  0.12471400  0.05544100  0.88320700  1
  O  O20  1  0.80858800  0.70327100  0.14429200  1
  O  O21  1  0.58680700  0.37764900  0.03624800  1
  O  O22  1  0.80151900  0.88105900  0.75000000  1
  O  O23  1  0.62471400  0.44455900  0.61679300  1
  O  O24  1  0.30151900  0.61894100  0.75000000  1
  O  O25  1  0.08680700  0.12235100  0.03624800  1
  O  O26  1  0.91319300  0.87764900  0.96375200  1
  O  O27  1  0.59744200  0.82453500  0.45605600  1
  O  O28  1  0.62471400  0.44455900  0.88320700  1
  O  O29  1  0.71951500  0.12691200  0.01423500  1
  O  O30  1  0.30858800  0.79672900  0.14429200  1
  O  O31  1  0.37914200  0.29568600  0.34539500  1
  O  O32  1  0.90255800  0.32453500  0.95605600  1
  O  O33  1  0.69141200  0.20327100  0.85570800  1
  O  O34  1  0.19848100  0.11894100  0.25000000  1
  O  O35  1  0.19141200  0.29672900  0.85570800  1
  O  O36  1  0.37528600  0.55544100  0.11679300  1
  O  O37  1  0.62085800  0.70431400  0.65460500  1
  O  O38  1  0.21951500  0.37308800  0.48576500  1
  O  O39  1  0.87528600  0.94455900  0.38320700  1
  O  O40  1  0.40255800  0.17546500  0.95605600  1
  O  O41  1  0.90255800  0.32453500  0.54394400  1
  O  O42  1  0.87528600  0.94455900  0.11679300  1
  O  O43  1  0.28048500  0.87308800  0.51423500  1
  O  O44  1  0.21951500  0.37308800  0.01423500  1
  O  O45  1  0.37528600  0.55544100  0.38320700  1
  O  O46  1  0.91319300  0.87764900  0.53624800  1
  O  O47  1  0.62085800  0.70431400  0.84539500  1
  O  O48  1  0.37914200  0.29568600  0.15460500  1
  O  O49  1  0.40255800  0.17546500  0.54394400  1
  O  O50  1  0.30858800  0.79672900  0.35570800  1
  O  O51  1  0.19141200  0.29672900  0.64429200  1
  O  O52  1  0.71951500  0.12691200  0.48576500  1
  O  O53  1  0.69141200  0.20327100  0.64429200  1
  O  O54  1  0.59803500  0.12649600  0.25000000  1
  O  O55  1  0.59744200  0.82453500  0.04394400  1
loop_
_geom_bond_atom_site_label_1
_geom_bond_atom_site_label_2
_geom_bond_distance
_geom_bond_site_symmetry_2
K0 O50 2.714418 1_545
K0 O31 2.775161 1_555
K0 O27 2.855210 1_545
K0 O54 2.878173 1_555
K0 O43 2.908174 1_545
K0 O49 2.935008 1_555
K0 O52 3.017627 1_555
K0 O34 3.032343 1_555
K0 O0 3.041008 1_555
K1 O28 2.769254 1_555
K1 O23 2.769254 1_555
K1 O35 2.812491 1_555
K1 O51 2.812491 1_555
K1 O33 2.964315 1_555
K1 O53 2.964315 1_555
K1 O24 3.065235 1_555
K2 O53 2.714418 1_565
K2 O37 2.775161 1_555
K2 O49 2.855210 1_565
K2 O14 2.878173 1_555
K2 O52 2.908174 1_565
K2 O27 2.935008 1_555
K2 O43 3.017627 1_555
K2 O22 3.032343 1_555
K2 O46 3.041008 1_555
K3 O19 2.769254 1_655
K3 O18 2.769254 1_655
K3 O33 2.812491 1_555
K3 O53 2.812491 1_555
K3 O35 2.964315 1_655
K3 O51 2.964315 1_655
K3 O22 3.065235 1_545
K4 O30 2.714418 1_545
K4 O48 2.775161 1_555
K4 O55 2.855210 1_545
K4 O54 2.878173 1_555
K4 O17 2.908174 1_544
K4 O40 2.935008 1_554
K4 O29 3.017627 1_555
K4 O34 3.032343 1_555
K4 O25 3.041008 1_555
K5 O45 2.769254 1_555
K5 O36 2.769254 1_555
K5 O5 2.812491 1_555
K5 O20 2.812491 1_555
K5 O50 2.964315 1_555
K5 O30 2.964315 1_555
K5 O16 3.065235 1_555
K6 O33 2.714418 1_565
K6 O47 2.775161 1_555
K6 O40 2.855210 1_565
K6 O14 2.878173 1_555
K6 O29 2.908174 1_566
K6 O55 2.935008 1_556
K6 O17 3.017627 1_555
K6 O22 3.032343 1_555
K6 O26 3.041008 1_555
K7 O20 2.714418 1_555
K7 O15 2.775161 1_555
K7 O13 2.855210 1_655
K7 O6 2.878173 1_655
K7 O12 2.908174 1_554
K7 O32 2.935008 1_554
K7 O44 3.017627 1_655
K7 O16 3.032343 1_555
K7 O21 3.041008 1_555
K8 O35 2.714418 1_555
K8 O11 2.775161 1_555
K8 O32 2.855210 1_455
K8 O3 2.878173 1_455
K8 O44 2.908174 1_556
K8 O13 2.935008 1_556
K8 O12 3.017627 1_455
K8 O24 3.032343 1_555
K8 O1 3.041008 1_555
K9 O51 2.714418 1_555
K9 O10 2.775161 1_555
K9 O41 2.855210 1_455
K9 O3 2.878173 1_455
K9 O38 2.908174 1_555
K9 O9 2.935008 1_555
K9 O4 3.017627 1_455
K9 O24 3.032343 1_555
K9 O8 3.041008 1_555
K10 O5 2.714418 1_555
K10 O7 2.775161 1_555
K10 O9 2.855210 1_655
K10 O6 2.878173 1_655
K10 O4 2.908174 1_555
K10 O41 2.935008 1_555
K10 O38 3.017627 1_655
K10 O16 3.032343 1_555
K10 O2 3.041008 1_555
K11 O39 2.769254 1_455
K11 O42 2.769254 1_455
K11 O50 2.812491 1_555
K11 O30 2.812491 1_555
K11 O5 2.964315 1_455
K11 O20 2.964315 1_455
K11 O34 3.065235 1_565
As0 O1 1.707967 1_555
As0 O28 1.719064 1_555
As0 O12 1.726029 1_555
As0 O47 1.743682 1_555
As1 O26 1.707967 1_455
As1 O19 1.719064 1_565
As1 O17 1.726029 1_555
As1 O11 1.743682 1_555
As2 O0 1.707967 1_655
As2 O39 1.719064 1_545
As2 O52 1.726029 1_555
As2 O7 1.743682 1_555
As3 O2 1.707967 1_555
As3 O45 1.719064 1_555
As3 O38 1.726029 1_555
As3 O31 1.743682 1_555
As4 O46 1.707967 1_455
As4 O18 1.719064 1_565
As4 O43 1.726029 1_555
As4 O10 1.743682 1_555
As5 O8 1.707967 1_555
As5 O23 1.719064 1_555
As5 O4 1.726029 1_555
As5 O37 1.743682 1_555
As6 O21 1.707967 1_555
As6 O36 1.719064 1_555
As6 O44 1.726029 1_555
As6 O48 1.743682 1_555
As7 O25 1.707967 1_655
As7 O42 1.719064 1_545
As7 O29 1.726029 1_555
As7 O15 1.743682 1_555
O0 V9 2.053598 1_555
O1 V3 2.053598 1_556
O2 V7 2.053598 1_555
O3 V1 1.659960 1_555
O4 V0 2.021148 1_555
O5 V0 1.672441 1_555
O6 V8 1.659960 1_555
O7 V4 1.865404 1_555
O8 V10 2.053598 1_555
O9 V10 1.667642 1_555
O10 V6 1.865404 1_555
O11 V6 1.865404 1_555
O12 V11 2.021148 1_556
O13 V3 1.667642 1_555
O14 V6 1.659960 1_555
O15 V4 1.865404 1_555
O16 V4 1.664075 1_555
O17 V3 2.021148 1_556
O18 V9 2.028474 1_555
O19 V2 2.028474 1_555
O20 V11 1.672441 1_555
O21 V5 2.053598 1_554
O22 V1 1.664075 1_555
O23 V7 2.028474 1_555
O24 V6 1.664075 1_555
O25 V2 2.053598 1_554
O26 V11 2.053598 1_556
O27 V0 1.667642 1_555
O28 V5 2.028474 1_555
O29 V5 2.021148 1_554
O30 V3 1.672441 1_555
O31 V8 1.865404 1_555
O32 V5 1.667642 1_555
O33 V5 1.672441 1_555
O34 V8 1.664075 1_555
O35 V2 1.672441 1_555
O36 V3 2.028474 1_555
O37 V1 1.865404 1_555
O38 V9 2.021148 1_555
O39 V0 2.028474 1_555
O40 V2 1.667642 1_555
O41 V7 1.667642 1_555
O42 V11 2.028474 1_555
O43 V10 2.021148 1_555
O44 V2 2.021148 1_554
O45 V10 2.028474 1_555
O46 V0 2.053598 1_555
O47 V1 1.865404 1_555
O48 V8 1.865404 1_555
O49 V9 1.667642 1_555
O50 V10 1.672441 1_555
O51 V9 1.672441 1_555
O52 V7 2.021148 1_555
O53 V7 1.672441 1_555
O54 V4 1.659960 1_555
O55 V11 1.667642 1_555
