# generated using pymatgen
data_CoSeO3
_symmetry_space_group_name_H-M   'P 1'
_cell_length_a   9.45397289
_cell_length_b   9.45563253
_cell_length_c   15.21171729
_cell_angle_alpha   72.62075671
_cell_angle_beta   72.61310859
_cell_angle_gamma   64.47336131
_symmetry_Int_Tables_number   1
_chemical_formula_structural   CoSeO3
_chemical_formula_sum   'Co16 Se16 O48'
_cell_volume   1147.99568101
_cell_formula_units_Z   16
loop_
 _symmetry_equiv_pos_site_id
 _symmetry_equiv_pos_as_xyz
  1  'x, y, z'
loop_
 _atom_site_type_symbol
 _atom_site_label
 _atom_site_symmetry_multiplicity
 _atom_site_fract_x
 _atom_site_fract_y
 _atom_site_fract_z
 _atom_site_occupancy
  Co  Co0  1  0.11208900  0.36617100  0.59493000  1
  Co  Co1  1  0.63379200  0.88792400  0.90509000  1
  Co  Co2  1  0.87727200  0.59040500  0.08126000  1
  Co  Co3  1  0.40952400  0.12273700  0.41883000  1
  Co  Co4  1  0.12181400  0.41001900  0.91915600  1
  Co  Co5  1  0.59011400  0.87817600  0.58074800  1
  Co  Co6  1  0.12749000  0.32559400  0.25848200  1
  Co  Co7  1  0.67444100  0.87247900  0.24146700  1
  Co  Co8  1  0.94936200  0.18510000  0.46839700  1
  Co  Co9  1  0.81489700  0.05076000  0.03167300  1
  Co  Co10  1  0.05063900  0.81409900  0.53178900  1
  Co  Co11  1  0.18577700  0.94939100  0.96824100  1
  Co  Co12  1  0.88817700  0.63338400  0.40506200  1
  Co  Co13  1  0.36656600  0.11179700  0.09496600  1
  Co  Co14  1  0.87341600  0.67369200  0.73989700  1
  Co  Co15  1  0.32622800  0.12661300  0.76012400  1
  Se  Se0  1  0.23612900  0.51328600  0.39818700  1
  Se  Se1  1  0.48667500  0.76389600  0.10181900  1
  Se  Se2  1  0.76379900  0.48787000  0.60186600  1
  Se  Se3  1  0.51230900  0.23606400  0.89811200  1
  Se  Se4  1  0.96693600  0.20218200  0.13448500  1
  Se  Se5  1  0.79791100  0.03296100  0.36548100  1
  Se  Se6  1  0.03310400  0.79759200  0.86569200  1
  Se  Se7  1  0.20239100  0.96686900  0.63441900  1
  Se  Se8  1  0.05761600  0.71151900  0.15041700  1
  Se  Se9  1  0.28845200  0.94235700  0.34956000  1
  Se  Se10  1  0.94221600  0.28964700  0.84938200  1
  Se  Se11  1  0.71044500  0.05771800  0.65062800  1
  Se  Se12  1  0.71450500  0.47981800  0.31577100  1
  Se  Se13  1  0.52026100  0.28551800  0.18424600  1
  Se  Se14  1  0.28639100  0.51865000  0.68423400  1
  Se  Se15  1  0.48127300  0.71364800  0.81574100  1
  O  O0  1  0.07711000  0.61356100  0.48044300  1
  O  O1  1  0.38636000  0.92294500  0.01959700  1
  O  O2  1  0.92205000  0.38711800  0.51973000  1
  O  O3  1  0.61333600  0.07756800  0.98005200  1
  O  O4  1  0.28238800  0.32791500  0.47394000  1
  O  O5  1  0.67207900  0.71754900  0.02605500  1
  O  O6  1  0.71851800  0.67329600  0.52592500  1
  O  O7  1  0.32685000  0.28141700  0.97408700  1
  O  O8  1  0.11460300  0.50374000  0.33541000  1
  O  O9  1  0.49624900  0.88543000  0.16458400  1
  O  O10  1  0.88601700  0.49667200  0.66468900  1
  O  O11  1  0.50332100  0.11401500  0.83525700  1
  O  O12  1  0.97256100  0.36605500  0.04591200  1
  O  O13  1  0.63384900  0.02756900  0.45408600  1
  O  O14  1  0.02740800  0.63408500  0.95443300  1
  O  O15  1  0.36588300  0.97261800  0.54564300  1
  O  O16  1  0.01391500  0.04840000  0.07718000  1
  O  O17  1  0.95146500  0.98588700  0.42293400  1
  O  O18  1  0.98668100  0.95168100  0.92271100  1
  O  O19  1  0.04850600  0.01306900  0.57736100  1
  O  O20  1  0.14034700  0.15080100  0.17437800  1
  O  O21  1  0.84912200  0.85961400  0.32561400  1
  O  O22  1  0.85976600  0.84866700  0.82583600  1
  O  O23  1  0.15127500  0.14028400  0.67423200  1
  O  O24  1  0.19879800  0.72635600  0.05161600  1
  O  O25  1  0.27360700  0.80118200  0.44833400  1
  O  O26  1  0.80142600  0.27280200  0.94820200  1
  O  O27  1  0.72769500  0.19845100  0.55181500  1
  O  O28  1  0.05057700  0.52517600  0.15841800  1
  O  O29  1  0.47471500  0.94958400  0.34160600  1
  O  O30  1  0.94579000  0.47658000  0.84337600  1
  O  O31  1  0.52349600  0.05438500  0.65645900  1
  O  O32  1  0.86204400  0.81368900  0.11823900  1
  O  O33  1  0.18594900  0.13795800  0.38172300  1
  O  O34  1  0.13783600  0.18721400  0.88113000  1
  O  O35  1  0.81290200  0.86206000  0.61897300  1
  O  O36  1  0.71885300  0.51063900  0.19904200  1
  O  O37  1  0.48940700  0.28109000  0.30098000  1
  O  O38  1  0.28109800  0.48889000  0.80102600  1
  O  O39  1  0.51115800  0.71883000  0.69895000  1
  O  O40  1  0.89877000  0.32951300  0.33425100  1
  O  O41  1  0.67059100  0.10123200  0.16563000  1
  O  O42  1  0.10247200  0.66896800  0.66470900  1
  O  O43  1  0.33100300  0.89759300  0.83529300  1
  O  O44  1  0.75008900  0.64448100  0.32072400  1
  O  O45  1  0.35563500  0.24985200  0.17927600  1
  O  O46  1  0.24936900  0.35492300  0.67992900  1
  O  O47  1  0.64504800  0.75066100  0.82005500  1
loop_
_geom_bond_atom_site_label_1
_geom_bond_atom_site_label_2
_geom_bond_distance
_geom_bond_site_symmetry_2
Co0 O46 2.041882 1_555
Co0 O23 2.049495 1_555
Co0 O4 2.057944 1_555
Co0 O10 2.090565 1_455
Co0 O2 2.315572 1_455
Co0 O0 2.420356 1_555
Co1 O47 2.042242 1_555
Co1 O22 2.049350 1_555
Co1 O5 2.058362 1_556
Co1 O11 2.091401 1_565
Co1 O3 2.311737 1_565
Co1 O1 2.420216 1_556
Co2 O5 2.067408 1_555
Co2 O28 2.070821 1_655
Co2 O14 2.073629 1_654
Co2 O12 2.084646 1_555
Co2 O36 2.141171 1_555
Co2 O32 2.278994 1_555
Co3 O4 2.066649 1_555
Co3 O29 2.070518 1_545
Co3 O15 2.073555 1_545
Co3 O13 2.083669 1_555
Co3 O37 2.141966 1_555
Co3 O33 2.282381 1_555
Co4 O7 2.064901 1_555
Co4 O12 2.069390 1_456
Co4 O30 2.074759 1_455
Co4 O14 2.082448 1_555
Co4 O38 2.145457 1_555
Co4 O34 2.279603 1_555
Co5 O6 2.062856 1_555
Co5 O13 2.068840 1_565
Co5 O31 2.075478 1_565
Co5 O15 2.082452 1_555
Co5 O39 2.146893 1_555
Co5 O35 2.280333 1_555
Co6 O28 2.042020 1_555
Co6 O45 2.061009 1_555
Co6 O40 2.114802 1_455
Co6 O33 2.180580 1_555
Co6 O8 2.266539 1_555
Co6 O20 2.319555 1_555
Co7 O29 2.043344 1_555
Co7 O44 2.060712 1_555
Co7 O41 2.115969 1_565
Co7 O32 2.180427 1_555
Co7 O9 2.266022 1_555
Co7 O21 2.318976 1_555
Co8 O19 2.067780 1_655
Co8 O27 2.072733 1_555
Co8 O40 2.147840 1_555
Co8 O33 2.160825 1_655
Co8 O2 2.161201 1_555
Co8 O17 2.182810 1_545
Co9 O18 2.066416 1_544
Co9 O26 2.076097 1_554
Co9 O41 2.144675 1_555
Co9 O3 2.161260 1_554
Co9 O32 2.164240 1_545
Co9 O16 2.180084 1_655
Co10 O17 2.065908 1_455
Co10 O25 2.083590 1_555
Co10 O42 2.136956 1_555
Co10 O0 2.151110 1_555
Co10 O35 2.171505 1_455
Co10 O19 2.181438 1_565
Co11 O16 2.066195 1_566
Co11 O24 2.083988 1_556
Co11 O43 2.137196 1_555
Co11 O1 2.151458 1_556
Co11 O34 2.172247 1_565
Co11 O18 2.181290 1_455
Co12 O44 2.040506 1_555
Co12 O21 2.052903 1_555
Co12 O6 2.055647 1_555
Co12 O8 2.089597 1_655
Co12 O0 2.312469 1_655
Co12 O2 2.414992 1_555
Co13 O45 2.040639 1_555
Co13 O20 2.052195 1_555
Co13 O7 2.055790 1_554
Co13 O9 2.089553 1_545
Co13 O1 2.311938 1_545
Co13 O3 2.419305 1_554
Co14 O30 2.052240 1_555
Co14 O47 2.068881 1_555
Co14 O42 2.113388 1_655
Co14 O35 2.162597 1_555
Co14 O10 2.239511 1_555
Co14 O22 2.338858 1_555
Co15 O31 2.054075 1_555
Co15 O46 2.069101 1_555
Co15 O43 2.113382 1_545
Co15 O34 2.163308 1_555
Co15 O11 2.239159 1_555
Co15 O23 2.337930 1_555
O0 Se0 1.755204 1_555
O1 Se1 1.755413 1_555
O2 Se2 1.752850 1_555
O3 Se3 1.753221 1_555
O4 Se0 1.739352 1_555
O5 Se1 1.739257 1_555
O6 Se2 1.740848 1_555
O7 Se3 1.740900 1_555
O8 Se0 1.742590 1_555
O9 Se1 1.742736 1_555
O10 Se2 1.745152 1_555
O11 Se3 1.745133 1_555
O12 Se4 1.732106 1_555
O13 Se5 1.732823 1_555
O14 Se6 1.731180 1_555
O15 Se7 1.731115 1_555
O16 Se4 1.743786 1_455
O17 Se5 1.743070 1_565
O18 Se6 1.744742 1_655
O19 Se7 1.743872 1_545
O20 Se4 1.738961 1_455
O21 Se5 1.738748 1_565
O22 Se6 1.738684 1_655
O23 Se7 1.739103 1_545
O24 Se8 1.701922 1_555
O25 Se9 1.701902 1_555
O26 Se10 1.703107 1_555
O27 Se11 1.703640 1_555
O28 Se8 1.758397 1_555
O29 Se9 1.758296 1_555
O30 Se10 1.756971 1_555
O31 Se11 1.756487 1_555
O32 Se8 1.819443 1_655
O33 Se9 1.819811 1_545
O34 Se10 1.817173 1_455
O35 Se11 1.817092 1_565
O36 Se12 1.702091 1_555
O37 Se13 1.701936 1_555
O38 Se14 1.702460 1_555
O39 Se15 1.702483 1_555
O40 Se12 1.747507 1_555
O41 Se13 1.748236 1_555
O42 Se14 1.748773 1_555
O43 Se15 1.748946 1_555
O44 Se12 1.754918 1_555
O45 Se13 1.754896 1_555
O46 Se14 1.750659 1_555
O47 Se15 1.750879 1_555
