# generated using pymatgen
data_BeAl6O10
_symmetry_space_group_name_H-M   'P 1'
_cell_length_a   13.80346023
_cell_length_b   8.91604881
_cell_length_c   9.54301819
_cell_angle_alpha   89.97036227
_cell_angle_beta   90.00000000
_cell_angle_gamma   90.00000000
_symmetry_Int_Tables_number   1
_chemical_formula_structural   BeAl6O10
_chemical_formula_sum   'Be8 Al48 O80'
_cell_volume   1174.48128083
_cell_formula_units_Z   8
loop_
 _symmetry_equiv_pos_site_id
 _symmetry_equiv_pos_as_xyz
  1  'x, y, z'
loop_
 _atom_site_type_symbol
 _atom_site_label
 _atom_site_symmetry_multiplicity
 _atom_site_fract_x
 _atom_site_fract_y
 _atom_site_fract_z
 _atom_site_occupancy
  Be  Be0  1  0.14515903  0.34397481  0.12787875  1
  Be  Be1  1  0.64433217  0.15601859  0.37445024  1
  Be  Be2  1  0.14433217  0.84398141  0.12554976  1
  Be  Be3  1  0.35566783  0.84398141  0.62554976  1
  Be  Be4  1  0.85484097  0.65602519  0.87212125  1
  Be  Be5  1  0.64515903  0.65602519  0.37212125  1
  Be  Be6  1  0.85566783  0.15601859  0.87445024  1
  Be  Be7  1  0.35484097  0.34397481  0.62787875  1
  Al  Al0  1  0.35931544  0.12285212  0.45501974  1
  Al  Al1  1  0.46021102  0.63456454  0.53024731  1
  Al  Al2  1  0.04114733  0.12914666  0.21993051  1
  Al  Al3  1  0.54260932  0.36586777  0.94176342  1
  Al  Al4  1  0.64068456  0.87714788  0.54498026  1
  Al  Al5  1  0.14068456  0.12285212  0.95501974  1
  Al  Al6  1  0.25160020  0.12986498  0.70589103  1
  Al  Al7  1  0.15524520  0.35387842  0.46101479  1
  Al  Al8  1  0.35071877  0.94145369  0.95913971  1
  Al  Al9  1  0.74839980  0.87013502  0.29410897  1
  Al  Al10  1  0.85071877  0.05854631  0.54086029  1
  Al  Al11  1  0.35104221  0.44312930  0.29427678  1
  Al  Al12  1  0.85931544  0.87714788  0.04498026  1
  Al  Al13  1  0.04212360  0.14014269  0.69305766  1
  Al  Al14  1  0.25163708  0.62980673  0.54543954  1
  Al  Al15  1  0.64051293  0.37670378  0.20494033  1
  Al  Al16  1  0.14051293  0.62329622  0.29505967  1
  Al  Al17  1  0.03978898  0.63456454  0.03024731  1
  Al  Al18  1  0.84424001  0.14539621  0.20948301  1
  Al  Al19  1  0.15575999  0.85460379  0.79051699  1
  Al  Al20  1  0.54212360  0.85985731  0.80694234  1
  Al  Al21  1  0.65524520  0.64612158  0.03898521  1
  Al  Al22  1  0.85948707  0.37670378  0.70494033  1
  Al  Al23  1  0.75160020  0.87013502  0.79410897  1
  Al  Al24  1  0.74836292  0.37019327  0.45456046  1
  Al  Al25  1  0.45787640  0.14014269  0.19305766  1
  Al  Al26  1  0.54114733  0.87085334  0.28006949  1
  Al  Al27  1  0.45885267  0.12914666  0.71993051  1
  Al  Al28  1  0.14895779  0.44312930  0.79427678  1
  Al  Al29  1  0.64928123  0.05854631  0.04086029  1
  Al  Al30  1  0.65575999  0.14539621  0.70948301  1
  Al  Al31  1  0.96021102  0.36543546  0.96975269  1
  Al  Al32  1  0.95885267  0.87085334  0.78006949  1
  Al  Al33  1  0.85104221  0.55687070  0.20572322  1
  Al  Al34  1  0.24839980  0.12986498  0.20589103  1
  Al  Al35  1  0.24836292  0.62980673  0.04543954  1
  Al  Al36  1  0.34475480  0.35387842  0.96101479  1
  Al  Al37  1  0.95787640  0.85985731  0.30694234  1
  Al  Al38  1  0.14928123  0.94145369  0.45913971  1
  Al  Al39  1  0.75163708  0.37019327  0.95456046  1
  Al  Al40  1  0.04260932  0.63413223  0.55823658  1
  Al  Al41  1  0.35948707  0.62329622  0.79505967  1
  Al  Al42  1  0.64895779  0.55687070  0.70572322  1
  Al  Al43  1  0.84475480  0.64612158  0.53898521  1
  Al  Al44  1  0.45739068  0.63413223  0.05823658  1
  Al  Al45  1  0.34424001  0.85460379  0.29051699  1
  Al  Al46  1  0.95739068  0.36586777  0.44176342  1
  Al  Al47  1  0.53978898  0.36543546  0.46975269  1
  O  O0  1  0.54973186  0.00763788  0.13758276  1
  O  O1  1  0.15101171  0.25336862  0.28191695  1
  O  O2  1  0.24317698  0.50458421  0.38286833  1
  O  O3  1  0.14839664  0.51992365  0.12820125  1
  O  O4  1  0.35160336  0.51992365  0.62820125  1
  O  O5  1  0.34898829  0.25336862  0.78191695  1
  O  O6  1  0.74317698  0.49541579  0.11713167  1
  O  O7  1  0.26212619  0.75553129  0.70593607  1
  O  O8  1  0.14891265  0.24143790  0.78918531  1
  O  O9  1  0.05343810  0.75112721  0.19987703  1
  O  O10  1  0.84999023  0.24511599  0.02950994  1
  O  O11  1  0.05205904  0.25866448  0.53932578  1
  O  O12  1  0.94097068  0.00050074  0.14793139  1
  O  O13  1  0.94794096  0.74133552  0.46067422  1
  O  O14  1  0.65000977  0.24511599  0.52950994  1
  O  O15  1  0.95026814  0.00763788  0.63758276  1
  O  O16  1  0.94444243  0.75156819  0.94730643  1
  O  O17  1  0.34441077  0.00866594  0.13135252  1
  O  O18  1  0.05915623  0.49755121  0.39505066  1
  O  O19  1  0.14645695  0.01966283  0.12365713  1
  O  O20  1  0.64891265  0.75856210  0.71081469  1
  O  O21  1  0.04973186  0.99236212  0.36241724  1
  O  O22  1  0.15558923  0.00866594  0.63135252  1
  O  O23  1  0.44444243  0.24843181  0.55269357  1
  O  O24  1  0.55205904  0.74133552  0.96067422  1
  O  O25  1  0.34999023  0.75488401  0.47049006  1
  O  O26  1  0.44097068  0.99949926  0.35206861  1
  O  O27  1  0.55902932  0.00050074  0.64793139  1
  O  O28  1  0.35013988  0.73983281  0.96110680  1
  O  O29  1  0.85013988  0.26016719  0.53889320  1
  O  O30  1  0.85108735  0.75856210  0.21081469  1
  O  O31  1  0.64986012  0.26016719  0.03889320  1
  O  O32  1  0.94656190  0.24887279  0.80012297  1
  O  O33  1  0.85160336  0.48007635  0.87179875  1
  O  O34  1  0.44084377  0.49755121  0.89505066  1
  O  O35  1  0.94084377  0.50244879  0.60494934  1
  O  O36  1  0.55581411  0.24516115  0.79036723  1
  O  O37  1  0.25682302  0.50458421  0.88286833  1
  O  O38  1  0.55555757  0.75156819  0.44730643  1
  O  O39  1  0.45020631  0.49348478  0.39175708  1
  O  O40  1  0.54979369  0.50651522  0.60824292  1
  O  O41  1  0.65101171  0.74663138  0.21808305  1
  O  O42  1  0.26154781  0.25498614  0.54547927  1
  O  O43  1  0.84653185  0.49221033  0.38006090  1
  O  O44  1  0.15346815  0.50778967  0.61993910  1
  O  O45  1  0.65558923  0.99133406  0.86864748  1
  O  O46  1  0.76212619  0.24446871  0.79406393  1
  O  O47  1  0.23845219  0.25498614  0.04547927  1
  O  O48  1  0.73845219  0.74501386  0.45452073  1
  O  O49  1  0.65346815  0.49221033  0.88006090  1
  O  O50  1  0.55915623  0.50244879  0.10494934  1
  O  O51  1  0.64839664  0.48007635  0.37179875  1
  O  O52  1  0.44794096  0.25866448  0.03932578  1
  O  O53  1  0.94418589  0.24516115  0.29036723  1
  O  O54  1  0.76154781  0.74501386  0.95452073  1
  O  O55  1  0.23787381  0.75553129  0.20593607  1
  O  O56  1  0.35354305  0.01966283  0.62365713  1
  O  O57  1  0.34653185  0.50778967  0.11993910  1
  O  O58  1  0.84898829  0.74663138  0.71808305  1
  O  O59  1  0.44656190  0.75112721  0.69987703  1
  O  O60  1  0.75682302  0.49541579  0.61713167  1
  O  O61  1  0.15000977  0.75488401  0.97049006  1
  O  O62  1  0.74324825  0.99539827  0.63093067  1
  O  O63  1  0.73787381  0.24446871  0.29406393  1
  O  O64  1  0.05581411  0.75483885  0.70963277  1
  O  O65  1  0.24324825  0.00460173  0.86906933  1
  O  O66  1  0.44418589  0.75483885  0.20963277  1
  O  O67  1  0.04979369  0.49348478  0.89175708  1
  O  O68  1  0.25675175  0.00460173  0.36906933  1
  O  O69  1  0.45026814  0.99236212  0.86241724  1
  O  O70  1  0.84441077  0.99133406  0.36864748  1
  O  O71  1  0.05902932  0.99949926  0.85206861  1
  O  O72  1  0.95020631  0.50651522  0.10824292  1
  O  O73  1  0.64645695  0.98033717  0.37634287  1
  O  O74  1  0.14986012  0.73983281  0.46110680  1
  O  O75  1  0.75675175  0.99539827  0.13093067  1
  O  O76  1  0.05555757  0.24843181  0.05269357  1
  O  O77  1  0.35108735  0.24143790  0.28918531  1
  O  O78  1  0.85354305  0.98033717  0.87634287  1
  O  O79  1  0.55343810  0.24887279  0.30012297  1
loop_
_geom_bond_atom_site_label_1
_geom_bond_atom_site_label_2
_geom_bond_distance
_geom_bond_site_symmetry_2
Be0 O3 1.569409 1_555
Be0 O76 1.664573 1_555
Be0 O1 1.678924 1_555
Be0 O47 1.704949 1_555
Be1 O73 1.566753 1_545
Be1 O79 1.661947 1_555
Be1 O14 1.681680 1_555
Be1 O63 1.696167 1_555
Be2 O19 1.566753 1_565
Be2 O9 1.661947 1_555
Be2 O61 1.681680 1_554
Be2 O55 1.696167 1_555
Be3 O56 1.566753 1_565
Be3 O59 1.661947 1_555
Be3 O25 1.681680 1_555
Be3 O7 1.696167 1_555
Be4 O33 1.569409 1_555
Be4 O16 1.664573 1_555
Be4 O58 1.678924 1_555
Be4 O54 1.704949 1_555
Be5 O51 1.569409 1_555
Be5 O38 1.664573 1_555
Be5 O41 1.678924 1_555
Be5 O48 1.704949 1_555
Be6 O78 1.566753 1_545
Be6 O32 1.661947 1_555
Be6 O10 1.681680 1_556
Be6 O46 1.696167 1_555
Be7 O4 1.569409 1_555
Be7 O23 1.664573 1_555
Be7 O5 1.678924 1_555
Be7 O42 1.704949 1_555
Al0 O56 1.855039 1_555
Al0 O26 1.856440 1_545
Al0 O23 1.871978 1_555
Al0 O77 1.906197 1_555
Al0 O68 1.946682 1_555
Al0 O42 1.988832 1_555
Al1 O39 1.830220 1_555
Al1 O40 1.840013 1_555
Al1 O38 1.856359 1_555
Al1 O59 1.933335 1_555
Al1 O25 1.946833 1_555
Al1 O4 2.040853 1_555
Al2 O53 1.820393 1_455
Al2 O21 1.829925 1_545
Al2 O12 1.923704 1_455
Al2 O76 1.927691 1_555
Al2 O1 1.969036 1_555
Al2 O19 1.977616 1_555
Al3 O36 1.811208 1_555
Al3 O52 1.867384 1_556
Al3 O34 1.884120 1_555
Al3 O31 1.984469 1_556
Al3 O49 1.989121 1_555
Al3 O50 1.990532 1_556
Al4 O73 1.855039 1_555
Al4 O27 1.856440 1_565
Al4 O38 1.871978 1_555
Al4 O20 1.906197 1_555
Al4 O62 1.946682 1_555
Al4 O48 1.988832 1_555
Al5 O19 1.855039 1_556
Al5 O71 1.856440 1_545
Al5 O76 1.871978 1_556
Al5 O8 1.906197 1_555
Al5 O65 1.946682 1_555
Al5 O47 1.988832 1_556
Al6 O22 1.852264 1_555
Al6 O5 1.883318 1_555
Al6 O56 1.887378 1_555
Al6 O42 1.898686 1_555
Al6 O8 1.905624 1_555
Al6 O65 1.919314 1_555
Al7 O11 1.818578 1_555
Al7 O42 1.891961 1_555
Al7 O1 1.931120 1_555
Al7 O18 1.948232 1_555
Al7 O2 1.958025 1_555
Al7 O44 2.045981 1_555
Al8 O69 1.716330 1_555
Al8 O17 1.751738 1_566
Al8 O28 1.797768 1_555
Al8 O65 1.804435 1_565
Al9 O70 1.852264 1_555
Al9 O41 1.883318 1_555
Al9 O73 1.887378 1_555
Al9 O48 1.898686 1_555
Al9 O30 1.905624 1_555
Al9 O75 1.919314 1_555
Al10 O15 1.716330 1_555
Al10 O70 1.751738 1_545
Al10 O29 1.797768 1_555
Al10 O62 1.804435 1_545
Al11 O39 1.714940 1_555
Al11 O57 1.761584 1_555
Al11 O2 1.797868 1_555
Al11 O77 1.798972 1_555
Al12 O78 1.855039 1_554
Al12 O12 1.856440 1_565
Al12 O16 1.871978 1_554
Al12 O30 1.906197 1_555
Al12 O75 1.946682 1_555
Al12 O54 1.988832 1_554
Al13 O15 1.812261 1_455
Al13 O11 1.812788 1_555
Al13 O32 1.929960 1_455
Al13 O8 1.957273 1_555
Al13 O71 1.981817 1_545
Al13 O22 2.043203 1_555
Al14 O4 1.867326 1_555
Al14 O44 1.877343 1_555
Al14 O74 1.892854 1_555
Al14 O25 1.896714 1_555
Al14 O7 1.903988 1_555
Al14 O2 1.915433 1_555
Al15 O51 1.843467 1_555
Al15 O50 1.851360 1_555
Al15 O79 1.888825 1_555
Al15 O31 1.899709 1_555
Al15 O6 1.956984 1_555
Al15 O63 1.979524 1_555
Al16 O3 1.843467 1_555
Al16 O18 1.851360 1_555
Al16 O9 1.888825 1_555
Al16 O74 1.899709 1_555
Al16 O2 1.956984 1_555
Al16 O55 1.979524 1_555
Al17 O67 1.830220 1_554
Al17 O72 1.840013 1_455
Al17 O16 1.856359 1_454
Al17 O9 1.933335 1_555
Al17 O61 1.946833 1_554
Al17 O3 2.040853 1_555
Al18 O53 1.814119 1_555
Al18 O63 1.894253 1_555
Al18 O10 1.935198 1_555
Al18 O12 1.948746 1_555
Al18 O75 1.951918 1_545
Al18 O70 2.047384 1_545
Al19 O64 1.814119 1_555
Al19 O7 1.894253 1_555
Al19 O61 1.935198 1_555
Al19 O71 1.948746 1_555
Al19 O65 1.951918 1_565
Al19 O22 2.047384 1_565
Al20 O69 1.812261 1_555
Al20 O24 1.812788 1_555
Al20 O59 1.929960 1_555
Al20 O20 1.957273 1_555
Al20 O27 1.981817 1_565
Al20 O45 2.043203 1_555
Al21 O24 1.818578 1_554
Al21 O54 1.891961 1_554
Al21 O41 1.931120 1_555
Al21 O50 1.948232 1_555
Al21 O6 1.958025 1_555
Al21 O49 2.045981 1_554
Al22 O33 1.843467 1_555
Al22 O35 1.851360 1_555
Al22 O32 1.888825 1_555
Al22 O29 1.899709 1_555
Al22 O60 1.956984 1_555
Al22 O46 1.979524 1_555
Al23 O45 1.852264 1_555
Al23 O58 1.883318 1_555
Al23 O78 1.887378 1_555
Al23 O54 1.898686 1_555
Al23 O20 1.905624 1_555
Al23 O62 1.919314 1_555
Al24 O51 1.867326 1_555
Al24 O43 1.877343 1_555
Al24 O29 1.892854 1_555
Al24 O14 1.896714 1_555
Al24 O63 1.903988 1_555
Al24 O60 1.915433 1_555
Al25 O0 1.812261 1_555
Al25 O52 1.812788 1_555
Al25 O79 1.929960 1_555
Al25 O77 1.957273 1_555
Al25 O26 1.981817 1_545
Al25 O17 2.043203 1_555
Al26 O66 1.820393 1_555
Al26 O0 1.829925 1_565
Al26 O26 1.923704 1_555
Al26 O38 1.927691 1_555
Al26 O41 1.969036 1_555
Al26 O73 1.977616 1_555
Al27 O36 1.820393 1_555
Al27 O69 1.829925 1_545
Al27 O27 1.923704 1_555
Al27 O23 1.927691 1_555
Al27 O5 1.969036 1_555
Al27 O56 1.977616 1_555
Al28 O67 1.714940 1_555
Al28 O44 1.761584 1_555
Al28 O37 1.797868 1_555
Al28 O8 1.798972 1_555
Al29 O0 1.716330 1_555
Al29 O45 1.751738 1_544
Al29 O31 1.797768 1_555
Al29 O75 1.804435 1_545
Al30 O36 1.814119 1_555
Al30 O46 1.894253 1_555
Al30 O14 1.935198 1_555
Al30 O27 1.948746 1_555
Al30 O62 1.951918 1_545
Al30 O45 2.047384 1_545
Al31 O72 1.830220 1_556
Al31 O67 1.840013 1_655
Al31 O76 1.856359 1_656
Al31 O32 1.933335 1_555
Al31 O10 1.946833 1_556
Al31 O33 2.040853 1_555
Al32 O64 1.820393 1_655
Al32 O15 1.829925 1_565
Al32 O71 1.923704 1_655
Al32 O16 1.927691 1_555
Al32 O58 1.969036 1_555
Al32 O78 1.977616 1_555
Al33 O72 1.714940 1_555
Al33 O43 1.761584 1_555
Al33 O6 1.797868 1_555
Al33 O30 1.798972 1_555
Al34 O17 1.852264 1_555
Al34 O1 1.883318 1_555
Al34 O19 1.887378 1_555
Al34 O47 1.898686 1_555
Al34 O77 1.905624 1_555
Al34 O68 1.919314 1_555
Al35 O3 1.867326 1_555
Al35 O57 1.877343 1_555
Al35 O28 1.892854 1_554
Al35 O61 1.896714 1_554
Al35 O55 1.903988 1_555
Al35 O37 1.915433 1_554
Al36 O52 1.818578 1_556
Al36 O47 1.891961 1_556
Al36 O5 1.931120 1_555
Al36 O34 1.948232 1_555
Al36 O37 1.958025 1_555
Al36 O57 2.045981 1_556
Al37 O21 1.812261 1_655
Al37 O13 1.812788 1_555
Al37 O9 1.929960 1_655
Al37 O30 1.957273 1_555
Al37 O12 1.981817 1_565
Al37 O70 2.043203 1_555
Al38 O21 1.716330 1_555
Al38 O22 1.751738 1_565
Al38 O74 1.797768 1_555
Al38 O68 1.804435 1_565
Al39 O33 1.867326 1_555
Al39 O49 1.877343 1_555
Al39 O31 1.892854 1_556
Al39 O10 1.896714 1_556
Al39 O46 1.903988 1_555
Al39 O6 1.915433 1_556
Al40 O64 1.811208 1_555
Al40 O13 1.867384 1_455
Al40 O35 1.884120 1_455
Al40 O74 1.984469 1_555
Al40 O44 1.989121 1_555
Al40 O18 1.990532 1_555
Al41 O4 1.843467 1_555
Al41 O34 1.851360 1_555
Al41 O59 1.888825 1_555
Al41 O28 1.899709 1_555
Al41 O37 1.956984 1_555
Al41 O7 1.979524 1_555
Al42 O40 1.714940 1_555
Al42 O49 1.761584 1_555
Al42 O60 1.797868 1_555
Al42 O20 1.798972 1_555
Al43 O13 1.818578 1_555
Al43 O48 1.891961 1_555
Al43 O58 1.931120 1_555
Al43 O35 1.948232 1_555
Al43 O60 1.958025 1_555
Al43 O43 2.045981 1_555
Al44 O66 1.811208 1_555
Al44 O24 1.867384 1_554
Al44 O50 1.884120 1_555
Al44 O28 1.984469 1_554
Al44 O57 1.989121 1_555
Al44 O34 1.990532 1_554
Al45 O66 1.814119 1_555
Al45 O55 1.894253 1_555
Al45 O25 1.935198 1_555
Al45 O26 1.948746 1_555
Al45 O68 1.951918 1_565
Al45 O17 2.047384 1_565
Al46 O53 1.811208 1_555
Al46 O11 1.867384 1_655
Al46 O18 1.884120 1_655
Al46 O29 1.984469 1_555
Al46 O43 1.989121 1_555
Al46 O35 1.990532 1_555
Al47 O40 1.830220 1_555
Al47 O39 1.840013 1_555
Al47 O23 1.856359 1_555
Al47 O79 1.933335 1_555
Al47 O14 1.946833 1_555
Al47 O51 2.040853 1_555
