# generated using pymatgen
data_RbV2I3O13
_symmetry_space_group_name_H-M   'P 1'
_cell_length_a   9.69127550
_cell_length_b   9.69127550
_cell_length_c   9.69127550
_cell_angle_alpha   130.14332698
_cell_angle_beta   113.78081075
_cell_angle_gamma   87.25214597
_symmetry_Int_Tables_number   1
_chemical_formula_structural   RbV2I3O13
_chemical_formula_sum   'Rb2 V4 I6 O26'
_cell_volume   606.76833163
_cell_formula_units_Z   2
loop_
 _symmetry_equiv_pos_site_id
 _symmetry_equiv_pos_as_xyz
  1  'x, y, z'
loop_
 _atom_site_type_symbol
 _atom_site_label
 _atom_site_symmetry_multiplicity
 _atom_site_fract_x
 _atom_site_fract_y
 _atom_site_fract_z
 _atom_site_occupancy
  Rb  Rb0  1  0.14084300  0.05594900  0.69679100  1
  Rb  Rb1  1  0.85915700  0.55594900  0.91510600  1
  V  V0  1  0.88870400  0.15768300  0.30359400  1
  V  V1  1  0.35408900  0.65768300  0.26897900  1
  V  V2  1  0.11129600  0.41489000  0.26897900  1
  V  V3  1  0.64591100  0.91489000  0.30359400  1
  I  I0  1  0.23466400  0.04646900  0.29952600  1
  I  I1  1  0.24694300  0.54646900  0.81180500  1
  I  I2  1  0.52771700  0.28130200  0.30901900  1
  I  I3  1  0.47228300  0.78130200  0.75358600  1
  I  I4  1  0.75305700  0.56486200  0.29952600  1
  I  I5  1  0.76533600  0.06486200  0.81180500  1
  O  O0  1  0.44612500  0.71167500  0.95980700  1
  O  O1  1  0.73495600  0.95669100  0.19164800  1
  O  O2  1  0.59027800  0.48745600  0.57773400  1
  O  O3  1  0.47288400  0.80399200  0.57404400  1
  O  O4  1  0.28300900  0.48435200  0.97108000  1
  O  O5  1  0.72994700  0.30399200  0.33110700  1
  O  O6  1  0.69466400  0.26915700  0.90219200  1
  O  O7  1  0.50000000  0.82915200  0.32915200  1
  O  O8  1  0.98672800  0.18807100  0.97108000  1
  O  O9  1  0.55387500  0.51368200  0.26555000  1
  O  O10  1  0.26504400  0.45669100  0.22173500  1
  O  O11  1  0.21246700  0.76070700  0.27565900  1
  O  O12  1  0.30533600  0.20752800  0.57449300  1
  O  O13  1  0.78753300  0.06319200  0.54824100  1
  O  O14  1  0.00000000  0.32915200  0.32915200  1
  O  O15  1  0.01495100  0.56319200  0.27565900  1
  O  O16  1  0.25186800  0.21167500  0.26555000  1
  O  O17  1  0.01327200  0.98435200  0.20134300  1
  O  O18  1  0.86696500  0.76915700  0.57449300  1
  O  O19  1  0.13303500  0.70752800  0.90219200  1
  O  O20  1  0.74813200  0.01368200  0.95980700  1
  O  O21  1  0.40972200  0.98745600  0.89717800  1
  O  O22  1  0.52711600  0.10116000  0.33110700  1
  O  O23  1  0.98504900  0.26070700  0.54824100  1
  O  O24  1  0.27005300  0.60116000  0.57404400  1
  O  O25  1  0.71699100  0.68807100  0.20134300  1
loop_
_geom_bond_atom_site_label_1
_geom_bond_atom_site_label_2
_geom_bond_distance
_geom_bond_site_symmetry_2
I0 O12 1.809402 1_555
I0 O16 1.857208 1_555
I0 O17 1.900014 1_545
I1 O19 1.809402 1_555
I1 O0 1.857208 1_555
I1 O4 1.900014 1_555
I2 O2 1.809734 1_555
I2 O22 1.891437 1_555
I2 O5 1.891438 1_555
I2 O9 2.584116 1_555
I2 O16 2.584116 1_555
I2 O21 2.706174 1_544
I3 O21 1.809732 1_555
I3 O24 1.891437 1_555
I3 O3 1.891454 1_555
I3 O0 2.584107 1_555
I3 O20 2.584118 1_565
I3 O2 2.706175 1_555
I4 O18 1.809402 1_555
I4 O9 1.857208 1_555
I4 O25 1.900014 1_555
I5 O6 1.809402 1_555
I5 O20 1.857208 1_555
I5 O8 1.900014 1_555
O0 V3 2.330341 1_556
O1 V3 1.855012 1_555
O1 V0 1.855025 1_565
O2 Rb1 2.901245 1_555
O3 V1 2.020622 1_555
O4 V1 1.971066 1_556
O4 Rb0 3.092916 1_555
O5 V0 2.020630 1_555
O6 Rb1 3.177630 1_555
O7 V1 1.847115 1_555
O7 V3 1.847115 1_555
O8 V2 1.971066 1_656
O8 Rb0 3.092925 1_655
O9 V1 2.330341 1_555
O10 V2 1.855021 1_555
O10 V1 1.855021 1_555
O11 V1 1.655819 1_555
O11 Rb1 3.151709 1_454
O12 Rb0 3.177621 1_555
O13 V3 1.655824 1_545
O13 Rb0 3.151709 1_655
O14 V2 1.847115 1_555
O14 V0 1.847115 1_455
O15 V2 1.655824 1_555
O15 Rb1 3.151709 1_454
O16 V2 2.330341 1_555
O17 V0 1.971066 1_465
O17 Rb1 3.092918 1_454
O18 Rb0 3.177635 1_665
O19 Rb1 3.177630 1_455
O20 V0 2.330341 1_556
O21 Rb0 2.901249 1_565
O22 V3 2.020624 1_545
O23 V0 1.655827 1_555
O23 Rb0 3.151694 1_655
O24 V2 2.020624 1_555
O25 V3 1.971066 1_555
O25 Rb1 3.092918 1_554
