# generated using pymatgen
data_YbAg2
_symmetry_space_group_name_H-M   'P 1'
_cell_length_a   4.70448200
_cell_length_b   5.94179106
_cell_length_c   5.94179106
_cell_angle_alpha   74.53621558
_cell_angle_beta   66.67908137
_cell_angle_gamma   66.67908137
_symmetry_Int_Tables_number   1
_chemical_formula_structural   YbAg2
_chemical_formula_sum   'Yb2 Ag4'
_cell_volume   138.86640507
_cell_formula_units_Z   2
loop_
 _symmetry_equiv_pos_site_id
 _symmetry_equiv_pos_as_xyz
  1  'x, y, z'
loop_
 _atom_site_type_symbol
 _atom_site_label
 _atom_site_symmetry_multiplicity
 _atom_site_fract_x
 _atom_site_fract_y
 _atom_site_fract_z
 _atom_site_occupancy
  Yb  Yb0  1  0.54301500  0.20698500  0.70698500  1
  Yb  Yb1  1  0.45698500  0.79301500  0.29301500  1
  Ag  Ag0  1  0.83752600  0.61517900  0.70976900  1
  Ag  Ag1  1  0.16247300  0.79023200  0.88482100  1
  Ag  Ag2  1  0.16247400  0.38482100  0.29023100  1
  Ag  Ag3  1  0.83752700  0.20976800  0.11517900  1
loop_
_geom_bond_atom_site_label_1
_geom_bond_atom_site_label_2
_geom_bond_distance
_geom_bond_site_symmetry_2
Ag0 Ag2 2.751373 1_655
Ag0 Ag1 2.755985 1_655
Ag0 Ag1 2.755989 1_555
Ag0 Ag3 2.917354 1_556
Ag0 Yb0 3.227161 1_565
Ag0 Yb0 3.240793 1_555
Ag0 Yb0 3.240793 1_655
Ag0 Yb1 3.327209 1_555
Ag0 Yb1 3.327209 1_655
Ag0 Yb1 3.445890 1_556
Ag1 Ag3 2.751363 1_466
Ag1 Ag2 2.917354 1_556
Ag1 Yb1 3.227161 1_555
Ag1 Yb1 3.240791 1_456
Ag1 Yb1 3.240795 1_556
Ag1 Yb0 3.327203 1_465
Ag1 Yb0 3.327207 1_565
Ag1 Yb0 3.445895 1_555
Ag2 Ag3 2.755985 1_455
Ag2 Ag3 2.755989 1_555
Ag2 Yb1 3.227161 1_545
Ag2 Yb1 3.240793 1_555
Ag2 Yb1 3.240793 1_455
Ag2 Yb0 3.327209 1_555
Ag2 Yb0 3.327209 1_455
Ag2 Yb0 3.445890 1_554
Ag3 Yb0 3.227161 1_555
Ag3 Yb0 3.240791 1_654
Ag3 Yb0 3.240795 1_554
Ag3 Yb1 3.327203 1_645
Ag3 Yb1 3.327207 1_545
Ag3 Yb1 3.445895 1_555
