# generated using pymatgen
data_SrTa4O11
_symmetry_space_group_name_H-M   'P 1'
_cell_length_a   6.27084441
_cell_length_b   6.27083873
_cell_length_c   12.37472591
_cell_angle_alpha   89.99998374
_cell_angle_beta   90.00001253
_cell_angle_gamma   119.99988323
_symmetry_Int_Tables_number   1
_chemical_formula_structural   SrTa4O11
_chemical_formula_sum   'Sr2 Ta8 O22'
_cell_volume   421.42314982
_cell_formula_units_Z   2
loop_
 _symmetry_equiv_pos_site_id
 _symmetry_equiv_pos_as_xyz
  1  'x, y, z'
loop_
 _atom_site_type_symbol
 _atom_site_label
 _atom_site_symmetry_multiplicity
 _atom_site_fract_x
 _atom_site_fract_y
 _atom_site_fract_z
 _atom_site_occupancy
  Sr  Sr0  1  0.66666699  0.33333342  0.25000093  1
  Sr  Sr1  1  0.33333338  0.66666695  0.74999917  1
  Ta  Ta0  1  0.33333349  0.66666710  0.25000222  1
  Ta  Ta1  1  0.66666681  0.33333361  0.74999804  1
  Ta  Ta2  1  0.35657942  -0.00000023  0.00000286  1
  Ta  Ta3  1  0.35658054  0.35658129  0.49999695  1
  Ta  Ta4  1  0.00000014  0.64341745  0.49999714  1
  Ta  Ta5  1  0.00000080  0.35658180  0.00000296  1
  Ta  Ta6  1  0.64342034  0.64342140  0.00000311  1
  Ta  Ta7  1  0.64341703  -0.00000098  0.49999703  1
  O  O0  1  0.33333342  0.66666657  0.53438378  1
  O  O1  1  0.66666592  0.33333282  0.03438578  1
  O  O2  1  0.66666670  0.33333357  0.46561448  1
  O  O3  1  0.33333340  0.66666658  0.96561581  1
  O  O4  1  0.75490560  0.00000082  0.00000120  1
  O  O5  1  0.75490650  0.75490567  0.49999916  1
  O  O6  1  -0.00000108  0.24509528  0.49999906  1
  O  O7  1  -0.00000026  0.75490247  0.00000145  1
  O  O8  1  0.24509399  0.24509369  0.00000105  1
  O  O9  1  0.24509570  -0.00000027  0.49999967  1
  O  O10  1  0.37135488  0.43383667  0.34573514  1
  O  O11  1  0.93751486  0.37135969  0.84573676  1
  O  O12  1  0.43384514  0.06248555  0.84573685  1
  O  O13  1  0.56616211  0.93751714  0.34573509  1
  O  O14  1  0.06248188  0.62864540  0.34573512  1
  O  O15  1  0.93751273  0.56615426  0.65426494  1
  O  O16  1  0.62864192  0.06248743  0.65426502  1
  O  O17  1  0.62864052  0.56615558  0.84573691  1
  O  O18  1  0.43384570  0.37135843  0.65426483  1
  O  O19  1  0.56615903  0.62863947  0.15426245  1
  O  O20  1  0.06248072  0.43384157  0.15426254  1
  O  O21  1  0.37136065  0.93751978  0.15426251  1
loop_
_geom_bond_atom_site_label_1
_geom_bond_atom_site_label_2
_geom_bond_distance
_geom_bond_site_symmetry_2
O0 Ta7 2.065635 1_565
O0 Ta3 2.065636 1_555
O0 Ta4 2.065637 1_555
O0 Sr1 2.668181 1_555
O1 Ta2 2.065636 1_555
O1 Ta5 2.065638 1_655
O1 Ta6 2.065640 1_555
O1 Sr0 2.668178 1_555
O2 Ta4 2.065629 1_655
O2 Ta7 2.065631 1_555
O2 Ta3 2.065634 1_555
O2 Sr0 2.668159 1_555
O3 Ta5 2.065640 1_556
O3 Ta6 2.065642 1_556
O3 Ta2 2.065645 1_566
O3 Sr1 2.668197 1_555
O4 Ta6 1.981274 1_545
O4 Ta5 1.981284 1_655
O4 Ta2 2.497838 1_555
O5 Ta4 1.981283 1_655
O5 Ta7 1.981287 1_565
O5 Ta3 2.497838 1_555
O6 Ta3 1.981288 1_555
O6 Ta7 1.981291 1_455
O6 Ta4 2.497810 1_555
O7 Ta6 1.981281 1_455
O7 Ta2 1.981282 1_565
O7 Ta5 2.497808 1_555
O8 Ta2 1.981271 1_555
O8 Ta5 1.981280 1_555
O8 Ta6 2.497850 1_555
O9 Ta3 1.981287 1_555
O9 Ta4 1.981291 1_545
O9 Ta7 2.497813 1_555
O10 Ta3 1.960224 1_555
O10 Ta0 1.984973 1_555
O10 Sr0 2.529261 1_555
O11 Ta5 1.960287 1_656
O11 Ta1 1.984990 1_555
O11 Sr1 2.529289 1_655
O12 Ta2 1.960287 1_556
O12 Ta1 1.984992 1_555
O12 Sr1 2.529286 1_545
O13 Ta7 1.960226 1_565
O13 Ta0 1.984967 1_555
O13 Sr0 2.529263 1_565
O14 Ta4 1.960226 1_555
O14 Ta0 1.984974 1_555
O14 Sr0 2.529263 1_455
O15 Ta4 1.960307 1_655
O15 Ta1 1.984941 1_555
O15 Sr1 2.529277 1_655
O16 Ta7 1.960310 1_555
O16 Ta1 1.984940 1_555
O16 Sr1 2.529278 1_545
O17 Ta6 1.960289 1_556
O17 Ta1 1.984991 1_555
O17 Sr1 2.529286 1_555
O18 Ta3 1.960310 1_555
O18 Ta1 1.984941 1_555
O18 Sr1 2.529277 1_555
O19 Ta6 1.960199 1_555
O19 Ta0 1.985020 1_555
O19 Sr0 2.529270 1_555
O20 Ta5 1.960201 1_555
O20 Ta0 1.985020 1_555
O20 Sr0 2.529271 1_455
O21 Ta2 1.960203 1_565
O21 Ta0 1.985017 1_555
O21 Sr0 2.529273 1_565
