# generated using pymatgen
data_Ga41N11O45
_symmetry_space_group_name_H-M   'P 1'
_cell_length_a   5.94373186
_cell_length_b   5.94373186
_cell_length_c   34.21099192
_cell_angle_alpha   84.99543846
_cell_angle_beta   84.99543846
_cell_angle_gamma   60.11452775
_symmetry_Int_Tables_number   1
_chemical_formula_structural   Ga41N11O45
_chemical_formula_sum   'Ga41 N11 O45'
_cell_volume   1042.55175859
_cell_formula_units_Z   1
loop_
 _symmetry_equiv_pos_site_id
 _symmetry_equiv_pos_as_xyz
  1  'x, y, z'
loop_
 _atom_site_type_symbol
 _atom_site_label
 _atom_site_symmetry_multiplicity
 _atom_site_fract_x
 _atom_site_fract_y
 _atom_site_fract_z
 _atom_site_occupancy
  Ga  Ga0  1  0.16499600  0.16499600  0.01825200  1
  Ga  Ga1  1  0.50587300  0.50587300  0.00018600  1
  Ga  Ga2  1  0.13954800  0.65328700  0.07480700  1
  Ga  Ga3  1  0.45067900  0.45067900  0.16403300  1
  Ga  Ga4  1  0.64783400  0.64783400  0.07421600  1
  Ga  Ga5  1  0.42348200  0.93770000  0.21573000  1
  Ga  Ga6  1  0.72612200  0.72612200  0.30048000  1
  Ga  Ga7  1  0.81638200  0.81638200  0.14915500  1
  Ga  Ga8  1  0.65328700  0.13954800  0.07480700  1
  Ga  Ga9  1  0.70849500  0.22291400  0.35653100  1
  Ga  Ga10  1  0.12360300  0.12360300  0.12714300  1
  Ga  Ga11  1  0.02046300  0.02046300  0.44591500  1
  Ga  Ga12  1  0.05735900  0.05735900  0.27941300  1
  Ga  Ga13  1  0.93770000  0.42348200  0.21573000  1
  Ga  Ga14  1  0.51702000  0.98563700  0.49889800  1
  Ga  Ga15  1  0.21346700  0.21346700  0.35480000  1
  Ga  Ga16  1  0.40220800  0.40220800  0.26479200  1
  Ga  Ga17  1  0.35910700  0.35910700  0.42623600  1
  Ga  Ga18  1  0.98563700  0.51702000  0.49889800  1
  Ga  Ga19  1  0.30785200  0.30785200  0.58787100  1
  Ga  Ga20  1  0.22291400  0.70849500  0.35653100  1
  Ga  Ga21  1  0.50538300  0.50538300  0.49832600  1
  Ga  Ga22  1  0.80327600  0.27204900  0.64216400  1
  Ga  Ga23  1  0.27204900  0.80327600  0.64216400  1
  Ga  Ga24  1  0.68326800  0.68326800  0.41107200  1
  Ga  Ga25  1  0.59375300  0.59375300  0.73107000  1
  Ga  Ga26  1  0.64713300  0.64713300  0.56960100  1
  Ga  Ga27  1  0.79138800  0.79138800  0.64170400  1
  Ga  Ga28  1  0.97053200  0.97053200  0.55533700  1
  Ga  Ga29  1  0.55773600  0.08908600  0.78535700  1
  Ga  Ga30  1  0.87939600  0.87939600  0.87407400  1
  Ga  Ga31  1  0.93305200  0.93305200  0.71277600  1
  Ga  Ga32  1  0.07712300  0.07712300  0.78486100  1
  Ga  Ga33  1  0.84435000  0.37425900  0.92869200  1
  Ga  Ga34  1  0.25664200  0.25664200  0.69856900  1
  Ga  Ga35  1  0.21860900  0.21860900  0.85596400  1
  Ga  Ga36  1  0.08908600  0.55773600  0.78535700  1
  Ga  Ga37  1  0.36254500  0.36254500  0.92822000  1
  Ga  Ga38  1  0.54224300  0.54224300  0.84194200  1
  Ga  Ga39  1  0.37425900  0.84435000  0.92869200  1
  Ga  Ga40  1  0.83003700  0.83003700  0.98294000  1
  N  N0  1  0.95592100  0.95592100  0.10603100  1
  N  N1  1  0.23133100  0.23133100  0.24993800  1
  N  N2  1  0.51750100  0.51750100  0.39076500  1
  N  N3  1  0.67442900  0.67442900  0.46715300  1
  N  N4  1  0.80708100  0.80708100  0.53448200  1
  N  N5  1  0.96039100  0.96039100  0.61102600  1
  N  N6  1  0.09329500  0.09329500  0.67779000  1
  N  N7  1  0.24616200  0.24616200  0.75426400  1
  N  N8  1  0.37901900  0.37901900  0.82103200  1
  N  N9  1  0.53180100  0.53180100  0.89772100  1
  N  N10  1  0.66481000  0.66481000  0.96431200  1
  O  O0  1  0.33741500  0.33741500  0.03644400  1
  O  O1  1  0.47090500  0.47090500  0.10299700  1
  O  O2  1  0.80626000  0.33142600  0.03666700  1
  O  O3  1  0.33142600  0.80626000  0.03666700  1
  O  O4  1  0.62626300  0.62626300  0.17826000  1
  O  O5  1  0.96250300  0.47706000  0.10331800  1
  O  O6  1  0.47706000  0.96250300  0.10331800  1
  O  O7  1  0.74348000  0.74348000  0.24708000  1
  O  O8  1  0.82008500  0.82008500  0.03907200  1
  O  O9  1  0.10381300  0.59406300  0.17788300  1
  O  O10  1  0.59406300  0.10381300  0.17788300  1
  O  O11  1  0.90136600  0.90136600  0.32346100  1
  O  O12  1  0.26339000  0.75245000  0.25150100  1
  O  O13  1  0.75245000  0.26339000  0.25150100  1
  O  O14  1  0.03524400  0.03524400  0.39001500  1
  O  O15  1  0.11567700  0.11567700  0.18035000  1
  O  O16  1  0.37365900  0.89946800  0.32397900  1
  O  O17  1  0.89946800  0.37365900  0.32397900  1
  O  O18  1  0.19180700  0.19180700  0.46502500  1
  O  O19  1  0.52017000  0.04874200  0.39139000  1
  O  O20  1  0.04874200  0.52017000  0.39139000  1
  O  O21  1  0.32426100  0.32426100  0.53117300  1
  O  O22  1  0.66180800  0.18664200  0.46468300  1
  O  O23  1  0.38593600  0.38593600  0.32460100  1
  O  O24  1  0.18664200  0.66180800  0.46468300  1
  O  O25  1  0.80951100  0.33242400  0.53528400  1
  O  O26  1  0.47812600  0.47812600  0.60793900  1
  O  O27  1  0.33242400  0.80951100  0.53528400  1
  O  O28  1  0.61036900  0.61036900  0.67416900  1
  O  O29  1  0.94984000  0.47218100  0.60760600  1
  O  O30  1  0.47218100  0.94984000  0.60760600  1
  O  O31  1  0.76387100  0.76387100  0.75107700  1
  O  O32  1  0.09560700  0.61817800  0.67858900  1
  O  O33  1  0.61817800  0.09560700  0.67858900  1
  O  O34  1  0.89605300  0.89605300  0.81719900  1
  O  O35  1  0.23586500  0.75774300  0.75075100  1
  O  O36  1  0.75774300  0.23586500  0.75075100  1
  O  O37  1  0.04942400  0.04942400  0.89413700  1
  O  O38  1  0.38136700  0.90359400  0.82179000  1
  O  O39  1  0.90359400  0.38136700  0.82179000  1
  O  O40  1  0.18240500  0.18240500  0.96034400  1
  O  O41  1  0.52199000  0.04318600  0.89389400  1
  O  O42  1  0.04318600  0.52199000  0.89389400  1
  O  O43  1  0.66917100  0.18900000  0.96493500  1
  O  O44  1  0.18900000  0.66917100  0.96493500  1
loop_
_geom_bond_atom_site_label_1
_geom_bond_atom_site_label_2
_geom_bond_distance
_geom_bond_site_symmetry_2
Ga0 O3 1.922052 1_545
Ga0 O2 1.922052 1_455
Ga0 O0 1.938293 1_555
Ga0 O40 1.971109 1_554
Ga1 N10 1.943151 1_554
Ga1 O0 2.027168 1_555
Ga1 O3 2.034358 1_555
Ga1 O2 2.034358 1_555
Ga1 O44 2.077021 1_554
Ga1 O43 2.077021 1_554
Ga2 N0 1.934751 1_455
Ga2 O5 1.974074 1_455
Ga2 O1 2.001378 1_555
Ga2 O3 2.096817 1_555
Ga2 O8 2.097736 1_455
Ga2 O0 2.142594 1_555
Ga3 O9 1.830410 1_555
Ga3 O10 1.830410 1_555
Ga3 O4 1.917765 1_555
Ga3 O1 2.077471 1_555
Ga4 O5 1.943270 1_555
Ga4 O6 1.943270 1_555
Ga4 O1 1.980417 1_555
Ga4 O8 2.038867 1_555
Ga4 O2 2.125882 1_555
Ga4 O3 2.125882 1_555
Ga5 N1 1.963850 1_565
Ga5 O7 2.013035 1_555
Ga5 O15 2.040955 1_565
Ga5 O12 2.054565 1_555
Ga5 O10 2.055420 1_565
Ga5 O4 2.107977 1_555
Ga6 O7 1.817573 1_555
Ga6 O16 1.948419 1_555
Ga6 O17 1.948419 1_555
Ga6 O11 2.038362 1_555
Ga7 O9 1.856713 1_655
Ga7 O10 1.856713 1_565
Ga7 N0 1.952136 1_555
Ga7 O4 2.103618 1_555
Ga7 O5 2.418590 1_555
Ga7 O6 2.418590 1_555
Ga8 N0 1.934751 1_545
Ga8 O6 1.974074 1_545
Ga8 O1 2.001378 1_555
Ga8 O2 2.096817 1_555
Ga8 O8 2.097736 1_545
Ga8 O0 2.142594 1_555
Ga9 N2 1.967533 1_555
Ga9 O17 1.987533 1_555
Ga9 O23 2.034026 1_555
Ga9 O11 2.052906 1_545
Ga9 O14 2.081977 1_655
Ga9 O19 2.110293 1_555
Ga10 O15 1.813860 1_555
Ga10 N0 1.936332 1_445
Ga10 O6 1.956413 1_545
Ga10 O5 1.956413 1_455
Ga11 O14 1.903091 1_555
Ga11 O24 1.925037 1_545
Ga11 O22 1.925037 1_455
Ga11 O18 1.941059 1_555
Ga12 O13 1.892657 1_455
Ga12 O12 1.892657 1_545
Ga12 N1 1.963924 1_555
Ga12 O11 2.087894 1_445
Ga12 O16 2.287340 1_545
Ga12 O17 2.287340 1_455
Ga13 N1 1.963850 1_655
Ga13 O7 2.013035 1_555
Ga13 O15 2.040955 1_655
Ga13 O13 2.054565 1_555
Ga13 O9 2.055420 1_655
Ga13 O4 2.107977 1_555
Ga14 N4 1.974344 1_555
Ga14 N3 1.981142 1_555
Ga14 O22 2.035423 1_565
Ga14 O18 2.088898 1_565
Ga14 O21 2.109926 1_565
Ga14 O27 2.127958 1_555
Ga15 O23 1.961307 1_555
Ga15 O16 1.974555 1_545
Ga15 O17 1.974555 1_455
Ga15 O19 2.062619 1_555
Ga15 O20 2.062619 1_555
Ga15 O14 2.090121 1_555
Ga16 O13 1.846568 1_555
Ga16 O12 1.846568 1_555
Ga16 N1 1.878663 1_555
Ga16 O23 2.036076 1_555
Ga17 N2 1.931283 1_555
Ga17 O20 2.040910 1_555
Ga17 O19 2.040910 1_555
Ga17 O18 2.064823 1_555
Ga17 O22 2.087484 1_555
Ga17 O24 2.087484 1_555
Ga18 N4 1.974344 1_555
Ga18 N3 1.981142 1_555
Ga18 O24 2.035423 1_655
Ga18 O18 2.088898 1_655
Ga18 O21 2.109926 1_655
Ga18 O25 2.127958 1_555
Ga19 O21 1.930002 1_555
Ga19 O30 1.931604 1_545
Ga19 O29 1.931604 1_455
Ga19 O26 1.945010 1_555
Ga20 N2 1.967533 1_555
Ga20 O16 1.987533 1_555
Ga20 O23 2.034026 1_555
Ga20 O11 2.052906 1_455
Ga20 O14 2.081977 1_565
Ga20 O20 2.110293 1_555
Ga21 N3 1.946429 1_555
Ga21 O24 2.053468 1_555
Ga21 O22 2.053468 1_555
Ga21 O27 2.059900 1_555
Ga21 O25 2.059900 1_555
Ga21 O21 2.076883 1_555
Ga22 N5 1.971072 1_545
Ga22 N6 1.975165 1_655
Ga22 O29 2.044312 1_555
Ga22 O26 2.095661 1_555
Ga22 O28 2.103476 1_555
Ga22 O33 2.132050 1_555
Ga23 N5 1.971072 1_455
Ga23 N6 1.975165 1_565
Ga23 O30 2.044312 1_555
Ga23 O26 2.095661 1_555
Ga23 O28 2.103476 1_555
Ga23 O32 2.132050 1_555
Ga24 N2 1.905367 1_555
Ga24 N3 1.911563 1_555
Ga24 O19 1.967764 1_565
Ga24 O20 1.967764 1_655
Ga25 O36 1.930478 1_555
Ga25 O35 1.930478 1_555
Ga25 O28 1.936892 1_555
Ga25 O31 1.942582 1_555
Ga26 N4 1.937324 1_555
Ga26 O25 2.048201 1_555
Ga26 O27 2.048201 1_555
Ga26 O26 2.069847 1_555
Ga26 O30 2.077682 1_555
Ga26 O29 2.077682 1_555
Ga27 N5 1.938362 1_555
Ga27 O33 2.058668 1_565
Ga27 O32 2.058668 1_655
Ga27 O30 2.064277 1_555
Ga27 O29 2.064277 1_555
Ga27 O28 2.070131 1_555
Ga28 N4 1.891857 1_555
Ga28 N5 1.897501 1_555
Ga28 O27 1.954216 1_655
Ga28 O25 1.954216 1_565
Ga29 N7 1.969813 1_555
Ga29 N8 1.975902 1_555
Ga29 O36 2.045416 1_555
Ga29 O31 2.097057 1_545
Ga29 O34 2.100383 1_545
Ga29 O38 2.133547 1_545
Ga30 O42 1.929564 1_655
Ga30 O41 1.929564 1_565
Ga30 O34 1.936000 1_555
Ga30 O37 1.942565 1_665
Ga31 N6 1.937289 1_665
Ga31 O32 2.046164 1_655
Ga31 O33 2.046164 1_565
Ga31 O31 2.070543 1_555
Ga31 O36 2.077462 1_565
Ga31 O35 2.077462 1_655
Ga32 N7 1.937426 1_555
Ga32 O38 2.059760 1_545
Ga32 O39 2.059760 1_455
Ga32 O36 2.065200 1_455
Ga32 O35 2.065200 1_545
Ga32 O34 2.068641 1_445
Ga33 N9 1.971636 1_555
Ga33 N10 1.977348 1_555
Ga33 O42 2.047254 1_655
Ga33 O40 2.095486 1_655
Ga33 O37 2.100607 1_655
Ga33 O43 2.124403 1_555
Ga34 N6 1.889653 1_555
Ga34 N7 1.897548 1_555
Ga34 O33 1.951723 1_555
Ga34 O32 1.951723 1_555
Ga35 N8 1.937663 1_555
Ga35 O39 2.046463 1_455
Ga35 O38 2.046463 1_545
Ga35 O37 2.068178 1_555
Ga35 O42 2.078728 1_555
Ga35 O41 2.078728 1_555
Ga36 N7 1.969813 1_555
Ga36 N8 1.975902 1_555
Ga36 O35 2.045416 1_555
Ga36 O31 2.097057 1_455
Ga36 O34 2.100383 1_455
Ga36 O39 2.133547 1_455
Ga37 N9 1.937805 1_555
Ga37 O40 2.057289 1_555
Ga37 O43 2.064735 1_555
Ga37 O44 2.064735 1_555
Ga37 O41 2.069383 1_555
Ga37 O42 2.069383 1_555
Ga38 N8 1.890572 1_555
Ga38 N9 1.900435 1_555
Ga38 O39 1.952597 1_555
Ga38 O38 1.952597 1_555
Ga39 N9 1.971636 1_555
Ga39 N10 1.977348 1_555
Ga39 O41 2.047254 1_565
Ga39 O40 2.095486 1_565
Ga39 O37 2.100607 1_565
Ga39 O44 2.124403 1_555
Ga40 N10 1.874707 1_555
Ga40 O8 1.912726 1_556
Ga40 O44 1.919977 1_655
Ga40 O43 1.919977 1_565
