# generated using pymatgen
data_Ba3Bi2TeO9
_symmetry_space_group_name_H-M   'P 1'
_cell_length_a   6.26483589
_cell_length_b   6.26483589
_cell_length_c   15.05388500
_cell_angle_alpha   90.00000000
_cell_angle_beta   90.00000000
_cell_angle_gamma   119.99999884
_symmetry_Int_Tables_number   1
_chemical_formula_structural   Ba3Bi2TeO9
_chemical_formula_sum   'Ba6 Bi4 Te2 O18'
_cell_volume   511.68021996
_cell_formula_units_Z   2
loop_
 _symmetry_equiv_pos_site_id
 _symmetry_equiv_pos_as_xyz
  1  'x, y, z'
loop_
 _atom_site_type_symbol
 _atom_site_label
 _atom_site_symmetry_multiplicity
 _atom_site_fract_x
 _atom_site_fract_y
 _atom_site_fract_z
 _atom_site_occupancy
  Ba  Ba0  1  0.33333300  0.66666700  0.08197400  1
  Ba  Ba1  1  0.66666700  0.33333300  0.91802600  1
  Ba  Ba2  1  0.33333300  0.66666700  0.58197400  1
  Ba  Ba3  1  0.66666700  0.33333300  0.41802600  1
  Ba  Ba4  1  0.00000000  0.00000000  0.25000000  1
  Ba  Ba5  1  0.00000000  0.00000000  0.75000000  1
  Bi  Bi0  1  0.33333300  0.66666700  0.83280300  1
  Bi  Bi1  1  0.66666700  0.33333300  0.16719700  1
  Bi  Bi2  1  0.33333300  0.66666700  0.33280300  1
  Bi  Bi3  1  0.66666700  0.33333300  0.66719700  1
  Te  Te0  1  0.00000000  0.00000000  0.00000000  1
  Te  Te1  1  0.00000000  0.00000000  0.50000000  1
  O  O0  1  0.91756100  0.71012000  0.57499900  1
  O  O1  1  0.00000000  0.55629500  0.25000000  1
  O  O2  1  0.20744100  0.28988000  0.92500100  1
  O  O3  1  0.91756100  0.20744100  0.07499900  1
  O  O4  1  0.79255900  0.08243900  0.57499900  1
  O  O5  1  0.79255900  0.71012000  0.07499900  1
  O  O6  1  0.71012000  0.79255900  0.42500100  1
  O  O7  1  0.44370500  0.00000000  0.75000000  1
  O  O8  1  0.55629500  0.55629500  0.75000000  1
  O  O9  1  0.28988000  0.20744100  0.57499900  1
  O  O10  1  0.08243900  0.28988000  0.42500100  1
  O  O11  1  0.20744100  0.91756100  0.42500100  1
  O  O12  1  0.28988000  0.08243900  0.07499900  1
  O  O13  1  0.55629500  0.00000000  0.25000000  1
  O  O14  1  0.44370500  0.44370500  0.25000000  1
  O  O15  1  0.00000000  0.44370500  0.75000000  1
  O  O16  1  0.08243900  0.79255900  0.92500100  1
  O  O17  1  0.71012000  0.91756100  0.92500100  1
loop_
_geom_bond_atom_site_label_1
_geom_bond_atom_site_label_2
_geom_bond_distance
_geom_bond_site_symmetry_2
Ba0 O12 2.752980 1_565
Ba0 O3 2.752984 1_455
Ba0 O5 2.752986 1_555
Ba0 O1 3.129400 1_555
Ba0 O13 3.129400 1_565
Ba0 O14 3.129403 1_555
Ba0 O16 3.149019 1_554
Ba0 O17 3.149022 1_554
Ba0 O2 3.149023 1_554
Ba1 O17 2.752980 1_545
Ba1 O16 2.752984 1_655
Ba1 O2 2.752986 1_555
Ba1 O15 3.129400 1_655
Ba1 O7 3.129400 1_555
Ba1 O8 3.129403 1_555
Ba1 O3 3.149019 1_556
Ba1 O12 3.149022 1_556
Ba1 O5 3.149023 1_556
Ba2 O0 2.752980 1_455
Ba2 O4 2.752984 1_565
Ba2 O9 2.752986 1_555
Ba2 O7 3.129400 1_565
Ba2 O15 3.129400 1_555
Ba2 O8 3.129403 1_555
Ba2 O11 3.149019 1_555
Ba2 O10 3.149022 1_555
Ba2 O6 3.149023 1_555
Ba3 O10 2.752980 1_655
Ba3 O11 2.752984 1_545
Ba3 O6 2.752986 1_555
Ba3 O13 3.129400 1_555
Ba3 O1 3.129400 1_655
Ba3 O14 3.129403 1_555
Ba3 O4 3.149019 1_555
Ba3 O0 3.149022 1_555
Ba3 O9 3.149023 1_555
Ba4 O13 2.779739 1_455
Ba4 O1 2.779739 1_545
Ba4 O14 2.779739 1_555
Ba4 O11 3.093081 1_545
Ba4 O3 3.093081 1_455
Ba4 O10 3.093081 1_555
Ba4 O12 3.093081 1_555
Ba4 O6 3.093081 1_445
Ba4 O5 3.093081 1_445
Ba5 O7 2.779739 1_555
Ba5 O15 2.779739 1_555
Ba5 O8 2.779739 1_445
Ba5 O16 3.093081 1_545
Ba5 O4 3.093081 1_455
Ba5 O17 3.093081 1_445
Ba5 O0 3.093081 1_445
Ba5 O2 3.093081 1_555
Ba5 O9 3.093081 1_555
Bi0 O7 2.224597 1_565
Bi0 O15 2.224598 1_555
Bi0 O8 2.224602 1_555
Bi0 O16 2.501733 1_555
Bi0 O17 2.501737 1_555
Bi0 O2 2.501738 1_555
Bi1 O13 2.224597 1_555
Bi1 O1 2.224598 1_655
Bi1 O14 2.224602 1_555
Bi1 O3 2.501733 1_555
Bi1 O12 2.501737 1_555
Bi1 O5 2.501738 1_555
Bi2 O1 2.224597 1_555
Bi2 O13 2.224598 1_565
Bi2 O14 2.224602 1_555
Bi2 O11 2.501733 1_555
Bi2 O10 2.501737 1_555
Bi2 O6 2.501738 1_555
Bi3 O15 2.224597 1_655
Bi3 O7 2.224598 1_555
Bi3 O8 2.224602 1_555
Bi3 O4 2.501733 1_555
Bi3 O0 2.501737 1_555
Bi3 O9 2.501738 1_555
O0 Te1 1.975234 1_665
O2 Te0 1.975234 1_556
O3 Te0 1.975234 1_655
O4 Te1 1.975234 1_655
O5 Te0 1.975234 1_665
O6 Te1 1.975234 1_665
O9 Te1 1.975234 1_555
O10 Te1 1.975234 1_555
O11 Te1 1.975234 1_565
O12 Te0 1.975234 1_555
O16 Te0 1.975234 1_566
O17 Te0 1.975234 1_666
