# generated using pymatgen
data_Sr2Sc2B4O11
_symmetry_space_group_name_H-M   'P 1'
_cell_length_a   5.12904200
_cell_length_b   6.35125601
_cell_length_c   7.37256922
_cell_angle_alpha   101.74392662
_cell_angle_beta   89.18349283
_cell_angle_gamma   104.38256398
_symmetry_Int_Tables_number   1
_chemical_formula_structural   Sr2Sc2B4O11
_chemical_formula_sum   'Sr2 Sc2 B4 O11'
_cell_volume   227.60379653
_cell_formula_units_Z   1
loop_
 _symmetry_equiv_pos_site_id
 _symmetry_equiv_pos_as_xyz
  1  'x, y, z'
loop_
 _atom_site_type_symbol
 _atom_site_label
 _atom_site_symmetry_multiplicity
 _atom_site_fract_x
 _atom_site_fract_y
 _atom_site_fract_z
 _atom_site_occupancy
  Sr  Sr0  1  0.22281000  0.80548400  0.16327700  1
  Sr  Sr1  1  0.77719000  0.19451600  0.83672300  1
  Sc  Sc0  1  0.18589800  0.71806600  0.64646100  1
  Sc  Sc1  1  0.81410200  0.28193400  0.35353900  1
  B  B0  1  0.72089300  0.78039900  0.39352200  1
  B  B1  1  0.35380100  0.34411400  0.10187700  1
  B  B2  1  0.64619900  0.65588600  0.89812300  1
  B  B3  1  0.27910700  0.21960100  0.60647800  1
  O  O0  1  0.88738600  0.64432600  0.42345800  1
  O  O1  1  0.90925900  0.65820300  0.86707100  1
  O  O2  1  0.54089000  0.25528000  0.55682200  1
  O  O3  1  0.45911000  0.74472000  0.44317800  1
  O  O4  1  0.50000000  0.50000000  0.00000000  1
  O  O5  1  0.50757000  0.79432500  0.84712200  1
  O  O6  1  0.11261400  0.35567400  0.57654200  1
  O  O7  1  0.82601900  0.94818100  0.29730700  1
  O  O8  1  0.09074100  0.34179700  0.13292900  1
  O  O9  1  0.17398100  0.05181900  0.70269300  1
  O  O10  1  0.49243000  0.20567500  0.15287800  1
loop_
_geom_bond_atom_site_label_1
_geom_bond_atom_site_label_2
_geom_bond_distance
_geom_bond_site_symmetry_2
B0 O3 1.362649 1_555
B0 O7 1.393138 1_555
B0 O0 1.405168 1_555
B1 O8 1.362276 1_555
B1 O10 1.368518 1_555
B1 O4 1.422856 1_555
B2 O1 1.362276 1_555
B2 O5 1.368518 1_555
B2 O4 1.422856 1_556
B3 O2 1.362649 1_555
B3 O9 1.393138 1_555
B3 O6 1.405168 1_555
O0 Sc0 2.160716 1_655
O0 Sc1 2.190280 1_555
O0 Sr0 2.741776 1_655
O1 Sc0 2.172820 1_655
O1 Sr0 2.598371 1_656
O1 Sr1 2.815484 1_555
O2 Sc1 2.040606 1_555
O2 Sr1 2.550316 1_555
O3 Sc0 2.040606 1_555
O3 Sr0 2.550316 1_555
O4 Sr1 2.757823 1_554
O4 Sr0 2.757823 1_555
O5 Sc0 2.127472 1_555
O5 Sr1 2.590118 1_565
O5 Sr0 2.730997 1_556
O6 Sc1 2.160716 1_455
O6 Sc0 2.190280 1_555
O6 Sr1 2.741776 1_455
O7 Sc1 2.091616 1_565
O7 Sr0 2.536558 1_655
O7 Sr0 3.114404 1_555
O8 Sc1 2.172820 1_455
O8 Sr1 2.598371 1_454
O8 Sr0 2.815484 1_555
O9 Sc0 2.091616 1_545
O9 Sr1 2.536558 1_455
O9 Sr1 3.114404 1_555
O10 Sc1 2.127472 1_555
O10 Sr0 2.590118 1_545
O10 Sr1 2.730997 1_554
