# generated using pymatgen
data_K2Te(WO4)3
_symmetry_space_group_name_H-M   'P 1'
_cell_length_a   7.40762400
_cell_length_b   11.99203200
_cell_length_c   12.85770400
_cell_angle_alpha   90.00000000
_cell_angle_beta   90.00000000
_cell_angle_gamma   90.00000000
_symmetry_Int_Tables_number   1
_chemical_formula_structural   K2Te(WO4)3
_chemical_formula_sum   'K8 Te4 W12 O48'
_cell_volume   1142.18152837
_cell_formula_units_Z   4
loop_
 _symmetry_equiv_pos_site_id
 _symmetry_equiv_pos_as_xyz
  1  'x, y, z'
loop_
 _atom_site_type_symbol
 _atom_site_label
 _atom_site_symmetry_multiplicity
 _atom_site_fract_x
 _atom_site_fract_y
 _atom_site_fract_z
 _atom_site_occupancy
  K  K0  1  0.25000000  0.04458900  0.58331600  1
  K  K1  1  0.25000000  0.54458900  0.91668400  1
  K  K2  1  0.25000000  0.43719900  0.61686400  1
  K  K3  1  0.25000000  0.93719900  0.88313600  1
  K  K4  1  0.75000000  0.06280100  0.11686400  1
  K  K5  1  0.75000000  0.95541100  0.41668400  1
  K  K6  1  0.75000000  0.45541100  0.08331600  1
  K  K7  1  0.75000000  0.56280100  0.38313600  1
  Te  Te0  1  0.75000000  0.50589300  0.80025400  1
  Te  Te1  1  0.25000000  0.49410700  0.19974600  1
  Te  Te2  1  0.25000000  0.99410700  0.30025400  1
  Te  Te3  1  0.75000000  0.00589300  0.69974600  1
  W  W0  1  0.49783400  0.75283700  0.67037000  1
  W  W1  1  0.50216600  0.74716300  0.17037000  1
  W  W2  1  0.75000000  0.79524000  0.92152600  1
  W  W3  1  0.49783400  0.25283700  0.82963000  1
  W  W4  1  0.00216600  0.25283700  0.82963000  1
  W  W5  1  0.00216600  0.75283700  0.67037000  1
  W  W6  1  0.99783400  0.24716300  0.32963000  1
  W  W7  1  0.99783400  0.74716300  0.17037000  1
  W  W8  1  0.75000000  0.29524000  0.57847400  1
  W  W9  1  0.50216600  0.24716300  0.32963000  1
  W  W10  1  0.25000000  0.70476000  0.42152600  1
  W  W11  1  0.25000000  0.20476000  0.07847400  1
  O  O0  1  0.75000000  0.44110900  0.55348900  1
  O  O1  1  0.93766100  0.42068600  0.86752000  1
  O  O2  1  0.93766100  0.92068600  0.63248000  1
  O  O3  1  0.95178900  0.88757300  0.21219500  1
  O  O4  1  0.75000000  0.11811700  0.59661000  1
  O  O5  1  0.25000000  0.38188300  0.09661000  1
  O  O6  1  0.56440300  0.76217500  0.02744300  1
  O  O7  1  0.06583300  0.19707000  0.18587200  1
  O  O8  1  0.25000000  0.77653200  0.14487500  1
  O  O9  1  0.75000000  0.72346800  0.64487500  1
  O  O10  1  0.06233900  0.07931400  0.36752000  1
  O  O11  1  0.25000000  0.55889100  0.44651100  1
  O  O12  1  0.93559700  0.76217500  0.02744300  1
  O  O13  1  0.25000000  0.05889100  0.05348900  1
  O  O14  1  0.54821100  0.38757300  0.28780500  1
  O  O15  1  0.43559700  0.73782500  0.52744300  1
  O  O16  1  0.25000000  0.27653200  0.35512500  1
  O  O17  1  0.75000000  0.61811700  0.90339000  1
  O  O18  1  0.43766100  0.57931400  0.13248000  1
  O  O19  1  0.43559700  0.23782500  0.97255700  1
  O  O20  1  0.06583300  0.69707000  0.31412800  1
  O  O21  1  0.56583300  0.30293000  0.68587200  1
  O  O22  1  0.25000000  0.30885300  0.80248800  1
  O  O23  1  0.56233900  0.42068600  0.86752000  1
  O  O24  1  0.45178900  0.61242700  0.71219500  1
  O  O25  1  0.75000000  0.94110900  0.94651100  1
  O  O26  1  0.75000000  0.22346800  0.85512500  1
  O  O27  1  0.75000000  0.69114700  0.19751200  1
  O  O28  1  0.43766100  0.07931400  0.36752000  1
  O  O29  1  0.04821100  0.11242700  0.78780500  1
  O  O30  1  0.45178900  0.11242700  0.78780500  1
  O  O31  1  0.43416700  0.69707000  0.31412800  1
  O  O32  1  0.06440300  0.73782500  0.52744300  1
  O  O33  1  0.56233900  0.92068600  0.63248000  1
  O  O34  1  0.06233900  0.57931400  0.13248000  1
  O  O35  1  0.25000000  0.88188300  0.40339000  1
  O  O36  1  0.93416700  0.80293000  0.81412800  1
  O  O37  1  0.04821100  0.61242700  0.71219500  1
  O  O38  1  0.93416700  0.30293000  0.68587200  1
  O  O39  1  0.25000000  0.80885300  0.69751200  1
  O  O40  1  0.43416700  0.19707000  0.18587200  1
  O  O41  1  0.56440300  0.26217500  0.47255700  1
  O  O42  1  0.95178900  0.38757300  0.28780500  1
  O  O43  1  0.75000000  0.19114700  0.30248800  1
  O  O44  1  0.06440300  0.23782500  0.97255700  1
  O  O45  1  0.93559700  0.26217500  0.47255700  1
  O  O46  1  0.54821100  0.88757300  0.21219500  1
  O  O47  1  0.56583300  0.80293000  0.81412800  1
loop_
_geom_bond_atom_site_label_1
_geom_bond_atom_site_label_2
_geom_bond_distance
_geom_bond_site_symmetry_2
K0 O33 2.821436 1_545
K0 O2 2.821436 1_445
K0 O35 3.026395 1_545
K0 O28 3.131211 1_555
K0 O10 3.131211 1_555
K0 O30 3.131959 1_555
K0 O29 3.131959 1_555
K0 O39 3.185525 1_545
K1 O1 2.821436 1_455
K1 O23 2.821436 1_555
K1 O5 3.026395 1_556
K1 O34 3.131211 1_556
K1 O18 3.131211 1_556
K1 O37 3.131959 1_555
K1 O24 3.131959 1_555
K1 O22 3.185525 1_555
K2 O11 2.631973 1_555
K2 O22 2.839938 1_555
K2 O24 2.855244 1_555
K2 O37 2.855244 1_555
K2 O21 2.975480 1_555
K2 O38 2.975480 1_455
K3 O13 2.631973 1_566
K3 O39 2.839938 1_555
K3 O29 2.855244 1_565
K3 O30 2.855244 1_565
K3 O47 2.975480 1_555
K3 O36 2.975480 1_455
K4 O25 2.631973 1_544
K4 O43 2.839938 1_555
K4 O46 2.855244 1_545
K4 O3 2.855244 1_545
K4 O40 2.975480 1_555
K4 O7 2.975480 1_655
K5 O10 2.821436 1_665
K5 O28 2.821436 1_565
K5 O4 3.026395 1_565
K5 O33 3.131211 1_555
K5 O2 3.131211 1_555
K5 O46 3.131959 1_555
K5 O3 3.131959 1_555
K5 O43 3.185525 1_565
K6 O34 2.821436 1_655
K6 O18 2.821436 1_555
K6 O17 3.026395 1_554
K6 O23 3.131211 1_554
K6 O1 3.131211 1_554
K6 O14 3.131959 1_555
K6 O42 3.131959 1_555
K6 O27 3.185525 1_555
K7 O0 2.631973 1_555
K7 O27 2.839938 1_555
K7 O14 2.855244 1_555
K7 O42 2.855244 1_555
K7 O31 2.975480 1_555
K7 O20 2.975480 1_655
O0 W8 1.778520 1_555
O1 Te0 1.929910 1_555
O1 W4 2.125378 1_655
O2 Te3 1.929910 1_565
O2 W5 2.125378 1_655
O3 W7 1.800201 1_555
O4 Te3 1.889360 1_555
O4 W8 2.136826 1_555
O5 Te1 1.889360 1_555
O5 W11 2.136826 1_555
O6 W1 1.903193 1_555
O6 W2 1.975354 1_554
O7 W11 1.943326 1_555
O7 W6 2.007775 1_455
O8 W7 1.928922 1_455
O8 W1 1.928922 1_555
O9 W5 1.928922 1_655
O9 W0 1.928922 1_555
O10 Te2 1.929910 1_545
O10 W6 2.125378 1_455
O11 W10 1.778520 1_555
O12 W7 1.903193 1_555
O12 W2 1.975354 1_554
O13 W11 1.778520 1_555
O14 W9 1.800201 1_555
O15 W0 1.903193 1_555
O15 W10 1.975354 1_555
O16 W9 1.928922 1_555
O16 W6 1.928922 1_455
O17 Te0 1.889360 1_555
O17 W2 2.136826 1_555
O18 Te1 1.929910 1_555
O18 W1 2.125378 1_555
O19 W3 1.903193 1_555
O19 W11 1.975354 1_556
O20 W10 1.943326 1_555
O20 W7 2.007775 1_455
O21 W8 1.943326 1_555
O21 W3 2.007775 1_555
O22 W4 1.985804 1_555
O22 W3 1.985804 1_555
O23 Te0 1.929910 1_555
O23 W3 2.125378 1_555
O24 W0 1.800201 1_555
O25 W2 1.778520 1_555
O26 W4 1.928922 1_655
O26 W3 1.928922 1_555
O27 W7 1.985804 1_555
O27 W1 1.985804 1_555
O28 Te2 1.929910 1_545
O28 W9 2.125378 1_555
O29 W4 1.800201 1_555
O30 W3 1.800201 1_555
O31 W10 1.943326 1_555
O31 W1 2.007775 1_555
O32 W5 1.903193 1_555
O32 W10 1.975354 1_555
O33 Te3 1.929910 1_565
O33 W0 2.125378 1_555
O34 Te1 1.929910 1_555
O34 W7 2.125378 1_455
O35 Te2 1.889360 1_555
O35 W10 2.136826 1_555
O36 W2 1.943326 1_555
O36 W5 2.007775 1_655
O37 W5 1.800201 1_555
O38 W8 1.943326 1_555
O38 W4 2.007775 1_655
O39 W5 1.985804 1_555
O39 W0 1.985804 1_555
O40 W11 1.943326 1_555
O40 W9 2.007775 1_555
O41 W9 1.903193 1_555
O41 W8 1.975354 1_555
O42 W6 1.800201 1_555
O43 W9 1.985804 1_555
O43 W6 1.985804 1_555
O44 W4 1.903193 1_555
O44 W11 1.975354 1_556
O45 W6 1.903193 1_555
O45 W8 1.975354 1_555
O46 W1 1.800201 1_555
O47 W2 1.943326 1_555
O47 W0 2.007775 1_555
