# generated using pymatgen
data_Y3Ni13B2
_symmetry_space_group_name_H-M   'P 1'
_cell_length_a   4.93260678
_cell_length_b   4.93260678
_cell_length_c   10.85195800
_cell_angle_alpha   90.00000000
_cell_angle_beta   90.00000000
_cell_angle_gamma   120.00001042
_symmetry_Int_Tables_number   1
_chemical_formula_structural   Y3Ni13B2
_chemical_formula_sum   'Y3 Ni13 B2'
_cell_volume   228.66078015
_cell_formula_units_Z   1
loop_
 _symmetry_equiv_pos_site_id
 _symmetry_equiv_pos_as_xyz
  1  'x, y, z'
loop_
 _atom_site_type_symbol
 _atom_site_label
 _atom_site_symmetry_multiplicity
 _atom_site_fract_x
 _atom_site_fract_y
 _atom_site_fract_z
 _atom_site_occupancy
  Y  Y0  1  0.00000000  0.00000000  0.67169800  1
  Y  Y1  1  0.00000000  0.00000000  0.32830200  1
  Y  Y2  1  0.00000000  0.00000000  0.00000000  1
  Ni  Ni0  1  0.50000000  0.50000000  0.86622100  1
  Ni  Ni1  1  0.50000000  0.00000000  0.86622100  1
  Ni  Ni2  1  0.00000000  0.50000000  0.86622100  1
  Ni  Ni3  1  0.50000000  0.50000000  0.13377900  1
  Ni  Ni4  1  0.50000000  0.00000000  0.13377900  1
  Ni  Ni5  1  0.00000000  0.50000000  0.13377900  1
  Ni  Ni6  1  0.66666700  0.33333300  0.68172700  1
  Ni  Ni7  1  0.33333300  0.66666700  0.68172700  1
  Ni  Ni8  1  0.33333300  0.66666700  0.31827300  1
  Ni  Ni9  1  0.66666700  0.33333300  0.31827300  1
  Ni  Ni10  1  0.50000000  0.50000000  0.50000000  1
  Ni  Ni11  1  0.50000000  0.00000000  0.50000000  1
  Ni  Ni12  1  0.00000000  0.50000000  0.50000000  1
  B  B0  1  0.66666700  0.33333300  0.00000000  1
  B  B1  1  0.33333300  0.66666700  0.00000000  1
loop_
_geom_bond_atom_site_label_1
_geom_bond_atom_site_label_2
_geom_bond_distance
_geom_bond_site_symmetry_2
Ni0 Ni6 2.456837 1_555
Ni0 Ni7 2.456837 1_555
Ni0 Y2 2.861865 1_666
Ni0 Y2 2.861865 1_556
Ni0 Y0 3.246349 1_555
Ni0 Y0 3.246349 1_665
Ni1 Ni6 2.456834 1_555
Ni1 Ni7 2.456834 1_545
Ni1 Y2 2.861865 1_556
Ni1 Y2 2.861865 1_656
Ni1 Y0 3.246350 1_655
Ni1 Y0 3.246350 1_555
Ni2 Ni6 2.456834 1_455
Ni2 Ni7 2.456834 1_555
Ni2 Y2 2.861865 1_556
Ni2 Y2 2.861865 1_566
Ni2 Y0 3.246350 1_555
Ni2 Y0 3.246350 1_565
Ni3 Ni8 2.456837 1_555
Ni3 Ni9 2.456837 1_555
Ni3 Y2 2.861865 1_665
Ni3 Y2 2.861865 1_555
Ni3 Y1 3.246349 1_665
Ni3 Y1 3.246349 1_555
Ni4 Ni8 2.456834 1_545
Ni4 Ni9 2.456834 1_555
Ni4 Y2 2.861865 1_655
Ni4 Y2 2.861865 1_555
Ni4 Y1 3.246350 1_555
Ni4 Y1 3.246350 1_655
Ni5 Ni8 2.456834 1_555
Ni5 Ni9 2.456834 1_455
Ni5 Y2 2.861865 1_565
Ni5 Y2 2.861865 1_555
Ni5 Y1 3.246350 1_555
Ni5 Y1 3.246350 1_565
Ni6 Y0 2.849918 1_655
Ni6 Y0 2.849922 1_555
Ni6 Y0 2.849922 1_665
Ni7 Y0 2.849918 1_565
Ni7 Y0 2.849922 1_555
Ni7 Y0 2.849922 1_665
Ni8 Y1 2.849918 1_565
Ni8 Y1 2.849922 1_665
Ni8 Y1 2.849922 1_555
Ni9 Y1 2.849918 1_655
Ni9 Y1 2.849922 1_665
Ni9 Y1 2.849922 1_555
Ni10 Ni6 2.432429 1_555
Ni10 Ni7 2.432429 1_555
Ni10 Ni8 2.432429 1_555
Ni10 Ni9 2.432429 1_555
Ni10 Ni12 2.466303 1_555
Ni10 Ni11 2.466303 1_565
Ni10 Ni12 2.466303 1_655
Ni10 Ni11 2.466303 1_555
Ni10 Y1 3.091017 1_665
Ni10 Y1 3.091017 1_555
Ni10 Y0 3.091017 1_555
Ni10 Y0 3.091017 1_665
Ni11 Ni6 2.432427 1_555
Ni11 Ni7 2.432427 1_545
Ni11 Ni8 2.432427 1_545
Ni11 Ni9 2.432427 1_555
Ni11 Ni12 2.466303 1_655
Ni11 Ni12 2.466303 1_545
Ni11 Y0 3.091017 1_655
Ni11 Y1 3.091017 1_555
Ni11 Y1 3.091017 1_655
Ni11 Y0 3.091017 1_555
Ni12 Ni6 2.432427 1_455
Ni12 Ni7 2.432427 1_555
Ni12 Ni8 2.432427 1_555
Ni12 Ni9 2.432427 1_455
Ni12 Y1 3.091017 1_565
Ni12 Y1 3.091017 1_555
Ni12 Y0 3.091017 1_555
Ni12 Y0 3.091017 1_565
B0 Ni2 2.033511 1_654
B0 Ni4 2.033511 1_555
B0 Ni1 2.033511 1_554
B0 Ni5 2.033511 1_655
B0 Ni0 2.033514 1_554
B0 Ni3 2.033514 1_555
B0 Y2 2.847839 1_655
B0 Y2 2.847843 1_665
B0 Y2 2.847843 1_555
B1 Ni1 2.033511 1_564
B1 Ni5 2.033511 1_555
B1 Ni2 2.033511 1_554
B1 Ni4 2.033511 1_565
B1 Ni0 2.033514 1_554
B1 Ni3 2.033514 1_555
B1 Y2 2.847839 1_565
B1 Y2 2.847843 1_665
B1 Y2 2.847843 1_555
