# generated using pymatgen
data_Dy(NiP)2
_symmetry_space_group_name_H-M   'P 1'
_cell_length_a   3.85349050
_cell_length_b   3.85349055
_cell_length_c   5.39456466
_cell_angle_alpha   110.92614323
_cell_angle_beta   110.92614677
_cell_angle_gamma   89.99998423
_symmetry_Int_Tables_number   1
_chemical_formula_structural   Dy(NiP)2
_chemical_formula_sum   'Dy1 Ni2 P2'
_cell_volume   69.13603930
_cell_formula_units_Z   1
loop_
 _symmetry_equiv_pos_site_id
 _symmetry_equiv_pos_as_xyz
  1  'x, y, z'
loop_
 _atom_site_type_symbol
 _atom_site_label
 _atom_site_symmetry_multiplicity
 _atom_site_fract_x
 _atom_site_fract_y
 _atom_site_fract_z
 _atom_site_occupancy
  Dy  Dy0  1  -0.00000000  -0.00000000  -0.00000000  1
  Ni  Ni0  1  0.75000000  0.25000000  0.50000000  1
  Ni  Ni1  1  0.25000000  0.75000000  0.50000000  1
  P  P0  1  0.62352172  0.62352172  0.24704543  1
  P  P1  1  0.37647728  0.37647728  0.75295457  1
loop_
_geom_bond_atom_site_label_1
_geom_bond_atom_site_label_2
_geom_bond_distance
_geom_bond_site_symmetry_2
Dy0 P0 2.957638 1_555
Dy0 P1 2.957642 1_454
Dy0 P0 2.957642 1_545
Dy0 P1 2.957642 1_544
Dy0 P0 2.957642 1_455
Dy0 P1 2.957643 1_554
Dy0 P1 2.957643 1_444
Dy0 P0 2.957648 1_445
Dy0 Ni1 3.021838 1_545
Dy0 Ni0 3.021838 1_454
Dy0 Ni0 3.021838 1_555
Dy0 Ni1 3.021838 1_444
Dy0 Ni1 3.021838 1_544
Dy0 Ni0 3.021838 1_455
Dy0 Ni1 3.021838 1_555
Dy0 Ni0 3.021838 1_444
Ni0 P0 2.258170 1_555
Ni0 P1 2.258174 1_655
Ni0 P1 2.258174 1_555
Ni0 P0 2.258177 1_545
Ni1 P0 2.258170 1_555
Ni1 P1 2.258174 1_555
Ni1 P1 2.258174 1_565
Ni1 P0 2.258177 1_455
P0 P1 2.300397 1_554
