# generated using pymatgen
data_NaNiAsO4
_symmetry_space_group_name_H-M   'P 1'
_cell_length_a   5.02594167
_cell_length_b   9.35883506
_cell_length_c   8.70537084
_cell_angle_alpha   108.06273675
_cell_angle_beta   90.00062737
_cell_angle_gamma   90.00053422
_symmetry_Int_Tables_number   1
_chemical_formula_structural   NaNiAsO4
_chemical_formula_sum   'Na4 Ni4 As4 O16'
_cell_volume   389.29429599
_cell_formula_units_Z   4
loop_
 _symmetry_equiv_pos_site_id
 _symmetry_equiv_pos_as_xyz
  1  'x, y, z'
loop_
 _atom_site_type_symbol
 _atom_site_label
 _atom_site_symmetry_multiplicity
 _atom_site_fract_x
 _atom_site_fract_y
 _atom_site_fract_z
 _atom_site_occupancy
  Na  Na0  1  0.50000000  0.13803100  0.21267900  1
  Na  Na1  1  0.00000000  0.13803100  0.71267800  1
  Na  Na2  1  0.50000000  0.86196900  0.78732200  1
  Na  Na3  1  0.00000000  0.86196900  0.28732100  1
  Ni  Ni0  1  0.50000200  0.50730400  0.33577100  1
  Ni  Ni1  1  0.99999800  0.49269600  0.16422900  1
  Ni  Ni2  1  0.00000300  0.50730300  0.83577000  1
  Ni  Ni3  1  0.49999700  0.49269700  0.66423000  1
  As  As0  1  0.49999500  0.30169400  0.93390200  1
  As  As1  1  0.99999600  0.30169500  0.43390000  1
  As  As2  1  0.50000400  0.69830500  0.06610000  1
  As  As3  1  0.00000500  0.69830600  0.56609800  1
  O  O0  1  0.50000200  0.11267000  0.87089000  1
  O  O1  1  0.00000200  0.11267100  0.37089200  1
  O  O2  1  0.49999800  0.88732900  0.12910800  1
  O  O3  1  0.99999800  0.88733000  0.62911000  1
  O  O4  1  0.17026000  0.36296600  0.94928600  1
  O  O5  1  0.67025900  0.36296500  0.44928700  1
  O  O6  1  0.82974100  0.63703500  0.05071300  1
  O  O7  1  0.32974000  0.63703400  0.55071400  1
  O  O8  1  0.65731900  0.36297100  0.12171300  1
  O  O9  1  0.15731800  0.36297100  0.62171500  1
  O  O10  1  0.67242400  0.36297100  0.79196900  1
  O  O11  1  0.17242400  0.36297200  0.29197100  1
  O  O12  1  0.32757600  0.63702800  0.20802900  1
  O  O13  1  0.82757600  0.63702900  0.70803100  1
  O  O14  1  0.34268200  0.63702800  0.87828500  1
  O  O15  1  0.84268100  0.63702900  0.37828700  1
loop_
_geom_bond_atom_site_label_1
_geom_bond_atom_site_label_2
_geom_bond_distance
_geom_bond_site_symmetry_2
Na0 O2 2.230648 1_545
Na0 O5 2.591807 1_555
Na0 O8 2.591871 1_555
Na0 O11 2.591874 1_555
Na0 O1 2.910500 1_655
Na0 O1 2.910505 1_555
Na0 O0 2.910568 1_554
Na1 O3 2.230639 1_445
Na1 O4 2.591814 1_555
Na1 O9 2.591854 1_555
Na1 O10 2.591867 1_455
Na1 O0 2.910498 1_555
Na1 O0 2.910503 1_455
Na1 O1 2.910544 1_555
Na2 O0 2.230639 1_565
Na2 O7 2.591814 1_555
Na2 O14 2.591863 1_555
Na2 O13 2.591867 1_555
Na2 O3 2.910498 1_455
Na2 O3 2.910503 1_555
Na2 O2 2.910544 1_556
Na3 O1 2.230648 1_565
Na3 O6 2.591807 1_455
Na3 O15 2.591871 1_455
Na3 O12 2.591874 1_555
Na3 O2 2.910500 1_455
Na3 O2 2.910505 1_555
Na3 O3 2.910568 1_455
Ni0 O15 2.073289 1_555
Ni0 O12 2.073356 1_555
Ni0 O7 2.073369 1_555
Ni0 O11 2.088334 1_555
Ni0 O5 2.088383 1_555
Ni0 O8 2.088392 1_555
Ni1 O8 2.073289 1_555
Ni1 O11 2.073356 1_655
Ni1 O4 2.073369 1_654
Ni1 O12 2.088334 1_655
Ni1 O6 2.088383 1_555
Ni1 O15 2.088392 1_555
Ni2 O14 2.073289 1_555
Ni2 O13 2.073353 1_455
Ni2 O6 2.073375 1_456
Ni2 O10 2.088338 1_455
Ni2 O9 2.088367 1_555
Ni2 O4 2.088368 1_555
Ni3 O9 2.073294 1_555
Ni3 O10 2.073353 1_555
Ni3 O5 2.073375 1_555
Ni3 O13 2.088338 1_555
Ni3 O14 2.088363 1_555
Ni3 O7 2.088368 1_555
As0 O0 1.681862 1_555
As0 O4 1.745156 1_555
As0 O8 1.745201 1_556
As0 O10 1.745274 1_555
As1 O1 1.681862 1_655
As1 O5 1.745159 1_555
As1 O9 1.745225 1_655
As1 O11 1.745243 1_655
As2 O2 1.681862 1_555
As2 O6 1.745159 1_555
As2 O14 1.745226 1_554
As2 O12 1.745243 1_555
As3 O3 1.681862 1_455
As3 O7 1.745156 1_555
As3 O15 1.745201 1_455
As3 O13 1.745274 1_455
