# generated using pymatgen
data_Ba(FeO2)2
_symmetry_space_group_name_H-M   'P 1'
_cell_length_a   9.58301000
_cell_length_b   11.06365700
_cell_length_c   17.64984800
_cell_angle_alpha   90.00000000
_cell_angle_beta   90.00000000
_cell_angle_gamma   90.00000000
_symmetry_Int_Tables_number   1
_chemical_formula_structural   Ba(FeO2)2
_chemical_formula_sum   'Ba16 Fe32 O64'
_cell_volume   1871.29222902
_cell_formula_units_Z   16
loop_
 _symmetry_equiv_pos_site_id
 _symmetry_equiv_pos_as_xyz
  1  'x, y, z'
loop_
 _atom_site_type_symbol
 _atom_site_label
 _atom_site_symmetry_multiplicity
 _atom_site_fract_x
 _atom_site_fract_y
 _atom_site_fract_z
 _atom_site_occupancy
  Ba  Ba0  1  0.72162600  0.14387900  0.25000000  1
  Ba  Ba1  1  0.22162600  0.35612100  0.75000000  1
  Ba  Ba2  1  0.28022700  0.38197400  0.98761200  1
  Ba  Ba3  1  0.21977300  0.88197400  0.98761200  1
  Ba  Ba4  1  0.76100200  0.61594800  0.75000000  1
  Ba  Ba5  1  0.78022700  0.11802600  0.01238800  1
  Ba  Ba6  1  0.77837400  0.64387900  0.25000000  1
  Ba  Ba7  1  0.21977300  0.88197400  0.51238800  1
  Ba  Ba8  1  0.28022700  0.38197400  0.51238800  1
  Ba  Ba9  1  0.71977300  0.61802600  0.48761200  1
  Ba  Ba10  1  0.73899800  0.11594800  0.75000000  1
  Ba  Ba11  1  0.27837400  0.85612100  0.75000000  1
  Ba  Ba12  1  0.26100200  0.88405200  0.25000000  1
  Ba  Ba13  1  0.71977300  0.61802600  0.01238800  1
  Ba  Ba14  1  0.23899800  0.38405200  0.25000000  1
  Ba  Ba15  1  0.78022700  0.11802600  0.48761200  1
  Fe  Fe0  1  0.08948900  0.63324500  0.40625600  1
  Fe  Fe1  1  0.90936700  0.39098700  0.38644800  1
  Fe  Fe2  1  0.08948900  0.63324500  0.09374400  1
  Fe  Fe3  1  0.40936700  0.10901300  0.88644800  1
  Fe  Fe4  1  0.08998600  0.13736700  0.14754200  1
  Fe  Fe5  1  0.90936700  0.39098700  0.11355200  1
  Fe  Fe6  1  0.59063300  0.89098700  0.38644800  1
  Fe  Fe7  1  0.41051100  0.13324500  0.09374400  1
  Fe  Fe8  1  0.41001400  0.63736700  0.35245800  1
  Fe  Fe9  1  0.59063300  0.89098700  0.11355200  1
  Fe  Fe10  1  0.40936700  0.10901300  0.61355200  1
  Fe  Fe11  1  0.56894300  0.38167900  0.35173400  1
  Fe  Fe12  1  0.58998600  0.36263300  0.64754200  1
  Fe  Fe13  1  0.91001400  0.86263300  0.85245800  1
  Fe  Fe14  1  0.41001400  0.63736700  0.14754200  1
  Fe  Fe15  1  0.43105700  0.61832100  0.64826600  1
  Fe  Fe16  1  0.41051100  0.13324500  0.40625600  1
  Fe  Fe17  1  0.06894300  0.11832100  0.85173400  1
  Fe  Fe18  1  0.56894300  0.38167900  0.14826600  1
  Fe  Fe19  1  0.58948900  0.86675500  0.90625600  1
  Fe  Fe20  1  0.09063300  0.60901300  0.88644800  1
  Fe  Fe21  1  0.91051100  0.36675500  0.59374400  1
  Fe  Fe22  1  0.08998600  0.13736700  0.35245800  1
  Fe  Fe23  1  0.93105700  0.88167900  0.14826600  1
  Fe  Fe24  1  0.91051100  0.36675500  0.90625600  1
  Fe  Fe25  1  0.09063300  0.60901300  0.61355200  1
  Fe  Fe26  1  0.58948900  0.86675500  0.59374400  1
  Fe  Fe27  1  0.06894300  0.11832100  0.64826600  1
  Fe  Fe28  1  0.93105700  0.88167900  0.35173400  1
  Fe  Fe29  1  0.43105700  0.61832100  0.85173400  1
  Fe  Fe30  1  0.58998600  0.36263300  0.85245800  1
  Fe  Fe31  1  0.91001400  0.86263300  0.64754200  1
  O  O0  1  0.12577600  0.59732800  0.50899500  1
  O  O1  1  0.93531400  0.51513700  0.64675500  1
  O  O2  1  0.37422400  0.09732800  0.50899500  1
  O  O3  1  0.06468600  0.48486300  0.14675500  1
  O  O4  1  0.56468600  0.01513700  0.85324500  1
  O  O5  1  0.75041900  0.77014400  0.88215000  1
  O  O6  1  0.56035600  0.51396500  0.90227600  1
  O  O7  1  0.02109100  0.16166500  0.75000000  1
  O  O8  1  0.37422400  0.09732800  0.99100500  1
  O  O9  1  0.57853300  0.22678500  0.39942800  1
  O  O10  1  0.24958100  0.22985600  0.38215000  1
  O  O11  1  0.12733400  0.10235600  0.25000000  1
  O  O12  1  0.43531400  0.98486300  0.14675500  1
  O  O13  1  0.41851900  0.27544500  0.64060600  1
  O  O14  1  0.74958100  0.27014400  0.61785000  1
  O  O15  1  0.74958100  0.27014400  0.88215000  1
  O  O16  1  0.41851900  0.27544500  0.85939400  1
  O  O17  1  0.91851900  0.22455500  0.35939400  1
  O  O18  1  0.52109100  0.33833500  0.25000000  1
  O  O19  1  0.58148100  0.72455500  0.35939400  1
  O  O20  1  0.74238400  0.46526300  0.34916200  1
  O  O21  1  0.24958100  0.22985600  0.11785000  1
  O  O22  1  0.75761600  0.96526300  0.34916200  1
  O  O23  1  0.43531400  0.98486300  0.35324500  1
  O  O24  1  0.62577600  0.90267200  0.49100500  1
  O  O25  1  0.56035600  0.51396500  0.59772400  1
  O  O26  1  0.75041900  0.77014400  0.61785000  1
  O  O27  1  0.56468600  0.01513700  0.64675500  1
  O  O28  1  0.06468600  0.48486300  0.35324500  1
  O  O29  1  0.93531400  0.51513700  0.85324500  1
  O  O30  1  0.87422400  0.40267200  0.00899500  1
  O  O31  1  0.06035600  0.98603500  0.40227600  1
  O  O32  1  0.93964400  0.01396500  0.59772400  1
  O  O33  1  0.25041900  0.72985600  0.11785000  1
  O  O34  1  0.42146700  0.77321500  0.60057200  1
  O  O35  1  0.91851900  0.22455500  0.14060600  1
  O  O36  1  0.25761600  0.53473700  0.84916200  1
  O  O37  1  0.93964400  0.01396500  0.90227600  1
  O  O38  1  0.07853300  0.27321500  0.60057200  1
  O  O39  1  0.24238400  0.03473700  0.84916200  1
  O  O40  1  0.47890900  0.66166500  0.75000000  1
  O  O41  1  0.92146700  0.72678500  0.10057200  1
  O  O42  1  0.08148100  0.77544500  0.85939400  1
  O  O43  1  0.57853300  0.22678500  0.10057200  1
  O  O44  1  0.08148100  0.77544500  0.64060600  1
  O  O45  1  0.58148100  0.72455500  0.14060600  1
  O  O46  1  0.37266600  0.60235600  0.25000000  1
  O  O47  1  0.62577600  0.90267200  0.00899500  1
  O  O48  1  0.92146700  0.72678500  0.39942800  1
  O  O49  1  0.24238400  0.03473700  0.65083800  1
  O  O50  1  0.43964400  0.48603500  0.40227600  1
  O  O51  1  0.07853300  0.27321500  0.89942800  1
  O  O52  1  0.25041900  0.72985600  0.38215000  1
  O  O53  1  0.25761600  0.53473700  0.65083800  1
  O  O54  1  0.97890900  0.83833500  0.25000000  1
  O  O55  1  0.87422400  0.40267200  0.49100500  1
  O  O56  1  0.42146700  0.77321500  0.89942800  1
  O  O57  1  0.12577600  0.59732800  0.99100500  1
  O  O58  1  0.06035600  0.98603500  0.09772400  1
  O  O59  1  0.75761600  0.96526300  0.15083800  1
  O  O60  1  0.43964400  0.48603500  0.09772400  1
  O  O61  1  0.87266600  0.89764400  0.75000000  1
  O  O62  1  0.62733400  0.39764400  0.75000000  1
  O  O63  1  0.74238400  0.46526300  0.15083800  1
loop_
_geom_bond_atom_site_label_1
_geom_bond_atom_site_label_2
_geom_bond_distance
_geom_bond_site_symmetry_2
Ba0 O22 2.662195 1_545
Ba0 O59 2.662195 1_545
Ba0 O35 2.843368 1_555
Ba0 O17 2.843368 1_555
Ba0 O18 2.884708 1_555
Ba0 O9 3.110864 1_555
Ba0 O43 3.110864 1_555
Ba1 O36 2.662195 1_555
Ba1 O53 2.662195 1_555
Ba1 O16 2.843368 1_555
Ba1 O13 2.843368 1_555
Ba1 O7 2.884708 1_555
Ba1 O38 3.110864 1_555
Ba1 O51 3.110864 1_555
Ba2 O60 2.726971 1_556
Ba2 O51 2.757935 1_555
Ba2 O57 2.805547 1_555
Ba2 O21 2.864020 1_556
Ba2 O16 2.875186 1_555
Ba2 O36 2.979049 1_555
Ba2 O8 3.276065 1_555
Ba2 O6 3.406971 1_555
Ba3 O58 2.726971 1_556
Ba3 O56 2.757935 1_555
Ba3 O8 2.805547 1_565
Ba3 O33 2.864020 1_556
Ba3 O42 2.875186 1_555
Ba3 O39 2.979049 1_565
Ba3 O57 3.276065 1_555
Ba3 O37 3.406971 1_465
Ba4 O29 2.712002 1_555
Ba4 O1 2.712002 1_555
Ba4 O62 2.733898 1_555
Ba4 O40 2.750211 1_555
Ba4 O26 2.891512 1_555
Ba4 O5 2.891512 1_555
Ba5 O37 2.726971 1_554
Ba5 O43 2.757935 1_555
Ba5 O47 2.805547 1_545
Ba5 O15 2.864020 1_554
Ba5 O35 2.875186 1_555
Ba5 O59 2.979049 1_545
Ba5 O30 3.276065 1_555
Ba5 O58 3.406971 1_645
Ba6 O63 2.662195 1_555
Ba6 O20 2.662195 1_555
Ba6 O45 2.843368 1_555
Ba6 O19 2.843368 1_555
Ba6 O54 2.884708 1_555
Ba6 O48 3.110864 1_555
Ba6 O41 3.110864 1_555
Ba7 O31 2.726971 1_555
Ba7 O34 2.757935 1_555
Ba7 O2 2.805547 1_565
Ba7 O52 2.864020 1_555
Ba7 O44 2.875186 1_555
Ba7 O49 2.979049 1_565
Ba7 O0 3.276065 1_555
Ba7 O32 3.406971 1_465
Ba8 O50 2.726971 1_555
Ba8 O38 2.757935 1_555
Ba8 O0 2.805547 1_555
Ba8 O10 2.864020 1_555
Ba8 O13 2.875186 1_555
Ba8 O53 2.979049 1_555
Ba8 O2 3.276065 1_555
Ba8 O25 3.406971 1_555
Ba9 O25 2.726971 1_555
Ba9 O48 2.757935 1_555
Ba9 O55 2.805547 1_555
Ba9 O26 2.864020 1_555
Ba9 O19 2.875186 1_555
Ba9 O20 2.979049 1_555
Ba9 O24 3.276065 1_555
Ba9 O50 3.406971 1_555
Ba10 O4 2.712002 1_555
Ba10 O27 2.712002 1_555
Ba10 O61 2.733898 1_545
Ba10 O7 2.750211 1_655
Ba10 O14 2.891512 1_555
Ba10 O15 2.891512 1_555
Ba11 O49 2.662195 1_565
Ba11 O39 2.662195 1_565
Ba11 O44 2.843368 1_555
Ba11 O42 2.843368 1_555
Ba11 O40 2.884708 1_555
Ba11 O56 3.110864 1_555
Ba11 O34 3.110864 1_555
Ba12 O23 2.712002 1_555
Ba12 O12 2.712002 1_555
Ba12 O11 2.733898 1_565
Ba12 O54 2.750211 1_455
Ba12 O33 2.891512 1_555
Ba12 O52 2.891512 1_555
Ba13 O6 2.726971 1_554
Ba13 O41 2.757935 1_555
Ba13 O30 2.805547 1_555
Ba13 O5 2.864020 1_554
Ba13 O45 2.875186 1_555
Ba13 O63 2.979049 1_555
Ba13 O47 3.276065 1_555
Ba13 O60 3.406971 1_555
Ba14 O28 2.712002 1_555
Ba14 O3 2.712002 1_555
Ba14 O46 2.733898 1_555
Ba14 O18 2.750211 1_555
Ba14 O21 2.891512 1_555
Ba14 O10 2.891512 1_555
Ba15 O32 2.726971 1_555
Ba15 O9 2.757935 1_555
Ba15 O24 2.805547 1_545
Ba15 O14 2.864020 1_555
Ba15 O17 2.875186 1_555
Ba15 O22 2.979049 1_545
Ba15 O55 3.276065 1_555
Ba15 O31 3.406971 1_645
Fe0 O0 1.888646 1_555
Fe0 O28 1.904447 1_555
Fe0 O48 1.917846 1_455
Fe0 O52 1.924024 1_555
Fe1 O55 1.880343 1_555
Fe1 O17 1.904273 1_555
Fe1 O28 1.907236 1_655
Fe1 O20 1.915469 1_555
Fe2 O57 1.888646 1_554
Fe2 O3 1.904447 1_555
Fe2 O41 1.917846 1_455
Fe2 O33 1.924024 1_555
Fe3 O8 1.880343 1_555
Fe3 O16 1.904273 1_555
Fe3 O4 1.907236 1_555
Fe3 O39 1.915469 1_555
Fe4 O11 1.883702 1_555
Fe4 O35 1.909315 1_455
Fe4 O58 1.912326 1_545
Fe4 O21 1.913316 1_555
Fe5 O30 1.880343 1_555
Fe5 O35 1.904273 1_555
Fe5 O3 1.907236 1_655
Fe5 O63 1.915469 1_555
Fe6 O24 1.880343 1_555
Fe6 O19 1.904273 1_555
Fe6 O23 1.907236 1_555
Fe6 O22 1.915469 1_555
Fe7 O8 1.888646 1_554
Fe7 O12 1.904447 1_545
Fe7 O43 1.917846 1_555
Fe7 O21 1.924024 1_555
Fe8 O46 1.883702 1_555
Fe8 O19 1.909315 1_555
Fe8 O50 1.912326 1_555
Fe8 O52 1.913316 1_555
Fe9 O47 1.880343 1_555
Fe9 O45 1.904273 1_555
Fe9 O12 1.907236 1_555
Fe9 O59 1.915469 1_555
Fe10 O2 1.880343 1_555
Fe10 O13 1.904273 1_555
Fe10 O27 1.907236 1_555
Fe10 O49 1.915469 1_555
Fe11 O20 1.902563 1_555
Fe11 O9 1.911493 1_555
Fe11 O50 1.914178 1_555
Fe11 O18 1.914259 1_555
Fe12 O62 1.883702 1_555
Fe12 O13 1.909315 1_555
Fe12 O25 1.912326 1_555
Fe12 O14 1.913316 1_555
Fe13 O61 1.883702 1_555
Fe13 O42 1.909315 1_655
Fe13 O37 1.912326 1_565
Fe13 O5 1.913316 1_555
Fe14 O46 1.883702 1_555
Fe14 O45 1.909315 1_555
Fe14 O60 1.912326 1_555
Fe14 O33 1.913316 1_555
Fe15 O53 1.902563 1_555
Fe15 O34 1.911493 1_555
Fe15 O25 1.914178 1_555
Fe15 O40 1.914259 1_555
Fe16 O2 1.888646 1_555
Fe16 O23 1.904447 1_545
Fe16 O9 1.917846 1_555
Fe16 O10 1.924024 1_555
Fe17 O39 1.902563 1_555
Fe17 O51 1.911493 1_555
Fe17 O37 1.914178 1_455
Fe17 O7 1.914259 1_555
Fe18 O63 1.902563 1_555
Fe18 O43 1.911493 1_555
Fe18 O60 1.914178 1_555
Fe18 O18 1.914259 1_555
Fe19 O47 1.888646 1_556
Fe19 O4 1.904447 1_565
Fe19 O56 1.917846 1_555
Fe19 O5 1.924024 1_555
Fe20 O57 1.880343 1_555
Fe20 O42 1.904273 1_555
Fe20 O29 1.907236 1_455
Fe20 O36 1.915469 1_555
Fe21 O55 1.888646 1_555
Fe21 O1 1.904447 1_555
Fe21 O38 1.917846 1_655
Fe21 O14 1.924024 1_555
Fe22 O11 1.883702 1_555
Fe22 O17 1.909315 1_455
Fe22 O31 1.912326 1_545
Fe22 O10 1.913316 1_555
Fe23 O59 1.902563 1_555
Fe23 O41 1.911493 1_555
Fe23 O58 1.914178 1_655
Fe23 O54 1.914259 1_555
Fe24 O30 1.888646 1_556
Fe24 O29 1.904447 1_555
Fe24 O51 1.917846 1_655
Fe24 O15 1.924024 1_555
Fe25 O0 1.880343 1_555
Fe25 O44 1.904273 1_555
Fe25 O1 1.907236 1_455
Fe25 O53 1.915469 1_555
Fe26 O24 1.888646 1_555
Fe26 O27 1.904447 1_565
Fe26 O34 1.917846 1_555
Fe26 O26 1.924024 1_555
Fe27 O49 1.902563 1_555
Fe27 O38 1.911493 1_555
Fe27 O32 1.914178 1_455
Fe27 O7 1.914259 1_555
Fe28 O22 1.902563 1_555
Fe28 O48 1.911493 1_555
Fe28 O31 1.914178 1_655
Fe28 O54 1.914259 1_555
Fe29 O36 1.902563 1_555
Fe29 O56 1.911493 1_555
Fe29 O6 1.914178 1_555
Fe29 O40 1.914259 1_555
Fe30 O62 1.883702 1_555
Fe30 O16 1.909315 1_555
Fe30 O6 1.912326 1_555
Fe30 O15 1.913316 1_555
Fe31 O61 1.883702 1_555
Fe31 O44 1.909315 1_655
Fe31 O32 1.912326 1_565
Fe31 O26 1.913316 1_555
