# generated using pymatgen
data_CsZr6MnI14
_symmetry_space_group_name_H-M   'P 1'
_cell_length_a   11.14101738
_cell_length_b   11.14101738
_cell_length_c   13.41627300
_cell_angle_alpha   90.00000000
_cell_angle_beta   90.00000000
_cell_angle_gamma   95.21127629
_symmetry_Int_Tables_number   1
_chemical_formula_structural   CsZr6MnI14
_chemical_formula_sum   'Cs2 Zr12 Mn2 I28'
_cell_volume   1658.37496255
_cell_formula_units_Z   2
loop_
 _symmetry_equiv_pos_site_id
 _symmetry_equiv_pos_as_xyz
  1  'x, y, z'
loop_
 _atom_site_type_symbol
 _atom_site_label
 _atom_site_symmetry_multiplicity
 _atom_site_fract_x
 _atom_site_fract_y
 _atom_site_fract_z
 _atom_site_occupancy
  Cs  Cs0  1  0.00000000  0.00000000  0.00000000  1
  Cs  Cs1  1  0.50000000  0.50000000  0.50000000  1
  Zr  Zr0  1  0.86412000  0.86412000  0.60082600  1
  Zr  Zr1  1  0.45674500  0.67450200  0.88944700  1
  Zr  Zr2  1  0.82549800  0.04325500  0.38944700  1
  Zr  Zr3  1  0.67450200  0.45674500  0.88944700  1
  Zr  Zr4  1  0.36412000  0.36412000  0.89917400  1
  Zr  Zr5  1  0.17450200  0.95674500  0.61055300  1
  Zr  Zr6  1  0.63588000  0.63588000  0.10082600  1
  Zr  Zr7  1  0.13588000  0.13588000  0.39917400  1
  Zr  Zr8  1  0.54325500  0.32549800  0.11055300  1
  Zr  Zr9  1  0.32549800  0.54325500  0.11055300  1
  Zr  Zr10  1  0.95674500  0.17450200  0.61055300  1
  Zr  Zr11  1  0.04325500  0.82549800  0.38944700  1
  Mn  Mn0  1  0.50000000  0.50000000  0.00000000  1
  Mn  Mn1  1  0.00000000  0.00000000  0.50000000  1
  I  I0  1  0.38579100  0.13823600  0.00584600  1
  I  I1  1  0.36176400  0.11420900  0.50584600  1
  I  I2  1  0.96381100  0.21028300  0.25242400  1
  I  I3  1  0.25113500  0.74886500  0.00000000  1
  I  I4  1  0.15664900  0.15664900  0.75653700  1
  I  I5  1  0.86176400  0.61420900  0.99415400  1
  I  I6  1  0.46381100  0.71028300  0.24757600  1
  I  I7  1  0.78971700  0.03618900  0.74757600  1
  I  I8  1  0.10345100  0.60345100  0.25000000  1
  I  I9  1  0.88579100  0.63823600  0.49415400  1
  I  I10  1  0.75113500  0.24886500  0.50000000  1
  I  I11  1  0.63823600  0.88579100  0.49415400  1
  I  I12  1  0.65664900  0.65664900  0.74346300  1
  I  I13  1  0.21028300  0.96381100  0.25242400  1
  I  I14  1  0.84335100  0.84335100  0.24346300  1
  I  I15  1  0.34335100  0.34335100  0.25653700  1
  I  I16  1  0.39654900  0.89654900  0.75000000  1
  I  I17  1  0.13823600  0.38579100  0.00584600  1
  I  I18  1  0.71028300  0.46381100  0.24757600  1
  I  I19  1  0.60345100  0.10345100  0.25000000  1
  I  I20  1  0.74886500  0.25113500  0.00000000  1
  I  I21  1  0.24886500  0.75113500  0.50000000  1
  I  I22  1  0.61420900  0.86176400  0.99415400  1
  I  I23  1  0.28971700  0.53618900  0.75242400  1
  I  I24  1  0.89654900  0.39654900  0.75000000  1
  I  I25  1  0.03618900  0.78971700  0.74757600  1
  I  I26  1  0.53618900  0.28971700  0.75242400  1
  I  I27  1  0.11420900  0.36176400  0.50584600  1
loop_
_geom_bond_atom_site_label_1
_geom_bond_atom_site_label_2
_geom_bond_distance
_geom_bond_site_symmetry_2
Cs0 I14 4.025854 1_445
Cs0 I4 4.025854 1_554
Cs0 I20 4.132619 1_455
Cs0 I3 4.132619 1_545
Cs0 I2 4.158327 1_455
Cs0 I7 4.158327 1_454
Cs0 I13 4.158327 1_545
Cs0 I25 4.158327 1_544
Cs0 I17 4.432748 1_555
Cs0 I22 4.432748 1_444
Cs0 I0 4.432748 1_555
Cs0 I5 4.432748 1_444
Cs1 I12 4.025854 1_555
Cs1 I15 4.025854 1_555
Cs1 I10 4.132619 1_555
Cs1 I21 4.132619 1_555
Cs1 I23 4.158327 1_555
Cs1 I26 4.158327 1_555
Cs1 I6 4.158327 1_555
Cs1 I18 4.158327 1_555
Cs1 I11 4.432748 1_555
Cs1 I9 4.432748 1_555
Cs1 I1 4.432748 1_555
Cs1 I27 4.432748 1_555
Mn0 Zr6 2.448867 1_555
Mn0 Zr4 2.448867 1_554
Mn0 Zr3 2.526257 1_554
Mn0 Zr1 2.526257 1_554
Mn0 Zr8 2.526257 1_555
Mn0 Zr9 2.526257 1_555
Mn1 Zr0 2.448867 1_445
Mn1 Zr7 2.448867 1_555
Mn1 Zr2 2.526257 1_455
Mn1 Zr11 2.526257 1_545
Mn1 Zr5 2.526257 1_545
Mn1 Zr10 2.526257 1_455
I0 Zr4 2.924037 1_554
I0 Zr8 2.956136 1_555
I1 Zr7 2.924037 1_555
I1 Zr5 2.956136 1_545
I2 Zr7 2.920117 1_655
I2 Zr2 2.948883 1_555
I3 Zr1 2.911763 1_554
I3 Zr9 2.911763 1_555
I4 Zr5 2.985987 1_545
I4 Zr10 2.985987 1_455
I4 Zr4 3.657462 1_555
I5 Zr6 2.924037 1_556
I5 Zr3 2.956136 1_555
I6 Zr6 2.920117 1_555
I6 Zr9 2.948883 1_555
I7 Zr0 2.920117 1_545
I7 Zr10 2.948883 1_555
I8 Zr11 3.220418 1_555
I8 Zr9 3.220418 1_555
I9 Zr0 2.924037 1_555
I9 Zr11 2.956136 1_655
I10 Zr10 2.911763 1_555
I10 Zr2 2.911763 1_555
I11 Zr0 2.924037 1_555
I11 Zr2 2.956136 1_565
I12 Zr1 2.985987 1_555
I12 Zr3 2.985987 1_555
I12 Zr0 3.657462 1_555
I13 Zr7 2.920117 1_565
I13 Zr11 2.948883 1_555
I14 Zr11 2.985987 1_655
I14 Zr2 2.985987 1_565
I14 Zr6 3.657462 1_555
I15 Zr8 2.985987 1_555
I15 Zr9 2.985987 1_555
I15 Zr7 3.657462 1_555
I16 Zr1 3.220418 1_555
I16 Zr5 3.220418 1_555
I17 Zr4 2.924037 1_554
I17 Zr9 2.956136 1_555
I18 Zr6 2.920117 1_555
I18 Zr8 2.948883 1_555
I19 Zr2 3.220418 1_555
I19 Zr8 3.220418 1_555
I20 Zr3 2.911763 1_554
I20 Zr8 2.911763 1_555
I21 Zr5 2.911763 1_555
I21 Zr11 2.911763 1_555
I22 Zr6 2.924037 1_556
I22 Zr1 2.956136 1_555
I23 Zr4 2.920117 1_555
I23 Zr1 2.948883 1_555
I24 Zr3 3.220418 1_555
I24 Zr10 3.220418 1_555
I25 Zr0 2.920117 1_455
I25 Zr5 2.948883 1_555
I26 Zr4 2.920117 1_555
I26 Zr3 2.948883 1_555
I27 Zr7 2.924037 1_555
I27 Zr10 2.956136 1_455
