# generated using pymatgen
data_K2NaFeO3
_symmetry_space_group_name_H-M   'P 1'
_cell_length_a   6.34674000
_cell_length_b   9.30290281
_cell_length_c   9.30290094
_cell_angle_alpha   73.46344616
_cell_angle_beta   70.05410064
_cell_angle_gamma   70.05408025
_symmetry_Int_Tables_number   1
_chemical_formula_structural   K2NaFeO3
_chemical_formula_sum   'K8 Na4 Fe4 O12'
_cell_volume   476.47237865
_cell_formula_units_Z   4
loop_
 _symmetry_equiv_pos_site_id
 _symmetry_equiv_pos_as_xyz
  1  'x, y, z'
loop_
 _atom_site_type_symbol
 _atom_site_label
 _atom_site_symmetry_multiplicity
 _atom_site_fract_x
 _atom_site_fract_y
 _atom_site_fract_z
 _atom_site_occupancy
  K  K0  1  0.92103300  0.32895500  0.32895500  1
  K  K1  1  0.42103400  0.82895500  0.82895500  1
  K  K2  1  0.57896700  0.17104500  0.17104500  1
  K  K3  1  0.07896600  0.67104500  0.67104500  1
  K  K4  1  0.49999900  0.25000000  0.75000000  1
  K  K5  1  0.00000100  0.75000000  0.25000000  1
  K  K6  1  0.00000100  0.25000000  0.75000000  1
  K  K7  1  0.49999900  0.75000000  0.25000000  1
  Na  Na0  1  0.75000000  0.49999900  0.00000100  1
  Na  Na1  1  0.25000000  0.00000100  0.49999900  1
  Na  Na2  1  0.25000000  0.49999900  0.00000100  1
  Na  Na3  1  0.75000000  0.00000100  0.49999900  1
  Fe  Fe0  1  0.66711000  0.58288900  0.58288900  1
  Fe  Fe1  1  0.83289000  0.91711100  0.91711000  1
  Fe  Fe2  1  0.16708100  0.08291800  0.08291800  1
  Fe  Fe3  1  0.33291900  0.41708200  0.41708200  1
  O  O0  1  0.50000400  0.00000000  0.00000000  1
  O  O1  1  0.99999700  0.50000000  0.50000000  1
  O  O2  1  0.99999600  0.00000000  0.00000000  1
  O  O3  1  0.50000400  0.50000000  0.50000000  1
  O  O4  1  0.40715800  0.48600900  0.19968200  1
  O  O5  1  0.90715700  0.98600900  0.69968200  1
  O  O6  1  0.90715700  0.69968200  0.98600900  1
  O  O7  1  0.40715800  0.19968200  0.48600900  1
  O  O8  1  0.59284300  0.51399100  0.80031800  1
  O  O9  1  0.09284200  0.01399100  0.30031800  1
  O  O10  1  0.09284300  0.30031800  0.01399100  1
  O  O11  1  0.59284300  0.80031800  0.51399100  1
loop_
_geom_bond_atom_site_label_1
_geom_bond_atom_site_label_2
_geom_bond_distance
_geom_bond_site_symmetry_2
K0 O3 2.800668 1_555
K0 O1 2.800819 1_555
K0 O10 2.812768 1_655
K0 O9 2.812768 1_655
K1 O2 2.800701 1_466
K1 O0 2.800840 1_566
K1 O11 2.812768 1_555
K1 O8 2.812768 1_555
K2 O2 2.800668 1_555
K2 O0 2.800815 1_555
K2 O7 2.812768 1_555
K2 O4 2.812768 1_555
K3 O3 2.800701 1_555
K3 O1 2.800837 1_455
K3 O6 2.812768 1_455
K3 O5 2.812768 1_455
K4 O0 2.781889 1_556
K4 O3 2.781889 1_555
K4 O10 2.902999 1_556
K4 O5 2.903005 1_545
K4 O7 2.903031 1_555
K4 O8 2.903042 1_555
K5 O1 2.781889 1_455
K5 O2 2.781889 1_465
K5 O4 2.903002 1_555
K5 O11 2.903006 1_455
K5 O9 2.903031 1_565
K5 O6 2.903041 1_454
K6 O1 2.781889 1_455
K6 O2 2.781889 1_456
K6 O7 2.903002 1_555
K6 O8 2.903005 1_455
K6 O10 2.903034 1_556
K6 O5 2.903042 1_445
K7 O3 2.781889 1_555
K7 O0 2.781889 1_565
K7 O9 2.903002 1_565
K7 O6 2.903006 1_554
K7 O4 2.903031 1_555
K7 O11 2.903041 1_555
Na0 O4 2.345246 1_555
Na0 O10 2.345250 1_655
Na0 O8 2.345321 1_554
Na0 O6 2.345322 1_554
Na1 O11 2.345261 1_545
Na1 O5 2.345261 1_445
Na1 O9 2.345314 1_555
Na1 O7 2.345315 1_555
Na2 O6 2.345261 1_454
Na2 O8 2.345261 1_554
Na2 O10 2.345311 1_555
Na2 O4 2.345314 1_555
Na3 O7 2.345245 1_555
Na3 O9 2.345246 1_655
Na3 O5 2.345321 1_545
Na3 O11 2.345322 1_545
Fe0 O8 1.882023 1_555
Fe0 O11 1.882024 1_555
Fe0 O1 1.941227 1_555
Fe0 O3 1.941254 1_555
Fe1 O5 1.882015 1_555
Fe1 O6 1.882025 1_555
Fe1 O0 1.941224 1_566
Fe1 O2 1.941261 1_566
Fe2 O9 1.881815 1_555
Fe2 O10 1.881815 1_555
Fe2 O0 1.941489 1_555
Fe2 O2 1.941521 1_455
Fe3 O4 1.881815 1_555
Fe3 O7 1.881815 1_555
Fe3 O1 1.941484 1_455
Fe3 O3 1.941521 1_555
