# generated using pymatgen
data_Sm2SO2
_symmetry_space_group_name_H-M   'P 1'
_cell_length_a   3.90311716
_cell_length_b   3.90311652
_cell_length_c   6.73354595
_cell_angle_alpha   90.00000000
_cell_angle_beta   90.00000000
_cell_angle_gamma   120.00000546
_symmetry_Int_Tables_number   1
_chemical_formula_structural   Sm2SO2
_chemical_formula_sum   'Sm2 S1 O2'
_cell_volume   88.83774774
_cell_formula_units_Z   1
loop_
 _symmetry_equiv_pos_site_id
 _symmetry_equiv_pos_as_xyz
  1  'x, y, z'
loop_
 _atom_site_type_symbol
 _atom_site_label
 _atom_site_symmetry_multiplicity
 _atom_site_fract_x
 _atom_site_fract_y
 _atom_site_fract_z
 _atom_site_occupancy
  Sm  Sm0  1  0.33333300  0.66666700  0.28142072  1
  Sm  Sm1  1  0.66666700  0.33333300  0.71857928  1
  S  S0  1  -0.00000000  -0.00000000  -0.00000000  1
  O  O0  1  0.33333300  0.66666700  0.62930178  1
  O  O1  1  0.66666700  0.33333300  0.37069822  1
loop_
_geom_bond_atom_site_label_1
_geom_bond_atom_site_label_2
_geom_bond_distance
_geom_bond_site_symmetry_2
S0 Sm1 2.944311 1_454
S0 Sm0 2.944311 1_545
S0 Sm0 2.944313 1_555
S0 Sm1 2.944313 1_444
S0 Sm0 2.944314 1_445
S0 Sm1 2.944314 1_554
O0 Sm1 2.332270 1_565
O0 Sm1 2.332270 1_455
O0 Sm1 2.332277 1_555
O0 Sm0 2.342473 1_555
O1 Sm0 2.332270 1_545
O1 Sm0 2.332270 1_655
O1 Sm0 2.332277 1_555
O1 Sm1 2.342473 1_555
