# generated using pymatgen
data_Sr2UMnO6
_symmetry_space_group_name_H-M   'P 1'
_cell_length_a   5.97477100
_cell_length_b   5.88595400
_cell_length_c   10.20748589
_cell_angle_alpha   54.92643698
_cell_angle_beta   90.00000000
_cell_angle_gamma   90.00000000
_symmetry_Int_Tables_number   1
_chemical_formula_structural   Sr2UMnO6
_chemical_formula_sum   'Sr4 U2 Mn2 O12'
_cell_volume   293.78557473
_cell_formula_units_Z   2
loop_
 _symmetry_equiv_pos_site_id
 _symmetry_equiv_pos_as_xyz
  1  'x, y, z'
loop_
 _atom_site_type_symbol
 _atom_site_label
 _atom_site_symmetry_multiplicity
 _atom_site_fract_x
 _atom_site_fract_y
 _atom_site_fract_z
 _atom_site_occupancy
  Sr  Sr0  1  0.45962800  0.25922600  0.24881100  1
  Sr  Sr1  1  0.04037200  0.25922600  0.74881100  1
  Sr  Sr2  1  0.54037200  0.74077400  0.75118900  1
  Sr  Sr3  1  0.95962800  0.74077400  0.25118900  1
  U  U0  1  0.00000000  0.00000000  0.50000000  1
  U  U1  1  0.50000000  0.00000000  0.00000000  1
  Mn  Mn0  1  0.00000000  0.50000000  0.00000000  1
  Mn  Mn1  1  0.50000000  0.50000000  0.50000000  1
  O  O0  1  0.80071200  0.67155300  0.54149100  1
  O  O1  1  0.69928800  0.67155300  0.04149100  1
  O  O2  1  0.97277900  0.84042500  0.74346500  1
  O  O3  1  0.47277900  0.15957500  0.75653500  1
  O  O4  1  0.71449300  0.24417800  0.45406000  1
  O  O5  1  0.28550700  0.75582200  0.54594000  1
  O  O6  1  0.78550700  0.24417800  0.95406000  1
  O  O7  1  0.19928800  0.32844700  0.45850900  1
  O  O8  1  0.30071200  0.32844700  0.95850900  1
  O  O9  1  0.02722100  0.15957500  0.25653500  1
  O  O10  1  0.21449300  0.75582200  0.04594000  1
  O  O11  1  0.52722100  0.84042500  0.24346500  1
loop_
_geom_bond_atom_site_label_1
_geom_bond_atom_site_label_2
_geom_bond_distance
_geom_bond_site_symmetry_2
Mn0 O9 2.206417 1_555
Mn0 O2 2.206417 1_454
Mn0 O1 2.217775 1_455
Mn0 O8 2.217775 1_554
Mn0 O10 2.222847 1_555
Mn0 O6 2.222847 1_454
Mn1 O11 2.206417 1_555
Mn1 O3 2.206417 1_555
Mn1 O0 2.217775 1_555
Mn1 O7 2.217775 1_555
Mn1 O5 2.222847 1_555
Mn1 O4 2.222847 1_555
O0 U0 2.096075 1_665
O0 Sr1 2.552701 1_655
O0 Sr2 2.858226 1_555
O0 Sr3 2.908758 1_555
O1 U1 2.096075 1_565
O1 Sr0 2.552701 1_555
O1 Sr3 2.858226 1_555
O1 Sr2 2.908758 1_554
O2 U0 2.098120 1_665
O2 Sr1 2.529250 1_665
O2 Sr2 2.640406 1_555
O3 U1 2.098120 1_556
O3 Sr2 2.529250 1_545
O3 Sr1 2.640406 1_555
O4 U0 2.102578 1_655
O4 Sr0 2.550044 1_555
O4 Sr3 2.832081 1_555
O4 Sr2 2.955084 1_545
O5 U0 2.102578 1_565
O5 Sr2 2.550044 1_555
O5 Sr1 2.832081 1_555
O5 Sr0 2.955084 1_565
O6 U1 2.102578 1_556
O6 Sr1 2.550044 1_655
O6 Sr2 2.832081 1_555
O6 Sr3 2.955084 1_546
O7 U0 2.096075 1_555
O7 Sr3 2.552701 1_455
O7 Sr0 2.858226 1_555
O7 Sr1 2.908758 1_555
O8 U1 2.096075 1_556
O8 Sr2 2.552701 1_555
O8 Sr1 2.858226 1_555
O8 Sr0 2.908758 1_556
O9 U0 2.098120 1_555
O9 Sr3 2.529250 1_445
O9 Sr0 2.640406 1_555
O10 U1 2.102578 1_565
O10 Sr3 2.550044 1_455
O10 Sr0 2.832081 1_555
O10 Sr1 2.955084 1_564
O11 U1 2.098120 1_565
O11 Sr0 2.529250 1_565
O11 Sr3 2.640406 1_555
