# generated using pymatgen
data_Na2Tl2B10O17
_symmetry_space_group_name_H-M   'P 1'
_cell_length_a   11.54127481
_cell_length_b   11.54127481
_cell_length_c   11.08833441
_cell_angle_alpha   75.71565033
_cell_angle_beta   75.71565033
_cell_angle_gamma   32.86282570
_symmetry_Int_Tables_number   1
_chemical_formula_structural   Na2Tl2B10O17
_chemical_formula_sum   'Na4 Tl4 B20 O34'
_cell_volume   774.48080843
_cell_formula_units_Z   2
loop_
 _symmetry_equiv_pos_site_id
 _symmetry_equiv_pos_as_xyz
  1  'x, y, z'
loop_
 _atom_site_type_symbol
 _atom_site_label
 _atom_site_symmetry_multiplicity
 _atom_site_fract_x
 _atom_site_fract_y
 _atom_site_fract_z
 _atom_site_occupancy
  Na  Na0  1  0.28605400  0.18038600  0.31525700  1
  Na  Na1  1  0.18038600  0.28605400  0.81525700  1
  Na  Na2  1  0.71394600  0.81961400  0.68474300  1
  Na  Na3  1  0.81961400  0.71394600  0.18474300  1
  Tl  Tl0  1  0.26146000  0.87510900  0.42173000  1
  Tl  Tl1  1  0.73854000  0.12489100  0.57827000  1
  Tl  Tl2  1  0.12489100  0.73854000  0.07827000  1
  Tl  Tl3  1  0.87510900  0.26146000  0.92173000  1
  B  B0  1  0.18797300  0.52600500  0.63538200  1
  B  B1  1  0.28820300  0.01731700  0.65903100  1
  B  B2  1  0.62499100  0.26544600  0.23601700  1
  B  B3  1  0.39087300  0.93311700  0.07183300  1
  B  B4  1  0.71179700  0.98268300  0.34096900  1
  B  B5  1  0.37500900  0.73455400  0.76398300  1
  B  B6  1  0.60161300  0.76071700  0.50094600  1
  B  B7  1  0.81202700  0.47399500  0.36461800  1
  B  B8  1  0.60912700  0.06688300  0.92816700  1
  B  B9  1  0.39838700  0.23928300  0.49905400  1
  B  B10  1  0.73455400  0.37500900  0.26398300  1
  B  B11  1  0.93311700  0.39087300  0.57183300  1
  B  B12  1  0.01731700  0.28820300  0.15903100  1
  B  B13  1  0.98268300  0.71179700  0.84096900  1
  B  B14  1  0.76071700  0.60161300  0.00094600  1
  B  B15  1  0.06688300  0.60912700  0.42816700  1
  B  B16  1  0.26544600  0.62499100  0.73601700  1
  B  B17  1  0.47399500  0.81202700  0.86461800  1
  B  B18  1  0.52600500  0.18797300  0.13538200  1
  B  B19  1  0.23928300  0.39838700  0.99905400  1
  O  O0  1  0.40753600  0.59246400  0.75000000  1
  O  O1  1  0.31169900  0.53035500  0.64190100  1
  O  O2  1  0.40923200  0.94861500  0.75292400  1
  O  O3  1  0.39907500  0.96502800  0.53040800  1
  O  O4  1  0.53035500  0.31169900  0.14190100  1
  O  O5  1  0.74356400  0.08851500  0.31852600  1
  O  O6  1  0.03497200  0.60092500  0.96959200  1
  O  O7  1  0.46964500  0.68830100  0.85809900  1
  O  O8  1  0.96502800  0.39907500  0.03040800  1
  O  O9  1  0.60092500  0.03497200  0.46959200  1
  O  O10  1  0.05165400  0.67293300  0.52717000  1
  O  O11  1  0.70184700  0.64621800  0.88531000  1
  O  O12  1  0.25643600  0.91148500  0.68147400  1
  O  O13  1  0.67293300  0.05165400  0.02717000  1
  O  O14  1  0.05138500  0.59076800  0.74707600  1
  O  O15  1  0.92244700  0.74650200  0.33921100  1
  O  O16  1  0.38893100  0.24152400  0.91319800  1
  O  O17  1  0.08851500  0.74356400  0.81852600  1
  O  O18  1  0.94861500  0.40923200  0.25292400  1
  O  O19  1  0.74650200  0.92244700  0.83921100  1
  O  O20  1  0.68830100  0.46964500  0.35809900  1
  O  O21  1  0.94834600  0.32706700  0.47283000  1
  O  O22  1  0.59246400  0.40753600  0.25000000  1
  O  O23  1  0.24152400  0.38893100  0.41319800  1
  O  O24  1  0.64621800  0.70184700  0.38531000  1
  O  O25  1  0.32706700  0.94834600  0.97283000  1
  O  O26  1  0.07755300  0.25349800  0.66078900  1
  O  O27  1  0.35378200  0.29815300  0.61469000  1
  O  O28  1  0.59076800  0.05138500  0.24707600  1
  O  O29  1  0.25349800  0.07755300  0.16078900  1
  O  O30  1  0.29815300  0.35378200  0.11469000  1
  O  O31  1  0.91148500  0.25643600  0.18147400  1
  O  O32  1  0.75847600  0.61106900  0.58680200  1
  O  O33  1  0.61106900  0.75847600  0.08680200  1
loop_
_geom_bond_atom_site_label_1
_geom_bond_atom_site_label_2
_geom_bond_distance
_geom_bond_site_symmetry_2
Na0 O28 2.367143 1_555
Na0 O18 2.401673 1_455
Na0 O23 2.484547 1_555
Na0 O29 2.559927 1_555
Na0 O3 2.594919 1_545
Na0 O30 2.662760 1_555
Na0 O21 2.850326 1_455
Na1 O14 2.367143 1_555
Na1 O2 2.401673 1_545
Na1 O16 2.484547 1_555
Na1 O26 2.559927 1_555
Na1 O8 2.594919 1_456
Na1 O27 2.662760 1_555
Na1 O25 2.850326 1_545
Na2 O2 2.367143 1_555
Na2 O14 2.401673 1_655
Na2 O32 2.484547 1_555
Na2 O19 2.559927 1_555
Na2 O9 2.594919 1_565
Na2 O11 2.662760 1_555
Na2 O10 2.850326 1_655
Na3 O18 2.367143 1_555
Na3 O28 2.401673 1_565
Na3 O33 2.484547 1_555
Na3 O15 2.559927 1_555
Na3 O6 2.594919 1_654
Na3 O24 2.662760 1_555
Na3 O13 2.850326 1_565
B0 O14 1.446214 1_555
B0 O1 1.489955 1_555
B0 O10 1.495362 1_555
B0 O27 1.502356 1_555
B1 O2 1.453752 1_545
B1 O26 1.486955 1_555
B1 O12 1.498514 1_545
B1 O3 1.504172 1_545
B2 O4 1.369330 1_555
B2 O5 1.371482 1_555
B2 O22 1.384476 1_555
B3 O25 1.365493 1_554
B3 O29 1.365700 1_565
B3 O33 1.409416 1_555
B4 O28 1.453752 1_565
B4 O15 1.486955 1_555
B4 O5 1.498514 1_565
B4 O9 1.504172 1_565
B5 O7 1.369330 1_555
B5 O12 1.371482 1_555
B5 O0 1.384476 1_555
B6 O3 1.369151 1_555
B6 O24 1.373785 1_555
B6 O32 1.397535 1_555
B7 O18 1.446214 1_555
B7 O20 1.489955 1_555
B7 O21 1.495362 1_555
B7 O24 1.502356 1_555
B8 O13 1.365493 1_556
B8 O19 1.365700 1_545
B8 O16 1.409416 1_555
B9 O9 1.369151 1_555
B9 O27 1.373785 1_555
B9 O23 1.397535 1_555
B10 O20 1.369330 1_555
B10 O31 1.371482 1_555
B10 O22 1.384476 1_555
B11 O21 1.365493 1_555
B11 O26 1.365700 1_655
B11 O32 1.409416 1_555
B12 O18 1.453752 1_455
B12 O29 1.486955 1_555
B12 O31 1.498514 1_455
B12 O8 1.504172 1_455
B13 O14 1.453752 1_655
B13 O19 1.486955 1_555
B13 O17 1.498514 1_655
B13 O6 1.504172 1_655
B14 O8 1.369151 1_555
B14 O11 1.373785 1_554
B14 O33 1.397535 1_555
B15 O10 1.365493 1_555
B15 O15 1.365700 1_455
B15 O23 1.409416 1_555
B16 O1 1.369330 1_555
B16 O17 1.371482 1_555
B16 O0 1.384476 1_555
B17 O2 1.446214 1_555
B17 O7 1.489955 1_555
B17 O25 1.495362 1_555
B17 O11 1.502356 1_555
B18 O28 1.446214 1_555
B18 O4 1.489955 1_555
B18 O13 1.495362 1_555
B18 O30 1.502356 1_555
B19 O6 1.369151 1_555
B19 O30 1.373785 1_556
B19 O16 1.397535 1_555
O1 Tl1 2.801965 1_555
O4 Tl2 2.801965 1_555
O7 Tl3 2.801965 1_555
O20 Tl0 2.801965 1_555
