# generated using pymatgen
data_ZrNi
_symmetry_space_group_name_H-M   'P 1'
_cell_length_a   3.26251392
_cell_length_b   4.03722639
_cell_length_c   5.27945443
_cell_angle_alpha   90.00000000
_cell_angle_beta   107.99790021
_cell_angle_gamma   90.00000000
_symmetry_Int_Tables_number   1
_chemical_formula_structural   ZrNi
_chemical_formula_sum   'Zr2 Ni2'
_cell_volume   66.13570977
_cell_formula_units_Z   2
loop_
 _symmetry_equiv_pos_site_id
 _symmetry_equiv_pos_as_xyz
  1  'x, y, z'
loop_
 _atom_site_type_symbol
 _atom_site_label
 _atom_site_symmetry_multiplicity
 _atom_site_fract_x
 _atom_site_fract_y
 _atom_site_fract_z
 _atom_site_occupancy
  Zr  Zr0  1  0.63782969  0.25000000  0.27565939  1
  Zr  Zr1  1  0.36217031  0.75000000  0.72434061  1
  Ni  Ni0  1  0.91682797  0.25000000  0.83365794  1
  Ni  Ni1  1  0.08317203  0.75000000  0.16634206  1
loop_
_geom_bond_atom_site_label_1
_geom_bond_atom_site_label_2
_geom_bond_distance
_geom_bond_site_symmetry_2
Ni0 Ni1 2.620151 1_656
Ni0 Ni1 2.620151 1_646
Ni0 Zr1 2.652748 1_555
Ni0 Zr1 2.652748 1_545
Ni0 Zr1 2.652752 1_645
Ni0 Zr1 2.652752 1_655
Ni0 Zr0 2.754354 1_556
Ni0 Zr0 2.754358 1_656
Ni0 Zr0 2.801777 1_555
Ni1 Zr0 2.652748 1_555
Ni1 Zr0 2.652748 1_565
Ni1 Zr0 2.652752 1_465
Ni1 Zr0 2.652752 1_455
Ni1 Zr1 2.754354 1_554
Ni1 Zr1 2.754358 1_454
Ni1 Zr1 2.801777 1_555
