# generated using pymatgen
data_U3Si11Pt23
_symmetry_space_group_name_H-M   'P 1'
_cell_length_a   12.14517132
_cell_length_b   12.14517132
_cell_length_c   12.14517132
_cell_angle_alpha   60.00000000
_cell_angle_beta   60.00000000
_cell_angle_gamma   60.00000000
_symmetry_Int_Tables_number   1
_chemical_formula_structural   U3Si11Pt23
_chemical_formula_sum   'U6 Si22 Pt46'
_cell_volume   1266.76465817
_cell_formula_units_Z   2
loop_
 _symmetry_equiv_pos_site_id
 _symmetry_equiv_pos_as_xyz
  1  'x, y, z'
loop_
 _atom_site_type_symbol
 _atom_site_label
 _atom_site_symmetry_multiplicity
 _atom_site_fract_x
 _atom_site_fract_y
 _atom_site_fract_z
 _atom_site_occupancy
  U  U0  1  0.38418500  0.61581500  0.38418500  1
  U  U1  1  0.61581500  0.61581500  0.38418500  1
  U  U2  1  0.38418500  0.61581500  0.61581500  1
  U  U3  1  0.61581500  0.38418500  0.61581500  1
  U  U4  1  0.38418500  0.38418500  0.61581500  1
  U  U5  1  0.61581500  0.38418500  0.38418500  1
  Si  Si0  1  0.38284200  0.38284200  0.38284200  1
  Si  Si1  1  0.83185600  0.16814400  0.16814400  1
  Si  Si2  1  0.16562800  0.50311600  0.16562800  1
  Si  Si3  1  0.83185600  0.16814400  0.83185600  1
  Si  Si4  1  0.14852500  0.61715800  0.61715800  1
  Si  Si5  1  0.16562800  0.16562800  0.16562800  1
  Si  Si6  1  0.49688400  0.83437200  0.83437200  1
  Si  Si7  1  0.83437200  0.83437200  0.83437200  1
  Si  Si8  1  0.85147500  0.38284200  0.38284200  1
  Si  Si9  1  0.61715800  0.14852500  0.61715800  1
  Si  Si10  1  0.38284200  0.85147500  0.38284200  1
  Si  Si11  1  0.50311600  0.16562800  0.16562800  1
  Si  Si12  1  0.38284200  0.38284200  0.85147500  1
  Si  Si13  1  0.83437200  0.83437200  0.49688400  1
  Si  Si14  1  0.83185600  0.83185600  0.16814400  1
  Si  Si15  1  0.16814400  0.16814400  0.83185600  1
  Si  Si16  1  0.61715800  0.61715800  0.14852500  1
  Si  Si17  1  0.16562800  0.16562800  0.50311600  1
  Si  Si18  1  0.83437200  0.49688400  0.83437200  1
  Si  Si19  1  0.61715800  0.61715800  0.61715800  1
  Si  Si20  1  0.16814400  0.83185600  0.83185600  1
  Si  Si21  1  0.16814400  0.83185600  0.16814400  1
  Pt  Pt0  1  0.91903300  0.58205300  0.24945700  1
  Pt  Pt1  1  0.69385600  0.91843300  0.69385600  1
  Pt  Pt2  1  0.24945700  0.58205300  0.91903300  1
  Pt  Pt3  1  0.91843300  0.69385600  0.69385600  1
  Pt  Pt4  1  0.75054300  0.41794700  0.75054300  1
  Pt  Pt5  1  0.00000000  0.00000000  0.50000000  1
  Pt  Pt6  1  0.75054300  0.08096700  0.41794700  1
  Pt  Pt7  1  0.08299000  0.08299000  0.08299000  1
  Pt  Pt8  1  0.58205300  0.91903300  0.24945700  1
  Pt  Pt9  1  0.91701000  0.24896900  0.91701000  1
  Pt  Pt10  1  0.08299000  0.08299000  0.75103100  1
  Pt  Pt11  1  0.75054300  0.75054300  0.41794700  1
  Pt  Pt12  1  0.08096700  0.75054300  0.75054300  1
  Pt  Pt13  1  0.08096700  0.41794700  0.75054300  1
  Pt  Pt14  1  0.69385600  0.69385600  0.91843300  1
  Pt  Pt15  1  0.75054300  0.75054300  0.08096700  1
  Pt  Pt16  1  0.69385600  0.69385600  0.69385600  1
  Pt  Pt17  1  0.41794700  0.75054300  0.08096700  1
  Pt  Pt18  1  0.24945700  0.91903300  0.24945700  1
  Pt  Pt19  1  0.58205300  0.24945700  0.24945700  1
  Pt  Pt20  1  0.41794700  0.75054300  0.75054300  1
  Pt  Pt21  1  0.91701000  0.91701000  0.24896900  1
  Pt  Pt22  1  0.24945700  0.24945700  0.58205300  1
  Pt  Pt23  1  0.75054300  0.41794700  0.08096700  1
  Pt  Pt24  1  0.58205300  0.24945700  0.91903300  1
  Pt  Pt25  1  0.24945700  0.91903300  0.58205300  1
  Pt  Pt26  1  0.30614400  0.30614400  0.08156700  1
  Pt  Pt27  1  0.30614400  0.30614400  0.30614400  1
  Pt  Pt28  1  0.24945700  0.24945700  0.91903300  1
  Pt  Pt29  1  0.91701000  0.91701000  0.91701000  1
  Pt  Pt30  1  0.08299000  0.75103100  0.08299000  1
  Pt  Pt31  1  0.00000000  0.50000000  0.00000000  1
  Pt  Pt32  1  0.91903300  0.24945700  0.58205300  1
  Pt  Pt33  1  0.24896900  0.91701000  0.91701000  1
  Pt  Pt34  1  0.91903300  0.24945700  0.24945700  1
  Pt  Pt35  1  0.41794700  0.08096700  0.75054300  1
  Pt  Pt36  1  0.50000000  0.50000000  0.00000000  1
  Pt  Pt37  1  0.08156700  0.30614400  0.30614400  1
  Pt  Pt38  1  0.75054300  0.08096700  0.75054300  1
  Pt  Pt39  1  0.30614400  0.08156700  0.30614400  1
  Pt  Pt40  1  0.24945700  0.58205300  0.24945700  1
  Pt  Pt41  1  0.50000000  0.00000000  0.00000000  1
  Pt  Pt42  1  0.08096700  0.75054300  0.41794700  1
  Pt  Pt43  1  0.75103100  0.08299000  0.08299000  1
  Pt  Pt44  1  0.50000000  0.00000000  0.50000000  1
  Pt  Pt45  1  0.00000000  0.50000000  0.50000000  1
loop_
_geom_bond_atom_site_label_1
_geom_bond_atom_site_label_2
_geom_bond_distance
_geom_bond_site_symmetry_2
U0 U5 2.813186 1_555
U0 U4 2.813186 1_555
U0 U2 2.813186 1_555
U0 U1 2.813186 1_555
U1 U5 2.813186 1_555
U1 U2 2.813186 1_555
U1 U3 2.813186 1_555
U2 U4 2.813186 1_555
U2 U3 2.813186 1_555
U3 U5 2.813186 1_555
U3 U4 2.813186 1_555
U4 U5 2.813186 1_555
Si0 U4 2.845901 1_555
Si0 U5 2.845901 1_555
Si0 U0 2.845901 1_555
Si4 U0 2.845908 1_555
Si4 U4 2.845908 1_555
Si4 U2 2.845914 1_555
Si8 U3 2.845908 1_555
Si8 U1 2.845908 1_555
Si8 U5 2.845914 1_555
Si9 U5 2.845908 1_555
Si9 U4 2.845908 1_555
Si9 U3 2.845914 1_555
Si10 U2 2.845908 1_555
Si10 U1 2.845908 1_555
Si10 U0 2.845914 1_555
Si12 U3 2.845908 1_555
Si12 U2 2.845908 1_555
Si12 U4 2.845914 1_555
Si16 U0 2.845908 1_555
Si16 U5 2.845908 1_555
Si16 U1 2.845914 1_555
Si19 U2 2.845901 1_555
Si19 U3 2.845901 1_555
Si19 U1 2.845901 1_555
Pt0 Si8 2.426482 1_555
Pt0 Si2 2.445598 1_655
Pt0 Si14 2.477510 1_555
Pt0 U1 3.089082 1_555
Pt0 Pt45 3.193614 1_655
Pt0 Pt31 3.193614 1_655
Pt1 Si9 2.281705 1_565
Pt1 Si7 2.508990 1_555
Pt1 Si13 2.508999 1_555
Pt1 Si6 2.508999 1_555
Pt2 Si12 2.426482 1_555
Pt2 Si2 2.445598 1_556
Pt2 Si20 2.477510 1_555
Pt2 U2 3.089082 1_555
Pt2 Pt36 3.193614 1_556
Pt2 Pt31 3.193614 1_556
Pt3 Si4 2.281705 1_655
Pt3 Si7 2.508990 1_555
Pt3 Si13 2.508999 1_555
Pt3 Si18 2.508999 1_555
Pt4 Si19 2.426488 1_555
Pt4 Si18 2.445598 1_555
Pt4 Si3 2.477510 1_555
Pt4 U3 3.089082 1_555
Pt4 Pt45 3.193614 1_655
Pt5 Pt6 3.193614 1_455
Pt6 Si9 2.426482 1_555
Pt6 Si13 2.445598 1_545
Pt6 Si1 2.477510 1_555
Pt6 U5 3.089082 1_555
Pt7 Si5 2.458437 1_555
Pt7 Si21 2.490553 1_545
Pt7 Si1 2.490553 1_455
Pt7 Si15 2.490553 1_554
Pt8 Si10 2.426482 1_555
Pt8 Si11 2.445598 1_565
Pt8 Si14 2.477510 1_555
Pt8 U1 3.089082 1_555
Pt9 Si18 2.458447 1_555
Pt9 Si3 2.490543 1_555
Pt9 Si1 2.490553 1_556
Pt9 Si15 2.490553 1_655
Pt10 Si17 2.458447 1_555
Pt10 Si15 2.490543 1_555
Pt10 Si20 2.490553 1_545
Pt10 Si3 2.490553 1_455
Pt11 Si19 2.426488 1_555
Pt11 Si13 2.445598 1_555
Pt11 Si14 2.477510 1_555
Pt11 U1 3.089082 1_555
Pt11 Pt44 3.193614 1_565
Pt11 Pt45 3.193614 1_655
Pt12 Si4 2.426492 1_555
Pt12 Si7 2.445598 1_455
Pt12 Si20 2.477510 1_555
Pt12 U2 3.089082 1_555
Pt12 Pt5 3.193614 1_565
Pt12 Pt31 3.193614 1_556
Pt13 Si4 2.426482 1_555
Pt13 Si18 2.445598 1_455
Pt13 Si15 2.477510 1_555
Pt13 U4 3.089082 1_555
Pt13 Pt45 3.193614 1_555
Pt13 Pt31 3.193614 1_556
Pt14 Si16 2.281705 1_556
Pt14 Si7 2.508990 1_555
Pt14 Si18 2.508999 1_555
Pt14 Si6 2.508999 1_555
Pt15 Si16 2.426492 1_555
Pt15 Si7 2.445598 1_554
Pt15 Si14 2.477510 1_555
Pt15 U1 3.089082 1_555
Pt15 Pt41 3.193614 1_565
Pt15 Pt31 3.193614 1_655
Pt16 Si19 2.281725 1_555
Pt16 Si6 2.508993 1_555
Pt16 Si13 2.508993 1_555
Pt16 Si18 2.508993 1_555
Pt17 Si16 2.426482 1_555
Pt17 Si6 2.445598 1_554
Pt17 Si21 2.477510 1_555
Pt17 U0 3.089082 1_555
Pt17 Pt36 3.193614 1_555
Pt17 Pt41 3.193614 1_565
Pt18 Si10 2.426492 1_555
Pt18 Si5 2.445598 1_565
Pt18 Si21 2.477510 1_555
Pt18 U0 3.089082 1_555
Pt18 Pt41 3.193614 1_565
Pt18 Pt5 3.193614 1_565
Pt19 Si0 2.426488 1_555
Pt19 Si11 2.445598 1_555
Pt19 Si1 2.477510 1_555
Pt19 U5 3.089082 1_555
Pt19 Pt36 3.193614 1_555
Pt19 Pt44 3.193614 1_555
Pt20 Si19 2.426488 1_555
Pt20 Si6 2.445598 1_555
Pt20 Si20 2.477510 1_555
Pt20 U2 3.089082 1_555
Pt20 Pt44 3.193614 1_565
Pt20 Pt36 3.193614 1_556
Pt21 Si13 2.458447 1_555
Pt21 Si14 2.490543 1_555
Pt21 Si1 2.490553 1_565
Pt21 Si21 2.490553 1_655
Pt22 Si0 2.426488 1_555
Pt22 Si17 2.445598 1_555
Pt22 Si15 2.477510 1_555
Pt22 U4 3.089082 1_555
Pt22 Pt44 3.193614 1_555
Pt22 Pt45 3.193614 1_555
Pt23 Si16 2.426482 1_555
Pt23 Si18 2.445598 1_554
Pt23 Si1 2.477510 1_555
Pt23 U5 3.089082 1_555
Pt23 Pt36 3.193614 1_555
Pt23 Pt31 3.193614 1_655
Pt24 Si12 2.426482 1_555
Pt24 Si11 2.445598 1_556
Pt24 Si3 2.477510 1_555
Pt24 U3 3.089082 1_555
Pt24 Pt36 3.193614 1_556
Pt24 Pt41 3.193614 1_556
Pt25 Si10 2.426482 1_555
Pt25 Si17 2.445598 1_565
Pt25 Si20 2.477510 1_555
Pt25 U2 3.089082 1_555
Pt25 Pt44 3.193614 1_565
Pt25 Pt5 3.193614 1_565
Pt26 Si12 2.281705 1_554
Pt26 Si5 2.508990 1_555
Pt26 Si2 2.508999 1_555
Pt26 Si11 2.508999 1_555
Pt27 Si0 2.281725 1_555
Pt27 Si17 2.508993 1_555
Pt27 Si11 2.508993 1_555
Pt27 Si2 2.508993 1_555
Pt28 Si12 2.426492 1_555
Pt28 Si5 2.445598 1_556
Pt28 Si15 2.477510 1_555
Pt28 U4 3.089082 1_555
Pt28 Pt41 3.193614 1_556
Pt28 Pt31 3.193614 1_556
Pt29 Si7 2.458437 1_555
Pt29 Si3 2.490553 1_565
Pt29 Si20 2.490553 1_655
Pt29 Si14 2.490553 1_556
Pt30 Si2 2.458447 1_555
Pt30 Si21 2.490543 1_555
Pt30 Si14 2.490553 1_455
Pt30 Si20 2.490553 1_554
Pt31 Pt34 3.193614 1_455
Pt32 Si8 2.426482 1_555
Pt32 Si17 2.445598 1_655
Pt32 Si3 2.477510 1_555
Pt32 U3 3.089082 1_555
Pt32 Pt45 3.193614 1_655
Pt32 Pt5 3.193614 1_655
Pt33 Si6 2.458447 1_555
Pt33 Si20 2.490543 1_555
Pt33 Si21 2.490553 1_556
Pt33 Si15 2.490553 1_565
Pt34 Si8 2.426492 1_555
Pt34 Si5 2.445598 1_655
Pt34 Si1 2.477510 1_555
Pt34 U5 3.089082 1_555
Pt34 Pt5 3.193614 1_655
Pt35 Si9 2.426482 1_555
Pt35 Si6 2.445598 1_545
Pt35 Si15 2.477510 1_555
Pt35 U4 3.089082 1_555
Pt35 Pt44 3.193614 1_555
Pt35 Pt41 3.193614 1_556
Pt36 Pt4 3.193614 1_554
Pt36 Pt40 3.193614 1_555
Pt37 Si8 2.281705 1_455
Pt37 Si5 2.508990 1_555
Pt37 Si2 2.508999 1_555
Pt37 Si17 2.508999 1_555
Pt38 Si9 2.426492 1_555
Pt38 Si7 2.445598 1_545
Pt38 Si3 2.477510 1_555
Pt38 U3 3.089082 1_555
Pt38 Pt5 3.193614 1_655
Pt38 Pt41 3.193614 1_556
Pt39 Si10 2.281705 1_545
Pt39 Si5 2.508990 1_555
Pt39 Si17 2.508999 1_555
Pt39 Si11 2.508999 1_555
Pt40 Si0 2.426488 1_555
Pt40 Si2 2.445598 1_555
Pt40 Si21 2.477510 1_555
Pt40 U0 3.089082 1_555
Pt40 Pt45 3.193614 1_555
Pt41 Pt8 3.193614 1_545
Pt42 Si4 2.426482 1_555
Pt42 Si13 2.445598 1_455
Pt42 Si21 2.477510 1_555
Pt42 U0 3.089082 1_555
Pt42 Pt45 3.193614 1_555
Pt42 Pt5 3.193614 1_565
Pt43 Si11 2.458447 1_555
Pt43 Si1 2.490543 1_555
Pt43 Si14 2.490553 1_545
Pt43 Si3 2.490553 1_554
Pt44 Pt6 3.193614 1_555
Pt44 Pt8 3.193614 1_545
