# generated using pymatgen
data_Ba3(PSe4)2
_symmetry_space_group_name_H-M   'P 1'
_cell_length_a   6.99250400
_cell_length_b   12.43257000
_cell_length_c   18.33855180
_cell_angle_alpha   89.96834424
_cell_angle_beta   90.00000000
_cell_angle_gamma   90.00000000
_symmetry_Int_Tables_number   1
_chemical_formula_structural   Ba3(PSe4)2
_chemical_formula_sum   'Ba12 P8 Se32'
_cell_volume   1594.25800626
_cell_formula_units_Z   4
loop_
 _symmetry_equiv_pos_site_id
 _symmetry_equiv_pos_as_xyz
  1  'x, y, z'
loop_
 _atom_site_type_symbol
 _atom_site_label
 _atom_site_symmetry_multiplicity
 _atom_site_fract_x
 _atom_site_fract_y
 _atom_site_fract_z
 _atom_site_occupancy
  Ba  Ba0  1  0.50727900  0.84988200  0.07748000  1
  Ba  Ba1  1  0.00727900  0.65011800  0.92252000  1
  Ba  Ba2  1  0.98443300  0.32684900  0.57654300  1
  Ba  Ba3  1  0.99272100  0.34988200  0.07748000  1
  Ba  Ba4  1  0.43505500  0.47277700  0.74656000  1
  Ba  Ba5  1  0.49272100  0.15011800  0.92252000  1
  Ba  Ba6  1  0.56494500  0.52722300  0.25344000  1
  Ba  Ba7  1  0.51556700  0.82684900  0.57654300  1
  Ba  Ba8  1  0.01556700  0.67315100  0.42345700  1
  Ba  Ba9  1  0.48443300  0.17315100  0.42345700  1
  Ba  Ba10  1  0.06494500  0.97277700  0.74656000  1
  Ba  Ba11  1  0.93505500  0.02722300  0.25344000  1
  P  P0  1  0.02033900  0.66758500  0.63890100  1
  P  P1  1  0.54391000  0.83396600  0.86065800  1
  P  P2  1  0.45609000  0.16603400  0.13934200  1
  P  P3  1  0.97966100  0.33241500  0.36109900  1
  P  P4  1  0.52033900  0.83241500  0.36109900  1
  P  P5  1  0.95609000  0.33396600  0.86065800  1
  P  P6  1  0.04391000  0.66603400  0.13934200  1
  P  P7  1  0.47966100  0.16758500  0.63890100  1
  Se  Se0  1  0.23001800  0.39483600  0.90912000  1
  Se  Se1  1  0.73001800  0.10516400  0.09088000  1
  Se  Se2  1  0.64272300  0.79960200  0.25140700  1
  Se  Se3  1  0.49093600  0.32544900  0.58067500  1
  Se  Se4  1  0.78157200  0.89820100  0.92913800  1
  Se  Se5  1  0.26435100  0.40843000  0.37793100  1
  Se  Se6  1  0.00906400  0.82544900  0.58067500  1
  Se  Se7  1  0.73355400  0.93430800  0.41955200  1
  Se  Se8  1  0.21842800  0.10179900  0.07086200  1
  Se  Se9  1  0.35727700  0.20039800  0.74859300  1
  Se  Se10  1  0.76998200  0.60516400  0.09088000  1
  Se  Se11  1  0.41733600  0.09056400  0.24875500  1
  Se  Se12  1  0.14272300  0.70039800  0.74859300  1
  Se  Se13  1  0.95536500  0.15594100  0.87637600  1
  Se  Se14  1  0.23564900  0.90843000  0.37793100  1
  Se  Se15  1  0.91733600  0.40943600  0.75124500  1
  Se  Se16  1  0.76644600  0.43430800  0.41955200  1
  Se  Se17  1  0.58266400  0.90943600  0.75124500  1
  Se  Se18  1  0.85727700  0.29960200  0.25140700  1
  Se  Se19  1  0.28157200  0.60179900  0.07086200  1
  Se  Se20  1  0.26998200  0.89483600  0.90912000  1
  Se  Se21  1  0.54463500  0.65594100  0.87637600  1
  Se  Se22  1  0.26644600  0.06569200  0.58044800  1
  Se  Se23  1  0.08266400  0.59056400  0.24875500  1
  Se  Se24  1  0.45536500  0.34405900  0.12362400  1
  Se  Se25  1  0.73564900  0.59157000  0.62206900  1
  Se  Se26  1  0.99093600  0.17455100  0.41932500  1
  Se  Se27  1  0.04463500  0.84405900  0.12362400  1
  Se  Se28  1  0.23355400  0.56569200  0.58044800  1
  Se  Se29  1  0.71842800  0.39820100  0.92913800  1
  Se  Se30  1  0.50906400  0.67455100  0.41932500  1
  Se  Se31  1  0.76435100  0.09157000  0.62206900  1
loop_
_geom_bond_atom_site_label_1
_geom_bond_atom_site_label_2
_geom_bond_distance
_geom_bond_site_symmetry_2
Ba0 Se27 3.344658 1_555
Ba0 Se4 3.382045 1_554
Ba0 Se2 3.385099 1_555
Ba0 Se19 3.466843 1_555
Ba0 Se1 3.544029 1_565
Ba0 Se20 3.549121 1_554
Ba0 Se10 3.562387 1_555
Ba0 Se8 3.728691 1_565
Ba0 Se27 3.852244 1_655
Ba1 Se21 3.344658 1_455
Ba1 Se19 3.382045 1_556
Ba1 Se12 3.385099 1_555
Ba1 Se4 3.466843 1_455
Ba1 Se0 3.544029 1_555
Ba1 Se10 3.549121 1_456
Ba1 Se20 3.562387 1_555
Ba1 Se29 3.728691 1_455
Ba1 Se21 3.852244 1_555
Ba2 Se15 3.397386 1_555
Ba2 Se31 3.408659 1_555
Ba2 Se28 3.443455 1_655
Ba2 Se26 3.450483 1_555
Ba2 Se3 3.451655 1_555
Ba2 Se16 3.520313 1_555
Ba2 Se3 3.542577 1_655
Ba2 Se22 3.799423 1_655
Ba2 Se25 3.815508 1_555
Ba3 Se24 3.344658 1_655
Ba3 Se29 3.382045 1_554
Ba3 Se18 3.385099 1_555
Ba3 Se8 3.466843 1_655
Ba3 Se10 3.544029 1_555
Ba3 Se0 3.549121 1_654
Ba3 Se1 3.562387 1_555
Ba3 Se19 3.728691 1_655
Ba3 Se24 3.852244 1_555
Ba4 Se21 3.383221 1_555
Ba4 Se9 3.429948 1_555
Ba4 Se25 3.436210 1_555
Ba4 Se0 3.446504 1_555
Ba4 Se15 3.464131 1_555
Ba4 Se12 3.491189 1_555
Ba4 Se28 3.549009 1_555
Ba4 Se3 3.573256 1_555
Ba4 Se15 3.705800 1_455
Ba5 Se13 3.344658 1_555
Ba5 Se8 3.382045 1_556
Ba5 Se9 3.385099 1_555
Ba5 Se29 3.466843 1_555
Ba5 Se20 3.544029 1_545
Ba5 Se1 3.549121 1_556
Ba5 Se0 3.562387 1_555
Ba5 Se4 3.728691 1_545
Ba5 Se13 3.852244 1_455
Ba6 Se24 3.383221 1_555
Ba6 Se2 3.429948 1_555
Ba6 Se5 3.436210 1_555
Ba6 Se10 3.446504 1_555
Ba6 Se23 3.464131 1_555
Ba6 Se18 3.491189 1_555
Ba6 Se16 3.549009 1_555
Ba6 Se30 3.573256 1_555
Ba6 Se23 3.705800 1_655
Ba7 Se17 3.397386 1_555
Ba7 Se25 3.408659 1_555
Ba7 Se22 3.443455 1_565
Ba7 Se30 3.450483 1_555
Ba7 Se6 3.451655 1_655
Ba7 Se7 3.520313 1_555
Ba7 Se6 3.542577 1_555
Ba7 Se28 3.799423 1_555
Ba7 Se31 3.815508 1_565
Ba8 Se23 3.397386 1_555
Ba8 Se14 3.408659 1_555
Ba8 Se16 3.443455 1_455
Ba8 Se6 3.450483 1_555
Ba8 Se30 3.451655 1_555
Ba8 Se28 3.520313 1_555
Ba8 Se30 3.542577 1_455
Ba8 Se7 3.799423 1_455
Ba8 Se5 3.815508 1_555
Ba9 Se11 3.397386 1_555
Ba9 Se5 3.408659 1_555
Ba9 Se7 3.443455 1_545
Ba9 Se3 3.450483 1_555
Ba9 Se26 3.451655 1_455
Ba9 Se22 3.520313 1_555
Ba9 Se26 3.542577 1_555
Ba9 Se16 3.799423 1_555
Ba9 Se14 3.815508 1_545
Ba10 Se13 3.383221 1_465
Ba10 Se12 3.429948 1_555
Ba10 Se31 3.436210 1_465
Ba10 Se20 3.446504 1_555
Ba10 Se17 3.464131 1_455
Ba10 Se9 3.491189 1_565
Ba10 Se22 3.549009 1_565
Ba10 Se6 3.573256 1_555
Ba10 Se17 3.705800 1_555
Ba11 Se27 3.383221 1_645
Ba11 Se18 3.429948 1_555
Ba11 Se14 3.436210 1_645
Ba11 Se1 3.446504 1_555
Ba11 Se11 3.464131 1_655
Ba11 Se2 3.491189 1_545
Ba11 Se7 3.549009 1_545
Ba11 Se26 3.573256 1_555
Ba11 Se11 3.705800 1_555
P0 Se12 2.224000 1_555
P0 Se25 2.225222 1_455
P0 Se28 2.231172 1_555
P0 Se6 2.235189 1_555
P1 Se17 2.231072 1_555
P1 Se4 2.231082 1_555
P1 Se21 2.231847 1_555
P1 Se20 2.243255 1_555
P2 Se11 2.231072 1_555
P2 Se8 2.231082 1_555
P2 Se24 2.231847 1_555
P2 Se1 2.243255 1_555
P3 Se18 2.224000 1_555
P3 Se5 2.225222 1_655
P3 Se16 2.231172 1_555
P3 Se26 2.235189 1_555
P4 Se2 2.224000 1_555
P4 Se14 2.225222 1_555
P4 Se7 2.231172 1_555
P4 Se30 2.235189 1_555
P5 Se15 2.231072 1_555
P5 Se29 2.231082 1_555
P5 Se13 2.231847 1_555
P5 Se0 2.243255 1_655
P6 Se23 2.231072 1_555
P6 Se19 2.231082 1_555
P6 Se27 2.231847 1_555
P6 Se10 2.243255 1_455
P7 Se9 2.224000 1_555
P7 Se31 2.225222 1_555
P7 Se22 2.231172 1_555
P7 Se3 2.235189 1_555
