# generated using pymatgen
data_VBiO4
_symmetry_space_group_name_H-M   'P 1'
_cell_length_a   5.10886300
_cell_length_b   5.37160200
_cell_length_c   12.05569000
_cell_angle_alpha   90.00000000
_cell_angle_beta   90.00000000
_cell_angle_gamma   90.00000000
_symmetry_Int_Tables_number   1
_chemical_formula_structural   VBiO4
_chemical_formula_sum   'V4 Bi4 O16'
_cell_volume   330.84163285
_cell_formula_units_Z   4
loop_
 _symmetry_equiv_pos_site_id
 _symmetry_equiv_pos_as_xyz
  1  'x, y, z'
loop_
 _atom_site_type_symbol
 _atom_site_label
 _atom_site_symmetry_multiplicity
 _atom_site_fract_x
 _atom_site_fract_y
 _atom_site_fract_z
 _atom_site_occupancy
  V  V0  1  0.00000000  0.75000000  0.39421500  1
  V  V1  1  0.50000000  0.25000000  0.10578500  1
  V  V2  1  0.00000000  0.25000000  0.60578500  1
  V  V3  1  0.50000000  0.75000000  0.89421500  1
  Bi  Bi0  1  0.00000000  0.75000000  0.11585300  1
  Bi  Bi1  1  0.50000000  0.25000000  0.38414700  1
  Bi  Bi2  1  0.00000000  0.25000000  0.88414700  1
  Bi  Bi3  1  0.50000000  0.75000000  0.61585300  1
  O  O0  1  0.24407900  0.08113900  0.03392000  1
  O  O1  1  0.74407900  0.91886100  0.46608000  1
  O  O2  1  0.25592100  0.58113900  0.46608000  1
  O  O3  1  0.75592100  0.41886100  0.03392000  1
  O  O4  1  0.75592100  0.91886100  0.96608000  1
  O  O5  1  0.25592100  0.08113900  0.53392000  1
  O  O6  1  0.74407900  0.41886100  0.53392000  1
  O  O7  1  0.24407900  0.58113900  0.96608000  1
  O  O8  1  0.64934900  0.04391100  0.19366100  1
  O  O9  1  0.14934900  0.95608900  0.30633900  1
  O  O10  1  0.85065100  0.54391100  0.30633900  1
  O  O11  1  0.35065100  0.45608900  0.19366100  1
  O  O12  1  0.35065100  0.95608900  0.80633900  1
  O  O13  1  0.85065100  0.04391100  0.69366100  1
  O  O14  1  0.14934900  0.45608900  0.69366100  1
  O  O15  1  0.64934900  0.54391100  0.80633900  1
loop_
_geom_bond_atom_site_label_1
_geom_bond_atom_site_label_2
_geom_bond_distance
_geom_bond_site_symmetry_2
Bi0 O4 2.374431 1_454
Bi0 O7 2.374431 1_554
Bi0 O0 2.386322 1_565
Bi0 O3 2.386322 1_455
Bi0 O8 2.565470 1_465
Bi0 O11 2.565470 1_555
Bi0 O9 2.661076 1_555
Bi0 O10 2.661076 1_455
Bi1 O6 2.374431 1_555
Bi1 O5 2.374431 1_555
Bi1 O2 2.386322 1_555
Bi1 O1 2.386322 1_545
Bi1 O10 2.565470 1_555
Bi1 O9 2.565470 1_545
Bi1 O11 2.661076 1_555
Bi1 O8 2.661076 1_555
Bi2 O0 2.374431 1_556
Bi2 O3 2.374431 1_456
Bi2 O7 2.386322 1_555
Bi2 O4 2.386322 1_445
Bi2 O15 2.565470 1_455
Bi2 O12 2.565470 1_545
Bi2 O14 2.661076 1_555
Bi2 O13 2.661076 1_455
Bi3 O1 2.374431 1_555
Bi3 O2 2.374431 1_555
Bi3 O6 2.386322 1_555
Bi3 O5 2.386322 1_565
Bi3 O13 2.565470 1_565
Bi3 O14 2.565470 1_555
Bi3 O12 2.661076 1_555
Bi3 O15 2.661076 1_555
O0 V1 1.811858 1_555
O1 V0 1.811858 1_655
O2 V0 1.811858 1_555
O3 V1 1.811858 1_555
O4 V3 1.811858 1_555
O5 V2 1.811858 1_555
O6 V2 1.811858 1_655
O7 V3 1.811858 1_555
O8 V1 1.711732 1_555
O9 V0 1.711732 1_555
O10 V0 1.711732 1_655
O11 V1 1.711732 1_555
O12 V3 1.711732 1_555
O13 V2 1.711732 1_655
O14 V2 1.711732 1_555
O15 V3 1.711732 1_555
