# generated using pymatgen
data_Na2SnSe3
_symmetry_space_group_name_H-M   'P 1'
_cell_length_a   12.63012300
_cell_length_b   14.18343400
_cell_length_c   24.25102800
_cell_angle_alpha   90.00000000
_cell_angle_beta   90.00000000
_cell_angle_gamma   90.00000000
_symmetry_Int_Tables_number   1
_chemical_formula_structural   Na2SnSe3
_chemical_formula_sum   'Na48 Sn24 Se72'
_cell_volume   4344.29316697
_cell_formula_units_Z   24
loop_
 _symmetry_equiv_pos_site_id
 _symmetry_equiv_pos_as_xyz
  1  'x, y, z'
loop_
 _atom_site_type_symbol
 _atom_site_label
 _atom_site_symmetry_multiplicity
 _atom_site_fract_x
 _atom_site_fract_y
 _atom_site_fract_z
 _atom_site_occupancy
  Na  Na0  1  0.87877500  0.17008900  0.83167600  1
  Na  Na1  1  0.57336300  0.62249000  0.48363700  1
  Na  Na2  1  0.07567200  0.90703500  0.65387400  1
  Na  Na3  1  0.42432800  0.40703500  0.65387400  1
  Na  Na4  1  0.93668200  0.60719700  0.99186400  1
  Na  Na5  1  0.61655000  0.11402400  0.17261700  1
  Na  Na6  1  0.62122500  0.67008900  0.66832400  1
  Na  Na7  1  0.07336300  0.87751000  0.98363700  1
  Na  Na8  1  0.07192500  0.40081100  0.16866400  1
  Na  Na9  1  0.11655000  0.38597600  0.82738300  1
  Na  Na10  1  0.57336300  0.62249000  0.01636300  1
  Na  Na11  1  0.61655000  0.11402400  0.32738300  1
  Na  Na12  1  0.07336300  0.87751000  0.51636300  1
  Na  Na13  1  0.92807500  0.59918900  0.83133600  1
  Na  Na14  1  0.62122500  0.67008900  0.83167600  1
  Na  Na15  1  0.37877500  0.32991100  0.33167600  1
  Na  Na16  1  0.93668200  0.60719700  0.50813600  1
  Na  Na17  1  0.42432800  0.40703500  0.84612600  1
  Na  Na18  1  0.87877500  0.17008900  0.66832400  1
  Na  Na19  1  0.56331800  0.10719700  0.50813600  1
  Na  Na20  1  0.42663700  0.37751000  0.51636300  1
  Na  Na21  1  0.57192500  0.09918900  0.83133600  1
  Na  Na22  1  0.42807500  0.90081100  0.33133600  1
  Na  Na23  1  0.92432800  0.09296500  0.15387400  1
  Na  Na24  1  0.37877500  0.32991100  0.16832400  1
  Na  Na25  1  0.12122500  0.82991100  0.16832400  1
  Na  Na26  1  0.07567200  0.90703500  0.84612600  1
  Na  Na27  1  0.06331800  0.39280300  0.00813600  1
  Na  Na28  1  0.06331800  0.39280300  0.49186400  1
  Na  Na29  1  0.38345000  0.88597600  0.82738300  1
  Na  Na30  1  0.92663700  0.12249000  0.01636300  1
  Na  Na31  1  0.88345000  0.61402400  0.17261700  1
  Na  Na32  1  0.92807500  0.59918900  0.66866400  1
  Na  Na33  1  0.92432800  0.09296500  0.34612600  1
  Na  Na34  1  0.38345000  0.88597600  0.67261700  1
  Na  Na35  1  0.57567200  0.59296500  0.15387400  1
  Na  Na36  1  0.42807500  0.90081100  0.16866400  1
  Na  Na37  1  0.57567200  0.59296500  0.34612600  1
  Na  Na38  1  0.11655000  0.38597600  0.67261700  1
  Na  Na39  1  0.57192500  0.09918900  0.66866400  1
  Na  Na40  1  0.12122500  0.82991100  0.33167600  1
  Na  Na41  1  0.92663700  0.12249000  0.48363700  1
  Na  Na42  1  0.43668200  0.89280300  0.00813600  1
  Na  Na43  1  0.07192500  0.40081100  0.33133600  1
  Na  Na44  1  0.88345000  0.61402400  0.32738300  1
  Na  Na45  1  0.42663700  0.37751000  0.98363700  1
  Na  Na46  1  0.56331800  0.10719700  0.99186400  1
  Na  Na47  1  0.43668200  0.89280300  0.49186400  1
  Sn  Sn0  1  0.72021600  0.40871600  0.58273000  1
  Sn  Sn1  1  0.27978400  0.59128400  0.08273000  1
  Sn  Sn2  1  0.77978400  0.90871600  0.91727000  1
  Sn  Sn3  1  0.26917000  0.12389400  0.91609800  1
  Sn  Sn4  1  0.23083000  0.62389400  0.58390200  1
  Sn  Sn5  1  0.27325800  0.11792400  0.25000000  1
  Sn  Sn6  1  0.26917000  0.12389400  0.58390200  1
  Sn  Sn7  1  0.77978400  0.90871600  0.58273000  1
  Sn  Sn8  1  0.72021600  0.40871600  0.91727000  1
  Sn  Sn9  1  0.22021600  0.09128400  0.41727000  1
  Sn  Sn10  1  0.22674200  0.61792400  0.25000000  1
  Sn  Sn11  1  0.23083000  0.62389400  0.91609800  1
  Sn  Sn12  1  0.73083000  0.87610600  0.08390200  1
  Sn  Sn13  1  0.27425700  0.18170200  0.75000000  1
  Sn  Sn14  1  0.72574300  0.81829800  0.25000000  1
  Sn  Sn15  1  0.76917000  0.37610600  0.41609800  1
  Sn  Sn16  1  0.77325800  0.38207600  0.75000000  1
  Sn  Sn17  1  0.73083000  0.87610600  0.41609800  1
  Sn  Sn18  1  0.27978400  0.59128400  0.41727000  1
  Sn  Sn19  1  0.22021600  0.09128400  0.08273000  1
  Sn  Sn20  1  0.22574300  0.68170200  0.75000000  1
  Sn  Sn21  1  0.76917000  0.37610600  0.08390200  1
  Sn  Sn22  1  0.77425700  0.31829800  0.25000000  1
  Sn  Sn23  1  0.72674200  0.88207600  0.75000000  1
  Se  Se0  1  0.67264300  0.29890300  0.66786100  1
  Se  Se1  1  0.58505100  0.94505000  0.58550000  1
  Se  Se2  1  0.08505100  0.55495000  0.08550000  1
  Se  Se3  1  0.42978700  0.47332700  0.08730100  1
  Se  Se4  1  0.44081100  0.21401800  0.90731600  1
  Se  Se5  1  0.44081100  0.21401800  0.59268400  1
  Se  Se6  1  0.25432300  0.94145900  0.25000000  1
  Se  Se7  1  0.77095400  0.55310400  0.07293900  1
  Se  Se8  1  0.16649100  0.20068500  0.99953700  1
  Se  Se9  1  0.04560600  0.69287100  0.25000000  1
  Se  Se10  1  0.22904600  0.44689600  0.92706100  1
  Se  Se11  1  0.82735700  0.79890300  0.83213900  1
  Se  Se12  1  0.27095400  0.94689600  0.92706100  1
  Se  Se13  1  0.58769600  0.94537200  0.25000000  1
  Se  Se14  1  0.19465400  0.85721900  0.75000000  1
  Se  Se15  1  0.32735700  0.70109700  0.33213900  1
  Se  Se16  1  0.27095400  0.94689600  0.57293900  1
  Se  Se17  1  0.75432300  0.55854100  0.75000000  1
  Se  Se18  1  0.17264300  0.20109700  0.33213900  1
  Se  Se19  1  0.24567700  0.44145900  0.25000000  1
  Se  Se20  1  0.83350900  0.79931500  0.49953700  1
  Se  Se21  1  0.82735700  0.79890300  0.66786100  1
  Se  Se22  1  0.80534600  0.14278100  0.25000000  1
  Se  Se23  1  0.08769600  0.55462800  0.75000000  1
  Se  Se24  1  0.55918900  0.78598200  0.09268400  1
  Se  Se25  1  0.30534600  0.35721900  0.75000000  1
  Se  Se26  1  0.17264300  0.20109700  0.16786100  1
  Se  Se27  1  0.16649100  0.20068500  0.50046300  1
  Se  Se28  1  0.72904600  0.05310400  0.07293900  1
  Se  Se29  1  0.95439400  0.30712900  0.75000000  1
  Se  Se30  1  0.66649100  0.29931500  0.49953700  1
  Se  Se31  1  0.85955000  0.84203200  0.33323400  1
  Se  Se32  1  0.08505100  0.55495000  0.41450000  1
  Se  Se33  1  0.58505100  0.94505000  0.91450000  1
  Se  Se34  1  0.67264300  0.29890300  0.83213900  1
  Se  Se35  1  0.33350900  0.70068500  0.50046300  1
  Se  Se36  1  0.94081100  0.28598200  0.40731600  1
  Se  Se37  1  0.05918900  0.71401800  0.90731600  1
  Se  Se38  1  0.66649100  0.29931500  0.00046300  1
  Se  Se39  1  0.07021300  0.97332700  0.41269900  1
  Se  Se40  1  0.83350900  0.79931500  0.00046300  1
  Se  Se41  1  0.41230400  0.05462800  0.75000000  1
  Se  Se42  1  0.57021300  0.52667300  0.58730100  1
  Se  Se43  1  0.41494900  0.05495000  0.41450000  1
  Se  Se44  1  0.14045000  0.15796800  0.83323400  1
  Se  Se45  1  0.42978700  0.47332700  0.41269900  1
  Se  Se46  1  0.85955000  0.84203200  0.16676600  1
  Se  Se47  1  0.35955000  0.65796800  0.83323400  1
  Se  Se48  1  0.92978700  0.02667300  0.58730100  1
  Se  Se49  1  0.77095400  0.55310400  0.42706100  1
  Se  Se50  1  0.45439400  0.19287100  0.25000000  1
  Se  Se51  1  0.91230400  0.44537200  0.25000000  1
  Se  Se52  1  0.92978700  0.02667300  0.91269900  1
  Se  Se53  1  0.35955000  0.65796800  0.66676600  1
  Se  Se54  1  0.54560600  0.80712900  0.75000000  1
  Se  Se55  1  0.94081100  0.28598200  0.09268400  1
  Se  Se56  1  0.14045000  0.15796800  0.66676600  1
  Se  Se57  1  0.57021300  0.52667300  0.91269900  1
  Se  Se58  1  0.64045000  0.34203200  0.33323400  1
  Se  Se59  1  0.32735700  0.70109700  0.16786100  1
  Se  Se60  1  0.72904600  0.05310400  0.42706100  1
  Se  Se61  1  0.41494900  0.05495000  0.08550000  1
  Se  Se62  1  0.22904600  0.44689600  0.57293900  1
  Se  Se63  1  0.74567700  0.05854100  0.75000000  1
  Se  Se64  1  0.05918900  0.71401800  0.59268400  1
  Se  Se65  1  0.07021300  0.97332700  0.08730100  1
  Se  Se66  1  0.91494900  0.44505000  0.91450000  1
  Se  Se67  1  0.33350900  0.70068500  0.99953700  1
  Se  Se68  1  0.55918900  0.78598200  0.40731600  1
  Se  Se69  1  0.69465400  0.64278100  0.25000000  1
  Se  Se70  1  0.91494900  0.44505000  0.58550000  1
  Se  Se71  1  0.64045000  0.34203200  0.16676600  1
loop_
_geom_bond_atom_site_label_1
_geom_bond_atom_site_label_2
_geom_bond_distance
_geom_bond_site_symmetry_2
Na0 Se52 2.900620 1_555
Na0 Se29 2.934862 1_555
Na0 Se63 3.041765 1_555
Na0 Se34 3.180600 1_555
Na0 Se44 3.309671 1_655
Na1 Se42 2.858057 1_555
Na1 Se68 2.972362 1_555
Na1 Se49 3.013135 1_555
Na1 Se35 3.251726 1_555
Na1 Se45 3.274722 1_555
Na2 Se14 2.862130 1_555
Na2 Se48 2.980077 1_465
Na2 Se64 3.120906 1_555
Na2 Se16 3.202399 1_555
Na2 Se21 3.507606 1_455
Na3 Se25 2.862130 1_555
Na3 Se42 2.980077 1_555
Na3 Se5 3.120906 1_555
Na3 Se62 3.202399 1_555
Na3 Se0 3.507606 1_555
Na4 Se7 2.972495 1_556
Na4 Se66 2.980670 1_555
Na4 Se37 2.982215 1_655
Na4 Se40 3.027634 1_556
Na4 Se2 3.035969 1_656
Na5 Se28 2.934056 1_555
Na5 Se50 2.994469 1_555
Na5 Se22 3.061694 1_555
Na5 Se13 3.062103 1_545
Na5 Se71 3.251092 1_555
Na5 Se61 3.413034 1_555
Na6 Se42 2.900620 1_555
Na6 Se54 2.934862 1_555
Na6 Se17 3.041765 1_555
Na6 Se21 3.180600 1_555
Na6 Se53 3.309671 1_555
Na7 Se65 2.858057 1_556
Na7 Se37 2.972362 1_555
Na7 Se12 3.013135 1_555
Na7 Se40 3.251726 1_456
Na7 Se52 3.274722 1_465
Na8 Se51 2.890421 1_455
Na8 Se55 2.964794 1_455
Na8 Se2 2.979023 1_555
Na8 Se19 3.006483 1_555
Na8 Se26 3.105215 1_555
Na9 Se10 2.934056 1_555
Na9 Se29 2.994469 1_455
Na9 Se25 3.061694 1_555
Na9 Se23 3.062103 1_555
Na9 Se44 3.251092 1_555
Na9 Se66 3.413034 1_455
Na10 Se57 2.858057 1_554
Na10 Se24 2.972362 1_555
Na10 Se7 3.013135 1_555
Na10 Se67 3.251726 1_554
Na10 Se3 3.274722 1_555
Na11 Se60 2.934056 1_555
Na11 Se50 2.994469 1_555
Na11 Se22 3.061694 1_555
Na11 Se13 3.062103 1_545
Na11 Se58 3.251092 1_555
Na11 Se43 3.413034 1_555
Na12 Se39 2.858057 1_555
Na12 Se64 2.972362 1_555
Na12 Se16 3.013135 1_555
Na12 Se20 3.251726 1_455
Na12 Se48 3.274722 1_465
Na13 Se23 2.890421 1_655
Na13 Se37 2.964794 1_655
Na13 Se66 2.979023 1_555
Na13 Se17 3.006483 1_555
Na13 Se11 3.105215 1_555
Na14 Se57 2.900620 1_555
Na14 Se54 2.934862 1_555
Na14 Se17 3.041765 1_555
Na14 Se11 3.180600 1_555
Na14 Se47 3.309671 1_555
Na15 Se45 2.900620 1_555
Na15 Se50 2.934862 1_555
Na15 Se19 3.041765 1_555
Na15 Se18 3.180600 1_555
Na15 Se58 3.309671 1_555
Na16 Se49 2.972495 1_555
Na16 Se70 2.980670 1_555
Na16 Se64 2.982215 1_655
Na16 Se20 3.027634 1_555
Na16 Se32 3.035969 1_655
Na17 Se25 2.862130 1_555
Na17 Se57 2.980077 1_555
Na17 Se4 3.120906 1_555
Na17 Se10 3.202399 1_555
Na17 Se34 3.507606 1_555
Na18 Se48 2.900620 1_555
Na18 Se29 2.934862 1_555
Na18 Se63 3.041765 1_555
Na18 Se0 3.180600 1_555
Na18 Se56 3.309671 1_655
Na19 Se60 2.972495 1_555
Na19 Se1 2.980670 1_545
Na19 Se5 2.982215 1_555
Na19 Se30 3.027634 1_555
Na19 Se43 3.035969 1_555
Na20 Se45 2.858057 1_555
Na20 Se5 2.972362 1_555
Na20 Se62 3.013135 1_555
Na20 Se30 3.251726 1_555
Na20 Se42 3.274722 1_555
Na21 Se41 2.890421 1_555
Na21 Se4 2.964794 1_555
Na21 Se33 2.979023 1_545
Na21 Se63 3.006483 1_555
Na21 Se34 3.105215 1_555
Na22 Se13 2.890421 1_555
Na22 Se68 2.964794 1_555
Na22 Se43 2.979023 1_565
Na22 Se6 3.006483 1_555
Na22 Se15 3.105215 1_555
Na23 Se22 2.862130 1_555
Na23 Se65 2.980077 1_645
Na23 Se55 3.120906 1_555
Na23 Se28 3.202399 1_555
Na23 Se26 3.507606 1_655
Na24 Se3 2.900620 1_555
Na24 Se50 2.934862 1_555
Na24 Se19 3.041765 1_555
Na24 Se26 3.180600 1_555
Na24 Se71 3.309671 1_555
Na25 Se65 2.900620 1_555
Na25 Se9 2.934862 1_555
Na25 Se6 3.041765 1_555
Na25 Se59 3.180600 1_555
Na25 Se46 3.309671 1_455
Na26 Se14 2.862130 1_555
Na26 Se52 2.980077 1_465
Na26 Se37 3.120906 1_555
Na26 Se12 3.202399 1_555
Na26 Se11 3.507606 1_455
Na27 Se10 2.972495 1_554
Na27 Se2 2.980670 1_555
Na27 Se55 2.982215 1_455
Na27 Se8 3.027634 1_554
Na27 Se66 3.035969 1_454
Na28 Se62 2.972495 1_555
Na28 Se32 2.980670 1_555
Na28 Se36 2.982215 1_455
Na28 Se27 3.027634 1_555
Na28 Se70 3.035969 1_455
Na29 Se12 2.934056 1_555
Na29 Se54 2.994469 1_555
Na29 Se14 3.061694 1_555
Na29 Se41 3.062103 1_565
Na29 Se47 3.251092 1_555
Na29 Se33 3.413034 1_555
Na30 Se52 2.858057 1_554
Na30 Se55 2.972362 1_555
Na30 Se28 3.013135 1_555
Na30 Se8 3.251726 1_654
Na30 Se65 3.274722 1_645
Na31 Se7 2.934056 1_555
Na31 Se9 2.994469 1_655
Na31 Se69 3.061694 1_555
Na31 Se51 3.062103 1_555
Na31 Se46 3.251092 1_555
Na31 Se2 3.413034 1_655
Na32 Se23 2.890421 1_655
Na32 Se64 2.964794 1_655
Na32 Se70 2.979023 1_555
Na32 Se17 3.006483 1_555
Na32 Se21 3.105215 1_555
Na33 Se22 2.862130 1_555
Na33 Se39 2.980077 1_645
Na33 Se36 3.120906 1_555
Na33 Se60 3.202399 1_555
Na33 Se18 3.507606 1_655
Na34 Se16 2.934056 1_555
Na34 Se54 2.994469 1_555
Na34 Se14 3.061694 1_555
Na34 Se41 3.062103 1_565
Na34 Se53 3.251092 1_555
Na34 Se1 3.413034 1_555
Na35 Se69 2.862130 1_555
Na35 Se3 2.980077 1_555
Na35 Se24 3.120906 1_555
Na35 Se7 3.202399 1_555
Na35 Se59 3.507606 1_555
Na36 Se13 2.890421 1_555
Na36 Se24 2.964794 1_555
Na36 Se61 2.979023 1_565
Na36 Se6 3.006483 1_555
Na36 Se59 3.105215 1_555
Na37 Se69 2.862130 1_555
Na37 Se45 2.980077 1_555
Na37 Se68 3.120906 1_555
Na37 Se49 3.202399 1_555
Na37 Se15 3.507606 1_555
Na38 Se62 2.934056 1_555
Na38 Se29 2.994469 1_455
Na38 Se25 3.061694 1_555
Na38 Se23 3.062103 1_555
Na38 Se56 3.251092 1_555
Na38 Se70 3.413034 1_455
Na39 Se41 2.890421 1_555
Na39 Se5 2.964794 1_555
Na39 Se1 2.979023 1_545
Na39 Se63 3.006483 1_555
Na39 Se0 3.105215 1_555
Na40 Se39 2.900620 1_555
Na40 Se9 2.934862 1_555
Na40 Se6 3.041765 1_555
Na40 Se15 3.180600 1_555
Na40 Se31 3.309671 1_455
Na41 Se48 2.858057 1_555
Na41 Se36 2.972362 1_555
Na41 Se60 3.013135 1_555
Na41 Se27 3.251726 1_655
Na41 Se39 3.274722 1_645
Na42 Se12 2.972495 1_554
Na42 Se61 2.980670 1_565
Na42 Se24 2.982215 1_555
Na42 Se67 3.027634 1_554
Na42 Se33 3.035969 1_554
Na43 Se51 2.890421 1_455
Na43 Se36 2.964794 1_455
Na43 Se32 2.979023 1_555
Na43 Se19 3.006483 1_555
Na43 Se18 3.105215 1_555
Na44 Se49 2.934056 1_555
Na44 Se9 2.994469 1_655
Na44 Se69 3.061694 1_555
Na44 Se51 3.062103 1_555
Na44 Se31 3.251092 1_555
Na44 Se32 3.413034 1_655
Na45 Se3 2.858057 1_556
Na45 Se4 2.972362 1_555
Na45 Se10 3.013135 1_555
Na45 Se38 3.251726 1_556
Na45 Se57 3.274722 1_555
Na46 Se28 2.972495 1_556
Na46 Se33 2.980670 1_545
Na46 Se4 2.982215 1_555
Na46 Se38 3.027634 1_556
Na46 Se61 3.035969 1_556
Na47 Se16 2.972495 1_555
Na47 Se43 2.980670 1_565
Na47 Se68 2.982215 1_555
Na47 Se35 3.027634 1_555
Na47 Se1 3.035969 1_555
Se0 Sn16 2.640911 1_555
Se0 Sn0 2.655020 1_555
Se1 Sn7 2.513809 1_555
Se2 Sn1 2.513809 1_555
Se3 Sn1 2.529956 1_555
Se4 Sn3 2.525646 1_555
Se5 Sn6 2.525646 1_555
Se6 Sn5 2.514279 1_565
Se7 Sn21 2.524579 1_555
Se8 Sn19 2.634107 1_556
Se8 Sn3 2.638667 1_555
Se9 Sn10 2.522672 1_555
Se10 Sn11 2.524579 1_555
Se11 Sn23 2.640911 1_555
Se11 Sn2 2.655020 1_555
Se12 Sn3 2.524579 1_565
Se13 Sn14 2.507672 1_555
Se14 Sn20 2.520210 1_555
Se15 Sn10 2.640911 1_555
Se15 Sn18 2.655020 1_555
Se16 Sn6 2.524579 1_565
Se17 Sn16 2.514279 1_555
Se18 Sn5 2.640911 1_555
Se18 Sn9 2.655020 1_555
Se19 Sn10 2.514279 1_555
Se20 Sn7 2.634107 1_555
Se20 Sn17 2.638667 1_555
Se21 Sn23 2.640911 1_555
Se21 Sn7 2.655020 1_555
Se22 Sn22 2.520210 1_555
Se23 Sn20 2.507672 1_555
Se24 Sn12 2.525646 1_555
Se25 Sn13 2.520210 1_555
Se26 Sn5 2.640911 1_555
Se26 Sn19 2.655020 1_555
Se27 Sn9 2.634107 1_555
Se27 Sn6 2.638667 1_555
Se28 Sn12 2.524579 1_545
Se29 Sn16 2.522672 1_555
Se30 Sn0 2.634107 1_555
Se30 Sn15 2.638667 1_555
Se31 Sn17 2.629613 1_555
Se31 Sn14 2.654016 1_555
Se32 Sn18 2.513809 1_555
Se33 Sn2 2.513809 1_555
Se34 Sn16 2.640911 1_555
Se34 Sn8 2.655020 1_555
Se35 Sn18 2.634107 1_555
Se35 Sn4 2.638667 1_555
Se36 Sn15 2.525646 1_555
Se37 Sn11 2.525646 1_555
Se38 Sn8 2.634107 1_554
Se38 Sn21 2.638667 1_555
Se39 Sn9 2.529956 1_565
Se40 Sn2 2.634107 1_554
Se40 Sn12 2.638667 1_555
Se41 Sn13 2.507672 1_555
Se42 Sn0 2.529956 1_555
Se43 Sn9 2.513809 1_555
Se44 Sn3 2.629613 1_555
Se44 Sn13 2.654016 1_555
Se45 Sn18 2.529956 1_555
Se46 Sn12 2.629613 1_555
Se46 Sn14 2.654016 1_555
Se47 Sn11 2.629613 1_555
Se47 Sn20 2.654016 1_555
Se48 Sn7 2.529956 1_545
Se49 Sn15 2.524579 1_555
Se50 Sn5 2.522672 1_555
Se51 Sn22 2.507672 1_555
Se52 Sn2 2.529956 1_545
Se53 Sn4 2.629613 1_555
Se53 Sn20 2.654016 1_555
Se54 Sn23 2.522672 1_555
Se55 Sn21 2.525646 1_555
Se56 Sn6 2.629613 1_555
Se56 Sn13 2.654016 1_555
Se57 Sn8 2.529956 1_555
Se58 Sn15 2.629613 1_555
Se58 Sn22 2.654016 1_555
Se59 Sn10 2.640911 1_555
Se59 Sn1 2.655020 1_555
Se60 Sn17 2.524579 1_545
Se61 Sn19 2.513809 1_555
Se62 Sn4 2.524579 1_555
Se63 Sn23 2.514279 1_545
Se64 Sn4 2.525646 1_555
Se65 Sn19 2.529956 1_565
Se66 Sn8 2.513809 1_555
Se67 Sn1 2.634107 1_556
Se67 Sn11 2.638667 1_555
Se68 Sn17 2.525646 1_555
Se69 Sn14 2.520210 1_555
Se70 Sn0 2.513809 1_555
Se71 Sn21 2.629613 1_555
Se71 Sn22 2.654016 1_555
