# generated using pymatgen
data_Bi(BO2)3
_symmetry_space_group_name_H-M   'P 1'
_cell_length_a   4.28546363
_cell_length_b   4.45608245
_cell_length_c   18.44526688
_cell_angle_alpha   90.00000000
_cell_angle_beta   90.00000000
_cell_angle_gamma   90.00000000
_symmetry_Int_Tables_number   1
_chemical_formula_structural   Bi(BO2)3
_chemical_formula_sum   'Bi4 B12 O24'
_cell_volume   352.23781211
_cell_formula_units_Z   4
loop_
 _symmetry_equiv_pos_site_id
 _symmetry_equiv_pos_as_xyz
  1  'x, y, z'
loop_
 _atom_site_type_symbol
 _atom_site_label
 _atom_site_symmetry_multiplicity
 _atom_site_fract_x
 _atom_site_fract_y
 _atom_site_fract_z
 _atom_site_occupancy
  Bi  Bi0  1  0.30466115  0.15716337  0.33784929  1
  Bi  Bi1  1  0.80466115  0.84283663  0.66215071  1
  Bi  Bi2  1  0.80466115  0.15716337  0.16215071  1
  Bi  Bi3  1  0.30466115  0.84283663  0.83784929  1
  B  B0  1  0.35596434  0.32802935  0.57254362  1
  B  B1  1  0.38277467  0.82469170  0.49831678  1
  B  B2  1  0.33089077  0.36480300  0.71279480  1
  B  B3  1  0.85596434  0.67197065  0.42745638  1
  B  B4  1  0.33089077  0.63519700  0.21279480  1
  B  B5  1  0.85596434  0.32802935  0.92745638  1
  B  B6  1  0.83089077  0.63519700  0.28720520  1
  B  B7  1  0.35596434  0.67197065  0.07254362  1
  B  B8  1  0.83089077  0.36480300  0.78720520  1
  B  B9  1  0.88277467  0.82469170  0.00168322  1
  B  B10  1  0.88277467  0.17530830  0.50168322  1
  B  B11  1  0.38277467  0.17530830  0.99831678  1
  O  O0  1  0.02876588  0.87195365  0.48199899  1
  O  O1  1  0.43096940  0.63865193  0.56035114  1
  O  O2  1  0.52876588  0.87195365  0.01800101  1
  O  O3  1  0.46521626  0.75781784  0.14596738  1
  O  O4  1  0.52876588  0.12804635  0.51800101  1
  O  O5  1  0.83791611  0.69092317  0.78827050  1
  O  O6  1  0.43096940  0.36134807  0.06035114  1
  O  O7  1  0.52535316  0.73713285  0.43179506  1
  O  O8  1  0.46521626  0.24218216  0.64596738  1
  O  O9  1  0.02876588  0.12804635  0.98199899  1
  O  O10  1  0.51158626  0.74715581  0.27600061  1
  O  O11  1  0.02535316  0.73713285  0.06820494  1
  O  O12  1  0.83791611  0.30907683  0.28827050  1
  O  O13  1  0.01158626  0.74715581  0.22399939  1
  O  O14  1  0.52535316  0.26286715  0.93179506  1
  O  O15  1  0.93096940  0.36134807  0.43964886  1
  O  O16  1  0.02535316  0.26286715  0.56820494  1
  O  O17  1  0.01158626  0.25284419  0.72399939  1
  O  O18  1  0.93096940  0.63865193  0.93964886  1
  O  O19  1  0.51158626  0.25284419  0.77600061  1
  O  O20  1  0.33791611  0.69092317  0.71172950  1
  O  O21  1  0.96521626  0.24218216  0.85403262  1
  O  O22  1  0.33791611  0.30907683  0.21172950  1
  O  O23  1  0.96521626  0.75781784  0.35403262  1
loop_
_geom_bond_atom_site_label_1
_geom_bond_atom_site_label_2
_geom_bond_distance
_geom_bond_site_symmetry_2
Bi0 O12 2.301178 1_455
Bi0 O23 2.317731 1_445
Bi0 O10 2.329345 1_545
Bi0 O22 2.426992 1_555
Bi0 O12 2.552820 1_555
Bi0 O15 2.630267 1_455
Bi0 O7 2.720384 1_545
Bi1 O20 2.301178 1_555
Bi1 O8 2.317731 1_565
Bi1 O17 2.329345 1_665
Bi1 O5 2.426992 1_555
Bi1 O20 2.552820 1_655
Bi1 O1 2.630267 1_555
Bi1 O16 2.720384 1_665
Bi2 O22 2.301178 1_555
Bi2 O3 2.317731 1_545
Bi2 O13 2.329345 1_645
Bi2 O12 2.426992 1_555
Bi2 O22 2.552820 1_655
Bi2 O6 2.630267 1_555
Bi2 O11 2.720384 1_645
Bi3 O5 2.301178 1_455
Bi3 O21 2.317731 1_465
Bi3 O19 2.329345 1_565
Bi3 O20 2.426992 1_555
Bi3 O5 2.552820 1_555
Bi3 O18 2.630267 1_455
Bi3 O14 2.720384 1_565
B0 O1 1.438678 1_555
B0 O16 1.448483 1_555
B0 O8 1.483149 1_555
B0 O4 1.534492 1_555
B1 O7 1.425176 1_555
B1 O1 1.428005 1_555
B1 O4 1.533148 1_565
B1 O0 1.560934 1_555
B2 O20 1.453663 1_555
B2 O8 1.466068 1_555
B2 O17 1.471069 1_555
B2 O19 1.485847 1_555
B3 O15 1.438678 1_555
B3 O7 1.448483 1_555
B3 O23 1.483149 1_555
B3 O0 1.534492 1_655
B4 O22 1.453663 1_555
B4 O3 1.466068 1_555
B4 O13 1.471069 1_555
B4 O10 1.485847 1_555
B5 O18 1.438678 1_555
B5 O14 1.448483 1_555
B5 O21 1.483149 1_555
B5 O9 1.534492 1_655
B6 O12 1.453663 1_555
B6 O23 1.466068 1_555
B6 O10 1.471069 1_555
B6 O13 1.485847 1_655
B7 O6 1.438678 1_555
B7 O11 1.448483 1_555
B7 O3 1.483149 1_555
B7 O2 1.534492 1_555
B8 O5 1.453663 1_555
B8 O21 1.466068 1_555
B8 O19 1.471069 1_555
B8 O17 1.485847 1_655
B9 O11 1.425176 1_655
B9 O18 1.428005 1_554
B9 O9 1.533148 1_664
B9 O2 1.560934 1_555
B10 O16 1.425176 1_655
B10 O15 1.428005 1_555
B10 O0 1.533148 1_645
B10 O4 1.560934 1_555
B11 O14 1.425176 1_555
B11 O6 1.428005 1_556
B11 O2 1.533148 1_546
B11 O9 1.560934 1_555
