# generated using pymatgen
data_Ba3Dy2(PS4)4
_symmetry_space_group_name_H-M   'P 1'
_cell_length_a   10.42252000
_cell_length_b   12.76390200
_cell_length_c   19.44652400
_cell_angle_alpha   90.00000000
_cell_angle_beta   90.00000000
_cell_angle_gamma   90.00000000
_symmetry_Int_Tables_number   1
_chemical_formula_structural   Ba3Dy2(PS4)4
_chemical_formula_sum   'Ba12 Dy8 P16 S64'
_cell_volume   2587.01044502
_cell_formula_units_Z   4
loop_
 _symmetry_equiv_pos_site_id
 _symmetry_equiv_pos_as_xyz
  1  'x, y, z'
loop_
 _atom_site_type_symbol
 _atom_site_label
 _atom_site_symmetry_multiplicity
 _atom_site_fract_x
 _atom_site_fract_y
 _atom_site_fract_z
 _atom_site_occupancy
  Ba  Ba0  1  0.21045800  0.60824200  0.22723300  1
  Ba  Ba1  1  0.11691500  0.25000000  0.00000000  1
  Ba  Ba2  1  0.61691500  0.25000000  0.50000000  1
  Ba  Ba3  1  0.21045800  0.89175800  0.77276700  1
  Ba  Ba4  1  0.28954200  0.10824200  0.27276700  1
  Ba  Ba5  1  0.28954200  0.39175800  0.72723300  1
  Ba  Ba6  1  0.71045800  0.60824200  0.27276700  1
  Ba  Ba7  1  0.71045800  0.89175800  0.72723300  1
  Ba  Ba8  1  0.38308500  0.75000000  0.50000000  1
  Ba  Ba9  1  0.88308500  0.75000000  0.00000000  1
  Ba  Ba10  1  0.78954200  0.10824200  0.22723300  1
  Ba  Ba11  1  0.78954200  0.39175800  0.77276700  1
  Dy  Dy0  1  0.62858100  0.38739200  0.07346200  1
  Dy  Dy1  1  0.87141900  0.88739200  0.42653800  1
  Dy  Dy2  1  0.12858100  0.38739200  0.42653800  1
  Dy  Dy3  1  0.37141900  0.61260800  0.92653800  1
  Dy  Dy4  1  0.62858100  0.11260800  0.92653800  1
  Dy  Dy5  1  0.12858100  0.11260800  0.57346200  1
  Dy  Dy6  1  0.37141900  0.88739200  0.07346200  1
  Dy  Dy7  1  0.87141900  0.61260800  0.57346200  1
  P  P0  1  0.99581600  0.13983200  0.39788800  1
  P  P1  1  0.43699700  0.04849800  0.63100000  1
  P  P2  1  0.06300300  0.95150200  0.13100000  1
  P  P3  1  0.49581600  0.13983200  0.10211200  1
  P  P4  1  0.93699700  0.45150200  0.13100000  1
  P  P5  1  0.00418400  0.86016800  0.60211200  1
  P  P6  1  0.49581600  0.36016800  0.89788800  1
  P  P7  1  0.06300300  0.54849800  0.86900000  1
  P  P8  1  0.50418400  0.63983200  0.10211200  1
  P  P9  1  0.56300300  0.95150200  0.36900000  1
  P  P10  1  0.43699700  0.45150200  0.36900000  1
  P  P11  1  0.99581600  0.36016800  0.60211200  1
  P  P12  1  0.00418400  0.63983200  0.39788800  1
  P  P13  1  0.93699700  0.04849800  0.86900000  1
  P  P14  1  0.50418400  0.86016800  0.89788800  1
  P  P15  1  0.56300300  0.54849800  0.63100000  1
  S  S0  1  0.99553300  0.51443900  0.33312600  1
  S  S1  1  0.67951500  0.16945300  0.06801300  1
  S  S2  1  0.38849900  0.09870400  0.01677100  1
  S  S3  1  0.11449000  0.10569900  0.85029500  1
  S  S4  1  0.38551000  0.89430100  0.35029500  1
  S  S5  1  0.11150100  0.59870400  0.48322900  1
  S  S6  1  0.61449000  0.10569900  0.64970500  1
  S  S7  1  0.56932700  0.38799600  0.64704800  1
  S  S8  1  0.61150100  0.59870400  0.01677100  1
  S  S9  1  0.82048500  0.66945300  0.43198700  1
  S  S10  1  0.29124000  0.38666000  0.30883900  1
  S  S11  1  0.00446700  0.48556100  0.66687400  1
  S  S12  1  0.93067300  0.61200400  0.14704800  1
  S  S13  1  0.12014300  0.91449000  0.03259900  1
  S  S14  1  0.70876000  0.61334000  0.69116100  1
  S  S15  1  0.79124000  0.38666000  0.19116100  1
  S  S16  1  0.87985700  0.08551000  0.96740100  1
  S  S17  1  0.56421000  0.76986200  0.15103500  1
  S  S18  1  0.79124000  0.11334000  0.80883900  1
  S  S19  1  0.93579000  0.23013800  0.65103500  1
  S  S20  1  0.38849900  0.40129600  0.98322900  1
  S  S21  1  0.29124000  0.11334000  0.69116100  1
  S  S22  1  0.88551000  0.60569900  0.85029500  1
  S  S23  1  0.88849900  0.40129600  0.51677100  1
  S  S24  1  0.99553300  0.98556100  0.66687400  1
  S  S25  1  0.49553300  0.51443900  0.16687400  1
  S  S26  1  0.88551000  0.89430100  0.14970500  1
  S  S27  1  0.17951500  0.16945300  0.43198700  1
  S  S28  1  0.43579000  0.26986200  0.15103500  1
  S  S29  1  0.37985700  0.08551000  0.53259900  1
  S  S30  1  0.00446700  0.01443900  0.33312600  1
  S  S31  1  0.43579000  0.23013800  0.84896500  1
  S  S32  1  0.61449000  0.39430100  0.35029500  1
  S  S33  1  0.87985700  0.41449000  0.03259900  1
  S  S34  1  0.20876000  0.88666000  0.19116100  1
  S  S35  1  0.62014300  0.91449000  0.46740100  1
  S  S36  1  0.62014300  0.58551000  0.53259900  1
  S  S37  1  0.50446700  0.01443900  0.16687400  1
  S  S38  1  0.11449000  0.39430100  0.14970500  1
  S  S39  1  0.88849900  0.09870400  0.48322900  1
  S  S40  1  0.37985700  0.41449000  0.46740100  1
  S  S41  1  0.06932700  0.38799600  0.85295200  1
  S  S42  1  0.06932700  0.11200400  0.14704800  1
  S  S43  1  0.56421000  0.73013800  0.84896500  1
  S  S44  1  0.93067300  0.88799600  0.85295200  1
  S  S45  1  0.49553300  0.98556100  0.83312600  1
  S  S46  1  0.50446700  0.48556100  0.83312600  1
  S  S47  1  0.43067300  0.88799600  0.64704800  1
  S  S48  1  0.61150100  0.90129600  0.98322900  1
  S  S49  1  0.32048500  0.66945300  0.06801300  1
  S  S50  1  0.06421000  0.76986200  0.34896500  1
  S  S51  1  0.38551000  0.60569900  0.64970500  1
  S  S52  1  0.43067300  0.61200400  0.35295200  1
  S  S53  1  0.82048500  0.83054700  0.56801300  1
  S  S54  1  0.32048500  0.83054700  0.93198700  1
  S  S55  1  0.17951500  0.33054700  0.56801300  1
  S  S56  1  0.12014300  0.58551000  0.96740100  1
  S  S57  1  0.06421000  0.73013800  0.65103500  1
  S  S58  1  0.93579000  0.26986200  0.34896500  1
  S  S59  1  0.67951500  0.33054700  0.93198700  1
  S  S60  1  0.20876000  0.61334000  0.80883900  1
  S  S61  1  0.70876000  0.88666000  0.30883900  1
  S  S62  1  0.56932700  0.11200400  0.35295200  1
  S  S63  1  0.11150100  0.90129600  0.51677100  1
loop_
_geom_bond_atom_site_label_1
_geom_bond_atom_site_label_2
_geom_bond_distance
_geom_bond_site_symmetry_2
Ba0 S0 3.269846 1_455
Ba0 S38 3.275715 1_555
Ba0 S12 3.307146 1_455
Ba0 S10 3.350568 1_555
Ba0 S52 3.353694 1_555
Ba0 S49 3.392992 1_555
Ba0 S25 3.411639 1_555
Ba0 S50 3.490403 1_555
Ba0 S34 3.622315 1_555
Ba1 S33 3.303708 1_455
Ba1 S16 3.303708 1_454
Ba1 S41 3.394933 1_554
Ba1 S42 3.394933 1_555
Ba1 S20 3.442072 1_554
Ba1 S2 3.442072 1_555
Ba1 S3 3.445048 1_554
Ba1 S38 3.445048 1_555
Ba2 S40 3.303708 1_555
Ba2 S29 3.303708 1_555
Ba2 S7 3.394933 1_555
Ba2 S62 3.394933 1_555
Ba2 S39 3.442072 1_555
Ba2 S23 3.442072 1_555
Ba2 S6 3.445048 1_555
Ba2 S32 3.445048 1_555
Ba3 S24 3.269846 1_455
Ba3 S3 3.275715 1_565
Ba3 S44 3.307146 1_455
Ba3 S21 3.350568 1_565
Ba3 S47 3.353694 1_555
Ba3 S54 3.392992 1_555
Ba3 S45 3.411639 1_555
Ba3 S57 3.490403 1_555
Ba3 S60 3.622315 1_555
Ba4 S37 3.269846 1_555
Ba4 S4 3.275715 1_545
Ba4 S62 3.307146 1_555
Ba4 S34 3.350568 1_545
Ba4 S42 3.353694 1_555
Ba4 S27 3.392992 1_555
Ba4 S30 3.411639 1_555
Ba4 S28 3.490403 1_555
Ba4 S10 3.622315 1_555
Ba5 S46 3.269846 1_555
Ba5 S51 3.275715 1_555
Ba5 S7 3.307146 1_555
Ba5 S60 3.350568 1_555
Ba5 S41 3.353694 1_555
Ba5 S55 3.392992 1_555
Ba5 S11 3.411639 1_555
Ba5 S31 3.490403 1_555
Ba5 S21 3.622315 1_555
Ba6 S25 3.269846 1_555
Ba6 S32 3.275715 1_555
Ba6 S52 3.307146 1_555
Ba6 S15 3.350568 1_555
Ba6 S12 3.353694 1_555
Ba6 S9 3.392992 1_555
Ba6 S0 3.411639 1_555
Ba6 S17 3.490403 1_555
Ba6 S61 3.622315 1_555
Ba7 S45 3.269846 1_555
Ba7 S6 3.275715 1_565
Ba7 S47 3.307146 1_555
Ba7 S18 3.350568 1_565
Ba7 S44 3.353694 1_555
Ba7 S53 3.392992 1_555
Ba7 S24 3.411639 1_555
Ba7 S43 3.490403 1_555
Ba7 S14 3.622315 1_555
Ba8 S35 3.303708 1_555
Ba8 S36 3.303708 1_555
Ba8 S47 3.394933 1_555
Ba8 S52 3.394933 1_555
Ba8 S63 3.442072 1_555
Ba8 S5 3.442072 1_555
Ba8 S4 3.445048 1_555
Ba8 S51 3.445048 1_555
Ba9 S13 3.303708 1_655
Ba9 S56 3.303708 1_654
Ba9 S44 3.394933 1_554
Ba9 S12 3.394933 1_555
Ba9 S8 3.442072 1_555
Ba9 S48 3.442072 1_554
Ba9 S22 3.445048 1_554
Ba9 S26 3.445048 1_555
Ba10 S30 3.269846 1_655
Ba10 S26 3.275715 1_545
Ba10 S42 3.307146 1_655
Ba10 S61 3.350568 1_545
Ba10 S62 3.353694 1_555
Ba10 S1 3.392992 1_555
Ba10 S37 3.411639 1_555
Ba10 S58 3.490403 1_555
Ba10 S15 3.622315 1_555
Ba11 S11 3.269846 1_655
Ba11 S22 3.275715 1_555
Ba11 S41 3.307146 1_655
Ba11 S14 3.350568 1_555
Ba11 S7 3.353694 1_555
Ba11 S59 3.392992 1_555
Ba11 S46 3.411639 1_555
Ba11 S19 3.490403 1_555
Ba11 S18 3.622315 1_555
Dy0 S33 2.758601 1_555
Dy0 S25 2.802209 1_555
Dy0 S1 2.833935 1_555
Dy0 S15 2.848325 1_555
Dy0 S59 2.894364 1_554
Dy0 S8 2.919208 1_555
Dy0 S28 2.926368 1_555
Dy0 S20 3.061345 1_554
Dy1 S35 2.758601 1_555
Dy1 S30 2.802209 1_665
Dy1 S9 2.833935 1_555
Dy1 S61 2.848325 1_555
Dy1 S53 2.894364 1_555
Dy1 S39 2.919208 1_565
Dy1 S50 2.926368 1_655
Dy1 S63 3.061345 1_655
Dy2 S40 2.758601 1_555
Dy2 S0 2.802209 1_455
Dy2 S27 2.833935 1_555
Dy2 S10 2.848325 1_555
Dy2 S55 2.894364 1_555
Dy2 S5 2.919208 1_555
Dy2 S58 2.926368 1_455
Dy2 S23 3.061345 1_455
Dy3 S56 2.758601 1_555
Dy3 S46 2.802209 1_555
Dy3 S54 2.833935 1_555
Dy3 S60 2.848325 1_555
Dy3 S49 2.894364 1_556
Dy3 S20 2.919208 1_555
Dy3 S43 2.926368 1_555
Dy3 S8 3.061345 1_556
Dy4 S16 2.758601 1_555
Dy4 S45 2.802209 1_545
Dy4 S59 2.833935 1_555
Dy4 S18 2.848325 1_555
Dy4 S1 2.894364 1_556
Dy4 S48 2.919208 1_545
Dy4 S31 2.926368 1_555
Dy4 S2 3.061345 1_556
Dy5 S29 2.758601 1_555
Dy5 S24 2.802209 1_445
Dy5 S55 2.833935 1_555
Dy5 S21 2.848325 1_555
Dy5 S27 2.894364 1_555
Dy5 S63 2.919208 1_545
Dy5 S19 2.926368 1_455
Dy5 S39 3.061345 1_455
Dy6 S13 2.758601 1_555
Dy6 S37 2.802209 1_565
Dy6 S49 2.833935 1_555
Dy6 S34 2.848325 1_555
Dy6 S54 2.894364 1_554
Dy6 S2 2.919208 1_565
Dy6 S17 2.926368 1_555
Dy6 S48 3.061345 1_554
Dy7 S36 2.758601 1_555
Dy7 S11 2.802209 1_655
Dy7 S53 2.833935 1_555
Dy7 S14 2.848325 1_555
Dy7 S9 2.894364 1_555
Dy7 S23 2.919208 1_555
Dy7 S57 2.926368 1_655
Dy7 S5 3.061345 1_655
P0 S58 2.012735 1_555
P0 S30 2.038583 1_655
P0 S27 2.061158 1_655
P0 S39 2.069027 1_555
P1 S6 2.021779 1_555
P1 S29 2.059017 1_555
P1 S47 2.073314 1_545
P1 S21 2.088429 1_555
P2 S26 2.021779 1_455
P2 S13 2.059017 1_555
P2 S42 2.073314 1_565
P2 S34 2.088429 1_555
P3 S28 2.012735 1_555
P3 S37 2.038583 1_555
P3 S1 2.061158 1_555
P3 S2 2.069027 1_555
P4 S38 2.021779 1_655
P4 S33 2.059017 1_555
P4 S12 2.073314 1_555
P4 S15 2.088429 1_555
P5 S57 2.012735 1_555
P5 S24 2.038583 1_455
P5 S53 2.061158 1_455
P5 S63 2.069027 1_555
P6 S31 2.012735 1_555
P6 S46 2.038583 1_555
P6 S59 2.061158 1_555
P6 S20 2.069027 1_555
P7 S22 2.021779 1_455
P7 S56 2.059017 1_555
P7 S41 2.073314 1_555
P7 S60 2.088429 1_555
P8 S17 2.012735 1_555
P8 S25 2.038583 1_555
P8 S49 2.061158 1_555
P8 S8 2.069027 1_555
P9 S4 2.021779 1_555
P9 S35 2.059017 1_555
P9 S62 2.073314 1_565
P9 S61 2.088429 1_555
P10 S32 2.021779 1_555
P10 S40 2.059017 1_555
P10 S52 2.073314 1_555
P10 S10 2.088429 1_555
P11 S19 2.012735 1_555
P11 S11 2.038583 1_655
P11 S55 2.061158 1_655
P11 S23 2.069027 1_555
P12 S50 2.012735 1_555
P12 S0 2.038583 1_455
P12 S9 2.061158 1_455
P12 S5 2.069027 1_555
P13 S3 2.021779 1_655
P13 S16 2.059017 1_555
P13 S44 2.073314 1_545
P13 S18 2.088429 1_555
P14 S43 2.012735 1_555
P14 S45 2.038583 1_555
P14 S54 2.061158 1_555
P14 S48 2.069027 1_555
P15 S51 2.021779 1_555
P15 S36 2.059017 1_555
P15 S7 2.073314 1_555
P15 S14 2.088429 1_555
