# generated using pymatgen
data_Mg9Si5
_symmetry_space_group_name_H-M   'P 1'
_cell_length_a   7.13460040
_cell_length_b   7.13460105
_cell_length_c   12.29390938
_cell_angle_alpha   90.00000000
_cell_angle_beta   90.00000000
_cell_angle_gamma   119.99999533
_symmetry_Int_Tables_number   1
_chemical_formula_structural   Mg9Si5
_chemical_formula_sum   'Mg18 Si10'
_cell_volume   541.95098160
_cell_formula_units_Z   2
loop_
 _symmetry_equiv_pos_site_id
 _symmetry_equiv_pos_as_xyz
  1  'x, y, z'
loop_
 _atom_site_type_symbol
 _atom_site_label
 _atom_site_symmetry_multiplicity
 _atom_site_fract_x
 _atom_site_fract_y
 _atom_site_fract_z
 _atom_site_occupancy
  Mg  Mg0  1  0.59499117  0.67771788  0.58328674  1
  Mg  Mg1  1  0.91727429  0.59499117  0.08328674  1
  Mg  Mg2  1  0.67771788  0.08272571  0.08328674  1
  Mg  Mg3  1  0.32228212  0.91727429  0.58328674  1
  Mg  Mg4  1  0.08272571  0.40500883  0.58328674  1
  Mg  Mg5  1  0.40500883  0.32228212  0.08328674  1
  Mg  Mg6  1  0.40500883  0.32228212  0.41671326  1
  Mg  Mg7  1  0.08272571  0.40500883  0.91671326  1
  Mg  Mg8  1  0.32228212  0.91727429  0.91671326  1
  Mg  Mg9  1  0.67771788  0.08272571  0.41671326  1
  Mg  Mg10  1  0.91727429  0.59499117  0.41671326  1
  Mg  Mg11  1  0.59499117  0.67771788  0.91671326  1
  Mg  Mg12  1  0.65373774  0.72612356  0.25000000  1
  Mg  Mg13  1  0.92761418  0.65373774  0.75000000  1
  Mg  Mg14  1  0.72612356  0.07238582  0.75000000  1
  Mg  Mg15  1  0.27387644  0.92761418  0.25000000  1
  Mg  Mg16  1  0.07238582  0.34626226  0.25000000  1
  Mg  Mg17  1  0.34626226  0.27387644  0.75000000  1
  Si  Si0  1  -0.00000000  -0.00000000  0.39956391  1
  Si  Si1  1  -0.00000000  -0.00000000  0.89956391  1
  Si  Si2  1  -0.00000000  -0.00000000  0.60043609  1
  Si  Si3  1  -0.00000000  -0.00000000  0.10043609  1
  Si  Si4  1  0.66666700  0.33333300  0.25000000  1
  Si  Si5  1  0.33333300  0.66666700  0.75000000  1
  Si  Si6  1  0.33333300  0.66666700  0.08678164  1
  Si  Si7  1  0.66666700  0.33333300  0.58678164  1
  Si  Si8  1  0.66666700  0.33333300  0.91321836  1
  Si  Si9  1  0.33333300  0.66666700  0.41321836  1
loop_
_geom_bond_atom_site_label_1
_geom_bond_atom_site_label_2
_geom_bond_distance
_geom_bond_site_symmetry_2
Mg0 Si2 2.652729 1_665
Mg0 Si5 2.746772 1_555
Mg0 Si7 2.748986 1_555
Mg0 Si9 2.777685 1_555
Mg1 Si3 2.652732 1_665
Mg1 Si4 2.746772 1_555
Mg1 Si6 2.748972 1_655
Mg1 Si8 2.777686 1_554
Mg2 Si3 2.652724 1_655
Mg2 Si4 2.746772 1_555
Mg2 Si6 2.748977 1_545
Mg2 Si8 2.777686 1_554
Mg3 Si2 2.652724 1_565
Mg3 Si5 2.746772 1_555
Mg3 Si7 2.748977 1_565
Mg3 Si9 2.777686 1_555
Mg4 Si2 2.652732 1_555
Mg4 Si5 2.746772 1_555
Mg4 Si7 2.748972 1_455
Mg4 Si9 2.777686 1_555
Mg5 Si3 2.652729 1_555
Mg5 Si4 2.746772 1_555
Mg5 Si6 2.748986 1_555
Mg5 Si8 2.777685 1_554
Mg6 Si0 2.652729 1_555
Mg6 Si4 2.746772 1_555
Mg6 Si9 2.748986 1_555
Mg6 Si7 2.777685 1_555
Mg7 Si1 2.652732 1_555
Mg7 Si5 2.746772 1_555
Mg7 Si8 2.748972 1_455
Mg7 Si6 2.777686 1_556
Mg8 Si1 2.652724 1_565
Mg8 Si5 2.746772 1_555
Mg8 Si8 2.748977 1_565
Mg8 Si6 2.777686 1_556
Mg9 Si0 2.652724 1_655
Mg9 Si4 2.746772 1_555
Mg9 Si9 2.748977 1_545
Mg9 Si7 2.777686 1_555
Mg10 Si0 2.652732 1_665
Mg10 Si4 2.746772 1_555
Mg10 Si9 2.748972 1_655
Mg10 Si7 2.777686 1_555
Mg11 Si1 2.652729 1_665
Mg11 Si5 2.746772 1_555
Mg11 Si8 2.748986 1_555
Mg11 Si6 2.777685 1_556
Mg12 Si4 2.849646 1_555
Mg12 Si9 2.908997 1_555
Mg12 Si6 2.908997 1_555
Mg12 Si0 2.911163 1_665
Mg12 Si3 2.911163 1_665
Mg13 Si5 2.849639 1_655
Mg13 Si7 2.908996 1_555
Mg13 Si8 2.908996 1_555
Mg13 Si1 2.911163 1_665
Mg13 Si2 2.911163 1_665
Mg14 Si5 2.849643 1_545
Mg14 Si7 2.908992 1_555
Mg14 Si8 2.908992 1_555
Mg14 Si1 2.911163 1_655
Mg14 Si2 2.911163 1_655
Mg15 Si4 2.849643 1_565
Mg15 Si9 2.908992 1_555
Mg15 Si6 2.908992 1_555
Mg15 Si3 2.911163 1_565
Mg15 Si0 2.911163 1_565
Mg16 Si4 2.849639 1_455
Mg16 Si6 2.908996 1_555
Mg16 Si9 2.908996 1_555
Mg16 Si3 2.911163 1_555
Mg16 Si0 2.911163 1_555
Mg17 Si5 2.849646 1_555
Mg17 Si7 2.908997 1_555
Mg17 Si8 2.908997 1_555
Mg17 Si2 2.911163 1_555
Mg17 Si1 2.911163 1_555
Si0 Si2 2.469504 1_555
Si1 Si3 2.469504 1_556
