# generated using pymatgen
data_Ag4HgGe2S7
_symmetry_space_group_name_H-M   'P 1'
_cell_length_a   9.56908987
_cell_length_b   9.56908987
_cell_length_c   10.66264830
_cell_angle_alpha   87.11717712
_cell_angle_beta   87.11717712
_cell_angle_gamma   42.57942704
_symmetry_Int_Tables_number   1
_chemical_formula_structural   Ag4HgGe2S7
_chemical_formula_sum   'Ag8 Hg2 Ge4 S14'
_cell_volume   659.64794582
_cell_formula_units_Z   2
loop_
 _symmetry_equiv_pos_site_id
 _symmetry_equiv_pos_as_xyz
  1  'x, y, z'
loop_
 _atom_site_type_symbol
 _atom_site_label
 _atom_site_symmetry_multiplicity
 _atom_site_fract_x
 _atom_site_fract_y
 _atom_site_fract_z
 _atom_site_occupancy
  Ag  Ag0  1  0.82894500  0.17961100  0.00070700  1
  Ag  Ag1  1  0.17961100  0.82894500  0.50070700  1
  Ag  Ag2  1  0.61000800  0.26122200  0.38705000  1
  Ag  Ag3  1  0.26122200  0.61000800  0.88705000  1
  Ag  Ag4  1  0.47035300  0.10579300  0.09778200  1
  Ag  Ag5  1  0.10579300  0.47035300  0.59778200  1
  Ag  Ag6  1  0.59923800  0.85193900  0.44535300  1
  Ag  Ag7  1  0.85193900  0.59923800  0.94535300  1
  Hg  Hg0  1  0.96670100  0.33445800  0.28713300  1
  Hg  Hg1  1  0.33445800  0.96670100  0.78713300  1
  Ge  Ge0  1  0.40045800  0.74520600  0.17054000  1
  Ge  Ge1  1  0.74520600  0.40045800  0.67054000  1
  Ge  Ge2  1  0.03614500  0.69015200  0.24451100  1
  Ge  Ge3  1  0.69015200  0.03614500  0.74451100  1
  S  S0  1  0.80007100  0.13835300  0.59651900  1
  S  S1  1  0.13835300  0.80007100  0.09651900  1
  S  S2  1  0.70166700  0.96739700  0.28287900  1
  S  S3  1  0.96739700  0.70166700  0.78287900  1
  S  S4  1  0.08789600  0.45234300  0.14105700  1
  S  S5  1  0.45234300  0.08789600  0.64105700  1
  S  S6  1  0.47325600  0.85702100  0.01861900  1
  S  S7  1  0.85702100  0.47325600  0.51861900  1
  S  S8  1  0.29452900  0.93515000  0.34110300  1
  S  S9  1  0.93515000  0.29452900  0.84110300  1
  S  S10  1  0.40186000  0.67297400  0.70454200  1
  S  S11  1  0.67297400  0.40186000  0.20454200  1
  S  S12  1  0.21756600  0.55948800  0.41760500  1
  S  S13  1  0.55948800  0.21756600  0.91760500  1
loop_
_geom_bond_atom_site_label_1
_geom_bond_atom_site_label_2
_geom_bond_distance
_geom_bond_site_symmetry_2
Ag0 S13 2.526621 1_554
Ag0 S9 2.534133 1_554
Ag0 S11 2.634090 1_555
Ag0 S1 2.663715 1_645
Ag1 S12 2.526621 1_555
Ag1 S8 2.534133 1_555
Ag1 S10 2.634090 1_555
Ag1 S0 2.663715 1_465
Ag2 S2 2.548087 1_545
Ag2 S12 2.557467 1_555
Ag2 S0 2.583405 1_555
Ag2 S11 2.602676 1_555
Ag3 S3 2.548087 1_455
Ag3 S13 2.557467 1_555
Ag3 S1 2.583405 1_556
Ag3 S10 2.602676 1_555
Ag4 S2 2.531409 1_545
Ag4 S6 2.546077 1_545
Ag4 S13 2.556233 1_554
Ag4 S4 2.591291 1_555
Ag5 S3 2.531409 1_455
Ag5 S7 2.546077 1_455
Ag5 S12 2.556233 1_555
Ag5 S5 2.591291 1_555
Ag6 S2 2.532589 1_555
Ag6 S7 2.563460 1_555
Ag6 S5 2.633102 1_565
Ag6 S8 2.681288 1_555
Ag7 S3 2.532589 1_555
Ag7 S6 2.563460 1_556
Ag7 S4 2.633102 1_656
Ag7 S9 2.681288 1_555
Hg0 S4 2.571309 1_655
Hg0 S11 2.571706 1_555
Hg0 S7 2.640863 1_555
Hg0 S8 2.660861 1_645
Hg1 S5 2.571309 1_565
Hg1 S10 2.571706 1_555
Hg1 S6 2.640863 1_556
Hg1 S9 2.660861 1_465
Ge0 S6 2.250317 1_555
Ge0 S8 2.252205 1_555
Ge0 S11 2.254781 1_555
Ge0 S1 2.325384 1_555
Ge1 S7 2.250317 1_555
Ge1 S9 2.252205 1_555
Ge1 S10 2.254781 1_555
Ge1 S0 2.325384 1_555
Ge2 S12 2.208410 1_555
Ge2 S2 2.218645 1_455
Ge2 S4 2.275621 1_555
Ge2 S1 2.397024 1_555
Ge3 S13 2.208410 1_555
Ge3 S3 2.218645 1_545
Ge3 S5 2.275621 1_555
Ge3 S0 2.397024 1_555
