# generated using pymatgen
data_SrBr2
_symmetry_space_group_name_H-M   'P 1'
_cell_length_a   4.73752988
_cell_length_b   7.83340755
_cell_length_c   11.39590769
_cell_angle_alpha   90.00000000
_cell_angle_beta   90.00000000
_cell_angle_gamma   90.00000000
_symmetry_Int_Tables_number   1
_chemical_formula_structural   SrBr2
_chemical_formula_sum   'Sr4 Br8'
_cell_volume   422.91355684
_cell_formula_units_Z   4
loop_
 _symmetry_equiv_pos_site_id
 _symmetry_equiv_pos_as_xyz
  1  'x, y, z'
loop_
 _atom_site_type_symbol
 _atom_site_label
 _atom_site_symmetry_multiplicity
 _atom_site_fract_x
 _atom_site_fract_y
 _atom_site_fract_z
 _atom_site_occupancy
  Sr  Sr0  1  0.25000000  0.13137381  0.83164032  1
  Sr  Sr1  1  0.75000000  0.86862619  0.16835968  1
  Sr  Sr2  1  0.25000000  0.36862619  0.33164032  1
  Sr  Sr3  1  0.75000000  0.63137381  0.66835968  1
  Br  Br0  1  0.75000000  0.62209229  0.39118384  1
  Br  Br1  1  0.25000000  0.37790771  0.60881616  1
  Br  Br2  1  0.25000000  0.62510267  0.12597413  1
  Br  Br3  1  0.25000000  0.12209229  0.10881616  1
  Br  Br4  1  0.25000000  0.87489733  0.62597413  1
  Br  Br5  1  0.75000000  0.37489733  0.87402587  1
  Br  Br6  1  0.75000000  0.87790771  0.89118384  1
  Br  Br7  1  0.75000000  0.12510267  0.37402587  1
loop_
_geom_bond_atom_site_label_1
_geom_bond_atom_site_label_2
_geom_bond_distance
_geom_bond_site_symmetry_2
Br0 Sr3 3.159507 1_555
Br0 Sr2 3.164444 1_555
Br0 Sr2 3.164444 1_655
Br0 Sr1 3.190219 1_555
Br1 Sr2 3.159507 1_555
Br1 Sr3 3.164444 1_555
Br1 Sr3 3.164444 1_455
Br1 Sr0 3.190219 1_555
Br2 Sr1 3.079508 1_555
Br2 Sr1 3.079508 1_455
Br2 Sr2 3.087005 1_555
Br3 Sr0 3.159507 1_554
Br3 Sr1 3.164444 1_445
Br3 Sr1 3.164444 1_545
Br3 Sr2 3.190219 1_555
Br4 Sr3 3.079508 1_555
Br4 Sr3 3.079508 1_455
Br4 Sr0 3.087005 1_565
Br5 Sr0 3.079508 1_655
Br5 Sr0 3.079508 1_555
Br5 Sr3 3.087005 1_555
Br6 Sr1 3.159507 1_556
Br6 Sr0 3.164444 1_665
Br6 Sr0 3.164444 1_565
Br6 Sr3 3.190219 1_555
Br7 Sr2 3.079508 1_655
Br7 Sr2 3.079508 1_555
Br7 Sr1 3.087005 1_545
