# generated using pymatgen
data_NaClO3
_symmetry_space_group_name_H-M   'P 1'
_cell_length_a   7.23999300
_cell_length_b   7.23999300
_cell_length_c   7.23999300
_cell_angle_alpha   90.00000000
_cell_angle_beta   90.00000000
_cell_angle_gamma   90.00000000
_symmetry_Int_Tables_number   1
_chemical_formula_structural   NaClO3
_chemical_formula_sum   'Na4 Cl4 O12'
_cell_volume   379.50232323
_cell_formula_units_Z   4
loop_
 _symmetry_equiv_pos_site_id
 _symmetry_equiv_pos_as_xyz
  1  'x, y, z'
loop_
 _atom_site_type_symbol
 _atom_site_label
 _atom_site_symmetry_multiplicity
 _atom_site_fract_x
 _atom_site_fract_y
 _atom_site_fract_z
 _atom_site_occupancy
  Na  Na0  1  0.08197900  0.41802100  0.58197900  1
  Na  Na1  1  0.41802100  0.58197900  0.08197900  1
  Na  Na2  1  0.91802100  0.91802100  0.91802100  1
  Na  Na3  1  0.58197900  0.08197900  0.41802100  1
  Cl  Cl0  1  0.26618300  0.76618300  0.73381700  1
  Cl  Cl1  1  0.76618300  0.73381700  0.26618300  1
  Cl  Cl2  1  0.73381700  0.26618300  0.76618300  1
  Cl  Cl3  1  0.23381700  0.23381700  0.23381700  1
  O  O0  1  0.25033200  0.83890500  0.92889800  1
  O  O1  1  0.42889800  0.24966800  0.16109500  1
  O  O2  1  0.74966800  0.33890600  0.57110200  1
  O  O3  1  0.92889800  0.25033200  0.83890500  1
  O  O4  1  0.07110200  0.75033200  0.66109500  1
  O  O5  1  0.83890500  0.92889800  0.25033200  1
  O  O6  1  0.33890600  0.57110200  0.74966800  1
  O  O7  1  0.75033200  0.66109500  0.07110200  1
  O  O8  1  0.66109500  0.07110200  0.75033200  1
  O  O9  1  0.57110200  0.74966800  0.33890600  1
  O  O10  1  0.16109500  0.42889800  0.24966800  1
  O  O11  1  0.24966800  0.16109500  0.42889800  1
loop_
_geom_bond_atom_site_label_1
_geom_bond_atom_site_label_2
_geom_bond_distance
_geom_bond_site_symmetry_2
Na0 O2 2.474427 1_455
Na0 O10 2.474428 1_555
Na0 O4 2.474428 1_555
Na0 O3 2.482424 1_455
Na0 O11 2.482424 1_555
Na0 O6 2.482430 1_555
Na1 O6 2.474427 1_554
Na1 O7 2.474428 1_555
Na1 O1 2.474428 1_555
Na1 O0 2.482424 1_554
Na1 O10 2.482424 1_555
Na1 O9 2.482430 1_555
Na2 O3 2.474428 1_565
Na2 O0 2.474428 1_655
Na2 O5 2.474428 1_556
Na2 O7 2.482424 1_556
Na2 O4 2.482424 1_655
Na2 O8 2.482424 1_565
Na3 O9 2.474427 1_545
Na3 O8 2.474428 1_555
Na3 O11 2.474428 1_555
Na3 O5 2.482424 1_545
Na3 O1 2.482424 1_555
Na3 O2 2.482430 1_555
Cl0 O0 1.511691 1_555
Cl0 O4 1.511691 1_555
Cl0 O6 1.511694 1_555
Cl1 O5 1.511691 1_555
Cl1 O7 1.511691 1_555
Cl1 O9 1.511694 1_555
Cl2 O3 1.511691 1_555
Cl2 O8 1.511691 1_555
Cl2 O2 1.511694 1_555
Cl3 O11 1.511691 1_555
Cl3 O1 1.511691 1_555
Cl3 O10 1.511691 1_555
