# generated using pymatgen
data_Ni2P2O7
_symmetry_space_group_name_H-M   'P 1'
_cell_length_a   4.45524588
_cell_length_b   5.18727004
_cell_length_c   9.85514526
_cell_angle_alpha   90.00000000
_cell_angle_beta   90.00000000
_cell_angle_gamma   97.30975203
_symmetry_Int_Tables_number   1
_chemical_formula_structural   Ni2P2O7
_chemical_formula_sum   'Ni4 P4 O14'
_cell_volume   225.90692606
_cell_formula_units_Z   2
loop_
 _symmetry_equiv_pos_site_id
 _symmetry_equiv_pos_as_xyz
  1  'x, y, z'
loop_
 _atom_site_type_symbol
 _atom_site_label
 _atom_site_symmetry_multiplicity
 _atom_site_fract_x
 _atom_site_fract_y
 _atom_site_fract_z
 _atom_site_occupancy
  Ni  Ni0  1  0.09693532  0.41798679  0.65640865  1
  Ni  Ni1  1  0.09693532  0.91798679  0.84359135  1
  Ni  Ni2  1  0.90306468  0.58201321  0.34359135  1
  Ni  Ni3  1  0.90306468  0.08201321  0.15640865  1
  P  P0  1  0.35769085  0.15746739  0.38803561  1
  P  P1  1  0.64230915  0.34253261  0.88803561  1
  P  P2  1  0.35769085  0.65746739  0.11196439  1
  P  P3  1  0.64230915  0.84253261  0.61196439  1
  O  O0  1  0.50000000  0.50000000  0.00000000  1
  O  O1  1  0.50000000  0.00000000  0.50000000  1
  O  O2  1  0.11779381  0.96301632  0.32128252  1
  O  O3  1  0.88220619  0.03698368  0.67871748  1
  O  O4  1  0.11779381  0.46301632  0.17871748  1
  O  O5  1  0.88220619  0.53698368  0.82128252  1
  O  O6  1  0.38268723  0.73937136  0.70506410  1
  O  O7  1  0.38268723  0.23937136  0.79493590  1
  O  O8  1  0.61731277  0.76062864  0.20506410  1
  O  O9  1  0.61731277  0.26062864  0.29493590  1
  O  O10  1  0.78608484  0.62601104  0.54240469  1
  O  O11  1  0.78608484  0.12601104  0.95759531  1
  O  O12  1  0.21391516  0.37398896  0.45759531  1
  O  O13  1  0.21391516  0.87398896  0.04240469  1
loop_
_geom_bond_atom_site_label_1
_geom_bond_atom_site_label_2
_geom_bond_distance
_geom_bond_site_symmetry_2
Ni0 O5 2.021550 1_455
Ni0 O6 2.022343 1_555
Ni0 O12 2.047674 1_555
Ni0 O3 2.094863 1_455
Ni0 O7 2.154801 1_555
Ni0 O10 2.173705 1_455
Ni1 O3 2.021550 1_465
Ni1 O7 2.022343 1_565
Ni1 O13 2.047674 1_556
Ni1 O5 2.094863 1_455
Ni1 O6 2.154801 1_555
Ni1 O11 2.173705 1_465
Ni2 O4 2.021550 1_655
Ni2 O9 2.022343 1_555
Ni2 O10 2.047674 1_555
Ni2 O2 2.094863 1_655
Ni2 O8 2.154801 1_555
Ni2 O12 2.173705 1_655
Ni3 O2 2.021550 1_645
Ni3 O8 2.022343 1_545
Ni3 O11 2.047674 1_554
Ni3 O4 2.094863 1_655
Ni3 O9 2.154801 1_555
Ni3 O13 2.173705 1_645
O0 P2 1.555159 1_555
O0 P1 1.555159 1_554
O1 P0 1.555159 1_555
O1 P3 1.555159 1_545
O2 P0 1.522563 1_565
O3 P3 1.522563 1_545
O4 P2 1.522563 1_555
O5 P1 1.522563 1_555
O6 P3 1.519403 1_555
O7 P1 1.519403 1_555
O8 P2 1.519403 1_555
O9 P0 1.519403 1_555
O10 P3 1.524731 1_555
O11 P1 1.524731 1_555
O12 P0 1.524731 1_555
O13 P2 1.524731 1_555
