# generated using pymatgen
data_NaNi(PO3)3
_symmetry_space_group_name_H-M   'P 1'
_cell_length_a   10.01237100
_cell_length_b   10.71403500
_cell_length_c   13.97174500
_cell_angle_alpha   90.00000000
_cell_angle_beta   90.00000000
_cell_angle_gamma   90.00000000
_symmetry_Int_Tables_number   1
_chemical_formula_structural   NaNi(PO3)3
_chemical_formula_sum   'Na8 Ni8 P24 O72'
_cell_volume   1498.78951098
_cell_formula_units_Z   8
loop_
 _symmetry_equiv_pos_site_id
 _symmetry_equiv_pos_as_xyz
  1  'x, y, z'
loop_
 _atom_site_type_symbol
 _atom_site_label
 _atom_site_symmetry_multiplicity
 _atom_site_fract_x
 _atom_site_fract_y
 _atom_site_fract_z
 _atom_site_occupancy
  Na  Na0  1  0.98794200  0.75200100  0.62472500  1
  Na  Na1  1  0.48794200  0.24799900  0.62472500  1
  Na  Na2  1  0.01205800  0.75200100  0.12472500  1
  Na  Na3  1  0.01205800  0.24799900  0.37527500  1
  Na  Na4  1  0.51205800  0.75200100  0.37527500  1
  Na  Na5  1  0.51205800  0.24799900  0.12472500  1
  Na  Na6  1  0.98794200  0.24799900  0.87527500  1
  Na  Na7  1  0.48794200  0.75200100  0.87527500  1
  Ni  Ni0  1  0.97175200  0.50000000  0.25000000  1
  Ni  Ni1  1  0.50000000  0.00000000  0.50000000  1
  Ni  Ni2  1  0.00000000  0.00000000  0.50000000  1
  Ni  Ni3  1  0.02824800  0.50000000  0.75000000  1
  Ni  Ni4  1  0.50000000  0.00000000  0.00000000  1
  Ni  Ni5  1  0.47175200  0.50000000  0.25000000  1
  Ni  Ni6  1  0.00000000  0.00000000  0.00000000  1
  Ni  Ni7  1  0.52824800  0.50000000  0.75000000  1
  P  P0  1  0.23641000  0.04407500  0.14756700  1
  P  P1  1  0.71486900  0.47463700  0.39812600  1
  P  P2  1  0.71486900  0.52536300  0.10187400  1
  P  P3  1  0.21486900  0.52536300  0.39812600  1
  P  P4  1  0.54635400  0.74751600  0.12532200  1
  P  P5  1  0.76359000  0.95592500  0.85243300  1
  P  P6  1  0.95364600  0.74751600  0.87467800  1
  P  P7  1  0.78513100  0.52536300  0.89812600  1
  P  P8  1  0.95364600  0.25248400  0.62532200  1
  P  P9  1  0.45364600  0.25248400  0.87467800  1
  P  P10  1  0.45364600  0.74751600  0.62532200  1
  P  P11  1  0.54635400  0.25248400  0.37467800  1
  P  P12  1  0.04635400  0.25248400  0.12532200  1
  P  P13  1  0.23641000  0.95592500  0.35243300  1
  P  P14  1  0.21486900  0.47463700  0.10187400  1
  P  P15  1  0.28513100  0.52536300  0.60187400  1
  P  P16  1  0.76359000  0.04407500  0.64756700  1
  P  P17  1  0.26359000  0.04407500  0.85243300  1
  P  P18  1  0.28513100  0.47463700  0.89812600  1
  P  P19  1  0.26359000  0.95592500  0.64756700  1
  P  P20  1  0.78513100  0.47463700  0.60187400  1
  P  P21  1  0.73641000  0.95592500  0.14756700  1
  P  P22  1  0.73641000  0.04407500  0.35243300  1
  P  P23  1  0.04635400  0.74751600  0.37467800  1
  O  O0  1  0.65958300  0.56811400  0.85018900  1
  O  O1  1  0.85624300  0.08235700  0.40993400  1
  O  O2  1  0.13342500  0.35227300  0.06521300  1
  O  O3  1  0.36657500  0.35227300  0.93478700  1
  O  O4  1  0.02762500  0.82278700  0.94802500  1
  O  O5  1  0.84255800  0.83049500  0.81991300  1
  O  O6  1  0.86657500  0.35227300  0.56521300  1
  O  O7  1  0.52762500  0.82278700  0.55197500  1
  O  O8  1  0.13796300  0.95149500  0.10800400  1
  O  O9  1  0.84041700  0.56811400  0.14981100  1
  O  O10  1  0.86203700  0.04850500  0.89199600  1
  O  O11  1  0.34255800  0.16950500  0.81991300  1
  O  O12  1  0.34255800  0.83049500  0.68008700  1
  O  O13  1  0.13796300  0.04850500  0.39199600  1
  O  O14  1  0.47237500  0.17721300  0.44802500  1
  O  O15  1  0.13342500  0.64772700  0.43478700  1
  O  O16  1  0.97237500  0.82278700  0.44802500  1
  O  O17  1  0.03036400  0.31715700  0.70295400  1
  O  O18  1  0.14375700  0.08235700  0.90993400  1
  O  O19  1  0.34041700  0.56811400  0.35018900  1
  O  O20  1  0.96963600  0.68284300  0.29704600  1
  O  O21  1  0.84041700  0.43188600  0.35018900  1
  O  O22  1  0.36203700  0.95149500  0.89199600  1
  O  O23  1  0.37890600  0.56167100  0.84725300  1
  O  O24  1  0.15744200  0.83049500  0.31991300  1
  O  O25  1  0.15958300  0.56811400  0.64981100  1
  O  O26  1  0.64375700  0.08235700  0.59006600  1
  O  O27  1  0.86203700  0.95149500  0.60800400  1
  O  O28  1  0.85624300  0.91764300  0.09006600  1
  O  O29  1  0.12109400  0.56167100  0.15274700  1
  O  O30  1  0.53036400  0.68284300  0.70295400  1
  O  O31  1  0.46963600  0.68284300  0.20295400  1
  O  O32  1  0.63796300  0.95149500  0.39199600  1
  O  O33  1  0.35624300  0.91764300  0.40993400  1
  O  O34  1  0.15958300  0.43188600  0.85018900  1
  O  O35  1  0.63796300  0.04850500  0.10800400  1
  O  O36  1  0.14375700  0.91764300  0.59006600  1
  O  O37  1  0.84255800  0.16950500  0.68008700  1
  O  O38  1  0.79312000  0.00000000  0.25000000  1
  O  O39  1  0.20688000  0.00000000  0.75000000  1
  O  O40  1  0.25000000  0.53786000  0.00000000  1
  O  O41  1  0.65958300  0.43188600  0.64981100  1
  O  O42  1  0.34041700  0.43188600  0.14981100  1
  O  O43  1  0.86657500  0.64772700  0.93478700  1
  O  O44  1  0.87890600  0.56167100  0.65274700  1
  O  O45  1  0.63342500  0.35227300  0.43478700  1
  O  O46  1  0.62109400  0.43832900  0.15274700  1
  O  O47  1  0.53036400  0.31715700  0.79704600  1
  O  O48  1  0.36203700  0.04850500  0.60800400  1
  O  O49  1  0.97237500  0.17721300  0.05197500  1
  O  O50  1  0.87890600  0.43832900  0.84725300  1
  O  O51  1  0.96963600  0.31715700  0.20295400  1
  O  O52  1  0.25000000  0.46214000  0.50000000  1
  O  O53  1  0.37890600  0.43832900  0.65274700  1
  O  O54  1  0.64375700  0.91764300  0.90993400  1
  O  O55  1  0.70688000  0.00000000  0.75000000  1
  O  O56  1  0.63342500  0.64772700  0.06521300  1
  O  O57  1  0.03036400  0.68284300  0.79704600  1
  O  O58  1  0.75000000  0.53786000  0.50000000  1
  O  O59  1  0.29312000  0.00000000  0.25000000  1
  O  O60  1  0.35624300  0.08235700  0.09006600  1
  O  O61  1  0.02762500  0.17721300  0.55197500  1
  O  O62  1  0.65744200  0.16950500  0.31991300  1
  O  O63  1  0.36657500  0.64772700  0.56521300  1
  O  O64  1  0.65744200  0.83049500  0.18008700  1
  O  O65  1  0.12109400  0.43832900  0.34725300  1
  O  O66  1  0.75000000  0.46214000  0.00000000  1
  O  O67  1  0.15744200  0.16950500  0.18008700  1
  O  O68  1  0.46963600  0.31715700  0.29704600  1
  O  O69  1  0.62109400  0.56167100  0.34725300  1
  O  O70  1  0.52762500  0.17721300  0.94802500  1
  O  O71  1  0.47237500  0.82278700  0.05197500  1
loop_
_geom_bond_atom_site_label_1
_geom_bond_atom_site_label_2
_geom_bond_distance
_geom_bond_site_symmetry_2
Na0 O44 2.345945 1_555
Na0 O36 2.412027 1_655
Na0 O27 2.492414 1_555
Na0 O57 2.554621 1_655
Na0 O16 2.587369 1_555
Na0 O25 2.637761 1_655
Na1 O53 2.345945 1_555
Na1 O26 2.412027 1_555
Na1 O48 2.492414 1_555
Na1 O47 2.554621 1_555
Na1 O14 2.587369 1_555
Na1 O41 2.637761 1_555
Na2 O29 2.345945 1_555
Na2 O28 2.412027 1_455
Na2 O8 2.492414 1_555
Na2 O20 2.554621 1_455
Na2 O4 2.587369 1_554
Na2 O9 2.637761 1_455
Na3 O65 2.345945 1_555
Na3 O1 2.412027 1_455
Na3 O13 2.492414 1_555
Na3 O51 2.554621 1_455
Na3 O61 2.587369 1_555
Na3 O21 2.637761 1_455
Na4 O69 2.345945 1_555
Na4 O33 2.412027 1_555
Na4 O32 2.492414 1_555
Na4 O31 2.554621 1_555
Na4 O7 2.587369 1_555
Na4 O19 2.637761 1_555
Na5 O46 2.345945 1_555
Na5 O60 2.412027 1_555
Na5 O35 2.492414 1_555
Na5 O68 2.554621 1_555
Na5 O70 2.587369 1_554
Na5 O42 2.637761 1_555
Na6 O50 2.345945 1_555
Na6 O18 2.412027 1_655
Na6 O10 2.492414 1_555
Na6 O17 2.554621 1_655
Na6 O49 2.587369 1_556
Na6 O34 2.637761 1_655
Na7 O23 2.345945 1_555
Na7 O54 2.412027 1_555
Na7 O22 2.492414 1_555
Na7 O30 2.554621 1_555
Na7 O71 2.587369 1_556
Na7 O0 2.637761 1_555
Ni0 O9 2.054559 1_555
Ni0 O21 2.054559 1_555
Ni0 O20 2.066431 1_555
Ni0 O51 2.066431 1_555
Ni0 O29 2.125731 1_655
Ni0 O65 2.125731 1_655
Ni1 O14 2.051530 1_555
Ni1 O7 2.051530 1_545
Ni1 O26 2.105666 1_555
Ni1 O33 2.105666 1_545
Ni1 O48 2.110748 1_555
Ni1 O32 2.110748 1_545
Ni2 O61 2.051530 1_555
Ni2 O16 2.051530 1_445
Ni2 O36 2.105666 1_545
Ni2 O1 2.105666 1_455
Ni2 O27 2.110748 1_445
Ni2 O13 2.110748 1_555
Ni3 O34 2.054559 1_555
Ni3 O25 2.054559 1_555
Ni3 O57 2.066431 1_555
Ni3 O17 2.066431 1_555
Ni3 O50 2.125731 1_455
Ni3 O44 2.125731 1_455
Ni4 O70 2.051530 1_554
Ni4 O71 2.051530 1_545
Ni4 O60 2.105666 1_555
Ni4 O54 2.105666 1_544
Ni4 O35 2.110748 1_555
Ni4 O22 2.110748 1_544
Ni5 O19 2.054559 1_555
Ni5 O42 2.054559 1_555
Ni5 O31 2.066431 1_555
Ni5 O68 2.066431 1_555
Ni5 O69 2.125731 1_555
Ni5 O46 2.125731 1_555
Ni6 O49 2.051530 1_455
Ni6 O4 2.051530 1_544
Ni6 O28 2.105666 1_445
Ni6 O18 2.105666 1_554
Ni6 O8 2.110748 1_545
Ni6 O10 2.110748 1_454
Ni7 O0 2.054559 1_555
Ni7 O41 2.054559 1_555
Ni7 O30 2.066431 1_555
Ni7 O47 2.066431 1_555
Ni7 O23 2.125731 1_555
Ni7 O53 2.125731 1_555
O0 P7 1.496166 1_555
O1 P22 1.501070 1_555
O2 P12 1.615051 1_555
O2 P14 1.626676 1_555
O3 P9 1.615051 1_555
O3 P18 1.626676 1_555
O4 P6 1.499734 1_455
O5 P6 1.616470 1_555
O5 P5 1.624052 1_555
O6 P8 1.615051 1_555
O6 P20 1.626676 1_555
O7 P10 1.499734 1_555
O8 P0 1.503664 1_565
O9 P2 1.496166 1_555
O10 P5 1.503664 1_545
O11 P9 1.616470 1_555
O11 P17 1.624052 1_555
O12 P10 1.616470 1_555
O12 P19 1.624052 1_555
O13 P13 1.503664 1_545
O14 P11 1.499734 1_555
O15 P23 1.615051 1_555
O15 P3 1.626676 1_555
O16 P23 1.499734 1_655
O17 P8 1.498873 1_455
O18 P17 1.501070 1_555
O19 P3 1.496166 1_555
O20 P23 1.498873 1_655
O21 P1 1.496166 1_555
O22 P17 1.503664 1_565
O23 P18 1.502097 1_555
O24 P23 1.616470 1_555
O24 P13 1.624052 1_555
O25 P15 1.496166 1_555
O26 P16 1.501070 1_555
O27 P16 1.503664 1_565
O28 P21 1.501070 1_555
O29 P14 1.502097 1_555
O30 P10 1.498873 1_555
O31 P4 1.498873 1_555
O32 P22 1.503664 1_565
O33 P13 1.501070 1_555
O34 P18 1.496166 1_555
O35 P21 1.503664 1_545
O36 P19 1.501070 1_555
O37 P8 1.616470 1_555
O37 P16 1.624052 1_555
O38 P22 1.610476 1_555
O38 P21 1.610476 1_545
O39 P17 1.610476 1_555
O39 P19 1.610476 1_545
O40 P14 1.615087 1_555
O40 P18 1.615087 1_554
O41 P20 1.496166 1_555
O42 P14 1.496166 1_555
O43 P6 1.615051 1_555
O43 P7 1.626676 1_555
O44 P20 1.502097 1_555
O45 P11 1.615051 1_555
O45 P1 1.626676 1_555
O46 P2 1.502097 1_555
O47 P9 1.498873 1_555
O48 P19 1.503664 1_545
O49 P12 1.499734 1_655
O50 P7 1.502097 1_555
O51 P12 1.498873 1_655
O52 P15 1.615087 1_555
O52 P3 1.615087 1_555
O53 P15 1.502097 1_555
O54 P5 1.501070 1_555
O55 P16 1.610476 1_555
O55 P5 1.610476 1_545
O56 P4 1.615051 1_555
O56 P2 1.626676 1_555
O57 P6 1.498873 1_455
O58 P20 1.615087 1_555
O58 P1 1.615087 1_555
O59 P0 1.610476 1_555
O59 P13 1.610476 1_545
O60 P0 1.501070 1_555
O61 P8 1.499734 1_455
O62 P11 1.616470 1_555
O62 P22 1.624052 1_555
O63 P10 1.615051 1_555
O63 P15 1.626676 1_555
O64 P4 1.616470 1_555
O64 P21 1.624052 1_555
O65 P3 1.502097 1_555
O66 P2 1.615087 1_555
O66 P7 1.615087 1_554
O67 P12 1.616470 1_555
O67 P0 1.624052 1_555
O68 P11 1.498873 1_555
O69 P1 1.502097 1_555
O70 P9 1.499734 1_555
O71 P4 1.499734 1_555
