# generated using pymatgen
data_CaCO3
_symmetry_space_group_name_H-M   'P 1'
_cell_length_a   4.43217633
_cell_length_b   6.59314591
_cell_length_c   8.51392996
_cell_angle_alpha   90.00000000
_cell_angle_beta   90.00000000
_cell_angle_gamma   90.00000000
_symmetry_Int_Tables_number   1
_chemical_formula_structural   CaCO3
_chemical_formula_sum   'Ca4 C4 O12'
_cell_volume   248.79393565
_cell_formula_units_Z   4
loop_
 _symmetry_equiv_pos_site_id
 _symmetry_equiv_pos_as_xyz
  1  'x, y, z'
loop_
 _atom_site_type_symbol
 _atom_site_label
 _atom_site_symmetry_multiplicity
 _atom_site_fract_x
 _atom_site_fract_y
 _atom_site_fract_z
 _atom_site_occupancy
  Ca  Ca0  1  0.50000000  0.50000000  0.00000000  1
  Ca  Ca1  1  -0.00000000  0.00000000  0.00000000  1
  Ca  Ca2  1  -0.00000000  0.00000000  0.50000000  1
  Ca  Ca3  1  0.50000000  0.50000000  0.50000000  1
  C  C0  1  0.02523019  0.63144158  0.25000000  1
  C  C1  1  0.52523019  0.86855842  0.75000000  1
  C  C2  1  0.47476981  0.13144158  0.25000000  1
  C  C3  1  0.97476981  0.36855842  0.75000000  1
  O  O0  1  0.22434173  0.03385735  0.25000000  1
  O  O1  1  0.09863848  0.31963668  0.61763620  1
  O  O2  1  0.27565827  0.53385735  0.25000000  1
  O  O3  1  0.90136152  0.68036332  0.38236380  1
  O  O4  1  0.40136152  0.81963668  0.61763620  1
  O  O5  1  0.77565827  0.96614265  0.75000000  1
  O  O6  1  0.59863848  0.18036332  0.38236380  1
  O  O7  1  0.59863848  0.18036332  0.11763620  1
  O  O8  1  0.40136152  0.81963668  0.88236380  1
  O  O9  1  0.90136152  0.68036332  0.11763620  1
  O  O10  1  0.09863848  0.31963668  0.88236380  1
  O  O11  1  0.72434173  0.46614265  0.75000000  1
loop_
_geom_bond_atom_site_label_1
_geom_bond_atom_site_label_2
_geom_bond_distance
_geom_bond_site_symmetry_2
Ca0 O11 2.359861 1_554
Ca0 O2 2.359861 1_555
Ca0 O9 2.362563 1_555
Ca0 O10 2.362563 1_554
Ca0 O7 2.373901 1_555
Ca0 O8 2.373901 1_554
Ca1 O0 2.359861 1_555
Ca1 O5 2.359861 1_444
Ca1 O7 2.362563 1_455
Ca1 O8 2.362563 1_544
Ca1 O9 2.373901 1_445
Ca1 O10 2.373901 1_554
Ca2 O5 2.359861 1_445
Ca2 O0 2.359861 1_555
Ca2 O4 2.362563 1_545
Ca2 O6 2.362563 1_455
Ca2 O3 2.373901 1_445
Ca2 O1 2.373901 1_555
Ca3 O2 2.359861 1_555
Ca3 O11 2.359861 1_555
Ca3 O1 2.362563 1_555
Ca3 O3 2.362563 1_555
Ca3 O4 2.373901 1_555
Ca3 O6 2.373901 1_555
C0 O2 1.282933 1_555
C0 O3 1.294385 1_455
C0 O9 1.294385 1_455
C1 O5 1.282933 1_555
C1 O8 1.294385 1_555
C1 O4 1.294385 1_555
C2 O0 1.282933 1_555
C2 O6 1.294385 1_555
C2 O7 1.294385 1_555
C3 O11 1.282933 1_555
C3 O10 1.294385 1_655
C3 O1 1.294385 1_655
