# generated using pymatgen
data_Ce5Co19
_symmetry_space_group_name_H-M   'P 1'
_cell_length_a   4.86798344
_cell_length_b   4.86798344
_cell_length_c   16.64901417
_cell_angle_alpha   81.59355341
_cell_angle_beta   81.59355341
_cell_angle_gamma   60.00000659
_symmetry_Int_Tables_number   1
_chemical_formula_structural   Ce5Co19
_chemical_formula_sum   'Ce5 Co19'
_cell_volume   336.77467797
_cell_formula_units_Z   1
loop_
 _symmetry_equiv_pos_site_id
 _symmetry_equiv_pos_as_xyz
  1  'x, y, z'
loop_
 _atom_site_type_symbol
 _atom_site_label
 _atom_site_symmetry_multiplicity
 _atom_site_fract_x
 _atom_site_fract_y
 _atom_site_fract_z
 _atom_site_occupancy
  Ce  Ce0  1  0.00000000  -0.00000000  -0.00000000  1
  Ce  Ce1  1  0.07895839  0.07895839  0.76312482  1
  Ce  Ce2  1  0.92104161  0.92104161  0.23687518  1
  Ce  Ce3  1  0.15234586  0.15234586  0.54296242  1
  Ce  Ce4  1  0.84765414  0.84765414  0.45703758  1
  Co  Co0  1  0.50000000  0.50000000  0.50000000  1
  Co  Co1  1  0.25043951  0.25043951  0.24868148  1
  Co  Co2  1  0.74956049  0.74956049  0.75131852  1
  Co  Co3  1  0.33356594  0.33356594  0.99930218  1
  Co  Co4  1  0.66643406  0.66643406  0.00069782  1
  Co  Co5  1  0.41553978  0.41553978  0.75338066  1
  Co  Co6  1  0.58446022  0.58446022  0.24661934  1
  Co  Co7  1  0.12468112  0.62191020  0.63149849  1
  Co  Co8  1  0.62191020  0.62191020  0.63149849  1
  Co  Co9  1  0.62191020  0.12468112  0.63149849  1
  Co  Co10  1  0.87531888  0.37808980  0.36850151  1
  Co  Co11  1  0.37808980  0.37808980  0.36850151  1
  Co  Co12  1  0.37808980  0.87531888  0.36850151  1
  Co  Co13  1  0.03999731  0.54140122  0.87720024  1
  Co  Co14  1  0.54140122  0.54140122  0.87720024  1
  Co  Co15  1  0.54140122  0.03999731  0.87720024  1
  Co  Co16  1  0.96000269  0.45859878  0.12279976  1
  Co  Co17  1  0.45859878  0.45859878  0.12279976  1
  Co  Co18  1  0.45859878  0.96000269  0.12279976  1
loop_
_geom_bond_atom_site_label_1
_geom_bond_atom_site_label_2
_geom_bond_distance
_geom_bond_site_symmetry_2
Ce0 Co4 2.810555 1_445
Ce0 Co3 2.810555 1_554
Ce0 Co3 2.810555 1_544
Ce0 Co4 2.810555 1_545
Ce0 Co3 2.810555 1_454
Ce0 Co4 2.810555 1_455
Ce0 Co16 3.159933 1_445
Ce0 Co18 3.159933 1_445
Ce0 Co15 3.159933 1_554
Ce0 Co13 3.159933 1_554
Ce0 Co16 3.159933 1_455
Ce0 Co18 3.159933 1_545
Ce0 Co13 3.159933 1_544
Ce0 Co15 3.159933 1_454
Ce0 Co17 3.159933 1_455
Ce0 Co17 3.159933 1_545
Ce0 Co14 3.159933 1_544
Ce0 Co14 3.159933 1_454
Ce1 Co5 2.815077 1_555
Ce1 Co5 2.815077 1_455
Ce1 Co5 2.815077 1_545
Ce1 Co2 2.817201 1_445
Ce1 Co2 2.817202 1_455
Ce1 Co2 2.817202 1_545
Ce1 Co15 3.070613 1_455
Ce1 Co13 3.070613 1_545
Ce1 Co15 3.070613 1_555
Ce1 Co13 3.070613 1_555
Ce1 Co14 3.070613 1_455
Ce1 Co14 3.070613 1_545
Ce1 Co7 3.254223 1_545
Ce1 Co9 3.254223 1_455
Ce1 Co9 3.254223 1_555
Ce1 Co7 3.254223 1_555
Ce1 Co8 3.254223 1_545
Ce1 Co8 3.254223 1_455
Ce2 Co6 2.815077 1_555
Ce2 Co6 2.815077 1_565
Ce2 Co6 2.815077 1_655
Ce2 Co1 2.817201 1_665
Ce2 Co1 2.817202 1_565
Ce2 Co1 2.817202 1_655
Ce2 Co16 3.070613 1_565
Ce2 Co18 3.070613 1_655
Ce2 Co16 3.070613 1_555
Ce2 Co18 3.070613 1_555
Ce2 Co17 3.070613 1_565
Ce2 Co17 3.070613 1_655
Ce2 Co10 3.254223 1_565
Ce2 Co12 3.254223 1_655
Ce2 Co10 3.254223 1_555
Ce2 Co12 3.254223 1_555
Ce2 Co11 3.254223 1_565
Ce2 Co11 3.254223 1_655
Ce3 Co7 2.834651 1_545
Ce3 Co9 2.834651 1_455
Ce3 Co9 2.834651 1_555
Ce3 Co7 2.834651 1_555
Ce3 Co8 2.834651 1_545
Ce3 Co8 2.834651 1_455
Ce3 Co0 2.897609 1_555
Ce3 Co0 2.897609 1_455
Ce3 Co0 2.897609 1_545
Ce3 Co11 3.192650 1_555
Ce3 Co12 3.192650 1_545
Ce3 Co10 3.192650 1_455
Ce4 Co10 2.834651 1_565
Ce4 Co12 2.834651 1_655
Ce4 Co12 2.834651 1_555
Ce4 Co10 2.834651 1_555
Ce4 Co11 2.834651 1_565
Ce4 Co11 2.834651 1_655
Ce4 Co0 2.897609 1_555
Ce4 Co0 2.897609 1_565
Ce4 Co0 2.897609 1_655
Ce4 Co8 3.192650 1_555
Ce4 Co7 3.192650 1_655
Ce4 Co9 3.192650 1_565
Co0 Co8 2.570890 1_555
Co0 Co11 2.570890 1_555
Co0 Co9 2.570891 1_555
Co0 Co12 2.570891 1_555
Co0 Co10 2.570891 1_555
Co0 Co7 2.570891 1_555
Co1 Co11 2.421339 1_555
Co1 Co12 2.421339 1_545
Co1 Co10 2.421339 1_455
Co1 Co17 2.496184 1_555
Co1 Co18 2.496184 1_545
Co1 Co16 2.496184 1_455
Co1 Co6 2.810735 1_555
Co1 Co6 2.810735 1_455
Co1 Co6 2.810735 1_545
Co2 Co8 2.421339 1_555
Co2 Co9 2.421339 1_565
Co2 Co7 2.421339 1_655
Co2 Co5 2.810735 1_555
Co2 Co5 2.810735 1_655
Co2 Co5 2.810735 1_565
Co3 Co4 2.810625 1_556
Co3 Co4 2.810625 1_456
Co3 Co4 2.810625 1_546
Co5 Co8 2.439944 1_555
Co5 Co9 2.439944 1_555
Co5 Co7 2.439944 1_555
Co7 Co8 2.420503 1_555
Co7 Co9 2.420503 1_555
Co7 Co8 2.447481 1_455
Co7 Co9 2.447481 1_465
Co8 Co9 2.420503 1_555
Co8 Co9 2.447481 1_565
Co10 Co11 2.420503 1_555
Co10 Co12 2.420503 1_555
Co10 Co6 2.439944 1_555
Co10 Co11 2.447481 1_655
Co10 Co12 2.447481 1_645
Co11 Co12 2.420503 1_555
Co11 Co6 2.439944 1_555
Co11 Co12 2.447481 1_545
Co12 Co6 2.439944 1_555
Co13 Co14 2.427158 1_455
Co13 Co15 2.427158 1_465
Co13 Co14 2.440826 1_555
Co13 Co15 2.440826 1_555
Co13 Co3 2.449633 1_555
Co13 Co4 2.463904 1_456
Co13 Co5 2.472741 1_555
Co13 Co2 2.496184 1_455
Co14 Co15 2.427158 1_565
Co14 Co15 2.440826 1_555
Co14 Co3 2.449632 1_555
Co14 Co4 2.463904 1_556
Co14 Co5 2.472741 1_555
Co14 Co2 2.496184 1_555
Co15 Co3 2.449633 1_555
Co15 Co4 2.463904 1_546
Co15 Co5 2.472741 1_555
Co15 Co2 2.496184 1_545
Co16 Co17 2.427158 1_655
Co16 Co18 2.427158 1_645
Co16 Co17 2.440826 1_555
Co16 Co18 2.440826 1_555
Co16 Co4 2.449633 1_555
Co16 Co3 2.463904 1_654
Co16 Co6 2.472741 1_555
Co17 Co18 2.427158 1_545
Co17 Co18 2.440826 1_555
Co17 Co4 2.449632 1_555
Co17 Co3 2.463904 1_554
Co17 Co6 2.472741 1_555
Co18 Co4 2.449633 1_555
Co18 Co3 2.463904 1_564
Co18 Co6 2.472741 1_555
