# generated using pymatgen
data_SnO2
_symmetry_space_group_name_H-M   'P 1'
_cell_length_a   5.15684600
_cell_length_b   5.24695200
_cell_length_c   10.16202800
_cell_angle_alpha   90.00000000
_cell_angle_beta   90.00000000
_cell_angle_gamma   90.00000000
_symmetry_Int_Tables_number   1
_chemical_formula_structural   SnO2
_chemical_formula_sum   'Sn8 O16'
_cell_volume   274.96134315
_cell_formula_units_Z   8
loop_
 _symmetry_equiv_pos_site_id
 _symmetry_equiv_pos_as_xyz
  1  'x, y, z'
loop_
 _atom_site_type_symbol
 _atom_site_label
 _atom_site_symmetry_multiplicity
 _atom_site_fract_x
 _atom_site_fract_y
 _atom_site_fract_z
 _atom_site_occupancy
  Sn  Sn0  1  0.76833900  0.46791700  0.11799900  1
  Sn  Sn1  1  0.73166100  0.46791700  0.61799900  1
  Sn  Sn2  1  0.26833900  0.03208300  0.11799900  1
  Sn  Sn3  1  0.23166100  0.53208300  0.88200100  1
  Sn  Sn4  1  0.76833900  0.96791700  0.38200100  1
  Sn  Sn5  1  0.73166100  0.96791700  0.88200100  1
  Sn  Sn6  1  0.26833900  0.53208300  0.38200100  1
  Sn  Sn7  1  0.23166100  0.03208300  0.61799900  1
  O  O0  1  0.86963800  0.63157900  0.78937500  1
  O  O1  1  0.99847900  0.24071000  0.97808700  1
  O  O2  1  0.00152100  0.75929000  0.02191300  1
  O  O3  1  0.63036200  0.13157900  0.21062500  1
  O  O4  1  0.63036200  0.63157900  0.28937500  1
  O  O5  1  0.13036200  0.36842100  0.21062500  1
  O  O6  1  0.36963800  0.86842100  0.78937500  1
  O  O7  1  0.86963800  0.13157900  0.71062500  1
  O  O8  1  0.00152100  0.25929000  0.47808700  1
  O  O9  1  0.13036200  0.86842100  0.28937500  1
  O  O10  1  0.50152100  0.24071000  0.47808700  1
  O  O11  1  0.36963800  0.36842100  0.71062500  1
  O  O12  1  0.50152100  0.74071000  0.02191300  1
  O  O13  1  0.49847900  0.25929000  0.97808700  1
  O  O14  1  0.99847900  0.74071000  0.52191300  1
  O  O15  1  0.49847900  0.75929000  0.52191300  1
loop_
_geom_bond_atom_site_label_1
_geom_bond_atom_site_label_2
_geom_bond_distance
_geom_bond_site_symmetry_2
O0 Sn1 2.067994 1_555
O0 Sn5 2.122874 1_555
O0 Sn3 2.154954 1_655
O1 Sn3 2.176389 1_655
O1 Sn0 2.202539 1_556
O1 Sn5 2.212540 1_545
O1 Sn2 2.270767 1_656
O2 Sn0 2.176389 1_455
O2 Sn3 2.202539 1_554
O2 Sn2 2.212540 1_565
O2 Sn5 2.270767 1_454
O3 Sn4 2.067994 1_545
O3 Sn0 2.122874 1_555
O3 Sn2 2.154954 1_555
O4 Sn0 2.067994 1_555
O4 Sn4 2.122874 1_555
O4 Sn6 2.154954 1_555
O5 Sn6 2.067994 1_555
O5 Sn2 2.122874 1_555
O5 Sn0 2.154954 1_455
O6 Sn7 2.067994 1_565
O6 Sn3 2.122874 1_555
O6 Sn5 2.154954 1_555
O7 Sn5 2.067994 1_545
O7 Sn1 2.122874 1_555
O7 Sn7 2.154954 1_655
O8 Sn4 2.176389 1_445
O8 Sn7 2.202539 1_555
O8 Sn6 2.212540 1_555
O8 Sn1 2.270767 1_455
O9 Sn2 2.067994 1_565
O9 Sn6 2.122874 1_555
O9 Sn4 2.154954 1_455
O10 Sn6 2.176389 1_555
O10 Sn1 2.202539 1_555
O10 Sn4 2.212540 1_545
O10 Sn7 2.270767 1_555
O11 Sn3 2.067994 1_555
O11 Sn7 2.122874 1_555
O11 Sn1 2.154954 1_555
O12 Sn2 2.176389 1_565
O12 Sn5 2.202539 1_554
O12 Sn0 2.212540 1_555
O12 Sn3 2.270767 1_554
O13 Sn5 2.176389 1_545
O13 Sn2 2.202539 1_556
O13 Sn3 2.212540 1_555
O13 Sn0 2.270767 1_556
O14 Sn7 2.176389 1_665
O14 Sn4 2.202539 1_555
O14 Sn1 2.212540 1_555
O14 Sn6 2.270767 1_655
O15 Sn1 2.176389 1_555
O15 Sn6 2.202539 1_555
O15 Sn7 2.212540 1_565
O15 Sn4 2.270767 1_555
