# generated using pymatgen
data_VP2NCl10O
_symmetry_space_group_name_H-M   'P 1'
_cell_length_a   10.40650400
_cell_length_b   16.44836400
_cell_length_c   20.72638900
_cell_angle_alpha   90.00000000
_cell_angle_beta   90.00000000
_cell_angle_gamma   90.00000000
_symmetry_Int_Tables_number   1
_chemical_formula_structural   VP2NCl10O
_chemical_formula_sum   'V8 P16 N8 Cl80 O8'
_cell_volume   3547.73529545
_cell_formula_units_Z   8
loop_
 _symmetry_equiv_pos_site_id
 _symmetry_equiv_pos_as_xyz
  1  'x, y, z'
loop_
 _atom_site_type_symbol
 _atom_site_label
 _atom_site_symmetry_multiplicity
 _atom_site_fract_x
 _atom_site_fract_y
 _atom_site_fract_z
 _atom_site_occupancy
  V  V0  1  0.79776100  0.58330100  0.36968400  1
  V  V1  1  0.70223900  0.08330100  0.36968400  1
  V  V2  1  0.79776100  0.91669900  0.86968400  1
  V  V3  1  0.29776100  0.91669900  0.63031600  1
  V  V4  1  0.70223900  0.41669900  0.86968400  1
  V  V5  1  0.20223900  0.41669900  0.63031600  1
  V  V6  1  0.20223900  0.08330100  0.13031600  1
  V  V7  1  0.29776100  0.58330100  0.13031600  1
  P  P0  1  0.65844700  0.64687200  0.65464900  1
  P  P1  1  0.15844700  0.85312800  0.34535100  1
  P  P2  1  0.19338400  0.27963100  0.90525500  1
  P  P3  1  0.80661600  0.77963100  0.59474500  1
  P  P4  1  0.84155300  0.14687200  0.65464900  1
  P  P5  1  0.80661600  0.72036900  0.09474500  1
  P  P6  1  0.15844700  0.64687200  0.84535100  1
  P  P7  1  0.34155300  0.35312800  0.34535100  1
  P  P8  1  0.19338400  0.22036900  0.40525500  1
  P  P9  1  0.65844700  0.85312800  0.15464900  1
  P  P10  1  0.30661600  0.72036900  0.40525500  1
  P  P11  1  0.30661600  0.77963100  0.90525500  1
  P  P12  1  0.69338400  0.22036900  0.09474500  1
  P  P13  1  0.84155300  0.35312800  0.15464900  1
  P  P14  1  0.69338400  0.27963100  0.59474500  1
  P  P15  1  0.34155300  0.14687200  0.84535100  1
  N  N0  1  0.19295300  0.71959500  0.89112900  1
  N  N1  1  0.80704700  0.21959500  0.60887100  1
  N  N2  1  0.80704700  0.28040500  0.10887100  1
  N  N3  1  0.30704700  0.21959500  0.89112900  1
  N  N4  1  0.69295300  0.78040500  0.10887100  1
  N  N5  1  0.69295300  0.71959500  0.60887100  1
  N  N6  1  0.30704700  0.28040500  0.39112900  1
  N  N7  1  0.19295300  0.78040500  0.39112900  1
  Cl  Cl0  1  0.37541900  0.66497500  0.32730200  1
  Cl  Cl1  1  0.62458100  0.16497500  0.17269800  1
  Cl  Cl2  1  0.37337400  0.18204500  0.75516600  1
  Cl  Cl3  1  0.99445200  0.59919300  0.32065700  1
  Cl  Cl4  1  0.79381000  0.77884800  0.88113700  1
  Cl  Cl5  1  0.16550600  0.57631800  0.04213400  1
  Cl  Cl6  1  0.79381000  0.72115200  0.38113700  1
  Cl  Cl7  1  0.12662600  0.68204500  0.75516600  1
  Cl  Cl8  1  0.12458100  0.33502500  0.82730200  1
  Cl  Cl9  1  0.49445200  0.90080700  0.67934300  1
  Cl  Cl10  1  0.16550600  0.92368200  0.54213400  1
  Cl  Cl11  1  0.49876700  0.09292400  0.87627100  1
  Cl  Cl12  1  0.83449400  0.07631800  0.45786600  1
  Cl  Cl13  1  0.99876700  0.40707600  0.12372900  1
  Cl  Cl14  1  0.74787700  0.63529500  0.03445500  1
  Cl  Cl15  1  0.20619000  0.22115200  0.11886300  1
  Cl  Cl16  1  0.00554800  0.09919300  0.17934300  1
  Cl  Cl17  1  0.12662600  0.81795500  0.25516600  1
  Cl  Cl18  1  0.25212300  0.13529500  0.46554500  1
  Cl  Cl19  1  0.36869400  0.04382000  0.60110800  1
  Cl  Cl20  1  0.83449400  0.42368200  0.95786600  1
  Cl  Cl21  1  0.63130600  0.95618000  0.39889200  1
  Cl  Cl22  1  0.99445200  0.90080700  0.82065700  1
  Cl  Cl23  1  0.87541900  0.66497500  0.17269800  1
  Cl  Cl24  1  0.00123300  0.90707600  0.37627100  1
  Cl  Cl25  1  0.25212300  0.36470500  0.96554500  1
  Cl  Cl26  1  0.95551300  0.77463200  0.05374400  1
  Cl  Cl27  1  0.62662600  0.68204500  0.74483400  1
  Cl  Cl28  1  0.75212300  0.36470500  0.53445500  1
  Cl  Cl29  1  0.49876700  0.40707600  0.37627100  1
  Cl  Cl30  1  0.86869400  0.45618000  0.39889200  1
  Cl  Cl31  1  0.54448700  0.27463200  0.05374400  1
  Cl  Cl32  1  0.33449400  0.42368200  0.54213400  1
  Cl  Cl33  1  0.00123300  0.59292400  0.87627100  1
  Cl  Cl34  1  0.20598700  0.06198400  0.83969900  1
  Cl  Cl35  1  0.70619000  0.27884800  0.88113700  1
  Cl  Cl36  1  0.50554800  0.40080700  0.82065700  1
  Cl  Cl37  1  0.37337400  0.31795500  0.25516600  1
  Cl  Cl38  1  0.87337400  0.31795500  0.24483400  1
  Cl  Cl39  1  0.95551300  0.72536800  0.55374400  1
  Cl  Cl40  1  0.29401300  0.93801600  0.33969900  1
  Cl  Cl41  1  0.24787700  0.86470500  0.96554500  1
  Cl  Cl42  1  0.33449400  0.07631800  0.04213400  1
  Cl  Cl43  1  0.45551300  0.77463200  0.44625600  1
  Cl  Cl44  1  0.37541900  0.83502500  0.82730200  1
  Cl  Cl45  1  0.79401300  0.56198400  0.66030100  1
  Cl  Cl46  1  0.29381000  0.77884800  0.61886300  1
  Cl  Cl47  1  0.00554800  0.40080700  0.67934300  1
  Cl  Cl48  1  0.04448700  0.27463200  0.44625600  1
  Cl  Cl49  1  0.50554800  0.09919300  0.32065700  1
  Cl  Cl50  1  0.62662600  0.81795500  0.24483400  1
  Cl  Cl51  1  0.04448700  0.22536800  0.94625600  1
  Cl  Cl52  1  0.13130600  0.95618000  0.10110800  1
  Cl  Cl53  1  0.54448700  0.22536800  0.55374400  1
  Cl  Cl54  1  0.87541900  0.83502500  0.67269800  1
  Cl  Cl55  1  0.70619000  0.22115200  0.38113700  1
  Cl  Cl56  1  0.63130600  0.54382000  0.89889200  1
  Cl  Cl57  1  0.20619000  0.27884800  0.61886300  1
  Cl  Cl58  1  0.70598700  0.43801600  0.16030100  1
  Cl  Cl59  1  0.62458100  0.33502500  0.67269800  1
  Cl  Cl60  1  0.99876700  0.09292400  0.62372900  1
  Cl  Cl61  1  0.49445200  0.59919300  0.17934300  1
  Cl  Cl62  1  0.66550600  0.92368200  0.95786600  1
  Cl  Cl63  1  0.75212300  0.13529500  0.03445500  1
  Cl  Cl64  1  0.79401300  0.93801600  0.16030100  1
  Cl  Cl65  1  0.74787700  0.86470500  0.53445500  1
  Cl  Cl66  1  0.50123300  0.59292400  0.62372900  1
  Cl  Cl67  1  0.12458100  0.16497500  0.32730200  1
  Cl  Cl68  1  0.70598700  0.06198400  0.66030100  1
  Cl  Cl69  1  0.29401300  0.56198400  0.83969900  1
  Cl  Cl70  1  0.87337400  0.18204500  0.74483400  1
  Cl  Cl71  1  0.13130600  0.54382000  0.60110800  1
  Cl  Cl72  1  0.29381000  0.72115200  0.11886300  1
  Cl  Cl73  1  0.20598700  0.43801600  0.33969900  1
  Cl  Cl74  1  0.45551300  0.72536800  0.94625600  1
  Cl  Cl75  1  0.86869400  0.04382000  0.89889200  1
  Cl  Cl76  1  0.66550600  0.57631800  0.45786600  1
  Cl  Cl77  1  0.50123300  0.90707600  0.12372900  1
  Cl  Cl78  1  0.36869400  0.45618000  0.10110800  1
  Cl  Cl79  1  0.24787700  0.63529500  0.46554500  1
  O  O0  1  0.70288200  0.56629900  0.31026800  1
  O  O1  1  0.79711800  0.43370100  0.81026800  1
  O  O2  1  0.29711800  0.43370100  0.68973200  1
  O  O3  1  0.20288200  0.56629900  0.18973200  1
  O  O4  1  0.29711800  0.06629900  0.18973200  1
  O  O5  1  0.79711800  0.06629900  0.31026800  1
  O  O6  1  0.20288200  0.93370100  0.68973200  1
  O  O7  1  0.70288200  0.93370100  0.81026800  1
loop_
_geom_bond_atom_site_label_1
_geom_bond_atom_site_label_2
_geom_bond_distance
_geom_bond_site_symmetry_2
N0 P11 1.568427 1_555
N0 P6 1.568446 1_555
N1 P14 1.568427 1_555
N1 P4 1.568446 1_555
N2 P12 1.568427 1_555
N2 P13 1.568446 1_555
N3 P2 1.568427 1_555
N3 P15 1.568446 1_555
N4 P5 1.568427 1_555
N4 P9 1.568446 1_555
N5 P3 1.568427 1_555
N5 P0 1.568446 1_555
N6 P8 1.568427 1_555
N6 P7 1.568446 1_555
N7 P10 1.568427 1_555
N7 P1 1.568446 1_555
Cl0 P10 1.988282 1_555
Cl1 P12 1.988282 1_555
Cl2 P15 1.984517 1_555
Cl3 V0 2.300120 1_555
Cl4 V2 2.280186 1_555
Cl5 V7 2.290828 1_555
Cl6 V0 2.280186 1_555
Cl7 P6 1.984517 1_555
Cl8 P2 1.988282 1_555
Cl9 V3 2.300120 1_555
Cl10 V3 2.290828 1_555
Cl11 P15 1.968440 1_555
Cl12 V1 2.290828 1_555
Cl13 P13 1.968440 1_555
Cl14 P5 1.973133 1_555
Cl15 V6 2.280186 1_555
Cl16 V6 2.300120 1_555
Cl17 P1 1.984517 1_555
Cl18 P8 1.973133 1_555
Cl19 V3 2.298557 1_545
Cl20 V4 2.290828 1_555
Cl21 V1 2.298557 1_565
Cl22 V2 2.300120 1_555
Cl23 P5 1.988282 1_555
Cl24 P1 1.968440 1_555
Cl25 P2 1.973133 1_555
Cl26 P5 1.979831 1_555
Cl27 P0 1.984517 1_555
Cl28 P14 1.973133 1_555
Cl29 P7 1.968440 1_555
Cl30 V0 2.298557 1_555
Cl31 P12 1.979831 1_555
Cl32 V5 2.290828 1_555
Cl33 P6 1.968440 1_555
Cl34 P15 1.988355 1_555
Cl35 V4 2.280186 1_555
Cl36 V4 2.300120 1_555
Cl37 P7 1.984517 1_555
Cl38 P13 1.984517 1_555
Cl39 P3 1.979831 1_555
Cl40 P1 1.988355 1_555
Cl41 P11 1.973133 1_555
Cl42 V6 2.290828 1_555
Cl43 P10 1.979831 1_555
Cl44 P11 1.988282 1_555
Cl45 P0 1.988355 1_555
Cl46 V3 2.280186 1_555
Cl47 V5 2.300120 1_555
Cl48 P8 1.979831 1_555
Cl49 V1 2.300120 1_555
Cl50 P9 1.984517 1_555
Cl51 P2 1.979831 1_555
Cl52 V6 2.298557 1_565
Cl53 P14 1.979831 1_555
Cl54 P3 1.988282 1_555
Cl55 V1 2.280186 1_555
Cl56 V4 2.298557 1_555
Cl57 V5 2.280186 1_555
Cl58 P13 1.988355 1_555
Cl59 P14 1.988282 1_555
Cl60 P4 1.968440 1_555
Cl61 V7 2.300120 1_555
Cl62 V2 2.290828 1_555
Cl63 P12 1.973133 1_555
Cl64 P9 1.988355 1_555
Cl65 P3 1.973133 1_555
Cl66 P0 1.968440 1_555
Cl67 P8 1.988282 1_555
Cl68 P4 1.988355 1_555
Cl69 P6 1.988355 1_555
Cl70 P4 1.984517 1_555
Cl71 V5 2.298557 1_555
Cl72 V7 2.280186 1_555
Cl73 P7 1.988355 1_555
Cl74 P11 1.979831 1_555
Cl75 V2 2.298557 1_545
Cl76 V0 2.290828 1_555
Cl77 P9 1.968440 1_555
Cl78 V7 2.298557 1_555
Cl79 P10 1.973133 1_555
O0 V0 1.603005 1_555
O1 V4 1.603005 1_555
O2 V5 1.603005 1_555
O3 V7 1.603005 1_555
O4 V6 1.603005 1_555
O5 V1 1.603005 1_555
O6 V3 1.603005 1_555
O7 V2 1.603005 1_555
