# generated using pymatgen
data_UPt
_symmetry_space_group_name_H-M   'P 1'
_cell_length_a   3.96953475
_cell_length_b   4.28283076
_cell_length_c   5.72545901
_cell_angle_alpha   90.00000000
_cell_angle_beta   110.28296363
_cell_angle_gamma   90.00000000
_symmetry_Int_Tables_number   1
_chemical_formula_structural   UPt
_chemical_formula_sum   'U2 Pt2'
_cell_volume   91.30193651
_cell_formula_units_Z   2
loop_
 _symmetry_equiv_pos_site_id
 _symmetry_equiv_pos_as_xyz
  1  'x, y, z'
loop_
 _atom_site_type_symbol
 _atom_site_label
 _atom_site_symmetry_multiplicity
 _atom_site_fract_x
 _atom_site_fract_y
 _atom_site_fract_z
 _atom_site_occupancy
  U  U0  1  0.13326354  0.75000000  0.26652507  1
  U  U1  1  0.86673846  0.25000000  0.73347793  1
  Pt  Pt0  1  0.59773629  0.25000000  0.19547258  1
  Pt  Pt1  1  0.40226171  0.75000000  0.80452442  1
loop_
_geom_bond_atom_site_label_1
_geom_bond_atom_site_label_2
_geom_bond_distance
_geom_bond_site_symmetry_2
Pt0 U1 2.889323 1_555
Pt0 U0 2.944580 1_545
Pt0 U0 2.944580 1_555
Pt0 U0 2.944585 1_655
Pt0 U0 2.944585 1_645
Pt0 Pt1 2.998970 1_544
Pt0 Pt1 2.998970 1_554
Pt0 U1 3.177297 1_554
Pt0 U1 3.177298 1_454
Pt1 U0 2.889291 1_555
Pt1 U1 2.944578 1_455
Pt1 U1 2.944578 1_465
Pt1 U1 2.944579 1_565
Pt1 U1 2.944579 1_555
Pt1 U0 3.177319 1_556
Pt1 U0 3.177326 1_656
