# generated using pymatgen
data_Mg3Si(O2F)2
_symmetry_space_group_name_H-M   'P 1'
_cell_length_a   4.76019800
_cell_length_b   8.84190200
_cell_length_c   10.39113700
_cell_angle_alpha   90.00000000
_cell_angle_beta   90.00000000
_cell_angle_gamma   90.00000000
_symmetry_Int_Tables_number   1
_chemical_formula_structural   Mg3Si(O2F)2
_chemical_formula_sum   'Mg12 Si4 O16 F8'
_cell_volume   437.35468724
_cell_formula_units_Z   4
loop_
 _symmetry_equiv_pos_site_id
 _symmetry_equiv_pos_as_xyz
  1  'x, y, z'
loop_
 _atom_site_type_symbol
 _atom_site_label
 _atom_site_symmetry_multiplicity
 _atom_site_fract_x
 _atom_site_fract_y
 _atom_site_fract_z
 _atom_site_occupancy
  Mg  Mg0  1  0.98997200  0.43036700  0.36676000  1
  Mg  Mg1  1  0.99399900  0.25000000  0.09294100  1
  Mg  Mg2  1  0.51002800  0.06963300  0.86676000  1
  Mg  Mg3  1  0.98997200  0.06963300  0.36676000  1
  Mg  Mg4  1  0.00600100  0.75000000  0.90705900  1
  Mg  Mg5  1  0.50600100  0.25000000  0.59294100  1
  Mg  Mg6  1  0.01002800  0.93036700  0.63324000  1
  Mg  Mg7  1  0.51002800  0.43036700  0.86676000  1
  Mg  Mg8  1  0.49399900  0.75000000  0.40705900  1
  Mg  Mg9  1  0.01002800  0.56963300  0.63324000  1
  Mg  Mg10  1  0.48997200  0.56963300  0.13324000  1
  Mg  Mg11  1  0.48997200  0.93036700  0.13324000  1
  Si  Si0  1  0.08030600  0.25000000  0.78046100  1
  Si  Si1  1  0.41969400  0.25000000  0.28046100  1
  Si  Si2  1  0.91969400  0.75000000  0.21953900  1
  Si  Si3  1  0.58030600  0.75000000  0.71953900  1
  O  O0  1  0.73162800  0.89650800  0.79111000  1
  O  O1  1  0.26837200  0.10349200  0.20889000  1
  O  O2  1  0.23770500  0.75000000  0.72108300  1
  O  O3  1  0.77772600  0.75000000  0.07423300  1
  O  O4  1  0.27772600  0.25000000  0.42576700  1
  O  O5  1  0.72227400  0.75000000  0.57423300  1
  O  O6  1  0.76837200  0.89650800  0.29111000  1
  O  O7  1  0.76229500  0.25000000  0.27891700  1
  O  O8  1  0.26837200  0.39650800  0.20889000  1
  O  O9  1  0.73162800  0.60349200  0.79111000  1
  O  O10  1  0.26229500  0.75000000  0.22108300  1
  O  O11  1  0.23162800  0.10349200  0.70889000  1
  O  O12  1  0.22227400  0.25000000  0.92576700  1
  O  O13  1  0.76837200  0.60349200  0.29111000  1
  O  O14  1  0.73770500  0.25000000  0.77891700  1
  O  O15  1  0.23162800  0.39650800  0.70889000  1
  F  F0  1  0.27236400  0.91591600  0.96738800  1
  F  F1  1  0.22763600  0.58408400  0.46738800  1
  F  F2  1  0.72763600  0.08408400  0.03261200  1
  F  F3  1  0.72763600  0.41591600  0.03261200  1
  F  F4  1  0.77236400  0.41591600  0.53261200  1
  F  F5  1  0.22763600  0.91591600  0.46738800  1
  F  F6  1  0.77236400  0.08408400  0.53261200  1
  F  F7  1  0.27236400  0.58408400  0.96738800  1
loop_
_geom_bond_atom_site_label_1
_geom_bond_atom_site_label_2
_geom_bond_distance
_geom_bond_site_symmetry_2
Mg0 O13 2.018384 1_555
Mg0 O8 2.130014 1_655
Mg0 O7 2.133337 1_555
Mg0 O4 2.189876 1_655
Mg1 O12 2.048997 1_654
Mg1 O8 2.198988 1_655
Mg1 O1 2.198988 1_655
Mg1 O7 2.225102 1_555
Mg2 O0 2.018384 1_545
Mg2 O11 2.130014 1_555
Mg2 O14 2.133337 1_555
Mg2 O12 2.189876 1_555
Mg3 O6 2.018384 1_545
Mg3 O1 2.130014 1_655
Mg3 O7 2.133337 1_555
Mg3 O4 2.189876 1_655
Mg4 O3 2.048997 1_456
Mg4 O0 2.198988 1_455
Mg4 O9 2.198988 1_455
Mg4 O2 2.225102 1_555
Mg5 O4 2.048997 1_555
Mg5 O15 2.198988 1_555
Mg5 O11 2.198988 1_555
Mg5 O14 2.225102 1_555
Mg6 O11 2.018384 1_565
Mg6 O0 2.130014 1_455
Mg6 O2 2.133337 1_555
Mg6 O5 2.189876 1_455
Mg7 O9 2.018384 1_555
Mg7 O15 2.130014 1_555
Mg7 O14 2.133337 1_555
Mg7 O12 2.189876 1_555
Mg8 O5 2.048997 1_555
Mg8 O6 2.198988 1_555
Mg8 O13 2.198988 1_555
Mg8 O10 2.225102 1_555
Mg9 O15 2.018384 1_555
Mg9 O9 2.130014 1_455
Mg9 O2 2.133337 1_555
Mg9 O5 2.189876 1_455
Mg10 O8 2.018384 1_555
Mg10 O13 2.130014 1_555
Mg10 O10 2.133337 1_555
Mg10 O3 2.189876 1_555
Mg11 O1 2.018384 1_565
Mg11 O6 2.130014 1_555
Mg11 O10 2.133337 1_555
Mg11 O3 2.189876 1_555
O0 Si3 1.658326 1_555
O1 Si1 1.658326 1_555
O2 Si3 1.630928 1_555
O3 Si2 1.654231 1_555
O4 Si1 1.654231 1_555
O5 Si3 1.654231 1_555
O6 Si2 1.658326 1_555
O7 Si1 1.630928 1_555
O8 Si1 1.658326 1_555
O9 Si3 1.658326 1_555
O10 Si2 1.630928 1_455
O11 Si0 1.658326 1_555
O12 Si0 1.654231 1_555
O13 Si2 1.658326 1_555
O14 Si0 1.630928 1_655
O15 Si0 1.658326 1_555
F0 Mg11 2.014796 1_556
F0 Mg4 2.037839 1_555
F0 Mg2 2.054399 1_565
F1 Mg9 2.014796 1_555
F1 Mg8 2.037839 1_555
F1 Mg0 2.054399 1_455
F2 Mg2 2.014796 1_554
F2 Mg1 2.037839 1_555
F2 Mg11 2.054399 1_545
F3 Mg7 2.014796 1_554
F3 Mg1 2.037839 1_555
F3 Mg10 2.054399 1_555
F4 Mg0 2.014796 1_555
F4 Mg5 2.037839 1_555
F4 Mg9 2.054399 1_655
F5 Mg6 2.014796 1_555
F5 Mg8 2.037839 1_555
F5 Mg3 2.054399 1_465
F6 Mg3 2.014796 1_555
F6 Mg5 2.037839 1_555
F6 Mg6 2.054399 1_645
F7 Mg10 2.014796 1_556
F7 Mg4 2.037839 1_555
F7 Mg7 2.054399 1_555
