# generated using pymatgen
data_Tl2V8O21
_symmetry_space_group_name_H-M   'P 1'
_cell_length_a   7.81406966
_cell_length_b   7.81406966
_cell_length_c   14.97837196
_cell_angle_alpha   89.73736001
_cell_angle_beta   89.73736001
_cell_angle_gamma   26.34134849
_symmetry_Int_Tables_number   1
_chemical_formula_structural   Tl2V8O21
_chemical_formula_sum   'Tl2 V8 O21'
_cell_volume   405.80878243
_cell_formula_units_Z   1
loop_
 _symmetry_equiv_pos_site_id
 _symmetry_equiv_pos_as_xyz
  1  'x, y, z'
loop_
 _atom_site_type_symbol
 _atom_site_label
 _atom_site_symmetry_multiplicity
 _atom_site_fract_x
 _atom_site_fract_y
 _atom_site_fract_z
 _atom_site_occupancy
  Tl  Tl0  1  0.47261170  0.47261170  0.31283157  1
  Tl  Tl1  1  0.52738830  0.52738830  0.68716843  1
  V  V0  1  0.16986498  0.16986498  0.47583198  1
  V  V1  1  0.09157069  0.09157069  0.07384758  1
  V  V2  1  0.31198837  0.31198837  0.07192248  1
  V  V3  1  0.19097294  0.19097294  0.26836867  1
  V  V4  1  0.90842931  0.90842931  0.92615242  1
  V  V5  1  0.80902706  0.80902706  0.73163133  1
  V  V6  1  0.83013502  0.83013502  0.52416802  1
  V  V7  1  0.68801163  0.68801163  0.92807752  1
  O  O0  1  0.90636185  0.90636185  0.44864137  1
  O  O1  1  0.33558489  0.33558489  0.74238543  1
  O  O2  1  0.19403545  0.19403545  0.96666041  1
  O  O3  1  0.38993644  0.38993644  0.14331781  1
  O  O4  1  0.66441511  0.66441511  0.25761457  1
  O  O5  1  0.38152865  0.38152865  0.95231782  1
  O  O6  1  0.80596455  0.80596455  0.03333959  1
  O  O7  1  0.71330367  0.71330367  0.68657647  1
  O  O8  1  0.71015418  0.71015418  0.47044440  1
  O  O9  1  0.11612746  0.11612746  0.37316834  1
  O  O10  1  0.09363815  0.09363815  0.55135863  1
  O  O11  1  -0.00000000  -0.00000000  0.00000000  1
  O  O12  1  0.21524843  0.21524843  0.13983846  1
  O  O13  1  0.61847135  0.61847135  0.04768218  1
  O  O14  1  0.95179691  0.95179691  0.82692018  1
  O  O15  1  0.88387254  0.88387254  0.62683166  1
  O  O16  1  0.28984582  0.28984582  0.52955560  1
  O  O17  1  0.78475157  0.78475157  0.86016154  1
  O  O18  1  0.61006356  0.61006356  0.85668219  1
  O  O19  1  0.04820309  0.04820309  0.17307982  1
  O  O20  1  0.28669633  0.28669633  0.31342353  1
loop_
_geom_bond_atom_site_label_1
_geom_bond_atom_site_label_2
_geom_bond_distance
_geom_bond_site_symmetry_2
O0 V6 1.616443 1_555
O0 Tl0 2.881847 1_655
O0 Tl0 2.881847 1_565
O1 V5 1.833004 1_455
O1 V5 1.833004 1_545
O2 V7 1.874274 1_545
O2 V7 1.874274 1_455
O2 V1 2.232749 1_556
O2 V2 2.394605 1_556
O3 V2 1.600768 1_555
O3 Tl0 2.838935 1_555
O4 V3 1.833004 1_655
O4 V3 1.833004 1_565
O5 V4 1.868067 1_455
O5 V4 1.868067 1_545
O5 V2 2.076378 1_556
O6 V2 1.874274 1_655
O6 V2 1.874274 1_565
O6 V4 2.232749 1_554
O6 V7 2.394605 1_554
O7 V5 1.608241 1_555
O7 Tl1 2.829056 1_555
O8 V0 1.884659 1_655
O8 V0 1.884659 1_565
O8 V6 1.998685 1_555
O9 V0 1.745034 1_555
O9 V3 1.935038 1_555
O10 V0 1.616443 1_555
O10 Tl1 2.881847 1_545
O10 Tl1 2.881847 1_455
O11 V4 1.783163 1_444
O11 V1 1.783163 1_555
O12 V2 1.785443 1_555
O12 V3 1.958585 1_555
O12 V1 2.129902 1_555
O13 V1 1.868067 1_655
O13 V1 1.868067 1_565
O13 V7 2.076378 1_554
O14 V4 1.623412 1_555
O15 V6 1.745034 1_555
O15 V5 1.935038 1_555
O16 V6 1.884659 1_455
O16 V6 1.884659 1_545
O16 V0 1.998685 1_555
O17 V7 1.785443 1_555
O17 V5 1.958585 1_555
O17 V4 2.129902 1_555
O18 V7 1.600768 1_555
O18 Tl1 2.838935 1_555
O19 V1 1.623412 1_555
O20 V3 1.608241 1_555
O20 Tl0 2.829056 1_555
