# generated using pymatgen
data_Cs2Li3GaO4
_symmetry_space_group_name_H-M   'P 1'
_cell_length_a   8.26040657
_cell_length_b   8.26040657
_cell_length_c   8.26040657
_cell_angle_alpha   144.10213318
_cell_angle_beta   104.37690174
_cell_angle_gamma   86.65415300
_symmetry_Int_Tables_number   1
_chemical_formula_structural   Cs2Li3GaO4
_chemical_formula_sum   'Cs4 Li6 Ga2 O8'
_cell_volume   309.85839264
_cell_formula_units_Z   2
loop_
 _symmetry_equiv_pos_site_id
 _symmetry_equiv_pos_as_xyz
  1  'x, y, z'
loop_
 _atom_site_type_symbol
 _atom_site_label
 _atom_site_symmetry_multiplicity
 _atom_site_fract_x
 _atom_site_fract_y
 _atom_site_fract_z
 _atom_site_occupancy
  Cs  Cs0  1  0.37245600  0.23858100  0.61103700  1
  Cs  Cs1  1  0.62754400  0.76141900  0.38896300  1
  Cs  Cs2  1  0.87245600  0.26141900  0.13387500  1
  Cs  Cs3  1  0.12754400  0.73858100  0.86612500  1
  Li  Li0  1  0.49026800  0.75000000  0.74026800  1
  Li  Li1  1  0.99026800  0.25000000  0.74026800  1
  Li  Li2  1  0.00973200  0.75000000  0.25973200  1
  Li  Li3  1  0.25000000  0.75000000  0.50000000  1
  Li  Li4  1  0.50973200  0.25000000  0.25973200  1
  Li  Li5  1  0.75000000  0.25000000  0.50000000  1
  Ga  Ga0  1  0.75000000  0.75000000  0.00000000  1
  Ga  Ga1  1  0.25000000  0.25000000  0.00000000  1
  O  O0  1  0.05831700  0.94364200  0.65034800  1
  O  O1  1  0.20670600  0.55635800  0.11467500  1
  O  O2  1  0.79329400  0.44364200  0.88532500  1
  O  O3  1  0.55831700  0.90796900  0.11467500  1
  O  O4  1  0.94168300  0.05635800  0.34965200  1
  O  O5  1  0.70670600  0.59203100  0.65034800  1
  O  O6  1  0.44168300  0.09203100  0.88532500  1
  O  O7  1  0.29329400  0.40796900  0.34965200  1
loop_
_geom_bond_atom_site_label_1
_geom_bond_atom_site_label_2
_geom_bond_distance
_geom_bond_site_symmetry_2
Cs0 O2 3.262741 1_555
Cs0 O6 3.262741 1_555
Cs0 O3 3.284703 1_556
Cs0 O1 3.284703 1_556
Cs0 O3 3.334961 1_545
Cs0 O1 3.334961 1_545
Cs0 O7 3.336757 1_555
Cs0 O4 3.336757 1_455
Cs1 O3 3.262741 1_555
Cs1 O1 3.262741 1_555
Cs1 O6 3.284703 1_554
Cs1 O2 3.284703 1_554
Cs1 O6 3.334961 1_565
Cs1 O2 3.334961 1_565
Cs1 O5 3.336757 1_555
Cs1 O0 3.336757 1_655
Cs2 O4 3.262741 1_555
Cs2 O7 3.262741 1_655
Cs2 O5 3.284703 1_544
Cs2 O0 3.284703 1_644
Cs2 O5 3.334961 1_555
Cs2 O0 3.334961 1_655
Cs2 O6 3.336757 1_554
Cs2 O2 3.336757 1_554
Cs3 O5 3.262741 1_455
Cs3 O0 3.262741 1_555
Cs3 O7 3.284703 1_566
Cs3 O4 3.284703 1_466
Cs3 O4 3.334961 1_455
Cs3 O7 3.334961 1_555
Cs3 O3 3.336757 1_556
Cs3 O1 3.336757 1_556
Li0 O6 2.049620 1_565
Li0 O7 2.049620 1_555
Li0 O5 2.065861 1_555
Li0 O3 2.065861 1_556
Li1 O2 2.049620 1_555
Li1 O4 2.049620 1_555
Li1 O0 2.065861 1_645
Li1 O1 2.065861 1_656
Li2 O1 2.049620 1_555
Li2 O0 2.049620 1_555
Li2 O4 2.065861 1_465
Li2 O2 2.065861 1_454
Li3 O6 2.017556 1_565
Li3 O0 2.017556 1_555
Li3 O1 2.017556 1_555
Li3 O7 2.017556 1_555
Li4 O5 2.049620 1_555
Li4 O3 2.049620 1_545
Li4 O7 2.065861 1_555
Li4 O6 2.065861 1_554
Li5 O2 2.017556 1_555
Li5 O4 2.017556 1_555
Li5 O3 2.017556 1_545
Li5 O5 2.017556 1_555
Ga0 O4 1.899527 1_565
Ga0 O2 1.899527 1_554
Ga0 O3 1.899527 1_555
Ga0 O5 1.899527 1_554
Ga1 O7 1.899527 1_555
Ga1 O1 1.899527 1_555
Ga1 O6 1.899527 1_554
Ga1 O0 1.899527 1_544
