# generated using pymatgen
data_K2SnCl6
_symmetry_space_group_name_H-M   'P 1'
_cell_length_a   7.02205758
_cell_length_b   7.02205758
_cell_length_c   10.24184398
_cell_angle_alpha   90.00000000
_cell_angle_beta   90.00000000
_cell_angle_gamma   90.00000000
_symmetry_Int_Tables_number   1
_chemical_formula_structural   K2SnCl6
_chemical_formula_sum   'K4 Sn2 Cl12'
_cell_volume   505.01808216
_cell_formula_units_Z   2
loop_
 _symmetry_equiv_pos_site_id
 _symmetry_equiv_pos_as_xyz
  1  'x, y, z'
loop_
 _atom_site_type_symbol
 _atom_site_label
 _atom_site_symmetry_multiplicity
 _atom_site_fract_x
 _atom_site_fract_y
 _atom_site_fract_z
 _atom_site_occupancy
  K  K0  1  0.00000000  0.50000000  0.25000000  1
  K  K1  1  0.00000000  0.50000000  0.75000000  1
  K  K2  1  0.50000000  -0.00000000  0.75000000  1
  K  K3  1  0.50000000  -0.00000000  0.25000000  1
  Sn  Sn0  1  0.50000000  0.50000000  0.50000000  1
  Sn  Sn1  1  0.00000000  -0.00000000  -0.00000000  1
  Cl  Cl0  1  0.50000000  0.50000000  0.26043501  1
  Cl  Cl1  1  0.71481541  0.80082173  -0.00000000  1
  Cl  Cl2  1  0.19917827  0.71481541  -0.00000000  1
  Cl  Cl3  1  0.00000000  -0.00000000  0.76043501  1
  Cl  Cl4  1  0.28518459  0.19917827  -0.00000000  1
  Cl  Cl5  1  0.30082173  0.21481541  0.50000000  1
  Cl  Cl6  1  0.69917827  0.78518459  0.50000000  1
  Cl  Cl7  1  0.21481541  0.69917827  0.50000000  1
  Cl  Cl8  1  0.50000000  0.50000000  0.73956499  1
  Cl  Cl9  1  0.78518459  0.30082173  0.50000000  1
  Cl  Cl10  1  0.00000000  -0.00000000  0.23956499  1
  Cl  Cl11  1  0.80082173  0.28518459  -0.00000000  1
loop_
_geom_bond_atom_site_label_1
_geom_bond_atom_site_label_2
_geom_bond_distance
_geom_bond_site_symmetry_2
Cl0 Sn0 2.453587 1_555
Cl0 K3 3.512655 1_555
Cl0 K0 3.512655 1_555
Cl0 K0 3.512655 1_655
Cl0 K3 3.512655 1_565
Cl1 Sn1 2.442649 1_665
Cl1 K3 3.284443 1_565
Cl1 K2 3.284443 1_564
Cl2 Sn1 2.442649 1_565
Cl2 K1 3.284443 1_554
Cl2 K0 3.284443 1_555
Cl3 Sn1 2.453587 1_556
Cl3 K1 3.512655 1_555
Cl3 K2 3.512655 1_455
Cl3 K1 3.512655 1_545
Cl3 K2 3.512655 1_555
Cl4 Sn1 2.442649 1_555
Cl4 K3 3.284443 1_555
Cl4 K2 3.284443 1_554
Cl5 Sn0 2.442649 1_555
Cl5 K2 3.284443 1_555
Cl5 K3 3.284443 1_555
Cl6 Sn0 2.442649 1_555
Cl6 K3 3.284443 1_565
Cl6 K2 3.284443 1_565
Cl7 Sn0 2.442649 1_555
Cl7 K1 3.284443 1_555
Cl7 K0 3.284443 1_555
Cl8 Sn0 2.453587 1_555
Cl8 K1 3.512655 1_555
Cl8 K1 3.512655 1_655
Cl8 K2 3.512655 1_555
Cl8 K2 3.512655 1_565
Cl9 Sn0 2.442649 1_555
Cl9 K1 3.284443 1_655
Cl9 K0 3.284443 1_655
Cl10 Sn1 2.453587 1_555
Cl10 K3 3.512655 1_555
Cl10 K0 3.512655 1_555
Cl10 K0 3.512655 1_545
Cl10 K3 3.512655 1_455
Cl11 Sn1 2.442649 1_655
Cl11 K1 3.284443 1_654
Cl11 K0 3.284443 1_655
