# generated using pymatgen
data_Ba3MgIr2O9
_symmetry_space_group_name_H-M   'P 1'
_cell_length_a   5.83885769
_cell_length_b   5.83885769
_cell_length_c   14.46708800
_cell_angle_alpha   90.00000000
_cell_angle_beta   90.00000000
_cell_angle_gamma   119.99999650
_symmetry_Int_Tables_number   1
_chemical_formula_structural   Ba3MgIr2O9
_chemical_formula_sum   'Ba6 Mg2 Ir4 O18'
_cell_volume   427.13735208
_cell_formula_units_Z   2
loop_
 _symmetry_equiv_pos_site_id
 _symmetry_equiv_pos_as_xyz
  1  'x, y, z'
loop_
 _atom_site_type_symbol
 _atom_site_label
 _atom_site_symmetry_multiplicity
 _atom_site_fract_x
 _atom_site_fract_y
 _atom_site_fract_z
 _atom_site_occupancy
  Ba  Ba0  1  0.33333300  0.66666700  0.91384300  1
  Ba  Ba1  1  0.66666700  0.33333300  0.41384300  1
  Ba  Ba2  1  0.33333300  0.66666700  0.58615700  1
  Ba  Ba3  1  0.00000000  0.00000000  0.25000000  1
  Ba  Ba4  1  0.66666700  0.33333300  0.08615700  1
  Ba  Ba5  1  0.00000000  0.00000000  0.75000000  1
  Mg  Mg0  1  0.00000000  0.00000000  0.50000000  1
  Mg  Mg1  1  0.00000000  0.00000000  0.00000000  1
  Ir  Ir0  1  0.33333300  0.66666700  0.34437900  1
  Ir  Ir1  1  0.66666700  0.33333300  0.65562100  1
  Ir  Ir2  1  0.33333300  0.66666700  0.15562100  1
  Ir  Ir3  1  0.66666700  0.33333300  0.84437900  1
  O  O0  1  0.17086500  0.82913500  0.08189000  1
  O  O1  1  0.82913500  0.65826900  0.58189000  1
  O  O2  1  0.51578700  0.48421300  0.75000000  1
  O  O3  1  0.34173100  0.17086500  0.91811000  1
  O  O4  1  0.48421300  0.51578700  0.25000000  1
  O  O5  1  0.34173100  0.17086500  0.58189000  1
  O  O6  1  0.03157400  0.51578700  0.25000000  1
  O  O7  1  0.82913500  0.17086500  0.58189000  1
  O  O8  1  0.51578700  0.03157400  0.75000000  1
  O  O9  1  0.65826900  0.82913500  0.08189000  1
  O  O10  1  0.17086500  0.82913500  0.41811000  1
  O  O11  1  0.96842600  0.48421300  0.75000000  1
  O  O12  1  0.82913500  0.17086500  0.91811000  1
  O  O13  1  0.65826900  0.82913500  0.41811000  1
  O  O14  1  0.17086500  0.34173100  0.41811000  1
  O  O15  1  0.17086500  0.34173100  0.08189000  1
  O  O16  1  0.48421300  0.96842600  0.25000000  1
  O  O17  1  0.82913500  0.65826900  0.91811000  1
loop_
_geom_bond_atom_site_label_1
_geom_bond_atom_site_label_2
_geom_bond_distance
_geom_bond_site_symmetry_2
Ba0 O17 2.920384 1_455
Ba0 O3 2.920384 1_565
Ba0 O12 2.920390 1_565
Ba0 O12 2.920390 1_455
Ba0 O17 2.920396 1_555
Ba0 O3 2.920396 1_555
Ba0 O0 2.934310 1_556
Ba0 O15 2.934310 1_556
Ba0 O9 2.934310 1_556
Ba0 O8 3.003863 1_565
Ba0 O11 3.003863 1_455
Ba0 O2 3.003866 1_555
Ba1 O14 2.920384 1_655
Ba1 O13 2.920384 1_545
Ba1 O10 2.920390 1_655
Ba1 O10 2.920390 1_545
Ba1 O13 2.920396 1_555
Ba1 O14 2.920396 1_555
Ba1 O7 2.934310 1_555
Ba1 O1 2.934310 1_555
Ba1 O5 2.934310 1_555
Ba1 O6 3.003863 1_655
Ba1 O16 3.003863 1_545
Ba1 O4 3.003866 1_555
Ba2 O1 2.920384 1_455
Ba2 O5 2.920384 1_565
Ba2 O7 2.920390 1_455
Ba2 O7 2.920390 1_565
Ba2 O1 2.920396 1_555
Ba2 O5 2.920396 1_555
Ba2 O10 2.934310 1_555
Ba2 O14 2.934310 1_555
Ba2 O13 2.934310 1_555
Ba2 O11 3.003863 1_455
Ba2 O8 3.003863 1_565
Ba2 O2 3.003866 1_555
Ba3 O6 2.923791 1_545
Ba3 O16 2.923791 1_545
Ba3 O6 2.923791 1_555
Ba3 O16 2.923791 1_445
Ba3 O4 2.923791 1_555
Ba3 O4 2.923791 1_445
Ba3 O0 2.983434 1_545
Ba3 O10 2.983434 1_545
Ba3 O9 2.983437 1_445
Ba3 O15 2.983437 1_555
Ba3 O14 2.983437 1_555
Ba3 O13 2.983437 1_445
Ba4 O15 2.920384 1_655
Ba4 O9 2.920384 1_545
Ba4 O0 2.920390 1_655
Ba4 O0 2.920390 1_545
Ba4 O9 2.920396 1_555
Ba4 O15 2.920396 1_555
Ba4 O12 2.934310 1_554
Ba4 O3 2.934310 1_554
Ba4 O17 2.934310 1_554
Ba4 O6 3.003863 1_655
Ba4 O16 3.003863 1_545
Ba4 O4 3.003866 1_555
Ba5 O8 2.923791 1_455
Ba5 O11 2.923791 1_455
Ba5 O8 2.923791 1_555
Ba5 O11 2.923791 1_445
Ba5 O2 2.923791 1_445
Ba5 O2 2.923791 1_555
Ba5 O7 2.983434 1_455
Ba5 O12 2.983434 1_455
Ba5 O1 2.983437 1_445
Ba5 O5 2.983437 1_555
Ba5 O17 2.983437 1_445
Ba5 O3 2.983437 1_555
Mg0 O10 2.095112 1_545
Mg0 O7 2.095112 1_455
Mg0 O14 2.095116 1_555
Mg0 O13 2.095116 1_445
Mg0 O5 2.095116 1_555
Mg0 O1 2.095116 1_445
Mg1 O12 2.095112 1_454
Mg1 O0 2.095112 1_545
Mg1 O17 2.095116 1_444
Mg1 O3 2.095116 1_554
Mg1 O15 2.095116 1_555
Mg1 O9 2.095116 1_445
Ir0 O10 1.958947 1_555
Ir0 O13 1.958947 1_555
Ir0 O14 1.958947 1_555
Ir0 O6 2.047579 1_555
Ir0 O16 2.047579 1_555
Ir0 O4 2.047583 1_555
Ir1 O7 1.958947 1_555
Ir1 O1 1.958947 1_555
Ir1 O5 1.958947 1_555
Ir1 O8 2.047579 1_555
Ir1 O11 2.047579 1_555
Ir1 O2 2.047583 1_555
Ir2 O0 1.958947 1_555
Ir2 O9 1.958947 1_555
Ir2 O15 1.958947 1_555
Ir2 O16 2.047579 1_555
Ir2 O6 2.047579 1_555
Ir2 O4 2.047583 1_555
Ir3 O12 1.958947 1_555
Ir3 O17 1.958947 1_555
Ir3 O3 1.958947 1_555
Ir3 O8 2.047579 1_555
Ir3 O11 2.047579 1_555
Ir3 O2 2.047583 1_555
