# generated using pymatgen
data_Be(PO3)2
_symmetry_space_group_name_H-M   'P 1'
_cell_length_a   7.12183160
_cell_length_b   7.12183160
_cell_length_c   8.86595584
_cell_angle_alpha   90.00000000
_cell_angle_beta   90.00000000
_cell_angle_gamma   91.42316428
_symmetry_Int_Tables_number   1
_chemical_formula_structural   Be(PO3)2
_chemical_formula_sum   'Be4 P8 O24'
_cell_volume   449.54686908
_cell_formula_units_Z   4
loop_
 _symmetry_equiv_pos_site_id
 _symmetry_equiv_pos_as_xyz
  1  'x, y, z'
loop_
 _atom_site_type_symbol
 _atom_site_label
 _atom_site_symmetry_multiplicity
 _atom_site_fract_x
 _atom_site_fract_y
 _atom_site_fract_z
 _atom_site_occupancy
  Be  Be0  1  0.17244988  0.35972910  0.78204259  1
  Be  Be1  1  0.35972910  0.17244988  0.21795741  1
  Be  Be2  1  0.82755012  0.64027090  0.28204259  1
  Be  Be3  1  0.64027090  0.82755012  0.71795741  1
  P  P0  1  0.93836457  0.93836457  0.50000000  1
  P  P1  1  0.65126900  0.10878549  0.97197508  1
  P  P2  1  0.06163543  0.06163543  -0.00000000  1
  P  P3  1  0.89121451  0.34873100  0.52802492  1
  P  P4  1  0.10878549  0.65126900  0.02802492  1
  P  P5  1  0.59326643  0.40673357  0.75000000  1
  P  P6  1  0.40673357  0.59326643  0.25000000  1
  P  P7  1  0.34873100  0.89121451  0.47197508  1
  O  O0  1  0.15133653  0.92221479  0.54639985  1
  O  O1  1  0.47868015  0.85988556  0.59735431  1
  O  O2  1  0.60740354  0.64935438  0.23660540  1
  O  O3  1  0.35064562  0.39259646  0.26339460  1
  O  O4  1  0.95639989  0.60300296  0.13555538  1
  O  O5  1  0.64935438  0.60740354  0.76339460  1
  O  O6  1  0.52131985  0.14011444  0.09735431  1
  O  O7  1  0.92221479  0.15133653  0.45360015  1
  O  O8  1  0.84866347  0.07778521  0.04639985  1
  O  O9  1  0.83497272  0.89626272  0.64097942  1
  O  O10  1  0.07778521  0.84866347  0.95360015  1
  O  O11  1  0.69542852  0.31227246  0.61131599  1
  O  O12  1  0.89626272  0.83497272  0.35902058  1
  O  O13  1  0.60300296  0.95639989  0.86444462  1
  O  O14  1  0.14011444  0.52131985  0.90264569  1
  O  O15  1  0.85988556  0.47868015  0.40264569  1
  O  O16  1  0.39259646  0.35064562  0.73660540  1
  O  O17  1  0.39699704  0.04360011  0.36444462  1
  O  O18  1  0.04360011  0.39699704  0.63555538  1
  O  O19  1  0.68772754  0.30457148  0.88868401  1
  O  O20  1  0.10373728  0.16502728  0.85902058  1
  O  O21  1  0.16502728  0.10373728  0.14097942  1
  O  O22  1  0.30457148  0.68772754  0.11131599  1
  O  O23  1  0.31227246  0.69542852  0.38868401  1
loop_
_geom_bond_atom_site_label_1
_geom_bond_atom_site_label_2
_geom_bond_distance
_geom_bond_site_symmetry_2
Be0 O14 1.591826 1_555
Be0 O20 1.610684 1_555
Be0 O18 1.615973 1_555
Be0 O16 1.621620 1_555
Be1 O6 1.591826 1_555
Be1 O21 1.610684 1_555
Be1 O17 1.615973 1_555
Be1 O3 1.621620 1_555
Be2 O15 1.591826 1_555
Be2 O12 1.610684 1_555
Be2 O4 1.615973 1_555
Be2 O2 1.621620 1_555
Be3 O1 1.591826 1_555
Be3 O9 1.610684 1_555
Be3 O13 1.615973 1_555
Be3 O5 1.621620 1_555
O0 P7 1.573487 1_555
O0 P0 1.578499 1_455
O1 P7 1.467043 1_555
O2 P6 1.479101 1_555
O3 P6 1.479101 1_555
O4 P4 1.478622 1_655
O5 P5 1.479101 1_555
O6 P1 1.467043 1_554
O7 P3 1.573487 1_555
O7 P0 1.578499 1_545
O8 P1 1.573487 1_554
O8 P2 1.578499 1_655
O9 P0 1.477642 1_555
O10 P4 1.573487 1_556
O10 P2 1.578499 1_566
O11 P5 1.586851 1_555
O11 P3 1.593417 1_555
O12 P0 1.477642 1_555
O13 P1 1.478622 1_565
O14 P4 1.467043 1_556
O15 P3 1.467043 1_555
O16 P5 1.479101 1_555
O17 P7 1.478622 1_545
O18 P3 1.478622 1_455
O19 P5 1.586851 1_555
O19 P1 1.593417 1_555
O20 P2 1.477642 1_556
O21 P2 1.477642 1_555
O22 P6 1.586851 1_555
O22 P4 1.593417 1_555
O23 P6 1.586851 1_555
O23 P7 1.593417 1_555
