# generated using pymatgen
data_Sr2Cu3(ClO2)2
_symmetry_space_group_name_H-M   'P 1'
_cell_length_a   7.55502784
_cell_length_b   7.55502784
_cell_length_c   7.55502784
_cell_angle_alpha   137.38813447
_cell_angle_beta   137.38813447
_cell_angle_gamma   61.84140329
_symmetry_Int_Tables_number   1
_chemical_formula_structural   Sr2Cu3(ClO2)2
_chemical_formula_sum   'Sr2 Cu3 Cl2 O4'
_cell_volume   195.36160828
_cell_formula_units_Z   1
loop_
 _symmetry_equiv_pos_site_id
 _symmetry_equiv_pos_as_xyz
  1  'x, y, z'
loop_
 _atom_site_type_symbol
 _atom_site_label
 _atom_site_symmetry_multiplicity
 _atom_site_fract_x
 _atom_site_fract_y
 _atom_site_fract_z
 _atom_site_occupancy
  Sr  Sr0  1  0.36107600  0.36107600  0.00000000  1
  Sr  Sr1  1  0.63892400  0.63892400  0.00000000  1
  Cu  Cu0  1  0.00000000  0.00000000  0.00000000  1
  Cu  Cu1  1  0.00000000  0.50000000  0.50000000  1
  Cu  Cu2  1  0.50000000  0.00000000  0.50000000  1
  Cl  Cl0  1  0.25000000  0.75000000  0.50000000  1
  Cl  Cl1  1  0.75000000  0.25000000  0.50000000  1
  O  O0  1  0.25067900  0.74932100  0.00000000  1
  O  O1  1  0.74932100  0.25067900  0.00000000  1
  O  O2  1  0.25067900  0.25067900  0.50135800  1
  O  O3  1  0.74932100  0.74932100  0.49864200  1
loop_
_geom_bond_atom_site_label_1
_geom_bond_atom_site_label_2
_geom_bond_distance
_geom_bond_site_symmetry_2
Cu0 O3 1.946352 1_444
Cu0 O0 1.946352 1_545
Cu0 O1 1.946352 1_455
Cu0 O2 1.946352 1_555
Cu1 O2 1.941087 1_555
Cu1 O1 1.941087 1_455
Cu1 O0 1.941087 1_556
Cu1 O3 1.941087 1_455
Cu2 O2 1.941087 1_555
Cu2 O3 1.941087 1_545
Cu2 O1 1.941087 1_556
Cu2 O0 1.941087 1_545
Cl0 Sr0 3.099792 1_566
Cl0 Sr0 3.099792 1_555
Cl0 Sr1 3.099792 1_556
Cl0 Sr1 3.099792 1_455
Cl1 Sr0 3.099792 1_656
Cl1 Sr0 3.099792 1_555
Cl1 Sr1 3.099792 1_545
Cl1 Sr1 3.099792 1_556
O0 Sr1 2.643917 1_555
O0 Sr0 2.643917 1_555
O1 Sr1 2.643917 1_555
O1 Sr0 2.643917 1_555
O2 Sr1 2.643917 1_556
O2 Sr0 2.643917 1_556
O3 Sr1 2.643917 1_555
O3 Sr0 2.643917 1_555
