# generated using pymatgen
data_Sm3CuGeS7
_symmetry_space_group_name_H-M   'P 1'
_cell_length_a   10.06195624
_cell_length_b   10.06195624
_cell_length_c   5.81849433
_cell_angle_alpha   90.00000000
_cell_angle_beta   90.00000000
_cell_angle_gamma   120.00000191
_symmetry_Int_Tables_number   1
_chemical_formula_structural   Sm3CuGeS7
_chemical_formula_sum   'Sm6 Cu2 Ge2 S14'
_cell_volume   510.15962797
_cell_formula_units_Z   2
loop_
 _symmetry_equiv_pos_site_id
 _symmetry_equiv_pos_as_xyz
  1  'x, y, z'
loop_
 _atom_site_type_symbol
 _atom_site_label
 _atom_site_symmetry_multiplicity
 _atom_site_fract_x
 _atom_site_fract_y
 _atom_site_fract_z
 _atom_site_occupancy
  Sm  Sm0  1  0.12956496  0.77275243  0.74303489  1
  Sm  Sm1  1  0.35681253  0.12956496  0.24303489  1
  Sm  Sm2  1  0.87043504  0.22724757  0.24303489  1
  Sm  Sm3  1  0.22724757  0.35681253  0.74303489  1
  Sm  Sm4  1  0.64318747  0.87043504  0.74303489  1
  Sm  Sm5  1  0.77275243  0.64318747  0.24303489  1
  Cu  Cu0  1  0.00000000  0.00000000  0.70924254  1
  Cu  Cu1  1  0.00000000  0.00000000  0.20924254  1
  Ge  Ge0  1  0.66666700  0.33333300  0.82651605  1
  Ge  Ge1  1  0.33333300  0.66666700  0.32651605  1
  S  S0  1  0.58169254  0.10269298  0.98115382  1
  S  S1  1  0.33333300  0.66666700  0.95157131  1
  S  S2  1  0.09335182  0.83944015  0.21940132  1
  S  S3  1  0.16055985  0.25391167  0.21940132  1
  S  S4  1  0.66666700  0.33333300  0.45157131  1
  S  S5  1  0.83944015  0.74608833  0.71940132  1
  S  S6  1  0.25391167  0.09335182  0.71940132  1
  S  S7  1  0.90664818  0.16055985  0.71940132  1
  S  S8  1  0.74608833  0.90664818  0.21940132  1
  S  S9  1  0.41830746  0.89730702  0.48115382  1
  S  S10  1  0.47899956  0.58169254  0.48115382  1
  S  S11  1  0.52100044  0.41830746  0.98115382  1
  S  S12  1  0.89730702  0.47899956  0.98115382  1
  S  S13  1  0.10269298  0.52100044  0.48115382  1
loop_
_geom_bond_atom_site_label_1
_geom_bond_atom_site_label_2
_geom_bond_distance
_geom_bond_site_symmetry_2
Cu0 S5 2.239030 1_445
Cu0 S6 2.239030 1_555
Cu0 S7 2.239030 1_455
Cu1 S3 2.239030 1_555
Cu1 S8 2.239030 1_445
Cu1 S2 2.239030 1_545
Ge0 S4 2.181614 1_555
Ge0 S0 2.223060 1_555
Ge0 S12 2.223062 1_555
Ge0 S11 2.223069 1_555
Ge1 S1 2.181614 1_554
Ge1 S9 2.223060 1_555
Ge1 S13 2.223062 1_555
Ge1 S10 2.223069 1_555
S0 Sm1 2.850737 1_556
S0 Sm2 2.948257 1_556
S0 Sm4 3.034782 1_545
S1 Sm0 3.000661 1_555
S1 Sm4 3.000668 1_555
S1 Sm3 3.000669 1_555
S2 Sm1 2.798133 1_565
S2 Sm5 2.820353 1_455
S2 Sm0 2.917197 1_554
S2 Sm0 3.179664 1_555
S3 Sm2 2.798133 1_455
S3 Sm1 2.820353 1_555
S3 Sm3 2.917197 1_554
S3 Sm3 3.179664 1_555
S4 Sm2 3.000661 1_555
S4 Sm1 3.000668 1_555
S4 Sm5 3.000669 1_555
S5 Sm0 2.798133 1_655
S5 Sm4 2.820353 1_555
S5 Sm5 2.917197 1_555
S5 Sm5 3.179664 1_556
S6 Sm3 2.798133 1_555
S6 Sm0 2.820353 1_545
S6 Sm1 2.917197 1_555
S6 Sm1 3.179664 1_556
S7 Sm4 2.798133 1_545
S7 Sm3 2.820353 1_655
S7 Sm2 2.917197 1_555
S7 Sm2 3.179664 1_556
S8 Sm5 2.798133 1_555
S8 Sm2 2.820353 1_565
S8 Sm4 2.917197 1_554
S8 Sm4 3.179664 1_555
S9 Sm4 2.850737 1_555
S9 Sm0 2.948257 1_555
S9 Sm1 3.034782 1_565
S10 Sm3 2.850737 1_555
S10 Sm4 2.948257 1_555
S10 Sm5 3.034782 1_555
S11 Sm5 2.850737 1_556
S11 Sm1 2.948257 1_556
S11 Sm3 3.034782 1_555
S12 Sm2 2.850737 1_556
S12 Sm5 2.948257 1_556
S12 Sm0 3.034782 1_655
S13 Sm0 2.850737 1_555
S13 Sm3 2.948257 1_555
S13 Sm2 3.034782 1_455
