# generated using pymatgen
data_LuB2Ru3
_symmetry_space_group_name_H-M   'P 1'
_cell_length_a   10.87757458
_cell_length_b   10.87757275
_cell_length_c   6.02118058
_cell_angle_alpha   90.00000000
_cell_angle_beta   90.00000000
_cell_angle_gamma   119.99999310
_symmetry_Int_Tables_number   1
_chemical_formula_structural   LuB2Ru3
_chemical_formula_sum   'Lu8 B16 Ru24'
_cell_volume   616.98752130
_cell_formula_units_Z   8
loop_
 _symmetry_equiv_pos_site_id
 _symmetry_equiv_pos_as_xyz
  1  'x, y, z'
loop_
 _atom_site_type_symbol
 _atom_site_label
 _atom_site_symmetry_multiplicity
 _atom_site_fract_x
 _atom_site_fract_y
 _atom_site_fract_z
 _atom_site_occupancy
  Lu  Lu0_0  1  0.00000000  0.00000000  0.00000000  1
  Lu  Lu0_1  1  0.00000000  0.00000000  0.50000000  1
  Lu  Lu0_2  1  0.00000000  0.50000000  0.00000000  1
  Lu  Lu0_3  1  0.00000000  0.50000000  0.50000000  1
  Lu  Lu0_4  1  0.50000000  0.00000000  0.00000000  1
  Lu  Lu0_5  1  0.50000000  0.00000000  0.50000000  1
  Lu  Lu0_6  1  0.50000000  0.50000000  0.00000000  1
  Lu  Lu0_7  1  0.50000000  0.50000000  0.50000000  1
  B  B0_0  1  0.33333350  0.16666650  0.00000000  1
  B  B0_1  1  0.33333350  0.16666650  0.50000000  1
  B  B0_2  1  0.33333350  0.66666650  0.00000000  1
  B  B0_3  1  0.33333350  0.66666650  0.50000000  1
  B  B0_4  1  0.83333350  0.16666650  0.00000000  1
  B  B0_5  1  0.83333350  0.16666650  0.50000000  1
  B  B0_6  1  0.83333350  0.66666650  0.00000000  1
  B  B0_7  1  0.83333350  0.66666650  0.50000000  1
  B  B1_0  1  0.16666650  0.33333350  0.00000000  1
  B  B1_1  1  0.16666650  0.33333350  0.50000000  1
  B  B1_2  1  0.16666650  0.83333350  0.00000000  1
  B  B1_3  1  0.16666650  0.83333350  0.50000000  1
  B  B1_4  1  0.66666650  0.33333350  0.00000000  1
  B  B1_5  1  0.66666650  0.33333350  0.50000000  1
  B  B1_6  1  0.66666650  0.83333350  0.00000000  1
  B  B1_7  1  0.66666650  0.83333350  0.50000000  1
  Ru  Ru0_0  1  0.25000000  0.00000000  0.25000000  1
  Ru  Ru0_1  1  0.25000000  0.00000000  0.75000000  1
  Ru  Ru0_2  1  0.25000000  0.50000000  0.25000000  1
  Ru  Ru0_3  1  0.25000000  0.50000000  0.75000000  1
  Ru  Ru0_4  1  0.75000000  0.00000000  0.25000000  1
  Ru  Ru0_5  1  0.75000000  0.00000000  0.75000000  1
  Ru  Ru0_6  1  0.75000000  0.50000000  0.25000000  1
  Ru  Ru0_7  1  0.75000000  0.50000000  0.75000000  1
  Ru  Ru1_0  1  0.00000000  0.25000000  0.25000000  1
  Ru  Ru1_1  1  0.00000000  0.25000000  0.75000000  1
  Ru  Ru1_2  1  0.00000000  0.75000000  0.25000000  1
  Ru  Ru1_3  1  0.00000000  0.75000000  0.75000000  1
  Ru  Ru1_4  1  0.50000000  0.25000000  0.25000000  1
  Ru  Ru1_5  1  0.50000000  0.25000000  0.75000000  1
  Ru  Ru1_6  1  0.50000000  0.75000000  0.25000000  1
  Ru  Ru1_7  1  0.50000000  0.75000000  0.75000000  1
  Ru  Ru2_0  1  0.25000000  0.25000000  0.25000000  1
  Ru  Ru2_1  1  0.25000000  0.25000000  0.75000000  1
  Ru  Ru2_2  1  0.25000000  0.75000000  0.25000000  1
  Ru  Ru2_3  1  0.25000000  0.75000000  0.75000000  1
  Ru  Ru2_4  1  0.75000000  0.25000000  0.25000000  1
  Ru  Ru2_5  1  0.75000000  0.25000000  0.75000000  1
  Ru  Ru2_6  1  0.75000000  0.75000000  0.25000000  1
  Ru  Ru2_7  1  0.75000000  0.75000000  0.75000000  1
loop_
_geom_bond_atom_site_label_1
_geom_bond_atom_site_label_2
_geom_bond_distance
_geom_bond_site_symmetry_2
Lu0_0 Lu0_1 3.010590 1_555
Lu0_0 Lu0_1 3.010590 1_554
Lu0_0 Ru1_2 3.108217 1_545
Lu0_0 Ru1_3 3.108217 1_544
Lu0_0 Ru1_0 3.108217 1_555
Lu0_0 Ru1_1 3.108217 1_554
Lu0_0 Ru0_4 3.108217 1_455
Lu0_0 Ru0_0 3.108217 1_555
Lu0_0 Ru0_5 3.108217 1_454
Lu0_0 Ru0_1 3.108217 1_554
Lu0_0 Ru2_6 3.108217 1_445
Lu0_0 Ru2_7 3.108217 1_444
Lu0_0 Ru2_0 3.108217 1_555
Lu0_0 Ru2_1 3.108217 1_554
Lu0_1 Ru1_2 3.108217 1_545
Lu0_1 Ru1_3 3.108217 1_545
Lu0_1 Ru1_0 3.108217 1_555
Lu0_1 Ru1_1 3.108217 1_555
Lu0_1 Ru0_4 3.108217 1_455
Lu0_1 Ru0_0 3.108217 1_555
Lu0_1 Ru0_1 3.108217 1_555
Lu0_1 Ru0_5 3.108217 1_455
Lu0_1 Ru2_6 3.108217 1_445
Lu0_1 Ru2_7 3.108217 1_445
Lu0_1 Ru2_0 3.108217 1_555
Lu0_1 Ru2_1 3.108217 1_555
Lu0_2 Lu0_3 3.010590 1_555
Lu0_2 Lu0_3 3.010590 1_554
Lu0_2 Ru1_2 3.108217 1_555
Lu0_2 Ru1_3 3.108217 1_554
Lu0_2 Ru1_0 3.108217 1_555
Lu0_2 Ru1_1 3.108217 1_554
Lu0_2 Ru0_6 3.108217 1_455
Lu0_2 Ru0_7 3.108217 1_454
Lu0_2 Ru0_3 3.108217 1_554
Lu0_2 Ru0_2 3.108217 1_555
Lu0_2 Ru2_4 3.108217 1_455
Lu0_2 Ru2_5 3.108217 1_454
Lu0_2 Ru2_2 3.108217 1_555
Lu0_2 Ru2_3 3.108217 1_554
Lu0_3 Ru1_2 3.108217 1_555
Lu0_3 Ru1_0 3.108217 1_555
Lu0_3 Ru1_3 3.108217 1_555
Lu0_3 Ru1_1 3.108217 1_555
Lu0_3 Ru0_6 3.108217 1_455
Lu0_3 Ru0_2 3.108217 1_555
Lu0_3 Ru0_7 3.108217 1_455
Lu0_3 Ru0_3 3.108217 1_555
Lu0_3 Ru2_4 3.108217 1_455
Lu0_3 Ru2_2 3.108217 1_555
Lu0_3 Ru2_3 3.108217 1_555
Lu0_3 Ru2_5 3.108217 1_455
Lu0_4 Lu0_5 3.010590 1_555
Lu0_4 Lu0_5 3.010590 1_554
Lu0_4 Ru1_6 3.108217 1_545
Lu0_4 Ru1_7 3.108217 1_544
Lu0_4 Ru1_4 3.108217 1_555
Lu0_4 Ru1_5 3.108217 1_554
Lu0_4 Ru0_4 3.108217 1_555
Lu0_4 Ru0_5 3.108217 1_554
Lu0_4 Ru0_0 3.108217 1_555
Lu0_4 Ru0_1 3.108217 1_554
Lu0_4 Ru2_2 3.108217 1_545
Lu0_4 Ru2_3 3.108217 1_544
Lu0_4 Ru2_4 3.108217 1_555
Lu0_4 Ru2_5 3.108217 1_554
Lu0_5 Ru1_6 3.108217 1_545
Lu0_5 Ru1_4 3.108217 1_555
Lu0_5 Ru1_7 3.108217 1_545
Lu0_5 Ru1_5 3.108217 1_555
Lu0_5 Ru0_4 3.108217 1_555
Lu0_5 Ru0_0 3.108217 1_555
Lu0_5 Ru0_5 3.108217 1_555
Lu0_5 Ru0_1 3.108217 1_555
Lu0_5 Ru2_2 3.108217 1_545
Lu0_5 Ru2_4 3.108217 1_555
Lu0_5 Ru2_3 3.108217 1_545
Lu0_5 Ru2_5 3.108217 1_555
Lu0_6 Lu0_7 3.010590 1_555
Lu0_6 Lu0_7 3.010590 1_554
Lu0_6 Ru1_6 3.108217 1_555
Lu0_6 Ru1_7 3.108217 1_554
Lu0_6 Ru1_4 3.108217 1_555
Lu0_6 Ru1_5 3.108217 1_554
Lu0_6 Ru0_3 3.108217 1_554
Lu0_6 Ru0_2 3.108217 1_555
Lu0_6 Ru0_7 3.108217 1_554
Lu0_6 Ru0_6 3.108217 1_555
Lu0_6 Ru2_0 3.108217 1_555
Lu0_6 Ru2_1 3.108217 1_554
Lu0_6 Ru2_6 3.108217 1_555
Lu0_6 Ru2_7 3.108217 1_554
Lu0_7 Ru1_6 3.108217 1_555
Lu0_7 Ru1_7 3.108217 1_555
Lu0_7 Ru1_4 3.108217 1_555
Lu0_7 Ru1_5 3.108217 1_555
Lu0_7 Ru0_2 3.108217 1_555
Lu0_7 Ru0_6 3.108217 1_555
Lu0_7 Ru0_3 3.108217 1_555
Lu0_7 Ru0_7 3.108217 1_555
Lu0_7 Ru2_0 3.108217 1_555
Lu0_7 Ru2_6 3.108217 1_555
Lu0_7 Ru2_1 3.108217 1_555
Lu0_7 Ru2_7 3.108217 1_555
B0_0 Ru0_1 2.175073 1_554
B0_0 Ru0_0 2.175073 1_555
B0_0 Ru1_4 2.175073 1_555
B0_0 Ru1_5 2.175073 1_554
B0_0 Ru2_0 2.175076 1_555
B0_0 Ru2_1 2.175076 1_554
B0_0 Lu0_4 3.140082 1_555
B0_0 Lu0_6 3.140087 1_555
B0_0 Lu0_0 3.140087 1_555
B0_1 Ru0_0 2.175073 1_555
B0_1 Ru0_1 2.175073 1_555
B0_1 Ru1_4 2.175073 1_555
B0_1 Ru1_5 2.175073 1_555
B0_1 Ru2_0 2.175076 1_555
B0_1 Ru2_1 2.175076 1_555
B0_1 Lu0_5 3.140082 1_555
B0_1 Lu0_7 3.140087 1_555
B0_1 Lu0_1 3.140087 1_555
B0_2 Ru0_2 2.175073 1_555
B0_2 Ru0_3 2.175073 1_554
B0_2 Ru1_6 2.175073 1_555
B0_2 Ru1_7 2.175073 1_554
B0_2 Ru2_2 2.175076 1_555
B0_2 Ru2_3 2.175076 1_554
B0_2 Lu0_6 3.140082 1_555
B0_2 Lu0_4 3.140087 1_565
B0_2 Lu0_2 3.140087 1_555
B0_3 Ru0_2 2.175073 1_555
B0_3 Ru0_3 2.175073 1_555
B0_3 Ru1_6 2.175073 1_555
B0_3 Ru1_7 2.175073 1_555
B0_3 Ru2_2 2.175076 1_555
B0_3 Ru2_3 2.175076 1_555
B0_3 Lu0_7 3.140082 1_555
B0_3 Lu0_5 3.140087 1_565
B0_3 Lu0_3 3.140087 1_555
B0_4 Ru0_4 2.175073 1_555
B0_4 Ru0_5 2.175073 1_554
B0_4 Ru1_0 2.175073 1_655
B0_4 Ru1_1 2.175073 1_654
B0_4 Ru2_5 2.175076 1_554
B0_4 Ru2_4 2.175076 1_555
B0_4 Lu0_0 3.140082 1_655
B0_4 Lu0_2 3.140087 1_655
B0_4 Lu0_4 3.140087 1_555
B0_5 Ru0_4 2.175073 1_555
B0_5 Ru0_5 2.175073 1_555
B0_5 Ru1_0 2.175073 1_655
B0_5 Ru1_1 2.175073 1_655
B0_5 Ru2_4 2.175076 1_555
B0_5 Ru2_5 2.175076 1_555
B0_5 Lu0_1 3.140082 1_655
B0_5 Lu0_3 3.140087 1_655
B0_5 Lu0_5 3.140087 1_555
B0_6 Ru0_6 2.175073 1_555
B0_6 Ru0_7 2.175073 1_554
B0_6 Ru1_2 2.175073 1_655
B0_6 Ru1_3 2.175073 1_654
B0_6 Ru2_6 2.175076 1_555
B0_6 Ru2_7 2.175076 1_554
B0_6 Lu0_2 3.140082 1_655
B0_6 Lu0_0 3.140087 1_665
B0_6 Lu0_6 3.140087 1_555
B0_7 Ru0_6 2.175073 1_555
B0_7 Ru0_7 2.175073 1_555
B0_7 Ru1_2 2.175073 1_655
B0_7 Ru1_3 2.175073 1_655
B0_7 Ru2_6 2.175076 1_555
B0_7 Ru2_7 2.175076 1_555
B0_7 Lu0_3 3.140082 1_655
B0_7 Lu0_1 3.140087 1_665
B0_7 Lu0_7 3.140087 1_555
B1_0 Ru0_2 2.175073 1_555
B1_0 Ru0_3 2.175073 1_554
B1_0 Ru1_0 2.175073 1_555
B1_0 Ru1_1 2.175073 1_554
B1_0 Ru2_0 2.175076 1_555
B1_0 Ru2_1 2.175076 1_554
B1_0 Lu0_2 3.140082 1_555
B1_0 Lu0_0 3.140087 1_555
B1_0 Lu0_6 3.140087 1_555
B1_1 Ru0_2 2.175073 1_555
B1_1 Ru0_3 2.175073 1_555
B1_1 Ru1_0 2.175073 1_555
B1_1 Ru1_1 2.175073 1_555
B1_1 Ru2_0 2.175076 1_555
B1_1 Ru2_1 2.175076 1_555
B1_1 Lu0_3 3.140082 1_555
B1_1 Lu0_1 3.140087 1_555
B1_1 Lu0_7 3.140087 1_555
B1_2 Ru0_0 2.175073 1_565
B1_2 Ru0_1 2.175073 1_564
B1_2 Ru1_3 2.175073 1_554
B1_2 Ru1_2 2.175073 1_555
B1_2 Ru2_3 2.175076 1_554
B1_2 Ru2_2 2.175076 1_555
B1_2 Lu0_0 3.140082 1_565
B1_2 Lu0_2 3.140087 1_555
B1_2 Lu0_4 3.140087 1_565
B1_3 Ru0_0 2.175073 1_565
B1_3 Ru0_1 2.175073 1_565
B1_3 Ru1_2 2.175073 1_555
B1_3 Ru1_3 2.175073 1_555
B1_3 Ru2_2 2.175076 1_555
B1_3 Ru2_3 2.175076 1_555
B1_3 Lu0_1 3.140082 1_565
B1_3 Lu0_3 3.140087 1_555
B1_3 Lu0_5 3.140087 1_565
B1_4 Ru0_6 2.175073 1_555
B1_4 Ru0_7 2.175073 1_554
B1_4 Ru1_4 2.175073 1_555
B1_4 Ru1_5 2.175073 1_554
B1_4 Ru2_4 2.175076 1_555
B1_4 Ru2_5 2.175076 1_554
B1_4 Lu0_6 3.140082 1_555
B1_4 Lu0_4 3.140087 1_555
B1_4 Lu0_2 3.140087 1_655
B1_5 Ru0_6 2.175073 1_555
B1_5 Ru0_7 2.175073 1_555
B1_5 Ru1_4 2.175073 1_555
B1_5 Ru1_5 2.175073 1_555
B1_5 Ru2_4 2.175076 1_555
B1_5 Ru2_5 2.175076 1_555
B1_5 Lu0_7 3.140082 1_555
B1_5 Lu0_5 3.140087 1_555
B1_5 Lu0_3 3.140087 1_655
B1_6 Ru0_5 2.175073 1_564
B1_6 Ru0_4 2.175073 1_565
B1_6 Ru1_6 2.175073 1_555
B1_6 Ru1_7 2.175073 1_554
B1_6 Ru2_6 2.175076 1_555
B1_6 Ru2_7 2.175076 1_554
B1_6 Lu0_4 3.140082 1_565
B1_6 Lu0_6 3.140087 1_555
B1_6 Lu0_0 3.140087 1_665
B1_7 Ru0_4 2.175073 1_565
B1_7 Ru0_5 2.175073 1_565
B1_7 Ru1_6 2.175073 1_555
B1_7 Ru1_7 2.175073 1_555
B1_7 Ru2_6 2.175076 1_555
B1_7 Ru2_7 2.175076 1_555
B1_7 Lu0_5 3.140082 1_565
B1_7 Lu0_7 3.140087 1_555
B1_7 Lu0_1 3.140087 1_665
