# generated using pymatgen
data_CsTiF4
_symmetry_space_group_name_H-M   'P 1'
_cell_length_a   7.97524430
_cell_length_b   7.97513111
_cell_length_c   6.45307158
_cell_angle_alpha   90.00031635
_cell_angle_beta   89.99961737
_cell_angle_gamma   89.99903508
_symmetry_Int_Tables_number   1
_chemical_formula_structural   CsTiF4
_chemical_formula_sum   'Cs4 Ti4 F16'
_cell_volume   410.43870564
_cell_formula_units_Z   4
loop_
 _symmetry_equiv_pos_site_id
 _symmetry_equiv_pos_as_xyz
  1  'x, y, z'
loop_
 _atom_site_type_symbol
 _atom_site_label
 _atom_site_symmetry_multiplicity
 _atom_site_fract_x
 _atom_site_fract_y
 _atom_site_fract_z
 _atom_site_occupancy
  Cs  Cs0  1  -0.00001714  -0.00000038  0.49999223  1
  Cs  Cs1  1  0.50001823  0.50000051  0.50000972  1
  Cs  Cs2  1  0.00000556  0.49999968  0.43575682  1
  Cs  Cs3  1  0.49999457  0.00000026  0.56424435  1
  Ti  Ti0  1  0.74999899  0.25000137  -0.00000680  1
  Ti  Ti1  1  0.74999731  0.74999929  0.00000027  1
  Ti  Ti2  1  0.24999678  0.25000046  0.00000039  1
  Ti  Ti3  1  0.24999692  0.74999945  0.00000200  1
  F  F0  1  0.74442473  0.49999596  0.06286682  1
  F  F1  1  0.00001269  0.75557972  0.06286578  1
  F  F2  1  0.00000163  0.24441305  0.06286474  1
  F  F3  1  0.25557352  0.49999296  0.06285988  1
  F  F4  1  0.75557347  0.00000300  0.93713678  1
  F  F5  1  0.24442465  0.00000499  0.93714007  1
  F  F6  1  0.49999506  0.74441679  0.93713531  1
  F  F7  1  0.50000407  0.25558671  0.93713466  1
  F  F8  1  0.71173001  0.21173934  0.28549161  1
  F  F9  1  0.71172587  0.78826183  0.28548899  1
  F  F10  1  0.28826420  0.21174268  0.28548033  1
  F  F11  1  0.28827379  0.78826545  0.28547595  1
  F  F12  1  0.78827257  0.71173839  0.71451354  1
  F  F13  1  0.21173403  0.28825759  0.71451699  1
  F  F14  1  0.21172438  0.71173504  0.71452337  1
  F  F15  1  0.78827409  0.28826585  0.71450622  1
loop_
_geom_bond_atom_site_label_1
_geom_bond_atom_site_label_2
_geom_bond_distance
_geom_bond_site_symmetry_2
Cs0 F15 3.170494 1_455
Cs0 F8 3.170543 1_455
Cs0 F12 3.170545 1_445
Cs0 F9 3.170599 1_445
Cs0 F14 3.170693 1_545
Cs0 F13 3.170708 1_555
Cs0 F11 3.170762 1_545
Cs0 F10 3.170781 1_555
Cs0 F2 3.428783 1_555
Cs0 F1 3.428789 1_545
Cs0 F4 3.428851 1_455
Cs0 F5 3.429037 1_555
Cs1 F8 3.170489 1_555
Cs1 F15 3.170527 1_555
Cs1 F9 3.170532 1_555
Cs1 F12 3.170585 1_555
Cs1 F11 3.170715 1_555
Cs1 F10 3.170732 1_555
Cs1 F14 3.170773 1_555
Cs1 F13 3.170784 1_555
Cs1 F6 3.428768 1_555
Cs1 F7 3.428771 1_555
Cs1 F0 3.428829 1_555
Cs1 F3 3.429061 1_555
Cs2 F15 2.989737 1_455
Cs2 F12 2.989751 1_455
Cs2 F14 2.989756 1_555
Cs2 F13 2.989784 1_555
Cs2 F3 3.153520 1_555
Cs2 F1 3.153554 1_555
Cs2 F0 3.153573 1_455
Cs2 F2 3.153576 1_555
Cs2 F10 3.392661 1_555
Cs2 F9 3.392803 1_455
Cs2 F8 3.392811 1_455
Cs2 F11 3.392828 1_555
Cs3 F9 2.989736 1_545
Cs3 F11 2.989769 1_545
Cs3 F8 2.989791 1_555
Cs3 F10 2.989809 1_555
Cs3 F5 3.153524 1_555
Cs3 F7 3.153566 1_555
Cs3 F6 3.153571 1_545
Cs3 F4 3.153575 1_555
Cs3 F13 3.392666 1_555
Cs3 F12 3.392795 1_545
Cs3 F14 3.392832 1_545
Cs3 F15 3.392855 1_555
F0 Ti0 2.035087 1_555
F0 Ti1 2.035151 1_555
F1 Ti3 2.035021 1_555
F1 Ti1 2.035274 1_455
F2 Ti2 2.035110 1_555
F2 Ti0 2.035182 1_455
F3 Ti2 2.035054 1_555
F3 Ti3 2.035164 1_555
F4 Ti0 2.035094 1_556
F4 Ti1 2.035151 1_546
F5 Ti2 2.035077 1_556
F5 Ti3 2.035161 1_546
F6 Ti3 2.035134 1_556
F6 Ti1 2.035171 1_556
F7 Ti0 2.035104 1_556
F7 Ti2 2.035207 1_556
F8 Ti0 1.892218 1_555
F9 Ti1 1.892156 1_555
F10 Ti2 1.892096 1_555
F11 Ti3 1.892080 1_555
F12 Ti1 1.892146 1_556
F13 Ti2 1.892111 1_556
F14 Ti3 1.892102 1_556
F15 Ti0 1.892157 1_556
