# generated using pymatgen
data_BaIn2O4
_symmetry_space_group_name_H-M   'P 1'
_cell_length_a   5.92986200
_cell_length_b   10.57721000
_cell_length_c   14.67439890
_cell_angle_alpha   70.02657768
_cell_angle_beta   90.00000000
_cell_angle_gamma   90.00000000
_symmetry_Int_Tables_number   1
_chemical_formula_structural   BaIn2O4
_chemical_formula_sum   'Ba8 In16 O32'
_cell_volume   865.03787111
_cell_formula_units_Z   8
loop_
 _symmetry_equiv_pos_site_id
 _symmetry_equiv_pos_as_xyz
  1  'x, y, z'
loop_
 _atom_site_type_symbol
 _atom_site_label
 _atom_site_symmetry_multiplicity
 _atom_site_fract_x
 _atom_site_fract_y
 _atom_site_fract_z
 _atom_site_occupancy
  Ba  Ba0  1  0.25629500  0.92034000  0.93881700  1
  Ba  Ba1  1  0.24238600  0.24469000  0.19074000  1
  Ba  Ba2  1  0.74238600  0.75531000  0.30926000  1
  Ba  Ba3  1  0.75761400  0.75531000  0.80926000  1
  Ba  Ba4  1  0.24370500  0.92034000  0.43881700  1
  Ba  Ba5  1  0.75629500  0.07966000  0.56118300  1
  Ba  Ba6  1  0.25761400  0.24469000  0.69074000  1
  Ba  Ba7  1  0.74370500  0.07966000  0.06118300  1
  In  In0  1  0.24570800  0.62117400  0.69392700  1
  In  In1  1  0.74613900  0.44427600  0.05315500  1
  In  In2  1  0.75079700  0.72668500  0.07041500  1
  In  In3  1  0.24920300  0.27331500  0.92958500  1
  In  In4  1  0.24613900  0.55572400  0.44684500  1
  In  In5  1  0.25079700  0.27331500  0.42958500  1
  In  In6  1  0.74255700  0.08215600  0.31372500  1
  In  In7  1  0.25429200  0.62117400  0.19392700  1
  In  In8  1  0.75744300  0.08215600  0.81372500  1
  In  In9  1  0.75429200  0.37882600  0.30607300  1
  In  In10  1  0.74570800  0.37882600  0.80607300  1
  In  In11  1  0.25744300  0.91784400  0.68627500  1
  In  In12  1  0.74920300  0.72668500  0.57041500  1
  In  In13  1  0.75386100  0.44427600  0.55315500  1
  In  In14  1  0.25386100  0.55572400  0.94684500  1
  In  In15  1  0.24255700  0.91784400  0.18627500  1
  O  O0  1  0.80664400  0.90926000  0.94688900  1
  O  O1  1  0.51717100  0.00925400  0.23179500  1
  O  O2  1  0.44770200  0.58143600  0.56517800  1
  O  O3  1  0.50730600  0.78330500  0.65559000  1
  O  O4  1  0.70159800  0.28353800  0.68233100  1
  O  O5  1  0.45684000  0.81173800  0.11457600  1
  O  O6  1  0.04316000  0.81173800  0.61457600  1
  O  O7  1  0.29840200  0.71646200  0.31766900  1
  O  O8  1  0.54316000  0.18826200  0.88542400  1
  O  O9  1  0.57876000  0.63257600  0.97980300  1
  O  O10  1  0.05229800  0.58143600  0.06517800  1
  O  O11  1  0.00730600  0.21669500  0.84441000  1
  O  O12  1  0.20159800  0.71646200  0.81766900  1
  O  O13  1  0.95684000  0.18826200  0.38542400  1
  O  O14  1  0.79840200  0.28353800  0.18233100  1
  O  O15  1  0.99269400  0.78330500  0.15559000  1
  O  O16  1  0.55229800  0.41856400  0.43482200  1
  O  O17  1  0.07876000  0.36742400  0.52019700  1
  O  O18  1  0.42124000  0.36742400  0.02019700  1
  O  O19  1  0.30664400  0.09074000  0.55311100  1
  O  O20  1  0.19335600  0.09074000  0.05311100  1
  O  O21  1  0.98282900  0.00925400  0.73179500  1
  O  O22  1  0.94770200  0.41856400  0.93482200  1
  O  O23  1  0.01717100  0.99074600  0.26820500  1
  O  O24  1  0.49269400  0.21669500  0.34441000  1
  O  O25  1  0.69335600  0.90926000  0.44688900  1
  O  O26  1  0.90383300  0.53981700  0.69168900  1
  O  O27  1  0.92124000  0.63257600  0.47980300  1
  O  O28  1  0.48282900  0.99074600  0.76820500  1
  O  O29  1  0.40383300  0.46018300  0.80831100  1
  O  O30  1  0.09616700  0.46018300  0.30831100  1
  O  O31  1  0.59616700  0.53981700  0.19168900  1
loop_
_geom_bond_atom_site_label_1
_geom_bond_atom_site_label_2
_geom_bond_distance
_geom_bond_site_symmetry_2
Ba0 O0 2.669794 1_455
Ba0 O28 2.711733 1_555
Ba0 O5 2.713258 1_556
Ba0 O20 2.875051 1_566
Ba0 O8 3.165667 1_565
Ba0 O0 3.266293 1_555
Ba0 O21 3.285002 1_465
Ba1 O18 2.617954 1_555
Ba1 O24 2.630537 1_555
Ba1 O14 2.660991 1_455
Ba1 O1 2.862596 1_555
Ba1 O23 2.864350 1_545
Ba1 O20 3.010264 1_555
Ba1 O13 3.196896 1_455
Ba1 O14 3.319681 1_555
Ba1 O30 3.407375 1_555
Ba2 O27 2.617954 1_555
Ba2 O15 2.630537 1_555
Ba2 O7 2.660991 1_555
Ba2 O23 2.862596 1_655
Ba2 O1 2.864350 1_565
Ba2 O25 3.010264 1_555
Ba2 O5 3.196896 1_555
Ba2 O7 3.319681 1_655
Ba2 O31 3.407375 1_555
Ba3 O9 2.617954 1_555
Ba3 O3 2.630537 1_555
Ba3 O12 2.660991 1_655
Ba3 O28 2.862596 1_555
Ba3 O21 2.864350 1_565
Ba3 O0 3.010264 1_555
Ba3 O6 3.196896 1_655
Ba3 O12 3.319681 1_555
Ba3 O26 3.407375 1_555
Ba4 O25 2.669794 1_555
Ba4 O23 2.711733 1_555
Ba4 O6 2.713258 1_555
Ba4 O19 2.875051 1_565
Ba4 O13 3.165667 1_465
Ba4 O25 3.266293 1_455
Ba4 O1 3.285002 1_565
Ba5 O19 2.669794 1_555
Ba5 O21 2.711733 1_555
Ba5 O13 2.713258 1_555
Ba5 O25 2.875051 1_545
Ba5 O6 3.165667 1_645
Ba5 O19 3.266293 1_655
Ba5 O28 3.285002 1_545
Ba6 O17 2.617954 1_555
Ba6 O11 2.630537 1_555
Ba6 O4 2.660991 1_555
Ba6 O21 2.862596 1_455
Ba6 O28 2.864350 1_545
Ba6 O19 3.010264 1_555
Ba6 O8 3.196896 1_555
Ba6 O4 3.319681 1_455
Ba6 O29 3.407375 1_555
Ba7 O20 2.669794 1_655
Ba7 O1 2.711733 1_555
Ba7 O8 2.713258 1_554
Ba7 O0 2.875051 1_544
Ba7 O5 3.165667 1_545
Ba7 O20 3.266293 1_555
Ba7 O23 3.285002 1_645
In0 O29 2.154905 1_555
In0 O26 2.206972 1_455
In0 O3 2.237098 1_555
In0 O6 2.292997 1_555
In0 O12 2.373145 1_555
In0 O2 2.392363 1_555
In1 O14 2.092392 1_555
In1 O9 2.155451 1_554
In1 O22 2.200114 1_554
In1 O18 2.207957 1_555
In1 O10 2.367846 1_655
In1 O31 2.710770 1_555
In2 O15 2.118918 1_555
In2 O5 2.160101 1_555
In2 O9 2.168830 1_554
In2 O0 2.175611 1_554
In2 O31 2.347659 1_555
In2 O10 2.375566 1_655
In3 O11 2.118918 1_555
In3 O8 2.160101 1_555
In3 O18 2.168830 1_556
In3 O20 2.175611 1_556
In3 O29 2.347659 1_555
In3 O22 2.375566 1_455
In4 O7 2.092392 1_555
In4 O17 2.155451 1_555
In4 O2 2.200114 1_555
In4 O27 2.207957 1_455
In4 O16 2.367846 1_555
In4 O30 2.710770 1_555
In5 O24 2.118918 1_555
In5 O13 2.160101 1_455
In5 O17 2.168830 1_555
In5 O19 2.175611 1_555
In5 O30 2.347659 1_555
In5 O16 2.375566 1_555
In6 O1 2.111790 1_555
In6 O23 2.115183 1_645
In6 O13 2.188119 1_555
In6 O25 2.192403 1_545
In6 O24 2.204739 1_555
In6 O14 2.357690 1_555
In7 O30 2.154905 1_555
In7 O31 2.206972 1_555
In7 O15 2.237098 1_455
In7 O5 2.292997 1_555
In7 O7 2.373145 1_555
In7 O10 2.392363 1_555
In8 O21 2.111790 1_555
In8 O28 2.115183 1_545
In8 O8 2.188119 1_555
In8 O0 2.192403 1_545
In8 O11 2.204739 1_655
In8 O4 2.357690 1_555
In9 O31 2.154905 1_555
In9 O30 2.206972 1_655
In9 O24 2.237098 1_555
In9 O13 2.292997 1_555
In9 O14 2.373145 1_555
In9 O16 2.392363 1_555
In10 O26 2.154905 1_555
In10 O29 2.206972 1_555
In10 O11 2.237098 1_655
In10 O8 2.292997 1_555
In10 O4 2.373145 1_555
In10 O22 2.392363 1_555
In11 O28 2.111790 1_555
In11 O21 2.115183 1_465
In11 O6 2.188119 1_555
In11 O19 2.192403 1_565
In11 O3 2.204739 1_555
In11 O12 2.357690 1_555
In12 O3 2.118918 1_555
In12 O6 2.160101 1_655
In12 O27 2.168830 1_555
In12 O25 2.175611 1_555
In12 O26 2.347659 1_555
In12 O2 2.375566 1_555
In13 O4 2.092392 1_555
In13 O27 2.155451 1_555
In13 O16 2.200114 1_555
In13 O17 2.207957 1_655
In13 O2 2.367846 1_555
In13 O26 2.710770 1_555
In14 O12 2.092392 1_555
In14 O18 2.155451 1_556
In14 O10 2.200114 1_556
In14 O9 2.207957 1_555
In14 O22 2.367846 1_455
In14 O29 2.710770 1_555
In15 O23 2.111790 1_555
In15 O1 2.115183 1_565
In15 O5 2.188119 1_555
In15 O20 2.192403 1_565
In15 O15 2.204739 1_455
In15 O7 2.357690 1_555
