# generated using pymatgen
data_Mg2BiPO6
_symmetry_space_group_name_H-M   'P 1'
_cell_length_a   5.27085700
_cell_length_b   7.10096323
_cell_length_c   7.10096148
_cell_angle_alpha   113.59838018
_cell_angle_beta   90.00000000
_cell_angle_gamma   90.00000000
_symmetry_Int_Tables_number   1
_chemical_formula_structural   Mg2BiPO6
_chemical_formula_sum   'Mg4 Bi2 P2 O12'
_cell_volume   243.55016919
_cell_formula_units_Z   2
loop_
 _symmetry_equiv_pos_site_id
 _symmetry_equiv_pos_as_xyz
  1  'x, y, z'
loop_
 _atom_site_type_symbol
 _atom_site_label
 _atom_site_symmetry_multiplicity
 _atom_site_fract_x
 _atom_site_fract_y
 _atom_site_fract_z
 _atom_site_occupancy
  Mg  Mg0  1  0.25000000  0.90066937  0.70814240  1
  Mg  Mg1  1  0.25000000  0.29185760  0.09933063  1
  Mg  Mg2  1  0.75000000  0.09933063  0.29185760  1
  Mg  Mg3  1  0.75000000  0.70814240  0.90066937  1
  Bi  Bi0  1  0.75000000  0.59830935  0.40169065  1
  Bi  Bi1  1  0.25000000  0.40169065  0.59830935  1
  P  P0  1  0.25000000  0.80241609  0.19758391  1
  P  P1  1  0.75000000  0.19758391  0.80241609  1
  O  O0  1  0.00000000  0.32812967  0.32812967  1
  O  O1  1  0.50768588  0.12360624  0.87639376  1
  O  O2  1  0.25000000  0.89318198  0.43094132  1
  O  O3  1  0.75000000  0.10681802  0.56905868  1
  O  O4  1  0.50000000  0.32812967  0.32812967  1
  O  O5  1  0.25000000  0.56905868  0.10681802  1
  O  O6  1  0.00000000  0.67187033  0.67187033  1
  O  O7  1  0.50000000  0.67187033  0.67187033  1
  O  O8  1  0.00768588  0.87639376  0.12360624  1
  O  O9  1  0.75000000  0.43094132  0.89318198  1
  O  O10  1  0.99231412  0.12360624  0.87639376  1
  O  O11  1  0.49231412  0.87639376  0.12360624  1
loop_
_geom_bond_atom_site_label_1
_geom_bond_atom_site_label_2
_geom_bond_distance
_geom_bond_site_symmetry_2
Mg0 O2 1.947719 1_555
Mg0 O6 2.026647 1_555
Mg0 O7 2.026647 1_555
Mg0 O1 2.064941 1_565
Mg0 O10 2.064941 1_465
Mg1 O5 1.947720 1_555
Mg1 O0 2.026646 1_555
Mg1 O4 2.026646 1_555
Mg1 O10 2.064941 1_454
Mg1 O1 2.064941 1_554
Mg2 O3 1.947719 1_555
Mg2 O0 2.026647 1_655
Mg2 O4 2.026647 1_555
Mg2 O8 2.064941 1_645
Mg2 O11 2.064941 1_545
Mg3 O9 1.947720 1_555
Mg3 O7 2.026646 1_555
Mg3 O6 2.026646 1_655
Mg3 O11 2.064941 1_556
Mg3 O8 2.064941 1_656
Bi0 O6 2.210799 1_655
Bi0 O7 2.210799 1_555
Bi0 O4 2.210799 1_555
Bi0 O0 2.210799 1_655
Bi1 O4 2.210799 1_555
Bi1 O0 2.210799 1_555
Bi1 O6 2.210799 1_555
Bi1 O7 2.210799 1_555
O1 P1 1.550515 1_555
O2 P0 1.518605 1_555
O3 P1 1.518605 1_555
O5 P0 1.518606 1_555
O8 P0 1.550515 1_555
O9 P1 1.518606 1_555
O10 P1 1.550515 1_555
O11 P0 1.550515 1_555
