# generated using pymatgen
data_K4Th(MoO4)4
_symmetry_space_group_name_H-M   'P 1'
_cell_length_a   10.69356457
_cell_length_b   10.69356457
_cell_length_c   10.69356457
_cell_angle_alpha   112.82624700
_cell_angle_beta   112.82624700
_cell_angle_gamma   102.95138943
_symmetry_Int_Tables_number   1
_chemical_formula_structural   K4Th(MoO4)4
_chemical_formula_sum   'K8 Th2 Mo8 O32'
_cell_volume   932.33950229
_cell_formula_units_Z   2
loop_
 _symmetry_equiv_pos_site_id
 _symmetry_equiv_pos_as_xyz
  1  'x, y, z'
loop_
 _atom_site_type_symbol
 _atom_site_label
 _atom_site_symmetry_multiplicity
 _atom_site_fract_x
 _atom_site_fract_y
 _atom_site_fract_z
 _atom_site_occupancy
  K  K0  1  0.42150800  0.78029900  0.16512300  1
  K  K1  1  0.53029900  0.86517600  0.85879100  1
  K  K2  1  0.61517600  0.25638500  0.83487700  1
  K  K3  1  0.00638500  0.67150800  0.14120900  1
  K  K4  1  0.21970100  0.38482400  0.64120900  1
  K  K5  1  0.74361500  0.57849200  0.35879100  1
  K  K6  1  0.32849200  0.46970100  0.33487700  1
  K  K7  1  0.13482400  0.99361500  0.66512300  1
  Th  Th0  1  0.00000000  0.00000000  0.00000000  1
  Th  Th1  1  0.75000000  0.25000000  0.50000000  1
  Mo  Mo0  1  0.08095300  0.66896400  0.76792400  1
  Mo  Mo1  1  0.90104000  0.31303000  0.23207600  1
  Mo  Mo2  1  0.84896000  0.93697000  0.26792400  1
  Mo  Mo3  1  0.33103600  0.09896000  0.41198900  1
  Mo  Mo4  1  0.66904700  0.58103600  0.73207600  1
  Mo  Mo5  1  0.41896400  0.15104000  0.08801100  1
  Mo  Mo6  1  0.06303000  0.33095300  0.91198900  1
  Mo  Mo7  1  0.68697000  0.91904700  0.58801100  1
  O  O0  1  0.21340400  0.03876000  0.96697100  1
  O  O1  1  0.86422600  0.41633300  0.13716900  1
  O  O2  1  0.02619500  0.71299600  0.61804300  1
  O  O3  1  0.71837700  0.48489200  0.58705400  1
  O  O4  1  0.75356800  0.78659600  0.82535600  1
  O  O5  1  0.78876000  0.32178900  0.32535600  1
  O  O6  1  0.59184800  0.97380500  0.68680100  1
  O  O7  1  0.27916400  0.72705600  0.86283100  1
  O  O8  1  0.27294400  0.13577400  0.55210800  1
  O  O9  1  0.47083600  0.52294400  0.63716900  1
  O  O10  1  0.67821100  0.00356800  0.46697100  1
  O  O11  1  0.16633300  0.52916400  0.05210800  1
  O  O12  1  0.85216300  0.11867700  0.08705400  1
  O  O13  1  0.53659600  0.21124000  0.53302900  1
  O  O14  1  0.89783700  0.13132300  0.41294600  1
  O  O15  1  0.86867700  0.28162300  0.76651500  1
  O  O16  1  0.72380500  0.53700400  0.88195700  1
  O  O17  1  0.65504700  0.84184800  0.11804300  1
  O  O18  1  0.88132300  0.96837700  0.73348500  1
  O  O19  1  0.99643200  0.46340400  0.67464400  1
  O  O20  1  0.09495300  0.40815200  0.38195700  1
  O  O21  1  0.07178900  0.24643200  0.03302900  1
  O  O22  1  0.51510800  0.10216300  0.23348500  1
  O  O23  1  0.88577400  0.83366700  0.36283100  1
  O  O24  1  0.46299600  0.34495300  0.18680100  1
  O  O25  1  0.47705600  0.11422600  0.94789200  1
  O  O26  1  0.96124000  0.92821100  0.17464400  1
  O  O27  1  0.15815200  0.27619500  0.81319900  1
  O  O28  1  0.03162300  0.76510800  0.91294600  1
  O  O29  1  0.28700400  0.90504700  0.31319900  1
  O  O30  1  0.23489200  0.14783700  0.26651500  1
  O  O31  1  0.58366700  0.72083600  0.44789200  1
loop_
_geom_bond_atom_site_label_1
_geom_bond_atom_site_label_2
_geom_bond_distance
_geom_bond_site_symmetry_2
K0 O29 2.709969 1_555
K0 O17 2.723841 1_555
K0 O7 2.730666 1_554
K0 O11 2.785136 1_555
K0 O10 2.804061 1_565
K0 O22 3.052638 1_565
K0 O31 3.236126 1_555
K1 O17 2.709969 1_556
K1 O6 2.723841 1_555
K1 O25 2.730676 1_565
K1 O7 2.785136 1_555
K1 O4 2.804070 1_555
K1 O12 3.052634 1_566
K1 O9 3.236126 1_555
K2 O6 2.709969 1_545
K2 O16 2.723841 1_555
K2 O1 2.730670 1_556
K2 O25 2.785130 1_555
K2 O13 2.804059 1_555
K2 O15 3.052627 1_555
K2 O8 3.236123 1_555
K3 O16 2.709969 1_454
K3 O29 2.723841 1_555
K3 O11 2.730666 1_555
K3 O1 2.785133 1_455
K3 O26 2.804059 1_455
K3 O28 3.052627 1_554
K3 O23 3.236134 1_455
K4 O20 2.709969 1_555
K4 O27 2.723841 1_555
K4 O8 2.730676 1_555
K4 O9 2.785136 1_555
K4 O19 2.804070 1_455
K4 O14 3.052634 1_455
K4 O7 3.236126 1_555
K5 O2 2.709969 1_655
K5 O24 2.723841 1_555
K5 O31 2.730666 1_555
K5 O23 2.785133 1_555
K5 O5 2.804059 1_555
K5 O3 3.052627 1_555
K5 O1 3.236134 1_555
K6 O24 2.709969 1_555
K6 O20 2.723841 1_555
K6 O9 2.730666 1_555
K6 O31 2.785136 1_555
K6 O21 2.804061 1_555
K6 O30 3.052638 1_555
K6 O11 3.236126 1_555
K7 O27 2.709969 1_565
K7 O2 2.723841 1_555
K7 O23 2.730670 1_455
K7 O8 2.785130 1_565
K7 O0 2.804059 1_565
K7 O18 3.052627 1_455
K7 O25 3.236123 1_565
Mo0 O2 1.764763 1_555
Mo0 O7 1.777679 1_555
Mo0 O19 1.830996 1_455
Mo0 O28 1.838764 1_555
Mo1 O20 1.764763 1_655
Mo1 O1 1.777668 1_555
Mo1 O5 1.830996 1_555
Mo1 O12 1.838775 1_555
Mo2 O17 1.764763 1_555
Mo2 O23 1.777668 1_555
Mo2 O26 1.830996 1_555
Mo2 O14 1.838775 1_565
Mo3 O29 1.764763 1_545
Mo3 O8 1.777679 1_555
Mo3 O13 1.830996 1_555
Mo3 O30 1.838756 1_555
Mo4 O16 1.764763 1_555
Mo4 O9 1.777679 1_555
Mo4 O4 1.830996 1_555
Mo4 O3 1.838764 1_555
Mo5 O24 1.764763 1_555
Mo5 O25 1.777679 1_554
Mo5 O0 1.830996 1_554
Mo5 O22 1.838756 1_555
Mo6 O27 1.764754 1_555
Mo6 O11 1.777679 1_556
Mo6 O21 1.831006 1_556
Mo6 O15 1.838772 1_455
Mo7 O6 1.764754 1_555
Mo7 O31 1.777679 1_555
Mo7 O10 1.831006 1_565
Mo7 O18 1.838772 1_555
O0 Th0 2.412314 1_556
O3 Th1 2.470024 1_555
O4 Th0 2.412308 1_666
O5 Th1 2.412314 1_555
O10 Th1 2.412304 1_555
O12 Th0 2.470015 1_655
O13 Th1 2.412314 1_555
O14 Th1 2.470015 1_555
O15 Th1 2.470024 1_555
O18 Th0 2.470024 1_666
O19 Th1 2.412308 1_555
O21 Th0 2.412304 1_555
O22 Th1 2.470025 1_555
O26 Th0 2.412314 1_665
O28 Th0 2.470024 1_566
O30 Th0 2.470025 1_555
