# generated using pymatgen
data_Ce2(Ni7B2)3
_symmetry_space_group_name_H-M   'P 1'
_cell_length_a   7.55591396
_cell_length_b   7.55591396
_cell_length_c   7.55591396
_cell_angle_alpha   60.00000000
_cell_angle_beta   60.00000000
_cell_angle_gamma   60.00000000
_symmetry_Int_Tables_number   1
_chemical_formula_structural   Ce2(Ni7B2)3
_chemical_formula_sum   'Ce2 Ni21 B6'
_cell_volume   305.03242974
_cell_formula_units_Z   1
loop_
 _symmetry_equiv_pos_site_id
 _symmetry_equiv_pos_as_xyz
  1  'x, y, z'
loop_
 _atom_site_type_symbol
 _atom_site_label
 _atom_site_symmetry_multiplicity
 _atom_site_fract_x
 _atom_site_fract_y
 _atom_site_fract_z
 _atom_site_occupancy
  Ce  Ce0  1  0.25000000  0.25000000  0.25000000  1
  Ce  Ce1  1  0.75000000  0.75000000  0.75000000  1
  Ni  Ni0  1  0.00000000  0.00000000  0.00000000  1
  Ni  Ni1  1  0.38690400  0.38690400  0.38690400  1
  Ni  Ni2  1  0.16071100  0.61309600  0.61309600  1
  Ni  Ni3  1  0.61309600  0.16071100  0.61309600  1
  Ni  Ni4  1  0.61309600  0.61309600  0.16071100  1
  Ni  Ni5  1  0.38690400  0.83928900  0.38690400  1
  Ni  Ni6  1  0.38690400  0.38690400  0.83928900  1
  Ni  Ni7  1  0.83928900  0.38690400  0.38690400  1
  Ni  Ni8  1  0.61309600  0.61309600  0.61309600  1
  Ni  Ni9  1  0.00000000  0.33731800  0.00000000  1
  Ni  Ni10  1  0.33731800  0.00000000  0.00000000  1
  Ni  Ni11  1  0.00000000  0.33731800  0.66268200  1
  Ni  Ni12  1  0.66268200  0.00000000  0.33731800  1
  Ni  Ni13  1  0.33731800  0.00000000  0.66268200  1
  Ni  Ni14  1  0.00000000  0.00000000  0.33731800  1
  Ni  Ni15  1  0.66268200  0.33731800  0.00000000  1
  Ni  Ni16  1  0.00000000  0.66268200  0.33731800  1
  Ni  Ni17  1  0.00000000  0.00000000  0.66268200  1
  Ni  Ni18  1  0.33731800  0.66268200  0.00000000  1
  Ni  Ni19  1  0.66268200  0.00000000  0.00000000  1
  Ni  Ni20  1  0.00000000  0.66268200  0.00000000  1
  B  B0  1  0.26844300  0.73155700  0.26844300  1
  B  B1  1  0.26844300  0.73155700  0.73155700  1
  B  B2  1  0.73155700  0.26844300  0.26844300  1
  B  B3  1  0.73155700  0.73155700  0.26844300  1
  B  B4  1  0.26844300  0.26844300  0.73155700  1
  B  B5  1  0.73155700  0.26844300  0.73155700  1
loop_
_geom_bond_atom_site_label_1
_geom_bond_atom_site_label_2
_geom_bond_distance
_geom_bond_site_symmetry_2
Ce0 Ni5 2.533831 1_545
Ce0 Ni6 2.533831 1_554
Ce0 Ni7 2.533831 1_455
Ce0 Ni1 2.533838 1_555
Ce0 Ni14 2.940653 1_555
Ce0 Ni11 2.940653 1_555
Ce0 Ni17 2.940653 1_555
Ce0 Ni16 2.940653 1_555
Ce0 Ni20 2.940653 1_555
Ce0 Ni9 2.940653 1_555
Ce0 Ni18 2.940653 1_555
Ce0 Ni15 2.940653 1_555
Ce0 Ni12 2.940653 1_555
Ce0 Ni19 2.940653 1_555
Ce0 Ni13 2.940653 1_555
Ce0 Ni10 2.940653 1_555
Ce1 Ni4 2.533831 1_556
Ce1 Ni3 2.533831 1_565
Ce1 Ni2 2.533831 1_655
Ce1 Ni8 2.533838 1_555
Ce1 Ni20 2.940653 1_656
Ce1 Ni19 2.940653 1_566
Ce1 Ni12 2.940653 1_565
Ce1 Ni14 2.940653 1_665
Ce1 Ni9 2.940653 1_656
Ce1 Ni11 2.940653 1_655
Ce1 Ni10 2.940653 1_566
Ce1 Ni13 2.940653 1_565
Ce1 Ni16 2.940653 1_655
Ce1 Ni18 2.940653 1_556
Ce1 Ni17 2.940653 1_665
Ce1 Ni15 2.940653 1_556
Ni0 Ni14 2.548746 1_555
Ni0 Ni13 2.548746 1_554
Ni0 Ni17 2.548746 1_554
Ni0 Ni9 2.548746 1_555
Ni0 Ni18 2.548746 1_545
Ni0 Ni19 2.548746 1_455
Ni0 Ni12 2.548746 1_455
Ni0 Ni11 2.548746 1_554
Ni0 Ni10 2.548746 1_555
Ni0 Ni16 2.548746 1_545
Ni0 Ni20 2.548746 1_545
Ni0 Ni15 2.548746 1_455
B0 Ni18 2.094030 1_555
B0 Ni10 2.094030 1_565
B0 Ni14 2.094030 1_565
B0 Ni16 2.094030 1_555
B0 Ni2 2.126810 1_555
B0 Ni4 2.126810 1_555
B0 Ni1 2.126810 1_555
B0 Ni5 2.126816 1_555
B1 Ni17 2.094030 1_565
B1 Ni18 2.094030 1_556
B1 Ni20 2.094030 1_556
B1 Ni13 2.094030 1_565
B1 Ni5 2.126810 1_555
B1 Ni6 2.126810 1_555
B1 Ni8 2.126810 1_555
B1 Ni2 2.126816 1_555
B2 Ni14 2.094030 1_655
B2 Ni15 2.094030 1_555
B2 Ni12 2.094030 1_555
B2 Ni9 2.094030 1_655
B2 Ni3 2.126810 1_555
B2 Ni4 2.126810 1_555
B2 Ni1 2.126810 1_555
B2 Ni7 2.126816 1_555
B3 Ni12 2.094030 1_565
B3 Ni20 2.094030 1_655
B3 Ni19 2.094030 1_565
B3 Ni16 2.094030 1_655
B3 Ni7 2.126810 1_555
B3 Ni5 2.126810 1_555
B3 Ni8 2.126810 1_555
B3 Ni4 2.126816 1_555
B4 Ni11 2.094030 1_555
B4 Ni9 2.094030 1_556
B4 Ni10 2.094030 1_556
B4 Ni13 2.094030 1_555
B4 Ni2 2.126810 1_555
B4 Ni3 2.126810 1_555
B4 Ni1 2.126810 1_555
B4 Ni6 2.126816 1_555
B5 Ni11 2.094030 1_655
B5 Ni17 2.094030 1_655
B5 Ni15 2.094030 1_556
B5 Ni19 2.094030 1_556
B5 Ni7 2.126810 1_555
B5 Ni6 2.126810 1_555
B5 Ni8 2.126810 1_555
B5 Ni3 2.126816 1_555
