# generated using pymatgen
data_Na3Zr2Si2PO12
_symmetry_space_group_name_H-M   'P 1'
_cell_length_a   9.15342746
_cell_length_b   18.31852347
_cell_length_c   9.31654039
_cell_angle_alpha   61.44819919
_cell_angle_beta   61.40951197
_cell_angle_gamma   60.20715234
_symmetry_Int_Tables_number   1
_chemical_formula_structural   Na3Zr2Si2PO12
_chemical_formula_sum   'Na12 Zr8 Si8 P4 O48'
_cell_volume   1129.70839481
_cell_formula_units_Z   4
loop_
 _symmetry_equiv_pos_site_id
 _symmetry_equiv_pos_as_xyz
  1  'x, y, z'
loop_
 _atom_site_type_symbol
 _atom_site_label
 _atom_site_symmetry_multiplicity
 _atom_site_fract_x
 _atom_site_fract_y
 _atom_site_fract_z
 _atom_site_occupancy
  Na  Na0  1  0.05211400  0.15655500  0.92172800  1
  Na  Na1  1  0.34112100  0.01972600  0.44039000  1
  Na  Na2  1  0.60713400  0.19301300  0.25819400  1
  Na  Na3  1  0.39454800  0.30385500  0.74833800  1
  Na  Na4  1  0.31044600  0.52675300  0.41534300  1
  Na  Na5  1  0.05340200  0.65578900  0.91856500  1
  Na  Na6  1  0.94438700  0.34644000  0.08324500  1
  Na  Na7  1  0.69081700  0.47339600  0.58130100  1
  Na  Na8  1  0.60872500  0.69606400  0.25004900  1
  Na  Na9  1  0.39342200  0.80072500  0.75796900  1
  Na  Na10  1  0.94259900  0.84964400  0.09077300  1
  Na  Na11  1  0.72923100  0.96057100  0.63712100  1
  Zr  Zr0  1  0.15359700  0.32280600  0.55606600  1
  Zr  Zr1  1  0.64458300  0.07750700  0.05771400  1
  Zr  Zr2  1  0.35675800  0.42330900  0.94196700  1
  Zr  Zr3  1  0.85098600  0.17729500  0.44156900  1
  Zr  Zr4  1  0.15839900  0.82199500  0.55457900  1
  Zr  Zr5  1  0.64780800  0.57604500  0.05601800  1
  Zr  Zr6  1  0.35445500  0.92368700  0.94506300  1
  Zr  Zr7  1  0.84759500  0.67754400  0.44291200  1
  Si  Si0  1  0.24861700  0.23596200  0.23544600  1
  Si  Si1  1  0.47150100  0.12386600  0.73857500  1
  Si  Si2  1  0.53020700  0.37587100  0.26250300  1
  Si  Si3  1  0.24956000  0.73476300  0.23715800  1
  Si  Si4  1  0.75340500  0.26451400  0.76297200  1
  Si  Si5  1  0.47214000  0.62375400  0.73670100  1
  Si  Si6  1  0.53071300  0.87621100  0.26435200  1
  Si  Si7  1  0.75414700  0.76455700  0.76247000  1
  P  P0  1  0.04413000  0.47876100  0.74886000  1
  P  P1  1  0.95681500  0.02078800  0.25033800  1
  P  P2  1  0.04320000  0.97963900  0.74718100  1
  P  P3  1  0.95900500  0.52125300  0.24923600  1
  O  O0  1  0.10916400  0.00299400  0.08443600  1
  O  O1  1  0.01533000  0.05542800  0.57951400  1
  O  O2  1  0.06842500  0.21761200  0.29111300  1
  O  O3  1  0.26224100  0.31673600  0.05104000  1
  O  O4  1  0.11010300  0.50245200  0.08423700  1
  O  O5  1  0.42280500  0.14432000  0.22436600  1
  O  O6  1  0.24607600  0.26374100  0.38064200  1
  O  O7  1  0.06190000  0.38940500  0.75067800  1
  O  O8  1  0.29122200  0.21147200  0.71899600  1
  O  O9  1  0.00556000  0.55450800  0.58457400  1
  O  O10  1  0.43081200  0.03424200  0.79805000  1
  O  O11  1  0.47510700  0.37760900  0.11675600  1
  O  O12  1  0.07100100  0.71407700  0.29672700  1
  O  O13  1  0.78039800  0.02965300  0.24851200  1
  O  O14  1  0.36604100  0.37173300  0.44533100  1
  O  O15  1  0.63984700  0.12649500  0.55927500  1
  O  O16  1  0.22311300  0.46966500  0.74677900  1
  O  O17  1  0.52184900  0.12397000  0.88562300  1
  O  O18  1  0.25790900  0.81691900  0.05518200  1
  O  O19  1  0.57500400  0.46424800  0.20342000  1
  O  O20  1  0.71009800  0.28746600  0.27962600  1
  O  O21  1  0.42491900  0.64425800  0.22016900  1
  O  O22  1  0.93676000  0.11026400  0.25026000  1
  O  O23  1  0.25046300  0.76145000  0.38196600  1
  O  O24  1  0.75674900  0.23618800  0.61831100  1
  O  O25  1  0.05300100  0.89223400  0.74774900  1
  O  O26  1  0.57864400  0.35583800  0.77598100  1
  O  O27  1  0.88994800  0.00030900  0.90965900  1
  O  O28  1  0.28977600  0.71148900  0.72303600  1
  O  O29  1  0.43007200  0.53506100  0.79425700  1
  O  O30  1  0.74099900  0.18373400  0.94735800  1
  O  O31  1  0.47262300  0.87802900  0.12052700  1
  O  O32  1  0.77972600  0.53073300  0.25083400  1
  O  O33  1  0.36986500  0.86968900  0.44980300  1
  O  O34  1  0.63448100  0.62950400  0.55273400  1
  O  O35  1  0.22293900  0.96577400  0.75210400  1
  O  O36  1  0.93139700  0.28547900  0.70533900  1
  O  O37  1  0.52782500  0.62297700  0.88112800  1
  O  O38  1  0.57626800  0.96401500  0.20582000  1
  O  O39  1  0.99569600  0.44560700  0.41436900  1
  O  O40  1  0.71255000  0.78811100  0.27727500  1
  O  O41  1  0.94098200  0.61048900  0.24815600  1
  O  O42  1  0.75458800  0.73775600  0.61736400  1
  O  O43  1  0.57840000  0.85458200  0.78301000  1
  O  O44  1  0.89310200  0.49742600  0.91412200  1
  O  O45  1  0.74623300  0.68212300  0.94456600  1
  O  O46  1  0.93030800  0.78762100  0.70347300  1
  O  O47  1  0.99812300  0.94455500  0.41316000  1
loop_
_geom_bond_atom_site_label_1
_geom_bond_atom_site_label_2
_geom_bond_distance
_geom_bond_site_symmetry_2
Na0 O0 2.388583 1_556
Na0 O8 2.405176 1_555
Na0 O36 2.418755 1_455
Na0 O30 2.543335 1_455
Na0 O22 2.553019 1_456
Na1 O5 2.384000 1_555
Na1 O35 2.427514 1_545
Na1 O38 2.428442 1_545
Na1 O1 2.484652 1_555
Na1 O33 2.589210 1_545
Na2 O5 2.452542 1_555
Na2 O20 2.460222 1_555
Na2 O15 2.572295 1_555
Na2 O22 2.599134 1_555
Na2 O30 2.604616 1_554
Na2 O13 2.623624 1_555
Na2 O6 2.729809 1_555
Na2 O11 2.799165 1_555
Na3 O26 2.461113 1_555
Na3 O8 2.472530 1_555
Na3 O3 2.561021 1_556
Na3 O14 2.571109 1_555
Na3 O16 2.632795 1_555
Na3 O7 2.637221 1_555
Na3 O17 2.726561 1_555
Na3 O24 2.739227 1_555
Na4 O9 2.382780 1_555
Na4 O21 2.390391 1_555
Na4 O19 2.429613 1_555
Na4 O14 2.518485 1_555
Na4 O16 2.578542 1_555
Na5 O28 2.384451 1_555
Na5 O4 2.390679 1_556
Na5 O46 2.438912 1_455
Na5 O45 2.511724 1_455
Na5 O41 2.562225 1_456
Na6 O44 2.367437 1_554
Na6 O2 2.383673 1_655
Na6 O20 2.402325 1_555
Na6 O3 2.568733 1_655
Na6 O7 2.587829 1_654
Na7 O39 2.378437 1_555
Na7 O26 2.379636 1_555
Na7 O29 2.416572 1_555
Na7 O34 2.540252 1_555
Na7 O32 2.569965 1_555
Na8 O40 2.458177 1_555
Na8 O21 2.469053 1_555
Na8 O34 2.560940 1_555
Na8 O45 2.587714 1_554
Na8 O32 2.627080 1_555
Na8 O41 2.635257 1_555
Na8 O23 2.710279 1_555
Na8 O31 2.754348 1_555
Na9 O28 2.454246 1_555
Na9 O43 2.480465 1_555
Na9 O18 2.534993 1_556
Na9 O33 2.596160 1_555
Na9 O35 2.610476 1_555
Na9 O37 2.689081 1_555
Na9 O25 2.733016 1_555
Na9 O42 2.736007 1_555
Na10 O27 2.387811 1_564
Na10 O40 2.389235 1_555
Na10 O12 2.435831 1_655
Na10 O18 2.520716 1_655
Na10 O25 2.674355 1_654
Na10 O38 2.916789 1_555
Na11 O47 2.334529 1_555
Na11 O43 2.422465 1_555
Na11 O10 2.425239 1_565
Na11 O15 2.534433 1_565
Na11 O46 2.688744 1_555
O0 P1 1.551409 1_455
O0 Zr6 2.146923 1_544
O1 P2 1.545648 1_545
O1 Zr3 2.160770 1_455
O2 Si0 1.633403 1_555
O2 Zr3 2.067027 1_455
O3 Si0 1.644648 1_555
O3 Zr2 2.129095 1_554
O4 P3 1.546743 1_455
O4 Zr2 2.162441 1_554
O5 Si0 1.649028 1_555
O5 Zr1 2.088173 1_555
O6 Si0 1.644837 1_555
O6 Zr0 2.003603 1_555
O7 P0 1.554877 1_555
O7 Zr0 2.262876 1_555
O8 Si1 1.645725 1_555
O8 Zr0 2.090052 1_555
O9 P0 1.546900 1_555
O9 Zr7 2.157984 1_455
O10 Si1 1.637591 1_555
O10 Zr6 2.074794 1_545
O11 Si2 1.642358 1_555
O11 Zr2 2.002545 1_554
O12 Si3 1.633777 1_555
O12 Zr7 2.075478 1_455
O13 P1 1.548342 1_555
O13 Zr1 2.239696 1_555
O14 Si2 1.644735 1_555
O14 Zr0 2.139405 1_555
O15 Si1 1.643308 1_555
O15 Zr3 2.141717 1_555
O16 P0 1.553579 1_555
O16 Zr2 2.268292 1_555
O17 Si1 1.642216 1_555
O17 Zr1 2.006577 1_556
O18 Si3 1.642074 1_555
O18 Zr6 2.142560 1_554
O19 Si2 1.638258 1_555
O19 Zr5 2.077506 1_555
O20 Si2 1.647414 1_555
O20 Zr3 2.092283 1_555
O21 Si3 1.647237 1_555
O21 Zr5 2.090392 1_555
O22 P1 1.555710 1_555
O22 Zr3 2.257349 1_555
O23 Si3 1.644475 1_555
O23 Zr4 2.001382 1_555
O24 Si4 1.643111 1_555
O24 Zr3 2.008293 1_555
O25 P2 1.556056 1_555
O25 Zr4 2.267889 1_555
O26 Si4 1.649605 1_555
O26 Zr2 2.090580 1_555
O27 P2 1.546059 1_645
O27 Zr1 2.165660 1_556
O28 Si5 1.651506 1_555
O28 Zr4 2.087442 1_555
O29 Si5 1.633042 1_555
O29 Zr2 2.079237 1_555
O30 Si4 1.644369 1_555
O30 Zr1 2.132660 1_556
O31 Si6 1.643461 1_555
O31 Zr6 2.007022 1_554
O32 P3 1.555382 1_555
O32 Zr5 2.258933 1_555
O33 Si6 1.646195 1_555
O33 Zr4 2.125978 1_555
O34 Si5 1.643830 1_555
O34 Zr7 2.135783 1_555
O35 P2 1.555387 1_555
O35 Zr6 2.258196 1_555
O36 Si4 1.636340 1_555
O36 Zr0 2.074646 1_655
O37 Si5 1.643604 1_555
O37 Zr5 2.008855 1_556
O38 Si6 1.633631 1_555
O38 Zr1 2.083534 1_565
O39 P3 1.547277 1_555
O39 Zr0 2.156064 1_655
O40 Si6 1.651094 1_555
O40 Zr7 2.088461 1_555
O41 P3 1.554783 1_555
O41 Zr7 2.265921 1_555
O42 Si7 1.641921 1_555
O42 Zr7 2.009763 1_555
O43 Si7 1.647678 1_555
O43 Zr6 2.090483 1_555
O44 P0 1.547563 1_655
O44 Zr5 2.151462 1_556
O45 Si7 1.644959 1_555
O45 Zr5 2.140433 1_556
O46 Si7 1.639343 1_555
O46 Zr4 2.092673 1_655
O47 P1 1.547094 1_565
O47 Zr4 2.162880 1_655
