# generated using pymatgen
data_Er2SiO5
_symmetry_space_group_name_H-M   'P 1'
_cell_length_a   7.89621586
_cell_length_b   7.89621586
_cell_length_c   10.27920859
_cell_angle_alpha   61.15823007
_cell_angle_beta   61.15823007
_cell_angle_gamma   49.93005571
_symmetry_Int_Tables_number   1
_chemical_formula_structural   Er2SiO5
_chemical_formula_sum   'Er8 Si4 O20'
_cell_volume   415.26295040
_cell_formula_units_Z   4
loop_
 _symmetry_equiv_pos_site_id
 _symmetry_equiv_pos_as_xyz
  1  'x, y, z'
loop_
 _atom_site_type_symbol
 _atom_site_label
 _atom_site_symmetry_multiplicity
 _atom_site_fract_x
 _atom_site_fract_y
 _atom_site_fract_z
 _atom_site_occupancy
  Er  Er0  1  0.48305041  0.23534317  0.33584949  1
  Er  Er1  1  0.21915654  0.70765587  0.46603331  1
  Er  Er2  1  0.51694959  0.76465683  0.66415051  1
  Er  Er3  1  0.23534317  0.48305041  0.83584949  1
  Er  Er4  1  0.76465683  0.51694959  0.16415051  1
  Er  Er5  1  0.78084346  0.29234413  0.53396669  1
  Er  Er6  1  0.70765587  0.21915654  0.96603331  1
  Er  Er7  1  0.29234413  0.78084346  0.03396669  1
  Si  Si0  1  0.72657023  0.90942362  0.80758128  1
  Si  Si1  1  0.27342977  0.09057638  0.19241872  1
  Si  Si2  1  0.09057638  0.27342977  0.69241872  1
  Si  Si3  1  0.90942362  0.72657023  0.30758128  1
  O  O0  1  0.44555720  0.15007623  0.17523378  1
  O  O1  1  0.83016459  0.40845171  0.67814175  1
  O  O2  1  0.91422268  0.90761764  0.13949966  1
  O  O3  1  0.27077748  0.13164700  0.56143467  1
  O  O4  1  0.55444280  0.84992377  0.82476622  1
  O  O5  1  0.38524965  0.57874175  0.89799768  1
  O  O6  1  0.15007623  0.44555720  0.67523378  1
  O  O7  1  0.40845171  0.83016459  0.17814175  1
  O  O8  1  0.72922252  0.86835300  0.43856533  1
  O  O9  1  0.57874175  0.38524965  0.39799768  1
  O  O10  1  0.42125825  0.61475035  0.60200232  1
  O  O11  1  0.09238236  0.08577732  0.36050034  1
  O  O12  1  0.16983541  0.59154829  0.32185825  1
  O  O13  1  0.86835300  0.72922252  0.93856533  1
  O  O14  1  0.90761764  0.91422268  0.63949966  1
  O  O15  1  0.84992377  0.55444280  0.32476622  1
  O  O16  1  0.08577732  0.09238236  0.86050034  1
  O  O17  1  0.61475035  0.42125825  0.10200232  1
  O  O18  1  0.59154829  0.16983541  0.82185825  1
  O  O19  1  0.13164700  0.27077748  0.06143467  1
loop_
_geom_bond_atom_site_label_1
_geom_bond_atom_site_label_2
_geom_bond_distance
_geom_bond_site_symmetry_2
Er0 O9 2.174148 1_555
Er0 O3 2.245488 1_555
Er0 O12 2.246240 1_555
Er0 O8 2.250969 1_545
Er0 O0 2.251094 1_555
Er0 O17 2.272415 1_555
Er1 O10 2.166507 1_555
Er1 O11 2.273394 1_565
Er1 O6 2.287572 1_555
Er1 O14 2.302097 1_455
Er1 O12 2.348606 1_555
Er1 O9 2.351137 1_555
Er1 O7 2.599906 1_555
Er2 O10 2.174148 1_555
Er2 O8 2.245488 1_555
Er2 O1 2.246240 1_555
Er2 O3 2.250969 1_565
Er2 O4 2.251094 1_555
Er2 O5 2.272415 1_555
Er3 O5 2.174148 1_555
Er3 O19 2.245488 1_556
Er3 O18 2.246240 1_555
Er3 O13 2.250969 1_455
Er3 O6 2.251094 1_555
Er3 O10 2.272415 1_555
Er4 O17 2.174148 1_555
Er4 O13 2.245488 1_554
Er4 O7 2.246240 1_555
Er4 O19 2.250969 1_655
Er4 O15 2.251094 1_555
Er4 O9 2.272415 1_555
Er5 O9 2.166507 1_555
Er5 O14 2.273394 1_545
Er5 O15 2.287572 1_555
Er5 O11 2.302097 1_655
Er5 O1 2.348606 1_555
Er5 O10 2.351137 1_555
Er5 O18 2.599906 1_555
Er6 O17 2.166507 1_556
Er6 O16 2.273394 1_655
Er6 O0 2.287572 1_556
Er6 O2 2.302097 1_546
Er6 O18 2.348606 1_555
Er6 O5 2.351137 1_555
Er6 O1 2.599906 1_555
Er7 O5 2.166507 1_554
Er7 O2 2.273394 1_455
Er7 O4 2.287572 1_554
Er7 O16 2.302097 1_564
Er7 O7 2.348606 1_555
Er7 O17 2.351137 1_555
Er7 O12 2.599906 1_555
O0 Si1 1.615441 1_555
O1 Si2 1.644439 1_655
O2 Si3 1.629067 1_555
O3 Si2 1.626622 1_555
O4 Si0 1.615441 1_555
O6 Si2 1.615441 1_555
O7 Si1 1.644439 1_565
O8 Si3 1.626622 1_555
O11 Si1 1.629067 1_555
O12 Si3 1.644439 1_455
O13 Si0 1.626622 1_555
O14 Si0 1.629067 1_555
O15 Si3 1.615441 1_555
O16 Si2 1.629067 1_555
O18 Si0 1.644439 1_545
O19 Si1 1.626622 1_555
