# generated using pymatgen
data_Na3LuSi2O7
_symmetry_space_group_name_H-M   'P 1'
_cell_length_a   9.42917827
_cell_length_b   9.42917827
_cell_length_c   13.77283300
_cell_angle_alpha   90.00000000
_cell_angle_beta   90.00000000
_cell_angle_gamma   120.00000192
_symmetry_Int_Tables_number   1
_chemical_formula_structural   Na3LuSi2O7
_chemical_formula_sum   'Na18 Lu6 Si12 O42'
_cell_volume   1060.47784164
_cell_formula_units_Z   6
loop_
 _symmetry_equiv_pos_site_id
 _symmetry_equiv_pos_as_xyz
  1  'x, y, z'
loop_
 _atom_site_type_symbol
 _atom_site_label
 _atom_site_symmetry_multiplicity
 _atom_site_fract_x
 _atom_site_fract_y
 _atom_site_fract_z
 _atom_site_occupancy
  Na  Na0  1  0.33184400  0.31651900  0.90980600  1
  Na  Na1  1  0.31651900  0.98467500  0.40980600  1
  Na  Na2  1  0.33184400  0.31651900  0.59019400  1
  Na  Na3  1  0.66815600  0.68348100  0.09019400  1
  Na  Na4  1  0.01532500  0.33184400  0.40980600  1
  Na  Na5  1  0.68348100  0.01532500  0.90980600  1
  Na  Na6  1  0.98467500  0.66815600  0.90980600  1
  Na  Na7  1  0.66666700  0.33333300  0.75000000  1
  Na  Na8  1  0.98467500  0.66815600  0.59019400  1
  Na  Na9  1  0.01532500  0.33184400  0.09019400  1
  Na  Na10  1  0.68348100  0.01532500  0.59019400  1
  Na  Na11  1  0.66815600  0.68348100  0.40980600  1
  Na  Na12  1  0.31651900  0.98467500  0.09019400  1
  Na  Na13  1  0.33333300  0.66666700  0.25000000  1
  Na  Na14  1  0.00000000  0.00000000  0.00000000  1
  Na  Na15  1  0.66666700  0.33333300  0.25000000  1
  Na  Na16  1  0.00000000  0.00000000  0.50000000  1
  Na  Na17  1  0.33333300  0.66666700  0.75000000  1
  Lu  Lu0  1  0.66666700  0.33333300  0.98161000  1
  Lu  Lu1  1  0.00000000  0.00000000  0.25000000  1
  Lu  Lu2  1  0.66666700  0.33333300  0.51839000  1
  Lu  Lu3  1  0.33333300  0.66666700  0.01839000  1
  Lu  Lu4  1  0.33333300  0.66666700  0.48161000  1
  Lu  Lu5  1  0.00000000  0.00000000  0.75000000  1
  Si  Si0  1  0.65303700  0.67141100  0.64015200  1
  Si  Si1  1  0.34696300  0.32858900  0.14015200  1
  Si  Si2  1  0.67141100  0.01837400  0.35984800  1
  Si  Si3  1  0.32858900  0.98162600  0.85984800  1
  Si  Si4  1  0.01837400  0.34696300  0.64015200  1
  Si  Si5  1  0.01837400  0.34696300  0.85984800  1
  Si  Si6  1  0.98162600  0.65303700  0.35984800  1
  Si  Si7  1  0.32858900  0.98162600  0.64015200  1
  Si  Si8  1  0.34696300  0.32858900  0.35984800  1
  Si  Si9  1  0.67141100  0.01837400  0.14015200  1
  Si  Si10  1  0.65303700  0.67141100  0.85984800  1
  Si  Si11  1  0.98162600  0.65303700  0.14015200  1
  O  O0  1  0.17230100  0.44395000  0.56467800  1
  O  O1  1  0.84949600  0.80436300  0.85843100  1
  O  O2  1  0.72835100  0.17230100  0.06467800  1
  O  O3  1  0.44395000  0.27164900  0.06467800  1
  O  O4  1  0.17230100  0.44395000  0.93532200  1
  O  O5  1  0.61411600  0.48525900  0.61840700  1
  O  O6  1  0.27164900  0.82769900  0.93532200  1
  O  O7  1  0.80436300  0.95486700  0.35843100  1
  O  O8  1  0.67521900  0.09891700  0.25000000  1
  O  O9  1  0.48525900  0.87114300  0.11840700  1
  O  O10  1  0.82769900  0.55605000  0.43532200  1
  O  O11  1  0.87114300  0.38588400  0.61840700  1
  O  O12  1  0.55605000  0.72835100  0.93532200  1
  O  O13  1  0.51474100  0.12885700  0.88159300  1
  O  O14  1  0.04513300  0.84949600  0.14156900  1
  O  O15  1  0.57630200  0.67521900  0.75000000  1
  O  O16  1  0.12885700  0.61411600  0.38159300  1
  O  O17  1  0.44395000  0.27164900  0.43532200  1
  O  O18  1  0.48525900  0.87114300  0.38159300  1
  O  O19  1  0.87114300  0.38588400  0.88159300  1
  O  O20  1  0.80436300  0.95486700  0.14156900  1
  O  O21  1  0.72835100  0.17230100  0.43532200  1
  O  O22  1  0.09891700  0.42369800  0.75000000  1
  O  O23  1  0.19563700  0.04513300  0.85843100  1
  O  O24  1  0.90108300  0.57630200  0.25000000  1
  O  O25  1  0.82769900  0.55605000  0.06467800  1
  O  O26  1  0.04513300  0.84949600  0.35843100  1
  O  O27  1  0.51474100  0.12885700  0.61840700  1
  O  O28  1  0.95486700  0.15050400  0.64156900  1
  O  O29  1  0.55605000  0.72835100  0.56467800  1
  O  O30  1  0.42369800  0.32478100  0.25000000  1
  O  O31  1  0.19563700  0.04513300  0.64156900  1
  O  O32  1  0.15050400  0.19563700  0.35843100  1
  O  O33  1  0.38588400  0.51474100  0.38159300  1
  O  O34  1  0.84949600  0.80436300  0.64156900  1
  O  O35  1  0.61411600  0.48525900  0.88159300  1
  O  O36  1  0.38588400  0.51474100  0.11840700  1
  O  O37  1  0.15050400  0.19563700  0.14156900  1
  O  O38  1  0.95486700  0.15050400  0.85843100  1
  O  O39  1  0.32478100  0.90108300  0.75000000  1
  O  O40  1  0.27164900  0.82769900  0.56467800  1
  O  O41  1  0.12885700  0.61411600  0.11840700  1
loop_
_geom_bond_atom_site_label_1
_geom_bond_atom_site_label_2
_geom_bond_distance
_geom_bond_site_symmetry_2
Na0 O23 2.326338 1_555
Na0 O35 2.351977 1_555
Na0 O4 2.374439 1_555
Na0 O3 2.508670 1_556
Na1 O26 2.326338 1_555
Na1 O18 2.351977 1_555
Na1 O17 2.374439 1_565
Na1 O40 2.508670 1_555
Na2 O31 2.326338 1_555
Na2 O5 2.351977 1_555
Na2 O0 2.374439 1_555
Na2 O17 2.508670 1_555
Na3 O20 2.326338 1_555
Na3 O36 2.351977 1_555
Na3 O25 2.374439 1_555
Na3 O12 2.508670 1_554
Na4 O32 2.326338 1_555
Na4 O16 2.351977 1_555
Na4 O21 2.374439 1_455
Na4 O0 2.508670 1_555
Na5 O38 2.326338 1_555
Na5 O13 2.351977 1_555
Na5 O12 2.374439 1_545
Na5 O2 2.508670 1_556
Na6 O1 2.326338 1_555
Na6 O19 2.351977 1_555
Na6 O6 2.374439 1_655
Na6 O25 2.508670 1_556
Na7 O19 2.508452 1_555
Na7 O11 2.508452 1_555
Na7 O27 2.508453 1_555
Na7 O13 2.508453 1_555
Na7 O5 2.508458 1_555
Na7 O35 2.508458 1_555
Na8 O34 2.326338 1_555
Na8 O11 2.351977 1_555
Na8 O40 2.374439 1_655
Na8 O10 2.508670 1_555
Na9 O37 2.326338 1_555
Na9 O41 2.351977 1_555
Na9 O2 2.374439 1_455
Na9 O4 2.508670 1_554
Na10 O28 2.326338 1_555
Na10 O27 2.351977 1_555
Na10 O29 2.374439 1_545
Na10 O21 2.508670 1_555
Na11 O7 2.326338 1_555
Na11 O33 2.351977 1_555
Na11 O10 2.374439 1_555
Na11 O29 2.508670 1_555
Na12 O14 2.326338 1_555
Na12 O9 2.351977 1_555
Na12 O3 2.374439 1_565
Na12 O6 2.508670 1_554
Na13 O16 2.508452 1_555
Na13 O41 2.508452 1_555
Na13 O18 2.508453 1_555
Na13 O9 2.508453 1_555
Na13 O36 2.508458 1_555
Na13 O33 2.508458 1_555
Na14 O1 2.569185 1_444
Na14 O37 2.569185 1_555
Na14 O23 2.569185 1_554
Na14 O20 2.569185 1_445
Na14 O38 2.569185 1_454
Na14 O14 2.569185 1_545
Na15 O8 2.251753 1_555
Na15 O24 2.251757 1_555
Na15 O30 2.251762 1_555
Na16 O34 2.569185 1_445
Na16 O32 2.569185 1_555
Na16 O7 2.569185 1_445
Na16 O31 2.569185 1_555
Na16 O28 2.569185 1_455
Na16 O26 2.569185 1_545
Na17 O39 2.251753 1_555
Na17 O22 2.251757 1_555
Na17 O15 2.251762 1_555
Lu0 O2 2.199068 1_556
Lu0 O25 2.199073 1_556
Lu0 O3 2.199075 1_556
Lu0 O19 2.214737 1_555
Lu0 O13 2.214739 1_555
Lu0 O35 2.214744 1_555
Lu1 O37 2.242592 1_555
Lu1 O32 2.242592 1_555
Lu1 O7 2.242592 1_445
Lu1 O20 2.242592 1_445
Lu1 O26 2.242592 1_545
Lu1 O14 2.242592 1_545
Lu2 O21 2.199068 1_555
Lu2 O10 2.199073 1_555
Lu2 O17 2.199075 1_555
Lu2 O11 2.214737 1_555
Lu2 O27 2.214739 1_555
Lu2 O5 2.214744 1_555
Lu3 O6 2.199068 1_554
Lu3 O4 2.199073 1_554
Lu3 O12 2.199075 1_554
Lu3 O41 2.214737 1_555
Lu3 O9 2.214739 1_555
Lu3 O36 2.214744 1_555
Lu4 O40 2.199068 1_555
Lu4 O0 2.199073 1_555
Lu4 O29 2.199075 1_555
Lu4 O16 2.214737 1_555
Lu4 O18 2.214739 1_555
Lu4 O33 2.214744 1_555
Lu5 O1 2.242592 1_445
Lu5 O34 2.242592 1_445
Lu5 O31 2.242592 1_555
Lu5 O23 2.242592 1_555
Lu5 O28 2.242592 1_455
Lu5 O38 2.242592 1_455
O0 Si4 1.641987 1_555
O1 Si10 1.637451 1_555
O2 Si9 1.641987 1_555
O3 Si1 1.641987 1_555
O4 Si5 1.641987 1_555
O5 Si0 1.631303 1_555
O6 Si3 1.641987 1_555
O7 Si2 1.637451 1_565
O8 Si9 1.685145 1_555
O8 Si2 1.685145 1_555
O9 Si9 1.631303 1_565
O10 Si6 1.641987 1_555
O11 Si4 1.631303 1_655
O12 Si10 1.641987 1_555
O13 Si3 1.631303 1_545
O14 Si11 1.637451 1_455
O15 Si0 1.685145 1_555
O15 Si10 1.685145 1_555
O16 Si6 1.631303 1_455
O17 Si8 1.641987 1_555
O18 Si2 1.631303 1_565
O19 Si5 1.631303 1_655
O20 Si9 1.637451 1_565
O21 Si2 1.641987 1_555
O22 Si4 1.685145 1_555
O22 Si5 1.685145 1_555
O23 Si3 1.637451 1_545
O24 Si11 1.685145 1_555
O24 Si6 1.685145 1_555
O25 Si11 1.641987 1_555
O26 Si6 1.637451 1_455
O27 Si7 1.631303 1_545
O28 Si4 1.637451 1_655
O29 Si0 1.641987 1_555
O30 Si1 1.685145 1_555
O30 Si8 1.685145 1_555
O31 Si7 1.637451 1_545
O32 Si8 1.637451 1_555
O33 Si8 1.631303 1_555
O34 Si0 1.637451 1_555
O35 Si10 1.631303 1_555
O36 Si1 1.631303 1_555
O37 Si1 1.637451 1_555
O38 Si5 1.637451 1_655
O39 Si7 1.685145 1_555
O39 Si3 1.685145 1_555
O40 Si7 1.641987 1_555
O41 Si11 1.631303 1_455
