# generated using pymatgen
data_EuCO3
_symmetry_space_group_name_H-M   'P 1'
_cell_length_a   5.10965115
_cell_length_b   5.94351265
_cell_length_c   8.41489239
_cell_angle_alpha   90.00000000
_cell_angle_beta   89.99997449
_cell_angle_gamma   90.00000000
_symmetry_Int_Tables_number   1
_chemical_formula_structural   EuCO3
_chemical_formula_sum   'Eu4 C4 O12'
_cell_volume   255.55419158
_cell_formula_units_Z   4
loop_
 _symmetry_equiv_pos_site_id
 _symmetry_equiv_pos_as_xyz
  1  'x, y, z'
loop_
 _atom_site_type_symbol
 _atom_site_label
 _atom_site_symmetry_multiplicity
 _atom_site_fract_x
 _atom_site_fract_y
 _atom_site_fract_z
 _atom_site_occupancy
  Eu  Eu0  1  0.25000000  0.25613248  0.91606501  1
  Eu  Eu1  1  0.75000000  0.24386752  0.41606501  1
  Eu  Eu2  1  0.75000000  0.74386752  0.08393499  1
  Eu  Eu3  1  0.25000000  0.75613248  0.58393499  1
  C  C0  1  0.25000000  0.41362482  0.25887829  1
  C  C1  1  0.75000000  0.58637518  0.74112171  1
  C  C2  1  0.75000000  0.08637518  0.75887829  1
  C  C3  1  0.25000000  0.91362482  0.24112171  1
  O  O0  1  0.96912428  0.08664782  0.68166130  1
  O  O1  1  0.46912428  0.41335218  0.18166130  1
  O  O2  1  0.46912428  0.91335218  0.31833870  1
  O  O3  1  0.75000000  0.59720549  0.58783772  1
  O  O4  1  0.75000000  0.09720549  0.91216228  1
  O  O5  1  0.53087572  0.08664782  0.68166130  1
  O  O6  1  0.25000000  0.90279451  0.08783772  1
  O  O7  1  0.25000000  0.40279451  0.41216228  1
  O  O8  1  0.53087572  0.58664782  0.81833870  1
  O  O9  1  0.96912428  0.58664782  0.81833870  1
  O  O10  1  0.03087572  0.41335218  0.18166130  1
  O  O11  1  0.03087572  0.91335218  0.31833870  1
loop_
_geom_bond_atom_site_label_1
_geom_bond_atom_site_label_2
_geom_bond_distance
_geom_bond_site_symmetry_2
Eu0 O6 2.549433 1_546
Eu0 O8 2.568065 1_555
Eu0 O9 2.568065 1_455
Eu0 O5 2.639155 1_555
Eu0 O0 2.639156 1_455
Eu0 O10 2.668679 1_556
Eu0 O1 2.668680 1_556
Eu0 O4 2.724051 1_555
Eu0 O4 2.724051 1_455
Eu1 O3 2.549433 1_555
Eu1 O11 2.568065 1_645
Eu1 O2 2.568065 1_545
Eu1 O10 2.639155 1_655
Eu1 O1 2.639156 1_555
Eu1 O5 2.668679 1_555
Eu1 O0 2.668680 1_555
Eu1 O7 2.724051 1_655
Eu1 O7 2.724051 1_555
Eu2 O4 2.549433 1_564
Eu2 O1 2.568065 1_555
Eu2 O10 2.568065 1_655
Eu2 O2 2.639155 1_555
Eu2 O11 2.639156 1_655
Eu2 O9 2.668679 1_554
Eu2 O8 2.668680 1_554
Eu2 O6 2.724051 1_555
Eu2 O6 2.724051 1_655
Eu3 O7 2.549433 1_555
Eu3 O0 2.568065 1_465
Eu3 O5 2.568065 1_565
Eu3 O9 2.639155 1_455
Eu3 O8 2.639156 1_555
Eu3 O2 2.668679 1_555
Eu3 O11 2.668680 1_555
Eu3 O3 2.724051 1_455
Eu3 O3 2.724051 1_555
C0 O7 1.291473 1_555
C0 O1 1.294534 1_555
C0 O10 1.294535 1_555
C1 O3 1.291473 1_555
C1 O8 1.294534 1_555
C1 O9 1.294535 1_555
C2 O4 1.291473 1_555
C2 O0 1.294534 1_555
C2 O5 1.294535 1_555
C3 O6 1.291473 1_555
C3 O11 1.294534 1_555
C3 O2 1.294535 1_555
