# generated using pymatgen
data_KSO3
_symmetry_space_group_name_H-M   'P 1'
_cell_length_a   9.71198767
_cell_length_b   9.71199432
_cell_length_c   6.27590517
_cell_angle_alpha   90.00029060
_cell_angle_beta   89.99906660
_cell_angle_gamma   120.00083459
_symmetry_Int_Tables_number   1
_chemical_formula_structural   KSO3
_chemical_formula_sum   'K6 S6 O18'
_cell_volume   512.64873973
_cell_formula_units_Z   6
loop_
 _symmetry_equiv_pos_site_id
 _symmetry_equiv_pos_as_xyz
  1  'x, y, z'
loop_
 _atom_site_type_symbol
 _atom_site_label
 _atom_site_symmetry_multiplicity
 _atom_site_fract_x
 _atom_site_fract_y
 _atom_site_fract_z
 _atom_site_occupancy
  K  K0  1  0.61785243  0.00004502  -0.00011536  1
  K  K1  1  0.00003848  0.61787051  0.00011886  1
  K  K2  1  0.38213736  0.38208557  0.00002979  1
  K  K3  1  0.29445578  0.99995541  0.50002112  1
  K  K4  1  0.00003935  0.29451764  0.50001483  1
  K  K5  1  0.70550840  0.70554622  0.50001616  1
  S  S0  1  -0.00000119  -0.00002448  0.82601665  1
  S  S1  1  -0.00002712  -0.00000743  0.17390963  1
  S  S2  1  0.33333718  0.66666310  0.74508523  1
  S  S3  1  0.66667391  0.33334376  0.25498437  1
  S  S4  1  0.33334782  0.66667097  0.40090972  1
  S  S5  1  0.66666726  0.33335761  0.59905460  1
  O  O0  1  0.15807273  0.12596115  0.76579731  1
  O  O1  1  0.87401395  0.03207072  0.76578137  1
  O  O2  1  0.96790350  0.84188975  0.76583437  1
  O  O3  1  0.03206760  0.87400467  0.23418631  1
  O  O4  1  0.84188959  0.96789342  0.23410452  1
  O  O5  1  0.12596530  0.15806981  0.23415784  1
  O  O6  1  0.20446482  0.50968085  0.80568810  1
  O  O7  1  0.49032050  0.69477777  0.80570709  1
  O  O8  1  0.30522383  0.79553820  0.80569719  1
  O  O9  1  0.69479473  0.49033376  0.19432721  1
  O  O10  1  0.79554377  0.30523192  0.19432167  1
  O  O11  1  0.50968910  0.20446570  0.19432705  1
  O  O12  1  0.16893035  0.61319523  0.34565530  1
  O  O13  1  0.38680927  0.55573704  0.34562132  1
  O  O14  1  0.44427750  0.83107959  0.34562894  1
  O  O15  1  0.55575497  0.38684296  0.65436881  1
  O  O16  1  0.83108065  0.44426398  0.65438463  1
  O  O17  1  0.61316820  0.16894056  0.65436636  1
loop_
_geom_bond_atom_site_label_1
_geom_bond_atom_site_label_2
_geom_bond_distance
_geom_bond_site_symmetry_2
K0 O17 2.733037 1_554
K0 O14 2.734310 1_545
K0 O1 2.769607 1_554
K0 O4 2.769853 1_545
K0 O7 2.852501 1_544
K0 O10 2.852582 1_555
K0 O8 2.935700 1_544
K0 O11 2.935938 1_555
K1 O12 2.733092 1_555
K1 O16 2.734365 1_454
K1 O3 2.769271 1_555
K1 O2 2.769830 1_454
K1 O9 2.852370 1_455
K1 O8 2.852486 1_554
K1 O10 2.935767 1_455
K1 O6 2.936128 1_554
K2 O15 2.733734 1_554
K2 O13 2.733846 1_555
K2 O5 2.769333 1_555
K2 O0 2.769635 1_554
K2 O11 2.852077 1_555
K2 O6 2.852930 1_554
K2 O9 2.936044 1_555
K2 O7 2.936482 1_554
K3 O0 2.766786 1_565
K3 O3 2.767030 1_555
K3 O8 2.800046 1_555
K3 O11 2.800565 1_565
K3 O14 2.851765 1_555
K3 O17 2.851806 1_565
K4 O5 2.767005 1_555
K4 O1 2.767133 1_455
K4 O6 2.799963 1_555
K4 O10 2.800482 1_455
K4 O12 2.851521 1_555
K4 O16 2.851801 1_455
K5 O2 2.766995 1_555
K5 O4 2.767013 1_555
K5 O7 2.800093 1_555
K5 O9 2.800455 1_555
K5 O15 2.851727 1_555
K5 O13 2.851782 1_555
O0 S0 1.455449 1_555
O1 S0 1.455540 1_655
O2 S0 1.455493 1_665
O3 S1 1.455631 1_565
O4 S1 1.455473 1_665
O5 S1 1.455546 1_555
O6 S2 1.458542 1_555
O7 S2 1.458589 1_555
O8 S2 1.458623 1_555
O9 S3 1.458684 1_555
O10 S3 1.458645 1_555
O11 S3 1.458672 1_555
O12 S4 1.452754 1_555
O13 S4 1.452638 1_555
O14 S4 1.452694 1_555
O15 S5 1.452650 1_555
O16 S5 1.452764 1_555
O17 S5 1.452788 1_555
