# generated using pymatgen
data_La7Os4C9
_symmetry_space_group_name_H-M   'P 1'
_cell_length_a   6.59280241
_cell_length_b   6.59280241
_cell_length_c   11.97788311
_cell_angle_alpha   71.08464543
_cell_angle_beta   71.08464543
_cell_angle_gamma   48.70807309
_symmetry_Int_Tables_number   1
_chemical_formula_structural   La7Os4C9
_chemical_formula_sum   'La7 Os4 C9'
_cell_volume   365.56834221
_cell_formula_units_Z   1
loop_
 _symmetry_equiv_pos_site_id
 _symmetry_equiv_pos_as_xyz
  1  'x, y, z'
loop_
 _atom_site_type_symbol
 _atom_site_label
 _atom_site_symmetry_multiplicity
 _atom_site_fract_x
 _atom_site_fract_y
 _atom_site_fract_z
 _atom_site_occupancy
  La  La0  1  0.37336466  0.37336466  0.84378741  1
  La  La1  1  0.14632745  0.14632745  0.67811527  1
  La  La2  1  0.85367255  0.85367255  0.32188473  1
  La  La3  1  0.13854888  0.13854888  0.38226872  1
  La  La4  1  0.86145112  0.86145112  0.61773128  1
  La  La5  1  0.00000000  0.00000000  -0.00000000  1
  La  La6  1  0.62663534  0.62663534  0.15621259  1
  Os  Os0  1  0.35804996  0.35804996  0.14109445  1
  Os  Os1  1  0.56587221  0.56587221  0.57200085  1
  Os  Os2  1  0.43412779  0.43412779  0.42799915  1
  Os  Os3  1  0.64195004  0.64195004  0.85890555  1
  C  C0  1  0.38560020  0.38560020  0.29006190  1
  C  C1  1  0.92070623  0.92070623  0.82032477  1
  C  C2  1  0.39299151  0.39299151  0.61182234  1
  C  C3  1  0.19689833  0.19689833  0.14480000  1
  C  C4  1  0.80310167  0.80310167  0.85520000  1
  C  C5  1  0.50000000  0.50000000  -0.00000000  1
  C  C6  1  0.07929377  0.07929377  0.17967523  1
  C  C7  1  0.61439980  0.61439980  0.70993810  1
  C  C8  1  0.60700849  0.60700849  0.38817766  1
loop_
_geom_bond_atom_site_label_1
_geom_bond_atom_site_label_2
_geom_bond_distance
_geom_bond_site_symmetry_2
C0 Os0 1.927056 1_555
C0 Os2 1.937775 1_555
C0 La2 2.753119 1_545
C0 La2 2.753119 1_455
C0 La6 2.765870 1_555
C0 La3 2.773837 1_555
C1 C4 1.322967 1_555
C1 La1 2.638438 1_665
C1 La5 2.645329 1_666
C1 La4 2.761244 1_555
C1 La0 2.771274 1_565
C1 La0 2.771274 1_655
C2 Os1 1.958372 1_555
C2 Os2 2.077945 1_555
C2 La0 2.703551 1_555
C2 La4 2.742406 1_455
C2 La4 2.742406 1_545
C2 La1 2.781273 1_555
C3 C6 1.322967 1_555
C3 Os0 1.920453 1_555
C3 La3 2.676361 1_555
C3 La6 2.835536 1_455
C3 La6 2.835536 1_545
C4 Os3 1.920453 1_555
C4 La4 2.676361 1_555
C4 La0 2.835536 1_565
C4 La0 2.835536 1_655
C5 Os3 1.926870 1_554
C5 Os0 1.926870 1_555
C5 La5 2.718699 1_565
C5 La5 2.718699 1_655
C5 La0 2.800106 1_554
C5 La6 2.800106 1_555
C6 La2 2.638438 1_445
C6 La5 2.645329 1_555
C6 La3 2.761244 1_555
C6 La6 2.771274 1_545
C6 La6 2.771274 1_455
C7 Os3 1.927056 1_555
C7 Os1 1.937775 1_555
C7 La1 2.753119 1_565
C7 La1 2.753119 1_655
C7 La0 2.765870 1_555
C7 La4 2.773837 1_555
C8 Os2 1.958372 1_555
C8 Os1 2.077945 1_555
C8 La6 2.703551 1_555
C8 La3 2.742406 1_565
C8 La3 2.742406 1_655
C8 La2 2.781273 1_555
