# generated using pymatgen
data_Na(CO)3
_symmetry_space_group_name_H-M   'P 1'
_cell_length_a   9.33842240
_cell_length_b   8.28394244
_cell_length_c   7.12390633
_cell_angle_alpha   74.18440946
_cell_angle_beta   58.59442499
_cell_angle_gamma   47.22116555
_symmetry_Int_Tables_number   1
_chemical_formula_structural   Na(CO)3
_chemical_formula_sum   'Na4 C12 O12'
_cell_volume   342.31218122
_cell_formula_units_Z   4
loop_
 _symmetry_equiv_pos_site_id
 _symmetry_equiv_pos_as_xyz
  1  'x, y, z'
loop_
 _atom_site_type_symbol
 _atom_site_label
 _atom_site_symmetry_multiplicity
 _atom_site_fract_x
 _atom_site_fract_y
 _atom_site_fract_z
 _atom_site_occupancy
  Na  Na0  1  0.14840500  0.85159500  0.14840500  1
  Na  Na1  1  0.39840500  0.10159500  0.39840500  1
  Na  Na2  1  0.10159500  0.39840500  0.10159500  1
  Na  Na3  1  0.85159500  0.14840500  0.85159500  1
  C  C0  1  0.85207600  0.85207600  0.64792400  1
  C  C1  1  0.86563600  0.53298000  0.64935000  1
  C  C2  1  0.71702000  0.38436400  0.29796600  1
  C  C3  1  0.64935000  0.95203400  0.86563600  1
  C  C4  1  0.53298000  0.86563600  0.95203400  1
  C  C5  1  0.60207600  0.60207600  0.39792400  1
  C  C6  1  0.60065000  0.29796600  0.38436400  1
  C  C7  1  0.29796600  0.60065000  0.71702000  1
  C  C8  1  0.38436400  0.71702000  0.60065000  1
  C  C9  1  0.39792400  0.39792400  0.60207600  1
  C  C10  1  0.95203400  0.64935000  0.53298000  1
  C  C11  1  0.64792400  0.64792400  0.85207600  1
  O  O0  1  0.34291600  0.97173500  0.11716500  1
  O  O1  1  0.68881600  0.68881600  0.31118400  1
  O  O2  1  0.97173500  0.34291600  0.56818400  1
  O  O3  1  0.27826500  0.90708400  0.68181600  1
  O  O4  1  0.56118400  0.56118400  0.93881600  1
  O  O5  1  0.90708400  0.27826500  0.13283500  1
  O  O6  1  0.56818400  0.11716500  0.97173500  1
  O  O7  1  0.31118400  0.31118400  0.68881600  1
  O  O8  1  0.11716500  0.56818400  0.34291600  1
  O  O9  1  0.68181600  0.13283500  0.27826500  1
  O  O10  1  0.13283500  0.68181600  0.90708400  1
  O  O11  1  0.93881600  0.93881600  0.56118400  1
loop_
_geom_bond_atom_site_label_1
_geom_bond_atom_site_label_2
_geom_bond_distance
_geom_bond_site_symmetry_2
Na0 O4 2.497782 1_554
Na0 O11 2.497782 1_455
Na0 O8 2.500590 1_555
Na0 O0 2.500590 1_555
Na0 O10 2.609772 1_554
Na0 O5 2.609772 1_465
Na0 O9 2.907553 1_465
Na0 O3 2.907553 1_554
Na1 O7 2.497782 1_555
Na1 O1 2.497782 1_545
Na1 O3 2.500590 1_545
Na1 O9 2.500590 1_555
Na1 O6 2.609772 1_554
Na1 O2 2.609772 1_455
Na1 O0 2.907553 1_545
Na1 O8 2.907553 1_555
Na2 O7 2.497782 1_554
Na2 O1 2.497782 1_455
Na2 O5 2.500590 1_455
Na2 O10 2.500590 1_554
Na2 O0 2.609772 1_545
Na2 O8 2.609772 1_555
Na2 O2 2.907553 1_455
Na2 O6 2.907553 1_554
Na3 O11 2.497782 1_545
Na3 O4 2.497782 1_555
Na3 O6 2.500590 1_555
Na3 O2 2.500590 1_555
Na3 O9 2.609772 1_556
Na3 O3 2.609772 1_645
Na3 O10 2.907553 1_645
Na3 O5 2.907553 1_556
C0 O11 1.257460 1_555
C1 O2 1.255062 1_555
C2 O5 1.255062 1_555
C3 O6 1.255062 1_565
C4 O0 1.255062 1_556
C5 O1 1.257460 1_555
C6 O9 1.255062 1_555
C7 O10 1.255062 1_555
C8 O3 1.255062 1_555
C9 O7 1.257460 1_555
C10 O8 1.255062 1_655
C11 O4 1.257460 1_555
