# generated using pymatgen
data_La8Mn7O24
_symmetry_space_group_name_H-M   'P 1'
_cell_length_a   7.88731900
_cell_length_b   9.46897657
_cell_length_c   14.80010804
_cell_angle_alpha   90.67454403
_cell_angle_beta   105.17916384
_cell_angle_gamma   113.26678589
_symmetry_Int_Tables_number   1
_chemical_formula_structural   La8Mn7O24
_chemical_formula_sum   'La16 Mn14 O48'
_cell_volume   971.71690834
_cell_formula_units_Z   2
loop_
 _symmetry_equiv_pos_site_id
 _symmetry_equiv_pos_as_xyz
  1  'x, y, z'
loop_
 _atom_site_type_symbol
 _atom_site_label
 _atom_site_symmetry_multiplicity
 _atom_site_fract_x
 _atom_site_fract_y
 _atom_site_fract_z
 _atom_site_occupancy
  La  La0  1  0.94407500  0.29159300  0.55664100  1
  La  La1  1  0.18107900  0.06453000  0.31810000  1
  La  La2  1  0.42282900  0.30214700  0.55779000  1
  La  La3  1  0.57717100  0.69785300  0.44221000  1
  La  La4  1  0.42185100  0.80011100  0.05946300  1
  La  La5  1  0.69883300  0.05844100  0.31878100  1
  La  La6  1  0.81667300  0.43399900  0.18042500  1
  La  La7  1  0.05592500  0.70840700  0.44335900  1
  La  La8  1  0.70189600  0.56131400  0.81775500  1
  La  La9  1  0.94358700  0.79099100  0.05768000  1
  La  La10  1  0.05641300  0.20900900  0.94232000  1
  La  La11  1  0.29810400  0.43868600  0.18224500  1
  La  La12  1  0.18332700  0.56600100  0.81957500  1
  La  La13  1  0.30116700  0.94155900  0.68121900  1
  La  La14  1  0.57814900  0.19988900  0.94053700  1
  La  La15  1  0.81892100  0.93547000  0.68190000  1
  Mn  Mn0  1  0.87093600  0.61789100  0.62521500  1
  Mn  Mn1  1  0.12906400  0.38210900  0.37478500  1
  Mn  Mn2  1  0.50000000  0.00000000  0.50000000  1
  Mn  Mn3  1  0.25313300  0.75308400  0.25245300  1
  Mn  Mn4  1  0.37436100  0.12382000  0.12712400  1
  Mn  Mn5  1  0.62496600  0.37659700  0.37304000  1
  Mn  Mn6  1  0.74876900  0.74908300  0.24744800  1
  Mn  Mn7  1  0.50000000  0.50000000  0.00000000  1
  Mn  Mn8  1  0.62563900  0.87618000  0.87287600  1
  Mn  Mn9  1  0.87220800  0.11786200  0.12512500  1
  Mn  Mn10  1  0.74686700  0.24691600  0.74754700  1
  Mn  Mn11  1  0.12779200  0.88213800  0.87487500  1
  Mn  Mn12  1  0.25123100  0.25091700  0.75255200  1
  Mn  Mn13  1  0.37503400  0.62340300  0.62696000  1
  O  O0  1  0.11146300  0.21548300  0.44549300  1
  O  O1  1  0.27731200  0.00047800  0.52411600  1
  O  O2  1  0.11682100  0.63357900  0.60096400  1
  O  O3  1  0.48571900  0.82505600  0.58028500  1
  O  O4  1  0.32357600  0.84987200  0.38334500  1
  O  O5  1  0.29748400  0.52675700  0.49242400  1
  O  O6  1  0.36773600  0.95574800  0.20935000  1
  O  O7  1  0.70251600  0.47324300  0.50757600  1
  O  O8  1  0.51018300  0.74491800  0.27795600  1
  O  O9  1  0.67642400  0.15012800  0.61665500  1
  O  O10  1  0.36595600  0.38535500  0.34707600  1
  O  O11  1  0.51428100  0.17494400  0.41971500  1
  O  O12  1  0.73892000  0.58418500  0.33099600  1
  O  O13  1  0.88317900  0.36642100  0.39903600  1
  O  O14  1  0.57875200  0.59944100  0.13393700  1
  O  O15  1  0.72268800  0.99952200  0.47588400  1
  O  O16  1  0.54468100  0.27879900  0.24022800  1
  O  O17  1  0.88853700  0.78451700  0.55450700  1
  O  O18  1  0.61909600  0.70637400  0.95196600  1
  O  O19  1  0.96069800  0.22227900  0.25834500  1
  O  O20  1  0.73948800  0.48710600  0.02211900  1
  O  O21  1  0.90090800  0.89223500  0.35581900  1
  O  O22  1  0.61791700  0.13576900  0.10149100  1
  O  O23  1  0.75083700  0.91535600  0.16663800  1
  O  O24  1  0.97403300  0.31235600  0.08277800  1
  O  O25  1  0.13044700  0.11065000  0.15177000  1
  O  O26  1  0.82514600  0.34544200  0.87124400  1
  O  O27  1  0.98892600  0.75504300  0.22290800  1
  O  O28  1  0.78639300  0.02911900  0.98854900  1
  O  O29  1  0.13608300  0.54465900  0.29329100  1
  O  O30  1  0.86391700  0.45534100  0.70670900  1
  O  O31  1  0.21360700  0.97088100  0.01145100  1
  O  O32  1  0.01107400  0.24495700  0.77709200  1
  O  O33  1  0.17485400  0.65455800  0.12875600  1
  O  O34  1  0.86955300  0.88935000  0.84823000  1
  O  O35  1  0.02596700  0.68764400  0.91722200  1
  O  O36  1  0.24916300  0.08464400  0.83336200  1
  O  O37  1  0.38208300  0.86423100  0.89850900  1
  O  O38  1  0.09909200  0.10776500  0.64418100  1
  O  O39  1  0.26051200  0.51289400  0.97788100  1
  O  O40  1  0.03930200  0.77772100  0.74165500  1
  O  O41  1  0.38090400  0.29362600  0.04803400  1
  O  O42  1  0.45531900  0.72120100  0.75977200  1
  O  O43  1  0.42124800  0.40055900  0.86606300  1
  O  O44  1  0.26108000  0.41581500  0.66900400  1
  O  O45  1  0.63404400  0.61464500  0.65292400  1
  O  O46  1  0.48981700  0.25508200  0.72204400  1
  O  O47  1  0.63226400  0.04425200  0.79065000  1
loop_
_geom_bond_atom_site_label_1
_geom_bond_atom_site_label_2
_geom_bond_distance
_geom_bond_site_symmetry_2
La0 O9 2.411573 1_555
La0 O44 2.419445 1_655
La0 O13 2.427899 1_555
La0 O0 2.613342 1_655
La0 O38 2.666146 1_655
La0 O15 2.672127 1_545
La1 O21 2.382385 1_445
La1 O11 2.446236 1_555
La1 O25 2.461392 1_555
La1 O0 2.645406 1_555
La1 O19 2.704079 1_455
La1 O4 2.758574 1_545
La1 O10 2.771489 1_555
La1 O27 2.854047 1_445
La1 O6 2.866859 1_545
La2 O0 2.388542 1_555
La2 O46 2.434406 1_555
La2 O7 2.471190 1_555
La2 O1 2.608080 1_555
La2 O11 2.747252 1_555
La2 O44 2.763702 1_555
La2 O5 2.765039 1_555
La2 O9 2.867651 1_555
La2 O45 2.879713 1_555
La3 O17 2.388542 1_555
La3 O8 2.434406 1_555
La3 O5 2.471190 1_555
La3 O15 2.608080 1_555
La3 O3 2.747252 1_555
La3 O12 2.763702 1_555
La3 O7 2.765039 1_555
La3 O4 2.867651 1_555
La3 O10 2.879713 1_555
La4 O33 2.388484 1_555
La4 O37 2.436147 1_554
La4 O23 2.450867 1_555
La4 O39 2.618705 1_554
La4 O31 2.707683 1_555
La4 O14 2.747659 1_555
La4 O18 2.844844 1_554
La4 O6 2.861973 1_555
La4 O22 2.906350 1_565
La4 O35 3.032086 1_554
La4 O8 3.219178 1_555
La4 O28 3.283144 1_564
La5 O15 2.374303 1_545
La5 O19 2.437511 1_555
La5 O6 2.475932 1_545
La5 O21 2.619560 1_545
La5 O8 2.718390 1_545
La5 O13 2.773739 1_555
La5 O23 2.815153 1_545
La5 O11 2.817067 1_555
La5 O16 2.916297 1_555
La5 O0 3.038909 1_655
La5 O4 3.237472 1_545
La5 O22 3.261194 1_555
La6 O20 2.373930 1_555
La6 O29 2.429938 1_655
La6 O16 2.465683 1_555
La6 O24 2.642967 1_555
La6 O22 2.694952 1_555
La6 O27 2.779793 1_555
La6 O19 2.794109 1_555
La6 O14 2.849687 1_555
La6 O12 2.948662 1_555
La6 O33 3.071692 1_655
La6 O41 3.197190 1_555
La6 O13 3.252387 1_555
La7 O4 2.411573 1_555
La7 O12 2.419445 1_455
La7 O2 2.427899 1_555
La7 O17 2.613342 1_455
La7 O21 2.666146 1_455
La7 O1 2.672127 1_565
La8 O35 2.388292 1_655
La8 O43 2.433212 1_555
La8 O45 2.459978 1_555
La8 O26 2.637221 1_555
La8 O30 2.723075 1_555
La8 O18 2.753633 1_555
La8 O34 2.830194 1_555
La8 O46 2.836082 1_555
La8 O42 2.879869 1_555
La9 O31 2.414515 1_655
La9 O27 2.425182 1_555
La9 O18 2.427688 1_554
La9 O35 2.619729 1_654
La9 O33 2.644168 1_655
La9 O20 2.647540 1_555
La10 O28 2.414515 1_455
La10 O32 2.425182 1_555
La10 O41 2.427688 1_556
La10 O24 2.619729 1_456
La10 O26 2.644168 1_455
La10 O39 2.647540 1_555
La11 O24 2.388292 1_455
La11 O14 2.433212 1_555
La11 O10 2.459978 1_555
La11 O33 2.637221 1_555
La11 O29 2.723075 1_555
La11 O41 2.753633 1_555
La11 O25 2.830194 1_555
La11 O8 2.836082 1_555
La11 O16 2.879869 1_555
La12 O39 2.373930 1_555
La12 O30 2.429938 1_455
La12 O42 2.465683 1_555
La12 O35 2.642967 1_555
La12 O37 2.694952 1_555
La12 O32 2.779793 1_555
La12 O40 2.794109 1_555
La12 O43 2.849687 1_555
La12 O44 2.948662 1_555
La12 O26 3.071692 1_455
La12 O18 3.197190 1_555
La12 O2 3.252387 1_555
La13 O1 2.374303 1_565
La13 O40 2.437511 1_555
La13 O47 2.475932 1_565
La13 O38 2.619560 1_565
La13 O46 2.718390 1_565
La13 O2 2.773739 1_555
La13 O36 2.815153 1_565
La13 O3 2.817067 1_555
La13 O42 2.916297 1_555
La13 O17 3.038909 1_455
La13 O9 3.237472 1_565
La13 O37 3.261194 1_555
La14 O26 2.388484 1_555
La14 O22 2.436147 1_556
La14 O36 2.450867 1_555
La14 O20 2.618705 1_556
La14 O28 2.707683 1_555
La14 O43 2.747659 1_555
La14 O41 2.844844 1_556
La14 O47 2.861973 1_555
La14 O37 2.906350 1_545
La14 O24 3.032086 1_556
La14 O46 3.219178 1_555
La14 O31 3.283144 1_546
La15 O38 2.382385 1_665
La15 O3 2.446236 1_555
La15 O34 2.461392 1_555
La15 O17 2.645406 1_555
La15 O40 2.704079 1_655
La15 O9 2.758574 1_565
La15 O45 2.771489 1_555
La15 O32 2.854047 1_665
La15 O47 2.866859 1_565
Mn0 O17 1.883003 1_555
Mn0 O30 1.959140 1_555
Mn0 O7 1.991782 1_555
Mn0 O45 2.004094 1_555
Mn0 O2 2.012518 1_655
Mn0 O40 2.043567 1_655
Mn1 O0 1.883003 1_555
Mn1 O29 1.959140 1_555
Mn1 O5 1.991782 1_555
Mn1 O10 2.004094 1_555
Mn1 O13 2.012518 1_455
Mn1 O19 2.043567 1_455
Mn2 O1 1.883329 1_555
Mn2 O15 1.883329 1_545
Mn2 O9 2.014770 1_555
Mn2 O4 2.014770 1_545
Mn2 O3 2.034139 1_545
Mn2 O11 2.034139 1_555
Mn3 O33 1.875086 1_555
Mn3 O6 1.966480 1_555
Mn3 O4 1.973248 1_555
Mn3 O8 1.995679 1_555
Mn3 O29 1.998364 1_555
Mn3 O27 2.021799 1_455
Mn4 O16 1.991832 1_555
Mn4 O41 1.992117 1_555
Mn4 O31 1.997491 1_545
Mn4 O25 2.007171 1_555
Mn4 O6 2.007408 1_545
Mn4 O22 2.014428 1_555
Mn5 O11 1.978701 1_555
Mn5 O16 1.991055 1_555
Mn5 O12 1.996179 1_555
Mn5 O13 2.012624 1_555
Mn5 O10 2.012822 1_555
Mn5 O7 2.013296 1_555
Mn6 O21 1.872356 1_555
Mn6 O14 1.972658 1_555
Mn6 O23 1.985896 1_555
Mn6 O12 1.993231 1_555
Mn6 O27 1.999842 1_555
Mn6 O8 2.033066 1_555
Mn7 O39 1.883986 1_554
Mn7 O20 1.883986 1_555
Mn7 O43 2.012729 1_554
Mn7 O14 2.012729 1_555
Mn7 O18 2.034378 1_554
Mn7 O41 2.034378 1_555
Mn8 O42 1.991832 1_555
Mn8 O18 1.992117 1_555
Mn8 O28 1.997491 1_565
Mn8 O34 2.007171 1_555
Mn8 O47 2.007408 1_565
Mn8 O37 2.014428 1_555
Mn9 O24 1.884616 1_555
Mn9 O23 1.963756 1_545
Mn9 O25 1.999670 1_655
Mn9 O19 2.010091 1_555
Mn9 O28 2.011034 1_554
Mn9 O22 2.019038 1_555
Mn10 O26 1.875086 1_555
Mn10 O47 1.966480 1_555
Mn10 O9 1.973248 1_555
Mn10 O46 1.995679 1_555
Mn10 O30 1.998364 1_555
Mn10 O32 2.021799 1_655
Mn11 O35 1.884616 1_555
Mn11 O36 1.963756 1_565
Mn11 O34 1.999670 1_455
Mn11 O40 2.010091 1_555
Mn11 O31 2.011034 1_556
Mn11 O37 2.019038 1_555
Mn12 O38 1.872356 1_555
Mn12 O43 1.972658 1_555
Mn12 O36 1.985896 1_555
Mn12 O44 1.993231 1_555
Mn12 O32 1.999842 1_555
Mn12 O46 2.033066 1_555
Mn13 O3 1.978701 1_555
Mn13 O42 1.991055 1_555
Mn13 O44 1.996179 1_555
Mn13 O2 2.012624 1_555
Mn13 O45 2.012822 1_555
Mn13 O5 2.013296 1_555
