# generated using pymatgen
data_K4NpS2ClO10
_symmetry_space_group_name_H-M   'P 1'
_cell_length_a   4.58222900
_cell_length_b   10.23804100
_cell_length_c   15.72921968
_cell_angle_alpha   64.04634709
_cell_angle_beta   90.00000000
_cell_angle_gamma   90.00000000
_symmetry_Int_Tables_number   1
_chemical_formula_structural   K4NpS2ClO10
_chemical_formula_sum   'K8 Np2 S4 Cl2 O20'
_cell_volume   663.48664567
_cell_formula_units_Z   2
loop_
 _symmetry_equiv_pos_site_id
 _symmetry_equiv_pos_as_xyz
  1  'x, y, z'
loop_
 _atom_site_type_symbol
 _atom_site_label
 _atom_site_symmetry_multiplicity
 _atom_site_fract_x
 _atom_site_fract_y
 _atom_site_fract_z
 _atom_site_occupancy
  K  K0  1  0.23578600  0.83241000  0.60653500  1
  K  K1  1  0.77181600  0.56517700  0.86992400  1
  K  K2  1  0.76421400  0.83241000  0.10653500  1
  K  K3  1  0.76421400  0.16759000  0.39346500  1
  K  K4  1  0.22818400  0.43482300  0.13007600  1
  K  K5  1  0.77181600  0.43482300  0.63007600  1
  K  K6  1  0.23578600  0.16759000  0.89346500  1
  K  K7  1  0.22818400  0.56517700  0.36992400  1
  Np  Np0  1  0.73820100  0.00000000  0.75000000  1
  Np  Np1  1  0.26179900  0.00000000  0.25000000  1
  S  S0  1  0.34335000  0.20422400  0.56888900  1
  S  S1  1  0.65665000  0.79577600  0.43111100  1
  S  S2  1  0.65665000  0.20422400  0.06888900  1
  S  S3  1  0.34335000  0.79577600  0.93111100  1
  Cl  Cl0  1  0.26696600  0.50000000  0.75000000  1
  Cl  Cl1  1  0.73303400  0.50000000  0.25000000  1
  O  O0  1  0.25488000  0.82715500  0.01050000  1
  O  O1  1  0.33069400  0.18942900  0.08128500  1
  O  O2  1  0.26117300  0.84918600  0.21508800  1
  O  O3  1  0.33069400  0.81057100  0.41871500  1
  O  O4  1  0.77130000  0.08615700  0.16193900  1
  O  O5  1  0.74512000  0.82715500  0.51050000  1
  O  O6  1  0.66930600  0.18942900  0.58128500  1
  O  O7  1  0.74512000  0.17284500  0.98950000  1
  O  O8  1  0.22870000  0.91384300  0.83806100  1
  O  O9  1  0.74935300  0.34958200  0.05589900  1
  O  O10  1  0.25064700  0.65041800  0.94410100  1
  O  O11  1  0.74935300  0.65041800  0.44410100  1
  O  O12  1  0.77130000  0.91384300  0.33806100  1
  O  O13  1  0.22870000  0.08615700  0.66193900  1
  O  O14  1  0.25488000  0.17284500  0.48950000  1
  O  O15  1  0.73882700  0.84918600  0.71508800  1
  O  O16  1  0.25064700  0.34958200  0.55589900  1
  O  O17  1  0.73882700  0.15081400  0.78491200  1
  O  O18  1  0.26117300  0.15081400  0.28491200  1
  O  O19  1  0.66930600  0.81057100  0.91871500  1
loop_
_geom_bond_atom_site_label_1
_geom_bond_atom_site_label_2
_geom_bond_distance
_geom_bond_site_symmetry_2
K0 O5 2.722289 1_455
K0 O5 2.793354 1_555
K0 O15 2.896055 1_455
K0 O15 2.918019 1_555
K0 O13 3.080754 1_565
K0 O3 3.089490 1_555
K0 O14 3.150938 1_565
K1 O9 2.790720 1_556
K1 O10 2.797905 1_655
K1 O15 2.865409 1_555
K1 O10 2.952497 1_555
K1 O19 2.968024 1_555
K2 O0 2.722289 1_655
K2 O0 2.793354 1_555
K2 O2 2.896055 1_655
K2 O2 2.918019 1_555
K2 O4 3.080754 1_565
K2 O19 3.089490 1_554
K2 O7 3.150938 1_564
K3 O14 2.722289 1_655
K3 O14 2.793354 1_555
K3 O18 2.896055 1_655
K3 O18 2.918019 1_555
K3 O12 3.080754 1_545
K3 O6 3.089490 1_555
K3 O5 3.150938 1_545
K4 O10 2.790720 1_554
K4 O9 2.797905 1_455
K4 O18 2.865409 1_555
K4 O9 2.952497 1_555
K4 O1 2.968024 1_555
K5 O11 2.790720 1_555
K5 O16 2.797905 1_655
K5 O17 2.865409 1_555
K5 O16 2.952497 1_555
K5 O6 2.968024 1_555
K6 O7 2.722289 1_455
K6 O7 2.793354 1_555
K6 O17 2.896055 1_455
K6 O17 2.918019 1_555
K6 O8 3.080754 1_545
K6 O1 3.089490 1_556
K6 O0 3.150938 1_546
K7 O16 2.790720 1_555
K7 O11 2.797905 1_455
K7 O2 2.865409 1_555
K7 O11 2.952497 1_555
K7 O3 2.968024 1_555
Np0 O17 1.851424 1_555
Np0 O15 1.851424 1_545
Np1 O18 1.851424 1_555
Np1 O2 1.851424 1_545
Cl0 K6 3.157947 1_555
Cl0 K0 3.157947 1_555
Cl0 K1 3.202036 1_455
Cl0 K5 3.202036 1_455
Cl0 K1 3.233683 1_555
Cl0 K5 3.233683 1_555
Cl1 K3 3.157947 1_555
Cl1 K2 3.157947 1_555
Cl1 K7 3.202036 1_655
Cl1 K4 3.202036 1_655
Cl1 K7 3.233683 1_555
Cl1 K4 3.233683 1_555
O0 S3 1.475806 1_554
O1 S2 1.505313 1_555
O3 S1 1.505313 1_555
O4 S2 1.526675 1_555
O5 S1 1.475806 1_555
O6 S0 1.505313 1_555
O7 S2 1.475806 1_556
O8 S3 1.526675 1_555
O9 S2 1.473339 1_555
O10 S3 1.473339 1_555
O11 S1 1.473339 1_555
O12 S1 1.526675 1_555
O13 S0 1.526675 1_555
O14 S0 1.475806 1_555
O16 S0 1.473339 1_555
O19 S3 1.505313 1_555
