# generated using pymatgen
data_Sc44Os7
_symmetry_space_group_name_H-M   'P 1'
_cell_length_a   14.68609449
_cell_length_b   14.68609449
_cell_length_c   14.68609449
_cell_angle_alpha   60.00000000
_cell_angle_beta   60.00000000
_cell_angle_gamma   60.00000000
_symmetry_Int_Tables_number   1
_chemical_formula_structural   Sc44Os7
_chemical_formula_sum   'Sc88 Os14'
_cell_volume   2239.77274803
_cell_formula_units_Z   2
loop_
 _symmetry_equiv_pos_site_id
 _symmetry_equiv_pos_as_xyz
  1  'x, y, z'
loop_
 _atom_site_type_symbol
 _atom_site_label
 _atom_site_symmetry_multiplicity
 _atom_site_fract_x
 _atom_site_fract_y
 _atom_site_fract_z
 _atom_site_occupancy
  Sc  Sc0  1  0.99787700  0.42487800  0.78862300  1
  Sc  Sc1  1  0.50884100  0.16372000  0.16372000  1
  Sc  Sc2  1  0.87915600  0.51455500  0.09173500  1
  Sc  Sc3  1  0.64306700  0.85693300  0.64306700  1
  Sc  Sc4  1  0.85693300  0.64306700  0.85693300  1
  Sc  Sc5  1  0.30895300  0.30895300  0.07314000  1
  Sc  Sc6  1  0.51455500  0.87915600  0.51455500  1
  Sc  Sc7  1  0.99787700  0.78862300  0.78862300  1
  Sc  Sc8  1  0.87915600  0.09173500  0.51455500  1
  Sc  Sc9  1  0.02150800  0.02150800  0.29817800  1
  Sc  Sc10  1  0.53708900  0.28476000  0.89339100  1
  Sc  Sc11  1  0.44052300  0.44052300  0.44052300  1
  Sc  Sc12  1  0.29817800  0.02150800  0.65880600  1
  Sc  Sc13  1  0.02150800  0.65880600  0.29817800  1
  Sc  Sc14  1  0.28476000  0.53708900  0.89339100  1
  Sc  Sc15  1  0.66339100  0.66339100  0.22315000  1
  Sc  Sc16  1  0.81073200  0.18926800  0.18926800  1
  Sc  Sc17  1  0.78862300  0.99787700  0.42487800  1
  Sc  Sc18  1  0.44052300  0.44052300  0.67843200  1
  Sc  Sc19  1  0.22315000  0.66339100  0.66339100  1
  Sc  Sc20  1  0.65880600  0.02150800  0.02150800  1
  Sc  Sc21  1  0.65880600  0.29817800  0.02150800  1
  Sc  Sc22  1  0.51455500  0.09173500  0.51455500  1
  Sc  Sc23  1  0.16372000  0.16372000  0.16372000  1
  Sc  Sc24  1  0.18926800  0.18926800  0.81073200  1
  Sc  Sc25  1  0.02150800  0.65880600  0.02150800  1
  Sc  Sc26  1  0.81073200  0.81073200  0.18926800  1
  Sc  Sc27  1  0.78862300  0.78862300  0.99787700  1
  Sc  Sc28  1  0.64306700  0.64306700  0.85693300  1
  Sc  Sc29  1  0.89339100  0.53708900  0.28476000  1
  Sc  Sc30  1  0.85693300  0.85693300  0.64306700  1
  Sc  Sc31  1  0.28476000  0.89339100  0.28476000  1
  Sc  Sc32  1  0.28476000  0.28476000  0.53708900  1
  Sc  Sc33  1  0.07314000  0.30895300  0.30895300  1
  Sc  Sc34  1  0.09173500  0.87915600  0.51455500  1
  Sc  Sc35  1  0.78862300  0.42487800  0.78862300  1
  Sc  Sc36  1  0.51455500  0.51455500  0.09173500  1
  Sc  Sc37  1  0.45006700  0.22315000  0.66339100  1
  Sc  Sc38  1  0.18926800  0.81073200  0.81073200  1
  Sc  Sc39  1  0.02150800  0.29817800  0.02150800  1
  Sc  Sc40  1  0.51455500  0.51455500  0.87915600  1
  Sc  Sc41  1  0.78862300  0.78862300  0.42487800  1
  Sc  Sc42  1  0.05696300  0.05696300  0.82911100  1
  Sc  Sc43  1  0.22315000  0.66339100  0.45006700  1
  Sc  Sc44  1  0.09173500  0.51455500  0.87915600  1
  Sc  Sc45  1  0.67843200  0.44052300  0.44052300  1
  Sc  Sc46  1  0.45006700  0.66339100  0.22315000  1
  Sc  Sc47  1  0.28476000  0.53708900  0.28476000  1
  Sc  Sc48  1  0.42487800  0.78862300  0.78862300  1
  Sc  Sc49  1  0.30895300  0.07314000  0.30895300  1
  Sc  Sc50  1  0.42487800  0.78862300  0.99787700  1
  Sc  Sc51  1  0.42487800  0.99787700  0.78862300  1
  Sc  Sc52  1  0.09173500  0.51455500  0.51455500  1
  Sc  Sc53  1  0.89339100  0.28476000  0.53708900  1
  Sc  Sc54  1  0.66339100  0.45006700  0.66339100  1
  Sc  Sc55  1  0.53708900  0.28476000  0.28476000  1
  Sc  Sc56  1  0.51455500  0.87915600  0.09173500  1
  Sc  Sc57  1  0.16372000  0.50884100  0.16372000  1
  Sc  Sc58  1  0.64306700  0.85693300  0.85693300  1
  Sc  Sc59  1  0.89339100  0.28476000  0.28476000  1
  Sc  Sc60  1  0.02150800  0.02150800  0.65880600  1
  Sc  Sc61  1  0.66339100  0.22315000  0.66339100  1
  Sc  Sc62  1  0.81073200  0.18926800  0.81073200  1
  Sc  Sc63  1  0.66339100  0.22315000  0.45006700  1
  Sc  Sc64  1  0.53708900  0.89339100  0.28476000  1
  Sc  Sc65  1  0.05696300  0.82911100  0.05696300  1
  Sc  Sc66  1  0.44052300  0.67843200  0.44052300  1
  Sc  Sc67  1  0.87915600  0.51455500  0.51455500  1
  Sc  Sc68  1  0.66339100  0.66339100  0.45006700  1
  Sc  Sc69  1  0.05696300  0.05696300  0.05696300  1
  Sc  Sc70  1  0.18926800  0.81073200  0.18926800  1
  Sc  Sc71  1  0.29817800  0.65880600  0.02150800  1
  Sc  Sc72  1  0.82911100  0.05696300  0.05696300  1
  Sc  Sc73  1  0.45006700  0.66339100  0.66339100  1
  Sc  Sc74  1  0.28476000  0.28476000  0.89339100  1
  Sc  Sc75  1  0.22315000  0.45006700  0.66339100  1
  Sc  Sc76  1  0.28476000  0.89339100  0.53708900  1
  Sc  Sc77  1  0.78862300  0.99787700  0.78862300  1
  Sc  Sc78  1  0.78862300  0.42487800  0.99787700  1
  Sc  Sc79  1  0.51455500  0.09173500  0.87915600  1
  Sc  Sc80  1  0.65880600  0.02150800  0.29817800  1
  Sc  Sc81  1  0.02150800  0.29817800  0.65880600  1
  Sc  Sc82  1  0.66339100  0.45006700  0.22315000  1
  Sc  Sc83  1  0.29817800  0.02150800  0.02150800  1
  Sc  Sc84  1  0.16372000  0.16372000  0.50884100  1
  Sc  Sc85  1  0.99787700  0.78862300  0.42487800  1
  Sc  Sc86  1  0.30895300  0.30895300  0.30895300  1
  Sc  Sc87  1  0.85693300  0.64306700  0.64306700  1
  Os  Os0  1  0.09033100  0.09033100  0.40966900  1
  Os  Os1  1  0.91891800  0.24324700  0.91891800  1
  Os  Os2  1  0.09033100  0.40966900  0.40966900  1
  Os  Os3  1  0.40966900  0.40966900  0.09033100  1
  Os  Os4  1  0.91891800  0.91891800  0.24324700  1
  Os  Os5  1  0.65043900  0.65043900  0.04868300  1
  Os  Os6  1  0.65043900  0.04868300  0.65043900  1
  Os  Os7  1  0.09033100  0.40966900  0.09033100  1
  Os  Os8  1  0.04868300  0.65043900  0.65043900  1
  Os  Os9  1  0.24324700  0.91891800  0.91891800  1
  Os  Os10  1  0.65043900  0.65043900  0.65043900  1
  Os  Os11  1  0.40966900  0.09033100  0.09033100  1
  Os  Os12  1  0.40966900  0.09033100  0.40966900  1
  Os  Os13  1  0.91891800  0.91891800  0.91891800  1
loop_
_geom_bond_atom_site_label_1
_geom_bond_atom_site_label_2
_geom_bond_distance
_geom_bond_site_symmetry_2
Sc0 Sc24 3.168935 1_655
Sc1 Sc55 3.335660 1_555
Sc1 Sc10 3.335673 1_554
Sc1 Sc64 3.335673 1_545
Sc2 Sc29 3.128765 1_555
Sc2 Sc59 3.128773 1_555
Sc5 Sc74 3.036967 1_554
Sc6 Sc76 3.128779 1_555
Sc6 Sc64 3.128779 1_555
Sc10 Sc5 3.036976 1_556
Sc10 Sc79 3.128765 1_555
Sc10 Sc40 3.128779 1_555
Sc10 Sc62 3.283097 1_555
Sc10 Sc54 3.283488 1_555
Sc10 Sc61 3.283495 1_555
Sc10 Sc20 3.295558 1_556
Sc10 Sc21 3.295558 1_556
Sc10 Sc18 3.349851 1_555
Sc10 Sc14 3.705728 1_555
Sc10 Sc74 3.705728 1_555
Sc11 Sc43 3.238249 1_555
Sc11 Sc37 3.238249 1_555
Sc11 Sc75 3.238249 1_555
Sc11 Sc46 3.238249 1_555
Sc11 Sc82 3.238249 1_555
Sc11 Sc63 3.238249 1_555
Sc11 Sc55 3.349863 1_555
Sc11 Sc47 3.349863 1_555
Sc11 Sc32 3.349863 1_555
Sc11 Sc45 3.493954 1_555
Sc11 Sc66 3.493954 1_555
Sc11 Sc18 3.493954 1_555
Sc12 Sc32 3.295558 1_555
Sc12 Sc76 3.295558 1_545
Sc12 Sc38 3.405034 1_545
Sc12 Sc24 3.405034 1_555
Sc13 Sc47 3.295558 1_555
Sc13 Sc29 3.295558 1_455
Sc13 Sc70 3.405034 1_555
Sc13 Sc26 3.405034 1_455
Sc14 Sc5 3.036976 1_556
Sc14 Sc44 3.128765 1_555
Sc14 Sc40 3.128779 1_555
Sc14 Sc38 3.283097 1_555
Sc14 Sc73 3.283488 1_555
Sc14 Sc19 3.283495 1_555
Sc14 Sc25 3.295558 1_556
Sc14 Sc71 3.295558 1_556
Sc14 Sc57 3.335673 1_556
Sc14 Sc18 3.349851 1_555
Sc14 Sc74 3.705728 1_555
Sc15 Sc45 3.238251 1_555
Sc15 Sc66 3.238251 1_555
Sc15 Sc29 3.283495 1_555
Sc15 Sc64 3.283495 1_555
Sc15 Sc26 3.484404 1_555
Sc16 Sc78 3.168935 1_554
Sc16 Sc17 3.168935 1_545
Sc16 Sc69 3.217172 1_655
Sc16 Sc72 3.217172 1_555
Sc16 Sc59 3.283097 1_555
Sc16 Sc55 3.283097 1_555
Sc16 Sc80 3.405034 1_555
Sc16 Sc21 3.405034 1_555
Sc16 Sc9 3.405034 1_655
Sc16 Sc39 3.405034 1_655
Sc16 Sc63 3.484391 1_555
Sc16 Sc82 3.484391 1_555
Sc18 Sc54 3.238236 1_555
Sc18 Sc73 3.238236 1_555
Sc18 Sc61 3.238251 1_555
Sc18 Sc19 3.238251 1_555
Sc18 Sc75 3.238265 1_555
Sc18 Sc37 3.238265 1_555
Sc18 Sc74 3.349859 1_555
Sc18 Sc45 3.493954 1_555
Sc18 Sc66 3.493954 1_555
Sc19 Sc66 3.238251 1_555
Sc19 Sc76 3.283495 1_555
Sc19 Sc38 3.484404 1_555
Sc20 Sc64 3.295558 1_545
Sc20 Sc26 3.405034 1_545
Sc20 Sc62 3.405034 1_554
Sc21 Sc55 3.295558 1_555
Sc21 Sc62 3.405034 1_554
Sc22 Sc55 3.128773 1_555
Sc22 Sc32 3.128773 1_555
Sc23 Sc74 3.335670 1_554
Sc23 Sc59 3.335670 1_455
Sc23 Sc31 3.335670 1_545
Sc24 Sc51 3.168935 1_545
Sc24 Sc69 3.217172 1_556
Sc24 Sc42 3.217172 1_555
Sc24 Sc74 3.283097 1_555
Sc24 Sc32 3.283097 1_555
Sc24 Sc81 3.405034 1_555
Sc24 Sc83 3.405034 1_556
Sc24 Sc39 3.405034 1_556
Sc24 Sc37 3.484391 1_555
Sc24 Sc75 3.484391 1_555
Sc25 Sc29 3.295558 1_455
Sc25 Sc38 3.405034 1_554
Sc25 Sc26 3.405034 1_455
Sc26 Sc27 3.168927 1_554
Sc26 Sc41 3.168941 1_555
Sc26 Sc72 3.217172 1_565
Sc26 Sc65 3.217172 1_655
Sc26 Sc64 3.283097 1_555
Sc26 Sc29 3.283097 1_555
Sc26 Sc80 3.405034 1_565
Sc26 Sc68 3.484396 1_555
Sc29 Sc33 3.036976 1_655
Sc29 Sc67 3.128779 1_555
Sc29 Sc68 3.283488 1_555
Sc29 Sc57 3.335673 1_655
Sc29 Sc45 3.349851 1_555
Sc29 Sc59 3.705728 1_555
Sc29 Sc53 3.705728 1_555
Sc31 Sc49 3.036967 1_565
Sc31 Sc34 3.128773 1_555
Sc31 Sc56 3.128773 1_555
Sc31 Sc70 3.283097 1_555
Sc31 Sc46 3.283494 1_555
Sc31 Sc43 3.283494 1_555
Sc31 Sc83 3.295558 1_565
Sc31 Sc9 3.295558 1_565
Sc31 Sc66 3.349859 1_555
Sc31 Sc64 3.705728 1_555
Sc31 Sc76 3.705728 1_555
Sc32 Sc86 3.036982 1_555
Sc32 Sc52 3.128773 1_555
Sc32 Sc37 3.283482 1_555
Sc32 Sc75 3.283482 1_555
Sc32 Sc81 3.295558 1_555
Sc32 Sc84 3.335660 1_555
Sc32 Sc55 3.705728 1_555
Sc32 Sc47 3.705728 1_555
Sc33 Sc59 3.036967 1_455
Sc33 Sc53 3.036976 1_455
Sc34 Sc76 3.128765 1_555
Sc35 Sc62 3.168941 1_555
Sc36 Sc55 3.128773 1_555
Sc36 Sc47 3.128773 1_555
Sc37 Sc74 3.283494 1_555
Sc38 Sc7 3.168927 1_455
Sc38 Sc48 3.168941 1_555
Sc38 Sc65 3.217172 1_556
Sc38 Sc42 3.217172 1_565
Sc38 Sc76 3.283097 1_555
Sc38 Sc60 3.405034 1_565
Sc38 Sc71 3.405034 1_556
Sc38 Sc73 3.484396 1_555
Sc39 Sc74 3.295558 1_554
Sc39 Sc59 3.295558 1_455
Sc42 Sc62 3.217172 1_455
Sc43 Sc66 3.238265 1_555
Sc43 Sc47 3.283482 1_555
Sc43 Sc70 3.484391 1_555
Sc44 Sc74 3.128773 1_555
Sc45 Sc68 3.238236 1_555
Sc45 Sc54 3.238236 1_555
Sc45 Sc61 3.238251 1_555
Sc45 Sc63 3.238265 1_555
Sc45 Sc82 3.238265 1_555
Sc45 Sc53 3.349851 1_555
Sc45 Sc59 3.349859 1_555
Sc45 Sc66 3.493954 1_555
Sc46 Sc66 3.238265 1_555
Sc46 Sc47 3.283482 1_555
Sc46 Sc70 3.484391 1_555
Sc47 Sc86 3.036982 1_555
Sc47 Sc52 3.128773 1_555
Sc47 Sc70 3.283097 1_555
Sc47 Sc71 3.295558 1_555
Sc47 Sc57 3.335660 1_555
Sc47 Sc55 3.705728 1_555
Sc49 Sc76 3.036976 1_545
Sc49 Sc64 3.036976 1_545
Sc50 Sc70 3.168935 1_556
Sc53 Sc8 3.128765 1_555
Sc53 Sc67 3.128779 1_555
Sc53 Sc62 3.283097 1_555
Sc53 Sc54 3.283488 1_555
Sc53 Sc61 3.283495 1_555
Sc53 Sc60 3.295558 1_655
Sc53 Sc81 3.295558 1_655
Sc53 Sc84 3.335673 1_655
Sc53 Sc59 3.705728 1_555
Sc54 Sc62 3.484396 1_555
Sc55 Sc86 3.036982 1_555
Sc55 Sc82 3.283482 1_555
Sc55 Sc63 3.283482 1_555
Sc55 Sc80 3.295558 1_555
Sc56 Sc64 3.128765 1_555
Sc59 Sc8 3.128773 1_555
Sc59 Sc82 3.283494 1_555
Sc59 Sc63 3.283494 1_555
Sc59 Sc9 3.295558 1_655
Sc60 Sc76 3.295558 1_545
Sc60 Sc62 3.405034 1_455
Sc61 Sc62 3.484404 1_555
Sc62 Sc77 3.168927 1_545
Sc62 Sc72 3.217172 1_556
Sc62 Sc81 3.405034 1_655
Sc64 Sc68 3.283488 1_555
Sc64 Sc80 3.295558 1_565
Sc64 Sc66 3.349851 1_555
Sc64 Sc76 3.705728 1_555
Sc65 Sc70 3.217172 1_555
Sc66 Sc68 3.238236 1_555
Sc66 Sc73 3.238236 1_555
Sc66 Sc76 3.349851 1_555
Sc69 Sc70 3.217172 1_545
Sc70 Sc85 3.168935 1_455
Sc70 Sc71 3.405034 1_555
Sc70 Sc9 3.405034 1_565
Sc70 Sc83 3.405034 1_565
Sc73 Sc76 3.283488 1_555
Sc74 Sc79 3.128773 1_555
Sc74 Sc75 3.283494 1_555
Sc74 Sc83 3.295558 1_556
Sc76 Sc84 3.335673 1_565
Os0 Sc34 2.679936 1_545
Os0 Sc8 2.679936 1_455
Os0 Sc49 2.715505 1_555
Os0 Sc33 2.715505 1_555
Os0 Sc23 2.957301 1_555
Os0 Sc84 2.957314 1_555
Os0 Sc9 3.009265 1_555
Os0 Sc60 3.009265 1_555
Os0 Sc53 3.419466 1_455
Os0 Sc76 3.419466 1_545
Os0 Sc31 3.419466 1_545
Os0 Sc59 3.419466 1_455
Os1 Sc78 2.809191 1_555
Os1 Sc0 2.809191 1_555
Os1 Sc35 2.809191 1_555
Os1 Sc69 2.953324 1_656
Os1 Sc72 2.953332 1_556
Os1 Sc42 2.953332 1_655
Os1 Sc39 3.145098 1_656
Os1 Sc21 3.145110 1_556
Os1 Sc81 3.145110 1_655
Os1 Sc24 3.274226 1_655
Os1 Sc16 3.274226 1_556
Os1 Sc62 3.274239 1_555
Os2 Sc67 2.679941 1_455
Os2 Sc52 2.679949 1_555
Os2 Sc86 2.715508 1_555
Os2 Sc33 2.715517 1_555
Os2 Sc84 2.957302 1_555
Os2 Sc57 2.957302 1_555
Os2 Sc13 3.009265 1_555
Os2 Sc81 3.009265 1_555
Os2 Sc47 3.419466 1_555
Os2 Sc32 3.419466 1_555
Os2 Sc53 3.419466 1_455
Os2 Sc29 3.419466 1_455
Os3 Sc40 2.679941 1_554
Os3 Sc36 2.679949 1_555
Os3 Sc86 2.715508 1_555
Os3 Sc5 2.715517 1_555
Os3 Sc1 2.957302 1_555
Os3 Sc57 2.957302 1_555
Os3 Sc71 3.009265 1_555
Os3 Sc21 3.009265 1_555
Os3 Sc55 3.419466 1_555
Os3 Sc47 3.419466 1_555
Os3 Sc10 3.419466 1_554
Os3 Sc14 3.419466 1_554
Os4 Sc85 2.809191 1_555
Os4 Sc17 2.809191 1_555
Os4 Sc41 2.809191 1_555
Os4 Sc69 2.953324 1_665
Os4 Sc72 2.953332 1_565
Os4 Sc65 2.953332 1_655
Os4 Sc9 3.145098 1_665
Os4 Sc80 3.145110 1_565
Os4 Sc13 3.145110 1_655
Os4 Sc70 3.274226 1_655
Os4 Sc16 3.274226 1_565
Os4 Sc26 3.274239 1_555
Os5 Sc15 2.765567 1_555
Os5 Sc46 2.765575 1_555
Os5 Sc82 2.765575 1_555
Os5 Sc4 2.928330 1_554
Os5 Sc58 2.928330 1_554
Os5 Sc28 2.928330 1_554
Os5 Sc36 3.134258 1_555
Os5 Sc2 3.134271 1_555
Os5 Sc56 3.134271 1_555
Os5 Sc78 3.143791 1_554
Os5 Sc50 3.143791 1_554
Os5 Sc27 3.143804 1_554
Os6 Sc61 2.765567 1_555
Os6 Sc63 2.765575 1_555
Os6 Sc37 2.765575 1_555
Os6 Sc30 2.928330 1_545
Os6 Sc58 2.928330 1_545
Os6 Sc3 2.928330 1_545
Os6 Sc22 3.134258 1_555
Os6 Sc79 3.134271 1_555
Os6 Sc8 3.134271 1_555
Os6 Sc17 3.143791 1_545
Os6 Sc51 3.143791 1_545
Os6 Sc77 3.143804 1_545
Os7 Sc44 2.679936 1_554
Os7 Sc2 2.679936 1_455
Os7 Sc5 2.715505 1_555
Os7 Sc33 2.715505 1_555
Os7 Sc23 2.957301 1_555
Os7 Sc57 2.957314 1_555
Os7 Sc39 3.009265 1_555
Os7 Sc25 3.009265 1_555
Os7 Sc14 3.419466 1_554
Os7 Sc29 3.419466 1_455
Os7 Sc74 3.419466 1_554
Os7 Sc59 3.419466 1_455
Os8 Sc19 2.765567 1_555
Os8 Sc43 2.765575 1_555
Os8 Sc75 2.765575 1_555
Os8 Sc4 2.928330 1_455
Os8 Sc30 2.928330 1_455
Os8 Sc87 2.928330 1_455
Os8 Sc52 3.134258 1_555
Os8 Sc44 3.134271 1_555
Os8 Sc34 3.134271 1_555
Os8 Sc0 3.143791 1_455
Os8 Sc85 3.143791 1_455
Os8 Sc7 3.143804 1_455
Os9 Sc51 2.809191 1_555
Os9 Sc50 2.809191 1_555
Os9 Sc48 2.809191 1_555
Os9 Sc69 2.953324 1_566
Os9 Sc65 2.953332 1_556
Os9 Sc42 2.953332 1_565
Os9 Sc83 3.145098 1_566
Os9 Sc12 3.145110 1_565
Os9 Sc71 3.145110 1_556
Os9 Sc24 3.274226 1_565
Os9 Sc70 3.274226 1_556
Os9 Sc38 3.274239 1_555
Os10 Sc73 2.765582 1_555
Os10 Sc54 2.765582 1_555
Os10 Sc68 2.765582 1_555
Os10 Sc87 2.928330 1_555
Os10 Sc28 2.928330 1_555
Os10 Sc3 2.928330 1_555
Os10 Sc6 3.134265 1_555
Os10 Sc40 3.134265 1_555
Os10 Sc67 3.134265 1_555
Os10 Sc35 3.143798 1_555
Os10 Sc41 3.143798 1_555
Os10 Sc48 3.143798 1_555
Os11 Sc79 2.679936 1_554
Os11 Sc56 2.679936 1_545
Os11 Sc49 2.715505 1_555
Os11 Sc5 2.715505 1_555
Os11 Sc23 2.957301 1_555
Os11 Sc1 2.957314 1_555
Os11 Sc83 3.009265 1_555
Os11 Sc20 3.009265 1_555
Os11 Sc10 3.419466 1_554
Os11 Sc64 3.419466 1_545
Os11 Sc31 3.419466 1_545
Os11 Sc74 3.419466 1_554
Os12 Sc6 2.679941 1_545
Os12 Sc22 2.679949 1_555
Os12 Sc86 2.715508 1_555
Os12 Sc49 2.715517 1_555
Os12 Sc1 2.957302 1_555
Os12 Sc84 2.957302 1_555
Os12 Sc80 3.009265 1_555
Os12 Sc12 3.009265 1_555
Os12 Sc55 3.419466 1_555
Os12 Sc32 3.419466 1_555
Os12 Sc76 3.419466 1_545
Os12 Sc64 3.419466 1_545
Os13 Sc77 2.809191 1_555
Os13 Sc27 2.809191 1_555
Os13 Sc7 2.809191 1_555
Os13 Sc72 2.953320 1_566
Os13 Sc42 2.953320 1_665
Os13 Sc65 2.953320 1_656
Os13 Sc60 3.145109 1_665
Os13 Sc20 3.145109 1_566
Os13 Sc25 3.145109 1_656
Os13 Sc62 3.274228 1_565
Os13 Sc38 3.274228 1_655
Os13 Sc26 3.274228 1_556
