# generated using pymatgen
data_K2CoF4
_symmetry_space_group_name_H-M   'P 1'
_cell_length_a   7.22412687
_cell_length_b   7.22412687
_cell_length_c   7.22412687
_cell_angle_alpha   146.82045818
_cell_angle_beta   146.82045818
_cell_angle_gamma   47.62969693
_symmetry_Int_Tables_number   1
_chemical_formula_structural   K2CoF4
_chemical_formula_sum   'K2 Co1 F4'
_cell_volume   112.46908195
_cell_formula_units_Z   1
loop_
 _symmetry_equiv_pos_site_id
 _symmetry_equiv_pos_as_xyz
  1  'x, y, z'
loop_
 _atom_site_type_symbol
 _atom_site_label
 _atom_site_symmetry_multiplicity
 _atom_site_fract_x
 _atom_site_fract_y
 _atom_site_fract_z
 _atom_site_occupancy
  K  K0  1  0.35524400  0.35524400  0.00000000  1
  K  K1  1  0.64475600  0.64475600  0.00000000  1
  Co  Co0  1  0.00000000  0.00000000  0.00000000  1
  F  F0  1  0.00000000  0.50000000  0.50000000  1
  F  F1  1  0.50000000  0.00000000  0.50000000  1
  F  F2  1  0.84583600  0.84583600  0.00000000  1
  F  F3  1  0.15416400  0.15416400  0.00000000  1
loop_
_geom_bond_atom_site_label_1
_geom_bond_atom_site_label_2
_geom_bond_distance
_geom_bond_site_symmetry_2
Co0 F2 2.037749 1_445
Co0 F3 2.037749 1_555
Co0 F1 2.062613 1_454
Co0 F0 2.062613 1_544
Co0 F1 2.062613 1_555
Co0 F0 2.062613 1_555
F0 K1 2.813440 1_556
F0 K0 2.813440 1_455
F0 K1 2.813440 1_455
F0 K0 2.813440 1_556
F1 K0 2.813440 1_545
F1 K0 2.813440 1_556
F1 K1 2.813440 1_556
F1 K1 2.813440 1_545
F2 K1 2.657887 1_555
F2 K0 2.919625 1_655
F2 K0 2.919625 1_554
F2 K0 2.919625 1_565
F2 K0 2.919625 1_666
F3 K0 2.657887 1_555
F3 K1 2.919625 1_545
F3 K1 2.919625 1_455
F3 K1 2.919625 1_556
F3 K1 2.919625 1_444
