# generated using pymatgen
data_CdBiSe2I
_symmetry_space_group_name_H-M   'P 1'
_cell_length_a   7.20542653
_cell_length_b   7.20542653
_cell_length_c   10.32339129
_cell_angle_alpha   88.66440062
_cell_angle_beta   88.66440062
_cell_angle_gamma   34.03024538
_symmetry_Int_Tables_number   1
_chemical_formula_structural   CdBiSe2I
_chemical_formula_sum   'Cd2 Bi2 Se4 I2'
_cell_volume   299.85691044
_cell_formula_units_Z   2
loop_
 _symmetry_equiv_pos_site_id
 _symmetry_equiv_pos_as_xyz
  1  'x, y, z'
loop_
 _atom_site_type_symbol
 _atom_site_label
 _atom_site_symmetry_multiplicity
 _atom_site_fract_x
 _atom_site_fract_y
 _atom_site_fract_z
 _atom_site_occupancy
  Cd  Cd0  1  -0.00000000  -0.00000000  0.50000000  1
  Cd  Cd1  1  -0.00000000  -0.00000000  0.00000000  1
  Bi  Bi0  1  0.71425565  0.71425565  0.68427906  1
  Bi  Bi1  1  0.28574435  0.28574435  0.31572094  1
  Se  Se0  1  0.64209564  0.64209564  0.44205701  1
  Se  Se1  1  0.35790436  0.35790436  0.55794299  1
  Se  Se2  1  0.08050922  0.08050922  0.73982705  1
  Se  Se3  1  0.91949078  0.91949078  0.26017295  1
  I  I0  1  0.36201090  0.36201090  0.92532738  1
  I  I1  1  0.63798910  0.63798910  0.07467262  1
loop_
_geom_bond_atom_site_label_1
_geom_bond_atom_site_label_2
_geom_bond_distance
_geom_bond_site_symmetry_2
Cd0 Se3 2.737599 1_445
Cd0 Se2 2.737599 1_555
Cd0 Se1 2.929249 1_545
Cd0 Se0 2.929249 1_455
Cd0 Se1 2.929249 1_455
Cd0 Se0 2.929249 1_545
Cd1 Se3 2.880874 1_445
Cd1 Se2 2.880874 1_554
Cd1 I1 2.954166 1_455
Cd1 I1 2.954166 1_545
Cd1 I0 2.954166 1_544
Cd1 I0 2.954166 1_454
Bi0 Se0 2.713439 1_555
Bi0 Se2 2.849523 1_565
Bi0 Se2 2.849523 1_655
Bi0 Se1 3.152647 1_565
Bi0 Se1 3.152647 1_655
Bi1 Se1 2.713439 1_555
Bi1 Se3 2.849523 1_545
Bi1 Se3 2.849523 1_455
Bi1 Se0 3.152647 1_545
Bi1 Se0 3.152647 1_455
