# generated using pymatgen
data_Mn(PO3)3
_symmetry_space_group_name_H-M   'P 1'
_cell_length_a   6.46537200
_cell_length_b   9.90166900
_cell_length_c   10.89400100
_cell_angle_alpha   90.00000000
_cell_angle_beta   90.00000000
_cell_angle_gamma   90.00000000
_symmetry_Int_Tables_number   1
_chemical_formula_structural   Mn(PO3)3
_chemical_formula_sum   'Mn4 P12 O36'
_cell_volume   697.41186739
_cell_formula_units_Z   4
loop_
 _symmetry_equiv_pos_site_id
 _symmetry_equiv_pos_as_xyz
  1  'x, y, z'
loop_
 _atom_site_type_symbol
 _atom_site_label
 _atom_site_symmetry_multiplicity
 _atom_site_fract_x
 _atom_site_fract_y
 _atom_site_fract_z
 _atom_site_occupancy
  Mn  Mn0  1  0.50000000  0.50000000  0.00000000  1
  Mn  Mn1  1  0.50000000  0.00000000  0.50000000  1
  Mn  Mn2  1  0.00000000  0.50000000  0.50000000  1
  Mn  Mn3  1  0.00000000  0.00000000  0.00000000  1
  P  P0  1  0.86731500  0.21432700  0.36441000  1
  P  P1  1  0.63268500  0.71432700  0.36441000  1
  P  P2  1  0.36731500  0.78567300  0.86441000  1
  P  P3  1  0.25000000  0.58494300  0.25000000  1
  P  P4  1  0.86731500  0.71432700  0.13559000  1
  P  P5  1  0.75000000  0.41505700  0.75000000  1
  P  P6  1  0.13268500  0.28567300  0.86441000  1
  P  P7  1  0.36731500  0.28567300  0.63559000  1
  P  P8  1  0.25000000  0.08494300  0.25000000  1
  P  P9  1  0.13268500  0.78567300  0.63559000  1
  P  P10  1  0.75000000  0.91505700  0.75000000  1
  P  P11  1  0.63268500  0.21432700  0.13559000  1
  O  O0  1  0.25000000  0.71493300  0.75000000  1
  O  O1  1  0.39009300  0.67997900  0.96371600  1
  O  O2  1  0.73225400  0.58515100  0.40110700  1
  O  O3  1  0.23225400  0.41484900  0.90110700  1
  O  O4  1  0.34924200  0.49759900  0.15368200  1
  O  O5  1  0.10990700  0.67997900  0.53628400  1
  O  O6  1  0.59428500  0.30939200  0.69174000  1
  O  O7  1  0.09428500  0.69060800  0.19174000  1
  O  O8  1  0.84924200  0.00240100  0.84631800  1
  O  O9  1  0.65075800  0.50240100  0.84631800  1
  O  O10  1  0.25000000  0.21493300  0.75000000  1
  O  O11  1  0.76774600  0.08515100  0.40110700  1
  O  O12  1  0.75000000  0.28506700  0.25000000  1
  O  O13  1  0.65075800  0.00240100  0.65368200  1
  O  O14  1  0.15075800  0.49759900  0.34631800  1
  O  O15  1  0.84924200  0.50240100  0.65368200  1
  O  O16  1  0.40571500  0.69060800  0.30826000  1
  O  O17  1  0.26774600  0.41484900  0.59889300  1
  O  O18  1  0.59428500  0.80939200  0.80826000  1
  O  O19  1  0.40571500  0.19060800  0.19174000  1
  O  O20  1  0.60990700  0.82002100  0.46371600  1
  O  O21  1  0.90571500  0.30939200  0.80826000  1
  O  O22  1  0.90571500  0.80939200  0.69174000  1
  O  O23  1  0.76774600  0.58515100  0.09889300  1
  O  O24  1  0.34924200  0.99759900  0.34631800  1
  O  O25  1  0.10990700  0.17997900  0.96371600  1
  O  O26  1  0.89009300  0.32002100  0.46371600  1
  O  O27  1  0.73225400  0.08515100  0.09889300  1
  O  O28  1  0.09428500  0.19060800  0.30826000  1
  O  O29  1  0.15075800  0.99759900  0.15368200  1
  O  O30  1  0.23225400  0.91484900  0.59889300  1
  O  O31  1  0.39009300  0.17997900  0.53628400  1
  O  O32  1  0.60990700  0.32002100  0.03628400  1
  O  O33  1  0.26774600  0.91484900  0.90110700  1
  O  O34  1  0.89009300  0.82002100  0.03628400  1
  O  O35  1  0.75000000  0.78506700  0.25000000  1
loop_
_geom_bond_atom_site_label_1
_geom_bond_atom_site_label_2
_geom_bond_distance
_geom_bond_site_symmetry_2
Mn0 O9 1.937422 1_554
Mn0 O4 1.937422 1_555
Mn0 O32 1.958835 1_555
Mn0 O1 1.958835 1_554
Mn0 O23 2.206393 1_555
Mn0 O3 2.206393 1_554
Mn1 O13 1.937422 1_555
Mn1 O24 1.937422 1_545
Mn1 O31 1.958835 1_555
Mn1 O20 1.958835 1_545
Mn1 O30 2.206393 1_545
Mn1 O11 2.206393 1_555
Mn2 O15 1.937422 1_455
Mn2 O14 1.937422 1_555
Mn2 O26 1.958835 1_455
Mn2 O5 1.958835 1_555
Mn2 O2 2.206393 1_455
Mn2 O17 2.206393 1_555
Mn3 O8 1.937422 1_454
Mn3 O29 1.937422 1_545
Mn3 O34 1.958835 1_445
Mn3 O25 1.958835 1_554
Mn3 O27 2.206393 1_455
Mn3 O33 2.206393 1_544
O0 P2 1.618453 1_555
O0 P9 1.618453 1_555
O1 P2 1.512391 1_555
O2 P1 1.486683 1_555
O3 P6 1.486683 1_555
O4 P3 1.503553 1_555
O5 P9 1.512391 1_555
O6 P5 1.584626 1_555
O6 P7 1.607087 1_555
O7 P3 1.584626 1_555
O7 P4 1.607087 1_455
O8 P10 1.503553 1_545
O9 P5 1.503553 1_555
O10 P7 1.618453 1_555
O10 P6 1.618453 1_555
O11 P0 1.486683 1_555
O12 P11 1.618453 1_555
O12 P0 1.618453 1_555
O13 P10 1.503553 1_545
O14 P3 1.503553 1_555
O15 P5 1.503553 1_555
O16 P3 1.584626 1_555
O16 P1 1.607087 1_555
O17 P7 1.486683 1_555
O18 P10 1.584626 1_555
O18 P2 1.607087 1_555
O19 P8 1.584626 1_555
O19 P11 1.607087 1_555
O20 P1 1.512391 1_555
O21 P5 1.584626 1_555
O21 P6 1.607087 1_655
O22 P10 1.584626 1_555
O22 P9 1.607087 1_655
O23 P4 1.486683 1_555
O24 P8 1.503553 1_565
O25 P6 1.512391 1_555
O26 P0 1.512391 1_555
O27 P11 1.486683 1_555
O28 P8 1.584626 1_555
O28 P0 1.607087 1_455
O29 P8 1.503553 1_565
O30 P9 1.486683 1_555
O31 P7 1.512391 1_555
O32 P11 1.512391 1_555
O33 P2 1.486683 1_555
O34 P4 1.512391 1_555
O35 P1 1.618453 1_555
O35 P4 1.618453 1_555
