# generated using pymatgen
data_Ca3GaAs3
_symmetry_space_group_name_H-M   'P 1'
_cell_length_a   4.20101051
_cell_length_b   12.21406805
_cell_length_c   13.44415266
_cell_angle_alpha   90.00000000
_cell_angle_beta   90.00000000
_cell_angle_gamma   90.00000000
_symmetry_Int_Tables_number   1
_chemical_formula_structural   Ca3GaAs3
_chemical_formula_sum   'Ca12 Ga4 As12'
_cell_volume   689.83867457
_cell_formula_units_Z   4
loop_
 _symmetry_equiv_pos_site_id
 _symmetry_equiv_pos_as_xyz
  1  'x, y, z'
loop_
 _atom_site_type_symbol
 _atom_site_label
 _atom_site_symmetry_multiplicity
 _atom_site_fract_x
 _atom_site_fract_y
 _atom_site_fract_z
 _atom_site_occupancy
  Ca  Ca0  1  0.75000000  0.22758607  0.21587201  1
  Ca  Ca1  1  0.25000000  0.77241393  0.78412799  1
  Ca  Ca2  1  0.75000000  0.72758607  0.28412799  1
  Ca  Ca3  1  0.25000000  0.27241393  0.71587201  1
  Ca  Ca4  1  0.75000000  0.93654203  0.10877014  1
  Ca  Ca5  1  0.25000000  0.06345797  0.89122986  1
  Ca  Ca6  1  0.75000000  0.43654203  0.39122986  1
  Ca  Ca7  1  0.25000000  0.56345797  0.60877014  1
  Ca  Ca8  1  0.75000000  0.14819303  0.50128962  1
  Ca  Ca9  1  0.25000000  0.85180697  0.49871038  1
  Ca  Ca10  1  0.75000000  0.64819303  0.99871038  1
  Ca  Ca11  1  0.25000000  0.35180697  0.00128962  1
  Ga  Ga0  1  0.75000000  0.93641303  0.70226725  1
  Ga  Ga1  1  0.25000000  0.06358697  0.29773275  1
  Ga  Ga2  1  0.75000000  0.43641303  0.79773275  1
  Ga  Ga3  1  0.25000000  0.56358697  0.20226725  1
  As  As0  1  0.75000000  0.89289197  0.88633179  1
  As  As1  1  0.25000000  0.10710803  0.11366821  1
  As  As2  1  0.75000000  0.39289197  0.61366821  1
  As  As3  1  0.25000000  0.60710803  0.38633179  1
  As  As4  1  0.75000000  0.75045334  0.62244395  1
  As  As5  1  0.25000000  0.24954666  0.37755605  1
  As  As6  1  0.75000000  0.25045334  0.87755605  1
  As  As7  1  0.25000000  0.74954666  0.12244395  1
  As  As8  1  0.75000000  0.45893215  0.14954435  1
  As  As9  1  0.25000000  0.54106785  0.85045565  1
  As  As10  1  0.75000000  0.95893215  0.35045565  1
  As  As11  1  0.25000000  0.04106785  0.64954435  1
loop_
_geom_bond_atom_site_label_1
_geom_bond_atom_site_label_2
_geom_bond_distance
_geom_bond_site_symmetry_2
Ca0 Ga1 3.104146 1_655
Ca0 Ga1 3.104146 1_555
Ca1 Ga0 3.104146 1_555
Ca1 Ga0 3.104146 1_455
Ca2 Ga3 3.104146 1_655
Ca2 Ga3 3.104146 1_555
Ca3 Ga2 3.104146 1_455
Ca3 Ga2 3.104146 1_555
As0 Ga0 2.531041 1_555
As0 Ca1 2.909555 1_555
As0 Ca1 2.909555 1_655
As0 Ca5 2.959158 1_665
As0 Ca5 2.959158 1_565
As0 Ca4 3.037648 1_556
As0 Ca10 3.348935 1_555
As1 Ga1 2.531041 1_555
As1 Ca0 2.909555 1_455
As1 Ca0 2.909555 1_555
As1 Ca4 2.959158 1_545
As1 Ca4 2.959158 1_445
As1 Ca5 3.037648 1_554
As1 Ca11 3.348935 1_555
As2 Ga2 2.531041 1_555
As2 Ca3 2.909555 1_655
As2 Ca3 2.909555 1_555
As2 Ca7 2.959158 1_655
As2 Ca7 2.959158 1_555
As2 Ca6 3.037648 1_555
As2 Ca8 3.348935 1_555
As3 Ga3 2.531041 1_555
As3 Ca2 2.909555 1_455
As3 Ca2 2.909555 1_555
As3 Ca6 2.959158 1_455
As3 Ca6 2.959158 1_555
As3 Ca7 3.037648 1_555
As3 Ca9 3.348935 1_555
As4 Ga0 2.512087 1_555
As4 Ca9 2.951580 1_655
As4 Ca9 2.951580 1_555
As4 Ca1 3.034644 1_555
As4 Ca1 3.034644 1_655
As4 Ca7 3.108449 1_655
As4 Ca7 3.108449 1_555
As5 Ga1 2.512087 1_555
As5 Ca8 2.951580 1_555
As5 Ca8 2.951580 1_455
As5 Ca0 3.034644 1_555
As5 Ca0 3.034644 1_455
As5 Ca6 3.108449 1_455
As5 Ca6 3.108449 1_555
As6 Ga2 2.512087 1_555
As6 Ca11 2.951580 1_656
As6 Ca11 2.951580 1_556
As6 Ca3 3.034644 1_555
As6 Ca3 3.034644 1_655
As6 Ca5 3.108449 1_555
As6 Ca5 3.108449 1_655
As7 Ga3 2.512087 1_555
As7 Ca10 2.951580 1_554
As7 Ca10 2.951580 1_454
As7 Ca2 3.034644 1_555
As7 Ca2 3.034644 1_455
As7 Ca4 3.108449 1_455
As7 Ca4 3.108449 1_555
As8 Ga3 2.559002 1_555
As8 Ga3 2.559002 1_655
As8 Ca0 2.963041 1_555
As8 Ca10 3.075031 1_554
As8 Ca11 3.177547 1_555
As8 Ca11 3.177547 1_655
As8 Ca6 3.260745 1_555
As9 Ga2 2.559002 1_555
As9 Ga2 2.559002 1_455
As9 Ca1 2.963041 1_555
As9 Ca11 3.075031 1_556
As9 Ca10 3.177547 1_555
As9 Ca10 3.177547 1_455
As9 Ca7 3.260745 1_555
As10 Ga1 2.559002 1_665
As10 Ga1 2.559002 1_565
As10 Ca2 2.963041 1_555
As10 Ca8 3.075031 1_565
As10 Ca9 3.177547 1_555
As10 Ca9 3.177547 1_655
As10 Ca4 3.260745 1_555
As11 Ga0 2.559002 1_445
As11 Ga0 2.559002 1_545
As11 Ca3 2.963041 1_555
As11 Ca9 3.075031 1_545
As11 Ca8 3.177547 1_555
As11 Ca8 3.177547 1_455
As11 Ca5 3.260745 1_555
