# generated using pymatgen
data_Ni4(Bi4I)3
_symmetry_space_group_name_H-M   'P 1'
_cell_length_a   8.30193412
_cell_length_b   8.30193412
_cell_length_c   34.93053600
_cell_angle_alpha   90.00000000
_cell_angle_beta   90.00000000
_cell_angle_gamma   151.50991778
_symmetry_Int_Tables_number   1
_chemical_formula_structural   Ni4(Bi4I)3
_chemical_formula_sum   'Ni8 Bi24 I6'
_cell_volume   1148.38690764
_cell_formula_units_Z   2
loop_
 _symmetry_equiv_pos_site_id
 _symmetry_equiv_pos_as_xyz
  1  'x, y, z'
loop_
 _atom_site_type_symbol
 _atom_site_label
 _atom_site_symmetry_multiplicity
 _atom_site_fract_x
 _atom_site_fract_y
 _atom_site_fract_z
 _atom_site_occupancy
  Ni  Ni0  1  0.51529800  0.48470200  0.85369800  1
  Ni  Ni1  1  0.48470200  0.51529800  0.14630200  1
  Ni  Ni2  1  0.48470200  0.51529800  0.35369800  1
  Ni  Ni3  1  0.51529800  0.48470200  0.64630200  1
  Ni  Ni4  1  0.93728400  0.06271600  0.87920500  1
  Ni  Ni5  1  0.06271600  0.93728400  0.12079500  1
  Ni  Ni6  1  0.06271600  0.93728400  0.37920500  1
  Ni  Ni7  1  0.93728400  0.06271600  0.62079500  1
  Bi  Bi0  1  0.98421900  0.01578100  0.80236800  1
  Bi  Bi1  1  0.01578100  0.98421900  0.19763200  1
  Bi  Bi2  1  0.01578100  0.98421900  0.30236800  1
  Bi  Bi3  1  0.98421900  0.01578100  0.69763200  1
  Bi  Bi4  1  0.33917500  0.66082500  0.85307200  1
  Bi  Bi5  1  0.66082500  0.33917500  0.14692800  1
  Bi  Bi6  1  0.66082500  0.33917500  0.35307200  1
  Bi  Bi7  1  0.33917500  0.66082500  0.64692800  1
  Bi  Bi8  1  0.11178800  0.88821200  0.88025200  1
  Bi  Bi9  1  0.88821200  0.11178800  0.11974800  1
  Bi  Bi10  1  0.88821200  0.11178800  0.38025200  1
  Bi  Bi11  1  0.11178800  0.88821200  0.61974800  1
  Bi  Bi12  1  0.46782100  0.53217900  0.93097500  1
  Bi  Bi13  1  0.53217900  0.46782100  0.06902500  1
  Bi  Bi14  1  0.53217900  0.46782100  0.43097500  1
  Bi  Bi15  1  0.46782100  0.53217900  0.56902500  1
  Bi  Bi16  1  0.64327300  0.35672700  0.80245400  1
  Bi  Bi17  1  0.35672700  0.64327300  0.19754600  1
  Bi  Bi18  1  0.35672700  0.64327300  0.30245400  1
  Bi  Bi19  1  0.64327300  0.35672700  0.69754600  1
  Bi  Bi20  1  0.80669200  0.19330800  0.92775800  1
  Bi  Bi21  1  0.19330800  0.80669200  0.07224200  1
  Bi  Bi22  1  0.19330800  0.80669200  0.42775800  1
  Bi  Bi23  1  0.80669200  0.19330800  0.57224200  1
  I  I0  1  0.13046200  0.86953800  0.97643700  1
  I  I1  1  0.86953800  0.13046200  0.02356300  1
  I  I2  1  0.86953800  0.13046200  0.47643700  1
  I  I3  1  0.13046200  0.86953800  0.52356300  1
  I  I4  1  0.32039800  0.67960200  0.75000000  1
  I  I5  1  0.67960200  0.32039800  0.25000000  1
loop_
_geom_bond_atom_site_label_1
_geom_bond_atom_site_label_2
_geom_bond_distance
_geom_bond_site_symmetry_2
Ni0 Ni4 2.558001 1_455
Ni0 Ni4 2.558001 1_565
Ni1 Ni5 2.558001 1_545
Ni1 Ni5 2.558001 1_655
Ni2 Ni6 2.558001 1_655
Ni2 Ni6 2.558001 1_545
Ni3 Ni7 2.558001 1_455
Ni3 Ni7 2.558001 1_565
Bi0 Ni0 2.763730 1_655
Bi0 Ni0 2.763730 1_545
Bi0 Ni4 2.788220 1_555
Bi1 Ni1 2.763730 1_565
Bi1 Ni1 2.763730 1_455
Bi1 Ni5 2.788220 1_555
Bi2 Ni2 2.763730 1_565
Bi2 Ni2 2.763730 1_455
Bi2 Ni6 2.788220 1_555
Bi3 Ni3 2.763730 1_545
Bi3 Ni3 2.763730 1_655
Bi3 Ni7 2.788220 1_555
Bi4 Ni4 2.738512 1_455
Bi4 Ni4 2.738512 1_565
Bi4 Ni0 2.834491 1_555
Bi4 I4 3.613019 1_555
Bi5 Ni5 2.738512 1_655
Bi5 Ni5 2.738512 1_545
Bi5 Ni1 2.834491 1_555
Bi5 I5 3.613019 1_555
Bi6 Ni6 2.738512 1_545
Bi6 Ni6 2.738512 1_655
Bi6 Ni2 2.834491 1_555
Bi6 I5 3.613019 1_555
Bi7 Ni7 2.738512 1_455
Bi7 Ni7 2.738512 1_565
Bi7 Ni3 2.834491 1_555
Bi7 I4 3.613019 1_555
Bi8 Ni0 2.728537 1_565
Bi8 Ni0 2.728537 1_455
Bi8 Ni4 2.808590 1_465
Bi8 I0 3.373208 1_555
Bi9 Ni1 2.728537 1_655
Bi9 Ni1 2.728537 1_545
Bi9 Ni5 2.808590 1_645
Bi9 I1 3.373208 1_555
Bi10 Ni2 2.728537 1_655
Bi10 Ni2 2.728537 1_545
Bi10 Ni6 2.808590 1_645
Bi10 I2 3.373208 1_555
Bi11 Ni3 2.728537 1_565
Bi11 Ni3 2.728537 1_455
Bi11 Ni7 2.808590 1_465
Bi11 I3 3.373208 1_555
Bi12 Ni4 2.772166 1_565
Bi12 Ni4 2.772166 1_455
Bi12 Ni0 2.805380 1_555
Bi13 Ni5 2.772166 1_655
Bi13 Ni5 2.772166 1_545
Bi13 Ni1 2.805380 1_555
Bi14 Ni6 2.772166 1_655
Bi14 Ni6 2.772166 1_545
Bi14 Ni2 2.805380 1_555
Bi15 Ni7 2.772166 1_455
Bi15 Ni7 2.772166 1_565
Bi15 Ni3 2.805380 1_555
Bi16 Ni0 2.728691 1_555
Bi17 Ni1 2.728691 1_555
Bi18 Ni2 2.728691 1_555
Bi19 Ni3 2.728691 1_555
Bi20 Ni4 2.700617 1_555
Bi20 I1 3.496016 1_556
Bi21 Ni5 2.700617 1_555
Bi21 I0 3.496016 1_554
Bi22 Ni6 2.700617 1_555
Bi22 I3 3.496016 1_555
Bi23 Ni7 2.700617 1_555
Bi23 I2 3.496016 1_555
