# generated using pymatgen
data_Pr6Fe13Pb
_symmetry_space_group_name_H-M   'P 1'
_cell_length_a   8.09128703
_cell_length_b   8.09128774
_cell_length_c   13.25873218
_cell_angle_alpha   107.76602057
_cell_angle_beta   107.76601805
_cell_angle_gamma   90.00000136
_symmetry_Int_Tables_number   1
_chemical_formula_structural   Pr6Fe13Pb
_chemical_formula_sum   'Pr12 Fe26 Pb2'
_cell_volume   783.05741128
_cell_formula_units_Z   2
loop_
 _symmetry_equiv_pos_site_id
 _symmetry_equiv_pos_as_xyz
  1  'x, y, z'
loop_
 _atom_site_type_symbol
 _atom_site_label
 _atom_site_symmetry_multiplicity
 _atom_site_fract_x
 _atom_site_fract_y
 _atom_site_fract_z
 _atom_site_occupancy
  Pr  Pr0  1  0.01987900  0.51987900  0.36562200  1
  Pr  Pr1  1  0.98012100  0.48012100  0.63437800  1
  Pr  Pr2  1  0.89699400  0.89699400  0.79398900  1
  Pr  Pr3  1  0.65425800  0.15425800  0.63437800  1
  Pr  Pr4  1  0.60300600  0.60300600  0.20601100  1
  Pr  Pr5  1  0.10300600  0.10300600  0.20601100  1
  Pr  Pr6  1  0.48012100  0.65425800  0.63437800  1
  Pr  Pr7  1  0.84574200  0.01987900  0.36562200  1
  Pr  Pr8  1  0.39699400  0.39699400  0.79398900  1
  Pr  Pr9  1  0.15425800  0.98012100  0.63437800  1
  Pr  Pr10  1  0.51987900  0.34574200  0.36562200  1
  Pr  Pr11  1  0.34574200  0.84574200  0.36562200  1
  Fe  Fe0  1  0.23585400  0.73585400  0.11428900  1
  Fe  Fe1  1  0.93352000  0.79021700  0.00000000  1
  Fe  Fe2  1  0.79560800  0.52187200  0.81748000  1
  Fe  Fe3  1  0.97812800  0.70439200  0.18252000  1
  Fe  Fe4  1  0.87843500  0.37843500  0.11428900  1
  Fe  Fe5  1  0.73585400  0.87843500  0.11428900  1
  Fe  Fe6  1  0.62156500  0.76414600  0.88571100  1
  Fe  Fe7  1  0.06648000  0.20978300  0.00000000  1
  Fe  Fe8  1  0.26414600  0.12156500  0.88571100  1
  Fe  Fe9  1  0.20978300  0.93352000  0.00000000  1
  Fe  Fe10  1  0.76414600  0.26414600  0.88571100  1
  Fe  Fe11  1  0.56648000  0.29021700  0.00000000  1
  Fe  Fe12  1  0.52187200  0.02187200  0.81748000  1
  Fe  Fe13  1  0.37843500  0.23585400  0.11428900  1
  Fe  Fe14  1  0.20439200  0.47812800  0.18252000  1
  Fe  Fe15  1  0.50000000  0.00000000  0.00000000  1
  Fe  Fe16  1  0.70978300  0.56648000  0.00000000  1
  Fe  Fe17  1  0.29560800  0.79560800  0.81748000  1
  Fe  Fe18  1  0.47812800  0.97812800  0.18252000  1
  Fe  Fe19  1  0.70439200  0.20439200  0.18252000  1
  Fe  Fe20  1  0.79021700  0.06648000  0.00000000  1
  Fe  Fe21  1  0.29021700  0.43352000  0.00000000  1
  Fe  Fe22  1  0.00000000  0.50000000  0.00000000  1
  Fe  Fe23  1  0.12156500  0.62156500  0.88571100  1
  Fe  Fe24  1  0.02187200  0.29560800  0.81748000  1
  Fe  Fe25  1  0.43352000  0.70978300  0.00000000  1
  Pb  Pb0  1  0.75000000  0.75000000  0.50000000  1
  Pb  Pb1  1  0.25000000  0.25000000  0.50000000  1
loop_
_geom_bond_atom_site_label_1
_geom_bond_atom_site_label_2
_geom_bond_distance
_geom_bond_site_symmetry_2
Fe0 Fe22 2.459759 1_555
Fe0 Fe25 2.486493 1_555
Fe0 Fe9 2.486493 1_555
Fe0 Fe18 2.517845 1_555
Fe0 Fe3 2.554141 1_455
Fe0 Fe14 2.554141 1_555
Fe0 Fe1 2.572650 1_455
Fe0 Fe21 2.572650 1_555
Fe0 Fe23 2.733964 1_554
Fe0 Pr11 3.011548 1_555
Fe0 Pr4 3.170591 1_555
Fe0 Pr5 3.170591 1_565
Fe1 Fe22 2.409051 1_655
Fe1 Fe6 2.486493 1_554
Fe1 Fe5 2.486493 1_555
Fe1 Fe9 2.518159 1_655
Fe1 Fe20 2.518159 1_565
Fe1 Fe16 2.560180 1_555
Fe1 Fe23 2.572650 1_654
Fe1 Fe2 2.638438 1_554
Fe1 Fe3 2.638438 1_555
Fe1 Pr2 3.040077 1_554
Fe1 Pr5 3.040082 1_665
Fe2 Fe6 2.517845 1_555
Fe2 Fe22 2.538045 1_656
Fe2 Fe23 2.554141 1_655
Fe2 Fe24 2.589096 1_655
Fe2 Pr3 3.154054 1_555
Fe2 Pr1 3.154061 1_555
Fe2 Pr2 3.273434 1_555
Fe2 Pr8 3.273443 1_555
Fe2 Pr6 3.370827 1_555
Fe3 Fe5 2.517845 1_555
Fe3 Fe4 2.554141 1_555
Fe3 Pr11 3.154054 1_655
Fe3 Pr0 3.154061 1_655
Fe3 Pr4 3.273433 1_555
Fe3 Pr5 3.273444 1_665
Fe3 Pr7 3.370827 1_565
Fe4 Fe7 2.572650 1_655
Fe4 Pr0 3.011547 1_655
Fe4 Pr4 3.170588 1_555
Fe4 Pr5 3.170588 1_655
Fe5 Fe6 2.733964 1_554
Fe5 Pr7 3.011548 1_565
Fe5 Pr4 3.170584 1_555
Fe5 Pr5 3.170594 1_665
Fe6 Pr6 3.011548 1_555
Fe6 Pr2 3.170584 1_555
Fe6 Pr8 3.170594 1_555
Fe7 Fe8 2.486493 1_554
Fe7 Fe9 2.518159 1_545
Fe7 Pr5 3.040077 1_555
Fe7 Pr2 3.040082 1_444
Fe8 Fe9 2.572650 1_546
Fe8 Pr9 3.011548 1_545
Fe8 Pr8 3.170584 1_555
Fe8 Pr2 3.170594 1_445
Fe9 Pr5 3.040078 1_565
Fe9 Pr2 3.040081 1_454
Fe10 Fe22 2.459759 1_656
Fe10 Fe11 2.486493 1_556
Fe10 Fe20 2.486493 1_556
Fe10 Fe12 2.517845 1_555
Fe10 Fe24 2.554141 1_655
Fe10 Fe2 2.554141 1_555
Fe10 Fe7 2.572650 1_656
Fe10 Fe16 2.572650 1_556
Fe10 Fe4 2.733964 1_556
Fe10 Pr3 3.011548 1_555
Fe10 Pr8 3.170591 1_555
Fe10 Pr2 3.170591 1_545
Fe11 Fe15 2.409051 1_555
Fe11 Fe4 2.486493 1_555
Fe11 Fe21 2.518159 1_555
Fe11 Fe16 2.518159 1_555
Fe11 Fe20 2.560180 1_555
Fe11 Fe8 2.572650 1_554
Fe11 Fe13 2.572650 1_555
Fe11 Fe12 2.638438 1_554
Fe11 Fe19 2.638438 1_555
Fe11 Pr8 3.040078 1_554
Fe11 Pr4 3.040081 1_555
Fe12 Fe15 2.538045 1_556
Fe12 Fe8 2.554141 1_555
Fe12 Fe6 2.554141 1_545
Fe12 Fe17 2.589096 1_545
Fe12 Fe20 2.638438 1_556
Fe12 Pr9 3.154055 1_545
Fe12 Pr6 3.154055 1_545
Fe12 Pr2 3.273436 1_545
Fe12 Pr8 3.273436 1_555
Fe12 Pr3 3.370832 1_555
Fe13 Fe15 2.459759 1_555
Fe13 Fe7 2.486493 1_555
Fe13 Fe21 2.486493 1_555
Fe13 Fe14 2.517845 1_555
Fe13 Fe19 2.554141 1_555
Fe13 Fe18 2.554141 1_545
Fe13 Fe9 2.572650 1_545
Fe13 Fe8 2.733964 1_554
Fe13 Pr10 3.011548 1_555
Fe13 Pr5 3.170584 1_555
Fe13 Pr4 3.170594 1_555
Fe14 Fe22 2.538045 1_555
Fe14 Fe4 2.554141 1_455
Fe14 Fe3 2.589096 1_455
Fe14 Fe7 2.638438 1_555
Fe14 Fe21 2.638438 1_555
Fe14 Pr11 3.154054 1_555
Fe14 Pr0 3.154061 1_555
Fe14 Pr5 3.273434 1_555
Fe14 Pr4 3.273443 1_555
Fe14 Pr10 3.370827 1_555
Fe15 Fe20 2.409051 1_555
Fe15 Fe9 2.409051 1_545
Fe15 Fe25 2.409051 1_545
Fe15 Fe6 2.459759 1_544
Fe15 Fe5 2.459759 1_545
Fe15 Fe8 2.459759 1_554
Fe15 Fe17 2.538045 1_544
Fe15 Fe19 2.538045 1_555
Fe15 Fe18 2.538045 1_545
Fe16 Fe22 2.409051 1_655
Fe16 Fe5 2.486493 1_555
Fe16 Fe6 2.486493 1_554
Fe16 Fe25 2.518159 1_555
Fe16 Fe4 2.572650 1_555
Fe16 Fe3 2.638438 1_555
Fe16 Fe2 2.638438 1_554
Fe16 Pr4 3.040077 1_555
Fe16 Pr8 3.040082 1_554
Fe17 Fe23 2.517845 1_555
Fe17 Fe6 2.554141 1_555
Fe17 Fe8 2.554141 1_565
Fe17 Fe9 2.638438 1_556
Fe17 Fe25 2.638438 1_556
Fe17 Pr6 3.154060 1_555
Fe17 Pr9 3.154060 1_555
Fe17 Pr2 3.273441 1_455
Fe17 Pr8 3.273441 1_555
Fe17 Pr1 3.370823 1_455
Fe18 Fe5 2.554141 1_555
Fe18 Fe19 2.589096 1_565
Fe18 Fe9 2.638438 1_555
Fe18 Fe25 2.638438 1_555
Fe18 Pr7 3.154055 1_565
Fe18 Pr10 3.154055 1_565
Fe18 Pr5 3.273436 1_565
Fe18 Pr4 3.273436 1_555
Fe18 Pr11 3.370832 1_555
Fe19 Fe4 2.517845 1_555
Fe19 Fe5 2.554141 1_545
Fe19 Fe20 2.638438 1_555
Fe19 Pr10 3.154060 1_555
Fe19 Pr7 3.154060 1_555
Fe19 Pr5 3.273441 1_655
Fe19 Pr4 3.273441 1_555
Fe19 Pr0 3.370823 1_655
Fe20 Fe4 2.486493 1_555
Fe20 Fe7 2.518159 1_655
Fe20 Fe6 2.572650 1_544
Fe20 Fe5 2.572650 1_545
Fe20 Pr2 3.040078 1_544
Fe20 Pr5 3.040081 1_655
Fe21 Fe22 2.409051 1_555
Fe21 Fe8 2.486493 1_554
Fe21 Fe25 2.518159 1_555
Fe21 Fe7 2.560180 1_555
Fe21 Fe23 2.572650 1_554
Fe21 Fe24 2.638438 1_554
Fe21 Pr8 3.040077 1_554
Fe21 Pr4 3.040082 1_555
Fe22 Fe7 2.409051 1_555
Fe22 Fe23 2.459759 1_554
Fe22 Fe4 2.459759 1_455
Fe22 Fe24 2.538045 1_554
Fe22 Fe3 2.538045 1_455
Fe23 Fe25 2.486493 1_556
Fe23 Fe9 2.486493 1_556
Fe23 Fe24 2.554141 1_555
Fe23 Pr1 3.011547 1_455
Fe23 Pr8 3.170588 1_555
Fe23 Pr2 3.170588 1_455
Fe24 Fe8 2.517845 1_555
Fe24 Fe7 2.638438 1_556
Fe24 Pr3 3.154054 1_455
Fe24 Pr1 3.154061 1_455
Fe24 Pr8 3.273433 1_555
Fe24 Pr2 3.273444 1_445
Fe24 Pr9 3.370827 1_545
Fe25 Fe9 2.560180 1_555
Fe25 Fe5 2.572650 1_555
Fe25 Fe6 2.572650 1_554
Fe25 Pr4 3.040078 1_555
Fe25 Pr8 3.040081 1_554
Pb0 Pr6 3.429213 1_555
Pb0 Pr7 3.429213 1_565
Pb0 Pr0 3.429216 1_655
Pb0 Pr1 3.429216 1_555
Pb0 Pr11 3.429220 1_555
Pb0 Pr3 3.429220 1_565
Pb0 Pr9 3.429222 1_655
Pb0 Pr10 3.429223 1_555
Pb0 Pr2 3.516328 1_555
Pb0 Pr4 3.516328 1_555
Pb1 Pr10 3.429213 1_555
Pb1 Pr9 3.429213 1_545
Pb1 Pr1 3.429216 1_455
Pb1 Pr0 3.429216 1_555
Pb1 Pr3 3.429220 1_555
Pb1 Pr11 3.429220 1_545
Pb1 Pr7 3.429222 1_455
Pb1 Pr6 3.429223 1_555
Pb1 Pr8 3.516328 1_555
Pb1 Pr5 3.516328 1_555
