# generated using pymatgen
data_PbI2
_symmetry_space_group_name_H-M   'P 1'
_cell_length_a   4.62910202
_cell_length_b   4.62910226
_cell_length_c   50.94172536
_cell_angle_alpha   90.00000000
_cell_angle_beta   90.00000000
_cell_angle_gamma   119.99999830
_symmetry_Int_Tables_number   1
_chemical_formula_structural   PbI2
_chemical_formula_sum   'Pb7 I14'
_cell_volume   945.36129178
_cell_formula_units_Z   7
loop_
 _symmetry_equiv_pos_site_id
 _symmetry_equiv_pos_as_xyz
  1  'x, y, z'
loop_
 _atom_site_type_symbol
 _atom_site_label
 _atom_site_symmetry_multiplicity
 _atom_site_fract_x
 _atom_site_fract_y
 _atom_site_fract_z
 _atom_site_occupancy
  Pb  Pb0  1  0.33333300  0.66666700  0.18074928  1
  Pb  Pb1  1  0.33333300  0.66666700  0.46673121  1
  Pb  Pb2  1  -0.00000000  -0.00000000  0.89470184  1
  Pb  Pb3  1  0.33333300  0.66666700  0.75153314  1
  Pb  Pb4  1  0.33333300  0.66666700  0.60890388  1
  Pb  Pb5  1  0.33333300  0.66666700  0.32403154  1
  Pb  Pb6  1  0.33333300  0.66666700  0.03829084  1
  I  I0  1  0.66666700  0.33333300  0.93146115  1
  I  I1  1  0.00000000  0.00000000  0.43024279  1
  I  I2  1  0.66666700  0.33333300  0.07492922  1
  I  I3  1  0.66666700  0.33333300  0.78806942  1
  I  I4  1  0.00000000  0.00000000  0.14418070  1
  I  I5  1  0.66666700  0.33333300  0.36057981  1
  I  I6  1  0.33333300  0.66666700  0.85794241  1
  I  I7  1  0.00000000  0.00000000  0.00165726  1
  I  I8  1  0.66666700  0.33333300  0.64551844  1
  I  I9  1  0.00000000  0.00000000  0.57235675  1
  I  I10  1  0.00000000  0.00000000  0.28747005  1
  I  I11  1  0.66666700  0.33333300  0.21729170  1
  I  I12  1  0.66666700  0.33333300  0.50329373  1
  I  I13  1  0.00000000  0.00000000  0.71506783  1
loop_
_geom_bond_atom_site_label_1
_geom_bond_atom_site_label_2
_geom_bond_distance
_geom_bond_site_symmetry_2
I0 Pb2 3.263344 1_655
I0 Pb2 3.263347 1_555
I0 Pb2 3.263347 1_665
I1 Pb1 3.255445 1_545
I1 Pb1 3.255448 1_445
I1 Pb1 3.255448 1_555
I2 Pb6 3.259813 1_655
I2 Pb6 3.259813 1_545
I2 Pb6 3.259819 1_555
I3 Pb3 3.256838 1_655
I3 Pb3 3.256838 1_545
I3 Pb3 3.256844 1_555
I4 Pb0 3.257778 1_545
I4 Pb0 3.257782 1_445
I4 Pb0 3.257782 1_555
I5 Pb5 3.257187 1_655
I5 Pb5 3.257187 1_545
I5 Pb5 3.257193 1_555
I6 Pb2 3.263347 1_565
I6 Pb2 3.263351 1_665
I6 Pb2 3.263351 1_555
I7 Pb6 3.259673 1_545
I7 Pb6 3.259676 1_445
I7 Pb6 3.259676 1_555
I8 Pb4 3.259118 1_655
I8 Pb4 3.259118 1_545
I8 Pb4 3.259125 1_555
I9 Pb4 3.257154 1_545
I9 Pb4 3.257157 1_445
I9 Pb4 3.257157 1_555
I10 Pb5 3.257572 1_545
I10 Pb5 3.257575 1_445
I10 Pb5 3.257575 1_555
I11 Pb0 3.257016 1_655
I11 Pb0 3.257017 1_545
I11 Pb0 3.257023 1_555
I12 Pb1 3.257602 1_655
I12 Pb1 3.257602 1_545
I12 Pb1 3.257608 1_555
I13 Pb3 3.254773 1_545
I13 Pb3 3.254776 1_445
I13 Pb3 3.254776 1_555
