# generated using pymatgen
data_KBi6IO9
_symmetry_space_group_name_H-M   'P 1'
_cell_length_a   15.26866180
_cell_length_b   15.26866180
_cell_length_c   15.26866180
_cell_angle_alpha   109.47122063
_cell_angle_beta   109.47122063
_cell_angle_gamma   109.47122063
_symmetry_Int_Tables_number   1
_chemical_formula_structural   KBi6IO9
_chemical_formula_sum   'K8 Bi48 I8 O72'
_cell_volume   2740.19226463
_cell_formula_units_Z   8
loop_
 _symmetry_equiv_pos_site_id
 _symmetry_equiv_pos_as_xyz
  1  'x, y, z'
loop_
 _atom_site_type_symbol
 _atom_site_label
 _atom_site_symmetry_multiplicity
 _atom_site_fract_x
 _atom_site_fract_y
 _atom_site_fract_z
 _atom_site_occupancy
  K  K0  1  0.00000000  0.50000000  0.50000000  1
  K  K1  1  0.00000000  0.50000000  0.00000000  1
  K  K2  1  0.50000000  0.50000000  0.50000000  1
  K  K3  1  0.50000000  0.00000000  0.00000000  1
  K  K4  1  0.00000000  0.00000000  0.50000000  1
  K  K5  1  0.50000000  0.00000000  0.50000000  1
  K  K6  1  0.00000000  0.00000000  0.00000000  1
  K  K7  1  0.50000000  0.50000000  0.00000000  1
  Bi  Bi0  1  0.73951100  0.25000000  0.98951100  1
  Bi  Bi1  1  0.01959000  0.48041000  0.25000000  1
  Bi  Bi2  1  0.98951100  0.75000000  0.73951100  1
  Bi  Bi3  1  0.26959000  0.23041000  0.75000000  1
  Bi  Bi4  1  0.76048900  0.75000000  0.51048900  1
  Bi  Bi5  1  0.98041000  0.96082000  0.23041000  1
  Bi  Bi6  1  0.25000000  0.76048900  0.51048900  1
  Bi  Bi7  1  0.25000000  0.73041000  0.76959000  1
  Bi  Bi8  1  0.23041000  0.98041000  0.96082000  1
  Bi  Bi9  1  0.48041000  0.73041000  0.46082000  1
  Bi  Bi10  1  0.75000000  0.01048900  0.26048900  1
  Bi  Bi11  1  0.48951100  0.75000000  0.23951100  1
  Bi  Bi12  1  0.75000000  0.98041000  0.51959000  1
  Bi  Bi13  1  0.25000000  0.26048900  0.01048900  1
  Bi  Bi14  1  0.51959000  0.26959000  0.53918000  1
  Bi  Bi15  1  0.26048900  0.01048900  0.25000000  1
  Bi  Bi16  1  0.76048900  0.51048900  0.25000000  1
  Bi  Bi17  1  0.23951100  0.25000000  0.48951100  1
  Bi  Bi18  1  0.26959000  0.53918000  0.51959000  1
  Bi  Bi19  1  0.48951100  0.23951100  0.25000000  1
  Bi  Bi20  1  0.98041000  0.51959000  0.75000000  1
  Bi  Bi21  1  0.23951100  0.48951100  0.75000000  1
  Bi  Bi22  1  0.96082000  0.23041000  0.98041000  1
  Bi  Bi23  1  0.25000000  0.48951100  0.23951100  1
  Bi  Bi24  1  0.73041000  0.46082000  0.48041000  1
  Bi  Bi25  1  0.51048900  0.76048900  0.75000000  1
  Bi  Bi26  1  0.73041000  0.76959000  0.25000000  1
  Bi  Bi27  1  0.51959000  0.75000000  0.98041000  1
  Bi  Bi28  1  0.53918000  0.51959000  0.26959000  1
  Bi  Bi29  1  0.98951100  0.73951100  0.25000000  1
  Bi  Bi30  1  0.25000000  0.98951100  0.73951100  1
  Bi  Bi31  1  0.76959000  0.25000000  0.73041000  1
  Bi  Bi32  1  0.75000000  0.51048900  0.76048900  1
  Bi  Bi33  1  0.01959000  0.03918000  0.76959000  1
  Bi  Bi34  1  0.46082000  0.48041000  0.73041000  1
  Bi  Bi35  1  0.23041000  0.75000000  0.26959000  1
  Bi  Bi36  1  0.75000000  0.23951100  0.48951100  1
  Bi  Bi37  1  0.26048900  0.75000000  0.01048900  1
  Bi  Bi38  1  0.48041000  0.25000000  0.01959000  1
  Bi  Bi39  1  0.75000000  0.73951100  0.98951100  1
  Bi  Bi40  1  0.51048900  0.25000000  0.76048900  1
  Bi  Bi41  1  0.75000000  0.26959000  0.23041000  1
  Bi  Bi42  1  0.03918000  0.76959000  0.01959000  1
  Bi  Bi43  1  0.76959000  0.01959000  0.03918000  1
  Bi  Bi44  1  0.01048900  0.26048900  0.75000000  1
  Bi  Bi45  1  0.73951100  0.98951100  0.75000000  1
  Bi  Bi46  1  0.01048900  0.25000000  0.26048900  1
  Bi  Bi47  1  0.25000000  0.01959000  0.48041000  1
  I  I0  1  0.25000000  0.25000000  0.25000000  1
  I  I1  1  0.25000000  0.50000000  0.00000000  1
  I  I2  1  0.50000000  0.00000000  0.75000000  1
  I  I3  1  0.00000000  0.25000000  0.50000000  1
  I  I4  1  0.75000000  0.75000000  0.75000000  1
  I  I5  1  0.00000000  0.75000000  0.50000000  1
  I  I6  1  0.75000000  0.50000000  0.00000000  1
  I  I7  1  0.50000000  0.00000000  0.25000000  1
  O  O0  1  0.71080900  0.60540500  0.35540500  1
  O  O1  1  0.06244700  0.71481100  0.15058500  1
  O  O2  1  0.91186200  0.34941500  0.06422600  1
  O  O3  1  0.43755300  0.58813800  0.65236400  1
  O  O4  1  0.28919100  0.39459500  0.64459500  1
  O  O5  1  0.64459500  0.85540500  0.25000000  1
  O  O6  1  0.41186200  0.34763600  0.56244700  1
  O  O7  1  0.35540500  0.71080900  0.60540500  1
  O  O8  1  0.35540500  0.14459500  0.75000000  1
  O  O9  1  0.08813800  0.93755300  0.15236400  1
  O  O10  1  0.34941500  0.78518900  0.43755300  1
  O  O11  1  0.21481100  0.15236400  0.56422600  1
  O  O12  1  0.34763600  0.28518900  0.93577400  1
  O  O13  1  0.71481100  0.06422600  0.65236400  1
  O  O14  1  0.65058500  0.21481100  0.56244700  1
  O  O15  1  0.15236400  0.08813800  0.93755300  1
  O  O16  1  0.58813800  0.43577400  0.15058500  1
  O  O17  1  0.56422600  0.21481100  0.15236400  1
  O  O18  1  0.06422600  0.65236400  0.71481100  1
  O  O19  1  0.93577400  0.08813800  0.65058500  1
  O  O20  1  0.14459500  0.75000000  0.35540500  1
  O  O21  1  0.93755300  0.15236400  0.08813800  1
  O  O22  1  0.34763600  0.56244700  0.41186200  1
  O  O23  1  0.56422600  0.84941500  0.41186200  1
  O  O24  1  0.75000000  0.35540500  0.14459500  1
  O  O25  1  0.65058500  0.93577400  0.08813800  1
  O  O26  1  0.89459500  0.78919100  0.14459500  1
  O  O27  1  0.65236400  0.71481100  0.06422600  1
  O  O28  1  0.93755300  0.28518900  0.84941500  1
  O  O29  1  0.43577400  0.15058500  0.58813800  1
  O  O30  1  0.25000000  0.64459500  0.85540500  1
  O  O31  1  0.34941500  0.06422600  0.91186200  1
  O  O32  1  0.15058500  0.06244700  0.71481100  1
  O  O33  1  0.43755300  0.34941500  0.78518900  1
  O  O34  1  0.21481100  0.56244700  0.65058500  1
  O  O35  1  0.78919100  0.14459500  0.89459500  1
  O  O36  1  0.84763600  0.91186200  0.06244700  1
  O  O37  1  0.10540500  0.39459500  0.25000000  1
  O  O38  1  0.78518900  0.43755300  0.34941500  1
  O  O39  1  0.60540500  0.35540500  0.71080900  1
  O  O40  1  0.85540500  0.10540500  0.21080900  1
  O  O41  1  0.39459500  0.64459500  0.28919100  1
  O  O42  1  0.84941500  0.93755300  0.28518900  1
  O  O43  1  0.64459500  0.28919100  0.39459500  1
  O  O44  1  0.71481100  0.15058500  0.06244700  1
  O  O45  1  0.15236400  0.56422600  0.21481100  1
  O  O46  1  0.84941500  0.41186200  0.56422600  1
  O  O47  1  0.85540500  0.25000000  0.64459500  1
  O  O48  1  0.39459500  0.25000000  0.10540500  1
  O  O49  1  0.84763600  0.43577400  0.78518900  1
  O  O50  1  0.78518900  0.84763600  0.43577400  1
  O  O51  1  0.06422600  0.91186200  0.34941500  1
  O  O52  1  0.43577400  0.78518900  0.84763600  1
  O  O53  1  0.14459500  0.89459500  0.78919100  1
  O  O54  1  0.93577400  0.34763600  0.28518900  1
  O  O55  1  0.56244700  0.65058500  0.21481100  1
  O  O56  1  0.89459500  0.60540500  0.75000000  1
  O  O57  1  0.06244700  0.84763600  0.91186200  1
  O  O58  1  0.75000000  0.89459500  0.60540500  1
  O  O59  1  0.41186200  0.56422600  0.84941500  1
  O  O60  1  0.21080900  0.85540500  0.10540500  1
  O  O61  1  0.56244700  0.41186200  0.34763600  1
  O  O62  1  0.08813800  0.65058500  0.93577400  1
  O  O63  1  0.28518900  0.84941500  0.93755300  1
  O  O64  1  0.65236400  0.43755300  0.58813800  1
  O  O65  1  0.25000000  0.10540500  0.39459500  1
  O  O66  1  0.10540500  0.21080900  0.85540500  1
  O  O67  1  0.91186200  0.06244700  0.84763600  1
  O  O68  1  0.28518900  0.93577400  0.34763600  1
  O  O69  1  0.15058500  0.58813800  0.43577400  1
  O  O70  1  0.58813800  0.65236400  0.43755300  1
  O  O71  1  0.60540500  0.75000000  0.89459500  1
loop_
_geom_bond_atom_site_label_1
_geom_bond_atom_site_label_2
_geom_bond_distance
_geom_bond_site_symmetry_2
K0 O34 2.894708 1_555
K0 O46 2.894708 1_455
K0 O69 2.894708 1_555
K0 O38 2.894708 1_455
K0 O54 2.894708 1_455
K0 O18 2.894708 1_555
K1 O28 2.894708 1_454
K1 O62 2.894708 1_554
K1 O1 2.894708 1_555
K1 O49 2.894708 1_454
K1 O45 2.894708 1_555
K1 O2 2.894708 1_455
K2 O22 2.894708 1_555
K2 O6 2.894708 1_555
K2 O3 2.894708 1_555
K2 O64 2.894708 1_555
K2 O61 2.894708 1_555
K2 O70 2.894708 1_555
K3 O44 2.894708 1_555
K3 O63 2.894708 1_544
K3 O17 2.894708 1_555
K3 O25 2.894708 1_545
K3 O31 2.894708 1_554
K3 O52 2.894708 1_544
K4 O42 2.894708 1_445
K4 O32 2.894708 1_555
K4 O50 2.894708 1_445
K4 O11 2.894708 1_555
K4 O19 2.894708 1_455
K4 O51 2.894708 1_545
K5 O68 2.894708 1_545
K5 O23 2.894708 1_545
K5 O14 2.894708 1_555
K5 O10 2.894708 1_545
K5 O13 2.894708 1_555
K5 O29 2.894708 1_555
K6 O15 2.894708 1_554
K6 O9 2.894708 1_545
K6 O21 2.894708 1_455
K6 O67 2.894708 1_454
K6 O57 2.894708 1_544
K6 O36 2.894708 1_445
K7 O12 2.894708 1_554
K7 O59 2.894708 1_554
K7 O55 2.894708 1_555
K7 O16 2.894708 1_555
K7 O27 2.894708 1_555
K7 O33 2.894708 1_554
Bi0 O2 2.170677 1_556
Bi0 O44 2.170677 1_556
Bi0 O24 2.292945 1_556
Bi0 O35 2.292957 1_555
Bi1 O37 2.139679 1_555
Bi1 O45 2.343345 1_555
Bi1 O54 2.343345 1_455
Bi1 O69 2.380316 1_555
Bi1 O2 2.380316 1_455
Bi2 O57 2.170677 1_655
Bi2 O18 2.170677 1_655
Bi2 O53 2.292940 1_655
Bi2 O56 2.292945 1_555
Bi3 O8 2.139679 1_555
Bi3 O32 2.343345 1_555
Bi3 O33 2.343345 1_555
Bi3 O12 2.380316 1_555
Bi3 O11 2.380316 1_555
Bi4 O50 2.170677 1_555
Bi4 O70 2.170677 1_555
Bi4 O0 2.292940 1_555
Bi4 O58 2.292945 1_555
Bi5 O26 2.139666 1_555
Bi5 O36 2.343345 1_555
Bi5 O51 2.343345 1_655
Bi5 O42 2.380316 1_555
Bi5 O9 2.380316 1_655
Bi6 O69 2.170677 1_555
Bi6 O10 2.170677 1_555
Bi6 O20 2.292945 1_555
Bi6 O7 2.292957 1_555
Bi7 O30 2.139679 1_555
Bi7 O34 2.343345 1_555
Bi7 O63 2.343345 1_555
Bi7 O18 2.380316 1_555
Bi7 O52 2.380316 1_555
Bi8 O53 2.139666 1_555
Bi8 O57 2.343345 1_555
Bi8 O31 2.343345 1_565
Bi8 O63 2.380316 1_555
Bi8 O15 2.380316 1_565
Bi9 O41 2.139666 1_555
Bi9 O22 2.343345 1_555
Bi9 O23 2.343345 1_555
Bi9 O70 2.380316 1_555
Bi9 O10 2.380316 1_555
Bi10 O25 2.170677 1_545
Bi10 O42 2.170677 1_545
Bi10 O5 2.292945 1_545
Bi10 O40 2.292957 1_555
Bi11 O23 2.170677 1_555
Bi11 O55 2.170677 1_555
Bi11 O5 2.292945 1_555
Bi11 O41 2.292957 1_555
Bi12 O58 2.139679 1_555
Bi12 O50 2.343345 1_555
Bi12 O13 2.343345 1_565
Bi12 O23 2.380316 1_555
Bi12 O19 2.380316 1_565
Bi13 O12 2.170677 1_554
Bi13 O15 2.170677 1_554
Bi13 O66 2.292940 1_554
Bi13 O48 2.292945 1_555
Bi14 O39 2.139666 1_555
Bi14 O64 2.343345 1_555
Bi14 O29 2.343345 1_555
Bi14 O14 2.380316 1_555
Bi14 O6 2.380316 1_555
Bi15 O68 2.170677 1_545
Bi15 O9 2.170677 1_545
Bi15 O60 2.292940 1_545
Bi15 O65 2.292945 1_555
Bi16 O38 2.170677 1_555
Bi16 O16 2.170677 1_555
Bi16 O24 2.292945 1_555
Bi16 O0 2.292957 1_555
Bi17 O6 2.170677 1_555
Bi17 O11 2.170677 1_555
Bi17 O4 2.292940 1_555
Bi17 O65 2.292945 1_555
Bi18 O7 2.139666 1_555
Bi18 O3 2.343345 1_555
Bi18 O69 2.343345 1_555
Bi18 O34 2.380316 1_555
Bi18 O22 2.380316 1_555
Bi19 O61 2.170677 1_555
Bi19 O17 2.170677 1_555
Bi19 O43 2.292940 1_555
Bi19 O48 2.292945 1_555
Bi20 O56 2.139679 1_555
Bi20 O49 2.343345 1_555
Bi20 O18 2.343345 1_655
Bi20 O62 2.380316 1_655
Bi20 O46 2.380316 1_555
Bi21 O59 2.170677 1_555
Bi21 O34 2.170677 1_555
Bi21 O30 2.292945 1_555
Bi21 O4 2.292957 1_555
Bi22 O35 2.139666 1_555
Bi22 O67 2.343345 1_555
Bi22 O2 2.343345 1_556
Bi22 O28 2.380316 1_555
Bi22 O21 2.380316 1_556
Bi23 O22 2.170677 1_555
Bi23 O45 2.170677 1_555
Bi23 O41 2.292940 1_555
Bi23 O37 2.292945 1_555
Bi24 O43 2.139666 1_555
Bi24 O61 2.343345 1_555
Bi24 O46 2.343345 1_555
Bi24 O64 2.380316 1_555
Bi24 O38 2.380316 1_555
Bi25 O52 2.170677 1_555
Bi25 O3 2.170677 1_555
Bi25 O7 2.292940 1_555
Bi25 O71 2.292945 1_555
Bi26 O5 2.139679 1_555
Bi26 O55 2.343345 1_555
Bi26 O42 2.343345 1_555
Bi26 O27 2.380316 1_555
Bi26 O50 2.380316 1_555
Bi27 O71 2.139679 1_555
Bi27 O52 2.343345 1_555
Bi27 O27 2.343345 1_556
Bi27 O59 2.380316 1_555
Bi27 O25 2.380316 1_556
Bi28 O0 2.139666 1_555
Bi28 O70 2.343345 1_555
Bi28 O16 2.343345 1_555
Bi28 O55 2.380316 1_555
Bi28 O61 2.380316 1_555
Bi29 O1 2.170677 1_655
Bi29 O51 2.170677 1_655
Bi29 O20 2.292945 1_655
Bi29 O26 2.292957 1_555
Bi30 O32 2.170677 1_565
Bi30 O31 2.170677 1_565
Bi30 O8 2.292945 1_565
Bi30 O53 2.292957 1_555
Bi31 O47 2.139679 1_555
Bi31 O28 2.343345 1_555
Bi31 O14 2.343345 1_555
Bi31 O49 2.380316 1_555
Bi31 O13 2.380316 1_555
Bi32 O64 2.170677 1_555
Bi32 O49 2.170677 1_555
Bi32 O39 2.292940 1_555
Bi32 O56 2.292945 1_555
Bi33 O66 2.139666 1_555
Bi33 O15 2.343345 1_555
Bi33 O19 2.343345 1_455
Bi33 O32 2.380316 1_555
Bi33 O67 2.380316 1_455
Bi34 O4 2.139666 1_555
Bi34 O6 2.343345 1_555
Bi34 O59 2.343345 1_555
Bi34 O3 2.380316 1_555
Bi34 O33 2.380316 1_555
Bi35 O20 2.139679 1_555
Bi35 O1 2.343345 1_555
Bi35 O10 2.343345 1_555
Bi35 O45 2.380316 1_555
Bi35 O68 2.380316 1_555
Bi36 O46 2.170677 1_555
Bi36 O14 2.170677 1_555
Bi36 O47 2.292945 1_555
Bi36 O43 2.292957 1_555
Bi37 O62 2.170677 1_554
Bi37 O63 2.170677 1_554
Bi37 O30 2.292945 1_554
Bi37 O60 2.292957 1_555
Bi38 O48 2.139679 1_555
Bi38 O17 2.343345 1_555
Bi38 O12 2.343345 1_554
Bi38 O16 2.380316 1_555
Bi38 O31 2.380316 1_554
Bi39 O36 2.170677 1_556
Bi39 O27 2.170677 1_556
Bi39 O26 2.292940 1_556
Bi39 O71 2.292945 1_555
Bi40 O29 2.170677 1_555
Bi40 O33 2.170677 1_555
Bi40 O8 2.292945 1_555
Bi40 O39 2.292957 1_555
Bi41 O24 2.139679 1_555
Bi41 O44 2.343345 1_555
Bi41 O38 2.343345 1_555
Bi41 O54 2.380316 1_555
Bi41 O17 2.380316 1_555
Bi42 O60 2.139666 1_555
Bi42 O9 2.343345 1_555
Bi42 O62 2.343345 1_554
Bi42 O57 2.380316 1_554
Bi42 O1 2.380316 1_555
Bi43 O40 2.139666 1_555
Bi43 O21 2.343345 1_555
Bi43 O25 2.343345 1_545
Bi43 O36 2.380316 1_545
Bi43 O44 2.380316 1_555
Bi44 O19 2.170677 1_455
Bi44 O28 2.170677 1_455
Bi44 O47 2.292945 1_455
Bi44 O66 2.292957 1_555
Bi45 O67 2.170677 1_565
Bi45 O13 2.170677 1_565
Bi45 O35 2.292940 1_565
Bi45 O58 2.292945 1_555
Bi46 O54 2.170677 1_455
Bi46 O21 2.170677 1_455
Bi46 O40 2.292940 1_455
Bi46 O37 2.292945 1_555
Bi47 O65 2.139679 1_555
Bi47 O11 2.343345 1_555
Bi47 O68 2.343345 1_545
Bi47 O29 2.380316 1_555
Bi47 O51 2.380316 1_545
I0 K2 3.817165 1_555
I0 K6 3.817165 1_555
I1 K7 3.817165 1_555
I1 K1 3.817165 1_555
I2 K5 3.817165 1_555
I2 K3 3.817165 1_556
I3 K0 3.817165 1_555
I3 K4 3.817165 1_555
I4 K6 3.817165 1_666
I4 K2 3.817165 1_555
I5 K0 3.817165 1_555
I5 K4 3.817165 1_565
I6 K1 3.817165 1_655
I6 K7 3.817165 1_555
I7 K5 3.817165 1_555
I7 K3 3.817165 1_555
