# generated using pymatgen
data_Ba2ZnS3
_symmetry_space_group_name_H-M   'P 1'
_cell_length_a   4.23768742
_cell_length_b   12.14533577
_cell_length_c   12.69880626
_cell_angle_alpha   90.00000000
_cell_angle_beta   90.00000000
_cell_angle_gamma   90.00000000
_symmetry_Int_Tables_number   1
_chemical_formula_structural   Ba2ZnS3
_chemical_formula_sum   'Ba8 Zn4 S12'
_cell_volume   653.58389530
_cell_formula_units_Z   4
loop_
 _symmetry_equiv_pos_site_id
 _symmetry_equiv_pos_as_xyz
  1  'x, y, z'
loop_
 _atom_site_type_symbol
 _atom_site_label
 _atom_site_symmetry_multiplicity
 _atom_site_fract_x
 _atom_site_fract_y
 _atom_site_fract_z
 _atom_site_occupancy
  Ba  Ba0  1  0.25000000  0.48901492  0.67438079  1
  Ba  Ba1  1  0.75000000  0.51098508  0.32561921  1
  Ba  Ba2  1  0.25000000  0.98901492  0.82561921  1
  Ba  Ba3  1  0.75000000  0.01098508  0.17438079  1
  Ba  Ba4  1  0.25000000  0.82644170  0.48170589  1
  Ba  Ba5  1  0.75000000  0.17355830  0.51829411  1
  Ba  Ba6  1  0.25000000  0.32644170  0.01829411  1
  Ba  Ba7  1  0.75000000  0.67355830  0.98170589  1
  Zn  Zn0  1  0.25000000  0.74443346  0.19621279  1
  Zn  Zn1  1  0.25000000  0.24443346  0.30378721  1
  Zn  Zn2  1  0.75000000  0.25556654  0.80378721  1
  Zn  Zn3  1  0.75000000  0.75556654  0.69621279  1
  S  S0  1  0.75000000  0.93883671  0.64010600  1
  S  S1  1  0.75000000  0.43883671  0.85989400  1
  S  S2  1  0.25000000  0.06116329  0.35989400  1
  S  S3  1  0.25000000  0.56116329  0.14010600  1
  S  S4  1  0.25000000  0.22502457  0.70970296  1
  S  S5  1  0.75000000  0.77497543  0.29029704  1
  S  S6  1  0.25000000  0.72502457  0.79029704  1
  S  S7  1  0.75000000  0.27497543  0.20970296  1
  S  S8  1  0.75000000  0.63596462  0.55429718  1
  S  S9  1  0.25000000  0.36403538  0.44570282  1
  S  S10  1  0.75000000  0.13596462  0.94570282  1
  S  S11  1  0.25000000  0.86403538  0.05429718  1
loop_
_geom_bond_atom_site_label_1
_geom_bond_atom_site_label_2
_geom_bond_distance
_geom_bond_site_symmetry_2
Ba0 S8 3.162312 1_555
Ba0 S8 3.162312 1_455
Ba0 S6 3.222285 1_555
Ba0 S1 3.226559 1_455
Ba0 S1 3.226559 1_555
Ba0 S4 3.237475 1_555
Ba0 S9 3.276725 1_555
Ba1 S9 3.162312 1_555
Ba1 S9 3.162312 1_655
Ba1 S7 3.222285 1_555
Ba1 S3 3.226559 1_555
Ba1 S3 3.226559 1_655
Ba1 S5 3.237475 1_555
Ba1 S8 3.276725 1_555
Ba2 S10 3.162312 1_465
Ba2 S10 3.162312 1_565
Ba2 S4 3.222285 1_565
Ba2 S0 3.226559 1_555
Ba2 S0 3.226559 1_455
Ba2 S6 3.237475 1_555
Ba2 S11 3.276725 1_556
Ba3 S11 3.162312 1_645
Ba3 S11 3.162312 1_545
Ba3 S5 3.222285 1_545
Ba3 S2 3.226559 1_555
Ba3 S2 3.226559 1_655
Ba3 S7 3.237475 1_555
Ba3 S10 3.276725 1_554
Ba4 S0 3.224753 1_455
Ba4 S0 3.224753 1_555
Ba4 S2 3.243408 1_565
Ba4 S8 3.269727 1_555
Ba4 S8 3.269727 1_455
Ba4 S5 3.284562 1_455
Ba4 S5 3.284562 1_555
Ba5 S2 3.224753 1_555
Ba5 S2 3.224753 1_655
Ba5 S0 3.243408 1_545
Ba5 S9 3.269727 1_655
Ba5 S9 3.269727 1_555
Ba5 S4 3.284562 1_555
Ba5 S4 3.284562 1_655
Ba6 S1 3.224753 1_554
Ba6 S1 3.224753 1_454
Ba6 S3 3.243408 1_555
Ba6 S10 3.269727 1_454
Ba6 S10 3.269727 1_554
Ba6 S7 3.284562 1_455
Ba6 S7 3.284562 1_555
Ba7 S3 3.224753 1_556
Ba7 S3 3.224753 1_656
Ba7 S1 3.243408 1_555
Ba7 S11 3.269727 1_556
Ba7 S11 3.269727 1_656
Ba7 S6 3.284562 1_555
Ba7 S6 3.284562 1_655
S0 Zn3 2.337129 1_555
S1 Zn2 2.337129 1_555
S2 Zn1 2.337129 1_555
S3 Zn0 2.337129 1_555
S4 Zn2 2.460598 1_555
S4 Zn2 2.460598 1_455
S5 Zn0 2.460598 1_555
S5 Zn0 2.460598 1_655
S6 Zn3 2.460598 1_455
S6 Zn3 2.460598 1_555
S7 Zn1 2.460598 1_555
S7 Zn1 2.460598 1_655
S8 Zn3 2.314701 1_555
S9 Zn1 2.314701 1_555
S10 Zn2 2.314701 1_555
S11 Zn0 2.314701 1_555
