# generated using pymatgen
data_Tb2Cu(BO2)8
_symmetry_space_group_name_H-M   'P 1'
_cell_length_a   8.46693900
_cell_length_b   6.29770500
_cell_length_c   10.28877229
_cell_angle_alpha   89.56444023
_cell_angle_beta   90.00000000
_cell_angle_gamma   90.00000000
_symmetry_Int_Tables_number   1
_chemical_formula_structural   Tb2Cu(BO2)8
_chemical_formula_sum   'Tb4 Cu2 B16 O32'
_cell_volume   548.60498665
_cell_formula_units_Z   2
loop_
 _symmetry_equiv_pos_site_id
 _symmetry_equiv_pos_as_xyz
  1  'x, y, z'
loop_
 _atom_site_type_symbol
 _atom_site_label
 _atom_site_symmetry_multiplicity
 _atom_site_fract_x
 _atom_site_fract_y
 _atom_site_fract_z
 _atom_site_occupancy
  Tb  Tb0  1  0.01099600  0.49267100  0.81794500  1
  Tb  Tb1  1  0.51099600  0.00732900  0.18205500  1
  Tb  Tb2  1  0.48900400  0.99267100  0.81794500  1
  Tb  Tb3  1  0.98900400  0.50732900  0.18205500  1
  Cu  Cu0  1  0.50000000  0.00000000  0.50000000  1
  Cu  Cu1  1  0.00000000  0.50000000  0.50000000  1
  B  B0  1  0.00560300  0.99185800  0.80622900  1
  B  B1  1  0.80668300  0.87847700  0.62910600  1
  B  B2  1  0.68145000  0.61043500  0.99929700  1
  B  B3  1  0.49439700  0.49185800  0.80622900  1
  B  B4  1  0.81855000  0.11043500  0.99929700  1
  B  B5  1  0.30668300  0.62152300  0.37089400  1
  B  B6  1  0.68877400  0.38630700  0.38469600  1
  B  B7  1  0.31122600  0.61369300  0.61530400  1
  B  B8  1  0.99439700  0.00814200  0.19377100  1
  B  B9  1  0.50560300  0.50814200  0.19377100  1
  B  B10  1  0.69331700  0.37847700  0.62910600  1
  B  B11  1  0.81122600  0.88630700  0.38469600  1
  B  B12  1  0.31855000  0.38956500  0.00070300  1
  B  B13  1  0.18877400  0.11369300  0.61530400  1
  B  B14  1  0.18145000  0.88956500  0.00070300  1
  B  B15  1  0.19331700  0.12152300  0.37089400  1
  O  O0  1  0.65928400  0.94388100  0.36517500  1
  O  O1  1  0.40399900  0.65866400  0.26271100  1
  O  O2  1  0.62464000  0.34958300  0.50739100  1
  O  O3  1  0.61776900  0.65138400  0.12337700  1
  O  O4  1  0.09600100  0.15866400  0.26271100  1
  O  O5  1  0.91986500  0.13839800  0.89345400  1
  O  O6  1  0.59600100  0.34133600  0.73728900  1
  O  O7  1  0.15928400  0.55611900  0.63482500  1
  O  O8  1  0.83541300  0.55689200  0.98834700  1
  O  O9  1  0.65470200  0.93714800  0.64455300  1
  O  O10  1  0.38223100  0.34861600  0.87662300  1
  O  O11  1  0.34529800  0.06285200  0.35544700  1
  O  O12  1  0.34071600  0.05611900  0.63482500  1
  O  O13  1  0.41986500  0.36160200  0.10654600  1
  O  O14  1  0.58856100  0.35529300  0.27873600  1
  O  O15  1  0.87536000  0.84958300  0.50739100  1
  O  O16  1  0.11776900  0.84861600  0.87662300  1
  O  O17  1  0.08856100  0.14470700  0.72126400  1
  O  O18  1  0.15470200  0.56285200  0.35544700  1
  O  O19  1  0.37536000  0.65041700  0.49260900  1
  O  O20  1  0.12464000  0.15041700  0.49260900  1
  O  O21  1  0.84529800  0.43714800  0.64455300  1
  O  O22  1  0.84071600  0.44388100  0.36517500  1
  O  O23  1  0.41143900  0.64470700  0.72126400  1
  O  O24  1  0.58013500  0.63839800  0.89345400  1
  O  O25  1  0.16458700  0.44310800  0.01165300  1
  O  O26  1  0.08013500  0.86160200  0.10654600  1
  O  O27  1  0.33541300  0.94310800  0.01165300  1
  O  O28  1  0.88223100  0.15138400  0.12337700  1
  O  O29  1  0.66458700  0.05689200  0.98834700  1
  O  O30  1  0.91143900  0.85529300  0.27873600  1
  O  O31  1  0.90399900  0.84133600  0.73728900  1
loop_
_geom_bond_atom_site_label_1
_geom_bond_atom_site_label_2
_geom_bond_distance
_geom_bond_site_symmetry_2
Cu0 O12 1.968626 1_555
Cu0 O0 1.968626 1_545
Cu0 O9 2.018767 1_545
Cu0 O11 2.018767 1_555
Cu0 O2 2.443141 1_555
Cu0 O19 2.443141 1_545
Cu1 O7 1.968626 1_555
Cu1 O22 1.968626 1_455
Cu1 O21 2.018767 1_455
Cu1 O18 2.018767 1_555
Cu1 O15 2.443141 1_455
Cu1 O20 2.443141 1_555
B0 O31 1.466973 1_455
B0 O17 1.473556 1_565
B0 O5 1.482112 1_465
B0 O16 1.493433 1_555
B1 O9 1.348542 1_555
B1 O15 1.393897 1_555
B1 O31 1.403069 1_555
B2 O8 1.351419 1_555
B2 O24 1.396379 1_555
B2 O3 1.411388 1_556
B3 O6 1.466973 1_555
B3 O23 1.473556 1_555
B3 O24 1.482112 1_555
B3 O10 1.493433 1_555
B4 O29 1.351419 1_555
B4 O5 1.396379 1_555
B4 O28 1.411388 1_556
B5 O18 1.348542 1_555
B5 O19 1.393897 1_555
B5 O1 1.403069 1_555
B6 O22 1.351199 1_555
B6 O2 1.391950 1_555
B6 O14 1.396376 1_555
B7 O7 1.351199 1_555
B7 O19 1.391950 1_555
B7 O23 1.396376 1_555
B8 O4 1.466973 1_655
B8 O30 1.473556 1_545
B8 O26 1.482112 1_645
B8 O28 1.493433 1_555
B9 O1 1.466973 1_555
B9 O14 1.473556 1_555
B9 O13 1.482112 1_555
B9 O3 1.493433 1_555
B10 O21 1.348542 1_555
B10 O2 1.393897 1_555
B10 O6 1.403069 1_555
B11 O0 1.351199 1_555
B11 O15 1.391950 1_555
B11 O30 1.396376 1_555
B12 O25 1.351419 1_555
B12 O13 1.396379 1_555
B12 O10 1.411388 1_554
B13 O12 1.351199 1_555
B13 O20 1.391950 1_555
B13 O17 1.396376 1_555
B14 O27 1.351419 1_555
B14 O26 1.396379 1_555
B14 O16 1.411388 1_554
B15 O11 1.348542 1_555
B15 O20 1.393897 1_555
B15 O4 1.403069 1_555
O0 Tb1 2.296599 1_565
O1 Tb1 2.510610 1_565
O3 Tb1 2.495452 1_565
O4 Tb3 2.510610 1_455
O5 Tb0 2.480004 1_655
O6 Tb2 2.510610 1_545
O7 Tb0 2.296599 1_555
O8 Tb0 2.336299 1_655
O8 Tb3 2.398176 1_556
O9 Tb2 2.298403 1_555
O10 Tb2 2.495452 1_545
O11 Tb1 2.298403 1_555
O12 Tb2 2.296599 1_545
O13 Tb1 2.480004 1_555
O14 Tb1 2.501211 1_555
O16 Tb0 2.495452 1_555
O17 Tb0 2.501211 1_555
O18 Tb3 2.298403 1_455
O21 Tb0 2.298403 1_655
O22 Tb3 2.296599 1_555
O23 Tb2 2.501211 1_555
O24 Tb2 2.480004 1_555
O25 Tb3 2.336299 1_455
O25 Tb0 2.398176 1_554
O26 Tb3 2.480004 1_455
O27 Tb1 2.336299 1_565
O27 Tb2 2.398176 1_554
O28 Tb3 2.495452 1_555
O29 Tb2 2.336299 1_545
O29 Tb1 2.398176 1_556
O30 Tb3 2.501211 1_555
O31 Tb0 2.510610 1_655
