# generated using pymatgen
data_Rb2Zr(IO3)6
_symmetry_space_group_name_H-M   'P 1'
_cell_length_a   7.90722197
_cell_length_b   7.90722197
_cell_length_c   7.90722204
_cell_angle_alpha   97.30923330
_cell_angle_beta   97.30923330
_cell_angle_gamma   97.30924074
_symmetry_Int_Tables_number   1
_chemical_formula_structural   Rb2Zr(IO3)6
_chemical_formula_sum   'Rb2 Zr1 I6 O18'
_cell_volume   481.19476475
_cell_formula_units_Z   1
loop_
 _symmetry_equiv_pos_site_id
 _symmetry_equiv_pos_as_xyz
  1  'x, y, z'
loop_
 _atom_site_type_symbol
 _atom_site_label
 _atom_site_symmetry_multiplicity
 _atom_site_fract_x
 _atom_site_fract_y
 _atom_site_fract_z
 _atom_site_occupancy
  Rb  Rb0  1  0.83202200  0.83202200  0.83202200  1
  Rb  Rb1  1  0.16797800  0.16797800  0.16797800  1
  Zr  Zr0  1  0.50000000  0.50000000  0.50000000  1
  I  I0  1  0.29553600  0.88139900  0.66542600  1
  I  I1  1  0.11860100  0.33457400  0.70446400  1
  I  I2  1  0.88139900  0.66542600  0.29553600  1
  I  I3  1  0.66542600  0.29553600  0.88139900  1
  I  I4  1  0.70446400  0.11860100  0.33457400  1
  I  I5  1  0.33457400  0.70446400  0.11860100  1
  O  O0  1  0.27858500  0.39283900  0.89826900  1
  O  O1  1  0.39283900  0.89826900  0.27858500  1
  O  O2  1  0.10173100  0.72141500  0.60716100  1
  O  O3  1  0.10081200  0.68997900  0.08262800  1
  O  O4  1  0.27820200  0.34537600  0.54693000  1
  O  O5  1  0.68997900  0.08262800  0.10081200  1
  O  O6  1  0.89826900  0.27858500  0.39283900  1
  O  O7  1  0.31002100  0.91737200  0.89918800  1
  O  O8  1  0.72179800  0.65462400  0.45307000  1
  O  O9  1  0.34537600  0.54693000  0.27820200  1
  O  O10  1  0.72141500  0.60716100  0.10173100  1
  O  O11  1  0.65462400  0.45307000  0.72179800  1
  O  O12  1  0.60716100  0.10173100  0.72141500  1
  O  O13  1  0.08262800  0.10081200  0.68997900  1
  O  O14  1  0.91737200  0.89918800  0.31002100  1
  O  O15  1  0.54693000  0.27820200  0.34537600  1
  O  O16  1  0.89918800  0.31002100  0.91737200  1
  O  O17  1  0.45307000  0.72179800  0.65462400  1
loop_
_geom_bond_atom_site_label_1
_geom_bond_atom_site_label_2
_geom_bond_distance
_geom_bond_site_symmetry_2
I0 O7 1.820632 1_555
I0 O2 1.827503 1_555
I0 O17 1.884475 1_555
I0 O13 2.573441 1_565
I1 O13 1.820631 1_555
I1 O0 1.827503 1_555
I1 O4 1.884474 1_555
I1 O16 2.573441 1_455
I2 O14 1.820631 1_555
I2 O10 1.827503 1_555
I2 O8 1.884474 1_555
I2 O3 2.573441 1_655
I3 O16 1.820631 1_555
I3 O12 1.827503 1_555
I3 O11 1.884474 1_555
I3 O5 2.573441 1_556
I4 O5 1.820632 1_555
I4 O6 1.827503 1_555
I4 O15 1.884475 1_555
I4 O14 2.573441 1_545
I5 O3 1.820631 1_555
I5 O1 1.827503 1_555
I5 O9 1.884474 1_555
I5 O7 2.573441 1_554
O0 Rb1 3.085165 1_556
O1 Rb1 3.085166 1_565
O2 Rb0 3.085166 1_455
O3 Rb0 3.131702 1_454
O4 Zr0 2.108041 1_555
O4 Rb1 3.108202 1_555
O5 Rb0 3.131702 1_544
O6 Rb1 3.085166 1_655
O7 Rb1 3.131702 1_566
O8 Zr0 2.108041 1_555
O8 Rb0 3.108202 1_555
O9 Zr0 2.108041 1_555
O9 Rb1 3.108202 1_555
O10 Rb0 3.085165 1_554
O11 Zr0 2.108041 1_555
O11 Rb0 3.108202 1_555
O12 Rb0 3.085166 1_545
O13 Rb0 3.131701 1_445
O14 Rb1 3.131701 1_665
O15 Zr0 2.108041 1_555
O15 Rb1 3.108202 1_555
O16 Rb1 3.131702 1_656
O17 Zr0 2.108041 1_555
O17 Rb0 3.108202 1_555
