# generated using pymatgen
data_Na2Cu(PO3)4
_symmetry_space_group_name_H-M   'P 1'
_cell_length_a   8.25864989
_cell_length_b   8.25864989
_cell_length_c   7.91001819
_cell_angle_alpha   87.02035718
_cell_angle_beta   87.02035718
_cell_angle_gamma   109.66820705
_symmetry_Int_Tables_number   1
_chemical_formula_structural   Na2Cu(PO3)4
_chemical_formula_sum   'Na4 Cu2 P8 O24'
_cell_volume   505.95568576
_cell_formula_units_Z   2
loop_
 _symmetry_equiv_pos_site_id
 _symmetry_equiv_pos_as_xyz
  1  'x, y, z'
loop_
 _atom_site_type_symbol
 _atom_site_label
 _atom_site_symmetry_multiplicity
 _atom_site_fract_x
 _atom_site_fract_y
 _atom_site_fract_z
 _atom_site_occupancy
  Na  Na0  1  0.18353700  0.47053000  0.69403200  1
  Na  Na1  1  0.81646300  0.52947000  0.30596800  1
  Na  Na2  1  0.47053000  0.18353700  0.19403200  1
  Na  Na3  1  0.52947000  0.81646300  0.80596800  1
  Cu  Cu0  1  0.13740000  0.86260000  0.25000000  1
  Cu  Cu1  1  0.86260000  0.13740000  0.75000000  1
  P  P0  1  0.21223900  0.06412700  0.82349800  1
  P  P1  1  0.93587300  0.78776100  0.67650200  1
  P  P2  1  0.06412700  0.21223900  0.32349800  1
  P  P3  1  0.23973200  0.55113700  0.12472800  1
  P  P4  1  0.55113700  0.23973200  0.62472800  1
  P  P5  1  0.44886300  0.76026800  0.37527200  1
  P  P6  1  0.78776100  0.93587300  0.17650200  1
  P  P7  1  0.76026800  0.44886300  0.87527200  1
  O  O0  1  0.91459100  0.83985300  0.16015800  1
  O  O1  1  0.12150700  0.87849300  0.75000000  1
  O  O2  1  0.30612900  0.04034800  0.97322400  1
  O  O3  1  0.39586600  0.60413400  0.25000000  1
  O  O4  1  0.89655200  0.37433500  0.81503300  1
  O  O5  1  0.95965200  0.69387100  0.52677500  1
  O  O6  1  0.83985300  0.91459100  0.66015800  1
  O  O7  1  0.16014700  0.08540900  0.33984200  1
  O  O8  1  0.34570500  0.16503000  0.66345600  1
  O  O9  1  0.62566500  0.10344800  0.68496700  1
  O  O10  1  0.58636800  0.31118300  0.44464000  1
  O  O11  1  0.10344800  0.62566500  0.18496700  1
  O  O12  1  0.68881700  0.41363200  0.05536000  1
  O  O13  1  0.31118300  0.58636800  0.94464000  1
  O  O14  1  0.87849300  0.12150700  0.25000000  1
  O  O15  1  0.16503000  0.34570500  0.16345600  1
  O  O16  1  0.65429500  0.83497000  0.33654400  1
  O  O17  1  0.69387100  0.95965200  0.02677500  1
  O  O18  1  0.37433500  0.89655200  0.31503300  1
  O  O19  1  0.83497000  0.65429500  0.83654400  1
  O  O20  1  0.41363200  0.68881700  0.55536000  1
  O  O21  1  0.08540900  0.16014700  0.83984200  1
  O  O22  1  0.60413400  0.39586600  0.75000000  1
  O  O23  1  0.04034800  0.30612900  0.47322500  1
loop_
_geom_bond_atom_site_label_1
_geom_bond_atom_site_label_2
_geom_bond_distance
_geom_bond_site_symmetry_2
Na0 O20 2.309948 1_555
Na0 O4 2.362683 1_455
Na0 O23 2.381783 1_555
Na0 O13 2.385712 1_555
Na0 O21 2.599008 1_555
Na1 O10 2.309948 1_555
Na1 O11 2.362683 1_655
Na1 O5 2.381783 1_555
Na1 O12 2.385712 1_555
Na1 O0 2.599008 1_555
Na2 O12 2.309948 1_555
Na2 O18 2.362683 1_545
Na2 O2 2.381789 1_554
Na2 O10 2.385712 1_555
Na2 O7 2.599008 1_555
Na3 O13 2.309948 1_555
Na3 O9 2.362683 1_565
Na3 O17 2.381783 1_556
Na3 O20 2.385712 1_555
Na3 O6 2.599008 1_555
Cu0 O0 1.960466 1_455
Cu0 O7 1.960466 1_565
Cu0 O18 1.980523 1_555
Cu0 O11 1.980523 1_555
Cu0 O5 2.619437 1_455
Cu0 O2 2.619443 1_564
Cu1 O6 1.960466 1_545
Cu1 O21 1.960466 1_655
Cu1 O4 1.980523 1_555
Cu1 O9 1.980523 1_555
Cu1 O23 2.619437 1_655
Cu1 O17 2.619437 1_546
O0 P6 1.516049 1_555
O1 P1 1.616937 1_455
O1 P0 1.616937 1_565
O2 P0 1.488713 1_555
O3 P3 1.623013 1_555
O3 P5 1.623013 1_555
O4 P7 1.521101 1_555
O5 P1 1.488719 1_555
O6 P1 1.516049 1_555
O7 P2 1.516049 1_555
O8 P4 1.604562 1_555
O8 P0 1.624478 1_555
O9 P4 1.521101 1_555
O10 P4 1.488626 1_555
O11 P3 1.521101 1_555
O12 P7 1.488626 1_554
O13 P3 1.488626 1_556
O14 P6 1.616937 1_545
O14 P2 1.616937 1_655
O15 P3 1.604562 1_555
O15 P2 1.624478 1_555
O16 P5 1.604562 1_555
O16 P6 1.624478 1_555
O17 P6 1.488719 1_555
O18 P5 1.521101 1_555
O19 P7 1.604562 1_555
O19 P1 1.624478 1_555
O20 P5 1.488626 1_555
O21 P0 1.516049 1_555
O22 P4 1.623013 1_555
O22 P7 1.623013 1_555
O23 P2 1.488719 1_555
