# generated using pymatgen
data_CsGa3
_symmetry_space_group_name_H-M   'P 1'
_cell_length_a   6.40401939
_cell_length_b   6.40402029
_cell_length_c   8.87065189
_cell_angle_alpha   111.15958266
_cell_angle_beta   111.15958541
_cell_angle_gamma   89.99999622
_symmetry_Int_Tables_number   1
_chemical_formula_structural   CsGa3
_chemical_formula_sum   'Cs3 Ga9'
_cell_volume   312.82563523
_cell_formula_units_Z   3
loop_
 _symmetry_equiv_pos_site_id
 _symmetry_equiv_pos_as_xyz
  1  'x, y, z'
loop_
 _atom_site_type_symbol
 _atom_site_label
 _atom_site_symmetry_multiplicity
 _atom_site_fract_x
 _atom_site_fract_y
 _atom_site_fract_z
 _atom_site_occupancy
  Cs  Cs0  1  0.00000000  -0.00000000  -0.00000000  1
  Cs  Cs1  1  0.12780539  0.62780539  0.25560978  1
  Cs  Cs2  1  0.37219461  0.87219461  0.74439022  1
  Ga  Ga0  1  0.77483951  0.56534469  0.54968001  1
  Ga  Ga1  1  0.08138704  0.38907818  0.77815436  1
  Ga  Ga2  1  0.69676933  0.38907818  0.77815436  1
  Ga  Ga3  1  0.77483951  0.98433432  0.54968001  1
  Ga  Ga4  1  0.01566568  0.22516049  0.45031999  1
  Ga  Ga5  1  0.43465531  0.22516049  0.45031999  1
  Ga  Ga6  1  0.61092182  0.30323067  0.22184564  1
  Ga  Ga7  1  0.61092182  0.91861296  0.22184564  1
  Ga  Ga8  1  0.50000000  0.50000000  -0.00000000  1
loop_
_geom_bond_atom_site_label_1
_geom_bond_atom_site_label_2
_geom_bond_distance
_geom_bond_site_symmetry_2
Cs0 Ga3 3.687637 1_444
Cs0 Ga4 3.687637 1_555
Cs0 Ga5 3.687639 1_555
Cs0 Ga0 3.687639 1_444
Cs0 Cs2 3.748906 1_544
Cs0 Cs1 3.748906 1_545
Cs0 Cs2 3.748911 1_444
Cs0 Cs1 3.748911 1_555
Cs0 Ga6 3.825312 1_555
Cs0 Ga2 3.825313 1_444
Cs0 Ga7 3.825316 1_545
Cs0 Ga1 3.825317 1_544
Cs0 Ga6 3.825323 1_455
Cs0 Ga2 3.825323 1_454
Cs0 Ga7 3.825328 1_445
Cs0 Ga1 3.825328 1_554
Cs1 Cs2 3.728300 1_555
Cs1 Ga8 3.748906 1_555
Cs1 Ga8 3.748911 1_455
Cs1 Ga7 3.768529 1_555
Cs1 Ga6 3.768539 1_555
Cs1 Ga7 3.768545 1_455
Cs1 Ga6 3.768555 1_455
Cs1 Ga5 3.776057 1_565
Cs1 Ga4 3.776057 1_565
Cs1 Ga5 3.776057 1_555
Cs1 Ga4 3.776058 1_555
Cs1 Ga2 3.844509 1_454
Cs1 Ga1 3.844512 1_554
Cs1 Ga3 4.133304 1_555
Cs1 Ga0 4.133308 1_555
Cs1 Ga3 4.133315 1_455
Cs1 Ga0 4.133319 1_455
Cs2 Ga8 3.748906 1_556
Cs2 Ga8 3.748911 1_566
Cs2 Ga1 3.768529 1_555
Cs2 Ga2 3.768539 1_555
Cs2 Ga1 3.768545 1_565
Cs2 Ga2 3.768556 1_565
Cs2 Ga3 3.776057 1_455
Cs2 Ga0 3.776057 1_455
Cs2 Ga0 3.776057 1_555
Cs2 Ga3 3.776058 1_555
Cs2 Ga6 3.844509 1_566
Cs2 Ga7 3.844512 1_556
Cs2 Ga4 4.133305 1_555
Cs2 Ga5 4.133309 1_555
Cs2 Ga4 4.133315 1_565
Cs2 Ga5 4.133319 1_565
Ga0 Ga6 2.578501 1_555
Ga0 Ga3 2.683218 1_555
Ga0 Ga5 2.737981 1_555
Ga0 Ga4 2.737990 1_655
Ga0 Ga2 2.831063 1_555
Ga0 Ga1 2.831071 1_655
Ga1 Ga2 2.463099 1_455
Ga1 Ga4 2.578499 1_555
Ga1 Ga8 2.597340 1_556
Ga1 Ga3 2.831084 1_445
Ga2 Ga5 2.578501 1_555
Ga2 Ga8 2.597351 1_556
Ga2 Ga3 2.831075 1_545
Ga3 Ga7 2.578499 1_555
Ga3 Ga5 2.737990 1_565
Ga3 Ga4 2.737999 1_665
Ga4 Ga5 2.683218 1_555
Ga4 Ga6 2.831075 1_455
Ga4 Ga7 2.831083 1_445
Ga5 Ga6 2.831063 1_555
Ga5 Ga7 2.831071 1_545
Ga6 Ga7 2.463100 1_545
Ga6 Ga8 2.597351 1_555
Ga7 Ga8 2.597341 1_555
