# generated using pymatgen
data_TlZn(PO3)3
_symmetry_space_group_name_H-M   'P 1'
_cell_length_a   5.22583500
_cell_length_b   12.11874400
_cell_length_c   13.15465600
_cell_angle_alpha   90.00000000
_cell_angle_beta   90.00000000
_cell_angle_gamma   90.00000000
_symmetry_Int_Tables_number   1
_chemical_formula_structural   TlZn(PO3)3
_chemical_formula_sum   'Tl4 Zn4 P12 O36'
_cell_volume   833.09168572
_cell_formula_units_Z   4
loop_
 _symmetry_equiv_pos_site_id
 _symmetry_equiv_pos_as_xyz
  1  'x, y, z'
loop_
 _atom_site_type_symbol
 _atom_site_label
 _atom_site_symmetry_multiplicity
 _atom_site_fract_x
 _atom_site_fract_y
 _atom_site_fract_z
 _atom_site_occupancy
  Tl  Tl0  1  0.07879900  0.14085200  0.25000000  1
  Tl  Tl1  1  0.92120100  0.85914800  0.75000000  1
  Tl  Tl2  1  0.07879900  0.35914800  0.75000000  1
  Tl  Tl3  1  0.92120100  0.64085200  0.25000000  1
  Zn  Zn0  1  0.00000000  0.00000000  0.00000000  1
  Zn  Zn1  1  0.00000000  0.50000000  0.50000000  1
  Zn  Zn2  1  0.00000000  0.00000000  0.50000000  1
  Zn  Zn3  1  0.00000000  0.50000000  0.00000000  1
  P  P0  1  0.51021000  0.91554800  0.13469600  1
  P  P1  1  0.48979000  0.08445200  0.63469600  1
  P  P2  1  0.51021000  0.58445200  0.86530400  1
  P  P3  1  0.25049500  0.75000000  0.00000000  1
  P  P4  1  0.51021000  0.91554800  0.36530400  1
  P  P5  1  0.48979000  0.41554800  0.36530400  1
  P  P6  1  0.25049500  0.75000000  0.50000000  1
  P  P7  1  0.74950500  0.25000000  0.50000000  1
  P  P8  1  0.48979000  0.41554800  0.13469600  1
  P  P9  1  0.51021000  0.58445200  0.63469600  1
  P  P10  1  0.48979000  0.08445200  0.86530400  1
  P  P11  1  0.74950500  0.25000000  0.00000000  1
  O  O0  1  0.55069900  0.29759000  0.41738900  1
  O  O1  1  0.55069900  0.29759000  0.08261100  1
  O  O2  1  0.79197300  0.93733000  0.37388100  1
  O  O3  1  0.44930100  0.79759000  0.41738900  1
  O  O4  1  0.32314700  0.00288900  0.39889900  1
  O  O5  1  0.44930100  0.70241000  0.91738900  1
  O  O6  1  0.55069900  0.20241000  0.58261100  1
  O  O7  1  0.10459400  0.65759200  0.04940400  1
  O  O8  1  0.32314700  0.49711100  0.89889900  1
  O  O9  1  0.55706000  0.37934500  0.25000000  1
  O  O10  1  0.67685300  0.50288900  0.39889900  1
  O  O11  1  0.44294000  0.62065500  0.75000000  1
  O  O12  1  0.79197300  0.56267000  0.62611900  1
  O  O13  1  0.67685300  0.99711100  0.89889900  1
  O  O14  1  0.20802700  0.43733000  0.12611900  1
  O  O15  1  0.10459400  0.65759200  0.45059600  1
  O  O16  1  0.44294000  0.87934500  0.25000000  1
  O  O17  1  0.67685300  0.99711100  0.60110100  1
  O  O18  1  0.10459400  0.84240800  0.95059600  1
  O  O19  1  0.44930100  0.70241000  0.58261100  1
  O  O20  1  0.20802700  0.06267000  0.62611900  1
  O  O21  1  0.32314700  0.00288900  0.10110100  1
  O  O22  1  0.67685300  0.50288900  0.10110100  1
  O  O23  1  0.20802700  0.06267000  0.87388100  1
  O  O24  1  0.20802700  0.43733000  0.37388100  1
  O  O25  1  0.89540600  0.15759200  0.45059600  1
  O  O26  1  0.79197300  0.56267000  0.87388100  1
  O  O27  1  0.55706000  0.12065500  0.75000000  1
  O  O28  1  0.10459400  0.84240800  0.54940400  1
  O  O29  1  0.32314700  0.49711100  0.60110100  1
  O  O30  1  0.89540600  0.15759200  0.04940400  1
  O  O31  1  0.55069900  0.20241000  0.91738900  1
  O  O32  1  0.79197300  0.93733000  0.12611900  1
  O  O33  1  0.89540600  0.34240800  0.95059600  1
  O  O34  1  0.89540600  0.34240800  0.54940400  1
  O  O35  1  0.44930100  0.79759000  0.08261100  1
loop_
_geom_bond_atom_site_label_1
_geom_bond_atom_site_label_2
_geom_bond_distance
_geom_bond_site_symmetry_2
O0 P7 1.610263 1_555
O0 P5 1.616861 1_555
O1 P11 1.610263 1_555
O1 P8 1.616861 1_555
O2 P4 1.500170 1_555
O2 Zn2 2.123931 1_665
O3 P6 1.610263 1_555
O3 P4 1.616861 1_555
O4 P4 1.507074 1_545
O4 Zn2 2.149823 1_555
O4 Tl0 2.874452 1_555
O5 P3 1.610263 1_556
O5 P2 1.616861 1_555
O6 P7 1.610263 1_555
O6 P1 1.616861 1_555
O7 P3 1.502599 1_555
O7 Zn3 2.090101 1_555
O7 Tl3 2.814741 1_455
O8 P2 1.507074 1_555
O8 Zn3 2.149823 1_556
O8 Tl2 2.874452 1_555
O9 P8 1.617623 1_555
O9 P5 1.617623 1_555
O10 P5 1.507074 1_555
O10 Zn1 2.149823 1_655
O10 Tl3 2.874452 1_555
O11 P2 1.617623 1_555
O11 P9 1.617623 1_555
O12 P9 1.500170 1_555
O12 Zn1 2.123931 1_655
O13 P10 1.507074 1_565
O13 Zn0 2.149823 1_666
O13 Tl1 2.874452 1_555
O14 P8 1.500170 1_555
O14 Zn3 2.123931 1_555
O15 P6 1.502599 1_555
O15 Zn1 2.090101 1_555
O15 Tl3 2.814741 1_455
O16 P0 1.617623 1_555
O16 P4 1.617623 1_555
O17 P1 1.507074 1_565
O17 Zn2 2.149823 1_665
O17 Tl1 2.874452 1_555
O18 P3 1.502599 1_556
O18 Zn0 2.090101 1_566
O18 Tl1 2.814741 1_455
O19 P6 1.610263 1_555
O19 P9 1.616861 1_555
O20 P1 1.500170 1_555
O20 Zn2 2.123931 1_555
O21 P0 1.507074 1_545
O21 Zn0 2.149823 1_555
O21 Tl0 2.874452 1_555
O22 P8 1.507074 1_555
O22 Zn3 2.149823 1_655
O22 Tl3 2.874452 1_555
O23 P10 1.500170 1_555
O23 Zn0 2.123931 1_556
O24 P5 1.500170 1_555
O24 Zn1 2.123931 1_555
O25 P7 1.502599 1_555
O25 Zn2 2.090101 1_655
O25 Tl0 2.814741 1_655
O26 P2 1.500170 1_555
O26 Zn3 2.123931 1_656
O27 P10 1.617623 1_555
O27 P1 1.617623 1_555
O28 P6 1.502599 1_555
O28 Zn2 2.090101 1_565
O28 Tl1 2.814741 1_455
O29 P9 1.507074 1_555
O29 Zn1 2.149823 1_555
O29 Tl2 2.874452 1_555
O30 P11 1.502599 1_555
O30 Zn0 2.090101 1_655
O30 Tl0 2.814741 1_655
O31 P11 1.610263 1_556
O31 P10 1.616861 1_555
O32 P0 1.500170 1_555
O32 Zn0 2.123931 1_665
O33 P11 1.502599 1_556
O33 Zn3 2.090101 1_656
O33 Tl2 2.814741 1_655
O34 P7 1.502599 1_555
O34 Zn1 2.090101 1_655
O34 Tl2 2.814741 1_655
O35 P3 1.610263 1_555
O35 P0 1.616861 1_555
