# generated using pymatgen
data_Tm2Mn3Si5
_symmetry_space_group_name_H-M   'P 1'
_cell_length_a   10.54189310
_cell_length_b   10.54189310
_cell_length_c   5.39232975
_cell_angle_alpha   90.00000000
_cell_angle_beta   90.00000000
_cell_angle_gamma   90.00000000
_symmetry_Int_Tables_number   1
_chemical_formula_structural   Tm2Mn3Si5
_chemical_formula_sum   'Tm8 Mn12 Si20'
_cell_volume   599.25774825
_cell_formula_units_Z   4
loop_
 _symmetry_equiv_pos_site_id
 _symmetry_equiv_pos_as_xyz
  1  'x, y, z'
loop_
 _atom_site_type_symbol
 _atom_site_label
 _atom_site_symmetry_multiplicity
 _atom_site_fract_x
 _atom_site_fract_y
 _atom_site_fract_z
 _atom_site_occupancy
  Tm  Tm0  1  0.23799803  0.07463527  -0.00000000  1
  Tm  Tm1  1  0.07463527  0.76200197  -0.00000000  1
  Tm  Tm2  1  0.92536473  0.23799803  -0.00000000  1
  Tm  Tm3  1  0.76200197  0.92536473  -0.00000000  1
  Tm  Tm4  1  0.26200197  0.57463527  0.50000000  1
  Tm  Tm5  1  0.73799803  0.42536473  0.50000000  1
  Tm  Tm6  1  0.57463527  0.73799803  0.50000000  1
  Tm  Tm7  1  0.42536473  0.26200197  0.50000000  1
  Mn  Mn0  1  0.50000000  0.00000000  0.25000000  1
  Mn  Mn1  1  -0.00000000  0.50000000  0.25000000  1
  Mn  Mn2  1  0.50000000  0.00000000  0.75000000  1
  Mn  Mn3  1  -0.00000000  0.50000000  0.75000000  1
  Mn  Mn4  1  0.36036694  0.38164248  -0.00000000  1
  Mn  Mn5  1  0.38164248  0.63963306  -0.00000000  1
  Mn  Mn6  1  0.61835752  0.36036694  -0.00000000  1
  Mn  Mn7  1  0.63963306  0.61835752  -0.00000000  1
  Mn  Mn8  1  0.13963306  0.88164248  0.50000000  1
  Mn  Mn9  1  0.86036694  0.11835752  0.50000000  1
  Mn  Mn10  1  0.88164248  0.86036694  0.50000000  1
  Mn  Mn11  1  0.11835752  0.13963306  0.50000000  1
  Si  Si0  1  -0.00000000  0.00000000  0.23669021  1
  Si  Si1  1  0.50000000  0.50000000  0.26330979  1
  Si  Si2  1  -0.00000000  0.00000000  0.76330979  1
  Si  Si3  1  0.50000000  0.50000000  0.73669021  1
  Si  Si4  1  0.67609453  0.17609453  0.25000000  1
  Si  Si5  1  0.17609453  0.32390547  0.25000000  1
  Si  Si6  1  0.82390547  0.67609453  0.25000000  1
  Si  Si7  1  0.32390547  0.82390547  0.25000000  1
  Si  Si8  1  0.32390547  0.82390547  0.75000000  1
  Si  Si9  1  0.82390547  0.67609453  0.75000000  1
  Si  Si10  1  0.17609453  0.32390547  0.75000000  1
  Si  Si11  1  0.67609453  0.17609453  0.75000000  1
  Si  Si12  1  0.47681945  0.18449038  -0.00000000  1
  Si  Si13  1  0.18449038  0.52318055  -0.00000000  1
  Si  Si14  1  0.81550962  0.47681945  -0.00000000  1
  Si  Si15  1  0.52318055  0.81550962  -0.00000000  1
  Si  Si16  1  0.02318055  0.68449038  0.50000000  1
  Si  Si17  1  0.97681945  0.31550962  0.50000000  1
  Si  Si18  1  0.68449038  0.97681945  0.50000000  1
  Si  Si19  1  0.31550962  0.02318055  0.50000000  1
loop_
_geom_bond_atom_site_label_1
_geom_bond_atom_site_label_2
_geom_bond_distance
_geom_bond_site_symmetry_2
Mn0 Si15 2.378990 1_545
Mn0 Si12 2.378990 1_555
Mn0 Si19 2.378990 1_555
Mn0 Si18 2.378990 1_545
Mn0 Si4 2.625303 1_555
Mn0 Si7 2.625303 1_545
Mn0 Tm7 3.172539 1_555
Mn0 Tm0 3.172539 1_555
Mn0 Tm3 3.172539 1_545
Mn0 Tm6 3.172539 1_545
Mn1 Si14 2.378990 1_455
Mn1 Si17 2.378990 1_455
Mn1 Si13 2.378990 1_555
Mn1 Si16 2.378990 1_555
Mn1 Si5 2.625303 1_555
Mn1 Si6 2.625303 1_455
Mn1 Tm1 3.172539 1_555
Mn1 Tm4 3.172539 1_555
Mn1 Tm2 3.172539 1_455
Mn1 Tm5 3.172539 1_455
Mn2 Si15 2.378990 1_546
Mn2 Si19 2.378990 1_555
Mn2 Si12 2.378990 1_556
Mn2 Si18 2.378990 1_545
Mn2 Si8 2.625303 1_545
Mn2 Si11 2.625303 1_555
Mn2 Tm7 3.172539 1_555
Mn2 Tm0 3.172539 1_556
Mn2 Tm3 3.172539 1_546
Mn2 Tm6 3.172539 1_545
Mn3 Si14 2.378990 1_456
Mn3 Si17 2.378990 1_455
Mn3 Si13 2.378990 1_556
Mn3 Si16 2.378990 1_555
Mn3 Si9 2.625303 1_455
Mn3 Si10 2.625303 1_555
Mn3 Tm2 3.172539 1_456
Mn3 Tm4 3.172539 1_555
Mn3 Tm1 3.172539 1_556
Mn3 Tm5 3.172539 1_455
Mn4 Si13 2.379891 1_555
Mn4 Si1 2.395734 1_555
Mn4 Si3 2.395734 1_554
Mn4 Si12 2.413843 1_555
Mn4 Si5 2.441599 1_555
Mn4 Si10 2.441599 1_554
Mn4 Tm7 3.054427 1_554
Mn4 Tm7 3.054427 1_555
Mn5 Si15 2.379891 1_555
Mn5 Si1 2.395734 1_555
Mn5 Si3 2.395734 1_554
Mn5 Si13 2.413843 1_555
Mn5 Si8 2.441599 1_554
Mn5 Si7 2.441599 1_555
Mn5 Tm4 3.054427 1_555
Mn5 Tm4 3.054427 1_554
Mn6 Si12 2.379891 1_555
Mn6 Si1 2.395734 1_555
Mn6 Si3 2.395734 1_554
Mn6 Si14 2.413843 1_555
Mn6 Si4 2.441599 1_555
Mn6 Si11 2.441599 1_554
Mn6 Tm5 3.054427 1_554
Mn6 Tm5 3.054427 1_555
Mn7 Si14 2.379891 1_555
Mn7 Si1 2.395734 1_555
Mn7 Si3 2.395734 1_554
Mn7 Si15 2.413843 1_555
Mn7 Si9 2.441599 1_554
Mn7 Si6 2.441599 1_555
Mn7 Tm6 3.054427 1_554
Mn7 Tm6 3.054427 1_555
Mn8 Si19 2.379891 1_565
Mn8 Si0 2.395734 1_565
Mn8 Si2 2.395734 1_565
Mn8 Si16 2.413843 1_555
Mn8 Si7 2.441599 1_555
Mn8 Si8 2.441599 1_555
Mn8 Tm1 3.054427 1_555
Mn8 Tm1 3.054427 1_556
Mn9 Si18 2.379891 1_545
Mn9 Si2 2.395734 1_655
Mn9 Si0 2.395734 1_655
Mn9 Si17 2.413843 1_555
Mn9 Si11 2.441599 1_555
Mn9 Si4 2.441599 1_555
Mn9 Tm2 3.054427 1_555
Mn9 Tm2 3.054427 1_556
Mn10 Si16 2.379891 1_655
Mn10 Si2 2.395734 1_665
Mn10 Si0 2.395734 1_665
Mn10 Si18 2.413843 1_555
Mn10 Si9 2.441599 1_555
Mn10 Si6 2.441599 1_555
Mn10 Tm3 3.054427 1_555
Mn10 Tm3 3.054427 1_556
Mn11 Si17 2.379891 1_455
Mn11 Si2 2.395734 1_555
Mn11 Si0 2.395734 1_555
Mn11 Si19 2.413843 1_555
Mn11 Si10 2.441599 1_555
Mn11 Si5 2.441599 1_555
Mn11 Tm0 3.054427 1_555
Mn11 Tm0 3.054427 1_556
Si0 Si2 2.552623 1_554
Si0 Tm1 2.922815 1_545
Si0 Tm0 2.922815 1_555
Si0 Tm3 2.922815 1_445
Si0 Tm2 2.922815 1_455
Si1 Si3 2.552623 1_555
Si1 Tm5 2.922815 1_555
Si1 Tm7 2.922815 1_555
Si1 Tm4 2.922815 1_555
Si1 Tm6 2.922815 1_555
Si2 Tm1 2.922815 1_546
Si2 Tm2 2.922815 1_456
Si2 Tm0 2.922815 1_556
Si2 Tm3 2.922815 1_446
Si3 Tm5 2.922815 1_555
Si3 Tm7 2.922815 1_555
Si3 Tm4 2.922815 1_555
Si3 Tm6 2.922815 1_555
Si4 Tm2 3.024634 1_555
Si4 Tm5 3.024634 1_555
Si4 Tm7 3.102228 1_555
Si4 Tm3 3.102228 1_545
Si5 Tm0 3.024634 1_555
Si5 Tm7 3.024634 1_555
Si5 Tm2 3.102228 1_455
Si5 Tm4 3.102228 1_555
Si6 Si9 2.696165 1_555
Si6 Si9 2.696165 1_554
Si6 Tm6 3.024634 1_555
Si6 Tm3 3.024634 1_555
Si6 Tm1 3.102228 1_655
Si6 Tm5 3.102228 1_555
Si7 Si8 2.696165 1_555
Si7 Si8 2.696165 1_554
Si7 Tm1 3.024634 1_555
Si7 Tm4 3.024634 1_555
Si7 Tm0 3.102228 1_565
Si7 Tm6 3.102228 1_555
Si8 Tm1 3.024634 1_556
Si8 Tm4 3.024634 1_555
Si8 Tm0 3.102228 1_566
Si8 Tm6 3.102228 1_555
Si9 Tm3 3.024634 1_556
Si9 Tm6 3.024634 1_555
Si9 Tm1 3.102228 1_656
Si9 Tm5 3.102228 1_555
Si10 Si13 2.497650 1_556
Si10 Si17 2.497650 1_455
Si10 Si5 2.696165 1_555
Si10 Si5 2.696165 1_556
Si10 Tm0 3.024634 1_556
Si10 Tm7 3.024634 1_555
Si10 Tm2 3.102228 1_456
Si10 Tm4 3.102228 1_555
Si11 Si12 2.497650 1_556
Si11 Si18 2.497650 1_545
Si11 Si4 2.696165 1_555
Si11 Si4 2.696165 1_556
Si11 Tm5 3.024634 1_555
Si11 Tm2 3.024634 1_556
Si11 Tm7 3.102228 1_555
Si11 Tm3 3.102228 1_546
Si12 Si4 2.497650 1_555
Si12 Tm0 2.771211 1_555
Si12 Tm7 2.869010 1_554
Si12 Tm7 2.869010 1_555
Si13 Si5 2.497650 1_555
Si13 Tm1 2.771211 1_555
Si13 Tm4 2.869010 1_555
Si13 Tm4 2.869010 1_554
Si14 Si9 2.497650 1_554
Si14 Si6 2.497650 1_555
Si14 Tm2 2.771211 1_555
Si14 Tm5 2.869010 1_554
Si14 Tm5 2.869010 1_555
Si15 Si7 2.497650 1_555
Si15 Si8 2.497650 1_554
Si15 Tm3 2.771211 1_555
Si15 Tm6 2.869010 1_554
Si15 Tm6 2.869010 1_555
Si16 Si6 2.497650 1_455
Si16 Si9 2.497650 1_455
Si16 Tm4 2.771211 1_555
Si16 Tm1 2.869010 1_556
Si16 Tm1 2.869010 1_555
Si17 Si5 2.497650 1_655
Si17 Tm5 2.771211 1_555
Si17 Tm2 2.869010 1_556
Si17 Tm2 2.869010 1_555
Si18 Si4 2.497650 1_565
Si18 Tm6 2.771211 1_555
Si18 Tm3 2.869010 1_556
Si18 Tm3 2.869010 1_555
Si19 Si7 2.497650 1_545
Si19 Si8 2.497650 1_545
Si19 Tm7 2.771211 1_555
Si19 Tm0 2.869010 1_556
Si19 Tm0 2.869010 1_555
