# generated using pymatgen
data_Lu6AgTe2
_symmetry_space_group_name_H-M   'P 1'
_cell_length_a   4.00447876
_cell_length_b   11.27776290
_cell_length_c   21.16377801
_cell_angle_alpha   89.99889574
_cell_angle_beta   89.99914991
_cell_angle_gamma   89.99994328
_symmetry_Int_Tables_number   1
_chemical_formula_structural   Lu6AgTe2
_chemical_formula_sum   'Lu24 Ag4 Te8'
_cell_volume   955.78927247
_cell_formula_units_Z   4
loop_
 _symmetry_equiv_pos_site_id
 _symmetry_equiv_pos_as_xyz
  1  'x, y, z'
loop_
 _atom_site_type_symbol
 _atom_site_label
 _atom_site_symmetry_multiplicity
 _atom_site_fract_x
 _atom_site_fract_y
 _atom_site_fract_z
 _atom_site_occupancy
  Lu  Lu0  1  0.75001077  0.68532099  0.89206304  1
  Lu  Lu1  1  0.24999696  0.37726471  0.47265219  1
  Lu  Lu2  1  0.75000694  0.87721276  0.02735273  1
  Lu  Lu3  1  0.75000775  0.97060474  0.84007518  1
  Lu  Lu4  1  0.25000837  0.18533563  0.60789514  1
  Lu  Lu5  1  0.24999206  0.74134456  0.26824844  1
  Lu  Lu6  1  0.75000357  0.11031411  0.49279452  1
  Lu  Lu7  1  0.74996041  0.56155145  0.13965606  1
  Lu  Lu8  1  0.24999216  0.31470151  0.10794233  1
  Lu  Lu9  1  0.25000545  0.02938770  0.15994517  1
  Lu  Lu10  1  0.25002886  0.47057090  0.65981884  1
  Lu  Lu11  1  0.25002395  0.75856969  0.76817356  1
  Lu  Lu12  1  0.74996237  0.52941155  0.34016654  1
  Lu  Lu13  1  0.75000493  0.93843779  0.63959250  1
  Lu  Lu14  1  0.25000261  0.61027176  0.00720697  1
  Lu  Lu15  1  0.75001411  0.25863436  0.73175306  1
  Lu  Lu16  1  0.74997077  0.24142426  0.23182973  1
  Lu  Lu17  1  0.75000296  0.62272607  0.52733393  1
  Lu  Lu18  1  0.75000438  0.81465281  0.39210817  1
  Lu  Lu19  1  0.25000058  0.12278595  0.97266074  1
  Lu  Lu20  1  0.25000666  0.88971923  0.50719349  1
  Lu  Lu21  1  0.75000519  0.38974936  0.99280080  1
  Lu  Lu22  1  0.25001934  0.43846941  0.86033417  1
  Lu  Lu23  1  0.25000006  0.06156588  0.36040175  1
  Ag  Ag0  1  0.74999812  0.13341331  0.07663381  1
  Ag  Ag1  1  0.24999737  0.63344244  0.42347421  1
  Ag  Ag2  1  0.25000217  0.86657673  0.92339525  1
  Ag  Ag3  1  0.75001270  0.36654183  0.57649503  1
  Te  Te0  1  0.25000516  0.76773931  0.12657175  1
  Te  Te1  1  0.25002742  0.73216399  0.62652521  1
  Te  Te2  1  0.25001535  0.04216202  0.73590225  1
  Te  Te3  1  0.74997519  0.26783774  0.37347798  1
  Te  Te4  1  0.75008400  0.54217078  0.76406699  1
  Te  Te5  1  0.24986341  0.45784788  0.23592424  1
  Te  Te6  1  0.75000911  0.95782687  0.26411015  1
  Te  Te7  1  0.74997878  0.23224990  0.87342303  1
loop_
_geom_bond_atom_site_label_1
_geom_bond_atom_site_label_2
_geom_bond_distance
_geom_bond_site_symmetry_2
Lu0 Te4 3.153495 1_555
Lu1 Te3 3.152293 1_555
Lu1 Te3 3.152445 1_455
Lu2 Te0 3.153159 1_555
Lu2 Te0 3.153188 1_655
Lu3 Te7 3.034014 1_565
Lu3 Te2 3.085582 1_665
Lu3 Te2 3.085584 1_565
Lu4 Te2 3.153778 1_555
Lu5 Te0 3.013148 1_555
Lu5 Te6 3.158632 1_455
Lu5 Te6 3.158720 1_555
Lu5 Te5 3.269590 1_555
Lu6 Te3 3.087460 1_555
Lu7 Te0 3.080926 1_555
Lu7 Te0 3.081156 1_655
Lu7 Te5 3.086464 1_655
Lu7 Te5 3.086930 1_555
Lu8 Te5 3.153216 1_555
Lu9 Te0 3.034176 1_545
Lu9 Te6 3.085443 1_445
Lu9 Te6 3.085504 1_545
Lu10 Te1 3.033150 1_555
Lu10 Te4 3.086704 1_455
Lu10 Te4 3.087034 1_555
Lu11 Te1 3.012575 1_555
Lu11 Te4 3.157783 1_455
Lu11 Te4 3.158083 1_555
Lu11 Te2 3.270386 1_565
Lu12 Te3 3.033026 1_555
Lu12 Te5 3.086395 1_655
Lu12 Te5 3.086952 1_555
Lu13 Te1 3.081694 1_555
Lu13 Te1 3.081803 1_655
Lu13 Te2 3.087348 1_565
Lu13 Te2 3.087443 1_665
Lu14 Te0 3.087987 1_555
Lu15 Te7 3.012995 1_555
Lu15 Te2 3.158593 1_555
Lu15 Te2 3.158598 1_655
Lu15 Te4 3.269983 1_555
Lu16 Te3 3.012582 1_555
Lu16 Te5 3.157871 1_655
Lu16 Te5 3.158412 1_555
Lu16 Te6 3.270482 1_545
Lu17 Te1 3.152575 1_555
Lu17 Te1 3.152740 1_655
Lu18 Te6 3.153615 1_555
Lu19 Te7 3.153321 1_555
Lu19 Te7 3.153470 1_455
Lu20 Te1 3.087928 1_555
Lu21 Te7 3.088419 1_555
Lu22 Te7 3.081215 1_555
Lu22 Te7 3.081424 1_455
Lu22 Te4 3.086524 1_455
Lu22 Te4 3.086822 1_555
Lu23 Te3 3.081688 1_555
Lu23 Te3 3.081809 1_455
Lu23 Te6 3.087202 1_445
Lu23 Te6 3.087208 1_545
Ag0 Lu9 2.914416 1_555
Ag0 Lu9 2.914491 1_655
Ag0 Lu8 2.937362 1_655
Ag0 Lu8 2.937379 1_555
Ag0 Lu19 2.977462 1_654
Ag0 Lu19 2.977493 1_554
Ag0 Lu2 3.071867 1_545
Ag0 Lu21 3.391896 1_554
Ag0 Lu16 3.503159 1_555
Ag1 Lu12 2.914343 1_555
Ag1 Lu12 2.914573 1_455
Ag1 Lu18 2.937003 1_455
Ag1 Lu18 2.937031 1_555
Ag1 Lu17 2.975706 1_455
Ag1 Lu17 2.975780 1_555
Ag1 Lu1 3.070846 1_555
Ag1 Lu20 3.390126 1_555
Ag1 Lu5 3.503281 1_555
Ag2 Lu3 2.914574 1_555
Ag2 Lu3 2.914578 1_455
Ag2 Lu0 2.937214 1_455
Ag2 Lu0 2.937244 1_555
Ag2 Lu2 2.977203 1_456
Ag2 Lu2 2.977273 1_556
Ag2 Lu19 3.071847 1_565
Ag2 Lu14 3.391361 1_556
Ag2 Lu11 3.503655 1_555
Ag3 Lu10 2.914593 1_555
Ag3 Lu10 2.914719 1_655
Ag3 Lu4 2.937141 1_655
Ag3 Lu4 2.937154 1_555
Ag3 Lu1 2.975417 1_655
Ag3 Lu1 2.975546 1_555
Ag3 Lu17 3.070795 1_555
Ag3 Lu6 3.389446 1_555
Ag3 Lu15 3.503942 1_555
