# generated using pymatgen
data_Bi(PO3)4
_symmetry_space_group_name_H-M   'P 1'
_cell_length_a   8.61187500
_cell_length_b   7.28439000
_cell_length_c   8.02264890
_cell_angle_alpha   87.62508695
_cell_angle_beta   90.00000000
_cell_angle_gamma   90.00000000
_symmetry_Int_Tables_number   1
_chemical_formula_structural   Bi(PO3)4
_chemical_formula_sum   'Bi2 P8 O24'
_cell_volume   502.84658394
_cell_formula_units_Z   2
loop_
 _symmetry_equiv_pos_site_id
 _symmetry_equiv_pos_as_xyz
  1  'x, y, z'
loop_
 _atom_site_type_symbol
 _atom_site_label
 _atom_site_symmetry_multiplicity
 _atom_site_fract_x
 _atom_site_fract_y
 _atom_site_fract_z
 _atom_site_occupancy
  Bi  Bi0  1  0.24772400  0.25176100  0.74603100  1
  Bi  Bi1  1  0.74772400  0.74823900  0.25396900  1
  P  P0  1  0.66913200  0.10060800  0.89008300  1
  P  P1  1  0.87274400  0.43647700  0.90271400  1
  P  P2  1  0.39546800  0.99043200  0.39311600  1
  P  P3  1  0.37274400  0.56352300  0.09728600  1
  P  P4  1  0.49818200  0.37714700  0.40141900  1
  P  P5  1  0.16913200  0.89939200  0.10991700  1
  P  P6  1  0.99818200  0.62285300  0.59858100  1
  P  P7  1  0.89546800  0.00956800  0.60688400  1
  O  O0  1  0.28722000  0.00207600  0.22829200  1
  O  O1  1  0.44084300  0.39240300  0.57709400  1
  O  O2  1  0.99456200  0.17930100  0.61125300  1
  O  O3  1  0.72098600  0.31273100  0.88159300  1
  O  O4  1  0.35006900  0.43282800  0.95967300  1
  O  O5  1  0.51718000  0.67976500  0.07736400  1
  O  O6  1  0.94084300  0.60759700  0.42290600  1
  O  O7  1  0.19039400  0.98035400  0.93591900  1
  O  O8  1  0.22098600  0.68726900  0.11840700  1
  O  O9  1  0.00734200  0.90678300  0.17947500  1
  O  O10  1  0.50564600  0.16422500  0.35540900  1
  O  O11  1  0.65243800  0.45946600  0.35626100  1
  O  O12  1  0.78722000  0.99792400  0.77170800  1
  O  O13  1  0.01718000  0.32023500  0.92263600  1
  O  O14  1  0.85006900  0.56717200  0.04032700  1
  O  O15  1  0.15243800  0.54053400  0.64373900  1
  O  O16  1  0.79384400  0.98217300  0.45782200  1
  O  O17  1  0.69039400  0.01964600  0.06408100  1
  O  O18  1  0.29384400  0.01782700  0.54217800  1
  O  O19  1  0.36476900  0.45266100  0.27431700  1
  O  O20  1  0.50734200  0.09321700  0.82052500  1
  O  O21  1  0.00564600  0.83577500  0.64459100  1
  O  O22  1  0.49456200  0.82069900  0.38874700  1
  O  O23  1  0.86476900  0.54733900  0.72568300  1
loop_
_geom_bond_atom_site_label_1
_geom_bond_atom_site_label_2
_geom_bond_distance
_geom_bond_site_symmetry_2
Bi0 O1 2.353160 1_555
Bi0 O15 2.372474 1_555
Bi0 O4 2.375197 1_555
Bi0 O18 2.442791 1_555
Bi0 O7 2.494710 1_545
Bi0 O2 2.499666 1_455
Bi0 O13 2.501335 1_555
Bi0 O20 2.575373 1_555
Bi1 O6 2.353160 1_555
Bi1 O11 2.372474 1_555
Bi1 O14 2.375197 1_555
Bi1 O16 2.442791 1_555
Bi1 O17 2.494710 1_565
Bi1 O22 2.499666 1_555
Bi1 O5 2.501335 1_555
Bi1 O9 2.575373 1_655
O0 P5 1.598268 1_545
O0 P2 1.617243 1_545
O1 P4 1.501837 1_555
O2 P7 1.503920 1_555
O3 P1 1.600613 1_555
O3 P0 1.607151 1_555
O4 P3 1.500157 1_556
O5 P3 1.509476 1_555
O6 P6 1.501837 1_555
O7 P5 1.503902 1_556
O8 P3 1.600613 1_555
O8 P5 1.607151 1_555
O9 P5 1.502706 1_555
O10 P2 1.600864 1_545
O10 P4 1.610420 1_555
O11 P4 1.495846 1_555
O12 P0 1.598268 1_565
O12 P7 1.617243 1_565
O13 P1 1.509476 1_455
O14 P1 1.500157 1_554
O15 P6 1.495846 1_455
O16 P7 1.501878 1_565
O17 P0 1.503902 1_554
O18 P2 1.501878 1_545
O19 P3 1.605911 1_555
O19 P4 1.617383 1_555
O20 P0 1.502706 1_555
O21 P7 1.600864 1_465
O21 P6 1.610420 1_455
O22 P2 1.503920 1_555
O23 P1 1.605911 1_555
O23 P6 1.617383 1_555
