# generated using pymatgen
data_AlSeBr3N
_symmetry_space_group_name_H-M   'P 1'
_cell_length_a   10.85784900
_cell_length_b   7.68470900
_cell_length_c   10.35535881
_cell_angle_alpha   66.87216825
_cell_angle_beta   90.00000000
_cell_angle_gamma   90.00000000
_symmetry_Int_Tables_number   1
_chemical_formula_structural   AlSeBr3N
_chemical_formula_sum   'Al4 Se4 Br12 N4'
_cell_volume   794.60242879
_cell_formula_units_Z   4
loop_
 _symmetry_equiv_pos_site_id
 _symmetry_equiv_pos_as_xyz
  1  'x, y, z'
loop_
 _atom_site_type_symbol
 _atom_site_label
 _atom_site_symmetry_multiplicity
 _atom_site_fract_x
 _atom_site_fract_y
 _atom_site_fract_z
 _atom_site_occupancy
  Al  Al0  1  0.87457900  0.77029500  0.84754900  1
  Al  Al1  1  0.37457900  0.22970500  0.65245100  1
  Al  Al2  1  0.62542100  0.77029500  0.34754900  1
  Al  Al3  1  0.12542100  0.22970500  0.15245100  1
  Se  Se0  1  0.53180800  0.15146500  0.37754600  1
  Se  Se1  1  0.46819200  0.84853500  0.62245400  1
  Se  Se2  1  0.96819200  0.15146500  0.87754600  1
  Se  Se3  1  0.03180800  0.84853500  0.12245400  1
  Br  Br0  1  0.34015900  0.94719900  0.84753500  1
  Br  Br1  1  0.30563900  0.37423500  0.05600200  1
  Br  Br2  1  0.01923300  0.58708800  0.79305700  1
  Br  Br3  1  0.80563900  0.62576500  0.44399800  1
  Br  Br4  1  0.65984100  0.05280100  0.15246500  1
  Br  Br5  1  0.51923300  0.41291200  0.70694300  1
  Br  Br6  1  0.19436100  0.37423500  0.55600200  1
  Br  Br7  1  0.69436100  0.62576500  0.94399800  1
  Br  Br8  1  0.98076700  0.41291200  0.20694300  1
  Br  Br9  1  0.84015900  0.05280100  0.65246500  1
  Br  Br10  1  0.15984100  0.94719900  0.34753500  1
  Br  Br11  1  0.48076700  0.58708800  0.29305700  1
  N  N0  1  0.04593200  0.10646100  0.04574400  1
  N  N1  1  0.45406800  0.10646100  0.54574400  1
  N  N2  1  0.54593200  0.89353900  0.45425600  1
  N  N3  1  0.95406800  0.89353900  0.95425600  1
loop_
_geom_bond_atom_site_label_1
_geom_bond_atom_site_label_2
_geom_bond_distance
_geom_bond_site_symmetry_2
Al0 N3 1.919639 1_555
Al0 Br7 2.277867 1_555
Al0 Br2 2.321972 1_655
Al0 Br9 2.342774 1_565
Al1 N1 1.919639 1_555
Al1 Br6 2.277867 1_555
Al1 Br5 2.321972 1_555
Al1 Br0 2.342774 1_545
Al2 N2 1.919639 1_555
Al2 Br3 2.277867 1_555
Al2 Br11 2.321972 1_555
Al2 Br4 2.342774 1_565
Al3 N0 1.919639 1_555
Al3 Br1 2.277867 1_555
Al3 Br8 2.321972 1_455
Al3 Br10 2.342774 1_545
N0 Se3 1.829296 1_545
N0 Se2 1.841897 1_454
N1 Se1 1.829296 1_545
N1 Se0 1.841897 1_555
N2 Se0 1.829296 1_565
N2 Se1 1.841897 1_555
N3 Se2 1.829296 1_565
N3 Se3 1.841897 1_656
