# generated using pymatgen
data_Cs2AgF4
_symmetry_space_group_name_H-M   'P 1'
_cell_length_a   6.43478659
_cell_length_b   6.43448755
_cell_length_c   7.83624401
_cell_angle_alpha   90.00000744
_cell_angle_beta   114.24116996
_cell_angle_gamma   89.99998261
_symmetry_Int_Tables_number   1
_chemical_formula_structural   Cs2AgF4
_chemical_formula_sum   'Cs4 Ag2 F8'
_cell_volume   295.84737262
_cell_formula_units_Z   2
loop_
 _symmetry_equiv_pos_site_id
 _symmetry_equiv_pos_as_xyz
  1  'x, y, z'
loop_
 _atom_site_type_symbol
 _atom_site_label
 _atom_site_symmetry_multiplicity
 _atom_site_fract_x
 _atom_site_fract_y
 _atom_site_fract_z
 _atom_site_occupancy
  Cs  Cs0  1  0.64336408  0.00000000  0.28672617  1
  Cs  Cs1  1  0.85663492  0.50000000  0.71327183  1
  Cs  Cs2  1  0.35663592  -0.00000000  0.71327383  1
  Cs  Cs3  1  0.14336508  0.50000000  0.28672817  1
  Ag  Ag0  1  0.00000000  0.00000000  -0.00000000  1
  Ag  Ag1  1  0.50000000  0.50000000  -0.00000000  1
  F  F0  1  0.85064014  0.00000000  0.70127829  1
  F  F1  1  0.64935986  0.50000000  0.29872071  1
  F  F2  1  0.14935986  -0.00000000  0.29872171  1
  F  F3  1  0.35064014  0.50000000  0.70127929  1
  F  F4  1  0.23254523  0.76927953  0.00000000  1
  F  F5  1  0.73254623  0.73071947  0.00000000  1
  F  F6  1  0.26745377  0.26928053  -0.00000000  1
  F  F7  1  0.76745477  0.23072047  -0.00000000  1
loop_
_geom_bond_atom_site_label_1
_geom_bond_atom_site_label_2
_geom_bond_distance
_geom_bond_site_symmetry_2
Cs0 F0 2.962093 1_555
Cs0 F7 3.059926 1_555
Cs0 F4 3.059934 1_545
Cs0 F5 3.072242 1_545
Cs0 F6 3.072249 1_555
Cs0 F1 3.218385 1_555
Cs0 F1 3.218385 1_545
Cs0 F2 3.218522 1_655
Cs0 F2 3.218548 1_555
Cs1 F1 2.962086 1_555
Cs1 F5 3.059928 1_556
Cs1 F6 3.059936 1_656
Cs1 F7 3.072246 1_556
Cs1 F4 3.072252 1_656
Cs1 F0 3.218385 1_555
Cs1 F0 3.218385 1_565
Cs1 F3 3.218525 1_555
Cs1 F3 3.218544 1_655
Cs2 F2 2.962093 1_555
Cs2 F4 3.059926 1_546
Cs2 F7 3.059934 1_556
Cs2 F6 3.072242 1_556
Cs2 F5 3.072249 1_546
Cs2 F3 3.218385 1_545
Cs2 F3 3.218385 1_555
Cs2 F0 3.218522 1_455
Cs2 F0 3.218548 1_555
Cs3 F3 2.962086 1_555
Cs3 F6 3.059928 1_555
Cs3 F5 3.059936 1_455
Cs3 F4 3.072246 1_555
Cs3 F7 3.072252 1_455
Cs3 F2 3.218385 1_565
Cs3 F2 3.218385 1_555
Cs3 F1 3.218525 1_555
Cs3 F1 3.218544 1_455
Ag0 F7 2.107864 1_455
Ag0 F4 2.107864 1_545
Ag0 F2 2.134452 1_555
Ag0 F0 2.134452 1_454
Ag0 F5 2.442142 1_445
Ag0 F6 2.442142 1_555
Ag1 F5 2.107865 1_555
Ag1 F6 2.107865 1_555
Ag1 F3 2.134445 1_554
Ag1 F1 2.134445 1_555
Ag1 F4 2.442141 1_555
Ag1 F7 2.442141 1_555
