# generated using pymatgen
data_CsNdNb2O7
_symmetry_space_group_name_H-M   'P 1'
_cell_length_a   5.50021700
_cell_length_b   5.56824200
_cell_length_c   11.46714300
_cell_angle_alpha   90.00000000
_cell_angle_beta   90.00000000
_cell_angle_gamma   90.00000000
_symmetry_Int_Tables_number   1
_chemical_formula_structural   CsNdNb2O7
_chemical_formula_sum   'Cs2 Nd2 Nb4 O14'
_cell_volume   351.19890585
_cell_formula_units_Z   2
loop_
 _symmetry_equiv_pos_site_id
 _symmetry_equiv_pos_as_xyz
  1  'x, y, z'
loop_
 _atom_site_type_symbol
 _atom_site_label
 _atom_site_symmetry_multiplicity
 _atom_site_fract_x
 _atom_site_fract_y
 _atom_site_fract_z
 _atom_site_occupancy
  Cs  Cs0  1  0.73933500  0.74864800  0.50000000  1
  Cs  Cs1  1  0.26066500  0.24864800  0.50000000  1
  Nd  Nd0  1  0.25043600  0.28180600  0.00000000  1
  Nd  Nd1  1  0.74956400  0.78180600  0.00000000  1
  Nb  Nb0  1  0.74886400  0.24157900  0.20031900  1
  Nb  Nb1  1  0.74886400  0.24157900  0.79968100  1
  Nb  Nb2  1  0.25113600  0.74157900  0.79968100  1
  Nb  Nb3  1  0.25113600  0.74157900  0.20031900  1
  O  O0  1  0.03393900  0.01060800  0.85806000  1
  O  O1  1  0.67081900  0.20679600  0.00000000  1
  O  O2  1  0.32918100  0.70679600  0.00000000  1
  O  O3  1  0.80157100  0.24750300  0.64499800  1
  O  O4  1  0.55373200  0.92633400  0.80949100  1
  O  O5  1  0.19842900  0.74750300  0.64499800  1
  O  O6  1  0.96606100  0.51060800  0.85806000  1
  O  O7  1  0.44626800  0.42633400  0.80949100  1
  O  O8  1  0.03393900  0.01060800  0.14194000  1
  O  O9  1  0.44626800  0.42633400  0.19050900  1
  O  O10  1  0.80157100  0.24750300  0.35500200  1
  O  O11  1  0.96606100  0.51060800  0.14194000  1
  O  O12  1  0.55373200  0.92633400  0.19050900  1
  O  O13  1  0.19842900  0.74750300  0.35500200  1
loop_
_geom_bond_atom_site_label_1
_geom_bond_atom_site_label_2
_geom_bond_distance
_geom_bond_site_symmetry_2
Cs0 O5 3.023387 1_655
Cs0 O13 3.023387 1_655
Cs0 O3 3.255405 1_565
Cs0 O10 3.255405 1_565
Cs0 O3 3.266292 1_555
Cs0 O10 3.266292 1_555
Cs0 O5 3.408207 1_555
Cs0 O13 3.408207 1_555
Cs1 O3 3.023387 1_455
Cs1 O10 3.023387 1_455
Cs1 O5 3.255405 1_555
Cs1 O13 3.255405 1_555
Cs1 O5 3.266292 1_545
Cs1 O13 3.266292 1_545
Cs1 O3 3.408207 1_555
Cs1 O10 3.408207 1_555
Nd0 O1 2.349619 1_555
Nd0 O2 2.405756 1_555
Nd0 O0 2.519441 1_554
Nd0 O8 2.519441 1_555
Nd0 O9 2.565207 1_555
Nd0 O7 2.565207 1_554
Nd0 O6 2.592076 1_454
Nd0 O11 2.592076 1_455
Nd1 O2 2.349619 1_555
Nd1 O1 2.405756 1_565
Nd1 O11 2.519441 1_555
Nd1 O6 2.519441 1_554
Nd1 O12 2.565207 1_555
Nd1 O4 2.565207 1_554
Nd1 O0 2.592076 1_664
Nd1 O8 2.592076 1_665
Nb0 O10 1.797609 1_555
Nb0 O9 1.959858 1_555
Nb0 O11 2.029619 1_555
Nb0 O12 2.060546 1_545
Nb0 O8 2.135592 1_655
Nb0 O1 2.344864 1_555
Nb1 O3 1.797609 1_555
Nb1 O7 1.959858 1_555
Nb1 O6 2.029619 1_555
Nb1 O4 2.060546 1_545
Nb1 O0 2.135592 1_655
Nb1 O1 2.344864 1_556
Nb2 O5 1.797609 1_555
Nb2 O4 1.959858 1_555
Nb2 O0 2.029619 1_565
Nb2 O7 2.060546 1_555
Nb2 O6 2.135592 1_455
Nb2 O2 2.344864 1_556
Nb3 O13 1.797609 1_555
Nb3 O12 1.959858 1_555
Nb3 O8 2.029619 1_565
Nb3 O9 2.060546 1_555
Nb3 O11 2.135592 1_455
Nb3 O2 2.344864 1_555
