# generated using pymatgen
data_CuN3
_symmetry_space_group_name_H-M   'P 1'
_cell_length_a   7.12569312
_cell_length_b   7.12569312
_cell_length_c   7.12569312
_cell_angle_alpha   99.44674922
_cell_angle_beta   99.44674922
_cell_angle_gamma   132.20136524
_symmetry_Int_Tables_number   1
_chemical_formula_structural   CuN3
_chemical_formula_sum   'Cu4 N12'
_cell_volume   245.04439276
_cell_formula_units_Z   4
loop_
 _symmetry_equiv_pos_site_id
 _symmetry_equiv_pos_as_xyz
  1  'x, y, z'
loop_
 _atom_site_type_symbol
 _atom_site_label
 _atom_site_symmetry_multiplicity
 _atom_site_fract_x
 _atom_site_fract_y
 _atom_site_fract_z
 _atom_site_occupancy
  Cu  Cu0  1  0.12500000  0.37500000  0.25000000  1
  Cu  Cu1  1  0.12500000  0.87500000  0.25000000  1
  Cu  Cu2  1  0.62500000  0.87500000  0.75000000  1
  Cu  Cu3  1  0.12500000  0.87500000  0.75000000  1
  N  N0  1  0.62500000  0.87500000  0.25000000  1
  N  N1  1  0.62500000  0.37500000  0.25000000  1
  N  N2  1  0.12500000  0.37500000  0.75000000  1
  N  N3  1  0.62500000  0.37500000  0.75000000  1
  N  N4  1  0.82168800  0.01710300  0.20892500  1
  N  N5  1  0.86276300  0.57168800  0.30458500  1
  N  N6  1  0.26710300  0.55817800  0.69541500  1
  N  N7  1  0.80817800  0.61276300  0.79107500  1
  N  N8  1  0.42831200  0.73289700  0.29107500  1
  N  N9  1  0.38723700  0.17831200  0.19541500  1
  N  N10  1  0.98289700  0.19182200  0.80458500  1
  N  N11  1  0.44182200  0.13723700  0.70892500  1
loop_
_geom_bond_atom_site_label_1
_geom_bond_atom_site_label_2
_geom_bond_distance
_geom_bond_site_symmetry_2
Cu0 N8 1.844714 1_555
Cu0 N4 1.844714 1_455
Cu1 N5 1.844714 1_455
Cu1 N9 1.844714 1_565
Cu2 N10 1.844714 1_565
Cu2 N6 1.844714 1_555
Cu3 N7 1.844714 1_455
Cu3 N11 1.844714 1_565
N0 N4 1.183477 1_565
N0 N8 1.183477 1_555
N1 N9 1.183477 1_555
N1 N5 1.183477 1_555
N2 N6 1.183477 1_555
N3 N7 1.183477 1_555
N10 N2 1.183477 1_655
N11 N3 1.183477 1_555
