# generated using pymatgen
data_Cr2AgBiO8
_symmetry_space_group_name_H-M   'P 1'
_cell_length_a   6.94071038
_cell_length_b   6.94071038
_cell_length_c   6.94071038
_cell_angle_alpha   136.53702139
_cell_angle_beta   136.53702139
_cell_angle_gamma   63.15117545
_symmetry_Int_Tables_number   1
_chemical_formula_structural   Cr2AgBiO8
_chemical_formula_sum   'Cr2 Ag1 Bi1 O8'
_cell_volume   156.20440997
_cell_formula_units_Z   1
loop_
 _symmetry_equiv_pos_site_id
 _symmetry_equiv_pos_as_xyz
  1  'x, y, z'
loop_
 _atom_site_type_symbol
 _atom_site_label
 _atom_site_symmetry_multiplicity
 _atom_site_fract_x
 _atom_site_fract_y
 _atom_site_fract_z
 _atom_site_occupancy
  Cr  Cr0  1  0.25000000  0.75000000  0.50000000  1
  Cr  Cr1  1  0.00000000  0.00000000  0.00000000  1
  Ag  Ag0  1  0.75000000  0.25000000  0.50000000  1
  Bi  Bi0  1  0.50000000  0.50000000  0.00000000  1
  O  O0  1  0.45201000  0.58931900  0.38106700  1
  O  O1  1  0.79453400  0.16990500  0.11477100  1
  O  O2  1  0.92905800  0.54799000  0.13730900  1
  O  O3  1  0.41068100  0.79174900  0.86269100  1
  O  O4  1  0.83009500  0.94486700  0.62463000  1
  O  O5  1  0.20825100  0.07094200  0.61893300  1
  O  O6  1  0.32023700  0.20546600  0.37537000  1
  O  O7  1  0.05513300  0.67976300  0.88522900  1
loop_
_geom_bond_atom_site_label_1
_geom_bond_atom_site_label_2
_geom_bond_distance
_geom_bond_site_symmetry_2
Cr0 O5 1.679979 1_565
Cr0 O2 1.679981 1_455
Cr0 O3 1.679981 1_555
Cr0 O0 1.679985 1_555
Cr1 O4 1.680853 1_444
Cr1 O1 1.680855 1_455
Cr1 O6 1.680856 1_555
Cr1 O7 1.680856 1_544
Ag0 O7 2.537789 1_655
Ag0 O6 2.537789 1_555
Ag0 O4 2.537792 1_545
Ag0 O1 2.537793 1_555
Ag0 O5 2.539597 1_655
Ag0 O2 2.539598 1_556
Ag0 O3 2.539598 1_544
Ag0 O0 2.539601 1_555
Bi0 O1 2.473365 1_555
Bi0 O4 2.473369 1_555
Bi0 O6 2.473371 1_554
Bi0 O7 2.473371 1_554
Bi0 O0 2.490537 1_555
Bi0 O3 2.490544 1_554
Bi0 O2 2.490544 1_555
Bi0 O5 2.490546 1_554
