# generated using pymatgen
data_NaLa(CO3)2
_symmetry_space_group_name_H-M   'P 1'
_cell_length_a   5.21558000
_cell_length_b   6.50422900
_cell_length_c   7.28392700
_cell_angle_alpha   90.00000000
_cell_angle_beta   90.00000000
_cell_angle_gamma   90.00000000
_symmetry_Int_Tables_number   1
_chemical_formula_structural   NaLa(CO3)2
_chemical_formula_sum   'Na2 La2 C4 O12'
_cell_volume   247.09503519
_cell_formula_units_Z   2
loop_
 _symmetry_equiv_pos_site_id
 _symmetry_equiv_pos_as_xyz
  1  'x, y, z'
loop_
 _atom_site_type_symbol
 _atom_site_label
 _atom_site_symmetry_multiplicity
 _atom_site_fract_x
 _atom_site_fract_y
 _atom_site_fract_z
 _atom_site_occupancy
  Na  Na0  1  0.50000000  0.01730000  0.70254900  1
  Na  Na1  1  0.50000000  0.98270000  0.20254900  1
  La  La0  1  0.00000000  0.63230300  0.50297900  1
  La  La1  1  0.00000000  0.36769700  0.00297900  1
  C  C0  1  0.50000000  0.53388600  0.17402600  1
  C  C1  1  0.00000000  0.91866800  0.91742500  1
  C  C2  1  0.50000000  0.46611400  0.67402600  1
  C  C3  1  0.00000000  0.08133200  0.41742500  1
  O  O0  1  0.50000000  0.35898900  0.08888600  1
  O  O1  1  0.50000000  0.64101100  0.58888600  1
  O  O2  1  0.78818000  0.98638100  0.45436300  1
  O  O3  1  0.71808600  0.37881700  0.71081300  1
  O  O4  1  0.71808600  0.62118300  0.21081300  1
  O  O5  1  0.21182000  0.98638100  0.45436300  1
  O  O6  1  0.00000000  0.73774200  0.83978500  1
  O  O7  1  0.21182000  0.01361900  0.95436300  1
  O  O8  1  0.28191400  0.37881700  0.71081300  1
  O  O9  1  0.28191400  0.62118300  0.21081300  1
  O  O10  1  0.00000000  0.26225800  0.33978500  1
  O  O11  1  0.78818000  0.01361900  0.95436300  1
loop_
_geom_bond_atom_site_label_1
_geom_bond_atom_site_label_2
_geom_bond_distance
_geom_bond_site_symmetry_2
Na0 O5 2.359567 1_545
Na0 O2 2.359567 1_545
Na0 O7 2.371483 1_555
Na0 O11 2.371483 1_555
Na0 O1 2.583708 1_545
Na0 O3 2.612745 1_555
Na0 O8 2.612745 1_555
Na1 O7 2.359567 1_564
Na1 O11 2.359567 1_564
Na1 O5 2.371483 1_555
Na1 O2 2.371483 1_555
Na1 O0 2.583708 1_565
Na1 O4 2.612745 1_555
Na1 O9 2.612745 1_555
La0 O6 2.547323 1_555
La0 O5 2.578707 1_555
La0 O2 2.578707 1_455
La0 O9 2.587667 1_555
La0 O4 2.587667 1_455
La0 O8 2.678052 1_555
La0 O3 2.678052 1_455
La0 O1 2.682411 1_455
La0 O1 2.682411 1_555
La0 O10 2.684391 1_555
La1 O10 2.547323 1_555
La1 O11 2.578707 1_454
La1 O7 2.578707 1_554
La1 O3 2.587667 1_454
La1 O8 2.587667 1_554
La1 O9 2.678052 1_555
La1 O4 2.678052 1_455
La1 O0 2.682411 1_555
La1 O0 2.682411 1_455
La1 O6 2.684391 1_554
C0 O0 1.295630 1_555
C0 O9 1.299222 1_555
C0 O4 1.299222 1_555
C1 O11 1.293948 1_465
C1 O7 1.293948 1_565
C1 O6 1.305618 1_555
C2 O1 1.295630 1_555
C2 O8 1.299222 1_555
C2 O3 1.299222 1_555
C3 O2 1.293948 1_445
C3 O5 1.293948 1_545
C3 O10 1.305618 1_555
