# generated using pymatgen
data_SrBe2(BO3)2
_symmetry_space_group_name_H-M   'P 1'
_cell_length_a   4.53049300
_cell_length_b   9.33814500
_cell_length_c   11.93812662
_cell_angle_alpha   65.32758350
_cell_angle_beta   90.00000000
_cell_angle_gamma   90.00000000
_symmetry_Int_Tables_number   1
_chemical_formula_structural   SrBe2(BO3)2
_chemical_formula_sum   'Sr4 Be8 B8 O24'
_cell_volume   458.95193286
_cell_formula_units_Z   4
loop_
 _symmetry_equiv_pos_site_id
 _symmetry_equiv_pos_as_xyz
  1  'x, y, z'
loop_
 _atom_site_type_symbol
 _atom_site_label
 _atom_site_symmetry_multiplicity
 _atom_site_fract_x
 _atom_site_fract_y
 _atom_site_fract_z
 _atom_site_occupancy
  Sr  Sr0  1  0.52725100  0.22959500  0.84539100  1
  Sr  Sr1  1  0.97274900  0.22959500  0.34539100  1
  Sr  Sr2  1  0.47274900  0.77040500  0.15460900  1
  Sr  Sr3  1  0.02725100  0.77040500  0.65460900  1
  Be  Be0  1  0.56120300  0.90892000  0.80715900  1
  Be  Be1  1  0.43879700  0.09108000  0.19284100  1
  Be  Be2  1  0.59695900  0.57801800  0.54721700  1
  Be  Be3  1  0.09695900  0.42198200  0.95278300  1
  Be  Be4  1  0.93879700  0.90892000  0.30715900  1
  Be  Be5  1  0.40304100  0.42198200  0.45278300  1
  Be  Be6  1  0.06120300  0.09108000  0.69284100  1
  Be  Be7  1  0.90304100  0.57801800  0.04721700  1
  B  B0  1  0.43842500  0.40464300  0.14423200  1
  B  B1  1  0.09178900  0.86986000  0.92391600  1
  B  B2  1  0.90821100  0.13014000  0.07608400  1
  B  B3  1  0.56157500  0.59535700  0.85576800  1
  B  B4  1  0.06157500  0.40464300  0.64423200  1
  B  B5  1  0.40821100  0.86986000  0.42391600  1
  B  B6  1  0.59178900  0.13014000  0.57608400  1
  B  B7  1  0.93842500  0.59535700  0.35576800  1
  O  O0  1  0.99151300  0.24841000  0.71150300  1
  O  O1  1  0.08187300  0.05920300  0.18218600  1
  O  O2  1  0.00848700  0.75159000  0.28849700  1
  O  O3  1  0.50848700  0.24841000  0.21150300  1
  O  O4  1  0.41812700  0.05920300  0.68218600  1
  O  O5  1  0.33661500  0.44041200  0.58622700  1
  O  O6  1  0.87221800  0.52131700  0.64048700  1
  O  O7  1  0.12778200  0.47868300  0.35951300  1
  O  O8  1  0.87904900  0.07716100  0.57989200  1
  O  O9  1  0.62778200  0.52131700  0.14048700  1
  O  O10  1  0.51122400  0.75258100  0.53069200  1
  O  O11  1  0.83661500  0.55958800  0.91377300  1
  O  O12  1  0.66338500  0.55958800  0.41377300  1
  O  O13  1  0.48877600  0.24741900  0.46930800  1
  O  O14  1  0.98877600  0.75258100  0.03069200  1
  O  O15  1  0.91812700  0.94079700  0.81781400  1
  O  O16  1  0.49151300  0.75159000  0.78849700  1
  O  O17  1  0.12095100  0.92283900  0.42010800  1
  O  O18  1  0.58187300  0.94079700  0.31781400  1
  O  O19  1  0.37221800  0.47868300  0.85951300  1
  O  O20  1  0.01122400  0.24741900  0.96930800  1
  O  O21  1  0.62095100  0.07716100  0.07989200  1
  O  O22  1  0.16338500  0.44041200  0.08622700  1
  O  O23  1  0.37904900  0.92283900  0.92010800  1
loop_
_geom_bond_atom_site_label_1
_geom_bond_atom_site_label_2
_geom_bond_distance
_geom_bond_site_symmetry_2
Be0 O16 1.606563 1_555
Be0 O23 1.631695 1_555
Be0 O15 1.658681 1_555
Be0 O4 1.693375 1_565
Be1 O3 1.606563 1_555
Be1 O21 1.631695 1_555
Be1 O1 1.658681 1_555
Be1 O18 1.693375 1_545
Be2 O10 1.605778 1_555
Be2 O6 1.607209 1_555
Be2 O5 1.661221 1_555
Be2 O12 1.699104 1_555
Be3 O20 1.605778 1_555
Be3 O19 1.607209 1_555
Be3 O11 1.661221 1_455
Be3 O22 1.699104 1_556
Be4 O2 1.606563 1_655
Be4 O17 1.631695 1_655
Be4 O18 1.658681 1_555
Be4 O1 1.693375 1_665
Be5 O13 1.605778 1_555
Be5 O7 1.607209 1_555
Be5 O12 1.661221 1_555
Be5 O5 1.699104 1_555
Be6 O0 1.606563 1_455
Be6 O8 1.631695 1_455
Be6 O4 1.658681 1_555
Be6 O15 1.693375 1_445
Be7 O14 1.605778 1_555
Be7 O9 1.607209 1_555
Be7 O22 1.661221 1_655
Be7 O11 1.699104 1_554
B0 O9 1.372714 1_555
B0 O3 1.376957 1_555
B0 O22 1.396662 1_555
B1 O14 1.369890 1_456
B1 O23 1.386276 1_555
B1 O15 1.400622 1_455
B2 O20 1.369890 1_654
B2 O21 1.386276 1_555
B2 O1 1.400622 1_655
B3 O19 1.372714 1_555
B3 O16 1.376957 1_555
B3 O11 1.396662 1_555
B4 O6 1.372714 1_455
B4 O0 1.376957 1_455
B4 O5 1.396662 1_555
B5 O10 1.369890 1_555
B5 O17 1.386276 1_555
B5 O18 1.400622 1_555
B6 O13 1.369890 1_555
B6 O8 1.386276 1_555
B6 O4 1.400622 1_555
B7 O7 1.372714 1_655
B7 O2 1.376957 1_655
B7 O12 1.396662 1_555
O0 Sr0 2.602927 1_555
O0 Sr0 2.870941 1_655
O1 Sr1 3.026623 1_455
O2 Sr2 2.602927 1_555
O2 Sr2 2.870941 1_455
O3 Sr1 2.602927 1_555
O3 Sr1 2.870941 1_455
O4 Sr0 3.026623 1_555
O5 Sr0 3.018096 1_555
O6 Sr3 2.501901 1_655
O7 Sr1 2.501901 1_455
O8 Sr1 2.591671 1_555
O8 Sr3 2.705334 1_645
O9 Sr2 2.501901 1_555
O10 Sr3 2.688747 1_555
O10 Sr3 2.808430 1_655
O11 Sr3 3.018096 1_655
O12 Sr2 3.018096 1_555
O13 Sr1 2.688747 1_555
O13 Sr1 2.808430 1_455
O14 Sr2 2.688747 1_655
O14 Sr2 2.808430 1_555
O15 Sr3 3.026623 1_655
O16 Sr3 2.602927 1_555
O16 Sr3 2.870941 1_655
O17 Sr3 2.591671 1_555
O17 Sr1 2.705334 1_465
O18 Sr2 3.026623 1_555
O19 Sr0 2.501901 1_555
O20 Sr0 2.688747 1_455
O20 Sr0 2.808430 1_555
O21 Sr0 2.591671 1_554
O21 Sr2 2.705334 1_545
O22 Sr1 3.018096 1_455
O23 Sr2 2.591671 1_556
O23 Sr0 2.705334 1_565
