# generated using pymatgen
data_SrCaSiO4
_symmetry_space_group_name_H-M   'P 1'
_cell_length_a   5.65959500
_cell_length_b   9.47045600
_cell_length_c   21.07963800
_cell_angle_alpha   90.00000000
_cell_angle_beta   90.00000000
_cell_angle_gamma   90.00000000
_symmetry_Int_Tables_number   1
_chemical_formula_structural   SrCaSiO4
_chemical_formula_sum   'Sr12 Ca12 Si12 O48'
_cell_volume   1129.84636675
_cell_formula_units_Z   12
loop_
 _symmetry_equiv_pos_site_id
 _symmetry_equiv_pos_as_xyz
  1  'x, y, z'
loop_
 _atom_site_type_symbol
 _atom_site_label
 _atom_site_symmetry_multiplicity
 _atom_site_fract_x
 _atom_site_fract_y
 _atom_site_fract_z
 _atom_site_occupancy
  Sr  Sr0  1  0.73756900  0.42141900  0.38985000  1
  Sr  Sr1  1  0.21315900  0.57508900  0.94364400  1
  Sr  Sr2  1  0.73756900  0.07858100  0.88985000  1
  Sr  Sr3  1  0.23756900  0.57858100  0.61015000  1
  Sr  Sr4  1  0.25317200  0.92465100  0.77790400  1
  Sr  Sr5  1  0.25317200  0.57534900  0.27790400  1
  Sr  Sr6  1  0.71315900  0.07508900  0.55635600  1
  Sr  Sr7  1  0.71315900  0.42491100  0.05635600  1
  Sr  Sr8  1  0.75317200  0.42465100  0.72209600  1
  Sr  Sr9  1  0.75317200  0.07534900  0.22209600  1
  Sr  Sr10  1  0.21315900  0.92491100  0.44364400  1
  Sr  Sr11  1  0.23756900  0.92141900  0.11015000  1
  Ca  Ca0  1  0.75317400  0.79550500  0.33515300  1
  Ca  Ca1  1  0.25317400  0.29550500  0.16484700  1
  Ca  Ca2  1  0.74727200  0.70244800  0.16842900  1
  Ca  Ca3  1  0.71038200  0.79925600  0.00278200  1
  Ca  Ca4  1  0.24727200  0.20244800  0.33157100  1
  Ca  Ca5  1  0.74727200  0.79755200  0.66842900  1
  Ca  Ca6  1  0.25317400  0.20449500  0.66484700  1
  Ca  Ca7  1  0.75317400  0.70449500  0.83515300  1
  Ca  Ca8  1  0.24727200  0.29755200  0.83157100  1
  Ca  Ca9  1  0.71038200  0.70074400  0.50278200  1
  Ca  Ca10  1  0.21038200  0.29925600  0.49721800  1
  Ca  Ca11  1  0.21038200  0.20074400  0.99721800  1
  Si  Si0  1  0.74207700  0.41381600  0.57353500  1
  Si  Si1  1  0.24479500  0.91585000  0.25846200  1
  Si  Si2  1  0.21329200  0.58416600  0.09369000  1
  Si  Si3  1  0.24207700  0.58618400  0.42646500  1
  Si  Si4  1  0.24207700  0.91381600  0.92646500  1
  Si  Si5  1  0.74479500  0.08415000  0.74153800  1
  Si  Si6  1  0.21329200  0.91583400  0.59369000  1
  Si  Si7  1  0.71329200  0.41583400  0.90631000  1
  Si  Si8  1  0.71329200  0.08416600  0.40631000  1
  Si  Si9  1  0.24479500  0.58415000  0.75846200  1
  Si  Si10  1  0.74479500  0.41585000  0.24153800  1
  Si  Si11  1  0.74207700  0.08618400  0.07353500  1
  O  O0  1  0.97466000  0.16786500  0.10433400  1
  O  O1  1  0.21081900  0.43676100  0.05081400  1
  O  O2  1  0.79408300  0.93427600  0.78046600  1
  O  O3  1  0.97159100  0.30867200  0.25258300  1
  O  O4  1  0.67765500  0.05088300  0.66793600  1
  O  O5  1  0.17765500  0.94911700  0.33206400  1
  O  O6  1  0.50636700  0.34281600  0.27324600  1
  O  O7  1  0.47466000  0.66786500  0.39566600  1
  O  O8  1  0.21081900  0.06323900  0.55081400  1
  O  O9  1  0.00636700  0.65718400  0.72675400  1
  O  O10  1  0.81329100  0.44900100  0.50028400  1
  O  O11  1  0.31329100  0.94900100  0.99971600  1
  O  O12  1  0.17765500  0.55088300  0.83206400  1
  O  O13  1  0.71081900  0.93676100  0.44918600  1
  O  O14  1  0.50617900  0.18656300  0.08271300  1
  O  O15  1  0.48926400  0.18473600  0.42884400  1
  O  O16  1  0.00617900  0.81343700  0.91728700  1
  O  O17  1  0.70092100  0.56327100  0.61288800  1
  O  O18  1  0.17686300  0.95626100  0.66790100  1
  O  O19  1  0.31329100  0.55099900  0.49971600  1
  O  O20  1  0.00617900  0.68656300  0.41728700  1
  O  O21  1  0.48926400  0.31526400  0.92884400  1
  O  O22  1  0.46141500  0.66965900  0.07878300  1
  O  O23  1  0.47159100  0.69132800  0.74741700  1
  O  O24  1  0.29408300  0.06572400  0.21953400  1
  O  O25  1  0.20092100  0.43672900  0.38711200  1
  O  O26  1  0.96141500  0.33034100  0.92121700  1
  O  O27  1  0.97466000  0.33213500  0.60433400  1
  O  O28  1  0.71081900  0.56323900  0.94918600  1
  O  O29  1  0.81329100  0.05099900  0.00028400  1
  O  O30  1  0.97159100  0.19132800  0.75258300  1
  O  O31  1  0.47466000  0.83213500  0.89566600  1
  O  O32  1  0.98926400  0.81526400  0.57115600  1
  O  O33  1  0.98926400  0.68473600  0.07115600  1
  O  O34  1  0.46141500  0.83034100  0.57878300  1
  O  O35  1  0.70092100  0.93672900  0.11288800  1
  O  O36  1  0.47159100  0.80867200  0.24741700  1
  O  O37  1  0.67765500  0.44911700  0.16793600  1
  O  O38  1  0.79408300  0.56572400  0.28046600  1
  O  O39  1  0.50617900  0.31343700  0.58271300  1
  O  O40  1  0.67686300  0.45626100  0.83209900  1
  O  O41  1  0.67686300  0.04373900  0.33209900  1
  O  O42  1  0.00636700  0.84281600  0.22675400  1
  O  O43  1  0.17686300  0.54373900  0.16790100  1
  O  O44  1  0.96141500  0.16965900  0.42121700  1
  O  O45  1  0.29408300  0.43427600  0.71953400  1
  O  O46  1  0.50636700  0.15718400  0.77324600  1
  O  O47  1  0.20092100  0.06327100  0.88711200  1
loop_
_geom_bond_atom_site_label_1
_geom_bond_atom_site_label_2
_geom_bond_distance
_geom_bond_site_symmetry_2
Ca0 O7 2.360721 1_555
Ca0 O41 2.391099 1_565
Ca0 O36 2.444524 1_555
Ca0 O20 2.472329 1_655
Ca0 O38 2.473471 1_555
Ca0 O42 2.734124 1_655
Ca0 O13 2.761375 1_555
Ca0 O5 2.809287 1_655
Ca1 O0 2.360721 1_455
Ca1 O43 2.391099 1_555
Ca1 O3 2.444524 1_455
Ca1 O14 2.472329 1_555
Ca1 O24 2.473471 1_555
Ca1 O6 2.734124 1_555
Ca1 O1 2.761375 1_555
Ca1 O37 2.809287 1_555
Ca2 O42 2.330024 1_655
Ca2 O37 2.431320 1_555
Ca2 O33 2.471506 1_555
Ca2 O36 2.493737 1_555
Ca2 O22 2.506951 1_555
Ca2 O35 2.522379 1_555
Ca2 O38 2.706367 1_555
Ca2 O43 2.858417 1_655
Ca3 O33 2.396836 1_555
Ca3 O29 2.454796 1_565
Ca3 O22 2.461390 1_555
Ca3 O16 2.463444 1_654
Ca3 O28 2.504493 1_554
Ca3 O31 2.641054 1_554
Ca3 O11 2.658200 1_554
Ca3 O35 2.661749 1_555
Ca4 O6 2.330024 1_555
Ca4 O5 2.431320 1_545
Ca4 O15 2.471506 1_555
Ca4 O3 2.493737 1_455
Ca4 O44 2.506951 1_455
Ca4 O25 2.522379 1_555
Ca4 O24 2.706367 1_555
Ca4 O41 2.858417 1_555
Ca5 O9 2.330024 1_655
Ca5 O4 2.431320 1_565
Ca5 O32 2.471506 1_555
Ca5 O23 2.493737 1_555
Ca5 O34 2.506951 1_555
Ca5 O17 2.522379 1_555
Ca5 O2 2.706367 1_555
Ca5 O18 2.858417 1_655
Ca6 O27 2.360721 1_455
Ca6 O18 2.391099 1_545
Ca6 O30 2.444524 1_455
Ca6 O39 2.472329 1_555
Ca6 O45 2.473471 1_555
Ca6 O46 2.734124 1_555
Ca6 O8 2.761375 1_555
Ca6 O4 2.809287 1_555
Ca7 O31 2.360721 1_555
Ca7 O40 2.391099 1_555
Ca7 O23 2.444524 1_555
Ca7 O16 2.472329 1_655
Ca7 O2 2.473471 1_555
Ca7 O9 2.734124 1_655
Ca7 O28 2.761375 1_555
Ca7 O12 2.809287 1_655
Ca8 O46 2.330024 1_555
Ca8 O12 2.431320 1_555
Ca8 O21 2.471506 1_555
Ca8 O30 2.493737 1_455
Ca8 O26 2.506951 1_455
Ca8 O47 2.522379 1_555
Ca8 O45 2.706367 1_555
Ca8 O40 2.858417 1_555
Ca9 O32 2.396836 1_555
Ca9 O10 2.454796 1_555
Ca9 O34 2.461390 1_555
Ca9 O20 2.463444 1_655
Ca9 O13 2.504493 1_555
Ca9 O7 2.641054 1_555
Ca9 O19 2.658200 1_555
Ca9 O17 2.661749 1_555
Ca10 O15 2.396836 1_555
Ca10 O19 2.454796 1_555
Ca10 O44 2.461390 1_455
Ca10 O39 2.463444 1_555
Ca10 O8 2.504493 1_555
Ca10 O27 2.641054 1_455
Ca10 O10 2.658200 1_455
Ca10 O25 2.661749 1_555
Ca11 O21 2.396836 1_555
Ca11 O11 2.454796 1_545
Ca11 O26 2.461390 1_455
Ca11 O14 2.463444 1_556
Ca11 O1 2.504493 1_556
Ca11 O0 2.641054 1_456
Ca11 O29 2.658200 1_456
Ca11 O47 2.661749 1_555
O0 Si11 1.659097 1_555
O0 Sr11 2.770632 1_645
O0 Sr9 2.915686 1_555
O0 Sr7 3.023118 1_555
O1 Si2 1.663089 1_555
O1 Sr1 2.611495 1_554
O1 Sr7 2.821209 1_455
O1 Sr7 2.847652 1_555
O2 Si5 1.663071 1_565
O2 Sr4 2.600417 1_655
O2 Sr2 2.699368 1_565
O2 Sr4 3.063170 1_555
O3 Si10 1.652889 1_555
O3 Sr9 2.612234 1_555
O3 Sr5 3.033642 1_655
O4 Si5 1.628131 1_555
O4 Sr6 2.371738 1_555
O5 Si1 1.628131 1_555
O5 Sr10 2.371738 1_555
O6 Si10 1.657120 1_555
O6 Sr5 2.629208 1_555
O6 Sr0 2.882352 1_555
O6 Sr9 3.087058 1_555
O7 Si3 1.659097 1_555
O7 Sr0 2.770632 1_555
O7 Sr5 2.915686 1_555
O7 Sr10 3.023118 1_555
O8 Si6 1.663089 1_545
O8 Sr10 2.611495 1_545
O8 Sr6 2.821209 1_455
O8 Sr6 2.847652 1_555
O9 Si9 1.657120 1_555
O9 Sr8 2.629208 1_455
O9 Sr3 2.882352 1_555
O9 Sr4 3.087058 1_555
O10 Si0 1.630257 1_555
O10 Sr0 2.381397 1_555
O11 Si4 1.630257 1_555
O11 Sr11 2.381397 1_556
O12 Si9 1.628131 1_555
O12 Sr1 2.371738 1_555
O13 Si8 1.663089 1_565
O13 Sr6 2.611495 1_565
O13 Sr10 2.821209 1_555
O13 Sr10 2.847652 1_655
O14 Si11 1.650332 1_555
O14 Sr7 2.603106 1_555
O14 Sr11 2.991802 1_545
O15 Si8 1.655407 1_555
O15 Sr0 2.770350 1_555
O15 Sr10 2.931559 1_545
O15 Sr6 3.147827 1_555
O16 Si4 1.650332 1_555
O16 Sr1 2.603106 1_555
O16 Sr2 2.991802 1_465
O17 Si0 1.657039 1_555
O17 Sr3 2.627024 1_555
O17 Sr8 2.666530 1_555
O17 Sr3 3.041217 1_655
O18 Si6 1.623654 1_555
O18 Sr4 2.377620 1_555
O19 Si3 1.630257 1_555
O19 Sr3 2.381397 1_555
O20 Si3 1.650332 1_555
O20 Sr10 2.603106 1_555
O20 Sr0 2.991802 1_455
O21 Si7 1.655407 1_555
O21 Sr2 2.770350 1_555
O21 Sr1 2.931559 1_555
O21 Sr7 3.147827 1_556
O22 Si2 1.651145 1_555
O22 Sr7 2.761523 1_555
O22 Sr11 2.779743 1_555
O23 Si9 1.652889 1_555
O23 Sr4 2.612234 1_555
O23 Sr8 3.033642 1_555
O24 Si1 1.663071 1_545
O24 Sr9 2.600417 1_555
O24 Sr11 2.699368 1_545
O24 Sr9 3.063170 1_455
O25 Si3 1.657039 1_555
O25 Sr0 2.627024 1_455
O25 Sr5 2.666530 1_555
O25 Sr0 3.041217 1_555
O26 Si7 1.651145 1_555
O26 Sr1 2.761523 1_655
O26 Sr2 2.779743 1_555
O27 Si0 1.659097 1_555
O27 Sr3 2.770632 1_655
O27 Sr8 2.915686 1_555
O27 Sr6 3.023118 1_555
O28 Si7 1.663089 1_555
O28 Sr7 2.611495 1_556
O28 Sr1 2.821209 1_555
O28 Sr1 2.847652 1_655
O29 Si11 1.630257 1_555
O29 Sr2 2.381397 1_554
O30 Si5 1.652889 1_555
O30 Sr8 2.612234 1_555
O30 Sr4 3.033642 1_645
O31 Si4 1.659097 1_555
O31 Sr2 2.770632 1_565
O31 Sr4 2.915686 1_555
O31 Sr1 3.023118 1_555
O32 Si6 1.655407 1_655
O32 Sr3 2.770350 1_655
O32 Sr6 2.931559 1_565
O32 Sr10 3.147827 1_655
O33 Si2 1.655407 1_655
O33 Sr11 2.770350 1_655
O33 Sr7 2.931559 1_555
O33 Sr1 3.147827 1_654
O34 Si6 1.651145 1_555
O34 Sr6 2.761523 1_565
O34 Sr3 2.779743 1_555
O35 Si11 1.657039 1_565
O35 Sr11 2.627024 1_555
O35 Sr9 2.666530 1_565
O35 Sr11 3.041217 1_655
O36 Si1 1.652889 1_555
O36 Sr5 2.612234 1_555
O36 Sr9 3.033642 1_565
O37 Si10 1.628131 1_555
O37 Sr7 2.371738 1_555
O38 Si10 1.663071 1_555
O38 Sr5 2.600417 1_655
O38 Sr0 2.699368 1_555
O38 Sr5 3.063170 1_555
O39 Si0 1.650332 1_555
O39 Sr6 2.603106 1_555
O39 Sr3 2.991802 1_555
O40 Si7 1.623654 1_555
O40 Sr8 2.377620 1_555
O41 Si8 1.623654 1_555
O41 Sr9 2.377620 1_555
O42 Si1 1.657120 1_555
O42 Sr9 2.629208 1_465
O42 Sr11 2.882352 1_555
O42 Sr5 3.087058 1_555
O43 Si2 1.623654 1_555
O43 Sr5 2.377620 1_555
O44 Si8 1.651145 1_555
O44 Sr10 2.761523 1_645
O44 Sr0 2.779743 1_555
O45 Si9 1.663071 1_555
O45 Sr8 2.600417 1_555
O45 Sr3 2.699368 1_555
O45 Sr8 3.063170 1_455
O46 Si5 1.657120 1_555
O46 Sr4 2.629208 1_545
O46 Sr2 2.882352 1_555
O46 Sr8 3.087058 1_555
O47 Si4 1.657039 1_545
O47 Sr2 2.627024 1_455
O47 Sr4 2.666530 1_545
O47 Sr2 3.041217 1_555
