# generated using pymatgen
data_Tb2TiO5
_symmetry_space_group_name_H-M   'P 1'
_cell_length_a   7.27676700
_cell_length_b   7.38028716
_cell_length_c   18.25830895
_cell_angle_alpha   87.91525733
_cell_angle_beta   88.12314165
_cell_angle_gamma   62.50304892
_symmetry_Int_Tables_number   1
_chemical_formula_structural   Tb2TiO5
_chemical_formula_sum   'Tb16 Ti8 O40'
_cell_volume   869.07112625
_cell_formula_units_Z   8
loop_
 _symmetry_equiv_pos_site_id
 _symmetry_equiv_pos_as_xyz
  1  'x, y, z'
loop_
 _atom_site_type_symbol
 _atom_site_label
 _atom_site_symmetry_multiplicity
 _atom_site_fract_x
 _atom_site_fract_y
 _atom_site_fract_z
 _atom_site_occupancy
  Tb  Tb0  1  0.02279100  0.44959300  0.99606200  1
  Tb  Tb1  1  0.49867500  0.97681500  0.01265700  1
  Tb  Tb2  1  0.29801400  0.29323100  0.17565300  1
  Tb  Tb3  1  0.66510200  0.16085900  0.33040600  1
  Tb  Tb4  1  0.99553100  0.50056000  0.47915400  1
  Tb  Tb5  1  0.53702600  0.44875700  0.00064000  1
  Tb  Tb6  1  0.19663300  0.70505900  0.32408600  1
  Tb  Tb7  1  0.48960000  0.51404400  0.49020900  1
  Tb  Tb8  1  0.81300600  0.80053300  0.17782900  1
  Tb  Tb9  1  0.02525100  0.96429900  0.49700900  1
  Tb  Tb10  1  0.34111400  0.85595700  0.66251200  1
  Tb  Tb11  1  0.65041000  0.17033200  0.83560500  1
  Tb  Tb12  1  0.84441500  0.33558500  0.66371900  1
  Tb  Tb13  1  0.15062100  0.16294800  0.82580200  1
  Tb  Tb14  1  0.66784700  0.63735200  0.83663200  1
  Tb  Tb15  1  0.17543100  0.65344200  0.81460500  1
  Ti  Ti0  1  0.95318700  0.99394900  0.99054900  1
  Ti  Ti1  1  0.33851900  0.76810500  0.13692900  1
  Ti  Ti2  1  0.55862900  0.95531800  0.51564600  1
  Ti  Ti3  1  0.82498700  0.34777400  0.17980500  1
  Ti  Ti4  1  0.66162900  0.66779200  0.33944600  1
  Ti  Ti5  1  0.16393000  0.17302700  0.34905400  1
  Ti  Ti6  1  0.31100700  0.33099400  0.65785300  1
  Ti  Ti7  1  0.86363400  0.81881900  0.66556400  1
  O  O0  1  0.25042500  0.82904500  0.04288800  1
  O  O1  1  0.70334300  0.56822000  0.23983100  1
  O  O2  1  0.46352000  0.94531500  0.14238600  1
  O  O3  1  0.06528500  0.18550200  0.22845100  1
  O  O4  1  0.87255200  0.83426200  0.04986300  1
  O  O5  1  0.32211000  0.29890200  0.30283600  1
  O  O6  1  0.93463600  0.42637600  0.36430900  1
  O  O7  1  0.96390700  0.47838500  0.12806500  1
  O  O8  1  0.08611900  0.39587100  0.59114200  1
  O  O9  1  0.69070600  0.16609400  0.20272200  1
  O  O10  1  0.33199700  0.32802300  0.05437400  1
  O  O11  1  0.81378100  0.81619200  0.30645400  1
  O  O12  1  0.54968300  0.52537300  0.11979700  1
  O  O13  1  0.17586300  0.65137500  0.44928800  1
  O  O14  1  0.83348200  0.80023500  0.54597800  1
  O  O15  1  0.52961100  0.49100300  0.36388400  1
  O  O16  1  0.16757600  0.69781100  0.19952600  1
  O  O17  1  0.94790000  0.01897800  0.62142100  1
  O  O18  1  0.81396400  0.32486400  0.78598700  1
  O  O19  1  0.62759100  0.14583600  0.46559000  1
  O  O20  1  0.02036700  0.94466100  0.89010900  1
  O  O21  1  0.39012500  0.88155600  0.32373300  1
  O  O22  1  0.88463500  0.24501100  0.03230300  1
  O  O23  1  0.99852000  0.02333600  0.37052900  1
  O  O24  1  0.35320800  0.82856000  0.53951000  1
  O  O25  1  0.22098800  0.15995900  0.44947800  1
  O  O26  1  0.51104800  0.41428000  0.61246200  1
  O  O27  1  0.46458700  0.49455700  0.88063300  1
  O  O28  1  0.16849600  0.17145400  0.70143600  1
  O  O29  1  0.66612000  0.66724100  0.95994800  1
  O  O30  1  0.35837100  0.83282300  0.78620000  1
  O  O31  1  0.00705300  0.50393700  0.86860600  1
  O  O32  1  0.14016100  0.64348000  0.68660800  1
  O  O33  1  0.65820700  0.69990200  0.44861300  1
  O  O34  1  0.70296400  0.67456800  0.67521000  1
  O  O35  1  0.80439500  0.89251400  0.76359200  1
  O  O36  1  0.25729500  0.14585800  0.93688500  1
  O  O37  1  0.48893900  0.05911800  0.61073400  1
  O  O38  1  0.66784000  0.12836400  0.95586000  1
  O  O39  1  0.37897900  0.30934400  0.76200400  1
loop_
_geom_bond_atom_site_label_1
_geom_bond_atom_site_label_2
_geom_bond_distance
_geom_bond_site_symmetry_2
O0 Ti1 1.819640 1_555
O0 Ti0 2.166265 1_454
O0 Tb1 2.543111 1_555
O0 Tb5 2.732914 1_555
O1 Ti3 1.835219 1_555
O1 Ti4 1.948156 1_555
O1 Tb8 2.433304 1_555
O2 Ti1 1.913566 1_555
O2 Tb8 2.361411 1_555
O2 Tb2 2.371196 1_565
O2 Tb1 2.388529 1_555
O3 Ti3 1.836124 1_455
O3 Ti5 2.323861 1_555
O3 Tb2 2.347351 1_555
O4 Ti0 1.846656 1_554
O4 Tb8 2.387394 1_555
O4 Tb1 2.529051 1_555
O4 Tb0 2.736140 1_654
O5 Ti5 1.940816 1_555
O5 Tb3 2.284226 1_555
O5 Tb2 2.337815 1_555
O5 Tb6 2.739279 1_555
O6 Ti5 1.866623 1_655
O6 Ti4 2.014692 1_555
O6 Tb4 2.293776 1_555
O7 Ti3 1.901188 1_555
O7 Tb8 2.316273 1_555
O7 Tb2 2.348891 1_655
O7 Tb0 2.433747 1_654
O8 Ti6 1.937898 1_555
O8 Tb4 2.171494 1_455
O8 Tb12 2.361027 1_455
O9 Ti3 2.017418 1_555
O9 Tb3 2.332977 1_555
O9 Tb8 2.474488 1_545
O9 Tb2 2.621652 1_555
O10 Tb2 2.238711 1_555
O10 Tb5 2.247335 1_555
O10 Tb0 2.285699 1_554
O10 Tb1 2.439244 1_545
O11 Ti4 1.953530 1_555
O11 Tb3 2.311071 1_565
O11 Tb8 2.355831 1_555
O11 Tb6 2.543088 1_655
O12 Ti1 1.770769 1_555
O12 Ti3 2.132220 1_555
O12 Tb5 2.283022 1_555
O13 Tb4 2.125064 1_455
O13 Tb7 2.171984 1_555
O13 Tb9 2.245125 1_555
O13 Tb6 2.317818 1_555
O14 Ti2 1.878697 1_555
O14 Ti7 2.217050 1_555
O14 Tb4 2.337634 1_555
O14 Tb9 2.369092 1_655
O15 Ti4 1.977710 1_555
O15 Tb3 2.265637 1_555
O15 Tb7 2.317837 1_555
O15 Tb6 2.322041 1_555
O16 Ti1 1.892710 1_555
O16 Tb6 2.295778 1_555
O16 Tb8 2.372257 1_455
O16 Tb2 2.730779 1_555
O17 Ti7 1.981222 1_545
O17 Tb12 2.256507 1_555
O17 Tb9 2.326546 1_645
O17 Tb10 2.663395 1_645
O18 Tb11 2.155336 1_555
O18 Tb12 2.238289 1_555
O18 Tb14 2.265129 1_555
O18 Tb13 2.303929 1_655
O19 Ti2 1.895303 1_545
O19 Tb7 2.476821 1_555
O19 Tb3 2.478481 1_555
O19 Tb9 2.640143 1_645
O20 Ti0 1.886787 1_455
O20 Tb15 2.380619 1_555
O20 Tb13 2.464113 1_565
O20 Tb11 2.631775 1_465
O21 Ti4 1.897519 1_555
O21 Ti5 2.074455 1_565
O21 Tb6 2.317676 1_555
O22 Ti0 1.867528 1_544
O22 Tb0 2.239116 1_654
O22 Tb5 2.348162 1_555
O23 Ti5 1.997117 1_655
O23 Tb3 2.289483 1_555
O23 Tb6 2.291922 1_645
O23 Tb9 2.332071 1_645
O24 Ti2 2.125659 1_555
O24 Tb10 2.257420 1_555
O24 Tb7 2.269260 1_555
O24 Tb9 2.271147 1_555
O25 Ti5 1.882473 1_555
O25 Tb4 2.353026 1_455
O25 Ti2 2.532249 1_545
O25 Tb9 2.567911 1_545
O26 Ti6 1.973253 1_555
O26 Tb7 2.312148 1_555
O26 Tb12 2.430229 1_555
O26 Tb10 3.067647 1_555
O27 Tb15 2.245150 1_555
O27 Tb5 2.247306 1_556
O27 Tb14 2.289902 1_555
O27 Tb11 2.304929 1_555
O28 Ti6 2.024922 1_555
O28 Tb10 2.205846 1_545
O28 Tb12 2.216037 1_455
O28 Tb13 2.270423 1_555
O29 Tb1 2.267907 1_556
O29 Tb14 2.269357 1_555
O29 Tb5 2.302250 1_556
O29 Tb0 2.436496 1_655
O30 Tb14 2.244938 1_555
O30 Tb10 2.261795 1_555
O30 Tb15 2.307805 1_555
O30 Tb13 2.323744 1_565
O31 Tb15 2.186532 1_555
O31 Tb14 2.282820 1_455
O31 Tb0 2.344494 1_555
O31 Tb13 2.386912 1_555
O32 Ti7 1.865809 1_455
O32 Ti6 2.130201 1_555
O32 Tb15 2.366875 1_555
O32 Tb10 2.610749 1_555
O33 Ti4 2.013780 1_555
O33 Ti2 2.103538 1_555
O33 Tb4 2.279454 1_555
O33 Tb7 2.319664 1_555
O34 Ti7 1.911435 1_555
O34 Tb12 2.237997 1_555
O34 Tb10 2.354050 1_555
O34 Tb14 2.963757 1_555
O35 Ti7 1.867861 1_555
O35 Tb11 2.273000 1_565
O35 Tb15 2.629946 1_655
O35 Tb14 2.787545 1_555
O36 Tb1 2.136758 1_546
O36 Tb13 2.173962 1_555
O36 Tb0 2.372246 1_555
O37 Ti2 1.881118 1_545
O37 Ti6 2.023943 1_555
O37 Tb10 2.370358 1_545
O37 Ti7 2.676958 1_545
O38 Ti0 1.958336 1_545
O38 Tb11 2.205766 1_555
O38 Tb1 2.223744 1_546
O38 Tb5 2.275329 1_556
O39 Ti6 1.962872 1_555
O39 Tb11 2.227556 1_555
O39 Tb15 2.485239 1_555
O39 Tb13 2.593261 1_555
