# generated using pymatgen
data_TbHO2
_symmetry_space_group_name_H-M   'P 1'
_cell_length_a   3.68573300
_cell_length_b   4.50920300
_cell_length_c   5.55353300
_cell_angle_alpha   90.00000000
_cell_angle_beta   90.00000000
_cell_angle_gamma   90.00000000
_symmetry_Int_Tables_number   1
_chemical_formula_structural   TbHO2
_chemical_formula_sum   'Tb2 H2 O4'
_cell_volume   92.29815403
_cell_formula_units_Z   2
loop_
 _symmetry_equiv_pos_site_id
 _symmetry_equiv_pos_as_xyz
  1  'x, y, z'
loop_
 _atom_site_type_symbol
 _atom_site_label
 _atom_site_symmetry_multiplicity
 _atom_site_fract_x
 _atom_site_fract_y
 _atom_site_fract_z
 _atom_site_occupancy
  Tb  Tb0  1  0.00000000  0.00000000  0.80947400  1
  Tb  Tb1  1  0.50000000  0.50000000  0.19052600  1
  H  H0  1  0.50000000  0.00000000  0.39255300  1
  H  H1  1  0.00000000  0.50000000  0.60744700  1
  O  O0  1  0.50000000  0.00000000  0.07682600  1
  O  O1  1  0.00000000  0.50000000  0.92317400  1
  O  O2  1  0.50000000  0.00000000  0.57050900  1
  O  O3  1  0.00000000  0.50000000  0.42949100  1
loop_
_geom_bond_atom_site_label_1
_geom_bond_atom_site_label_2
_geom_bond_distance
_geom_bond_site_symmetry_2
H0 O2 0.988285 1_555
H0 O0 1.753400 1_555
H0 Tb1 2.518339 1_555
H0 Tb1 2.518339 1_545
H1 O3 0.988285 1_555
H1 O1 1.753400 1_555
H1 Tb0 2.518339 1_555
H1 Tb0 2.518339 1_565
O0 Tb1 2.341354 1_545
O0 Tb1 2.341354 1_555
O0 Tb0 2.366566 1_554
O0 Tb0 2.366566 1_654
O1 Tb0 2.341354 1_555
O1 Tb0 2.341354 1_565
O1 Tb1 2.366566 1_556
O1 Tb1 2.366566 1_456
O2 Tb0 2.270980 1_655
O2 Tb0 2.270980 1_555
O3 Tb1 2.270980 1_555
O3 Tb1 2.270980 1_455
