# generated using pymatgen
data_Mg3Si8Ir3
_symmetry_space_group_name_H-M   'P 1'
_cell_length_a   8.63194654
_cell_length_b   8.63194977
_cell_length_c   8.63195108
_cell_angle_alpha   59.99894163
_cell_angle_beta   59.99893166
_cell_angle_gamma   59.99885608
_symmetry_Int_Tables_number   1
_chemical_formula_structural   Mg3Si8Ir3
_chemical_formula_sum   'Mg6 Si16 Ir6'
_cell_volume   454.77950453
_cell_formula_units_Z   2
loop_
 _symmetry_equiv_pos_site_id
 _symmetry_equiv_pos_as_xyz
  1  'x, y, z'
loop_
 _atom_site_type_symbol
 _atom_site_label
 _atom_site_symmetry_multiplicity
 _atom_site_fract_x
 _atom_site_fract_y
 _atom_site_fract_z
 _atom_site_occupancy
  Mg  Mg0  1  0.85078193  0.85078155  0.85078135  1
  Mg  Mg1  1  0.85082170  0.85082146  0.44757007  1
  Mg  Mg2  1  0.85082202  0.44757055  0.85082114  1
  Mg  Mg3  1  0.49999656  0.50000717  0.50001621  1
  Mg  Mg4  1  0.44757028  0.85082188  0.85082111  1
  Mg  Mg5  1  0.24999926  0.24999882  0.24999832  1
  Si  Si0  1  0.89063287  0.46951350  0.46951283  1
  Si  Si1  1  0.77976648  0.07341109  0.07341023  1
  Si  Si2  1  0.46951448  0.89062790  0.17034428  1
  Si  Si3  1  0.46951399  0.46951347  0.89063236  1
  Si  Si4  1  0.46951582  0.17033802  0.46951468  1
  Si  Si5  1  0.89062841  0.17034526  0.46951309  1
  Si  Si6  1  0.17033831  0.46951522  0.46951461  1
  Si  Si7  1  0.17034478  0.46951387  0.89062809  1
  Si  Si8  1  0.07341163  0.77976599  0.07341024  1
  Si  Si9  1  0.46951584  0.46951532  0.17033751  1
  Si  Si10  1  0.89062804  0.46951396  0.17034462  1
  Si  Si11  1  0.17034516  0.89062856  0.46951308  1
  Si  Si12  1  0.46951409  0.89063265  0.46951287  1
  Si  Si13  1  0.07341149  0.07341098  0.77976533  1
  Si  Si14  1  0.46951438  0.17034453  0.89062783  1
  Si  Si15  1  0.07341162  0.07341105  0.07341045  1
  Ir  Ir0  1  0.24485712  0.75514374  0.24485599  1
  Ir  Ir1  1  0.75514510  0.75514463  0.24485308  1
  Ir  Ir2  1  0.75514446  0.24485641  0.24485568  1
  Ir  Ir3  1  0.24485477  0.75514419  0.75514328  1
  Ir  Ir4  1  0.24485450  0.24485411  0.75514711  1
  Ir  Ir5  1  0.75514492  0.24485409  0.75514354  1
loop_
_geom_bond_atom_site_label_1
_geom_bond_atom_site_label_2
_geom_bond_distance
_geom_bond_site_symmetry_2
Mg0 Si1 3.016429 1_566
Mg0 Si8 3.016429 1_656
Mg0 Si13 3.016432 1_665
Mg0 Si14 3.049060 1_565
Mg0 Si7 3.049060 1_655
Mg0 Si2 3.049062 1_556
Mg0 Si10 3.049065 1_556
Mg0 Si11 3.049069 1_655
Mg0 Si5 3.049071 1_565
Mg1 Si15 3.015779 1_665
Mg1 Si1 3.015925 1_565
Mg1 Si8 3.015925 1_655
Mg1 Si11 3.048998 1_655
Mg1 Si5 3.049000 1_565
Mg1 Si4 3.049080 1_565
Mg1 Si6 3.049082 1_655
Mg1 Si12 3.049258 1_555
Mg1 Si0 3.049263 1_555
Mg2 Si15 3.015772 1_656
Mg2 Si13 3.015922 1_655
Mg2 Si1 3.015924 1_556
Mg2 Si7 3.048992 1_655
Mg2 Si10 3.048995 1_556
Mg2 Si9 3.049084 1_556
Mg2 Si6 3.049087 1_655
Mg2 Si3 3.049261 1_555
Mg2 Si0 3.049267 1_555
Mg3 Si7 3.130779 1_555
Mg3 Si3 3.130799 1_555
Mg3 Si14 3.130817 1_555
Mg3 Si11 3.130821 1_555
Mg3 Si12 3.130845 1_555
Mg3 Si2 3.130895 1_555
Mg3 Si0 3.130896 1_555
Mg3 Si5 3.130910 1_555
Mg3 Si10 3.130946 1_555
Mg3 Si6 3.131059 1_555
Mg3 Si4 3.131097 1_555
Mg3 Si9 3.131130 1_555
Mg4 Si15 3.015767 1_566
Mg4 Si13 3.015916 1_565
Mg4 Si8 3.015918 1_556
Mg4 Si14 3.048995 1_565
Mg4 Si2 3.048997 1_556
Mg4 Si4 3.049086 1_565
Mg4 Si9 3.049087 1_556
Mg4 Si3 3.049263 1_555
Mg4 Si12 3.049263 1_555
Mg5 Si0 2.939025 1_455
Mg5 Si12 2.939025 1_545
Mg5 Si3 2.939028 1_554
Mg5 Si11 2.939041 1_545
Mg5 Si7 2.939041 1_554
Mg5 Si5 2.939042 1_455
Mg5 Si14 2.939042 1_554
Mg5 Si2 2.939042 1_545
Mg5 Si10 2.939042 1_455
Mg5 Si6 2.939110 1_555
Mg5 Si4 2.939111 1_555
Mg5 Si9 2.939114 1_555
Si0 Si6 2.414418 1_655
Si0 Si5 2.582423 1_555
Si0 Si10 2.582424 1_555
Si1 Si8 2.534686 1_645
Si1 Si13 2.534687 1_654
Si1 Si15 2.534730 1_655
Si3 Si9 2.414417 1_556
Si3 Si7 2.582429 1_555
Si4 Si6 2.582439 1_555
Si4 Si9 2.582442 1_555
Si6 Si9 2.582442 1_555
Si10 Si7 2.414461 1_654
Si10 Si5 2.582367 1_555
Si11 Si5 2.414459 1_465
Si11 Si2 2.582370 1_555
Si11 Si12 2.582427 1_555
Si12 Si4 2.414418 1_565
Si12 Si2 2.582427 1_555
Si13 Si8 2.534688 1_546
Si13 Si15 2.534731 1_556
Si14 Si2 2.414461 1_546
Si14 Si7 2.582371 1_555
Si14 Si3 2.582429 1_555
Si15 Si8 2.534730 1_545
Ir0 Si9 2.410471 1_555
Ir0 Si6 2.410476 1_555
Ir0 Si2 2.410491 1_555
Ir0 Si11 2.410492 1_555
Ir0 Si15 2.446683 1_565
Ir0 Si8 2.446742 1_555
Ir0 Mg4 2.827882 1_554
Ir0 Mg1 2.827884 1_455
Ir0 Mg3 3.114694 1_555
Ir1 Si2 2.410467 1_555
Ir1 Si10 2.410467 1_555
Ir1 Si12 2.410478 1_555
Ir1 Si0 2.410478 1_555
Ir1 Si8 2.446686 1_655
Ir1 Si1 2.446686 1_565
Ir1 Mg1 2.828178 1_555
Ir1 Mg0 2.828253 1_554
Ir1 Mg3 3.114614 1_555
Ir2 Si9 2.410471 1_555
Ir2 Si4 2.410475 1_555
Ir2 Si5 2.410491 1_555
Ir2 Si10 2.410491 1_555
Ir2 Si15 2.446680 1_655
Ir2 Si1 2.446740 1_555
Ir2 Mg2 2.827882 1_554
Ir2 Mg1 2.827883 1_545
Ir2 Mg3 3.114765 1_555
Ir3 Si11 2.410468 1_555
Ir3 Si7 2.410471 1_555
Ir3 Si3 2.410478 1_555
Ir3 Si12 2.410478 1_555
Ir3 Si13 2.446688 1_565
Ir3 Si8 2.446691 1_556
Ir3 Mg4 2.828180 1_555
Ir3 Mg0 2.828256 1_455
Ir3 Mg3 3.114477 1_555
Ir4 Si14 2.410494 1_555
Ir4 Si7 2.410495 1_555
Ir4 Si4 2.410495 1_555
Ir4 Si6 2.410496 1_555
Ir4 Si15 2.446653 1_556
Ir4 Si13 2.446723 1_555
Ir4 Mg4 2.827865 1_545
Ir4 Mg2 2.827867 1_455
Ir4 Mg3 3.114670 1_555
Ir5 Si5 2.410467 1_555
Ir5 Si14 2.410470 1_555
Ir5 Si3 2.410478 1_555
Ir5 Si0 2.410478 1_555
Ir5 Si13 2.446685 1_655
Ir5 Si1 2.446688 1_556
Ir5 Mg2 2.828182 1_555
Ir5 Mg0 2.828256 1_545
Ir5 Mg3 3.114548 1_555
