# generated using pymatgen
data_La4S3N2
_symmetry_space_group_name_H-M   'P 1'
_cell_length_a   4.08526170
_cell_length_b   6.70649937
_cell_length_c   15.65353845
_cell_angle_alpha   90.00000000
_cell_angle_beta   90.00000000
_cell_angle_gamma   90.00000000
_symmetry_Int_Tables_number   1
_chemical_formula_structural   La4S3N2
_chemical_formula_sum   'La8 S6 N4'
_cell_volume   428.87259428
_cell_formula_units_Z   2
loop_
 _symmetry_equiv_pos_site_id
 _symmetry_equiv_pos_as_xyz
  1  'x, y, z'
loop_
 _atom_site_type_symbol
 _atom_site_label
 _atom_site_symmetry_multiplicity
 _atom_site_fract_x
 _atom_site_fract_y
 _atom_site_fract_z
 _atom_site_occupancy
  La  La0  1  -0.00000000  0.27249449  0.84417066  1
  La  La1  1  0.50000000  0.22750551  0.34417066  1
  La  La2  1  0.50000000  0.72051094  0.93516912  1
  La  La3  1  0.50000000  0.77249449  0.65582934  1
  La  La4  1  0.00000000  0.22051094  0.56483088  1
  La  La5  1  0.00000000  0.77948906  0.43516912  1
  La  La6  1  0.50000000  0.27948906  0.06483088  1
  La  La7  1  0.00000000  0.72750551  0.15582934  1
  S  S0  1  0.50000000  0.21331749  0.70134479  1
  S  S1  1  -0.00000000  0.28668251  0.20134479  1
  S  S2  1  0.00000000  0.71331749  0.79865521  1
  S  S3  1  -0.00000000  -0.00000000  0.00000000  1
  S  S4  1  0.50000000  0.78668251  0.29865521  1
  S  S5  1  0.50000000  0.50000000  0.50000000  1
  N  N0  1  -0.00000000  0.87345318  0.58323535  1
  N  N1  1  0.50000000  0.62654682  0.08323535  1
  N  N2  1  -0.00000000  0.12654682  0.41676465  1
  N  N3  1  0.50000000  0.37345318  0.91676465  1
loop_
_geom_bond_atom_site_label_1
_geom_bond_atom_site_label_2
_geom_bond_distance
_geom_bond_site_symmetry_2
La0 N3 2.433531 1_555
La0 N3 2.433531 1_455
La0 S2 3.041020 1_555
La0 S3 3.047915 1_556
La0 S0 3.054233 1_555
La0 S0 3.054233 1_455
La1 N2 2.433531 1_655
La1 N2 2.433531 1_555
La1 S4 3.041020 1_545
La1 S5 3.047915 1_555
La1 S1 3.054233 1_655
La1 S1 3.054233 1_555
La2 N3 2.345305 1_555
La2 N1 2.401901 1_556
La2 S3 2.952215 1_666
La2 S3 2.952215 1_566
La2 S2 2.956538 1_655
La2 S2 2.956538 1_555
La3 N0 2.433531 1_555
La3 N0 2.433531 1_655
La3 S0 3.041020 1_565
La3 S5 3.047915 1_555
La3 S2 3.054233 1_555
La3 S2 3.054233 1_655
La4 N0 2.345305 1_545
La4 N2 2.401901 1_555
La4 S5 2.952215 1_455
La4 S5 2.952215 1_555
La4 S0 2.956538 1_555
La4 S0 2.956538 1_455
La5 N2 2.345305 1_565
La5 N0 2.401901 1_555
La5 S5 2.952215 1_455
La5 S5 2.952215 1_555
La5 S4 2.956538 1_455
La5 S4 2.956538 1_555
La6 N1 2.345305 1_555
La6 N3 2.401901 1_554
La6 S3 2.952215 1_655
La6 S3 2.952215 1_555
La6 S1 2.956538 1_655
La6 S1 2.956538 1_555
La7 N1 2.433531 1_555
La7 N1 2.433531 1_455
La7 S1 3.041020 1_555
La7 S3 3.047915 1_565
La7 S4 3.054233 1_455
La7 S4 3.054233 1_555
