# generated using pymatgen
data_Yb5Au4
_symmetry_space_group_name_H-M   'P 1'
_cell_length_a   7.75697200
_cell_length_b   7.90628500
_cell_length_c   15.03795900
_cell_angle_alpha   90.00000000
_cell_angle_beta   90.00000000
_cell_angle_gamma   90.00000000
_symmetry_Int_Tables_number   1
_chemical_formula_structural   Yb5Au4
_chemical_formula_sum   'Yb20 Au16'
_cell_volume   922.26045165
_cell_formula_units_Z   4
loop_
 _symmetry_equiv_pos_site_id
 _symmetry_equiv_pos_as_xyz
  1  'x, y, z'
loop_
 _atom_site_type_symbol
 _atom_site_label
 _atom_site_symmetry_multiplicity
 _atom_site_fract_x
 _atom_site_fract_y
 _atom_site_fract_z
 _atom_site_occupancy
  Yb  Yb0  1  0.02985200  0.17436600  0.39932100  1
  Yb  Yb1  1  0.86959500  0.66269700  0.37936500  1
  Yb  Yb2  1  0.52985200  0.32563400  0.10067900  1
  Yb  Yb3  1  0.13040500  0.33730300  0.62063500  1
  Yb  Yb4  1  0.36959500  0.83730300  0.37936500  1
  Yb  Yb5  1  0.13040500  0.33730300  0.87936500  1
  Yb  Yb6  1  0.36959500  0.83730300  0.12063500  1
  Yb  Yb7  1  0.20700200  0.49485600  0.25000000  1
  Yb  Yb8  1  0.52985200  0.32563400  0.39932100  1
  Yb  Yb9  1  0.79299800  0.50514400  0.75000000  1
  Yb  Yb10  1  0.97014800  0.82563400  0.89932100  1
  Yb  Yb11  1  0.97014800  0.82563400  0.60067900  1
  Yb  Yb12  1  0.47014800  0.67436600  0.60067900  1
  Yb  Yb13  1  0.63040500  0.16269700  0.62063500  1
  Yb  Yb14  1  0.29299800  0.99485600  0.75000000  1
  Yb  Yb15  1  0.63040500  0.16269700  0.87936500  1
  Yb  Yb16  1  0.70700200  0.00514400  0.25000000  1
  Yb  Yb17  1  0.86959500  0.66269700  0.12063500  1
  Yb  Yb18  1  0.47014800  0.67436600  0.89932100  1
  Yb  Yb19  1  0.02985200  0.17436600  0.10067900  1
  Au  Au0  1  0.83596900  0.36173300  0.25000000  1
  Au  Au1  1  0.42860900  0.37585500  0.75000000  1
  Au  Au2  1  0.66403100  0.86173300  0.75000000  1
  Au  Au3  1  0.79485200  0.47477800  0.54533100  1
  Au  Au4  1  0.70514800  0.97477800  0.04533100  1
  Au  Au5  1  0.79485200  0.47477800  0.95466900  1
  Au  Au6  1  0.20514800  0.52522200  0.45466900  1
  Au  Au7  1  0.20514800  0.52522200  0.04533100  1
  Au  Au8  1  0.16403100  0.63826700  0.75000000  1
  Au  Au9  1  0.33596900  0.13826700  0.25000000  1
  Au  Au10  1  0.57139100  0.62414500  0.25000000  1
  Au  Au11  1  0.07139100  0.87585500  0.25000000  1
  Au  Au12  1  0.29485200  0.02522200  0.95466900  1
  Au  Au13  1  0.92860900  0.12414500  0.75000000  1
  Au  Au14  1  0.70514800  0.97477800  0.45466900  1
  Au  Au15  1  0.29485200  0.02522200  0.54533100  1
loop_
_geom_bond_atom_site_label_1
_geom_bond_atom_site_label_2
_geom_bond_distance
_geom_bond_site_symmetry_2
Au0 Au10 2.918293 1_555
Au0 Yb16 2.991523 1_555
Au0 Yb7 3.064505 1_655
Au0 Yb0 3.081967 1_655
Au0 Yb19 3.081967 1_655
Au0 Yb17 3.084577 1_555
Au0 Yb1 3.084577 1_555
Au0 Yb8 3.280564 1_555
Au0 Yb2 3.280564 1_555
Au1 Au8 2.918293 1_555
Au1 Yb9 3.005711 1_555
Au1 Yb13 3.012468 1_555
Au1 Yb15 3.012468 1_555
Au1 Yb5 3.037785 1_555
Au1 Yb3 3.037785 1_555
Au1 Yb14 3.190679 1_545
Au1 Yb12 3.273553 1_555
Au1 Yb18 3.273553 1_555
Au2 Yb9 2.991523 1_555
Au2 Yb14 3.064505 1_555
Au2 Yb18 3.081967 1_555
Au2 Yb12 3.081967 1_555
Au2 Yb15 3.084577 1_565
Au2 Yb13 3.084577 1_565
Au2 Yb10 3.280564 1_555
Au2 Yb11 3.280564 1_555
Au3 Yb1 2.961847 1_555
Au3 Yb13 2.999604 1_555
Au3 Yb3 3.039526 1_655
Au3 Yb12 3.086550 1_555
Au3 Yb9 3.087187 1_555
Au3 Yb11 3.199472 1_555
Au3 Yb8 3.230635 1_555
Au3 Yb0 3.712855 1_655
Au4 Yb15 2.961847 1_564
Au4 Yb17 2.999604 1_555
Au4 Yb6 3.039526 1_555
Au4 Yb19 3.086550 1_665
Au4 Yb16 3.087187 1_565
Au4 Yb2 3.199472 1_565
Au4 Yb10 3.230635 1_554
Au4 Yb18 3.712855 1_554
Au5 Yb17 2.961847 1_556
Au5 Yb15 2.999604 1_555
Au5 Yb5 3.039526 1_655
Au5 Yb18 3.086550 1_555
Au5 Yb9 3.087187 1_555
Au5 Yb10 3.199472 1_555
Au5 Yb2 3.230635 1_556
Au5 Yb19 3.712855 1_656
Au6 Yb3 2.961847 1_555
Au6 Yb4 2.999604 1_555
Au6 Yb1 3.039526 1_455
Au6 Yb8 3.086550 1_555
Au6 Yb7 3.087187 1_555
Au6 Yb0 3.199472 1_555
Au6 Yb12 3.230635 1_555
Au6 Yb11 3.712855 1_455
Au7 Yb5 2.961847 1_554
Au7 Yb6 2.999604 1_555
Au7 Yb17 3.039526 1_455
Au7 Yb2 3.086550 1_555
Au7 Yb7 3.087187 1_555
Au7 Yb19 3.199472 1_555
Au7 Yb18 3.230635 1_554
Au7 Yb10 3.712855 1_454
Au8 Yb14 2.991523 1_555
Au8 Yb9 3.064505 1_455
Au8 Yb11 3.081967 1_455
Au8 Yb10 3.081967 1_455
Au8 Yb5 3.084577 1_555
Au8 Yb3 3.084577 1_555
Au8 Yb12 3.280564 1_555
Au8 Yb18 3.280564 1_555
Au9 Yb7 2.991523 1_555
Au9 Yb16 3.064505 1_555
Au9 Yb8 3.081967 1_555
Au9 Yb2 3.081967 1_555
Au9 Yb6 3.084577 1_545
Au9 Yb4 3.084577 1_545
Au9 Yb0 3.280564 1_555
Au9 Yb19 3.280564 1_555
Au10 Yb7 3.005711 1_555
Au10 Yb6 3.012468 1_555
Au10 Yb4 3.012468 1_555
Au10 Yb17 3.037785 1_555
Au10 Yb1 3.037785 1_555
Au10 Yb16 3.190679 1_565
Au10 Yb8 3.273553 1_555
Au10 Yb2 3.273553 1_555
Au11 Au9 2.918293 1_565
Au11 Yb16 3.005711 1_465
Au11 Yb1 3.012468 1_455
Au11 Yb17 3.012468 1_455
Au11 Yb4 3.037785 1_555
Au11 Yb6 3.037785 1_555
Au11 Yb7 3.190679 1_555
Au11 Yb19 3.273553 1_565
Au11 Yb0 3.273553 1_565
Au12 Yb6 2.961847 1_546
Au12 Yb5 2.999604 1_555
Au12 Yb15 3.039526 1_555
Au12 Yb10 3.086550 1_445
Au12 Yb14 3.087187 1_545
Au12 Yb18 3.199472 1_545
Au12 Yb19 3.230635 1_556
Au12 Yb2 3.712855 1_556
Au13 Au2 2.918293 1_545
Au13 Yb14 3.005711 1_645
Au13 Yb5 3.012468 1_655
Au13 Yb3 3.012468 1_655
Au13 Yb13 3.037785 1_555
Au13 Yb15 3.037785 1_555
Au13 Yb9 3.190679 1_555
Au13 Yb10 3.273553 1_545
Au13 Yb11 3.273553 1_545
Au14 Yb13 2.961847 1_565
Au14 Yb1 2.999604 1_555
Au14 Yb4 3.039526 1_555
Au14 Yb0 3.086550 1_665
Au14 Yb16 3.087187 1_565
Au14 Yb8 3.199472 1_565
Au14 Yb11 3.230635 1_555
Au14 Yb12 3.712855 1_555
Au15 Yb4 2.961847 1_545
Au15 Yb3 2.999604 1_555
Au15 Yb13 3.039526 1_555
Au15 Yb11 3.086550 1_445
Au15 Yb14 3.087187 1_545
Au15 Yb12 3.199472 1_545
Au15 Yb0 3.230635 1_555
Au15 Yb8 3.712855 1_555
