# generated using pymatgen
data_Be(BC)2
_symmetry_space_group_name_H-M   'P 1'
_cell_length_a   4.70149600
_cell_length_b   5.43396800
_cell_length_c   6.13303400
_cell_angle_alpha   90.00000000
_cell_angle_beta   90.00000000
_cell_angle_gamma   90.00000000
_symmetry_Int_Tables_number   1
_chemical_formula_structural   Be(BC)2
_chemical_formula_sum   'Be4 B8 C8'
_cell_volume   156.68539610
_cell_formula_units_Z   4
loop_
 _symmetry_equiv_pos_site_id
 _symmetry_equiv_pos_as_xyz
  1  'x, y, z'
loop_
 _atom_site_type_symbol
 _atom_site_label
 _atom_site_symmetry_multiplicity
 _atom_site_fract_x
 _atom_site_fract_y
 _atom_site_fract_z
 _atom_site_occupancy
  Be  Be0  1  0.18362700  0.50000000  0.79668400  1
  Be  Be1  1  0.18362700  0.50000000  0.20331600  1
  Be  Be2  1  0.81637300  0.00000000  0.70331600  1
  Be  Be3  1  0.81637300  0.00000000  0.29668400  1
  B  B0  1  0.47856400  0.00000000  0.50000000  1
  B  B1  1  0.99177200  0.74833100  0.50000000  1
  B  B2  1  0.49928400  0.00000000  0.00000000  1
  B  B3  1  0.52143600  0.50000000  0.00000000  1
  B  B4  1  0.99177200  0.25166900  0.50000000  1
  B  B5  1  0.00822800  0.24833100  0.00000000  1
  B  B6  1  0.50071600  0.50000000  0.50000000  1
  B  B7  1  0.00822800  0.75166900  0.00000000  1
  C  C0  1  0.33982900  0.25682300  0.00000000  1
  C  C1  1  0.33982900  0.74317700  0.00000000  1
  C  C2  1  0.66017100  0.75682300  0.50000000  1
  C  C3  1  0.16600000  0.50000000  0.50000000  1
  C  C4  1  0.83400000  0.00000000  0.00000000  1
  C  C5  1  0.85533100  0.50000000  0.00000000  1
  C  C6  1  0.66017100  0.24317700  0.50000000  1
  C  C7  1  0.14466900  0.00000000  0.50000000  1
loop_
_geom_bond_atom_site_label_1
_geom_bond_atom_site_label_2
_geom_bond_distance
_geom_bond_site_symmetry_2
Be0 C3 1.821459 1_555
Be0 C1 1.959675 1_556
Be0 C0 1.959675 1_556
Be0 C5 1.984240 1_456
Be1 C3 1.821459 1_555
Be1 C0 1.959675 1_555
Be1 C1 1.959675 1_555
Be1 C5 1.984240 1_455
Be2 C4 1.821459 1_556
Be2 C2 1.959675 1_545
Be2 C6 1.959675 1_555
Be2 C7 1.984240 1_655
Be3 C4 1.821459 1_555
Be3 C6 1.959675 1_555
Be3 C2 1.959675 1_545
Be3 C7 1.984240 1_655
B0 C7 1.569806 1_555
B0 C2 1.573263 1_545
B0 C6 1.573263 1_555
B0 Be3 2.019226 1_555
B0 Be2 2.019226 1_555
B1 C7 1.544979 1_665
B1 C2 1.559704 1_555
B1 C3 1.578581 1_655
B2 C4 1.573666 1_555
B2 C1 1.584180 1_545
B2 C0 1.584180 1_555
B3 C5 1.569806 1_555
B3 C0 1.573263 1_555
B3 C1 1.573263 1_555
B3 Be0 2.019226 1_554
B3 Be1 2.019226 1_555
B4 C7 1.544979 1_655
B4 C6 1.559704 1_555
B4 C3 1.578581 1_655
B5 C5 1.544979 1_455
B5 C0 1.559704 1_555
B5 C4 1.578581 1_455
B6 C3 1.573666 1_555
B6 C2 1.584180 1_555
B6 C6 1.584180 1_555
B7 C5 1.544979 1_455
B7 C1 1.559704 1_555
B7 C4 1.578581 1_465
