# generated using pymatgen
data_SbICl8
_symmetry_space_group_name_H-M   'P 1'
_cell_length_a   7.13340617
_cell_length_b   7.13340617
_cell_length_c   24.26681464
_cell_angle_alpha   90.00000000
_cell_angle_beta   90.00000000
_cell_angle_gamma   90.00000000
_symmetry_Int_Tables_number   1
_chemical_formula_structural   SbICl8
_chemical_formula_sum   'Sb4 I4 Cl32'
_cell_volume   1234.82859805
_cell_formula_units_Z   4
loop_
 _symmetry_equiv_pos_site_id
 _symmetry_equiv_pos_as_xyz
  1  'x, y, z'
loop_
 _atom_site_type_symbol
 _atom_site_label
 _atom_site_symmetry_multiplicity
 _atom_site_fract_x
 _atom_site_fract_y
 _atom_site_fract_z
 _atom_site_occupancy
  Sb  Sb0  1  0.76718214  0.00322999  0.50131590  1
  Sb  Sb1  1  0.00322999  0.23281786  0.25131590  1
  Sb  Sb2  1  0.23281786  0.99677001  0.00131590  1
  Sb  Sb3  1  0.99677001  0.76718214  0.75131590  1
  I  I0  1  0.14287739  0.75995319  0.37153957  1
  I  I1  1  0.24004681  0.14287739  0.62153957  1
  I  I2  1  0.85712261  0.24004681  0.87153957  1
  I  I3  1  0.75995319  0.85712261  0.12153957  1
  Cl  Cl0  1  0.24062193  0.26343875  0.31771059  1
  Cl  Cl1  1  0.89683666  0.93423438  0.29460148  1
  Cl  Cl2  1  0.59933243  0.22391370  0.81188858  1
  Cl  Cl3  1  0.08248253  0.50933041  0.20420620  1
  Cl  Cl4  1  0.77608630  0.59933243  0.06188858  1
  Cl  Cl5  1  0.82133627  0.73305838  0.43644656  1
  Cl  Cl6  1  0.10316334  0.06576562  0.79460148  1
  Cl  Cl7  1  0.80875307  0.95015323  0.69260112  1
  Cl  Cl8  1  0.73305838  0.17866373  0.18644656  1
  Cl  Cl9  1  0.50933041  0.91751747  0.95420620  1
  Cl  Cl10  1  0.41338755  0.30533765  0.68800217  1
  Cl  Cl11  1  0.58661245  0.69466235  0.18800217  1
  Cl  Cl12  1  0.17866373  0.26694162  0.93644656  1
  Cl  Cl13  1  0.40066757  0.77608630  0.31188858  1
  Cl  Cl14  1  0.95015323  0.19124693  0.44260112  1
  Cl  Cl15  1  0.75937807  0.73656125  0.81771059  1
  Cl  Cl16  1  0.06576562  0.89683666  0.54460148  1
  Cl  Cl17  1  0.93423438  0.10316334  0.04460148  1
  Cl  Cl18  1  0.22019770  0.61025643  0.80618783  1
  Cl  Cl19  1  0.22391370  0.40066757  0.56188858  1
  Cl  Cl20  1  0.26694162  0.82133627  0.68644656  1
  Cl  Cl21  1  0.19124693  0.04984677  0.19260112  1
  Cl  Cl22  1  0.61025643  0.77980230  0.55618783  1
  Cl  Cl23  1  0.73656125  0.24062193  0.56771059  1
  Cl  Cl24  1  0.91751747  0.49066959  0.70420620  1
  Cl  Cl25  1  0.38974357  0.22019770  0.05618783  1
  Cl  Cl26  1  0.30533765  0.58661245  0.43800217  1
  Cl  Cl27  1  0.26343875  0.75937807  0.06771059  1
  Cl  Cl28  1  0.69466235  0.41338755  0.93800217  1
  Cl  Cl29  1  0.77980230  0.38974357  0.30618783  1
  Cl  Cl30  1  0.49066959  0.08248253  0.45420620  1
  Cl  Cl31  1  0.04984677  0.80875307  0.94260112  1
loop_
_geom_bond_atom_site_label_1
_geom_bond_atom_site_label_2
_geom_bond_distance
_geom_bond_site_symmetry_2
Cl0 Sb1 2.347613 1_555
Cl1 Sb1 2.493170 1_665
Cl1 I0 2.848130 1_655
Cl2 I2 2.343128 1_555
Cl3 Sb1 2.348869 1_555
Cl4 I3 2.343128 1_555
Cl5 Sb0 2.518237 1_565
Cl5 I0 2.789030 1_655
Cl6 Sb3 2.493170 1_445
Cl6 I2 2.848130 1_455
Cl7 Sb3 2.352127 1_555
Cl8 Sb1 2.518237 1_655
Cl8 I3 2.789030 1_545
Cl9 Sb2 2.348869 1_556
Cl10 I1 2.339494 1_555
Cl11 I3 2.339494 1_555
Cl12 Sb2 2.518237 1_546
Cl12 I2 2.789030 1_455
Cl13 I0 2.343128 1_555
Cl14 Sb0 2.352127 1_555
Cl15 Sb3 2.347613 1_555
Cl16 Sb0 2.493170 1_465
Cl16 I1 2.848130 1_565
Cl17 Sb2 2.493170 1_645
Cl17 I3 2.848130 1_545
Cl18 Sb3 2.359313 1_455
Cl19 I1 2.343128 1_555
Cl20 Sb3 2.518237 1_455
Cl20 I1 2.789030 1_565
Cl21 Sb1 2.352127 1_555
Cl22 Sb0 2.359313 1_565
Cl23 Sb0 2.347613 1_555
Cl24 Sb3 2.348869 1_555
Cl25 Sb2 2.359313 1_545
Cl26 I0 2.339494 1_555
Cl27 Sb2 2.347613 1_555
Cl28 I2 2.339494 1_555
Cl29 Sb1 2.359313 1_655
Cl30 Sb0 2.348869 1_555
Cl31 Sb2 2.352127 1_556
