# generated using pymatgen
data_MnS
_symmetry_space_group_name_H-M   'P 1'
_cell_length_a   3.09904000
_cell_length_b   3.09904000
_cell_length_c   3.09904000
_cell_angle_alpha   90.00000000
_cell_angle_beta   90.00000000
_cell_angle_gamma   90.00000000
_symmetry_Int_Tables_number   1
_chemical_formula_structural   MnS
_chemical_formula_sum   'Mn1 S1'
_cell_volume   29.76333177
_cell_formula_units_Z   1
loop_
 _symmetry_equiv_pos_site_id
 _symmetry_equiv_pos_as_xyz
  1  'x, y, z'
loop_
 _atom_site_type_symbol
 _atom_site_label
 _atom_site_symmetry_multiplicity
 _atom_site_fract_x
 _atom_site_fract_y
 _atom_site_fract_z
 _atom_site_occupancy
  Mn  Mn0  1  0.50000000  0.50000000  0.50000000  1
  S  S0  1  0.00000000  0.00000000  0.00000000  1
loop_
_geom_bond_atom_site_label_1
_geom_bond_atom_site_label_2
_geom_bond_distance
_geom_bond_site_symmetry_2
Mn0 S0 2.683847 1_566
Mn0 S0 2.683847 1_565
Mn0 S0 2.683847 1_666
Mn0 S0 2.683847 1_655
Mn0 S0 2.683847 1_656
Mn0 S0 2.683847 1_665
Mn0 S0 2.683847 1_555
Mn0 S0 2.683847 1_556
