# generated using pymatgen
data_ZnS
_symmetry_space_group_name_H-M   'P 1'
_cell_length_a   3.80712216
_cell_length_b   3.80712232
_cell_length_c   62.27760984
_cell_angle_alpha   90.00000000
_cell_angle_beta   90.00000000
_cell_angle_gamma   119.99998971
_symmetry_Int_Tables_number   1
_chemical_formula_structural   ZnS
_chemical_formula_sum   'Zn20 S20'
_cell_volume   781.72905965
_cell_formula_units_Z   20
loop_
 _symmetry_equiv_pos_site_id
 _symmetry_equiv_pos_as_xyz
  1  'x, y, z'
loop_
 _atom_site_type_symbol
 _atom_site_label
 _atom_site_symmetry_multiplicity
 _atom_site_fract_x
 _atom_site_fract_y
 _atom_site_fract_z
 _atom_site_occupancy
  Zn  Zn0  1  0.33333300  0.66666700  0.04998799  1
  Zn  Zn1  1  0.66666700  0.33333300  0.79997989  1
  Zn  Zn2  1  0.33333300  0.66666700  0.69993361  1
  Zn  Zn3  1  0.00000000  0.00000000  0.30001760  1
  Zn  Zn4  1  0.66666700  0.33333300  0.35003612  1
  Zn  Zn5  1  0.66666700  0.33333300  0.49998531  1
  Zn  Zn6  1  0.66666700  0.33333300  0.94994302  1
  Zn  Zn7  1  0.66666700  0.33333300  0.10008130  1
  Zn  Zn8  1  0.00000000  -0.00000000  0.64997453  1
  Zn  Zn9  1  0.33333300  0.66666700  0.55012389  1
  Zn  Zn10  1  0.66666700  0.33333300  0.60015053  1
  Zn  Zn11  1  0.00000000  0.00000000  -0.00000900  1
  Zn  Zn12  1  -0.00000000  0.00000000  0.45001670  1
  Zn  Zn13  1  0.33333300  0.66666700  0.40008502  1
  Zn  Zn14  1  0.00000000  -0.00000000  0.89997325  1
  Zn  Zn15  1  0.00000000  -0.00000000  0.15001982  1
  Zn  Zn16  1  0.33333300  0.66666700  0.85006633  1
  Zn  Zn17  1  0.33333300  0.66666700  0.19999610  1
  Zn  Zn18  1  0.00000000  -0.00000000  0.74998127  1
  Zn  Zn19  1  0.66666700  0.33333300  0.25005328  1
  S  S0  1  0.00000000  -0.00000000  0.33751368  1
  S  S1  1  0.66666700  0.33333300  0.83747888  1
  S  S2  1  0.00000000  -0.00000000  0.93738914  1
  S  S3  1  0.33333300  0.66666700  0.88750445  1
  S  S4  1  0.66666700  0.33333300  0.28747745  1
  S  S5  1  0.33333300  0.66666700  0.58762247  1
  S  S6  1  0.33333300  0.66666700  0.08748756  1
  S  S7  1  -0.00000000  0.00000000  0.03744551  1
  S  S8  1  0.00000000  -0.00000000  0.78743695  1
  S  S9  1  0.66666700  0.33333300  0.38750798  1
  S  S10  1  0.33333300  0.66666700  0.73744034  1
  S  S11  1  0.33333300  0.66666700  0.23748417  1
  S  S12  1  0.00000000  -0.00000000  0.48746460  1
  S  S13  1  0.66666700  0.33333300  0.98745040  1
  S  S14  1  0.66666700  0.33333300  0.53746684  1
  S  S15  1  0.66666700  0.33333300  0.63753641  1
  S  S16  1  0.66666700  0.33333300  0.13752628  1
  S  S17  1  -0.00000000  0.00000000  0.68737851  1
  S  S18  1  0.33333300  0.66666700  0.43752617  1
  S  S19  1  0.00000000  -0.00000000  0.18746865  1
loop_
_geom_bond_atom_site_label_1
_geom_bond_atom_site_label_2
_geom_bond_distance
_geom_bond_site_symmetry_2
S0 Zn4 2.332290 1_455
S0 Zn4 2.332293 1_555
S0 Zn4 2.332293 1_445
S0 Zn3 2.335166 1_555
S1 Zn16 2.333647 1_655
S1 Zn16 2.333647 1_545
S1 Zn16 2.333653 1_555
S1 Zn1 2.335347 1_555
S2 Zn14 2.330172 1_555
S2 Zn6 2.332945 1_455
S2 Zn6 2.332949 1_555
S2 Zn6 2.332949 1_445
S3 Zn14 2.331175 1_565
S3 Zn14 2.331178 1_665
S3 Zn14 2.331179 1_555
S3 Zn16 2.331557 1_555
S4 Zn19 2.330688 1_555
S4 Zn3 2.332659 1_655
S4 Zn3 2.332662 1_555
S4 Zn3 2.332662 1_665
S5 Zn10 2.332407 1_455
S5 Zn10 2.332407 1_565
S5 Zn10 2.332413 1_555
S5 Zn9 2.335322 1_555
S6 Zn7 2.333779 1_455
S6 Zn7 2.333779 1_565
S6 Zn7 2.333785 1_555
S6 Zn0 2.335384 1_555
S7 Zn11 2.332577 1_555
S7 Zn0 2.332708 1_545
S7 Zn0 2.332711 1_445
S7 Zn0 2.332711 1_555
S8 Zn18 2.332650 1_555
S8 Zn1 2.332717 1_455
S8 Zn1 2.332721 1_555
S8 Zn1 2.332721 1_445
S9 Zn13 2.333429 1_655
S9 Zn13 2.333430 1_545
S9 Zn13 2.333435 1_555
S9 Zn4 2.333658 1_555
S10 Zn18 2.332675 1_565
S10 Zn18 2.332679 1_665
S10 Zn18 2.332679 1_555
S10 Zn2 2.335829 1_555
S11 Zn19 2.333264 1_455
S11 Zn19 2.333264 1_565
S11 Zn19 2.333270 1_555
S11 Zn17 2.334667 1_555
S12 Zn12 2.332166 1_555
S12 Zn5 2.332254 1_455
S12 Zn5 2.332257 1_555
S12 Zn5 2.332257 1_445
S13 Zn11 2.332668 1_656
S13 Zn11 2.332672 1_556
S13 Zn11 2.332672 1_666
S13 Zn6 2.335870 1_555
S14 Zn5 2.334260 1_555
S14 Zn9 2.335107 1_655
S14 Zn9 2.335107 1_545
S14 Zn9 2.335113 1_555
S15 Zn10 2.328303 1_555
S15 Zn8 2.330539 1_655
S15 Zn8 2.330543 1_555
S15 Zn8 2.330543 1_665
S16 Zn15 2.331689 1_655
S16 Zn15 2.331692 1_555
S16 Zn15 2.331692 1_665
S16 Zn7 2.331984 1_555
S17 Zn8 2.329430 1_555
S17 Zn2 2.332971 1_545
S17 Zn2 2.332974 1_445
S17 Zn2 2.332974 1_555
S18 Zn12 2.331626 1_565
S18 Zn12 2.331630 1_665
S18 Zn12 2.331630 1_555
S18 Zn13 2.331745 1_555
S19 Zn15 2.332224 1_555
S19 Zn17 2.332394 1_545
S19 Zn17 2.332398 1_445
S19 Zn17 2.332398 1_555
