# generated using pymatgen
data_CsFeF4
_symmetry_space_group_name_H-M   'P 1'
_cell_length_a   7.81748221
_cell_length_b   7.81748221
_cell_length_c   6.48368270
_cell_angle_alpha   90.00000000
_cell_angle_beta   90.00000000
_cell_angle_gamma   90.00000000
_symmetry_Int_Tables_number   1
_chemical_formula_structural   CsFeF4
_chemical_formula_sum   'Cs4 Fe4 F16'
_cell_volume   396.23748306
_cell_formula_units_Z   4
loop_
 _symmetry_equiv_pos_site_id
 _symmetry_equiv_pos_as_xyz
  1  'x, y, z'
loop_
 _atom_site_type_symbol
 _atom_site_label
 _atom_site_symmetry_multiplicity
 _atom_site_fract_x
 _atom_site_fract_y
 _atom_site_fract_z
 _atom_site_occupancy
  Cs  Cs0  1  0.50000000  0.50000000  0.50000000  1
  Cs  Cs1  1  -0.00000000  -0.00000000  0.50000000  1
  Cs  Cs2  1  0.50000000  -0.00000000  0.44424490  1
  Cs  Cs3  1  -0.00000000  0.50000000  0.55575510  1
  Fe  Fe0  1  0.25000000  0.75000000  0.00000000  1
  Fe  Fe1  1  0.25000000  0.25000000  0.00000000  1
  Fe  Fe2  1  0.75000000  0.75000000  0.00000000  1
  Fe  Fe3  1  0.75000000  0.25000000  0.00000000  1
  F  F0  1  0.71967938  0.21967938  0.71548631  1
  F  F1  1  0.28032062  0.78032062  0.71548631  1
  F  F2  1  0.28032062  0.21967938  0.71548631  1
  F  F3  1  0.71967938  0.78032062  0.71548631  1
  F  F4  1  0.21967938  0.71967938  0.28451369  1
  F  F5  1  0.21967938  0.28032062  0.28451369  1
  F  F6  1  0.78032062  0.71967938  0.28451369  1
  F  F7  1  0.78032062  0.28032062  0.28451369  1
  F  F8  1  0.74672978  0.50000000  0.95073060  1
  F  F9  1  -0.00000000  0.75327022  0.95073060  1
  F  F10  1  -0.00000000  0.24672978  0.95073060  1
  F  F11  1  0.25327022  0.50000000  0.95073060  1
  F  F12  1  0.75327022  -0.00000000  0.04926940  1
  F  F13  1  0.24672978  -0.00000000  0.04926940  1
  F  F14  1  0.50000000  0.74672978  0.04926940  1
  F  F15  1  0.50000000  0.25327022  0.04926940  1
loop_
_geom_bond_atom_site_label_1
_geom_bond_atom_site_label_2
_geom_bond_distance
_geom_bond_site_symmetry_2
Cs0 F3 3.115046 1_555
Cs0 F6 3.115046 1_555
Cs0 F0 3.115046 1_555
Cs0 F7 3.115046 1_555
Cs0 F4 3.115046 1_555
Cs0 F1 3.115046 1_555
Cs0 F2 3.115046 1_555
Cs0 F5 3.115046 1_555
Cs0 F11 3.501525 1_555
Cs0 F14 3.501525 1_555
Cs0 F15 3.501525 1_555
Cs0 F8 3.501525 1_555
Cs1 F7 3.115046 1_455
Cs1 F3 3.115046 1_445
Cs1 F6 3.115046 1_445
Cs1 F1 3.115046 1_545
Cs1 F4 3.115046 1_545
Cs1 F2 3.115046 1_555
Cs1 F0 3.115046 1_455
Cs1 F5 3.115046 1_555
Cs1 F13 3.501525 1_555
Cs1 F9 3.501525 1_545
Cs1 F10 3.501525 1_555
Cs1 F12 3.501525 1_455
Cs2 F1 2.998556 1_545
Cs2 F3 2.998556 1_545
Cs2 F2 2.998556 1_555
Cs2 F0 2.998556 1_555
Cs2 F15 3.237025 1_555
Cs2 F12 3.237025 1_555
Cs2 F13 3.237025 1_555
Cs2 F14 3.237025 1_545
Cs2 F7 3.267575 1_555
Cs2 F6 3.267575 1_545
Cs2 F5 3.267575 1_555
Cs2 F4 3.267575 1_545
Cs3 F6 2.998556 1_455
Cs3 F7 2.998556 1_455
Cs3 F4 2.998556 1_555
Cs3 F5 2.998556 1_555
Cs3 F9 3.237025 1_555
Cs3 F10 3.237025 1_555
Cs3 F11 3.237025 1_555
Cs3 F8 3.237025 1_455
Cs3 F2 3.267575 1_555
Cs3 F0 3.267575 1_455
Cs3 F3 3.267575 1_455
Cs3 F1 3.267575 1_555
F0 Fe3 1.874906 1_556
F1 Fe0 1.874906 1_556
F2 Fe1 1.874906 1_556
F3 Fe2 1.874906 1_556
F4 Fe0 1.874906 1_555
F5 Fe1 1.874906 1_555
F6 Fe2 1.874906 1_555
F7 Fe3 1.874906 1_555
F8 Fe3 1.980471 1_556
F8 Fe2 1.980471 1_556
F9 Fe0 1.980471 1_556
F9 Fe2 1.980471 1_456
F10 Fe1 1.980471 1_556
F10 Fe3 1.980471 1_456
F11 Fe0 1.980471 1_556
F11 Fe1 1.980471 1_556
F12 Fe2 1.980471 1_545
F12 Fe3 1.980471 1_555
F13 Fe1 1.980471 1_555
F13 Fe0 1.980471 1_545
F14 Fe0 1.980471 1_555
F14 Fe2 1.980471 1_555
F15 Fe3 1.980471 1_555
F15 Fe1 1.980471 1_555
