# generated using pymatgen
data_Cs3Yb(SO4)3
_symmetry_space_group_name_H-M   'P 1'
_cell_length_a   10.06500549
_cell_length_b   10.06500549
_cell_length_c   10.06500563
_cell_angle_alpha   109.94241226
_cell_angle_beta   109.94241226
_cell_angle_gamma   109.94242121
_symmetry_Int_Tables_number   1
_chemical_formula_structural   Cs3Yb(SO4)3
_chemical_formula_sum   'Cs6 Yb2 S6 O24'
_cell_volume   770.91352929
_cell_formula_units_Z   2
loop_
 _symmetry_equiv_pos_site_id
 _symmetry_equiv_pos_as_xyz
  1  'x, y, z'
loop_
 _atom_site_type_symbol
 _atom_site_label
 _atom_site_symmetry_multiplicity
 _atom_site_fract_x
 _atom_site_fract_y
 _atom_site_fract_z
 _atom_site_occupancy
  Cs  Cs0  1  0.17948600  0.66189800  0.79686700  1
  Cs  Cs1  1  0.16189800  0.67948600  0.29686700  1
  Cs  Cs2  1  0.79686700  0.17948600  0.66189800  1
  Cs  Cs3  1  0.66189800  0.79686700  0.17948600  1
  Cs  Cs4  1  0.29686700  0.16189800  0.67948600  1
  Cs  Cs5  1  0.67948600  0.29686700  0.16189800  1
  Yb  Yb0  1  0.49147900  0.49147900  0.49147900  1
  Yb  Yb1  1  0.99147900  0.99147900  0.99147900  1
  S  S0  1  0.77599700  0.57156900  0.89472300  1
  S  S1  1  0.27599700  0.39472300  0.07156900  1
  S  S2  1  0.07156900  0.27599700  0.39472300  1
  S  S3  1  0.57156900  0.89472300  0.77599700  1
  S  S4  1  0.39472300  0.07156900  0.27599700  1
  S  S5  1  0.89472300  0.77599700  0.57156900  1
  O  O0  1  0.50205700  0.98793900  0.72063300  1
  O  O1  1  0.00205700  0.22063300  0.48793900  1
  O  O2  1  0.98077600  0.83960600  0.75240100  1
  O  O3  1  0.72063300  0.50205700  0.98793900  1
  O  O4  1  0.48793900  0.00205700  0.22063300  1
  O  O5  1  0.40822700  0.38611400  0.04096500  1
  O  O6  1  0.22422500  0.98788000  0.13315700  1
  O  O7  1  0.90822700  0.54096500  0.88611400  1
  O  O8  1  0.63315700  0.48788000  0.72422500  1
  O  O9  1  0.98788000  0.13315700  0.22422500  1
  O  O10  1  0.25240100  0.33960600  0.48077600  1
  O  O11  1  0.54096500  0.88611400  0.90822700  1
  O  O12  1  0.48788000  0.72422500  0.63315700  1
  O  O13  1  0.98793900  0.72063300  0.50205700  1
  O  O14  1  0.22063300  0.48793900  0.00205700  1
  O  O15  1  0.88611400  0.90822700  0.54096500  1
  O  O16  1  0.04096500  0.40822700  0.38611400  1
  O  O17  1  0.13315700  0.22422500  0.98788000  1
  O  O18  1  0.48077600  0.25240100  0.33960600  1
  O  O19  1  0.33960600  0.48077600  0.25240100  1
  O  O20  1  0.72422500  0.63315700  0.48788000  1
  O  O21  1  0.75240100  0.98077600  0.83960600  1
  O  O22  1  0.83960600  0.75240100  0.98077600  1
  O  O23  1  0.38611400  0.04096500  0.40822700  1
loop_
_geom_bond_atom_site_label_1
_geom_bond_atom_site_label_2
_geom_bond_distance
_geom_bond_site_symmetry_2
Cs0 O11 3.078659 1_555
Cs0 O2 3.126547 1_455
Cs0 O14 3.143285 1_556
Cs0 O7 3.145543 1_455
Cs0 O13 3.307980 1_455
Cs0 O16 3.463220 1_555
Cs0 O6 3.577888 1_556
Cs0 O4 3.647920 1_566
Cs0 O1 3.736866 1_555
Cs1 O23 3.078659 1_565
Cs1 O19 3.126547 1_555
Cs1 O13 3.143285 1_455
Cs1 O16 3.145543 1_555
Cs1 O14 3.307980 1_555
Cs1 O7 3.463220 1_454
Cs1 O12 3.577888 1_555
Cs1 O0 3.647920 1_555
Cs1 O3 3.736866 1_454
Cs2 O7 3.078659 1_555
Cs2 O21 3.126547 1_545
Cs2 O1 3.143285 1_655
Cs2 O15 3.145544 1_545
Cs2 O0 3.307980 1_545
Cs2 O23 3.463220 1_555
Cs2 O17 3.577888 1_655
Cs2 O14 3.647919 1_656
Cs2 O4 3.736866 1_555
Cs3 O15 3.078659 1_555
Cs3 O22 3.126547 1_554
Cs3 O4 3.143285 1_565
Cs3 O11 3.145544 1_554
Cs3 O3 3.307980 1_554
Cs3 O5 3.463220 1_555
Cs3 O9 3.577888 1_565
Cs3 O1 3.647919 1_665
Cs3 O14 3.736866 1_555
Cs4 O5 3.078659 1_556
Cs4 O10 3.126547 1_555
Cs4 O0 3.143285 1_545
Cs4 O23 3.145544 1_555
Cs4 O1 3.307980 1_555
Cs4 O15 3.463220 1_445
Cs4 O8 3.577888 1_555
Cs4 O3 3.647919 1_555
Cs4 O13 3.736866 1_445
Cs5 O16 3.078659 1_655
Cs5 O18 3.126547 1_555
Cs5 O3 3.143285 1_554
Cs5 O5 3.145544 1_555
Cs5 O4 3.307980 1_555
Cs5 O11 3.463220 1_544
Cs5 O20 3.577888 1_555
Cs5 O13 3.647919 1_555
Cs5 O0 3.736866 1_544
O0 S3 1.489540 1_555
O1 S2 1.489540 1_555
O2 S5 1.491388 1_555
O2 Yb1 2.310907 1_555
O3 S0 1.489540 1_555
O4 S4 1.489540 1_555
O5 S1 1.487879 1_555
O6 S4 1.492054 1_565
O6 Yb1 2.310168 1_454
O7 S0 1.487879 1_555
O8 S0 1.492054 1_555
O8 Yb0 2.310168 1_555
O9 S2 1.492054 1_655
O9 Yb1 2.310168 1_544
O10 S2 1.491388 1_555
O10 Yb0 2.310907 1_555
O11 S3 1.487879 1_555
O12 S3 1.492054 1_555
O12 Yb0 2.310168 1_555
O13 S5 1.489540 1_555
O14 S1 1.489540 1_555
O15 S5 1.487879 1_555
O16 S2 1.487879 1_555
O17 S1 1.492054 1_556
O17 Yb1 2.310168 1_445
O18 S4 1.491388 1_555
O18 Yb0 2.310907 1_555
O19 S1 1.491388 1_555
O19 Yb0 2.310907 1_555
O20 S5 1.492054 1_555
O20 Yb0 2.310168 1_555
O21 S3 1.491388 1_555
O21 Yb1 2.310907 1_555
O22 S0 1.491388 1_555
O22 Yb1 2.310907 1_555
O23 S4 1.487879 1_555
