# generated using pymatgen
data_NaZr2AgF11
_symmetry_space_group_name_H-M   'P 1'
_cell_length_a   5.81095132
_cell_length_b   5.97303517
_cell_length_c   7.98243363
_cell_angle_alpha   111.71505673
_cell_angle_beta   95.91647668
_cell_angle_gamma   105.88261486
_symmetry_Int_Tables_number   1
_chemical_formula_structural   NaZr2AgF11
_chemical_formula_sum   'Na1 Zr2 Ag1 F11'
_cell_volume   241.01458685
_cell_formula_units_Z   1
loop_
 _symmetry_equiv_pos_site_id
 _symmetry_equiv_pos_as_xyz
  1  'x, y, z'
loop_
 _atom_site_type_symbol
 _atom_site_label
 _atom_site_symmetry_multiplicity
 _atom_site_fract_x
 _atom_site_fract_y
 _atom_site_fract_z
 _atom_site_occupancy
  Na  Na0  1  0.00000000  0.00000000  0.00000000  1
  Zr  Zr0  1  0.50617200  0.73723900  0.23023200  1
  Zr  Zr1  1  0.49382800  0.26276100  0.76976800  1
  Ag  Ag0  1  0.00000000  0.50000000  0.50000000  1
  F  F0  1  0.25895300  0.84060400  0.11390800  1
  F  F1  1  0.34038500  0.34549000  0.01519200  1
  F  F2  1  0.65961500  0.65451000  0.98480800  1
  F  F3  1  0.77338800  0.48408500  0.68532500  1
  F  F4  1  0.79258300  0.05361100  0.27636800  1
  F  F5  1  0.20741700  0.94638900  0.72363200  1
  F  F6  1  0.74104700  0.15939600  0.88609200  1
  F  F7  1  0.22661200  0.51591500  0.31467500  1
  F  F8  1  0.74069400  0.60613000  0.34718600  1
  F  F9  1  0.25930600  0.39387000  0.65281400  1
  F  F10  1  0.50000000  0.00000000  0.50000000  1
loop_
_geom_bond_atom_site_label_1
_geom_bond_atom_site_label_2
_geom_bond_distance
_geom_bond_site_symmetry_2
Ag0 F7 2.090142 1_555
Ag0 F3 2.090142 1_455
Ag0 F9 2.208260 1_555
Ag0 F8 2.208260 1_455
Ag0 F5 2.454374 1_555
Ag0 F4 2.454374 1_455
F0 Zr0 1.985403 1_555
F0 Na0 2.267199 1_565
F1 Zr1 2.182232 1_554
F1 Zr0 2.191563 1_555
F1 Na0 2.390994 1_555
F2 Zr0 2.182232 1_556
F2 Zr1 2.191563 1_555
F2 Na0 2.390994 1_666
F3 Zr1 2.133240 1_555
F4 Zr0 2.028255 1_545
F4 Na0 2.580458 1_655
F5 Zr1 2.028255 1_565
F5 Na0 2.580458 1_566
F6 Zr1 1.985403 1_555
F6 Na0 2.267199 1_656
F7 Zr0 2.133240 1_555
F8 Zr0 2.050585 1_555
F9 Zr1 2.050585 1_555
F10 Zr1 2.155807 1_555
F10 Zr0 2.155807 1_545
