# generated using pymatgen
data_Cs2As4Pd3O14
_symmetry_space_group_name_H-M   'P 1'
_cell_length_a   16.56039600
_cell_length_b   16.56039600
_cell_length_c   6.17352000
_cell_angle_alpha   90.00000000
_cell_angle_beta   90.00000000
_cell_angle_gamma   90.00000000
_symmetry_Int_Tables_number   1
_chemical_formula_structural   Cs2As4Pd3O14
_chemical_formula_sum   'Cs8 As16 Pd12 O56'
_cell_volume   1693.06758417
_cell_formula_units_Z   4
loop_
 _symmetry_equiv_pos_site_id
 _symmetry_equiv_pos_as_xyz
  1  'x, y, z'
loop_
 _atom_site_type_symbol
 _atom_site_label
 _atom_site_symmetry_multiplicity
 _atom_site_fract_x
 _atom_site_fract_y
 _atom_site_fract_z
 _atom_site_occupancy
  Cs  Cs0  1  0.91846300  0.76262300  0.47249600  1
  Cs  Cs1  1  0.26262300  0.58153700  0.47249600  1
  Cs  Cs2  1  0.58153700  0.73737700  0.52750400  1
  Cs  Cs3  1  0.73737700  0.41846300  0.47249600  1
  Cs  Cs4  1  0.23737700  0.91846300  0.52750400  1
  Cs  Cs5  1  0.41846300  0.26262300  0.52750400  1
  Cs  Cs6  1  0.76262300  0.08153700  0.52750400  1
  Cs  Cs7  1  0.08153700  0.23737700  0.47249600  1
  As  As0  1  0.08201800  0.65148000  0.92019100  1
  As  As1  1  0.65711900  0.57165400  0.00262900  1
  As  As2  1  0.15711900  0.07165400  0.99737100  1
  As  As3  1  0.15148000  0.41798200  0.92019100  1
  As  As4  1  0.42834600  0.65711900  0.99737100  1
  As  As5  1  0.91798200  0.34852000  0.92019100  1
  As  As6  1  0.57165400  0.34288100  0.99737100  1
  As  As7  1  0.34852000  0.08201800  0.07980900  1
  As  As8  1  0.92834600  0.15711900  0.00262900  1
  As  As9  1  0.84288100  0.92834600  0.99737100  1
  As  As10  1  0.58201800  0.15148000  0.07980900  1
  As  As11  1  0.41798200  0.84852000  0.07980900  1
  As  As12  1  0.07165400  0.84288100  0.00262900  1
  As  As13  1  0.65148000  0.91798200  0.07980900  1
  As  As14  1  0.34288100  0.42834600  0.00262900  1
  As  As15  1  0.84852000  0.58201800  0.92019100  1
  Pd  Pd0  1  0.50000000  0.00000000  0.30563500  1
  Pd  Pd1  1  0.50000000  0.00000000  0.84847400  1
  Pd  Pd2  1  0.50000000  0.50000000  0.76410800  1
  Pd  Pd3  1  0.00000000  0.50000000  0.69436500  1
  Pd  Pd4  1  0.75000000  0.75000000  0.00000000  1
  Pd  Pd5  1  0.00000000  0.50000000  0.15152600  1
  Pd  Pd6  1  0.00000000  0.00000000  0.76410800  1
  Pd  Pd7  1  0.50000000  0.50000000  0.23589200  1
  Pd  Pd8  1  0.25000000  0.25000000  0.00000000  1
  Pd  Pd9  1  0.75000000  0.25000000  0.00000000  1
  Pd  Pd10  1  0.25000000  0.75000000  0.00000000  1
  Pd  Pd11  1  0.00000000  0.00000000  0.23589200  1
  O  O0  1  0.41106800  0.91216200  0.86008600  1
  O  O1  1  0.96564100  0.25859900  0.02650900  1
  O  O2  1  0.11855800  0.03322000  0.75999800  1
  O  O3  1  0.65308500  0.67546900  0.00448200  1
  O  O4  1  0.17264600  0.68409500  0.81516800  1
  O  O5  1  0.82453100  0.15308500  0.00448200  1
  O  O6  1  0.96695300  0.12040400  0.76317900  1
  O  O7  1  0.15308500  0.17546900  0.99551800  1
  O  O8  1  0.03435900  0.74140100  0.02650900  1
  O  O9  1  0.37959600  0.46695300  0.76317900  1
  O  O10  1  0.68409500  0.82735400  0.18483200  1
  O  O11  1  0.96678000  0.11855800  0.24000200  1
  O  O12  1  0.24140100  0.46564100  0.02650900  1
  O  O13  1  0.61855800  0.53322000  0.24000200  1
  O  O14  1  0.12247900  0.47879700  0.70724000  1
  O  O15  1  0.58783800  0.91106800  0.86008600  1
  O  O16  1  0.62247900  0.97879700  0.29276000  1
  O  O17  1  0.88144200  0.96678000  0.75999800  1
  O  O18  1  0.74140100  0.96564100  0.97349100  1
  O  O19  1  0.03322000  0.88144200  0.24000200  1
  O  O20  1  0.41216200  0.08893200  0.86008600  1
  O  O21  1  0.12040400  0.03304700  0.23682100  1
  O  O22  1  0.46678000  0.61855800  0.75999800  1
  O  O23  1  0.46564100  0.75859900  0.97349100  1
  O  O24  1  0.87959600  0.96695300  0.23682100  1
  O  O25  1  0.52120300  0.12247900  0.29276000  1
  O  O26  1  0.97879700  0.37752100  0.70724000  1
  O  O27  1  0.32735400  0.81590500  0.18483200  1
  O  O28  1  0.25859900  0.03435900  0.97349100  1
  O  O29  1  0.17546900  0.84691500  0.00448200  1
  O  O30  1  0.91106800  0.41216200  0.13991400  1
  O  O31  1  0.03304700  0.87959600  0.76317900  1
  O  O32  1  0.08783800  0.41106800  0.13991400  1
  O  O33  1  0.58893200  0.08783800  0.86008600  1
  O  O34  1  0.62040400  0.53304700  0.76317900  1
  O  O35  1  0.53435900  0.24140100  0.97349100  1
  O  O36  1  0.81590500  0.67264600  0.81516800  1
  O  O37  1  0.32453100  0.65308500  0.99551800  1
  O  O38  1  0.34691500  0.32453100  0.00448200  1
  O  O39  1  0.67264600  0.18409500  0.18483200  1
  O  O40  1  0.75859900  0.53435900  0.02650900  1
  O  O41  1  0.38144200  0.46678000  0.24000200  1
  O  O42  1  0.02120300  0.62247900  0.70724000  1
  O  O43  1  0.08893200  0.58783800  0.13991400  1
  O  O44  1  0.53322000  0.38144200  0.75999800  1
  O  O45  1  0.37752100  0.02120300  0.29276000  1
  O  O46  1  0.91216200  0.58893200  0.13991400  1
  O  O47  1  0.31590500  0.17264600  0.18483200  1
  O  O48  1  0.18409500  0.32735400  0.81516800  1
  O  O49  1  0.53304700  0.37959600  0.23682100  1
  O  O50  1  0.67546900  0.34691500  0.99551800  1
  O  O51  1  0.87752100  0.52120300  0.70724000  1
  O  O52  1  0.46695300  0.62040400  0.23682100  1
  O  O53  1  0.47879700  0.87752100  0.29276000  1
  O  O54  1  0.84691500  0.82453100  0.99551800  1
  O  O55  1  0.82735400  0.31590500  0.81516800  1
loop_
_geom_bond_atom_site_label_1
_geom_bond_atom_site_label_2
_geom_bond_distance
_geom_bond_site_symmetry_2
Cs0 O19 3.089257 1_655
Cs0 O36 3.095180 1_555
Cs0 O42 3.222000 1_655
Cs0 O31 3.251694 1_655
Cs0 O54 3.335542 1_554
Cs0 O8 3.374593 1_655
Cs0 O46 3.535556 1_555
Cs0 O54 3.588968 1_555
Cs1 O41 3.089257 1_555
Cs1 O4 3.095180 1_555
Cs1 O14 3.222000 1_555
Cs1 O9 3.251694 1_555
Cs1 O37 3.335542 1_554
Cs1 O12 3.374593 1_555
Cs1 O43 3.535556 1_555
Cs1 O37 3.588968 1_555
Cs2 O22 3.089257 1_555
Cs2 O10 3.095180 1_555
Cs2 O53 3.222000 1_555
Cs2 O52 3.251694 1_555
Cs2 O3 3.335542 1_556
Cs2 O23 3.374593 1_555
Cs2 O15 3.535556 1_555
Cs2 O3 3.588968 1_555
Cs3 O13 3.089257 1_555
Cs3 O55 3.095180 1_555
Cs3 O51 3.222000 1_555
Cs3 O34 3.251694 1_555
Cs3 O50 3.335542 1_554
Cs3 O40 3.374593 1_555
Cs3 O30 3.535556 1_555
Cs3 O50 3.588968 1_555
Cs4 O2 3.089257 1_565
Cs4 O27 3.095180 1_555
Cs4 O45 3.222000 1_565
Cs4 O21 3.251694 1_565
Cs4 O29 3.335542 1_556
Cs4 O28 3.374593 1_565
Cs4 O0 3.535556 1_555
Cs4 O29 3.588968 1_555
Cs5 O44 3.089257 1_555
Cs5 O47 3.095180 1_555
Cs5 O25 3.222000 1_555
Cs5 O49 3.251694 1_555
Cs5 O38 3.335542 1_556
Cs5 O35 3.374593 1_555
Cs5 O20 3.535556 1_555
Cs5 O38 3.588968 1_555
Cs6 O17 3.089257 1_545
Cs6 O39 3.095180 1_555
Cs6 O16 3.222000 1_545
Cs6 O24 3.251694 1_545
Cs6 O5 3.335542 1_556
Cs6 O18 3.374593 1_545
Cs6 O33 3.535556 1_555
Cs6 O5 3.588968 1_555
Cs7 O11 3.089257 1_455
Cs7 O48 3.095180 1_555
Cs7 O26 3.222000 1_455
Cs7 O6 3.251694 1_455
Cs7 O7 3.335542 1_554
Cs7 O1 3.374593 1_455
Cs7 O32 3.535556 1_555
Cs7 O7 3.588968 1_555
As0 O43 1.721595 1_556
As0 O4 1.721803 1_555
As0 O42 1.724318 1_555
As0 O8 1.808652 1_556
As1 O3 1.720553 1_555
As1 O13 1.720575 1_555
As1 O34 1.721531 1_554
As1 O40 1.796506 1_555
As2 O7 1.720553 1_555
As2 O2 1.720575 1_555
As2 O21 1.721531 1_556
As2 O28 1.796506 1_555
As3 O32 1.721595 1_556
As3 O48 1.721803 1_555
As3 O14 1.724318 1_555
As3 O12 1.808652 1_556
As4 O37 1.720553 1_555
As4 O22 1.720575 1_555
As4 O52 1.721531 1_556
As4 O23 1.796506 1_555
As5 O30 1.721595 1_556
As5 O55 1.721803 1_555
As5 O26 1.724318 1_555
As5 O1 1.808652 1_556
As6 O50 1.720553 1_555
As6 O44 1.720575 1_555
As6 O49 1.721531 1_556
As6 O35 1.796506 1_555
As7 O20 1.721595 1_554
As7 O47 1.721803 1_555
As7 O45 1.724318 1_555
As7 O28 1.808652 1_554
As8 O5 1.720553 1_555
As8 O11 1.720575 1_555
As8 O6 1.721531 1_554
As8 O1 1.796506 1_555
As9 O54 1.720553 1_555
As9 O17 1.720575 1_555
As9 O24 1.721531 1_556
As9 O18 1.796506 1_555
As10 O33 1.721595 1_554
As10 O39 1.721803 1_555
As10 O25 1.724318 1_555
As10 O35 1.808652 1_554
As11 O0 1.721595 1_554
As11 O27 1.721803 1_555
As11 O53 1.724318 1_555
As11 O23 1.808652 1_554
As12 O29 1.720553 1_555
As12 O19 1.720575 1_555
As12 O31 1.721531 1_554
As12 O8 1.796506 1_555
As13 O15 1.721595 1_554
As13 O10 1.721803 1_555
As13 O16 1.724318 1_555
As13 O18 1.808652 1_554
As14 O38 1.720553 1_555
As14 O41 1.720575 1_555
As14 O9 1.721531 1_554
As14 O12 1.796506 1_555
As15 O46 1.721595 1_556
As15 O36 1.721803 1_555
As15 O51 1.724318 1_555
As15 O40 1.808652 1_556
O0 Pd1 2.071252 1_565
O2 Pd6 2.039143 1_555
O3 Pd4 2.024855 1_555
O4 Pd10 2.033274 1_556
O5 Pd9 2.024855 1_555
O6 Pd6 2.067686 1_655
O7 Pd8 2.024855 1_556
O9 Pd2 2.067686 1_555
O10 Pd4 2.033274 1_555
O11 Pd11 2.039143 1_655
O13 Pd7 2.039143 1_555
O14 Pd3 2.060003 1_555
O15 Pd1 2.071252 1_565
O16 Pd0 2.060003 1_565
O17 Pd6 2.039143 1_665
O19 Pd11 2.039143 1_565
O20 Pd1 2.071252 1_555
O21 Pd11 2.067686 1_555
O22 Pd2 2.039143 1_555
O24 Pd11 2.067686 1_665
O25 Pd0 2.060003 1_555
O26 Pd3 2.060003 1_655
O27 Pd10 2.033274 1_555
O29 Pd10 2.024855 1_555
O30 Pd5 2.071252 1_655
O31 Pd6 2.067686 1_565
O32 Pd5 2.071252 1_555
O33 Pd1 2.071252 1_555
O34 Pd2 2.067686 1_555
O36 Pd4 2.033274 1_556
O37 Pd10 2.024855 1_556
O38 Pd8 2.024855 1_555
O39 Pd9 2.033274 1_555
O41 Pd7 2.039143 1_555
O42 Pd3 2.060003 1_555
O43 Pd5 2.071252 1_555
O44 Pd2 2.039143 1_555
O45 Pd0 2.060003 1_555
O46 Pd5 2.071252 1_655
O47 Pd8 2.033274 1_555
O48 Pd8 2.033274 1_556
O49 Pd7 2.067686 1_555
O50 Pd9 2.024855 1_556
O51 Pd3 2.060003 1_655
O52 Pd7 2.067686 1_555
O53 Pd0 2.060003 1_565
O54 Pd4 2.024855 1_556
O55 Pd9 2.033274 1_556
