# generated using pymatgen
data_KNaCu(Si2O5)2
_symmetry_space_group_name_H-M   'P 1'
_cell_length_a   7.03998900
_cell_length_b   8.16052432
_cell_length_c   9.91563162
_cell_angle_alpha   105.85245243
_cell_angle_beta   99.58063512
_cell_angle_gamma   113.68587975
_symmetry_Int_Tables_number   1
_chemical_formula_structural   KNaCu(Si2O5)2
_chemical_formula_sum   'K2 Na2 Cu2 Si8 O20'
_cell_volume   476.52902816
_cell_formula_units_Z   2
loop_
 _symmetry_equiv_pos_site_id
 _symmetry_equiv_pos_as_xyz
  1  'x, y, z'
loop_
 _atom_site_type_symbol
 _atom_site_label
 _atom_site_symmetry_multiplicity
 _atom_site_fract_x
 _atom_site_fract_y
 _atom_site_fract_z
 _atom_site_occupancy
  K  K0  1  0.16681500  0.79819400  0.49618800  1
  K  K1  1  0.83318500  0.20180600  0.50381200  1
  Na  Na0  1  0.16378800  0.12380100  0.90893400  1
  Na  Na1  1  0.83621200  0.87619900  0.09106600  1
  Cu  Cu0  1  0.33225400  0.86311000  0.08703700  1
  Cu  Cu1  1  0.66774600  0.13689000  0.91296300  1
  Si  Si0  1  0.31247400  0.17297700  0.35695100  1
  Si  Si1  1  0.68752600  0.82702300  0.64304900  1
  Si  Si2  1  0.34382600  0.61663300  0.77614000  1
  Si  Si3  1  0.65617400  0.38336700  0.22386000  1
  Si  Si4  1  0.46096000  0.28979000  0.71025200  1
  Si  Si5  1  0.53904000  0.71021000  0.28974800  1
  Si  Si6  1  0.06596600  0.35340700  0.22159200  1
  Si  Si7  1  0.93403400  0.64659300  0.77840800  1
  O  O0  1  0.46619600  0.78613900  0.93582200  1
  O  O1  1  0.53380400  0.21386100  0.06417800  1
  O  O2  1  0.35907100  0.18444300  0.52829800  1
  O  O3  1  0.64092900  0.81555700  0.47170200  1
  O  O4  1  0.45602400  0.67148800  0.65040400  1
  O  O5  1  0.54397600  0.32851200  0.34959600  1
  O  O6  1  0.05310800  0.80186000  0.94440000  1
  O  O7  1  0.94689200  0.19814000  0.05560000  1
  O  O8  1  0.21604900  0.95448800  0.24559700  1
  O  O9  1  0.78395100  0.04551200  0.75440300  1
  O  O10  1  0.08900300  0.56732900  0.70503700  1
  O  O11  1  0.91099700  0.43267100  0.29496300  1
  O  O12  1  0.58004600  0.88133800  0.22994400  1
  O  O13  1  0.41995400  0.11866200  0.77005600  1
  O  O14  1  0.67321300  0.59408100  0.23079000  1
  O  O15  1  0.32678700  0.40591900  0.76921000  1
  O  O16  1  0.28212200  0.55101000  0.24382000  1
  O  O17  1  0.71787800  0.44899000  0.75618000  1
  O  O18  1  0.86677100  0.74623000  0.66654700  1
  O  O19  1  0.13322900  0.25377000  0.33345300  1
loop_
_geom_bond_atom_site_label_1
_geom_bond_atom_site_label_2
_geom_bond_distance
_geom_bond_site_symmetry_2
K0 O11 2.712613 1_455
K0 O2 2.783704 1_565
K0 O13 2.855559 1_565
K0 O18 2.890418 1_455
K0 O4 3.011929 1_555
K0 O8 3.095779 1_555
K0 O10 3.133345 1_555
K0 O16 3.197483 1_555
K0 O3 3.335899 1_555
K0 O14 3.418459 1_455
K1 O10 2.712613 1_655
K1 O3 2.783704 1_545
K1 O12 2.855559 1_545
K1 O19 2.890418 1_655
K1 O5 3.011929 1_555
K1 O9 3.095779 1_555
K1 O11 3.133345 1_555
K1 O17 3.197483 1_555
K1 O2 3.335899 1_555
K1 O15 3.418459 1_655
Na0 O7 2.411631 1_456
Na0 O13 2.450755 1_555
Na0 O1 2.490839 1_556
Na0 O6 2.565982 1_545
Na0 O9 2.575898 1_455
Na0 O15 2.947156 1_555
Na0 O18 2.957601 1_445
Na1 O6 2.411631 1_654
Na1 O12 2.450755 1_555
Na1 O0 2.490839 1_554
Na1 O7 2.565982 1_565
Na1 O8 2.575898 1_655
Na1 O14 2.947156 1_555
Na1 O19 2.957601 1_665
Cu0 O12 1.981591 1_555
Cu0 O0 1.990941 1_554
Cu0 O8 1.993732 1_555
Cu0 O6 2.002881 1_554
Cu1 O13 1.981591 1_555
Cu1 O1 1.990941 1_556
Cu1 O9 1.993732 1_555
Cu1 O7 2.002881 1_556
O0 Si2 1.598290 1_555
O1 Si3 1.598290 1_555
O2 Si0 1.644985 1_555
O2 Si4 1.653808 1_555
O3 Si1 1.644985 1_555
O3 Si5 1.653808 1_555
O4 Si1 1.643352 1_555
O4 Si2 1.651453 1_555
O5 Si0 1.643352 1_555
O5 Si3 1.651453 1_555
O6 Si7 1.601624 1_455
O7 Si6 1.601624 1_655
O8 Si0 1.600472 1_565
O9 Si1 1.600472 1_545
O10 Si7 1.646818 1_455
O10 Si2 1.649639 1_555
O11 Si6 1.646818 1_655
O11 Si3 1.649639 1_555
O12 Si5 1.603332 1_555
O13 Si4 1.603332 1_555
O14 Si5 1.653003 1_555
O14 Si3 1.656170 1_555
O15 Si4 1.653003 1_555
O15 Si2 1.656170 1_555
O16 Si5 1.637457 1_555
O16 Si6 1.639268 1_555
O17 Si4 1.637457 1_555
O17 Si7 1.639268 1_555
O18 Si1 1.654035 1_555
O18 Si7 1.656148 1_555
O19 Si0 1.654035 1_555
O19 Si6 1.656148 1_555
