# generated using pymatgen
data_Ag2NClO3
_symmetry_space_group_name_H-M   'P 1'
_cell_length_a   5.15050800
_cell_length_b   6.66386100
_cell_length_c   12.95491700
_cell_angle_alpha   90.00000000
_cell_angle_beta   90.00000000
_cell_angle_gamma   90.00000000
_symmetry_Int_Tables_number   1
_chemical_formula_structural   Ag2NClO3
_chemical_formula_sum   'Ag8 N4 Cl4 O12'
_cell_volume   444.64215122
_cell_formula_units_Z   4
loop_
 _symmetry_equiv_pos_site_id
 _symmetry_equiv_pos_as_xyz
  1  'x, y, z'
loop_
 _atom_site_type_symbol
 _atom_site_label
 _atom_site_symmetry_multiplicity
 _atom_site_fract_x
 _atom_site_fract_y
 _atom_site_fract_z
 _atom_site_occupancy
  Ag  Ag0  1  0.25000000  0.76332800  0.53246800  1
  Ag  Ag1  1  0.75000000  0.23667200  0.46753200  1
  Ag  Ag2  1  0.25000000  0.35373400  0.24816300  1
  Ag  Ag3  1  0.75000000  0.73667200  0.03246800  1
  Ag  Ag4  1  0.75000000  0.14626600  0.74816300  1
  Ag  Ag5  1  0.25000000  0.85373400  0.25183700  1
  Ag  Ag6  1  0.25000000  0.26332800  0.96753200  1
  Ag  Ag7  1  0.75000000  0.64626600  0.75183700  1
  N  N0  1  0.75000000  0.14223500  0.14700200  1
  N  N1  1  0.25000000  0.85776500  0.85299800  1
  N  N2  1  0.75000000  0.64223500  0.35299800  1
  N  N3  1  0.25000000  0.35776500  0.64700200  1
  Cl  Cl0  1  0.75000000  0.39648100  0.90854500  1
  Cl  Cl1  1  0.75000000  0.89648100  0.59145500  1
  Cl  Cl2  1  0.25000000  0.10351900  0.40854500  1
  Cl  Cl3  1  0.25000000  0.60351900  0.09145500  1
  O  O0  1  0.75000000  0.79091200  0.29218700  1
  O  O1  1  0.46319100  0.93404300  0.88365200  1
  O  O2  1  0.03680900  0.43404300  0.61634800  1
  O  O3  1  0.25000000  0.70908800  0.79218700  1
  O  O4  1  0.53680900  0.56595700  0.38365200  1
  O  O5  1  0.96319100  0.06595700  0.11634800  1
  O  O6  1  0.03680900  0.93404300  0.88365200  1
  O  O7  1  0.25000000  0.20908800  0.70781300  1
  O  O8  1  0.53680900  0.06595700  0.11634800  1
  O  O9  1  0.46319100  0.43404300  0.61634800  1
  O  O10  1  0.75000000  0.29091200  0.20781300  1
  O  O11  1  0.96319100  0.56595700  0.38365200  1
loop_
_geom_bond_atom_site_label_1
_geom_bond_atom_site_label_2
_geom_bond_distance
_geom_bond_site_symmetry_2
Ag0 O9 2.683564 1_555
Ag0 O2 2.683564 1_555
Ag0 O11 2.762035 1_455
Ag0 O4 2.762035 1_555
Ag0 Cl2 2.777872 1_565
Ag0 Cl1 2.828996 1_555
Ag0 Cl1 2.828996 1_455
Ag1 O11 2.683564 1_555
Ag1 O4 2.683564 1_555
Ag1 O9 2.762035 1_555
Ag1 O2 2.762035 1_655
Ag1 Cl1 2.777872 1_545
Ag1 Cl2 2.828996 1_655
Ag1 Cl2 2.828996 1_555
Ag2 Cl3 2.625287 1_555
Ag2 O10 2.660909 1_555
Ag2 O10 2.660909 1_455
Ag2 Cl2 2.664057 1_555
Ag2 O4 2.695011 1_555
Ag2 O11 2.695011 1_455
Ag3 O8 2.683564 1_565
Ag3 O5 2.683564 1_565
Ag3 O1 2.762035 1_554
Ag3 O6 2.762035 1_654
Ag3 Cl0 2.777872 1_554
Ag3 Cl3 2.828996 1_555
Ag3 Cl3 2.828996 1_655
Ag4 Cl1 2.625287 1_545
Ag4 O7 2.660909 1_655
Ag4 O7 2.660909 1_555
Ag4 Cl0 2.664057 1_555
Ag4 O1 2.695011 1_545
Ag4 O6 2.695011 1_645
Ag5 Cl2 2.625287 1_565
Ag5 O0 2.660909 1_555
Ag5 O0 2.660909 1_455
Ag5 Cl3 2.664057 1_555
Ag5 O8 2.695011 1_565
Ag5 O5 2.695011 1_465
Ag6 O1 2.683564 1_545
Ag6 O6 2.683564 1_545
Ag6 O5 2.762035 1_456
Ag6 O8 2.762035 1_556
Ag6 Cl3 2.777872 1_556
Ag6 Cl0 2.828996 1_455
Ag6 Cl0 2.828996 1_555
Ag7 Cl0 2.625287 1_555
Ag7 O3 2.660909 1_655
Ag7 O3 2.660909 1_555
Ag7 Cl1 2.664057 1_555
Ag7 O9 2.695011 1_555
Ag7 O2 2.695011 1_655
N0 O10 1.265797 1_555
N0 O8 1.273489 1_555
N0 O5 1.273489 1_555
N1 O3 1.265797 1_555
N1 O6 1.273489 1_555
N1 O1 1.273489 1_555
N2 O0 1.265797 1_555
N2 O11 1.273489 1_555
N2 O4 1.273489 1_555
N3 O7 1.265797 1_555
N3 O2 1.273489 1_555
N3 O9 1.273489 1_555
