# generated using pymatgen
data_Sr8Ga16S31
_symmetry_space_group_name_H-M   'P 1'
_cell_length_a   11.98422400
_cell_length_b   12.08139114
_cell_length_c   12.25468012
_cell_angle_alpha   104.94459771
_cell_angle_beta   104.64359179
_cell_angle_gamma   118.67668392
_symmetry_Int_Tables_number   1
_chemical_formula_structural   Sr8Ga16S31
_chemical_formula_sum   'Sr8 Ga16 S31'
_cell_volume   1347.47317743
_cell_formula_units_Z   1
loop_
 _symmetry_equiv_pos_site_id
 _symmetry_equiv_pos_as_xyz
  1  'x, y, z'
loop_
 _atom_site_type_symbol
 _atom_site_label
 _atom_site_symmetry_multiplicity
 _atom_site_fract_x
 _atom_site_fract_y
 _atom_site_fract_z
 _atom_site_occupancy
  Sr  Sr0  1  0.12607800  0.87557100  0.24831100  1
  Sr  Sr1  1  0.62528300  0.87759300  0.24627200  1
  Sr  Sr2  1  0.37514500  0.61656200  0.74908400  1
  Sr  Sr3  1  0.12181300  0.37273800  0.24965100  1
  Sr  Sr4  1  0.87725300  0.62629600  0.75023100  1
  Sr  Sr5  1  0.62276700  0.37052300  0.24878500  1
  Sr  Sr6  1  0.37576200  0.13285200  0.75108700  1
  Sr  Sr7  1  0.87344000  0.12457000  0.75229200  1
  Ga  Ga0  1  0.37807000  0.96915900  0.99543400  1
  Ga  Ga1  1  0.38935800  0.86218000  0.49994900  1
  Ga  Ga2  1  0.13618400  0.61257900  0.99939400  1
  Ga  Ga3  1  0.03302500  0.64083700  0.50161800  1
  Ga  Ga4  1  0.85881400  0.89111200  0.99795600  1
  Ga  Ga5  1  0.88914900  0.86274800  0.50023500  1
  Ga  Ga6  1  0.53199800  0.63941300  0.49951500  1
  Ga  Ga7  1  0.64024400  0.53270400  0.00007100  1
  Ga  Ga8  1  0.36005000  0.46811400  0.00143700  1
  Ga  Ga9  1  0.46870500  0.36147500  0.50078900  1
  Ga  Ga10  1  0.10899000  0.13577600  0.49896300  1
  Ga  Ga11  1  0.13747200  0.10680800  0.99764600  1
  Ga  Ga12  1  0.96904200  0.36234300  0.50179100  1
  Ga  Ga13  1  0.86176100  0.38521600  0.99804700  1
  Ga  Ga14  1  0.61037700  0.13717100  0.50160200  1
  Ga  Ga15  1  0.61021300  0.02358700  0.99012900  1
  S  S0  1  0.16525800  0.81535300  0.99588500  1
  S  S1  1  0.41833800  0.91800100  0.33819200  1
  S  S2  1  0.19071100  0.84675700  0.50609200  1
  S  S3  1  0.08048100  0.58085900  0.16212800  1
  S  S4  1  0.68637300  0.84294800  0.49830100  1
  S  S5  1  0.91838000  0.91770700  0.33624600  1
  S  S6  1  0.34976600  0.65989000  0.50320600  1
  S  S7  1  0.08803400  0.58600800  0.66675500  1
  S  S8  1  0.84312800  0.69122000  0.99896300  1
  S  S9  1  0.65021500  0.84919800  0.99219100  1
  S  S10  1  0.91727100  0.91777300  0.83508200  1
  S  S11  1  0.58299800  0.58252100  0.16404900  1
  S  S12  1  0.34003800  0.64874800  0.99867700  1
  S  S13  1  0.58326500  0.58330200  0.66396700  1
  S  S14  1  0.15037300  0.33985500  0.49947700  1
  S  S15  1  0.84873000  0.65892800  0.50013900  1
  S  S16  1  0.41690300  0.41693100  0.33633600  1
  S  S17  1  0.65812600  0.35001500  0.99868700  1
  S  S18  1  0.41623500  0.41699900  0.83572100  1
  S  S19  1  0.07997100  0.08026900  0.16144900  1
  S  S20  1  0.34128500  0.14420500  0.99344800  1
  S  S21  1  0.15627100  0.30924100  0.00134800  1
  S  S22  1  0.91990000  0.42098500  0.33844500  1
  S  S23  1  0.65192000  0.34163000  0.50279500  1
  S  S24  1  0.08064600  0.08166200  0.66300000  1
  S  S25  1  0.31270000  0.15732000  0.50048600  1
  S  S26  1  0.58885900  0.09010800  0.18163600  1
  S  S27  1  0.91805300  0.41796300  0.83625900  1
  S  S28  1  0.81401600  0.15865700  0.50320600  1
  S  S29  1  0.57983100  0.08040500  0.66541100  1
  S  S30  1  0.82863400  0.17991800  0.99713300  1
loop_
_geom_bond_atom_site_label_1
_geom_bond_atom_site_label_2
_geom_bond_distance
_geom_bond_site_symmetry_2
Ga0 S0 2.328417 1_555
Ga0 S26 2.355114 1_566
Ga0 S20 2.362875 1_565
Ga1 S6 2.268605 1_555
Ga1 S1 2.306007 1_555
Ga1 S2 2.319463 1_555
Ga1 S29 2.323721 1_565
Ga2 S12 2.268857 1_555
Ga2 S0 2.316772 1_555
Ga2 S3 2.321917 1_556
Ga2 S27 2.322276 1_455
Ga3 S2 2.264631 1_555
Ga3 S22 2.307694 1_455
Ga3 S15 2.317596 1_455
Ga3 S7 2.324805 1_555
Ga4 S9 2.277768 1_555
Ga4 S10 2.323887 1_555
Ga4 S19 2.324194 1_666
Ga4 S8 2.334188 1_555
Ga5 S15 2.269728 1_555
Ga5 S4 2.318035 1_555
Ga5 S24 2.319405 1_665
Ga5 S5 2.328765 1_555
Ga6 S4 2.266332 1_555
Ga6 S13 2.318793 1_555
Ga6 S6 2.322801 1_555
Ga6 S16 2.324022 1_555
Ga7 S8 2.267320 1_554
Ga7 S11 2.310954 1_555
Ga7 S17 2.313903 1_554
Ga7 S18 2.330225 1_554
Ga8 S21 2.268703 1_555
Ga8 S12 2.314608 1_554
Ga8 S11 2.315895 1_555
Ga8 S18 2.324324 1_554
Ga9 S25 2.268270 1_555
Ga9 S16 2.314909 1_555
Ga9 S23 2.315193 1_555
Ga9 S13 2.320031 1_555
Ga10 S14 2.267564 1_555
Ga10 S5 2.312311 1_445
Ga10 S25 2.322216 1_555
Ga10 S24 2.322444 1_555
Ga11 S20 2.277978 1_555
Ga11 S10 2.315091 1_445
Ga11 S19 2.329473 1_556
Ga11 S21 2.333009 1_556
Ga12 S28 2.271143 1_555
Ga12 S14 2.321819 1_655
Ga12 S22 2.321990 1_555
Ga12 S7 2.334275 1_655
Ga13 S17 2.269769 1_555
Ga13 S30 2.312563 1_555
Ga13 S27 2.316735 1_555
Ga13 S3 2.332025 1_656
Ga14 S23 2.268731 1_555
Ga14 S28 2.321361 1_555
Ga14 S1 2.324740 1_545
Ga14 S29 2.339826 1_555
Ga15 S30 2.341881 1_555
Ga15 S9 2.379076 1_545
Ga15 S26 2.397367 1_556
S0 Sr4 3.134722 1_455
S0 Sr0 3.196931 1_556
S1 Sr0 3.127079 1_555
S1 Sr1 3.154181 1_555
S2 Sr6 3.131072 1_565
S2 Sr0 3.207705 1_555
S3 Sr0 3.161142 1_555
S3 Sr3 3.167895 1_555
S4 Sr7 3.159042 1_565
S4 Sr1 3.172982 1_555
S5 Sr0 3.147277 1_655
S5 Sr1 3.149760 1_555
S6 Sr2 3.154136 1_555
S6 Sr3 3.194660 1_555
S7 Sr2 3.134807 1_555
S7 Sr4 3.145477 1_455
S8 Sr4 3.127074 1_555
S8 Sr0 3.130300 1_656
S9 Sr2 3.076627 1_555
S9 Sr1 3.149574 1_556
S10 Sr7 3.137621 1_565
S10 Sr4 3.154405 1_555
S11 Sr1 3.183686 1_555
S11 Sr5 3.187225 1_555
S12 Sr2 3.142927 1_555
S12 Sr1 3.145533 1_556
S13 Sr2 3.087295 1_555
S13 Sr4 3.142876 1_555
S14 Sr2 3.115392 1_555
S14 Sr3 3.142608 1_555
S15 Sr4 3.144532 1_555
S15 Sr5 3.186403 1_555
S16 Sr5 3.147667 1_555
S16 Sr3 3.148928 1_555
S17 Sr6 3.118175 1_555
S17 Sr5 3.162301 1_556
S18 Sr2 3.062350 1_555
S18 Sr6 3.067074 1_555
S19 Sr0 3.150578 1_545
S19 Sr3 3.156033 1_555
S20 Sr6 3.078233 1_555
S20 Sr5 3.169353 1_556
S21 Sr3 3.123061 1_555
S21 Sr7 3.127511 1_454
S22 Sr3 3.120407 1_655
S22 Sr5 3.138755 1_555
S23 Sr4 3.143670 1_555
S23 Sr5 3.171924 1_555
S24 Sr6 3.111652 1_555
S24 Sr7 3.154223 1_455
S25 Sr6 3.098216 1_555
S25 Sr0 3.148388 1_545
S26 Sr1 3.059345 1_545
S26 Sr5 3.064526 1_555
S27 Sr7 3.151295 1_555
S27 Sr4 3.158266 1_555
S28 Sr7 3.134492 1_555
S28 Sr1 3.173938 1_545
S29 Sr7 3.132139 1_555
S29 Sr6 3.150748 1_555
S30 Sr7 3.140470 1_555
S30 Sr3 3.205767 1_656
