# generated using pymatgen
data_K4AsH5S3O16
_symmetry_space_group_name_H-M   'P 1'
_cell_length_a   9.03189700
_cell_length_b   10.31274917
_cell_length_c   10.94105344
_cell_angle_alpha   72.55112554
_cell_angle_beta   66.75678026
_cell_angle_gamma   65.27874939
_symmetry_Int_Tables_number   1
_chemical_formula_structural   K4AsH5S3O16
_chemical_formula_sum   'K8 As2 H10 S6 O32'
_cell_volume   839.39284268
_cell_formula_units_Z   2
loop_
 _symmetry_equiv_pos_site_id
 _symmetry_equiv_pos_as_xyz
  1  'x, y, z'
loop_
 _atom_site_type_symbol
 _atom_site_label
 _atom_site_symmetry_multiplicity
 _atom_site_fract_x
 _atom_site_fract_y
 _atom_site_fract_z
 _atom_site_occupancy
  K  K0  1  0.73258600  0.02159100  0.98924100  1
  K  K1  1  0.76773100  0.92900800  0.40450100  1
  K  K2  1  0.78272200  0.45460700  0.49569500  1
  K  K3  1  0.21727800  0.54539300  0.50430500  1
  K  K4  1  0.75515400  0.57228500  0.10084100  1
  K  K5  1  0.26741400  0.97840900  0.01075900  1
  K  K6  1  0.23226900  0.07099200  0.59549900  1
  K  K7  1  0.24484600  0.42771500  0.89915900  1
  As  As0  1  0.47150300  0.31729800  0.22058500  1
  As  As1  1  0.52849700  0.68270200  0.77941500  1
  H  H0  1  0.67160900  0.76084600  0.86854700  1
  H  H1  1  0.80978000  0.09068600  0.64790300  1
  H  H2  1  0.74261200  0.23810600  0.24528700  1
  H  H3  1  0.32244800  0.61350200  0.14432500  1
  H  H4  1  0.32839100  0.23915400  0.13145300  1
  H  H5  1  0.19022000  0.90931400  0.35209700  1
  H  H6  1  0.67755200  0.38649800  0.85567500  1
  H  H7  1  0.25738800  0.76189400  0.75471300  1
  H  H8  1  0.21787400  0.27445900  0.36221900  1
  H  H9  1  0.78212600  0.72554100  0.63778100  1
  S  S0  1  0.03594600  0.19602300  0.27051500  1
  S  S1  1  0.96405400  0.80397700  0.72948500  1
  S  S2  1  0.46815300  0.82120400  0.31645500  1
  S  S3  1  0.95635900  0.31441500  0.81456600  1
  S  S4  1  0.04364100  0.68558500  0.18543400  1
  S  S5  1  0.53184700  0.17879600  0.68354500  1
  O  O0  1  0.66658600  0.19086900  0.23763400  1
  O  O1  1  0.55655100  0.74294700  0.89874800  1
  O  O2  1  0.13720600  0.70220200  0.73717800  1
  O  O3  1  0.05060600  0.57157400  0.12673500  1
  O  O4  1  0.72350800  0.18323100  0.61599200  1
  O  O5  1  0.42857400  0.32756600  0.64185500  1
  O  O6  1  0.52550900  0.51406500  0.81751100  1
  O  O7  1  0.92910500  0.77369300  0.62003000  1
  O  O8  1  0.33341400  0.80913100  0.76236600  1
  O  O9  1  0.92751100  0.82976300  0.14777600  1
  O  O10  1  0.47479000  0.93035700  0.37281000  1
  O  O11  1  0.57142600  0.67243400  0.35814500  1
  O  O12  1  0.22708300  0.70500000  0.11833900  1
  O  O13  1  0.83053000  0.78176900  0.86131000  1
  O  O14  1  0.07248900  0.17023700  0.85222400  1
  O  O15  1  0.16947000  0.21823100  0.13869000  1
  O  O16  1  0.98644800  0.35433200  0.66769500  1
  O  O17  1  0.52521000  0.06964300  0.62719000  1
  O  O18  1  0.01355200  0.64566800  0.33230500  1
  O  O19  1  0.68806400  0.70264500  0.62629400  1
  O  O20  1  0.47449100  0.48593500  0.18248900  1
  O  O21  1  0.94939400  0.42842600  0.87326500  1
  O  O22  1  0.44344900  0.25705300  0.10125200  1
  O  O23  1  0.95993400  0.95587000  0.70095300  1
  O  O24  1  0.27649200  0.81676900  0.38400800  1
  O  O25  1  0.50002300  0.14122300  0.83054000  1
  O  O26  1  0.49997700  0.85877700  0.16946000  1
  O  O27  1  0.07089500  0.22630700  0.37997000  1
  O  O28  1  0.31193600  0.29735500  0.37370600  1
  O  O29  1  0.86279400  0.29779800  0.26282200  1
  O  O30  1  0.04006600  0.04413000  0.29904700  1
  O  O31  1  0.77291700  0.29500000  0.88166100  1
loop_
_geom_bond_atom_site_label_1
_geom_bond_atom_site_label_2
_geom_bond_distance
_geom_bond_site_symmetry_2
K0 O9 2.731486 1_546
K0 O31 2.828180 1_555
K0 O13 2.850857 1_545
K0 O22 2.858816 1_556
K0 O25 2.894044 1_555
K0 O26 2.969237 1_546
K0 O23 3.103335 1_545
K1 O0 2.785078 1_565
K1 O10 2.794840 1_555
K1 O17 2.843859 1_565
K1 O30 2.858661 1_665
K1 O9 2.882548 1_555
K1 O19 2.912981 1_555
K1 O18 2.943688 1_655
K1 O7 2.957283 1_555
K2 O11 2.758046 1_555
K2 O16 2.823282 1_555
K2 O27 2.825233 1_655
K2 O4 2.887557 1_555
K2 O19 2.952018 1_555
K2 O29 3.109379 1_555
K2 O18 3.131531 1_655
K3 O5 2.758046 1_555
K3 O18 2.823282 1_555
K3 O7 2.825233 1_455
K3 O24 2.887557 1_555
K3 O28 2.952018 1_555
K3 O2 3.109379 1_555
K3 O16 3.131531 1_455
K4 O20 2.764154 1_555
K4 O3 2.789309 1_655
K4 O21 2.840629 1_554
K4 O29 2.854553 1_555
K4 O11 2.892864 1_555
K4 O13 2.902651 1_554
K4 O26 2.978887 1_555
K4 O1 3.059450 1_554
K5 O14 2.731486 1_564
K5 O12 2.828180 1_555
K5 O15 2.850857 1_565
K5 O1 2.858816 1_554
K5 O26 2.894044 1_555
K5 O25 2.969237 1_564
K5 O30 3.103335 1_565
K6 O8 2.785078 1_545
K6 O17 2.794840 1_555
K6 O10 2.843859 1_545
K6 O23 2.858661 1_445
K6 O14 2.882548 1_555
K6 O28 2.912981 1_555
K6 O16 2.943688 1_455
K6 O27 2.957283 1_555
K7 O6 2.764154 1_555
K7 O21 2.789309 1_455
K7 O3 2.840629 1_556
K7 O2 2.854553 1_555
K7 O5 2.892864 1_555
K7 O15 2.902651 1_556
K7 O25 2.978887 1_555
K7 O22 3.059450 1_556
As0 O20 1.671714 1_555
As0 O0 1.741083 1_555
As0 O22 1.741872 1_555
As0 O28 1.749749 1_555
As1 O6 1.671714 1_555
As1 O8 1.741083 1_555
As1 O1 1.741872 1_555
As1 O19 1.749749 1_555
H0 O1 1.037314 1_555
H0 O13 1.507375 1_555
H0 K4 2.851782 1_556
H1 O4 1.016267 1_555
H1 O23 1.633819 1_545
H2 O0 1.032202 1_555
H2 O29 1.545344 1_555
H3 O12 1.032327 1_555
H3 O20 1.550142 1_555
H4 O22 1.037314 1_555
H4 O15 1.507375 1_555
H4 K7 2.851782 1_554
H5 O24 1.016267 1_555
H5 O30 1.633819 1_565
H6 O31 1.032327 1_555
H6 O6 1.550142 1_555
H7 O8 1.032202 1_555
H7 O2 1.545344 1_555
H8 O28 1.031091 1_555
H8 O27 1.528596 1_555
H8 K6 2.784981 1_555
H9 O19 1.031091 1_555
H9 O7 1.528596 1_555
H9 K1 2.784981 1_555
O2 S1 1.494144 1_455
O3 S4 1.468993 1_555
O4 S5 1.606571 1_555
O5 S5 1.466666 1_555
O7 S1 1.495466 1_555
O9 S4 1.466276 1_655
O10 S2 1.467224 1_555
O11 S2 1.466666 1_555
O12 S4 1.597942 1_555
O13 S1 1.499048 1_555
O14 S3 1.466276 1_455
O15 S0 1.499048 1_555
O16 S3 1.475706 1_555
O17 S5 1.467224 1_555
O18 S4 1.475706 1_555
O21 S3 1.468993 1_555
O23 S1 1.489870 1_555
O24 S2 1.606571 1_555
O25 S5 1.474414 1_555
O26 S2 1.474414 1_555
O27 S0 1.495466 1_555
O29 S0 1.494144 1_655
O30 S0 1.489870 1_555
O31 S3 1.597942 1_555
