# generated using pymatgen
data_Cu7As6Se13
_symmetry_space_group_name_H-M   'P 1'
_cell_length_a   8.76688542
_cell_length_b   8.76688542
_cell_length_c   8.76688458
_cell_angle_alpha   102.36283732
_cell_angle_beta   102.36283732
_cell_angle_gamma   102.36284242
_symmetry_Int_Tables_number   1
_chemical_formula_structural   Cu7As6Se13
_chemical_formula_sum   'Cu7 As6 Se13'
_cell_volume   618.60261184
_cell_formula_units_Z   1
loop_
 _symmetry_equiv_pos_site_id
 _symmetry_equiv_pos_as_xyz
  1  'x, y, z'
loop_
 _atom_site_type_symbol
 _atom_site_label
 _atom_site_symmetry_multiplicity
 _atom_site_fract_x
 _atom_site_fract_y
 _atom_site_fract_z
 _atom_site_occupancy
  Cu  Cu0  1  0.93591400  0.14392500  0.20619700  1
  Cu  Cu1  1  0.14392500  0.20619700  0.93591400  1
  Cu  Cu2  1  0.20619700  0.93591400  0.14392500  1
  Cu  Cu3  1  0.37191100  0.27768500  0.58722600  1
  Cu  Cu4  1  0.27768500  0.58722600  0.37191100  1
  Cu  Cu5  1  0.58722600  0.37191100  0.27768500  1
  Cu  Cu6  1  0.75389700  0.75389700  0.75389700  1
  As  As0  1  0.98640200  0.84405700  0.49728100  1
  As  As1  1  0.84405700  0.49728100  0.98640200  1
  As  As2  1  0.49728100  0.98640200  0.84405700  1
  As  As3  1  0.64313500  0.05862100  0.52687200  1
  As  As4  1  0.05862100  0.52687200  0.64313500  1
  As  As5  1  0.52687200  0.64313500  0.05862100  1
  Se  Se0  1  0.28122500  0.09743700  0.74089200  1
  Se  Se1  1  0.09743700  0.74089200  0.28122500  1
  Se  Se2  1  0.74089200  0.28122500  0.09743700  1
  Se  Se3  1  0.95225900  0.32770400  0.78686200  1
  Se  Se4  1  0.32770400  0.78686200  0.95225900  1
  Se  Se5  1  0.78686200  0.95225900  0.32770400  1
  Se  Se6  1  0.14303600  0.34980300  0.44111000  1
  Se  Se7  1  0.34980300  0.44111000  0.14303600  1
  Se  Se8  1  0.44111000  0.14303600  0.34980300  1
  Se  Se9  1  0.57442500  0.50970000  0.79603000  1
  Se  Se10  1  0.50970000  0.79603000  0.57442500  1
  Se  Se11  1  0.79603000  0.57442500  0.50970000  1
  Se  Se12  1  0.96996500  0.96996500  0.96996500  1
loop_
_geom_bond_atom_site_label_1
_geom_bond_atom_site_label_2
_geom_bond_distance
_geom_bond_site_symmetry_2
Cu0 Se12 2.410671 1_544
Cu0 Se2 2.440459 1_555
Cu0 Se5 2.467388 1_545
Cu0 Se6 2.489951 1_655
Cu1 Se12 2.410671 1_445
Cu1 Se0 2.440459 1_555
Cu1 Se3 2.467388 1_455
Cu1 Se7 2.489951 1_556
Cu2 Se12 2.410671 1_454
Cu2 Se1 2.440459 1_555
Cu2 Se4 2.467388 1_554
Cu2 Se8 2.489951 1_565
Cu3 Se0 2.403385 1_555
Cu3 Se6 2.419958 1_555
Cu3 Se8 2.426771 1_555
Cu3 Se9 2.471434 1_555
Cu4 Se1 2.403385 1_555
Cu4 Se7 2.419957 1_555
Cu4 Se6 2.426771 1_555
Cu4 Se10 2.471434 1_555
Cu5 Se2 2.403385 1_555
Cu5 Se8 2.419957 1_555
Cu5 Se7 2.426771 1_555
Cu5 Se11 2.471434 1_555
Cu6 Se12 2.480945 1_555
Cu6 Se11 2.518012 1_555
Cu6 Se9 2.518012 1_555
Cu6 Se10 2.518012 1_555
As0 Se1 2.405470 1_655
As0 Se5 2.524088 1_555
As0 Se11 2.623680 1_555
As0 Se0 3.053277 1_665
As1 Se2 2.405470 1_556
As1 Se3 2.524087 1_555
As1 Se9 2.623680 1_555
As1 Se1 3.053277 1_656
As2 Se0 2.405470 1_565
As2 Se4 2.524087 1_555
As2 Se10 2.623680 1_555
As2 Se2 3.053277 1_566
As3 Se8 2.443408 1_555
As3 Se5 2.500805 1_545
As3 Se10 2.511686 1_545
As4 Se6 2.443408 1_555
As4 Se3 2.500805 1_455
As4 Se11 2.511686 1_455
As5 Se7 2.443408 1_555
As5 Se4 2.500805 1_554
As5 Se9 2.511686 1_554
