# generated using pymatgen
data_ReSF4
_symmetry_space_group_name_H-M   'P 1'
_cell_length_a   8.61476750
_cell_length_b   11.39770217
_cell_length_c   28.67345130
_cell_angle_alpha   90.00000000
_cell_angle_beta   90.00000000
_cell_angle_gamma   90.00000000
_symmetry_Int_Tables_number   1
_chemical_formula_structural   ReSF4
_chemical_formula_sum   'Re24 S24 F96'
_cell_volume   2815.40472790
_cell_formula_units_Z   24
loop_
 _symmetry_equiv_pos_site_id
 _symmetry_equiv_pos_as_xyz
  1  'x, y, z'
loop_
 _atom_site_type_symbol
 _atom_site_label
 _atom_site_symmetry_multiplicity
 _atom_site_fract_x
 _atom_site_fract_y
 _atom_site_fract_z
 _atom_site_occupancy
  Re  Re0  1  0.38637894  0.76576423  0.14736292  1
  Re  Re1  1  0.61362106  0.23423577  0.64736292  1
  Re  Re2  1  0.95777036  0.90704147  0.89731923  1
  Re  Re3  1  0.38637894  0.73423577  0.64736292  1
  Re  Re4  1  0.08464287  0.03761137  0.03327209  1
  Re  Re5  1  0.57120698  0.74138608  0.46586426  1
  Re  Re6  1  0.95777036  0.59295853  0.39731923  1
  Re  Re7  1  0.11881698  0.99878278  0.71453152  1
  Re  Re8  1  0.46635086  0.59500956  0.78339726  1
  Re  Re9  1  0.88118302  0.00121722  0.21453152  1
  Re  Re10  1  0.91535713  0.96238863  0.53327209  1
  Re  Re11  1  0.42879302  0.25861392  0.96586426  1
  Re  Re12  1  0.53364914  0.40499044  0.28339726  1
  Re  Re13  1  0.42879302  0.24138608  0.46586426  1
  Re  Re14  1  0.88118302  0.49878278  0.71453152  1
  Re  Re15  1  0.57120698  0.75861392  0.96586426  1
  Re  Re16  1  0.04222964  0.40704147  0.89731923  1
  Re  Re17  1  0.61362106  0.26576423  0.14736292  1
  Re  Re18  1  0.11881698  0.50121722  0.21453152  1
  Re  Re19  1  0.04222964  0.09295853  0.39731923  1
  Re  Re20  1  0.53364914  0.09500956  0.78339726  1
  Re  Re21  1  0.91535713  0.53761137  0.03327209  1
  Re  Re22  1  0.46635086  0.90499044  0.28339726  1
  Re  Re23  1  0.08464287  0.46238863  0.53327209  1
  S  S0  1  0.48096172  0.58278623  0.62016597  1
  S  S1  1  0.55115998  0.00261106  0.33815989  1
  S  S2  1  0.63785405  0.31878650  0.48200171  1
  S  S3  1  0.36214595  0.81878650  0.48200171  1
  S  S4  1  0.44884002  0.50261106  0.33815989  1
  S  S5  1  0.10280733  0.19286191  0.34015385  1
  S  S6  1  0.08132553  0.43825780  0.06684845  1
  S  S7  1  0.89719267  0.80713809  0.84015385  1
  S  S8  1  0.51903828  0.41721377  0.12016597  1
  S  S9  1  0.91867447  0.93825780  0.06684845  1
  S  S10  1  0.91773890  0.91886938  0.69163109  1
  S  S11  1  0.91773890  0.58113062  0.19163109  1
  S  S12  1  0.48096172  0.91721377  0.12016597  1
  S  S13  1  0.10280733  0.30713809  0.84015385  1
  S  S14  1  0.08226110  0.41886938  0.69163109  1
  S  S15  1  0.89719267  0.69286191  0.34015385  1
  S  S16  1  0.08132553  0.06174220  0.56684845  1
  S  S17  1  0.91867447  0.56174220  0.56684845  1
  S  S18  1  0.51903828  0.08278623  0.62016597  1
  S  S19  1  0.08226110  0.08113062  0.19163109  1
  S  S20  1  0.55115998  0.49738894  0.83815989  1
  S  S21  1  0.44884002  0.99738894  0.83815989  1
  S  S22  1  0.63785405  0.18121350  0.98200171  1
  S  S23  1  0.36214595  0.68121350  0.98200171  1
  F  F0  1  0.36305404  0.08127414  0.73842674  1
  F  F1  1  0.12762474  0.82319350  0.92286603  1
  F  F2  1  0.16921494  0.79622036  0.14531223  1
  F  F3  1  0.35960322  0.67066230  0.09345211  1
  F  F4  1  0.62581721  0.30115426  0.21381614  1
  F  F5  1  0.56106914  0.67137374  0.16176262  1
  F  F6  1  0.43893086  0.17137374  0.16176262  1
  F  F7  1  0.02584784  0.01736827  0.96812479  1
  F  F8  1  0.71857953  0.85574654  0.49001621  1
  F  F9  1  0.38415848  0.30042289  0.40534231  1
  F  F10  1  0.83078506  0.29622036  0.14531223  1
  F  F11  1  0.87237526  0.32319350  0.92286603  1
  F  F12  1  0.20268328  0.40072148  0.58347653  1
  F  F13  1  0.54338633  0.74846485  0.79464675  1
  F  F14  1  0.63694596  0.58127414  0.73842674  1
  F  F15  1  0.99242249  0.31164096  0.52778581  1
  F  F16  1  0.02584784  0.48263173  0.46812479  1
  F  F17  1  0.82946214  0.83830013  0.94646320  1
  F  F18  1  0.99242249  0.18835904  0.02778581  1
  F  F19  1  0.00757751  0.68835904  0.02778581  1
  F  F20  1  0.95320837  0.88266198  0.25525709  1
  F  F21  1  0.28142047  0.14425346  0.99001621  1
  F  F22  1  0.72780394  0.35150030  0.30474887  1
  F  F23  1  0.79731672  0.59927852  0.08347653  1
  F  F24  1  0.54338633  0.75153515  0.29464675  1
  F  F25  1  0.37868698  0.14871271  0.51902476  1
  F  F26  1  0.95320837  0.61733802  0.75525709  1
  F  F27  1  0.10361343  0.48507559  0.37291722  1
  F  F28  1  0.51156905  0.59966049  0.43650228  1
  F  F29  1  0.10361343  0.01492441  0.87291722  1
  F  F30  1  0.16921494  0.70377964  0.64531223  1
  F  F31  1  0.17122494  0.58986169  0.26832693  1
  F  F32  1  0.18637271  0.53271285  0.89804988  1
  F  F33  1  0.24850347  0.57134016  0.52413690  1
  F  F34  1  0.63694596  0.91872586  0.23842674  1
  F  F35  1  0.27219606  0.85150030  0.30474887  1
  F  F36  1  0.87237526  0.17680650  0.42286603  1
  F  F37  1  0.62581721  0.19884574  0.71381614  1
  F  F38  1  0.64039678  0.32933770  0.59345211  1
  F  F39  1  0.89638657  0.51492441  0.87291722  1
  F  F40  1  0.75149653  0.07134016  0.52413690  1
  F  F41  1  0.64039678  0.17066230  0.09345211  1
  F  F42  1  0.81362729  0.03271285  0.89804988  1
  F  F43  1  0.18637271  0.96728715  0.39804988  1
  F  F44  1  0.15704929  0.11936843  0.67018837  1
  F  F45  1  0.82946214  0.66169987  0.44646320  1
  F  F46  1  0.89638657  0.98507559  0.37291722  1
  F  F47  1  0.35850632  0.48127056  0.74737473  1
  F  F48  1  0.62131302  0.85128729  0.01902476  1
  F  F49  1  0.64149368  0.51872944  0.24737473  1
  F  F50  1  0.72522774  0.40948720  0.67965325  1
  F  F51  1  0.48843095  0.09966049  0.43650228  1
  F  F52  1  0.36305404  0.41872586  0.23842674  1
  F  F53  1  0.79731672  0.90072148  0.58347653  1
  F  F54  1  0.97415216  0.51736827  0.96812479  1
  F  F55  1  0.48843095  0.40033951  0.93650228  1
  F  F56  1  0.28142047  0.35574654  0.49001621  1
  F  F57  1  0.62131302  0.64871271  0.51902476  1
  F  F58  1  0.56106914  0.82862626  0.66176262  1
  F  F59  1  0.38415848  0.19957711  0.90534231  1
  F  F60  1  0.12762474  0.67680650  0.42286603  1
  F  F61  1  0.61584152  0.69957711  0.90534231  1
  F  F62  1  0.37418279  0.80115426  0.21381614  1
  F  F63  1  0.83078506  0.20377964  0.64531223  1
  F  F64  1  0.00757751  0.81164096  0.52778581  1
  F  F65  1  0.45661367  0.24846485  0.79464675  1
  F  F66  1  0.51156905  0.90033951  0.93650228  1
  F  F67  1  0.35850632  0.01872944  0.24737473  1
  F  F68  1  0.64149368  0.98127056  0.74737473  1
  F  F69  1  0.20268328  0.09927852  0.08347653  1
  F  F70  1  0.04679163  0.38266198  0.25525709  1
  F  F71  1  0.04679163  0.11733802  0.75525709  1
  F  F72  1  0.35960322  0.82933770  0.59345211  1
  F  F73  1  0.82877506  0.08986169  0.26832693  1
  F  F74  1  0.17122494  0.91013831  0.76832693  1
  F  F75  1  0.72780394  0.14849970  0.80474887  1
  F  F76  1  0.17053786  0.16169987  0.44646320  1
  F  F77  1  0.37418279  0.69884574  0.71381614  1
  F  F78  1  0.15704929  0.38063157  0.17018837  1
  F  F79  1  0.72522774  0.09051280  0.17965325  1
  F  F80  1  0.24850347  0.92865984  0.02413690  1
  F  F81  1  0.27219606  0.64849970  0.80474887  1
  F  F82  1  0.37868698  0.35128729  0.01902476  1
  F  F83  1  0.45661367  0.25153515  0.29464675  1
  F  F84  1  0.27477226  0.90948720  0.67965325  1
  F  F85  1  0.84295071  0.61936843  0.67018837  1
  F  F86  1  0.81362729  0.46728715  0.39804988  1
  F  F87  1  0.27477226  0.59051280  0.17965325  1
  F  F88  1  0.75149653  0.42865984  0.02413690  1
  F  F89  1  0.61584152  0.80042289  0.40534231  1
  F  F90  1  0.82877506  0.41013831  0.76832693  1
  F  F91  1  0.71857953  0.64425346  0.99001621  1
  F  F92  1  0.17053786  0.33830013  0.94646320  1
  F  F93  1  0.97415216  0.98263173  0.46812479  1
  F  F94  1  0.84295071  0.88063157  0.17018837  1
  F  F95  1  0.43893086  0.32862626  0.66176262  1
loop_
_geom_bond_atom_site_label_1
_geom_bond_atom_site_label_2
_geom_bond_distance
_geom_bond_site_symmetry_2
Re0 S12 2.061974 1_555
Re1 S18 2.061974 1_555
Re2 S7 2.062923 1_555
Re3 S0 2.061974 1_555
Re4 S9 2.062399 1_445
Re5 S3 2.058156 1_555
Re6 S15 2.062923 1_555
Re7 S10 2.064325 1_455
Re8 S20 2.058499 1_555
Re9 S19 2.064325 1_655
Re10 S16 2.062399 1_665
Re11 S22 2.058156 1_555
Re12 S4 2.058499 1_555
Re13 S2 2.058156 1_555
Re14 S14 2.064325 1_655
Re15 S23 2.058156 1_555
Re16 S13 2.062923 1_555
Re17 S8 2.061974 1_555
Re18 S11 2.064325 1_455
Re19 S5 2.062923 1_555
Re20 S21 2.058499 1_545
Re21 S6 2.062399 1_655
Re22 S1 2.058499 1_565
Re23 S17 2.062399 1_455
F0 Re20 1.961390 1_555
F0 Re7 2.404256 1_545
F1 Re2 1.894996 1_455
F2 Re0 1.903658 1_555
F3 Re0 1.902016 1_555
F4 Re17 1.950501 1_555
F4 Re12 2.451867 1_555
F5 Re0 1.895434 1_555
F6 Re17 1.895434 1_555
F7 Re4 1.949153 1_556
F7 Re2 2.459077 1_445
F8 Re5 1.946892 1_555
F8 Re10 2.426807 1_555
F9 Re13 1.900565 1_555
F10 Re17 1.903658 1_555
F11 Re16 1.894996 1_655
F12 Re23 1.897457 1_555
F13 Re8 1.898315 1_555
F14 Re8 1.961390 1_555
F14 Re14 2.404256 1_555
F15 Re23 1.899484 1_655
F16 Re23 1.949153 1_555
F16 Re6 2.459077 1_455
F17 Re2 1.954812 1_555
F17 Re15 2.466604 1_555
F18 Re4 1.899484 1_655
F19 Re21 1.899484 1_455
F20 Re9 1.890639 1_565
F21 Re11 1.946892 1_555
F21 Re4 2.426807 1_556
F22 Re12 1.882577 1_555
F23 Re21 1.897457 1_555
F24 Re22 1.898315 1_555
F25 Re13 1.904072 1_555
F26 Re14 1.890639 1_555
F27 Re6 1.892109 1_455
F28 Re5 1.892646 1_555
F29 Re2 1.892109 1_445
F30 Re3 1.903658 1_555
F31 Re18 1.898404 1_555
F32 Re16 1.895804 1_555
F33 Re23 1.898248 1_555
F34 Re22 1.961390 1_555
F34 Re9 2.404256 1_565
F35 Re22 1.882577 1_555
F36 Re19 1.894996 1_655
F37 Re1 1.950501 1_555
F37 Re20 2.451867 1_555
F38 Re1 1.902016 1_555
F39 Re16 1.892109 1_655
F40 Re10 1.898248 1_545
F41 Re17 1.902016 1_555
F42 Re2 1.895804 1_545
F43 Re19 1.895804 1_565
F44 Re7 1.901077 1_545
F45 Re6 1.954812 1_555
F45 Re5 2.466604 1_555
F46 Re19 1.892109 1_665
F47 Re8 1.900149 1_555
F48 Re15 1.904072 1_554
F49 Re12 1.900149 1_555
F50 Re14 1.959859 1_555
F50 Re1 2.402399 1_555
F51 Re13 1.892646 1_555
F52 Re12 1.961390 1_555
F52 Re18 2.404256 1_555
F53 Re10 1.897457 1_555
F54 Re21 1.949153 1_556
F54 Re16 2.459077 1_655
F55 Re11 1.892646 1_555
F56 Re13 1.946892 1_555
F56 Re23 2.426807 1_555
F57 Re5 1.904072 1_555
F58 Re3 1.895434 1_555
F59 Re11 1.900565 1_555
F60 Re6 1.894996 1_455
F61 Re15 1.900565 1_555
F62 Re0 1.950501 1_555
F62 Re22 2.451867 1_555
F63 Re1 1.903658 1_555
F64 Re10 1.899484 1_455
F65 Re20 1.898315 1_555
F66 Re15 1.892646 1_555
F67 Re22 1.900149 1_545
F68 Re20 1.900149 1_565
F69 Re4 1.897457 1_555
F70 Re18 1.890639 1_555
F71 Re7 1.890639 1_545
F72 Re3 1.902016 1_555
F73 Re9 1.898404 1_555
F74 Re7 1.898404 1_555
F75 Re20 1.882577 1_555
F76 Re19 1.954812 1_555
F76 Re13 2.466604 1_555
F77 Re3 1.950501 1_555
F77 Re8 2.451867 1_555
F78 Re18 1.901077 1_555
F79 Re9 1.959859 1_555
F79 Re17 2.402399 1_555
F80 Re4 1.898248 1_565
F81 Re8 1.882577 1_555
F82 Re11 1.904072 1_554
F83 Re12 1.898315 1_555
F84 Re7 1.959859 1_555
F84 Re3 2.402399 1_555
F85 Re14 1.901077 1_555
F86 Re6 1.895804 1_555
F87 Re18 1.959859 1_555
F87 Re0 2.402399 1_555
F88 Re21 1.898248 1_555
F89 Re5 1.900565 1_555
F90 Re14 1.898404 1_555
F91 Re15 1.946892 1_555
F91 Re21 2.426807 1_556
F92 Re16 1.954812 1_555
F92 Re11 2.466604 1_555
F93 Re10 1.949153 1_555
F93 Re19 2.459077 1_665
F94 Re9 1.901077 1_565
F95 Re1 1.895434 1_555
