# generated using pymatgen
data_H8CN2(ClO5)2
_symmetry_space_group_name_H-M   'P 1'
_cell_length_a   8.37748900
_cell_length_b   10.01885000
_cell_length_c   11.95107800
_cell_angle_alpha   90.00000000
_cell_angle_beta   90.00000000
_cell_angle_gamma   90.00000000
_symmetry_Int_Tables_number   1
_chemical_formula_structural   H8CN2(ClO5)2
_chemical_formula_sum   'H32 C4 N8 Cl8 O40'
_cell_volume   1003.08750729
_cell_formula_units_Z   4
loop_
 _symmetry_equiv_pos_site_id
 _symmetry_equiv_pos_as_xyz
  1  'x, y, z'
loop_
 _atom_site_type_symbol
 _atom_site_label
 _atom_site_symmetry_multiplicity
 _atom_site_fract_x
 _atom_site_fract_y
 _atom_site_fract_z
 _atom_site_occupancy
  H  H0  1  0.19315300  0.19391200  0.40275200  1
  H  H1  1  0.94185000  0.17318500  0.11221500  1
  H  H2  1  0.21978300  0.82038900  0.50196600  1
  H  H3  1  0.55815000  0.17318500  0.61221500  1
  H  H4  1  0.94185000  0.67318500  0.88778500  1
  H  H5  1  0.80684700  0.30608800  0.40275200  1
  H  H6  1  0.66658700  0.68428800  0.62297000  1
  H  H7  1  0.19315300  0.69391200  0.59724800  1
  H  H8  1  0.78021700  0.67961100  0.50196600  1
  H  H9  1  0.83341300  0.68428800  0.12297000  1
  H  H10  1  0.69315300  0.30608800  0.90275200  1
  H  H11  1  0.71978300  0.17961100  0.99803400  1
  H  H12  1  0.05815000  0.82681500  0.88778500  1
  H  H13  1  0.44185000  0.32681500  0.61221500  1
  H  H14  1  0.28021700  0.32038900  0.99803400  1
  H  H15  1  0.21978300  0.32038900  0.49803400  1
  H  H16  1  0.16658700  0.31571200  0.87703000  1
  H  H17  1  0.83341300  0.18428800  0.87703000  1
  H  H18  1  0.28021700  0.82038900  0.00196600  1
  H  H19  1  0.16658700  0.81571200  0.12297000  1
  H  H20  1  0.66658700  0.18428800  0.37703000  1
  H  H21  1  0.71978300  0.67961100  0.00196600  1
  H  H22  1  0.55815000  0.67318500  0.38778500  1
  H  H23  1  0.05815000  0.32681500  0.11221500  1
  H  H24  1  0.44185000  0.82681500  0.38778500  1
  H  H25  1  0.69315300  0.80608800  0.09724800  1
  H  H26  1  0.30684700  0.69391200  0.09724800  1
  H  H27  1  0.80684700  0.80608800  0.59724800  1
  H  H28  1  0.78021700  0.17961100  0.49803400  1
  H  H29  1  0.33341300  0.81571200  0.62297000  1
  H  H30  1  0.30684700  0.19391200  0.90275200  1
  H  H31  1  0.33341300  0.31571200  0.37703000  1
  C  C0  1  0.00000000  0.75000000  0.93911200  1
  C  C1  1  0.50000000  0.75000000  0.43911200  1
  C  C2  1  0.50000000  0.25000000  0.56088800  1
  C  C3  1  0.00000000  0.25000000  0.06088800  1
  N  N0  1  0.22347100  0.75898100  0.06109000  1
  N  N1  1  0.77652900  0.24101900  0.93891000  1
  N  N2  1  0.27652900  0.75898100  0.56109000  1
  N  N3  1  0.72347100  0.74101900  0.56109000  1
  N  N4  1  0.77652900  0.74101900  0.06109000  1
  N  N5  1  0.27652900  0.25898100  0.43891000  1
  N  N6  1  0.72347100  0.24101900  0.43891000  1
  N  N7  1  0.22347100  0.25898100  0.93891000  1
  Cl  Cl0  1  0.96079800  0.53854700  0.32774800  1
  Cl  Cl1  1  0.53920200  0.53854700  0.82774800  1
  Cl  Cl2  1  0.03920200  0.46145300  0.67225200  1
  Cl  Cl3  1  0.46079800  0.46145300  0.17225200  1
  Cl  Cl4  1  0.46079800  0.96145300  0.82774800  1
  Cl  Cl5  1  0.96079800  0.03854700  0.67225200  1
  Cl  Cl6  1  0.53920200  0.03854700  0.17225200  1
  Cl  Cl7  1  0.03920200  0.96145300  0.32774800  1
  O  O0  1  0.11013400  0.17511100  0.99516900  1
  O  O1  1  0.38986600  0.17511100  0.49516900  1
  O  O2  1  0.54403900  0.57503500  0.70931200  1
  O  O3  1  0.95596100  0.07503500  0.79068800  1
  O  O4  1  0.09623600  0.60018100  0.38170000  1
  O  O5  1  0.97365300  0.89201400  0.66384900  1
  O  O6  1  0.81071300  0.07950900  0.61837600  1
  O  O7  1  0.38986600  0.67511100  0.50483100  1
  O  O8  1  0.18928700  0.92049100  0.38162400  1
  O  O9  1  0.31071300  0.92049100  0.88162400  1
  O  O10  1  0.04403900  0.42496500  0.79068800  1
  O  O11  1  0.02634700  0.60798600  0.66384900  1
  O  O12  1  0.97365300  0.39201400  0.33615100  1
  O  O13  1  0.59623600  0.89981900  0.88170000  1
  O  O14  1  0.88986600  0.32488900  0.99516900  1
  O  O15  1  0.52634700  0.39201400  0.83615100  1
  O  O16  1  0.40376400  0.60018100  0.88170000  1
  O  O17  1  0.09623600  0.10018100  0.61830000  1
  O  O18  1  0.47365300  0.10798600  0.83615100  1
  O  O19  1  0.52634700  0.89201400  0.16384900  1
  O  O20  1  0.68928700  0.57950900  0.88162400  1
  O  O21  1  0.68928700  0.07950900  0.11837600  1
  O  O22  1  0.04403900  0.92496500  0.20931200  1
  O  O23  1  0.45596100  0.42496500  0.29068800  1
  O  O24  1  0.31071300  0.42049100  0.11837600  1
  O  O25  1  0.54403900  0.07503500  0.29068800  1
  O  O26  1  0.95596100  0.57503500  0.20931200  1
  O  O27  1  0.59623600  0.39981900  0.11830000  1
  O  O28  1  0.40376400  0.10018100  0.11830000  1
  O  O29  1  0.90376400  0.39981900  0.61830000  1
  O  O30  1  0.47365300  0.60798600  0.16384900  1
  O  O31  1  0.88986600  0.82488900  0.00483100  1
  O  O32  1  0.11013400  0.67511100  0.00483100  1
  O  O33  1  0.81071300  0.57950900  0.38162400  1
  O  O34  1  0.18928700  0.42049100  0.61837600  1
  O  O35  1  0.61013400  0.32488900  0.49516900  1
  O  O36  1  0.02634700  0.10798600  0.33615100  1
  O  O37  1  0.61013400  0.82488900  0.50483100  1
  O  O38  1  0.90376400  0.89981900  0.38170000  1
  O  O39  1  0.45596100  0.92496500  0.70931200  1
loop_
_geom_bond_atom_site_label_1
_geom_bond_atom_site_label_2
_geom_bond_distance
_geom_bond_site_symmetry_2
H0 N5 1.048621 1_555
H2 N2 1.050614 1_555
H5 N6 1.048621 1_555
H6 N3 1.047406 1_555
H7 N2 1.048621 1_555
H8 N3 1.050614 1_555
H9 N4 1.047406 1_555
H10 N1 1.048621 1_555
H11 N1 1.050614 1_555
H14 N7 1.050614 1_555
H15 N5 1.050614 1_555
H16 N7 1.047406 1_555
H17 N1 1.047406 1_555
H18 N0 1.050614 1_555
H19 N0 1.047406 1_555
H20 N6 1.047406 1_555
H21 N4 1.050614 1_555
H25 N4 1.048621 1_555
H26 N0 1.048621 1_555
H27 N3 1.048621 1_555
H28 N6 1.050614 1_555
H29 N2 1.047406 1_555
H30 N7 1.048621 1_555
H31 N5 1.047406 1_555
C0 H12 1.098122 1_555
C0 H4 1.098122 1_455
C0 O32 1.425167 1_556
C0 O31 1.425167 1_456
C1 H24 1.098122 1_555
C1 H22 1.098122 1_555
C1 O37 1.425167 1_555
C1 O7 1.425167 1_555
C2 H13 1.098122 1_555
C2 H3 1.098122 1_555
C2 O35 1.425167 1_555
C2 O1 1.425167 1_555
C3 H23 1.098122 1_555
C3 H1 1.098122 1_455
C3 O0 1.425167 1_554
C3 O14 1.425167 1_454
N0 O32 1.435147 1_555
N1 O14 1.435147 1_555
N2 O7 1.435147 1_555
N3 O37 1.435147 1_555
N4 O31 1.435147 1_555
N5 O1 1.435147 1_555
N6 O35 1.435147 1_555
N7 O0 1.435147 1_555
Cl0 O4 1.443760 1_655
Cl0 O26 1.462445 1_555
Cl0 O33 1.471017 1_555
Cl0 O12 1.475458 1_555
Cl1 O16 1.443760 1_555
Cl1 O2 1.462445 1_555
Cl1 O20 1.471017 1_555
Cl1 O15 1.475458 1_555
Cl2 O29 1.443760 1_455
Cl2 O10 1.462445 1_555
Cl2 O34 1.471017 1_555
Cl2 O11 1.475458 1_555
Cl3 O27 1.443760 1_555
Cl3 O23 1.462445 1_555
Cl3 O24 1.471017 1_555
Cl3 O30 1.475458 1_555
Cl4 O13 1.443760 1_555
Cl4 O39 1.462445 1_555
Cl4 O9 1.471017 1_555
Cl4 O18 1.475458 1_565
Cl5 O17 1.443760 1_655
Cl5 O3 1.462445 1_555
Cl5 O6 1.471017 1_555
Cl5 O5 1.475458 1_545
Cl6 O28 1.443760 1_555
Cl6 O25 1.462445 1_555
Cl6 O21 1.471017 1_555
Cl6 O19 1.475458 1_545
Cl7 O38 1.443760 1_455
Cl7 O22 1.462445 1_555
Cl7 O8 1.471017 1_555
Cl7 O36 1.475458 1_565
