# generated using pymatgen
data_Lu(PO3)3
_symmetry_space_group_name_H-M   'P 1'
_cell_length_a   7.72402759
_cell_length_b   7.72402759
_cell_length_c   9.89370054
_cell_angle_alpha   56.90649468
_cell_angle_beta   56.90649468
_cell_angle_gamma   51.15440732
_symmetry_Int_Tables_number   1
_chemical_formula_structural   Lu(PO3)3
_chemical_formula_sum   'Lu2 P6 O18'
_cell_volume   365.92735948
_cell_formula_units_Z   2
loop_
 _symmetry_equiv_pos_site_id
 _symmetry_equiv_pos_as_xyz
  1  'x, y, z'
loop_
 _atom_site_type_symbol
 _atom_site_label
 _atom_site_symmetry_multiplicity
 _atom_site_fract_x
 _atom_site_fract_y
 _atom_site_fract_z
 _atom_site_occupancy
  Lu  Lu0  1  0.60726261  0.13700948  0.35529769  1
  Lu  Lu1  1  0.13700948  0.60726261  0.85529769  1
  P  P0  1  0.55452931  0.70441998  0.08352823  1
  P  P1  1  0.10868989  0.93224420  0.02297717  1
  P  P2  1  0.93224420  0.10868989  0.52297717  1
  P  P3  1  0.11842118  0.32593216  0.68941048  1
  P  P4  1  0.70441998  0.55452931  0.58352823  1
  P  P5  1  0.32593216  0.11842118  0.18941048  1
  O  O0  1  0.95898894  0.99271083  0.18341500  1
  O  O1  1  0.37168560  0.86018357  0.98288013  1
  O  O2  1  0.87522256  0.50795273  0.65469007  1
  O  O3  1  0.16481227  0.03774857  0.37242390  1
  O  O4  1  0.78918193  0.64770319  0.95571264  1
  O  O5  1  0.99271083  0.95898894  0.68341500  1
  O  O6  1  0.10627145  0.75455967  0.00578017  1
  O  O7  1  0.75455967  0.10627145  0.50578017  1
  O  O8  1  0.51058490  0.50841925  0.22857505  1
  O  O9  1  0.50795273  0.87522256  0.15469007  1
  O  O10  1  0.86018357  0.37168560  0.48288013  1
  O  O11  1  0.28273254  0.19446198  0.56478747  1
  O  O12  1  0.19616984  0.45150134  0.69842301  1
  O  O13  1  0.64770319  0.78918193  0.45571264  1
  O  O14  1  0.50841925  0.51058490  0.72857505  1
  O  O15  1  0.03774857  0.16481227  0.87242390  1
  O  O16  1  0.45150134  0.19616984  0.19842301  1
  O  O17  1  0.19446198  0.28273254  0.06478747  1
loop_
_geom_bond_atom_site_label_1
_geom_bond_atom_site_label_2
_geom_bond_distance
_geom_bond_site_symmetry_2
Lu0 O16 2.154107 1_555
Lu0 O13 2.161941 1_545
Lu0 O7 2.166168 1_555
Lu0 O11 2.170637 1_555
Lu0 O0 2.177406 1_545
Lu0 O8 2.183295 1_555
Lu1 O12 2.154107 1_555
Lu1 O4 2.161941 1_455
Lu1 O6 2.166168 1_556
Lu1 O17 2.170637 1_556
Lu1 O5 2.177406 1_455
Lu1 O14 2.183295 1_555
O0 P1 1.484103 1_655
O1 P0 1.590470 1_556
O1 P1 1.592625 1_556
O2 P3 1.577201 1_655
O2 P4 1.583653 1_555
O3 P2 1.574941 1_455
O3 P5 1.579740 1_555
O4 P0 1.477198 1_556
O5 P2 1.484103 1_565
O6 P1 1.484425 1_555
O7 P2 1.484425 1_555
O8 P0 1.485520 1_555
O9 P5 1.577201 1_565
O9 P0 1.583653 1_555
O10 P4 1.590470 1_555
O10 P2 1.592625 1_555
O11 P3 1.484557 1_555
O12 P3 1.480835 1_555
O13 P4 1.477198 1_555
O14 P4 1.485520 1_555
O15 P1 1.574941 1_546
O15 P3 1.579740 1_555
O16 P5 1.480835 1_555
O17 P5 1.484557 1_555
