# generated using pymatgen
data_Tl2Cu(SO3)2
_symmetry_space_group_name_H-M   'P 1'
_cell_length_a   5.60218449
_cell_length_b   5.60218449
_cell_length_c   7.47928898
_cell_angle_alpha   68.21967160
_cell_angle_beta   68.21967160
_cell_angle_gamma   55.57468089
_symmetry_Int_Tables_number   1
_chemical_formula_structural   Tl2Cu(SO3)2
_chemical_formula_sum   'Tl2 Cu1 S2 O6'
_cell_volume   175.77015176
_cell_formula_units_Z   1
loop_
 _symmetry_equiv_pos_site_id
 _symmetry_equiv_pos_as_xyz
  1  'x, y, z'
loop_
 _atom_site_type_symbol
 _atom_site_label
 _atom_site_symmetry_multiplicity
 _atom_site_fract_x
 _atom_site_fract_y
 _atom_site_fract_z
 _atom_site_occupancy
  Tl  Tl0  1  0.29686800  0.29686800  0.62675100  1
  Tl  Tl1  1  0.70313200  0.70313200  0.37324900  1
  Cu  Cu0  1  0.50000000  0.50000000  0.00000000  1
  S  S0  1  0.12192500  0.12192500  0.10454400  1
  S  S1  1  0.87807500  0.87807500  0.89545600  1
  O  O0  1  0.78028700  0.78028700  0.78310500  1
  O  O1  1  0.74668400  0.21883800  0.81387900  1
  O  O2  1  0.21971300  0.21971300  0.21689500  1
  O  O3  1  0.78116200  0.25331600  0.18612100  1
  O  O4  1  0.21883800  0.74668400  0.81387900  1
  O  O5  1  0.25331600  0.78116200  0.18612100  1
loop_
_geom_bond_atom_site_label_1
_geom_bond_atom_site_label_2
_geom_bond_distance
_geom_bond_site_symmetry_2
Cu0 O4 2.016680 1_554
Cu0 O1 2.016680 1_554
Cu0 O3 2.016680 1_555
Cu0 O5 2.016680 1_555
Cu0 O0 2.563186 1_554
Cu0 O2 2.563186 1_555
O0 S1 1.526075 1_555
O0 Tl0 2.838000 1_655
O0 Tl0 2.838000 1_565
O1 S1 1.561585 1_545
O2 S0 1.526075 1_555
O2 Tl1 2.838000 1_455
O2 Tl1 2.838000 1_545
O3 S0 1.561585 1_655
O4 S1 1.561585 1_455
O5 S0 1.561585 1_565
