# generated using pymatgen
data_Cs4PbO4
_symmetry_space_group_name_H-M   'P 1'
_cell_length_a   7.42394384
_cell_length_b   11.80531539
_cell_length_c   11.90220267
_cell_angle_alpha   68.83387966
_cell_angle_beta   90.00000000
_cell_angle_gamma   90.00000000
_symmetry_Int_Tables_number   1
_chemical_formula_structural   Cs4PbO4
_chemical_formula_sum   'Cs16 Pb4 O16'
_cell_volume   972.76044889
_cell_formula_units_Z   4
loop_
 _symmetry_equiv_pos_site_id
 _symmetry_equiv_pos_as_xyz
  1  'x, y, z'
loop_
 _atom_site_type_symbol
 _atom_site_label
 _atom_site_symmetry_multiplicity
 _atom_site_fract_x
 _atom_site_fract_y
 _atom_site_fract_z
 _atom_site_occupancy
  Cs  Cs0  1  0.41564536  0.70368043  0.93785372  1
  Cs  Cs1  1  0.33276034  0.10755240  0.37060315  1
  Cs  Cs2  1  0.91564536  0.79631957  0.06214628  1
  Cs  Cs3  1  0.83276034  0.39244760  0.62939685  1
  Cs  Cs4  1  0.66723966  0.89244760  0.62939685  1
  Cs  Cs5  1  0.81888493  0.20857535  0.42319201  1
  Cs  Cs6  1  0.31888493  0.29142465  0.57680799  1
  Cs  Cs7  1  0.88805332  0.58085982  0.84175468  1
  Cs  Cs8  1  0.38805332  0.91914018  0.15824532  1
  Cs  Cs9  1  0.61194668  0.08085982  0.84175468  1
  Cs  Cs10  1  0.58435464  0.29631957  0.06214628  1
  Cs  Cs11  1  0.68111507  0.70857535  0.42319201  1
  Cs  Cs12  1  0.08435464  0.20368043  0.93785372  1
  Cs  Cs13  1  0.11194668  0.41914018  0.15824532  1
  Cs  Cs14  1  0.16723966  0.60755240  0.37060315  1
  Cs  Cs15  1  0.18111507  0.79142465  0.57680799  1
  Pb  Pb0  1  0.37544543  0.49142185  0.76013576  1
  Pb  Pb1  1  0.87544543  0.00857815  0.23986424  1
  Pb  Pb2  1  0.12455457  0.99142185  0.76013576  1
  Pb  Pb3  1  0.62455457  0.50857815  0.23986424  1
  O  O0  1  0.48557708  0.67075657  0.21185999  1
  O  O1  1  0.33563469  0.01210482  0.63737970  1
  O  O2  1  0.51442292  0.32924343  0.78814001  1
  O  O3  1  0.01442292  0.17075657  0.21185999  1
  O  O4  1  0.16436531  0.51210482  0.63737970  1
  O  O5  1  0.53691252  0.64721400  0.68860661  1
  O  O6  1  0.03691252  0.85278600  0.31139339  1
  O  O7  1  0.96308748  0.14721400  0.68860661  1
  O  O8  1  0.66436531  0.98789518  0.36262030  1
  O  O9  1  0.23604753  0.97251878  0.92705845  1
  O  O10  1  0.76395247  0.02748122  0.07294155  1
  O  O11  1  0.46308748  0.35278600  0.31139339  1
  O  O12  1  0.73604753  0.52748122  0.07294155  1
  O  O13  1  0.26395247  0.47251878  0.92705845  1
  O  O14  1  0.83563469  0.48789518  0.36262030  1
  O  O15  1  0.98557708  0.82924343  0.78814001  1
loop_
_geom_bond_atom_site_label_1
_geom_bond_atom_site_label_2
_geom_bond_distance
_geom_bond_site_symmetry_2
Cs0 O13 2.997507 1_555
Cs0 O0 3.184519 1_556
Cs0 O12 3.186644 1_556
Cs0 O5 3.388745 1_555
Cs0 O9 3.401807 1_555
Cs0 O15 3.695813 1_455
Cs1 O8 2.856905 1_545
Cs1 O11 2.888045 1_555
Cs1 O3 2.948519 1_555
Cs1 O1 2.961162 1_555
Cs2 O10 2.997507 1_565
Cs2 O15 3.184519 1_554
Cs2 O9 3.186644 1_654
Cs2 O6 3.388745 1_655
Cs2 O12 3.401807 1_555
Cs2 O0 3.695813 1_555
Cs3 O4 2.856905 1_655
Cs3 O7 2.888045 1_555
Cs3 O2 2.948519 1_555
Cs3 O14 2.961162 1_555
Cs4 O1 2.856905 1_565
Cs4 O5 2.888045 1_555
Cs4 O15 2.948519 1_555
Cs4 O8 2.961162 1_555
Cs5 O3 3.073181 1_655
Cs5 O14 3.113152 1_555
Cs5 O8 3.158968 1_545
Cs5 O7 3.161912 1_555
Cs5 O11 3.163882 1_555
Cs6 O2 3.073181 1_555
Cs6 O1 3.113152 1_555
Cs6 O4 3.158968 1_555
Cs6 O11 3.161912 1_555
Cs6 O7 3.163882 1_455
Cs7 O12 2.826638 1_556
Cs7 O15 2.859759 1_555
Cs7 O13 3.084910 1_655
Cs7 O5 3.114603 1_555
Cs7 O4 3.494235 1_655
Cs8 O9 2.826638 1_554
Cs8 O0 2.859759 1_555
Cs8 O10 3.084910 1_565
Cs8 O6 3.114603 1_555
Cs8 O8 3.494235 1_555
Cs9 O10 2.826638 1_556
Cs9 O2 2.859759 1_555
Cs9 O9 3.084910 1_545
Cs9 O7 3.114603 1_555
Cs9 O1 3.494235 1_555
Cs10 O12 2.997507 1_555
Cs10 O2 3.184519 1_554
Cs10 O13 3.186644 1_554
Cs10 O11 3.388745 1_555
Cs10 O10 3.401807 1_555
Cs10 O3 3.695813 1_655
Cs11 O0 3.073181 1_555
Cs11 O8 3.113152 1_555
Cs11 O14 3.158968 1_555
Cs11 O5 3.161912 1_555
Cs11 O6 3.163882 1_655
Cs12 O9 2.997507 1_545
Cs12 O3 3.184519 1_556
Cs12 O10 3.186644 1_456
Cs12 O7 3.388745 1_455
Cs12 O13 3.401807 1_555
Cs12 O2 3.695813 1_555
Cs13 O13 2.826638 1_554
Cs13 O3 2.859759 1_555
Cs13 O12 3.084910 1_455
Cs13 O11 3.114603 1_555
Cs13 O14 3.494235 1_455
Cs14 O14 2.856905 1_455
Cs14 O6 2.888045 1_555
Cs14 O0 2.948519 1_555
Cs14 O4 2.961162 1_555
Cs15 O15 3.073181 1_455
Cs15 O4 3.113152 1_555
Cs15 O1 3.158968 1_565
Cs15 O6 3.161912 1_555
Cs15 O5 3.163882 1_555
O0 Pb3 2.092931 1_555
O1 Pb2 2.095793 1_545
O2 Pb0 2.092931 1_555
O3 Pb1 2.092931 1_455
O4 Pb0 2.095793 1_555
O5 Pb0 2.100851 1_555
O6 Pb1 2.100851 1_465
O7 Pb2 2.100851 1_645
O8 Pb1 2.095793 1_565
O9 Pb2 2.088519 1_555
O10 Pb1 2.088519 1_555
O11 Pb3 2.100851 1_555
O12 Pb3 2.088519 1_555
O13 Pb0 2.088519 1_555
O14 Pb3 2.095793 1_555
O15 Pb2 2.092931 1_655
