# generated using pymatgen
data_CsVSO6
_symmetry_space_group_name_H-M   'P 1'
_cell_length_a   14.82277800
_cell_length_b   9.09499500
_cell_length_c   9.51236075
_cell_angle_alpha   81.54462902
_cell_angle_beta   90.00000000
_cell_angle_gamma   90.00000000
_symmetry_Int_Tables_number   1
_chemical_formula_structural   CsVSO6
_chemical_formula_sum   'Cs8 V8 S8 O48'
_cell_volume   1268.45206669
_cell_formula_units_Z   8
loop_
 _symmetry_equiv_pos_site_id
 _symmetry_equiv_pos_as_xyz
  1  'x, y, z'
loop_
 _atom_site_type_symbol
 _atom_site_label
 _atom_site_symmetry_multiplicity
 _atom_site_fract_x
 _atom_site_fract_y
 _atom_site_fract_z
 _atom_site_occupancy
  Cs  Cs0  1  0.60149200  0.27487800  0.58792000  1
  Cs  Cs1  1  0.10149200  0.72512200  0.91208000  1
  Cs  Cs2  1  0.39850800  0.72512200  0.41208000  1
  Cs  Cs3  1  0.55400800  0.17875800  0.13280700  1
  Cs  Cs4  1  0.44599200  0.82124200  0.86719300  1
  Cs  Cs5  1  0.94599200  0.17875800  0.63280700  1
  Cs  Cs6  1  0.05400800  0.82124200  0.36719300  1
  Cs  Cs7  1  0.89850800  0.27487800  0.08792000  1
  V  V0  1  0.22096900  0.42128500  0.58443100  1
  V  V1  1  0.27903100  0.42128500  0.08443100  1
  V  V2  1  0.82743100  0.77173400  0.11842600  1
  V  V3  1  0.67256900  0.77173400  0.61842600  1
  V  V4  1  0.77903100  0.57871500  0.41556900  1
  V  V5  1  0.72096900  0.57871500  0.91556900  1
  V  V6  1  0.32743100  0.22826600  0.38157400  1
  V  V7  1  0.17256900  0.22826600  0.88157400  1
  S  S0  1  0.39644200  0.38530900  0.80181600  1
  S  S1  1  0.60355800  0.61469100  0.19818400  1
  S  S2  1  0.28035100  0.01577900  0.14625900  1
  S  S3  1  0.21964900  0.01577900  0.64625900  1
  S  S4  1  0.89644200  0.61469100  0.69818400  1
  S  S5  1  0.10355800  0.38530900  0.30181600  1
  S  S6  1  0.71964900  0.98422100  0.85374100  1
  S  S7  1  0.78035100  0.98422100  0.35374100  1
  O  O0  1  0.12585900  0.44872500  0.43908200  1
  O  O1  1  0.56427600  0.49503800  0.29786100  1
  O  O2  1  0.69465000  0.66301700  0.25238900  1
  O  O3  1  0.72264900  0.40727900  0.88653500  1
  O  O4  1  0.80535000  0.66301700  0.75238900  1
  O  O5  1  0.69057100  0.59399500  0.54122500  1
  O  O6  1  0.27622800  0.05897100  0.29649400  1
  O  O7  1  0.45303200  0.25427300  0.83609100  1
  O  O8  1  0.43572400  0.50496200  0.70213900  1
  O  O9  1  0.19465000  0.33698300  0.24761100  1
  O  O10  1  0.19057100  0.40600500  0.95877500  1
  O  O11  1  0.30535000  0.33698300  0.74761100  1
  O  O12  1  0.76450200  0.84092600  0.45798600  1
  O  O13  1  0.77735100  0.40727900  0.38653500  1
  O  O14  1  0.26450200  0.15907400  0.04201400  1
  O  O15  1  0.87414100  0.55127500  0.56091800  1
  O  O16  1  0.22377200  0.05897100  0.79649400  1
  O  O17  1  0.37110100  0.96144400  0.12281500  1
  O  O18  1  0.87110100  0.03855600  0.37718500  1
  O  O19  1  0.37414100  0.44872500  0.93908200  1
  O  O20  1  0.36425900  0.31989700  0.21364300  1
  O  O21  1  0.62585900  0.55127500  0.06091800  1
  O  O22  1  0.86425900  0.68010300  0.28635700  1
  O  O23  1  0.12889900  0.96144400  0.62281500  1
  O  O24  1  0.57890600  0.84115700  0.54788400  1
  O  O25  1  0.63574100  0.68010300  0.78635700  1
  O  O26  1  0.73549800  0.84092600  0.95798600  1
  O  O27  1  0.93572400  0.49503800  0.79786100  1
  O  O28  1  0.29232400  0.91052200  0.63618100  1
  O  O29  1  0.95303200  0.74572700  0.66390900  1
  O  O30  1  0.42109400  0.15884300  0.45211600  1
  O  O31  1  0.06427600  0.50496200  0.20213900  1
  O  O32  1  0.27735100  0.59272100  0.11346500  1
  O  O33  1  0.54696800  0.74572700  0.16390900  1
  O  O34  1  0.92109400  0.84115700  0.04788400  1
  O  O35  1  0.30942900  0.40600500  0.45877500  1
  O  O36  1  0.77622800  0.94102900  0.20350600  1
  O  O37  1  0.80942900  0.59399500  0.04122500  1
  O  O38  1  0.23549800  0.15907400  0.54201400  1
  O  O39  1  0.04696800  0.25427300  0.33609100  1
  O  O40  1  0.13574100  0.31989700  0.71364300  1
  O  O41  1  0.79232400  0.08947800  0.86381900  1
  O  O42  1  0.72377200  0.94102900  0.70350600  1
  O  O43  1  0.22264900  0.59272100  0.61346500  1
  O  O44  1  0.07890600  0.15884300  0.95211600  1
  O  O45  1  0.62889900  0.03855600  0.87718500  1
  O  O46  1  0.70767600  0.08947800  0.36381900  1
  O  O47  1  0.20767600  0.91052200  0.13618100  1
loop_
_geom_bond_atom_site_label_1
_geom_bond_atom_site_label_2
_geom_bond_distance
_geom_bond_site_symmetry_2
Cs0 O5 3.159963 1_555
Cs0 O1 3.209657 1_555
Cs0 O7 3.212551 1_555
Cs0 O30 3.214610 1_555
Cs0 O45 3.258340 1_555
Cs0 O46 3.304838 1_555
Cs0 O13 3.352070 1_555
Cs0 O8 3.502236 1_555
Cs0 O42 3.568170 1_545
Cs0 O3 3.708072 1_555
Cs1 O10 3.159963 1_555
Cs1 O31 3.209657 1_556
Cs1 O29 3.212551 1_455
Cs1 O34 3.214610 1_456
Cs1 O23 3.258340 1_555
Cs1 O47 3.304838 1_556
Cs1 O32 3.352070 1_556
Cs1 O27 3.502236 1_455
Cs1 O16 3.568170 1_565
Cs1 O43 3.708072 1_555
Cs2 O35 3.159963 1_555
Cs2 O8 3.209657 1_555
Cs2 O33 3.212551 1_555
Cs2 O24 3.214610 1_555
Cs2 O17 3.258340 1_555
Cs2 O28 3.304838 1_555
Cs2 O43 3.352070 1_555
Cs2 O1 3.502236 1_555
Cs2 O6 3.568170 1_565
Cs2 O32 3.708072 1_555
Cs3 O45 3.111691 1_554
Cs3 O7 3.179342 1_554
Cs3 O46 3.186188 1_555
Cs3 O20 3.231112 1_555
Cs3 O17 3.364708 1_545
Cs3 O1 3.477214 1_555
Cs3 O21 3.521278 1_555
Cs3 O30 3.602530 1_555
Cs4 O17 3.111691 1_556
Cs4 O33 3.179342 1_556
Cs4 O28 3.186188 1_555
Cs4 O25 3.231112 1_555
Cs4 O45 3.364708 1_565
Cs4 O8 3.477214 1_555
Cs4 O19 3.521278 1_555
Cs4 O24 3.602530 1_555
Cs5 O18 3.111691 1_555
Cs5 O39 3.179342 1_655
Cs5 O41 3.186188 1_555
Cs5 O40 3.231112 1_655
Cs5 O23 3.364708 1_645
Cs5 O27 3.477214 1_555
Cs5 O15 3.521278 1_555
Cs5 O44 3.602530 1_655
Cs6 O23 3.111691 1_555
Cs6 O29 3.179342 1_455
Cs6 O47 3.186188 1_555
Cs6 O22 3.231112 1_455
Cs6 O18 3.364708 1_465
Cs6 O31 3.477214 1_555
Cs6 O0 3.521278 1_555
Cs6 O34 3.602530 1_455
Cs7 O37 3.159963 1_555
Cs7 O27 3.209657 1_554
Cs7 O39 3.212551 1_655
Cs7 O44 3.214610 1_654
Cs7 O18 3.258340 1_555
Cs7 O41 3.304838 1_554
Cs7 O3 3.352070 1_554
Cs7 O31 3.502236 1_655
Cs7 O36 3.568170 1_545
Cs7 O13 3.708072 1_555
O0 S5 1.538934 1_555
O0 V0 1.964675 1_555
O1 S1 1.455639 1_555
O2 S1 1.532589 1_555
O2 V4 2.052240 1_555
O2 V2 2.470778 1_555
O3 V5 1.623166 1_555
O4 S4 1.532589 1_555
O4 V5 2.052240 1_555
O4 V3 2.470778 1_555
O5 V4 1.793370 1_555
O5 V3 1.890182 1_555
O6 S2 1.537999 1_555
O6 V6 1.992052 1_555
O7 S0 1.454638 1_555
O8 S0 1.455639 1_555
O9 S5 1.532589 1_555
O9 V1 2.052240 1_555
O9 V6 2.470778 1_555
O10 V1 1.793370 1_556
O10 V7 1.890182 1_555
O11 S0 1.532589 1_555
O11 V0 2.052240 1_555
O11 V7 2.470778 1_555
O12 S7 1.535236 1_555
O12 V3 2.073575 1_555
O12 V4 2.485852 1_555
O13 V4 1.623166 1_555
O14 S2 1.535236 1_555
O14 V7 2.073575 1_554
O14 V1 2.485852 1_555
O15 S4 1.538934 1_555
O15 V4 1.964675 1_555
O16 S3 1.537999 1_555
O16 V7 1.992052 1_555
O17 S2 1.461447 1_565
O18 S7 1.461447 1_545
O19 S0 1.538934 1_555
O19 V1 1.964675 1_556
O20 V6 1.775608 1_555
O20 V1 1.903598 1_555
O21 S1 1.538934 1_555
O21 V5 1.964675 1_554
O22 V2 1.775608 1_555
O22 V4 1.903598 1_555
O23 S3 1.461447 1_565
O24 V3 1.628449 1_555
O25 V3 1.775608 1_555
O25 V5 1.903598 1_555
O26 S6 1.535236 1_555
O26 V2 2.073575 1_556
O26 V5 2.485852 1_555
O27 S4 1.455639 1_555
O28 S3 1.453645 1_565
O29 S4 1.454638 1_555
O30 V6 1.628449 1_555
O31 S5 1.455639 1_555
O32 V1 1.623166 1_555
O33 S1 1.454638 1_555
O34 V2 1.628449 1_555
O35 V0 1.793370 1_555
O35 V6 1.890182 1_555
O36 S7 1.537999 1_555
O36 V2 1.992052 1_555
O37 V5 1.793370 1_554
O37 V2 1.890182 1_555
O38 S3 1.535236 1_555
O38 V6 2.073575 1_555
O38 V0 2.485852 1_555
O39 S5 1.454638 1_555
O40 V7 1.775608 1_555
O40 V0 1.903598 1_555
O41 S6 1.453645 1_545
O42 S6 1.537999 1_555
O42 V3 1.992052 1_555
O43 V0 1.623166 1_555
O44 V7 1.628449 1_555
O45 S6 1.461447 1_545
O46 S7 1.453645 1_545
O47 S2 1.453645 1_565
