# generated using pymatgen
data_Sr9Zn4(CuO7)2
_symmetry_space_group_name_H-M   'P 1'
_cell_length_a   11.34001112
_cell_length_b   11.34001112
_cell_length_c   11.43249847
_cell_angle_alpha   81.51830859
_cell_angle_beta   81.51830859
_cell_angle_gamma   18.51500443
_symmetry_Int_Tables_number   1
_chemical_formula_structural   Sr9Zn4(CuO7)2
_chemical_formula_sum   'Sr9 Zn4 Cu2 O14'
_cell_volume   461.61505463
_cell_formula_units_Z   1
loop_
 _symmetry_equiv_pos_site_id
 _symmetry_equiv_pos_as_xyz
  1  'x, y, z'
loop_
 _atom_site_type_symbol
 _atom_site_label
 _atom_site_symmetry_multiplicity
 _atom_site_fract_x
 _atom_site_fract_y
 _atom_site_fract_z
 _atom_site_occupancy
  Sr  Sr0  1  0.69355000  0.69355000  0.42980100  1
  Sr  Sr1  1  0.68724900  0.68724900  0.10220500  1
  Sr  Sr2  1  0.68647100  0.68647100  0.77485300  1
  Sr  Sr3  1  0.31352900  0.31352900  0.22514700  1
  Sr  Sr4  1  0.50946700  0.50946700  0.19242300  1
  Sr  Sr5  1  0.50000000  0.50000000  0.50000000  1
  Sr  Sr6  1  0.30645000  0.30645000  0.57019900  1
  Sr  Sr7  1  0.49053300  0.49053300  0.80757700  1
  Sr  Sr8  1  0.31275100  0.31275100  0.89779500  1
  Zn  Zn0  1  0.88966300  0.88966300  0.70268400  1
  Zn  Zn1  1  0.89746800  0.89746800  0.03898200  1
  Zn  Zn2  1  0.10253200  0.10253200  0.96101800  1
  Zn  Zn3  1  0.11033700  0.11033700  0.29731600  1
  Cu  Cu0  1  0.10647200  0.10647200  0.62404700  1
  Cu  Cu1  1  0.89352800  0.89352800  0.37595300  1
  O  O0  1  0.20303300  0.20303300  0.26889600  1
  O  O1  1  0.80282800  0.80282800  0.07008200  1
  O  O2  1  0.97515800  0.97515800  0.35027200  1
  O  O3  1  0.08803200  0.08803200  0.13553800  1
  O  O4  1  0.80954300  0.80954300  0.40148600  1
  O  O5  1  0.59377000  0.59377000  0.35935500  1
  O  O6  1  0.19717200  0.19717200  0.92991800  1
  O  O7  1  0.79696700  0.79696700  0.73110400  1
  O  O8  1  0.41899500  0.41899500  0.09403100  1
  O  O9  1  0.19045700  0.19045700  0.59851400  1
  O  O10  1  0.02484200  0.02484200  0.64972800  1
  O  O11  1  0.58100500  0.58100500  0.90596900  1
  O  O12  1  0.91196800  0.91196800  0.86446200  1
  O  O13  1  0.40623000  0.40623000  0.64064500  1
loop_
_geom_bond_atom_site_label_1
_geom_bond_atom_site_label_2
_geom_bond_distance
_geom_bond_site_symmetry_2
Cu0 O10 1.806855 1_555
Cu0 O9 1.858894 1_555
Cu1 O2 1.806855 1_555
Cu1 O4 1.858894 1_555
O0 Zn3 2.051718 1_555
O0 Sr3 2.449118 1_555
O0 Sr0 2.576880 1_545
O0 Sr0 2.576880 1_455
O0 Sr1 2.699217 1_545
O0 Sr1 2.699217 1_455
O1 Zn1 2.095054 1_555
O1 Sr1 2.558214 1_555
O1 Sr3 2.579743 1_565
O1 Sr3 2.579743 1_655
O1 Sr8 2.669495 1_564
O1 Sr8 2.669495 1_654
O2 Sr4 2.600044 1_655
O2 Sr4 2.600044 1_565
O2 Sr5 2.617611 1_655
O2 Sr5 2.617611 1_565
O3 Zn2 1.972972 1_554
O3 Zn3 1.986464 1_555
O3 Sr4 2.549897 1_455
O3 Sr4 2.549897 1_545
O3 Sr1 2.855318 1_545
O3 Sr1 2.855318 1_455
O4 Sr0 2.568109 1_555
O4 Sr6 2.648248 1_565
O4 Sr6 2.648248 1_655
O4 Sr3 2.710436 1_655
O4 Sr3 2.710436 1_565
O5 Zn3 1.972306 1_565
O5 Zn3 1.972306 1_655
O5 Sr5 2.445918 1_555
O5 Sr0 2.484945 1_555
O5 Sr4 2.877444 1_555
O6 Zn2 2.095054 1_555
O6 Sr8 2.558214 1_555
O6 Sr2 2.579743 1_455
O6 Sr2 2.579743 1_545
O6 Sr1 2.669495 1_456
O6 Sr1 2.669495 1_546
O7 Zn0 2.051718 1_555
O7 Sr2 2.449118 1_555
O7 Sr6 2.576880 1_655
O7 Sr6 2.576880 1_565
O7 Sr8 2.699217 1_565
O7 Sr8 2.699217 1_655
O8 Zn1 2.011703 1_455
O8 Zn1 2.011703 1_545
O8 Sr4 2.459177 1_555
O8 Sr3 2.600524 1_555
O9 Sr6 2.568109 1_555
O9 Sr0 2.648248 1_545
O9 Sr0 2.648248 1_455
O9 Sr2 2.710436 1_545
O9 Sr2 2.710436 1_455
O10 Sr7 2.600044 1_455
O10 Sr7 2.600044 1_545
O10 Sr5 2.617611 1_455
O10 Sr5 2.617611 1_545
O11 Zn2 2.011703 1_655
O11 Zn2 2.011703 1_565
O11 Sr7 2.459177 1_555
O11 Sr2 2.600524 1_555
O12 Zn1 1.972972 1_556
O12 Zn0 1.986464 1_555
O12 Sr7 2.549897 1_655
O12 Sr7 2.549897 1_565
O12 Sr8 2.855318 1_565
O12 Sr8 2.855318 1_655
O13 Zn0 1.972306 1_545
O13 Zn0 1.972306 1_455
O13 Sr5 2.445918 1_555
O13 Sr6 2.484945 1_555
O13 Sr7 2.877444 1_555
