# generated using pymatgen
data_LiUAsO6
_symmetry_space_group_name_H-M   'P 1'
_cell_length_a   5.17043100
_cell_length_b   5.43623447
_cell_length_c   10.12710774
_cell_angle_alpha   90.30572281
_cell_angle_beta   97.37318712
_cell_angle_gamma   104.32309717
_symmetry_Int_Tables_number   1
_chemical_formula_structural   LiUAsO6
_chemical_formula_sum   'Li2 U2 As2 O12'
_cell_volume   273.31715839
_cell_formula_units_Z   2
loop_
 _symmetry_equiv_pos_site_id
 _symmetry_equiv_pos_as_xyz
  1  'x, y, z'
loop_
 _atom_site_type_symbol
 _atom_site_label
 _atom_site_symmetry_multiplicity
 _atom_site_fract_x
 _atom_site_fract_y
 _atom_site_fract_z
 _atom_site_occupancy
  Li  Li0  1  0.94707800  0.55232500  0.22927000  1
  Li  Li1  1  0.05292200  0.44767500  0.77073000  1
  U  U0  1  0.50000000  0.50000000  0.50000000  1
  U  U1  1  0.00000000  0.00000000  0.00000000  1
  As  As0  1  0.42459800  0.02317900  0.74258900  1
  As  As1  1  0.57540200  0.97682100  0.25741100  1
  O  O0  1  0.17898900  0.49013300  0.39684100  1
  O  O1  1  0.22778800  0.31030500  0.98642700  1
  O  O2  1  0.73761200  0.14489500  0.83370500  1
  O  O3  1  0.70142100  0.73467200  0.32610000  1
  O  O4  1  0.79870500  0.15955700  0.16154500  1
  O  O5  1  0.29857900  0.26532800  0.67390000  1
  O  O6  1  0.45932800  0.82767900  0.61746500  1
  O  O7  1  0.26238800  0.85510500  0.16629500  1
  O  O8  1  0.54067200  0.17232100  0.38253500  1
  O  O9  1  0.20129500  0.84044300  0.83845500  1
  O  O10  1  0.82101100  0.50986700  0.60315900  1
  O  O11  1  0.77221200  0.68969500  0.01357300  1
loop_
_geom_bond_atom_site_label_1
_geom_bond_atom_site_label_2
_geom_bond_distance
_geom_bond_site_symmetry_2
Li0 O0 2.028885 1_655
Li0 O3 2.118912 1_555
Li0 O4 2.157959 1_555
Li0 O7 2.173520 1_655
Li0 O11 2.447702 1_555
Li1 O10 2.028885 1_455
Li1 O5 2.118912 1_555
Li1 O9 2.157959 1_555
Li1 O2 2.173520 1_455
Li1 O1 2.447702 1_555
As0 O6 1.704659 1_545
As0 O5 1.720206 1_555
As0 O2 1.728840 1_555
As0 O9 1.730005 1_545
As1 O8 1.704659 1_565
As1 O3 1.720206 1_555
As1 O7 1.728840 1_555
As1 O4 1.730005 1_565
O0 U0 1.832869 1_555
O1 U1 1.820065 1_556
O2 U1 2.292073 1_656
O3 U0 2.377166 1_555
O4 U1 2.319608 1_655
O5 U0 2.377166 1_555
O6 U0 2.204412 1_555
O7 U1 2.292073 1_565
O8 U0 2.204412 1_555
O9 U1 2.319608 1_566
O10 U0 1.832869 1_555
O11 U1 1.820065 1_665
