# generated using pymatgen
data_KBa4Au(CO)4
_symmetry_space_group_name_H-M   'P 1'
_cell_length_a   8.90956854
_cell_length_b   8.90956854
_cell_length_c   8.90956854
_cell_angle_alpha   139.53898096
_cell_angle_beta   139.53898096
_cell_angle_gamma   58.55396376
_symmetry_Int_Tables_number   1
_chemical_formula_structural   KBa4Au(CO)4
_chemical_formula_sum   'K1 Ba4 Au1 C4 O4'
_cell_volume   295.06896744
_cell_formula_units_Z   1
loop_
 _symmetry_equiv_pos_site_id
 _symmetry_equiv_pos_as_xyz
  1  'x, y, z'
loop_
 _atom_site_type_symbol
 _atom_site_label
 _atom_site_symmetry_multiplicity
 _atom_site_fract_x
 _atom_site_fract_y
 _atom_site_fract_z
 _atom_site_occupancy
  K  K0  1  0.50000000  0.50000000  0.00000000  1
  Ba  Ba0  1  0.11801600  0.61801600  0.50000000  1
  Ba  Ba1  1  0.88198400  0.38198400  0.50000000  1
  Ba  Ba2  1  0.61801600  0.11801600  0.50000000  1
  Ba  Ba3  1  0.38198400  0.88198400  0.50000000  1
  Au  Au0  1  0.00000000  0.00000000  0.00000000  1
  C  C0  1  0.30912800  0.30912800  0.00000000  1
  C  C1  1  0.69087200  0.69087200  0.00000000  1
  C  C2  1  0.22741400  0.22741400  0.00000000  1
  C  C3  1  0.77258600  0.77258600  0.00000000  1
  O  O0  1  0.77040500  0.77040500  0.54081000  1
  O  O1  1  0.22959500  0.77040500  0.00000000  1
  O  O2  1  0.77040500  0.22959500  0.00000000  1
  O  O3  1  0.22959500  0.22959500  0.45919000  1
loop_
_geom_bond_atom_site_label_1
_geom_bond_atom_site_label_2
_geom_bond_distance
_geom_bond_site_symmetry_2
K0 O3 2.356344 1_554
K0 O0 2.356344 1_555
K0 O1 2.356344 1_555
K0 O2 2.356344 1_555
Ba0 O2 2.853484 1_455
Ba0 O0 2.853484 1_455
Ba0 O3 2.853484 1_555
Ba0 O1 2.853484 1_556
Ba0 C1 3.282429 1_556
Ba0 C1 3.282429 1_455
Ba0 C2 3.518989 1_555
Ba0 C2 3.518989 1_566
Ba1 O0 2.853484 1_555
Ba1 O3 2.853484 1_655
Ba1 O1 2.853484 1_656
Ba1 O2 2.853484 1_555
Ba1 C0 3.282429 1_555
Ba1 C0 3.282429 1_656
Ba1 C3 3.518989 1_545
Ba1 C3 3.518989 1_556
Ba2 O1 2.853484 1_545
Ba2 O0 2.853484 1_545
Ba2 O2 2.853484 1_556
Ba2 O3 2.853484 1_555
Ba2 C1 3.282429 1_545
Ba2 C1 3.282429 1_556
Ba2 C2 3.518989 1_555
Ba2 C2 3.518989 1_656
Ba3 O0 2.853484 1_555
Ba3 O2 2.853484 1_566
Ba3 O3 2.853484 1_565
Ba3 O1 2.853484 1_555
Ba3 C0 3.282429 1_555
Ba3 C0 3.282429 1_566
Ba3 C3 3.518989 1_455
Ba3 C3 3.518989 1_556
Au0 O0 2.000721 1_444
Au0 O1 2.000721 1_545
Au0 O2 2.000721 1_455
Au0 O3 2.000721 1_555
C0 C2 1.270083 1_555
C0 K0 2.966728 1_555
C1 C3 1.270083 1_555
C1 K0 2.966728 1_555
