# generated using pymatgen
data_LiAuF4
_symmetry_space_group_name_H-M   'P 1'
_cell_length_a   6.64238800
_cell_length_b   4.98771200
_cell_length_c   10.15660280
_cell_angle_alpha   87.17376885
_cell_angle_beta   90.00000000
_cell_angle_gamma   90.00000000
_symmetry_Int_Tables_number   1
_chemical_formula_structural   LiAuF4
_chemical_formula_sum   'Li4 Au4 F16'
_cell_volume   336.08219865
_cell_formula_units_Z   4
loop_
 _symmetry_equiv_pos_site_id
 _symmetry_equiv_pos_as_xyz
  1  'x, y, z'
loop_
 _atom_site_type_symbol
 _atom_site_label
 _atom_site_symmetry_multiplicity
 _atom_site_fract_x
 _atom_site_fract_y
 _atom_site_fract_z
 _atom_site_occupancy
  Li  Li0  1  0.41695800  0.50000000  0.25000000  1
  Li  Li1  1  0.89959400  0.00000000  0.75000000  1
  Li  Li2  1  0.58304200  0.50000000  0.75000000  1
  Li  Li3  1  0.10040600  0.00000000  0.25000000  1
  Au  Au0  1  0.00000000  0.50000000  0.50000000  1
  Au  Au1  1  0.00000000  0.50000000  0.00000000  1
  Au  Au2  1  0.50000000  0.00000000  0.00000000  1
  Au  Au3  1  0.50000000  0.00000000  0.50000000  1
  F  F0  1  0.91820600  0.79562500  0.37606800  1
  F  F1  1  0.08179400  0.20437500  0.62393200  1
  F  F2  1  0.59371900  0.29348900  0.37857000  1
  F  F3  1  0.08179400  0.79562500  0.87606800  1
  F  F4  1  0.64158200  0.17779400  0.64195500  1
  F  F5  1  0.15361700  0.32294300  0.36275400  1
  F  F6  1  0.84638300  0.67705700  0.63724600  1
  F  F7  1  0.84638300  0.32294300  0.86275400  1
  F  F8  1  0.35841800  0.17779400  0.14195500  1
  F  F9  1  0.15361700  0.67705700  0.13724600  1
  F  F10  1  0.91820600  0.20437500  0.12393200  1
  F  F11  1  0.59371900  0.70651100  0.12143000  1
  F  F12  1  0.64158200  0.82220600  0.85804500  1
  F  F13  1  0.35841800  0.82220600  0.35804500  1
  F  F14  1  0.40628100  0.70651100  0.62143000  1
  F  F15  1  0.40628100  0.29348900  0.87857000  1
loop_
_geom_bond_atom_site_label_1
_geom_bond_atom_site_label_2
_geom_bond_distance
_geom_bond_site_symmetry_2
Au0 F0 1.967405 1_455
Au0 F1 1.967405 1_555
Au0 F5 1.971184 1_555
Au0 F6 1.971184 1_455
Au1 F10 1.967405 1_455
Au1 F3 1.967405 1_554
Au1 F7 1.971184 1_454
Au1 F9 1.971184 1_555
Au2 F11 1.968092 1_545
Au2 F15 1.968092 1_554
Au2 F8 1.968663 1_555
Au2 F12 1.968663 1_544
Au3 F2 1.968092 1_555
Au3 F14 1.968092 1_545
Au3 F13 1.968663 1_545
Au3 F4 1.968663 1_555
F0 Li3 2.003637 1_665
F1 Li1 2.003637 1_455
F2 Li0 2.003009 1_555
F3 Li1 2.003637 1_465
F4 Li2 2.027809 1_555
F4 Li1 2.198138 1_555
F5 Li3 2.052514 1_555
F5 Li0 2.247526 1_555
F6 Li1 2.052514 1_565
F6 Li2 2.247526 1_555
F7 Li1 2.052514 1_555
F7 Li2 2.247526 1_555
F8 Li0 2.027809 1_555
F8 Li3 2.198138 1_555
F9 Li3 2.052514 1_565
F9 Li0 2.247526 1_555
F10 Li3 2.003637 1_655
F11 Li0 2.003009 1_555
F12 Li2 2.027809 1_555
F12 Li1 2.198138 1_565
F13 Li0 2.027809 1_555
F13 Li3 2.198138 1_565
F14 Li2 2.003009 1_555
F15 Li2 2.003009 1_555
