# generated using pymatgen
data_KBH4(CN4)2
_symmetry_space_group_name_H-M   'P 1'
_cell_length_a   17.36408400
_cell_length_b   5.44429500
_cell_length_c   9.64011993
_cell_angle_alpha   72.60329547
_cell_angle_beta   90.00000000
_cell_angle_gamma   90.00000000
_symmetry_Int_Tables_number   1
_chemical_formula_structural   KBH4(CN4)2
_chemical_formula_sum   'K4 B4 H16 C8 N32'
_cell_volume   869.64410728
_cell_formula_units_Z   4
loop_
 _symmetry_equiv_pos_site_id
 _symmetry_equiv_pos_as_xyz
  1  'x, y, z'
loop_
 _atom_site_type_symbol
 _atom_site_label
 _atom_site_symmetry_multiplicity
 _atom_site_fract_x
 _atom_site_fract_y
 _atom_site_fract_z
 _atom_site_occupancy
  K  K0  1  0.47043000  0.43988000  0.79416200  1
  K  K1  1  0.02957000  0.43988000  0.29416200  1
  K  K2  1  0.52957000  0.56012000  0.20583800  1
  K  K3  1  0.97043000  0.56012000  0.70583800  1
  B  B0  1  0.70810600  0.17995200  0.35955800  1
  B  B1  1  0.29189400  0.82004800  0.64044200  1
  B  B2  1  0.79189400  0.17995200  0.85955800  1
  B  B3  1  0.20810600  0.82004800  0.14044200  1
  H  H0  1  0.80435400  0.39636400  0.78210700  1
  H  H1  1  0.63747400  0.69115900  0.54080100  1
  H  H2  1  0.79132600  0.01864300  0.79638100  1
  H  H3  1  0.68707300  0.57644300  0.91641700  1
  H  H4  1  0.18707300  0.42355700  0.58358300  1
  H  H5  1  0.19564600  0.60363600  0.21789300  1
  H  H6  1  0.29132600  0.98135700  0.70361900  1
  H  H7  1  0.31292700  0.42355700  0.08358300  1
  H  H8  1  0.36252600  0.30884100  0.45919900  1
  H  H9  1  0.30435400  0.60363600  0.71789300  1
  H  H10  1  0.81292700  0.57644300  0.41641700  1
  H  H11  1  0.13747400  0.30884100  0.95919900  1
  H  H12  1  0.20867400  0.98135700  0.20361900  1
  H  H13  1  0.86252600  0.69115900  0.04080100  1
  H  H14  1  0.70867400  0.01864300  0.29638100  1
  H  H15  1  0.69564600  0.39636400  0.28210700  1
  C  C0  1  0.88131100  0.87105100  0.05693200  1
  C  C1  1  0.61868900  0.87105100  0.55693200  1
  C  C2  1  0.16941600  0.62405400  0.55044900  1
  C  C3  1  0.38131100  0.12894900  0.44306800  1
  C  C4  1  0.83058400  0.37594600  0.44955100  1
  C  C5  1  0.11868900  0.12894900  0.94306800  1
  C  C6  1  0.66941600  0.37594600  0.94955100  1
  C  C7  1  0.33058400  0.62405400  0.05044900  1
  N  N0  1  0.60587700  0.27869300  0.52853400  1
  N  N1  1  0.05879800  0.84862800  0.86925300  1
  N  N2  1  0.39366400  0.97271600  0.95958400  1
  N  N3  1  0.55879800  0.15137200  0.63074700  1
  N  N4  1  0.94120200  0.15137200  0.13074700  1
  N  N5  1  0.21174100  0.81989100  0.56699000  1
  N  N6  1  0.60324600  0.28707300  0.01559800  1
  N  N7  1  0.32930400  0.03774800  0.00870100  1
  N  N8  1  0.93465900  0.89411800  0.15145900  1
  N  N9  1  0.56534100  0.89411800  0.65145900  1
  N  N10  1  0.89412300  0.27869300  0.02853400  1
  N  N11  1  0.44120200  0.84862800  0.36925300  1
  N  N12  1  0.67069600  0.96225200  0.99129900  1
  N  N13  1  0.10633600  0.97271600  0.45958400  1
  N  N14  1  0.60633600  0.02728400  0.04041600  1
  N  N15  1  0.10324600  0.71292700  0.48440200  1
  N  N16  1  0.39412300  0.72130700  0.47146600  1
  N  N17  1  0.17069600  0.03774800  0.50870100  1
  N  N18  1  0.64465100  0.10453900  0.48015500  1
  N  N19  1  0.06534100  0.10588200  0.84854100  1
  N  N20  1  0.85534900  0.10453900  0.98015500  1
  N  N21  1  0.78825900  0.18010900  0.43301000  1
  N  N22  1  0.35534900  0.89546100  0.51984500  1
  N  N23  1  0.89366400  0.02728400  0.54041600  1
  N  N24  1  0.89675400  0.28707300  0.51559800  1
  N  N25  1  0.14465100  0.89546100  0.01984500  1
  N  N26  1  0.28825900  0.81989100  0.06699000  1
  N  N27  1  0.82930400  0.96225200  0.49129900  1
  N  N28  1  0.71174100  0.18010900  0.93301000  1
  N  N29  1  0.39675400  0.71292700  0.98440200  1
  N  N30  1  0.10587700  0.72130700  0.97146600  1
  N  N31  1  0.43465900  0.10588200  0.34854100  1
loop_
_geom_bond_atom_site_label_1
_geom_bond_atom_site_label_2
_geom_bond_distance
_geom_bond_site_symmetry_2
K0 N2 2.891938 1_545
K0 N9 2.947872 1_555
K0 N3 2.963608 1_555
K0 N29 2.973216 1_555
K0 N6 3.083127 1_556
K0 N16 3.306101 1_555
K1 N13 2.891938 1_545
K1 N8 2.947872 1_455
K1 N4 2.963608 1_455
K1 N15 2.973216 1_555
K1 N24 3.083127 1_455
K1 N30 3.306101 1_554
K2 N14 2.891938 1_565
K2 N31 2.947872 1_555
K2 N11 2.963608 1_555
K2 N6 2.973216 1_555
K2 N29 3.083127 1_554
K2 N0 3.306101 1_555
K3 N23 2.891938 1_565
K3 N19 2.947872 1_655
K3 N1 2.963608 1_655
K3 N24 2.973216 1_555
K3 N15 3.083127 1_655
K3 N10 3.306101 1_556
B0 H14 1.209178 1_555
B0 H15 1.210960 1_555
B0 N21 1.561669 1_555
B0 N18 1.564852 1_555
B1 H6 1.209178 1_555
B1 H9 1.210960 1_555
B1 N5 1.561669 1_555
B1 N22 1.564852 1_555
B2 H2 1.209178 1_555
B2 H0 1.210960 1_555
B2 N28 1.561669 1_555
B2 N20 1.564852 1_555
B3 H12 1.209178 1_555
B3 H5 1.210960 1_555
B3 N26 1.561669 1_555
B3 N25 1.564852 1_555
H0 K3 3.042944 1_555
H5 K1 3.042944 1_555
H9 K0 3.042944 1_555
H15 K2 3.042944 1_555
C0 H13 1.086666 1_555
C0 N8 1.331422 1_555
C0 N20 1.343251 1_564
C1 H1 1.086666 1_555
C1 N9 1.331422 1_555
C1 N18 1.343251 1_565
C2 H4 1.085841 1_555
C2 N15 1.332457 1_555
C2 N5 1.343127 1_555
C3 H8 1.086666 1_555
C3 N31 1.331422 1_555
C3 N22 1.343251 1_545
C4 H10 1.085841 1_555
C4 N24 1.332457 1_555
C4 N21 1.343127 1_555
C5 H11 1.086666 1_555
C5 N19 1.331422 1_555
C5 N25 1.343251 1_546
C6 H3 1.085841 1_555
C6 N6 1.332457 1_556
C6 N28 1.343127 1_555
C7 H7 1.085841 1_555
C7 N29 1.332457 1_554
C7 N26 1.343127 1_555
N0 N3 1.308148 1_555
N0 N18 1.354330 1_555
N1 N30 1.308148 1_555
N1 N19 1.359096 1_565
N2 N7 1.303349 1_566
N2 N29 1.363162 1_555
N3 N9 1.359096 1_545
N4 N8 1.359096 1_545
N10 N4 1.308148 1_555
N10 N20 1.354330 1_554
N11 N16 1.308148 1_555
N11 N31 1.359096 1_565
N12 N14 1.303349 1_566
N12 N28 1.353495 1_565
N13 N17 1.303349 1_565
N13 N15 1.363162 1_555
N14 N6 1.363162 1_555
N16 N22 1.354330 1_555
N17 N5 1.353495 1_545
N21 N27 1.353495 1_545
N23 N27 1.303349 1_545
N23 N24 1.363162 1_555
N25 N30 1.354330 1_554
N26 N7 1.353495 1_565
