# generated using pymatgen
data_CsReCl4
_symmetry_space_group_name_H-M   'P 1'
_cell_length_a   10.04756772
_cell_length_b   10.04756772
_cell_length_c   10.80265575
_cell_angle_alpha   90.00000000
_cell_angle_beta   90.00000000
_cell_angle_gamma   90.55069353
_symmetry_Int_Tables_number   1
_chemical_formula_structural   CsReCl4
_chemical_formula_sum   'Cs6 Re6 Cl24'
_cell_volume   1090.51679853
_cell_formula_units_Z   6
loop_
 _symmetry_equiv_pos_site_id
 _symmetry_equiv_pos_as_xyz
  1  'x, y, z'
loop_
 _atom_site_type_symbol
 _atom_site_label
 _atom_site_symmetry_multiplicity
 _atom_site_fract_x
 _atom_site_fract_y
 _atom_site_fract_z
 _atom_site_occupancy
  Cs  Cs0  1  0.80279500  0.44379592  0.75000000  1
  Cs  Cs1  1  0.48291076  0.30089253  0.25000000  1
  Cs  Cs2  1  0.30089253  0.48291076  0.75000000  1
  Cs  Cs3  1  0.00138776  0.00138776  0.00000000  1
  Cs  Cs4  1  0.44379592  0.80279500  0.25000000  1
  Cs  Cs5  1  0.00138776  0.00138776  0.50000000  1
  Re  Re0  1  0.01284712  0.44862297  0.36340340  1
  Re  Re1  1  0.44862297  0.01284712  0.63659660  1
  Re  Re2  1  0.63677498  0.91962361  0.75000000  1
  Re  Re3  1  0.44862297  0.01284712  0.86340340  1
  Re  Re4  1  0.91962361  0.63677498  0.25000000  1
  Re  Re5  1  0.01284712  0.44862297  0.13659660  1
  Cl  Cl0  1  0.52930478  0.22806239  0.90017511  1
  Cl  Cl1  1  0.69671722  0.57363800  0.25000000  1
  Cl  Cl2  1  0.32699497  0.81915169  0.60065609  1
  Cl  Cl3  1  0.06578668  0.33477847  0.92730941  1
  Cl  Cl4  1  0.63632613  0.92079485  0.97429999  1
  Cl  Cl5  1  0.77900860  0.10353962  0.75000000  1
  Cl  Cl6  1  0.22806239  0.52930478  0.40017511  1
  Cl  Cl7  1  0.33477847  0.06578668  0.42730941  1
  Cl  Cl8  1  0.81915169  0.32699497  0.39934391  1
  Cl  Cl9  1  0.57363800  0.69671722  0.75000000  1
  Cl  Cl10  1  0.92079485  0.63632613  0.47429999  1
  Cl  Cl11  1  0.26280061  0.10535183  0.75000000  1
  Cl  Cl12  1  0.92079485  0.63632613  0.02570001  1
  Cl  Cl13  1  0.22806239  0.52930478  0.09982489  1
  Cl  Cl14  1  0.63632613  0.92079485  0.52570001  1
  Cl  Cl15  1  0.86877847  0.80665421  0.75000000  1
  Cl  Cl16  1  0.06578668  0.33477847  0.57269059  1
  Cl  Cl17  1  0.32699497  0.81915169  0.89934391  1
  Cl  Cl18  1  0.10353962  0.77900860  0.25000000  1
  Cl  Cl19  1  0.81915169  0.32699497  0.10065609  1
  Cl  Cl20  1  0.52930478  0.22806239  0.59982489  1
  Cl  Cl21  1  0.33477847  0.06578668  0.07269059  1
  Cl  Cl22  1  0.10535183  0.26280061  0.25000000  1
  Cl  Cl23  1  0.80665421  0.86877847  0.25000000  1
loop_
_geom_bond_atom_site_label_1
_geom_bond_atom_site_label_2
_geom_bond_distance
_geom_bond_site_symmetry_2
Cl0 Re3 2.336063 1_555
Cl0 Cs2 3.816865 1_555
Cl0 Cs0 3.842763 1_555
Cl0 Cs1 3.878203 1_556
Cl1 Re4 2.321902 1_555
Cl1 Cs4 3.445543 1_555
Cl1 Cs1 3.465790 1_555
Cl2 Re1 2.320784 1_565
Cl2 Cs2 3.750751 1_555
Cl2 Cs5 3.918324 1_565
Cl2 Cs4 3.969515 1_555
Cl3 Re5 2.591239 1_556
Cl3 Cs2 3.375893 1_555
Cl3 Cs0 3.450605 1_455
Cl3 Cs3 3.494934 1_556
Cl4 Re2 2.423069 1_555
Cl4 Re3 2.425071 1_565
Cl4 Cs4 3.738175 1_556
Cl4 Cs3 3.758961 1_666
Cl5 Re2 2.325153 1_545
Cl5 Cs0 3.424800 1_555
Cl5 Cs3 3.658350 1_656
Cl5 Cs5 3.658350 1_655
Cl6 Re0 2.336063 1_555
Cl6 Cs1 3.816865 1_555
Cl6 Cs4 3.842763 1_555
Cl6 Cs2 3.878203 1_555
Cl7 Re1 2.591239 1_555
Cl7 Cs1 3.375893 1_555
Cl7 Cs4 3.450605 1_545
Cl7 Cs5 3.494934 1_555
Cl8 Re0 2.320784 1_655
Cl8 Cs1 3.750751 1_555
Cl8 Cs5 3.918324 1_655
Cl8 Cs0 3.969515 1_555
Cl9 Re2 2.321902 1_555
Cl9 Cs0 3.445543 1_555
Cl9 Cs2 3.465790 1_555
Cl10 Re4 2.423069 1_555
Cl10 Re0 2.425071 1_655
Cl10 Cs0 3.738175 1_555
Cl10 Cs5 3.758961 1_665
Cl11 Re3 2.425679 1_555
Cl11 Re1 2.425679 1_555
Cl11 Cs2 3.809145 1_555
Cl11 Cs3 3.902671 1_556
Cl11 Cs5 3.902671 1_555
Cl12 Re4 2.423069 1_555
Cl12 Re5 2.425071 1_655
Cl12 Cs0 3.738175 1_554
Cl12 Cs3 3.758961 1_665
Cl13 Re5 2.336063 1_555
Cl13 Cs1 3.816865 1_555
Cl13 Cs4 3.842763 1_555
Cl13 Cs2 3.878203 1_554
Cl14 Re2 2.423069 1_555
Cl14 Re1 2.425071 1_565
Cl14 Cs4 3.738175 1_555
Cl14 Cs5 3.758961 1_665
Cl15 Re2 2.602524 1_555
Cl15 Cs3 3.584277 1_666
Cl15 Cs5 3.584277 1_665
Cl15 Cs0 3.699357 1_555
Cl16 Re0 2.591239 1_555
Cl16 Cs2 3.375893 1_555
Cl16 Cs0 3.450605 1_455
Cl16 Cs5 3.494934 1_555
Cl17 Re3 2.320784 1_565
Cl17 Cs2 3.750751 1_555
Cl17 Cs3 3.918324 1_566
Cl17 Cs4 3.969515 1_556
Cl18 Re4 2.325153 1_455
Cl18 Cs4 3.424800 1_555
Cl18 Cs3 3.658350 1_565
Cl18 Cs5 3.658350 1_565
Cl19 Re5 2.320784 1_655
Cl19 Cs1 3.750751 1_555
Cl19 Cs3 3.918324 1_655
Cl19 Cs0 3.969515 1_554
Cl20 Re1 2.336063 1_555
Cl20 Cs2 3.816865 1_555
Cl20 Cs0 3.842763 1_555
Cl20 Cs1 3.878203 1_555
Cl21 Re3 2.591239 1_554
Cl21 Cs1 3.375893 1_555
Cl21 Cs4 3.450605 1_545
Cl21 Cs3 3.494934 1_555
Cl22 Re0 2.425679 1_555
Cl22 Re5 2.425679 1_555
Cl22 Cs1 3.809145 1_555
Cl22 Cs5 3.902671 1_555
Cl22 Cs3 3.902671 1_555
Cl23 Re4 2.602524 1_555
Cl23 Cs5 3.584277 1_665
Cl23 Cs3 3.584277 1_665
Cl23 Cs4 3.699357 1_555
