# generated using pymatgen
data_KRb3CdCl6
_symmetry_space_group_name_H-M   'P 1'
_cell_length_a   8.95726240
_cell_length_b   8.95726240
_cell_length_c   8.95726231
_cell_angle_alpha   90.63577712
_cell_angle_beta   90.63577712
_cell_angle_gamma   90.63577361
_symmetry_Int_Tables_number   1
_chemical_formula_structural   KRb3CdCl6
_chemical_formula_sum   'K2 Rb6 Cd2 Cl12'
_cell_volume   718.53027095
_cell_formula_units_Z   2
loop_
 _symmetry_equiv_pos_site_id
 _symmetry_equiv_pos_as_xyz
  1  'x, y, z'
loop_
 _atom_site_type_symbol
 _atom_site_label
 _atom_site_symmetry_multiplicity
 _atom_site_fract_x
 _atom_site_fract_y
 _atom_site_fract_z
 _atom_site_occupancy
  K  K0  1  0.25000000  0.25000000  0.25000000  1
  K  K1  1  0.75000000  0.75000000  0.75000000  1
  Rb  Rb0  1  0.37231200  0.12768800  0.75000000  1
  Rb  Rb1  1  0.12768800  0.75000000  0.37231200  1
  Rb  Rb2  1  0.75000000  0.37231200  0.12768800  1
  Rb  Rb3  1  0.62768800  0.87231200  0.25000000  1
  Rb  Rb4  1  0.25000000  0.62768800  0.87231200  1
  Rb  Rb5  1  0.87231200  0.25000000  0.62768800  1
  Cd  Cd0  1  0.00000000  0.00000000  0.00000000  1
  Cd  Cd1  1  0.50000000  0.50000000  0.50000000  1
  Cl  Cl0  1  0.95002000  0.07597000  0.28894400  1
  Cl  Cl1  1  0.07597000  0.28894400  0.95002000  1
  Cl  Cl2  1  0.28894400  0.95002000  0.07597000  1
  Cl  Cl3  1  0.57597000  0.45002000  0.78894400  1
  Cl  Cl4  1  0.78894400  0.57597000  0.45002000  1
  Cl  Cl5  1  0.45002000  0.78894400  0.57597000  1
  Cl  Cl6  1  0.21105600  0.42403000  0.54998000  1
  Cl  Cl7  1  0.42403000  0.54998000  0.21105600  1
  Cl  Cl8  1  0.54998000  0.21105600  0.42403000  1
  Cl  Cl9  1  0.92403000  0.71105600  0.04998000  1
  Cl  Cl10  1  0.04998000  0.92403000  0.71105600  1
  Cl  Cl11  1  0.71105600  0.04998000  0.92403000  1
loop_
_geom_bond_atom_site_label_1
_geom_bond_atom_site_label_2
_geom_bond_distance
_geom_bond_site_symmetry_2
Cd0 Cl10 2.712079 1_544
Cd0 Cl0 2.712079 1_455
Cd0 Cl11 2.712079 1_454
Cd0 Cl2 2.712079 1_545
Cd0 Cl9 2.712079 1_445
Cd0 Cl1 2.712079 1_554
Cd1 Cl3 2.712079 1_555
Cd1 Cl7 2.712079 1_555
Cd1 Cl8 2.712079 1_555
Cd1 Cl5 2.712079 1_555
Cd1 Cl6 2.712079 1_555
Cd1 Cl4 2.712079 1_555
Cl0 K0 3.116332 1_655
Cl0 Rb3 3.410585 1_545
Cl0 Rb1 3.426457 1_645
Cl0 Rb5 3.476624 1_555
Cl0 Rb2 3.532050 1_555
Cl1 K0 3.116332 1_556
Cl1 Rb5 3.410585 1_455
Cl1 Rb2 3.426457 1_456
Cl1 Rb4 3.476624 1_555
Cl1 Rb0 3.532050 1_555
Cl2 K0 3.116332 1_565
Cl2 Rb4 3.410585 1_554
Cl2 Rb0 3.426457 1_564
Cl2 Rb3 3.476624 1_555
Cl2 Rb1 3.532050 1_555
Cl3 K1 3.116332 1_555
Cl3 Rb0 3.410585 1_555
Cl3 Rb4 3.426457 1_555
Cl3 Rb2 3.476624 1_556
Cl3 Rb5 3.532050 1_555
Cl4 K1 3.116332 1_555
Cl4 Rb2 3.410585 1_555
Cl4 Rb5 3.426457 1_555
Cl4 Rb1 3.476624 1_655
Cl4 Rb3 3.532050 1_555
Cl5 K1 3.116332 1_555
Cl5 Rb1 3.410585 1_555
Cl5 Rb3 3.426457 1_555
Cl5 Rb0 3.476624 1_565
Cl5 Rb4 3.532050 1_555
Cl6 K0 3.116332 1_555
Cl6 Rb4 3.410585 1_555
Cl6 Rb1 3.426457 1_555
Cl6 Rb5 3.476624 1_455
Cl6 Rb0 3.532050 1_555
Cl7 K0 3.116332 1_555
Cl7 Rb3 3.410585 1_555
Cl7 Rb2 3.426457 1_555
Cl7 Rb4 3.476624 1_554
Cl7 Rb1 3.532050 1_555
Cl8 K0 3.116332 1_555
Cl8 Rb5 3.410585 1_555
Cl8 Rb0 3.426457 1_555
Cl8 Rb3 3.476624 1_545
Cl8 Rb2 3.532050 1_555
Cl9 K1 3.116332 1_554
Cl9 Rb1 3.410585 1_655
Cl9 Rb4 3.426457 1_654
Cl9 Rb2 3.476624 1_555
Cl9 Rb3 3.532050 1_555
Cl10 K1 3.116332 1_455
Cl10 Rb0 3.410585 1_565
Cl10 Rb5 3.426457 1_465
Cl10 Rb1 3.476624 1_555
Cl10 Rb4 3.532050 1_555
Cl11 K1 3.116332 1_545
Cl11 Rb2 3.410585 1_556
Cl11 Rb3 3.426457 1_546
Cl11 Rb0 3.476624 1_555
Cl11 Rb5 3.532050 1_555
