# generated using pymatgen
data_Ba4Tl2Cu2HgO10
_symmetry_space_group_name_H-M   'P 1'
_cell_length_a   21.93821717
_cell_length_b   21.93821717
_cell_length_c   21.93821717
_cell_angle_alpha   169.74654220
_cell_angle_beta   169.74654220
_cell_angle_gamma   14.52006133
_symmetry_Int_Tables_number   1
_chemical_formula_structural   Ba4Tl2Cu2HgO10
_chemical_formula_sum   'Ba4 Tl2 Cu2 Hg1 O10'
_cell_volume   334.53706061
_cell_formula_units_Z   1
loop_
 _symmetry_equiv_pos_site_id
 _symmetry_equiv_pos_as_xyz
  1  'x, y, z'
loop_
 _atom_site_type_symbol
 _atom_site_label
 _atom_site_symmetry_multiplicity
 _atom_site_fract_x
 _atom_site_fract_y
 _atom_site_fract_z
 _atom_site_occupancy
  Ba  Ba0  1  0.34196300  0.34196300  0.00000000  1
  Ba  Ba1  1  0.56909500  0.56909500  0.00000000  1
  Ba  Ba2  1  0.43090500  0.43090500  0.00000000  1
  Ba  Ba3  1  0.65803700  0.65803700  0.00000000  1
  Tl  Tl0  1  0.22390700  0.22390700  0.00000000  1
  Tl  Tl1  1  0.77609300  0.77609300  0.00000000  1
  Cu  Cu0  1  0.11392500  0.11392500  0.00000000  1
  Cu  Cu1  1  0.88607500  0.88607500  0.00000000  1
  Hg  Hg0  1  0.00000000  0.00000000  0.00000000  1
  O  O0  1  0.38670100  0.88670100  0.50000000  1
  O  O1  1  0.95369800  0.95369800  0.00000000  1
  O  O2  1  0.72842100  0.72842100  0.00000000  1
  O  O3  1  0.04630200  0.04630200  0.00000000  1
  O  O4  1  0.82268600  0.82268600  0.00000000  1
  O  O5  1  0.61329900  0.11329900  0.50000000  1
  O  O6  1  0.88670100  0.38670100  0.50000000  1
  O  O7  1  0.27157900  0.27157900  0.00000000  1
  O  O8  1  0.17731400  0.17731400  0.00000000  1
  O  O9  1  0.11329900  0.61329900  0.50000000  1
loop_
_geom_bond_atom_site_label_1
_geom_bond_atom_site_label_2
_geom_bond_distance
_geom_bond_site_symmetry_2
Ba0 O6 2.763094 1_555
Ba0 O6 2.763094 1_454
Ba0 O0 2.763094 1_555
Ba0 O0 2.763094 1_544
Ba0 O4 2.896569 1_444
Ba0 O4 2.896569 1_545
Ba0 O4 2.896569 1_455
Ba0 O4 2.896569 1_556
Ba0 O7 3.063440 1_555
Ba1 O5 2.746764 1_554
Ba1 O9 2.746764 1_554
Ba1 O5 2.746764 1_565
Ba1 O9 2.746764 1_655
Ba1 O3 2.944542 1_666
Ba1 O3 2.944542 1_655
Ba1 O3 2.944542 1_565
Ba1 O3 2.944542 1_554
Ba2 O0 2.746764 1_544
Ba2 O6 2.746764 1_454
Ba2 O0 2.746764 1_555
Ba2 O6 2.746764 1_555
Ba2 O1 2.944542 1_545
Ba2 O1 2.944542 1_455
Ba2 O1 2.944542 1_444
Ba2 O1 2.944542 1_556
Ba3 O9 2.763094 1_554
Ba3 O9 2.763094 1_655
Ba3 O5 2.763094 1_554
Ba3 O5 2.763094 1_565
Ba3 O8 2.896569 1_554
Ba3 O8 2.896569 1_655
Ba3 O8 2.896569 1_666
Ba3 O8 2.896569 1_565
Ba3 O2 3.063440 1_555
Cu0 O5 1.960565 1_454
Cu0 O9 1.960565 1_544
Cu0 O9 1.960565 1_555
Cu0 O5 1.960565 1_555
Cu1 O6 1.960565 1_554
Cu1 O0 1.960565 1_554
Cu1 O6 1.960565 1_565
Cu1 O0 1.960565 1_655
Hg0 O1 2.015279 1_445
Hg0 O3 2.015279 1_555
O2 Tl1 2.074908 1_555
O4 Tl1 2.027945 1_555
O7 Tl0 2.074908 1_555
O8 Tl0 2.027945 1_555
