# generated using pymatgen
data_Hg2MoO4
_symmetry_space_group_name_H-M   'P 1'
_cell_length_a   7.33587816
_cell_length_b   7.33587816
_cell_length_c   4.92816154
_cell_angle_alpha   75.32486563
_cell_angle_beta   75.32486563
_cell_angle_gamma   106.37024853
_symmetry_Int_Tables_number   1
_chemical_formula_structural   Hg2MoO4
_chemical_formula_sum   'Hg4 Mo2 O8'
_cell_volume   230.59911646
_cell_formula_units_Z   2
loop_
 _symmetry_equiv_pos_site_id
 _symmetry_equiv_pos_as_xyz
  1  'x, y, z'
loop_
 _atom_site_type_symbol
 _atom_site_label
 _atom_site_symmetry_multiplicity
 _atom_site_fract_x
 _atom_site_fract_y
 _atom_site_fract_z
 _atom_site_occupancy
  Hg  Hg0  1  0.53326834  0.75112780  0.51941088  1
  Hg  Hg1  1  0.24887220  0.46673166  0.98058912  1
  Hg  Hg2  1  0.46673166  0.24887220  0.48058912  1
  Hg  Hg3  1  0.75112780  0.53326834  0.01941088  1
  Mo  Mo0  1  0.10068584  0.89931416  0.25000000  1
  Mo  Mo1  1  0.89931416  0.10068584  0.75000000  1
  O  O0  1  0.66700393  0.05233130  0.69765408  1
  O  O1  1  0.33299607  0.94766870  0.30234592  1
  O  O2  1  0.18285965  0.08617362  0.85683758  1
  O  O3  1  0.08617362  0.18285965  0.35683758  1
  O  O4  1  0.05233130  0.66700393  0.19765408  1
  O  O5  1  0.91382638  0.81714035  0.64316242  1
  O  O6  1  0.81714035  0.91382638  0.14316242  1
  O  O7  1  0.94766870  0.33299607  0.80234592  1
loop_
_geom_bond_atom_site_label_1
_geom_bond_atom_site_label_2
_geom_bond_distance
_geom_bond_site_symmetry_2
Hg0 O6 2.172662 1_555
Hg0 O1 2.567187 1_555
Hg0 O0 2.610465 1_565
Hg1 O3 2.172662 1_556
Hg1 O4 2.567187 1_556
Hg1 O7 2.610465 1_455
Hg2 O2 2.172662 1_555
Hg2 O0 2.567187 1_555
Hg2 O1 2.610465 1_545
Hg3 O5 2.172662 1_554
Hg3 O7 2.567187 1_554
Hg3 O4 2.610465 1_655
Mo0 O1 1.739261 1_555
Mo0 O4 1.739261 1_555
Mo0 O5 1.895596 1_455
Mo0 O2 1.895596 1_564
Mo0 O3 2.294886 1_565
Mo0 O6 2.294886 1_455
Mo1 O0 1.739261 1_555
Mo1 O7 1.739261 1_555
Mo1 O6 1.895596 1_546
Mo1 O3 1.895596 1_655
Mo1 O2 2.294886 1_655
Mo1 O5 2.294886 1_545
