# generated using pymatgen
data_MgTlAs(H6O5)2
_symmetry_space_group_name_H-M   'P 1'
_cell_length_a   6.25789200
_cell_length_b   7.05974900
_cell_length_c   11.44785200
_cell_angle_alpha   90.00000000
_cell_angle_beta   90.00000000
_cell_angle_gamma   90.00000000
_symmetry_Int_Tables_number   1
_chemical_formula_structural   MgTlAs(H6O5)2
_chemical_formula_sum   'Mg2 Tl2 As2 H24 O20'
_cell_volume   505.75633393
_cell_formula_units_Z   2
loop_
 _symmetry_equiv_pos_site_id
 _symmetry_equiv_pos_as_xyz
  1  'x, y, z'
loop_
 _atom_site_type_symbol
 _atom_site_label
 _atom_site_symmetry_multiplicity
 _atom_site_fract_x
 _atom_site_fract_y
 _atom_site_fract_z
 _atom_site_occupancy
  Mg  Mg0  1  0.37957600  0.50000000  0.88034300  1
  Mg  Mg1  1  0.62042400  0.00000000  0.38034300  1
  Tl  Tl0  1  0.36950000  0.50000000  0.22312400  1
  Tl  Tl1  1  0.63050000  0.00000000  0.72312400  1
  As  As0  1  0.99368300  0.50000000  0.50861400  1
  As  As1  1  0.00631700  0.00000000  0.00861400  1
  H  H0  1  0.61057900  0.67976300  0.52596100  1
  H  H1  1  0.99982100  0.11425200  0.49896000  1
  H  H2  1  0.18291300  0.17766800  0.80747700  1
  H  H3  1  0.38942100  0.17976300  0.02596100  1
  H  H4  1  0.21636400  0.29563800  0.68962700  1
  H  H5  1  0.21636400  0.70436200  0.68962700  1
  H  H6  1  0.78363600  0.79563800  0.18962700  1
  H  H7  1  0.62999200  0.74450200  0.01270400  1
  H  H8  1  0.27922700  0.00000000  0.21762500  1
  H  H9  1  0.81708700  0.32233200  0.30747700  1
  H  H10  1  0.78363600  0.20436200  0.18962700  1
  H  H11  1  0.00017900  0.61425200  0.99896000  1
  H  H12  1  0.61057900  0.32023700  0.52596100  1
  H  H13  1  0.18291300  0.82233200  0.80747700  1
  H  H14  1  0.17494100  0.00000000  0.34661300  1
  H  H15  1  0.99982100  0.88574800  0.49896000  1
  H  H16  1  0.81708700  0.67766800  0.30747700  1
  H  H17  1  0.82505900  0.50000000  0.84661300  1
  H  H18  1  0.37000800  0.24450200  0.51270400  1
  H  H19  1  0.62999200  0.25549800  0.01270400  1
  H  H20  1  0.38942100  0.82023700  0.02596100  1
  H  H21  1  0.72077300  0.50000000  0.71762500  1
  H  H22  1  0.00017900  0.38574800  0.99896000  1
  H  H23  1  0.37000800  0.75549800  0.51270400  1
  O  O0  1  0.27792600  0.27657700  0.77017500  1
  O  O1  1  0.52354100  0.20606100  0.50122900  1
  O  O2  1  0.31184500  0.00000000  0.30393600  1
  O  O3  1  0.87391700  0.20133800  0.05392100  1
  O  O4  1  0.87391700  0.79866200  0.05392100  1
  O  O5  1  0.68815500  0.50000000  0.80393600  1
  O  O6  1  0.03578900  0.00000000  0.85931900  1
  O  O7  1  0.25637300  0.00000000  0.07364400  1
  O  O8  1  0.27792600  0.72342300  0.77017500  1
  O  O9  1  0.93675500  0.00000000  0.45829400  1
  O  O10  1  0.52354100  0.79393900  0.50122900  1
  O  O11  1  0.06324500  0.50000000  0.95829400  1
  O  O12  1  0.72207400  0.77657700  0.27017500  1
  O  O13  1  0.12608300  0.70133800  0.55392100  1
  O  O14  1  0.72207400  0.22342300  0.27017500  1
  O  O15  1  0.12608300  0.29866200  0.55392100  1
  O  O16  1  0.47645900  0.29393900  0.00122900  1
  O  O17  1  0.96421100  0.50000000  0.35931900  1
  O  O18  1  0.74362700  0.50000000  0.57364400  1
  O  O19  1  0.47645900  0.70606100  0.00122900  1
loop_
_geom_bond_atom_site_label_1
_geom_bond_atom_site_label_2
_geom_bond_distance
_geom_bond_site_symmetry_2
Mg0 O19 2.097375 1_556
Mg0 O16 2.097375 1_556
Mg0 O0 2.117343 1_555
Mg0 O8 2.117343 1_555
Mg0 O5 2.119920 1_555
Mg0 O11 2.171406 1_555
Mg1 O1 2.097375 1_555
Mg1 O10 2.097375 1_545
Mg1 O14 2.117343 1_555
Mg1 O12 2.117343 1_545
Mg1 O2 2.119920 1_555
Mg1 O9 2.171406 1_555
As0 O17 1.719029 1_555
As0 O15 1.725071 1_655
As0 O13 1.725071 1_655
As0 O18 1.732883 1_555
As1 O6 1.719029 1_554
As1 O3 1.725071 1_455
As1 O4 1.725071 1_445
As1 O7 1.732883 1_555
H0 O10 1.013190 1_555
H0 O18 1.612998 1_555
H1 O9 1.011470 1_555
H1 O15 1.647756 1_655
H2 O0 1.011664 1_555
H2 O6 1.665271 1_555
H3 O16 1.013190 1_555
H3 O7 1.612998 1_555
H4 O0 1.008363 1_555
H4 O15 1.653221 1_555
H5 O8 1.008363 1_555
H5 O13 1.653221 1_555
H6 O12 1.008363 1_555
H6 O4 1.653221 1_555
H7 O19 1.006990 1_555
H7 O4 1.642834 1_555
H8 O2 1.008939 1_555
H8 O7 1.654466 1_555
H9 O14 1.011664 1_555
H9 O17 1.665271 1_555
H10 O14 1.008363 1_555
H10 O3 1.653221 1_555
H11 O11 1.011470 1_555
H11 O4 1.647756 1_456
H12 O1 1.013190 1_555
H12 O18 1.612998 1_555
H13 O8 1.011664 1_555
H13 O6 1.665271 1_565
H14 O2 0.986244 1_555
H15 O9 1.011470 1_565
H15 O13 1.647756 1_655
H16 O12 1.011664 1_555
H16 O17 1.665271 1_555
H17 O5 0.986244 1_555
H18 O1 1.006990 1_555
H18 O15 1.642834 1_555
H19 O16 1.006990 1_555
H19 O3 1.642834 1_555
H20 O19 1.013190 1_555
H20 O7 1.612998 1_565
H21 O5 1.008939 1_555
H21 O18 1.654466 1_555
H22 O11 1.011470 1_555
H22 O3 1.647756 1_456
H23 O10 1.006990 1_555
H23 O13 1.642834 1_555
