# generated using pymatgen
data_Gd2TiO5
_symmetry_space_group_name_H-M   'P 1'
_cell_length_a   3.74584840
_cell_length_b   10.49807509
_cell_length_c   11.34388027
_cell_angle_alpha   90.00000000
_cell_angle_beta   90.00000000
_cell_angle_gamma   90.00000000
_symmetry_Int_Tables_number   1
_chemical_formula_structural   Gd2TiO5
_chemical_formula_sum   'Gd8 Ti4 O20'
_cell_volume   446.08899132
_cell_formula_units_Z   4
loop_
 _symmetry_equiv_pos_site_id
 _symmetry_equiv_pos_as_xyz
  1  'x, y, z'
loop_
 _atom_site_type_symbol
 _atom_site_label
 _atom_site_symmetry_multiplicity
 _atom_site_fract_x
 _atom_site_fract_y
 _atom_site_fract_z
 _atom_site_occupancy
  Gd  Gd0  1  0.75000000  0.36341019  0.44339832  1
  Gd  Gd1  1  0.25000000  0.63658981  0.55660168  1
  Gd  Gd2  1  0.75000000  0.88837588  0.72221203  1
  Gd  Gd3  1  0.75000000  0.38837588  0.77778797  1
  Gd  Gd4  1  0.25000000  0.11162412  0.27778797  1
  Gd  Gd5  1  0.25000000  0.61162412  0.22221203  1
  Gd  Gd6  1  0.75000000  0.86341019  0.05660168  1
  Gd  Gd7  1  0.25000000  0.13658981  0.94339832  1
  Ti  Ti0  1  0.25000000  0.17711957  0.62060251  1
  Ti  Ti1  1  0.75000000  0.32288043  0.12060251  1
  Ti  Ti2  1  0.75000000  0.82288043  0.37939749  1
  Ti  Ti3  1  0.25000000  0.67711957  0.87939749  1
  O  O0  1  0.75000000  0.23998893  0.27005159  1
  O  O1  1  0.25000000  0.26001107  0.77005159  1
  O  O2  1  0.25000000  0.22416039  0.45906189  1
  O  O3  1  0.75000000  0.00677350  0.89554917  1
  O  O4  1  0.75000000  0.98832585  0.34438761  1
  O  O5  1  0.25000000  0.49322650  0.39554917  1
  O  O6  1  0.75000000  0.50677350  0.60445083  1
  O  O7  1  0.75000000  0.77583961  0.54093811  1
  O  O8  1  0.25000000  0.76492328  0.38209786  1
  O  O9  1  0.75000000  0.73507672  0.88209786  1
  O  O10  1  0.75000000  0.27583961  0.95906189  1
  O  O11  1  0.75000000  0.48832585  0.15561239  1
  O  O12  1  0.25000000  0.26492328  0.11790214  1
  O  O13  1  0.25000000  0.01167415  0.65561239  1
  O  O14  1  0.75000000  0.23507672  0.61790214  1
  O  O15  1  0.25000000  0.99322650  0.10445083  1
  O  O16  1  0.75000000  0.73998893  0.22994841  1
  O  O17  1  0.25000000  0.72416039  0.04093811  1
  O  O18  1  0.25000000  0.51167415  0.84438761  1
  O  O19  1  0.25000000  0.76001107  0.72994841  1
loop_
_geom_bond_atom_site_label_1
_geom_bond_atom_site_label_2
_geom_bond_distance
_geom_bond_site_symmetry_2
Gd0 O0 2.354915 1_555
Gd0 O6 2.367050 1_555
Gd0 O5 2.379024 1_555
Gd0 O5 2.379024 1_655
Gd0 O2 2.382527 1_555
Gd0 O2 2.382527 1_655
Gd0 O14 2.394518 1_555
Gd1 O19 2.354915 1_555
Gd1 O5 2.367050 1_555
Gd1 O6 2.379024 1_555
Gd1 O6 2.379024 1_455
Gd1 O7 2.382527 1_455
Gd1 O7 2.382527 1_555
Gd1 O8 2.394518 1_555
Gd2 O19 2.309010 1_555
Gd2 O19 2.309010 1_655
Gd2 O3 2.326223 1_565
Gd2 O7 2.371563 1_555
Gd2 O13 2.398766 1_565
Gd2 O13 2.398766 1_665
Gd2 O9 2.424788 1_555
Gd3 O1 2.309010 1_655
Gd3 O1 2.309010 1_555
Gd3 O6 2.326223 1_555
Gd3 O10 2.371563 1_555
Gd3 O18 2.398766 1_655
Gd3 O18 2.398766 1_555
Gd3 O14 2.424788 1_555
Gd4 O0 2.309010 1_455
Gd4 O0 2.309010 1_555
Gd4 O15 2.326223 1_545
Gd4 O2 2.371563 1_555
Gd4 O4 2.398766 1_445
Gd4 O4 2.398766 1_545
Gd4 O12 2.424788 1_555
Gd5 O16 2.309010 1_455
Gd5 O16 2.309010 1_555
Gd5 O5 2.326223 1_555
Gd5 O17 2.371563 1_555
Gd5 O11 2.398766 1_555
Gd5 O11 2.398766 1_455
Gd5 O8 2.424788 1_555
Gd6 O16 2.354915 1_555
Gd6 O3 2.367050 1_564
Gd6 O15 2.379024 1_555
Gd6 O15 2.379024 1_655
Gd6 O17 2.382527 1_655
Gd6 O17 2.382527 1_555
Gd6 O9 2.394518 1_554
Gd7 O1 2.354915 1_555
Gd7 O15 2.367050 1_546
Gd7 O3 2.379024 1_455
Gd7 O3 2.379024 1_555
Gd7 O10 2.382527 1_455
Gd7 O10 2.382527 1_555
Gd7 O12 2.394518 1_556
O0 Ti1 1.905624 1_555
O1 Ti0 1.905624 1_555
O2 Ti0 1.897873 1_555
O4 Ti2 1.781686 1_555
O7 Ti2 1.897873 1_555
O8 Ti2 1.969513 1_455
O8 Ti2 1.969513 1_555
O9 Ti3 1.969513 1_655
O9 Ti3 1.969513 1_555
O10 Ti1 1.897873 1_556
O11 Ti1 1.781686 1_555
O12 Ti1 1.969513 1_455
O12 Ti1 1.969513 1_555
O13 Ti0 1.781686 1_555
O14 Ti0 1.969513 1_655
O14 Ti0 1.969513 1_555
O16 Ti2 1.905624 1_555
O17 Ti3 1.897873 1_554
O18 Ti3 1.781686 1_555
O19 Ti3 1.905624 1_555
