# generated using pymatgen
data_AlS2(NCl2)2
_symmetry_space_group_name_H-M   'P 1'
_cell_length_a   16.68894200
_cell_length_b   7.03229800
_cell_length_c   8.14926947
_cell_angle_alpha   75.73844060
_cell_angle_beta   90.00000000
_cell_angle_gamma   90.00000000
_symmetry_Int_Tables_number   1
_chemical_formula_structural   AlS2(NCl2)2
_chemical_formula_sum   'Al4 S8 N8 Cl16'
_cell_volume   926.93598905
_cell_formula_units_Z   4
loop_
 _symmetry_equiv_pos_site_id
 _symmetry_equiv_pos_as_xyz
  1  'x, y, z'
loop_
 _atom_site_type_symbol
 _atom_site_label
 _atom_site_symmetry_multiplicity
 _atom_site_fract_x
 _atom_site_fract_y
 _atom_site_fract_z
 _atom_site_occupancy
  Al  Al0  1  0.35002100  0.60056900  0.35500900  1
  Al  Al1  1  0.85002100  0.39943100  0.14499100  1
  Al  Al2  1  0.64997900  0.39943100  0.64499100  1
  Al  Al3  1  0.14997900  0.60056900  0.85500900  1
  S  S0  1  0.39791800  0.14614300  0.07795500  1
  S  S1  1  0.44611200  0.03001600  0.75716900  1
  S  S2  1  0.94611200  0.96998400  0.74283100  1
  S  S3  1  0.89791800  0.85385700  0.42204500  1
  S  S4  1  0.05388800  0.03001600  0.25716900  1
  S  S5  1  0.55388800  0.96998400  0.24283100  1
  S  S6  1  0.60208200  0.85385700  0.92204500  1
  S  S7  1  0.10208200  0.14614300  0.57795500  1
  N  N0  1  0.90187600  0.88814700  0.60519500  1
  N  N1  1  0.52896700  0.92605400  0.80199900  1
  N  N2  1  0.59812400  0.88814700  0.10519500  1
  N  N3  1  0.40187600  0.11185300  0.89480500  1
  N  N4  1  0.47103300  0.07394600  0.19800100  1
  N  N5  1  0.09812400  0.11185300  0.39480500  1
  N  N6  1  0.97103300  0.92605400  0.30199900  1
  N  N7  1  0.02896700  0.07394600  0.69800100  1
  Cl  Cl0  1  0.92115000  0.39332200  0.37170000  1
  Cl  Cl1  1  0.42115000  0.60667800  0.12830000  1
  Cl  Cl2  1  0.26183200  0.82878500  0.27872000  1
  Cl  Cl3  1  0.19787400  0.31074300  0.94465000  1
  Cl  Cl4  1  0.42696100  0.67454400  0.54350100  1
  Cl  Cl5  1  0.80212600  0.68925700  0.05535000  1
  Cl  Cl6  1  0.07885000  0.60667800  0.62830000  1
  Cl  Cl7  1  0.57303900  0.32545600  0.45649900  1
  Cl  Cl8  1  0.73816800  0.17121500  0.72128000  1
  Cl  Cl9  1  0.57885000  0.39332200  0.87170000  1
  Cl  Cl10  1  0.92696100  0.32545600  0.95649900  1
  Cl  Cl11  1  0.23816800  0.82878500  0.77872000  1
  Cl  Cl12  1  0.07303900  0.67454400  0.04350100  1
  Cl  Cl13  1  0.69787400  0.68925700  0.55535000  1
  Cl  Cl14  1  0.30212600  0.31074300  0.44465000  1
  Cl  Cl15  1  0.76183200  0.17121500  0.22128000  1
loop_
_geom_bond_atom_site_label_1
_geom_bond_atom_site_label_2
_geom_bond_distance
_geom_bond_site_symmetry_2
Al0 Cl14 2.143130 1_555
Al0 Cl2 2.153302 1_555
Al0 Cl4 2.161626 1_555
Al0 Cl1 2.187504 1_555
Al1 Cl5 2.143130 1_555
Al1 Cl15 2.153302 1_555
Al1 Cl10 2.161626 1_554
Al1 Cl0 2.187504 1_555
Al2 Cl13 2.143130 1_555
Al2 Cl8 2.153302 1_555
Al2 Cl7 2.161626 1_555
Al2 Cl9 2.187504 1_555
Al3 Cl3 2.143130 1_555
Al3 Cl11 2.153302 1_555
Al3 Cl12 2.161626 1_556
Al3 Cl6 2.187504 1_555
N0 S2 1.565987 1_555
N0 S3 1.570830 1_555
N1 S1 1.564736 1_565
N1 S6 1.568125 1_555
N2 S5 1.565987 1_555
N2 S6 1.570830 1_554
N3 S1 1.565987 1_555
N3 S0 1.570830 1_556
N4 S5 1.564736 1_545
N4 S0 1.568125 1_555
N5 S4 1.565987 1_555
N5 S7 1.570830 1_555
N6 S4 1.564736 1_665
N6 S3 1.568125 1_555
N7 S2 1.564736 1_445
N7 S7 1.568125 1_555
