# generated using pymatgen
data_CaAlBO4
_symmetry_space_group_name_H-M   'P 1'
_cell_length_a   8.75989810
_cell_length_b   8.75989810
_cell_length_c   5.80488300
_cell_angle_alpha   90.00000000
_cell_angle_beta   90.00000000
_cell_angle_gamma   122.99812617
_symmetry_Int_Tables_number   1
_chemical_formula_structural   CaAlBO4
_chemical_formula_sum   'Ca4 Al4 B4 O16'
_cell_volume   373.58738640
_cell_formula_units_Z   4
loop_
 _symmetry_equiv_pos_site_id
 _symmetry_equiv_pos_as_xyz
  1  'x, y, z'
loop_
 _atom_site_type_symbol
 _atom_site_label
 _atom_site_symmetry_multiplicity
 _atom_site_fract_x
 _atom_site_fract_y
 _atom_site_fract_z
 _atom_site_occupancy
  Ca  Ca0  1  0.76422000  0.95063200  0.00320600  1
  Ca  Ca1  1  0.95063200  0.76422000  0.50320600  1
  Ca  Ca2  1  0.23578000  0.04936800  0.00320600  1
  Ca  Ca3  1  0.04936800  0.23578000  0.50320600  1
  Al  Al0  1  0.69628400  0.28528800  0.73677200  1
  Al  Al1  1  0.30371600  0.71471200  0.73677200  1
  Al  Al2  1  0.28528800  0.69628400  0.23677200  1
  Al  Al3  1  0.71471200  0.30371600  0.23677200  1
  B  B0  1  0.37354300  0.15366600  0.47801000  1
  B  B1  1  0.84633400  0.62645700  0.97801000  1
  B  B2  1  0.15366600  0.37354300  0.97801000  1
  B  B3  1  0.62645700  0.84633400  0.47801000  1
  O  O0  1  0.20896000  0.47687000  0.77687000  1
  O  O1  1  0.26508000  0.79797800  0.98904700  1
  O  O2  1  0.18095600  0.45553400  0.19310000  1
  O  O3  1  0.81904400  0.54446600  0.19310000  1
  O  O4  1  0.45553400  0.18095600  0.69310000  1
  O  O5  1  0.54446600  0.81904400  0.69310000  1
  O  O6  1  0.20202200  0.73492000  0.48904700  1
  O  O7  1  0.81065800  0.92653900  0.45669500  1
  O  O8  1  0.47687000  0.20896000  0.27687000  1
  O  O9  1  0.73492000  0.20202200  0.98904700  1
  O  O10  1  0.18934200  0.07346100  0.45669500  1
  O  O11  1  0.79797800  0.26508000  0.48904700  1
  O  O12  1  0.92653900  0.81065800  0.95669500  1
  O  O13  1  0.79104000  0.52313000  0.77687000  1
  O  O14  1  0.52313000  0.79104000  0.27687000  1
  O  O15  1  0.07346100  0.18934200  0.95669500  1
loop_
_geom_bond_atom_site_label_1
_geom_bond_atom_site_label_2
_geom_bond_distance
_geom_bond_site_symmetry_2
Ca0 O12 2.344607 1_554
Ca0 O9 2.353242 1_564
Ca0 O15 2.369340 1_664
Ca0 O14 2.392142 1_555
Ca0 O5 2.420317 1_554
Ca0 O7 2.689486 1_555
Ca1 O7 2.344607 1_555
Ca1 O6 2.353242 1_655
Ca1 O10 2.369340 1_665
Ca1 O13 2.392142 1_555
Ca1 O3 2.420317 1_555
Ca1 O12 2.689486 1_555
Ca2 O15 2.344607 1_554
Ca2 O1 2.353242 1_544
Ca2 O12 2.369340 1_444
Ca2 O8 2.392142 1_555
Ca2 O4 2.420317 1_554
Ca2 O10 2.689486 1_555
Ca3 O10 2.344607 1_555
Ca3 O11 2.353242 1_455
Ca3 O7 2.369340 1_445
Ca3 O0 2.392142 1_555
Ca3 O2 2.420317 1_555
Ca3 O15 2.689486 1_555
Al0 O9 1.749288 1_555
Al0 O11 1.750589 1_555
Al0 O13 1.788946 1_555
Al0 O4 1.802161 1_555
Al1 O1 1.749288 1_555
Al1 O6 1.750589 1_555
Al1 O0 1.788946 1_555
Al1 O5 1.802161 1_555
Al2 O6 1.749288 1_555
Al2 O1 1.750589 1_554
Al2 O14 1.788946 1_555
Al2 O2 1.802161 1_555
Al3 O11 1.749288 1_555
Al3 O9 1.750589 1_554
Al3 O8 1.788946 1_555
Al3 O3 1.802161 1_555
B0 O10 1.370311 1_555
B0 O8 1.392703 1_555
B0 O4 1.394604 1_555
B1 O12 1.370311 1_555
B1 O13 1.392703 1_555
B1 O3 1.394604 1_556
B2 O15 1.370311 1_555
B2 O0 1.392703 1_555
B2 O2 1.394604 1_556
B3 O7 1.370311 1_555
B3 O14 1.392703 1_555
B3 O5 1.394604 1_555
