# generated using pymatgen
data_ZnAs2C12(NF)12
_symmetry_space_group_name_H-M   'P 1'
_cell_length_a   9.72399468
_cell_length_b   9.72399468
_cell_length_c   9.72399510
_cell_angle_alpha   59.21553813
_cell_angle_beta   59.21553813
_cell_angle_gamma   59.21553137
_symmetry_Int_Tables_number   1
_chemical_formula_structural   ZnAs2C12(NF)12
_chemical_formula_sum   'Zn1 As2 C12 N12 F12'
_cell_volume   638.53919419
_cell_formula_units_Z   1
loop_
 _symmetry_equiv_pos_site_id
 _symmetry_equiv_pos_as_xyz
  1  'x, y, z'
loop_
 _atom_site_type_symbol
 _atom_site_label
 _atom_site_symmetry_multiplicity
 _atom_site_fract_x
 _atom_site_fract_y
 _atom_site_fract_z
 _atom_site_occupancy
  Zn  Zn0  1  0.00000000  0.00000000  0.00000000  1
  As  As0  1  0.63580900  0.63580900  0.63580900  1
  As  As1  1  0.36419100  0.36419100  0.36419100  1
  C  C0  1  0.54131100  0.75798200  0.04148600  1
  C  C1  1  0.61531300  0.17281100  0.97471200  1
  C  C2  1  0.82718900  0.02528800  0.38468700  1
  C  C3  1  0.04148600  0.54131100  0.75798200  1
  C  C4  1  0.02528800  0.38468700  0.82718900  1
  C  C5  1  0.45868900  0.24201800  0.95851400  1
  C  C6  1  0.24201800  0.95851400  0.45868900  1
  C  C7  1  0.95851400  0.45868900  0.24201800  1
  C  C8  1  0.75798200  0.04148600  0.54131100  1
  C  C9  1  0.17281100  0.97471200  0.61531300  1
  C  C10  1  0.97471200  0.61531300  0.17281100  1
  C  C11  1  0.38468700  0.82718900  0.02528800  1
  N  N0  1  0.29400100  0.94648300  0.32595700  1
  N  N1  1  0.01030100  0.25201600  0.89231200  1
  N  N2  1  0.10768800  0.98969900  0.74798400  1
  N  N3  1  0.70599900  0.05351700  0.67404300  1
  N  N4  1  0.74798400  0.10768800  0.98969900  1
  N  N5  1  0.67404300  0.70599900  0.05351700  1
  N  N6  1  0.32595700  0.29400100  0.94648300  1
  N  N7  1  0.89231200  0.01030100  0.25201600  1
  N  N8  1  0.98969900  0.74798400  0.10768800  1
  N  N9  1  0.25201600  0.89231200  0.01030100  1
  N  N10  1  0.94648300  0.32595700  0.29400100  1
  N  N11  1  0.05351700  0.67404300  0.70599900  1
  F  F0  1  0.71859700  0.42526500  0.63626700  1
  F  F1  1  0.55199000  0.84521700  0.64013300  1
  F  F2  1  0.28140300  0.57473500  0.36373300  1
  F  F3  1  0.84521700  0.64013300  0.55199000  1
  F  F4  1  0.35986700  0.44801000  0.15478300  1
  F  F5  1  0.63626700  0.71859700  0.42526500  1
  F  F6  1  0.42526500  0.63626700  0.71859700  1
  F  F7  1  0.64013300  0.55199000  0.84521700  1
  F  F8  1  0.44801000  0.15478300  0.35986700  1
  F  F9  1  0.57473500  0.36373300  0.28140300  1
  F  F10  1  0.36373300  0.28140300  0.57473500  1
  F  F11  1  0.15478300  0.35986700  0.44801000  1
loop_
_geom_bond_atom_site_label_1
_geom_bond_atom_site_label_2
_geom_bond_distance
_geom_bond_site_symmetry_2
As0 F0 1.773949 1_555
As0 F6 1.773949 1_555
As0 F5 1.773949 1_555
As0 F1 1.779383 1_555
As0 F3 1.779384 1_555
As0 F7 1.779384 1_555
As1 F2 1.773949 1_555
As1 F9 1.773949 1_555
As1 F10 1.773949 1_555
As1 F8 1.779383 1_555
As1 F11 1.779384 1_555
As1 F4 1.779384 1_555
C0 N5 1.166734 1_555
C0 C11 1.373012 1_555
C1 N4 1.161171 1_555
C1 C5 1.373012 1_555
C2 N7 1.161171 1_555
C2 C8 1.373012 1_555
C3 N11 1.166734 1_555
C3 C4 1.373012 1_555
C4 N1 1.161171 1_555
C5 N6 1.166734 1_555
C6 N0 1.166734 1_555
C6 C9 1.373012 1_555
C7 N10 1.166734 1_555
C8 N3 1.166734 1_555
C9 N2 1.161171 1_555
C10 N8 1.161171 1_555
C10 C7 1.373012 1_555
C11 N9 1.161171 1_555
N1 Zn0 2.151545 1_556
N2 Zn0 2.151545 1_566
N4 Zn0 2.151544 1_656
N7 Zn0 2.151545 1_655
N8 Zn0 2.151545 1_665
N9 Zn0 2.151544 1_565
