# generated using pymatgen
data_ZnS
_symmetry_space_group_name_H-M   'P 1'
_cell_length_a   3.80867331
_cell_length_b   3.80867290
_cell_length_c   43.58865243
_cell_angle_alpha   90.00000000
_cell_angle_beta   90.00000000
_cell_angle_gamma   120.00000368
_symmetry_Int_Tables_number   1
_chemical_formula_structural   ZnS
_chemical_formula_sum   'Zn14 S14'
_cell_volume   547.58489050
_cell_formula_units_Z   14
loop_
 _symmetry_equiv_pos_site_id
 _symmetry_equiv_pos_as_xyz
  1  'x, y, z'
loop_
 _atom_site_type_symbol
 _atom_site_label
 _atom_site_symmetry_multiplicity
 _atom_site_fract_x
 _atom_site_fract_y
 _atom_site_fract_z
 _atom_site_occupancy
  Zn  Zn0  1  0.66666700  0.33333300  0.14286916  1
  Zn  Zn1  1  -0.00000000  0.00000000  0.21424032  1
  Zn  Zn2  1  0.33333300  0.66666700  0.07147122  1
  Zn  Zn3  1  0.66666700  0.33333300  0.78570763  1
  Zn  Zn4  1  -0.00000000  0.00000000  0.71425849  1
  Zn  Zn5  1  0.66666700  0.33333300  0.64280292  1
  Zn  Zn6  1  0.00000000  -0.00000000  0.35720321  1
  Zn  Zn7  1  0.00000000  -0.00000000  0.00006275  1
  Zn  Zn8  1  0.66666700  0.33333300  0.42853991  1
  Zn  Zn9  1  0.66666700  0.33333300  0.92860310  1
  Zn  Zn10  1  0.33333300  0.66666700  0.28570884  1
  Zn  Zn11  1  0.33333300  0.66666700  0.49996735  1
  Zn  Zn12  1  0.00000000  -0.00000000  0.57136268  1
  Zn  Zn13  1  0.00000000  0.00000000  0.85716305  1
  S  S0  1  -0.00000000  0.00000000  0.76782888  1
  S  S1  1  0.66666700  0.33333300  0.98222409  1
  S  S2  1  0.66666700  0.33333300  0.19644040  1
  S  S3  1  0.33333300  0.66666700  0.33936318  1
  S  S4  1  0.66666700  0.33333300  0.69640938  1
  S  S5  1  0.00000000  -0.00000000  0.41073873  1
  S  S6  1  -0.00000000  0.00000000  0.91072998  1
  S  S7  1  -0.00000000  0.00000000  0.26778653  1
  S  S8  1  0.33333300  0.66666700  0.55354236  1
  S  S9  1  0.66666700  0.33333300  0.83929327  1
  S  S10  1  -0.00000000  0.00000000  0.05361544  1
  S  S11  1  0.66666700  0.33333300  0.48212047  1
  S  S12  1  -0.00000000  0.00000000  0.62490531  1
  S  S13  1  0.33333300  0.66666700  0.12504036  1
loop_
_geom_bond_atom_site_label_1
_geom_bond_atom_site_label_2
_geom_bond_distance
_geom_bond_site_symmetry_2
S0 Zn3 2.332948 1_455
S0 Zn3 2.332951 1_445
S0 Zn3 2.332951 1_555
S0 Zn4 2.335061 1_555
S1 Zn7 2.332365 1_656
S1 Zn7 2.332368 1_666
S1 Zn7 2.332368 1_556
S1 Zn9 2.337267 1_555
S2 Zn1 2.331802 1_655
S2 Zn1 2.331805 1_665
S2 Zn1 2.331805 1_555
S2 Zn0 2.335098 1_555
S3 Zn6 2.332385 1_565
S3 Zn6 2.332388 1_555
S3 Zn6 2.332388 1_665
S3 Zn10 2.338720 1_555
S4 Zn4 2.332517 1_655
S4 Zn4 2.332520 1_665
S4 Zn4 2.332520 1_555
S4 Zn5 2.336633 1_555
S5 Zn8 2.331821 1_455
S5 Zn8 2.331823 1_445
S5 Zn8 2.331824 1_555
S5 Zn6 2.333541 1_555
S6 Zn9 2.332866 1_455
S6 Zn9 2.332869 1_445
S6 Zn9 2.332869 1_555
S6 Zn13 2.334910 1_555
S7 Zn10 2.333583 1_545
S7 Zn10 2.333586 1_555
S7 Zn10 2.333586 1_445
S7 Zn1 2.334007 1_555
S8 Zn12 2.332098 1_565
S8 Zn12 2.332101 1_555
S8 Zn12 2.332101 1_665
S8 Zn11 2.335262 1_555
S9 Zn13 2.332817 1_655
S9 Zn13 2.332820 1_665
S9 Zn13 2.332820 1_555
S9 Zn3 2.335726 1_555
S10 Zn2 2.332614 1_545
S10 Zn2 2.332616 1_555
S10 Zn2 2.332617 1_445
S10 Zn7 2.334290 1_555
S11 Zn11 2.332484 1_545
S11 Zn11 2.332484 1_655
S11 Zn11 2.332490 1_555
S11 Zn8 2.335504 1_555
S12 Zn5 2.333223 1_455
S12 Zn5 2.333226 1_445
S12 Zn5 2.333226 1_555
S12 Zn12 2.333851 1_555
S13 Zn0 2.332221 1_565
S13 Zn0 2.332221 1_455
S13 Zn0 2.332228 1_555
S13 Zn2 2.335007 1_555
