# generated using pymatgen
data_NdAlO3
_symmetry_space_group_name_H-M   'P 1'
_cell_length_a   5.28525252
_cell_length_b   5.28525164
_cell_length_c   5.28525247
_cell_angle_alpha   60.57397474
_cell_angle_beta   60.57397828
_cell_angle_gamma   60.57397833
_symmetry_Int_Tables_number   1
_chemical_formula_structural   NdAlO3
_chemical_formula_sum   'Nd2 Al2 O6'
_cell_volume   105.74913461
_cell_formula_units_Z   2
loop_
 _symmetry_equiv_pos_site_id
 _symmetry_equiv_pos_as_xyz
  1  'x, y, z'
loop_
 _atom_site_type_symbol
 _atom_site_label
 _atom_site_symmetry_multiplicity
 _atom_site_fract_x
 _atom_site_fract_y
 _atom_site_fract_z
 _atom_site_occupancy
  Nd  Nd0  1  0.75000000  0.75000000  0.75000000  1
  Nd  Nd1  1  0.25000000  0.25000000  0.25000000  1
  Al  Al0  1  0.50000000  0.50000000  0.50000000  1
  Al  Al1  1  -0.00000000  0.00000000  0.00000000  1
  O  O0  1  0.29908202  0.75000000  0.20091798  1
  O  O1  1  0.75000000  0.20091798  0.29908202  1
  O  O2  1  0.20091798  0.29908202  0.75000000  1
  O  O3  1  0.70091898  0.25000000  0.79908102  1
  O  O4  1  0.79908102  0.70091898  0.25000000  1
  O  O5  1  0.25000000  0.79908102  0.70091898  1
loop_
_geom_bond_atom_site_label_1
_geom_bond_atom_site_label_2
_geom_bond_distance
_geom_bond_site_symmetry_2
Nd0 O1 2.403861 1_565
Nd0 O2 2.403861 1_655
Nd0 O0 2.403861 1_556
Nd0 O3 2.655548 1_555
Nd0 O3 2.655548 1_565
Nd0 O4 2.655548 1_555
Nd0 O5 2.655548 1_655
Nd0 O4 2.655548 1_556
Nd0 O5 2.655548 1_555
Nd0 O1 2.927177 1_556
Nd0 O2 2.927178 1_565
Nd0 O0 2.927178 1_655
Nd1 O5 2.403866 1_545
Nd1 O4 2.403867 1_455
Nd1 O3 2.403867 1_554
Nd1 O0 2.655548 1_555
Nd1 O0 2.655548 1_545
Nd1 O2 2.655549 1_555
Nd1 O1 2.655549 1_455
Nd1 O2 2.655549 1_554
Nd1 O1 2.655549 1_555
Nd1 O5 2.927172 1_554
Nd1 O4 2.927172 1_545
Nd1 O3 2.927172 1_455
Al0 O5 1.894882 1_555
Al0 O4 1.894882 1_555
Al0 O3 1.894882 1_555
Al0 O1 1.894883 1_555
Al0 O2 1.894883 1_555
Al0 O0 1.894883 1_555
Al1 O4 1.894882 1_445
Al1 O5 1.894882 1_544
Al1 O3 1.894882 1_454
Al1 O2 1.894883 1_554
Al1 O1 1.894883 1_455
Al1 O0 1.894883 1_545
