# generated using pymatgen
data_Ba3ZrRu2O9
_symmetry_space_group_name_H-M   'P 1'
_cell_length_a   5.88026623
_cell_length_b   5.88026623
_cell_length_c   14.48646500
_cell_angle_alpha   90.00000000
_cell_angle_beta   90.00000000
_cell_angle_gamma   120.00000256
_symmetry_Int_Tables_number   1
_chemical_formula_structural   Ba3ZrRu2O9
_chemical_formula_sum   'Ba6 Zr2 Ru4 O18'
_cell_volume   433.79747538
_cell_formula_units_Z   2
loop_
 _symmetry_equiv_pos_site_id
 _symmetry_equiv_pos_as_xyz
  1  'x, y, z'
loop_
 _atom_site_type_symbol
 _atom_site_label
 _atom_site_symmetry_multiplicity
 _atom_site_fract_x
 _atom_site_fract_y
 _atom_site_fract_z
 _atom_site_occupancy
  Ba  Ba0  1  0.33333300  0.66666700  0.90804600  1
  Ba  Ba1  1  0.66666700  0.33333300  0.09195400  1
  Ba  Ba2  1  0.66666700  0.33333300  0.40804600  1
  Ba  Ba3  1  0.33333300  0.66666700  0.59195400  1
  Ba  Ba4  1  0.00000000  0.00000000  0.25000000  1
  Ba  Ba5  1  0.00000000  0.00000000  0.75000000  1
  Zr  Zr0  1  0.00000000  0.00000000  0.50000000  1
  Zr  Zr1  1  0.00000000  0.00000000  0.00000000  1
  Ru  Ru0  1  0.33333300  0.66666700  0.33684500  1
  Ru  Ru1  1  0.66666700  0.33333300  0.83684500  1
  Ru  Ru2  1  0.33333300  0.66666700  0.16315500  1
  Ru  Ru3  1  0.66666700  0.33333300  0.66315500  1
  O  O0  1  0.65925100  0.82962500  0.41683800  1
  O  O1  1  0.34074900  0.17037500  0.58316200  1
  O  O2  1  0.48921600  0.51078400  0.25000000  1
  O  O3  1  0.34074900  0.17037500  0.91683800  1
  O  O4  1  0.82962500  0.65925100  0.91683800  1
  O  O5  1  0.51078400  0.02156800  0.75000000  1
  O  O6  1  0.17037500  0.34074900  0.08316200  1
  O  O7  1  0.17037500  0.82962500  0.08316200  1
  O  O8  1  0.17037500  0.34074900  0.41683800  1
  O  O9  1  0.02156800  0.51078400  0.25000000  1
  O  O10  1  0.97843200  0.48921600  0.75000000  1
  O  O11  1  0.65925100  0.82962500  0.08316200  1
  O  O12  1  0.51078400  0.48921600  0.75000000  1
  O  O13  1  0.48921600  0.97843200  0.25000000  1
  O  O14  1  0.82962500  0.65925100  0.58316200  1
  O  O15  1  0.82962500  0.17037500  0.58316200  1
  O  O16  1  0.82962500  0.17037500  0.91683800  1
  O  O17  1  0.17037500  0.82962500  0.41683800  1
loop_
_geom_bond_atom_site_label_1
_geom_bond_atom_site_label_2
_geom_bond_distance
_geom_bond_site_symmetry_2
Ba0 O5 2.916906 1_565
Ba0 O10 2.916906 1_455
Ba0 O12 2.916909 1_555
Ba0 O16 2.943133 1_455
Ba0 O16 2.943133 1_565
Ba0 O4 2.943133 1_455
Ba0 O3 2.943133 1_565
Ba0 O3 2.943133 1_555
Ba0 O4 2.943133 1_555
Ba0 O7 3.031512 1_556
Ba0 O11 3.031518 1_556
Ba0 O6 3.031518 1_556
Ba1 O13 2.916906 1_545
Ba1 O9 2.916906 1_655
Ba1 O2 2.916909 1_555
Ba1 O7 2.943133 1_655
Ba1 O7 2.943133 1_545
Ba1 O11 2.943133 1_545
Ba1 O6 2.943133 1_655
Ba1 O6 2.943133 1_555
Ba1 O11 2.943133 1_555
Ba1 O16 3.031512 1_554
Ba1 O4 3.031518 1_554
Ba1 O3 3.031518 1_554
Ba2 O13 2.916906 1_545
Ba2 O9 2.916906 1_655
Ba2 O2 2.916909 1_555
Ba2 O17 2.943133 1_655
Ba2 O17 2.943133 1_545
Ba2 O0 2.943133 1_545
Ba2 O8 2.943133 1_655
Ba2 O8 2.943133 1_555
Ba2 O0 2.943133 1_555
Ba2 O15 3.031512 1_555
Ba2 O14 3.031518 1_555
Ba2 O1 3.031518 1_555
Ba3 O5 2.916906 1_565
Ba3 O10 2.916906 1_455
Ba3 O12 2.916909 1_555
Ba3 O15 2.943133 1_565
Ba3 O15 2.943133 1_455
Ba3 O14 2.943133 1_455
Ba3 O1 2.943133 1_565
Ba3 O1 2.943133 1_555
Ba3 O14 2.943133 1_555
Ba3 O17 3.031512 1_555
Ba3 O0 3.031518 1_555
Ba3 O8 3.031518 1_555
Ba4 O2 2.942184 1_555
Ba4 O2 2.942184 1_445
Ba4 O13 2.942184 1_445
Ba4 O9 2.942184 1_555
Ba4 O13 2.942184 1_545
Ba4 O9 2.942184 1_545
Ba4 O6 2.975309 1_555
Ba4 O8 2.975309 1_555
Ba4 O0 2.975309 1_445
Ba4 O11 2.975309 1_445
Ba4 O7 2.975312 1_545
Ba4 O17 2.975312 1_545
Ba5 O12 2.942184 1_445
Ba5 O12 2.942184 1_555
Ba5 O5 2.942184 1_555
Ba5 O10 2.942184 1_445
Ba5 O10 2.942184 1_455
Ba5 O5 2.942184 1_455
Ba5 O3 2.975309 1_555
Ba5 O4 2.975309 1_445
Ba5 O1 2.975309 1_555
Ba5 O14 2.975309 1_445
Ba5 O16 2.975312 1_455
Ba5 O15 2.975312 1_455
O0 Ru0 2.024238 1_555
O0 Zr0 2.112452 1_665
O1 Ru3 2.024238 1_555
O1 Zr0 2.112452 1_555
O2 Ru2 2.025687 1_555
O2 Ru0 2.025687 1_555
O3 Ru1 2.024238 1_555
O3 Zr1 2.112452 1_556
O4 Ru1 2.024238 1_555
O4 Zr1 2.112452 1_666
O5 Ru1 2.025683 1_555
O5 Ru3 2.025683 1_555
O6 Ru2 2.024238 1_555
O6 Zr1 2.112452 1_555
O7 Ru2 2.024230 1_555
O7 Zr1 2.112456 1_565
O8 Ru0 2.024238 1_555
O8 Zr0 2.112452 1_555
O9 Ru2 2.025683 1_555
O9 Ru0 2.025683 1_555
O10 Ru1 2.025683 1_555
O10 Ru3 2.025683 1_555
O11 Ru2 2.024238 1_555
O11 Zr1 2.112452 1_665
O12 Ru1 2.025687 1_555
O12 Ru3 2.025687 1_555
O13 Ru2 2.025683 1_555
O13 Ru0 2.025683 1_555
O14 Ru3 2.024238 1_555
O14 Zr0 2.112452 1_665
O15 Ru3 2.024230 1_555
O15 Zr0 2.112456 1_655
O16 Ru1 2.024230 1_555
O16 Zr1 2.112456 1_656
O17 Ru0 2.024230 1_555
O17 Zr0 2.112456 1_565
