# generated using pymatgen
data_MoS2N2Cl5
_symmetry_space_group_name_H-M   'P 1'
_cell_length_a   7.34769600
_cell_length_b   7.68337531
_cell_length_c   10.20051715
_cell_angle_alpha   75.16119574
_cell_angle_beta   81.33174351
_cell_angle_gamma   84.61792034
_symmetry_Int_Tables_number   1
_chemical_formula_structural   MoS2N2Cl5
_chemical_formula_sum   'Mo2 S4 N4 Cl10'
_cell_volume   549.38871885
_cell_formula_units_Z   2
loop_
 _symmetry_equiv_pos_site_id
 _symmetry_equiv_pos_as_xyz
  1  'x, y, z'
loop_
 _atom_site_type_symbol
 _atom_site_label
 _atom_site_symmetry_multiplicity
 _atom_site_fract_x
 _atom_site_fract_y
 _atom_site_fract_z
 _atom_site_occupancy
  Mo  Mo0  1  0.19430700  0.15546200  0.23431700  1
  Mo  Mo1  1  0.80569300  0.84453800  0.76568300  1
  S  S0  1  0.96861000  0.58895700  0.08373200  1
  S  S1  1  0.03139000  0.41104300  0.91626800  1
  S  S2  1  0.39069000  0.80862200  0.44888400  1
  S  S3  1  0.60931000  0.19137800  0.55111600  1
  N  N0  1  0.70167700  0.02725900  0.64886900  1
  N  N1  1  0.06254900  0.38634100  0.07742400  1
  N  N2  1  0.29832300  0.97274100  0.35113100  1
  N  N3  1  0.93745100  0.61365900  0.92257600  1
  Cl  Cl0  1  0.90468600  0.63788200  0.63401900  1
  Cl  Cl1  1  0.51147700  0.64645700  0.32332900  1
  Cl  Cl2  1  0.23689000  0.04070300  0.04106400  1
  Cl  Cl3  1  0.52908200  0.69525200  0.84355700  1
  Cl  Cl4  1  0.76311000  0.95929700  0.95893600  1
  Cl  Cl5  1  0.09531400  0.36211800  0.36598100  1
  Cl  Cl6  1  0.10243700  0.96240600  0.70565600  1
  Cl  Cl7  1  0.48852300  0.35354300  0.67667100  1
  Cl  Cl8  1  0.89756300  0.03759400  0.29434400  1
  Cl  Cl9  1  0.47091800  0.30474800  0.15644300  1
loop_
_geom_bond_atom_site_label_1
_geom_bond_atom_site_label_2
_geom_bond_distance
_geom_bond_site_symmetry_2
Mo0 N2 1.786421 1_545
Mo0 N1 2.309989 1_555
Mo1 N0 1.786421 1_565
Mo1 N3 2.309989 1_555
N0 S3 1.563454 1_555
N1 S1 1.654161 1_554
N1 S0 1.655432 1_455
N2 S2 1.563454 1_555
N3 S0 1.654161 1_556
N3 S1 1.655432 1_655
Cl0 Mo1 2.331338 1_555
Cl1 S2 2.060986 1_555
Cl2 Mo0 2.326782 1_555
Cl3 Mo1 2.358287 1_555
Cl4 Mo1 2.326782 1_555
Cl5 Mo0 2.331338 1_555
Cl6 Mo1 2.373421 1_455
Cl7 S3 2.060986 1_555
Cl8 Mo0 2.373421 1_655
Cl9 Mo0 2.358287 1_555
