# generated using pymatgen
data_CsGeB3O7
_symmetry_space_group_name_H-M   'P 1'
_cell_length_a   7.10363500
_cell_length_b   9.68492200
_cell_length_c   10.06314900
_cell_angle_alpha   90.00000000
_cell_angle_beta   90.00000000
_cell_angle_gamma   90.00000000
_symmetry_Int_Tables_number   1
_chemical_formula_structural   CsGeB3O7
_chemical_formula_sum   'Cs4 Ge4 B12 O28'
_cell_volume   692.32604335
_cell_formula_units_Z   4
loop_
 _symmetry_equiv_pos_site_id
 _symmetry_equiv_pos_as_xyz
  1  'x, y, z'
loop_
 _atom_site_type_symbol
 _atom_site_label
 _atom_site_symmetry_multiplicity
 _atom_site_fract_x
 _atom_site_fract_y
 _atom_site_fract_z
 _atom_site_occupancy
  Cs  Cs0  1  0.00634100  0.99940900  0.67318500  1
  Cs  Cs1  1  0.50634100  0.50059100  0.17318500  1
  Cs  Cs2  1  0.00634100  0.49940900  0.82681500  1
  Cs  Cs3  1  0.50634100  0.00059100  0.32681500  1
  Ge  Ge0  1  0.49303500  0.77173200  0.88985800  1
  Ge  Ge1  1  0.99303500  0.22826800  0.11014200  1
  Ge  Ge2  1  0.49303500  0.27173200  0.61014200  1
  Ge  Ge3  1  0.99303500  0.72826800  0.38985800  1
  B  B0  1  0.86561800  0.82557400  0.01146300  1
  B  B1  1  0.19586200  0.34536100  0.43577000  1
  B  B2  1  0.96153400  0.45772600  0.28388000  1
  B  B3  1  0.96153400  0.95772600  0.21612000  1
  B  B4  1  0.36561800  0.17442600  0.98853700  1
  B  B5  1  0.86561800  0.32557400  0.48853700  1
  B  B6  1  0.46153400  0.04227400  0.78388000  1
  B  B7  1  0.36561800  0.67442600  0.51146300  1
  B  B8  1  0.19586200  0.84536100  0.06423000  1
  B  B9  1  0.69586200  0.65463900  0.56423000  1
  B  B10  1  0.69586200  0.15463900  0.93577000  1
  B  B11  1  0.46153400  0.54227400  0.71612000  1
  O  O0  1  0.93951000  0.60813800  0.26558500  1
  O  O1  1  0.42357400  0.10348600  0.65159300  1
  O  O2  1  0.31983000  0.59453700  0.61721100  1
  O  O3  1  0.55531000  0.20175200  0.02136000  1
  O  O4  1  0.42357400  0.60348600  0.84840700  1
  O  O5  1  0.05531000  0.29824800  0.52136000  1
  O  O6  1  0.15470800  0.42334800  0.32758700  1
  O  O7  1  0.05531000  0.79824800  0.97864000  1
  O  O8  1  0.23914000  0.23678600  0.07363900  1
  O  O9  1  0.88257700  0.19015300  0.95475800  1
  O  O10  1  0.38257700  0.80984700  0.04524200  1
  O  O11  1  0.31983000  0.09453700  0.88278900  1
  O  O12  1  0.43951000  0.39186200  0.73441500  1
  O  O13  1  0.73914000  0.76321400  0.92636100  1
  O  O14  1  0.88257700  0.69015300  0.54524200  1
  O  O15  1  0.65470800  0.57665200  0.67241300  1
  O  O16  1  0.92357400  0.39651400  0.15159300  1
  O  O17  1  0.65470800  0.07665200  0.82758700  1
  O  O18  1  0.81983000  0.40546300  0.38278900  1
  O  O19  1  0.38257700  0.30984700  0.45475800  1
  O  O20  1  0.81983000  0.90546300  0.11721100  1
  O  O21  1  0.93951000  0.10813800  0.23441500  1
  O  O22  1  0.92357400  0.89651400  0.34840700  1
  O  O23  1  0.23914000  0.73678600  0.42636100  1
  O  O24  1  0.15470800  0.92334800  0.17241300  1
  O  O25  1  0.43951000  0.89186200  0.76558500  1
  O  O26  1  0.55531000  0.70175200  0.47864000  1
  O  O27  1  0.73914000  0.26321400  0.57363900  1
loop_
_geom_bond_atom_site_label_1
_geom_bond_atom_site_label_2
_geom_bond_distance
_geom_bond_site_symmetry_2
Cs0 O17 3.035327 1_465
Cs0 O1 3.138114 1_565
Cs0 O11 3.202653 1_565
Cs0 O5 3.291181 1_565
Cs0 O27 3.336757 1_465
Cs0 O14 3.376592 1_455
Cs0 O25 3.379035 1_555
Cs0 O22 3.467055 1_455
Cs0 O9 3.494911 1_465
Cs0 O7 3.655829 1_555
Cs1 O6 3.035327 1_555
Cs1 O16 3.138114 1_555
Cs1 O18 3.202653 1_555
Cs1 O3 3.291181 1_555
Cs1 O8 3.336757 1_555
Cs1 O10 3.376592 1_555
Cs1 O0 3.379035 1_555
Cs1 O4 3.467055 1_554
Cs1 O19 3.494911 1_555
Cs1 O26 3.655829 1_555
Cs2 O15 3.035327 1_455
Cs2 O4 3.138114 1_555
Cs2 O2 3.202653 1_555
Cs2 O7 3.291181 1_555
Cs2 O13 3.336757 1_455
Cs2 O9 3.376592 1_455
Cs2 O12 3.379035 1_555
Cs2 O16 3.467055 1_456
Cs2 O14 3.494911 1_455
Cs2 O5 3.655829 1_555
Cs3 O24 3.035327 1_545
Cs3 O22 3.138114 1_545
Cs3 O20 3.202653 1_545
Cs3 O26 3.291181 1_545
Cs3 O23 3.336757 1_545
Cs3 O19 3.376592 1_555
Cs3 O21 3.379035 1_555
Cs3 O1 3.467055 1_555
Cs3 O10 3.494911 1_545
Cs3 O3 3.655829 1_555
Ge0 O25 1.749894 1_555
Ge0 O4 1.752875 1_555
Ge0 O10 1.788003 1_556
Ge0 O13 1.788319 1_555
Ge1 O21 1.749894 1_555
Ge1 O16 1.752875 1_555
Ge1 O9 1.788003 1_554
Ge1 O8 1.788319 1_655
Ge2 O12 1.749894 1_555
Ge2 O1 1.752875 1_555
Ge2 O19 1.788003 1_555
Ge2 O27 1.788319 1_555
Ge3 O0 1.749894 1_555
Ge3 O22 1.752875 1_555
Ge3 O14 1.788003 1_555
Ge3 O23 1.788319 1_655
B0 O20 1.355311 1_555
B0 O13 1.380358 1_554
B0 O7 1.412410 1_654
B1 O6 1.356880 1_555
B1 O19 1.383485 1_555
B1 O5 1.395316 1_555
B2 O0 1.476628 1_555
B2 O6 1.478966 1_655
B2 O16 1.481999 1_555
B2 O18 1.503385 1_555
B3 O21 1.476628 1_565
B3 O24 1.478966 1_655
B3 O22 1.481999 1_555
B3 O20 1.503385 1_555
B4 O11 1.355311 1_555
B4 O8 1.380358 1_556
B4 O3 1.412410 1_556
B5 O18 1.355311 1_555
B5 O27 1.380358 1_555
B5 O5 1.412410 1_655
B6 O25 1.476628 1_545
B6 O17 1.478966 1_555
B6 O1 1.481999 1_555
B6 O11 1.503385 1_555
B7 O2 1.355311 1_555
B7 O23 1.380358 1_555
B7 O26 1.412410 1_555
B8 O24 1.356880 1_555
B8 O10 1.383485 1_555
B8 O7 1.395316 1_554
B9 O15 1.356880 1_555
B9 O14 1.383485 1_555
B9 O26 1.395316 1_555
B10 O17 1.356880 1_555
B10 O9 1.383485 1_555
B10 O3 1.395316 1_556
B11 O12 1.476628 1_555
B11 O15 1.478966 1_555
B11 O4 1.481999 1_555
B11 O2 1.503385 1_555
