# generated using pymatgen
data_La6Ti2S8O5
_symmetry_space_group_name_H-M   'P 1'
_cell_length_a   4.02037100
_cell_length_b   12.77072000
_cell_length_c   16.48571446
_cell_angle_alpha   82.96224512
_cell_angle_beta   90.00000000
_cell_angle_gamma   90.00000000
_symmetry_Int_Tables_number   1
_chemical_formula_structural   La6Ti2S8O5
_chemical_formula_sum   'La12 Ti4 S16 O10'
_cell_volume   840.04928030
_cell_formula_units_Z   2
loop_
 _symmetry_equiv_pos_site_id
 _symmetry_equiv_pos_as_xyz
  1  'x, y, z'
loop_
 _atom_site_type_symbol
 _atom_site_label
 _atom_site_symmetry_multiplicity
 _atom_site_fract_x
 _atom_site_fract_y
 _atom_site_fract_z
 _atom_site_occupancy
  La  La0  1  0.75000000  0.68004800  0.64874500  1
  La  La1  1  0.75000000  0.39590200  0.12616400  1
  La  La2  1  0.75000000  0.06815400  0.11745000  1
  La  La3  1  0.25000000  0.60409800  0.87383600  1
  La  La4  1  0.25000000  0.31995200  0.35125500  1
  La  La5  1  0.25000000  0.38482800  0.60157800  1
  La  La6  1  0.25000000  0.99841800  0.61950400  1
  La  La7  1  0.25000000  0.93184600  0.88255000  1
  La  La8  1  0.75000000  0.61517200  0.39842200  1
  La  La9  1  0.75000000  0.00158200  0.38049600  1
  La  La10  1  0.75000000  0.73089400  0.10229100  1
  La  La11  1  0.25000000  0.26910600  0.89770900  1
  Ti  Ti0  1  0.75000000  0.44112800  0.77401100  1
  Ti  Ti1  1  0.75000000  0.15333600  0.76757800  1
  Ti  Ti2  1  0.25000000  0.84666400  0.23242200  1
  Ti  Ti3  1  0.25000000  0.55887200  0.22598900  1
  S  S0  1  0.75000000  0.43032600  0.93889800  1
  S  S1  1  0.25000000  0.23557500  0.07632000  1
  S  S2  1  0.25000000  0.91341100  0.06781500  1
  S  S3  1  0.25000000  0.77440500  0.73082400  1
  S  S4  1  0.25000000  0.80447400  0.37343500  1
  S  S5  1  0.75000000  0.39207200  0.46492500  1
  S  S6  1  0.25000000  0.60792800  0.53507500  1
  S  S7  1  0.25000000  0.56967400  0.06110200  1
  S  S8  1  0.75000000  0.76442500  0.92368000  1
  S  S9  1  0.75000000  0.96934100  0.75429200  1
  S  S10  1  0.75000000  0.88662300  0.54562900  1
  S  S11  1  0.75000000  0.19552600  0.62656500  1
  S  S12  1  0.25000000  0.11337700  0.45437100  1
  S  S13  1  0.75000000  0.22559500  0.26917600  1
  S  S14  1  0.25000000  0.03065900  0.24570800  1
  S  S15  1  0.75000000  0.08658900  0.93218500  1
  O  O0  1  0.75000000  0.28714800  0.80806100  1
  O  O1  1  0.25000000  0.14960900  0.78278400  1
  O  O2  1  0.75000000  0.45281100  0.66061300  1
  O  O3  1  0.25000000  0.54718900  0.33938700  1
  O  O4  1  0.25000000  0.41541100  0.21304300  1
  O  O5  1  0.75000000  0.85039100  0.21721600  1
  O  O6  1  0.75000000  0.58458900  0.78695700  1
  O  O7  1  0.25000000  0.71285200  0.19193900  1
  O  O8  1  0.75000000  0.56689100  0.21724500  1
  O  O9  1  0.25000000  0.43310900  0.78275500  1
loop_
_geom_bond_atom_site_label_1
_geom_bond_atom_site_label_2
_geom_bond_distance
_geom_bond_site_symmetry_2
La0 O6 2.448910 1_555
La0 S3 2.779102 1_555
La0 S3 2.779102 1_655
La0 O2 2.884551 1_555
La0 S10 2.958122 1_555
La0 S6 2.970469 1_555
La0 S6 2.970469 1_655
La1 O4 2.498347 1_655
La1 O4 2.498347 1_555
La1 O8 2.797573 1_555
La1 S13 3.005391 1_555
La1 S1 3.052959 1_555
La1 S1 3.052959 1_655
La1 S0 3.064568 1_554
La1 S7 3.087530 1_555
La1 S7 3.087530 1_655
La2 S14 2.914245 1_555
La2 S14 2.914245 1_655
La2 S1 2.952417 1_655
La2 S1 2.952417 1_555
La2 S2 3.001990 1_645
La2 S2 3.001990 1_545
La2 S15 3.034390 1_554
La2 O5 3.052567 1_545
La2 S13 3.395822 1_555
La3 O6 2.498347 1_455
La3 O6 2.498347 1_555
La3 O9 2.797573 1_555
La3 S3 3.005391 1_555
La3 S8 3.052959 1_555
La3 S8 3.052959 1_455
La3 S7 3.064568 1_556
La3 S0 3.087530 1_555
La3 S0 3.087530 1_455
La4 O4 2.448910 1_555
La4 S13 2.779102 1_555
La4 S13 2.779102 1_455
La4 O3 2.884551 1_555
La4 S12 2.958122 1_555
La4 S5 2.970469 1_555
La4 S5 2.970469 1_455
La5 O2 2.439025 1_455
La5 O2 2.439025 1_555
La5 S6 2.924753 1_555
La5 S5 3.012232 1_455
La5 S5 3.012232 1_555
La5 O9 3.122920 1_555
La5 S11 3.132239 1_455
La5 S11 3.132239 1_555
La6 S10 2.826393 1_455
La6 S10 2.826393 1_555
La6 S12 2.930372 1_565
La6 S9 2.985659 1_455
La6 S9 2.985659 1_555
La6 S3 3.204000 1_555
La6 S11 3.234587 1_565
La6 S11 3.234587 1_465
La7 S9 2.914245 1_455
La7 S9 2.914245 1_555
La7 S8 2.952417 1_555
La7 S8 2.952417 1_455
La7 S15 3.001990 1_465
La7 S15 3.001990 1_565
La7 S2 3.034390 1_556
La7 O1 3.052567 1_565
La7 S3 3.395822 1_555
La8 O3 2.439025 1_555
La8 O3 2.439025 1_655
La8 S5 2.924753 1_555
La8 S6 3.012232 1_555
La8 S6 3.012232 1_655
La8 O8 3.122920 1_555
La8 S4 3.132239 1_655
La8 S4 3.132239 1_555
La9 S12 2.826393 1_555
La9 S12 2.826393 1_655
La9 S10 2.930372 1_545
La9 S14 2.985659 1_655
La9 S14 2.985659 1_555
La9 S13 3.204000 1_555
La9 S4 3.234587 1_645
La9 S4 3.234587 1_545
La10 O7 2.488918 1_555
La10 O7 2.488918 1_655
La10 O5 2.574288 1_555
La10 O8 2.646778 1_555
La10 S8 2.923123 1_554
La10 S7 3.013896 1_655
La10 S7 3.013896 1_555
La10 S2 3.077697 1_655
La10 S2 3.077697 1_555
La11 O0 2.488918 1_455
La11 O0 2.488918 1_555
La11 O1 2.574288 1_555
La11 O9 2.646778 1_555
La11 S1 2.923123 1_556
La11 S0 3.013896 1_455
La11 S0 3.013896 1_555
La11 S15 3.077697 1_455
La11 S15 3.077697 1_555
S0 Ti0 2.704845 1_555
S2 Ti2 2.742944 1_555
S4 Ti2 2.321121 1_555
S7 Ti3 2.704845 1_555
S9 Ti1 2.386506 1_565
S11 Ti1 2.321121 1_555
S14 Ti2 2.386506 1_545
S15 Ti1 2.742944 1_555
O0 Ti1 1.909225 1_555
O0 Ti0 1.977746 1_555
O1 Ti1 2.025593 1_455
O1 Ti1 2.025593 1_555
O2 Ti0 1.857079 1_555
O3 Ti3 1.857079 1_555
O4 Ti3 1.870283 1_555
O5 Ti2 2.025593 1_655
O5 Ti2 2.025593 1_555
O6 Ti0 1.870283 1_555
O7 Ti2 1.909225 1_555
O7 Ti3 1.977746 1_555
O8 Ti3 2.017051 1_555
O8 Ti3 2.017051 1_655
O9 Ti0 2.017051 1_455
O9 Ti0 2.017051 1_555
