# generated using pymatgen
data_Be3P2
_symmetry_space_group_name_H-M   'P 1'
_cell_length_a   8.82861105
_cell_length_b   8.82861092
_cell_length_c   8.82861030
_cell_angle_alpha   109.47121687
_cell_angle_beta   109.47121658
_cell_angle_gamma   109.47122496
_symmetry_Int_Tables_number   1
_chemical_formula_structural   Be3P2
_chemical_formula_sum   'Be24 P16'
_cell_volume   529.73081490
_cell_formula_units_Z   8
loop_
 _symmetry_equiv_pos_site_id
 _symmetry_equiv_pos_as_xyz
  1  'x, y, z'
loop_
 _atom_site_type_symbol
 _atom_site_label
 _atom_site_symmetry_multiplicity
 _atom_site_fract_x
 _atom_site_fract_y
 _atom_site_fract_z
 _atom_site_occupancy
  Be  Be0  1  0.50457910  0.24847095  0.99540212  1
  Be  Be1  1  0.75306984  0.50917798  0.50459788  1
  Be  Be2  1  0.99082202  0.74389185  0.99542090  1
  Be  Be3  1  0.74693016  0.25152905  0.75610815  1
  Be  Be4  1  0.00457910  0.00917798  0.25610815  1
  Be  Be5  1  0.50459788  0.75306984  0.50917798  1
  Be  Be6  1  0.24389185  0.25306984  0.74847095  1
  Be  Be7  1  0.49082202  0.49540212  0.24693016  1
  Be  Be8  1  0.75610815  0.74693016  0.25152905  1
  Be  Be9  1  0.75152905  0.00459788  0.49542090  1
  Be  Be10  1  0.00917798  0.25610815  0.00457910  1
  Be  Be11  1  0.00459788  0.49542090  0.75152905  1
  Be  Be12  1  0.25306984  0.74847095  0.24389185  1
  Be  Be13  1  0.24847095  0.99540212  0.50457910  1
  Be  Be14  1  0.25152905  0.75610815  0.74693016  1
  Be  Be15  1  0.74847095  0.24389185  0.25306984  1
  Be  Be16  1  0.49542090  0.75152905  0.00459788  1
  Be  Be17  1  0.74389185  0.99542090  0.99082202  1
  Be  Be18  1  0.99542090  0.99082202  0.74389185  1
  Be  Be19  1  0.99540212  0.50457910  0.24847095  1
  Be  Be20  1  0.50917798  0.50459788  0.75306984  1
  Be  Be21  1  0.49540212  0.24693016  0.49082202  1
  Be  Be22  1  0.24693016  0.49082202  0.49540212  1
  Be  Be23  1  0.25610815  0.00457910  0.00917798  1
  P  P0  1  0.24364236  0.99364236  0.25000000  1
  P  P1  1  0.74364236  0.49364236  0.25000000  1
  P  P2  1  0.49364236  0.25000000  0.74364236  1
  P  P3  1  0.75635764  0.00635764  0.75000000  1
  P  P4  1  0.25000000  0.74364236  0.49364236  1
  P  P5  1  0.99364236  0.25000000  0.24364236  1
  P  P6  1  0.25000000  0.24364236  0.99364236  1
  P  P7  1  0.50635764  0.75000000  0.25635764  1
  P  P8  1  0.75000000  0.75635764  0.00635764  1
  P  P9  1  0.50000000  0.50000000  0.50000000  1
  P  P10  1  0.00635764  0.75000000  0.75635764  1
  P  P11  1  -0.00000000  -0.00000000  0.50000000  1
  P  P12  1  0.75000000  0.25635764  0.50635764  1
  P  P13  1  0.25635764  0.50635764  0.75000000  1
  P  P14  1  -0.00000000  0.50000000  -0.00000000  1
  P  P15  1  0.50000000  -0.00000000  -0.00000000  1
loop_
_geom_bond_atom_site_label_1
_geom_bond_atom_site_label_2
_geom_bond_distance
_geom_bond_site_symmetry_2
Be0 P1 2.177214 1_556
Be0 P15 2.194706 1_556
Be0 P2 2.197191 1_555
Be0 P6 2.228470 1_555
Be1 P1 2.177208 1_555
Be1 P9 2.194712 1_555
Be1 P10 2.197185 1_655
Be1 P12 2.228476 1_555
Be2 P10 2.177217 1_655
Be2 P14 2.194709 1_656
Be2 P8 2.197182 1_556
Be2 P0 2.228473 1_656
Be3 P3 2.177217 1_555
Be3 P14 2.194709 1_656
Be3 P2 2.197182 1_555
Be3 P12 2.228473 1_555
Be4 P0 2.177217 1_545
Be4 P11 2.194709 1_555
Be4 P5 2.197182 1_455
Be4 P8 2.228473 1_445
Be5 P4 2.177208 1_555
Be5 P9 2.194712 1_555
Be5 P3 2.197185 1_565
Be5 P7 2.228475 1_555
Be6 P6 2.177217 1_555
Be6 P11 2.194709 1_555
Be6 P13 2.197182 1_555
Be6 P2 2.228473 1_555
Be7 P7 2.177208 1_555
Be7 P9 2.194712 1_555
Be7 P6 2.197185 1_554
Be7 P1 2.228476 1_555
Be8 P8 2.177217 1_555
Be8 P11 2.194709 1_665
Be8 P1 2.197182 1_555
Be8 P7 2.228473 1_555
Be9 P7 2.177214 1_545
Be9 P11 2.194706 1_655
Be9 P12 2.197191 1_555
Be9 P3 2.228470 1_555
Be10 P5 2.177217 1_455
Be10 P14 2.194709 1_555
Be10 P6 2.197182 1_554
Be10 P3 2.228473 1_454
Be11 P12 2.177214 1_455
Be11 P14 2.194706 1_556
Be11 P13 2.197191 1_555
Be11 P10 2.228470 1_555
Be12 P0 2.177217 1_555
Be12 P14 2.194709 1_555
Be12 P7 2.197182 1_555
Be12 P4 2.228473 1_555
Be13 P2 2.177214 1_565
Be13 P11 2.194706 1_565
Be13 P4 2.197191 1_555
Be13 P0 2.228470 1_555
Be14 P10 2.177217 1_555
Be14 P15 2.194709 1_566
Be14 P4 2.197182 1_555
Be14 P13 2.228473 1_555
Be15 P5 2.177217 1_555
Be15 P15 2.194709 1_555
Be15 P12 2.197182 1_555
Be15 P1 2.228473 1_555
Be16 P13 2.177214 1_554
Be16 P15 2.194706 1_565
Be16 P7 2.197191 1_555
Be16 P8 2.228470 1_555
Be17 P8 2.177217 1_556
Be17 P15 2.194709 1_566
Be17 P3 2.197182 1_565
Be17 P5 2.228473 1_566
Be18 P3 2.177217 1_565
Be18 P11 2.194709 1_665
Be18 P10 2.197182 1_655
Be18 P6 2.228473 1_665
Be19 P4 2.177214 1_655
Be19 P14 2.194706 1_655
Be19 P1 2.197191 1_555
Be19 P5 2.228470 1_555
Be20 P2 2.177208 1_555
Be20 P9 2.194712 1_555
Be20 P8 2.197185 1_556
Be20 P13 2.228476 1_555
Be21 P12 2.177208 1_555
Be21 P9 2.194712 1_555
Be21 P0 2.197185 1_545
Be21 P2 2.228475 1_555
Be22 P13 2.177208 1_555
Be22 P9 2.194712 1_555
Be22 P5 2.197185 1_455
Be22 P4 2.228476 1_555
Be23 P6 2.177217 1_554
Be23 P15 2.194709 1_555
Be23 P0 2.197182 1_545
Be23 P10 2.228473 1_544
