# generated using pymatgen
data_LiScAs2O7
_symmetry_space_group_name_H-M   'P 1'
_cell_length_a   4.92034217
_cell_length_b   5.54529464
_cell_length_c   5.54529464
_cell_angle_alpha   76.91394387
_cell_angle_beta   81.37530369
_cell_angle_gamma   98.62469631
_symmetry_Int_Tables_number   1
_chemical_formula_structural   LiScAs2O7
_chemical_formula_sum   'Li1 Sc1 As2 O7'
_cell_volume   143.02447670
_cell_formula_units_Z   1
loop_
 _symmetry_equiv_pos_site_id
 _symmetry_equiv_pos_as_xyz
  1  'x, y, z'
loop_
 _atom_site_type_symbol
 _atom_site_label
 _atom_site_symmetry_multiplicity
 _atom_site_fract_x
 _atom_site_fract_y
 _atom_site_fract_z
 _atom_site_occupancy
  Li  Li0  1  0.00000000  0.24866700  0.24866700  1
  Sc  Sc0  1  0.00000000  0.62949500  0.62949500  1
  As  As0  1  0.40888200  0.17970300  0.74612700  1
  As  As1  1  0.59111800  0.74612700  0.17970300  1
  O  O0  1  0.72094200  0.33441500  0.55619000  1
  O  O1  1  0.24900100  0.96536800  0.61376300  1
  O  O2  1  0.50000000  0.03640600  0.03640600  1
  O  O3  1  0.81350900  0.85898200  0.35524400  1
  O  O4  1  0.18649100  0.35524400  0.85898200  1
  O  O5  1  0.27905800  0.55619000  0.33441500  1
  O  O6  1  0.75099900  0.61376300  0.96536800  1
loop_
_geom_bond_atom_site_label_1
_geom_bond_atom_site_label_2
_geom_bond_distance
_geom_bond_site_symmetry_2
Li0 O4 2.127246 1_554
Li0 O3 2.127246 1_445
Li0 O5 2.209117 1_555
Li0 O0 2.209117 1_455
As0 O1 1.690577 1_545
As0 O0 1.706944 1_555
As0 O4 1.710702 1_555
As0 O2 1.779773 1_556
As1 O6 1.690577 1_554
As1 O5 1.706944 1_555
As1 O3 1.710702 1_555
As1 O2 1.779773 1_565
O0 Sc0 2.126684 1_655
O1 Sc0 2.046359 1_555
O3 Sc0 2.160245 1_655
O4 Sc0 2.160245 1_555
O5 Sc0 2.126684 1_555
O6 Sc0 2.046359 1_655
