# generated using pymatgen
data_LiSn
_symmetry_space_group_name_H-M   'P 1'
_cell_length_a   6.27706768
_cell_length_b   10.36173157
_cell_length_c   15.68983481
_cell_angle_alpha   105.52934702
_cell_angle_beta   90.00000000
_cell_angle_gamma   90.00000000
_symmetry_Int_Tables_number   1
_chemical_formula_structural   LiSn
_chemical_formula_sum   'Li24 Sn24'
_cell_volume   983.23263486
_cell_formula_units_Z   24
loop_
 _symmetry_equiv_pos_site_id
 _symmetry_equiv_pos_as_xyz
  1  'x, y, z'
loop_
 _atom_site_type_symbol
 _atom_site_label
 _atom_site_symmetry_multiplicity
 _atom_site_fract_x
 _atom_site_fract_y
 _atom_site_fract_z
 _atom_site_occupancy
  Li  Li0_0  1  0.25000000  0.36466001  0.33708302  1
  Li  Li0_1  1  0.25000000  0.36466001  0.83708302  1
  Li  Li0_2  1  0.25000000  0.86466001  0.33708302  1
  Li  Li0_3  1  0.25000000  0.86466001  0.83708302  1
  Li  Li0_4  1  0.75000000  0.36466001  0.33708302  1
  Li  Li0_5  1  0.75000000  0.36466001  0.83708302  1
  Li  Li0_6  1  0.75000000  0.86466001  0.33708302  1
  Li  Li0_7  1  0.75000000  0.86466001  0.83708302  1
  Li  Li1_0  1  0.25000000  0.25000000  0.00000000  1
  Li  Li1_1  1  0.25000000  0.25000000  0.50000000  1
  Li  Li1_2  1  0.25000000  0.75000000  0.00000000  1
  Li  Li1_3  1  0.25000000  0.75000000  0.50000000  1
  Li  Li1_4  1  0.75000000  0.25000000  0.00000000  1
  Li  Li1_5  1  0.75000000  0.25000000  0.50000000  1
  Li  Li1_6  1  0.75000000  0.75000000  0.00000000  1
  Li  Li1_7  1  0.75000000  0.75000000  0.50000000  1
  Li  Li2_0  1  0.25000000  0.13533999  0.16291698  1
  Li  Li2_1  1  0.25000000  0.13533999  0.66291698  1
  Li  Li2_2  1  0.25000000  0.63533999  0.16291698  1
  Li  Li2_3  1  0.25000000  0.63533999  0.66291698  1
  Li  Li2_4  1  0.75000000  0.13533999  0.16291698  1
  Li  Li2_5  1  0.75000000  0.13533999  0.66291698  1
  Li  Li2_6  1  0.75000000  0.63533999  0.16291698  1
  Li  Li2_7  1  0.75000000  0.63533999  0.66291698  1
  Sn  Sn0_0  1  0.00000000  0.38247157  0.16953848  1
  Sn  Sn0_1  1  0.00000000  0.38247156  0.66953848  1
  Sn  Sn0_2  1  0.00000000  0.88247156  0.16953848  1
  Sn  Sn0_3  1  0.00000000  0.88247157  0.66953848  1
  Sn  Sn0_4  1  0.50000000  0.38247157  0.16953848  1
  Sn  Sn0_5  1  0.50000000  0.38247156  0.66953848  1
  Sn  Sn0_6  1  0.50000000  0.88247156  0.16953848  1
  Sn  Sn0_7  1  0.50000000  0.88247157  0.66953848  1
  Sn  Sn1_0  1  0.00000000  0.11752843  0.33046152  1
  Sn  Sn1_1  1  0.00000000  0.11752844  0.83046152  1
  Sn  Sn1_2  1  0.00000000  0.61752843  0.33046152  1
  Sn  Sn1_3  1  0.00000000  0.61752843  0.83046152  1
  Sn  Sn1_4  1  0.50000000  0.11752843  0.33046152  1
  Sn  Sn1_5  1  0.50000000  0.11752844  0.83046152  1
  Sn  Sn1_6  1  0.50000000  0.61752843  0.33046152  1
  Sn  Sn1_7  1  0.50000000  0.61752843  0.83046152  1
  Sn  Sn2_0  1  0.00000000  0.00000000  0.00000000  1
  Sn  Sn2_1  1  0.00000000  0.00000000  0.50000000  1
  Sn  Sn2_2  1  0.00000000  0.50000000  0.00000000  1
  Sn  Sn2_3  1  0.00000000  0.50000000  0.50000000  1
  Sn  Sn2_4  1  0.50000000  0.00000000  0.00000000  1
  Sn  Sn2_5  1  0.50000000  0.00000000  0.50000000  1
  Sn  Sn2_6  1  0.50000000  0.50000000  0.00000000  1
  Sn  Sn2_7  1  0.50000000  0.50000000  0.50000000  1
loop_
_geom_bond_atom_site_label_1
_geom_bond_atom_site_label_2
_geom_bond_distance
_geom_bond_site_symmetry_2
Li0_0 Sn1_4 2.981305 1_555
Li0_0 Sn1_0 2.981305 1_555
Li0_0 Sn2_7 3.007262 1_555
Li0_0 Sn2_3 3.007262 1_555
Li0_0 Sn1_2 3.079669 1_555
Li0_0 Sn1_6 3.079669 1_555
Li0_0 Li1_1 3.093788 1_555
Li0_0 Li2_0 3.104279 1_555
Li0_0 Sn0_0 3.109140 1_555
Li0_0 Sn0_4 3.109140 1_555
Li0_0 Li0_4 3.138534 1_555
Li0_0 Li0_4 3.138534 1_455
Li0_1 Sn1_1 2.981305 1_555
Li0_1 Sn1_5 2.981305 1_555
Li0_1 Sn2_2 3.007262 1_556
Li0_1 Sn2_6 3.007262 1_556
Li0_1 Sn1_7 3.079669 1_555
Li0_1 Sn1_3 3.079669 1_555
Li0_1 Li1_0 3.093788 1_556
Li0_1 Li2_1 3.104279 1_555
Li0_1 Sn0_5 3.109140 1_555
Li0_1 Sn0_1 3.109140 1_555
Li0_1 Li0_5 3.138534 1_555
Li0_1 Li0_5 3.138534 1_455
Li0_2 Sn1_2 2.981305 1_555
Li0_2 Sn1_6 2.981305 1_555
Li0_2 Sn2_1 3.007262 1_565
Li0_2 Sn2_5 3.007262 1_565
Li0_2 Sn1_0 3.079669 1_565
Li0_2 Sn1_4 3.079669 1_565
Li0_2 Li1_3 3.093788 1_555
Li0_2 Li2_2 3.104279 1_555
Li0_2 Sn0_2 3.109140 1_555
Li0_2 Sn0_6 3.109140 1_555
Li0_2 Li0_6 3.138534 1_555
Li0_2 Li0_6 3.138534 1_455
Li0_3 Sn1_3 2.981305 1_555
Li0_3 Sn1_7 2.981305 1_555
Li0_3 Sn2_0 3.007262 1_566
Li0_3 Sn2_4 3.007262 1_566
Li0_3 Sn1_5 3.079669 1_565
Li0_3 Sn1_1 3.079669 1_565
Li0_3 Li1_2 3.093788 1_556
Li0_3 Li2_3 3.104279 1_555
Li0_3 Sn0_3 3.109140 1_555
Li0_3 Sn0_7 3.109140 1_555
Li0_3 Li0_7 3.138534 1_555
Li0_3 Li0_7 3.138534 1_455
Li0_4 Sn1_4 2.981305 1_555
Li0_4 Sn1_0 2.981305 1_655
Li0_4 Sn2_7 3.007262 1_555
Li0_4 Sn2_3 3.007262 1_655
Li0_4 Sn1_6 3.079669 1_555
Li0_4 Sn1_2 3.079669 1_655
Li0_4 Li1_5 3.093788 1_555
Li0_4 Li2_4 3.104279 1_555
Li0_4 Sn0_4 3.109140 1_555
Li0_4 Sn0_0 3.109140 1_655
Li0_5 Sn1_5 2.981305 1_555
Li0_5 Sn1_1 2.981305 1_655
Li0_5 Sn2_6 3.007262 1_556
Li0_5 Sn2_2 3.007262 1_656
Li0_5 Sn1_7 3.079669 1_555
Li0_5 Sn1_3 3.079669 1_655
Li0_5 Li1_4 3.093788 1_556
Li0_5 Li2_5 3.104279 1_555
Li0_5 Sn0_5 3.109140 1_555
Li0_5 Sn0_1 3.109140 1_655
Li0_6 Sn1_6 2.981305 1_555
Li0_6 Sn1_2 2.981305 1_655
Li0_6 Sn2_5 3.007262 1_565
Li0_6 Sn2_1 3.007262 1_665
Li0_6 Sn1_4 3.079669 1_565
Li0_6 Sn1_0 3.079669 1_665
Li0_6 Li1_7 3.093788 1_555
Li0_6 Li2_6 3.104279 1_555
Li0_6 Sn0_6 3.109140 1_555
Li0_6 Sn0_2 3.109140 1_655
Li0_7 Sn1_7 2.981305 1_555
Li0_7 Sn1_3 2.981305 1_655
Li0_7 Sn2_4 3.007262 1_566
Li0_7 Sn2_0 3.007262 1_666
Li0_7 Sn1_5 3.079669 1_565
Li0_7 Sn1_1 3.079669 1_665
Li0_7 Li1_6 3.093788 1_556
Li0_7 Li2_7 3.104279 1_555
Li0_7 Sn0_7 3.109140 1_555
Li0_7 Sn0_3 3.109140 1_655
Li1_0 Sn2_6 3.028686 1_555
Li1_0 Sn2_0 3.028686 1_555
Li1_0 Sn2_4 3.028686 1_555
Li1_0 Sn2_2 3.028686 1_555
Li1_0 Sn1_1 3.076910 1_554
Li1_0 Sn1_5 3.076910 1_554
Li1_0 Sn0_0 3.076910 1_555
Li1_0 Sn0_4 3.076910 1_555
Li1_0 Li2_0 3.093788 1_555
Li1_0 Li1_4 3.138534 1_555
Li1_0 Li1_4 3.138534 1_455
Li1_1 Sn2_3 3.028686 1_555
Li1_1 Sn2_7 3.028686 1_555
Li1_1 Sn2_1 3.028686 1_555
Li1_1 Sn2_5 3.028686 1_555
Li1_1 Sn1_4 3.076910 1_555
Li1_1 Sn1_0 3.076910 1_555
Li1_1 Sn0_5 3.076910 1_555
Li1_1 Sn0_1 3.076910 1_555
Li1_1 Li2_1 3.093788 1_555
Li1_1 Li1_5 3.138534 1_555
Li1_1 Li1_5 3.138534 1_455
Li1_2 Sn2_2 3.028686 1_555
Li1_2 Sn2_0 3.028686 1_565
Li1_2 Sn2_4 3.028686 1_565
Li1_2 Sn2_6 3.028686 1_555
Li1_2 Sn1_7 3.076910 1_554
Li1_2 Sn1_3 3.076910 1_554
Li1_2 Sn0_2 3.076910 1_555
Li1_2 Sn0_6 3.076910 1_555
Li1_2 Li2_2 3.093788 1_555
Li1_2 Li1_6 3.138534 1_555
Li1_2 Li1_6 3.138534 1_455
Li1_3 Sn2_5 3.028686 1_565
Li1_3 Sn2_3 3.028686 1_555
Li1_3 Sn2_7 3.028686 1_555
Li1_3 Sn2_1 3.028686 1_565
Li1_3 Sn1_2 3.076910 1_555
Li1_3 Sn1_6 3.076910 1_555
Li1_3 Sn0_7 3.076910 1_555
Li1_3 Sn0_3 3.076910 1_555
Li1_3 Li2_3 3.093788 1_555
Li1_3 Li1_7 3.138534 1_555
Li1_3 Li1_7 3.138534 1_455
Li1_4 Sn2_6 3.028686 1_555
Li1_4 Sn2_4 3.028686 1_555
Li1_4 Sn2_0 3.028686 1_655
Li1_4 Sn2_2 3.028686 1_655
Li1_4 Sn1_5 3.076910 1_554
Li1_4 Sn1_1 3.076910 1_654
Li1_4 Sn0_4 3.076910 1_555
Li1_4 Sn0_0 3.076910 1_655
Li1_4 Li2_4 3.093788 1_555
Li1_5 Sn2_7 3.028686 1_555
Li1_5 Sn2_5 3.028686 1_555
Li1_5 Sn2_3 3.028686 1_655
Li1_5 Sn2_1 3.028686 1_655
Li1_5 Sn1_4 3.076910 1_555
Li1_5 Sn1_0 3.076910 1_655
Li1_5 Sn0_5 3.076910 1_555
Li1_5 Sn0_1 3.076910 1_655
Li1_5 Li2_5 3.093788 1_555
Li1_6 Sn2_4 3.028686 1_565
Li1_6 Sn2_6 3.028686 1_555
Li1_6 Sn2_0 3.028686 1_665
Li1_6 Sn2_2 3.028686 1_655
Li1_6 Sn0_6 3.076910 1_555
Li1_6 Sn1_7 3.076910 1_554
Li1_6 Sn1_3 3.076910 1_654
Li1_6 Sn0_2 3.076910 1_655
Li1_6 Li2_6 3.093788 1_555
Li1_7 Sn2_5 3.028686 1_565
Li1_7 Sn2_7 3.028686 1_555
Li1_7 Sn2_1 3.028686 1_665
Li1_7 Sn2_3 3.028686 1_655
Li1_7 Sn1_6 3.076910 1_555
Li1_7 Sn1_2 3.076910 1_655
Li1_7 Sn0_7 3.076910 1_555
Li1_7 Sn0_3 3.076910 1_655
Li1_7 Li2_7 3.093788 1_555
Li2_0 Sn0_0 2.981305 1_555
Li2_0 Sn0_4 2.981305 1_555
Li2_0 Sn2_0 3.007262 1_555
Li2_0 Sn2_4 3.007262 1_555
Li2_0 Sn0_2 3.079669 1_545
Li2_0 Sn0_6 3.079669 1_545
Li2_0 Sn1_0 3.109140 1_555
Li2_0 Sn1_4 3.109140 1_555
Li2_0 Li2_4 3.138534 1_555
Li2_0 Li2_4 3.138534 1_455
Li2_1 Sn0_5 2.981305 1_555
Li2_1 Sn0_1 2.981305 1_555
Li2_1 Sn2_5 3.007262 1_555
Li2_1 Sn2_1 3.007262 1_555
Li2_1 Sn0_3 3.079669 1_545
Li2_1 Sn0_7 3.079669 1_545
Li2_1 Sn1_5 3.109140 1_555
Li2_1 Sn1_1 3.109140 1_555
Li2_1 Li2_5 3.138534 1_555
Li2_1 Li2_5 3.138534 1_455
Li2_2 Sn0_6 2.981305 1_555
Li2_2 Sn0_2 2.981305 1_555
Li2_2 Sn2_2 3.007262 1_555
Li2_2 Sn2_6 3.007262 1_555
Li2_2 Sn0_4 3.079669 1_555
Li2_2 Sn0_0 3.079669 1_555
Li2_2 Sn1_2 3.109140 1_555
Li2_2 Sn1_6 3.109140 1_555
Li2_2 Li2_6 3.138534 1_555
Li2_2 Li2_6 3.138534 1_455
Li2_3 Sn0_3 2.981305 1_555
Li2_3 Sn0_7 2.981305 1_555
Li2_3 Sn2_3 3.007262 1_555
Li2_3 Sn2_7 3.007262 1_555
Li2_3 Sn0_1 3.079669 1_555
Li2_3 Sn0_5 3.079669 1_555
Li2_3 Sn1_3 3.109140 1_555
Li2_3 Sn1_7 3.109140 1_555
Li2_3 Li2_7 3.138534 1_555
Li2_3 Li2_7 3.138534 1_455
Li2_4 Sn0_4 2.981305 1_555
Li2_4 Sn0_0 2.981305 1_655
Li2_4 Sn2_4 3.007262 1_555
Li2_4 Sn2_0 3.007262 1_655
Li2_4 Sn0_6 3.079669 1_545
Li2_4 Sn0_2 3.079669 1_645
Li2_4 Sn1_4 3.109140 1_555
Li2_4 Sn1_0 3.109140 1_655
Li2_5 Sn0_5 2.981305 1_555
Li2_5 Sn0_1 2.981305 1_655
Li2_5 Sn2_5 3.007262 1_555
Li2_5 Sn2_1 3.007262 1_655
Li2_5 Sn0_7 3.079669 1_545
Li2_5 Sn0_3 3.079669 1_645
Li2_5 Sn1_5 3.109140 1_555
Li2_5 Sn1_1 3.109140 1_655
Li2_6 Sn0_6 2.981305 1_555
Li2_6 Sn0_2 2.981305 1_655
Li2_6 Sn2_6 3.007262 1_555
Li2_6 Sn2_2 3.007262 1_655
Li2_6 Sn0_4 3.079669 1_555
Li2_6 Sn0_0 3.079669 1_655
Li2_6 Sn1_6 3.109140 1_555
Li2_6 Sn1_2 3.109140 1_655
Li2_7 Sn0_7 2.981305 1_555
Li2_7 Sn0_3 2.981305 1_655
Li2_7 Sn2_7 3.007262 1_555
Li2_7 Sn2_3 3.007262 1_655
Li2_7 Sn0_5 3.079669 1_555
Li2_7 Sn0_1 3.079669 1_655
Li2_7 Sn1_7 3.109140 1_555
Li2_7 Sn1_3 3.109140 1_655
Sn0_0 Sn1_2 3.002362 1_555
Sn0_0 Sn0_4 3.138534 1_555
Sn0_0 Sn0_4 3.138534 1_455
Sn0_0 Sn2_2 3.208328 1_555
Sn0_1 Sn1_3 3.002362 1_555
Sn0_1 Sn0_5 3.138534 1_555
Sn0_1 Sn0_5 3.138534 1_455
Sn0_1 Sn2_3 3.208328 1_555
Sn0_2 Sn1_0 3.002362 1_565
Sn0_2 Sn0_6 3.138534 1_455
Sn0_2 Sn0_6 3.138534 1_555
Sn0_2 Sn2_0 3.208328 1_565
Sn0_3 Sn1_1 3.002362 1_565
Sn0_3 Sn0_7 3.138534 1_455
Sn0_3 Sn0_7 3.138534 1_555
Sn0_3 Sn2_1 3.208328 1_565
Sn0_4 Sn1_6 3.002362 1_555
Sn0_4 Sn2_6 3.208328 1_555
Sn0_5 Sn1_7 3.002362 1_555
Sn0_5 Sn2_7 3.208328 1_555
Sn0_6 Sn1_4 3.002362 1_565
Sn0_6 Sn2_4 3.208328 1_565
Sn0_7 Sn1_5 3.002362 1_565
Sn0_7 Sn2_5 3.208328 1_565
Sn1_0 Sn1_4 3.138534 1_555
Sn1_0 Sn1_4 3.138534 1_455
Sn1_0 Sn2_1 3.208328 1_555
Sn1_1 Sn1_5 3.138534 1_555
Sn1_1 Sn1_5 3.138534 1_455
Sn1_1 Sn2_0 3.208328 1_556
Sn1_2 Sn1_6 3.138534 1_455
Sn1_2 Sn1_6 3.138534 1_555
Sn1_2 Sn2_3 3.208328 1_555
Sn1_3 Sn1_7 3.138534 1_455
Sn1_3 Sn1_7 3.138534 1_555
Sn1_3 Sn2_2 3.208328 1_556
Sn1_4 Sn2_5 3.208328 1_555
Sn1_5 Sn2_4 3.208328 1_556
Sn1_6 Sn2_7 3.208328 1_555
Sn1_7 Sn2_6 3.208328 1_556
Sn2_0 Sn2_4 3.138534 1_555
Sn2_0 Sn2_4 3.138534 1_455
Sn2_1 Sn2_5 3.138534 1_555
Sn2_1 Sn2_5 3.138534 1_455
Sn2_2 Sn2_6 3.138534 1_455
Sn2_2 Sn2_6 3.138534 1_555
Sn2_3 Sn2_7 3.138534 1_555
Sn2_3 Sn2_7 3.138534 1_455
