# generated using pymatgen
data_Ta2Ni3S8
_symmetry_space_group_name_H-M   'P 1'
_cell_length_a   3.32830943
_cell_length_b   10.28473494
_cell_length_c   14.23320594
_cell_angle_alpha   90.00000000
_cell_angle_beta   90.00000000
_cell_angle_gamma   90.00000000
_symmetry_Int_Tables_number   1
_chemical_formula_structural   Ta2Ni3S8
_chemical_formula_sum   'Ta4 Ni6 S16'
_cell_volume   487.21374530
_cell_formula_units_Z   2
loop_
 _symmetry_equiv_pos_site_id
 _symmetry_equiv_pos_as_xyz
  1  'x, y, z'
loop_
 _atom_site_type_symbol
 _atom_site_label
 _atom_site_symmetry_multiplicity
 _atom_site_fract_x
 _atom_site_fract_y
 _atom_site_fract_z
 _atom_site_occupancy
  Ta  Ta0  1  0.50000000  0.19315160  0.12363945  1
  Ta  Ta1  1  0.50000000  0.69315160  0.37636055  1
  Ta  Ta2  1  0.50000000  0.30684840  0.62363945  1
  Ta  Ta3  1  0.50000000  0.80684840  0.87636055  1
  Ni  Ni0  1  -0.00000000  0.35767943  0.22949026  1
  Ni  Ni1  1  -0.00000000  0.64232057  0.77050974  1
  Ni  Ni2  1  -0.00000000  -0.00000000  0.00000000  1
  Ni  Ni3  1  0.00000000  0.85767943  0.27050974  1
  Ni  Ni4  1  0.00000000  0.14232057  0.72949026  1
  Ni  Ni5  1  -0.00000000  0.50000000  0.50000000  1
  S  S0  1  -0.00000000  0.98107350  0.84541224  1
  S  S1  1  0.50000000  0.73766003  0.21063796  1
  S  S2  1  0.50000000  0.76233997  0.71063796  1
  S  S3  1  0.00000000  0.51892650  0.34541224  1
  S  S4  1  0.50000000  0.23766003  0.28936204  1
  S  S5  1  -0.00000000  0.71395254  0.50237902  1
  S  S6  1  -0.00000000  0.21395254  0.99762098  1
  S  S7  1  0.50000000  0.57246491  0.86311852  1
  S  S8  1  0.00000000  0.28604746  0.49762098  1
  S  S9  1  0.50000000  0.42753509  0.13688148  1
  S  S10  1  0.50000000  0.07246491  0.63688148  1
  S  S11  1  0.00000000  0.01892650  0.15458776  1
  S  S12  1  0.50000000  0.92753509  0.36311852  1
  S  S13  1  0.00000000  0.78604746  0.00237902  1
  S  S14  1  0.50000000  0.26233997  0.78936204  1
  S  S15  1  -0.00000000  0.48107350  0.65458776  1
loop_
_geom_bond_atom_site_label_1
_geom_bond_atom_site_label_2
_geom_bond_distance
_geom_bond_site_symmetry_2
Ni0 S4 2.240371 1_455
Ni0 S4 2.240371 1_555
Ni0 S9 2.241209 1_455
Ni0 S9 2.241209 1_555
Ni0 S3 2.339347 1_555
Ni1 S2 2.240371 1_455
Ni1 S2 2.240371 1_555
Ni1 S7 2.241209 1_555
Ni1 S7 2.241209 1_455
Ni1 S15 2.339347 1_555
Ni2 S13 2.200706 1_545
Ni2 S6 2.200706 1_554
Ni2 S11 2.208873 1_555
Ni2 S0 2.208873 1_544
Ni3 S1 2.240371 1_555
Ni3 S1 2.240371 1_455
Ni3 S12 2.241209 1_455
Ni3 S12 2.241209 1_555
Ni3 S11 2.339347 1_565
Ni4 S14 2.240371 1_555
Ni4 S14 2.240371 1_455
Ni4 S10 2.241209 1_555
Ni4 S10 2.241209 1_455
Ni4 S0 2.339347 1_545
Ni5 S8 2.200706 1_555
Ni5 S5 2.200706 1_555
Ni5 S15 2.208873 1_555
Ni5 S3 2.208873 1_555
S0 Ta3 2.484795 1_555
S0 Ta3 2.484795 1_455
S1 Ta1 2.402771 1_555
S2 Ta3 2.402771 1_555
S3 Ta1 2.484795 1_555
S3 Ta1 2.484795 1_455
S4 Ta0 2.402771 1_555
S5 Ta1 2.456084 1_455
S5 Ta1 2.456084 1_555
S6 Ta0 2.456084 1_556
S6 Ta0 2.456084 1_456
S7 Ta3 2.417929 1_555
S8 Ta2 2.456084 1_555
S8 Ta2 2.456084 1_455
S9 Ta0 2.417929 1_555
S10 Ta2 2.417929 1_555
S11 Ta0 2.484795 1_555
S11 Ta0 2.484795 1_455
S12 Ta1 2.417929 1_555
S13 Ta3 2.456084 1_454
S13 Ta3 2.456084 1_554
S14 Ta2 2.402771 1_555
S15 Ta2 2.484795 1_455
S15 Ta2 2.484795 1_555
