# generated using pymatgen
data_Rb3YCl6
_symmetry_space_group_name_H-M   'P 1'
_cell_length_a   13.51512088
_cell_length_b   13.51512088
_cell_length_c   12.82314229
_cell_angle_alpha   80.83558353
_cell_angle_beta   80.83558353
_cell_angle_gamma   34.08268897
_symmetry_Int_Tables_number   1
_chemical_formula_structural   Rb3YCl6
_chemical_formula_sum   'Rb12 Y4 Cl24'
_cell_volume   1294.23406902
_cell_formula_units_Z   4
loop_
 _symmetry_equiv_pos_site_id
 _symmetry_equiv_pos_as_xyz
  1  'x, y, z'
loop_
 _atom_site_type_symbol
 _atom_site_label
 _atom_site_symmetry_multiplicity
 _atom_site_fract_x
 _atom_site_fract_y
 _atom_site_fract_z
 _atom_site_occupancy
  Rb  Rb0  1  0.20273750  0.69743474  0.93385459  1
  Rb  Rb1  1  0.34991695  0.97545208  0.19524567  1
  Rb  Rb2  1  0.83749812  0.47043358  0.35314133  1
  Rb  Rb3  1  0.69743474  0.20273750  0.43385459  1
  Rb  Rb4  1  0.52956642  0.16250188  0.14685867  1
  Rb  Rb5  1  0.47043358  0.83749812  0.85314133  1
  Rb  Rb6  1  0.79726250  0.30256526  0.06614541  1
  Rb  Rb7  1  0.30256526  0.79726250  0.56614541  1
  Rb  Rb8  1  0.97545208  0.34991695  0.69524567  1
  Rb  Rb9  1  0.65008305  0.02454792  0.80475433  1
  Rb  Rb10  1  0.02454792  0.65008305  0.30475433  1
  Rb  Rb11  1  0.16250188  0.52956642  0.64685867  1
  Y  Y0  1  0.20724456  0.79275544  0.25000000  1
  Y  Y1  1  0.79275544  0.20724456  0.75000000  1
  Y  Y2  1  0.00000000  0.50000000  -0.00000000  1
  Y  Y3  1  0.50000000  -0.00000000  0.50000000  1
  Cl  Cl0  1  0.61585156  0.72321406  0.57801556  1
  Cl  Cl1  1  0.37414703  0.50503843  0.17968216  1
  Cl  Cl2  1  0.14938318  0.20842219  0.96593630  1
  Cl  Cl3  1  0.50503843  0.37414703  0.67968216  1
  Cl  Cl4  1  0.13777034  0.36348382  0.18884557  1
  Cl  Cl5  1  0.85061682  0.79157781  0.03406370  1
  Cl  Cl6  1  0.79157781  0.85061682  0.53406370  1
  Cl  Cl7  1  0.62585297  0.49496157  0.82031784  1
  Cl  Cl8  1  0.89737623  0.97993621  0.20400493  1
  Cl  Cl9  1  0.02006379  0.10262377  0.29599507  1
  Cl  Cl10  1  0.72321406  0.61585156  0.07801556  1
  Cl  Cl11  1  0.63651618  0.86222966  0.31115443  1
  Cl  Cl12  1  0.38414844  0.27678594  0.42198444  1
  Cl  Cl13  1  0.20842219  0.14938318  0.46593630  1
  Cl  Cl14  1  0.49496157  0.62585297  0.32031784  1
  Cl  Cl15  1  0.27462374  0.83848920  0.06103219  1
  Cl  Cl16  1  0.83848920  0.27462374  0.56103219  1
  Cl  Cl17  1  0.16151080  0.72537626  0.43896781  1
  Cl  Cl18  1  0.86222966  0.63651618  0.81115443  1
  Cl  Cl19  1  0.97993621  0.89737623  0.70400493  1
  Cl  Cl20  1  0.10262377  0.02006379  0.79599507  1
  Cl  Cl21  1  0.72537626  0.16151080  0.93896781  1
  Cl  Cl22  1  0.27678594  0.38414844  0.92198444  1
  Cl  Cl23  1  0.36348382  0.13777034  0.68884557  1
loop_
_geom_bond_atom_site_label_1
_geom_bond_atom_site_label_2
_geom_bond_distance
_geom_bond_site_symmetry_2
Cl0 Y3 2.655315 1_565
Cl0 Rb8 3.260202 1_555
Cl0 Rb7 3.477077 1_555
Cl0 Rb2 3.520576 1_555
Cl0 Rb5 3.632308 1_555
Cl1 Y0 2.638461 1_555
Cl1 Rb4 3.201913 1_555
Cl1 Rb0 3.435397 1_554
Cl1 Rb10 3.461893 1_555
Cl1 Rb6 3.873616 1_555
Cl2 Y2 2.623859 1_556
Cl2 Rb5 3.213970 1_545
Cl2 Rb1 3.370389 1_546
Cl2 Rb8 3.777534 1_455
Cl2 Rb6 3.802713 1_456
Cl3 Y1 2.638461 1_555
Cl3 Rb11 3.201913 1_555
Cl3 Rb3 3.435397 1_555
Cl3 Rb9 3.461893 1_555
Cl3 Rb7 3.873616 1_555
Cl4 Y2 2.656630 1_555
Cl4 Rb1 3.280373 1_545
Cl4 Rb10 3.293230 1_555
Cl4 Rb4 3.382223 1_555
Cl4 Rb2 3.395133 1_455
Cl5 Y2 2.623859 1_655
Cl5 Rb4 3.213970 1_565
Cl5 Rb9 3.370389 1_564
Cl5 Rb10 3.777534 1_655
Cl5 Rb0 3.802713 1_654
Cl6 Y3 2.623859 1_565
Cl6 Rb11 3.213970 1_655
Cl6 Rb10 3.370389 1_655
Cl6 Rb9 3.777534 1_565
Cl6 Rb3 3.802713 1_565
Cl7 Y1 2.638461 1_555
Cl7 Rb5 3.201913 1_555
Cl7 Rb6 3.435397 1_556
Cl7 Rb8 3.461893 1_555
Cl7 Rb0 3.873616 1_555
Cl8 Y0 2.654887 1_655
Cl8 Rb10 3.267664 1_655
Cl8 Rb4 3.406325 1_565
Cl8 Rb3 3.444999 1_565
Cl8 Rb6 3.535881 1_565
Cl9 Y0 2.654887 1_545
Cl9 Rb1 3.267664 1_545
Cl9 Rb2 3.406325 1_455
Cl9 Rb6 3.444999 1_455
Cl9 Rb3 3.535881 1_455
Cl10 Y2 2.655315 1_655
Cl10 Rb1 3.260202 1_555
Cl10 Rb6 3.477077 1_555
Cl10 Rb5 3.520576 1_554
Cl10 Rb2 3.632308 1_555
Cl11 Y3 2.656630 1_565
Cl11 Rb10 3.280373 1_655
Cl11 Rb1 3.293230 1_555
Cl11 Rb2 3.382223 1_555
Cl11 Rb4 3.395133 1_565
Cl12 Y3 2.655315 1_555
Cl12 Rb10 3.260202 1_555
Cl12 Rb3 3.477077 1_555
Cl12 Rb11 3.520576 1_555
Cl12 Rb4 3.632308 1_555
Cl13 Y3 2.623859 1_555
Cl13 Rb2 3.213970 1_455
Cl13 Rb8 3.370389 1_455
Cl13 Rb1 3.777534 1_545
Cl13 Rb7 3.802713 1_545
Cl14 Y0 2.638461 1_555
Cl14 Rb2 3.201913 1_555
Cl14 Rb7 3.435397 1_555
Cl14 Rb1 3.461893 1_555
Cl14 Rb3 3.873616 1_555
Cl15 Y0 2.614459 1_555
Cl15 Rb0 3.435215 1_554
Cl15 Rb5 3.437382 1_554
Cl15 Rb1 3.480913 1_555
Cl15 Rb6 3.732834 1_465
Cl16 Y1 2.614459 1_555
Cl16 Rb3 3.435215 1_555
Cl16 Rb2 3.437382 1_555
Cl16 Rb8 3.480913 1_555
Cl16 Rb7 3.732834 1_645
Cl17 Y0 2.614459 1_555
Cl17 Rb7 3.435215 1_555
Cl17 Rb11 3.437382 1_555
Cl17 Rb10 3.480913 1_555
Cl17 Rb3 3.732834 1_465
Cl18 Y2 2.656630 1_656
Cl18 Rb9 3.280373 1_565
Cl18 Rb8 3.293230 1_555
Cl18 Rb5 3.382223 1_555
Cl18 Rb11 3.395133 1_655
Cl19 Y1 2.654887 1_565
Cl19 Rb9 3.267664 1_565
Cl19 Rb11 3.406325 1_655
Cl19 Rb0 3.444999 1_655
Cl19 Rb7 3.535881 1_655
Cl20 Y1 2.654887 1_455
Cl20 Rb8 3.267664 1_455
Cl20 Rb5 3.406325 1_545
Cl20 Rb7 3.444999 1_545
Cl20 Rb0 3.535881 1_545
Cl21 Y1 2.614459 1_555
Cl21 Rb6 3.435215 1_556
Cl21 Rb4 3.437382 1_556
Cl21 Rb9 3.480913 1_555
Cl21 Rb0 3.732834 1_645
Cl22 Y2 2.655315 1_556
Cl22 Rb9 3.260202 1_555
Cl22 Rb0 3.477077 1_555
Cl22 Rb4 3.520576 1_556
Cl22 Rb11 3.632308 1_555
Cl23 Y3 2.656630 1_555
Cl23 Rb8 3.280373 1_455
Cl23 Rb9 3.293230 1_555
Cl23 Rb11 3.382223 1_555
Cl23 Rb5 3.395133 1_545
