# generated using pymatgen
data_SrYbSi4N7
_symmetry_space_group_name_H-M   'P 1'
_cell_length_a   6.08390587
_cell_length_b   6.08390587
_cell_length_c   9.86528200
_cell_angle_alpha   90.00000000
_cell_angle_beta   90.00000000
_cell_angle_gamma   119.99999859
_symmetry_Int_Tables_number   1
_chemical_formula_structural   SrYbSi4N7
_chemical_formula_sum   'Sr2 Yb2 Si8 N14'
_cell_volume   316.23148980
_cell_formula_units_Z   2
loop_
 _symmetry_equiv_pos_site_id
 _symmetry_equiv_pos_as_xyz
  1  'x, y, z'
loop_
 _atom_site_type_symbol
 _atom_site_label
 _atom_site_symmetry_multiplicity
 _atom_site_fract_x
 _atom_site_fract_y
 _atom_site_fract_z
 _atom_site_occupancy
  Sr  Sr0  1  0.33333300  0.66666700  0.36908900  1
  Sr  Sr1  1  0.66666700  0.33333300  0.86908900  1
  Yb  Yb0  1  0.66666700  0.33333300  0.23487900  1
  Yb  Yb1  1  0.33333300  0.66666700  0.73487900  1
  Si  Si0  1  0.00000000  0.00000000  0.31295500  1
  Si  Si1  1  0.00000000  0.00000000  0.81295500  1
  Si  Si2  1  0.17418100  0.34836100  0.04715200  1
  Si  Si3  1  0.82581900  0.17418100  0.54715200  1
  Si  Si4  1  0.34836100  0.17418100  0.54715200  1
  Si  Si5  1  0.65163900  0.82581900  0.04715200  1
  Si  Si6  1  0.17418100  0.82581900  0.04715200  1
  Si  Si7  1  0.82581900  0.65163900  0.54715200  1
  N  N0  1  0.00000000  0.00000000  0.12446900  1
  N  N1  1  0.00000000  0.00000000  0.62446900  1
  N  N2  1  0.02337300  0.51168700  0.09527900  1
  N  N3  1  0.51168700  0.02337300  0.59527900  1
  N  N4  1  0.51168700  0.48831300  0.59527900  1
  N  N5  1  0.48831300  0.51168700  0.09527900  1
  N  N6  1  0.48831300  0.97662700  0.09527900  1
  N  N7  1  0.97662700  0.48831300  0.59527900  1
  N  N8  1  0.84919900  0.69839800  0.37467200  1
  N  N9  1  0.15080100  0.84919900  0.87467200  1
  N  N10  1  0.69839800  0.84919900  0.87467200  1
  N  N11  1  0.30160200  0.15080100  0.37467200  1
  N  N12  1  0.84919900  0.15080100  0.37467200  1
  N  N13  1  0.15080100  0.30160200  0.87467200  1
loop_
_geom_bond_atom_site_label_1
_geom_bond_atom_site_label_2
_geom_bond_distance
_geom_bond_site_symmetry_2
N0 Si0 1.859468 1_555
N0 Si2 1.987630 1_555
N0 Si5 1.987630 1_445
N0 Si6 1.987635 1_545
N1 Si1 1.859468 1_555
N1 Si4 1.987630 1_555
N1 Si7 1.987630 1_445
N1 Si3 1.987635 1_455
N2 Si6 1.722278 1_555
N2 Si2 1.722288 1_555
N2 Yb0 2.329995 1_455
N2 Sr1 2.917445 1_454
N2 Sr0 3.156523 1_555
N3 Si3 1.722278 1_555
N3 Si4 1.722288 1_555
N3 Yb1 2.329995 1_545
N3 Sr0 2.917445 1_545
N3 Sr1 3.156523 1_555
N4 Si4 1.722278 1_555
N4 Si7 1.722278 1_555
N4 Yb1 2.330003 1_555
N4 Sr0 2.917452 1_555
N4 Sr1 3.156523 1_555
N5 Si5 1.722278 1_555
N5 Si2 1.722278 1_555
N5 Yb0 2.330003 1_555
N5 Sr1 2.917452 1_554
N5 Sr0 3.156523 1_555
N6 Si6 1.722278 1_555
N6 Si5 1.722288 1_555
N6 Yb0 2.329995 1_565
N6 Sr1 2.917445 1_564
N6 Sr0 3.156523 1_555
N7 Si3 1.722278 1_555
N7 Si7 1.722288 1_555
N7 Yb1 2.329995 1_655
N7 Sr0 2.917445 1_655
N7 Sr1 3.156523 1_555
N8 Si0 1.701734 1_665
N8 Si7 1.719307 1_555
N8 Yb0 2.366772 1_555
N8 Sr0 3.047038 1_655
N8 Sr0 3.047045 1_555
N9 Si1 1.701734 1_565
N9 Si6 1.719307 1_556
N9 Yb1 2.366768 1_555
N9 Sr1 3.047042 1_455
N9 Sr1 3.047042 1_565
N10 Si1 1.701734 1_665
N10 Si5 1.719307 1_556
N10 Yb1 2.366772 1_555
N10 Sr1 3.047038 1_565
N10 Sr1 3.047045 1_555
N11 Si0 1.701734 1_555
N11 Si4 1.719307 1_555
N11 Yb0 2.366772 1_555
N11 Sr0 3.047038 1_545
N11 Sr0 3.047045 1_555
N12 Si0 1.701734 1_655
N12 Si3 1.719307 1_555
N12 Yb0 2.366768 1_555
N12 Sr0 3.047042 1_545
N12 Sr0 3.047042 1_655
N13 Si1 1.701734 1_555
N13 Si2 1.719307 1_556
N13 Yb1 2.366772 1_555
N13 Sr1 3.047038 1_455
N13 Sr1 3.047045 1_555
