# generated using pymatgen
data_NaSb(PS3)2
_symmetry_space_group_name_H-M   'P 1'
_cell_length_a   7.41002200
_cell_length_b   11.42595500
_cell_length_c   11.93495585
_cell_angle_alpha   71.04123541
_cell_angle_beta   90.00000000
_cell_angle_gamma   90.00000000
_symmetry_Int_Tables_number   1
_chemical_formula_structural   NaSb(PS3)2
_chemical_formula_sum   'Na4 Sb4 P8 S24'
_cell_volume   955.67535295
_cell_formula_units_Z   4
loop_
 _symmetry_equiv_pos_site_id
 _symmetry_equiv_pos_as_xyz
  1  'x, y, z'
loop_
 _atom_site_type_symbol
 _atom_site_label
 _atom_site_symmetry_multiplicity
 _atom_site_fract_x
 _atom_site_fract_y
 _atom_site_fract_z
 _atom_site_occupancy
  Na  Na0  1  0.11144500  0.40309200  0.37964800  1
  Na  Na1  1  0.88855500  0.59690800  0.62035200  1
  Na  Na2  1  0.61144500  0.59690800  0.12035200  1
  Na  Na3  1  0.38855500  0.40309200  0.87964800  1
  Sb  Sb0  1  0.16072100  0.86801400  0.82094400  1
  Sb  Sb1  1  0.83927900  0.13198600  0.17905600  1
  Sb  Sb2  1  0.33927900  0.86801400  0.32094400  1
  Sb  Sb3  1  0.66072100  0.13198600  0.67905600  1
  P  P0  1  0.89999300  0.24404800  0.83471100  1
  P  P1  1  0.10000700  0.75595200  0.16528900  1
  P  P2  1  0.87841200  0.75380300  0.29590400  1
  P  P3  1  0.39999300  0.75595200  0.66528900  1
  P  P4  1  0.37841200  0.24619700  0.20409600  1
  P  P5  1  0.62158800  0.75380300  0.79590400  1
  P  P6  1  0.12158800  0.24619700  0.70409600  1
  P  P7  1  0.60000700  0.24404800  0.33471100  1
  S  S0  1  0.50943700  0.17720600  0.08475800  1
  S  S1  1  0.80361700  0.34207700  0.22444000  1
  S  S2  1  0.30361700  0.65792300  0.27556000  1
  S  S3  1  0.30650700  0.12428800  0.80409900  1
  S  S4  1  0.69638300  0.34207700  0.72444000  1
  S  S5  1  0.20998300  0.42005300  0.63384600  1
  S  S6  1  0.00943700  0.82279400  0.41524200  1
  S  S7  1  0.49418100  0.68750500  0.54329500  1
  S  S8  1  0.69349300  0.87571200  0.19590100  1
  S  S9  1  0.50581900  0.31249500  0.45670500  1
  S  S10  1  0.99418100  0.31249500  0.95670500  1
  S  S11  1  0.80873000  0.06420500  0.88995800  1
  S  S12  1  0.00581900  0.68750500  0.04329500  1
  S  S13  1  0.70998300  0.57994700  0.86615400  1
  S  S14  1  0.99056300  0.17720600  0.58475800  1
  S  S15  1  0.49056300  0.82279400  0.91524200  1
  S  S16  1  0.79001700  0.57994700  0.36615400  1
  S  S17  1  0.69127000  0.06420500  0.38995900  1
  S  S18  1  0.19349300  0.12428800  0.30409900  1
  S  S19  1  0.80650700  0.87571200  0.69590100  1
  S  S20  1  0.30873000  0.93579500  0.61004200  1
  S  S21  1  0.19638300  0.65792300  0.77556000  1
  S  S22  1  0.29001700  0.42005300  0.13384600  1
  S  S23  1  0.19127000  0.93579500  0.11004200  1
loop_
_geom_bond_atom_site_label_1
_geom_bond_atom_site_label_2
_geom_bond_distance
_geom_bond_site_symmetry_2
Na0 S14 3.057932 1_455
Na0 S16 3.093666 1_455
Na0 S2 3.114264 1_555
Na0 S9 3.136672 1_555
Na0 S1 3.155876 1_455
Na0 S22 3.166272 1_555
Na0 S5 3.186994 1_555
Na1 S6 3.057932 1_655
Na1 S5 3.093666 1_655
Na1 S4 3.114264 1_555
Na1 S7 3.136672 1_555
Na1 S21 3.155876 1_655
Na1 S13 3.166272 1_555
Na1 S16 3.186994 1_555
Na2 S15 3.057932 1_554
Na2 S22 3.093666 1_555
Na2 S1 3.114264 1_555
Na2 S12 3.136672 1_655
Na2 S2 3.155876 1_555
Na2 S16 3.166272 1_555
Na2 S13 3.186994 1_554
Na3 S0 3.057932 1_556
Na3 S13 3.093666 1_555
Na3 S21 3.114264 1_555
Na3 S10 3.136672 1_455
Na3 S4 3.155876 1_555
Na3 S5 3.166272 1_555
Na3 S22 3.186994 1_556
P0 S10 1.989613 1_555
P0 S11 2.057723 1_555
P0 S4 2.074882 1_555
P0 P6 2.258781 1_655
P1 S12 1.989613 1_555
P1 S23 2.057723 1_555
P1 S2 2.074882 1_555
P1 P2 2.258781 1_455
P2 S16 1.998964 1_555
P2 S8 2.040124 1_555
P2 S6 2.078988 1_655
P3 S7 1.989613 1_555
P3 S20 2.057723 1_555
P3 S21 2.074882 1_555
P3 P5 2.258781 1_555
P4 S22 1.998964 1_555
P4 S18 2.040124 1_555
P4 S0 2.078988 1_555
P4 P7 2.258781 1_555
P5 S13 1.998964 1_555
P5 S19 2.040124 1_555
P5 S15 2.078988 1_555
P6 S5 1.998964 1_555
P6 S3 2.040124 1_555
P6 S14 2.078988 1_455
P7 S9 1.989613 1_555
P7 S17 2.057723 1_555
P7 S1 2.074882 1_555
S0 Sb1 2.670120 1_555
S1 Sb1 2.640159 1_555
S2 Sb2 2.640159 1_555
S3 Sb3 3.006472 1_555
S3 Sb0 3.065797 1_545
S4 Sb3 2.640159 1_555
S6 Sb2 2.670120 1_555
S7 Sb2 3.009538 1_555
S8 Sb2 3.006472 1_555
S8 Sb1 3.065797 1_565
S9 Sb3 3.009538 1_555
S10 Sb1 3.009538 1_556
S11 Sb3 2.621412 1_555
S12 Sb0 3.009538 1_554
S14 Sb3 2.670120 1_555
S15 Sb0 2.670120 1_555
S17 Sb1 2.621422 1_555
S18 Sb1 3.006472 1_455
S18 Sb2 3.065797 1_545
S19 Sb0 3.006472 1_655
S19 Sb3 3.065797 1_565
S20 Sb0 2.621412 1_555
S21 Sb0 2.640159 1_555
S23 Sb2 2.621412 1_555
