# generated using pymatgen
data_BaFeCuF7
_symmetry_space_group_name_H-M   'P 1'
_cell_length_a   7.44608948
_cell_length_b   7.44608948
_cell_length_c   5.73360059
_cell_angle_alpha   69.43182152
_cell_angle_beta   69.43182152
_cell_angle_gamma   86.39493327
_symmetry_Int_Tables_number   1
_chemical_formula_structural   BaFeCuF7
_chemical_formula_sum   'Ba2 Fe2 Cu2 F14'
_cell_volume   277.99278569
_cell_formula_units_Z   2
loop_
 _symmetry_equiv_pos_site_id
 _symmetry_equiv_pos_as_xyz
  1  'x, y, z'
loop_
 _atom_site_type_symbol
 _atom_site_label
 _atom_site_symmetry_multiplicity
 _atom_site_fract_x
 _atom_site_fract_y
 _atom_site_fract_z
 _atom_site_occupancy
  Ba  Ba0  1  0.68798900  0.32521500  0.25870200  1
  Ba  Ba1  1  0.32521500  0.68798900  0.75870200  1
  Fe  Fe0  1  0.30072200  0.08082900  0.11944900  1
  Fe  Fe1  1  0.08082900  0.30072200  0.61944900  1
  Cu  Cu0  1  0.71735500  0.91355000  0.88634600  1
  Cu  Cu1  1  0.91355000  0.71735500  0.38634600  1
  F  F0  1  0.96937200  0.51624400  0.73807700  1
  F  F1  1  0.18128500  0.81392100  0.27767500  1
  F  F2  1  0.32955700  0.41509100  0.52140000  1
  F  F3  1  0.94251200  0.80150600  0.01073200  1
  F  F4  1  0.58528600  0.67377300  0.99189300  1
  F  F5  1  0.51624400  0.96937200  0.23807700  1
  F  F6  1  0.41509100  0.32955700  0.02140000  1
  F  F7  1  0.08421700  0.17711300  0.99457000  1
  F  F8  1  0.67377300  0.58528600  0.49189300  1
  F  F9  1  0.04220100  0.43666100  0.28775500  1
  F  F10  1  0.80150600  0.94251200  0.51073200  1
  F  F11  1  0.43666100  0.04220100  0.78775500  1
  F  F12  1  0.17711300  0.08421700  0.49457000  1
  F  F13  1  0.81392100  0.18128500  0.77767500  1
loop_
_geom_bond_atom_site_label_1
_geom_bond_atom_site_label_2
_geom_bond_distance
_geom_bond_site_symmetry_2
Ba0 F8 2.691273 1_555
Ba0 F4 2.728324 1_554
Ba0 F2 2.738374 1_555
Ba0 F6 2.807998 1_555
Ba0 F0 2.884534 1_554
Ba0 F9 2.890300 1_655
Ba0 F10 2.930017 1_545
Ba0 F11 3.026577 1_555
Ba0 F5 3.069612 1_545
Ba0 F13 3.125355 1_554
Ba0 F7 3.136720 1_654
Ba0 F13 3.236570 1_555
Ba1 F4 2.691273 1_555
Ba1 F8 2.728324 1_555
Ba1 F6 2.738374 1_556
Ba1 F2 2.807998 1_555
Ba1 F5 2.884534 1_555
Ba1 F11 2.890300 1_565
Ba1 F3 2.930017 1_456
Ba1 F9 3.026577 1_556
Ba1 F0 3.069612 1_455
Ba1 F1 3.125355 1_555
Ba1 F12 3.136720 1_565
Ba1 F1 3.236570 1_556
Cu0 F4 1.887966 1_555
Cu0 F10 1.954402 1_555
Cu0 F13 1.967811 1_565
Cu0 F3 2.064366 1_556
Cu0 F5 2.207038 1_556
Cu0 F11 2.409043 1_565
Cu1 F8 1.887966 1_555
Cu1 F3 1.954402 1_555
Cu1 F1 1.967811 1_655
Cu1 F10 2.064366 1_555
Cu1 F0 2.207038 1_555
Cu1 F9 2.409043 1_655
F0 Fe1 1.982321 1_655
F1 Fe0 1.988038 1_565
F2 Fe1 1.897825 1_555
F5 Fe0 1.982321 1_565
F6 Fe0 1.897825 1_555
F7 Fe0 1.982573 1_556
F7 Fe1 2.029272 1_555
F9 Fe1 1.928545 1_555
F11 Fe0 1.928545 1_556
F12 Fe1 1.982573 1_555
F12 Fe0 2.029272 1_555
F13 Fe1 1.988038 1_655
