# generated using pymatgen
data_K2Mn2P2O7F2
_symmetry_space_group_name_H-M   'P 1'
_cell_length_a   6.88468658
_cell_length_b   10.59697786
_cell_length_c   11.26333470
_cell_angle_alpha   90.00000000
_cell_angle_beta   90.00000000
_cell_angle_gamma   90.00000000
_symmetry_Int_Tables_number   1
_chemical_formula_structural   K2Mn2P2O7F2
_chemical_formula_sum   'K8 Mn8 P8 O28 F8'
_cell_volume   821.73765968
_cell_formula_units_Z   4
loop_
 _symmetry_equiv_pos_site_id
 _symmetry_equiv_pos_as_xyz
  1  'x, y, z'
loop_
 _atom_site_type_symbol
 _atom_site_label
 _atom_site_symmetry_multiplicity
 _atom_site_fract_x
 _atom_site_fract_y
 _atom_site_fract_z
 _atom_site_occupancy
  K  K0  1  0.49866372  0.56408633  0.17319280  1
  K  K1  1  -0.00133628  0.43591367  0.32680720  1
  K  K2  1  0.49866372  0.06408633  0.82680720  1
  K  K3  1  0.50133628  0.43591367  0.82680720  1
  K  K4  1  -0.00133628  0.93591367  0.67319280  1
  K  K5  1  0.00133628  0.56408633  0.67319280  1
  K  K6  1  0.00133628  0.06408633  0.32680720  1
  K  K7  1  0.50133628  0.93591367  0.17319280  1
  Mn  Mn0  1  0.50000000  0.25000000  0.33457970  1
  Mn  Mn1  1  0.50000000  0.75000000  0.66542030  1
  Mn  Mn2  1  0.00000000  0.50000000  0.00000000  1
  Mn  Mn3  1  0.00000000  0.25000000  0.83457970  1
  Mn  Mn4  1  0.00000000  0.00000000  0.00000000  1
  Mn  Mn5  1  0.00000000  0.75000000  0.16542030  1
  Mn  Mn6  1  0.50000000  0.00000000  0.50000000  1
  Mn  Mn7  1  0.50000000  0.50000000  0.50000000  1
  P  P0  1  0.78393739  0.74912322  0.42131713  1
  P  P1  1  0.21606261  0.25087678  0.57868287  1
  P  P2  1  0.28393739  0.25087678  0.07868287  1
  P  P3  1  0.71606261  0.24912322  0.07868287  1
  P  P4  1  0.71606261  0.74912322  0.92131713  1
  P  P5  1  0.78393739  0.24912322  0.57868287  1
  P  P6  1  0.28393739  0.75087678  0.92131713  1
  P  P7  1  0.21606261  0.75087678  0.42131713  1
  O  O0  1  0.00000000  0.75000000  0.48039116  1
  O  O1  1  0.77736914  0.11237149  0.08645435  1
  O  O2  1  0.20120957  0.68719788  0.30110779  1
  O  O3  1  0.67340419  0.32699736  0.48658158  1
  O  O4  1  0.70120957  0.31280212  0.19889221  1
  O  O5  1  0.82659581  0.82699736  0.01341842  1
  O  O6  1  0.72263086  0.11237149  0.58645435  1
  O  O7  1  0.67340419  0.82699736  0.51341842  1
  O  O8  1  0.72263086  0.61237149  0.41354565  1
  O  O9  1  0.50000000  0.75000000  0.98039116  1
  O  O10  1  0.32659581  0.67300264  0.51341842  1
  O  O11  1  0.27736914  0.88762851  0.41354565  1
  O  O12  1  0.22263086  0.38762851  0.08645435  1
  O  O13  1  0.17340419  0.67300264  0.01341842  1
  O  O14  1  0.32659581  0.17300264  0.48658158  1
  O  O15  1  0.70120957  0.81280212  0.80110779  1
  O  O16  1  0.79879043  0.31280212  0.69889221  1
  O  O17  1  0.00000000  0.25000000  0.51960884  1
  O  O18  1  0.29879043  0.18719788  0.19889221  1
  O  O19  1  0.29879043  0.68719788  0.80110779  1
  O  O20  1  0.27736914  0.38762851  0.58645435  1
  O  O21  1  0.20120957  0.18719788  0.69889221  1
  O  O22  1  0.82659581  0.32699736  0.98658158  1
  O  O23  1  0.50000000  0.25000000  0.01960884  1
  O  O24  1  0.79879043  0.81280212  0.30110779  1
  O  O25  1  0.77736914  0.61237149  0.91354565  1
  O  O26  1  0.22263086  0.88762851  0.91354565  1
  O  O27  1  0.17340419  0.17300264  0.98658158  1
  F  F0  1  0.12165664  0.92830805  0.15580128  1
  F  F1  1  0.37834336  0.92830805  0.65580128  1
  F  F2  1  0.37834336  0.42830805  0.34419872  1
  F  F3  1  0.87834336  0.07169195  0.84419872  1
  F  F4  1  0.12165664  0.42830805  0.84419872  1
  F  F5  1  0.62165664  0.07169195  0.34419872  1
  F  F6  1  0.62165664  0.57169195  0.65580128  1
  F  F7  1  0.87834336  0.57169195  0.15580128  1
loop_
_geom_bond_atom_site_label_1
_geom_bond_atom_site_label_2
_geom_bond_distance
_geom_bond_site_symmetry_2
K0 O2 2.823398 1_555
K0 O12 2.839468 1_555
K0 O9 2.932110 1_554
K0 O4 3.019786 1_555
K0 O13 3.095994 1_555
K0 O8 3.157245 1_555
K1 O4 2.823398 1_455
K1 O8 2.839468 1_455
K1 O17 2.932110 1_555
K1 O2 3.019786 1_555
K1 O3 3.095994 1_455
K1 O12 3.157245 1_555
K2 O21 2.823398 1_555
K2 O26 2.839468 1_545
K2 O23 2.932110 1_556
K2 O15 3.019786 1_545
K2 O27 3.095994 1_555
K2 O6 3.157245 1_555
K3 O16 2.823398 1_555
K3 O25 2.839468 1_555
K3 O23 2.932110 1_556
K3 O19 3.019786 1_555
K3 O22 3.095994 1_555
K3 O20 3.157245 1_555
K4 O15 2.823398 1_455
K4 O6 2.839468 1_465
K4 O0 2.932110 1_555
K4 O21 3.019786 1_565
K4 O7 3.095994 1_455
K4 O26 3.157245 1_555
K5 O19 2.823398 1_555
K5 O20 2.839468 1_555
K5 O0 2.932110 1_555
K5 O16 3.019786 1_455
K5 O10 3.095994 1_555
K5 O25 3.157245 1_455
K6 O18 2.823398 1_555
K6 O11 2.839468 1_545
K6 O17 2.932110 1_555
K6 O24 3.019786 1_445
K6 O14 3.095994 1_555
K6 O1 3.157245 1_455
K7 O24 2.823398 1_555
K7 O1 2.839468 1_565
K7 O9 2.932110 1_554
K7 O18 3.019786 1_565
K7 O5 3.095994 1_555
K7 O11 3.157245 1_555
Mn0 O4 2.167383 1_555
Mn0 O18 2.167383 1_555
Mn0 O14 2.241005 1_555
Mn0 O3 2.241005 1_555
Mn1 O15 2.167383 1_555
Mn1 O19 2.167383 1_555
Mn1 O7 2.241005 1_555
Mn1 O10 2.241005 1_555
Mn2 O25 2.171525 1_454
Mn2 O12 2.171525 1_555
Mn2 O13 2.192963 1_555
Mn2 O22 2.192963 1_454
Mn3 O16 2.167383 1_455
Mn3 O21 2.167383 1_555
Mn3 O22 2.241005 1_455
Mn3 O27 2.241005 1_555
Mn4 O1 2.171525 1_455
Mn4 O26 2.171525 1_544
Mn4 O5 2.192963 1_445
Mn4 O27 2.192963 1_554
Mn5 O24 2.167383 1_455
Mn5 O2 2.167383 1_555
Mn5 O5 2.241005 1_455
Mn5 O13 2.241005 1_555
Mn6 O6 2.171525 1_555
Mn6 O11 2.171525 1_545
Mn6 O7 2.192963 1_545
Mn6 O14 2.192963 1_555
Mn7 O20 2.171525 1_555
Mn7 O8 2.171525 1_555
Mn7 O10 2.192963 1_555
Mn7 O3 2.192963 1_555
O0 P7 1.629580 1_555
O0 P0 1.629580 1_455
O1 P3 1.511906 1_555
O2 P7 1.516252 1_555
O3 P5 1.528476 1_555
O4 P3 1.516252 1_555
O5 P4 1.528476 1_554
O6 P5 1.511906 1_555
O7 P0 1.528476 1_555
O8 P0 1.511906 1_555
O9 P6 1.629580 1_555
O9 P4 1.629580 1_555
O10 P7 1.528476 1_555
O11 P7 1.511906 1_555
O12 P2 1.511906 1_555
O13 P6 1.528476 1_554
O14 P1 1.528476 1_555
O15 P4 1.516252 1_555
O16 P5 1.516252 1_555
O17 P1 1.629580 1_555
O17 P5 1.629580 1_455
O18 P2 1.516252 1_555
O19 P6 1.516252 1_555
O20 P1 1.511906 1_555
O21 P1 1.516252 1_555
O22 P3 1.528476 1_556
O23 P2 1.629580 1_555
O23 P3 1.629580 1_555
O24 P0 1.516252 1_555
O25 P4 1.511906 1_555
O26 P6 1.511906 1_555
O27 P2 1.528476 1_556
F0 Mn5 2.069678 1_555
F0 Mn4 2.087621 1_565
F0 K6 2.542892 1_565
F0 K7 2.622543 1_555
F1 Mn1 2.069678 1_555
F1 Mn6 2.087621 1_565
F1 K2 2.542892 1_565
F1 K4 2.622543 1_555
F2 Mn0 2.069678 1_555
F2 Mn7 2.087621 1_555
F2 K0 2.542892 1_555
F2 K1 2.622543 1_555
F3 Mn3 2.069678 1_655
F3 Mn4 2.087621 1_656
F3 K4 2.542892 1_645
F3 K2 2.622543 1_555
F4 Mn3 2.069678 1_555
F4 Mn2 2.087621 1_556
F4 K5 2.542892 1_555
F4 K3 2.622543 1_555
F5 Mn0 2.069678 1_555
F5 Mn6 2.087621 1_555
F5 K7 2.542892 1_545
F5 K6 2.622543 1_655
F6 Mn1 2.069678 1_555
F6 Mn7 2.087621 1_555
F6 K3 2.542892 1_555
F6 K5 2.622543 1_655
F7 Mn5 2.069678 1_655
F7 Mn2 2.087621 1_655
F7 K1 2.542892 1_655
F7 K0 2.622543 1_555
