# generated using pymatgen
data_K10MgMo7O27
_symmetry_space_group_name_H-M   'P 1'
_cell_length_a   8.07949400
_cell_length_b   10.77526100
_cell_length_c   18.72941100
_cell_angle_alpha   90.00000000
_cell_angle_beta   90.00000000
_cell_angle_gamma   90.00000000
_symmetry_Int_Tables_number   1
_chemical_formula_structural   K10MgMo7O27
_chemical_formula_sum   'K20 Mg2 Mo14 O54'
_cell_volume   1630.55736053
_cell_formula_units_Z   2
loop_
 _symmetry_equiv_pos_site_id
 _symmetry_equiv_pos_as_xyz
  1  'x, y, z'
loop_
 _atom_site_type_symbol
 _atom_site_label
 _atom_site_symmetry_multiplicity
 _atom_site_fract_x
 _atom_site_fract_y
 _atom_site_fract_z
 _atom_site_occupancy
  K  K0  1  0.09631000  0.12164100  0.50000000  1
  K  K1  1  0.73342300  0.00854100  0.34756000  1
  K  K2  1  0.26098500  0.02343600  0.31566600  1
  K  K3  1  0.62017200  0.26743300  0.00000000  1
  K  K4  1  0.05462200  0.69484500  0.32078900  1
  K  K5  1  0.38149900  0.36589600  0.64067700  1
  K  K6  1  0.73901500  0.52343600  0.18433400  1
  K  K7  1  0.73901500  0.52343600  0.81566600  1
  K  K8  1  0.61850100  0.86589600  0.14067700  1
  K  K9  1  0.05462200  0.69484500  0.67921100  1
  K  K10  1  0.73342300  0.00854100  0.65244000  1
  K  K11  1  0.90369000  0.62164100  0.00000000  1
  K  K12  1  0.94537800  0.19484500  0.17921100  1
  K  K13  1  0.61850100  0.86589600  0.85932300  1
  K  K14  1  0.38149900  0.36589600  0.35932300  1
  K  K15  1  0.37982800  0.76743300  0.50000000  1
  K  K16  1  0.26657700  0.50854100  0.15244000  1
  K  K17  1  0.94537800  0.19484500  0.82078900  1
  K  K18  1  0.26657700  0.50854100  0.84756000  1
  K  K19  1  0.26098500  0.02343600  0.68433400  1
  Mg  Mg0  1  0.29010700  0.01326300  0.00000000  1
  Mg  Mg1  1  0.70989300  0.51326300  0.50000000  1
  Mo  Mo0  1  0.10853600  0.50069000  0.50000000  1
  Mo  Mo1  1  0.90686500  0.34880000  0.34646400  1
  Mo  Mo2  1  0.44053600  0.68602600  0.00000000  1
  Mo  Mo3  1  0.53685700  0.67757100  0.33355200  1
  Mo  Mo4  1  0.89146400  0.00069000  0.00000000  1
  Mo  Mo5  1  0.46314300  0.17757100  0.16644800  1
  Mo  Mo6  1  0.09313500  0.84880000  0.15353600  1
  Mo  Mo7  1  0.10162400  0.32228100  0.00000000  1
  Mo  Mo8  1  0.46314300  0.17757100  0.83355200  1
  Mo  Mo9  1  0.89837600  0.82228100  0.50000000  1
  Mo  Mo10  1  0.09313500  0.84880000  0.84646400  1
  Mo  Mo11  1  0.55946400  0.18602600  0.50000000  1
  Mo  Mo12  1  0.53685700  0.67757100  0.66644800  1
  Mo  Mo13  1  0.90686500  0.34880000  0.65353600  1
  O  O0  1  0.00042900  0.38558800  0.07735000  1
  O  O1  1  0.54880500  0.63211300  0.07833600  1
  O  O2  1  0.28042100  0.23508900  0.79023100  1
  O  O3  1  0.02765600  0.21008900  0.35461700  1
  O  O4  1  0.54880500  0.63211300  0.92166400  1
  O  O5  1  0.40200600  0.80527500  0.35367400  1
  O  O6  1  0.59266000  0.59957500  0.41607200  1
  O  O7  1  0.59799400  0.30527500  0.85367400  1
  O  O8  1  0.99957100  0.88558800  0.42265000  1
  O  O9  1  0.28042100  0.23508900  0.20976900  1
  O  O10  1  0.40200600  0.80527500  0.64632600  1
  O  O11  1  0.19718800  0.35047900  0.50000000  1
  O  O12  1  0.00642900  0.94283700  0.77684800  1
  O  O13  1  0.71957900  0.73508900  0.70976900  1
  O  O14  1  0.99357100  0.44283700  0.72315200  1
  O  O15  1  0.29473600  0.80601700  0.81952300  1
  O  O16  1  0.56980200  0.35433100  0.50000000  1
  O  O17  1  0.70526400  0.30601700  0.31952300  1
  O  O18  1  0.44028900  0.56823900  0.72578000  1
  O  O19  1  0.45119500  0.13211300  0.57833600  1
  O  O20  1  0.79514600  0.07299700  0.92530500  1
  O  O21  1  0.20485400  0.57299700  0.57469500  1
  O  O22  1  0.23419300  0.62774700  0.00000000  1
  O  O23  1  0.29473600  0.80601700  0.18047700  1
  O  O24  1  0.40734000  0.09957500  0.91607200  1
  O  O25  1  0.99957100  0.88558800  0.57735000  1
  O  O26  1  0.55971100  0.06823900  0.22578000  1
  O  O27  1  0.70526400  0.30601700  0.68047700  1
  O  O28  1  0.00042900  0.38558800  0.92265000  1
  O  O29  1  0.02765600  0.21008900  0.64538300  1
  O  O30  1  0.97234400  0.71008900  0.85461700  1
  O  O31  1  0.71957900  0.73508900  0.29023100  1
  O  O32  1  0.59266000  0.59957500  0.58392800  1
  O  O33  1  0.99357100  0.44283700  0.27684800  1
  O  O34  1  0.08707000  0.15120800  0.00000000  1
  O  O35  1  0.55971100  0.06823900  0.77422000  1
  O  O36  1  0.45119500  0.13211300  0.42166400  1
  O  O37  1  0.09974500  0.93860300  0.93083400  1
  O  O38  1  0.80281200  0.85047900  0.00000000  1
  O  O39  1  0.40734000  0.09957500  0.08392800  1
  O  O40  1  0.00642900  0.94283700  0.22315200  1
  O  O41  1  0.09974500  0.93860300  0.06916600  1
  O  O42  1  0.97234400  0.71008900  0.14538300  1
  O  O43  1  0.31249000  0.36444400  0.00000000  1
  O  O44  1  0.91293000  0.65120800  0.50000000  1
  O  O45  1  0.44028900  0.56823900  0.27422000  1
  O  O46  1  0.43019800  0.85433100  0.00000000  1
  O  O47  1  0.76580700  0.12774700  0.50000000  1
  O  O48  1  0.90025500  0.43860300  0.56916600  1
  O  O49  1  0.59799400  0.30527500  0.14632600  1
  O  O50  1  0.20485400  0.57299700  0.42530500  1
  O  O51  1  0.79514600  0.07299700  0.07469500  1
  O  O52  1  0.90025500  0.43860300  0.43083400  1
  O  O53  1  0.68751000  0.86444400  0.50000000  1
loop_
_geom_bond_atom_site_label_1
_geom_bond_atom_site_label_2
_geom_bond_distance
_geom_bond_site_symmetry_2
K0 O11 2.597001 1_555
K0 O47 2.671107 1_455
K0 O29 2.937750 1_555
K0 O3 2.937750 1_555
K0 O8 3.029728 1_445
K0 O25 3.029728 1_445
K0 O36 3.222845 1_555
K0 O19 3.222845 1_555
K1 O26 2.754264 1_555
K1 O8 2.890871 1_545
K1 O36 2.983096 1_555
K1 O31 3.138054 1_545
K1 O47 3.141655 1_555
K1 O3 3.222612 1_655
K1 O17 3.256068 1_555
K1 O53 3.271099 1_545
K1 O40 3.285708 1_645
K2 O5 2.707568 1_545
K2 O36 2.770269 1_555
K2 O40 2.826050 1_545
K2 O3 2.851523 1_555
K2 O26 2.982033 1_555
K2 O9 3.026500 1_555
K2 O8 3.268363 1_445
K3 O43 2.696751 1_555
K3 O49 2.776556 1_555
K3 O7 2.776556 1_554
K3 O51 2.888801 1_555
K3 O20 2.888801 1_554
K3 O39 2.949461 1_555
K3 O24 2.949461 1_554
K4 O50 2.651231 1_555
K4 O31 2.800596 1_455
K4 O8 2.839331 1_455
K4 O33 2.879982 1_455
K4 O5 3.110102 1_555
K5 O18 2.742249 1_555
K5 O27 2.795474 1_555
K5 O19 2.833043 1_555
K5 O21 2.923014 1_555
K5 O11 3.031054 1_555
K5 O16 3.045049 1_555
K5 O32 3.221875 1_555
K5 O2 3.240292 1_555
K5 O29 3.316549 1_555
K6 O49 2.707568 1_555
K6 O1 2.770269 1_555
K6 O33 2.826050 1_555
K6 O42 2.851523 1_555
K6 O45 2.982033 1_555
K6 O31 3.026500 1_555
K6 O0 3.268363 1_655
K7 O7 2.707568 1_555
K7 O4 2.770269 1_555
K7 O14 2.826050 1_555
K7 O30 2.851523 1_555
K7 O18 2.982033 1_555
K7 O13 3.026500 1_555
K7 O28 3.268363 1_655
K8 O26 2.742249 1_565
K8 O23 2.795474 1_555
K8 O1 2.833043 1_555
K8 O51 2.923014 1_565
K8 O38 3.031054 1_555
K8 O46 3.045049 1_555
K8 O39 3.221875 1_565
K8 O31 3.240292 1_555
K8 O42 3.316549 1_555
K9 O21 2.651231 1_555
K9 O13 2.800596 1_455
K9 O25 2.839331 1_455
K9 O14 2.879982 1_455
K9 O10 3.110102 1_555
K10 O35 2.754264 1_555
K10 O25 2.890871 1_545
K10 O19 2.983096 1_555
K10 O13 3.138054 1_545
K10 O47 3.141655 1_555
K10 O29 3.222612 1_655
K10 O27 3.256068 1_555
K10 O53 3.271099 1_545
K10 O12 3.285708 1_645
K11 O38 2.597001 1_555
K11 O22 2.671107 1_655
K11 O42 2.937750 1_555
K11 O30 2.937750 1_554
K11 O28 3.029728 1_654
K11 O0 3.029728 1_655
K11 O1 3.222845 1_555
K11 O4 3.222845 1_554
K12 O51 2.651231 1_555
K12 O9 2.800596 1_655
K12 O0 2.839331 1_655
K12 O40 2.879982 1_645
K12 O49 3.110102 1_555
K13 O35 2.742249 1_565
K13 O15 2.795474 1_555
K13 O4 2.833043 1_555
K13 O20 2.923014 1_565
K13 O38 3.031054 1_556
K13 O46 3.045049 1_556
K13 O24 3.221875 1_565
K13 O13 3.240292 1_555
K13 O30 3.316549 1_555
K14 O45 2.742249 1_555
K14 O17 2.795474 1_555
K14 O36 2.833043 1_555
K14 O50 2.923014 1_555
K14 O11 3.031054 1_555
K14 O16 3.045049 1_555
K14 O6 3.221875 1_555
K14 O9 3.240292 1_555
K14 O3 3.316549 1_555
K15 O53 2.696751 1_555
K15 O10 2.776556 1_555
K15 O5 2.776556 1_555
K15 O21 2.888801 1_555
K15 O50 2.888801 1_555
K15 O6 2.949461 1_555
K15 O32 2.949461 1_555
K16 O45 2.754264 1_555
K16 O0 2.890871 1_555
K16 O1 2.983096 1_555
K16 O9 3.138054 1_555
K16 O22 3.141655 1_555
K16 O42 3.222612 1_455
K16 O23 3.256068 1_555
K16 O43 3.271099 1_555
K16 O33 3.285708 1_455
K17 O20 2.651231 1_555
K17 O2 2.800596 1_655
K17 O28 2.839331 1_655
K17 O12 2.879982 1_645
K17 O7 3.110102 1_555
K18 O18 2.754264 1_555
K18 O28 2.890871 1_555
K18 O4 2.983096 1_555
K18 O2 3.138054 1_555
K18 O22 3.141655 1_556
K18 O30 3.222612 1_455
K18 O15 3.256068 1_555
K18 O43 3.271099 1_556
K18 O14 3.285708 1_455
K19 O10 2.707568 1_545
K19 O19 2.770269 1_555
K19 O12 2.826050 1_545
K19 O29 2.851523 1_555
K19 O35 2.982033 1_555
K19 O2 3.026500 1_555
K19 O25 3.268363 1_445
Mg0 O46 2.052776 1_545
Mg0 O39 2.057440 1_555
Mg0 O24 2.057440 1_554
Mg0 O41 2.165845 1_545
Mg0 O37 2.165845 1_544
Mg0 O34 2.213684 1_555
Mg1 O16 2.052776 1_555
Mg1 O6 2.057440 1_555
Mg1 O32 2.057440 1_555
Mg1 O48 2.165845 1_555
Mg1 O52 2.165845 1_555
Mg1 O44 2.213684 1_555
Mo0 O11 1.769966 1_555
Mo0 O21 1.780398 1_555
Mo0 O50 1.780398 1_555
Mo0 O48 2.226558 1_455
Mo0 O52 2.226558 1_455
Mo0 O44 2.264535 1_455
Mo1 O17 1.766417 1_555
Mo1 O3 1.791571 1_655
Mo1 O33 1.793753 1_555
Mo1 O52 1.853708 1_555
Mo2 O22 1.781496 1_555
Mo2 O1 1.804250 1_555
Mo2 O4 1.804250 1_554
Mo2 O46 1.815453 1_555
Mo3 O31 1.794969 1_555
Mo3 O5 1.795161 1_555
Mo3 O45 1.797638 1_555
Mo3 O6 1.816128 1_555
Mo4 O38 1.769966 1_545
Mo4 O51 1.780398 1_555
Mo4 O20 1.780398 1_554
Mo4 O41 2.226558 1_645
Mo4 O37 2.226558 1_644
Mo4 O34 2.264535 1_655
Mo5 O9 1.794969 1_555
Mo5 O49 1.795161 1_555
Mo5 O26 1.797638 1_555
Mo5 O39 1.816128 1_555
Mo6 O23 1.766417 1_555
Mo6 O42 1.791571 1_455
Mo6 O40 1.793753 1_555
Mo6 O41 1.853708 1_555
Mo7 O43 1.763226 1_555
Mo7 O28 1.797942 1_554
Mo7 O0 1.797942 1_555
Mo7 O34 1.847103 1_555
Mo8 O2 1.794969 1_555
Mo8 O7 1.795161 1_555
Mo8 O35 1.797638 1_555
Mo8 O24 1.816128 1_555
Mo9 O53 1.763226 1_555
Mo9 O8 1.797942 1_555
Mo9 O25 1.797942 1_555
Mo9 O44 1.847103 1_555
Mo10 O15 1.766417 1_555
Mo10 O30 1.791571 1_455
Mo10 O12 1.793753 1_555
Mo10 O37 1.853708 1_555
Mo11 O47 1.781496 1_555
Mo11 O19 1.804250 1_555
Mo11 O36 1.804250 1_555
Mo11 O16 1.815453 1_555
Mo12 O13 1.794969 1_555
Mo12 O10 1.795161 1_555
Mo12 O18 1.797638 1_555
Mo12 O32 1.816128 1_555
Mo13 O27 1.766417 1_555
Mo13 O29 1.791571 1_655
Mo13 O14 1.793753 1_555
Mo13 O48 1.853708 1_555
