# generated using pymatgen
data_K2BeF4
_symmetry_space_group_name_H-M   'P 1'
_cell_length_a   5.62008811
_cell_length_b   7.25839496
_cell_length_c   9.79936780
_cell_angle_alpha   90.00000000
_cell_angle_beta   90.00000000
_cell_angle_gamma   90.00000000
_symmetry_Int_Tables_number   1
_chemical_formula_structural   K2BeF4
_chemical_formula_sum   'K8 Be4 F16'
_cell_volume   399.74383906
_cell_formula_units_Z   4
loop_
 _symmetry_equiv_pos_site_id
 _symmetry_equiv_pos_as_xyz
  1  'x, y, z'
loop_
 _atom_site_type_symbol
 _atom_site_label
 _atom_site_symmetry_multiplicity
 _atom_site_fract_x
 _atom_site_fract_y
 _atom_site_fract_z
 _atom_site_occupancy
  K  K0  1  0.25000000  0.98852498  0.30910960  1
  K  K1  1  0.75000000  0.01147502  0.69089040  1
  K  K2  1  0.75000000  0.51147502  0.80910960  1
  K  K3  1  0.25000000  0.48852498  0.19089040  1
  K  K4  1  0.25000000  0.15628210  0.90962654  1
  K  K5  1  0.75000000  0.84371790  0.09037346  1
  K  K6  1  0.75000000  0.34371790  0.40962654  1
  K  K7  1  0.25000000  0.65628210  0.59037346  1
  Be  Be0  1  0.25000000  0.23262714  0.58182351  1
  Be  Be1  1  0.75000000  0.76737286  0.41817649  1
  Be  Be2  1  0.75000000  0.26737286  0.08182351  1
  Be  Be3  1  0.25000000  0.73262714  0.91817649  1
  F  F0  1  0.02506736  0.30746899  0.65483950  1
  F  F1  1  0.52506736  0.69253101  0.34516050  1
  F  F2  1  0.52506736  0.19253101  0.15483950  1
  F  F3  1  0.02506736  0.80746899  0.84516050  1
  F  F4  1  0.47493264  0.80746899  0.84516050  1
  F  F5  1  0.97493264  0.19253101  0.15483950  1
  F  F6  1  0.97493264  0.69253101  0.34516050  1
  F  F7  1  0.47493264  0.30746899  0.65483950  1
  F  F8  1  0.25000000  0.51986683  0.91621622  1
  F  F9  1  0.75000000  0.48013317  0.08378378  1
  F  F10  1  0.75000000  0.98013317  0.41621622  1
  F  F11  1  0.25000000  0.01986683  0.58378378  1
  F  F12  1  0.25000000  0.81204836  0.06652927  1
  F  F13  1  0.75000000  0.18795164  0.93347073  1
  F  F14  1  0.75000000  0.68795164  0.56652927  1
  F  F15  1  0.25000000  0.31204836  0.43347073  1
loop_
_geom_bond_atom_site_label_1
_geom_bond_atom_site_label_2
_geom_bond_distance
_geom_bond_site_symmetry_2
Be0 F11 1.544418 1_555
Be0 F0 1.550841 1_555
Be0 F7 1.550841 1_555
Be0 F15 1.563888 1_555
Be1 F10 1.544418 1_555
Be1 F1 1.550841 1_555
Be1 F6 1.550841 1_555
Be1 F14 1.563888 1_555
Be2 F9 1.544418 1_555
Be2 F5 1.550841 1_555
Be2 F2 1.550841 1_555
Be2 F13 1.563888 1_554
Be3 F8 1.544418 1_555
Be3 F3 1.550841 1_555
Be3 F4 1.550841 1_555
Be3 F12 1.563888 1_556
F0 K2 2.620657 1_455
F0 K1 2.670284 1_455
F0 K6 2.869342 1_455
F0 K7 2.899528 1_555
F0 K4 3.006003 1_555
F1 K3 2.620657 1_555
F1 K0 2.670284 1_555
F1 K7 2.869342 1_555
F1 K6 2.899528 1_555
F1 K5 3.006003 1_555
F2 K0 2.620657 1_545
F2 K3 2.670284 1_555
F2 K4 2.869342 1_554
F2 K5 2.899528 1_545
F2 K6 3.006003 1_555
F3 K1 2.620657 1_465
F3 K2 2.670284 1_455
F3 K5 2.869342 1_456
F3 K4 2.899528 1_565
F3 K7 3.006003 1_555
F4 K1 2.620657 1_565
F4 K2 2.670284 1_555
F4 K5 2.869342 1_556
F4 K4 2.899528 1_565
F4 K7 3.006003 1_555
F5 K0 2.620657 1_645
F5 K3 2.670284 1_655
F5 K4 2.869342 1_654
F5 K5 2.899528 1_545
F5 K6 3.006003 1_555
F6 K3 2.620657 1_655
F6 K0 2.670284 1_655
F6 K7 2.869342 1_655
F6 K6 2.899528 1_555
F6 K5 3.006003 1_555
F7 K2 2.620657 1_555
F7 K1 2.670284 1_555
F7 K6 2.869342 1_555
F7 K7 2.899528 1_555
F7 K4 3.006003 1_555
F8 K4 2.639831 1_555
F8 K3 2.701230 1_556
F8 K2 3.000278 1_455
F8 K2 3.000278 1_555
F9 K5 2.639831 1_555
F9 K2 2.701230 1_554
F9 K3 3.000278 1_555
F9 K3 3.000278 1_655
F10 K6 2.639831 1_565
F10 K1 2.701230 1_565
F10 K0 3.000278 1_555
F10 K0 3.000278 1_655
F11 K7 2.639831 1_545
F11 K0 2.701230 1_545
F11 K1 3.000278 1_455
F11 K1 3.000278 1_555
F12 K3 2.645649 1_555
F12 K0 2.700290 1_555
F12 K5 2.829096 1_455
F12 K5 2.829096 1_555
F12 K4 2.933765 1_564
F13 K2 2.645649 1_555
F13 K1 2.700290 1_555
F13 K4 2.829096 1_555
F13 K4 2.829096 1_655
F13 K5 2.933765 1_546
F14 K1 2.645649 1_565
F14 K2 2.700290 1_555
F14 K7 2.829096 1_555
F14 K7 2.829096 1_655
F14 K6 2.933765 1_555
F15 K0 2.645649 1_545
F15 K3 2.700290 1_555
F15 K6 2.829096 1_455
F15 K6 2.829096 1_555
F15 K7 2.933765 1_555
