# generated using pymatgen
data_Mn2SiS4
_symmetry_space_group_name_H-M   'P 1'
_cell_length_a   5.93586906
_cell_length_b   7.42623382
_cell_length_c   12.69735080
_cell_angle_alpha   90.00000000
_cell_angle_beta   90.00000000
_cell_angle_gamma   90.00000000
_symmetry_Int_Tables_number   1
_chemical_formula_structural   Mn2SiS4
_chemical_formula_sum   'Mn8 Si4 S16'
_cell_volume   559.71384508
_cell_formula_units_Z   4
loop_
 _symmetry_equiv_pos_site_id
 _symmetry_equiv_pos_as_xyz
  1  'x, y, z'
loop_
 _atom_site_type_symbol
 _atom_site_label
 _atom_site_symmetry_multiplicity
 _atom_site_fract_x
 _atom_site_fract_y
 _atom_site_fract_z
 _atom_site_occupancy
  Mn  Mn0  1  0.00834705  0.75000000  0.73115713  1
  Mn  Mn1  1  0.50834705  0.25000000  0.76884287  1
  Mn  Mn2  1  0.99165295  0.25000000  0.26884287  1
  Mn  Mn3  1  0.49165295  0.75000000  0.23115713  1
  Mn  Mn4  1  0.50000000  0.50000000  0.50000000  1
  Mn  Mn5  1  0.00000000  0.50000000  0.00000000  1
  Mn  Mn6  1  0.50000000  0.00000000  0.50000000  1
  Mn  Mn7  1  0.00000000  0.00000000  0.00000000  1
  Si  Si0  1  0.40760103  0.25000000  0.08988578  1
  Si  Si1  1  0.59239897  0.75000000  0.91011422  1
  Si  Si2  1  0.09239897  0.25000000  0.58988578  1
  Si  Si3  1  0.90760103  0.75000000  0.41011422  1
  S  S0  1  0.74506934  0.52421568  0.83340791  1
  S  S1  1  0.24506934  0.47578432  0.66659209  1
  S  S2  1  0.25493066  0.02421568  0.16659209  1
  S  S3  1  0.75493066  0.97578432  0.33340791  1
  S  S4  1  0.24506934  0.02421568  0.66659209  1
  S  S5  1  0.25493066  0.47578432  0.16659209  1
  S  S6  1  0.74506934  0.97578432  0.83340791  1
  S  S7  1  0.75493066  0.52421568  0.33340791  1
  S  S8  1  0.26215242  0.75000000  0.40766895  1
  S  S9  1  0.76215242  0.25000000  0.09233105  1
  S  S10  1  0.73784758  0.25000000  0.59233105  1
  S  S11  1  0.23784758  0.75000000  0.90766895  1
  S  S12  1  0.76310306  0.75000000  0.56492578  1
  S  S13  1  0.26310306  0.25000000  0.93507422  1
  S  S14  1  0.23689694  0.25000000  0.43507422  1
  S  S15  1  0.73689694  0.75000000  0.06492578  1
loop_
_geom_bond_atom_site_label_1
_geom_bond_atom_site_label_2
_geom_bond_distance
_geom_bond_site_symmetry_2
Mn0 S12 2.564023 1_455
Mn0 S4 2.606418 1_565
Mn0 S1 2.606418 1_555
Mn0 S11 2.622774 1_555
Mn0 S0 2.634259 1_455
Mn0 S6 2.634259 1_455
Mn1 S13 2.564023 1_555
Mn1 S6 2.606418 1_545
Mn1 S0 2.606418 1_555
Mn1 S10 2.622774 1_555
Mn1 S1 2.634259 1_555
Mn1 S4 2.634259 1_555
Mn2 S14 2.564023 1_655
Mn2 S7 2.606418 1_555
Mn2 S3 2.606418 1_545
Mn2 S9 2.622774 1_555
Mn2 S5 2.634259 1_655
Mn2 S2 2.634259 1_655
Mn3 S15 2.564023 1_555
Mn3 S5 2.606418 1_555
Mn3 S2 2.606418 1_565
Mn3 S8 2.622774 1_555
Mn3 S3 2.634259 1_555
Mn3 S7 2.634259 1_555
Mn4 S14 2.562317 1_555
Mn4 S12 2.562317 1_555
Mn4 S1 2.607033 1_555
Mn4 S7 2.607033 1_555
Mn4 S10 2.610461 1_555
Mn4 S8 2.610461 1_555
Mn5 S13 2.562317 1_554
Mn5 S15 2.562317 1_455
Mn5 S5 2.607033 1_555
Mn5 S0 2.607033 1_454
Mn5 S9 2.610461 1_455
Mn5 S11 2.610461 1_554
Mn6 S14 2.562317 1_555
Mn6 S12 2.562317 1_545
Mn6 S4 2.607033 1_555
Mn6 S3 2.607033 1_545
Mn6 S10 2.610461 1_555
Mn6 S8 2.610461 1_545
Mn7 S13 2.562317 1_554
Mn7 S15 2.562317 1_445
Mn7 S6 2.607033 1_444
Mn7 S2 2.607033 1_555
Mn7 S9 2.610461 1_455
Mn7 S11 2.610461 1_544
S0 Si1 2.140393 1_555
S1 Si2 2.140393 1_555
S2 Si0 2.140393 1_555
S3 Si3 2.140393 1_555
S4 Si2 2.140393 1_555
S5 Si0 2.140393 1_555
S6 Si1 2.140393 1_555
S7 Si3 2.140393 1_555
S8 Si3 2.104800 1_455
S9 Si0 2.104800 1_555
S10 Si2 2.104800 1_655
S11 Si1 2.104800 1_555
S12 Si3 2.144679 1_555
S13 Si0 2.144679 1_556
S14 Si2 2.144679 1_555
S15 Si1 2.144679 1_554
