# generated using pymatgen
data_Dy4MgRh
_symmetry_space_group_name_H-M   'P 1'
_cell_length_a   9.66450679
_cell_length_b   9.66449544
_cell_length_c   9.66448190
_cell_angle_alpha   59.99887403
_cell_angle_beta   59.99893354
_cell_angle_gamma   59.99896743
_symmetry_Int_Tables_number   1
_chemical_formula_structural   Dy4MgRh
_chemical_formula_sum   'Dy16 Mg4 Rh4'
_cell_volume   638.28093840
_cell_formula_units_Z   4
loop_
 _symmetry_equiv_pos_site_id
 _symmetry_equiv_pos_as_xyz
  1  'x, y, z'
loop_
 _atom_site_type_symbol
 _atom_site_label
 _atom_site_symmetry_multiplicity
 _atom_site_fract_x
 _atom_site_fract_y
 _atom_site_fract_z
 _atom_site_occupancy
  Dy  Dy0  1  0.06433964  0.43565805  0.43565932  1
  Dy  Dy1  1  0.65364983  0.03906827  0.65363719  1
  Dy  Dy2  1  0.81265595  0.81265378  0.18734811  1
  Dy  Dy3  1  0.43565632  0.06434363  0.06434508  1
  Dy  Dy4  1  0.43565826  0.43565418  0.06434489  1
  Dy  Dy5  1  0.18733881  0.18735044  0.81265410  1
  Dy  Dy6  1  0.81265463  0.18734476  0.18734574  1
  Dy  Dy7  1  0.06433916  0.43565610  0.06434572  1
  Dy  Dy8  1  0.43565807  0.06434385  0.43565484  1
  Dy  Dy9  1  0.03906487  0.65364385  0.65364214  1
  Dy  Dy10  1  0.18734081  0.81265568  0.81265556  1
  Dy  Dy11  1  0.65364934  0.65363876  0.03906756  1
  Dy  Dy12  1  0.18733853  0.81265408  0.18735145  1
  Dy  Dy13  1  0.06433921  0.06434434  0.43565751  1
  Dy  Dy14  1  0.81265666  0.18734711  0.81265383  1
  Dy  Dy15  1  0.65365303  0.65364240  0.65364064  1
  Mg  Mg0  1  0.42083097  0.42083193  0.73751479  1
  Mg  Mg1  1  0.42082421  0.42082441  0.42082503  1
  Mg  Mg2  1  0.42083125  0.73751377  0.42083243  1
  Mg  Mg3  1  0.73751832  0.42083021  0.42083109  1
  Rh  Rh0  1  0.85818659  0.42544262  0.85818469  1
  Rh  Rh1  1  0.42544525  0.85818533  0.85818394  1
  Rh  Rh2  1  0.85818679  0.85818556  0.42544178  1
  Rh  Rh3  1  0.85818652  0.85818589  0.85818457  1
loop_
_geom_bond_atom_site_label_1
_geom_bond_atom_site_label_2
_geom_bond_distance
_geom_bond_site_symmetry_2
Dy0 Mg3 3.308090 1_455
Dy0 Mg1 3.308099 1_555
Dy0 Rh0 3.508793 1_455
Dy0 Rh2 3.508811 1_455
Dy0 Dy15 3.513464 1_455
Dy0 Dy9 3.513577 1_555
Dy0 Dy4 3.588529 1_555
Dy0 Dy8 3.588531 1_555
Dy0 Dy7 3.588565 1_555
Dy0 Dy13 3.588570 1_555
Dy0 Dy14 3.630608 1_455
Dy0 Dy2 3.630619 1_455
Dy0 Dy5 3.630628 1_555
Dy0 Dy12 3.630640 1_555
Dy1 Rh2 2.804880 1_545
Dy1 Rh3 2.804929 1_545
Dy1 Rh1 2.804949 1_545
Dy1 Mg1 3.492448 1_555
Dy1 Mg3 3.492460 1_555
Dy1 Mg0 3.492516 1_555
Dy1 Dy13 3.513497 1_655
Dy1 Dy8 3.513620 1_555
Dy1 Dy3 3.513641 1_556
Dy2 Rh2 2.810856 1_555
Dy2 Rh3 2.810894 1_554
Dy2 Mg3 3.539055 1_555
Dy2 Mg2 3.539079 1_555
Dy2 Dy8 3.630639 1_565
Dy2 Dy7 3.630672 1_655
Dy2 Dy3 3.630693 1_565
Dy3 Mg2 3.308113 1_545
Dy3 Mg0 3.308121 1_554
Dy3 Rh3 3.508833 1_544
Dy3 Rh1 3.508909 1_544
Dy3 Dy7 3.588516 1_555
Dy3 Dy8 3.588526 1_555
Dy3 Dy4 3.588538 1_555
Dy3 Dy5 3.630757 1_554
Dy4 Mg1 3.308065 1_555
Dy4 Mg0 3.308133 1_554
Dy4 Rh0 3.508837 1_554
Dy4 Rh1 3.508850 1_554
Dy4 Dy8 3.588462 1_555
Dy4 Dy7 3.588603 1_555
Dy4 Dy6 3.630657 1_555
Dy5 Rh0 2.810775 1_455
Dy5 Rh1 2.810899 1_545
Dy5 Mg1 3.539048 1_555
Dy5 Mg0 3.539197 1_555
Dy5 Dy7 3.630690 1_556
Dy5 Dy8 3.630702 1_555
Dy6 Rh2 2.810824 1_545
Dy6 Rh0 2.810839 1_554
Dy6 Mg1 3.539059 1_555
Dy6 Mg3 3.539183 1_555
Dy6 Dy8 3.630658 1_555
Dy6 Dy7 3.630680 1_655
Dy7 Mg3 3.308068 1_455
Dy7 Mg0 3.308148 1_554
Dy7 Rh3 3.508814 1_454
Dy7 Rh0 3.508875 1_454
Dy7 Dy9 3.513600 1_554
Dy8 Mg1 3.308075 1_555
Dy8 Mg2 3.308136 1_545
Dy8 Rh1 3.508829 1_545
Dy8 Rh2 3.508837 1_545
Dy9 Rh2 2.804885 1_455
Dy9 Rh0 2.804894 1_455
Dy9 Rh3 2.804935 1_455
Dy9 Mg1 3.492460 1_555
Dy9 Mg2 3.492507 1_555
Dy9 Mg0 3.492518 1_555
Dy10 Rh3 2.810827 1_455
Dy10 Rh1 2.810933 1_555
Dy10 Mg2 3.539068 1_555
Dy10 Mg0 3.539073 1_555
Dy10 Dy13 3.630665 1_565
Dy10 Dy7 3.630681 1_556
Dy10 Dy8 3.630684 1_565
Dy10 Dy4 3.630695 1_556
Dy11 Rh0 2.804888 1_554
Dy11 Rh3 2.804931 1_554
Dy11 Rh1 2.804949 1_554
Dy11 Mg1 3.492458 1_555
Dy11 Mg3 3.492471 1_555
Dy11 Mg2 3.492510 1_555
Dy11 Dy7 3.513509 1_655
Dy11 Dy4 3.513626 1_555
Dy11 Dy3 3.513629 1_565
Dy12 Rh2 2.810764 1_455
Dy12 Rh1 2.810910 1_554
Dy12 Mg1 3.539053 1_555
Dy12 Mg2 3.539191 1_555
Dy12 Dy13 3.630683 1_565
Dy12 Dy4 3.630711 1_555
Dy12 Dy3 3.630751 1_565
Dy13 Mg3 3.308075 1_455
Dy13 Mg2 3.308151 1_545
Dy13 Rh3 3.508787 1_445
Dy13 Rh2 3.508870 1_445
Dy13 Dy9 3.513579 1_545
Dy13 Dy7 3.588477 1_555
Dy13 Dy3 3.588512 1_555
Dy13 Dy8 3.588598 1_555
Dy13 Dy14 3.630659 1_455
Dy13 Dy6 3.630680 1_455
Dy14 Rh0 2.810864 1_555
Dy14 Rh3 2.810883 1_545
Dy14 Mg3 3.539047 1_555
Dy14 Mg0 3.539085 1_555
Dy14 Dy4 3.630647 1_556
Dy14 Dy3 3.630700 1_556
Dy15 Rh2 2.804870 1_555
Dy15 Rh0 2.804875 1_555
Dy15 Rh1 2.804938 1_555
Dy15 Mg3 3.492441 1_555
Dy15 Mg2 3.492486 1_555
Dy15 Mg0 3.492498 1_555
Dy15 Dy8 3.513584 1_565
Dy15 Dy4 3.513601 1_556
Mg0 Mg2 3.060518 1_555
Mg0 Mg3 3.060556 1_555
Mg0 Mg1 3.060711 1_555
Mg1 Mg2 3.060713 1_555
Mg1 Mg3 3.060750 1_555
Mg2 Mg3 3.060558 1_555
