# generated using pymatgen
data_Na2ZrSi2O7
_symmetry_space_group_name_H-M   'P 1'
_cell_length_a   5.52997200
_cell_length_b   6.67475684
_cell_length_c   9.00019829
_cell_angle_alpha   70.84751948
_cell_angle_beta   87.69456594
_cell_angle_gamma   86.01152620
_symmetry_Int_Tables_number   1
_chemical_formula_structural   Na2ZrSi2O7
_chemical_formula_sum   'Na4 Zr2 Si4 O14'
_cell_volume   313.00669458
_cell_formula_units_Z   2
loop_
 _symmetry_equiv_pos_site_id
 _symmetry_equiv_pos_as_xyz
  1  'x, y, z'
loop_
 _atom_site_type_symbol
 _atom_site_label
 _atom_site_symmetry_multiplicity
 _atom_site_fract_x
 _atom_site_fract_y
 _atom_site_fract_z
 _atom_site_occupancy
  Na  Na0  1  0.73734300  0.88019600  0.10420200  1
  Na  Na1  1  0.26265700  0.11980400  0.89579800  1
  Na  Na2  1  0.23957800  0.34223400  0.49101800  1
  Na  Na3  1  0.76042200  0.65776600  0.50898200  1
  Zr  Zr0  1  0.22282700  0.70991400  0.72842100  1
  Zr  Zr1  1  0.77717300  0.29008600  0.27157900  1
  Si  Si0  1  0.31162900  0.93672200  0.33454400  1
  Si  Si1  1  0.77280200  0.35326000  0.85425100  1
  Si  Si2  1  0.68837100  0.06327800  0.66545600  1
  Si  Si3  1  0.22719800  0.64674000  0.14574900  1
  O  O0  1  0.88957200  0.87561600  0.66525000  1
  O  O1  1  0.71782300  0.27929200  0.51395800  1
  O  O2  1  0.27935100  0.88306700  0.16557500  1
  O  O3  1  0.81673300  0.28715500  0.04196500  1
  O  O4  1  0.40642300  0.99543000  0.67652000  1
  O  O5  1  0.59357700  0.00457000  0.32348000  1
  O  O6  1  0.02384700  0.43232100  0.75524800  1
  O  O7  1  0.11042800  0.12438400  0.33475000  1
  O  O8  1  0.53648800  0.50909300  0.78530900  1
  O  O9  1  0.46351200  0.49090700  0.21469100  1
  O  O10  1  0.28217700  0.72070800  0.48604200  1
  O  O11  1  0.18326700  0.71284500  0.95803500  1
  O  O12  1  0.97615300  0.56767900  0.24475200  1
  O  O13  1  0.72064900  0.11693300  0.83442500  1
loop_
_geom_bond_atom_site_label_1
_geom_bond_atom_site_label_2
_geom_bond_distance
_geom_bond_site_symmetry_2
Na0 O12 2.390654 1_555
Na0 O13 2.425091 1_564
Na0 O5 2.464369 1_565
Na0 O2 2.570526 1_555
Na0 O3 2.651942 1_565
Na1 O6 2.390654 1_555
Na1 O2 2.425091 1_546
Na1 O4 2.464369 1_545
Na1 O13 2.570526 1_555
Na1 O11 2.651942 1_545
Na2 O7 2.483901 1_555
Na2 O4 2.507598 1_545
Na2 O10 2.539094 1_555
Na2 O9 2.647112 1_555
Na2 O1 2.654415 1_555
Na2 O12 2.658083 1_455
Na2 O6 2.837344 1_555
Na2 O1 2.933908 1_455
Na3 O0 2.483901 1_555
Na3 O5 2.507598 1_565
Na3 O1 2.539094 1_555
Na3 O8 2.647112 1_555
Na3 O10 2.654415 1_555
Na3 O6 2.658083 1_655
Na3 O12 2.837344 1_555
Na3 O10 2.933908 1_655
O0 Si2 1.616924 1_565
O0 Zr0 2.081084 1_655
O1 Si2 1.639938 1_555
O1 Zr1 2.171228 1_555
O2 Si3 1.689795 1_555
O2 Si0 1.691425 1_555
O3 Si1 1.623873 1_554
O3 Zr1 2.075697 1_555
O4 Si2 1.643820 1_565
O4 Zr0 2.127853 1_555
O5 Si0 1.643820 1_545
O5 Zr1 2.127853 1_555
O6 Si1 1.641218 1_455
O6 Zr0 2.161223 1_555
O7 Si0 1.616924 1_545
O7 Zr1 2.081084 1_455
O8 Si1 1.620902 1_555
O8 Zr0 2.089306 1_555
O9 Si3 1.620902 1_555
O9 Zr1 2.089306 1_555
O10 Si0 1.639938 1_555
O10 Zr0 2.171228 1_555
O11 Si3 1.623873 1_556
O11 Zr0 2.075697 1_555
O12 Si3 1.641218 1_655
O12 Zr1 2.161223 1_555
O13 Si1 1.689795 1_555
O13 Si2 1.691425 1_555
