# generated using pymatgen
data_Rb2V3O8
_symmetry_space_group_name_H-M   'P 1'
_cell_length_a   8.90220296
_cell_length_b   8.90220296
_cell_length_c   5.59632702
_cell_angle_alpha   90.00000000
_cell_angle_beta   90.00000000
_cell_angle_gamma   90.00000000
_symmetry_Int_Tables_number   1
_chemical_formula_structural   Rb2V3O8
_chemical_formula_sum   'Rb4 V6 O16'
_cell_volume   443.50453744
_cell_formula_units_Z   2
loop_
 _symmetry_equiv_pos_site_id
 _symmetry_equiv_pos_as_xyz
  1  'x, y, z'
loop_
 _atom_site_type_symbol
 _atom_site_label
 _atom_site_symmetry_multiplicity
 _atom_site_fract_x
 _atom_site_fract_y
 _atom_site_fract_z
 _atom_site_occupancy
  Rb  Rb0  1  0.16895700  0.66895700  0.00098503  1
  Rb  Rb1  1  0.66895700  0.83104300  0.00098503  1
  Rb  Rb2  1  0.33104300  0.16895700  0.00098503  1
  Rb  Rb3  1  0.83104300  0.33104300  0.00098503  1
  V  V0  1  0.36601473  0.86601473  0.52609263  1
  V  V1  1  0.86601473  0.63398527  0.52609263  1
  V  V2  1  0.13398527  0.36601473  0.52609263  1
  V  V3  1  0.63398527  0.13398527  0.52609263  1
  V  V4  1  0.50000000  0.50000000  0.53450145  1
  V  V5  1  0.00000000  -0.00000000  0.53450145  1
  O  O0  1  0.50000000  0.50000000  0.24533358  1
  O  O1  1  0.00000000  -0.00000000  0.24533358  1
  O  O2  1  0.80797822  0.08436329  0.63585016  1
  O  O3  1  0.19202178  0.91563671  0.63585016  1
  O  O4  1  0.91563671  0.80797822  0.63585016  1
  O  O5  1  0.08436329  0.19202178  0.63585016  1
  O  O6  1  0.41563671  0.69202178  0.63585016  1
  O  O7  1  0.69202178  0.58436329  0.63585016  1
  O  O8  1  0.30797822  0.41563671  0.63585016  1
  O  O9  1  0.58436329  0.30797822  0.63585016  1
  O  O10  1  0.50000000  -0.00000000  0.64098174  1
  O  O11  1  0.00000000  0.50000000  0.64098174  1
  O  O12  1  0.63060035  0.13060035  0.23196262  1
  O  O13  1  0.13060035  0.36939965  0.23196262  1
  O  O14  1  0.86939965  0.63060035  0.23196262  1
  O  O15  1  0.36939965  0.86939965  0.23196262  1
loop_
_geom_bond_atom_site_label_1
_geom_bond_atom_site_label_2
_geom_bond_distance
_geom_bond_site_symmetry_2
O0 V4 1.618278 1_555
O1 V5 1.618278 1_555
O2 V3 1.723828 1_555
O2 V5 1.951366 1_655
O2 Rb3 3.006673 1_556
O3 V0 1.723828 1_555
O3 V5 1.951366 1_565
O3 Rb0 3.006673 1_556
O4 V1 1.723828 1_555
O4 V5 1.951366 1_665
O4 Rb1 3.006673 1_556
O5 V2 1.723828 1_555
O5 V5 1.951366 1_555
O5 Rb2 3.006673 1_556
O6 V0 1.723828 1_555
O6 V4 1.951366 1_555
O6 Rb0 3.006673 1_556
O7 V1 1.723828 1_555
O7 V4 1.951366 1_555
O7 Rb1 3.006673 1_556
O8 V2 1.723828 1_555
O8 V4 1.951366 1_555
O8 Rb2 3.006673 1_556
O9 V3 1.723828 1_555
O9 V4 1.951366 1_555
O9 Rb3 3.006673 1_556
O10 V0 1.805205 1_545
O10 V3 1.805205 1_555
O10 Rb2 2.929773 1_556
O10 Rb1 2.929773 1_546
O11 V2 1.805205 1_555
O11 V1 1.805205 1_455
O11 Rb0 2.929773 1_556
O11 Rb3 2.929773 1_456
O12 V3 1.646599 1_555
O12 Rb3 2.835298 1_555
O12 Rb1 2.983098 1_545
O12 Rb2 2.983098 1_555
O13 V2 1.646599 1_555
O13 Rb2 2.835298 1_555
O13 Rb0 2.983098 1_555
O13 Rb3 2.983098 1_455
O14 V1 1.646599 1_555
O14 Rb1 2.835298 1_555
O14 Rb3 2.983098 1_555
O14 Rb0 2.983098 1_655
O15 V0 1.646599 1_555
O15 Rb0 2.835298 1_555
O15 Rb1 2.983098 1_555
O15 Rb2 2.983098 1_565
