# generated using pymatgen
data_Mo8O23
_symmetry_space_group_name_H-M   'P 1'
_cell_length_a   8.13758000
_cell_length_b   13.71323966
_cell_length_c   17.35525478
_cell_angle_alpha   106.35859388
_cell_angle_beta   90.00000000
_cell_angle_gamma   90.00000000
_symmetry_Int_Tables_number   1
_chemical_formula_structural   Mo8O23
_chemical_formula_sum   'Mo32 O92'
_cell_volume   1858.31507768
_cell_formula_units_Z   4
loop_
 _symmetry_equiv_pos_site_id
 _symmetry_equiv_pos_as_xyz
  1  'x, y, z'
loop_
 _atom_site_type_symbol
 _atom_site_label
 _atom_site_symmetry_multiplicity
 _atom_site_fract_x
 _atom_site_fract_y
 _atom_site_fract_z
 _atom_site_occupancy
  Mo  Mo0  1  0.79210300  0.55531800  0.59838000  1
  Mo  Mo1  1  0.79142600  0.68489900  0.42183300  1
  Mo  Mo2  1  0.29182500  0.44627600  0.90429500  1
  Mo  Mo3  1  0.28780800  0.18598200  0.74663400  1
  Mo  Mo4  1  0.71260300  0.93650000  0.58264500  1
  Mo  Mo5  1  0.70744800  0.55553800  0.09875400  1
  Mo  Mo6  1  0.21086000  0.06725400  0.91871300  1
  Mo  Mo7  1  0.20789700  0.55531800  0.09838000  1
  Mo  Mo8  1  0.78608200  0.81713700  0.75478100  1
  Mo  Mo9  1  0.78914000  0.06725400  0.41871300  1
  Mo  Mo10  1  0.71103300  0.68547900  0.92062700  1
  Mo  Mo11  1  0.79152700  0.44664400  0.90469800  1
  Mo  Mo12  1  0.28739700  0.93650000  0.08264500  1
  Mo  Mo13  1  0.28896700  0.68547900  0.42062700  1
  Mo  Mo14  1  0.20936000  0.31676900  0.58110900  1
  Mo  Mo15  1  0.20857400  0.68489900  0.92183300  1
  Mo  Mo16  1  0.28817900  0.06513100  0.42033900  1
  Mo  Mo17  1  0.28829300  0.31647900  0.08254500  1
  Mo  Mo18  1  0.71219200  0.18598200  0.24663400  1
  Mo  Mo19  1  0.21402900  0.18453700  0.24828700  1
  Mo  Mo20  1  0.20847300  0.44664400  0.40469800  1
  Mo  Mo21  1  0.21391800  0.81713700  0.25478100  1
  Mo  Mo22  1  0.28758300  0.81612700  0.75665200  1
  Mo  Mo23  1  0.29255200  0.55553800  0.59875400  1
  Mo  Mo24  1  0.71182100  0.06513100  0.92033900  1
  Mo  Mo25  1  0.71170700  0.31647900  0.58254500  1
  Mo  Mo26  1  0.71241700  0.81612700  0.25665200  1
  Mo  Mo27  1  0.79064000  0.31676900  0.08110900  1
  Mo  Mo28  1  0.78824300  0.93478900  0.08451800  1
  Mo  Mo29  1  0.78597100  0.18453700  0.74828700  1
  Mo  Mo30  1  0.21175700  0.93478900  0.58451800  1
  Mo  Mo31  1  0.70817500  0.44627600  0.40429500  1
  O  O0  1  0.76004000  0.45814000  0.65362000  1
  O  O1  1  0.49893100  0.19906200  0.24166400  1
  O  O2  1  0.24366000  0.93451800  0.33600900  1
  O  O3  1  0.24992900  0.93374600  0.83671000  1
  O  O4  1  0.75436200  0.06734800  0.66711100  1
  O  O5  1  0.23330700  0.00029800  0.50127800  1
  O  O6  1  0.74577800  0.58981100  0.49707100  1
  O  O7  1  0.23032800  0.73685000  0.83648300  1
  O  O8  1  0.23031800  0.26508100  0.66664700  1
  O  O9  1  0.75509600  0.73801400  0.83721300  1
  O  O10  1  0.49784500  0.06066600  0.92118300  1
  O  O11  1  0.76669300  0.00029800  0.00127800  1
  O  O12  1  0.00408900  0.32150000  0.07327600  1
  O  O13  1  0.25113500  0.45857300  0.65334900  1
  O  O14  1  0.50279000  0.32161100  0.08494100  1
  O  O15  1  0.25288500  0.06821800  0.66635300  1
  O  O16  1  0.25458600  0.67456300  0.67443500  1
  O  O17  1  0.74491200  0.79998400  0.00483300  1
  O  O18  1  0.50215500  0.06066600  0.42118300  1
  O  O19  1  0.74541400  0.67456300  0.17443400  1
  O  O20  1  0.99932700  0.81128600  0.24966100  1
  O  O21  1  0.76968200  0.26508100  0.16664700  1
  O  O22  1  0.75007100  0.93374600  0.33671000  1
  O  O23  1  0.25508800  0.79998400  0.50483300  1
  O  O24  1  0.25459300  0.41200600  0.50587900  1
  O  O25  1  0.24490400  0.73801400  0.33721300  1
  O  O26  1  0.74377100  0.20185600  0.49824100  1
  O  O27  1  0.23996000  0.45814000  0.15362000  1
  O  O28  1  0.00220500  0.07502000  0.41140000  1
  O  O29  1  0.74760500  0.32733300  0.32875200  1
  O  O30  1  0.00135300  0.92812100  0.09246700  1
  O  O31  1  0.25437700  0.20159000  0.49925900  1
  O  O32  1  0.73021400  0.13188000  0.33095100  1
  O  O33  1  0.75557900  0.67373900  0.67478500  1
  O  O34  1  0.49645200  0.68114300  0.91880800  1
  O  O35  1  0.24442100  0.67373900  0.17478500  1
  O  O36  1  0.00067300  0.81128600  0.74966100  1
  O  O37  1  0.25622900  0.20185600  0.99824100  1
  O  O38  1  0.25162800  0.54325400  0.84958400  1
  O  O39  1  0.75801300  0.54369800  0.84944200  1
  O  O40  1  0.75607700  0.26384300  0.66585300  1
  O  O41  1  0.23226200  0.00157900  0.00186600  1
  O  O42  1  0.76967200  0.73685000  0.33648300  1
  O  O43  1  0.49300000  0.55372700  0.09665300  1
  O  O44  1  0.74540700  0.41200600  0.00587900  1
  O  O45  1  0.50700000  0.55372700  0.59665300  1
  O  O46  1  0.50092900  0.80429100  0.76237500  1
  O  O47  1  0.73682400  0.13289600  0.83161900  1
  O  O48  1  0.25677500  0.58960400  0.49666600  1
  O  O49  1  0.49369900  0.44718800  0.40619600  1
  O  O50  1  0.74711500  0.06821800  0.16635300  1
  O  O51  1  0.99779500  0.07502000  0.91140000  1
  O  O52  1  0.72977900  0.87004900  0.17220200  1
  O  O53  1  0.50354800  0.68114300  0.41880800  1
  O  O54  1  0.50106900  0.19906200  0.74166400  1
  O  O55  1  0.74861900  0.80021000  0.50390900  1
  O  O56  1  0.74886500  0.45857300  0.15334900  1
  O  O57  1  0.00645200  0.55519800  0.59196400  1
  O  O58  1  0.49721000  0.32161100  0.58494100  1
  O  O59  1  0.74322500  0.58960400  0.99666600  1
  O  O60  1  0.99591100  0.32150000  0.57327600  1
  O  O61  1  0.76773800  0.00157900  0.50186600  1
  O  O62  1  0.25576300  0.41237400  0.00647100  1
  O  O63  1  0.26978600  0.13188000  0.83095100  1
  O  O64  1  0.75634000  0.93451800  0.83600900  1
  O  O65  1  0.25239500  0.32733300  0.82875200  1
  O  O66  1  0.74562300  0.20159000  0.99925900  1
  O  O67  1  0.25422200  0.58981100  0.99707100  1
  O  O68  1  0.50139300  0.93989500  0.08103900  1
  O  O69  1  0.26317600  0.13289600  0.33161900  1
  O  O70  1  0.24318100  0.32803000  0.32827700  1
  O  O71  1  0.75681900  0.32803000  0.82827700  1
  O  O72  1  0.74423700  0.41237400  0.50647100  1
  O  O73  1  0.99509000  0.67936100  0.92894400  1
  O  O74  1  0.25138100  0.80021000  0.00390900  1
  O  O75  1  0.00065400  0.18935900  0.75286900  1
  O  O76  1  0.99934600  0.18935900  0.25286900  1
  O  O77  1  0.49907100  0.80429100  0.26237500  1
  O  O78  1  0.00586800  0.44775000  0.91129100  1
  O  O79  1  0.00491000  0.67936100  0.42894400  1
  O  O80  1  0.99413200  0.44775000  0.41129100  1
  O  O81  1  0.24563800  0.06734800  0.16711100  1
  O  O82  1  0.27022100  0.87004900  0.67220200  1
  O  O83  1  0.99864700  0.92812100  0.59246700  1
  O  O84  1  0.74837200  0.54325400  0.34958400  1
  O  O85  1  0.24392300  0.26384300  0.16585200  1
  O  O86  1  0.26293500  0.86887900  0.17148700  1
  O  O87  1  0.73706500  0.86887900  0.67148700  1
  O  O88  1  0.99354800  0.55519800  0.09196400  1
  O  O89  1  0.24198700  0.54369800  0.34944200  1
  O  O90  1  0.50630100  0.44718800  0.90619600  1
  O  O91  1  0.49860700  0.93989500  0.58103900  1
loop_
_geom_bond_atom_site_label_1
_geom_bond_atom_site_label_2
_geom_bond_distance
_geom_bond_site_symmetry_2
Mo0 O57 1.747804 1_655
Mo0 O33 1.808553 1_555
Mo0 O0 1.866211 1_555
Mo0 O6 1.981349 1_555
Mo0 O72 2.185696 1_555
Mo0 O45 2.320265 1_555
Mo1 O79 1.744790 1_655
Mo1 O42 1.824137 1_555
Mo1 O55 1.839040 1_555
Mo1 O84 2.023862 1_555
Mo1 O6 2.121903 1_555
Mo1 O53 2.343460 1_555
Mo2 O90 1.745606 1_555
Mo2 O65 1.810449 1_555
Mo2 O38 1.867749 1_555
Mo2 O62 1.977676 1_556
Mo2 O67 2.185242 1_555
Mo2 O78 2.329954 1_555
Mo3 O54 1.749297 1_555
Mo3 O63 1.823423 1_555
Mo3 O15 1.833731 1_555
Mo3 O8 2.042237 1_555
Mo3 O65 2.077347 1_555
Mo3 O75 2.339098 1_555
Mo4 O91 1.742465 1_555
Mo4 O61 1.915193 1_565
Mo4 O4 2.000607 1_565
Mo4 O55 2.001908 1_555
Mo4 O87 2.020468 1_555
Mo4 O83 2.339126 1_555
Mo5 O43 1.745499 1_555
Mo5 O19 1.810281 1_555
Mo5 O56 1.867935 1_555
Mo5 O59 1.976961 1_554
Mo5 O44 2.186452 1_555
Mo5 O88 2.331080 1_555
Mo6 O51 1.743916 1_455
Mo6 O41 1.912126 1_556
Mo6 O3 2.002681 1_545
Mo6 O37 2.003330 1_555
Mo6 O63 2.023768 1_555
Mo6 O10 2.337970 1_555
Mo7 O88 1.747804 1_455
Mo7 O35 1.808553 1_555
Mo7 O27 1.866211 1_555
Mo7 O67 1.981349 1_554
Mo7 O62 2.185696 1_555
Mo7 O43 2.320265 1_555
Mo8 O36 1.749203 1_655
Mo8 O87 1.824850 1_555
Mo8 O64 1.832685 1_555
Mo8 O9 2.040090 1_555
Mo8 O33 2.078026 1_555
Mo8 O46 2.333665 1_555
Mo9 O28 1.743916 1_655
Mo9 O61 1.912126 1_555
Mo9 O22 2.002681 1_545
Mo9 O26 2.003330 1_555
Mo9 O32 2.023768 1_555
Mo9 O18 2.337970 1_555
Mo10 O34 1.747165 1_555
Mo10 O9 1.825053 1_555
Mo10 O17 1.839768 1_556
Mo10 O39 2.024750 1_555
Mo10 O59 2.125113 1_555
Mo10 O73 2.319029 1_555
Mo11 O78 1.747752 1_655
Mo11 O71 1.808149 1_555
Mo11 O39 1.866638 1_555
Mo11 O44 1.979884 1_556
Mo11 O59 2.186971 1_555
Mo11 O90 2.321183 1_555
Mo12 O68 1.742465 1_555
Mo12 O41 1.915193 1_565
Mo12 O81 2.000607 1_565
Mo12 O74 2.001908 1_555
Mo12 O86 2.020468 1_555
Mo12 O30 2.339126 1_555
Mo13 O53 1.747165 1_555
Mo13 O25 1.825053 1_555
Mo13 O23 1.839768 1_555
Mo13 O89 2.024750 1_555
Mo13 O48 2.125113 1_555
Mo13 O79 2.319029 1_555
Mo14 O60 1.744902 1_455
Mo14 O8 1.824299 1_555
Mo14 O31 1.839288 1_555
Mo14 O13 2.023746 1_555
Mo14 O24 2.122815 1_555
Mo14 O58 2.343756 1_555
Mo15 O73 1.744790 1_455
Mo15 O7 1.824137 1_555
Mo15 O74 1.839040 1_556
Mo15 O38 2.023862 1_555
Mo15 O67 2.121903 1_555
Mo15 O34 2.343460 1_555
Mo16 O18 1.742530 1_555
Mo16 O5 1.914826 1_555
Mo16 O2 2.001192 1_545
Mo16 O31 2.002412 1_555
Mo16 O69 2.020349 1_555
Mo16 O28 2.338776 1_555
Mo17 O14 1.746928 1_555
Mo17 O85 1.824723 1_555
Mo17 O37 1.839577 1_554
Mo17 O27 2.024914 1_555
Mo17 O62 2.126154 1_555
Mo17 O12 2.320688 1_555
Mo18 O1 1.749297 1_555
Mo18 O32 1.823423 1_555
Mo18 O50 1.833731 1_555
Mo18 O21 2.042237 1_555
Mo18 O29 2.077347 1_555
Mo18 O76 2.339098 1_555
Mo19 O76 1.749212 1_455
Mo19 O69 1.824829 1_555
Mo19 O81 1.832544 1_555
Mo19 O85 2.040887 1_555
Mo19 O70 2.077688 1_555
Mo19 O1 2.332557 1_555
Mo20 O80 1.747752 1_455
Mo20 O70 1.808149 1_555
Mo20 O89 1.866638 1_555
Mo20 O24 1.979884 1_555
Mo20 O48 2.186971 1_555
Mo20 O49 2.321183 1_555
Mo21 O20 1.749203 1_455
Mo21 O86 1.824850 1_555
Mo21 O2 1.832685 1_555
Mo21 O25 2.040090 1_555
Mo21 O35 2.078026 1_555
Mo21 O77 2.333665 1_555
Mo22 O46 1.749115 1_555
Mo22 O82 1.823556 1_555
Mo22 O3 1.834007 1_555
Mo22 O7 2.041320 1_555
Mo22 O16 2.077603 1_555
Mo22 O36 2.337876 1_555
Mo23 O45 1.745499 1_555
Mo23 O16 1.810289 1_555
Mo23 O13 1.867935 1_555
Mo23 O48 1.976961 1_555
Mo23 O24 2.186452 1_555
Mo23 O57 2.331080 1_555
Mo24 O10 1.742530 1_555
Mo24 O11 1.914826 1_556
Mo24 O64 2.001192 1_545
Mo24 O66 2.002412 1_555
Mo24 O47 2.020349 1_555
Mo24 O51 2.338776 1_555
Mo25 O58 1.746928 1_555
Mo25 O40 1.824739 1_555
Mo25 O26 1.839577 1_555
Mo25 O0 2.024914 1_555
Mo25 O72 2.126154 1_555
Mo25 O60 2.320688 1_555
Mo26 O77 1.749115 1_555
Mo26 O52 1.823556 1_555
Mo26 O22 1.834007 1_555
Mo26 O42 2.041320 1_555
Mo26 O19 2.077610 1_555
Mo26 O20 2.337876 1_555
Mo27 O12 1.744902 1_655
Mo27 O21 1.824299 1_555
Mo27 O66 1.839288 1_554
Mo27 O56 2.023746 1_555
Mo27 O44 2.122815 1_555
Mo27 O14 2.343756 1_555
Mo28 O30 1.744118 1_655
Mo28 O11 1.912021 1_565
Mo28 O50 2.003318 1_565
Mo28 O17 2.003540 1_555
Mo28 O52 2.022711 1_555
Mo28 O68 2.336605 1_555
Mo29 O75 1.749212 1_655
Mo29 O47 1.824829 1_555
Mo29 O4 1.832544 1_555
Mo29 O40 2.040872 1_555
Mo29 O71 2.077688 1_555
Mo29 O54 2.332557 1_555
Mo30 O83 1.744118 1_455
Mo30 O5 1.912021 1_565
Mo30 O15 2.003318 1_565
Mo30 O23 2.003540 1_555
Mo30 O82 2.022711 1_555
Mo30 O91 2.336605 1_555
Mo31 O49 1.745606 1_555
Mo31 O29 1.810449 1_555
Mo31 O84 1.867749 1_555
Mo31 O72 1.977676 1_555
Mo31 O6 2.185242 1_555
Mo31 O80 2.329954 1_555
