# generated using pymatgen
data_NaV2O5
_symmetry_space_group_name_H-M   'P 1'
_cell_length_a   3.65155127
_cell_length_b   5.10106801
_cell_length_c   11.46721959
_cell_angle_alpha   90.00649333
_cell_angle_beta   89.99646723
_cell_angle_gamma   90.00526555
_symmetry_Int_Tables_number   1
_chemical_formula_structural   NaV2O5
_chemical_formula_sum   'Na2 V4 O10'
_cell_volume   213.59773360
_cell_formula_units_Z   2
loop_
 _symmetry_equiv_pos_site_id
 _symmetry_equiv_pos_as_xyz
  1  'x, y, z'
loop_
 _atom_site_type_symbol
 _atom_site_label
 _atom_site_symmetry_multiplicity
 _atom_site_fract_x
 _atom_site_fract_y
 _atom_site_fract_z
 _atom_site_occupancy
  Na  Na0  1  0.00000200  0.86673900  0.01154400  1
  Na  Na1  1  0.49984400  0.13524100  0.51184100  1
  V  V0  1  0.50011600  0.39123300  0.15109000  1
  V  V1  1  0.00008500  0.59756100  0.34899700  1
  V  V2  1  0.49984700  0.40468800  0.84908900  1
  V  V3  1  0.99999100  0.61079400  0.65111400  1
  O  O0  1  0.50000900  0.53592000  0.99283100  1
  O  O1  1  0.99997600  0.46630200  0.49274600  1
  O  O2  1  0.99990200  0.50971100  0.82084400  1
  O  O3  1  0.00011300  0.52116300  0.17825000  1
  O  O4  1  0.49996500  0.48116700  0.67836300  1
  O  O5  1  0.50006300  0.49233900  0.32075700  1
  O  O6  1  0.49970400  0.08608100  0.86716200  1
  O  O7  1  0.50023300  0.06984100  0.12896200  1
  O  O8  1  0.00008600  0.93221100  0.62912200  1
  O  O9  1  0.00006300  0.91611000  0.36728900  1
loop_
_geom_bond_atom_site_label_1
_geom_bond_atom_site_label_2
_geom_bond_distance
_geom_bond_site_symmetry_2
Na0 O7 2.493276 1_465
Na0 O7 2.494494 1_565
Na0 O0 2.495309 1_454
Na0 O0 2.495554 1_554
Na0 O3 2.600514 1_555
Na0 O6 2.705967 1_564
Na0 O6 2.707711 1_464
Na0 O2 2.845706 1_454
Na1 O8 2.492234 1_545
Na1 O8 2.493789 1_645
Na1 O1 2.496451 1_455
Na1 O1 2.496910 1_555
Na1 O4 2.599881 1_555
Na1 O9 2.706892 1_545
Na1 O9 2.707972 1_645
Na1 O5 2.849637 1_555
O0 V2 1.779000 1_555
O0 V0 1.959209 1_556
O1 V1 1.779266 1_655
O1 V3 1.959837 1_555
O2 V2 1.930007 1_655
O2 V2 1.930256 1_555
O2 V3 2.013531 1_555
O3 V0 1.967104 1_455
O3 V0 1.967202 1_555
O3 V1 1.996357 1_555
O4 V3 1.966805 1_455
O4 V3 1.966832 1_555
O4 V2 1.996288 1_555
O5 V1 1.930335 1_555
O5 V1 1.930432 1_655
O5 V0 2.012750 1_555
O6 V2 1.638420 1_555
O7 V0 1.658935 1_555
O8 V3 1.658880 1_455
O9 V1 1.638399 1_555
