# generated using pymatgen
data_TlS
_symmetry_space_group_name_H-M   'P 1'
_cell_length_a   8.02724400
_cell_length_b   8.02724400
_cell_length_c   29.99186900
_cell_angle_alpha   90.00000000
_cell_angle_beta   90.00000000
_cell_angle_gamma   90.00000000
_symmetry_Int_Tables_number   1
_chemical_formula_structural   TlS
_chemical_formula_sum   'Tl32 S32'
_cell_volume   1932.57545270
_cell_formula_units_Z   32
loop_
 _symmetry_equiv_pos_site_id
 _symmetry_equiv_pos_as_xyz
  1  'x, y, z'
loop_
 _atom_site_type_symbol
 _atom_site_label
 _atom_site_symmetry_multiplicity
 _atom_site_fract_x
 _atom_site_fract_y
 _atom_site_fract_z
 _atom_site_occupancy
  Tl  Tl0  1  0.41881900  0.62809200  0.81744300  1
  Tl  Tl1  1  0.87815500  0.87074500  0.20279900  1
  Tl  Tl2  1  0.12925500  0.12184500  0.29720100  1
  Tl  Tl3  1  0.91017300  0.37394600  0.93624500  1
  Tl  Tl4  1  0.62674500  0.12543900  0.69740300  1
  Tl  Tl5  1  0.12674500  0.37456100  0.05259700  1
  Tl  Tl6  1  0.62925500  0.37815500  0.45279900  1
  Tl  Tl7  1  0.62184500  0.37074500  0.04720100  1
  Tl  Tl8  1  0.41017300  0.12605400  0.81375500  1
  Tl  Tl9  1  0.37815500  0.62925500  0.54720100  1
  Tl  Tl10  1  0.87074500  0.87815500  0.79720100  1
  Tl  Tl11  1  0.12543900  0.62674500  0.30259700  1
  Tl  Tl12  1  0.62605400  0.08982700  0.56375500  1
  Tl  Tl13  1  0.91881900  0.87190800  0.93255700  1
  Tl  Tl14  1  0.12809200  0.08118100  0.56744300  1
  Tl  Tl15  1  0.08982700  0.62605400  0.43624500  1
  Tl  Tl16  1  0.87394600  0.58982700  0.68624500  1
  Tl  Tl17  1  0.58982700  0.87394600  0.31375500  1
  Tl  Tl18  1  0.62543900  0.87325500  0.44740300  1
  Tl  Tl19  1  0.62809200  0.41881900  0.18255700  1
  Tl  Tl20  1  0.12605400  0.41017300  0.18624500  1
  Tl  Tl21  1  0.87456100  0.37325500  0.80259700  1
  Tl  Tl22  1  0.37456100  0.12674500  0.94740300  1
  Tl  Tl23  1  0.37190800  0.58118100  0.68255700  1
  Tl  Tl24  1  0.37394600  0.91017300  0.06375500  1
  Tl  Tl25  1  0.08118100  0.12809200  0.43255700  1
  Tl  Tl26  1  0.37074500  0.62184500  0.95279900  1
  Tl  Tl27  1  0.37325500  0.87456100  0.19740300  1
  Tl  Tl28  1  0.87190800  0.91881900  0.06744300  1
  Tl  Tl29  1  0.58118100  0.37190800  0.31744300  1
  Tl  Tl30  1  0.12184500  0.12925500  0.70279900  1
  Tl  Tl31  1  0.87325500  0.62543900  0.55259700  1
  S  S0  1  0.88487400  0.88487400  0.50000000  1
  S  S1  1  0.68706800  0.13183700  0.39964100  1
  S  S2  1  0.61617600  0.85796900  0.74250600  1
  S  S3  1  0.86454500  0.13545500  0.25000000  1
  S  S4  1  0.31293200  0.86816300  0.89964100  1
  S  S5  1  0.64203100  0.11617600  0.99250600  1
  S  S6  1  0.13183700  0.68706800  0.60035900  1
  S  S7  1  0.61926500  0.68384000  0.60187900  1
  S  S8  1  0.88382400  0.35796900  0.50749400  1
  S  S9  1  0.85796900  0.61617600  0.25749400  1
  S  S10  1  0.38382400  0.14203100  0.24250600  1
  S  S11  1  0.35796900  0.88382400  0.49250600  1
  S  S12  1  0.13545500  0.86454500  0.75000000  1
  S  S13  1  0.38487400  0.61512600  0.25000000  1
  S  S14  1  0.63183700  0.81293200  0.14964100  1
  S  S15  1  0.61512600  0.38487400  0.75000000  1
  S  S16  1  0.31616000  0.38073500  0.89812100  1
  S  S17  1  0.11512600  0.11512600  0.00000000  1
  S  S18  1  0.81293200  0.63183700  0.85035900  1
  S  S19  1  0.81616000  0.11926500  0.85187900  1
  S  S20  1  0.18706800  0.36816300  0.35035900  1
  S  S21  1  0.36816300  0.18706800  0.64964100  1
  S  S22  1  0.38073500  0.31616000  0.10187900  1
  S  S23  1  0.36454500  0.36454500  0.50000000  1
  S  S24  1  0.63545500  0.63545500  0.00000000  1
  S  S25  1  0.88073500  0.18384000  0.64812100  1
  S  S26  1  0.11617600  0.64203100  0.00749400  1
  S  S27  1  0.18384000  0.88073500  0.35187900  1
  S  S28  1  0.14203100  0.38382400  0.75749400  1
  S  S29  1  0.86816300  0.31293200  0.10035900  1
  S  S30  1  0.11926500  0.81616000  0.14812100  1
  S  S31  1  0.68384000  0.61926500  0.39812100  1
loop_
_geom_bond_atom_site_label_1
_geom_bond_atom_site_label_2
_geom_bond_distance
_geom_bond_site_symmetry_2
S0 Tl18 2.614222 1_555
S0 Tl31 2.614222 1_555
S0 Tl25 3.222793 1_665
S0 Tl14 3.222793 1_665
S1 Tl18 2.570068 1_545
S1 Tl6 2.582000 1_555
S1 Tl29 3.242496 1_555
S1 Tl25 3.314230 1_655
S2 Tl4 2.539068 1_565
S2 Tl10 2.625457 1_555
S2 Tl0 3.311511 1_555
S3 Tl1 2.555612 1_545
S3 Tl2 2.555612 1_655
S4 Tl22 2.570068 1_565
S4 Tl26 2.582000 1_555
S4 Tl0 3.242496 1_555
S4 Tl13 3.314230 1_455
S5 Tl22 2.539068 1_555
S5 Tl7 2.625457 1_556
S5 Tl28 3.311511 1_546
S6 Tl31 2.570068 1_455
S6 Tl9 2.582000 1_555
S6 Tl23 3.242496 1_555
S6 Tl14 3.314230 1_565
S7 Tl31 2.561503 1_555
S7 Tl9 2.574337 1_555
S7 Tl23 3.236750 1_555
S8 Tl31 2.539068 1_555
S8 Tl6 2.625457 1_555
S8 Tl25 3.311511 1_655
S9 Tl11 2.539068 1_655
S9 Tl1 2.625457 1_555
S9 Tl19 3.311511 1_555
S10 Tl27 2.539068 1_545
S10 Tl2 2.625457 1_555
S10 Tl29 3.311511 1_555
S11 Tl18 2.539068 1_555
S11 Tl9 2.625457 1_555
S11 Tl14 3.311511 1_565
S12 Tl10 2.555612 1_455
S12 Tl30 2.555612 1_565
S13 Tl11 2.614222 1_555
S13 Tl27 2.614222 1_555
S13 Tl29 3.222793 1_555
S13 Tl19 3.222793 1_555
S14 Tl27 2.570068 1_555
S14 Tl1 2.582000 1_555
S14 Tl28 3.242496 1_555
S14 Tl19 3.314230 1_555
S15 Tl4 2.614222 1_555
S15 Tl21 2.614222 1_555
S15 Tl23 3.222793 1_555
S15 Tl0 3.222793 1_555
S16 Tl22 2.561503 1_555
S16 Tl26 2.574337 1_555
S16 Tl0 3.236750 1_555
S17 Tl5 2.614222 1_555
S17 Tl22 2.614222 1_554
S17 Tl28 3.222793 1_445
S17 Tl13 3.222793 1_444
S18 Tl21 2.570068 1_555
S18 Tl10 2.582000 1_555
S18 Tl13 3.242496 1_555
S18 Tl0 3.314230 1_555
S19 Tl21 2.561503 1_555
S19 Tl10 2.574337 1_545
S19 Tl13 3.236750 1_545
S20 Tl11 2.570068 1_555
S20 Tl2 2.582000 1_555
S20 Tl25 3.242496 1_555
S20 Tl29 3.314230 1_555
S21 Tl4 2.570068 1_555
S21 Tl30 2.582000 1_555
S21 Tl14 3.242496 1_555
S21 Tl23 3.314230 1_555
S22 Tl5 2.561503 1_555
S22 Tl7 2.574337 1_555
S22 Tl19 3.236750 1_555
S23 Tl6 2.555612 1_555
S23 Tl9 2.555612 1_555
S24 Tl7 2.555612 1_555
S24 Tl26 2.555612 1_554
S25 Tl4 2.561503 1_555
S25 Tl30 2.574337 1_655
S25 Tl14 3.236750 1_655
S26 Tl5 2.539068 1_555
S26 Tl26 2.625457 1_554
S26 Tl13 3.311511 1_454
S27 Tl11 2.561503 1_555
S27 Tl2 2.574337 1_565
S27 Tl25 3.236750 1_565
S28 Tl21 2.539068 1_455
S28 Tl30 2.625457 1_555
S28 Tl23 3.311511 1_555
S29 Tl5 2.570068 1_655
S29 Tl7 2.582000 1_555
S29 Tl19 3.242496 1_555
S29 Tl28 3.314230 1_545
S30 Tl27 2.561503 1_555
S30 Tl1 2.574337 1_455
S30 Tl28 3.236750 1_455
S31 Tl18 2.561503 1_555
S31 Tl6 2.574337 1_555
S31 Tl29 3.236750 1_555
