# generated using pymatgen
data_ZnS
_symmetry_space_group_name_H-M   'P 1'
_cell_length_a   3.80905459
_cell_length_b   3.80905391
_cell_length_c   43.57653078
_cell_angle_alpha   90.00000000
_cell_angle_beta   90.00000000
_cell_angle_gamma   120.00000580
_symmetry_Int_Tables_number   1
_chemical_formula_structural   ZnS
_chemical_formula_sum   'Zn14 S14'
_cell_volume   547.54217274
_cell_formula_units_Z   14
loop_
 _symmetry_equiv_pos_site_id
 _symmetry_equiv_pos_as_xyz
  1  'x, y, z'
loop_
 _atom_site_type_symbol
 _atom_site_label
 _atom_site_symmetry_multiplicity
 _atom_site_fract_x
 _atom_site_fract_y
 _atom_site_fract_z
 _atom_site_occupancy
  Zn  Zn0  1  0.66666700  0.33333300  0.14286063  1
  Zn  Zn1  1  0.33333300  0.66666700  0.78576728  1
  Zn  Zn2  1  0.33333300  0.66666700  0.07145927  1
  Zn  Zn3  1  0.66666700  0.33333300  0.57139345  1
  Zn  Zn4  1  -0.00000000  0.00000000  0.21422928  1
  Zn  Zn5  1  0.66666700  0.33333300  0.71433920  1
  Zn  Zn6  1  0.33333300  0.66666700  0.64286937  1
  Zn  Zn7  1  -0.00000000  0.00000000  0.35718181  1
  Zn  Zn8  1  -0.00000000  0.00000000  0.00004471  1
  Zn  Zn9  1  0.66666700  0.33333300  0.42845947  1
  Zn  Zn10  1  0.66666700  0.33333300  0.92851783  1
  Zn  Zn11  1  0.33333300  0.66666700  0.28570388  1
  Zn  Zn12  1  0.33333300  0.66666700  0.49988524  1
  Zn  Zn13  1  -0.00000000  0.00000000  0.85708933  1
  S  S0  1  0.66666700  0.33333300  0.98220324  1
  S  S1  1  0.66666700  0.33333300  0.19645270  1
  S  S2  1  0.33333300  0.66666700  0.33938133  1
  S  S3  1  0.33333300  0.66666700  0.69647685  1
  S  S4  1  0.66666700  0.33333300  0.76797386  1
  S  S5  1  -0.00000000  0.00000000  0.91064815  1
  S  S6  1  -0.00000000  0.00000000  0.26780221  1
  S  S7  1  0.33333300  0.66666700  0.55351907  1
  S  S8  1  -0.00000000  0.00000000  0.41072214  1
  S  S9  1  -0.00000000  0.00000000  0.05362470  1
  S  S10  1  0.66666700  0.33333300  0.48201237  1
  S  S11  1  0.66666700  0.33333300  0.62500218  1
  S  S12  1  0.33333300  0.66666700  0.83932480  1
  S  S13  1  0.33333300  0.66666700  0.12505366  1
loop_
_geom_bond_atom_site_label_1
_geom_bond_atom_site_label_2
_geom_bond_distance
_geom_bond_site_symmetry_2
S0 Zn8 2.332541 1_656
S0 Zn8 2.332544 1_666
S0 Zn8 2.332544 1_556
S0 Zn10 2.339424 1_555
S1 Zn4 2.331600 1_655
S1 Zn4 2.331603 1_665
S1 Zn4 2.331603 1_555
S1 Zn0 2.335356 1_555
S2 Zn7 2.331946 1_565
S2 Zn7 2.331949 1_555
S2 Zn7 2.331949 1_665
S2 Zn11 2.339077 1_555
S3 Zn5 2.332844 1_565
S3 Zn5 2.332844 1_455
S3 Zn5 2.332851 1_555
S3 Zn6 2.336028 1_555
S4 Zn1 2.331844 1_545
S4 Zn1 2.331844 1_655
S4 Zn1 2.331850 1_555
S4 Zn5 2.337212 1_555
S5 Zn10 2.332951 1_455
S5 Zn10 2.332954 1_445
S5 Zn10 2.332954 1_555
S5 Zn13 2.333908 1_555
S6 Zn11 2.333417 1_545
S6 Zn11 2.333419 1_555
S6 Zn11 2.333420 1_445
S6 Zn4 2.334522 1_555
S7 Zn3 2.333019 1_565
S7 Zn3 2.333019 1_455
S7 Zn3 2.333026 1_555
S7 Zn12 2.337176 1_555
S8 Zn9 2.331032 1_455
S8 Zn9 2.331035 1_445
S8 Zn9 2.331035 1_555
S8 Zn7 2.333102 1_555
S9 Zn2 2.332441 1_545
S9 Zn2 2.332443 1_555
S9 Zn2 2.332444 1_445
S9 Zn8 2.334830 1_555
S10 Zn12 2.332997 1_545
S10 Zn12 2.332997 1_655
S10 Zn12 2.333004 1_555
S10 Zn9 2.333650 1_555
S11 Zn6 2.332914 1_545
S11 Zn6 2.332915 1_655
S11 Zn6 2.332921 1_555
S11 Zn3 2.336082 1_555
S12 Zn13 2.331426 1_565
S12 Zn13 2.331428 1_555
S12 Zn13 2.331429 1_665
S12 Zn1 2.333851 1_555
S13 Zn0 2.332040 1_565
S13 Zn0 2.332040 1_455
S13 Zn0 2.332047 1_555
S13 Zn2 2.335458 1_555
