# generated using pymatgen
data_Nd2MgNi2
_symmetry_space_group_name_H-M   'P 1'
_cell_length_a   3.86694822
_cell_length_b   7.47742909
_cell_length_c   7.47742909
_cell_angle_alpha   90.00000000
_cell_angle_beta   90.00000000
_cell_angle_gamma   90.00000000
_symmetry_Int_Tables_number   1
_chemical_formula_structural   Nd2MgNi2
_chemical_formula_sum   'Nd4 Mg2 Ni4'
_cell_volume   216.20859927
_cell_formula_units_Z   2
loop_
 _symmetry_equiv_pos_site_id
 _symmetry_equiv_pos_as_xyz
  1  'x, y, z'
loop_
 _atom_site_type_symbol
 _atom_site_label
 _atom_site_symmetry_multiplicity
 _atom_site_fract_x
 _atom_site_fract_y
 _atom_site_fract_z
 _atom_site_occupancy
  Nd  Nd0  1  0.50000000  0.82485700  0.32485700  1
  Nd  Nd1  1  0.50000000  0.67514300  0.82485700  1
  Nd  Nd2  1  0.50000000  0.32485700  0.17514300  1
  Nd  Nd3  1  0.50000000  0.17514300  0.67514300  1
  Mg  Mg0  1  0.00000000  0.50000000  0.50000000  1
  Mg  Mg1  1  0.00000000  -0.00000000  0.00000000  1
  Ni  Ni0  1  -0.00000000  0.61665376  0.11665376  1
  Ni  Ni1  1  0.00000000  0.88334624  0.61665376  1
  Ni  Ni2  1  0.00000000  0.38334624  0.88334624  1
  Ni  Ni3  1  -0.00000000  0.11665376  0.38334624  1
loop_
_geom_bond_atom_site_label_1
_geom_bond_atom_site_label_2
_geom_bond_distance
_geom_bond_site_symmetry_2
Nd0 Ni0 2.930142 1_555
Nd0 Ni0 2.930142 1_655
Nd0 Ni1 2.947921 1_555
Nd0 Ni3 2.947921 1_565
Nd0 Ni3 2.947921 1_665
Nd0 Ni1 2.947921 1_655
Nd1 Ni1 2.930142 1_655
Nd1 Ni1 2.930142 1_555
Nd1 Ni2 2.947921 1_555
Nd1 Ni0 2.947921 1_556
Nd1 Ni2 2.947921 1_655
Nd1 Ni0 2.947921 1_656
Nd2 Ni3 2.930142 1_555
Nd2 Ni3 2.930142 1_655
Nd2 Ni0 2.947921 1_555
Nd2 Ni2 2.947921 1_554
Nd2 Ni0 2.947921 1_655
Nd2 Ni2 2.947921 1_654
Nd3 Ni2 2.930142 1_555
Nd3 Ni2 2.930142 1_655
Nd3 Ni3 2.947921 1_555
Nd3 Ni3 2.947921 1_655
Nd3 Ni1 2.947921 1_645
Nd3 Ni1 2.947921 1_545
Mg0 Ni2 2.996224 1_555
Mg0 Ni1 2.996224 1_555
Mg0 Ni3 2.996224 1_555
Mg0 Ni0 2.996224 1_555
Mg0 Nd0 3.369559 1_555
Mg0 Nd1 3.369559 1_555
Mg0 Nd0 3.369559 1_455
Mg0 Nd1 3.369559 1_455
Mg0 Nd2 3.369559 1_455
Mg0 Nd2 3.369559 1_555
Mg0 Nd3 3.369559 1_455
Mg0 Nd3 3.369559 1_555
Mg1 Ni0 2.996224 1_545
Mg1 Ni1 2.996224 1_544
Mg1 Ni2 2.996224 1_554
Mg1 Ni3 2.996224 1_555
Mg1 Nd1 3.369559 1_444
Mg1 Nd1 3.369559 1_544
Mg1 Nd3 3.369559 1_554
Mg1 Nd3 3.369559 1_454
Mg1 Nd2 3.369559 1_455
Mg1 Nd2 3.369559 1_555
Mg1 Nd0 3.369559 1_545
Mg1 Nd0 3.369559 1_445
Ni0 Ni2 2.467153 1_554
Ni1 Ni3 2.467153 1_565
