# generated using pymatgen
data_V2Cu2O7
_symmetry_space_group_name_H-M   'P 1'
_cell_length_a   11.08796572
_cell_length_b   10.68990134
_cell_length_c   5.38614321
_cell_angle_alpha   79.83153594
_cell_angle_beta   71.61944377
_cell_angle_gamma   28.55404710
_symmetry_Int_Tables_number   1
_chemical_formula_structural   V2Cu2O7
_chemical_formula_sum   'V4 Cu4 O14'
_cell_volume   282.39966143
_cell_formula_units_Z   2
loop_
 _symmetry_equiv_pos_site_id
 _symmetry_equiv_pos_as_xyz
  1  'x, y, z'
loop_
 _atom_site_type_symbol
 _atom_site_label
 _atom_site_symmetry_multiplicity
 _atom_site_fract_x
 _atom_site_fract_y
 _atom_site_fract_z
 _atom_site_occupancy
  V  V0  1  0.18816065  0.41246439  0.61700005  1
  V  V1  1  0.78267340  0.61675522  0.41221204  1
  V  V2  1  0.63338626  0.46723756  0.06162903  1
  V  V3  1  0.83740478  0.06195847  0.46766657  1
  Cu  Cu0  1  0.71459917  0.95947644  0.03268064  1
  Cu  Cu1  1  0.29354345  0.03239373  0.95884754  1
  Cu  Cu2  1  0.21799925  0.95582836  0.53492318  1
  Cu  Cu3  1  0.29051774  0.53550236  0.95668675  1
  O  O0  1  0.89809136  0.60185558  0.60199533  1
  O  O1  1  0.64800732  0.35202569  0.35197558  1
  O  O2  1  0.39304206  0.28518997  0.29721607  1
  O  O3  1  0.02497637  0.29693579  0.28466416  1
  O  O4  1  0.95329855  0.22472483  0.85662060  1
  O  O5  1  0.96473960  0.85704250  0.22542522  1
  O  O6  1  0.08378109  0.63108450  0.79933762  1
  O  O7  1  0.48612985  0.79900317  0.63066725  1
  O  O8  1  0.07788985  0.92032554  0.52738091  1
  O  O9  1  0.47422688  0.52751493  0.92045037  1
  O  O10  1  0.72267636  0.77570371  0.17214347  1
  O  O11  1  0.32966311  0.17208007  0.77560100  1
  O  O12  1  0.61889270  0.16630668  0.76428966  1
  O  O13  1  0.45109919  0.76379152  0.16578798  1
loop_
_geom_bond_atom_site_label_1
_geom_bond_atom_site_label_2
_geom_bond_distance
_geom_bond_site_symmetry_2
Cu0 O2 1.898675 1_565
Cu0 O10 1.908897 1_555
Cu0 O6 1.930933 1_654
Cu0 O12 1.954861 1_564
Cu0 O5 2.459383 1_555
Cu1 O3 1.899290 1_556
Cu1 O11 1.909242 1_555
Cu1 O7 1.930412 1_545
Cu1 O13 1.955705 1_546
Cu1 O4 2.459101 1_455
Cu2 O4 1.899917 1_465
Cu2 O8 1.907917 1_555
Cu2 O13 1.930502 1_555
Cu2 O7 1.954779 1_555
Cu2 O3 2.463306 1_565
Cu3 O5 1.898807 1_456
Cu3 O9 1.908982 1_555
Cu3 O12 1.930687 1_555
Cu3 O6 1.954918 1_555
Cu3 O2 2.460630 1_556
O0 V0 1.765475 1_655
O0 V1 1.765631 1_555
O1 V3 1.765485 1_555
O1 V2 1.765736 1_555
O2 V0 1.705455 1_555
O3 V1 1.705232 1_455
O4 V2 1.705410 1_556
O5 V3 1.705408 1_565
O6 V0 1.762864 1_555
O7 V1 1.762806 1_555
O8 V3 1.668118 1_465
O9 V2 1.668360 1_556
O10 V1 1.668117 1_555
O11 V0 1.667975 1_555
O12 V3 1.762744 1_555
O13 V2 1.762490 1_555
