# generated using pymatgen
data_PbI2
_symmetry_space_group_name_H-M   'P 1'
_cell_length_a   4.62612722
_cell_length_b   4.62612722
_cell_length_c   21.97743308
_cell_angle_alpha   90.00000000
_cell_angle_beta   90.00000000
_cell_angle_gamma   119.99998831
_symmetry_Int_Tables_number   1
_chemical_formula_structural   PbI2
_chemical_formula_sum   'Pb3 I6'
_cell_volume   407.32661991
_cell_formula_units_Z   3
loop_
 _symmetry_equiv_pos_site_id
 _symmetry_equiv_pos_as_xyz
  1  'x, y, z'
loop_
 _atom_site_type_symbol
 _atom_site_label
 _atom_site_symmetry_multiplicity
 _atom_site_fract_x
 _atom_site_fract_y
 _atom_site_fract_z
 _atom_site_occupancy
  Pb  Pb0  1  -0.00000000  0.00000000  0.66628490  1
  Pb  Pb1  1  0.33333300  0.66666700  0.33360509  1
  Pb  Pb2  1  0.33333300  0.66666700  0.00014925  1
  I  I0  1  0.66666700  0.33333300  0.41816498  1
  I  I1  1  0.66666700  0.33333300  0.08468724  1
  I  I2  1  0.33333300  0.66666700  0.58161289  1
  I  I3  1  -0.00000000  0.00000000  0.91552871  1
  I  I4  1  -0.00000000  0.00000000  0.24892201  1
  I  I5  1  0.66666700  0.33333300  0.75104393  1
loop_
_geom_bond_atom_site_label_1
_geom_bond_atom_site_label_2
_geom_bond_distance
_geom_bond_site_symmetry_2
I0 Pb1 3.253822 1_545
I0 Pb1 3.253822 1_655
I0 Pb1 3.253828 1_555
I1 Pb2 3.253547 1_545
I1 Pb2 3.253547 1_655
I1 Pb2 3.253553 1_555
I2 Pb0 3.255230 1_565
I2 Pb0 3.255233 1_555
I2 Pb0 3.255233 1_665
I3 Pb2 3.254583 1_546
I3 Pb2 3.254587 1_446
I3 Pb2 3.254587 1_556
I4 Pb1 3.255369 1_545
I4 Pb1 3.255372 1_555
I4 Pb1 3.255372 1_445
I5 Pb0 3.256323 1_655
I5 Pb0 3.256327 1_665
I5 Pb0 3.256327 1_555
