# generated using pymatgen
data_Cu3SbS3
_symmetry_space_group_name_H-M   'P 1'
_cell_length_a   10.26947000
_cell_length_b   7.84357100
_cell_length_c   13.40463261
_cell_angle_alpha   89.73385809
_cell_angle_beta   90.00000000
_cell_angle_gamma   90.00000000
_symmetry_Int_Tables_number   1
_chemical_formula_structural   Cu3SbS3
_chemical_formula_sum   'Cu24 Sb8 S24'
_cell_volume   1079.72235417
_cell_formula_units_Z   8
loop_
 _symmetry_equiv_pos_site_id
 _symmetry_equiv_pos_as_xyz
  1  'x, y, z'
loop_
 _atom_site_type_symbol
 _atom_site_label
 _atom_site_symmetry_multiplicity
 _atom_site_fract_x
 _atom_site_fract_y
 _atom_site_fract_z
 _atom_site_occupancy
  Cu  Cu0  1  0.40235900  0.80501900  0.08059500  1
  Cu  Cu1  1  0.10418700  0.30710400  0.17009600  1
  Cu  Cu2  1  0.96053900  0.06136000  0.86458000  1
  Cu  Cu3  1  0.09789800  0.15747200  0.70180700  1
  Cu  Cu4  1  0.53946100  0.06136000  0.36458000  1
  Cu  Cu5  1  0.03946100  0.93864000  0.13542000  1
  Cu  Cu6  1  0.09764100  0.80501900  0.58059500  1
  Cu  Cu7  1  0.52906600  0.56550100  0.89916100  1
  Cu  Cu8  1  0.60418700  0.69289600  0.32990400  1
  Cu  Cu9  1  0.46053900  0.93864000  0.63542000  1
  Cu  Cu10  1  0.90210200  0.84252800  0.29819300  1
  Cu  Cu11  1  0.39890900  0.65122100  0.54759900  1
  Cu  Cu12  1  0.02906600  0.43449900  0.60083900  1
  Cu  Cu13  1  0.60109100  0.34877900  0.45240100  1
  Cu  Cu14  1  0.59789800  0.84252800  0.79819300  1
  Cu  Cu15  1  0.47093400  0.43449900  0.10083900  1
  Cu  Cu16  1  0.89890900  0.34877900  0.95240100  1
  Cu  Cu17  1  0.90235900  0.19498100  0.41940500  1
  Cu  Cu18  1  0.97093400  0.56550100  0.39916100  1
  Cu  Cu19  1  0.59764100  0.19498100  0.91940500  1
  Cu  Cu20  1  0.39581300  0.30710400  0.67009600  1
  Cu  Cu21  1  0.40210200  0.15747200  0.20180700  1
  Cu  Cu22  1  0.89581300  0.69289600  0.82990400  1
  Cu  Cu23  1  0.10109100  0.65122100  0.04759900  1
  Sb  Sb0  1  0.24506200  0.21343800  0.44475600  1
  Sb  Sb1  1  0.25284500  0.71698900  0.30446700  1
  Sb  Sb2  1  0.74506200  0.78656200  0.05524400  1
  Sb  Sb3  1  0.74715500  0.28301100  0.69553300  1
  Sb  Sb4  1  0.25493800  0.21343800  0.94475600  1
  Sb  Sb5  1  0.75284500  0.28301100  0.19553300  1
  Sb  Sb6  1  0.24715500  0.71698900  0.80446700  1
  Sb  Sb7  1  0.75493800  0.78656200  0.55524400  1
  S  S0  1  0.24501000  0.94921800  0.67323500  1
  S  S1  1  0.43393600  0.81786100  0.41177800  1
  S  S2  1  0.06959700  0.31730200  0.84067200  1
  S  S3  1  0.74989500  0.55442600  0.92606900  1
  S  S4  1  0.75010500  0.55442600  0.42606900  1
  S  S5  1  0.43000100  0.82623700  0.91257300  1
  S  S6  1  0.56606400  0.18213900  0.58822200  1
  S  S7  1  0.06606400  0.81786100  0.91177800  1
  S  S8  1  0.56999900  0.17376300  0.08742700  1
  S  S9  1  0.93346300  0.67054400  0.66436000  1
  S  S10  1  0.93000100  0.17376300  0.58742700  1
  S  S11  1  0.43346300  0.32945600  0.83564000  1
  S  S12  1  0.56653700  0.67054400  0.16436000  1
  S  S13  1  0.56959700  0.68269800  0.65932800  1
  S  S14  1  0.93393600  0.18213900  0.08822200  1
  S  S15  1  0.06999900  0.82623700  0.41257300  1
  S  S16  1  0.74501000  0.05078200  0.82676500  1
  S  S17  1  0.25010500  0.44557400  0.07393100  1
  S  S18  1  0.24989500  0.44557400  0.57393100  1
  S  S19  1  0.75499000  0.05078200  0.32676500  1
  S  S20  1  0.43040300  0.31730200  0.34067200  1
  S  S21  1  0.06653700  0.32945600  0.33564000  1
  S  S22  1  0.25499000  0.94921800  0.17323500  1
  S  S23  1  0.93040300  0.68269800  0.15932800  1
loop_
_geom_bond_atom_site_label_1
_geom_bond_atom_site_label_2
_geom_bond_distance
_geom_bond_site_symmetry_2
Cu0 S22 2.263792 1_555
Cu0 S5 2.275419 1_554
Cu0 S12 2.281438 1_555
Cu1 S17 2.252504 1_555
Cu1 S21 2.260101 1_555
Cu1 S14 2.287373 1_455
Cu2 S16 2.272272 1_555
Cu2 S7 2.282794 1_645
Cu2 S2 2.319722 1_655
Cu3 S0 2.258999 1_545
Cu3 S2 2.267751 1_555
Cu3 S10 2.310452 1_455
Cu4 S19 2.272272 1_555
Cu4 S1 2.282794 1_545
Cu4 S20 2.319722 1_555
Cu5 S22 2.272272 1_555
Cu5 S14 2.282794 1_465
Cu5 S23 2.319722 1_455
Cu6 S0 2.263792 1_555
Cu6 S15 2.275419 1_555
Cu6 S9 2.281438 1_455
Cu7 S11 2.265256 1_555
Cu7 S5 2.291979 1_555
Cu7 S3 2.297881 1_555
Cu8 S4 2.252504 1_555
Cu8 S12 2.260101 1_555
Cu8 S1 2.287373 1_555
Cu9 S0 2.272272 1_555
Cu9 S6 2.282794 1_565
Cu9 S13 2.319722 1_555
Cu10 S19 2.258999 1_565
Cu10 S23 2.267751 1_555
Cu10 S15 2.310452 1_655
Cu11 S18 2.250087 1_555
Cu11 S1 2.265031 1_555
Cu11 S13 2.319488 1_555
Cu12 S9 2.265256 1_455
Cu12 S10 2.291979 1_455
Cu12 S18 2.297881 1_555
Cu13 S4 2.250087 1_555
Cu13 S6 2.265031 1_555
Cu13 S20 2.319488 1_555
Cu14 S16 2.258999 1_565
Cu14 S13 2.267751 1_555
Cu14 S5 2.310452 1_555
Cu15 S12 2.265256 1_555
Cu15 S8 2.291979 1_555
Cu15 S17 2.297881 1_555
Cu16 S3 2.250087 1_555
Cu16 S14 2.265031 1_556
Cu16 S2 2.319488 1_655
Cu17 S19 2.263792 1_555
Cu17 S10 2.275419 1_555
Cu17 S21 2.281438 1_655
Cu18 S21 2.265256 1_655
Cu18 S15 2.291979 1_655
Cu18 S4 2.297881 1_555
Cu19 S16 2.263792 1_555
Cu19 S8 2.275419 1_556
Cu19 S11 2.281438 1_555
Cu20 S18 2.252504 1_555
Cu20 S11 2.260101 1_555
Cu20 S6 2.287373 1_555
Cu21 S22 2.258999 1_545
Cu21 S20 2.267751 1_555
Cu21 S8 2.310452 1_555
Cu22 S3 2.252504 1_555
Cu22 S9 2.260101 1_555
Cu22 S7 2.287373 1_655
Cu23 S17 2.250087 1_555
Cu23 S7 2.265031 1_554
Cu23 S23 2.319488 1_455
S0 Sb6 2.526477 1_555
S1 Sb1 2.482793 1_555
S2 Sb4 2.494490 1_555
S3 Sb2 2.518972 1_556
S4 Sb7 2.518972 1_555
S5 Sb6 2.524209 1_555
S6 Sb3 2.482793 1_555
S7 Sb6 2.482793 1_555
S8 Sb5 2.524209 1_555
S9 Sb7 2.513225 1_555
S10 Sb3 2.524209 1_555
S11 Sb4 2.513225 1_555
S12 Sb2 2.513225 1_555
S13 Sb7 2.494490 1_555
S14 Sb5 2.482793 1_555
S15 Sb1 2.524209 1_555
S16 Sb3 2.526477 1_555
S17 Sb4 2.518972 1_554
S18 Sb0 2.518972 1_555
S19 Sb5 2.526477 1_555
S20 Sb0 2.494490 1_555
S21 Sb0 2.513225 1_555
S22 Sb1 2.526477 1_555
S23 Sb2 2.494490 1_555
