# generated using pymatgen
data_Nd4Ni3O10
_symmetry_space_group_name_H-M   'P 1'
_cell_length_a   5.44562185
_cell_length_b   5.52671900
_cell_length_c   27.69733910
_cell_angle_alpha   90.00000000
_cell_angle_beta   90.63963337
_cell_angle_gamma   90.00000000
_symmetry_Int_Tables_number   1
_chemical_formula_structural   Nd4Ni3O10
_chemical_formula_sum   'Nd16 Ni12 O40'
_cell_volume   833.53885414
_cell_formula_units_Z   4
loop_
 _symmetry_equiv_pos_site_id
 _symmetry_equiv_pos_as_xyz
  1  'x, y, z'
loop_
 _atom_site_type_symbol
 _atom_site_label
 _atom_site_symmetry_multiplicity
 _atom_site_fract_x
 _atom_site_fract_y
 _atom_site_fract_z
 _atom_site_occupancy
  Nd  Nd0  1  0.45824400  0.49275400  0.56851700  1
  Nd  Nd1  1  0.54175600  0.50724600  0.43148300  1
  Nd  Nd2  1  0.01151900  0.01583000  0.69995900  1
  Nd  Nd3  1  0.95824400  0.00724600  0.56851700  1
  Nd  Nd4  1  0.04429500  0.50711900  0.93157100  1
  Nd  Nd5  1  0.50149400  0.01610800  0.19975400  1
  Nd  Nd6  1  0.51151900  0.48417000  0.69995900  1
  Nd  Nd7  1  0.49850500  0.98389200  0.80024600  1
  Nd  Nd8  1  0.45570500  0.00711900  0.06842900  1
  Nd  Nd9  1  0.00149400  0.48389200  0.19975400  1
  Nd  Nd10  1  0.99850600  0.51610800  0.80024600  1
  Nd  Nd11  1  0.98848100  0.98417000  0.30004100  1
  Nd  Nd12  1  0.04175600  0.99275400  0.43148300  1
  Nd  Nd13  1  0.95570500  0.49288100  0.06842900  1
  Nd  Nd14  1  0.54429500  0.99288100  0.93157100  1
  Nd  Nd15  1  0.48848100  0.51583000  0.30004100  1
  Ni  Ni0  1  0.49481400  0.99573900  0.64008000  1
  Ni  Ni1  1  0.98861200  0.99565800  0.13996500  1
  Ni  Ni2  1  0.01138800  0.00434200  0.86003500  1
  Ni  Ni3  1  0.00518600  0.49573900  0.35992000  1
  Ni  Ni4  1  0.50000000  0.50000000  0.00000000  1
  Ni  Ni5  1  0.48861200  0.50434200  0.13996500  1
  Ni  Ni6  1  0.51138800  0.49565800  0.86003500  1
  Ni  Ni7  1  0.99481400  0.50426100  0.64008000  1
  Ni  Ni8  1  0.50000000  0.00000000  0.50000000  1
  Ni  Ni9  1  0.50518600  0.00426100  0.35992000  1
  Ni  Ni10  1  0.00000000  0.00000000  0.00000000  1
  Ni  Ni11  1  0.00000000  0.50000000  0.50000000  1
  O  O0  1  0.01125000  0.91727000  0.06834800  1
  O  O1  1  0.01492100  0.93854000  0.78236400  1
  O  O2  1  0.51492100  0.56146000  0.78236400  1
  O  O3  1  0.48507900  0.43854000  0.21763600  1
  O  O4  1  0.50952400  0.93845000  0.28222800  1
  O  O5  1  0.48875000  0.41727000  0.93165200  1
  O  O6  1  0.51125000  0.58273000  0.06834800  1
  O  O7  1  0.26965900  0.73649100  0.36883100  1
  O  O8  1  0.70387700  0.21343100  0.01274500  1
  O  O9  1  0.20387700  0.28656900  0.01274500  1
  O  O10  1  0.75124900  0.24115900  0.84816600  1
  O  O11  1  0.72716200  0.23947000  0.13129600  1
  O  O12  1  0.76965900  0.76350900  0.36883100  1
  O  O13  1  0.98507900  0.06146000  0.21763600  1
  O  O14  1  0.98875000  0.08273000  0.93165200  1
  O  O15  1  0.77283800  0.73947000  0.86870400  1
  O  O16  1  0.00952400  0.56155000  0.28222800  1
  O  O17  1  0.75835300  0.76236100  0.65190100  1
  O  O18  1  0.79271100  0.78785800  0.48732100  1
  O  O19  1  0.23034100  0.23649100  0.63116900  1
  O  O20  1  0.29271100  0.71214200  0.48732100  1
  O  O21  1  0.98504300  0.41740600  0.43155300  1
  O  O22  1  0.25835300  0.73763900  0.65190100  1
  O  O23  1  0.25124900  0.25884100  0.84816600  1
  O  O24  1  0.20728900  0.21214200  0.51267900  1
  O  O25  1  0.70728900  0.28785800  0.51267900  1
  O  O26  1  0.24875100  0.75884100  0.15183400  1
  O  O27  1  0.49047600  0.06155000  0.71777200  1
  O  O28  1  0.27283800  0.76053000  0.86870400  1
  O  O29  1  0.74164700  0.26236100  0.34809900  1
  O  O30  1  0.22716200  0.26053000  0.13129600  1
  O  O31  1  0.24164700  0.23763900  0.34809900  1
  O  O32  1  0.01495700  0.58259400  0.56844700  1
  O  O33  1  0.29612300  0.78656900  0.98725500  1
  O  O34  1  0.99047600  0.43845000  0.71777200  1
  O  O35  1  0.73034100  0.26350900  0.63116900  1
  O  O36  1  0.48504300  0.08259400  0.43155300  1
  O  O37  1  0.51495700  0.91740600  0.56844700  1
  O  O38  1  0.74875100  0.74115900  0.15183400  1
  O  O39  1  0.79612300  0.71343100  0.98725500  1
loop_
_geom_bond_atom_site_label_1
_geom_bond_atom_site_label_2
_geom_bond_distance
_geom_bond_site_symmetry_2
Nd0 O25 2.358033 1_555
Nd0 O37 2.367169 1_555
Nd0 O32 2.464488 1_555
Nd0 O19 2.570113 1_555
Nd0 O24 2.572443 1_555
Nd0 O35 2.598962 1_555
Nd0 O20 2.700939 1_555
Nd1 O20 2.358033 1_555
Nd1 O36 2.367169 1_555
Nd1 O21 2.464488 1_555
Nd1 O12 2.570113 1_555
Nd1 O18 2.572443 1_555
Nd1 O7 2.598962 1_555
Nd1 O25 2.700939 1_555
Nd2 O1 2.321898 1_545
Nd2 O17 2.365132 1_445
Nd2 O34 2.390254 1_455
Nd2 O22 2.445885 1_545
Nd2 O19 2.566725 1_555
Nd2 O27 2.661078 1_555
Nd2 O35 2.789862 1_455
Nd2 O27 2.896442 1_455
Nd3 O24 2.358033 1_655
Nd3 O32 2.367169 1_645
Nd3 O37 2.464488 1_545
Nd3 O35 2.570113 1_555
Nd3 O25 2.572443 1_555
Nd3 O19 2.598962 1_655
Nd3 O18 2.700939 1_545
Nd4 O39 2.356218 1_455
Nd4 O14 2.364907 1_455
Nd4 O5 2.470725 1_555
Nd4 O28 2.567245 1_555
Nd4 O33 2.568539 1_555
Nd4 O15 2.609352 1_455
Nd4 O9 2.692993 1_556
Nd5 O4 2.324212 1_545
Nd5 O26 2.374190 1_545
Nd5 O3 2.388501 1_555
Nd5 O38 2.433838 1_545
Nd5 O11 2.584826 1_555
Nd5 O13 2.685873 1_555
Nd5 O30 2.754729 1_555
Nd5 O13 2.871881 1_455
Nd6 O2 2.321898 1_555
Nd6 O22 2.365132 1_555
Nd6 O27 2.390254 1_555
Nd6 O17 2.445885 1_555
Nd6 O35 2.566725 1_555
Nd6 O34 2.661078 1_555
Nd6 O19 2.789862 1_555
Nd6 O34 2.896442 1_455
Nd7 O27 2.324212 1_565
Nd7 O10 2.374193 1_565
Nd7 O2 2.388501 1_555
Nd7 O23 2.433835 1_565
Nd7 O28 2.584824 1_555
Nd7 O1 2.685868 1_555
Nd7 O15 2.754732 1_555
Nd7 O1 2.871887 1_655
Nd8 O8 2.356218 1_555
Nd8 O6 2.364907 1_545
Nd8 O0 2.470725 1_545
Nd8 O30 2.567245 1_555
Nd8 O9 2.568539 1_555
Nd8 O11 2.609352 1_555
Nd8 O33 2.692993 1_544
Nd9 O16 2.324212 1_555
Nd9 O38 2.374190 1_455
Nd9 O13 2.388501 1_455
Nd9 O26 2.433838 1_555
Nd9 O30 2.584826 1_555
Nd9 O3 2.685873 1_555
Nd9 O11 2.754729 1_455
Nd9 O3 2.871881 1_455
Nd10 O34 2.324212 1_555
Nd10 O23 2.374190 1_655
Nd10 O1 2.388501 1_655
Nd10 O10 2.433838 1_555
Nd10 O15 2.584826 1_555
Nd10 O2 2.685873 1_555
Nd10 O28 2.754729 1_655
Nd10 O2 2.871881 1_655
Nd11 O13 2.321898 1_565
Nd11 O31 2.365132 1_665
Nd11 O16 2.390254 1_655
Nd11 O29 2.445885 1_565
Nd11 O12 2.566725 1_555
Nd11 O4 2.661078 1_555
Nd11 O7 2.789862 1_655
Nd11 O4 2.896442 1_655
Nd12 O18 2.358033 1_455
Nd12 O21 2.367169 1_465
Nd12 O36 2.464488 1_565
Nd12 O7 2.570113 1_555
Nd12 O20 2.572443 1_555
Nd12 O12 2.598962 1_455
Nd12 O24 2.700939 1_565
Nd13 O9 2.356218 1_655
Nd13 O0 2.364907 1_655
Nd13 O6 2.470725 1_555
Nd13 O11 2.567245 1_555
Nd13 O8 2.568539 1_555
Nd13 O30 2.609352 1_655
Nd13 O39 2.692993 1_554
Nd14 O33 2.356218 1_555
Nd14 O5 2.364907 1_565
Nd14 O14 2.470725 1_565
Nd14 O15 2.567245 1_555
Nd14 O39 2.568539 1_555
Nd14 O28 2.609352 1_555
Nd14 O8 2.692993 1_566
Nd15 O3 2.321898 1_555
Nd15 O29 2.365132 1_555
Nd15 O4 2.390254 1_555
Nd15 O31 2.445885 1_555
Nd15 O7 2.566725 1_555
Nd15 O16 2.661078 1_555
Nd15 O12 2.789862 1_555
Nd15 O16 2.896442 1_655
Ni0 O22 1.951787 1_555
Ni0 O17 1.954466 1_555
Ni0 O19 1.974241 1_565
Ni0 O35 1.975625 1_565
Ni0 O37 2.034882 1_555
Ni0 O27 2.182772 1_565
Ni1 O38 1.949913 1_555
Ni1 O26 1.953841 1_655
Ni1 O11 1.973020 1_565
Ni1 O30 1.973596 1_665
Ni1 O0 2.035440 1_655
Ni1 O13 2.182099 1_565
Ni2 O23 1.949913 1_555
Ni2 O10 1.953841 1_455
Ni2 O28 1.973020 1_545
Ni2 O15 1.973596 1_445
Ni2 O14 2.035440 1_455
Ni2 O1 2.182099 1_545
Ni3 O31 1.951787 1_555
Ni3 O29 1.954466 1_455
Ni3 O7 1.974241 1_555
Ni3 O12 1.975625 1_455
Ni3 O21 2.034882 1_455
Ni3 O16 2.182772 1_555
Ni4 O5 1.947790 1_554
Ni4 O6 1.947790 1_555
Ni4 O8 1.963891 1_555
Ni4 O33 1.963891 1_554
Ni4 O9 2.032021 1_555
Ni4 O39 2.032021 1_554
Ni5 O26 1.949913 1_555
Ni5 O38 1.953841 1_555
Ni5 O30 1.973020 1_555
Ni5 O11 1.973596 1_555
Ni5 O6 2.035440 1_555
Ni5 O3 2.182099 1_555
Ni6 O10 1.949913 1_555
Ni6 O23 1.953841 1_555
Ni6 O15 1.973020 1_555
Ni6 O28 1.973596 1_555
Ni6 O5 2.035440 1_555
Ni6 O2 2.182099 1_555
Ni7 O17 1.951787 1_555
Ni7 O22 1.954466 1_655
Ni7 O35 1.974241 1_555
Ni7 O19 1.975625 1_655
Ni7 O32 2.034882 1_655
Ni7 O34 2.182772 1_555
Ni8 O36 1.950798 1_555
Ni8 O37 1.950798 1_545
Ni8 O25 1.979823 1_555
Ni8 O20 1.979823 1_545
Ni8 O24 2.012778 1_555
Ni8 O18 2.012778 1_545
Ni9 O29 1.951787 1_555
Ni9 O31 1.954466 1_555
Ni9 O12 1.974241 1_545
Ni9 O7 1.975625 1_545
Ni9 O36 2.034882 1_555
Ni9 O4 2.182772 1_545
Ni10 O14 1.947790 1_454
Ni10 O0 1.947790 1_545
Ni10 O39 1.963891 1_444
Ni10 O9 1.963891 1_555
Ni10 O8 2.032021 1_455
Ni10 O33 2.032021 1_544
Ni11 O21 1.950798 1_455
Ni11 O32 1.950798 1_555
Ni11 O18 1.979823 1_455
Ni11 O24 1.979823 1_555
Ni11 O20 2.012778 1_555
Ni11 O25 2.012778 1_455
