# generated using pymatgen
data_Sr2MnCu2(SO)2
_symmetry_space_group_name_H-M   'P 1'
_cell_length_a   5.81867550
_cell_length_b   5.81866287
_cell_length_c   9.25203861
_cell_angle_alpha   90.00200348
_cell_angle_beta   71.67606279
_cell_angle_gamma   90.00111477
_symmetry_Int_Tables_number   1
_chemical_formula_structural   Sr2MnCu2(SO)2
_chemical_formula_sum   'Sr4 Mn2 Cu4 S4 O4'
_cell_volume   297.36209212
_cell_formula_units_Z   2
loop_
 _symmetry_equiv_pos_site_id
 _symmetry_equiv_pos_as_xyz
  1  'x, y, z'
loop_
 _atom_site_type_symbol
 _atom_site_label
 _atom_site_symmetry_multiplicity
 _atom_site_fract_x
 _atom_site_fract_y
 _atom_site_fract_z
 _atom_site_occupancy
  Sr  Sr0  1  0.40705100  0.00001900  0.18590100  1
  Sr  Sr1  1  0.90704800  0.50001700  0.18590800  1
  Sr  Sr2  1  0.09295500  0.49999900  0.81408500  1
  Sr  Sr3  1  0.59295300  0.99999900  0.81409200  1
  Mn  Mn0  1  0.49993700  0.50005900  0.00009500  1
  Mn  Mn1  1  0.99996400  0.00005800  0.00007500  1
  Cu  Cu0  1  0.49996700  0.25001000  0.50001500  1
  Cu  Cu1  1  0.99996700  0.75000800  0.50001500  1
  Cu  Cu2  1  0.00002800  0.24999500  0.49997700  1
  Cu  Cu3  1  0.50002800  0.74999400  0.49997700  1
  S  S0  1  0.17462800  0.99998000  0.65081300  1
  S  S1  1  0.67462700  0.49998500  0.65081200  1
  S  S2  1  0.32539900  0.50000000  0.34913300  1
  S  S3  1  0.82539900  0.99999500  0.34913200  1
  O  O0  1  0.25007300  0.74997200  0.99999300  1
  O  O1  1  0.75010300  0.24994400  0.99999200  1
  O  O2  1  0.74995000  0.74999600  0.99999300  1
  O  O3  1  0.24992100  0.24997000  0.99999300  1
loop_
_geom_bond_atom_site_label_1
_geom_bond_atom_site_label_2
_geom_bond_distance
_geom_bond_site_symmetry_2
Mn0 O0 2.056523 1_554
Mn0 O2 2.056775 1_554
Mn0 O3 2.057832 1_554
Mn0 O1 2.058175 1_554
Mn0 S2 3.065568 1_555
Mn0 S1 3.067720 1_554
Mn1 O1 2.056360 1_554
Mn1 O3 2.056483 1_654
Mn1 O2 2.057672 1_544
Mn1 O0 2.057864 1_644
Mn1 S3 3.065735 1_545
Mn1 S0 3.067536 1_644
Cu0 S0 2.446642 1_545
Cu0 S1 2.446702 1_555
Cu0 S2 2.447068 1_555
Cu0 S3 2.447155 1_545
Cu1 S1 2.446618 1_555
Cu1 S0 2.446701 1_655
Cu1 S3 2.447064 1_555
Cu1 S2 2.447128 1_655
Cu2 S2 2.446805 1_555
Cu2 S1 2.446816 1_455
Cu2 S0 2.446967 1_545
Cu2 S3 2.446992 1_445
Cu3 S3 2.446795 1_555
Cu3 S0 2.446802 1_555
Cu3 S1 2.446936 1_555
Cu3 S2 2.446965 1_555
S0 Sr3 3.243303 1_555
S0 Sr2 3.243483 1_555
S0 Sr2 3.243603 1_565
S0 Sr3 3.243849 1_455
S1 Sr2 3.243280 1_655
S1 Sr3 3.243540 1_545
S1 Sr3 3.243608 1_555
S1 Sr2 3.243826 1_555
S2 Sr1 3.243088 1_455
S2 Sr0 3.243250 1_555
S2 Sr0 3.243526 1_565
S2 Sr1 3.243645 1_555
S3 Sr0 3.243112 1_565
S3 Sr1 3.243203 1_555
S3 Sr1 3.243511 1_565
S3 Sr0 3.243668 1_665
O0 Sr0 2.626268 1_566
O0 Sr3 2.626336 1_555
O0 Sr2 2.626481 1_555
O0 Sr1 2.626625 1_456
O1 Sr1 2.626302 1_556
O1 Sr2 2.626359 1_655
O1 Sr3 2.626437 1_545
O1 Sr0 2.626592 1_556
O2 Sr3 2.626225 1_555
O2 Sr0 2.626387 1_566
O2 Sr1 2.626572 1_556
O2 Sr2 2.626645 1_655
O3 Sr2 2.626258 1_555
O3 Sr1 2.626408 1_456
O3 Sr0 2.626535 1_556
O3 Sr3 2.626622 1_545
