# generated using pymatgen
data_RbNb3VCl11
_symmetry_space_group_name_H-M   'P 1'
_cell_length_a   6.89598000
_cell_length_b   13.65287500
_cell_length_c   17.24663200
_cell_angle_alpha   90.00000000
_cell_angle_beta   90.00000000
_cell_angle_gamma   90.00000000
_symmetry_Int_Tables_number   1
_chemical_formula_structural   RbNb3VCl11
_chemical_formula_sum   'Rb4 Nb12 V4 Cl44'
_cell_volume   1623.76959122
_cell_formula_units_Z   4
loop_
 _symmetry_equiv_pos_site_id
 _symmetry_equiv_pos_as_xyz
  1  'x, y, z'
loop_
 _atom_site_type_symbol
 _atom_site_label
 _atom_site_symmetry_multiplicity
 _atom_site_fract_x
 _atom_site_fract_y
 _atom_site_fract_z
 _atom_site_occupancy
  Rb  Rb0  1  0.25000000  0.50684000  0.73870500  1
  Rb  Rb1  1  0.75000000  0.49316000  0.26129500  1
  Rb  Rb2  1  0.75000000  0.99316000  0.23870500  1
  Rb  Rb3  1  0.25000000  0.00684000  0.76129500  1
  Nb  Nb0  1  0.75000000  0.19049100  0.64679500  1
  Nb  Nb1  1  0.04409800  0.25262300  0.01266000  1
  Nb  Nb2  1  0.25000000  0.30950900  0.14679500  1
  Nb  Nb3  1  0.54409800  0.74737700  0.98734000  1
  Nb  Nb4  1  0.95590200  0.74737700  0.98734000  1
  Nb  Nb5  1  0.45590200  0.75262300  0.48734000  1
  Nb  Nb6  1  0.75000000  0.69049100  0.85320500  1
  Nb  Nb7  1  0.04409800  0.75262300  0.48734000  1
  Nb  Nb8  1  0.45590200  0.25262300  0.01266000  1
  Nb  Nb9  1  0.25000000  0.80950900  0.35320500  1
  Nb  Nb10  1  0.95590200  0.24737700  0.51266000  1
  Nb  Nb11  1  0.54409800  0.24737700  0.51266000  1
  V  V0  1  0.75000000  0.68138800  0.66402200  1
  V  V1  1  0.25000000  0.31861200  0.33597800  1
  V  V2  1  0.75000000  0.18138800  0.83597800  1
  V  V3  1  0.25000000  0.81861200  0.16402200  1
  Cl  Cl0  1  0.00207500  0.11060700  0.91889500  1
  Cl  Cl1  1  0.25000000  0.32186500  0.58410800  1
  Cl  Cl2  1  0.75000000  0.15862600  0.41945400  1
  Cl  Cl3  1  0.25000000  0.14307300  0.09037100  1
  Cl  Cl4  1  0.25000000  0.17794000  0.42758400  1
  Cl  Cl5  1  0.99564300  0.08989900  0.58095900  1
  Cl  Cl6  1  0.25000000  0.34137400  0.91945400  1
  Cl  Cl7  1  0.50435700  0.58989900  0.91904100  1
  Cl  Cl8  1  0.75000000  0.35692700  0.59037100  1
  Cl  Cl9  1  0.51085600  0.25413800  0.74702500  1
  Cl  Cl10  1  0.98914400  0.75413800  0.75297500  1
  Cl  Cl11  1  0.75000000  0.32206000  0.92758400  1
  Cl  Cl12  1  0.00207500  0.61060700  0.58110500  1
  Cl  Cl13  1  0.49792500  0.61060700  0.58110500  1
  Cl  Cl14  1  0.48914400  0.24586200  0.24702500  1
  Cl  Cl15  1  0.25000000  0.64307300  0.40962900  1
  Cl  Cl16  1  0.48914400  0.74586200  0.25297500  1
  Cl  Cl17  1  0.25000000  0.84137400  0.58054600  1
  Cl  Cl18  1  0.75000000  0.04302500  0.74622400  1
  Cl  Cl19  1  0.99564300  0.58989900  0.91904100  1
  Cl  Cl20  1  0.01085600  0.74586200  0.25297500  1
  Cl  Cl21  1  0.25000000  0.95697500  0.25377600  1
  Cl  Cl22  1  0.75000000  0.82206000  0.57241600  1
  Cl  Cl23  1  0.01085600  0.24586200  0.24702500  1
  Cl  Cl24  1  0.49792500  0.11060700  0.91889500  1
  Cl  Cl25  1  0.75000000  0.17813500  0.08410800  1
  Cl  Cl26  1  0.75000000  0.67813500  0.41589200  1
  Cl  Cl27  1  0.00435700  0.41010100  0.08095900  1
  Cl  Cl28  1  0.49564300  0.41010100  0.08095900  1
  Cl  Cl29  1  0.50435700  0.08989900  0.58095900  1
  Cl  Cl30  1  0.98914400  0.25413800  0.74702500  1
  Cl  Cl31  1  0.25000000  0.67794000  0.07241600  1
  Cl  Cl32  1  0.25000000  0.82186500  0.91589200  1
  Cl  Cl33  1  0.50207500  0.88939300  0.08110500  1
  Cl  Cl34  1  0.75000000  0.65862600  0.08054600  1
  Cl  Cl35  1  0.49564300  0.91010100  0.41904100  1
  Cl  Cl36  1  0.51085600  0.75413800  0.75297500  1
  Cl  Cl37  1  0.25000000  0.45697500  0.24622400  1
  Cl  Cl38  1  0.99792500  0.38939300  0.41889500  1
  Cl  Cl39  1  0.75000000  0.54302500  0.75377600  1
  Cl  Cl40  1  0.99792500  0.88939300  0.08110500  1
  Cl  Cl41  1  0.50207500  0.38939300  0.41889500  1
  Cl  Cl42  1  0.00435700  0.91010100  0.41904100  1
  Cl  Cl43  1  0.75000000  0.85692700  0.90962900  1
loop_
_geom_bond_atom_site_label_1
_geom_bond_atom_site_label_2
_geom_bond_distance
_geom_bond_site_symmetry_2
Cl0 V2 2.449607 1_455
Cl0 Nb1 2.541363 1_556
Cl0 Rb3 3.509703 1_555
Cl1 Nb10 2.581824 1_455
Cl1 Nb11 2.581824 1_555
Cl1 Rb0 3.672450 1_555
Cl2 Nb10 2.463404 1_555
Cl2 Nb11 2.463404 1_555
Cl2 Rb2 3.849819 1_545
Cl3 Nb8 2.459557 1_555
Cl3 Nb1 2.459557 1_555
Cl3 Nb2 2.471933 1_555
Cl4 V1 2.486903 1_555
Cl4 Nb10 2.676713 1_455
Cl4 Nb11 2.676713 1_555
Cl5 Nb0 2.458629 1_555
Cl5 Nb10 2.466827 1_555
Cl5 Rb3 3.746448 1_655
Cl6 Nb8 2.463404 1_556
Cl6 Nb1 2.463404 1_556
Cl6 Rb0 3.849819 1_555
Cl7 Nb6 2.458629 1_555
Cl7 Nb3 2.466827 1_555
Cl7 Rb0 3.746448 1_555
Cl8 Nb11 2.459557 1_555
Cl8 Nb10 2.459557 1_555
Cl8 Nb0 2.471933 1_555
Cl9 V2 2.461658 1_555
Cl9 Nb0 2.542223 1_555
Cl9 Rb3 3.833543 1_555
Cl9 Rb0 3.893550 1_555
Cl10 V0 2.461658 1_555
Cl10 Nb6 2.542223 1_555
Cl10 Rb0 3.833543 1_655
Cl10 Rb3 3.893550 1_665
Cl11 V2 2.486903 1_555
Cl11 Nb8 2.676713 1_556
Cl11 Nb1 2.676713 1_656
Cl12 V0 2.449607 1_455
Cl12 Nb7 2.541363 1_555
Cl12 Rb0 3.509703 1_555
Cl13 V0 2.449607 1_555
Cl13 Nb5 2.541363 1_555
Cl13 Rb0 3.509703 1_555
Cl14 V1 2.461658 1_555
Cl14 Nb2 2.542223 1_555
Cl14 Rb1 3.833543 1_555
Cl14 Rb2 3.893550 1_545
Cl15 Nb7 2.459557 1_555
Cl15 Nb5 2.459557 1_555
Cl15 Nb9 2.471933 1_555
Cl16 V3 2.461658 1_555
Cl16 Nb9 2.542223 1_555
Cl16 Rb2 3.833543 1_555
Cl16 Rb1 3.893550 1_555
Cl17 Nb7 2.463404 1_555
Cl17 Nb5 2.463404 1_555
Cl17 Rb3 3.849819 1_565
Cl18 V2 2.442270 1_555
Cl18 Nb0 2.644638 1_555
Cl18 Rb3 3.492887 1_555
Cl18 Rb3 3.492887 1_655
Cl19 Nb6 2.458629 1_555
Cl19 Nb4 2.466827 1_555
Cl19 Rb0 3.746448 1_655
Cl20 V3 2.461658 1_555
Cl20 Nb9 2.542223 1_555
Cl20 Rb2 3.833543 1_455
Cl20 Rb1 3.893550 1_455
Cl21 V3 2.442270 1_555
Cl21 Nb9 2.644638 1_555
Cl21 Rb2 3.492887 1_555
Cl21 Rb2 3.492887 1_455
Cl22 V0 2.486903 1_555
Cl22 Nb7 2.676713 1_655
Cl22 Nb5 2.676713 1_555
Cl23 V1 2.461658 1_555
Cl23 Nb2 2.542223 1_555
Cl23 Rb1 3.833543 1_455
Cl23 Rb2 3.893550 1_445
Cl24 V2 2.449607 1_555
Cl24 Nb8 2.541363 1_556
Cl24 Rb3 3.509703 1_555
Cl25 Nb1 2.581824 1_655
Cl25 Nb8 2.581824 1_555
Cl25 Rb2 3.672450 1_545
Cl26 Nb7 2.581824 1_655
Cl26 Nb5 2.581824 1_555
Cl26 Rb1 3.672450 1_555
Cl27 Nb2 2.458629 1_555
Cl27 Nb1 2.466827 1_555
Cl27 Rb1 3.746448 1_455
Cl28 Nb2 2.458629 1_555
Cl28 Nb8 2.466827 1_555
Cl28 Rb1 3.746448 1_555
Cl29 Nb0 2.458629 1_555
Cl29 Nb11 2.466827 1_555
Cl29 Rb3 3.746448 1_555
Cl30 V2 2.461658 1_555
Cl30 Nb0 2.542223 1_555
Cl30 Rb3 3.833543 1_655
Cl30 Rb0 3.893550 1_655
Cl31 V3 2.486903 1_555
Cl31 Nb3 2.676713 1_554
Cl31 Nb4 2.676713 1_454
Cl32 Nb3 2.581824 1_555
Cl32 Nb4 2.581824 1_455
Cl32 Rb3 3.672450 1_565
Cl33 V3 2.449607 1_555
Cl33 Nb3 2.541363 1_554
Cl33 Rb2 3.509703 1_555
Cl34 Nb3 2.463404 1_554
Cl34 Nb4 2.463404 1_554
Cl34 Rb1 3.849819 1_555
Cl35 Nb9 2.458629 1_555
Cl35 Nb5 2.466827 1_555
Cl35 Rb2 3.746448 1_555
Cl36 V0 2.461658 1_555
Cl36 Nb6 2.542223 1_555
Cl36 Rb0 3.833543 1_555
Cl36 Rb3 3.893550 1_565
Cl37 V1 2.442270 1_555
Cl37 Nb2 2.644638 1_555
Cl37 Rb1 3.492887 1_455
Cl37 Rb1 3.492887 1_555
Cl38 V1 2.449607 1_655
Cl38 Nb10 2.541363 1_555
Cl38 Rb1 3.509703 1_555
Cl39 V0 2.442270 1_555
Cl39 Nb6 2.644638 1_555
Cl39 Rb0 3.492887 1_555
Cl39 Rb0 3.492887 1_655
Cl40 V3 2.449607 1_655
Cl40 Nb4 2.541363 1_554
Cl40 Rb2 3.509703 1_555
Cl41 V1 2.449607 1_555
Cl41 Nb11 2.541363 1_555
Cl41 Rb1 3.509703 1_555
Cl42 Nb9 2.458629 1_555
Cl42 Nb7 2.466827 1_555
Cl42 Rb2 3.746448 1_455
Cl43 Nb3 2.459557 1_555
Cl43 Nb4 2.459557 1_555
Cl43 Nb6 2.471933 1_555
