# generated using pymatgen
data_CuH10C2(NO)8
_symmetry_space_group_name_H-M   'P 1'
_cell_length_a   7.80796700
_cell_length_b   7.00678100
_cell_length_c   10.62306238
_cell_angle_alpha   73.36199170
_cell_angle_beta   90.00000000
_cell_angle_gamma   90.00000000
_symmetry_Int_Tables_number   1
_chemical_formula_structural   CuH10C2(NO)8
_chemical_formula_sum   'Cu2 H20 C4 N16 O16'
_cell_volume   556.84198564
_cell_formula_units_Z   2
loop_
 _symmetry_equiv_pos_site_id
 _symmetry_equiv_pos_as_xyz
  1  'x, y, z'
loop_
 _atom_site_type_symbol
 _atom_site_label
 _atom_site_symmetry_multiplicity
 _atom_site_fract_x
 _atom_site_fract_y
 _atom_site_fract_z
 _atom_site_occupancy
  Cu  Cu0  1  0.00000000  0.00000000  0.00000000  1
  Cu  Cu1  1  0.50000000  0.00000000  0.50000000  1
  H  H0  1  0.65830400  0.32994000  0.71825400  1
  H  H1  1  0.23152200  0.45595500  0.48090900  1
  H  H2  1  0.03554500  0.56344400  0.68011800  1
  H  H3  1  0.34169600  0.67006000  0.28174600  1
  H  H4  1  0.53554500  0.43655600  0.81988200  1
  H  H5  1  0.84169600  0.32994000  0.21825400  1
  H  H6  1  0.21191700  0.11042500  0.58698400  1
  H  H7  1  0.73152200  0.54404500  0.01909100  1
  H  H8  1  0.28808300  0.11042500  0.08698400  1
  H  H9  1  0.15830400  0.67006000  0.78174600  1
  H  H10  1  0.26847800  0.45595500  0.98090900  1
  H  H11  1  0.46445500  0.56344400  0.18011800  1
  H  H12  1  0.88342200  0.81936800  0.84235400  1
  H  H13  1  0.61657800  0.81936800  0.34235400  1
  H  H14  1  0.96445500  0.43655600  0.31988200  1
  H  H15  1  0.11657800  0.18063200  0.15764600  1
  H  H16  1  0.76847800  0.54404500  0.51909100  1
  H  H17  1  0.38342200  0.18063200  0.65764600  1
  H  H18  1  0.71191700  0.88957500  0.91301600  1
  H  H19  1  0.78808300  0.88957500  0.41301600  1
  C  C0  1  0.42211700  0.38075000  0.36480200  1
  C  C1  1  0.92211700  0.61925000  0.13519800  1
  C  C2  1  0.07788300  0.38075000  0.86480200  1
  C  C3  1  0.57788300  0.61925000  0.63519800  1
  N  N0  1  0.11431200  0.85428700  0.39276100  1
  N  N1  1  0.82911700  0.64087800  0.02393500  1
  N  N2  1  0.33514500  0.16948600  0.56972800  1
  N  N3  1  0.16485500  0.16948600  0.06972800  1
  N  N4  1  0.83514500  0.83051400  0.93027200  1
  N  N5  1  0.41066400  0.55256300  0.26901700  1
  N  N6  1  0.08933600  0.55256300  0.76901700  1
  N  N7  1  0.17088300  0.35912200  0.97606500  1
  N  N8  1  0.38568800  0.85428700  0.89276100  1
  N  N9  1  0.61431200  0.14571300  0.10723900  1
  N  N10  1  0.32911700  0.35912200  0.47606500  1
  N  N11  1  0.88568800  0.14571300  0.60723900  1
  N  N12  1  0.66485500  0.83051400  0.43027200  1
  N  N13  1  0.58933600  0.44743700  0.73098300  1
  N  N14  1  0.67088300  0.64087800  0.52393500  1
  N  N15  1  0.91066400  0.44743700  0.23098300  1
  O  O0  1  0.77002000  0.11908300  0.14312900  1
  O  O1  1  0.22998000  0.88091700  0.85687100  1
  O  O2  1  0.98892200  0.00105000  0.63674400  1
  O  O3  1  0.01107800  0.99895000  0.36325600  1
  O  O4  1  0.02081200  0.75942500  0.14642500  1
  O  O5  1  0.97918800  0.24057500  0.85357500  1
  O  O6  1  0.43691000  0.68158400  0.95717100  1
  O  O7  1  0.93691000  0.31841600  0.54282900  1
  O  O8  1  0.27002000  0.88091700  0.35687100  1
  O  O9  1  0.56309000  0.31841600  0.04282900  1
  O  O10  1  0.72998000  0.11908300  0.64312900  1
  O  O11  1  0.48892200  0.99895000  0.86325600  1
  O  O12  1  0.51107800  0.00105000  0.13674400  1
  O  O13  1  0.47918800  0.75942500  0.64642500  1
  O  O14  1  0.06309000  0.68158400  0.45717100  1
  O  O15  1  0.52081200  0.24057500  0.35357500  1
loop_
_geom_bond_atom_site_label_1
_geom_bond_atom_site_label_2
_geom_bond_distance
_geom_bond_site_symmetry_2
Cu0 O5 1.945734 1_454
Cu0 O4 1.945734 1_545
Cu0 N3 2.029660 1_555
Cu0 N4 2.029660 1_444
Cu1 O13 1.945734 1_545
Cu1 O15 1.945734 1_555
Cu1 N12 2.029660 1_545
Cu1 N2 2.029660 1_555
H0 N13 1.024597 1_555
H1 N10 1.031338 1_555
H2 N6 1.016284 1_555
H3 N5 1.024597 1_555
H4 N13 1.016284 1_555
H5 N15 1.024597 1_555
H6 N2 1.042673 1_555
H7 N1 1.031338 1_555
H8 N3 1.042673 1_555
H9 N6 1.024597 1_555
H10 N7 1.031338 1_555
H11 N5 1.016284 1_555
H12 N4 1.030647 1_555
H13 N12 1.030647 1_555
H14 N15 1.016284 1_555
H15 N3 1.030647 1_555
H16 N14 1.031338 1_555
H17 N2 1.030647 1_555
H18 N4 1.042673 1_555
H19 N12 1.042673 1_555
C0 O15 1.280550 1_555
C0 N5 1.338343 1_555
C0 N10 1.358194 1_555
C1 O4 1.280550 1_655
C1 N15 1.338343 1_555
C1 N1 1.358194 1_555
C2 O5 1.280550 1_455
C2 N6 1.338343 1_555
C2 N7 1.358194 1_555
C3 O13 1.280550 1_555
C3 N13 1.338343 1_555
C3 N14 1.358194 1_555
N0 O3 1.262320 1_555
N0 O8 1.271817 1_555
N0 O14 1.272126 1_555
N1 N4 1.414452 1_554
N3 N7 1.414452 1_554
N8 O11 1.262320 1_555
N8 O1 1.271817 1_555
N8 O6 1.272126 1_555
N9 O12 1.262320 1_555
N9 O0 1.271817 1_555
N9 O9 1.272126 1_555
N10 N2 1.414452 1_555
N11 O2 1.262320 1_555
N11 O10 1.271817 1_555
N11 O7 1.272126 1_555
N12 N14 1.414452 1_555
