# generated using pymatgen
data_CdI2
_symmetry_space_group_name_H-M   'P 1'
_cell_length_a   4.28777326
_cell_length_b   4.28777247
_cell_length_c   71.65407091
_cell_angle_alpha   90.00000000
_cell_angle_beta   90.00000000
_cell_angle_gamma   119.99999810
_symmetry_Int_Tables_number   1
_chemical_formula_structural   CdI2
_chemical_formula_sum   'Cd10 I20'
_cell_volume   1140.86708925
_cell_formula_units_Z   10
loop_
 _symmetry_equiv_pos_site_id
 _symmetry_equiv_pos_as_xyz
  1  'x, y, z'
loop_
 _atom_site_type_symbol
 _atom_site_label
 _atom_site_symmetry_multiplicity
 _atom_site_fract_x
 _atom_site_fract_y
 _atom_site_fract_z
 _atom_site_occupancy
  Cd  Cd0  1  0.66666700  0.33333300  0.22463374  1
  Cd  Cd1  1  -0.00000000  0.00000000  0.72531069  1
  Cd  Cd2  1  -0.00000000  0.00000000  0.92531684  1
  Cd  Cd3  1  0.66666700  0.33333300  0.62516325  1
  Cd  Cd4  1  -0.00000000  0.00000000  0.32464788  1
  Cd  Cd5  1  -0.00000000  0.00000000  0.52465192  1
  Cd  Cd6  1  0.66666700  0.33333300  0.42464289  1
  Cd  Cd7  1  -0.00000000  0.00000000  0.12504987  1
  Cd  Cd8  1  -0.00000000  0.00000000  0.82541507  1
  Cd  Cd9  1  0.66666700  0.33333300  0.02530850  1
  I  I0  1  -0.00000000  -0.00000000  0.20060844  1
  I  I1  1  0.33333300  0.66666700  0.44864176  1
  I  I2  1  0.33333300  0.66666700  0.34865039  1
  I  I3  1  0.66666700  0.33333300  0.80138309  1
  I  I4  1  0.66666700  0.33333300  0.90135592  1
  I  I5  1  0.33333300  0.66666700  0.94924369  1
  I  I6  1  0.00000000  -0.00000000  0.60105330  1
  I  I7  1  0.66666700  0.33333300  0.70135407  1
  I  I8  1  -0.00000000  0.00000000  0.40060937  1
  I  I9  1  0.66666700  0.33333300  0.10103380  1
  I  I10  1  0.33333300  0.66666700  0.04922786  1
  I  I11  1  0.66666700  0.33333300  0.30060749  1
  I  I12  1  -0.00000000  0.00000000  0.00135572  1
  I  I13  1  0.33333300  0.66666700  0.54865012  1
  I  I14  1  0.33333300  0.66666700  0.14898814  1
  I  I15  1  0.33333300  0.66666700  0.24863022  1
  I  I16  1  0.66666700  0.33333300  0.50060842  1
  I  I17  1  0.33333300  0.66666700  0.84943736  1
  I  I18  1  0.33333300  0.66666700  0.64919374  1
  I  I19  1  0.33333300  0.66666700  0.74922747  1
loop_
_geom_bond_atom_site_label_1
_geom_bond_atom_site_label_2
_geom_bond_distance
_geom_bond_site_symmetry_2
Cd0 I15 3.014102 1_545
Cd0 I15 3.014103 1_655
Cd0 I15 3.014108 1_555
Cd0 I0 3.015281 1_655
Cd0 I0 3.015284 1_665
Cd0 I0 3.015284 1_555
Cd1 I19 3.010848 1_545
Cd1 I19 3.010851 1_555
Cd1 I19 3.010851 1_445
Cd1 I7 3.012474 1_455
Cd1 I7 3.012477 1_445
Cd1 I7 3.012477 1_555
Cd2 I5 3.011259 1_545
Cd2 I5 3.011262 1_555
Cd2 I5 3.011262 1_445
Cd2 I4 3.012649 1_455
Cd2 I4 3.012652 1_445
Cd2 I4 3.012653 1_555
Cd3 I18 3.015493 1_545
Cd3 I18 3.015493 1_655
Cd3 I18 3.015499 1_555
Cd3 I6 3.018748 1_655
Cd3 I6 3.018751 1_665
Cd3 I6 3.018751 1_555
Cd4 I2 3.014349 1_545
Cd4 I2 3.014352 1_555
Cd4 I2 3.014352 1_445
Cd4 I11 3.015898 1_455
Cd4 I11 3.015901 1_445
Cd4 I11 3.015902 1_555
Cd5 I13 3.014173 1_545
Cd5 I13 3.014175 1_555
Cd5 I13 3.014176 1_445
Cd5 I16 3.016026 1_455
Cd5 I16 3.016028 1_445
Cd5 I16 3.016029 1_555
Cd6 I1 3.014200 1_545
Cd6 I1 3.014200 1_655
Cd6 I1 3.014206 1_555
Cd6 I8 3.015617 1_655
Cd6 I8 3.015620 1_665
Cd6 I8 3.015620 1_555
Cd7 I14 3.011725 1_545
Cd7 I14 3.011728 1_555
Cd7 I14 3.011728 1_445
Cd7 I9 3.014903 1_455
Cd7 I9 3.014906 1_445
Cd7 I9 3.014907 1_555
Cd8 I17 3.015158 1_545
Cd8 I17 3.015161 1_555
Cd8 I17 3.015161 1_445
Cd8 I3 3.015554 1_455
Cd8 I3 3.015557 1_445
Cd8 I3 3.015557 1_555
Cd9 I10 3.010953 1_545
Cd9 I10 3.010954 1_655
Cd9 I10 3.010959 1_555
Cd9 I12 3.012317 1_655
Cd9 I12 3.012320 1_665
Cd9 I12 3.012320 1_555
