# generated using pymatgen
data_Cu3B4Pb2O11
_symmetry_space_group_name_H-M   'P 1'
_cell_length_a   4.78361300
_cell_length_b   6.87475200
_cell_length_c   15.67709515
_cell_angle_alpha   70.79668613
_cell_angle_beta   90.00000000
_cell_angle_gamma   90.00000000
_symmetry_Int_Tables_number   1
_chemical_formula_structural   Cu3B4Pb2O11
_chemical_formula_sum   'Cu6 B8 Pb4 O22'
_cell_volume   486.87226079
_cell_formula_units_Z   2
loop_
 _symmetry_equiv_pos_site_id
 _symmetry_equiv_pos_as_xyz
  1  'x, y, z'
loop_
 _atom_site_type_symbol
 _atom_site_label
 _atom_site_symmetry_multiplicity
 _atom_site_fract_x
 _atom_site_fract_y
 _atom_site_fract_z
 _atom_site_occupancy
  Cu  Cu0  1  0.47852200  0.21118600  0.94153500  1
  Cu  Cu1  1  0.52147800  0.78881400  0.05846500  1
  Cu  Cu2  1  0.47852200  0.78881400  0.55846500  1
  Cu  Cu3  1  0.00000000  0.50000000  0.00000000  1
  Cu  Cu4  1  0.00000000  0.50000000  0.50000000  1
  Cu  Cu5  1  0.52147800  0.21118600  0.44153500  1
  B  B0  1  0.05459300  0.03588000  0.09667400  1
  B  B1  1  0.01143000  0.36101300  0.33922100  1
  B  B2  1  0.05459300  0.96412000  0.40332600  1
  B  B3  1  0.98857000  0.36101300  0.83922100  1
  B  B4  1  0.98857000  0.63898700  0.66077900  1
  B  B5  1  0.01143000  0.63898700  0.16077900  1
  B  B6  1  0.94540700  0.96412000  0.90332600  1
  B  B7  1  0.94540700  0.03588000  0.59667400  1
  Pb  Pb0  1  0.57889600  0.29158100  0.19197600  1
  Pb  Pb1  1  0.57889600  0.70841900  0.30802400  1
  Pb  Pb2  1  0.42110400  0.29158100  0.69197600  1
  Pb  Pb3  1  0.42110400  0.70841900  0.80802400  1
  O  O0  1  0.69894400  0.59909400  0.65081300  1
  O  O1  1  0.06735600  0.22133500  0.58975600  1
  O  O2  1  0.17487100  0.58924000  0.59232400  1
  O  O3  1  0.82512900  0.41076000  0.40767600  1
  O  O4  1  0.29039800  0.02661400  0.04772200  1
  O  O5  1  0.05177400  0.14578800  0.84118400  1
  O  O6  1  0.06735600  0.77866500  0.91024400  1
  O  O7  1  0.29039800  0.97338600  0.45227800  1
  O  O8  1  0.70960200  0.02661400  0.54772200  1
  O  O9  1  0.11004700  0.50000000  0.75000000  1
  O  O10  1  0.70960200  0.97338600  0.95227800  1
  O  O11  1  0.94822600  0.85421200  0.15881600  1
  O  O12  1  0.82512900  0.58924000  0.09232400  1
  O  O13  1  0.93264400  0.22133500  0.08975600  1
  O  O14  1  0.30105600  0.59909400  0.15081300  1
  O  O15  1  0.05177400  0.85421200  0.65881600  1
  O  O16  1  0.93264400  0.77866500  0.41024400  1
  O  O17  1  0.94822600  0.14578800  0.34118400  1
  O  O18  1  0.88995300  0.50000000  0.25000000  1
  O  O19  1  0.17487100  0.41076000  0.90767600  1
  O  O20  1  0.69894400  0.40090600  0.84918700  1
  O  O21  1  0.30105600  0.40090600  0.34918700  1
loop_
_geom_bond_atom_site_label_1
_geom_bond_atom_site_label_2
_geom_bond_distance
_geom_bond_site_symmetry_2
Cu0 O20 1.914869 1_555
Cu0 O10 1.934364 1_545
Cu0 O19 1.948077 1_555
Cu0 O4 1.949764 1_556
Cu1 O14 1.914869 1_555
Cu1 O4 1.934364 1_565
Cu1 O12 1.948077 1_555
Cu1 O10 1.949764 1_554
Cu2 O0 1.914869 1_555
Cu2 O8 1.934364 1_565
Cu2 O2 1.948077 1_555
Cu2 O7 1.949764 1_555
Cu3 O12 1.937827 1_455
Cu3 O19 1.937827 1_554
Cu3 O6 1.995134 1_554
Cu3 O13 1.995134 1_455
Cu4 O2 1.937827 1_555
Cu4 O3 1.937827 1_455
Cu4 O16 1.995134 1_455
Cu4 O1 1.995134 1_555
Cu5 O21 1.914869 1_555
Cu5 O7 1.934364 1_545
Cu5 O3 1.948077 1_555
Cu5 O8 1.949764 1_555
B0 O13 1.373543 1_455
B0 O4 1.377513 1_555
B0 O11 1.402633 1_445
B1 O21 1.430842 1_555
B1 O17 1.500558 1_455
B1 O3 1.518004 1_455
B1 O18 1.525745 1_455
B2 O16 1.373543 1_455
B2 O7 1.377513 1_555
B2 O17 1.402633 1_465
B3 O20 1.430842 1_555
B3 O5 1.500558 1_655
B3 O19 1.518004 1_655
B3 O9 1.525745 1_655
B4 O0 1.430842 1_555
B4 O15 1.500558 1_655
B4 O2 1.518004 1_655
B4 O9 1.525745 1_655
B5 O14 1.430842 1_555
B5 O11 1.500558 1_455
B5 O12 1.518004 1_455
B5 O18 1.525745 1_455
B6 O6 1.373543 1_655
B6 O10 1.377513 1_555
B6 O5 1.402633 1_665
B7 O1 1.373543 1_655
B7 O8 1.377513 1_555
B7 O15 1.402633 1_645
O0 Pb2 2.398904 1_555
O1 Pb2 2.484729 1_555
O2 Pb2 2.431557 1_555
O3 Pb1 2.431557 1_555
O6 Pb3 2.484729 1_555
O9 Pb3 2.439660 1_555
O9 Pb2 2.439660 1_555
O12 Pb0 2.431557 1_555
O13 Pb0 2.484729 1_555
O14 Pb0 2.398904 1_555
O16 Pb1 2.484729 1_555
O18 Pb1 2.439660 1_555
O18 Pb0 2.439660 1_555
O19 Pb3 2.431557 1_555
O20 Pb3 2.398904 1_555
O21 Pb1 2.398904 1_555
