# generated using pymatgen
data_Zr2P2O9
_symmetry_space_group_name_H-M   'P 1'
_cell_length_a   7.63412318
_cell_length_b   7.63412318
_cell_length_c   10.11908817
_cell_angle_alpha   53.27006141
_cell_angle_beta   53.27006141
_cell_angle_gamma   51.39183625
_symmetry_Int_Tables_number   1
_chemical_formula_structural   Zr2P2O9
_chemical_formula_sum   'Zr4 P4 O18'
_cell_volume   344.71785817
_cell_formula_units_Z   2
loop_
 _symmetry_equiv_pos_site_id
 _symmetry_equiv_pos_as_xyz
  1  'x, y, z'
loop_
 _atom_site_type_symbol
 _atom_site_label
 _atom_site_symmetry_multiplicity
 _atom_site_fract_x
 _atom_site_fract_y
 _atom_site_fract_z
 _atom_site_occupancy
  Zr  Zr0  1  0.05722552  0.05722552  0.09785032  1
  Zr  Zr1  1  0.94277448  0.94277448  0.90214968  1
  Zr  Zr2  1  0.68406916  0.68406916  0.36479637  1
  Zr  Zr3  1  0.31593084  0.31593084  0.63520363  1
  P  P0  1  0.59261947  0.59261947  0.16451749  1
  P  P1  1  0.82968639  0.82968639  0.54299853  1
  P  P2  1  0.40738053  0.40738053  0.83548251  1
  P  P3  1  0.17031361  0.17031361  0.45700147  1
  O  O0  1  0.62601109  0.00398879  0.64136540  1
  O  O1  1  0.61830518  0.24198256  0.89529420  1
  O  O2  1  0.48428998  0.48428998  0.63410764  1
  O  O3  1  0.38169482  0.75801744  0.10470580  1
  O  O4  1  0.00398879  0.62601109  0.64136540  1
  O  O5  1  0.37398891  0.99601121  0.35863460  1
  O  O6  1  0.73244440  0.73244440  0.09693748  1
  O  O7  1  0.26755560  0.26755560  0.90306252  1
  O  O8  1  0.51571002  0.51571002  0.36589236  1
  O  O9  1  0.27279218  0.27279218  0.47485238  1
  O  O10  1  0.96549165  0.96549165  0.35827633  1
  O  O11  1  0.03450835  0.03450835  0.64172367  1
  O  O12  1  0.11401100  0.11401100  0.84359854  1
  O  O13  1  0.99601121  0.37398891  0.35863460  1
  O  O14  1  0.75801744  0.38169482  0.10470580  1
  O  O15  1  0.72720782  0.72720782  0.52514762  1
  O  O16  1  0.24198256  0.61830518  0.89529420  1
  O  O17  1  0.88598900  0.88598900  0.15640146  1
loop_
_geom_bond_atom_site_label_1
_geom_bond_atom_site_label_2
_geom_bond_distance
_geom_bond_site_symmetry_2
O0 P1 1.526442 1_545
O0 Zr3 2.059693 1_555
O1 P2 1.505889 1_555
O1 Zr1 2.076763 1_545
O2 P2 1.552404 1_555
O2 Zr2 2.244778 1_555
O2 Zr3 2.308996 1_555
O3 P0 1.505889 1_555
O3 Zr0 2.076763 1_565
O4 P1 1.526442 1_455
O4 Zr3 2.059693 1_555
O5 P3 1.526442 1_565
O5 Zr2 2.059693 1_555
O6 P0 1.556369 1_555
O6 Zr1 2.165204 1_554
O6 Zr2 2.322751 1_555
O7 P2 1.556369 1_555
O7 Zr0 2.165204 1_556
O7 Zr3 2.322751 1_555
O8 P0 1.552404 1_555
O8 Zr3 2.244778 1_555
O8 Zr2 2.308996 1_555
O9 P3 1.535773 1_555
O9 Zr3 2.064805 1_555
O10 P1 1.532729 1_555
O10 Zr0 2.030471 1_665
O11 P3 1.532729 1_555
O11 Zr1 2.030471 1_445
O12 Zr1 2.012127 1_445
O12 Zr3 2.094891 1_555
O12 Zr0 2.135793 1_556
O13 P3 1.526442 1_655
O13 Zr2 2.059693 1_555
O14 P0 1.505889 1_555
O14 Zr0 2.076763 1_655
O15 P1 1.535773 1_555
O15 Zr2 2.064805 1_555
O16 P2 1.505889 1_555
O16 Zr1 2.076763 1_455
O17 Zr0 2.012127 1_665
O17 Zr2 2.094891 1_555
O17 Zr1 2.135793 1_554
