# generated using pymatgen
data_TmPO4
_symmetry_space_group_name_H-M   'P 1'
_cell_length_a   5.64689556
_cell_length_b   5.64689609
_cell_length_c   5.64689532
_cell_angle_alpha   106.11681026
_cell_angle_beta   106.11680569
_cell_angle_gamma   116.41100018
_symmetry_Int_Tables_number   1
_chemical_formula_structural   TmPO4
_chemical_formula_sum   'Tm2 P2 O8'
_cell_volume   137.07115451
_cell_formula_units_Z   2
loop_
 _symmetry_equiv_pos_site_id
 _symmetry_equiv_pos_as_xyz
  1  'x, y, z'
loop_
 _atom_site_type_symbol
 _atom_site_label
 _atom_site_symmetry_multiplicity
 _atom_site_fract_x
 _atom_site_fract_y
 _atom_site_fract_z
 _atom_site_occupancy
  Tm  Tm0  1  0.12500000  0.87500000  0.25000000  1
  Tm  Tm1  1  0.87500000  0.12500000  0.75000000  1
  P  P0  1  0.37500000  0.62500000  0.75000000  1
  P  P1  1  0.62500000  0.37500000  0.25000000  1
  O  O0  1  0.78665416  0.36012666  0.07347249  1
  O  O1  1  0.71318067  0.78665416  0.92652651  1
  O  O2  1  0.36012666  0.78665416  0.57347349  1
  O  O3  1  0.78665416  0.71318067  0.42652751  1
  O  O4  1  0.28681933  0.21334584  0.07347249  1
  O  O5  1  0.21334584  0.63987334  0.92652651  1
  O  O6  1  0.21334584  0.28681933  0.57347349  1
  O  O7  1  0.63987334  0.21334584  0.42652751  1
loop_
_geom_bond_atom_site_label_1
_geom_bond_atom_site_label_2
_geom_bond_distance
_geom_bond_site_symmetry_2
O0 P1 1.536534 1_555
O0 Tm1 2.257651 1_554
O0 Tm0 2.342867 1_655
O1 P0 1.536528 1_555
O1 Tm0 2.257657 1_656
O1 Tm1 2.342864 1_565
O2 P0 1.536529 1_555
O2 Tm0 2.257655 1_555
O2 Tm1 2.342868 1_565
O3 P1 1.536529 1_555
O3 Tm1 2.257655 1_565
O3 Tm0 2.342868 1_655
O4 P1 1.536529 1_555
O4 Tm1 2.257655 1_454
O4 Tm0 2.342868 1_545
O5 P0 1.536529 1_555
O5 Tm0 2.257655 1_556
O5 Tm1 2.342868 1_455
O6 P0 1.536528 1_555
O6 Tm0 2.257657 1_545
O6 Tm1 2.342864 1_455
O7 P1 1.536534 1_555
O7 Tm1 2.257651 1_555
O7 Tm0 2.342867 1_545
