# generated using pymatgen
data_TmBi2ClO4
_symmetry_space_group_name_H-M   'P 1'
_cell_length_a   3.87136900
_cell_length_b   3.87136900
_cell_length_c   9.00831000
_cell_angle_alpha   90.00000000
_cell_angle_beta   90.00000000
_cell_angle_gamma   90.00000000
_symmetry_Int_Tables_number   1
_chemical_formula_structural   TmBi2ClO4
_chemical_formula_sum   'Tm1 Bi2 Cl1 O4'
_cell_volume   135.01202752
_cell_formula_units_Z   1
loop_
 _symmetry_equiv_pos_site_id
 _symmetry_equiv_pos_as_xyz
  1  'x, y, z'
loop_
 _atom_site_type_symbol
 _atom_site_label
 _atom_site_symmetry_multiplicity
 _atom_site_fract_x
 _atom_site_fract_y
 _atom_site_fract_z
 _atom_site_occupancy
  Tm  Tm0  1  0.00000000  0.00000000  0.00000000  1
  Bi  Bi0  1  0.50000000  0.50000000  0.72303300  1
  Bi  Bi1  1  0.50000000  0.50000000  0.27696700  1
  Cl  Cl0  1  0.00000000  0.00000000  0.50000000  1
  O  O0  1  0.00000000  0.50000000  0.15039400  1
  O  O1  1  0.50000000  0.00000000  0.15039400  1
  O  O2  1  0.00000000  0.50000000  0.84960600  1
  O  O3  1  0.50000000  0.00000000  0.84960600  1
loop_
_geom_bond_atom_site_label_1
_geom_bond_atom_site_label_2
_geom_bond_distance
_geom_bond_site_symmetry_2
Bi0 O2 2.246542 1_555
Bi0 O2 2.246542 1_655
Bi0 O3 2.246542 1_565
Bi0 O3 2.246542 1_555
Bi1 O0 2.246542 1_555
Bi1 O1 2.246542 1_555
Bi1 O1 2.246542 1_565
Bi1 O0 2.246542 1_655
O0 Tm0 2.362699 1_565
O0 Tm0 2.362699 1_555
O1 Tm0 2.362699 1_555
O1 Tm0 2.362699 1_655
O2 Tm0 2.362699 1_556
O2 Tm0 2.362699 1_566
O3 Tm0 2.362699 1_656
O3 Tm0 2.362699 1_556
