# generated using pymatgen
data_K2CuH12(SeO7)2
_symmetry_space_group_name_H-M   'P 1'
_cell_length_a   12.39953300
_cell_length_b   6.44849300
_cell_length_c   9.21338999
_cell_angle_alpha   77.39835442
_cell_angle_beta   90.00000000
_cell_angle_gamma   90.00000000
_symmetry_Int_Tables_number   1
_chemical_formula_structural   K2CuH12(SeO7)2
_chemical_formula_sum   'K4 Cu2 H24 Se4 O28'
_cell_volume   718.94059255
_cell_formula_units_Z   2
loop_
 _symmetry_equiv_pos_site_id
 _symmetry_equiv_pos_as_xyz
  1  'x, y, z'
loop_
 _atom_site_type_symbol
 _atom_site_label
 _atom_site_symmetry_multiplicity
 _atom_site_fract_x
 _atom_site_fract_y
 _atom_site_fract_z
 _atom_site_occupancy
  K  K0  1  0.83712400  0.34526800  0.35545200  1
  K  K1  1  0.66287600  0.34526800  0.85545200  1
  K  K2  1  0.33712400  0.65473200  0.14454800  1
  K  K3  1  0.16287600  0.65473200  0.64454800  1
  Cu  Cu0  1  0.00000000  0.00000000  0.00000000  1
  Cu  Cu1  1  0.50000000  0.00000000  0.50000000  1
  H  H0  1  0.86423700  0.68611900  0.02226700  1
  H  H1  1  0.09713200  0.07780900  0.74127600  1
  H  H2  1  0.44392600  0.30598600  0.61569600  1
  H  H3  1  0.18526900  0.99488000  0.86835500  1
  H  H4  1  0.81473100  0.00512000  0.13164500  1
  H  H5  1  0.63155500  0.11720000  0.23508200  1
  H  H6  1  0.59084300  0.32903500  0.27770700  1
  H  H7  1  0.36844500  0.88280000  0.76491800  1
  H  H8  1  0.63576300  0.68611900  0.52226700  1
  H  H9  1  0.68526900  0.00512000  0.63164500  1
  H  H10  1  0.90286800  0.92219100  0.25872400  1
  H  H11  1  0.31473100  0.99488000  0.36835500  1
  H  H12  1  0.40286800  0.07780900  0.24127600  1
  H  H13  1  0.90915700  0.32903500  0.77770700  1
  H  H14  1  0.59713200  0.92219100  0.75872400  1
  H  H15  1  0.05607400  0.30598600  0.11569600  1
  H  H16  1  0.55607400  0.69401400  0.38430400  1
  H  H17  1  0.09084300  0.67096500  0.22229300  1
  H  H18  1  0.36423700  0.31388100  0.47773300  1
  H  H19  1  0.13576300  0.31388100  0.97773300  1
  H  H20  1  0.86844500  0.11720000  0.73508200  1
  H  H21  1  0.94392600  0.69401400  0.88430400  1
  H  H22  1  0.13155500  0.88280000  0.26491800  1
  H  H23  1  0.40915700  0.67096500  0.72229300  1
  Se  Se0  1  0.86052500  0.73747500  0.57776100  1
  Se  Se1  1  0.36052500  0.26252500  0.92223900  1
  Se  Se2  1  0.13947500  0.26252500  0.42223900  1
  Se  Se3  1  0.63947500  0.73747500  0.07776100  1
  O  O0  1  0.43991200  0.27648200  0.51347500  1
  O  O1  1  0.62440400  0.18981200  0.31870500  1
  O  O2  1  0.74754700  0.57856000  0.08319000  1
  O  O3  1  0.25245300  0.42144000  0.91681000  1
  O  O4  1  0.57378300  0.75010200  0.91787100  1
  O  O5  1  0.60982200  0.02977700  0.66316800  1
  O  O6  1  0.10982200  0.97022300  0.83683200  1
  O  O7  1  0.81967600  0.98071500  0.59398300  1
  O  O8  1  0.42621700  0.24989800  0.08212900  1
  O  O9  1  0.94298000  0.62817800  0.71830700  1
  O  O10  1  0.44298000  0.37182200  0.78169300  1
  O  O11  1  0.87559600  0.18981200  0.81870500  1
  O  O12  1  0.12440400  0.81018800  0.18129500  1
  O  O13  1  0.07378300  0.24989800  0.58212900  1
  O  O14  1  0.89017800  0.02977700  0.16316800  1
  O  O15  1  0.24754700  0.42144000  0.41681000  1
  O  O16  1  0.37559600  0.81018800  0.68129500  1
  O  O17  1  0.68032400  0.98071500  0.09398300  1
  O  O18  1  0.18032400  0.01928500  0.40601700  1
  O  O19  1  0.55702000  0.62817800  0.21830700  1
  O  O20  1  0.75245300  0.57856000  0.58319000  1
  O  O21  1  0.92621700  0.75010200  0.41787100  1
  O  O22  1  0.56008800  0.72351800  0.48652500  1
  O  O23  1  0.06008800  0.27648200  0.01347500  1
  O  O24  1  0.31967600  0.01928500  0.90601700  1
  O  O25  1  0.05702000  0.37182200  0.28169300  1
  O  O26  1  0.93991200  0.72351800  0.98652500  1
  O  O27  1  0.39017800  0.97022300  0.33683200  1
loop_
_geom_bond_atom_site_label_1
_geom_bond_atom_site_label_2
_geom_bond_distance
_geom_bond_site_symmetry_2
K0 O25 2.806199 1_655
K0 O2 2.853521 1_555
K0 O7 2.854584 1_545
K0 O1 2.867878 1_555
K0 O21 3.003544 1_555
K0 O20 3.024130 1_555
K0 O14 3.046785 1_555
K1 O10 2.806199 1_555
K1 O20 2.853521 1_555
K1 O17 2.854584 1_546
K1 O11 2.867878 1_555
K1 O4 3.003544 1_555
K1 O2 3.024130 1_556
K1 O5 3.046785 1_555
K2 O19 2.806199 1_555
K2 O15 2.853521 1_555
K2 O24 2.854584 1_564
K2 O12 2.867878 1_555
K2 O8 3.003544 1_555
K2 O3 3.024130 1_554
K2 O27 3.046785 1_555
K3 O9 2.806199 1_455
K3 O3 2.853521 1_555
K3 O18 2.854584 1_565
K3 O16 2.867878 1_555
K3 O13 3.003544 1_555
K3 O15 3.024130 1_555
K3 O6 3.046785 1_555
Cu0 O23 1.961076 1_555
Cu0 O26 1.961076 1_444
Cu0 O6 2.068132 1_544
Cu0 O14 2.068132 1_455
Cu0 O12 2.403244 1_545
Cu0 O11 2.403244 1_454
Cu1 O22 1.961076 1_545
Cu1 O0 1.961076 1_555
Cu1 O5 2.068132 1_555
Cu1 O27 2.068132 1_545
Cu1 O16 2.403244 1_545
Cu1 O1 2.403244 1_555
H0 O26 1.006192 1_554
H0 O2 1.649177 1_555
H1 O6 1.007300 1_545
H1 O13 1.659902 1_555
H2 O0 1.001924 1_555
H2 O10 1.674138 1_555
H3 O6 1.002476 1_555
H4 O14 1.002476 1_555
H5 O1 0.988998 1_555
H6 O1 0.986858 1_555
H7 O16 0.988998 1_555
H8 O22 1.006192 1_555
H8 O20 1.649177 1_555
H9 O5 1.002476 1_555
H10 O14 1.007300 1_565
H10 O21 1.659902 1_555
H11 O27 1.002476 1_555
H12 O27 1.007300 1_545
H12 O8 1.659902 1_555
H13 O11 0.986858 1_555
H14 O5 1.007300 1_565
H14 O4 1.659902 1_555
H15 O23 1.001924 1_555
H15 O25 1.674138 1_555
H16 O22 1.001924 1_555
H16 O19 1.674138 1_555
H17 O12 0.986858 1_555
H18 O0 1.006192 1_555
H18 O15 1.649177 1_555
H19 O23 1.006192 1_556
H19 O3 1.649177 1_555
H20 O11 0.988998 1_555
H21 O26 1.001924 1_555
H21 O9 1.674138 1_555
H22 O12 0.988998 1_555
H23 O16 0.986858 1_555
O2 Se3 1.681067 1_555
O3 Se1 1.681067 1_555
O4 Se3 1.669698 1_556
O7 Se0 1.685667 1_555
O8 Se1 1.669698 1_554
O9 Se0 1.679465 1_555
O10 Se1 1.679465 1_555
O13 Se2 1.669698 1_555
O15 Se2 1.681067 1_555
O17 Se3 1.685667 1_555
O18 Se2 1.685667 1_555
O19 Se3 1.679465 1_555
O20 Se0 1.681067 1_555
O21 Se0 1.669698 1_555
O24 Se1 1.685667 1_555
O25 Se2 1.679465 1_555
