# generated using pymatgen
data_Sr2NF
_symmetry_space_group_name_H-M   'P 1'
_cell_length_a   13.12329365
_cell_length_b   13.12329365
_cell_length_c   7.54369037
_cell_angle_alpha   90.00000000
_cell_angle_beta   90.00000000
_cell_angle_gamma   109.01839036
_symmetry_Int_Tables_number   1
_chemical_formula_structural   Sr2NF
_chemical_formula_sum   'Sr32 N16 F16'
_cell_volume   1228.26362560
_cell_formula_units_Z   16
loop_
 _symmetry_equiv_pos_site_id
 _symmetry_equiv_pos_as_xyz
  1  'x, y, z'
loop_
 _atom_site_type_symbol
 _atom_site_label
 _atom_site_symmetry_multiplicity
 _atom_site_fract_x
 _atom_site_fract_y
 _atom_site_fract_z
 _atom_site_occupancy
  Sr  Sr0  1  0.63027572  0.36972428  0.51415725  1
  Sr  Sr1  1  0.35313824  0.35883293  0.25000000  1
  Sr  Sr2  1  0.64116707  0.64686176  0.25000000  1
  Sr  Sr3  1  0.12665253  0.36936320  0.01768697  1
  Sr  Sr4  1  0.63063680  0.87334747  0.01768697  1
  Sr  Sr5  1  0.36972428  0.63027572  0.01415725  1
  Sr  Sr6  1  0.63027572  0.36972428  0.98584275  1
  Sr  Sr7  1  0.62897930  0.13929255  0.75000000  1
  Sr  Sr8  1  0.36199951  0.87077376  0.75000000  1
  Sr  Sr9  1  0.12922624  0.63800049  0.75000000  1
  Sr  Sr10  1  0.86070745  0.37102070  0.75000000  1
  Sr  Sr11  1  0.64686176  0.64116707  0.75000000  1
  Sr  Sr12  1  0.35883293  0.35313824  0.75000000  1
  Sr  Sr13  1  0.13043164  0.86956836  0.51714077  1
  Sr  Sr14  1  0.36936320  0.12665253  0.51768697  1
  Sr  Sr15  1  0.87334747  0.63063680  0.51768697  1
  Sr  Sr16  1  0.63063680  0.87334747  0.48231303  1
  Sr  Sr17  1  0.12665253  0.36936320  0.48231303  1
  Sr  Sr18  1  0.36972428  0.63027572  0.48584275  1
  Sr  Sr19  1  0.12497625  0.13529763  0.25000000  1
  Sr  Sr20  1  0.86470237  0.87502375  0.25000000  1
  Sr  Sr21  1  0.63800049  0.12922624  0.25000000  1
  Sr  Sr22  1  0.37102070  0.86070745  0.25000000  1
  Sr  Sr23  1  0.13929255  0.62897930  0.25000000  1
  Sr  Sr24  1  0.87077376  0.36199951  0.25000000  1
  Sr  Sr25  1  0.86956836  0.13043164  0.01714077  1
  Sr  Sr26  1  0.13043164  0.86956836  0.98285923  1
  Sr  Sr27  1  0.36936320  0.12665253  0.98231303  1
  Sr  Sr28  1  0.87334747  0.63063680  0.98231303  1
  Sr  Sr29  1  0.13529763  0.12497625  0.75000000  1
  Sr  Sr30  1  0.87502375  0.86470237  0.75000000  1
  Sr  Sr31  1  0.86956836  0.13043164  0.48285923  1
  N  N0  1  0.74914044  0.25085956  0.99931970  1
  N  N1  1  0.74914044  0.25085956  0.50068030  1
  N  N2  1  0.24571970  0.24571970  0.00000000  1
  N  N3  1  0.75428030  0.75428030  0.00000000  1
  N  N4  1  0.74749096  0.50162022  0.75000000  1
  N  N5  1  0.49837978  0.25250904  0.75000000  1
  N  N6  1  0.25085956  0.74914044  0.49931970  1
  N  N7  1  0.75428030  0.75428030  0.50000000  1
  N  N8  1  0.24571970  0.24571970  0.50000000  1
  N  N9  1  0.50162022  0.74749096  0.25000000  1
  N  N10  1  0.25250904  0.49837978  0.25000000  1
  N  N11  1  0.99848956  0.24844093  0.25000000  1
  N  N12  1  0.75155907  0.00151044  0.25000000  1
  N  N13  1  0.25085956  0.74914044  0.00068030  1
  N  N14  1  0.00151044  0.75155907  0.75000000  1
  N  N15  1  0.24844093  0.99848956  0.75000000  1
  F  F0  1  0.55085830  0.44914170  0.25000000  1
  F  F1  1  0.78390437  0.51254617  0.25000000  1
  F  F2  1  0.44914170  0.55085830  0.75000000  1
  F  F3  1  0.51254617  0.78390437  0.75000000  1
  F  F4  1  0.21609563  0.48745383  0.75000000  1
  F  F5  1  0.75280757  0.00334314  0.75000000  1
  F  F6  1  0.00000000  0.50000000  0.50000000  1
  F  F7  1  0.50000000  -0.00000000  0.50000000  1
  F  F8  1  0.00334314  0.75280757  0.25000000  1
  F  F9  1  0.48745383  0.21609563  0.25000000  1
  F  F10  1  0.24719243  0.99665686  0.25000000  1
  F  F11  1  0.00000000  -0.00000000  0.00000000  1
  F  F12  1  0.50000000  -0.00000000  0.00000000  1
  F  F13  1  0.00000000  0.50000000  0.00000000  1
  F  F14  1  0.99665686  0.24719243  0.75000000  1
  F  F15  1  0.00000000  -0.00000000  0.50000000  1
loop_
_geom_bond_atom_site_label_1
_geom_bond_atom_site_label_2
_geom_bond_distance
_geom_bond_site_symmetry_2
N0 Sr6 2.542197 1_555
N0 Sr25 2.577078 1_556
N0 Sr10 2.581268 1_555
N0 Sr7 2.581268 1_555
N0 Sr24 2.594991 1_556
N0 Sr21 2.594991 1_556
N1 Sr0 2.542197 1_555
N1 Sr31 2.577078 1_555
N1 Sr10 2.581268 1_555
N1 Sr7 2.581268 1_555
N1 Sr24 2.594991 1_555
N1 Sr21 2.594991 1_555
N2 Sr12 2.526579 1_554
N2 Sr1 2.526579 1_555
N2 Sr29 2.582806 1_554
N2 Sr19 2.582806 1_555
N2 Sr3 2.597052 1_555
N2 Sr27 2.597052 1_554
N3 Sr2 2.526579 1_555
N3 Sr11 2.526579 1_554
N3 Sr20 2.582806 1_555
N3 Sr30 2.582806 1_554
N3 Sr4 2.597052 1_555
N3 Sr28 2.597052 1_554
N4 Sr11 2.583378 1_555
N4 Sr0 2.606191 1_555
N4 Sr6 2.606191 1_555
N4 Sr10 2.608563 1_555
N4 Sr15 2.615970 1_555
N4 Sr28 2.615970 1_555
N5 Sr12 2.583378 1_555
N5 Sr0 2.606191 1_555
N5 Sr6 2.606191 1_555
N5 Sr7 2.608563 1_555
N5 Sr27 2.615970 1_555
N5 Sr14 2.615970 1_555
N6 Sr18 2.542197 1_555
N6 Sr13 2.577078 1_555
N6 Sr22 2.581268 1_555
N6 Sr23 2.581268 1_555
N6 Sr8 2.594991 1_555
N6 Sr9 2.594991 1_555
N7 Sr2 2.526579 1_555
N7 Sr11 2.526579 1_555
N7 Sr20 2.582806 1_555
N7 Sr30 2.582806 1_555
N7 Sr16 2.597052 1_555
N7 Sr15 2.597052 1_555
N8 Sr12 2.526579 1_555
N8 Sr1 2.526579 1_555
N8 Sr29 2.582806 1_555
N8 Sr19 2.582806 1_555
N8 Sr17 2.597052 1_555
N8 Sr14 2.597052 1_555
N9 Sr2 2.583378 1_555
N9 Sr18 2.606191 1_555
N9 Sr5 2.606191 1_555
N9 Sr22 2.608563 1_555
N9 Sr4 2.615970 1_555
N9 Sr16 2.615970 1_555
N10 Sr1 2.583378 1_555
N10 Sr18 2.606191 1_555
N10 Sr5 2.606191 1_555
N10 Sr23 2.608563 1_555
N10 Sr17 2.615970 1_555
N10 Sr3 2.615970 1_555
N11 Sr19 2.562488 1_655
N11 Sr31 2.576596 1_555
N11 Sr25 2.576596 1_555
N11 Sr24 2.580296 1_555
N11 Sr17 2.584342 1_655
N11 Sr3 2.584342 1_655
N12 Sr20 2.562488 1_545
N12 Sr31 2.576596 1_555
N12 Sr25 2.576596 1_555
N12 Sr21 2.580296 1_555
N12 Sr16 2.584342 1_545
N12 Sr4 2.584342 1_545
N13 Sr5 2.542197 1_555
N13 Sr26 2.577078 1_554
N13 Sr22 2.581268 1_555
N13 Sr23 2.581268 1_555
N13 Sr8 2.594991 1_554
N13 Sr9 2.594991 1_554
N14 Sr30 2.562488 1_455
N14 Sr26 2.576596 1_555
N14 Sr13 2.576596 1_555
N14 Sr9 2.580296 1_555
N14 Sr15 2.584342 1_455
N14 Sr28 2.584342 1_455
N15 Sr29 2.562488 1_565
N15 Sr13 2.576596 1_555
N15 Sr26 2.576596 1_555
N15 Sr8 2.580296 1_555
N15 Sr14 2.584342 1_565
N15 Sr27 2.584342 1_565
F0 Sr2 2.476497 1_555
F0 Sr1 2.476497 1_555
F0 Sr6 2.617500 1_554
F0 Sr0 2.617500 1_555
F1 Sr24 2.582790 1_555
F1 Sr15 2.582957 1_555
F1 Sr28 2.582957 1_554
F1 Sr2 2.961033 1_555
F1 Sr6 3.014270 1_554
F1 Sr0 3.014270 1_555
F2 Sr11 2.476497 1_555
F2 Sr12 2.476497 1_555
F2 Sr5 2.617500 1_556
F2 Sr18 2.617500 1_555
F3 Sr8 2.582790 1_555
F3 Sr4 2.582957 1_556
F3 Sr16 2.582957 1_555
F3 Sr11 2.961033 1_555
F3 Sr5 3.014270 1_556
F3 Sr18 3.014270 1_555
F4 Sr9 2.582790 1_555
F4 Sr3 2.582957 1_556
F4 Sr17 2.582957 1_555
F4 Sr12 2.961033 1_555
F4 Sr5 3.014270 1_556
F4 Sr18 3.014270 1_555
F5 Sr25 2.743189 1_556
F5 Sr31 2.743189 1_555
F5 Sr7 2.777286 1_555
F5 Sr4 2.788548 1_546
F5 Sr16 2.788548 1_545
F5 Sr30 2.790090 1_545
F6 Sr15 2.752565 1_455
F6 Sr17 2.752565 1_555
F6 Sr24 2.776835 1_455
F6 Sr9 2.776835 1_555
F6 Sr23 2.783282 1_555
F6 Sr10 2.783282 1_455
F7 Sr16 2.752565 1_545
F7 Sr14 2.752565 1_555
F7 Sr21 2.776835 1_555
F7 Sr8 2.776835 1_545
F7 Sr22 2.783282 1_545
F7 Sr7 2.783282 1_555
F8 Sr26 2.743189 1_554
F8 Sr13 2.743189 1_555
F8 Sr23 2.777286 1_555
F8 Sr15 2.788548 1_455
F8 Sr28 2.788548 1_454
F8 Sr20 2.790090 1_455
F9 Sr21 2.582790 1_555
F9 Sr14 2.582957 1_555
F9 Sr27 2.582957 1_554
F9 Sr1 2.961033 1_555
F9 Sr0 3.014270 1_555
F9 Sr6 3.014270 1_554
F10 Sr26 2.743189 1_554
F10 Sr13 2.743189 1_555
F10 Sr22 2.777286 1_555
F10 Sr14 2.788548 1_565
F10 Sr27 2.788548 1_564
F10 Sr19 2.790090 1_565
F11 Sr30 2.738847 1_444
F11 Sr20 2.738847 1_445
F11 Sr29 2.738847 1_554
F11 Sr19 2.738847 1_555
F11 Sr26 2.790348 1_544
F11 Sr25 2.790348 1_455
F12 Sr27 2.752565 1_554
F12 Sr4 2.752565 1_545
F12 Sr21 2.776835 1_555
F12 Sr8 2.776835 1_544
F12 Sr22 2.783282 1_545
F12 Sr7 2.783282 1_554
F13 Sr28 2.752565 1_454
F13 Sr3 2.752565 1_555
F13 Sr24 2.776835 1_455
F13 Sr9 2.776835 1_554
F13 Sr23 2.783282 1_555
F13 Sr10 2.783282 1_454
F14 Sr25 2.743189 1_556
F14 Sr31 2.743189 1_555
F14 Sr10 2.777286 1_555
F14 Sr3 2.788548 1_656
F14 Sr17 2.788548 1_655
F14 Sr29 2.790090 1_655
F15 Sr30 2.738847 1_445
F15 Sr20 2.738847 1_445
F15 Sr19 2.738847 1_555
F15 Sr29 2.738847 1_555
F15 Sr31 2.790348 1_455
F15 Sr13 2.790348 1_545
