# generated using pymatgen
data_Sc5Pb3
_symmetry_space_group_name_H-M   'P 1'
_cell_length_a   8.52162273
_cell_length_b   8.52162310
_cell_length_c   6.19263937
_cell_angle_alpha   90.00000000
_cell_angle_beta   90.00000000
_cell_angle_gamma   119.99999854
_symmetry_Int_Tables_number   1
_chemical_formula_structural   Sc5Pb3
_chemical_formula_sum   'Sc10 Pb6'
_cell_volume   389.44941202
_cell_formula_units_Z   2
loop_
 _symmetry_equiv_pos_site_id
 _symmetry_equiv_pos_as_xyz
  1  'x, y, z'
loop_
 _atom_site_type_symbol
 _atom_site_label
 _atom_site_symmetry_multiplicity
 _atom_site_fract_x
 _atom_site_fract_y
 _atom_site_fract_z
 _atom_site_occupancy
  Sc  Sc0  1  0.33333300  0.66666700  -0.00000000  1
  Sc  Sc1  1  0.66666700  0.33333300  0.50000000  1
  Sc  Sc2  1  0.66666700  0.33333300  -0.00000000  1
  Sc  Sc3  1  0.33333300  0.66666700  0.50000000  1
  Sc  Sc4  1  0.23604163  -0.00000000  0.25000000  1
  Sc  Sc5  1  0.23604163  0.23604163  0.75000000  1
  Sc  Sc6  1  0.00000000  0.76395837  0.75000000  1
  Sc  Sc7  1  -0.00000000  0.23604163  0.25000000  1
  Sc  Sc8  1  0.76395837  0.76395837  0.25000000  1
  Sc  Sc9  1  0.76395837  -0.00000000  0.75000000  1
  Pb  Pb0  1  0.60722745  -0.00000000  0.25000000  1
  Pb  Pb1  1  0.60722745  0.60722745  0.75000000  1
  Pb  Pb2  1  -0.00000000  0.39277255  0.75000000  1
  Pb  Pb3  1  0.00000000  0.60722745  0.25000000  1
  Pb  Pb4  1  0.39277255  0.39277255  0.25000000  1
  Pb  Pb5  1  0.39277255  -0.00000000  0.75000000  1
loop_
_geom_bond_atom_site_label_1
_geom_bond_atom_site_label_2
_geom_bond_distance
_geom_bond_site_symmetry_2
Sc0 Sc3 3.096320 1_555
Sc0 Sc3 3.096320 1_554
Sc0 Sc6 3.675305 1_554
Sc0 Sc4 3.675305 1_565
Sc0 Sc9 3.675310 1_564
Sc0 Sc7 3.675310 1_555
Sc0 Sc8 3.675312 1_555
Sc0 Sc5 3.675312 1_554
Sc1 Sc2 3.096320 1_556
Sc1 Sc2 3.096320 1_555
Sc1 Sc7 3.675305 1_655
Sc1 Sc9 3.675305 1_555
Sc1 Sc4 3.675310 1_555
Sc1 Sc6 3.675310 1_655
Sc1 Sc5 3.675312 1_555
Sc1 Sc8 3.675312 1_555
Sc2 Sc7 3.675305 1_655
Sc2 Sc9 3.675305 1_554
Sc2 Sc4 3.675310 1_555
Sc2 Sc6 3.675310 1_654
Sc2 Sc5 3.675312 1_554
Sc2 Sc8 3.675312 1_555
Sc3 Sc6 3.675305 1_555
Sc3 Sc4 3.675305 1_565
Sc3 Sc9 3.675310 1_565
Sc3 Sc7 3.675310 1_555
Sc3 Sc8 3.675312 1_555
Sc3 Sc5 3.675312 1_555
Sc4 Sc7 3.483947 1_555
Sc4 Sc8 3.483947 1_445
Sc4 Sc5 3.692311 1_555
Sc4 Sc5 3.692311 1_554
Sc4 Sc6 3.692311 1_544
Sc4 Sc6 3.692311 1_545
Sc5 Sc9 3.483947 1_455
Sc5 Sc6 3.483947 1_545
Sc5 Sc7 3.692311 1_556
Sc5 Sc7 3.692311 1_555
Sc6 Sc9 3.483947 1_465
Sc6 Sc8 3.692311 1_455
Sc6 Sc8 3.692311 1_456
Sc7 Sc8 3.483947 1_445
Sc7 Sc9 3.692311 1_455
Sc7 Sc9 3.692311 1_454
Sc8 Sc9 3.692311 1_564
Sc8 Sc9 3.692311 1_565
Pb0 Sc8 2.918270 1_545
Pb0 Sc7 2.918270 1_655
Pb0 Sc1 3.046839 1_555
Pb0 Sc2 3.046839 1_555
Pb0 Sc3 3.046841 1_545
Pb0 Sc0 3.046841 1_545
Pb0 Sc4 3.163106 1_555
Pb0 Sc9 3.372095 1_554
Pb0 Sc9 3.372095 1_555
Pb1 Sc6 2.918270 1_655
Pb1 Sc9 2.918270 1_565
Pb1 Sc3 3.046846 1_555
Pb1 Sc0 3.046846 1_556
Pb1 Sc1 3.046846 1_555
Pb1 Sc2 3.046846 1_556
Pb1 Sc5 3.163106 1_555
Pb1 Sc8 3.372095 1_556
Pb1 Sc8 3.372095 1_555
Pb2 Sc5 2.918270 1_555
Pb2 Sc9 2.918270 1_455
Pb2 Sc1 3.046839 1_455
Pb2 Sc2 3.046839 1_456
Pb2 Sc0 3.046841 1_556
Pb2 Sc3 3.046841 1_555
Pb2 Sc6 3.163106 1_555
Pb2 Sc7 3.372095 1_556
Pb2 Sc7 3.372095 1_555
Pb3 Sc8 2.918270 1_455
Pb3 Sc4 2.918270 1_565
Pb3 Sc0 3.046839 1_555
Pb3 Sc3 3.046839 1_555
Pb3 Sc2 3.046841 1_455
Pb3 Sc1 3.046841 1_455
Pb3 Sc7 3.163106 1_555
Pb3 Sc6 3.372095 1_555
Pb3 Sc6 3.372095 1_554
Pb4 Sc7 2.918270 1_555
Pb4 Sc4 2.918270 1_555
Pb4 Sc2 3.046846 1_555
Pb4 Sc1 3.046846 1_555
Pb4 Sc0 3.046846 1_555
Pb4 Sc3 3.046846 1_555
Pb4 Sc8 3.163106 1_555
Pb4 Sc5 3.372095 1_554
Pb4 Sc5 3.372095 1_555
Pb5 Sc5 2.918270 1_555
Pb5 Sc6 2.918270 1_545
Pb5 Sc3 3.046839 1_545
Pb5 Sc0 3.046839 1_546
Pb5 Sc1 3.046841 1_555
Pb5 Sc2 3.046841 1_556
Pb5 Sc9 3.163106 1_555
Pb5 Sc4 3.372095 1_555
Pb5 Sc4 3.372095 1_556
