# generated using pymatgen
data_Yb2Zn17
_symmetry_space_group_name_H-M   'P 1'
_cell_length_a   6.82710841
_cell_length_b   6.82710841
_cell_length_c   6.82710823
_cell_angle_alpha   83.25347423
_cell_angle_beta   83.25347423
_cell_angle_gamma   83.25347141
_symmetry_Int_Tables_number   1
_chemical_formula_structural   Yb2Zn17
_chemical_formula_sum   'Yb2 Zn17'
_cell_volume   312.07701380
_cell_formula_units_Z   1
loop_
 _symmetry_equiv_pos_site_id
 _symmetry_equiv_pos_as_xyz
  1  'x, y, z'
loop_
 _atom_site_type_symbol
 _atom_site_label
 _atom_site_symmetry_multiplicity
 _atom_site_fract_x
 _atom_site_fract_y
 _atom_site_fract_z
 _atom_site_occupancy
  Yb  Yb0  1  0.66301700  0.66301700  0.66301700  1
  Yb  Yb1  1  0.33698300  0.33698300  0.33698300  1
  Zn  Zn0  1  0.00000000  0.00000000  0.50000000  1
  Zn  Zn1  1  0.50000000  0.00000000  0.00000000  1
  Zn  Zn2  1  0.00000000  0.50000000  0.00000000  1
  Zn  Zn3  1  0.70082300  0.29917700  0.00000000  1
  Zn  Zn4  1  0.00000000  0.70082300  0.29917700  1
  Zn  Zn5  1  0.29917700  0.00000000  0.70082300  1
  Zn  Zn6  1  0.00000000  0.29917700  0.70082300  1
  Zn  Zn7  1  0.70082300  0.00000000  0.29917700  1
  Zn  Zn8  1  0.29917700  0.70082300  0.00000000  1
  Zn  Zn9  1  0.35049700  0.35049700  0.83818900  1
  Zn  Zn10  1  0.83818900  0.35049700  0.35049700  1
  Zn  Zn11  1  0.35049700  0.83818900  0.35049700  1
  Zn  Zn12  1  0.64950300  0.64950300  0.16181100  1
  Zn  Zn13  1  0.16181100  0.64950300  0.64950300  1
  Zn  Zn14  1  0.64950300  0.16181100  0.64950300  1
  Zn  Zn15  1  0.89612100  0.89612100  0.89612100  1
  Zn  Zn16  1  0.10387900  0.10387900  0.10387900  1
loop_
_geom_bond_atom_site_label_1
_geom_bond_atom_site_label_2
_geom_bond_distance
_geom_bond_site_symmetry_2
Yb0 Zn15 3.063181 1_555
Yb0 Zn6 3.189952 1_655
Yb0 Zn5 3.189952 1_565
Yb0 Zn3 3.189952 1_556
Yb0 Zn8 3.189952 1_556
Yb0 Zn7 3.189952 1_565
Yb0 Zn4 3.189952 1_655
Yb0 Zn10 3.225730 1_555
Yb0 Zn11 3.225730 1_555
Yb0 Zn9 3.225730 1_555
Yb0 Zn12 3.386384 1_556
Yb0 Zn13 3.386384 1_655
Yb0 Zn14 3.386384 1_565
Yb0 Zn1 3.444522 1_566
Yb0 Zn2 3.444522 1_656
Yb0 Zn0 3.444522 1_665
Yb0 Zn12 3.446158 1_555
Yb0 Zn14 3.446158 1_555
Yb0 Zn13 3.446158 1_555
Yb1 Zn16 3.063181 1_555
Yb1 Zn7 3.189952 1_555
Yb1 Zn4 3.189952 1_555
Yb1 Zn8 3.189952 1_555
Yb1 Zn3 3.189952 1_555
Yb1 Zn5 3.189952 1_555
Yb1 Zn6 3.189952 1_555
Yb1 Zn14 3.225730 1_555
Yb1 Zn13 3.225730 1_555
Yb1 Zn12 3.225730 1_555
Yb1 Zn9 3.386384 1_554
Yb1 Zn10 3.386384 1_455
Yb1 Zn11 3.386384 1_545
Yb1 Zn1 3.444522 1_555
Yb1 Zn2 3.444522 1_555
Yb1 Zn0 3.444522 1_555
Yb1 Zn9 3.446158 1_555
Yb1 Zn11 3.446158 1_555
Yb1 Zn10 3.446158 1_555
Zn0 Zn5 2.590284 1_555
Zn0 Zn7 2.590284 1_455
Zn0 Zn6 2.590284 1_555
Zn0 Zn4 2.590284 1_545
Zn0 Zn10 2.656692 1_455
Zn0 Zn13 2.656692 1_545
Zn0 Zn14 2.656692 1_455
Zn0 Zn11 2.656692 1_545
Zn0 Zn15 2.745251 1_445
Zn0 Zn16 2.745251 1_555
Zn1 Zn5 2.590284 1_554
Zn1 Zn7 2.590284 1_555
Zn1 Zn8 2.590284 1_545
Zn1 Zn3 2.590284 1_555
Zn1 Zn9 2.656692 1_554
Zn1 Zn12 2.656692 1_545
Zn1 Zn11 2.656692 1_545
Zn1 Zn14 2.656692 1_554
Zn1 Zn15 2.745251 1_544
Zn1 Zn16 2.745251 1_555
Zn2 Zn4 2.590284 1_555
Zn2 Zn6 2.590284 1_554
Zn2 Zn8 2.590284 1_555
Zn2 Zn3 2.590284 1_455
Zn2 Zn9 2.656692 1_554
Zn3 Zn7 2.713582 1_555
Zn3 Zn6 2.713582 1_654
Zn3 Zn9 2.719627 1_554
Zn4 Zn7 2.713582 1_465
Zn4 Zn8 2.713582 1_555
Zn5 Zn6 2.713582 1_555
Zn5 Zn8 2.713582 1_546
Zn5 Zn9 2.744006 1_555
Zn6 Zn9 2.744006 1_555
Zn8 Zn9 2.719627 1_554
Zn10 Zn12 2.576841 1_555
Zn10 Zn14 2.576842 1_555
Zn10 Zn2 2.656692 1_655
Zn10 Zn6 2.719627 1_655
Zn10 Zn4 2.719627 1_655
Zn10 Zn3 2.744006 1_555
Zn10 Zn7 2.744006 1_555
Zn10 Zn16 2.861950 1_655
Zn11 Zn12 2.576841 1_555
Zn11 Zn13 2.576842 1_555
Zn11 Zn5 2.719627 1_565
Zn11 Zn7 2.719627 1_565
Zn11 Zn8 2.744006 1_555
Zn11 Zn4 2.744006 1_555
Zn11 Zn16 2.861950 1_565
Zn12 Zn2 2.656692 1_655
Zn12 Zn8 2.719627 1_555
Zn12 Zn3 2.719627 1_555
Zn12 Zn4 2.744006 1_655
Zn12 Zn7 2.744006 1_565
Zn12 Zn15 2.861950 1_554
Zn13 Zn9 2.576841 1_555
Zn13 Zn2 2.656692 1_556
Zn13 Zn4 2.719627 1_555
Zn13 Zn6 2.719627 1_555
Zn13 Zn8 2.744006 1_556
Zn13 Zn5 2.744006 1_565
Zn13 Zn15 2.861950 1_455
Zn14 Zn9 2.576841 1_555
Zn14 Zn7 2.719627 1_555
Zn14 Zn5 2.719627 1_555
Zn14 Zn3 2.744006 1_556
Zn14 Zn6 2.744006 1_655
Zn14 Zn15 2.861950 1_545
Zn15 Zn16 2.730113 1_666
Zn15 Zn2 2.745251 1_656
Zn15 Zn7 3.037582 1_566
Zn15 Zn4 3.037582 1_656
Zn15 Zn8 3.037582 1_656
Zn15 Zn3 3.037582 1_566
Zn15 Zn6 3.037583 1_665
Zn15 Zn5 3.037583 1_665
Zn16 Zn2 2.745251 1_555
Zn16 Zn9 2.861950 1_554
Zn16 Zn5 3.037582 1_554
Zn16 Zn6 3.037582 1_554
Zn16 Zn8 3.037582 1_545
Zn16 Zn3 3.037582 1_455
Zn16 Zn7 3.037583 1_455
Zn16 Zn4 3.037583 1_545
