# generated using pymatgen
data_V2MoO8
_symmetry_space_group_name_H-M   'P 1'
_cell_length_a   9.86750188
_cell_length_b   9.86750188
_cell_length_c   4.33319900
_cell_angle_alpha   90.00000000
_cell_angle_beta   90.00000000
_cell_angle_gamma   158.30974634
_symmetry_Int_Tables_number   1
_chemical_formula_structural   V2MoO8
_chemical_formula_sum   'V2 Mo1 O8'
_cell_volume   155.93433597
_cell_formula_units_Z   1
loop_
 _symmetry_equiv_pos_site_id
 _symmetry_equiv_pos_as_xyz
  1  'x, y, z'
loop_
 _atom_site_type_symbol
 _atom_site_label
 _atom_site_symmetry_multiplicity
 _atom_site_fract_x
 _atom_site_fract_y
 _atom_site_fract_z
 _atom_site_occupancy
  V  V0  1  0.31205100  0.68794900  0.95597200  1
  V  V1  1  0.68794900  0.31205100  0.95597200  1
  Mo  Mo0  1  0.50000000  0.50000000  0.96389200  1
  O  O0  1  0.50000000  0.50000000  0.56719300  1
  O  O1  1  0.20933400  0.79066600  0.04009600  1
  O  O2  1  0.40243500  0.59756500  0.05450300  1
  O  O3  1  0.68609500  0.31390500  0.58278600  1
  O  O4  1  0.79066600  0.20933400  0.04009600  1
  O  O5  1  0.31390500  0.68609500  0.58278600  1
  O  O6  1  0.59756500  0.40243500  0.05450300  1
  O  O7  1  0.00000000  0.00000000  0.05519100  1
loop_
_geom_bond_atom_site_label_1
_geom_bond_atom_site_label_2
_geom_bond_distance
_geom_bond_site_symmetry_2
Mo0 O0 1.718976 1_555
Mo0 O7 1.898301 1_556
Mo0 O7 1.898301 1_666
Mo0 O2 1.931387 1_556
Mo0 O6 1.931387 1_556
O1 V1 1.936936 1_454
O1 V1 1.936936 1_564
O1 V0 2.024011 1_554
O2 V0 1.803147 1_554
O3 V1 1.617488 1_555
O4 V0 1.936936 1_544
O4 V0 1.936936 1_654
O4 V1 2.024011 1_554
O5 V0 1.617488 1_555
O6 V1 1.803147 1_554
