# generated using pymatgen
data_BiPPbO5
_symmetry_space_group_name_H-M   'P 1'
_cell_length_a   5.91388400
_cell_length_b   7.10144478
_cell_length_c   7.10620364
_cell_angle_alpha   107.15152306
_cell_angle_beta   109.09337868
_cell_angle_gamma   101.51569857
_symmetry_Int_Tables_number   1
_chemical_formula_structural   BiPPbO5
_chemical_formula_sum   'Bi2 P2 Pb2 O10'
_cell_volume   254.57898675
_cell_formula_units_Z   2
loop_
 _symmetry_equiv_pos_site_id
 _symmetry_equiv_pos_as_xyz
  1  'x, y, z'
loop_
 _atom_site_type_symbol
 _atom_site_label
 _atom_site_symmetry_multiplicity
 _atom_site_fract_x
 _atom_site_fract_y
 _atom_site_fract_z
 _atom_site_occupancy
  Bi  Bi0  1  0.61699700  0.26858600  0.55764300  1
  Bi  Bi1  1  0.38300300  0.73141400  0.44235700  1
  P  P0  1  0.17899300  0.65609100  0.85826900  1
  P  P1  1  0.82100700  0.34390900  0.14173100  1
  Pb  Pb0  1  0.16741000  0.10884500  0.82206300  1
  Pb  Pb1  1  0.83259000  0.89115500  0.17793700  1
  O  O0  1  0.25827800  0.99827800  0.47288600  1
  O  O1  1  0.93540600  0.58341000  0.28474100  1
  O  O2  1  0.65775200  0.31109200  0.90541400  1
  O  O3  1  0.36531400  0.76919100  0.78196200  1
  O  O4  1  0.34224800  0.68890800  0.09458600  1
  O  O5  1  0.74172200  0.00172200  0.52711400  1
  O  O6  1  0.96234600  0.75088600  0.84268300  1
  O  O7  1  0.06459400  0.41659000  0.71525900  1
  O  O8  1  0.03765400  0.24911400  0.15731700  1
  O  O9  1  0.63468600  0.23080900  0.21803800  1
loop_
_geom_bond_atom_site_label_1
_geom_bond_atom_site_label_2
_geom_bond_distance
_geom_bond_site_symmetry_2
Bi0 O5 2.145446 1_555
Bi0 O2 2.323355 1_555
Bi0 O0 2.324699 1_545
Bi0 O7 2.370910 1_655
Bi0 O9 2.387773 1_555
Bi1 O0 2.145446 1_555
Bi1 O4 2.323355 1_555
Bi1 O5 2.324699 1_565
Bi1 O1 2.370910 1_455
Bi1 O3 2.387773 1_555
O0 Pb1 2.480398 1_455
O0 Pb0 2.637039 1_565
O1 P1 1.566700 1_555
O1 Pb1 2.632265 1_555
O2 P1 1.557301 1_556
O2 Pb0 2.744865 1_555
O3 P0 1.564505 1_555
O4 P0 1.557301 1_554
O4 Pb1 2.744865 1_555
O5 Pb0 2.480398 1_655
O5 Pb1 2.637039 1_545
O6 P0 1.549996 1_655
O6 Pb0 2.656905 1_665
O6 Pb1 2.712632 1_556
O7 P0 1.566700 1_555
O7 Pb0 2.632265 1_555
O8 P1 1.549996 1_455
O8 Pb1 2.656905 1_445
O8 Pb0 2.712632 1_554
O9 P1 1.564505 1_555
