# generated using pymatgen
data_Na3ThP3O11
_symmetry_space_group_name_H-M   'P 1'
_cell_length_a   6.53376400
_cell_length_b   8.82073687
_cell_length_c   9.02145465
_cell_angle_alpha   109.80606255
_cell_angle_beta   93.27810831
_cell_angle_gamma   103.66345182
_symmetry_Int_Tables_number   1
_chemical_formula_structural   Na3ThP3O11
_chemical_formula_sum   'Na6 Th2 P6 O22'
_cell_volume   469.94495818
_cell_formula_units_Z   2
loop_
 _symmetry_equiv_pos_site_id
 _symmetry_equiv_pos_as_xyz
  1  'x, y, z'
loop_
 _atom_site_type_symbol
 _atom_site_label
 _atom_site_symmetry_multiplicity
 _atom_site_fract_x
 _atom_site_fract_y
 _atom_site_fract_z
 _atom_site_occupancy
  Na  Na0  1  0.40028800  0.17769200  0.56215800  1
  Na  Na1  1  0.36202900  0.99067600  0.13552300  1
  Na  Na2  1  0.63797100  0.00932400  0.86447700  1
  Na  Na3  1  0.59971200  0.82230800  0.43784200  1
  Na  Na4  1  0.29547100  0.58551800  0.03503600  1
  Na  Na5  1  0.70452900  0.41448200  0.96496400  1
  Th  Th0  1  0.92564200  0.66655100  0.70933500  1
  Th  Th1  1  0.07435800  0.33344900  0.29066500  1
  P  P0  1  0.90782700  0.22682900  0.64127700  1
  P  P1  1  0.59224100  0.37960300  0.29868900  1
  P  P2  1  0.40775900  0.62039700  0.70131100  1
  P  P3  1  0.85253800  0.86076300  0.12685900  1
  P  P4  1  0.09217300  0.77317100  0.35872300  1
  P  P5  1  0.14746200  0.13923700  0.87314100  1
  O  O0  1  0.23007700  0.53207400  0.55217900  1
  O  O1  1  0.59640100  0.74266100  0.66499100  1
  O  O2  1  0.29182100  0.72307200  0.82983600  1
  O  O3  1  0.99340600  0.96612100  0.83768700  1
  O  O4  1  0.08286700  0.27697600  0.00588700  1
  O  O5  1  0.38095400  0.14777300  0.89664100  1
  O  O6  1  0.29663300  0.89421700  0.35259400  1
  O  O7  1  0.00659400  0.03387900  0.16231300  1
  O  O8  1  0.61904600  0.85222700  0.10335900  1
  O  O9  1  0.04724900  0.79278600  0.52764900  1
  O  O10  1  0.95275100  0.20721400  0.47235100  1
  O  O11  1  0.91713300  0.72302400  0.99411300  1
  O  O12  1  0.40359900  0.25733900  0.33500900  1
  O  O13  1  0.92056600  0.40879300  0.74840400  1
  O  O14  1  0.11316000  0.18380100  0.71269600  1
  O  O15  1  0.70336700  0.10578300  0.64740600  1
  O  O16  1  0.70817900  0.27692800  0.17016400  1
  O  O17  1  0.50551700  0.50101800  0.75404400  1
  O  O18  1  0.88684000  0.81619900  0.28730400  1
  O  O19  1  0.49448300  0.49898200  0.24595600  1
  O  O20  1  0.07943400  0.59120700  0.25159600  1
  O  O21  1  0.76992300  0.46792600  0.44782100  1
loop_
_geom_bond_atom_site_label_1
_geom_bond_atom_site_label_2
_geom_bond_distance
_geom_bond_site_symmetry_2
Na0 O14 2.378294 1_555
Na0 O15 2.380119 1_555
Na0 O12 2.380511 1_555
Na0 O6 2.476929 1_545
Na0 O17 2.682340 1_555
Na1 O8 2.275971 1_555
Na1 O12 2.370405 1_565
Na1 O6 2.407177 1_555
Na1 O7 2.452901 1_565
Na1 O16 2.876579 1_565
Na1 O2 2.884401 1_554
Na1 O5 2.924559 1_564
Na2 O5 2.275971 1_555
Na2 O1 2.370405 1_545
Na2 O15 2.407177 1_555
Na2 O3 2.452901 1_545
Na2 O2 2.876579 1_545
Na2 O16 2.884401 1_556
Na2 O8 2.924559 1_546
Na3 O18 2.378294 1_555
Na3 O6 2.380119 1_555
Na3 O1 2.380511 1_555
Na3 O15 2.476929 1_565
Na3 O19 2.682340 1_555
Na4 O20 2.468653 1_555
Na4 O2 2.535831 1_554
Na4 O8 2.627303 1_555
Na4 O19 2.657876 1_555
Na4 O4 2.663241 1_555
Na4 O17 2.909591 1_554
Na5 O13 2.468653 1_555
Na5 O16 2.535831 1_556
Na5 O5 2.627303 1_555
Na5 O17 2.657876 1_555
Na5 O11 2.663241 1_555
Na5 O19 2.909591 1_556
O0 P2 1.564786 1_555
O0 Th1 2.398531 1_555
O0 Th0 2.769694 1_455
O1 P2 1.564373 1_555
O1 Th0 2.450348 1_555
O2 P2 1.565693 1_555
O2 Th0 2.434390 1_455
O3 P5 1.534041 1_665
O3 Th0 2.415447 1_555
O4 P5 1.549985 1_554
O4 Th1 2.452289 1_555
O5 P5 1.508622 1_555
O6 P4 1.517326 1_555
O7 P3 1.534041 1_445
O7 Th1 2.415447 1_555
O8 P3 1.508622 1_555
O9 P4 1.528072 1_555
O9 Th0 2.350638 1_455
O10 P0 1.528072 1_555
O10 Th1 2.350638 1_655
O11 P3 1.549985 1_556
O11 Th0 2.452289 1_555
O12 P1 1.564373 1_555
O12 Th1 2.450348 1_555
O13 P0 1.547134 1_555
O13 Th0 2.409030 1_555
O14 P0 1.632936 1_455
O14 P5 1.640107 1_555
O15 P0 1.517326 1_555
O16 P1 1.565693 1_555
O16 Th1 2.434390 1_655
O17 P2 1.538052 1_555
O17 Th0 2.908923 1_555
O18 P4 1.632936 1_655
O18 P3 1.640107 1_555
O19 P1 1.538052 1_555
O19 Th1 2.908923 1_555
O20 P4 1.547134 1_555
O20 Th1 2.409030 1_555
O21 P1 1.564786 1_555
O21 Th0 2.398531 1_555
O21 Th1 2.769694 1_655
