# generated using pymatgen
data_Sr9LuV7O28
_symmetry_space_group_name_H-M   'P 1'
_cell_length_a   14.89978242
_cell_length_b   14.89978242
_cell_length_c   14.89978249
_cell_angle_alpha   44.83848562
_cell_angle_beta   44.83848562
_cell_angle_gamma   44.83848652
_symmetry_Int_Tables_number   1
_chemical_formula_structural   Sr9LuV7O28
_chemical_formula_sum   'Sr18 Lu2 V14 O56'
_cell_volume   1496.35003194
_cell_formula_units_Z   2
loop_
 _symmetry_equiv_pos_site_id
 _symmetry_equiv_pos_as_xyz
  1  'x, y, z'
loop_
 _atom_site_type_symbol
 _atom_site_label
 _atom_site_symmetry_multiplicity
 _atom_site_fract_x
 _atom_site_fract_y
 _atom_site_fract_z
 _atom_site_occupancy
  Sr  Sr0  1  0.54647800  0.52967900  0.94859700  1
  Sr  Sr1  1  0.06486900  0.64678400  0.09265000  1
  Sr  Sr2  1  0.14678400  0.56486900  0.59265000  1
  Sr  Sr3  1  0.84650000  0.43303400  0.42254000  1
  Sr  Sr4  1  0.43303400  0.42254000  0.84650000  1
  Sr  Sr5  1  0.64678400  0.09265000  0.06486900  1
  Sr  Sr6  1  0.59265000  0.14678400  0.56486900  1
  Sr  Sr7  1  0.04647800  0.44859700  0.02967900  1
  Sr  Sr8  1  0.92254000  0.93303400  0.34650000  1
  Sr  Sr9  1  0.93303400  0.34650000  0.92254000  1
  Sr  Sr10  1  0.52967900  0.94859700  0.54647800  1
  Sr  Sr11  1  0.94859700  0.54647800  0.52967900  1
  Sr  Sr12  1  0.34650000  0.92254000  0.93303400  1
  Sr  Sr13  1  0.44859700  0.02967900  0.04647800  1
  Sr  Sr14  1  0.02967900  0.04647800  0.44859700  1
  Sr  Sr15  1  0.09265000  0.06486900  0.64678400  1
  Sr  Sr16  1  0.42254000  0.84650000  0.43303400  1
  Sr  Sr17  1  0.56486900  0.59265000  0.14678400  1
  Lu  Lu0  1  0.50009600  0.50009600  0.50009600  1
  Lu  Lu1  1  0.00009600  0.00009600  0.00009600  1
  V  V0  1  0.69134400  0.72378500  0.17943400  1
  V  V1  1  0.67943400  0.22378500  0.19134400  1
  V  V2  1  0.22378500  0.19134400  0.67943400  1
  V  V3  1  0.31229600  0.28001100  0.81280800  1
  V  V4  1  0.19134400  0.67943400  0.22378500  1
  V  V5  1  0.31280800  0.78001100  0.81229600  1
  V  V6  1  0.72378500  0.17943400  0.69134400  1
  V  V7  1  0.22902500  0.22902500  0.22902500  1
  V  V8  1  0.78001100  0.81229600  0.31280800  1
  V  V9  1  0.81229600  0.31280800  0.78001100  1
  V  V10  1  0.72902500  0.72902500  0.72902500  1
  V  V11  1  0.81280800  0.31229600  0.28001100  1
  V  V12  1  0.17943400  0.69134400  0.72378500  1
  V  V13  1  0.28001100  0.81280800  0.31229600  1
  O  O0  1  0.68579300  0.68579300  0.68579300  1
  O  O1  1  0.62448900  0.14264700  0.37126600  1
  O  O2  1  0.62187600  0.36391500  0.61950600  1
  O  O3  1  0.59559700  0.23671700  0.14167300  1
  O  O4  1  0.32350500  0.31311500  0.89355800  1
  O  O5  1  0.64264700  0.12448900  0.87126600  1
  O  O6  1  0.60615600  0.89237200  0.16496400  1
  O  O7  1  0.86992400  0.88908400  0.12897400  1
  O  O8  1  0.12187600  0.11950600  0.86391500  1
  O  O9  1  0.84442700  0.63668300  0.36478100  1
  O  O10  1  0.11950600  0.86391500  0.12187600  1
  O  O11  1  0.89668900  0.60108300  0.72443100  1
  O  O12  1  0.36478100  0.84442700  0.63668300  1
  O  O13  1  0.12448900  0.87126600  0.64264700  1
  O  O14  1  0.40690100  0.10140200  0.85662100  1
  O  O15  1  0.39355800  0.81311500  0.82350500  1
  O  O16  1  0.86391500  0.12187600  0.11950600  1
  O  O17  1  0.12897400  0.86992400  0.88908400  1
  O  O18  1  0.39668900  0.22443100  0.10108300  1
  O  O19  1  0.90690100  0.35662100  0.60140200  1
  O  O20  1  0.89237200  0.16496400  0.60615600  1
  O  O21  1  0.72443100  0.89668900  0.60108300  1
  O  O22  1  0.89355800  0.32350500  0.31311500  1
  O  O23  1  0.82350500  0.39355800  0.81311500  1
  O  O24  1  0.10140200  0.85662100  0.40690100  1
  O  O25  1  0.63668300  0.36478100  0.84442700  1
  O  O26  1  0.18579300  0.18579300  0.18579300  1
  O  O27  1  0.81311500  0.82350500  0.39355800  1
  O  O28  1  0.85662100  0.40690100  0.10140200  1
  O  O29  1  0.37126600  0.62448900  0.14264700  1
  O  O30  1  0.34442700  0.86478100  0.13668300  1
  O  O31  1  0.38908400  0.36992400  0.62897400  1
  O  O32  1  0.86478100  0.13668300  0.34442700  1
  O  O33  1  0.31311500  0.89355800  0.32350500  1
  O  O34  1  0.22443100  0.10108300  0.39668900  1
  O  O35  1  0.10615600  0.66496400  0.39237200  1
  O  O36  1  0.09559700  0.64167300  0.73671700  1
  O  O37  1  0.14264700  0.37126600  0.62448900  1
  O  O38  1  0.35662100  0.60140200  0.90690100  1
  O  O39  1  0.73671700  0.09559700  0.64167300  1
  O  O40  1  0.36992400  0.62897400  0.38908400  1
  O  O41  1  0.10108300  0.39668900  0.22443100  1
  O  O42  1  0.87126600  0.64264700  0.12448900  1
  O  O43  1  0.13668300  0.34442700  0.86478100  1
  O  O44  1  0.60140200  0.90690100  0.35662100  1
  O  O45  1  0.39237200  0.10615600  0.66496400  1
  O  O46  1  0.62897400  0.38908400  0.36992400  1
  O  O47  1  0.23671700  0.14167300  0.59559700  1
  O  O48  1  0.66496400  0.39237200  0.10615600  1
  O  O49  1  0.88908400  0.12897400  0.86992400  1
  O  O50  1  0.61950600  0.62187600  0.36391500  1
  O  O51  1  0.14167300  0.59559700  0.23671700  1
  O  O52  1  0.64167300  0.73671700  0.09559700  1
  O  O53  1  0.36391500  0.61950600  0.62187600  1
  O  O54  1  0.16496400  0.60615600  0.89237200  1
  O  O55  1  0.60108300  0.72443100  0.89668900  1
loop_
_geom_bond_atom_site_label_1
_geom_bond_atom_site_label_2
_geom_bond_distance
_geom_bond_site_symmetry_2
Lu0 O50 2.193666 1_555
Lu0 O53 2.193666 1_555
Lu0 O2 2.193666 1_555
Lu0 O31 2.224494 1_555
Lu0 O46 2.224494 1_555
Lu0 O40 2.224494 1_555
Lu1 O8 2.193666 1_554
Lu1 O10 2.193666 1_545
Lu1 O16 2.193666 1_455
Lu1 O7 2.224494 1_445
Lu1 O49 2.224494 1_454
Lu1 O17 2.224494 1_544
O0 V10 1.734968 1_555
O0 Sr0 2.730444 1_555
O0 Sr11 2.730444 1_555
O0 Sr10 2.730444 1_555
O1 V1 1.735886 1_555
O1 Sr6 2.611508 1_555
O1 Sr10 2.651076 1_545
O1 Sr8 3.041780 1_545
O2 V6 1.794448 1_555
O2 Sr4 2.706850 1_555
O2 Sr3 2.747164 1_555
O3 V1 1.706678 1_555
O3 Sr5 2.534398 1_555
O3 Sr0 2.917505 1_554
O4 V3 1.721103 1_555
O4 Sr4 2.518452 1_555
O4 Sr7 2.709780 1_556
O4 Sr13 2.777340 1_556
O5 V6 1.735886 1_555
O5 Sr5 2.611508 1_556
O5 Sr13 2.651076 1_556
O5 Sr4 3.041780 1_555
O6 V0 1.750897 1_555
O6 Sr5 2.542717 1_565
O6 Sr13 2.599527 1_565
O6 Sr16 2.681138 1_555
O7 V8 1.769642 1_555
O7 Sr5 2.694345 1_565
O7 Sr1 2.726419 1_655
O8 V2 1.794448 1_555
O8 Sr9 2.706851 1_455
O8 Sr12 2.747164 1_545
O9 V8 1.728081 1_555
O9 Sr3 2.479944 1_555
O9 Sr11 2.831712 1_555
O9 Sr1 2.863524 1_655
O10 V4 1.794448 1_555
O10 Sr12 2.706850 1_554
O10 Sr8 2.747164 1_455
O11 V10 1.751635 1_555
O11 Sr2 2.511320 1_655
O11 Sr9 2.620957 1_555
O11 Sr11 2.992209 1_555
O12 V5 1.728081 1_555
O12 Sr16 2.479944 1_555
O12 Sr10 2.831712 1_555
O12 Sr15 2.863524 1_565
O13 V12 1.735886 1_555
O13 Sr15 2.611508 1_565
O13 Sr14 2.651076 1_565
O13 Sr16 3.041780 1_555
O14 V3 1.736804 1_555
O14 Sr13 2.606497 1_556
O14 Sr12 2.617941 1_545
O14 Sr6 2.904630 1_555
O15 V5 1.721103 1_555
O15 Sr12 2.518452 1_555
O15 Sr10 2.709780 1_555
O15 Sr0 2.777340 1_555
O16 V1 1.794448 1_555
O16 Sr8 2.706850 1_545
O16 Sr9 2.747164 1_554
O17 V5 1.769642 1_555
O17 Sr1 2.694344 1_556
O17 Sr15 2.726419 1_565
O18 V7 1.751635 1_555
O18 Sr5 2.511320 1_555
O18 Sr4 2.620957 1_554
O18 Sr13 2.992209 1_555
O19 V9 1.736804 1_555
O19 Sr11 2.606497 1_555
O19 Sr3 2.617941 1_555
O19 Sr15 2.904630 1_655
O20 V6 1.750897 1_555
O20 Sr15 2.542717 1_655
O20 Sr14 2.599527 1_655
O20 Sr3 2.681138 1_555
O21 V10 1.751635 1_555
O21 Sr6 2.511320 1_565
O21 Sr8 2.620957 1_555
O21 Sr10 2.992209 1_555
O22 V11 1.721103 1_555
O22 Sr3 2.518452 1_555
O22 Sr14 2.709780 1_655
O22 Sr7 2.777340 1_655
O23 V9 1.721103 1_555
O23 Sr9 2.518452 1_555
O23 Sr0 2.709780 1_555
O23 Sr11 2.777340 1_555
O24 V13 1.736804 1_555
O24 Sr14 2.606497 1_565
O24 Sr8 2.617941 1_455
O24 Sr2 2.904630 1_555
O25 V9 1.728081 1_555
O25 Sr4 2.479944 1_555
O25 Sr0 2.831712 1_555
O25 Sr5 2.863524 1_556
O26 V7 1.734968 1_555
O26 Sr14 2.730444 1_555
O26 Sr7 2.730444 1_555
O26 Sr13 2.730444 1_555
O27 V8 1.721103 1_555
O27 Sr8 2.518452 1_555
O27 Sr11 2.709780 1_555
O27 Sr10 2.777340 1_555
O28 V11 1.736804 1_555
O28 Sr7 2.606497 1_655
O28 Sr9 2.617941 1_554
O28 Sr17 2.904630 1_555
O29 V4 1.735886 1_555
O29 Sr17 2.611508 1_555
O29 Sr0 2.651076 1_554
O29 Sr12 3.041780 1_554
O30 V13 1.728081 1_555
O30 Sr12 2.479944 1_554
O30 Sr13 2.831712 1_565
O30 Sr17 2.863524 1_555
O31 V3 1.769642 1_555
O31 Sr6 2.694345 1_555
O31 Sr2 2.726419 1_555
O32 V11 1.728081 1_555
O32 Sr8 2.479944 1_545
O32 Sr14 2.831712 1_655
O32 Sr6 2.863524 1_555
O33 V13 1.721103 1_555
O33 Sr16 2.518452 1_555
O33 Sr13 2.709780 1_565
O33 Sr14 2.777340 1_565
O34 V7 1.751635 1_555
O34 Sr15 2.511320 1_555
O34 Sr16 2.620957 1_545
O34 Sr14 2.992209 1_555
O35 V4 1.750897 1_555
O35 Sr2 2.542717 1_555
O35 Sr11 2.599527 1_455
O35 Sr8 2.681138 1_455
O36 V12 1.706678 1_555
O36 Sr2 2.534398 1_555
O36 Sr7 2.917505 1_556
O37 V2 1.735886 1_555
O37 Sr2 2.611508 1_555
O37 Sr11 2.651076 1_455
O37 Sr9 3.041780 1_455
O38 V5 1.736804 1_555
O38 Sr0 2.606497 1_555
O38 Sr4 2.617941 1_555
O38 Sr1 2.904630 1_556
O39 V6 1.706678 1_555
O39 Sr6 2.534398 1_555
O39 Sr14 2.917505 1_655
O40 V13 1.769642 1_555
O40 Sr2 2.694344 1_555
O40 Sr17 2.726419 1_555
O41 V7 1.751635 1_555
O41 Sr1 2.511320 1_555
O41 Sr3 2.620957 1_455
O41 Sr7 2.992209 1_555
O42 V0 1.735886 1_555
O42 Sr1 2.611508 1_655
O42 Sr7 2.651076 1_655
O42 Sr3 3.041780 1_555
O43 V3 1.728081 1_555
O43 Sr9 2.479944 1_455
O43 Sr7 2.831712 1_556
O43 Sr2 2.863524 1_555
O44 V8 1.736804 1_555
O44 Sr10 2.606497 1_555
O44 Sr16 2.617941 1_555
O44 Sr5 2.904630 1_565
O45 V2 1.750897 1_555
O45 Sr6 2.542717 1_555
O45 Sr10 2.599527 1_545
O45 Sr12 2.681138 1_545
O46 V11 1.769642 1_555
O46 Sr17 2.694344 1_555
O46 Sr6 2.726419 1_555
O47 V2 1.706678 1_555
O47 Sr15 2.534398 1_555
O47 Sr10 2.917505 1_545
O48 V1 1.750897 1_555
O48 Sr17 2.542717 1_555
O48 Sr0 2.599527 1_554
O48 Sr9 2.681138 1_554
O49 V9 1.769642 1_555
O49 Sr15 2.694344 1_655
O49 Sr5 2.726419 1_556
O50 V0 1.794448 1_555
O50 Sr3 2.706851 1_555
O50 Sr16 2.747164 1_555
O51 V4 1.706678 1_555
O51 Sr1 2.534398 1_555
O51 Sr11 2.917505 1_455
O52 V0 1.706678 1_555
O52 Sr17 2.534398 1_555
O52 Sr13 2.917505 1_565
O53 V12 1.794448 1_555
O53 Sr16 2.706850 1_555
O53 Sr4 2.747164 1_555
O54 V12 1.750897 1_555
O54 Sr1 2.542717 1_556
O54 Sr7 2.599527 1_556
O54 Sr4 2.681138 1_555
O55 V10 1.751635 1_555
O55 Sr17 2.511320 1_556
O55 Sr12 2.620957 1_555
O55 Sr0 2.992209 1_555
