# generated using pymatgen
data_Na4Zr2Ti(CO4)4
_symmetry_space_group_name_H-M   'P 1'
_cell_length_a   6.15794281
_cell_length_b   6.15794281
_cell_length_c   18.19713098
_cell_angle_alpha   86.59703821
_cell_angle_beta   86.59703821
_cell_angle_gamma   66.25483965
_symmetry_Int_Tables_number   1
_chemical_formula_structural   Na4Zr2Ti(CO4)4
_chemical_formula_sum   'Na8 Zr4 Ti2 C8 O32'
_cell_volume   630.03636369
_cell_formula_units_Z   2
loop_
 _symmetry_equiv_pos_site_id
 _symmetry_equiv_pos_as_xyz
  1  'x, y, z'
loop_
 _atom_site_type_symbol
 _atom_site_label
 _atom_site_symmetry_multiplicity
 _atom_site_fract_x
 _atom_site_fract_y
 _atom_site_fract_z
 _atom_site_occupancy
  Na  Na0  1  0.54308100  0.66242400  0.91830800  1
  Na  Na1  1  0.04136800  0.21477400  0.93371600  1
  Na  Na2  1  0.66242400  0.54308100  0.41830800  1
  Na  Na3  1  0.45691900  0.33757600  0.08169200  1
  Na  Na4  1  0.95863200  0.78522600  0.06628400  1
  Na  Na5  1  0.33757600  0.45691900  0.58169200  1
  Na  Na6  1  0.78522600  0.95863200  0.56628400  1
  Na  Na7  1  0.21477400  0.04136800  0.43371600  1
  Zr  Zr0  1  0.99563100  0.61975600  0.74777000  1
  Zr  Zr1  1  0.38024400  0.00436900  0.75223000  1
  Zr  Zr2  1  0.61975600  0.99563100  0.24777000  1
  Zr  Zr3  1  0.00436900  0.38024400  0.25223000  1
  Ti  Ti0  1  0.30742700  0.69257300  0.25000000  1
  Ti  Ti1  1  0.69257300  0.30742700  0.75000000  1
  C  C0  1  0.74033300  0.07041900  0.38341000  1
  C  C1  1  0.07041900  0.74033300  0.88341000  1
  C  C2  1  0.79786800  0.50184800  0.60051600  1
  C  C3  1  0.92958100  0.25966700  0.11659000  1
  C  C4  1  0.20213200  0.49815200  0.39948400  1
  C  C5  1  0.50184800  0.79786800  0.10051600  1
  C  C6  1  0.49815200  0.20213200  0.89948400  1
  C  C7  1  0.25966700  0.92958100  0.61659000  1
  O  O0  1  0.58589700  0.72415000  0.03753600  1
  O  O1  1  0.05164700  0.38770600  0.12727300  1
  O  O2  1  0.94835300  0.61229400  0.87272700  1
  O  O3  1  0.09537800  0.80741500  0.94501600  1
  O  O4  1  0.78821700  0.16992800  0.32163400  1
  O  O5  1  0.16992800  0.78821700  0.82163400  1
  O  O6  1  0.27031300  0.65429000  0.36461300  1
  O  O7  1  0.36120300  0.36773000  0.73993200  1
  O  O8  1  0.41410300  0.27585000  0.96246400  1
  O  O9  1  0.65429000  0.27031300  0.86461300  1
  O  O10  1  0.05723600  0.42525600  0.36751200  1
  O  O11  1  0.98490400  0.74284800  0.23712000  1
  O  O12  1  0.34571000  0.72968700  0.13538700  1
  O  O13  1  0.19258500  0.90462200  0.55498400  1
  O  O14  1  0.72415000  0.58589700  0.53753600  1
  O  O15  1  0.57474400  0.94276400  0.13248800  1
  O  O16  1  0.72968700  0.34571000  0.63538700  1
  O  O17  1  0.01509600  0.25715200  0.76288000  1
  O  O18  1  0.94276400  0.57474400  0.63248800  1
  O  O19  1  0.90462200  0.19258500  0.05498400  1
  O  O20  1  0.83007200  0.21178300  0.17836600  1
  O  O21  1  0.25715200  0.01509600  0.26288000  1
  O  O22  1  0.42525600  0.05723600  0.86751200  1
  O  O23  1  0.63227000  0.63879700  0.76006800  1
  O  O24  1  0.38770600  0.05164700  0.62727300  1
  O  O25  1  0.36773000  0.36120300  0.23993200  1
  O  O26  1  0.63879700  0.63227000  0.26006800  1
  O  O27  1  0.21178300  0.83007200  0.67836600  1
  O  O28  1  0.27585000  0.41410300  0.46246400  1
  O  O29  1  0.74284800  0.98490400  0.73712000  1
  O  O30  1  0.80741500  0.09537800  0.44501600  1
  O  O31  1  0.61229400  0.94835300  0.37272700  1
loop_
_geom_bond_atom_site_label_1
_geom_bond_atom_site_label_2
_geom_bond_distance
_geom_bond_site_symmetry_2
Na0 O0 2.273261 1_556
Na0 O22 2.384100 1_565
Na0 O9 2.474458 1_555
Na0 O2 2.485100 1_555
Na0 O3 2.558151 1_555
Na0 O5 2.803491 1_555
Na0 O8 2.857103 1_555
Na0 O23 2.900353 1_555
Na1 O19 2.331025 1_456
Na1 O3 2.391741 1_545
Na1 O22 2.436092 1_555
Na1 O2 2.485115 1_455
Na1 O8 2.558233 1_555
Na1 O9 2.651045 1_455
Na2 O14 2.273261 1_555
Na2 O10 2.384100 1_655
Na2 O6 2.474458 1_555
Na2 O31 2.485100 1_555
Na2 O30 2.558151 1_555
Na2 O4 2.803491 1_555
Na2 O28 2.857103 1_555
Na2 O26 2.900353 1_555
Na3 O8 2.273261 1_554
Na3 O15 2.384100 1_545
Na3 O12 2.474458 1_555
Na3 O1 2.485100 1_555
Na3 O19 2.558151 1_555
Na3 O20 2.803491 1_555
Na3 O0 2.857103 1_555
Na3 O25 2.900353 1_555
Na4 O3 2.331025 1_654
Na4 O19 2.391741 1_565
Na4 O15 2.436092 1_555
Na4 O1 2.485115 1_655
Na4 O0 2.558233 1_555
Na4 O12 2.651045 1_655
Na5 O28 2.273261 1_555
Na5 O18 2.384100 1_455
Na5 O16 2.474458 1_555
Na5 O24 2.485100 1_555
Na5 O13 2.558151 1_555
Na5 O27 2.803491 1_555
Na5 O14 2.857103 1_555
Na5 O7 2.900353 1_555
Na6 O30 2.331025 1_565
Na6 O13 2.391741 1_655
Na6 O18 2.436092 1_555
Na6 O24 2.485115 1_565
Na6 O14 2.558233 1_555
Na6 O16 2.651045 1_565
Na7 O13 2.331025 1_545
Na7 O30 2.391741 1_455
Na7 O10 2.436092 1_555
Na7 O31 2.485115 1_545
Na7 O28 2.558233 1_555
Na7 O6 2.651045 1_545
C0 O30 1.256019 1_555
C0 O31 1.318071 1_545
C0 O4 1.323074 1_555
C1 O3 1.256019 1_555
C1 O2 1.318071 1_455
C1 O5 1.323074 1_555
C2 O14 1.260762 1_555
C2 O16 1.313179 1_555
C2 O18 1.323372 1_555
C3 O19 1.256019 1_555
C3 O1 1.318071 1_655
C3 O20 1.323074 1_555
C4 O28 1.260762 1_555
C4 O6 1.313179 1_555
C4 O10 1.323372 1_555
C5 O0 1.260762 1_555
C5 O12 1.313179 1_555
C5 O15 1.323372 1_555
C6 O8 1.260762 1_555
C6 O9 1.313179 1_555
C6 O22 1.323372 1_555
C7 O13 1.256019 1_555
C7 O24 1.318071 1_565
C7 O27 1.323074 1_555
O1 Zr3 2.275321 1_555
O2 Zr0 2.275321 1_555
O4 Zr2 2.295269 1_545
O4 Zr3 2.457360 1_655
O5 Zr0 2.295269 1_455
O5 Zr1 2.457360 1_565
O6 Ti0 2.094298 1_555
O7 Ti1 1.939433 1_555
O7 Zr0 2.161302 1_455
O7 Zr1 2.191545 1_555
O9 Ti1 2.094298 1_555
O10 Zr3 2.192342 1_555
O11 Ti0 1.909648 1_655
O11 Zr2 2.163775 1_555
O11 Zr3 2.188897 1_655
O12 Ti0 2.094298 1_555
O15 Zr2 2.192342 1_555
O16 Ti1 2.094298 1_555
O17 Ti1 1.909648 1_455
O17 Zr1 2.163775 1_555
O17 Zr0 2.188897 1_455
O18 Zr0 2.192342 1_555
O20 Zr3 2.295269 1_655
O20 Zr2 2.457360 1_545
O21 Ti0 1.909648 1_545
O21 Zr3 2.163775 1_555
O21 Zr2 2.188897 1_545
O22 Zr1 2.192342 1_555
O23 Ti1 1.939433 1_555
O23 Zr1 2.161302 1_565
O23 Zr0 2.191545 1_555
O24 Zr1 2.275321 1_555
O25 Ti0 1.939433 1_555
O25 Zr2 2.161302 1_545
O25 Zr3 2.191545 1_555
O26 Ti0 1.939433 1_555
O26 Zr3 2.161302 1_655
O26 Zr2 2.191545 1_555
O27 Zr1 2.295269 1_565
O27 Zr0 2.457360 1_455
O29 Ti1 1.909648 1_565
O29 Zr0 2.163775 1_555
O29 Zr1 2.188897 1_565
O31 Zr2 2.275321 1_555
