# generated using pymatgen
data_SnICl
_symmetry_space_group_name_H-M   'P 1'
_cell_length_a   4.41004099
_cell_length_b   8.78950405
_cell_length_c   10.42826698
_cell_angle_alpha   90.00000000
_cell_angle_beta   90.00000000
_cell_angle_gamma   90.00000000
_symmetry_Int_Tables_number   1
_chemical_formula_structural   SnICl
_chemical_formula_sum   'Sn4 I4 Cl4'
_cell_volume   404.22124743
_cell_formula_units_Z   4
loop_
 _symmetry_equiv_pos_site_id
 _symmetry_equiv_pos_as_xyz
  1  'x, y, z'
loop_
 _atom_site_type_symbol
 _atom_site_label
 _atom_site_symmetry_multiplicity
 _atom_site_fract_x
 _atom_site_fract_y
 _atom_site_fract_z
 _atom_site_occupancy
  Sn  Sn0  1  0.75000000  0.63102390  0.85155135  1
  Sn  Sn1  1  0.25000000  0.36897610  0.14844865  1
  Sn  Sn2  1  0.75000000  0.13102390  0.64844865  1
  Sn  Sn3  1  0.25000000  0.86897610  0.35155135  1
  I  I0  1  0.75000000  0.98978058  0.17339022  1
  I  I1  1  0.25000000  0.51021942  0.67339022  1
  I  I2  1  0.75000000  0.48978058  0.32660978  1
  I  I3  1  0.25000000  0.01021942  0.82660978  1
  Cl  Cl0  1  0.25000000  0.64101980  0.05232179  1
  Cl  Cl1  1  0.75000000  0.85898020  0.55232179  1
  Cl  Cl2  1  0.25000000  0.14101980  0.44767821  1
  Cl  Cl3  1  0.75000000  0.35898020  0.94767821  1
loop_
_geom_bond_atom_site_label_1
_geom_bond_atom_site_label_2
_geom_bond_distance
_geom_bond_site_symmetry_2
I0 Sn3 3.072685 1_655
I0 Sn3 3.072685 1_555
I1 Sn0 3.072685 1_555
I1 Sn0 3.072685 1_455
I2 Sn1 3.072685 1_655
I2 Sn1 3.072685 1_555
I3 Sn2 3.072685 1_555
I3 Sn2 3.072685 1_455
Cl0 Sn1 2.592755 1_555
Cl0 Sn0 3.041934 1_454
Cl0 Sn0 3.041934 1_554
Cl1 Sn2 2.592755 1_565
Cl1 Sn3 3.041934 1_655
Cl1 Sn3 3.041934 1_555
Cl2 Sn3 2.592755 1_545
Cl2 Sn2 3.041934 1_455
Cl2 Sn2 3.041934 1_555
Cl3 Sn0 2.592755 1_555
Cl3 Sn1 3.041934 1_556
Cl3 Sn1 3.041934 1_656
