# generated using pymatgen
data_P3Pd7
_symmetry_space_group_name_H-M   'P 1'
_cell_length_a   7.38341487
_cell_length_b   7.38341487
_cell_length_c   7.38341502
_cell_angle_alpha   110.05484586
_cell_angle_beta   110.05484586
_cell_angle_gamma   110.05485606
_symmetry_Int_Tables_number   1
_chemical_formula_structural   P3Pd7
_chemical_formula_sum   'P6 Pd14'
_cell_volume   302.96878235
_cell_formula_units_Z   2
loop_
 _symmetry_equiv_pos_site_id
 _symmetry_equiv_pos_as_xyz
  1  'x, y, z'
loop_
 _atom_site_type_symbol
 _atom_site_label
 _atom_site_symmetry_multiplicity
 _atom_site_fract_x
 _atom_site_fract_y
 _atom_site_fract_z
 _atom_site_occupancy
  P  P0  1  0.49991500  0.87664000  0.69982600  1
  P  P1  1  0.69982600  0.49991500  0.87664000  1
  P  P2  1  0.87664000  0.69982600  0.49991500  1
  P  P3  1  0.07720100  0.24755400  0.45351100  1
  P  P4  1  0.45351100  0.07720100  0.24755400  1
  P  P5  1  0.24755400  0.45351100  0.07720100  1
  Pd  Pd0  1  0.89194200  0.81872200  0.25115400  1
  Pd  Pd1  1  0.25115400  0.89194200  0.81872200  1
  Pd  Pd2  1  0.81872200  0.25115400  0.89194200  1
  Pd  Pd3  1  0.70221700  0.05479500  0.12683200  1
  Pd  Pd4  1  0.12683200  0.70221700  0.05479500  1
  Pd  Pd5  1  0.05479500  0.12683200  0.70221700  1
  Pd  Pd6  1  0.38878800  0.56240900  0.83480900  1
  Pd  Pd7  1  0.83480900  0.38878800  0.56240900  1
  Pd  Pd8  1  0.56240900  0.83480900  0.38878800  1
  Pd  Pd9  1  0.12467300  0.55892200  0.38379800  1
  Pd  Pd10  1  0.38379800  0.12467300  0.55892200  1
  Pd  Pd11  1  0.55892200  0.38379800  0.12467300  1
  Pd  Pd12  1  0.77537400  0.77537400  0.77537400  1
  Pd  Pd13  1  0.17191900  0.17191900  0.17191900  1
loop_
_geom_bond_atom_site_label_1
_geom_bond_atom_site_label_2
_geom_bond_distance
_geom_bond_site_symmetry_2
P0 Pd1 2.310197 1_555
P0 Pd12 2.357445 1_555
P0 Pd2 2.398953 1_565
P0 Pd8 2.433177 1_555
P0 Pd9 2.445051 1_555
P0 Pd3 2.545527 1_566
P0 Pd10 2.634940 1_565
P0 Pd6 2.808996 1_555
P1 Pd2 2.310197 1_555
P1 Pd12 2.357445 1_555
P1 Pd0 2.398953 1_556
P1 Pd6 2.433177 1_555
P1 Pd10 2.445051 1_555
P1 Pd4 2.545527 1_656
P1 Pd11 2.634940 1_556
P1 Pd7 2.808997 1_555
P2 Pd0 2.310197 1_555
P2 Pd12 2.357445 1_555
P2 Pd1 2.398953 1_655
P2 Pd7 2.433177 1_555
P2 Pd11 2.445051 1_555
P2 Pd5 2.545527 1_665
P2 Pd9 2.634940 1_655
P2 Pd8 2.808997 1_555
P3 Pd5 2.328868 1_555
P3 Pd13 2.364826 1_555
P3 Pd3 2.423204 1_455
P3 Pd6 2.454405 1_555
P3 Pd9 2.460824 1_555
P3 Pd0 2.551859 1_445
P3 Pd7 2.574620 1_455
P3 Pd10 2.690342 1_555
P4 Pd3 2.328868 1_555
P4 Pd13 2.364826 1_555
P4 Pd4 2.423204 1_545
P4 Pd7 2.454405 1_555
P4 Pd10 2.460825 1_555
P4 Pd1 2.551859 1_544
P4 Pd8 2.574620 1_545
P4 Pd11 2.690342 1_555
P5 Pd4 2.328868 1_555
P5 Pd13 2.364826 1_555
P5 Pd5 2.423204 1_554
P5 Pd8 2.454405 1_555
P5 Pd11 2.460825 1_555
P5 Pd2 2.551859 1_454
P5 Pd6 2.574620 1_554
P5 Pd9 2.690342 1_555
