# generated using pymatgen
data_La5Al3Ni2
_symmetry_space_group_name_H-M   'P 1'
_cell_length_a   7.92030765
_cell_length_b   7.92033359
_cell_length_c   10.42508063
_cell_angle_alpha   90.00215547
_cell_angle_beta   90.00235211
_cell_angle_gamma   128.47397737
_symmetry_Int_Tables_number   1
_chemical_formula_structural   La5Al3Ni2
_chemical_formula_sum   'La10 Al6 Ni4'
_cell_volume   511.99549684
_cell_formula_units_Z   2
loop_
 _symmetry_equiv_pos_site_id
 _symmetry_equiv_pos_as_xyz
  1  'x, y, z'
loop_
 _atom_site_type_symbol
 _atom_site_label
 _atom_site_symmetry_multiplicity
 _atom_site_fract_x
 _atom_site_fract_y
 _atom_site_fract_z
 _atom_site_occupancy
  La  La0  1  0.87480724  0.12521865  0.00001957  1
  La  La1  1  0.47227026  0.03845809  0.24991786  1
  La  La2  1  0.12520767  0.87476882  0.49996584  1
  La  La3  1  0.12521266  0.87478687  0.00002159  1
  La  La4  1  0.52772566  0.96154931  0.75008185  1
  La  La5  1  0.87476524  0.12521955  0.49996472  1
  La  La6  1  0.39387203  0.39387329  0.75011050  1
  La  La7  1  0.96154065  0.52772038  0.75008499  1
  La  La8  1  0.03851493  0.47232162  0.24993068  1
  La  La9  1  0.60612009  0.60612243  0.24989532  1
  Al  Al0  1  0.87906958  0.87906959  0.75002853  1
  Al  Al1  1  0.35409325  0.64592440  -0.00000397  1
  Al  Al2  1  0.35411441  0.64588900  0.50000489  1
  Al  Al3  1  0.12085578  0.12086497  0.24996639  1
  Al  Al4  1  0.64593491  0.35408507  -0.00000389  1
  Al  Al5  1  0.64587461  0.35410348  0.50000931  1
  Ni  Ni0  1  0.66999451  0.66999846  0.56083327  1
  Ni  Ni1  1  0.67011452  0.67010783  0.93923063  1
  Ni  Ni2  1  0.32991080  0.32990570  0.06078712  1
  Ni  Ni3  1  0.33000119  0.33001250  0.43915480  1
loop_
_geom_bond_atom_site_label_1
_geom_bond_atom_site_label_2
_geom_bond_distance
_geom_bond_site_symmetry_2
La0 Ni2 2.958172 1_655
La0 Ni1 2.958274 1_544
La0 La8 3.404502 1_655
La0 La4 3.404645 1_544
La0 La3 3.572490 1_645
La0 La1 3.833894 1_555
La0 La7 3.834026 1_554
La1 La3 3.404204 1_545
La1 La2 3.405667 1_545
La1 La8 3.569368 1_545
La1 La8 3.570078 1_655
La1 Ni2 3.704900 1_555
La1 Ni3 3.705638 1_555
La1 La5 3.834492 1_555
La1 La9 3.925269 1_555
La1 La9 4.167299 1_545
La2 Ni0 2.959108 1_455
La2 Ni3 2.959166 1_565
La2 La7 3.406195 1_455
La2 La5 3.572890 1_465
La2 La8 3.834335 1_555
La2 La4 3.835062 1_555
La3 Ni1 2.958200 1_454
La3 Ni2 2.958268 1_565
La3 La7 3.404575 1_454
La3 La8 3.833732 1_555
La3 La4 3.834046 1_554
La4 La5 3.406134 1_565
La4 La7 3.569633 1_565
La4 La7 3.569718 1_455
La4 Ni1 3.705122 1_555
La4 Ni0 3.705678 1_555
La4 La6 3.925346 1_555
La4 La6 4.167231 1_565
La5 Ni3 2.959100 1_655
La5 Ni0 2.959175 1_545
La5 La8 3.405678 1_655
La5 La7 3.835022 1_555
La6 Ni1 2.739319 1_555
La6 Ni0 2.740198 1_555
La6 Ni2 3.268673 1_556
La6 Ni3 3.271386 1_555
La6 La7 3.925295 1_555
La6 La7 4.167240 1_455
La7 Ni1 3.705001 1_555
La7 Ni0 3.705706 1_555
La8 Ni2 3.704950 1_555
La8 Ni3 3.705338 1_555
La8 La9 3.924966 1_555
La8 La9 4.167452 1_455
La9 Ni2 2.739108 1_555
La9 Ni3 2.740020 1_555
La9 Ni1 3.268574 1_554
La9 Ni0 3.271211 1_555
Al0 Ni1 2.441503 1_555
Al0 Ni0 2.441700 1_555
Al0 La7 3.229934 1_555
Al0 La4 3.229936 1_555
Al0 La0 3.267368 1_566
Al0 La3 3.267408 1_656
Al0 La2 3.268143 1_655
Al0 La5 3.268219 1_565
Al1 Ni1 2.471136 1_554
Al1 Ni2 2.471195 1_555
Al1 La8 3.263658 1_555
Al1 La4 3.263662 1_554
Al1 La3 3.265098 1_555
Al1 La0 3.455193 1_455
Al1 La0 3.455247 1_565
Al1 La7 3.702460 1_454
Al1 La1 3.702507 1_565
Al2 Ni0 2.470493 1_555
Al2 Ni3 2.470517 1_555
Al2 La8 3.264673 1_555
Al2 La4 3.264927 1_555
Al2 La2 3.265409 1_555
Al2 La5 3.455095 1_565
Al2 La5 3.455225 1_455
Al2 La7 3.704119 1_455
Al2 La1 3.704175 1_565
Al3 Ni2 2.441674 1_555
Al3 Ni3 2.441940 1_555
Al3 La8 3.230013 1_555
Al3 La1 3.230062 1_555
Al3 La0 3.266787 1_455
Al3 La3 3.266930 1_545
Al3 La5 3.267544 1_455
Al3 La2 3.267570 1_545
Al4 Ni1 2.471170 1_554
Al4 Ni2 2.471243 1_555
Al4 La7 3.263557 1_554
Al4 La1 3.263719 1_555
Al4 La0 3.265068 1_555
Al4 La3 3.455154 1_655
Al4 La3 3.455292 1_545
Al4 La4 3.702394 1_544
Al4 La8 3.702711 1_655
Al5 Ni0 2.470559 1_555
Al5 Ni3 2.470593 1_555
Al5 La7 3.264929 1_555
Al5 La1 3.264991 1_555
Al5 La5 3.265323 1_555
Al5 La2 3.455163 1_655
Al5 La2 3.455171 1_545
Al5 La4 3.704002 1_545
Al5 La8 3.704362 1_655
Ni0 Ni3 2.662379 1_555
Ni1 Ni2 2.663267 1_556
