# generated using pymatgen
data_Co2As2O7
_symmetry_space_group_name_H-M   'P 1'
_cell_length_a   4.90623146
_cell_length_b   5.34830392
_cell_length_c   5.46262714
_cell_angle_alpha   107.04163967
_cell_angle_beta   95.91419517
_cell_angle_gamma   97.26359609
_symmetry_Int_Tables_number   1
_chemical_formula_structural   Co2As2O7
_chemical_formula_sum   'Co2 As2 O7'
_cell_volume   134.45462512
_cell_formula_units_Z   1
loop_
 _symmetry_equiv_pos_site_id
 _symmetry_equiv_pos_as_xyz
  1  'x, y, z'
loop_
 _atom_site_type_symbol
 _atom_site_label
 _atom_site_symmetry_multiplicity
 _atom_site_fract_x
 _atom_site_fract_y
 _atom_site_fract_z
 _atom_site_occupancy
  Co  Co0  1  0.50563800  0.68735200  0.30845500  1
  Co  Co1  1  0.49453600  0.31487400  0.69496100  1
  As  As0  1  0.10446800  0.75333300  0.75445600  1
  As  As1  1  0.89538900  0.24312600  0.24154400  1
  O  O0  1  0.29496200  0.93734400  0.59830300  1
  O  O1  1  0.77413900  0.58546900  0.59415300  1
  O  O2  1  0.22185600  0.41643800  0.40792200  1
  O  O3  1  0.00228900  0.00071000  0.99849100  1
  O  O4  1  0.29504000  0.59187800  0.92687600  1
  O  O5  1  0.70432300  0.40753600  0.07367600  1
  O  O6  1  0.70735900  0.06193900  0.40116200  1
loop_
_geom_bond_atom_site_label_1
_geom_bond_atom_site_label_2
_geom_bond_distance
_geom_bond_site_symmetry_2
Co0 O6 2.012522 1_565
Co0 O5 2.082363 1_555
Co0 O2 2.107215 1_555
Co0 O4 2.114722 1_554
Co0 O1 2.173528 1_555
Co0 O0 2.192915 1_555
Co1 O0 2.020672 1_545
Co1 O4 2.068793 1_555
Co1 O1 2.097690 1_555
Co1 O5 2.101453 1_556
Co1 O2 2.189550 1_555
Co1 O6 2.219457 1_555
As0 O0 1.730147 1_555
As0 O4 1.733885 1_555
As0 O3 1.746572 1_565
As0 O1 1.754483 1_455
As0 O2 2.376874 1_555
As1 O6 1.727805 1_555
As1 O5 1.731108 1_555
As1 O3 1.739344 1_654
As1 O2 1.755427 1_655
As1 O1 2.420916 1_555
