# generated using pymatgen
data_CsTaPS6
_symmetry_space_group_name_H-M   'P 1'
_cell_length_a   13.28803500
_cell_length_b   8.94039500
_cell_length_c   17.65152988
_cell_angle_alpha   80.71931900
_cell_angle_beta   90.00000000
_cell_angle_gamma   90.00000000
_symmetry_Int_Tables_number   1
_chemical_formula_structural   CsTaPS6
_chemical_formula_sum   'Cs8 Ta8 P8 S48'
_cell_volume   2069.55721809
_cell_formula_units_Z   8
loop_
 _symmetry_equiv_pos_site_id
 _symmetry_equiv_pos_as_xyz
  1  'x, y, z'
loop_
 _atom_site_type_symbol
 _atom_site_label
 _atom_site_symmetry_multiplicity
 _atom_site_fract_x
 _atom_site_fract_y
 _atom_site_fract_z
 _atom_site_occupancy
  Cs  Cs0  1  0.60905900  0.30958000  0.21906500  1
  Cs  Cs1  1  0.39094100  0.69042000  0.78093500  1
  Cs  Cs2  1  0.89094100  0.30958000  0.71906500  1
  Cs  Cs3  1  0.10905900  0.69042000  0.28093500  1
  Cs  Cs4  1  0.43821300  0.84149400  0.17650600  1
  Cs  Cs5  1  0.56178700  0.15850600  0.82349400  1
  Cs  Cs6  1  0.93821300  0.15850600  0.32349400  1
  Cs  Cs7  1  0.06178700  0.84149400  0.67650600  1
  Ta  Ta0  1  0.68505700  0.83904600  0.63666000  1
  Ta  Ta1  1  0.75857800  0.59180800  0.00758000  1
  Ta  Ta2  1  0.81494300  0.83904600  0.13666000  1
  Ta  Ta3  1  0.18505700  0.16095400  0.86334000  1
  Ta  Ta4  1  0.31494300  0.16095400  0.36334000  1
  Ta  Ta5  1  0.74142200  0.59180800  0.50758000  1
  Ta  Ta6  1  0.25857800  0.40819200  0.49242000  1
  Ta  Ta7  1  0.24142200  0.40819200  0.99242000  1
  P  P0  1  0.75538500  0.22077500  0.50657900  1
  P  P1  1  0.25538500  0.77922500  0.99342100  1
  P  P2  1  0.26302400  0.29683700  0.17971700  1
  P  P3  1  0.23697600  0.29683700  0.67971700  1
  P  P4  1  0.76302400  0.70316300  0.32028300  1
  P  P5  1  0.74461500  0.22077500  0.00657900  1
  P  P6  1  0.24461500  0.77922500  0.49342100  1
  P  P7  1  0.73697600  0.70316300  0.82028300  1
  S  S0  1  0.65885900  0.60533900  0.73934200  1
  S  S1  1  0.70674500  0.89067600  0.24874600  1
  S  S2  1  0.15885900  0.39466100  0.76065800  1
  S  S3  1  0.20022300  0.85921100  0.08380800  1
  S  S4  1  0.15422000  0.64923200  0.94082100  1
  S  S5  1  0.58172600  0.65952300  0.56913400  1
  S  S6  1  0.65422000  0.35076800  0.55917900  1
  S  S7  1  0.84364100  0.66491700  0.59857900  1
  S  S8  1  0.35658200  0.25063100  0.09430700  1
  S  S9  1  0.18552700  0.95344500  0.41260400  1
  S  S10  1  0.05337600  0.02246000  0.84215500  1
  S  S11  1  0.44662400  0.02246000  0.34215500  1
  S  S12  1  0.84114100  0.60533900  0.23934200  1
  S  S13  1  0.13490100  0.61453600  0.51946700  1
  S  S14  1  0.81447300  0.04655500  0.58739600  1
  S  S15  1  0.29325500  0.10932400  0.75125400  1
  S  S16  1  0.34114100  0.39466100  0.26065800  1
  S  S17  1  0.65635900  0.66491700  0.09857900  1
  S  S18  1  0.64194300  0.84525600  0.49659700  1
  S  S19  1  0.68552700  0.04655500  0.08739600  1
  S  S20  1  0.15635900  0.33508300  0.40142100  1
  S  S21  1  0.14341800  0.25063100  0.59430700  1
  S  S22  1  0.63490100  0.38546400  0.98053300  1
  S  S23  1  0.64341800  0.74936900  0.90569300  1
  S  S24  1  0.91827400  0.65952300  0.06913400  1
  S  S25  1  0.36509900  0.61453600  0.01946700  1
  S  S26  1  0.79325500  0.89067600  0.74874600  1
  S  S27  1  0.29977700  0.85921100  0.58380800  1
  S  S28  1  0.79977700  0.14078900  0.91619200  1
  S  S29  1  0.41827400  0.34047700  0.43086600  1
  S  S30  1  0.84686800  0.57141200  0.87641400  1
  S  S31  1  0.14194300  0.15474400  0.00340300  1
  S  S32  1  0.34578000  0.64923200  0.44082100  1
  S  S33  1  0.55337600  0.97754000  0.65784500  1
  S  S34  1  0.15313200  0.42858800  0.12358600  1
  S  S35  1  0.85805700  0.84525600  0.99659700  1
  S  S36  1  0.31447300  0.95344500  0.91260400  1
  S  S37  1  0.08172600  0.34047700  0.93086600  1
  S  S38  1  0.86509900  0.38546400  0.48053300  1
  S  S39  1  0.35805700  0.15474400  0.50340300  1
  S  S40  1  0.34364100  0.33508300  0.90142100  1
  S  S41  1  0.84578000  0.35076800  0.05917900  1
  S  S42  1  0.20674500  0.10932400  0.25125400  1
  S  S43  1  0.34686800  0.42858800  0.62358600  1
  S  S44  1  0.65313200  0.57141200  0.37641400  1
  S  S45  1  0.70022300  0.14078900  0.41619200  1
  S  S46  1  0.94662400  0.97754000  0.15784500  1
  S  S47  1  0.85658200  0.74936900  0.40569300  1
loop_
_geom_bond_atom_site_label_1
_geom_bond_atom_site_label_2
_geom_bond_distance
_geom_bond_site_symmetry_2
Cs0 S17 3.582084 1_555
Cs0 S19 3.704967 1_555
Cs0 S16 3.737925 1_555
Cs0 S45 3.762799 1_555
Cs0 S11 3.764307 1_555
Cs0 S1 3.918269 1_545
Cs0 S44 3.953986 1_555
Cs0 S8 4.093551 1_555
Cs0 S12 4.115300 1_555
Cs0 S22 4.169505 1_554
Cs0 S41 4.202371 1_555
Cs1 S40 3.582084 1_555
Cs1 S36 3.704967 1_555
Cs1 S0 3.737925 1_555
Cs1 S27 3.762799 1_555
Cs1 S33 3.764307 1_555
Cs1 S15 3.918269 1_565
Cs1 S43 3.953986 1_555
Cs1 S23 4.093551 1_555
Cs1 S2 4.115300 1_555
Cs1 S25 4.169505 1_556
Cs1 S4 4.202371 1_555
Cs2 S7 3.582084 1_555
Cs2 S14 3.704967 1_555
Cs2 S2 3.737925 1_655
Cs2 S28 3.762799 1_555
Cs2 S10 3.764307 1_655
Cs2 S26 3.918269 1_545
Cs2 S30 3.953986 1_555
Cs2 S21 4.093551 1_655
Cs2 S0 4.115300 1_555
Cs2 S38 4.169505 1_555
Cs2 S6 4.202371 1_555
Cs3 S20 3.582084 1_555
Cs3 S9 3.704967 1_555
Cs3 S12 3.737925 1_455
Cs3 S3 3.762799 1_555
Cs3 S46 3.764307 1_455
Cs3 S42 3.918269 1_565
Cs3 S34 3.953986 1_555
Cs3 S47 4.093551 1_455
Cs3 S16 4.115300 1_555
Cs3 S13 4.169505 1_555
Cs3 S32 4.202371 1_555
Cs4 S3 3.552428 1_555
Cs4 S11 3.564477 1_565
Cs4 S17 3.672509 1_555
Cs4 S25 3.815646 1_555
Cs4 S1 3.838318 1_555
Cs4 S8 3.866502 1_565
Cs4 S19 3.962948 1_565
Cs5 S28 3.552428 1_555
Cs5 S33 3.564477 1_545
Cs5 S40 3.672509 1_555
Cs5 S22 3.815646 1_555
Cs5 S15 3.838318 1_555
Cs5 S23 3.866502 1_545
Cs5 S36 3.962948 1_545
Cs6 S45 3.552428 1_555
Cs6 S46 3.564477 1_545
Cs6 S20 3.672509 1_655
Cs6 S38 3.815646 1_555
Cs6 S42 3.838318 1_655
Cs6 S47 3.866502 1_545
Cs6 S9 3.962948 1_645
Cs7 S27 3.552428 1_555
Cs7 S10 3.564477 1_565
Cs7 S7 3.672509 1_455
Cs7 S13 3.815646 1_555
Cs7 S26 3.838318 1_455
Cs7 S21 3.866502 1_565
Cs7 S14 3.962948 1_465
P0 S45 1.990522 1_555
P0 S38 2.070356 1_555
P0 S14 2.088284 1_555
P0 S6 2.089948 1_555
P1 S3 1.990522 1_556
P1 S25 2.070356 1_556
P1 S36 2.088284 1_555
P1 S4 2.089948 1_555
P2 S34 2.031020 1_555
P2 S8 2.046947 1_555
P2 S42 2.069161 1_555
P2 S16 2.070434 1_555
P3 S43 2.031020 1_555
P3 S21 2.046947 1_555
P3 S15 2.069161 1_555
P3 S2 2.070434 1_555
P4 S44 2.031020 1_555
P4 S47 2.046947 1_555
P4 S1 2.069161 1_555
P4 S12 2.070434 1_555
P5 S28 1.990522 1_554
P5 S22 2.070356 1_554
P5 S19 2.088284 1_555
P5 S41 2.089948 1_555
P6 S27 1.990522 1_555
P6 S13 2.070356 1_555
P6 S9 2.088284 1_555
P6 S32 2.089948 1_555
P7 S30 2.031020 1_555
P7 S23 2.046947 1_555
P7 S26 2.069161 1_555
P7 S0 2.070434 1_555
S0 Ta0 2.559406 1_555
S1 Ta2 2.547380 1_555
S2 Ta3 2.559406 1_555
S4 Ta7 2.486597 1_555
S5 Ta5 2.502455 1_555
S5 Ta0 2.549336 1_555
S6 Ta5 2.486597 1_555
S7 Ta5 2.278359 1_555
S7 Ta0 2.766499 1_555
S8 Ta7 2.596789 1_554
S9 Ta4 2.575842 1_565
S10 Ta3 2.209985 1_555
S11 Ta4 2.209985 1_555
S12 Ta2 2.559406 1_555
S13 Ta6 2.572183 1_555
S14 Ta0 2.575842 1_545
S15 Ta3 2.547380 1_555
S16 Ta4 2.559406 1_555
S17 Ta1 2.278359 1_555
S17 Ta2 2.766499 1_555
S18 S5 2.085964 1_555
S18 Ta0 2.529708 1_555
S18 Ta5 2.603398 1_555
S19 Ta2 2.575842 1_545
S20 Ta6 2.278359 1_555
S20 Ta4 2.766499 1_555
S21 Ta6 2.596789 1_555
S22 Ta1 2.572183 1_556
S23 Ta1 2.596789 1_556
S24 S35 2.085964 1_554
S24 Ta1 2.502455 1_555
S24 Ta2 2.549336 1_555
S25 Ta7 2.572183 1_554
S26 Ta0 2.547380 1_555
S29 S39 2.085964 1_555
S29 Ta6 2.502455 1_555
S29 Ta4 2.549336 1_555
S30 Ta1 2.627993 1_556
S31 S37 2.085964 1_554
S31 Ta3 2.529708 1_554
S31 Ta7 2.603398 1_554
S32 Ta6 2.486597 1_555
S33 Ta0 2.209985 1_555
S34 Ta7 2.627993 1_554
S35 Ta2 2.529708 1_556
S35 Ta1 2.603398 1_556
S36 Ta3 2.575842 1_565
S37 Ta7 2.502455 1_555
S37 Ta3 2.549336 1_555
S38 Ta5 2.572183 1_555
S39 Ta4 2.529708 1_555
S39 Ta6 2.603398 1_555
S40 Ta7 2.278359 1_555
S40 Ta3 2.766499 1_555
S41 Ta1 2.486597 1_555
S42 Ta4 2.547380 1_555
S43 Ta6 2.627993 1_555
S44 Ta5 2.627993 1_555
S46 Ta2 2.209985 1_555
S47 Ta5 2.596789 1_555
