# generated using pymatgen
data_LiMn4(PO4)3
_symmetry_space_group_name_H-M   'P 1'
_cell_length_a   7.48459300
_cell_length_b   7.80435077
_cell_length_c   9.85964201
_cell_angle_alpha   110.32526648
_cell_angle_beta   110.78935483
_cell_angle_gamma   94.48871587
_symmetry_Int_Tables_number   1
_chemical_formula_structural   LiMn4(PO4)3
_chemical_formula_sum   'Li2 Mn8 P6 O24'
_cell_volume   491.37882134
_cell_formula_units_Z   2
loop_
 _symmetry_equiv_pos_site_id
 _symmetry_equiv_pos_as_xyz
  1  'x, y, z'
loop_
 _atom_site_type_symbol
 _atom_site_label
 _atom_site_symmetry_multiplicity
 _atom_site_fract_x
 _atom_site_fract_y
 _atom_site_fract_z
 _atom_site_occupancy
  Li  Li0  1  0.03417500  0.18328400  0.34011500  1
  Li  Li1  1  0.96582500  0.81671600  0.65988500  1
  Mn  Mn0  1  0.66343500  0.00443900  0.91340900  1
  Mn  Mn1  1  0.96764800  0.68412200  0.28161700  1
  Mn  Mn2  1  0.03235200  0.31587800  0.71838300  1
  Mn  Mn3  1  0.55376300  0.33402600  0.54996900  1
  Mn  Mn4  1  0.64132700  0.40445000  0.91845100  1
  Mn  Mn5  1  0.33656500  0.99556100  0.08659100  1
  Mn  Mn6  1  0.35867300  0.59555000  0.08154900  1
  Mn  Mn7  1  0.44623700  0.66597400  0.45003100  1
  P  P0  1  0.09021100  0.31252900  0.08706500  1
  P  P1  1  0.70954100  0.95095100  0.39788200  1
  P  P2  1  0.67436300  0.37590200  0.25308000  1
  P  P3  1  0.90978900  0.68747100  0.91293500  1
  P  P4  1  0.32563700  0.62409800  0.74692000  1
  P  P5  1  0.29045900  0.04904900  0.60211800  1
  O  O0  1  0.25450100  0.84081000  0.48635700  1
  O  O1  1  0.61890000  0.50033900  0.15381500  1
  O  O2  1  0.86262800  0.27007000  0.00950900  1
  O  O3  1  0.40244700  0.83427800  0.86607900  1
  O  O4  1  0.71762000  0.82105600  0.48859600  1
  O  O5  1  0.84694400  0.83037100  0.83983500  1
  O  O6  1  0.43293700  0.58155100  0.63246300  1
  O  O7  1  0.50287200  0.11432800  0.73948400  1
  O  O8  1  0.28238000  0.17894400  0.51140400  1
  O  O9  1  0.89866500  0.42804800  0.33627000  1
  O  O10  1  0.17760800  0.52151100  0.21761400  1
  O  O11  1  0.15305600  0.16962900  0.16016500  1
  O  O12  1  0.86921900  0.93911700  0.33262500  1
  O  O13  1  0.83042500  0.69053300  0.03879100  1
  O  O14  1  0.56706300  0.41844900  0.36753700  1
  O  O15  1  0.16957500  0.30946700  0.96120900  1
  O  O16  1  0.13078100  0.06088300  0.66737500  1
  O  O17  1  0.13737200  0.72993000  0.99049100  1
  O  O18  1  0.49712800  0.88567200  0.26051600  1
  O  O19  1  0.82239200  0.47848900  0.78238600  1
  O  O20  1  0.10133500  0.57195200  0.66373000  1
  O  O21  1  0.59755300  0.16572200  0.13392100  1
  O  O22  1  0.38110000  0.49966100  0.84618500  1
  O  O23  1  0.74549900  0.15919000  0.51364300  1
loop_
_geom_bond_atom_site_label_1
_geom_bond_atom_site_label_2
_geom_bond_distance
_geom_bond_site_symmetry_2
Li0 O8 2.031480 1_555
Li0 O12 2.151791 1_445
Li0 O11 2.226013 1_555
Li0 O9 2.237262 1_455
Li1 O4 2.031480 1_555
Li1 O16 2.151791 1_665
Li1 O5 2.226013 1_555
Li1 O20 2.237262 1_655
Mn0 O3 2.076878 1_545
Mn0 O2 2.137060 1_556
Mn0 O5 2.138438 1_545
Mn0 O7 2.200105 1_555
Mn0 O21 2.347669 1_556
Mn1 O12 2.133832 1_555
Mn1 O10 2.222169 1_655
Mn1 O0 2.231025 1_655
Mn1 O13 2.266090 1_555
Mn1 O9 2.309767 1_555
Mn1 O1 2.506387 1_555
Mn2 O16 2.133832 1_555
Mn2 O19 2.222169 1_455
Mn2 O23 2.231025 1_455
Mn2 O15 2.266090 1_555
Mn2 O20 2.309767 1_555
Mn2 O22 2.506387 1_555
Mn3 O23 2.093169 1_555
Mn3 O8 2.117173 1_555
Mn3 O14 2.149307 1_555
Mn3 O6 2.217019 1_555
Mn3 O19 2.268154 1_555
Mn4 O22 2.112471 1_555
Mn4 O2 2.125980 1_556
Mn4 O13 2.206543 1_556
Mn4 O7 2.207562 1_555
Mn4 O1 2.250146 1_556
Mn4 O19 2.382591 1_555
Mn5 O21 2.076878 1_565
Mn5 O17 2.137060 1_554
Mn5 O11 2.138438 1_565
Mn5 O18 2.200105 1_555
Mn5 O3 2.347669 1_554
Mn6 O1 2.112471 1_555
Mn6 O17 2.125980 1_554
Mn6 O15 2.206543 1_554
Mn6 O18 2.207562 1_555
Mn6 O22 2.250146 1_554
Mn6 O10 2.382591 1_555
Mn7 O0 2.093169 1_555
Mn7 O4 2.117173 1_555
Mn7 O6 2.149307 1_555
Mn7 O14 2.217019 1_555
Mn7 O10 2.268154 1_555
O0 P5 1.562434 1_565
O1 P2 1.583773 1_555
O2 P0 1.551449 1_655
O3 P4 1.560641 1_555
O4 P1 1.559612 1_555
O5 P3 1.544128 1_555
O6 P4 1.566371 1_555
O7 P5 1.576963 1_555
O8 P5 1.559612 1_555
O9 P2 1.529859 1_555
O10 P0 1.587974 1_555
O11 P0 1.544128 1_555
O12 P1 1.540351 1_555
O13 P3 1.548580 1_554
O14 P2 1.566371 1_555
O15 P0 1.548580 1_556
O16 P5 1.540351 1_555
O17 P3 1.551449 1_455
O18 P1 1.576963 1_555
O19 P3 1.587974 1_555
O20 P4 1.529859 1_555
O21 P2 1.560641 1_555
O22 P4 1.583773 1_555
O23 P1 1.562434 1_545
