# generated using pymatgen
data_TeS2(NCl)2
_symmetry_space_group_name_H-M   'P 1'
_cell_length_a   11.25121081
_cell_length_b   11.25121081
_cell_length_c   7.75902790
_cell_angle_alpha   83.80858390
_cell_angle_beta   83.80858390
_cell_angle_gamma   49.65493899
_symmetry_Int_Tables_number   1
_chemical_formula_structural   TeS2(NCl)2
_chemical_formula_sum   'Te4 S8 N8 Cl8'
_cell_volume   743.29871341
_cell_formula_units_Z   4
loop_
 _symmetry_equiv_pos_site_id
 _symmetry_equiv_pos_as_xyz
  1  'x, y, z'
loop_
 _atom_site_type_symbol
 _atom_site_label
 _atom_site_symmetry_multiplicity
 _atom_site_fract_x
 _atom_site_fract_y
 _atom_site_fract_z
 _atom_site_occupancy
  Te  Te0  1  0.23256500  0.56755800  0.69953500  1
  Te  Te1  1  0.43244200  0.76743500  0.80046500  1
  Te  Te2  1  0.56755800  0.23256500  0.19953500  1
  Te  Te3  1  0.76743500  0.43244200  0.30046500  1
  S  S0  1  0.09982200  0.31021400  0.17722400  1
  S  S1  1  0.84287600  0.99496700  0.12938600  1
  S  S2  1  0.99496700  0.84287600  0.62938600  1
  S  S3  1  0.31021400  0.09982200  0.67722400  1
  S  S4  1  0.90017800  0.68978600  0.82277600  1
  S  S5  1  0.68978600  0.90017800  0.32277600  1
  S  S6  1  0.00503300  0.15712400  0.37061400  1
  S  S7  1  0.15712400  0.00503300  0.87061400  1
  N  N0  1  0.92077500  0.45059300  0.17110800  1
  N  N1  1  0.54940700  0.07922500  0.32889200  1
  N  N2  1  0.45059300  0.92077500  0.67110800  1
  N  N3  1  0.85941600  0.83923000  0.71779000  1
  N  N4  1  0.14058400  0.16077000  0.28221000  1
  N  N5  1  0.83923000  0.85941600  0.21779000  1
  N  N6  1  0.16077000  0.14058400  0.78221000  1
  N  N7  1  0.07922500  0.54940700  0.82889200  1
  Cl  Cl0  1  0.65969100  0.27165900  0.48349400  1
  Cl  Cl1  1  0.22223200  0.47103500  0.42674600  1
  Cl  Cl2  1  0.34030900  0.72834100  0.51650600  1
  Cl  Cl3  1  0.52896500  0.77776800  0.07325400  1
  Cl  Cl4  1  0.27165900  0.65969100  0.98349400  1
  Cl  Cl5  1  0.77776800  0.52896500  0.57325400  1
  Cl  Cl6  1  0.72834100  0.34030900  0.01650600  1
  Cl  Cl7  1  0.47103500  0.22223200  0.92674600  1
loop_
_geom_bond_atom_site_label_1
_geom_bond_atom_site_label_2
_geom_bond_distance
_geom_bond_site_symmetry_2
S1 Te2 2.503274 1_565
S2 Te0 2.503274 1_655
S6 Te3 2.503274 1_455
S7 Te1 2.503274 1_545
N0 S0 1.561996 1_655
N0 Te3 2.015957 1_555
N1 S5 1.561996 1_545
N1 Te2 2.015957 1_555
N2 S3 1.561996 1_565
N2 Te1 2.015957 1_555
N3 S4 1.577268 1_555
N3 S2 1.627095 1_555
N4 S0 1.577268 1_555
N4 S6 1.627095 1_555
N5 S5 1.577268 1_555
N5 S1 1.627095 1_555
N6 S3 1.577268 1_555
N6 S7 1.627095 1_555
N7 S4 1.561996 1_455
N7 Te0 2.015957 1_555
Cl0 Te2 2.722932 1_555
Cl0 Te3 2.944950 1_555
Cl1 Te0 2.526891 1_555
Cl2 Te1 2.722932 1_555
Cl2 Te0 2.944950 1_555
Cl3 Te1 2.526891 1_554
Cl4 Te0 2.722932 1_555
Cl4 Te1 2.944950 1_555
Cl5 Te3 2.526891 1_555
Cl6 Te3 2.722932 1_555
Cl6 Te2 2.944950 1_555
Cl7 Te2 2.526891 1_556
