# generated using pymatgen
data_YSeF
_symmetry_space_group_name_H-M   'P 1'
_cell_length_a   5.73927300
_cell_length_b   5.80800800
_cell_length_c   7.71967800
_cell_angle_alpha   90.00000000
_cell_angle_beta   90.00000000
_cell_angle_gamma   90.00000000
_symmetry_Int_Tables_number   1
_chemical_formula_structural   YSeF
_chemical_formula_sum   'Y4 Se4 F4'
_cell_volume   257.32576634
_cell_formula_units_Z   4
loop_
 _symmetry_equiv_pos_site_id
 _symmetry_equiv_pos_as_xyz
  1  'x, y, z'
loop_
 _atom_site_type_symbol
 _atom_site_label
 _atom_site_symmetry_multiplicity
 _atom_site_fract_x
 _atom_site_fract_y
 _atom_site_fract_z
 _atom_site_occupancy
  Y  Y0  1  0.25000000  0.87230200  0.81765300  1
  Y  Y1  1  0.75000000  0.37230200  0.68234700  1
  Y  Y2  1  0.75000000  0.12769800  0.18234700  1
  Y  Y3  1  0.25000000  0.62769800  0.31765300  1
  Se  Se0  1  0.75000000  0.61862600  0.33000900  1
  Se  Se1  1  0.25000000  0.11862600  0.16999100  1
  Se  Se2  1  0.75000000  0.88137400  0.83000900  1
  Se  Se3  1  0.25000000  0.38137400  0.66999100  1
  F  F0  1  0.25000000  0.86678400  0.53613800  1
  F  F1  1  0.25000000  0.63321600  0.03613800  1
  F  F2  1  0.75000000  0.13321600  0.46386200  1
  F  F3  1  0.75000000  0.36678400  0.96386200  1
loop_
_geom_bond_atom_site_label_1
_geom_bond_atom_site_label_2
_geom_bond_distance
_geom_bond_site_symmetry_2
Se0 Y3 2.871705 1_555
Se0 Y3 2.871705 1_655
Se0 Y2 3.070728 1_555
Se0 Y1 3.073242 1_555
Se0 Y2 3.168820 1_565
Se1 Y2 2.871705 1_455
Se1 Y2 2.871705 1_555
Se1 Y3 3.070728 1_545
Se1 Y0 3.073242 1_544
Se1 Y3 3.168820 1_555
Se2 Y0 2.871705 1_555
Se2 Y0 2.871705 1_655
Se2 Y1 3.070728 1_565
Se2 Y2 3.073242 1_566
Se2 Y1 3.168820 1_555
Se3 Y1 2.871705 1_455
Se3 Y1 2.871705 1_555
Se3 Y0 3.070728 1_555
Se3 Y3 3.073242 1_555
Se3 Y0 3.168820 1_545
F0 Y0 2.173441 1_555
F0 Y3 2.184715 1_555
F1 Y3 2.173441 1_555
F1 Y0 2.184715 1_554
F2 Y2 2.173441 1_555
F2 Y1 2.184715 1_555
F3 Y1 2.173441 1_555
F3 Y2 2.184715 1_556
