# generated using pymatgen
data_KWNClF5
_symmetry_space_group_name_H-M   'P 1'
_cell_length_a   7.92240800
_cell_length_b   7.93240900
_cell_length_c   11.61172716
_cell_angle_alpha   80.34927268
_cell_angle_beta   90.00000000
_cell_angle_gamma   90.00000000
_symmetry_Int_Tables_number   1
_chemical_formula_structural   KWNClF5
_chemical_formula_sum   'K4 W4 N4 Cl4 F20'
_cell_volume   719.39776745
_cell_formula_units_Z   4
loop_
 _symmetry_equiv_pos_site_id
 _symmetry_equiv_pos_as_xyz
  1  'x, y, z'
loop_
 _atom_site_type_symbol
 _atom_site_label
 _atom_site_symmetry_multiplicity
 _atom_site_fract_x
 _atom_site_fract_y
 _atom_site_fract_z
 _atom_site_occupancy
  K  K0  1  0.56740400  0.23790400  0.60311400  1
  K  K1  1  0.43259600  0.76209600  0.39688600  1
  K  K2  1  0.93259600  0.73790400  0.60311400  1
  K  K3  1  0.06740400  0.26209600  0.39688600  1
  W  W0  1  0.48274500  0.66151400  0.73592900  1
  W  W1  1  0.01725500  0.16151400  0.73592900  1
  W  W2  1  0.51725500  0.33848600  0.26407100  1
  W  W3  1  0.98274500  0.83848600  0.26407100  1
  N  N0  1  0.11081200  0.21935300  0.86323200  1
  N  N1  1  0.88918800  0.78064700  0.13676800  1
  N  N2  1  0.38918800  0.71935300  0.86323200  1
  N  N3  1  0.61081200  0.28064700  0.13676800  1
  Cl  Cl0  1  0.32131000  0.77324000  0.98222700  1
  Cl  Cl1  1  0.17869000  0.27324000  0.98222700  1
  Cl  Cl2  1  0.82131000  0.72676000  0.01777300  1
  Cl  Cl3  1  0.67869000  0.22676000  0.01777300  1
  F  F0  1  0.04634000  0.91647100  0.77584500  1
  F  F1  1  0.96493300  0.39251000  0.65528900  1
  F  F2  1  0.95366000  0.08352900  0.22415500  1
  F  F3  1  0.03506700  0.60749000  0.34471100  1
  F  F4  1  0.21240800  0.85481500  0.20354600  1
  F  F5  1  0.28161100  0.67276000  0.63723000  1
  F  F6  1  0.45366000  0.41647100  0.77584500  1
  F  F7  1  0.54634000  0.58352900  0.22415500  1
  F  F8  1  0.78759200  0.14518500  0.79645400  1
  F  F9  1  0.46493300  0.10749000  0.34471100  1
  F  F10  1  0.10035700  0.90284200  0.40684600  1
  F  F11  1  0.71240800  0.64518500  0.79645400  1
  F  F12  1  0.39964300  0.40284200  0.40684600  1
  F  F13  1  0.71838900  0.32724000  0.36277000  1
  F  F14  1  0.89964300  0.09715800  0.59315400  1
  F  F15  1  0.60035700  0.59715800  0.59315400  1
  F  F16  1  0.28759200  0.35481500  0.20354600  1
  F  F17  1  0.53506700  0.89251000  0.65528900  1
  F  F18  1  0.78161100  0.82724000  0.36277000  1
  F  F19  1  0.21838900  0.17276000  0.63723000  1
loop_
_geom_bond_atom_site_label_1
_geom_bond_atom_site_label_2
_geom_bond_distance
_geom_bond_site_symmetry_2
N0 W1 1.781112 1_555
N1 W3 1.781112 1_555
N2 W0 1.781112 1_555
N3 W2 1.781112 1_555
Cl0 N2 1.605966 1_555
Cl1 N0 1.605966 1_555
Cl2 N1 1.605966 1_555
Cl3 N3 1.605966 1_555
F0 W1 1.934978 1_565
F0 K2 2.791739 1_455
F1 W1 1.957261 1_655
F1 K2 2.717109 1_555
F2 W3 1.934978 1_545
F2 K3 2.791739 1_655
F3 W3 1.957261 1_455
F3 K3 2.717109 1_555
F4 W3 1.946973 1_455
F4 K1 2.840845 1_555
F5 W0 1.956088 1_555
F5 K2 2.828563 1_455
F5 K1 3.009737 1_555
F6 W0 1.934978 1_555
F6 K0 2.791739 1_555
F7 W2 1.934978 1_555
F7 K1 2.791739 1_555
F8 W1 1.946973 1_655
F8 K0 2.840845 1_555
F9 W2 1.957261 1_555
F9 K1 2.717109 1_545
F10 W3 2.039873 1_455
F10 K2 2.769906 1_455
F10 K3 2.844662 1_565
F10 K1 2.869018 1_555
F11 W0 1.946973 1_555
F11 K2 2.840845 1_555
F12 W2 2.039873 1_555
F12 K0 2.769906 1_555
F12 K1 2.844662 1_555
F12 K3 2.869018 1_555
F13 W2 1.956088 1_555
F13 K3 2.828563 1_655
F13 K0 3.009737 1_555
F14 W1 2.039873 1_655
F14 K3 2.769906 1_655
F14 K2 2.844662 1_545
F14 K0 2.869018 1_555
F15 W0 2.039873 1_555
F15 K1 2.769906 1_555
F15 K0 2.844662 1_555
F15 K2 2.869018 1_555
F16 W2 1.946973 1_555
F16 K3 2.840845 1_555
F17 W0 1.957261 1_555
F17 K0 2.717109 1_565
F18 W3 1.956088 1_555
F18 K1 2.828563 1_555
F18 K2 3.009737 1_555
F19 W1 1.956088 1_555
F19 K0 2.828563 1_555
F19 K3 3.009737 1_555
