# generated using pymatgen
data_CuAg5As3O11
_symmetry_space_group_name_H-M   'P 1'
_cell_length_a   5.99100300
_cell_length_b   9.14941149
_cell_length_c   10.54016200
_cell_angle_alpha   96.92507919
_cell_angle_beta   91.22713964
_cell_angle_gamma   92.10421501
_symmetry_Int_Tables_number   1
_chemical_formula_structural   CuAg5As3O11
_chemical_formula_sum   'Cu2 Ag10 As6 O22'
_cell_volume   572.95390809
_cell_formula_units_Z   2
loop_
 _symmetry_equiv_pos_site_id
 _symmetry_equiv_pos_as_xyz
  1  'x, y, z'
loop_
 _atom_site_type_symbol
 _atom_site_label
 _atom_site_symmetry_multiplicity
 _atom_site_fract_x
 _atom_site_fract_y
 _atom_site_fract_z
 _atom_site_occupancy
  Cu  Cu0  1  0.50000000  0.00000000  0.50000000  1
  Cu  Cu1  1  0.00000000  0.00000000  0.00000000  1
  Ag  Ag0  1  0.79168200  0.32330600  0.65557100  1
  Ag  Ag1  1  0.71127000  0.34111200  0.31045100  1
  Ag  Ag2  1  0.45024000  0.99094100  0.83171900  1
  Ag  Ag3  1  0.74572200  0.67621000  0.16837300  1
  Ag  Ag4  1  0.74687700  0.64562700  0.86985500  1
  Ag  Ag5  1  0.20831800  0.67669400  0.34442900  1
  Ag  Ag6  1  0.28873000  0.65888800  0.68954900  1
  Ag  Ag7  1  0.54976000  0.00905900  0.16828100  1
  Ag  Ag8  1  0.25312300  0.35437300  0.13014500  1
  Ag  Ag9  1  0.25427800  0.32379000  0.83162700  1
  As  As0  1  0.72829800  0.68264100  0.52276500  1
  As  As1  1  0.25509400  0.70461100  0.01215900  1
  As  As2  1  0.95452100  0.96585700  0.69073300  1
  As  As3  1  0.04547900  0.03414300  0.30926700  1
  As  As4  1  0.27170200  0.31735900  0.47723500  1
  As  As5  1  0.74490600  0.29538900  0.98784100  1
  O  O0  1  0.35164000  0.61000600  0.13300100  1
  O  O1  1  0.50474700  0.21034400  0.48113500  1
  O  O2  1  0.32199400  0.43101500  0.36386800  1
  O  O3  1  0.49525300  0.78965600  0.51886500  1
  O  O4  1  0.96619100  0.18822700  0.92901700  1
  O  O5  1  0.71776300  0.05449500  0.65066000  1
  O  O6  1  0.28223700  0.94550500  0.34934000  1
  O  O7  1  0.03118000  0.19715200  0.42363800  1
  O  O8  1  0.47376700  0.82126300  0.97554700  1
  O  O9  1  0.03380900  0.81177300  0.07098300  1
  O  O10  1  0.15844500  0.58843300  0.87993000  1
  O  O11  1  0.52623300  0.17873700  0.02445300  1
  O  O12  1  0.82001500  0.60025300  0.38123000  1
  O  O13  1  0.20449100  0.05449600  0.67501600  1
  O  O14  1  0.96882000  0.80284800  0.57636200  1
  O  O15  1  0.84155500  0.41156700  0.12007000  1
  O  O16  1  0.92444500  0.89153300  0.83293800  1
  O  O17  1  0.17998500  0.39974700  0.61877000  1
  O  O18  1  0.64836000  0.38999400  0.86699900  1
  O  O19  1  0.67800600  0.56898500  0.63613200  1
  O  O20  1  0.79550900  0.94550400  0.32498400  1
  O  O21  1  0.07555500  0.10846700  0.16706200  1
loop_
_geom_bond_atom_site_label_1
_geom_bond_atom_site_label_2
_geom_bond_distance
_geom_bond_site_symmetry_2
Cu0 O1 1.957713 1_555
Cu0 O3 1.957713 1_545
Cu0 O5 2.035898 1_555
Cu0 O6 2.035898 1_545
Cu0 O20 2.601677 1_545
Cu0 O13 2.601677 1_555
Cu1 O21 1.949840 1_555
Cu1 O16 1.949840 1_444
Cu1 O4 1.973950 1_454
Cu1 O9 1.973950 1_545
Ag0 O19 2.403325 1_555
Ag0 O18 2.422447 1_555
Ag0 O17 2.456823 1_655
Ag0 O5 2.477112 1_555
Ag0 O1 2.584487 1_555
Ag1 O15 2.322384 1_555
Ag1 O12 2.458005 1_555
Ag1 O2 2.553033 1_555
Ag1 O1 2.589319 1_555
Ag1 O7 2.701446 1_655
Ag2 O8 2.302734 1_555
Ag2 O13 2.328968 1_565
Ag2 O11 2.519441 1_566
Ag2 O5 2.622783 1_565
Ag3 O9 2.407624 1_655
Ag3 O0 2.425448 1_555
Ag3 O12 2.463840 1_555
Ag3 O15 2.503798 1_555
Ag3 O20 2.797980 1_555
Ag4 O18 2.387585 1_555
Ag4 O19 2.499869 1_555
Ag4 O8 2.517933 1_555
Ag4 O16 2.529468 1_555
Ag4 O10 2.541997 1_655
Ag5 O2 2.403325 1_555
Ag5 O0 2.422447 1_555
Ag5 O12 2.456823 1_455
Ag5 O6 2.477112 1_555
Ag5 O3 2.584487 1_555
Ag6 O10 2.322384 1_555
Ag6 O17 2.458005 1_555
Ag6 O19 2.553033 1_555
Ag6 O3 2.589319 1_555
Ag6 O14 2.701446 1_455
Ag7 O11 2.302734 1_555
Ag7 O20 2.328968 1_545
Ag7 O8 2.519441 1_544
Ag7 O6 2.622783 1_545
Ag8 O0 2.387585 1_555
Ag8 O2 2.499869 1_555
Ag8 O11 2.517933 1_555
Ag8 O21 2.529468 1_555
Ag8 O15 2.541997 1_455
Ag9 O4 2.407624 1_455
Ag9 O18 2.425448 1_555
Ag9 O17 2.463840 1_555
Ag9 O10 2.503798 1_555
Ag9 O13 2.797980 1_555
As0 O12 1.699991 1_555
As0 O19 1.700586 1_555
As0 O3 1.737040 1_555
As0 O14 1.817709 1_555
As1 O10 1.723540 1_554
As1 O0 1.725441 1_555
As1 O8 1.738568 1_554
As1 O9 1.757082 1_555
As2 O13 1.697560 1_665
As2 O5 1.728994 1_565
As2 O16 1.729117 1_555
As2 O14 1.806980 1_555
As3 O20 1.697560 1_445
As3 O6 1.728994 1_545
As3 O21 1.729117 1_555
As3 O7 1.806980 1_555
As4 O17 1.699991 1_555
As4 O2 1.700586 1_555
As4 O1 1.737040 1_555
As4 O7 1.817709 1_555
As5 O15 1.723540 1_556
As5 O18 1.725441 1_555
As5 O11 1.738568 1_556
As5 O4 1.757082 1_555
