# generated using pymatgen
data_Mn3B7IO13
_symmetry_space_group_name_H-M   'P 1'
_cell_length_a   8.79928487
_cell_length_b   8.79928487
_cell_length_c   8.79928487
_cell_angle_alpha   60.00000000
_cell_angle_beta   60.00000000
_cell_angle_gamma   60.00000000
_symmetry_Int_Tables_number   1
_chemical_formula_structural   Mn3B7IO13
_chemical_formula_sum   'Mn6 B14 I2 O26'
_cell_volume   481.75600365
_cell_formula_units_Z   2
loop_
 _symmetry_equiv_pos_site_id
 _symmetry_equiv_pos_as_xyz
  1  'x, y, z'
loop_
 _atom_site_type_symbol
 _atom_site_label
 _atom_site_symmetry_multiplicity
 _atom_site_fract_x
 _atom_site_fract_y
 _atom_site_fract_z
 _atom_site_occupancy
  Mn  Mn0  1  0.50000000  0.00000000  0.00000000  1
  Mn  Mn1  1  0.50000000  0.50000000  0.00000000  1
  Mn  Mn2  1  0.00000000  0.50000000  0.00000000  1
  Mn  Mn3  1  0.00000000  0.50000000  0.50000000  1
  Mn  Mn4  1  0.00000000  0.00000000  0.50000000  1
  Mn  Mn5  1  0.50000000  0.00000000  0.50000000  1
  B  B0  1  0.07960300  0.07960300  0.76119100  1
  B  B1  1  0.76119100  0.07960300  0.07960300  1
  B  B2  1  0.26119100  0.57960300  0.57960300  1
  B  B3  1  0.57960300  0.57960300  0.26119100  1
  B  B4  1  0.25000000  0.25000000  0.75000000  1
  B  B5  1  0.25000000  0.75000000  0.25000000  1
  B  B6  1  0.75000000  0.25000000  0.75000000  1
  B  B7  1  0.57960300  0.57960300  0.57960300  1
  B  B8  1  0.75000000  0.25000000  0.25000000  1
  B  B9  1  0.75000000  0.75000000  0.25000000  1
  B  B10  1  0.57960300  0.26119100  0.57960300  1
  B  B11  1  0.07960300  0.76119100  0.07960300  1
  B  B12  1  0.07960300  0.07960300  0.07960300  1
  B  B13  1  0.25000000  0.75000000  0.75000000  1
  I  I0  1  0.25000000  0.25000000  0.25000000  1
  I  I1  1  0.75000000  0.75000000  0.75000000  1
  O  O0  1  0.70375900  0.25057500  0.93627400  1
  O  O1  1  0.50000000  0.50000000  0.50000000  1
  O  O2  1  0.93627400  0.10939100  0.70375900  1
  O  O3  1  0.43627400  0.75057500  0.20375900  1
  O  O4  1  0.93627400  0.25057500  0.10939100  1
  O  O5  1  0.00000000  0.00000000  0.00000000  1
  O  O6  1  0.60939100  0.43627400  0.20375900  1
  O  O7  1  0.20375900  0.75057500  0.60939100  1
  O  O8  1  0.20375900  0.43627400  0.75057500  1
  O  O9  1  0.25057500  0.70375900  0.10939100  1
  O  O10  1  0.60939100  0.20375900  0.75057500  1
  O  O11  1  0.43627400  0.20375900  0.60939100  1
  O  O12  1  0.93627400  0.70375900  0.25057500  1
  O  O13  1  0.10939100  0.25057500  0.70375900  1
  O  O14  1  0.75057500  0.43627400  0.60939100  1
  O  O15  1  0.20375900  0.60939100  0.43627400  1
  O  O16  1  0.75057500  0.20375900  0.43627400  1
  O  O17  1  0.70375900  0.93627400  0.10939100  1
  O  O18  1  0.43627400  0.60939100  0.75057500  1
  O  O19  1  0.75057500  0.60939100  0.20375900  1
  O  O20  1  0.70375900  0.10939100  0.25057500  1
  O  O21  1  0.25057500  0.10939100  0.93627400  1
  O  O22  1  0.60939100  0.75057500  0.43627400  1
  O  O23  1  0.10939100  0.70375900  0.93627400  1
  O  O24  1  0.25057500  0.93627400  0.70375900  1
  O  O25  1  0.10939100  0.93627400  0.25057500  1
loop_
_geom_bond_atom_site_label_1
_geom_bond_atom_site_label_2
_geom_bond_distance
_geom_bond_site_symmetry_2
Mn0 O17 2.153196 1_545
Mn0 O10 2.153200 1_554
Mn0 O3 2.153203 1_545
Mn0 O21 2.153205 1_554
Mn1 O6 2.153196 1_555
Mn1 O9 2.153200 1_555
Mn1 O0 2.153203 1_554
Mn1 O18 2.153205 1_554
Mn2 O23 2.153196 1_554
Mn2 O19 2.153200 1_455
Mn2 O8 2.153203 1_554
Mn2 O4 2.153205 1_455
Mn3 O15 2.153196 1_555
Mn3 O13 2.153200 1_555
Mn3 O12 2.153203 1_455
Mn3 O14 2.153205 1_455
Mn4 O2 2.153196 1_455
Mn4 O7 2.153200 1_545
Mn4 O16 2.153203 1_455
Mn4 O25 2.153205 1_545
Mn5 O11 2.153196 1_555
Mn5 O20 2.153200 1_555
Mn5 O24 2.153203 1_545
Mn5 O22 2.153205 1_545
B0 O13 1.445336 1_555
B0 O24 1.445340 1_545
B0 O2 1.445344 1_455
B0 O5 1.715744 1_556
B1 O20 1.445336 1_555
B1 O0 1.445340 1_554
B1 O17 1.445344 1_545
B1 O5 1.715744 1_655
B2 O7 1.445336 1_555
B2 O8 1.445340 1_555
B2 O15 1.445344 1_555
B2 O1 1.715744 1_555
B3 O19 1.445336 1_555
B3 O3 1.445340 1_555
B3 O6 1.445344 1_555
B3 O1 1.715744 1_555
B4 O8 1.480363 1_555
B4 O21 1.480365 1_555
B4 O11 1.480366 1_555
B4 O13 1.480371 1_555
B5 O3 1.480363 1_555
B5 O25 1.480365 1_555
B5 O15 1.480366 1_555
B5 O9 1.480371 1_555
B6 O0 1.480363 1_555
B6 O14 1.480365 1_555
B6 O2 1.480366 1_555
B6 O10 1.480371 1_555
B7 O18 1.445338 1_555
B7 O22 1.445338 1_555
B7 O14 1.445338 1_555
B7 O1 1.715744 1_555
B8 O16 1.480363 1_555
B8 O4 1.480365 1_555
B8 O6 1.480366 1_555
B8 O20 1.480371 1_555
B9 O12 1.480363 1_555
B9 O22 1.480365 1_555
B9 O17 1.480366 1_555
B9 O19 1.480371 1_555
B10 O10 1.445336 1_555
B10 O16 1.445340 1_555
B10 O11 1.445344 1_555
B10 O1 1.715744 1_555
B11 O9 1.445336 1_555
B11 O12 1.445340 1_455
B11 O23 1.445344 1_554
B11 O5 1.715744 1_565
B12 O4 1.445338 1_455
B12 O21 1.445338 1_554
B12 O25 1.445338 1_545
B12 O5 1.715744 1_555
B13 O24 1.480363 1_555
B13 O18 1.480365 1_555
B13 O23 1.480366 1_555
B13 O7 1.480371 1_555
I0 Mn4 3.111017 1_555
I0 Mn2 3.111017 1_555
I0 Mn1 3.111017 1_555
I0 Mn5 3.111017 1_555
I0 Mn3 3.111017 1_555
I0 Mn0 3.111017 1_555
I1 Mn1 3.111017 1_556
I1 Mn0 3.111017 1_566
I1 Mn3 3.111017 1_655
I1 Mn2 3.111017 1_656
I1 Mn4 3.111017 1_665
I1 Mn5 3.111017 1_565
