# generated using pymatgen
data_Pb(SeO3)2
_symmetry_space_group_name_H-M   'P 1'
_cell_length_a   9.02668900
_cell_length_b   4.97852800
_cell_length_c   7.30455669
_cell_angle_alpha   69.77467571
_cell_angle_beta   90.00000000
_cell_angle_gamma   90.00000000
_symmetry_Int_Tables_number   1
_chemical_formula_structural   Pb(SeO3)2
_chemical_formula_sum   'Pb2 Se4 O12'
_cell_volume   308.02337278
_cell_formula_units_Z   2
loop_
 _symmetry_equiv_pos_site_id
 _symmetry_equiv_pos_as_xyz
  1  'x, y, z'
loop_
 _atom_site_type_symbol
 _atom_site_label
 _atom_site_symmetry_multiplicity
 _atom_site_fract_x
 _atom_site_fract_y
 _atom_site_fract_z
 _atom_site_occupancy
  Pb  Pb0  1  0.50000000  0.50000000  0.50000000  1
  Pb  Pb1  1  0.00000000  0.50000000  0.00000000  1
  Se  Se0  1  0.65151300  0.14050800  0.18615500  1
  Se  Se1  1  0.34848700  0.85949200  0.81384500  1
  Se  Se2  1  0.84848700  0.14050800  0.68615500  1
  Se  Se3  1  0.15151300  0.85949200  0.31384500  1
  O  O0  1  0.94319800  0.41422000  0.72980200  1
  O  O1  1  0.15344700  0.13317500  0.08630000  1
  O  O2  1  0.83604500  0.22531600  0.20665100  1
  O  O3  1  0.66395500  0.22531600  0.70665100  1
  O  O4  1  0.44319800  0.58578000  0.77019800  1
  O  O5  1  0.05680200  0.58578000  0.27019800  1
  O  O6  1  0.55680200  0.41422000  0.22980200  1
  O  O7  1  0.33604500  0.77468400  0.29334900  1
  O  O8  1  0.16395500  0.77468400  0.79334900  1
  O  O9  1  0.65344700  0.86682500  0.41370000  1
  O  O10  1  0.34655300  0.13317500  0.58630000  1
  O  O11  1  0.84655300  0.86682500  0.91370000  1
loop_
_geom_bond_atom_site_label_1
_geom_bond_atom_site_label_2
_geom_bond_distance
_geom_bond_site_symmetry_2
O0 Se2 1.729117 1_555
O0 Pb1 2.218887 1_656
O1 Se3 1.747448 1_545
O1 Pb1 2.203435 1_555
O2 Se0 1.737524 1_555
O2 Pb1 2.216239 1_655
O3 Se2 1.737524 1_555
O3 Pb0 2.216239 1_555
O4 Se1 1.729117 1_555
O4 Pb0 2.218887 1_555
O5 Se3 1.729117 1_555
O5 Pb1 2.218887 1_555
O6 Se0 1.729117 1_555
O6 Pb0 2.218887 1_555
O7 Se3 1.737524 1_555
O7 Pb0 2.216239 1_555
O8 Se1 1.737524 1_555
O8 Pb1 2.216239 1_556
O9 Se0 1.747448 1_565
O9 Pb0 2.203435 1_555
O10 Se1 1.747448 1_545
O10 Pb0 2.203435 1_555
O11 Se2 1.747448 1_565
O11 Pb1 2.203435 1_656
