# generated using pymatgen
data_BaS3
_symmetry_space_group_name_H-M   'P 1'
_cell_length_a   5.09121945
_cell_length_b   8.55203755
_cell_length_c   10.10680079
_cell_angle_alpha   90.00000000
_cell_angle_beta   90.00000000
_cell_angle_gamma   90.00000000
_symmetry_Int_Tables_number   1
_chemical_formula_structural   BaS3
_chemical_formula_sum   'Ba4 S12'
_cell_volume   440.05313754
_cell_formula_units_Z   4
loop_
 _symmetry_equiv_pos_site_id
 _symmetry_equiv_pos_as_xyz
  1  'x, y, z'
loop_
 _atom_site_type_symbol
 _atom_site_label
 _atom_site_symmetry_multiplicity
 _atom_site_fract_x
 _atom_site_fract_y
 _atom_site_fract_z
 _atom_site_occupancy
  Ba  Ba0  1  0.01275764  0.50000000  -0.00000000  1
  Ba  Ba1  1  0.98724136  0.00000000  0.50000000  1
  Ba  Ba2  1  0.02766907  0.00000000  -0.00000000  1
  Ba  Ba3  1  0.97233093  0.50000000  0.50000000  1
  S  S0  1  0.46888252  0.24497959  0.49089505  1
  S  S1  1  0.40972982  0.19009536  0.29190796  1
  S  S2  1  0.53111748  0.25502041  0.99089505  1
  S  S3  1  0.40972982  0.80990464  0.70809204  1
  S  S4  1  0.59027018  0.69009536  0.20809204  1
  S  S5  1  0.97966619  0.74969344  0.24827278  1
  S  S6  1  0.02033381  0.24969344  0.25172722  1
  S  S7  1  0.97966619  0.25030656  0.75172722  1
  S  S8  1  0.53111748  0.74497959  0.00910495  1
  S  S9  1  0.02033381  0.75030656  0.74827278  1
  S  S10  1  0.46888252  0.75502041  0.50910495  1
  S  S11  1  0.59027018  0.30990464  0.79190796  1
loop_
_geom_bond_atom_site_label_1
_geom_bond_atom_site_label_2
_geom_bond_distance
_geom_bond_site_symmetry_2
Ba0 S8 3.226573 1_455
Ba0 S2 3.226573 1_454
Ba0 S7 3.299177 1_454
Ba0 S5 3.299177 1_455
Ba0 S6 3.325135 1_555
Ba0 S9 3.325135 1_554
Ba0 S2 3.370841 1_554
Ba0 S8 3.370841 1_555
Ba0 S4 3.419478 1_455
Ba0 S11 3.419478 1_454
Ba1 S0 3.226577 1_655
Ba1 S10 3.226577 1_645
Ba1 S9 3.299177 1_645
Ba1 S6 3.299177 1_655
Ba1 S5 3.325135 1_545
Ba1 S7 3.325135 1_555
Ba1 S0 3.370837 1_555
Ba1 S10 3.370837 1_545
Ba1 S1 3.419481 1_655
Ba1 S3 3.419481 1_645
Ba2 S5 3.307315 1_445
Ba2 S7 3.307315 1_454
Ba2 S6 3.321748 1_555
Ba2 S9 3.321748 1_544
Ba2 S2 3.340066 1_454
Ba2 S8 3.340066 1_445
Ba2 S8 3.366721 1_545
Ba2 S2 3.366721 1_554
Ba3 S9 3.307315 1_655
Ba3 S6 3.307315 1_655
Ba3 S5 3.321748 1_555
Ba3 S7 3.321748 1_555
Ba3 S10 3.340066 1_655
Ba3 S0 3.340066 1_655
Ba3 S0 3.366721 1_555
Ba3 S10 3.366721 1_555
S0 S1 2.087013 1_555
S1 S6 2.086864 1_555
S3 S9 2.086864 1_555
S4 S5 2.086864 1_555
S4 S8 2.087013 1_555
S10 S3 2.087013 1_555
S11 S7 2.086864 1_555
S11 S2 2.087013 1_555
