# generated using pymatgen
data_YbBO3
_symmetry_space_group_name_H-M   'P 1'
_cell_length_a   6.43790160
_cell_length_b   6.43790160
_cell_length_c   6.43790141
_cell_angle_alpha   46.04097480
_cell_angle_beta   46.04097480
_cell_angle_gamma   46.04096676
_symmetry_Int_Tables_number   1
_chemical_formula_structural   YbBO3
_chemical_formula_sum   'Yb2 B2 O6'
_cell_volume   126.12279857
_cell_formula_units_Z   2
loop_
 _symmetry_equiv_pos_site_id
 _symmetry_equiv_pos_as_xyz
  1  'x, y, z'
loop_
 _atom_site_type_symbol
 _atom_site_label
 _atom_site_symmetry_multiplicity
 _atom_site_fract_x
 _atom_site_fract_y
 _atom_site_fract_z
 _atom_site_occupancy
  Yb  Yb0  1  0.00000000  0.00000000  0.00000000  1
  Yb  Yb1  1  0.50000000  0.50000000  0.50000000  1
  B  B0  1  0.25000000  0.25000000  0.25000000  1
  B  B1  1  0.75000000  0.75000000  0.75000000  1
  O  O0  1  0.25000000  0.52171700  0.97828300  1
  O  O1  1  0.47828300  0.02171700  0.75000000  1
  O  O2  1  0.02171700  0.75000000  0.47828300  1
  O  O3  1  0.75000000  0.47828300  0.02171700  1
  O  O4  1  0.52171700  0.97828300  0.25000000  1
  O  O5  1  0.97828300  0.25000000  0.52171700  1
loop_
_geom_bond_atom_site_label_1
_geom_bond_atom_site_label_2
_geom_bond_distance
_geom_bond_site_symmetry_2
B0 O4 1.368153 1_545
B0 O5 1.368153 1_455
B0 O0 1.368153 1_554
B1 O1 1.368153 1_565
B1 O2 1.368153 1_655
B1 O3 1.368153 1_556
O0 Yb0 2.344406 1_566
O0 Yb1 2.344406 1_555
O1 Yb1 2.344407 1_555
O1 Yb0 2.344407 1_556
O2 Yb1 2.344406 1_555
O2 Yb0 2.344406 1_565
O3 Yb0 2.344406 1_655
O3 Yb1 2.344406 1_555
O4 Yb0 2.344407 1_665
O4 Yb1 2.344407 1_555
O5 Yb1 2.344406 1_555
O5 Yb0 2.344406 1_656
