# generated using pymatgen
data_Li3Cu(PO4)2
_symmetry_space_group_name_H-M   'P 1'
_cell_length_a   5.07101400
_cell_length_b   6.87087336
_cell_length_c   9.83741267
_cell_angle_alpha   89.59231403
_cell_angle_beta   89.63246254
_cell_angle_gamma   89.77419768
_symmetry_Int_Tables_number   1
_chemical_formula_structural   Li3Cu(PO4)2
_chemical_formula_sum   'Li6 Cu2 P4 O16'
_cell_volume   342.73970498
_cell_formula_units_Z   2
loop_
 _symmetry_equiv_pos_site_id
 _symmetry_equiv_pos_as_xyz
  1  'x, y, z'
loop_
 _atom_site_type_symbol
 _atom_site_label
 _atom_site_symmetry_multiplicity
 _atom_site_fract_x
 _atom_site_fract_y
 _atom_site_fract_z
 _atom_site_occupancy
  Li  Li0  1  0.67712500  0.24536700  0.75144500  1
  Li  Li1  1  0.69045800  0.73844200  0.73913900  1
  Li  Li2  1  0.32303300  0.24825900  0.00413400  1
  Li  Li3  1  0.68534100  0.26366900  0.24878700  1
  Li  Li4  1  0.30883700  0.75445900  0.50663300  1
  Li  Li5  1  0.31507600  0.25187500  0.49977600  1
  Cu  Cu0  1  0.70050800  0.76176200  0.27578900  1
  Cu  Cu1  1  0.30228400  0.75554200  0.99436800  1
  P  P0  1  0.17741100  0.48515600  0.74802800  1
  P  P1  1  0.81877100  0.00388600  0.49845000  1
  P  P2  1  0.19316200  0.50362200  0.24452700  1
  P  P3  1  0.80390000  0.00159400  0.99926800  1
  O  O0  1  0.89110100  0.51405500  0.27802700  1
  O  O1  1  0.31333000  0.30676100  0.81181400  1
  O  O2  1  0.23487700  0.50974500  0.08601700  1
  O  O3  1  0.32708700  0.68687700  0.30559000  1
  O  O4  1  0.31066000  0.31451400  0.29875100  1
  O  O5  1  0.31785700  0.67111300  0.81406100  1
  O  O6  1  0.10905700  0.98758900  0.03031700  1
  O  O7  1  0.66620800  0.82068600  0.07541000  1
  O  O8  1  0.67735100  0.18272400  0.55462300  1
  O  O9  1  0.24164000  0.50395300  0.59574800  1
  O  O10  1  0.78588500  0.01142500  0.33555600  1
  O  O11  1  0.69681900  0.19075700  0.05791900  1
  O  O12  1  0.88185000  0.49472100  0.77808300  1
  O  O13  1  0.74787200  0.97851000  0.84814500  1
  O  O14  1  0.68563500  0.81041000  0.54099300  1
  O  O15  1  0.11585900  0.00315400  0.52484500  1
loop_
_geom_bond_atom_site_label_1
_geom_bond_atom_site_label_2
_geom_bond_distance
_geom_bond_site_symmetry_2
Li0 O1 1.979224 1_555
Li0 O8 1.986461 1_555
Li0 O12 2.026248 1_555
Li0 O13 2.090426 1_545
Li1 O12 1.968699 1_555
Li1 O13 1.997100 1_555
Li1 O14 2.007850 1_555
Li1 O5 2.076411 1_555
Li2 O1 1.932256 1_554
Li2 O11 2.008198 1_555
Li2 O2 2.021448 1_555
Li2 O6 2.111087 1_545
Li3 O11 1.947221 1_555
Li3 O4 1.989701 1_555
Li3 O10 1.992458 1_555
Li3 O0 2.038667 1_555
Li4 O9 1.956139 1_555
Li4 O15 1.974463 1_565
Li4 O14 1.982151 1_555
Li4 O3 2.036181 1_555
Li5 O8 1.973321 1_555
Li5 O15 2.001561 1_555
Li5 O9 2.010850 1_555
Li5 O4 2.021108 1_555
Cu0 O10 1.870618 1_565
Cu0 O0 1.953986 1_555
Cu0 O3 1.983659 1_555
Cu0 O7 2.018000 1_555
Cu1 O5 1.871214 1_555
Cu1 O6 1.902222 1_556
Cu1 O2 1.939282 1_556
Cu1 O7 2.066916 1_556
O0 P2 1.566210 1_655
O1 P0 1.535956 1_555
O2 P2 1.572554 1_555
O3 P2 1.558908 1_555
O4 P2 1.521824 1_555
O5 P0 1.608294 1_555
O6 P3 1.581659 1_464
O7 P3 1.606399 1_564
O8 P1 1.525508 1_555
O9 P0 1.535647 1_555
O10 P1 1.612618 1_555
O11 P3 1.522533 1_554
O12 P0 1.527067 1_655
O13 P3 1.524849 1_565
O14 P1 1.547146 1_565
O15 P1 1.530374 1_455
