# generated using pymatgen
data_Pr4Ge3
_symmetry_space_group_name_H-M   'P 1'
_cell_length_a   8.01572892
_cell_length_b   8.01573092
_cell_length_c   8.01572366
_cell_angle_alpha   109.46977426
_cell_angle_beta   109.46971778
_cell_angle_gamma   109.46965699
_symmetry_Int_Tables_number   1
_chemical_formula_structural   Pr4Ge3
_chemical_formula_sum   'Pr8 Ge6'
_cell_volume   396.48903701
_cell_formula_units_Z   2
loop_
 _symmetry_equiv_pos_site_id
 _symmetry_equiv_pos_as_xyz
  1  'x, y, z'
loop_
 _atom_site_type_symbol
 _atom_site_label
 _atom_site_symmetry_multiplicity
 _atom_site_fract_x
 _atom_site_fract_y
 _atom_site_fract_z
 _atom_site_occupancy
  Pr  Pr0  1  0.37177446  0.50000134  0.00000482  1
  Pr  Pr1  1  0.87177346  0.50000382  -0.00000066  1
  Pr  Pr2  1  0.62822256  0.62822356  0.62822256  1
  Pr  Pr3  1  0.50000034  0.00000482  0.37177346  1
  Pr  Pr4  1  0.12822256  0.12822156  0.12822256  1
  Pr  Pr5  1  0.00000134  0.87177446  0.50000482  1
  Pr  Pr6  1  0.50000482  0.00000034  0.87177346  1
  Pr  Pr7  1  0.00000482  0.37177346  0.49999934  1
  Ge  Ge0  1  0.87499915  0.12499595  0.75000073  1
  Ge  Ge1  1  0.75000173  0.87500115  0.12499795  1
  Ge  Ge2  1  0.24999973  0.62499795  0.37499915  1
  Ge  Ge3  1  0.62499595  0.37499815  0.24999973  1
  Ge  Ge4  1  0.12499895  0.75000073  0.87499915  1
  Ge  Ge5  1  0.37500115  0.25000073  0.62499795  1
loop_
_geom_bond_atom_site_label_1
_geom_bond_atom_site_label_2
_geom_bond_distance
_geom_bond_site_symmetry_2
Ge0 Pr5 3.020314 1_645
Ge0 Pr4 3.020360 1_656
Ge0 Pr1 3.020431 1_556
Ge0 Pr3 3.020488 1_555
Ge0 Pr6 3.404697 1_555
Ge0 Pr7 3.404768 1_655
Ge0 Pr2 3.404836 1_545
Ge0 Pr0 3.404961 1_656
Ge1 Pr6 3.020315 1_564
Ge1 Pr4 3.020353 1_665
Ge1 Pr5 3.020432 1_655
Ge1 Pr0 3.020491 1_555
Ge1 Pr1 3.404713 1_555
Ge1 Pr3 3.404749 1_565
Ge1 Pr2 3.404849 1_554
Ge1 Pr7 3.404933 1_665
Ge2 Pr7 3.020315 1_555
Ge2 Pr2 3.020367 1_555
Ge2 Pr3 3.020435 1_565
Ge2 Pr1 3.020480 1_455
Ge2 Pr0 3.404705 1_555
Ge2 Pr5 3.404739 1_555
Ge2 Pr4 3.404864 1_555
Ge2 Pr6 3.404942 1_565
Ge3 Pr0 3.020318 1_555
Ge3 Pr2 3.020365 1_555
Ge3 Pr7 3.020437 1_655
Ge3 Pr6 3.020478 1_554
Ge3 Pr3 3.404697 1_555
Ge3 Pr1 3.404760 1_555
Ge3 Pr4 3.404845 1_555
Ge3 Pr5 3.404966 1_655
Ge4 Pr1 3.020328 1_456
Ge4 Pr4 3.020362 1_566
Ge4 Pr6 3.020425 1_565
Ge4 Pr7 3.020483 1_555
Ge4 Pr5 3.404702 1_555
Ge4 Pr0 3.404741 1_556
Ge4 Pr2 3.404864 1_455
Ge4 Pr3 3.404942 1_566
Ge5 Pr3 3.020309 1_555
Ge5 Pr2 3.020369 1_555
Ge5 Pr0 3.020433 1_556
Ge5 Pr5 3.020487 1_545
Ge5 Pr7 3.404712 1_555
Ge5 Pr6 3.404744 1_555
Ge5 Pr4 3.404851 1_555
Ge5 Pr1 3.404934 1_556
