# generated using pymatgen
data_Th(Al5Fe)2
_symmetry_space_group_name_H-M   'P 1'
_cell_length_a   6.75440983
_cell_length_b   6.75440983
_cell_length_c   8.95694774
_cell_angle_alpha   90.00000000
_cell_angle_beta   90.00000000
_cell_angle_gamma   97.80599298
_symmetry_Int_Tables_number   1
_chemical_formula_structural   Th(Al5Fe)2
_chemical_formula_sum   'Th2 Al20 Fe4'
_cell_volume   404.84778340
_cell_formula_units_Z   2
loop_
 _symmetry_equiv_pos_site_id
 _symmetry_equiv_pos_as_xyz
  1  'x, y, z'
loop_
 _atom_site_type_symbol
 _atom_site_label
 _atom_site_symmetry_multiplicity
 _atom_site_fract_x
 _atom_site_fract_y
 _atom_site_fract_z
 _atom_site_occupancy
  Th  Th0  1  0.87497376  0.12502624  0.75000000  1
  Th  Th1  1  0.12502624  0.87497376  0.25000000  1
  Al  Al0  1  0.51867588  0.77856814  0.75000000  1
  Al  Al1  1  0.48132412  0.22143186  0.25000000  1
  Al  Al2  1  0.59203250  0.86663414  0.25000000  1
  Al  Al3  1  0.77124817  0.77124817  -0.00000000  1
  Al  Al4  1  0.16189550  0.83810450  0.59965478  1
  Al  Al5  1  0.22875183  0.22875183  -0.00000000  1
  Al  Al6  1  0.13336586  0.40796750  0.25000000  1
  Al  Al7  1  0.62370038  0.37629962  0.95057217  1
  Al  Al8  1  0.83810450  0.16189550  0.09965478  1
  Al  Al9  1  0.37629962  0.62370038  0.45057217  1
  Al  Al10  1  0.16189550  0.83810450  0.90034522  1
  Al  Al11  1  0.22143186  0.48132412  0.75000000  1
  Al  Al12  1  0.37629962  0.62370038  0.04942783  1
  Al  Al13  1  0.83810450  0.16189550  0.40034522  1
  Al  Al14  1  0.62370038  0.37629962  0.54942783  1
  Al  Al15  1  0.40796750  0.13336586  0.75000000  1
  Al  Al16  1  0.77856814  0.51867588  0.25000000  1
  Al  Al17  1  0.77124817  0.77124817  0.50000000  1
  Al  Al18  1  0.22875183  0.22875183  0.50000000  1
  Al  Al19  1  0.86663414  0.59203250  0.75000000  1
  Fe  Fe0  1  -0.00000000  0.50000000  0.50000000  1
  Fe  Fe1  1  -0.00000000  0.50000000  -0.00000000  1
  Fe  Fe2  1  0.50000000  -0.00000000  -0.00000000  1
  Fe  Fe3  1  0.50000000  -0.00000000  0.50000000  1
loop_
_geom_bond_atom_site_label_1
_geom_bond_atom_site_label_2
_geom_bond_distance
_geom_bond_site_symmetry_2
Al0 Al15 2.605552 1_565
Al0 Al11 2.639477 1_555
Al0 Fe2 2.705233 1_566
Al0 Fe3 2.705233 1_565
Al0 Al19 2.813450 1_555
Al0 Al3 2.819556 1_556
Al0 Al17 2.819556 1_555
Al0 Al4 2.836495 1_555
Al0 Al10 2.836495 1_555
Al0 Al12 2.989759 1_556
Al0 Al9 2.989759 1_555
Al0 Th0 3.120579 1_565
Al1 Al2 2.605552 1_545
Al1 Al16 2.639477 1_555
Al1 Fe3 2.705233 1_555
Al1 Fe2 2.705233 1_555
Al1 Al6 2.813450 1_555
Al1 Al5 2.819556 1_555
Al1 Al18 2.819556 1_555
Al1 Al8 2.836495 1_555
Al1 Al13 2.836495 1_555
Al1 Al7 2.989759 1_554
Al1 Al14 2.989759 1_555
Al1 Th1 3.120579 1_545
Al2 Fe2 2.522729 1_565
Al2 Fe3 2.522729 1_565
Al2 Al3 2.665788 1_555
Al2 Al9 2.719141 1_555
Al2 Al8 2.766370 1_565
Al2 Th1 3.162495 1_555
Al2 Th1 3.592841 1_655
Al3 Fe2 2.552039 1_565
Al3 Fe1 2.552039 1_655
Al3 Al7 2.753792 1_554
Al3 Al8 2.763904 1_565
Al3 Th1 3.280286 1_655
Al3 Th0 3.280286 1_564
Al4 Fe0 2.555274 1_555
Al4 Fe3 2.555274 1_565
Al4 Al9 2.558747 1_555
Al4 Th1 3.154251 1_555
Al4 Th0 3.216400 1_465
Al5 Fe1 2.552039 1_555
Al5 Fe2 2.552039 1_555
Al5 Al6 2.665788 1_555
Al5 Al7 2.753792 1_554
Al5 Al8 2.763904 1_455
Al5 Th0 3.280286 1_454
Al5 Th1 3.280286 1_545
Al6 Fe0 2.522729 1_555
Al6 Fe1 2.522729 1_555
Al6 Al9 2.719141 1_555
Al6 Al8 2.766370 1_455
Al6 Th1 3.162495 1_555
Al6 Th1 3.592841 1_545
Al7 Al8 2.558747 1_556
Al7 Fe1 2.603342 1_656
Al7 Fe2 2.603342 1_556
Al7 Th0 3.125847 1_555
Al8 Fe2 2.555274 1_555
Al8 Fe1 2.555274 1_655
Al8 Th0 3.154251 1_554
Al8 Th1 3.216400 1_645
Al9 Fe0 2.603342 1_555
Al9 Fe3 2.603342 1_565
Al9 Th1 3.125847 1_555
Al10 Fe1 2.555274 1_556
Al10 Fe2 2.555274 1_566
Al10 Al12 2.558747 1_556
Al10 Al4 2.693269 1_555
Al10 Al3 2.763904 1_456
Al10 Al5 2.763904 1_566
Al10 Al19 2.766370 1_455
Al10 Al15 2.766370 1_565
Al10 Al11 2.836495 1_555
Al10 Th1 3.154251 1_556
Al10 Th0 3.216400 1_465
Al11 Al19 2.605552 1_455
Al11 Fe0 2.705233 1_555
Al11 Fe1 2.705233 1_556
Al11 Al15 2.813450 1_555
Al11 Al18 2.819556 1_555
Al11 Al5 2.819556 1_556
Al11 Al4 2.836495 1_555
Al11 Al12 2.989759 1_556
Al11 Al9 2.989759 1_555
Al11 Th0 3.120579 1_455
Al12 Fe2 2.603342 1_565
Al12 Fe1 2.603342 1_555
Al12 Al7 2.669705 1_554
Al12 Al2 2.719141 1_555
Al12 Al6 2.719141 1_555
Al12 Al3 2.753792 1_555
Al12 Al5 2.753792 1_555
Al12 Th1 3.125847 1_555
Al13 Fe3 2.555274 1_555
Al13 Fe0 2.555274 1_655
Al13 Al14 2.558747 1_555
Al13 Al8 2.693269 1_555
Al13 Al17 2.763904 1_545
Al13 Al18 2.763904 1_655
Al13 Al2 2.766370 1_545
Al13 Al6 2.766370 1_655
Al13 Al16 2.836495 1_555
Al13 Th0 3.154251 1_555
Al13 Th1 3.216400 1_645
Al14 Fe0 2.603342 1_655
Al14 Fe3 2.603342 1_555
Al14 Al9 2.669705 1_555
Al14 Al19 2.719141 1_555
Al14 Al15 2.719141 1_555
Al14 Al17 2.753792 1_555
Al14 Al18 2.753792 1_555
Al14 Al16 2.989759 1_555
Al14 Th0 3.125847 1_555
Al15 Fe3 2.522729 1_555
Al15 Fe2 2.522729 1_556
Al15 Al18 2.665788 1_555
Al15 Al5 2.665788 1_556
Al15 Al7 2.719141 1_555
Al15 Al4 2.766370 1_545
Al15 Th0 3.162495 1_555
Al15 Th0 3.592841 1_455
Al16 Al6 2.605552 1_655
Al16 Fe0 2.705233 1_655
Al16 Fe1 2.705233 1_655
Al16 Al2 2.813450 1_555
Al16 Al3 2.819556 1_555
Al16 Al17 2.819556 1_555
Al16 Al8 2.836495 1_555
Al16 Al7 2.989759 1_554
Al16 Th1 3.120579 1_655
Al17 Fe3 2.552039 1_565
Al17 Fe0 2.552039 1_655
Al17 Al2 2.665788 1_555
Al17 Al19 2.665788 1_555
Al17 Al9 2.753792 1_555
Al17 Al4 2.763904 1_655
Al17 Th1 3.280286 1_655
Al17 Th0 3.280286 1_565
Al18 Fe3 2.552039 1_555
Al18 Fe0 2.552039 1_555
Al18 Al6 2.665788 1_555
Al18 Al9 2.753792 1_555
Al18 Al4 2.763904 1_545
Al18 Th0 3.280286 1_455
Al18 Th1 3.280286 1_545
Al19 Fe1 2.522729 1_656
Al19 Fe0 2.522729 1_655
Al19 Al3 2.665788 1_556
Al19 Al7 2.719141 1_555
Al19 Al4 2.766370 1_655
Al19 Th0 3.162495 1_555
Al19 Th0 3.592841 1_565
Fe0 Th0 3.400153 1_455
Fe0 Th1 3.400153 1_555
Fe1 Th0 3.400153 1_454
Fe1 Th1 3.400153 1_555
Fe2 Th1 3.400153 1_545
Fe2 Th0 3.400153 1_554
Fe3 Th1 3.400153 1_545
Fe3 Th0 3.400153 1_555
