# generated using pymatgen
data_Na4Ni3P4O15
_symmetry_space_group_name_H-M   'P 1'
_cell_length_a   6.56617000
_cell_length_b   10.50862600
_cell_length_c   18.23815700
_cell_angle_alpha   90.00000000
_cell_angle_beta   90.00000000
_cell_angle_gamma   90.00000000
_symmetry_Int_Tables_number   1
_chemical_formula_structural   Na4Ni3P4O15
_chemical_formula_sum   'Na16 Ni12 P16 O60'
_cell_volume   1258.45881841
_cell_formula_units_Z   4
loop_
 _symmetry_equiv_pos_site_id
 _symmetry_equiv_pos_as_xyz
  1  'x, y, z'
loop_
 _atom_site_type_symbol
 _atom_site_label
 _atom_site_symmetry_multiplicity
 _atom_site_fract_x
 _atom_site_fract_y
 _atom_site_fract_z
 _atom_site_occupancy
  Na  Na0  1  0.33741800  0.45866400  0.53854200  1
  Na  Na1  1  0.58948700  0.73616100  0.60948600  1
  Na  Na2  1  0.65364100  0.75087800  0.79742900  1
  Na  Na3  1  0.18995200  0.47546300  0.00647100  1
  Na  Na4  1  0.83741800  0.54133600  0.46145800  1
  Na  Na5  1  0.08948700  0.26383900  0.39051400  1
  Na  Na6  1  0.18995200  0.02453700  0.50647100  1
  Na  Na7  1  0.68995200  0.52453700  0.99352900  1
  Na  Na8  1  0.15364100  0.24912200  0.20257100  1
  Na  Na9  1  0.08948700  0.23616100  0.89051400  1
  Na  Na10  1  0.58948700  0.76383900  0.10948600  1
  Na  Na11  1  0.83741800  0.95866400  0.96145800  1
  Na  Na12  1  0.68995200  0.97546300  0.49352900  1
  Na  Na13  1  0.15364100  0.25087800  0.70257100  1
  Na  Na14  1  0.65364100  0.74912200  0.29742900  1
  Na  Na15  1  0.33741800  0.04133600  0.03854200  1
  Ni  Ni0  1  0.41440900  0.50467800  0.86137400  1
  Ni  Ni1  1  0.90344800  0.00361600  0.16999400  1
  Ni  Ni2  1  0.40344800  0.99638400  0.83000600  1
  Ni  Ni3  1  0.67886100  0.24432100  0.26088600  1
  Ni  Ni4  1  0.91440900  0.49532200  0.13862600  1
  Ni  Ni5  1  0.17886100  0.75567900  0.73911400  1
  Ni  Ni6  1  0.90344800  0.49638400  0.66999400  1
  Ni  Ni7  1  0.17886100  0.74432100  0.23911400  1
  Ni  Ni8  1  0.91440900  0.00467800  0.63862600  1
  Ni  Ni9  1  0.67886100  0.25567900  0.76088600  1
  Ni  Ni10  1  0.40344800  0.50361600  0.33000600  1
  Ni  Ni11  1  0.41440900  0.99532200  0.36137400  1
  P  P0  1  0.42141100  0.01131600  0.67909100  1
  P  P1  1  0.86816000  0.27400000  0.54958200  1
  P  P2  1  0.05651700  0.76551400  0.07066200  1
  P  P3  1  0.55651700  0.26551400  0.42933800  1
  P  P4  1  0.92141100  0.51131600  0.82090900  1
  P  P5  1  0.91077800  0.99742400  0.78965800  1
  P  P6  1  0.86816000  0.22600000  0.04958200  1
  P  P7  1  0.05651700  0.73448600  0.57066200  1
  P  P8  1  0.92141100  0.98868400  0.32090900  1
  P  P9  1  0.41077800  0.49742400  0.71034200  1
  P  P10  1  0.91077800  0.50257600  0.28965800  1
  P  P11  1  0.42141100  0.48868400  0.17909100  1
  P  P12  1  0.36816000  0.72600000  0.45041800  1
  P  P13  1  0.41077800  0.00257600  0.21034200  1
  P  P14  1  0.36816000  0.77400000  0.95041800  1
  P  P15  1  0.55651700  0.23448600  0.92933800  1
  O  O0  1  0.23087500  0.74087700  0.62563400  1
  O  O1  1  0.22291500  0.46282400  0.66341900  1
  O  O2  1  0.44921200  0.11366000  0.26712600  1
  O  O3  1  0.02349500  0.34951800  0.50574400  1
  O  O4  1  0.59238400  0.97524100  0.16026000  1
  O  O5  1  0.09238400  0.47524100  0.33974000  1
  O  O6  1  0.94921200  0.88634000  0.73287400  1
  O  O7  1  0.37904600  0.61488600  0.76314600  1
  O  O8  1  0.59238400  0.52475900  0.66026000  1
  O  O9  1  0.02349500  0.15048200  0.00574400  1
  O  O10  1  0.44677700  0.13742300  0.44084000  1
  O  O11  1  0.87904600  0.38511400  0.23685400  1
  O  O12  1  0.95504400  0.87575900  0.26483700  1
  O  O13  1  0.10118600  0.01637900  0.37301400  1
  O  O14  1  0.40548600  0.12683600  0.91386500  1
  O  O15  1  0.22291500  0.03717600  0.16341900  1
  O  O16  1  0.52349500  0.65048200  0.49425600  1
  O  O17  1  0.95504400  0.62424100  0.76483700  1
  O  O18  1  0.40548600  0.37316400  0.41386500  1
  O  O19  1  0.23087500  0.75912300  0.12563400  1
  O  O20  1  0.73087500  0.25912300  0.37436600  1
  O  O21  1  0.64530900  0.19414600  0.01018900  1
  O  O22  1  0.34384100  0.81853300  0.87132100  1
  O  O23  1  0.37904600  0.88511400  0.26314600  1
  O  O24  1  0.52349500  0.84951800  0.99425600  1
  O  O25  1  0.44921200  0.38634000  0.76712600  1
  O  O26  1  0.73087500  0.24087700  0.87436600  1
  O  O27  1  0.84384100  0.31853300  0.62867900  1
  O  O28  1  0.87904600  0.11488600  0.73685400  1
  O  O29  1  0.39736700  0.87106000  0.45422200  1
  O  O30  1  0.60118600  0.51637900  0.12698600  1
  O  O31  1  0.90548600  0.87316400  0.08613500  1
  O  O32  1  0.64530900  0.30585400  0.51018900  1
  O  O33  1  0.94677700  0.63742300  0.05916000  1
  O  O34  1  0.72291500  0.53717600  0.33658100  1
  O  O35  1  0.34384100  0.68146700  0.37132100  1
  O  O36  1  0.89736700  0.37106000  0.04577800  1
  O  O37  1  0.44677700  0.36257700  0.94084000  1
  O  O38  1  0.22769000  0.04343900  0.63489800  1
  O  O39  1  0.72291500  0.96282400  0.83658100  1
  O  O40  1  0.09238400  0.02475900  0.83974000  1
  O  O41  1  0.45504400  0.12424100  0.73516300  1
  O  O42  1  0.10118600  0.48362100  0.87301400  1
  O  O43  1  0.94677700  0.86257700  0.55916000  1
  O  O44  1  0.84384100  0.18146700  0.12867900  1
  O  O45  1  0.39736700  0.62894000  0.95422200  1
  O  O46  1  0.90548600  0.62683600  0.58613500  1
  O  O47  1  0.39648900  0.89352000  0.73209500  1
  O  O48  1  0.60118600  0.98362100  0.62698600  1
  O  O49  1  0.72769000  0.95656100  0.36510200  1
  O  O50  1  0.94921200  0.61366000  0.23287400  1
  O  O51  1  0.14530900  0.69414600  0.48981100  1
  O  O52  1  0.22769000  0.45656100  0.13489800  1
  O  O53  1  0.89648900  0.10648000  0.26790500  1
  O  O54  1  0.39648900  0.60648000  0.23209500  1
  O  O55  1  0.14530900  0.80585400  0.98981100  1
  O  O56  1  0.89648900  0.39352000  0.76790500  1
  O  O57  1  0.72769000  0.54343900  0.86510200  1
  O  O58  1  0.45504400  0.37575900  0.23516300  1
  O  O59  1  0.89736700  0.12894000  0.54577800  1
loop_
_geom_bond_atom_site_label_1
_geom_bond_atom_site_label_2
_geom_bond_distance
_geom_bond_site_symmetry_2
Na0 O1 2.398814 1_555
Na0 O3 2.433558 1_555
Na0 O18 2.485471 1_555
Na0 O16 2.491670 1_555
Na0 O32 2.633096 1_555
Na0 O8 2.865870 1_555
Na0 O51 2.916280 1_555
Na1 O16 2.327031 1_555
Na1 O0 2.373571 1_555
Na1 O8 2.406895 1_555
Na1 O46 2.409661 1_555
Na1 O48 2.621104 1_555
Na1 O43 2.847999 1_555
Na2 O39 2.382746 1_555
Na2 O7 2.384154 1_555
Na2 O17 2.457845 1_555
Na2 O22 2.541575 1_555
Na2 O57 2.551802 1_555
Na2 O47 2.552999 1_555
Na2 O6 2.679399 1_555
Na3 O45 2.316059 1_554
Na3 O36 2.325617 1_455
Na3 O52 2.363704 1_555
Na3 O37 2.384079 1_554
Na3 O42 2.504290 1_554
Na3 O33 2.523825 1_455
Na4 O34 2.398814 1_555
Na4 O16 2.433558 1_555
Na4 O46 2.485471 1_555
Na4 O3 2.491670 1_655
Na4 O51 2.633096 1_655
Na4 O5 2.865870 1_655
Na4 O32 2.916280 1_555
Na5 O3 2.327031 1_555
Na5 O20 2.373571 1_455
Na5 O5 2.406895 1_555
Na5 O18 2.409661 1_555
Na5 O13 2.621104 1_555
Na5 O10 2.847999 1_555
Na6 O29 2.316059 1_545
Na6 O59 2.325617 1_455
Na6 O38 2.363704 1_555
Na6 O10 2.384079 1_555
Na6 O13 2.504290 1_555
Na6 O43 2.523825 1_445
Na7 O36 2.316059 1_556
Na7 O45 2.325617 1_555
Na7 O57 2.363704 1_555
Na7 O33 2.384079 1_556
Na7 O30 2.504290 1_556
Na7 O37 2.523825 1_555
Na8 O15 2.382746 1_555
Na8 O11 2.384154 1_455
Na8 O58 2.457845 1_555
Na8 O44 2.541575 1_455
Na8 O52 2.551802 1_555
Na8 O53 2.552999 1_455
Na8 O2 2.679399 1_555
Na9 O9 2.327031 1_556
Na9 O26 2.373571 1_455
Na9 O40 2.406895 1_555
Na9 O14 2.409661 1_555
Na9 O42 2.621104 1_555
Na9 O37 2.847999 1_555
Na10 O24 2.327031 1_554
Na10 O19 2.373571 1_555
Na10 O4 2.406895 1_555
Na10 O31 2.409661 1_555
Na10 O30 2.621104 1_555
Na10 O33 2.847999 1_555
Na11 O39 2.398814 1_555
Na11 O24 2.433558 1_555
Na11 O31 2.485471 1_556
Na11 O9 2.491670 1_666
Na11 O55 2.633096 1_655
Na11 O40 2.865870 1_665
Na11 O21 2.916280 1_566
Na12 O59 2.316059 1_565
Na12 O29 2.325617 1_555
Na12 O49 2.363704 1_555
Na12 O43 2.384079 1_555
Na12 O48 2.504290 1_555
Na12 O10 2.523825 1_565
Na13 O1 2.382746 1_555
Na13 O28 2.384154 1_455
Na13 O41 2.457845 1_555
Na13 O27 2.541575 1_455
Na13 O38 2.551802 1_555
Na13 O56 2.552999 1_455
Na13 O25 2.679399 1_555
Na14 O34 2.382746 1_555
Na14 O23 2.384154 1_555
Na14 O12 2.457845 1_555
Na14 O35 2.541575 1_555
Na14 O49 2.551802 1_555
Na14 O54 2.552999 1_555
Na14 O50 2.679399 1_555
Na15 O15 2.398814 1_555
Na15 O9 2.433558 1_555
Na15 O14 2.485471 1_554
Na15 O24 2.491670 1_544
Na15 O21 2.633096 1_555
Na15 O4 2.865870 1_545
Na15 O55 2.916280 1_544
Ni0 O42 2.079410 1_555
Ni0 O37 2.091790 1_555
Ni0 O57 2.098098 1_555
Ni0 O25 2.133855 1_555
Ni0 O45 2.141312 1_555
Ni0 O7 2.145846 1_555
Ni1 O44 2.052805 1_555
Ni1 O31 2.053931 1_545
Ni1 O4 2.071770 1_545
Ni1 O53 2.087904 1_555
Ni1 O15 2.130492 1_655
Ni1 O12 2.216330 1_545
Ni2 O22 2.052805 1_555
Ni2 O14 2.053931 1_565
Ni2 O40 2.071770 1_565
Ni2 O47 2.087904 1_555
Ni2 O39 2.130492 1_555
Ni2 O41 2.216330 1_565
Ni3 O11 2.027048 1_555
Ni3 O53 2.038771 1_555
Ni3 O2 2.042565 1_555
Ni3 O58 2.070672 1_555
Ni3 O20 2.103416 1_555
Ni4 O30 2.079410 1_555
Ni4 O33 2.091790 1_555
Ni4 O52 2.098098 1_655
Ni4 O50 2.133855 1_555
Ni4 O36 2.141312 1_555
Ni4 O11 2.145846 1_555
Ni5 O7 2.027048 1_555
Ni5 O47 2.038771 1_555
Ni5 O6 2.042565 1_455
Ni5 O17 2.070672 1_455
Ni5 O0 2.103416 1_555
Ni6 O27 2.052805 1_555
Ni6 O46 2.053931 1_555
Ni6 O8 2.071770 1_555
Ni6 O56 2.087904 1_555
Ni6 O1 2.130492 1_655
Ni6 O17 2.216330 1_555
Ni7 O23 2.027048 1_555
Ni7 O54 2.038771 1_555
Ni7 O50 2.042565 1_455
Ni7 O12 2.070672 1_455
Ni7 O19 2.103416 1_555
Ni8 O48 2.079410 1_545
Ni8 O43 2.091790 1_545
Ni8 O38 2.098098 1_655
Ni8 O6 2.133855 1_545
Ni8 O59 2.141312 1_555
Ni8 O28 2.145846 1_555
Ni9 O28 2.027048 1_555
Ni9 O56 2.038771 1_555
Ni9 O25 2.042565 1_555
Ni9 O41 2.070672 1_555
Ni9 O26 2.103416 1_555
Ni10 O35 2.052805 1_555
Ni10 O18 2.053931 1_555
Ni10 O5 2.071770 1_555
Ni10 O54 2.087904 1_555
Ni10 O34 2.130492 1_555
Ni10 O58 2.216330 1_555
Ni11 O13 2.079410 1_565
Ni11 O10 2.091790 1_565
Ni11 O49 2.098098 1_555
Ni11 O2 2.133855 1_565
Ni11 O29 2.141312 1_555
Ni11 O23 2.145846 1_555
O0 P7 1.523288 1_555
O1 P9 1.544733 1_555
O2 P13 1.580795 1_555
O3 P1 1.519650 1_455
O4 P13 1.529304 1_565
O5 P10 1.529304 1_455
O6 P5 1.580795 1_555
O7 P9 1.579408 1_555
O8 P9 1.529304 1_555
O9 P6 1.519650 1_455
O10 P3 1.541138 1_555
O11 P10 1.579408 1_555
O12 P8 1.582027 1_555
O13 P8 1.543112 1_445
O14 P15 1.530631 1_555
O15 P13 1.544733 1_555
O16 P12 1.519650 1_555
O17 P4 1.582027 1_555
O18 P3 1.530631 1_555
O19 P2 1.523288 1_555
O20 P3 1.523288 1_555
O21 P15 1.641338 1_554
O21 P6 1.664155 1_555
O22 P14 1.524976 1_555
O23 P13 1.579408 1_565
O24 P14 1.519650 1_555
O25 P9 1.580795 1_555
O26 P15 1.523288 1_555
O27 P1 1.524976 1_555
O28 P5 1.579408 1_545
O29 P12 1.537963 1_555
O30 P11 1.543112 1_555
O31 P2 1.530631 1_655
O32 P3 1.641338 1_555
O32 P1 1.664155 1_555
O33 P2 1.541138 1_655
O34 P10 1.544733 1_555
O35 P12 1.524976 1_555
O36 P6 1.537963 1_555
O37 P15 1.541138 1_555
O38 P0 1.543238 1_555
O39 P5 1.544733 1_555
O40 P5 1.529304 1_445
O41 P0 1.582027 1_555
O42 P4 1.543112 1_455
O43 P7 1.541138 1_655
O44 P6 1.524976 1_555
O45 P14 1.537963 1_555
O46 P7 1.530631 1_655
O47 P0 1.579117 1_565
O48 P0 1.543112 1_565
O49 P8 1.543238 1_555
O50 P10 1.580795 1_555
O51 P7 1.641338 1_555
O51 P12 1.664155 1_555
O52 P11 1.543238 1_555
O53 P8 1.579117 1_545
O54 P11 1.579117 1_555
O55 P2 1.641338 1_556
O55 P14 1.664155 1_555
O56 P4 1.579117 1_555
O57 P4 1.543238 1_555
O58 P11 1.582027 1_555
O59 P1 1.537963 1_555
