# generated using pymatgen
data_Bi5IO7
_symmetry_space_group_name_H-M   'P 1'
_cell_length_a   9.53295427
_cell_length_b   9.53295427
_cell_length_c   13.23396530
_cell_angle_alpha   73.80685797
_cell_angle_beta   73.80685797
_cell_angle_gamma   25.62494908
_symmetry_Int_Tables_number   1
_chemical_formula_structural   Bi5IO7
_chemical_formula_sum   'Bi10 I2 O14'
_cell_volume   498.40157877
_cell_formula_units_Z   2
loop_
 _symmetry_equiv_pos_site_id
 _symmetry_equiv_pos_as_xyz
  1  'x, y, z'
loop_
 _atom_site_type_symbol
 _atom_site_label
 _atom_site_symmetry_multiplicity
 _atom_site_fract_x
 _atom_site_fract_y
 _atom_site_fract_z
 _atom_site_occupancy
  Bi  Bi0  1  0.79514808  0.79514808  0.36824696  1
  Bi  Bi1  1  0.20485192  0.20485192  0.63175304  1
  Bi  Bi2  1  0.39608759  0.39608759  0.12663142  1
  Bi  Bi3  1  0.60391241  0.60391241  0.87336858  1
  Bi  Bi4  1  0.46912950  0.46912950  0.36418844  1
  Bi  Bi5  1  0.53087050  0.53087050  0.63581156  1
  Bi  Bi6  1  0.12232067  0.12232067  0.40859705  1
  Bi  Bi7  1  0.87767933  0.87767933  0.59140295  1
  Bi  Bi8  1  0.73918610  0.73918610  0.13129018  1
  Bi  Bi9  1  0.26081390  0.26081390  0.86870982  1
  I  I0  1  0.92909083  0.92909083  0.87477918  1
  I  I1  1  0.07090917  0.07090917  0.12522082  1
  O  O0  1  0.15012088  0.15012088  0.83325064  1
  O  O1  1  0.84987912  0.84987912  0.16674936  1
  O  O2  1  0.62640336  0.62640336  0.70249182  1
  O  O3  1  0.37359664  0.37359664  0.29750818  1
  O  O4  1  0.28391305  0.28391305  0.11526092  1
  O  O5  1  0.71608695  0.71608695  0.88473908  1
  O  O6  1  0.92913857  0.92913857  0.41274067  1
  O  O7  1  0.07086143  0.07086143  0.58725933  1
  O  O8  1  0.22771305  0.22771305  0.43920428  1
  O  O9  1  0.77228695  0.77228695  0.56079572  1
  O  O10  1  0.30209413  0.30209413  0.70454106  1
  O  O11  1  0.69790587  0.69790587  0.29545894  1
  O  O12  1  0.41390466  0.41390466  0.52840789  1
  O  O13  1  0.58609534  0.58609534  0.47159211  1
loop_
_geom_bond_atom_site_label_1
_geom_bond_atom_site_label_2
_geom_bond_distance
_geom_bond_site_symmetry_2
Bi0 O11 2.278665 1_555
Bi0 O9 2.460569 1_555
Bi0 O8 2.499863 1_565
Bi0 O8 2.499863 1_655
Bi0 O1 2.567909 1_555
Bi0 O3 2.586822 1_655
Bi0 O3 2.586822 1_565
Bi0 O6 2.718641 1_555
Bi1 O10 2.278665 1_555
Bi1 O8 2.460569 1_555
Bi1 O9 2.499863 1_455
Bi1 O9 2.499863 1_545
Bi1 O0 2.567909 1_555
Bi1 O2 2.586822 1_545
Bi1 O2 2.586822 1_455
Bi1 O7 2.718641 1_555
Bi2 O4 2.133372 1_555
Bi2 O3 2.178947 1_555
Bi2 O1 2.286512 1_545
Bi2 O1 2.286512 1_455
Bi3 O5 2.133372 1_555
Bi3 O2 2.178947 1_555
Bi3 O0 2.286512 1_565
Bi3 O0 2.286512 1_655
Bi4 O12 2.121542 1_555
Bi4 O3 2.197637 1_555
Bi4 O6 2.271896 1_455
Bi4 O6 2.271896 1_545
Bi5 O13 2.121542 1_555
Bi5 O2 2.197637 1_555
Bi5 O7 2.271896 1_565
Bi5 O7 2.271896 1_655
Bi6 O8 2.111200 1_555
Bi6 O7 2.282945 1_555
Bi6 O13 2.301429 1_545
Bi6 O13 2.301429 1_455
Bi6 O11 2.735347 1_545
Bi6 O11 2.735347 1_455
Bi7 O9 2.111200 1_555
Bi7 O6 2.282945 1_555
Bi7 O12 2.301429 1_655
Bi7 O12 2.301429 1_565
Bi7 O10 2.735347 1_565
Bi7 O10 2.735347 1_655
Bi8 O11 2.086975 1_555
Bi8 O1 2.237767 1_555
Bi8 O4 2.259356 1_565
Bi8 O4 2.259356 1_655
Bi9 O10 2.086975 1_555
Bi9 O0 2.237767 1_555
Bi9 O5 2.259356 1_545
Bi9 O5 2.259356 1_455
