# generated using pymatgen
data_Na5MoNO4
_symmetry_space_group_name_H-M   'P 1'
_cell_length_a   5.77273159
_cell_length_b   5.77273159
_cell_length_c   10.84058700
_cell_angle_alpha   90.00000000
_cell_angle_beta   90.00000000
_cell_angle_gamma   119.16121864
_symmetry_Int_Tables_number   1
_chemical_formula_structural   Na5MoNO4
_chemical_formula_sum   'Na10 Mo2 N2 O8'
_cell_volume   315.46789220
_cell_formula_units_Z   2
loop_
 _symmetry_equiv_pos_site_id
 _symmetry_equiv_pos_as_xyz
  1  'x, y, z'
loop_
 _atom_site_type_symbol
 _atom_site_label
 _atom_site_symmetry_multiplicity
 _atom_site_fract_x
 _atom_site_fract_y
 _atom_site_fract_z
 _atom_site_occupancy
  Na  Na0  1  0.19090900  0.80909100  0.50000000  1
  Na  Na1  1  0.19090900  0.80909100  0.00000000  1
  Na  Na2  1  0.54546200  0.16899200  0.75000000  1
  Na  Na3  1  0.16899200  0.54546200  0.75000000  1
  Na  Na4  1  0.50000000  0.50000000  0.00000000  1
  Na  Na5  1  0.80909100  0.19090900  0.50000000  1
  Na  Na6  1  0.80909100  0.19090900  0.00000000  1
  Na  Na7  1  0.50000000  0.50000000  0.50000000  1
  Na  Na8  1  0.45453800  0.83100800  0.25000000  1
  Na  Na9  1  0.83100800  0.45453800  0.25000000  1
  Mo  Mo0  1  0.20758900  0.20758900  0.25000000  1
  Mo  Mo1  1  0.79241100  0.79241100  0.75000000  1
  N  N0  1  0.90664200  0.90664200  0.25000000  1
  N  N1  1  0.09335800  0.09335800  0.75000000  1
  O  O0  1  0.83459800  0.55925200  0.62712500  1
  O  O1  1  0.55925200  0.83459800  0.62712500  1
  O  O2  1  0.16540200  0.44074800  0.37287500  1
  O  O3  1  0.44074800  0.16540200  0.37287500  1
  O  O4  1  0.44074800  0.16540200  0.12712500  1
  O  O5  1  0.16540200  0.44074800  0.12712500  1
  O  O6  1  0.55925200  0.83459800  0.87287500  1
  O  O7  1  0.83459800  0.55925200  0.87287500  1
loop_
_geom_bond_atom_site_label_1
_geom_bond_atom_site_label_2
_geom_bond_distance
_geom_bond_site_symmetry_2
Na0 O0 2.306307 1_455
Na0 O3 2.306307 1_565
Na0 O1 2.477315 1_555
Na0 O2 2.477315 1_555
Na1 O4 2.306307 1_565
Na1 O7 2.306307 1_454
Na1 O5 2.477315 1_555
Na1 O6 2.477315 1_554
Na2 O6 2.378389 1_545
Na2 O1 2.378389 1_545
Na2 O7 2.443587 1_555
Na2 O0 2.443587 1_555
Na3 O7 2.378389 1_455
Na3 O0 2.378389 1_455
Na3 O6 2.443587 1_555
Na3 O1 2.443587 1_555
Na4 O6 2.259024 1_554
Na4 O4 2.259024 1_555
Na4 O7 2.259024 1_554
Na4 O5 2.259024 1_555
Na5 O1 2.306307 1_545
Na5 O2 2.306307 1_655
Na5 O0 2.477315 1_555
Na5 O3 2.477315 1_555
Na6 O5 2.306307 1_655
Na6 O6 2.306307 1_544
Na6 O4 2.477315 1_555
Na6 O7 2.477315 1_554
Na7 O1 2.259024 1_555
Na7 O0 2.259024 1_555
Na7 O2 2.259024 1_555
Na7 O3 2.259024 1_555
Na8 O3 2.378389 1_565
Na8 O4 2.378389 1_565
Na8 O2 2.443587 1_555
Na8 O5 2.443587 1_555
Na9 O2 2.378389 1_655
Na9 O5 2.378389 1_655
Na9 O3 2.443587 1_555
Na9 O4 2.443587 1_555
Mo0 N0 1.759265 1_445
Mo0 O2 1.991154 1_555
Mo0 O3 1.991154 1_555
Mo0 O4 1.991154 1_555
Mo0 O5 1.991154 1_555
Mo1 N1 1.759265 1_665
Mo1 O7 1.991154 1_555
Mo1 O6 1.991154 1_555
Mo1 O0 1.991154 1_555
Mo1 O1 1.991154 1_555
N0 Na9 2.427259 1_555
N0 Na8 2.427259 1_555
N1 Na2 2.427259 1_555
N1 Na3 2.427259 1_555
