# generated using pymatgen
data_Sr(InAu)3
_symmetry_space_group_name_H-M   'P 1'
_cell_length_a   4.59183568
_cell_length_b   7.82374532
_cell_length_c   9.16474804
_cell_angle_alpha   90.00000000
_cell_angle_beta   90.00000000
_cell_angle_gamma   90.00000000
_symmetry_Int_Tables_number   1
_chemical_formula_structural   Sr(InAu)3
_chemical_formula_sum   'Sr2 In6 Au6'
_cell_volume   329.24680768
_cell_formula_units_Z   2
loop_
 _symmetry_equiv_pos_site_id
 _symmetry_equiv_pos_as_xyz
  1  'x, y, z'
loop_
 _atom_site_type_symbol
 _atom_site_label
 _atom_site_symmetry_multiplicity
 _atom_site_fract_x
 _atom_site_fract_y
 _atom_site_fract_z
 _atom_site_occupancy
  Sr  Sr0  1  0.50000000  -0.00000000  0.72712993  1
  Sr  Sr1  1  -0.00000000  0.50000000  0.27287007  1
  In  In0  1  0.00000000  0.30274825  0.88583077  1
  In  In1  1  0.50000000  0.19725175  0.11416923  1
  In  In2  1  0.00000000  0.69725175  0.88583077  1
  In  In3  1  -0.00000000  -0.00000000  0.36984133  1
  In  In4  1  0.50000000  0.80274825  0.11416923  1
  In  In5  1  0.50000000  0.50000000  0.63015867  1
  Au  Au0  1  0.00000000  0.73011046  0.58976191  1
  Au  Au1  1  0.50000000  0.76988954  0.41023809  1
  Au  Au2  1  0.50000000  0.50000000  0.95046174  1
  Au  Au3  1  -0.00000000  -0.00000000  0.04953826  1
  Au  Au4  1  0.50000000  0.23011046  0.41023809  1
  Au  Au5  1  -0.00000000  0.26988954  0.58976191  1
loop_
_geom_bond_atom_site_label_1
_geom_bond_atom_site_label_2
_geom_bond_distance
_geom_bond_site_symmetry_2
Au0 In2 2.725548 1_555
Au0 Au1 2.841668 1_455
Au0 Au1 2.841668 1_555
Au0 In3 2.919065 1_565
Au0 In5 2.941000 1_455
Au0 In5 2.941000 1_555
Au0 Sr0 3.363749 1_565
Au0 Sr0 3.363749 1_465
Au0 Sr1 3.416979 1_555
Au1 In4 2.725548 1_555
Au1 In5 2.919065 1_555
Au1 In3 2.941000 1_565
Au1 In3 2.941000 1_665
Au1 Sr1 3.363749 1_655
Au1 Sr1 3.363749 1_555
Au1 Sr0 3.416979 1_565
Au2 In1 2.803819 1_556
Au2 In4 2.803819 1_556
Au2 In2 2.829082 1_555
Au2 In2 2.829082 1_655
Au2 In0 2.829082 1_655
Au2 In0 2.829082 1_555
Au2 In5 2.935497 1_555
Au3 In2 2.803819 1_544
Au3 In0 2.803819 1_554
Au3 In4 2.829082 1_445
Au3 In1 2.829082 1_555
Au3 In1 2.829082 1_455
Au3 In4 2.829082 1_545
Au3 In3 2.935497 1_555
Au4 In1 2.725548 1_555
Au4 Au5 2.841668 1_655
Au4 Au5 2.841668 1_555
Au4 In5 2.919065 1_555
Au4 In3 2.941000 1_555
Au4 In3 2.941000 1_655
Au4 Sr1 3.363749 1_655
Au4 Sr1 3.363749 1_555
Au4 Sr0 3.416979 1_555
Au5 In0 2.725548 1_555
Au5 In3 2.919065 1_555
Au5 In5 2.941000 1_555
Au5 In5 2.941000 1_455
Au5 Sr0 3.363749 1_555
Au5 Sr0 3.363749 1_455
Au5 Sr1 3.416979 1_555
