# generated using pymatgen
data_Li9Co3P8O29
_symmetry_space_group_name_H-M   'P 1'
_cell_length_a   9.66487811
_cell_length_b   9.66487811
_cell_length_c   13.68650500
_cell_angle_alpha   90.00000000
_cell_angle_beta   90.00000000
_cell_angle_gamma   120.00000076
_symmetry_Int_Tables_number   1
_chemical_formula_structural   Li9Co3P8O29
_chemical_formula_sum   'Li18 Co6 P16 O58'
_cell_volume   1107.17418532
_cell_formula_units_Z   2
loop_
 _symmetry_equiv_pos_site_id
 _symmetry_equiv_pos_as_xyz
  1  'x, y, z'
loop_
 _atom_site_type_symbol
 _atom_site_label
 _atom_site_symmetry_multiplicity
 _atom_site_fract_x
 _atom_site_fract_y
 _atom_site_fract_z
 _atom_site_occupancy
  Li  Li0  1  0.10018600  0.76346200  0.93598800  1
  Li  Li1  1  0.76346200  0.10018600  0.56401200  1
  Li  Li2  1  0.66327600  0.89981400  0.93598800  1
  Li  Li3  1  0.33672400  0.10018600  0.06401200  1
  Li  Li4  1  0.33333300  0.66666700  0.11971200  1
  Li  Li5  1  0.33672400  0.23653800  0.56401200  1
  Li  Li6  1  0.66666700  0.33333300  0.88028800  1
  Li  Li7  1  0.23653800  0.33672400  0.93598800  1
  Li  Li8  1  0.10018600  0.33672400  0.43598800  1
  Li  Li9  1  0.00000000  0.00000000  0.50000000  1
  Li  Li10  1  0.76346200  0.66327600  0.06401200  1
  Li  Li11  1  0.00000000  0.00000000  0.00000000  1
  Li  Li12  1  0.66666700  0.33333300  0.38028800  1
  Li  Li13  1  0.66327600  0.76346200  0.43598800  1
  Li  Li14  1  0.23653800  0.89981400  0.43598800  1
  Li  Li15  1  0.89981400  0.66327600  0.56401200  1
  Li  Li16  1  0.33333300  0.66666700  0.61971200  1
  Li  Li17  1  0.89981400  0.23653800  0.06401200  1
  Co  Co0  1  0.43378900  0.43378900  0.75000000  1
  Co  Co1  1  0.56621100  0.56621100  0.25000000  1
  Co  Co2  1  0.56621100  0.00000000  0.75000000  1
  Co  Co3  1  0.43378900  0.00000000  0.25000000  1
  Co  Co4  1  0.00000000  0.56621100  0.75000000  1
  Co  Co5  1  0.00000000  0.43378900  0.25000000  1
  P  P0  1  0.67893800  0.90772800  0.15742100  1
  P  P1  1  0.66666700  0.33333300  0.12883500  1
  P  P2  1  0.09227200  0.32106200  0.65742100  1
  P  P3  1  0.32106200  0.09227200  0.84257900  1
  P  P4  1  0.77121000  0.67893800  0.84257900  1
  P  P5  1  0.22879000  0.32106200  0.15742100  1
  P  P6  1  0.33333300  0.66666700  0.37116500  1
  P  P7  1  0.90772800  0.22879000  0.84257900  1
  P  P8  1  0.66666700  0.33333300  0.62883500  1
  P  P9  1  0.67893800  0.77121000  0.65742100  1
  P  P10  1  0.09227200  0.77121000  0.15742100  1
  P  P11  1  0.22879000  0.90772800  0.65742100  1
  P  P12  1  0.33333300  0.66666700  0.87116500  1
  P  P13  1  0.32106200  0.22879000  0.34257900  1
  P  P14  1  0.90772800  0.67893800  0.34257900  1
  P  P15  1  0.77121000  0.09227200  0.34257900  1
  O  O0  1  0.89248800  0.51363600  0.33203800  1
  O  O1  1  0.25851800  0.33601500  0.65767900  1
  O  O2  1  0.74148200  0.07749800  0.84232100  1
  O  O3  1  0.21245700  0.21245700  0.25000000  1
  O  O4  1  0.37885200  0.89248800  0.66796200  1
  O  O5  1  0.00000000  0.21245700  0.75000000  1
  O  O6  1  0.22834300  0.00263300  0.93318800  1
  O  O7  1  0.67702500  0.49141900  0.16574600  1
  O  O8  1  0.78754300  0.78754300  0.75000000  1
  O  O9  1  0.48636400  0.37885200  0.33203800  1
  O  O10  1  0.99736700  0.22571000  0.93318800  1
  O  O11  1  0.22571000  0.99736700  0.56681200  1
  O  O12  1  0.32297500  0.81439400  0.33425400  1
  O  O13  1  0.89248800  0.37885200  0.83203800  1
  O  O14  1  0.99736700  0.77165700  0.43318800  1
  O  O15  1  0.77429000  0.77165700  0.93318800  1
  O  O16  1  0.81439400  0.49141900  0.66574600  1
  O  O17  1  0.48636400  0.10751200  0.83203800  1
  O  O18  1  0.78754300  0.00000000  0.25000000  1
  O  O19  1  0.49141900  0.67702500  0.33425400  1
  O  O20  1  0.92250200  0.25851800  0.34232100  1
  O  O21  1  0.66398500  0.92250200  0.65767900  1
  O  O22  1  0.25851800  0.92250200  0.15767900  1
  O  O23  1  0.22834300  0.22571000  0.43318800  1
  O  O24  1  0.33333300  0.66666700  0.48217000  1
  O  O25  1  0.00263300  0.77429000  0.06681200  1
  O  O26  1  0.07749800  0.33601500  0.15767900  1
  O  O27  1  0.37885200  0.48636400  0.16796200  1
  O  O28  1  0.50858100  0.32297500  0.66574600  1
  O  O29  1  0.21245700  0.00000000  0.75000000  1
  O  O30  1  0.62114800  0.10751200  0.33203800  1
  O  O31  1  0.66666700  0.33333300  0.51783000  1
  O  O32  1  0.66398500  0.74148200  0.15767900  1
  O  O33  1  0.33333300  0.66666700  0.98217000  1
  O  O34  1  0.18560600  0.67702500  0.83425400  1
  O  O35  1  0.51363600  0.62114800  0.66796200  1
  O  O36  1  0.67702500  0.18560600  0.66574600  1
  O  O37  1  0.00263300  0.22834300  0.56681200  1
  O  O38  1  0.22571000  0.22834300  0.06681200  1
  O  O39  1  0.81439400  0.32297500  0.16574600  1
  O  O40  1  0.74148200  0.66398500  0.34232100  1
  O  O41  1  0.77165700  0.77429000  0.56681200  1
  O  O42  1  0.62114800  0.51363600  0.83203800  1
  O  O43  1  0.51363600  0.89248800  0.16796200  1
  O  O44  1  0.77429000  0.00263300  0.43318800  1
  O  O45  1  0.07749800  0.74148200  0.65767900  1
  O  O46  1  0.10751200  0.48636400  0.66796200  1
  O  O47  1  0.50858100  0.18560600  0.16574600  1
  O  O48  1  0.32297500  0.50858100  0.83425400  1
  O  O49  1  0.77165700  0.99736700  0.06681200  1
  O  O50  1  0.18560600  0.50858100  0.33425400  1
  O  O51  1  0.10751200  0.62114800  0.16796200  1
  O  O52  1  0.33601500  0.25851800  0.84232100  1
  O  O53  1  0.66666700  0.33333300  0.01783000  1
  O  O54  1  0.00000000  0.78754300  0.25000000  1
  O  O55  1  0.33601500  0.07749800  0.34232100  1
  O  O56  1  0.49141900  0.81439400  0.83425400  1
  O  O57  1  0.92250200  0.66398500  0.84232100  1
loop_
_geom_bond_atom_site_label_1
_geom_bond_atom_site_label_2
_geom_bond_distance
_geom_bond_site_symmetry_2
Li0 O57 1.966176 1_455
Li0 O34 2.001971 1_555
Li0 O6 2.003948 1_565
Li0 O25 2.050497 1_556
Li1 O21 1.966176 1_545
Li1 O36 2.001971 1_555
Li1 O37 2.003948 1_655
Li1 O44 2.050497 1_555
Li2 O2 1.966176 1_565
Li2 O56 2.001971 1_555
Li2 O15 2.003948 1_555
Li2 O49 2.050497 1_556
Li3 O22 1.966176 1_545
Li3 O47 2.001971 1_555
Li3 O38 2.003948 1_555
Li3 O6 2.050497 1_554
Li4 O33 1.882469 1_554
Li4 O51 2.105448 1_555
Li4 O43 2.105451 1_555
Li4 O27 2.105457 1_555
Li5 O1 1.966170 1_555
Li5 O28 2.001971 1_555
Li5 O11 2.003948 1_545
Li5 O23 2.050497 1_555
Li6 O53 1.882469 1_556
Li6 O13 2.105448 1_555
Li6 O17 2.105451 1_555
Li6 O42 2.105457 1_555
Li7 O52 1.966170 1_555
Li7 O48 2.001971 1_555
Li7 O10 2.003948 1_455
Li7 O38 2.050497 1_556
Li8 O20 1.966176 1_455
Li8 O50 2.001971 1_555
Li8 O23 2.003948 1_555
Li8 O37 2.050497 1_555
Li9 O41 2.377203 1_445
Li9 O23 2.377203 1_555
Li9 O37 2.377203 1_555
Li9 O14 2.377203 1_445
Li9 O11 2.377203 1_545
Li9 O44 2.377203 1_455
Li10 O32 1.966170 1_555
Li10 O7 2.001971 1_555
Li10 O25 2.003948 1_655
Li10 O15 2.050497 1_554
Li11 O38 2.377203 1_555
Li11 O15 2.377203 1_444
Li11 O6 2.377203 1_554
Li11 O49 2.377203 1_445
Li11 O25 2.377203 1_545
Li11 O10 2.377203 1_454
Li12 O31 1.882469 1_555
Li12 O30 2.105448 1_555
Li12 O0 2.105451 1_555
Li12 O9 2.105457 1_555
Li13 O40 1.966170 1_555
Li13 O19 2.001971 1_555
Li13 O44 2.003948 1_565
Li13 O41 2.050497 1_555
Li14 O55 1.966176 1_565
Li14 O12 2.001971 1_555
Li14 O14 2.003948 1_455
Li14 O11 2.050497 1_555
Li15 O45 1.966176 1_655
Li15 O16 2.001971 1_555
Li15 O41 2.003948 1_555
Li15 O14 2.050497 1_555
Li16 O24 1.882469 1_555
Li16 O4 2.105448 1_555
Li16 O46 2.105451 1_555
Li16 O35 2.105457 1_555
Li17 O26 1.966176 1_655
Li17 O39 2.001971 1_555
Li17 O49 2.003948 1_545
Li17 O10 2.050497 1_554
Co0 O42 1.933348 1_555
Co0 O35 1.933348 1_555
Co0 O1 1.938639 1_555
Co0 O52 1.938639 1_555
Co0 O48 1.942547 1_555
Co0 O28 1.942547 1_555
Co1 O9 1.933348 1_555
Co1 O27 1.933348 1_555
Co1 O40 1.938639 1_555
Co1 O32 1.938639 1_555
Co1 O7 1.942547 1_555
Co1 O19 1.942547 1_555
Co2 O4 1.933348 1_545
Co2 O17 1.933348 1_555
Co2 O2 1.938639 1_555
Co2 O21 1.938646 1_545
Co2 O36 1.942547 1_555
Co2 O56 1.942547 1_545
Co3 O30 1.933348 1_555
Co3 O43 1.933348 1_545
Co3 O22 1.938639 1_545
Co3 O55 1.938646 1_555
Co3 O12 1.942547 1_545
Co3 O47 1.942547 1_555
Co4 O13 1.933348 1_455
Co4 O46 1.933348 1_555
Co4 O45 1.938639 1_555
Co4 O57 1.938646 1_455
Co4 O34 1.942547 1_555
Co4 O16 1.942547 1_455
Co5 O51 1.933348 1_555
Co5 O0 1.933348 1_455
Co5 O20 1.938639 1_455
Co5 O26 1.938646 1_555
Co5 O39 1.942547 1_455
Co5 O50 1.942547 1_555
O0 P14 1.536096 1_555
O1 P2 1.539588 1_555
O2 P7 1.539583 1_555
O3 P13 1.602029 1_555
O3 P5 1.602029 1_555
O4 P11 1.536096 1_555
O5 P2 1.602029 1_555
O5 P7 1.602029 1_455
O6 P3 1.521557 1_555
O7 P1 1.564193 1_555
O8 P4 1.602029 1_555
O8 P9 1.602029 1_555
O9 P13 1.536096 1_555
O10 P7 1.521557 1_555
O11 P11 1.521557 1_555
O12 P6 1.564184 1_555
O13 P7 1.536096 1_555
O14 P14 1.521557 1_555
O15 P4 1.521557 1_555
O16 P8 1.564189 1_555
O17 P3 1.536096 1_555
O18 P0 1.602029 1_545
O18 P15 1.602029 1_555
O19 P6 1.564193 1_555
O20 P15 1.539583 1_555
O21 P9 1.539578 1_555
O22 P10 1.539583 1_555
O23 P13 1.521557 1_555
O24 P6 1.519270 1_555
O25 P10 1.521557 1_555
O26 P5 1.539578 1_555
O27 P5 1.536096 1_555
O28 P8 1.564193 1_555
O29 P3 1.602029 1_555
O29 P11 1.602029 1_545
O30 P15 1.536096 1_555
O31 P8 1.519270 1_555
O32 P0 1.539588 1_555
O33 P12 1.519270 1_555
O34 P12 1.564184 1_555
O35 P9 1.536096 1_555
O36 P8 1.564184 1_555
O37 P2 1.521557 1_555
O38 P5 1.521557 1_555
O39 P1 1.564184 1_555
O40 P14 1.539588 1_555
O41 P9 1.521557 1_555
O42 P4 1.536096 1_555
O43 P0 1.536096 1_555
O44 P15 1.521557 1_555
O45 P11 1.539583 1_555
O46 P2 1.536096 1_555
O47 P1 1.564189 1_555
O48 P12 1.564193 1_555
O49 P0 1.521557 1_555
O50 P6 1.564189 1_555
O51 P10 1.536096 1_555
O52 P3 1.539588 1_555
O53 P1 1.519270 1_555
O54 P14 1.602029 1_455
O54 P10 1.602029 1_555
O55 P13 1.539578 1_555
O56 P12 1.564189 1_555
O57 P4 1.539578 1_555
