# generated using pymatgen
data_Lu(PO3)3
_symmetry_space_group_name_H-M   'P 1'
_cell_length_a   12.32931890
_cell_length_b   12.32931890
_cell_length_c   10.08039365
_cell_angle_alpha   69.71293462
_cell_angle_beta   69.71293462
_cell_angle_gamma   110.14186539
_symmetry_Int_Tables_number   1
_chemical_formula_structural   Lu(PO3)3
_chemical_formula_sum   'Lu6 P18 O54'
_cell_volume   1144.85347968
_cell_formula_units_Z   6
loop_
 _symmetry_equiv_pos_site_id
 _symmetry_equiv_pos_as_xyz
  1  'x, y, z'
loop_
 _atom_site_type_symbol
 _atom_site_label
 _atom_site_symmetry_multiplicity
 _atom_site_fract_x
 _atom_site_fract_y
 _atom_site_fract_z
 _atom_site_occupancy
  Lu  Lu0  1  0.09350200  0.27031200  0.48331400  1
  Lu  Lu1  1  0.45348500  0.94314700  0.44848900  1
  Lu  Lu2  1  0.60392200  0.76034200  0.98509500  1
  Lu  Lu3  1  0.27031200  0.09350200  0.98331400  1
  Lu  Lu4  1  0.76034200  0.60392200  0.48509500  1
  Lu  Lu5  1  0.94314700  0.45348500  0.94848900  1
  P  P0  1  0.40609300  0.67780500  0.80736500  1
  P  P1  1  0.74162600  0.34408900  0.79264400  1
  P  P2  1  0.53805600  0.13788800  0.62893600  1
  P  P3  1  0.39354100  0.44955600  0.75735300  1
  P  P4  1  0.48367300  0.21097400  0.12729000  1
  P  P5  1  0.13788800  0.53805600  0.12893600  1
  P  P6  1  0.12039400  0.73694200  0.23947700  1
  P  P7  1  0.79830400  0.86353600  0.14808100  1
  P  P8  1  0.67780500  0.40609300  0.30736500  1
  P  P9  1  0.81509900  0.09352500  0.19110600  1
  P  P10  1  0.44955600  0.39354100  0.25735300  1
  P  P11  1  0.73694200  0.12039500  0.73947700  1
  P  P12  1  0.34408900  0.74162600  0.29264400  1
  P  P13  1  0.05975000  0.00043100  0.82215400  1
  P  P14  1  0.09352500  0.81509900  0.69110600  1
  P  P15  1  0.00043100  0.05975000  0.32215400  1
  P  P16  1  0.86353600  0.79830400  0.64808100  1
  P  P17  1  0.21097400  0.48367300  0.62729000  1
  O  O0  1  0.32024700  0.61894400  0.44705400  1
  O  O1  1  0.09364400  0.63242600  0.17792000  1
  O  O2  1  0.37642500  0.12195700  0.11202400  1
  O  O3  1  0.21751500  0.88035900  0.09175500  1
  O  O4  1  0.03499700  0.08249500  0.69997400  1
  O  O5  1  0.79570100  0.67092200  0.64915500  1
  O  O6  1  0.42237900  0.76179800  0.64491800  1
  O  O7  1  0.03581700  0.46215500  0.09680300  1
  O  O8  1  0.53164000  0.54363900  0.13227300  1
  O  O9  1  0.44629500  0.31479000  0.16020500  1
  O  O10  1  0.30539700  0.33111600  0.38992800  1
  O  O11  1  0.08249500  0.03499700  0.19997400  1
  O  O12  1  0.45614300  0.15997100  0.75514000  1
  O  O13  1  0.16085600  0.07503300  0.85619600  1
  O  O14  1  0.98195800  0.69965100  0.35922000  1
  O  O15  1  0.88201100  0.91954900  0.49645700  1
  O  O16  1  0.46215500  0.03581700  0.59680300  1
  O  O17  1  0.91954900  0.88201100  0.99645700  1
  O  O18  1  0.02066500  0.84928500  0.59084400  1
  O  O19  1  0.54363900  0.53164000  0.63227300  1
  O  O20  1  0.12195700  0.37642500  0.61202400  1
  O  O21  1  0.63242600  0.09364400  0.67792000  1
  O  O22  1  0.88035900  0.21751500  0.59175500  1
  O  O23  1  0.51482100  0.14201600  0.25102300  1
  O  O24  1  0.84928500  0.02066500  0.09084400  1
  O  O25  1  0.72900700  0.52484600  0.32813300  1
  O  O26  1  0.15997100  0.45614300  0.25514000  1
  O  O27  1  0.86811700  0.41637200  0.79098700  1
  O  O28  1  0.07503300  0.16085600  0.35619600  1
  O  O29  1  0.35299200  0.52302400  0.85293800  1
  O  O30  1  0.79568100  0.79414600  0.30524500  1
  O  O31  1  0.14201600  0.51482100  0.75102300  1
  O  O32  1  0.18931100  0.69897700  0.34424700  1
  O  O33  1  0.10559200  0.90857000  0.76882400  1
  O  O34  1  0.00550300  0.66832200  0.82958900  1
  O  O35  1  0.67092200  0.79570100  0.14915500  1
  O  O36  1  0.27813700  0.65518200  0.95449900  1
  O  O37  1  0.69897700  0.18931100  0.84424700  1
  O  O38  1  0.86659400  0.23583600  0.06400800  1
  O  O39  1  0.33111600  0.30539700  0.88992800  1
  O  O40  1  0.41182500  0.73821900  0.13971600  1
  O  O41  1  0.76179800  0.42237900  0.14491800  1
  O  O42  1  0.66832200  0.00550300  0.32958900  1
  O  O43  1  0.90857000  0.10559200  0.26882400  1
  O  O44  1  0.79414600  0.79568100  0.80524500  1
  O  O45  1  0.41637200  0.86811700  0.29098700  1
  O  O46  1  0.52302400  0.35299200  0.35293800  1
  O  O47  1  0.23583600  0.86659400  0.56400800  1
  O  O48  1  0.65518200  0.27813700  0.45449900  1
  O  O49  1  0.61894400  0.32024700  0.94705400  1
  O  O50  1  0.52484600  0.72900700  0.82813300  1
  O  O51  1  0.69965100  0.98195800  0.85922000  1
  O  O52  1  0.73821900  0.41182500  0.63971600  1
  O  O53  1  0.31479000  0.44629500  0.66020500  1
loop_
_geom_bond_atom_site_label_1
_geom_bond_atom_site_label_2
_geom_bond_distance
_geom_bond_site_symmetry_2
Lu0 O20 2.166735 1_555
Lu0 O28 2.169078 1_555
Lu0 O10 2.174814 1_555
Lu0 O22 2.204767 1_455
Lu0 O4 2.214190 1_555
Lu0 O26 2.226392 1_555
Lu1 O16 2.182507 1_565
Lu1 O47 2.185054 1_555
Lu1 O42 2.191063 1_565
Lu1 O45 2.194677 1_555
Lu1 O23 2.200165 1_565
Lu1 O6 2.209039 1_555
Lu2 O44 2.185678 1_555
Lu2 O51 2.192084 1_555
Lu2 O35 2.192429 1_556
Lu2 O40 2.193992 1_556
Lu2 O8 2.197358 1_556
Lu2 O50 2.199426 1_555
Lu3 O2 2.166735 1_556
Lu3 O13 2.169078 1_555
Lu3 O39 2.174814 1_555
Lu3 O3 2.204767 1_546
Lu3 O11 2.214190 1_556
Lu3 O12 2.226392 1_555
Lu4 O30 2.185678 1_555
Lu4 O14 2.192084 1_555
Lu4 O5 2.192429 1_555
Lu4 O52 2.193992 1_555
Lu4 O19 2.197358 1_555
Lu4 O25 2.199426 1_555
Lu5 O7 2.182507 1_656
Lu5 O38 2.185054 1_556
Lu5 O34 2.191063 1_655
Lu5 O27 2.194677 1_555
Lu5 O31 2.200165 1_655
Lu5 O41 2.209039 1_556
O0 P12 1.594031 1_555
O0 P17 1.597342 1_555
O1 P5 1.594956 1_555
O1 P6 1.599390 1_555
O2 P4 1.495145 1_555
O3 P6 1.502441 1_555
O4 P13 1.497642 1_555
O5 P16 1.497832 1_555
O6 P0 1.499028 1_555
O7 P5 1.498734 1_555
O8 P10 1.498654 1_555
O9 P4 1.598602 1_555
O9 P10 1.600980 1_555
O10 P10 1.494964 1_555
O11 P15 1.497642 1_555
O12 P2 1.500386 1_555
O13 P13 1.497856 1_555
O14 P6 1.492535 1_655
O15 P16 1.600717 1_555
O15 P15 1.607395 1_665
O16 P2 1.498734 1_555
O17 P7 1.600717 1_556
O17 P13 1.607395 1_665
O18 P14 1.612774 1_555
O18 P16 1.617365 1_455
O19 P3 1.498654 1_555
O20 P17 1.495145 1_555
O21 P2 1.594956 1_555
O21 P11 1.599390 1_555
O22 P11 1.502441 1_555
O23 P4 1.499231 1_555
O24 P9 1.612774 1_555
O24 P7 1.617365 1_545
O25 P8 1.501237 1_555
O26 P5 1.500386 1_555
O27 P1 1.497040 1_555
O28 P15 1.497856 1_555
O29 P3 1.606827 1_555
O29 P0 1.613849 1_555
O30 P7 1.499475 1_555
O31 P17 1.499231 1_555
O32 P6 1.615513 1_555
O32 P12 1.618524 1_555
O33 P13 1.594857 1_565
O33 P14 1.597755 1_555
O34 P14 1.498817 1_555
O35 P7 1.497832 1_555
O36 P0 1.598107 1_555
O36 P5 1.605718 1_556
O37 P11 1.615503 1_555
O37 P1 1.618524 1_555
O38 P9 1.494339 1_555
O39 P3 1.494964 1_555
O40 P12 1.500657 1_555
O41 P8 1.499028 1_555
O42 P9 1.498817 1_555
O43 P15 1.594857 1_655
O43 P9 1.597755 1_555
O44 P16 1.499475 1_555
O45 P12 1.497040 1_555
O46 P10 1.606827 1_555
O46 P8 1.613849 1_555
O47 P14 1.494339 1_555
O48 P8 1.598107 1_555
O48 P2 1.605718 1_555
O49 P1 1.594031 1_555
O49 P4 1.597342 1_556
O50 P0 1.501237 1_555
O51 P11 1.492544 1_565
O52 P1 1.500657 1_555
O53 P17 1.598602 1_555
O53 P3 1.600980 1_555
