# generated using pymatgen
data_Cu6PbO8
_symmetry_space_group_name_H-M   'P 1'
_cell_length_a   6.52803857
_cell_length_b   6.52800208
_cell_length_c   6.52792076
_cell_angle_alpha   60.00100237
_cell_angle_beta   60.00046621
_cell_angle_gamma   60.00069200
_symmetry_Int_Tables_number   1
_chemical_formula_structural   Cu6PbO8
_chemical_formula_sum   'Cu6 Pb1 O8'
_cell_volume   196.71159667
_cell_formula_units_Z   1
loop_
 _symmetry_equiv_pos_site_id
 _symmetry_equiv_pos_as_xyz
  1  'x, y, z'
loop_
 _atom_site_type_symbol
 _atom_site_label
 _atom_site_symmetry_multiplicity
 _atom_site_fract_x
 _atom_site_fract_y
 _atom_site_fract_z
 _atom_site_occupancy
  Cu  Cu0  1  0.50000002  0.00000000  0.49999997  1
  Cu  Cu1  1  0.50000004  0.49999999  -0.00000001  1
  Cu  Cu2  1  0.00000003  0.50000005  0.49999996  1
  Cu  Cu3  1  -0.00000004  0.50000006  -0.00000000  1
  Cu  Cu4  1  0.00000003  -0.00000002  0.49999997  1
  Cu  Cu5  1  0.50000001  0.00000001  -0.00000001  1
  Pb  Pb0  1  0.00000004  0.00000001  -0.00000002  1
  O  O0  1  0.14416583  0.14416492  0.14415556  1
  O  O1  1  0.85583191  0.43248847  0.85584221  1
  O  O2  1  0.14416804  0.56751151  0.14415783  1
  O  O3  1  0.43248881  0.85583375  0.85583987  1
  O  O4  1  0.14416656  0.14416233  0.56751334  1
  O  O5  1  0.56751117  0.14416623  0.14416016  1
  O  O6  1  0.85583342  0.85583765  0.43248667  1
  O  O7  1  0.85583414  0.85583505  0.85584448  1
loop_
_geom_bond_atom_site_label_1
_geom_bond_atom_site_label_2
_geom_bond_distance
_geom_bond_site_symmetry_2
Cu0 O6 1.918522 1_545
Cu0 O4 1.918522 1_555
Cu0 O5 1.918529 1_555
Cu0 O3 1.918530 1_545
Cu1 O1 1.918512 1_554
Cu1 O2 1.918513 1_555
Cu1 O3 1.918523 1_554
Cu1 O5 1.918523 1_555
Cu2 O2 1.918537 1_555
Cu2 O1 1.918538 1_455
Cu2 O6 1.918541 1_455
Cu2 O4 1.918541 1_555
Cu3 O2 1.918507 1_555
Cu3 O1 1.918508 1_454
Cu3 O7 1.918532 1_454
Cu3 O0 1.918532 1_555
Cu4 O4 1.918538 1_555
Cu4 O6 1.918538 1_445
Cu4 O0 1.918559 1_555
Cu4 O7 1.918560 1_445
Cu5 O5 1.918504 1_555
Cu5 O3 1.918504 1_544
Cu5 O7 1.918523 1_544
Cu5 O0 1.918523 1_555
O0 Pb0 2.305174 1_555
O1 Pb0 2.305230 1_656
O2 Pb0 2.305230 1_565
O3 Pb0 2.305232 1_566
O4 Pb0 2.305186 1_556
O5 Pb0 2.305232 1_655
O6 Pb0 2.305186 1_665
O7 Pb0 2.305174 1_666
