# generated using pymatgen
data_K3InCl6
_symmetry_space_group_name_H-M   'P 1'
_cell_length_a   7.64168026
_cell_length_b   12.32836586
_cell_length_c   12.80944658
_cell_angle_alpha   71.07264218
_cell_angle_beta   90.00000000
_cell_angle_gamma   90.00000000
_symmetry_Int_Tables_number   1
_chemical_formula_structural   K3InCl6
_chemical_formula_sum   'K12 In4 Cl24'
_cell_volume   1141.52127791
_cell_formula_units_Z   4
loop_
 _symmetry_equiv_pos_site_id
 _symmetry_equiv_pos_as_xyz
  1  'x, y, z'
loop_
 _atom_site_type_symbol
 _atom_site_label
 _atom_site_symmetry_multiplicity
 _atom_site_fract_x
 _atom_site_fract_y
 _atom_site_fract_z
 _atom_site_occupancy
  K  K0  1  0.06873473  0.61131439  0.68019279  1
  K  K1  1  0.97712037  0.13860291  0.09993777  1
  K  K2  1  0.43739924  0.23587067  0.31641644  1
  K  K3  1  0.02287963  0.86139709  0.90006223  1
  K  K4  1  0.43126527  0.11131439  0.68019279  1
  K  K5  1  0.56260076  0.76412933  0.68358356  1
  K  K6  1  0.47712037  0.36139709  0.90006223  1
  K  K7  1  0.56873473  0.88868561  0.31980721  1
  K  K8  1  0.06260076  0.73587067  0.31641644  1
  K  K9  1  0.52287963  0.63860291  0.09993777  1
  K  K10  1  0.93126527  0.38868561  0.31980721  1
  K  K11  1  0.93739924  0.26412933  0.68358356  1
  In  In0  1  -0.00000000  0.50000000  -0.00000000  1
  In  In1  1  -0.00000000  0.00000000  0.50000000  1
  In  In2  1  0.50000000  0.50000000  0.50000000  1
  In  In3  1  0.50000000  0.00000000  -0.00000000  1
  Cl  Cl0  1  0.29375785  0.49611209  0.34862519  1
  Cl  Cl1  1  0.98930337  0.37161492  0.88468053  1
  Cl  Cl2  1  0.71612141  0.40780665  0.10157964  1
  Cl  Cl3  1  0.13653870  0.18976154  0.49936638  1
  Cl  Cl4  1  0.28954019  0.39395119  0.65275506  1
  Cl  Cl5  1  0.78954019  0.10604881  0.34724494  1
  Cl  Cl6  1  0.82206791  0.65168933  0.86241459  1
  Cl  Cl7  1  0.01069663  0.62838508  0.11531947  1
  Cl  Cl8  1  0.79375785  0.00388791  0.65137481  1
  Cl  Cl9  1  0.17793209  0.34831067  0.13758541  1
  Cl  Cl10  1  0.86346130  0.81023846  0.50063362  1
  Cl  Cl11  1  0.36346130  0.68976154  0.49936638  1
  Cl  Cl12  1  0.51069663  0.87161492  0.88468053  1
  Cl  Cl13  1  0.48930337  0.12838508  0.11531947  1
  Cl  Cl14  1  0.32206791  0.84831067  0.13758541  1
  Cl  Cl15  1  0.78387859  0.90780665  0.10157964  1
  Cl  Cl16  1  0.20624215  0.99611209  0.34862519  1
  Cl  Cl17  1  0.21045981  0.89395119  0.65275506  1
  Cl  Cl18  1  0.28387859  0.59219335  0.89842036  1
  Cl  Cl19  1  0.70624215  0.50388791  0.65137481  1
  Cl  Cl20  1  0.67793209  0.15168933  0.86241459  1
  Cl  Cl21  1  0.21612141  0.09219335  0.89842036  1
  Cl  Cl22  1  0.63653870  0.31023846  0.50063362  1
  Cl  Cl23  1  0.71045981  0.60604881  0.34724494  1
loop_
_geom_bond_atom_site_label_1
_geom_bond_atom_site_label_2
_geom_bond_distance
_geom_bond_site_symmetry_2
Cl0 In2 2.511237 1_555
Cl0 K10 3.143348 1_455
Cl0 K8 3.352057 1_555
Cl0 K2 3.539396 1_555
Cl0 K9 3.559336 1_555
Cl1 In0 2.492129 1_656
Cl1 K1 3.274922 1_556
Cl1 K11 3.280726 1_555
Cl1 K0 3.307661 1_655
Cl2 In0 2.594492 1_655
Cl2 K10 3.185142 1_555
Cl2 K9 3.199719 1_555
Cl2 K6 3.359221 1_554
Cl2 K2 3.580293 1_555
Cl3 In1 2.559184 1_555
Cl3 K4 3.149553 1_555
Cl3 K10 3.178970 1_455
Cl3 K11 3.182474 1_455
Cl3 K2 3.199471 1_555
Cl4 In2 2.542623 1_555
Cl4 K11 3.090097 1_455
Cl4 K0 3.280634 1_555
Cl4 K6 3.380292 1_555
Cl4 K4 3.555751 1_555
Cl5 In1 2.542623 1_655
Cl5 K2 3.090097 1_555
Cl5 K7 3.280634 1_545
Cl5 K1 3.380292 1_555
Cl5 K10 3.555751 1_555
Cl6 In0 2.512746 1_656
Cl6 K5 3.006714 1_555
Cl6 K0 3.162726 1_655
Cl6 K3 3.174942 1_655
Cl7 In0 2.492129 1_555
Cl7 K3 3.274922 1_554
Cl7 K8 3.280726 1_555
Cl7 K10 3.307661 1_455
Cl8 In1 2.511237 1_655
Cl8 K4 3.143348 1_555
Cl8 K5 3.352057 1_545
Cl8 K11 3.539396 1_555
Cl8 K3 3.559336 1_645
Cl9 In0 2.512746 1_555
Cl9 K2 3.006714 1_555
Cl9 K10 3.162726 1_455
Cl9 K1 3.174942 1_455
Cl10 In1 2.559184 1_665
Cl10 K7 3.149553 1_555
Cl10 K0 3.178970 1_655
Cl10 K8 3.182474 1_655
Cl10 K5 3.199471 1_555
Cl11 In2 2.559184 1_555
Cl11 K0 3.149553 1_555
Cl11 K7 3.178970 1_555
Cl11 K5 3.182474 1_555
Cl11 K8 3.199471 1_555
Cl12 In3 2.492129 1_566
Cl12 K9 3.274922 1_556
Cl12 K5 3.280726 1_555
Cl12 K4 3.307661 1_565
Cl13 In3 2.492129 1_555
Cl13 K6 3.274922 1_554
Cl13 K2 3.280726 1_555
Cl13 K7 3.307661 1_545
Cl14 In3 2.512746 1_565
Cl14 K8 3.006714 1_555
Cl14 K7 3.162726 1_555
Cl14 K9 3.174942 1_555
Cl15 In3 2.594492 1_565
Cl15 K7 3.185142 1_555
Cl15 K1 3.199719 1_565
Cl15 K3 3.359221 1_654
Cl15 K8 3.580293 1_655
Cl16 In1 2.511237 1_565
Cl16 K7 3.143348 1_555
Cl16 K2 3.352057 1_565
Cl16 K8 3.539396 1_555
Cl16 K1 3.559336 1_465
Cl17 In1 2.542623 1_565
Cl17 K5 3.090097 1_555
Cl17 K4 3.280634 1_565
Cl17 K3 3.380292 1_555
Cl17 K0 3.555751 1_555
Cl18 In0 2.594492 1_556
Cl18 K0 3.185142 1_555
Cl18 K6 3.199719 1_555
Cl18 K9 3.359221 1_556
Cl18 K5 3.580293 1_555
Cl19 In2 2.511237 1_555
Cl19 K0 3.143348 1_655
Cl19 K11 3.352057 1_555
Cl19 K5 3.539396 1_555
Cl19 K6 3.559336 1_555
Cl20 In3 2.512746 1_556
Cl20 K11 3.006714 1_555
Cl20 K4 3.162726 1_555
Cl20 K6 3.174942 1_555
Cl21 In3 2.594492 1_556
Cl21 K4 3.185142 1_555
Cl21 K3 3.199719 1_545
Cl21 K1 3.359221 1_456
Cl21 K11 3.580293 1_455
Cl22 In2 2.559184 1_555
Cl22 K10 3.149553 1_555
Cl22 K4 3.178970 1_555
Cl22 K2 3.182474 1_555
Cl22 K11 3.199471 1_555
Cl23 In2 2.542623 1_555
Cl23 K8 3.090097 1_655
Cl23 K10 3.280634 1_555
Cl23 K9 3.380292 1_555
Cl23 K7 3.555751 1_555
