# generated using pymatgen
data_Dy11S16
_symmetry_space_group_name_H-M   'P 1'
_cell_length_a   8.28335300
_cell_length_b   8.33796800
_cell_length_c   16.72312800
_cell_angle_alpha   90.00000000
_cell_angle_beta   90.00000000
_cell_angle_gamma   90.00000000
_symmetry_Int_Tables_number   1
_chemical_formula_structural   Dy11S16
_chemical_formula_sum   'Dy22 S32'
_cell_volume   1155.00511465
_cell_formula_units_Z   2
loop_
 _symmetry_equiv_pos_site_id
 _symmetry_equiv_pos_as_xyz
  1  'x, y, z'
loop_
 _atom_site_type_symbol
 _atom_site_label
 _atom_site_symmetry_multiplicity
 _atom_site_fract_x
 _atom_site_fract_y
 _atom_site_fract_z
 _atom_site_occupancy
  Dy  Dy0  1  0.73299500  0.12424600  0.87749700  1
  Dy  Dy1  1  0.49990000  0.74970500  0.81944300  1
  Dy  Dy2  1  0.87930700  0.50467900  0.75013400  1
  Dy  Dy3  1  0.74278400  0.85979900  0.62004200  1
  Dy  Dy4  1  0.50010000  0.24970500  0.68055700  1
  Dy  Dy5  1  0.26700500  0.62424600  0.62250300  1
  Dy  Dy6  1  0.12069300  0.00467900  0.74986600  1
  Dy  Dy7  1  0.98076000  0.25587300  0.56157200  1
  Dy  Dy8  1  0.37127100  0.00000000  0.50000000  1
  Dy  Dy9  1  0.26700500  0.37575400  0.37749700  1
  Dy  Dy10  1  0.98076000  0.74412700  0.43842800  1
  Dy  Dy11  1  0.74278400  0.14020100  0.37995800  1
  Dy  Dy12  1  0.50010000  0.75029500  0.31944300  1
  Dy  Dy13  1  0.87930700  0.49532100  0.24986600  1
  Dy  Dy14  1  0.73299500  0.87575400  0.12250300  1
  Dy  Dy15  1  0.49990000  0.25029500  0.18055700  1
  Dy  Dy16  1  0.25721600  0.64020100  0.12004200  1
  Dy  Dy17  1  0.12069300  0.99532100  0.25013400  1
  Dy  Dy18  1  0.01924000  0.24412700  0.06157200  1
  Dy  Dy19  1  0.25721600  0.35979900  0.87995800  1
  Dy  Dy20  1  0.01924000  0.75587300  0.93842800  1
  Dy  Dy21  1  0.62872900  0.50000000  0.00000000  1
  S  S0  1  0.18027500  0.68529000  0.78296100  1
  S  S1  1  0.57538800  0.42649000  0.84213700  1
  S  S2  1  0.57894800  0.57154400  0.66807500  1
  S  S3  1  0.42105200  0.07154400  0.83192500  1
  S  S4  1  0.42461200  0.92649000  0.65786300  1
  S  S5  1  0.18334000  0.32609100  0.71734900  1
  S  S6  1  0.81666000  0.82609100  0.78265100  1
  S  S7  1  0.81972500  0.18529000  0.71703900  1
  S  S8  1  0.66681100  0.17362500  0.53878600  1
  S  S9  1  0.06103700  0.93864300  0.59045500  1
  S  S10  1  0.06103700  0.06135700  0.40954500  1
  S  S11  1  0.94382100  0.57643800  0.59276000  1
  S  S12  1  0.94382100  0.42356200  0.40724000  1
  S  S13  1  0.66681100  0.82637500  0.46121400  1
  S  S14  1  0.30251100  0.31537600  0.53717300  1
  S  S15  1  0.30251100  0.68462400  0.46282700  1
  S  S16  1  0.18334000  0.67390900  0.28265100  1
  S  S17  1  0.57894800  0.42845600  0.33192500  1
  S  S18  1  0.57538800  0.57351000  0.15786300  1
  S  S19  1  0.42461200  0.07351000  0.34213700  1
  S  S20  1  0.42105200  0.92845600  0.16807500  1
  S  S21  1  0.18027500  0.31471000  0.21703900  1
  S  S22  1  0.81972500  0.81471000  0.28296100  1
  S  S23  1  0.81666000  0.17390900  0.21734900  1
  S  S24  1  0.69748900  0.18462400  0.03717300  1
  S  S25  1  0.05617900  0.92356200  0.09276000  1
  S  S26  1  0.93896300  0.56135700  0.09045500  1
  S  S27  1  0.05617900  0.07643800  0.90724000  1
  S  S28  1  0.93896300  0.43864300  0.90954500  1
  S  S29  1  0.69748900  0.81537600  0.96282700  1
  S  S30  1  0.33318900  0.32637500  0.03878600  1
  S  S31  1  0.33318900  0.67362500  0.96121400  1
loop_
_geom_bond_atom_site_label_1
_geom_bond_atom_site_label_2
_geom_bond_distance
_geom_bond_site_symmetry_2
Dy0 S3 2.729582 1_555
Dy0 S24 2.733194 1_556
Dy0 S27 2.751887 1_655
Dy0 S7 2.824111 1_555
Dy0 S1 2.899129 1_555
Dy0 S29 2.958919 1_545
Dy0 S6 3.029241 1_545
Dy0 S28 3.173316 1_555
Dy1 S6 2.769246 1_555
Dy1 S0 2.769529 1_555
Dy1 S3 2.769698 1_565
Dy1 S1 2.792456 1_555
Dy1 S31 2.816081 1_555
Dy1 S29 2.954352 1_555
Dy1 S2 3.007186 1_555
Dy1 S4 3.140565 1_555
Dy2 S11 2.751338 1_555
Dy2 S7 2.764372 1_555
Dy2 S28 2.766607 1_555
Dy2 S6 2.783339 1_555
Dy2 S2 2.895519 1_555
Dy2 S0 2.963842 1_655
Dy2 S5 2.976626 1_655
Dy2 S1 3.021571 1_555
Dy3 S13 2.743824 1_555
Dy3 S9 2.761621 1_655
Dy3 S4 2.766816 1_555
Dy3 S6 2.801469 1_555
Dy3 S2 2.874649 1_555
Dy3 S11 2.926326 1_555
Dy3 S8 3.014877 1_565
Dy3 S7 3.225339 1_565
Dy4 S5 2.769246 1_555
Dy4 S7 2.769529 1_555
Dy4 S2 2.769698 1_555
Dy4 S4 2.792456 1_545
Dy4 S8 2.816081 1_555
Dy4 S14 2.954352 1_555
Dy4 S3 3.007186 1_555
Dy4 S1 3.140565 1_555
Dy5 S2 2.729582 1_555
Dy5 S15 2.733194 1_555
Dy5 S11 2.751887 1_455
Dy5 S0 2.824111 1_555
Dy5 S4 2.899129 1_555
Dy5 S14 2.958919 1_555
Dy5 S5 3.029241 1_555
Dy5 S9 3.173316 1_555
Dy6 S27 2.751338 1_555
Dy6 S0 2.764372 1_545
Dy6 S9 2.766607 1_545
Dy6 S5 2.783339 1_555
Dy6 S3 2.895519 1_555
Dy6 S7 2.963842 1_455
Dy6 S6 2.976626 1_445
Dy6 S4 3.021571 1_545
Dy7 S8 2.716314 1_555
Dy7 S11 2.740407 1_555
Dy7 S14 2.741497 1_655
Dy7 S9 2.769799 1_645
Dy7 S12 2.951214 1_555
Dy7 S7 2.980792 1_555
Dy7 S10 3.088084 1_655
Dy7 S5 3.153576 1_655
Dy8 S4 2.745962 1_545
Dy8 S19 2.745962 1_555
Dy8 S14 2.761452 1_555
Dy8 S15 2.761452 1_545
Dy8 S8 2.917104 1_555
Dy8 S13 2.917104 1_545
Dy8 S10 3.025511 1_555
Dy8 S9 3.025511 1_545
Dy9 S17 2.729582 1_555
Dy9 S14 2.733194 1_555
Dy9 S12 2.751887 1_455
Dy9 S21 2.824111 1_555
Dy9 S19 2.899129 1_555
Dy9 S15 2.958919 1_555
Dy9 S16 3.029241 1_555
Dy9 S10 3.173316 1_555
Dy10 S13 2.716314 1_555
Dy10 S12 2.740407 1_555
Dy10 S15 2.741497 1_655
Dy10 S10 2.769799 1_665
Dy10 S11 2.951214 1_555
Dy10 S22 2.980792 1_555
Dy10 S9 3.088084 1_655
Dy10 S16 3.153576 1_655
Dy11 S8 2.743824 1_555
Dy11 S10 2.761621 1_655
Dy11 S19 2.766816 1_555
Dy11 S23 2.801469 1_555
Dy11 S17 2.874649 1_555
Dy11 S12 2.926326 1_555
Dy11 S13 3.014877 1_545
Dy11 S22 3.225339 1_545
Dy12 S16 2.769246 1_555
Dy12 S22 2.769529 1_555
Dy12 S17 2.769698 1_555
Dy12 S19 2.792456 1_565
Dy12 S13 2.816081 1_555
Dy12 S15 2.954352 1_555
Dy12 S20 3.007186 1_555
Dy12 S18 3.140565 1_555
Dy13 S12 2.751338 1_555
Dy13 S22 2.764372 1_555
Dy13 S26 2.766607 1_555
Dy13 S23 2.783339 1_555
Dy13 S17 2.895519 1_555
Dy13 S21 2.963842 1_655
Dy13 S16 2.976626 1_655
Dy13 S18 3.021571 1_555
Dy14 S20 2.729582 1_555
Dy14 S29 2.733194 1_554
Dy14 S25 2.751887 1_655
Dy14 S22 2.824111 1_555
Dy14 S18 2.899129 1_555
Dy14 S24 2.958919 1_565
Dy14 S23 3.029241 1_565
Dy14 S26 3.173316 1_555
Dy15 S23 2.769246 1_555
Dy15 S21 2.769529 1_555
Dy15 S20 2.769698 1_545
Dy15 S18 2.792456 1_555
Dy15 S30 2.816081 1_555
Dy15 S24 2.954352 1_555
Dy15 S17 3.007186 1_555
Dy15 S19 3.140565 1_555
Dy16 S31 2.743824 1_554
Dy16 S26 2.761621 1_455
Dy16 S18 2.766816 1_555
Dy16 S16 2.801469 1_555
Dy16 S20 2.874649 1_555
Dy16 S25 2.926326 1_555
Dy16 S30 3.014877 1_555
Dy16 S21 3.225339 1_555
Dy17 S25 2.751338 1_555
Dy17 S21 2.764372 1_565
Dy17 S10 2.766607 1_565
Dy17 S16 2.783339 1_555
Dy17 S20 2.895519 1_555
Dy17 S22 2.963842 1_455
Dy17 S23 2.976626 1_465
Dy17 S19 3.021571 1_565
Dy18 S30 2.716314 1_555
Dy18 S25 2.740407 1_545
Dy18 S24 2.741497 1_455
Dy18 S26 2.769799 1_455
Dy18 S27 2.951214 1_554
Dy18 S21 2.980792 1_555
Dy18 S28 3.088084 1_454
Dy18 S23 3.153576 1_455
Dy19 S30 2.743824 1_556
Dy19 S28 2.761621 1_455
Dy19 S1 2.766816 1_555
Dy19 S5 2.801469 1_555
Dy19 S3 2.874649 1_555
Dy19 S27 2.926326 1_555
Dy19 S31 3.014877 1_555
Dy19 S0 3.225339 1_555
Dy20 S31 2.716314 1_555
Dy20 S27 2.740407 1_565
Dy20 S29 2.741497 1_455
Dy20 S28 2.769799 1_455
Dy20 S25 2.951214 1_556
Dy20 S0 2.980792 1_555
Dy20 S26 3.088084 1_456
Dy20 S6 3.153576 1_455
Dy21 S18 2.745962 1_555
Dy21 S1 2.745962 1_554
Dy21 S29 2.761452 1_554
Dy21 S24 2.761452 1_555
Dy21 S31 2.917104 1_554
Dy21 S30 2.917104 1_555
Dy21 S26 3.025511 1_555
Dy21 S28 3.025511 1_554
