# generated using pymatgen
data_Rb2NaTmCl6
_symmetry_space_group_name_H-M   'P 1'
_cell_length_a   7.58039541
_cell_length_b   7.58039541
_cell_length_c   7.58039541
_cell_angle_alpha   60.00000000
_cell_angle_beta   60.00000000
_cell_angle_gamma   60.00000000
_symmetry_Int_Tables_number   1
_chemical_formula_structural   Rb2NaTmCl6
_chemical_formula_sum   'Rb2 Na1 Tm1 Cl6'
_cell_volume   308.00699698
_cell_formula_units_Z   1
loop_
 _symmetry_equiv_pos_site_id
 _symmetry_equiv_pos_as_xyz
  1  'x, y, z'
loop_
 _atom_site_type_symbol
 _atom_site_label
 _atom_site_symmetry_multiplicity
 _atom_site_fract_x
 _atom_site_fract_y
 _atom_site_fract_z
 _atom_site_occupancy
  Rb  Rb0  1  0.75000000  0.75000000  0.75000000  1
  Rb  Rb1  1  0.25000000  0.25000000  0.25000000  1
  Na  Na0  1  0.00000000  0.00000000  0.00000000  1
  Tm  Tm0  1  0.50000000  0.50000000  0.50000000  1
  Cl  Cl0  1  0.25770700  0.25770700  0.74229300  1
  Cl  Cl1  1  0.74229300  0.25770700  0.25770700  1
  Cl  Cl2  1  0.74229300  0.74229300  0.25770700  1
  Cl  Cl3  1  0.25770700  0.74229300  0.25770700  1
  Cl  Cl4  1  0.74229300  0.25770700  0.74229300  1
  Cl  Cl5  1  0.25770700  0.74229300  0.74229300  1
loop_
_geom_bond_atom_site_label_1
_geom_bond_atom_site_label_2
_geom_bond_distance
_geom_bond_site_symmetry_2
Cl0 Tm0 2.597453 1_555
Cl0 Na0 2.762696 1_556
Cl0 Rb0 3.791098 1_455
Cl0 Rb1 3.791098 1_555
Cl0 Rb0 3.791098 1_545
Cl0 Rb1 3.791098 1_556
Cl1 Tm0 2.597453 1_555
Cl1 Na0 2.762696 1_655
Cl1 Rb1 3.791098 1_655
Cl1 Rb0 3.791098 1_554
Cl1 Rb1 3.791098 1_555
Cl1 Rb0 3.791098 1_545
Cl2 Tm0 2.597453 1_555
Cl2 Na0 2.762696 1_665
Cl2 Rb1 3.791098 1_655
Cl2 Rb0 3.791098 1_554
Cl2 Rb0 3.791098 1_555
Cl2 Rb1 3.791098 1_565
Cl3 Tm0 2.597453 1_555
Cl3 Na0 2.762696 1_565
Cl3 Rb0 3.791098 1_554
Cl3 Rb0 3.791098 1_455
Cl3 Rb1 3.791098 1_555
Cl3 Rb1 3.791098 1_565
Cl4 Tm0 2.597453 1_555
Cl4 Na0 2.762696 1_656
Cl4 Rb1 3.791098 1_655
Cl4 Rb0 3.791098 1_555
Cl4 Rb0 3.791098 1_545
Cl4 Rb1 3.791098 1_556
Cl5 Tm0 2.597453 1_555
Cl5 Na0 2.762696 1_566
Cl5 Rb0 3.791098 1_455
Cl5 Rb0 3.791098 1_555
Cl5 Rb1 3.791098 1_556
Cl5 Rb1 3.791098 1_565
