# generated using pymatgen
data_Tb2(GePt3)3
_symmetry_space_group_name_H-M   'P 1'
_cell_length_a   7.76205937
_cell_length_b   7.76205937
_cell_length_c   10.07866126
_cell_angle_alpha   67.07133249
_cell_angle_beta   67.07133249
_cell_angle_gamma   60.24682288
_symmetry_Int_Tables_number   1
_chemical_formula_structural   Tb2(GePt3)3
_chemical_formula_sum   'Tb4 Ge6 Pt18'
_cell_volume   470.68003778
_cell_formula_units_Z   2
loop_
 _symmetry_equiv_pos_site_id
 _symmetry_equiv_pos_as_xyz
  1  'x, y, z'
loop_
 _atom_site_type_symbol
 _atom_site_label
 _atom_site_symmetry_multiplicity
 _atom_site_fract_x
 _atom_site_fract_y
 _atom_site_fract_z
 _atom_site_occupancy
  Tb  Tb0  1  0.24547356  0.41627161  0.25120863  1
  Tb  Tb1  1  0.75452644  0.58372839  0.74879137  1
  Tb  Tb2  1  0.41627161  0.24547356  0.75120863  1
  Tb  Tb3  1  0.58372839  0.75452644  0.24879137  1
  Ge  Ge0  1  0.18229160  0.63807215  0.49725385  1
  Ge  Ge1  1  0.63807215  0.18229160  0.99725385  1
  Ge  Ge2  1  -0.00000000  0.50000000  0.00000000  1
  Ge  Ge3  1  0.81770840  0.36192785  0.50274615  1
  Ge  Ge4  1  0.36192785  0.81770840  0.00274615  1
  Ge  Ge5  1  0.50000000  0.00000000  0.50000000  1
  Pt  Pt0  1  0.13431289  0.86568711  0.25000000  1
  Pt  Pt1  1  0.35668712  0.52370960  0.92408765  1
  Pt  Pt2  1  0.69655665  0.85867769  0.92140103  1
  Pt  Pt3  1  0.70228940  0.08663094  0.24174211  1
  Pt  Pt4  1  0.85867769  0.69655665  0.42140103  1
  Pt  Pt5  1  0.97666576  0.79864410  0.07743239  1
  Pt  Pt6  1  0.30344335  0.14132231  0.07859897  1
  Pt  Pt7  1  0.64331288  0.47629040  0.07591235  1
  Pt  Pt8  1  0.91336906  0.29771060  0.25825789  1
  Pt  Pt9  1  0.08663094  0.70228940  0.74174211  1
  Pt  Pt10  1  0.79864410  0.97666576  0.57743239  1
  Pt  Pt11  1  0.52370960  0.35668712  0.42408765  1
  Pt  Pt12  1  0.14132231  0.30344335  0.57859897  1
  Pt  Pt13  1  0.29771060  0.91336906  0.75825789  1
  Pt  Pt14  1  0.02333424  0.20135590  0.92256761  1
  Pt  Pt15  1  0.86568711  0.13431289  0.75000000  1
  Pt  Pt16  1  0.47629040  0.64331288  0.57591235  1
  Pt  Pt17  1  0.20135590  0.02333424  0.42256761  1
loop_
_geom_bond_atom_site_label_1
_geom_bond_atom_site_label_2
_geom_bond_distance
_geom_bond_site_symmetry_2
Ge0 Pt9 2.456769 1_555
Ge0 Pt0 2.471783 1_555
Ge0 Pt11 2.514875 1_555
Ge0 Pt12 2.545046 1_555
Ge0 Pt4 2.682219 1_455
Ge0 Pt16 2.713802 1_555
Ge0 Pt17 2.851258 1_565
Ge0 Pt10 2.905175 1_455
Ge0 Tb0 3.300738 1_555
Ge0 Tb2 3.344775 1_555
Ge0 Tb1 3.409953 1_455
Ge0 Tb3 3.427725 1_555
Ge1 Pt3 2.456769 1_556
Ge1 Pt15 2.471783 1_555
Ge1 Pt1 2.514875 1_555
Ge1 Pt6 2.545046 1_556
Ge1 Pt2 2.682219 1_545
Ge1 Pt7 2.713802 1_556
Ge1 Pt14 2.851258 1_655
Ge1 Pt5 2.905175 1_546
Ge1 Tb2 3.300738 1_555
Ge1 Tb0 3.344775 1_556
Ge1 Tb3 3.409953 1_546
Ge1 Tb1 3.427725 1_555
Ge2 Pt9 2.488456 1_554
Ge2 Pt8 2.488456 1_455
Ge2 Pt5 2.626429 1_455
Ge2 Pt14 2.626429 1_554
Ge2 Pt7 2.651425 1_455
Ge2 Pt1 2.651425 1_554
Ge2 Pt6 2.674541 1_555
Ge2 Pt2 2.674541 1_454
Ge3 Pt8 2.456769 1_555
Ge3 Pt15 2.471783 1_555
Ge3 Pt16 2.514875 1_555
Ge3 Pt4 2.545046 1_555
Ge3 Pt12 2.682219 1_655
Ge3 Pt11 2.713802 1_555
Ge3 Pt10 2.851258 1_545
Ge3 Pt17 2.905175 1_655
Ge3 Tb1 3.300738 1_555
Ge3 Tb3 3.344775 1_555
Ge3 Tb0 3.409953 1_655
Ge3 Tb2 3.427725 1_555
Ge4 Pt13 2.456769 1_554
Ge4 Pt0 2.471783 1_555
Ge4 Pt7 2.514875 1_555
Ge4 Pt2 2.545046 1_554
Ge4 Pt6 2.682219 1_565
Ge4 Pt1 2.713802 1_554
Ge4 Pt5 2.851258 1_455
Ge4 Pt14 2.905175 1_564
Ge4 Tb3 3.300738 1_555
Ge4 Tb1 3.344775 1_554
Ge4 Tb2 3.409953 1_564
Ge4 Tb0 3.427725 1_555
Ge5 Pt3 2.488456 1_555
Ge5 Pt13 2.488456 1_545
Ge5 Pt10 2.626429 1_545
Ge5 Pt17 2.626429 1_555
Ge5 Pt16 2.651425 1_545
Ge5 Pt11 2.651425 1_555
Ge5 Pt12 2.674541 1_555
Ge5 Pt4 2.674541 1_545
Pt0 Tb3 3.146610 1_555
Pt0 Tb0 3.146610 1_555
Pt1 Tb0 2.943659 1_556
Pt1 Tb2 3.037565 1_555
Pt1 Tb1 3.067584 1_555
Pt2 Tb3 2.946338 1_556
Pt2 Tb2 3.016866 1_565
Pt2 Tb1 3.018848 1_555
Pt3 Tb3 3.107736 1_545
Pt3 Tb0 3.170273 1_555
Pt4 Tb1 2.946338 1_555
Pt4 Tb0 3.016866 1_655
Pt4 Tb3 3.018848 1_555
Pt5 Tb3 2.978936 1_555
Pt5 Tb0 2.980034 1_655
Pt6 Tb2 2.946338 1_554
Pt6 Tb3 3.016866 1_545
Pt6 Tb0 3.018848 1_555
Pt7 Tb1 2.943659 1_554
Pt7 Tb3 3.037565 1_555
Pt7 Tb0 3.067584 1_555
Pt8 Tb0 3.107736 1_655
Pt8 Tb3 3.170273 1_555
Pt9 Tb1 3.107736 1_455
Pt9 Tb2 3.170273 1_555
Pt10 Tb1 2.978936 1_555
Pt10 Tb2 2.980034 1_565
Pt11 Tb2 2.943659 1_555
Pt11 Tb0 3.037565 1_555
Pt11 Tb3 3.067584 1_555
Pt12 Tb0 2.946338 1_555
Pt12 Tb1 3.016866 1_455
Pt12 Tb2 3.018848 1_555
Pt13 Tb2 3.107736 1_565
Pt13 Tb1 3.170273 1_555
Pt14 Tb2 2.978936 1_555
Pt14 Tb1 2.980034 1_455
Pt15 Tb1 3.146610 1_555
Pt15 Tb2 3.146610 1_555
Pt16 Tb3 2.943659 1_555
Pt16 Tb1 3.037565 1_555
Pt16 Tb2 3.067584 1_555
Pt17 Tb0 2.978936 1_555
Pt17 Tb3 2.980034 1_545
