# generated using pymatgen
data_LaMg4Cu
_symmetry_space_group_name_H-M   'P 1'
_cell_length_a   10.36847611
_cell_length_b   10.36847611
_cell_length_c   4.47790717
_cell_angle_alpha   90.00000000
_cell_angle_beta   90.00000000
_cell_angle_gamma   119.99999341
_symmetry_Int_Tables_number   1
_chemical_formula_structural   LaMg4Cu
_chemical_formula_sum   'La3 Mg12 Cu3'
_cell_volume   416.90356530
_cell_formula_units_Z   3
loop_
 _symmetry_equiv_pos_site_id
 _symmetry_equiv_pos_as_xyz
  1  'x, y, z'
loop_
 _atom_site_type_symbol
 _atom_site_label
 _atom_site_symmetry_multiplicity
 _atom_site_fract_x
 _atom_site_fract_y
 _atom_site_fract_z
 _atom_site_occupancy
  La  La0  1  0.00000000  0.40701889  -0.00000000  1
  La  La1  1  0.40701889  0.00000000  -0.00000000  1
  La  La2  1  0.59298111  0.59298111  0.00000000  1
  Mg  Mg0  1  0.51905667  0.81506724  0.50000000  1
  Mg  Mg1  1  0.29600956  0.48094333  0.50000000  1
  Mg  Mg2  1  0.48094333  0.29600956  0.50000000  1
  Mg  Mg3  1  0.70399044  0.18493276  0.50000000  1
  Mg  Mg4  1  0.83504138  0.83504138  0.50000000  1
  Mg  Mg5  1  0.00000000  0.16495862  0.50000000  1
  Mg  Mg6  1  0.16495862  0.00000000  0.50000000  1
  Mg  Mg7  1  0.18493276  0.70399044  0.50000000  1
  Mg  Mg8  1  -0.00000000  0.74736628  -0.00000000  1
  Mg  Mg9  1  0.81506724  0.51905667  0.50000000  1
  Mg  Mg10  1  0.25263372  0.25263372  -0.00000000  1
  Mg  Mg11  1  0.74736628  -0.00000000  -0.00000000  1
  Cu  Cu0  1  0.00000000  0.00000000  0.00000000  1
  Cu  Cu1  1  0.66666700  0.33333300  0.00000000  1
  Cu  Cu2  1  0.33333300  0.66666700  0.00000000  1
loop_
_geom_bond_atom_site_label_1
_geom_bond_atom_site_label_2
_geom_bond_distance
_geom_bond_site_symmetry_2
La0 Mg5 3.363330 1_554
La0 Mg5 3.363330 1_555
La0 Mg9 3.502358 1_455
La0 Mg9 3.502358 1_454
La0 Mg7 3.502365 1_554
La0 Mg7 3.502365 1_555
La0 Mg8 3.528884 1_555
La0 Mg1 3.559176 1_555
La0 Mg1 3.559176 1_554
La0 Mg3 3.559179 1_455
La0 Mg3 3.559179 1_454
La0 Mg10 3.690092 1_555
La0 Mg11 3.690092 1_455
La1 Mg6 3.363330 1_555
La1 Mg6 3.363330 1_554
La1 Mg0 3.502358 1_544
La1 Mg0 3.502358 1_545
La1 Mg3 3.502365 1_555
La1 Mg3 3.502365 1_554
La1 Mg11 3.528884 1_555
La1 Mg2 3.559176 1_554
La1 Mg2 3.559176 1_555
La1 Mg7 3.559179 1_544
La1 Mg7 3.559179 1_545
La1 Mg10 3.690092 1_555
La1 Mg8 3.690092 1_545
La2 Mg4 3.363330 1_554
La2 Mg4 3.363330 1_555
La2 Mg2 3.502366 1_554
La2 Mg1 3.502366 1_554
La2 Mg2 3.502366 1_555
La2 Mg1 3.502366 1_555
La2 Mg10 3.528884 1_555
La2 Mg9 3.559184 1_554
La2 Mg0 3.559184 1_554
La2 Mg9 3.559184 1_555
La2 Mg0 3.559184 1_555
La2 Mg8 3.690092 1_655
La2 Mg11 3.690092 1_565
Mg0 Mg7 3.055860 1_555
Mg0 Mg1 3.055860 1_555
Mg0 Mg11 3.123183 1_565
Mg0 Mg11 3.123183 1_566
Mg0 Mg4 3.177795 1_555
Mg0 Mg3 3.321157 1_565
Mg1 Mg7 3.055860 1_555
Mg1 Mg10 3.123185 1_555
Mg1 Mg10 3.123185 1_556
Mg1 Mg5 3.177790 1_555
Mg1 Mg2 3.321175 1_555
Mg2 Mg3 3.055860 1_555
Mg2 Mg9 3.055860 1_555
Mg2 Mg6 3.177790 1_555
Mg3 Mg9 3.055860 1_555
Mg3 Mg5 3.177784 1_655
Mg4 Mg5 2.962447 1_665
Mg4 Mg6 2.962447 1_665
Mg4 Mg9 3.177795 1_555
Mg4 Mg8 3.212396 1_655
Mg4 Mg8 3.212396 1_656
Mg5 Mg6 2.962447 1_555
Mg6 Mg7 3.177784 1_545
Mg6 Mg8 3.212396 1_546
Mg6 Mg8 3.212396 1_545
Mg7 Mg8 3.123178 1_556
Mg7 Mg8 3.123178 1_555
Mg7 Mg9 3.321157 1_455
Mg8 Mg9 3.123183 1_455
Mg8 Mg9 3.123183 1_454
Mg10 Mg2 3.123185 1_555
Mg10 Mg2 3.123185 1_554
Mg10 Mg6 3.212396 1_555
Mg10 Mg5 3.212396 1_554
Mg10 Mg5 3.212396 1_555
Mg10 Mg6 3.212396 1_554
Mg11 Mg3 3.123178 1_555
Mg11 Mg3 3.123178 1_554
Mg11 Mg4 3.212396 1_544
Mg11 Mg4 3.212396 1_545
Mg11 Mg5 3.212396 1_654
Mg11 Mg5 3.212396 1_655
Cu0 Mg8 2.619427 1_545
Cu0 Mg11 2.619427 1_455
Cu0 Mg10 2.619427 1_555
Cu0 Mg5 2.817495 1_554
Cu0 Mg5 2.817495 1_555
Cu0 Mg6 2.817495 1_554
Cu0 Mg6 2.817495 1_555
Cu0 Mg4 2.817495 1_444
Cu0 Mg4 2.817495 1_445
Cu1 Mg2 2.850557 1_555
Cu1 Mg2 2.850557 1_554
Cu1 Mg3 2.850557 1_554
Cu1 Mg3 2.850557 1_555
Cu1 Mg9 2.850557 1_555
Cu1 Mg9 2.850557 1_554
Cu1 La0 3.144548 1_655
Cu1 La1 3.144552 1_555
Cu1 La2 3.144558 1_555
Cu2 Mg1 2.850557 1_554
Cu2 Mg1 2.850557 1_555
Cu2 Mg7 2.850557 1_554
Cu2 Mg7 2.850557 1_555
Cu2 Mg0 2.850557 1_554
Cu2 Mg0 2.850557 1_555
Cu2 La1 3.144548 1_565
Cu2 La0 3.144552 1_555
Cu2 La2 3.144558 1_555
