# generated using pymatgen
data_KLa2NbO6
_symmetry_space_group_name_H-M   'P 1'
_cell_length_a   7.05114676
_cell_length_b   7.05114676
_cell_length_c   8.97140022
_cell_angle_alpha   75.50232648
_cell_angle_beta   75.50232648
_cell_angle_gamma   48.82832282
_symmetry_Int_Tables_number   1
_chemical_formula_structural   KLa2NbO6
_chemical_formula_sum   'K2 La4 Nb2 O12'
_cell_volume   322.81885758
_cell_formula_units_Z   2
loop_
 _symmetry_equiv_pos_site_id
 _symmetry_equiv_pos_as_xyz
  1  'x, y, z'
loop_
 _atom_site_type_symbol
 _atom_site_label
 _atom_site_symmetry_multiplicity
 _atom_site_fract_x
 _atom_site_fract_y
 _atom_site_fract_z
 _atom_site_occupancy
  K  K0  1  0.88457700  0.88457700  0.48086000  1
  K  K1  1  0.11542300  0.11542300  0.51914000  1
  La  La0  1  0.87026400  0.87026400  0.92828400  1
  La  La1  1  0.12973600  0.12973600  0.07171600  1
  La  La2  1  0.41158900  0.41158900  0.20492900  1
  La  La3  1  0.58841100  0.58841100  0.79507100  1
  Nb  Nb0  1  0.65928400  0.65928400  0.29694200  1
  Nb  Nb1  1  0.34071600  0.34071600  0.70305800  1
  O  O0  1  0.68283500  0.22033800  0.70750500  1
  O  O1  1  0.77966200  0.31716500  0.29249500  1
  O  O2  1  0.74771400  0.25228600  0.00000000  1
  O  O3  1  0.53140600  0.99582100  0.16781400  1
  O  O4  1  0.31716500  0.77966200  0.29249500  1
  O  O5  1  0.46859400  0.00417900  0.83218600  1
  O  O6  1  0.00417900  0.46859400  0.83218600  1
  O  O7  1  0.32294400  0.32294400  0.50390200  1
  O  O8  1  0.67705600  0.67705600  0.49609800  1
  O  O9  1  0.25228600  0.74771400  0.00000000  1
  O  O10  1  0.99582100  0.53140600  0.16781400  1
  O  O11  1  0.22033800  0.68283500  0.70750500  1
loop_
_geom_bond_atom_site_label_1
_geom_bond_atom_site_label_2
_geom_bond_distance
_geom_bond_site_symmetry_2
K0 O8 2.630539 1_555
K0 O1 2.789469 1_565
K0 O4 2.789469 1_655
K0 O11 2.879389 1_655
K0 O0 2.879389 1_565
K0 O7 3.012169 1_565
K0 O7 3.012169 1_655
K1 O7 2.630539 1_555
K1 O11 2.789469 1_545
K1 O0 2.789469 1_455
K1 O4 2.879389 1_545
K1 O1 2.879389 1_455
K1 O8 3.012169 1_545
K1 O8 3.012169 1_455
La0 O9 2.437482 1_656
La0 O2 2.437482 1_566
La0 O0 2.516024 1_565
La0 O11 2.516024 1_655
La0 O3 2.589837 1_556
La0 O10 2.589837 1_556
La0 O6 2.636333 1_655
La0 O5 2.636333 1_565
La1 O2 2.437482 1_455
La1 O9 2.437482 1_545
La1 O1 2.516024 1_455
La1 O4 2.516024 1_545
La1 O5 2.589837 1_554
La1 O6 2.589837 1_554
La1 O3 2.636333 1_545
La1 O10 2.636333 1_455
La2 O2 2.367737 1_555
La2 O9 2.367737 1_555
La2 O4 2.506003 1_555
La2 O1 2.506003 1_555
La2 O10 2.550692 1_455
La2 O3 2.550692 1_545
La2 O7 2.609828 1_555
La3 O2 2.367737 1_556
La3 O9 2.367737 1_556
La3 O11 2.506003 1_555
La3 O0 2.506003 1_555
La3 O6 2.550692 1_655
La3 O5 2.550692 1_565
La3 O8 2.609828 1_555
Nb0 O8 1.862421 1_555
Nb0 O1 1.968933 1_555
Nb0 O4 1.968933 1_555
Nb0 O3 2.028673 1_555
Nb0 O10 2.028673 1_555
Nb1 O7 1.862421 1_555
Nb1 O11 1.968933 1_555
Nb1 O0 1.968933 1_555
Nb1 O5 2.028673 1_555
Nb1 O6 2.028673 1_555
