# generated using pymatgen
data_Er5Rh3
_symmetry_space_group_name_H-M   'P 1'
_cell_length_a   8.14730317
_cell_length_b   8.14730329
_cell_length_c   6.19992607
_cell_angle_alpha   90.00000000
_cell_angle_beta   90.00000000
_cell_angle_gamma   119.99999956
_symmetry_Int_Tables_number   1
_chemical_formula_structural   Er5Rh3
_chemical_formula_sum   'Er10 Rh6'
_cell_volume   356.40591663
_cell_formula_units_Z   2
loop_
 _symmetry_equiv_pos_site_id
 _symmetry_equiv_pos_as_xyz
  1  'x, y, z'
loop_
 _atom_site_type_symbol
 _atom_site_label
 _atom_site_symmetry_multiplicity
 _atom_site_fract_x
 _atom_site_fract_y
 _atom_site_fract_z
 _atom_site_occupancy
  Er  Er0  1  0.25381008  0.00000000  0.25000000  1
  Er  Er1  1  0.00000000  0.74618992  0.75000000  1
  Er  Er2  1  0.74618992  0.00000000  0.75000000  1
  Er  Er3  1  -0.00000000  0.25381008  0.25000000  1
  Er  Er4  1  0.33333300  0.66666700  -0.00000000  1
  Er  Er5  1  0.66666700  0.33333300  -0.00000000  1
  Er  Er6  1  0.66666700  0.33333300  0.50000000  1
  Er  Er7  1  0.74618992  0.74618992  0.25000000  1
  Er  Er8  1  0.33333300  0.66666700  0.50000000  1
  Er  Er9  1  0.25381008  0.25381008  0.75000000  1
  Rh  Rh0  1  0.39641505  0.39641505  0.25000000  1
  Rh  Rh1  1  0.60358495  0.00000000  0.25000000  1
  Rh  Rh2  1  0.00000000  0.39641505  0.75000000  1
  Rh  Rh3  1  0.60358495  0.60358495  0.75000000  1
  Rh  Rh4  1  0.39641505  0.00000000  0.75000000  1
  Rh  Rh5  1  -0.00000000  0.60358495  0.25000000  1
loop_
_geom_bond_atom_site_label_1
_geom_bond_atom_site_label_2
_geom_bond_distance
_geom_bond_site_symmetry_2
Er0 Rh5 2.833462 1_545
Er0 Rh0 2.833462 1_555
Er0 Rh1 2.849722 1_555
Er0 Rh4 3.310537 1_555
Er0 Rh4 3.310537 1_554
Er1 Rh3 2.833462 1_455
Er1 Rh4 2.833462 1_565
Er1 Rh2 2.849722 1_555
Er1 Rh5 3.310537 1_556
Er1 Rh5 3.310537 1_555
Er2 Rh2 2.833462 1_655
Er2 Rh3 2.833462 1_545
Er2 Rh4 2.849722 1_555
Er2 Rh1 3.310537 1_555
Er2 Rh1 3.310537 1_556
Er3 Rh0 2.833462 1_555
Er3 Rh1 2.833462 1_455
Er3 Rh5 2.849722 1_555
Er3 Rh2 3.310537 1_554
Er3 Rh2 3.310537 1_555
Er4 Rh5 2.940442 1_555
Er4 Rh4 2.940442 1_564
Er4 Rh2 2.940445 1_554
Er4 Rh1 2.940445 1_565
Er4 Rh3 2.940449 1_554
Er4 Rh0 2.940449 1_555
Er5 Rh2 2.940442 1_654
Er5 Rh1 2.940442 1_555
Er5 Rh5 2.940445 1_655
Er5 Rh4 2.940445 1_554
Er5 Rh0 2.940449 1_555
Er5 Rh3 2.940449 1_554
Er6 Rh2 2.940442 1_655
Er6 Rh1 2.940442 1_555
Er6 Rh5 2.940445 1_655
Er6 Rh4 2.940445 1_555
Er6 Rh0 2.940449 1_555
Er6 Rh3 2.940449 1_555
Er7 Rh5 2.833462 1_655
Er7 Rh1 2.833462 1_565
Er7 Rh0 2.849722 1_555
Er7 Rh3 3.310537 1_554
Er7 Rh3 3.310537 1_555
Er8 Rh5 2.940442 1_555
Er8 Rh4 2.940442 1_565
Er8 Rh2 2.940445 1_555
Er8 Rh1 2.940445 1_565
Er8 Rh3 2.940449 1_555
Er8 Rh0 2.940449 1_555
Er9 Rh2 2.833462 1_555
Er9 Rh4 2.833462 1_555
Er9 Rh3 2.849722 1_555
Er9 Rh0 3.310537 1_555
Er9 Rh0 3.310537 1_556
