# generated using pymatgen
data_YMoClO4
_symmetry_space_group_name_H-M   'P 1'
_cell_length_a   6.33738323
_cell_length_b   6.33738323
_cell_length_c   6.95026674
_cell_angle_alpha   75.95139624
_cell_angle_beta   75.95139624
_cell_angle_gamma   70.87797407
_symmetry_Int_Tables_number   1
_chemical_formula_structural   YMoClO4
_chemical_formula_sum   'Y2 Mo2 Cl2 O8'
_cell_volume   251.75943451
_cell_formula_units_Z   2
loop_
 _symmetry_equiv_pos_site_id
 _symmetry_equiv_pos_as_xyz
  1  'x, y, z'
loop_
 _atom_site_type_symbol
 _atom_site_label
 _atom_site_symmetry_multiplicity
 _atom_site_fract_x
 _atom_site_fract_y
 _atom_site_fract_z
 _atom_site_occupancy
  Y  Y0  1  0.22158800  0.22158800  0.88616100  1
  Y  Y1  1  0.77841200  0.77841200  0.11383900  1
  Mo  Mo0  1  0.63794900  0.63794900  0.73147800  1
  Mo  Mo1  1  0.36205100  0.36205100  0.26852200  1
  Cl  Cl0  1  0.01093000  0.01093000  0.23191800  1
  Cl  Cl1  1  0.98907000  0.98907000  0.76808200  1
  O  O0  1  0.11004700  0.49111900  0.15351700  1
  O  O1  1  0.88995300  0.50888100  0.84648300  1
  O  O2  1  0.54249600  0.54249600  0.20199700  1
  O  O3  1  0.70652600  0.70652600  0.46580600  1
  O  O4  1  0.45750400  0.45750400  0.79800300  1
  O  O5  1  0.29347400  0.29347400  0.53419400  1
  O  O6  1  0.50888100  0.88995300  0.84648300  1
  O  O7  1  0.49111900  0.11004700  0.15351700  1
loop_
_geom_bond_atom_site_label_1
_geom_bond_atom_site_label_2
_geom_bond_distance
_geom_bond_site_symmetry_2
Mo0 O3 1.769698 1_555
Mo0 O4 1.781167 1_555
Mo0 O6 1.817965 1_555
Mo0 O1 1.817965 1_555
Mo1 O5 1.769698 1_555
Mo1 O2 1.781167 1_555
Mo1 O7 1.817965 1_555
Mo1 O0 1.817965 1_555
Cl0 Y0 2.718834 1_554
Cl0 Y1 2.759179 1_445
Cl1 Y1 2.718834 1_556
Cl1 Y0 2.759179 1_665
O0 Y1 2.310564 1_455
O0 Y0 2.642430 1_554
O1 Y0 2.310564 1_655
O1 Y1 2.642430 1_556
O2 Y1 2.328306 1_555
O3 Y1 2.335202 1_555
O4 Y0 2.328306 1_555
O5 Y0 2.335202 1_555
O6 Y0 2.310564 1_565
O6 Y1 2.642430 1_556
O7 Y1 2.310564 1_545
O7 Y0 2.642430 1_554
