# generated using pymatgen
data_Th7Pt3
_symmetry_space_group_name_H-M   'P 1'
_cell_length_a   10.11919748
_cell_length_b   10.11918745
_cell_length_c   6.38569094
_cell_angle_alpha   90.00072991
_cell_angle_beta   90.00029274
_cell_angle_gamma   119.99922857
_symmetry_Int_Tables_number   1
_chemical_formula_structural   Th7Pt3
_chemical_formula_sum   'Th14 Pt6'
_cell_volume   566.28311888
_cell_formula_units_Z   2
loop_
 _symmetry_equiv_pos_site_id
 _symmetry_equiv_pos_as_xyz
  1  'x, y, z'
loop_
 _atom_site_type_symbol
 _atom_site_label
 _atom_site_symmetry_multiplicity
 _atom_site_fract_x
 _atom_site_fract_y
 _atom_site_fract_z
 _atom_site_occupancy
  Th  Th0  1  0.45740991  0.54261383  0.28190086  1
  Th  Th1  1  0.08522890  0.54261715  0.28193022  1
  Th  Th2  1  0.91482467  0.45741852  0.78190542  1
  Th  Th3  1  0.25766961  0.12883025  0.49332060  1
  Th  Th4  1  0.54258345  0.08516147  0.78189001  1
  Th  Th5  1  0.74229847  0.87114417  0.99329698  1
  Th  Th6  1  0.66665978  0.33334106  0.34038988  1
  Th  Th7  1  0.12883243  0.87114999  0.99328974  1
  Th  Th8  1  0.45739413  0.91477096  0.28192963  1
  Th  Th9  1  0.54258064  0.45743709  0.78186601  1
  Th  Th10  1  0.87116388  0.12881561  0.49330621  1
  Th  Th11  1  0.12884320  0.25769385  0.99329987  1
  Th  Th12  1  0.87115906  0.74233146  0.49331369  1
  Th  Th13  1  0.33334933  0.66666560  0.84038299  1
  Pt  Pt0  1  0.81160744  0.62323024  0.05864642  1
  Pt  Pt1  1  0.81161940  0.18838087  0.05865689  1
  Pt  Pt2  1  0.62321763  0.81160712  0.55867081  1
  Pt  Pt3  1  0.37677228  0.18839460  0.05865673  1
  Pt  Pt4  1  0.18839931  0.37677678  0.55867378  1
  Pt  Pt5  1  0.18838647  0.81161939  0.55867427  1
loop_
_geom_bond_atom_site_label_1
_geom_bond_atom_site_label_2
_geom_bond_distance
_geom_bond_site_symmetry_2
Pt0 Th5 2.952795 1_554
Pt0 Th7 2.952877 1_654
Pt0 Th2 2.963368 1_554
Pt0 Th9 2.963499 1_554
Pt0 Th12 2.965391 1_555
Pt0 Th6 3.113027 1_555
Pt1 Th11 2.952817 1_654
Pt1 Th5 2.952908 1_544
Pt1 Th4 2.963530 1_554
Pt1 Th2 2.963537 1_554
Pt1 Th10 2.965328 1_555
Pt1 Th6 3.113151 1_555
Pt2 Th12 2.952847 1_555
Pt2 Th10 2.952855 1_565
Pt2 Th8 2.963127 1_555
Pt2 Th0 2.963253 1_555
Pt2 Th5 2.965088 1_555
Pt2 Th13 3.112757 1_555
Pt3 Th11 2.952883 1_554
Pt3 Th7 2.953064 1_544
Pt3 Th4 2.963572 1_554
Pt3 Th9 2.963701 1_554
Pt3 Th3 2.965406 1_555
Pt3 Th6 3.112933 1_555
Pt4 Th3 2.952851 1_555
Pt4 Th10 2.953072 1_455
Pt4 Th1 2.963311 1_555
Pt4 Th0 2.963456 1_555
Pt4 Th11 2.965123 1_555
Pt4 Th13 3.112846 1_555
Pt5 Th3 2.952779 1_565
Pt5 Th12 2.952926 1_455
Pt5 Th1 2.963247 1_555
Pt5 Th8 2.963338 1_555
Pt5 Th7 2.965040 1_555
Pt5 Th13 3.113052 1_555
