# generated using pymatgen
data_Rb2Ag4Pd3(NO2)12
_symmetry_space_group_name_H-M   'P 1'
_cell_length_a   7.32664416
_cell_length_b   7.80856363
_cell_length_c   24.51252894
_cell_angle_alpha   90.00000000
_cell_angle_beta   90.00000000
_cell_angle_gamma   98.78458644
_symmetry_Int_Tables_number   1
_chemical_formula_structural   Rb2Ag4Pd3(NO2)12
_chemical_formula_sum   'Rb4 Ag8 Pd6 N24 O48'
_cell_volume   1385.92511655
_cell_formula_units_Z   2
loop_
 _symmetry_equiv_pos_site_id
 _symmetry_equiv_pos_as_xyz
  1  'x, y, z'
loop_
 _atom_site_type_symbol
 _atom_site_label
 _atom_site_symmetry_multiplicity
 _atom_site_fract_x
 _atom_site_fract_y
 _atom_site_fract_z
 _atom_site_occupancy
  Rb  Rb0  1  0.09973120  0.41282912  0.86658515  1
  Rb  Rb1  1  0.40026880  0.08717088  0.36658515  1
  Rb  Rb2  1  0.90026880  0.58717088  0.13341485  1
  Rb  Rb3  1  0.59973120  0.91282912  0.63341485  1
  Ag  Ag0  1  0.10741492  0.68220545  0.68292366  1
  Ag  Ag1  1  0.37473812  0.60649940  0.47274138  1
  Ag  Ag2  1  0.60741492  0.18220545  0.81707634  1
  Ag  Ag3  1  0.39258508  0.81779455  0.18292366  1
  Ag  Ag4  1  0.12526188  0.89350060  0.97274138  1
  Ag  Ag5  1  0.62526188  0.39350060  0.52725862  1
  Ag  Ag6  1  0.87473812  0.10649940  0.02725862  1
  Ag  Ag7  1  0.89258508  0.31779455  0.31707634  1
  Pd  Pd0  1  0.88993515  0.71919692  0.32438679  1
  Pd  Pd1  1  0.38993515  0.21919692  0.17561321  1
  Pd  Pd2  1  0.00000000  0.00000000  0.50000000  1
  Pd  Pd3  1  0.11006485  0.28080308  0.67561321  1
  Pd  Pd4  1  0.61006485  0.78080308  0.82438679  1
  Pd  Pd5  1  0.50000000  0.50000000  0.00000000  1
  N  N0  1  0.33398885  0.35047359  0.62384090  1
  N  N1  1  0.28735276  0.20328088  0.73230445  1
  N  N2  1  0.38792741  0.71783716  0.77208399  1
  N  N3  1  0.11495077  0.89801479  0.56717768  1
  N  N4  1  0.66601115  0.64952641  0.37615910  1
  N  N5  1  0.61495077  0.39801479  0.93282232  1
  N  N6  1  0.20228188  0.21812173  0.49660738  1
  N  N7  1  0.79771812  0.78187827  0.50339262  1
  N  N8  1  0.11207259  0.78216284  0.27208399  1
  N  N9  1  0.71264724  0.79671912  0.26769555  1
  N  N10  1  0.93053504  0.35295596  0.61688727  1
  N  N11  1  0.88504923  0.10198521  0.43282232  1
  N  N12  1  0.43053504  0.85295596  0.88311273  1
  N  N13  1  0.16601115  0.14952641  0.12384090  1
  N  N14  1  0.21264724  0.29671912  0.23230445  1
  N  N15  1  0.38504923  0.60198521  0.06717768  1
  N  N16  1  0.70228188  0.71812173  0.00339262  1
  N  N17  1  0.56946496  0.14704404  0.11688727  1
  N  N18  1  0.88792741  0.21783716  0.72791601  1
  N  N19  1  0.06946496  0.64704404  0.38311273  1
  N  N20  1  0.29771812  0.28187827  0.99660738  1
  N  N21  1  0.83398885  0.85047359  0.87615910  1
  N  N22  1  0.78735276  0.70328088  0.76769555  1
  N  N23  1  0.61207259  0.28216284  0.22791601  1
  O  O0  1  0.61335760  0.49452213  0.38711203  1
  O  O1  1  0.03341850  0.89691478  0.61237018  1
  O  O2  1  0.46658150  0.60308522  0.11237018  1
  O  O3  1  0.86206170  0.70092348  0.01848729  1
  O  O4  1  0.22771788  0.70048405  0.79019840  1
  O  O5  1  0.77228212  0.29951595  0.20980160  1
  O  O6  1  0.15814108  0.20274081  0.27240758  1
  O  O7  1  0.25860610  0.83342192  0.56213510  1
  O  O8  1  0.41273164  0.00979009  0.88640002  1
  O  O9  1  0.16157784  0.43933217  0.22560645  1
  O  O10  1  0.24139390  0.66657808  0.06213510  1
  O  O11  1  0.33634564  0.13517645  0.00768546  1
  O  O12  1  0.91190580  0.20383828  0.77848955  1
  O  O13  1  0.84185892  0.79725919  0.72759242  1
  O  O14  1  0.88664240  0.00547787  0.88711203  1
  O  O15  1  0.34185892  0.29725919  0.77240758  1
  O  O16  1  0.66365436  0.86482355  0.99231454  1
  O  O17  1  0.63793830  0.79907652  0.51848729  1
  O  O18  1  0.08809420  0.79616172  0.22151045  1
  O  O19  1  0.65814108  0.70274081  0.22759242  1
  O  O20  1  0.13793830  0.29907652  0.98151271  1
  O  O21  1  0.74139390  0.16657808  0.43786490  1
  O  O22  1  0.72771788  0.20048405  0.70980160  1
  O  O23  1  0.53341850  0.39691478  0.88762982  1
  O  O24  1  0.58809420  0.29616172  0.27848955  1
  O  O25  1  0.27228212  0.79951595  0.29019840  1
  O  O26  1  0.09028484  0.26604098  0.10212920  1
  O  O27  1  0.90971516  0.73395902  0.89787080  1
  O  O28  1  0.33603488  0.74470726  0.91326547  1
  O  O29  1  0.83634564  0.63517645  0.49231454  1
  O  O30  1  0.66396512  0.25529274  0.08673453  1
  O  O31  1  0.58726836  0.99020991  0.11359998  1
  O  O32  1  0.16365436  0.36482355  0.50768546  1
  O  O33  1  0.08726836  0.49020991  0.38640002  1
  O  O34  1  0.83842216  0.56066783  0.77439355  1
  O  O35  1  0.59028484  0.76604098  0.39787080  1
  O  O36  1  0.66157784  0.93933217  0.27439355  1
  O  O37  1  0.33842216  0.06066783  0.72560645  1
  O  O38  1  0.91273164  0.50979009  0.61359998  1
  O  O39  1  0.41190580  0.70383828  0.72151045  1
  O  O40  1  0.75860610  0.33342192  0.93786490  1
  O  O41  1  0.96658150  0.10308522  0.38762982  1
  O  O42  1  0.83603488  0.24470726  0.58673453  1
  O  O43  1  0.11335760  0.99452213  0.11288797  1
  O  O44  1  0.16396512  0.75529274  0.41326547  1
  O  O45  1  0.38664240  0.50547787  0.61288797  1
  O  O46  1  0.36206170  0.20092348  0.48151271  1
  O  O47  1  0.40971516  0.23395902  0.60212920  1
loop_
_geom_bond_atom_site_label_1
_geom_bond_atom_site_label_2
_geom_bond_distance
_geom_bond_site_symmetry_2
Ag0 O39 2.405198 1_555
Ag0 O38 2.479552 1_455
Ag0 O13 2.515040 1_455
Ag0 O1 2.524563 1_555
Ag1 O32 2.407353 1_555
Ag1 O17 2.520238 1_555
Ag1 O44 2.531437 1_555
Ag1 O35 2.610222 1_555
Ag2 O12 2.405198 1_555
Ag2 O8 2.479552 1_555
Ag2 O15 2.515040 1_555
Ag2 O23 2.524563 1_555
Ag3 O18 2.405198 1_555
Ag3 O31 2.479552 1_555
Ag3 O19 2.515040 1_555
Ag3 O2 2.524563 1_555
Ag4 O11 2.407353 1_566
Ag4 O3 2.520238 1_456
Ag4 O28 2.531437 1_555
Ag4 O27 2.610222 1_455
Ag5 O29 2.407353 1_555
Ag5 O46 2.520238 1_555
Ag5 O42 2.531437 1_555
Ag5 O47 2.610222 1_555
Ag6 O16 2.407353 1_544
Ag6 O20 2.520238 1_654
Ag6 O30 2.531437 1_555
Ag6 O26 2.610222 1_655
Ag7 O24 2.405198 1_555
Ag7 O33 2.479552 1_655
Ag7 O6 2.515040 1_655
Ag7 O41 2.524563 1_555
N0 O45 1.242280 1_555
N0 O47 1.254196 1_555
N0 Pd3 2.079782 1_555
N1 O37 1.238684 1_555
N1 O15 1.254922 1_555
N1 Pd3 2.055461 1_555
N2 O4 1.242878 1_555
N2 O39 1.259166 1_555
N2 Pd4 2.071200 1_555
N3 O7 1.240807 1_555
N3 O1 1.257985 1_555
N3 Pd2 2.063966 1_565
N4 O0 1.242280 1_555
N4 O35 1.254196 1_555
N4 Pd0 2.079782 1_555
N5 O40 1.240807 1_555
N5 O23 1.257985 1_555
N5 Pd5 2.063966 1_556
N6 O32 1.251039 1_555
N6 O46 1.254345 1_555
N6 Pd2 2.081664 1_555
N7 O29 1.251039 1_555
N7 O17 1.254345 1_555
N7 Pd2 2.081664 1_665
N8 O25 1.242878 1_555
N8 O18 1.259166 1_555
N8 Pd0 2.071200 1_455
N9 O36 1.238684 1_555
N9 O19 1.254922 1_555
N9 Pd0 2.055461 1_555
N10 O42 1.249558 1_555
N10 O38 1.253820 1_555
N10 Pd3 2.084744 1_655
N11 O21 1.240807 1_555
N11 O41 1.257985 1_555
N11 Pd2 2.063966 1_655
N12 O28 1.249558 1_555
N12 O8 1.253820 1_565
N12 Pd4 2.084744 1_555
N13 O43 1.242280 1_545
N13 O26 1.254196 1_555
N13 Pd1 2.079782 1_555
N14 O9 1.238684 1_555
N14 O6 1.254922 1_555
N14 Pd1 2.055461 1_555
N15 O10 1.240807 1_555
N15 O2 1.257985 1_555
N15 Pd5 2.063966 1_555
N16 O16 1.251039 1_554
N16 O3 1.254345 1_555
N16 Pd5 2.081664 1_555
N17 O30 1.249558 1_555
N17 O31 1.253820 1_545
N17 Pd1 2.084744 1_555
N18 O22 1.242878 1_555
N18 O12 1.259166 1_555
N18 Pd3 2.071200 1_655
N19 O44 1.249558 1_555
N19 O33 1.253820 1_555
N19 Pd0 2.084744 1_455
N20 O11 1.251039 1_556
N20 O20 1.254345 1_555
N20 Pd5 2.081664 1_556
N21 O14 1.242280 1_565
N21 O27 1.254196 1_555
N21 Pd4 2.079782 1_555
N22 O34 1.238684 1_555
N22 O13 1.254922 1_555
N22 Pd4 2.055461 1_555
N23 O5 1.242878 1_555
N23 O24 1.259166 1_555
N23 Pd1 2.071200 1_555
O0 Rb1 3.360276 1_555
O1 Rb3 3.240137 1_455
O2 Rb2 3.240137 1_555
O3 Rb2 2.979883 1_555
O4 Rb0 2.964331 1_555
O5 Rb2 2.964331 1_555
O6 Rb1 3.127251 1_555
O7 Rb3 3.034882 1_555
O9 Rb2 3.283294 1_455
O10 Rb2 3.034882 1_455
O12 Rb0 2.921329 1_655
O13 Rb3 3.127251 1_555
O14 Rb0 3.360276 1_655
O15 Rb0 3.127251 1_555
O17 Rb3 2.979883 1_555
O18 Rb2 2.921329 1_455
O19 Rb2 3.127251 1_555
O20 Rb0 2.979883 1_555
O21 Rb1 3.034882 1_555
O22 Rb3 2.964331 1_545
O23 Rb0 3.240137 1_555
O24 Rb1 2.921329 1_555
O25 Rb1 2.964331 1_565
O26 Rb2 3.143317 1_455
O27 Rb0 3.143317 1_655
O28 Rb0 3.106795 1_555
O30 Rb2 3.106795 1_555
O34 Rb0 3.283294 1_655
O35 Rb1 3.143317 1_565
O36 Rb1 3.283294 1_565
O37 Rb3 3.283294 1_545
O39 Rb3 2.921329 1_555
O40 Rb0 3.034882 1_655
O41 Rb1 3.240137 1_655
O42 Rb3 3.106795 1_545
O43 Rb2 3.360276 1_455
O44 Rb1 3.106795 1_565
O45 Rb3 3.360276 1_555
O46 Rb1 2.979883 1_555
O47 Rb3 3.143317 1_545
