# generated using pymatgen
data_FeH9C3N7O2
_symmetry_space_group_name_H-M   'P 1'
_cell_length_a   14.13873000
_cell_length_b   6.49034600
_cell_length_c   10.56335084
_cell_angle_alpha   85.12853598
_cell_angle_beta   90.00000000
_cell_angle_gamma   90.00000000
_symmetry_Int_Tables_number   1
_chemical_formula_structural   FeH9C3N7O2
_chemical_formula_sum   'Fe4 H36 C12 N28 O8'
_cell_volume   965.84696379
_cell_formula_units_Z   4
loop_
 _symmetry_equiv_pos_site_id
 _symmetry_equiv_pos_as_xyz
  1  'x, y, z'
loop_
 _atom_site_type_symbol
 _atom_site_label
 _atom_site_symmetry_multiplicity
 _atom_site_fract_x
 _atom_site_fract_y
 _atom_site_fract_z
 _atom_site_occupancy
  Fe  Fe0  1  0.75095400  0.97275600  0.75059800  1
  Fe  Fe1  1  0.25095400  0.52724400  0.24940200  1
  Fe  Fe2  1  0.24904600  0.02724400  0.24940200  1
  Fe  Fe3  1  0.74904600  0.47275600  0.75059800  1
  H  H0  1  0.51690700  0.85129700  0.76234200  1
  H  H1  1  0.01690700  0.64870300  0.23765800  1
  H  H2  1  0.48309300  0.14870300  0.23765800  1
  H  H3  1  0.98309300  0.35129700  0.76234200  1
  H  H4  1  0.49332100  0.60034500  0.79672600  1
  H  H5  1  0.99332100  0.89965500  0.20327400  1
  H  H6  1  0.50667900  0.39965500  0.20327400  1
  H  H7  1  0.00667900  0.10034500  0.79672600  1
  H  H8  1  0.48173100  0.22313600  0.74539800  1
  H  H9  1  0.98173100  0.27686400  0.25460200  1
  H  H10  1  0.51826900  0.77686400  0.25460200  1
  H  H11  1  0.01826900  0.72313600  0.74539800  1
  H  H12  1  0.35757300  0.95113700  0.80641200  1
  H  H13  1  0.85757300  0.54886300  0.19358800  1
  H  H14  1  0.64242700  0.04886300  0.19358800  1
  H  H15  1  0.14242700  0.45113700  0.80641200  1
  H  H16  1  0.40727800  0.79925300  0.94044100  1
  H  H17  1  0.90727800  0.70074700  0.05955900  1
  H  H18  1  0.59272200  0.20074700  0.05955900  1
  H  H19  1  0.09272200  0.29925300  0.94044100  1
  H  H20  1  0.32574900  0.68400500  0.83732500  1
  H  H21  1  0.82574900  0.81599500  0.16267500  1
  H  H22  1  0.67425100  0.31599500  0.16267500  1
  H  H23  1  0.17425100  0.18400500  0.83732500  1
  H  H24  1  0.38265900  0.59657700  0.62327700  1
  H  H25  1  0.88265900  0.90342300  0.37672300  1
  H  H26  1  0.61734100  0.40342300  0.37672300  1
  H  H27  1  0.11734100  0.09657700  0.62327700  1
  H  H28  1  0.49844100  0.68224000  0.57335300  1
  H  H29  1  0.99844100  0.81776000  0.42664700  1
  H  H30  1  0.50155900  0.31776000  0.42664700  1
  H  H31  1  0.00155900  0.18224000  0.57335300  1
  H  H32  1  0.40560100  0.86810500  0.58796000  1
  H  H33  1  0.90560100  0.63189500  0.41204000  1
  H  H34  1  0.59439900  0.13189500  0.41204000  1
  H  H35  1  0.09439900  0.36810500  0.58796000  1
  C  C0  1  0.55989700  0.22302500  0.75032600  1
  C  C1  1  0.05989700  0.27697500  0.24967400  1
  C  C2  1  0.44010300  0.77697500  0.24967400  1
  C  C3  1  0.94010300  0.72302500  0.75032600  1
  C  C4  1  0.38258500  0.79745600  0.84240500  1
  C  C5  1  0.88258500  0.70254400  0.15759500  1
  C  C6  1  0.61741500  0.20254400  0.15759500  1
  C  C7  1  0.11741500  0.29745600  0.84240500  1
  C  C8  1  0.43522900  0.72003000  0.62661800  1
  C  C9  1  0.93522900  0.77997000  0.37338200  1
  C  C10  1  0.56477100  0.27997000  0.37338200  1
  C  C11  1  0.06477100  0.22003000  0.62661800  1
  N  N0  1  0.72824900  0.74323400  0.61285600  1
  N  N1  1  0.22824900  0.75676600  0.38714400  1
  N  N2  1  0.27175100  0.25676600  0.38714400  1
  N  N3  1  0.77175100  0.24323400  0.61285600  1
  N  N4  1  0.69548100  0.75902800  0.50732800  1
  N  N5  1  0.19548100  0.74097200  0.49267200  1
  N  N6  1  0.30451900  0.24097200  0.49267200  1
  N  N7  1  0.80451900  0.25902800  0.50732800  1
  N  N8  1  0.66394300  0.77437500  0.40461400  1
  N  N9  1  0.16394300  0.72562500  0.59538600  1
  N  N10  1  0.33605700  0.22562500  0.59538600  1
  N  N11  1  0.83605700  0.27437500  0.40461400  1
  N  N12  1  0.72114900  0.70327000  0.88576200  1
  N  N13  1  0.22114900  0.79673000  0.11423800  1
  N  N14  1  0.27885100  0.29673000  0.11423800  1
  N  N15  1  0.77885100  0.20327000  0.88576200  1
  N  N16  1  0.65986600  0.69483700  0.96544400  1
  N  N17  1  0.15986600  0.80516300  0.03455600  1
  N  N18  1  0.34013400  0.30516300  0.03455600  1
  N  N19  1  0.84013400  0.19483700  0.96544400  1
  N  N20  1  0.60048100  0.68671800  0.04250300  1
  N  N21  1  0.10048100  0.81328200  0.95749700  1
  N  N22  1  0.39951900  0.31328200  0.95749700  1
  N  N23  1  0.89951900  0.18671800  0.04250300  1
  N  N24  1  0.46277200  0.73871400  0.76134800  1
  N  N25  1  0.96277200  0.76128600  0.23865200  1
  N  N26  1  0.53722800  0.26128600  0.23865200  1
  N  N27  1  0.03722800  0.23871400  0.76134800  1
  O  O0  1  0.60015800  0.04675400  0.75065100  1
  O  O1  1  0.10015800  0.45324600  0.24934900  1
  O  O2  1  0.39984200  0.95324600  0.24934900  1
  O  O3  1  0.89984200  0.54675400  0.75065100  1
  O  O4  1  0.59948200  0.39722600  0.75482000  1
  O  O5  1  0.09948200  0.10277400  0.24518000  1
  O  O6  1  0.40051800  0.60277400  0.24518000  1
  O  O7  1  0.90051800  0.89722600  0.75482000  1
loop_
_geom_bond_atom_site_label_1
_geom_bond_atom_site_label_2
_geom_bond_distance
_geom_bond_site_symmetry_2
Fe0 O7 2.170325 1_555
Fe0 O0 2.185499 1_565
Fe0 N15 2.189819 1_565
Fe0 N0 2.192578 1_555
Fe0 N12 2.202547 1_555
Fe0 N3 2.202607 1_565
Fe1 O6 2.170325 1_555
Fe1 O1 2.185499 1_555
Fe1 N14 2.189819 1_555
Fe1 N1 2.192578 1_555
Fe1 N13 2.202547 1_555
Fe1 N2 2.202607 1_555
Fe2 O5 2.170325 1_555
Fe2 O2 2.185499 1_545
Fe2 N13 2.189819 1_545
Fe2 N2 2.192578 1_555
Fe2 N14 2.202547 1_555
Fe2 N1 2.202607 1_545
Fe3 O4 2.170325 1_555
Fe3 O3 2.185499 1_555
Fe3 N12 2.189819 1_555
Fe3 N3 2.192578 1_555
Fe3 N15 2.202547 1_555
Fe3 N0 2.202607 1_555
H0 N24 1.058856 1_555
H0 O0 1.727260 1_565
H1 N25 1.058856 1_455
H1 O1 1.727260 1_555
H2 N26 1.058856 1_555
H2 O2 1.727260 1_545
H3 N27 1.058856 1_655
H3 O3 1.727260 1_555
H4 N24 1.037175 1_555
H5 N25 1.037175 1_555
H6 N26 1.037175 1_555
H7 N27 1.037175 1_555
C0 H8 1.106391 1_555
C0 O4 1.266067 1_555
C0 O0 1.277596 1_555
C1 H9 1.106391 1_455
C1 O5 1.266067 1_555
C1 O1 1.277596 1_555
C2 H10 1.106391 1_555
C2 O6 1.266067 1_555
C2 O2 1.277596 1_555
C3 H11 1.106391 1_655
C3 O7 1.266067 1_555
C3 O3 1.277596 1_555
C4 H16 1.093856 1_555
C4 H20 1.094320 1_555
C4 H12 1.095491 1_555
C4 N24 1.489734 1_555
C5 H17 1.093856 1_555
C5 H21 1.094320 1_555
C5 H13 1.095491 1_555
C5 N25 1.489734 1_555
C6 H18 1.093856 1_555
C6 H22 1.094320 1_555
C6 H14 1.095491 1_555
C6 N26 1.489734 1_555
C7 H19 1.093856 1_555
C7 H23 1.094320 1_555
C7 H15 1.095491 1_555
C7 N27 1.489734 1_555
C8 H28 1.094964 1_555
C8 H32 1.095086 1_555
C8 H24 1.095677 1_555
C8 N24 1.490358 1_555
C9 H29 1.094964 1_555
C9 H33 1.095086 1_555
C9 H25 1.095677 1_555
C9 N25 1.490358 1_555
C10 H30 1.094964 1_555
C10 H34 1.095086 1_555
C10 H26 1.095677 1_555
C10 N26 1.490358 1_555
C11 H31 1.094964 1_555
C11 H35 1.095086 1_555
C11 H27 1.095677 1_555
C11 N27 1.490358 1_555
N0 N4 1.203481 1_555
N1 N5 1.203481 1_555
N2 N6 1.203481 1_555
N3 N7 1.203481 1_555
N4 N8 1.169458 1_555
N5 N9 1.169458 1_555
N10 N6 1.169458 1_555
N11 N7 1.169458 1_555
N12 N16 1.205987 1_555
N13 N17 1.205987 1_555
N14 N18 1.205987 1_555
N15 N19 1.205987 1_555
N16 N20 1.167504 1_556
N17 N21 1.167504 1_554
N18 N22 1.167504 1_554
N19 N23 1.167504 1_556
