# generated using pymatgen
data_K2Ce(NO3)6
_symmetry_space_group_name_H-M   'P 1'
_cell_length_a   13.48242309
_cell_length_b   13.48242291
_cell_length_c   6.59865275
_cell_angle_alpha   90.00000000
_cell_angle_beta   90.00000000
_cell_angle_gamma   119.99999606
_symmetry_Int_Tables_number   1
_chemical_formula_structural   K2Ce(NO3)6
_chemical_formula_sum   'K6 Ce3 N18 O54'
_cell_volume   1038.77579345
_cell_formula_units_Z   3
loop_
 _symmetry_equiv_pos_site_id
 _symmetry_equiv_pos_as_xyz
  1  'x, y, z'
loop_
 _atom_site_type_symbol
 _atom_site_label
 _atom_site_symmetry_multiplicity
 _atom_site_fract_x
 _atom_site_fract_y
 _atom_site_fract_z
 _atom_site_occupancy
  K  K0  1  0.67641823  0.68106392  0.21815130  1
  K  K1  1  0.99535432  0.67641823  0.78184870  1
  K  K2  1  0.31893608  0.99535432  0.21815130  1
  K  K3  1  0.32358177  0.31893608  0.78184870  1
  K  K4  1  0.00464568  0.32358177  0.21815130  1
  K  K5  1  0.68106392  0.00464568  0.78184870  1
  Ce  Ce0  1  0.66666700  0.33333300  0.49230659  1
  Ce  Ce1  1  0.33333300  0.66666700  0.50769341  1
  Ce  Ce2  1  0.00000000  0.00000000  0.00000000  1
  N  N0  1  0.80330522  0.52929579  0.22212637  1
  N  N1  1  0.61560295  0.47959431  0.75348879  1
  N  N2  1  0.17946183  0.00713724  0.72839432  1
  N  N3  1  0.82053817  0.99286276  0.27160568  1
  N  N4  1  0.13600863  0.61560295  0.24651121  1
  N  N5  1  0.99286276  0.17232459  0.72839432  1
  N  N6  1  0.47070421  0.27400943  0.22212637  1
  N  N7  1  0.82767541  0.82053817  0.72839432  1
  N  N8  1  0.38439705  0.52040569  0.24651121  1
  N  N9  1  0.86399137  0.38439705  0.75348879  1
  N  N10  1  0.27400943  0.80330522  0.77787363  1
  N  N11  1  0.52040569  0.13600863  0.75348879  1
  N  N12  1  0.72599057  0.19669478  0.22212637  1
  N  N13  1  0.47959431  0.86399137  0.24651121  1
  N  N14  1  0.19669478  0.47070421  0.77787363  1
  N  N15  1  0.52929579  0.72599057  0.77787363  1
  N  N16  1  0.17232459  0.17946183  0.27160568  1
  N  N17  1  0.00713724  0.82767541  0.27160568  1
  O  O0  1  0.93353615  0.85981858  0.29199788  1
  O  O1  1  0.79609348  0.92733987  0.11601045  1
  O  O2  1  0.24678396  0.46296330  0.61790576  1
  O  O3  1  0.23717033  0.25284690  0.38938036  1
  O  O4  1  0.21617834  0.75321604  0.61790576  1
  O  O5  1  0.87325909  0.45020390  0.60511438  1
  O  O6  1  0.53160183  0.23467846  0.77725574  1
  O  O7  1  0.42305619  0.87325909  0.39488562  1
  O  O8  1  0.14018142  0.07371756  0.29199788  1
  O  O9  1  0.43435824  0.63580550  0.80570840  1
  O  O10  1  0.79855274  0.43435824  0.19429160  1
  O  O11  1  0.92733987  0.13124738  0.88398955  1
  O  O12  1  0.53703670  0.78382166  0.61790576  1
  O  O13  1  0.25284690  0.01567757  0.61061964  1
  O  O14  1  0.46839817  0.76532154  0.22274426  1
  O  O15  1  0.46069328  0.05511475  0.86377371  1
  O  O16  1  0.85981858  0.92628244  0.70800212  1
  O  O17  1  0.76282967  0.74715310  0.61061964  1
  O  O18  1  0.24021169  0.85041498  0.89528742  1
  O  O19  1  0.57694381  0.12674091  0.60511438  1
  O  O20  1  0.23467846  0.70307763  0.22274426  1
  O  O21  1  0.61020329  0.75978831  0.89528742  1
  O  O22  1  0.14958502  0.38979671  0.89528742  1
  O  O23  1  0.98432243  0.23717033  0.61061964  1
  O  O24  1  0.20144726  0.56564176  0.80570840  1
  O  O25  1  0.53930672  0.94488525  0.13622629  1
  O  O26  1  0.45020390  0.57694381  0.39488562  1
  O  O27  1  0.46296330  0.21617834  0.38209424  1
  O  O28  1  0.92628244  0.06646385  0.29199788  1
  O  O29  1  0.40557853  0.46069328  0.13622629  1
  O  O30  1  0.75978831  0.14958502  0.10471258  1
  O  O31  1  0.01567757  0.76282967  0.38938036  1
  O  O32  1  0.94488525  0.40557853  0.86377371  1
  O  O33  1  0.07371756  0.93353615  0.70800212  1
  O  O34  1  0.38979671  0.24021169  0.10471258  1
  O  O35  1  0.56564176  0.36419450  0.19429160  1
  O  O36  1  0.12674091  0.54979610  0.39488562  1
  O  O37  1  0.85041498  0.61020329  0.10471258  1
  O  O38  1  0.06646385  0.14018142  0.70800212  1
  O  O39  1  0.75321604  0.53703670  0.38209424  1
  O  O40  1  0.29692237  0.53160183  0.22274426  1
  O  O41  1  0.76532154  0.29692237  0.77725574  1
  O  O42  1  0.63580550  0.20144726  0.19429160  1
  O  O43  1  0.54979610  0.42305619  0.60511438  1
  O  O44  1  0.70307763  0.46839817  0.77725574  1
  O  O45  1  0.07266013  0.86875262  0.11601045  1
  O  O46  1  0.78382166  0.24678396  0.38209424  1
  O  O47  1  0.59442147  0.53930672  0.86377371  1
  O  O48  1  0.74715310  0.98432243  0.38938036  1
  O  O49  1  0.36419450  0.79855274  0.80570840  1
  O  O50  1  0.20390652  0.07266013  0.88398955  1
  O  O51  1  0.05511475  0.59442147  0.13622629  1
  O  O52  1  0.86875262  0.79609348  0.88398955  1
  O  O53  1  0.13124738  0.20390652  0.11601045  1
loop_
_geom_bond_atom_site_label_1
_geom_bond_atom_site_label_2
_geom_bond_distance
_geom_bond_site_symmetry_2
K0 O21 2.722127 1_554
K0 O17 2.796433 1_555
K0 O39 2.832620 1_555
K0 O47 2.868842 1_554
K0 O26 2.889848 1_555
K0 O1 2.953848 1_555
K0 O37 3.036033 1_555
K0 O0 3.115814 1_555
K0 O52 3.157536 1_554
K1 O37 2.722127 1_556
K1 O31 2.796431 1_655
K1 O4 2.832608 1_655
K1 O51 2.868842 1_656
K1 O5 2.889848 1_555
K1 O52 2.953860 1_555
K1 O18 3.036033 1_655
K1 O33 3.115814 1_655
K1 O45 3.157535 1_656
K2 O18 2.722127 1_554
K2 O13 2.796436 1_565
K2 O27 2.832610 1_565
K2 O15 2.868842 1_564
K2 O7 2.889859 1_555
K2 O45 2.953849 1_555
K2 O34 3.036033 1_565
K2 O8 3.115814 1_565
K2 O50 3.157543 1_564
K3 O34 2.722127 1_556
K3 O3 2.796433 1_555
K3 O2 2.832620 1_555
K3 O29 2.868842 1_556
K3 O43 2.889848 1_555
K3 O50 2.953848 1_555
K3 O22 3.036033 1_555
K3 O38 3.115814 1_555
K3 O53 3.157536 1_556
K4 O22 2.722127 1_554
K4 O23 2.796431 1_455
K4 O46 2.832608 1_455
K4 O32 2.868842 1_454
K4 O36 2.889848 1_555
K4 O53 2.953860 1_555
K4 O30 3.036033 1_455
K4 O28 3.115814 1_455
K4 O11 3.157535 1_454
K5 O30 2.722127 1_556
K5 O48 2.796436 1_545
K5 O12 2.832610 1_545
K5 O25 2.868842 1_546
K5 O19 2.889859 1_555
K5 O11 2.953849 1_555
K5 O21 3.036033 1_545
K5 O16 3.115814 1_545
K5 O1 3.157543 1_546
Ce0 O41 2.489692 1_555
Ce0 O44 2.489692 1_555
Ce0 O6 2.489692 1_555
Ce0 O46 2.495712 1_555
Ce0 O39 2.495712 1_555
Ce0 O27 2.495712 1_555
Ce0 O19 2.531061 1_555
Ce0 O5 2.531063 1_555
Ce0 O43 2.531084 1_555
Ce0 O42 2.542078 1_555
Ce0 O10 2.542080 1_555
Ce0 O35 2.542086 1_555
Ce1 O20 2.489692 1_555
Ce1 O40 2.489692 1_555
Ce1 O14 2.489692 1_555
Ce1 O4 2.495712 1_555
Ce1 O2 2.495712 1_555
Ce1 O12 2.495712 1_555
Ce1 O7 2.531061 1_555
Ce1 O36 2.531063 1_555
Ce1 O26 2.531084 1_555
Ce1 O49 2.542078 1_555
Ce1 O24 2.542080 1_555
Ce1 O9 2.542086 1_555
Ce2 O28 2.528627 1_455
Ce2 O33 2.528627 1_544
Ce2 O0 2.528627 1_445
Ce2 O38 2.528627 1_554
Ce2 O16 2.528627 1_444
Ce2 O8 2.528627 1_555
Ce2 O1 2.531872 1_445
Ce2 O50 2.531872 1_554
Ce2 O52 2.531874 1_444
Ce2 O53 2.531874 1_555
Ce2 O11 2.531884 1_454
Ce2 O45 2.531884 1_545
N0 O37 1.225054 1_555
N0 O10 1.262615 1_555
N0 O39 1.285172 1_555
N1 O47 1.220325 1_555
N1 O44 1.271347 1_555
N1 O43 1.284722 1_555
N2 O13 1.217469 1_555
N2 O33 1.273050 1_545
N2 O50 1.285314 1_555
N3 O48 1.217469 1_555
N3 O28 1.273050 1_565
N3 O1 1.285314 1_555
N4 O51 1.220325 1_555
N4 O20 1.271340 1_555
N4 O36 1.284725 1_555
N5 O23 1.217480 1_555
N5 O38 1.273050 1_655
N5 O11 1.285313 1_555
N6 O34 1.225054 1_555
N6 O35 1.262615 1_555
N6 O27 1.285180 1_555
N7 O17 1.217473 1_555
N7 O16 1.273050 1_555
N7 O52 1.285306 1_555
N8 O29 1.220325 1_555
N8 O40 1.271347 1_555
N8 O26 1.284722 1_555
N9 O32 1.220325 1_555
N9 O41 1.271340 1_555
N9 O5 1.284725 1_555
N10 O18 1.225054 1_555
N10 O49 1.262615 1_555
N10 O4 1.285177 1_555
N11 O15 1.220325 1_555
N11 O6 1.271334 1_555
N11 O19 1.284717 1_555
N12 O30 1.225054 1_555
N12 O42 1.262615 1_555
N12 O46 1.285177 1_555
N13 O25 1.220325 1_555
N13 O14 1.271334 1_555
N13 O7 1.284717 1_555
N14 O22 1.225054 1_555
N14 O24 1.262615 1_555
N14 O2 1.285172 1_555
N15 O21 1.225054 1_555
N15 O9 1.262615 1_555
N15 O12 1.285180 1_555
N16 O3 1.217473 1_555
N16 O8 1.273050 1_555
N16 O53 1.285306 1_555
N17 O31 1.217480 1_555
N17 O0 1.273050 1_455
N17 O45 1.285313 1_555
