# generated using pymatgen
data_Co3P4PbO14
_symmetry_space_group_name_H-M   'P 1'
_cell_length_a   7.72490828
_cell_length_b   7.36022336
_cell_length_c   9.41652863
_cell_angle_alpha   68.66336739
_cell_angle_beta   90.00000000
_cell_angle_gamma   90.00000000
_symmetry_Int_Tables_number   1
_chemical_formula_structural   Co3P4PbO14
_chemical_formula_sum   'Co6 P8 Pb2 O28'
_cell_volume   498.69934940
_cell_formula_units_Z   2
loop_
 _symmetry_equiv_pos_site_id
 _symmetry_equiv_pos_as_xyz
  1  'x, y, z'
loop_
 _atom_site_type_symbol
 _atom_site_label
 _atom_site_symmetry_multiplicity
 _atom_site_fract_x
 _atom_site_fract_y
 _atom_site_fract_z
 _atom_site_occupancy
  Co  Co0  1  0.62603226  0.68604767  0.47610512  1
  Co  Co1  1  0.87396774  0.68604767  0.97610512  1
  Co  Co2  1  0.37396774  0.31395233  0.52389488  1
  Co  Co3  1  0.12603226  0.31395233  0.02389488  1
  Co  Co4  1  0.50000000  0.50000000  0.00000000  1
  Co  Co5  1  -0.00000000  0.50000000  0.50000000  1
  P  P0  1  0.04829956  0.10305375  0.80162179  1
  P  P1  1  0.29113137  0.60096420  0.69681371  1
  P  P2  1  0.79113137  0.39903580  0.80318629  1
  P  P3  1  0.45170044  0.10305375  0.30162179  1
  P  P4  1  0.70886863  0.39903580  0.30318629  1
  P  P5  1  0.95170044  0.89694625  0.19837821  1
  P  P6  1  0.54829956  0.89694625  0.69837821  1
  P  P7  1  0.20886863  0.60096420  0.19681371  1
  Pb  Pb0  1  -0.00000000  -0.00000000  0.50000000  1
  Pb  Pb1  1  0.50000000  -0.00000000  0.00000000  1
  O  O0  1  0.36385757  0.81163220  0.67626398  1
  O  O1  1  0.10859808  0.22304820  0.63955177  1
  O  O2  1  0.08206096  0.51048623  0.11890075  1
  O  O3  1  0.60859808  0.77695180  0.86044823  1
  O  O4  1  0.41793904  0.51048623  0.61890075  1
  O  O5  1  0.89140192  0.77695180  0.36044823  1
  O  O6  1  0.66996498  0.87365725  0.57992016  1
  O  O7  1  0.38128634  0.64289574  0.11377783  1
  O  O8  1  0.28303196  0.49884734  0.86990049  1
  O  O9  1  0.21696804  0.49884734  0.36990049  1
  O  O10  1  0.86385757  0.18836780  0.82373602  1
  O  O11  1  0.91793904  0.48951377  0.88109925  1
  O  O12  1  0.58206096  0.48951377  0.38109925  1
  O  O13  1  0.83003502  0.87365725  0.07992016  1
  O  O14  1  0.63614243  0.18836780  0.32373602  1
  O  O15  1  0.33003502  0.12634275  0.42007984  1
  O  O16  1  0.16996498  0.12634275  0.92007984  1
  O  O17  1  0.78303196  0.50115266  0.63009951  1
  O  O18  1  0.51016996  0.10446391  0.68537850  1
  O  O19  1  0.11871366  0.64289574  0.61377783  1
  O  O20  1  0.39140192  0.22304820  0.13955177  1
  O  O21  1  0.01016996  0.89553609  0.81462150  1
  O  O22  1  0.61871366  0.35710426  0.88622217  1
  O  O23  1  0.88128634  0.35710426  0.38622217  1
  O  O24  1  0.13614243  0.81163220  0.17626398  1
  O  O25  1  0.98983004  0.10446391  0.18537850  1
  O  O26  1  0.48983004  0.89553609  0.31462150  1
  O  O27  1  0.71696804  0.50115266  0.13009951  1
loop_
_geom_bond_atom_site_label_1
_geom_bond_atom_site_label_2
_geom_bond_distance
_geom_bond_site_symmetry_2
Co0 O12 1.987437 1_555
Co0 O6 1.989945 1_555
Co0 O17 1.997402 1_555
Co0 O26 2.022506 1_555
Co0 O4 2.190308 1_555
Co0 O5 2.303440 1_555
Co1 O11 1.987437 1_555
Co1 O13 1.989945 1_556
Co1 O27 1.997402 1_556
Co1 O21 2.022506 1_655
Co1 O2 2.190308 1_656
Co1 O3 2.303440 1_555
Co2 O4 1.987437 1_555
Co2 O15 1.989945 1_555
Co2 O9 1.997402 1_555
Co2 O18 2.022506 1_555
Co2 O12 2.190308 1_555
Co2 O1 2.303440 1_555
Co3 O2 1.987437 1_555
Co3 O16 1.989945 1_554
Co3 O8 1.997402 1_554
Co3 O25 2.022506 1_455
Co3 O11 2.190308 1_454
Co3 O20 2.303440 1_555
Co4 O22 1.978641 1_554
Co4 O7 1.978641 1_555
Co4 O8 2.077894 1_554
Co4 O27 2.077894 1_555
Co4 O3 2.153262 1_554
Co4 O20 2.153262 1_555
Co5 O19 1.978641 1_555
Co5 O23 1.978641 1_455
Co5 O9 2.077894 1_555
Co5 O17 2.077894 1_455
Co5 O1 2.153262 1_555
Co5 O5 2.153262 1_455
O0 P1 1.593416 1_555
O0 P6 1.600894 1_555
O1 P0 1.531421 1_555
O1 Pb0 2.587588 1_555
O2 P7 1.515537 1_555
O3 P6 1.531421 1_555
O3 Pb1 2.587588 1_566
O4 P1 1.515537 1_555
O5 P5 1.531421 1_555
O5 Pb0 2.587588 1_665
O6 P6 1.515290 1_555
O6 Pb0 2.724287 1_665
O7 P7 1.518227 1_555
O7 Pb1 2.616866 1_565
O8 P1 1.527704 1_555
O9 P7 1.527704 1_555
O10 P2 1.593416 1_555
O10 P0 1.600894 1_655
O11 P2 1.515537 1_555
O12 P4 1.515537 1_555
O13 P5 1.515290 1_555
O13 Pb1 2.724287 1_565
O14 P4 1.593416 1_555
O14 P3 1.600894 1_555
O15 P3 1.515290 1_555
O15 Pb0 2.724287 1_555
O16 P0 1.515290 1_555
O16 Pb1 2.724287 1_556
O17 P2 1.527704 1_555
O18 P6 1.516102 1_545
O18 Pb1 2.777944 1_556
O19 P1 1.518227 1_555
O19 Pb0 2.616866 1_565
O20 P3 1.531421 1_555
O20 Pb1 2.587588 1_555
O21 P0 1.516102 1_565
O21 Pb0 2.777944 1_565
O22 P2 1.518227 1_555
O22 Pb1 2.616866 1_556
O23 P4 1.518227 1_555
O23 Pb0 2.616866 1_655
O24 P7 1.593416 1_555
O24 P5 1.600894 1_455
O25 P5 1.516102 1_545
O25 Pb0 2.777944 1_655
O26 P3 1.516102 1_565
O26 Pb1 2.777944 1_565
O27 P4 1.527704 1_555
