# generated using pymatgen
data_Na2SO4
_symmetry_space_group_name_H-M   'P 1'
_cell_length_a   5.19593775
_cell_length_b   6.93265105
_cell_length_c   9.43824800
_cell_angle_alpha   90.00000000
_cell_angle_beta   90.00000000
_cell_angle_gamma   90.00000000
_symmetry_Int_Tables_number   1
_chemical_formula_structural   Na2SO4
_chemical_formula_sum   'Na8 S4 O16'
_cell_volume   339.98101405
_cell_formula_units_Z   4
loop_
 _symmetry_equiv_pos_site_id
 _symmetry_equiv_pos_as_xyz
  1  'x, y, z'
loop_
 _atom_site_type_symbol
 _atom_site_label
 _atom_site_symmetry_multiplicity
 _atom_site_fract_x
 _atom_site_fract_y
 _atom_site_fract_z
 _atom_site_occupancy
  Na  Na0  1  -0.00000000  -0.00000000  0.50000000  1
  Na  Na1  1  0.50000000  -0.00000000  -0.00000000  1
  Na  Na2  1  -0.00000000  0.50000000  0.50000000  1
  Na  Na3  1  0.50000000  0.50000000  -0.00000000  1
  Na  Na4  1  0.01972099  0.75000000  0.85662467  1
  Na  Na5  1  0.51972099  0.25000000  0.64337533  1
  Na  Na6  1  0.98027901  0.25000000  0.14337533  1
  Na  Na7  1  0.48027901  0.75000000  0.35662467  1
  S  S0  1  0.98746978  0.75000000  0.17897659  1
  S  S1  1  0.48746978  0.25000000  0.32102341  1
  S  S2  1  0.01253022  0.25000000  0.82102341  1
  S  S3  1  0.51253022  0.75000000  0.67897659  1
  O  O0  1  0.96726453  0.75000000  0.33593770  1
  O  O1  1  0.46726453  0.25000000  0.16406230  1
  O  O2  1  0.03273547  0.25000000  0.66406230  1
  O  O3  1  0.53273547  0.75000000  0.83593770  1
  O  O4  1  0.26135715  0.75000000  0.13498520  1
  O  O5  1  0.76135715  0.25000000  0.36501480  1
  O  O6  1  0.73864285  0.25000000  0.86501480  1
  O  O7  1  0.23864285  0.75000000  0.63498520  1
  O  O8  1  0.85959237  0.92319249  0.12292509  1
  O  O9  1  0.35959237  0.07680751  0.37707491  1
  O  O10  1  0.14040763  0.42319249  0.87707491  1
  O  O11  1  0.64040763  0.57680751  0.62292509  1
  O  O12  1  0.14040763  0.07680751  0.87707491  1
  O  O13  1  0.64040763  0.92319249  0.62292509  1
  O  O14  1  0.85959237  0.57680751  0.12292509  1
  O  O15  1  0.35959237  0.42319249  0.37707491  1
loop_
_geom_bond_atom_site_label_1
_geom_bond_atom_site_label_2
_geom_bond_distance
_geom_bond_site_symmetry_2
Na0 O13 2.262871 1_445
Na0 O9 2.262871 1_555
Na0 O0 2.330346 1_445
Na0 O2 2.330346 1_555
Na0 O7 2.482846 1_545
Na0 O5 2.482846 1_455
Na1 O12 2.262871 1_554
Na1 O8 2.262871 1_545
Na1 O3 2.330346 1_544
Na1 O1 2.330346 1_555
Na1 O4 2.482846 1_545
Na1 O6 2.482846 1_554
Na2 O11 2.262871 1_455
Na2 O15 2.262871 1_555
Na2 O2 2.330346 1_555
Na2 O0 2.330346 1_455
Na2 O7 2.482846 1_555
Na2 O5 2.482846 1_455
Na3 O14 2.262871 1_555
Na3 O10 2.262871 1_554
Na3 O1 2.330346 1_555
Na3 O3 2.330346 1_554
Na3 O6 2.482846 1_554
Na3 O4 2.482846 1_555
Na4 O10 2.358733 1_555
Na4 O12 2.358733 1_565
Na4 O7 2.381158 1_555
Na4 O3 2.537868 1_455
Na4 O3 2.672733 1_555
Na4 O14 2.907081 1_456
Na4 O8 2.907081 1_456
Na4 O4 2.911823 1_556
Na5 O13 2.358733 1_545
Na5 O11 2.358733 1_555
Na5 O6 2.381158 1_555
Na5 O2 2.537868 1_555
Na5 O2 2.672733 1_655
Na5 O15 2.907081 1_555
Na5 O9 2.907081 1_555
Na5 O5 2.911823 1_555
Na6 O8 2.358733 1_545
Na6 O14 2.358733 1_555
Na6 O5 2.381158 1_555
Na6 O1 2.537868 1_655
Na6 O1 2.672733 1_555
Na6 O12 2.907081 1_654
Na6 O10 2.907081 1_654
Na6 O6 2.911823 1_554
Na7 O15 2.358733 1_555
Na7 O9 2.358733 1_565
Na7 O4 2.381158 1_555
Na7 O0 2.537868 1_555
Na7 O0 2.672733 1_455
Na7 O11 2.907081 1_555
Na7 O13 2.907081 1_555
Na7 O7 2.911823 1_555
O0 S0 1.485153 1_555
O1 S1 1.485153 1_555
O2 S2 1.485153 1_555
O3 S3 1.485153 1_555
O4 S0 1.482434 1_455
O5 S1 1.482434 1_555
O6 S2 1.482434 1_655
O7 S3 1.482434 1_555
O8 S0 1.470712 1_555
O9 S1 1.470712 1_555
O10 S2 1.470712 1_555
O11 S3 1.470712 1_555
O12 S2 1.470712 1_555
O13 S3 1.470712 1_555
O14 S0 1.470712 1_555
O15 S1 1.470712 1_555
