# generated using pymatgen
data_K3Nb6VO19
_symmetry_space_group_name_H-M   'P 1'
_cell_length_a   9.20540554
_cell_length_b   9.20540554
_cell_length_c   24.26608408
_cell_angle_alpha   90.00000000
_cell_angle_beta   90.00000000
_cell_angle_gamma   119.99999844
_symmetry_Int_Tables_number   1
_chemical_formula_structural   K3Nb6VO19
_chemical_formula_sum   'K12 Nb24 V4 O76'
_cell_volume   1780.80427147
_cell_formula_units_Z   4
loop_
 _symmetry_equiv_pos_site_id
 _symmetry_equiv_pos_as_xyz
  1  'x, y, z'
loop_
 _atom_site_type_symbol
 _atom_site_label
 _atom_site_symmetry_multiplicity
 _atom_site_fract_x
 _atom_site_fract_y
 _atom_site_fract_z
 _atom_site_occupancy
  K  K0  1  0.59485071  0.59485071  0.74058862  1
  K  K1  1  0.40514929  0.00000000  0.74058862  1
  K  K2  1  0.41714576  0.41714576  0.50000000  1
  K  K3  1  0.00000000  0.40514929  0.74058862  1
  K  K4  1  0.00000000  0.40514929  0.25941138  1
  K  K5  1  0.40326329  0.40326329  -0.00000000  1
  K  K6  1  1.00000000  0.59673671  -0.00000000  1
  K  K7  1  0.59673671  1.00000000  -0.00000000  1
  K  K8  1  0.58285424  1.00000000  0.50000000  1
  K  K9  1  1.00000000  0.58285424  0.50000000  1
  K  K10  1  0.40514929  0.00000000  0.25941138  1
  K  K11  1  0.59485071  0.59485071  0.25941138  1
  Nb  Nb0  1  1.00000000  0.75698426  0.82511675  1
  Nb  Nb1  1  0.00000000  0.23297266  0.42176343  1
  Nb  Nb2  1  0.00000000  0.23297266  0.57823657  1
  Nb  Nb3  1  1.00000000  0.75698426  0.17488325  1
  Nb  Nb4  1  0.25266023  0.00000000  0.07783624  1
  Nb  Nb5  1  0.00000000  -0.00000000  0.30193192  1
  Nb  Nb6  1  0.33333300  0.66666700  0.13117819  1
  Nb  Nb7  1  0.00000000  -0.00000000  0.69806808  1
  Nb  Nb8  1  0.66666700  0.33333300  0.86882181  1
  Nb  Nb9  1  0.74733977  0.74733977  0.92216376  1
  Nb  Nb10  1  0.33333300  0.66666700  0.86882181  1
  Nb  Nb11  1  0.76702734  0.76702734  0.57823657  1
  Nb  Nb12  1  0.66666700  0.33333300  0.13117819  1
  Nb  Nb13  1  0.00000000  0.25266023  0.07783624  1
  Nb  Nb14  1  0.23297266  0.00000000  0.57823657  1
  Nb  Nb15  1  0.23297266  0.00000000  0.42176343  1
  Nb  Nb16  1  0.00000000  0.25266023  0.92216376  1
  Nb  Nb17  1  0.75698426  1.00000000  0.82511675  1
  Nb  Nb18  1  0.24301574  0.24301574  0.82511675  1
  Nb  Nb19  1  0.75698426  1.00000000  0.17488325  1
  Nb  Nb20  1  0.76702734  0.76702734  0.42176343  1
  Nb  Nb21  1  0.24301574  0.24301574  0.17488325  1
  Nb  Nb22  1  0.74733977  0.74733977  0.07783624  1
  Nb  Nb23  1  0.25266023  0.00000000  0.92216376  1
  V  V0  1  0.66666700  0.33333300  0.61853145  1
  V  V1  1  0.66666700  0.33333300  0.38146855  1
  V  V2  1  0.33333300  0.66666700  0.38146855  1
  V  V3  1  0.33333300  0.66666700  0.61853145  1
  O  O0  1  1.00000000  0.82260001  0.24699745  1
  O  O1  1  0.21153303  0.00000000  0.83822223  1
  O  O2  1  0.17623821  0.17623821  0.56648902  1
  O  O3  1  0.31696363  0.48272213  0.82361972  1
  O  O4  1  0.68806481  0.51717872  0.92113010  1
  O  O5  1  0.17475260  0.47760839  0.59220870  1
  O  O6  1  0.00000000  0.21153303  0.83822223  1
  O  O7  1  0.48282128  0.17088609  0.07886990  1
  O  O8  1  0.48282128  0.17088609  0.92113010  1
  O  O9  1  0.48272213  0.31696363  0.82361972  1
  O  O10  1  0.17475260  0.47760839  0.40779130  1
  O  O11  1  1.00000000  0.20559139  -0.00000000  1
  O  O12  1  0.52239161  0.69714421  0.40779130  1
  O  O13  1  0.28835001  0.00000000  0.50000000  1
  O  O14  1  0.80348505  1.00000000  0.09065439  1
  O  O15  1  0.21153303  0.00000000  0.16177777  1
  O  O16  1  0.71164999  0.71164999  0.50000000  1
  O  O17  1  0.51727787  0.83424150  0.17638028  1
  O  O18  1  0.82260001  1.00000000  0.24699745  1
  O  O19  1  0.33333300  0.66666700  0.31338938  1
  O  O20  1  0.52239161  0.69714421  0.59220870  1
  O  O21  1  0.19651495  0.19651495  0.09065439  1
  O  O22  1  1.00000000  0.80348505  0.90934561  1
  O  O23  1  0.83424150  0.51727787  0.82361972  1
  O  O24  1  0.17974184  0.00000000  0.34134128  1
  O  O25  1  0.78846697  0.78846697  0.16177777  1
  O  O26  1  0.30285579  0.82524740  0.40779130  1
  O  O27  1  0.82524740  0.30285579  0.59220870  1
  O  O28  1  0.17088609  0.48282128  0.07886990  1
  O  O29  1  1.00000000  0.80348505  0.09065439  1
  O  O30  1  0.00000000  0.17974184  0.65865872  1
  O  O31  1  0.68303637  0.16575850  0.82361972  1
  O  O32  1  0.66666700  0.33333300  0.68661062  1
  O  O33  1  0.17623821  0.17623821  0.43351098  1
  O  O34  1  0.80348505  1.00000000  0.90934561  1
  O  O35  1  0.30285579  0.82524740  0.59220870  1
  O  O36  1  0.33333300  0.66666700  0.68661062  1
  O  O37  1  1.00000000  0.82260001  0.75300255  1
  O  O38  1  0.51717872  0.68806481  0.07886990  1
  O  O39  1  0.17739999  0.17739999  0.24699745  1
  O  O40  1  0.16575850  0.68303637  0.17638028  1
  O  O41  1  0.68806481  0.51717872  0.07886990  1
  O  O42  1  0.82911391  0.31193519  0.92113010  1
  O  O43  1  0.16575850  0.68303637  0.82361972  1
  O  O44  1  1.00000000  0.82376179  0.56648902  1
  O  O45  1  0.79440861  0.79440861  -0.00000000  1
  O  O46  1  0.82524740  0.30285579  0.40779130  1
  O  O47  1  0.83424150  0.51727787  0.17638028  1
  O  O48  1  0.51727787  0.83424150  0.82361972  1
  O  O49  1  0.82376179  1.00000000  0.43351098  1
  O  O50  1  0.00000000  0.17974184  0.34134128  1
  O  O51  1  0.00000000  0.21153303  0.16177777  1
  O  O52  1  0.31193519  0.82911391  0.92113010  1
  O  O53  1  0.47760839  0.17475260  0.40779130  1
  O  O54  1  0.47760839  0.17475260  0.59220870  1
  O  O55  1  0.82911391  0.31193519  0.07886990  1
  O  O56  1  0.68303637  0.16575850  0.17638028  1
  O  O57  1  0.82260001  1.00000000  0.75300255  1
  O  O58  1  0.20559139  1.00000000  -0.00000000  1
  O  O59  1  0.66666700  0.33333300  0.31338938  1
  O  O60  1  0.48272213  0.31696363  0.17638028  1
  O  O61  1  0.51717872  0.68806481  0.92113010  1
  O  O62  1  0.17974184  0.00000000  0.65865872  1
  O  O63  1  0.31696363  0.48272213  0.17638028  1
  O  O64  1  0.82376179  1.00000000  0.56648902  1
  O  O65  1  0.17088609  0.48282128  0.92113010  1
  O  O66  1  0.00000000  0.28835001  0.50000000  1
  O  O67  1  1.00000000  0.82376179  0.43351098  1
  O  O68  1  0.31193519  0.82911391  0.07886990  1
  O  O69  1  0.69714421  0.52239161  0.40779130  1
  O  O70  1  0.17739999  0.17739999  0.75300255  1
  O  O71  1  0.82025816  0.82025816  0.34134128  1
  O  O72  1  0.78846697  0.78846697  0.83822223  1
  O  O73  1  0.82025816  0.82025816  0.65865872  1
  O  O74  1  0.69714421  0.52239161  0.59220870  1
  O  O75  1  0.19651495  0.19651495  0.90934561  1
loop_
_geom_bond_atom_site_label_1
_geom_bond_atom_site_label_2
_geom_bond_distance
_geom_bond_site_symmetry_2
K0 O73 2.873691 1_555
K0 O72 2.964741 1_555
K0 O9 3.004709 1_555
K0 O3 3.004709 1_555
K0 O36 3.088639 1_555
K0 O32 3.088639 1_555
K0 O57 3.252181 1_555
K0 O37 3.252181 1_555
K0 O23 3.316531 1_555
K0 O48 3.316531 1_555
K1 O62 2.873691 1_555
K1 O1 2.964741 1_555
K1 O48 3.004709 1_545
K1 O31 3.004709 1_555
K1 O36 3.088631 1_545
K1 O32 3.088634 1_555
K1 O70 3.252181 1_555
K1 O37 3.252181 1_445
K1 O9 3.316531 1_555
K1 O43 3.316531 1_545
K2 O16 2.711031 1_555
K2 O33 2.742468 1_555
K2 O2 2.742468 1_555
K3 O30 2.873691 1_555
K3 O6 2.964741 1_555
K3 O23 3.004709 1_455
K3 O43 3.004709 1_555
K3 O32 3.088631 1_455
K3 O36 3.088634 1_555
K3 O70 3.252181 1_555
K3 O57 3.252181 1_445
K3 O3 3.316531 1_555
K3 O31 3.316531 1_455
K4 O50 2.873691 1_555
K4 O51 2.964741 1_555
K4 O47 3.004709 1_455
K4 O40 3.004709 1_555
K4 O59 3.088631 1_455
K4 O19 3.088634 1_555
K4 O39 3.252181 1_555
K4 O18 3.252181 1_445
K4 O63 3.316531 1_555
K4 O56 3.316531 1_455
K5 O75 2.908852 1_554
K5 O21 2.908852 1_555
K5 O38 2.981052 1_555
K5 O41 2.981052 1_555
K5 O61 2.981052 1_554
K5 O4 2.981052 1_554
K5 O11 3.215068 1_455
K5 O58 3.215068 1_545
K5 O28 3.215853 1_555
K5 O7 3.215853 1_555
K5 O65 3.215853 1_554
K5 O8 3.215853 1_554
K6 O22 2.908852 1_554
K6 O29 2.908852 1_555
K6 O28 2.981052 1_655
K6 O65 2.981052 1_654
K6 O55 2.981052 1_555
K6 O42 2.981052 1_554
K6 O45 3.215068 1_555
K6 O58 3.215068 1_655
K6 O41 3.215853 1_555
K6 O4 3.215853 1_554
K6 O68 3.215853 1_655
K6 O52 3.215853 1_654
K7 O34 2.908852 1_554
K7 O14 2.908852 1_555
K7 O7 2.981052 1_565
K7 O8 2.981052 1_564
K7 O68 2.981052 1_555
K7 O52 2.981052 1_554
K7 O45 3.215068 1_555
K7 O11 3.215068 1_565
K7 O38 3.215853 1_555
K7 O61 3.215853 1_554
K7 O55 3.215853 1_565
K7 O42 3.215853 1_564
K8 O13 2.711031 1_565
K8 O49 2.742468 1_555
K8 O64 2.742468 1_555
K9 O66 2.711031 1_655
K9 O67 2.742468 1_555
K9 O44 2.742468 1_555
K10 O24 2.873691 1_555
K10 O15 2.964741 1_555
K10 O17 3.004709 1_545
K10 O56 3.004709 1_555
K10 O19 3.088631 1_545
K10 O59 3.088634 1_555
K10 O39 3.252181 1_555
K10 O0 3.252181 1_445
K10 O60 3.316531 1_555
K10 O40 3.316531 1_545
K11 O71 2.873691 1_555
K11 O25 2.964741 1_555
K11 O63 3.004709 1_555
K11 O60 3.004709 1_555
K11 O59 3.088639 1_555
K11 O19 3.088639 1_555
K11 O0 3.252181 1_555
K11 O18 3.252181 1_555
K11 O47 3.316531 1_555
K11 O17 3.316531 1_555
Nb0 O37 1.851241 1_555
Nb0 O43 1.957469 1_655
Nb0 O23 1.957469 1_555
Nb0 O22 2.088248 1_555
Nb0 O72 2.131017 1_555
Nb0 O1 2.131017 1_665
Nb1 O33 1.957885 1_555
Nb1 O49 1.957885 1_445
Nb1 O66 1.965744 1_555
Nb1 O50 2.012109 1_555
Nb1 O46 2.037515 1_455
Nb1 O10 2.037515 1_555
Nb2 O2 1.957885 1_555
Nb2 O64 1.957885 1_445
Nb2 O66 1.965744 1_555
Nb2 O30 2.012109 1_555
Nb2 O27 2.037515 1_455
Nb2 O5 2.037515 1_555
Nb3 O0 1.851241 1_555
Nb3 O40 1.957469 1_655
Nb3 O47 1.957469 1_555
Nb3 O29 2.088248 1_555
Nb3 O25 2.131017 1_555
Nb3 O15 2.131017 1_665
Nb4 O68 1.905592 1_545
Nb4 O7 1.905592 1_555
Nb4 O58 1.937842 1_545
Nb4 O15 2.071817 1_555
Nb4 O21 2.138064 1_555
Nb4 O29 2.138064 1_445
Nb5 O50 1.911078 1_555
Nb5 O24 1.911078 1_555
Nb5 O71 1.911078 1_445
Nb5 O0 2.108038 1_445
Nb5 O18 2.108038 1_445
Nb5 O39 2.108038 1_555
Nb6 O40 1.959052 1_555
Nb6 O17 1.959056 1_555
Nb6 O63 1.959059 1_555
Nb6 O68 2.044679 1_555
Nb6 O28 2.044683 1_555
Nb6 O38 2.044686 1_555
Nb7 O30 1.911078 1_555
Nb7 O62 1.911078 1_555
Nb7 O73 1.911078 1_445
Nb7 O37 2.108038 1_445
Nb7 O57 2.108038 1_445
Nb7 O70 2.108038 1_555
Nb8 O31 1.959052 1_555
Nb8 O23 1.959056 1_555
Nb8 O9 1.959059 1_555
Nb8 O42 2.044679 1_555
Nb8 O8 2.044683 1_555
Nb8 O4 2.044686 1_555
Nb9 O4 1.905592 1_555
Nb9 O61 1.905592 1_555
Nb9 O45 1.937842 1_556
Nb9 O72 2.071817 1_555
Nb9 O34 2.138064 1_555
Nb9 O22 2.138064 1_555
Nb10 O43 1.959052 1_555
Nb10 O48 1.959056 1_555
Nb10 O3 1.959059 1_555
Nb10 O52 2.044679 1_555
Nb10 O65 2.044683 1_555
Nb10 O61 2.044686 1_555
Nb11 O64 1.957885 1_555
Nb11 O44 1.957885 1_555
Nb11 O16 1.965744 1_555
Nb11 O73 2.012109 1_555
Nb11 O74 2.037515 1_555
Nb11 O20 2.037515 1_555
Nb12 O56 1.959052 1_555
Nb12 O47 1.959056 1_555
Nb12 O60 1.959059 1_555
Nb12 O55 2.044679 1_555
Nb12 O7 2.044683 1_555
Nb12 O41 2.044686 1_555
Nb13 O55 1.905592 1_455
Nb13 O28 1.905592 1_555
Nb13 O11 1.937842 1_455
Nb13 O51 2.071817 1_555
Nb13 O21 2.138064 1_555
Nb13 O14 2.138064 1_445
Nb14 O2 1.957885 1_555
Nb14 O44 1.957885 1_445
Nb14 O13 1.965744 1_555
Nb14 O62 2.012109 1_555
Nb14 O35 2.037515 1_545
Nb14 O54 2.037515 1_555
Nb15 O33 1.957885 1_555
Nb15 O67 1.957885 1_445
Nb15 O13 1.965744 1_555
Nb15 O24 2.012109 1_555
Nb15 O26 2.037515 1_545
Nb15 O53 2.037515 1_555
Nb16 O42 1.905592 1_455
Nb16 O65 1.905592 1_555
Nb16 O11 1.937842 1_456
Nb16 O6 2.071817 1_555
Nb16 O75 2.138064 1_555
Nb16 O34 2.138064 1_445
Nb17 O57 1.851241 1_555
Nb17 O31 1.957469 1_565
Nb17 O48 1.957469 1_555
Nb17 O34 2.088248 1_555
Nb17 O72 2.131017 1_555
Nb17 O6 2.131017 1_665
Nb18 O70 1.851241 1_555
Nb18 O3 1.957469 1_555
Nb18 O9 1.957469 1_555
Nb18 O75 2.088248 1_555
Nb18 O6 2.131017 1_555
Nb18 O1 2.131017 1_555
Nb19 O18 1.851241 1_555
Nb19 O56 1.957469 1_565
Nb19 O17 1.957469 1_555
Nb19 O14 2.088248 1_555
Nb19 O25 2.131017 1_555
Nb19 O51 2.131017 1_665
Nb20 O49 1.957885 1_555
Nb20 O67 1.957885 1_555
Nb20 O16 1.965744 1_555
Nb20 O71 2.012109 1_555
Nb20 O69 2.037515 1_555
Nb20 O12 2.037515 1_555
Nb21 O39 1.851241 1_555
Nb21 O63 1.957469 1_555
Nb21 O60 1.957469 1_555
Nb21 O21 2.088248 1_555
Nb21 O51 2.131017 1_555
Nb21 O15 2.131017 1_555
Nb22 O41 1.905592 1_555
Nb22 O38 1.905592 1_555
Nb22 O45 1.937842 1_555
Nb22 O25 2.071817 1_555
Nb22 O29 2.138064 1_555
Nb22 O14 2.138064 1_555
Nb23 O52 1.905592 1_545
Nb23 O8 1.905592 1_555
Nb23 O58 1.937842 1_546
Nb23 O1 2.071817 1_555
Nb23 O75 2.138064 1_555
Nb23 O22 2.138064 1_445
O5 V3 1.739911 1_555
O10 V2 1.739911 1_555
O12 V2 1.739915 1_555
O19 V2 1.652015 1_555
O20 V3 1.739915 1_555
O26 V2 1.739906 1_555
O27 V0 1.739906 1_555
O32 V0 1.652015 1_555
O35 V3 1.739906 1_555
O36 V3 1.652015 1_555
O46 V1 1.739906 1_555
O53 V1 1.739911 1_555
O54 V0 1.739911 1_555
O59 V1 1.652015 1_555
O69 V1 1.739915 1_555
O74 V0 1.739915 1_555
