# generated using pymatgen
data_CsLiCrO4
_symmetry_space_group_name_H-M   'P 1'
_cell_length_a   9.13901800
_cell_length_b   5.72978400
_cell_length_c   11.39469862
_cell_angle_alpha   60.44018788
_cell_angle_beta   90.00000000
_cell_angle_gamma   90.00000000
_symmetry_Int_Tables_number   1
_chemical_formula_structural   CsLiCrO4
_chemical_formula_sum   'Cs4 Li4 Cr4 O16'
_cell_volume   519.01580854
_cell_formula_units_Z   4
loop_
 _symmetry_equiv_pos_site_id
 _symmetry_equiv_pos_as_xyz
  1  'x, y, z'
loop_
 _atom_site_type_symbol
 _atom_site_label
 _atom_site_symmetry_multiplicity
 _atom_site_fract_x
 _atom_site_fract_y
 _atom_site_fract_z
 _atom_site_occupancy
  Cs  Cs0  1  0.99775500  0.45273600  0.78027800  1
  Cs  Cs1  1  0.50224500  0.45273600  0.28027900  1
  Cs  Cs2  1  0.00224500  0.54726400  0.21972200  1
  Cs  Cs3  1  0.49775500  0.54726400  0.71972200  1
  Li  Li0  1  0.31292300  0.84887300  0.91287600  1
  Li  Li1  1  0.68707700  0.15112700  0.08712400  1
  Li  Li2  1  0.81292300  0.15112700  0.58712400  1
  Li  Li3  1  0.18707700  0.84887300  0.41287600  1
  Cr  Cr0  1  0.29051100  0.18744300  0.07414300  1
  Cr  Cr1  1  0.70948900  0.81255700  0.92585700  1
  Cr  Cr2  1  0.20948900  0.18744300  0.57414300  1
  Cr  Cr3  1  0.79051100  0.81255700  0.42585700  1
  O  O0  1  0.76963000  0.87929500  0.77426300  1
  O  O1  1  0.76541200  0.50609300  0.04113900  1
  O  O2  1  0.47172600  0.17597600  0.07541000  1
  O  O3  1  0.73458800  0.50609300  0.54113900  1
  O  O4  1  0.26963000  0.12070500  0.72573700  1
  O  O5  1  0.97172600  0.82402400  0.42459000  1
  O  O6  1  0.23037000  0.12070500  0.22573700  1
  O  O7  1  0.02827400  0.17597600  0.57541000  1
  O  O8  1  0.22370300  0.96398400  0.03433300  1
  O  O9  1  0.23458800  0.49390700  0.95886100  1
  O  O10  1  0.73037000  0.87929500  0.27426300  1
  O  O11  1  0.26541200  0.49390700  0.45886100  1
  O  O12  1  0.72370300  0.03601600  0.46566700  1
  O  O13  1  0.52827400  0.82402400  0.92459000  1
  O  O14  1  0.77629700  0.03601600  0.96566700  1
  O  O15  1  0.27629700  0.96398400  0.53433300  1
loop_
_geom_bond_atom_site_label_1
_geom_bond_atom_site_label_2
_geom_bond_distance
_geom_bond_site_symmetry_2
Cs0 O14 3.046831 1_555
Cs0 O9 3.058564 1_655
Cs0 O0 3.187405 1_555
Cs0 O4 3.368349 1_655
Cs0 O7 3.419711 1_655
Cs0 O3 3.532863 1_555
Cs0 O8 3.533832 1_646
Cs0 O5 3.535761 1_555
Cs0 O7 3.627019 1_665
Cs1 O12 3.046827 1_555
Cs1 O11 3.058556 1_555
Cs1 O10 3.187400 1_555
Cs1 O6 3.368354 1_555
Cs1 O2 3.419721 1_555
Cs1 O1 3.532872 1_555
Cs1 O15 3.533828 1_545
Cs1 O13 3.535771 1_554
Cs1 O2 3.627020 1_565
Cs2 O8 3.046831 1_555
Cs2 O1 3.058564 1_455
Cs2 O6 3.187405 1_555
Cs2 O10 3.368349 1_455
Cs2 O5 3.419711 1_455
Cs2 O11 3.532863 1_555
Cs2 O14 3.533832 1_464
Cs2 O7 3.535761 1_555
Cs2 O5 3.627019 1_445
Cs3 O15 3.046831 1_555
Cs3 O3 3.058564 1_555
Cs3 O4 3.187405 1_555
Cs3 O0 3.368349 1_555
Cs3 O13 3.419711 1_555
Cs3 O9 3.532863 1_555
Cs3 O12 3.533832 1_565
Cs3 O2 3.535761 1_556
Cs3 O13 3.627019 1_545
Li0 O4 1.962798 1_565
Li0 O9 1.967799 1_555
Li0 O13 1.973003 1_555
Li0 O8 1.978855 1_556
Li1 O10 1.962798 1_545
Li1 O1 1.967799 1_555
Li1 O2 1.973003 1_555
Li1 O14 1.978855 1_554
Li2 O0 1.962798 1_545
Li2 O3 1.967799 1_555
Li2 O7 1.973003 1_655
Li2 O12 1.978855 1_555
Li3 O6 1.962798 1_565
Li3 O11 1.967799 1_555
Li3 O5 1.973003 1_455
Li3 O15 1.978855 1_555
Cr0 O2 1.657210 1_555
Cr0 O6 1.667451 1_555
Cr0 O8 1.670619 1_545
Cr0 O9 1.671618 1_554
Cr1 O13 1.657210 1_555
Cr1 O0 1.667451 1_555
Cr1 O14 1.670619 1_565
Cr1 O1 1.671618 1_556
Cr2 O7 1.657210 1_555
Cr2 O4 1.667451 1_555
Cr2 O15 1.670619 1_545
Cr2 O11 1.671618 1_555
Cr3 O5 1.657210 1_555
Cr3 O10 1.667451 1_555
Cr3 O12 1.670619 1_565
Cr3 O3 1.671618 1_555
