# generated using pymatgen
data_Ba3V4O13
_symmetry_space_group_name_H-M   'P 1'
_cell_length_a   9.19262203
_cell_length_b   9.19262203
_cell_length_c   10.26163635
_cell_angle_alpha   70.60715063
_cell_angle_beta   70.60715063
_cell_angle_gamma   58.06573848
_symmetry_Int_Tables_number   1
_chemical_formula_structural   Ba3V4O13
_chemical_formula_sum   'Ba6 V8 O26'
_cell_volume   680.78153403
_cell_formula_units_Z   2
loop_
 _symmetry_equiv_pos_site_id
 _symmetry_equiv_pos_as_xyz
  1  'x, y, z'
loop_
 _atom_site_type_symbol
 _atom_site_label
 _atom_site_symmetry_multiplicity
 _atom_site_fract_x
 _atom_site_fract_y
 _atom_site_fract_z
 _atom_site_occupancy
  Ba  Ba0  1  0.10470644  0.89529356  0.75000000  1
  Ba  Ba1  1  0.89529356  0.10470644  0.25000000  1
  Ba  Ba2  1  0.96582799  0.62723694  0.19151943  1
  Ba  Ba3  1  0.37276306  0.03417201  0.30848057  1
  Ba  Ba4  1  0.03417201  0.37276306  0.80848057  1
  Ba  Ba5  1  0.62723694  0.96582799  0.69151943  1
  V  V0  1  0.63167892  0.59168451  0.13384097  1
  V  V1  1  0.40831549  0.36832108  0.36615903  1
  V  V2  1  0.36832108  0.40831549  0.86615903  1
  V  V3  1  0.59168451  0.63167892  0.63384097  1
  V  V4  1  0.28283397  0.89907290  0.00013299  1
  V  V5  1  0.10092710  0.71716603  0.49986701  1
  V  V6  1  0.71716603  0.10092710  0.99986701  1
  V  V7  1  0.89907290  0.28283397  0.50013299  1
  O  O0  1  0.57144040  0.42855960  0.25000000  1
  O  O1  1  0.42855960  0.57144040  0.75000000  1
  O  O2  1  0.28085065  0.00891427  0.83084570  1
  O  O3  1  0.99108573  0.71914935  0.66915430  1
  O  O4  1  0.71914935  0.99108573  0.16915430  1
  O  O5  1  0.00891427  0.28085065  0.33084570  1
  O  O6  1  0.14040025  0.81959729  0.04455618  1
  O  O7  1  0.18040271  0.85959975  0.45544382  1
  O  O8  1  0.85959975  0.18040271  0.95544382  1
  O  O9  1  0.81959729  0.14040025  0.54455618  1
  O  O10  1  0.22301582  0.03565191  0.10716912  1
  O  O11  1  0.96434809  0.77698418  0.39283088  1
  O  O12  1  0.77698418  0.96434809  0.89283088  1
  O  O13  1  0.03565191  0.22301582  0.60716912  1
  O  O14  1  0.72335204  0.50534693  0.50216920  1
  O  O15  1  0.49465307  0.27664796  0.99783080  1
  O  O16  1  0.27664796  0.49465307  0.49783080  1
  O  O17  1  0.50534693  0.72335204  0.00216920  1
  O  O18  1  0.48220095  0.84224259  0.56381482  1
  O  O19  1  0.15775741  0.51779905  0.93618518  1
  O  O20  1  0.61538160  0.71872422  0.22656398  1
  O  O21  1  0.84224259  0.48220095  0.06381482  1
  O  O22  1  0.71872422  0.61538160  0.72656398  1
  O  O23  1  0.38461840  0.28127578  0.77343602  1
  O  O24  1  0.28127578  0.38461840  0.27343602  1
  O  O25  1  0.51779905  0.15775741  0.43618518  1
loop_
_geom_bond_atom_site_label_1
_geom_bond_atom_site_label_2
_geom_bond_distance
_geom_bond_site_symmetry_2
Ba0 O13 2.699918 1_565
Ba0 O12 2.699918 1_455
Ba0 O2 2.767261 1_565
Ba0 O3 2.767261 1_455
Ba0 O1 2.889601 1_555
Ba0 O7 2.957782 1_555
Ba0 O6 2.957782 1_556
Ba0 O19 3.218029 1_555
Ba0 O18 3.218029 1_555
Ba0 O8 3.264657 1_465
Ba0 O9 3.264657 1_465
Ba1 O11 2.699918 1_545
Ba1 O10 2.699918 1_655
Ba1 O5 2.767261 1_655
Ba1 O4 2.767261 1_545
Ba1 O0 2.889601 1_555
Ba1 O9 2.957782 1_555
Ba1 O8 2.957782 1_554
Ba1 O25 3.218029 1_555
Ba1 O21 3.218029 1_555
Ba1 O6 3.264657 1_645
Ba1 O7 3.264657 1_645
Ba2 O6 2.756877 1_655
Ba2 O24 2.760716 1_655
Ba2 O20 2.789290 1_555
Ba2 O19 2.791584 1_654
Ba2 O11 2.830651 1_555
Ba2 O4 2.862542 1_555
Ba2 O5 2.891139 1_655
Ba2 O21 2.921794 1_555
Ba3 O7 2.756877 1_545
Ba3 O20 2.760716 1_545
Ba3 O24 2.789290 1_555
Ba3 O18 2.791584 1_545
Ba3 O10 2.830651 1_555
Ba3 O5 2.862542 1_555
Ba3 O4 2.891139 1_545
Ba3 O25 2.921794 1_555
Ba4 O8 2.756877 1_455
Ba4 O22 2.760716 1_455
Ba4 O23 2.789290 1_555
Ba4 O21 2.791584 1_456
Ba4 O13 2.830651 1_555
Ba4 O2 2.862542 1_555
Ba4 O3 2.891139 1_455
Ba4 O19 2.921794 1_555
Ba5 O9 2.756877 1_565
Ba5 O23 2.760716 1_565
Ba5 O22 2.789290 1_555
Ba5 O25 2.791584 1_565
Ba5 O12 2.830651 1_555
Ba5 O3 2.862542 1_555
Ba5 O2 2.891139 1_565
Ba5 O18 2.921794 1_555
O0 V1 1.796996 1_555
O0 V0 1.796996 1_555
O1 V2 1.796996 1_555
O1 V3 1.796996 1_555
O2 V4 1.695386 1_546
O3 V5 1.695386 1_655
O4 V6 1.695386 1_564
O5 V7 1.695386 1_455
O6 V4 1.688301 1_555
O7 V5 1.688301 1_555
O8 V6 1.688301 1_555
O9 V7 1.688301 1_555
O10 V4 1.693944 1_545
O11 V5 1.693944 1_655
O12 V6 1.693944 1_565
O13 V7 1.693944 1_455
O14 V3 1.763039 1_555
O14 V7 1.817767 1_555
O15 V2 1.763039 1_555
O15 V6 1.817767 1_555
O16 V1 1.763039 1_555
O16 V5 1.817767 1_555
O17 V0 1.763039 1_555
O17 V4 1.817767 1_555
O18 V3 1.664832 1_555
O19 V2 1.664832 1_555
O20 V0 1.658242 1_555
O21 V0 1.664832 1_555
O22 V3 1.658242 1_555
O23 V2 1.658242 1_555
O24 V1 1.658242 1_555
O25 V1 1.664832 1_555
