# generated using pymatgen
data_Mn2Fe3(SiO4)3
_symmetry_space_group_name_H-M   'P 1'
_cell_length_a   10.12908652
_cell_length_b   10.12908652
_cell_length_c   10.12908652
_cell_angle_alpha   109.47136614
_cell_angle_beta   109.47136614
_cell_angle_gamma   109.47136614
_symmetry_Int_Tables_number   1
_chemical_formula_structural   Mn2Fe3(SiO4)3
_chemical_formula_sum   'Mn8 Fe12 Si12 O48'
_cell_volume   799.99378194
_cell_formula_units_Z   4
loop_
 _symmetry_equiv_pos_site_id
 _symmetry_equiv_pos_as_xyz
  1  'x, y, z'
loop_
 _atom_site_type_symbol
 _atom_site_label
 _atom_site_symmetry_multiplicity
 _atom_site_fract_x
 _atom_site_fract_y
 _atom_site_fract_z
 _atom_site_occupancy
  Mn  Mn0  1  0.00000000  0.50000000  -0.00000000  1
  Mn  Mn1  1  0.50000000  0.50000000  0.50000000  1
  Mn  Mn2  1  0.00000000  -0.00000000  -0.00000000  1
  Mn  Mn3  1  0.00000000  -0.00000000  0.50000000  1
  Mn  Mn4  1  0.00000000  0.50000000  0.50000000  1
  Mn  Mn5  1  0.50000000  0.50000000  -0.00000000  1
  Mn  Mn6  1  0.50000000  -0.00000000  0.50000000  1
  Mn  Mn7  1  0.50000000  -0.00000000  -0.00000000  1
  Fe  Fe0  1  0.12505826  0.25011486  0.37512060  1
  Fe  Fe1  1  0.74999990  0.12504407  0.37505722  1
  Fe  Fe2  1  0.25000010  0.87495593  0.62494278  1
  Fe  Fe3  1  0.37505722  0.74999990  0.12504407  1
  Fe  Fe4  1  0.87495593  0.62494278  0.25000010  1
  Fe  Fe5  1  0.74988514  0.62487940  0.87494174  1
  Fe  Fe6  1  0.62494278  0.25000010  0.87495593  1
  Fe  Fe7  1  0.87494174  0.74988514  0.62487940  1
  Fe  Fe8  1  0.12504407  0.37505722  0.74999990  1
  Fe  Fe9  1  0.62487940  0.87494174  0.74988514  1
  Fe  Fe10  1  0.37512060  0.12505826  0.25011486  1
  Fe  Fe11  1  0.25011486  0.37512060  0.12505826  1
  Si  Si0  1  0.87499563  0.25000960  0.12501514  1
  Si  Si1  1  0.12500437  0.74999040  0.87498486  1
  Si  Si2  1  0.75000979  0.37500975  0.62498835  1
  Si  Si3  1  0.37500975  0.62498835  0.75000979  1
  Si  Si4  1  0.62499025  0.37501165  0.24999021  1
  Si  Si5  1  0.62498835  0.75000979  0.37500975  1
  Si  Si6  1  0.87498486  0.12500437  0.74999040  1
  Si  Si7  1  0.24999021  0.62499025  0.37501165  1
  Si  Si8  1  0.25000960  0.12501514  0.87499563  1
  Si  Si9  1  0.12501514  0.87499563  0.25000960  1
  Si  Si10  1  0.37501165  0.24999021  0.62499025  1
  Si  Si11  1  0.74999040  0.87498486  0.12500437  1
  O  O0  1  0.40798379  0.10215174  0.62497197  1
  O  O1  1  0.52280791  0.39783560  0.80575463  1
  O  O2  1  0.10215174  0.62497197  0.40798379  1
  O  O3  1  0.89784826  0.37502803  0.59201621  1
  O  O4  1  0.28300871  0.47720177  0.37506009  1
  O  O5  1  0.59201621  0.89784826  0.37502803  1
  O  O6  1  0.21709127  0.59207707  0.19425575  1
  O  O7  1  0.02291212  0.30578399  0.89785004  1
  O  O8  1  0.47720177  0.37506009  0.28300871  1
  O  O9  1  0.69421601  0.10214996  0.97708788  1
  O  O10  1  0.37506009  0.28300871  0.47720177  1
  O  O11  1  0.12509574  0.02292278  0.21721916  1
  O  O12  1  0.21721916  0.12509574  0.02292278  1
  O  O13  1  0.87495729  0.39785350  0.09213362  1
  O  O14  1  0.28296905  0.30583314  0.90795224  1
  O  O15  1  0.40792293  0.80574425  0.78290873  1
  O  O16  1  0.39785350  0.09213362  0.87495729  1
  O  O17  1  0.30583314  0.90795224  0.28296905  1
  O  O18  1  0.71699129  0.52279823  0.62493991  1
  O  O19  1  0.89785004  0.02291212  0.30578399  1
  O  O20  1  0.62497197  0.40798379  0.10215174  1
  O  O21  1  0.90795224  0.28296905  0.30583314  1
  O  O22  1  0.02292278  0.21721916  0.12509574  1
  O  O23  1  0.87490426  0.97707722  0.78278084  1
  O  O24  1  0.19424537  0.47719209  0.60216440  1
  O  O25  1  0.80574425  0.78290873  0.40792293  1
  O  O26  1  0.62493991  0.71699129  0.52279823  1
  O  O27  1  0.39783560  0.80575463  0.52280791  1
  O  O28  1  0.09204776  0.71703095  0.69416686  1
  O  O29  1  0.71703095  0.69416686  0.09204776  1
  O  O30  1  0.80575463  0.52280791  0.39783560  1
  O  O31  1  0.97707722  0.78278084  0.87490426  1
  O  O32  1  0.10214996  0.97708788  0.69421601  1
  O  O33  1  0.78290873  0.40792293  0.80574425  1
  O  O34  1  0.52279823  0.62493991  0.71699129  1
  O  O35  1  0.47719209  0.60216440  0.19424537  1
  O  O36  1  0.60216440  0.19424537  0.47719209  1
  O  O37  1  0.37502803  0.59201621  0.89784826  1
  O  O38  1  0.19425575  0.21709127  0.59207707  1
  O  O39  1  0.59207707  0.19425575  0.21709127  1
  O  O40  1  0.78278084  0.87490426  0.97707722  1
  O  O41  1  0.12504271  0.60214650  0.90786638  1
  O  O42  1  0.69416686  0.09204776  0.71703095  1
  O  O43  1  0.60214650  0.90786638  0.12504271  1
  O  O44  1  0.90786638  0.12504271  0.60214650  1
  O  O45  1  0.30578399  0.89785004  0.02291212  1
  O  O46  1  0.09213362  0.87495729  0.39785350  1
  O  O47  1  0.97708788  0.69421601  0.10214996  1
loop_
_geom_bond_atom_site_label_1
_geom_bond_atom_site_label_2
_geom_bond_distance
_geom_bond_site_symmetry_2
Mn0 O33 2.025239 1_454
Mn0 O6 2.025239 1_555
Mn0 O7 2.025315 1_554
Mn0 O47 2.025315 1_455
Mn0 O41 2.025757 1_554
Mn0 O13 2.025757 1_455
Mn1 O10 2.024397 1_555
Mn1 O4 2.024397 1_555
Mn1 O8 2.024397 1_555
Mn1 O34 2.024397 1_555
Mn1 O18 2.024397 1_555
Mn1 O26 2.024397 1_555
Mn2 O31 2.026114 1_444
Mn2 O40 2.026114 1_444
Mn2 O23 2.026114 1_444
Mn2 O11 2.026114 1_555
Mn2 O22 2.026114 1_555
Mn2 O12 2.026114 1_555
Mn3 O25 2.025239 1_445
Mn3 O38 2.025239 1_555
Mn3 O32 2.025315 1_545
Mn3 O19 2.025315 1_455
Mn3 O44 2.025757 1_455
Mn3 O46 2.025757 1_545
Mn4 O3 2.024347 1_455
Mn4 O2 2.024347 1_555
Mn4 O21 2.024523 1_455
Mn4 O28 2.024523 1_555
Mn4 O24 2.024956 1_555
Mn4 O30 2.024956 1_455
Mn5 O20 2.024347 1_555
Mn5 O37 2.024347 1_554
Mn5 O14 2.024523 1_554
Mn5 O29 2.024523 1_555
Mn5 O35 2.024956 1_555
Mn5 O1 2.024956 1_554
Mn6 O5 2.024347 1_545
Mn6 O0 2.024347 1_555
Mn6 O17 2.024523 1_545
Mn6 O42 2.024523 1_555
Mn6 O36 2.024956 1_555
Mn6 O27 2.024956 1_545
Mn7 O15 2.025239 1_544
Mn7 O39 2.025239 1_555
Mn7 O45 2.025315 1_545
Mn7 O9 2.025315 1_554
Mn7 O43 2.025757 1_545
Mn7 O16 2.025757 1_554
Fe0 O38 2.247659 1_555
Fe0 O21 2.248098 1_455
Fe0 O10 2.248309 1_555
Fe0 O22 2.248537 1_555
Fe0 O24 2.322682 1_555
Fe0 O4 2.323513 1_555
Fe0 O19 2.323783 1_455
Fe0 O11 2.324015 1_555
Fe1 O3 2.247647 1_555
Fe1 O36 2.247887 1_555
Fe1 O19 2.248284 1_555
Fe1 O43 2.248667 1_545
Fe1 O44 2.322891 1_555
Fe1 O39 2.323684 1_555
Fe1 O21 2.323715 1_555
Fe1 O5 2.323964 1_545
Fe2 O2 2.247647 1_555
Fe2 O27 2.247887 1_555
Fe2 O32 2.248284 1_555
Fe2 O16 2.248667 1_565
Fe2 O46 2.322891 1_555
Fe2 O15 2.323684 1_555
Fe2 O28 2.323715 1_555
Fe2 O0 2.323964 1_565
Fe3 O5 2.247647 1_555
Fe3 O35 2.247887 1_555
Fe3 O45 2.248284 1_555
Fe3 O41 2.248667 1_554
Fe3 O43 2.322891 1_555
Fe3 O6 2.323684 1_555
Fe3 O17 2.323715 1_555
Fe3 O37 2.323964 1_554
Fe4 O20 2.247647 1_555
Fe4 O30 2.247887 1_555
Fe4 O47 2.248284 1_555
Fe4 O46 2.248667 1_655
Fe4 O13 2.322891 1_555
Fe4 O25 2.323684 1_555
Fe4 O29 2.323715 1_555
Fe4 O2 2.323964 1_655
Fe5 O33 2.247659 1_555
Fe5 O29 2.248098 1_556
Fe5 O18 2.248309 1_555
Fe5 O40 2.248537 1_555
Fe5 O1 2.322682 1_555
Fe5 O34 2.323513 1_555
Fe5 O47 2.323783 1_556
Fe5 O31 2.324015 1_555
Fe6 O0 2.247647 1_555
Fe6 O1 2.247887 1_555
Fe6 O9 2.248284 1_555
Fe6 O13 2.248667 1_556
Fe6 O16 2.322891 1_555
Fe6 O33 2.323684 1_555
Fe6 O42 2.323715 1_555
Fe6 O20 2.323964 1_556
Fe7 O25 2.247659 1_555
Fe7 O28 2.248098 1_655
Fe7 O26 2.248309 1_555
Fe7 O31 2.248537 1_555
Fe7 O30 2.322682 1_555
Fe7 O18 2.323513 1_555
Fe7 O32 2.323783 1_655
Fe7 O23 2.324015 1_555
Fe8 O37 2.247647 1_555
Fe8 O24 2.247887 1_555
Fe8 O7 2.248284 1_555
Fe8 O44 2.248667 1_455
Fe8 O41 2.322891 1_555
Fe8 O38 2.323684 1_555
Fe8 O14 2.323715 1_555
Fe8 O3 2.323964 1_455
Fe9 O15 2.247659 1_555
Fe9 O42 2.248098 1_565
Fe9 O34 2.248309 1_555
Fe9 O23 2.248537 1_555
Fe9 O27 2.322682 1_555
Fe9 O26 2.323513 1_555
Fe9 O9 2.323783 1_565
Fe9 O40 2.324015 1_555
Fe10 O39 2.247659 1_555
Fe10 O17 2.248098 1_545
Fe10 O8 2.248309 1_555
Fe10 O11 2.248537 1_555
Fe10 O36 2.322682 1_555
Fe10 O10 2.323513 1_555
Fe10 O45 2.323783 1_545
Fe10 O12 2.324015 1_555
Fe11 O6 2.247659 1_555
Fe11 O14 2.248098 1_554
Fe11 O4 2.248309 1_555
Fe11 O12 2.248537 1_555
Fe11 O35 2.322682 1_555
Fe11 O8 2.323513 1_555
Fe11 O7 2.323783 1_554
Fe11 O22 2.324015 1_555
O0 Si10 1.639276 1_555
O1 Si10 1.638985 1_555
O2 Si7 1.639276 1_555
O3 Si2 1.639276 1_555
O4 Si7 1.639178 1_555
O5 Si5 1.639276 1_555
O6 Si7 1.639090 1_555
O7 Si6 1.639412 1_455
O8 Si4 1.639178 1_555
O9 Si0 1.639412 1_556
O10 Si10 1.639178 1_555
O11 Si9 1.639074 1_545
O12 Si8 1.639074 1_554
O13 Si0 1.639000 1_555
O14 Si8 1.639458 1_555
O15 Si3 1.639090 1_555
O16 Si8 1.639000 1_555
O17 Si9 1.639458 1_555
O18 Si2 1.639178 1_555
O19 Si11 1.639412 1_545
O20 Si4 1.639276 1_555
O21 Si0 1.639458 1_555
O22 Si0 1.639074 1_455
O23 Si6 1.639074 1_565
O24 Si3 1.638985 1_555
O25 Si5 1.639090 1_555
O26 Si5 1.639178 1_555
O27 Si7 1.638985 1_555
O28 Si1 1.639458 1_555
O29 Si11 1.639458 1_555
O30 Si4 1.638985 1_555
O31 Si1 1.639074 1_655
O32 Si8 1.639412 1_565
O33 Si2 1.639090 1_555
O34 Si3 1.639178 1_555
O35 Si5 1.638985 1_555
O36 Si2 1.638985 1_555
O37 Si3 1.639276 1_555
O38 Si10 1.639090 1_555
O39 Si4 1.639090 1_555
O40 Si11 1.639074 1_556
O41 Si1 1.639000 1_555
O42 Si6 1.639458 1_555
O43 Si11 1.639000 1_555
O44 Si6 1.639000 1_555
O45 Si1 1.639412 1_554
O46 Si9 1.639000 1_555
O47 Si9 1.639412 1_655
