# generated using pymatgen
data_CaIr2
_symmetry_space_group_name_H-M   'P 1'
_cell_length_a   5.33322414
_cell_length_b   5.33322419
_cell_length_c   5.33322454
_cell_angle_alpha   59.99996756
_cell_angle_beta   59.99996294
_cell_angle_gamma   59.99996159
_symmetry_Int_Tables_number   1
_chemical_formula_structural   CaIr2
_chemical_formula_sum   'Ca2 Ir4'
_cell_volume   107.26405061
_cell_formula_units_Z   2
loop_
 _symmetry_equiv_pos_site_id
 _symmetry_equiv_pos_as_xyz
  1  'x, y, z'
loop_
 _atom_site_type_symbol
 _atom_site_label
 _atom_site_symmetry_multiplicity
 _atom_site_fract_x
 _atom_site_fract_y
 _atom_site_fract_z
 _atom_site_occupancy
  Ca  Ca0  1  0.37500000  0.37500000  0.37500000  1
  Ca  Ca1  1  0.62500000  0.62500000  0.62500000  1
  Ir  Ir0  1  0.00000000  0.50000000  0.00000000  1
  Ir  Ir1  1  0.50000000  0.00000000  0.00000000  1
  Ir  Ir2  1  0.00000000  0.00000000  0.00000000  1
  Ir  Ir3  1  0.00000000  0.00000000  0.50000000  1
loop_
_geom_bond_atom_site_label_1
_geom_bond_atom_site_label_2
_geom_bond_distance
_geom_bond_site_symmetry_2
Ca0 Ir2 3.126878 1_655
Ca0 Ir2 3.126878 1_565
Ca0 Ir2 3.126878 1_556
Ca0 Ir3 3.126879 1_565
Ca0 Ir3 3.126879 1_655
Ca0 Ir0 3.126879 1_655
Ca0 Ir0 3.126879 1_556
Ca0 Ir1 3.126879 1_565
Ca0 Ir1 3.126879 1_556
Ca0 Ir1 3.126880 1_555
Ca0 Ir3 3.126880 1_555
Ca0 Ir0 3.126880 1_555
Ca1 Ir2 3.126878 1_566
Ca1 Ir2 3.126878 1_656
Ca1 Ir2 3.126878 1_665
Ca1 Ir3 3.126879 1_655
Ca1 Ir3 3.126879 1_565
Ca1 Ir0 3.126879 1_556
Ca1 Ir0 3.126879 1_655
Ca1 Ir1 3.126879 1_556
Ca1 Ir1 3.126879 1_565
Ca1 Ir1 3.126880 1_566
Ca1 Ir3 3.126880 1_665
Ca1 Ir0 3.126880 1_656
Ir0 Ir1 2.666611 1_555
Ir0 Ir1 2.666611 1_465
Ir0 Ir3 2.666611 1_564
Ir0 Ir3 2.666611 1_555
Ir0 Ir2 2.666612 1_565
Ir0 Ir2 2.666612 1_555
Ir1 Ir3 2.666611 1_555
Ir1 Ir3 2.666611 1_654
Ir1 Ir2 2.666612 1_655
Ir1 Ir2 2.666612 1_555
Ir2 Ir3 2.666612 1_555
Ir2 Ir3 2.666612 1_554
