# generated using pymatgen
data_Nd4(SBr2)3
_symmetry_space_group_name_H-M   'P 1'
_cell_length_a   15.21289204
_cell_length_b   15.21289204
_cell_length_c   7.19413848
_cell_angle_alpha   85.39811091
_cell_angle_beta   85.39811091
_cell_angle_gamma   26.18253431
_symmetry_Int_Tables_number   1
_chemical_formula_structural   Nd4(SBr2)3
_chemical_formula_sum   'Nd8 S6 Br12'
_cell_volume   732.13514493
_cell_formula_units_Z   2
loop_
 _symmetry_equiv_pos_site_id
 _symmetry_equiv_pos_as_xyz
  1  'x, y, z'
loop_
 _atom_site_type_symbol
 _atom_site_label
 _atom_site_symmetry_multiplicity
 _atom_site_fract_x
 _atom_site_fract_y
 _atom_site_fract_z
 _atom_site_occupancy
  Nd  Nd0  1  0.25211697  0.63396724  0.98436645  1
  Nd  Nd1  1  0.47765928  0.86479524  0.90550427  1
  Nd  Nd2  1  0.52234072  0.13520476  0.09449573  1
  Nd  Nd3  1  0.74788303  0.36603276  0.01563355  1
  Nd  Nd4  1  0.13520476  0.52234072  0.59449573  1
  Nd  Nd5  1  0.63396724  0.25211697  0.48436645  1
  Nd  Nd6  1  0.86479524  0.47765928  0.40550427  1
  Nd  Nd7  1  0.36603276  0.74788303  0.51563355  1
  S  S0  1  0.43558859  0.33133672  0.79054208  1
  S  S1  1  0.55247933  0.44752067  0.75000000  1
  S  S2  1  0.66866328  0.56441141  0.70945792  1
  S  S3  1  0.56441141  0.66866328  0.20945792  1
  S  S4  1  0.33133672  0.43558859  0.29054208  1
  S  S5  1  0.44752067  0.55247933  0.25000000  1
  Br  Br0  1  0.84085414  0.05586373  0.10943111  1
  Br  Br1  1  0.15914586  0.94413627  0.89056889  1
  Br  Br2  1  0.75072530  0.93787312  0.44562797  1
  Br  Br3  1  0.81775486  0.65241159  0.68524243  1
  Br  Br4  1  0.06212688  0.24927470  0.05437203  1
  Br  Br5  1  0.24927470  0.06212688  0.55437203  1
  Br  Br6  1  0.94413627  0.15914586  0.39056889  1
  Br  Br7  1  0.05586373  0.84085414  0.60943111  1
  Br  Br8  1  0.93787312  0.75072530  0.94562797  1
  Br  Br9  1  0.34758841  0.18224514  0.81475757  1
  Br  Br10  1  0.65241159  0.81775486  0.18524243  1
  Br  Br11  1  0.18224514  0.34758841  0.31475757  1
loop_
_geom_bond_atom_site_label_1
_geom_bond_atom_site_label_2
_geom_bond_distance
_geom_bond_site_symmetry_2
Nd0 S5 2.818304 1_556
Nd0 S1 2.834941 1_555
Nd0 S4 2.871147 1_556
Nd0 S0 2.876289 1_555
Nd1 S3 2.788307 1_556
Nd1 S2 2.803481 1_555
Nd2 S0 2.788307 1_554
Nd2 S4 2.803481 1_555
Nd3 S1 2.818304 1_554
Nd3 S5 2.834941 1_555
Nd3 S2 2.871147 1_554
Nd3 S3 2.876289 1_555
Nd4 S4 2.788307 1_555
Nd4 S0 2.803481 1_555
Nd5 S1 2.818304 1_555
Nd5 S5 2.834941 1_555
Nd5 S0 2.871147 1_555
Nd5 S4 2.876289 1_555
Nd6 S2 2.788307 1_555
Nd6 S3 2.803481 1_555
Nd7 S5 2.818304 1_555
Nd7 S1 2.834941 1_555
Nd7 S3 2.871147 1_555
Nd7 S2 2.876289 1_555
Br0 Nd0 3.016553 1_644
Br0 Nd5 3.026566 1_555
Br0 Nd3 3.519220 1_555
Br1 Nd3 3.016553 1_466
Br1 Nd7 3.026566 1_555
Br1 Nd0 3.519220 1_555
Br2 Nd4 2.979371 1_655
Br2 Nd2 2.989348 1_565
Br2 Nd5 3.313694 1_565
Br3 Nd6 2.973653 1_555
Br3 Nd1 3.036795 1_555
Br3 Nd4 3.196000 1_655
Br4 Nd1 2.979371 1_544
Br4 Nd6 2.989348 1_455
Br4 Nd3 3.313694 1_455
Br5 Nd6 2.979371 1_455
Br5 Nd1 2.989348 1_545
Br5 Nd7 3.313694 1_545
Br6 Nd7 3.016553 1_645
Br6 Nd3 3.026566 1_555
Br6 Nd5 3.519220 1_555
Br7 Nd5 3.016553 1_465
Br7 Nd0 3.026566 1_555
Br7 Nd7 3.519220 1_555
Br8 Nd2 2.979371 1_566
Br8 Nd4 2.989348 1_655
Br8 Nd0 3.313694 1_655
Br9 Nd2 2.973653 1_556
Br9 Nd4 3.036795 1_555
Br9 Nd1 3.196000 1_545
Br10 Nd1 2.973653 1_554
Br10 Nd6 3.036795 1_555
Br10 Nd2 3.196000 1_565
Br11 Nd4 2.973653 1_555
Br11 Nd2 3.036795 1_555
Br11 Nd6 3.196000 1_455
