# generated using pymatgen
data_HoSeO3F
_symmetry_space_group_name_H-M   'P 1'
_cell_length_a   6.96448800
_cell_length_b   6.63988500
_cell_length_c   7.24065442
_cell_angle_alpha   81.44130746
_cell_angle_beta   90.00000000
_cell_angle_gamma   90.00000000
_symmetry_Int_Tables_number   1
_chemical_formula_structural   HoSeO3F
_chemical_formula_sum   'Ho4 Se4 O12 F4'
_cell_volume   331.10375709
_cell_formula_units_Z   4
loop_
 _symmetry_equiv_pos_site_id
 _symmetry_equiv_pos_as_xyz
  1  'x, y, z'
loop_
 _atom_site_type_symbol
 _atom_site_label
 _atom_site_symmetry_multiplicity
 _atom_site_fract_x
 _atom_site_fract_y
 _atom_site_fract_z
 _atom_site_occupancy
  Ho  Ho0  1  0.14023600  0.13991800  0.17621000  1
  Ho  Ho1  1  0.85976400  0.86008200  0.82379000  1
  Ho  Ho2  1  0.64023600  0.86008200  0.32379000  1
  Ho  Ho3  1  0.35976400  0.13991800  0.67621000  1
  Se  Se0  1  0.38137700  0.64937000  0.78921300  1
  Se  Se1  1  0.61862300  0.35063000  0.21078700  1
  Se  Se2  1  0.88137700  0.35063000  0.71078700  1
  Se  Se3  1  0.11862300  0.64937000  0.28921300  1
  O  O0  1  0.69444700  0.17423900  0.72009100  1
  O  O1  1  0.18599300  0.48530000  0.13984100  1
  O  O2  1  0.46835100  0.17326500  0.35209200  1
  O  O3  1  0.31400700  0.48530000  0.63984100  1
  O  O4  1  0.19444700  0.82576100  0.77990900  1
  O  O5  1  0.80555300  0.17423900  0.22009100  1
  O  O6  1  0.68599300  0.51470000  0.36015900  1
  O  O7  1  0.81400700  0.51470000  0.86015900  1
  O  O8  1  0.30555300  0.82576100  0.27990900  1
  O  O9  1  0.03164900  0.17326500  0.85209200  1
  O  O10  1  0.96835100  0.82673500  0.14790800  1
  O  O11  1  0.53164900  0.82673500  0.64790800  1
  F  F0  1  0.61852800  0.83232400  0.02509100  1
  F  F1  1  0.38147200  0.16767600  0.97490900  1
  F  F2  1  0.11852800  0.16767600  0.47490900  1
  F  F3  1  0.88147200  0.83232400  0.52509100  1
loop_
_geom_bond_atom_site_label_1
_geom_bond_atom_site_label_2
_geom_bond_distance
_geom_bond_site_symmetry_2
Ho0 O1 2.291366 1_555
Ho0 O5 2.368018 1_455
Ho0 O8 2.403008 1_545
Ho0 O10 2.434374 1_445
Ho0 O9 2.444151 1_554
Ho0 O2 2.641341 1_555
Ho1 O7 2.291366 1_555
Ho1 O4 2.368018 1_655
Ho1 O0 2.403008 1_565
Ho1 O9 2.434374 1_665
Ho1 O10 2.444151 1_556
Ho1 O11 2.641341 1_555
Ho2 O6 2.291366 1_555
Ho2 O8 2.368018 1_555
Ho2 O5 2.403008 1_565
Ho2 O2 2.434374 1_565
Ho2 O11 2.444151 1_555
Ho2 O10 2.641341 1_555
Ho3 O3 2.291366 1_555
Ho3 O0 2.368018 1_555
Ho3 O4 2.403008 1_545
Ho3 O11 2.434374 1_545
Ho3 O2 2.444151 1_555
Ho3 O9 2.641341 1_555
O0 Se2 1.745758 1_555
O1 Se3 1.710966 1_555
O2 Se1 1.780566 1_555
O3 Se0 1.710966 1_555
O4 Se0 1.745758 1_555
O5 Se1 1.745758 1_555
O6 Se1 1.710966 1_555
O7 Se2 1.710966 1_555
O8 Se3 1.745758 1_555
O9 Se2 1.780566 1_455
O10 Se3 1.780566 1_655
O11 Se0 1.780566 1_555
F0 Ho2 2.202970 1_555
F0 Ho1 2.213854 1_554
F1 Ho3 2.202970 1_555
F1 Ho0 2.213854 1_556
F2 Ho0 2.202970 1_555
F2 Ho3 2.213854 1_555
F3 Ho1 2.202970 1_555
F3 Ho2 2.213854 1_555
