# generated using pymatgen
data_Na4Si2Te5
_symmetry_space_group_name_H-M   'P 1'
_cell_length_a   12.83430738
_cell_length_b   14.11812037
_cell_length_c   14.93066101
_cell_angle_alpha   88.21030876
_cell_angle_beta   90.00000000
_cell_angle_gamma   90.00000000
_symmetry_Int_Tables_number   1
_chemical_formula_structural   Na4Si2Te5
_chemical_formula_sum   'Na32 Si16 Te40'
_cell_volume   2704.06078227
_cell_formula_units_Z   8
loop_
 _symmetry_equiv_pos_site_id
 _symmetry_equiv_pos_as_xyz
  1  'x, y, z'
loop_
 _atom_site_type_symbol
 _atom_site_label
 _atom_site_symmetry_multiplicity
 _atom_site_fract_x
 _atom_site_fract_y
 _atom_site_fract_z
 _atom_site_occupancy
  Na  Na0  1  0.09024889  0.80160705  0.13978714  1
  Na  Na1  1  0.12284124  0.09579374  0.04910611  1
  Na  Na2  1  0.90975111  0.19839295  0.86021286  1
  Na  Na3  1  0.87715876  0.90420626  0.95089389  1
  Na  Na4  1  0.90584366  0.50731303  0.72891426  1
  Na  Na5  1  0.87798741  0.09726745  0.56025264  1
  Na  Na6  1  0.63558652  0.57819608  0.57376422  1
  Na  Na7  1  0.59024889  0.19839295  0.36021286  1
  Na  Na8  1  0.63463715  0.38435808  0.96541937  1
  Na  Na9  1  0.40584366  0.49268697  0.77108574  1
  Na  Na10  1  0.13558652  0.42180392  0.92623578  1
  Na  Na11  1  0.40975111  0.80160705  0.63978714  1
  Na  Na12  1  0.36536285  0.61564192  0.03458063  1
  Na  Na13  1  0.12201259  0.90273255  0.43974736  1
  Na  Na14  1  0.86536285  0.38435808  0.46541937  1
  Na  Na15  1  0.84560337  0.98931276  0.23482615  1
  Na  Na16  1  0.85872414  0.71023384  0.34752794  1
  Na  Na17  1  0.62201259  0.09726745  0.06025264  1
  Na  Na18  1  0.14127586  0.28976616  0.65247206  1
  Na  Na19  1  0.37798741  0.90273255  0.93974736  1
  Na  Na20  1  0.15439663  0.01068724  0.76517385  1
  Na  Na21  1  0.36441348  0.42180392  0.42623578  1
  Na  Na22  1  0.59415634  0.50731303  0.22891426  1
  Na  Na23  1  0.65439663  0.98931276  0.73482615  1
  Na  Na24  1  0.62284124  0.90420626  0.45089389  1
  Na  Na25  1  0.35872414  0.28976616  0.15247206  1
  Na  Na26  1  0.37715876  0.09579374  0.54910611  1
  Na  Na27  1  0.09415634  0.49268697  0.27108574  1
  Na  Na28  1  0.64127586  0.71023384  0.84752794  1
  Na  Na29  1  0.86441348  0.57819608  0.07376422  1
  Na  Na30  1  0.13463715  0.61564192  0.53458063  1
  Na  Na31  1  0.34560337  0.01068724  0.26517385  1
  Si  Si0  1  0.59089995  0.27760584  0.59099272  1
  Si  Si1  1  0.33891130  0.22102390  0.91363893  1
  Si  Si2  1  0.05866931  0.17527018  0.29126943  1
  Si  Si3  1  0.80695752  0.31919794  0.21398713  1
  Si  Si4  1  0.30695752  0.68080206  0.28601287  1
  Si  Si5  1  0.40910005  0.72239416  0.40900728  1
  Si  Si6  1  0.90910005  0.27760584  0.09099272  1
  Si  Si7  1  0.09089995  0.72239416  0.90900728  1
  Si  Si8  1  0.66108870  0.77897610  0.08636107  1
  Si  Si9  1  0.16108870  0.22102390  0.41363893  1
  Si  Si10  1  0.19304248  0.68080206  0.78601287  1
  Si  Si11  1  0.55866931  0.82472982  0.20873057  1
  Si  Si12  1  0.94133069  0.82472982  0.70873057  1
  Si  Si13  1  0.44133069  0.17527018  0.79126943  1
  Si  Si14  1  0.83891130  0.77897610  0.58636107  1
  Si  Si15  1  0.69304248  0.31919794  0.71398713  1
  Te  Te0  1  0.12774996  0.10338959  0.53913692  1
  Te  Te1  1  0.62183594  0.29334411  0.16934709  1
  Te  Te2  1  0.37225004  0.10338959  0.03913692  1
  Te  Te3  1  0.59670350  0.99084485  0.24840406  1
  Te  Te4  1  0.36561755  0.80630453  0.16479394  1
  Te  Te5  1  0.40718568  0.29377622  0.66055291  1
  Te  Te6  1  0.12183594  0.70665589  0.33065291  1
  Te  Te7  1  0.84250492  0.48162720  0.26616062  1
  Te  Te8  1  0.15749508  0.51837280  0.73383938  1
  Te  Te9  1  0.12840276  0.88874442  0.94959626  1
  Te  Te10  1  0.59281432  0.70622378  0.33944709  1
  Te  Te11  1  0.62774996  0.89661041  0.96086308  1
  Te  Te12  1  0.11641176  0.38498637  0.46029998  1
  Te  Te13  1  0.87225004  0.89661041  0.46086308  1
  Te  Te14  1  0.65635996  0.78770439  0.64675041  1
  Te  Te15  1  0.63438245  0.19369547  0.83520606  1
  Te  Te16  1  0.88438799  0.39122968  0.96331691  1
  Te  Te17  1  0.38358824  0.38498637  0.96029998  1
  Te  Te18  1  0.40329650  0.00915515  0.75159594  1
  Te  Te19  1  0.84364004  0.78770439  0.14675041  1
  Te  Te20  1  0.38438799  0.60877032  0.53668309  1
  Te  Te21  1  0.88358824  0.61501363  0.53970002  1
  Te  Te22  1  0.61561201  0.39122968  0.46331691  1
  Te  Te23  1  0.65749508  0.48162720  0.76616062  1
  Te  Te24  1  0.09281432  0.29377622  0.16055291  1
  Te  Te25  1  0.13438245  0.80630453  0.66479394  1
  Te  Te26  1  0.37816406  0.70665589  0.83065291  1
  Te  Te27  1  0.37159724  0.88874442  0.44959626  1
  Te  Te28  1  0.09670350  0.00915515  0.25159594  1
  Te  Te29  1  0.34364004  0.21229561  0.35324959  1
  Te  Te30  1  0.87159724  0.11125558  0.05040374  1
  Te  Te31  1  0.62840276  0.11125558  0.55040374  1
  Te  Te32  1  0.61641176  0.61501363  0.03970002  1
  Te  Te33  1  0.11561201  0.60877032  0.03668309  1
  Te  Te34  1  0.90329650  0.99084485  0.74840406  1
  Te  Te35  1  0.86561755  0.19369547  0.33520606  1
  Te  Te36  1  0.87816406  0.29334411  0.66934709  1
  Te  Te37  1  0.34250492  0.51837280  0.23383938  1
  Te  Te38  1  0.15635996  0.21229561  0.85324959  1
  Te  Te39  1  0.90718568  0.70622378  0.83944709  1
loop_
_geom_bond_atom_site_label_1
_geom_bond_atom_site_label_2
_geom_bond_distance
_geom_bond_site_symmetry_2
Na0 Te9 3.098188 1_554
Na0 Te6 3.137490 1_555
Na0 Te19 3.172637 1_455
Na0 Te33 3.185827 1_555
Na0 Te28 3.418367 1_565
Na0 Te4 3.554670 1_555
Na1 Te2 3.206086 1_555
Na1 Te30 3.232022 1_455
Na1 Te28 3.243160 1_555
Na1 Te24 3.319736 1_555
Na1 Te9 3.320935 1_544
Na1 Te38 3.337858 1_554
Na2 Te30 3.098188 1_556
Na2 Te36 3.137490 1_555
Na2 Te38 3.172637 1_655
Na2 Te16 3.185827 1_555
Na2 Te34 3.418367 1_545
Na2 Te15 3.554670 1_555
Na3 Te11 3.206086 1_555
Na3 Te9 3.232022 1_655
Na3 Te34 3.243160 1_555
Na3 Te39 3.319736 1_555
Na3 Te30 3.320935 1_566
Na3 Te19 3.337858 1_556
Na4 Te21 3.179063 1_555
Na4 Te36 3.195383 1_555
Na4 Te8 3.234491 1_655
Na4 Te23 3.253855 1_555
Na4 Te39 3.301455 1_555
Na5 Te34 3.160868 1_545
Na5 Te31 3.212413 1_555
Na5 Te0 3.221891 1_655
Na5 Te13 3.239667 1_545
Na5 Te36 3.255446 1_555
Na5 Te35 3.589300 1_555
Na6 Te23 3.153582 1_555
Na6 Te22 3.166156 1_555
Na6 Te14 3.195135 1_555
Na6 Te21 3.262421 1_555
Na6 Te20 3.297246 1_555
Na7 Te31 3.098188 1_555
Na7 Te1 3.137490 1_555
Na7 Te29 3.172637 1_555
Na7 Te22 3.185827 1_555
Na7 Te3 3.418367 1_545
Na7 Te35 3.554670 1_555
Na8 Te16 3.206971 1_555
Na8 Te17 3.222951 1_555
Na8 Te23 3.250803 1_555
Na8 Te1 3.271752 1_556
Na8 Te15 3.369342 1_555
Na8 Te32 3.480604 1_556
Na9 Te17 3.179063 1_555
Na9 Te26 3.195383 1_555
Na9 Te23 3.234491 1_555
Na9 Te8 3.253855 1_555
Na9 Te5 3.301455 1_555
Na10 Te8 3.153582 1_555
Na10 Te33 3.166156 1_556
Na10 Te38 3.195135 1_555
Na10 Te17 3.262421 1_555
Na10 Te16 3.297246 1_455
Na11 Te27 3.098188 1_555
Na11 Te26 3.137490 1_555
Na11 Te14 3.172637 1_555
Na11 Te20 3.185827 1_555
Na11 Te18 3.418367 1_565
Na11 Te25 3.554670 1_555
Na12 Te33 3.206971 1_555
Na12 Te32 3.222951 1_555
Na12 Te37 3.250803 1_555
Na12 Te26 3.271752 1_554
Na12 Te4 3.369342 1_555
Na12 Te17 3.480604 1_554
Na13 Te28 3.160868 1_565
Na13 Te27 3.212413 1_555
Na13 Te13 3.221891 1_455
Na13 Te0 3.239667 1_565
Na13 Te6 3.255446 1_555
Na13 Te25 3.589300 1_555
Na14 Te22 3.206971 1_555
Na14 Te12 3.222951 1_655
Na14 Te7 3.250803 1_555
Na14 Te36 3.271752 1_555
Na14 Te35 3.369342 1_555
Na14 Te21 3.480604 1_555
Na15 Te19 3.172591 1_555
Na15 Te3 3.201000 1_555
Na15 Te30 3.218873 1_565
Na15 Te28 3.245200 1_665
Na15 Te35 3.302791 1_565
Na15 Te13 3.597749 1_555
Na16 Te21 3.146547 1_555
Na16 Te19 3.164711 1_555
Na16 Te13 3.177319 1_555
Na16 Te6 3.386738 1_655
Na16 Te10 3.415432 1_555
Na16 Te7 3.490111 1_555
Na17 Te3 3.160868 1_545
Na17 Te30 3.212413 1_555
Na17 Te2 3.221891 1_555
Na17 Te11 3.239667 1_544
Na17 Te1 3.255446 1_555
Na17 Te15 3.589300 1_554
Na18 Te12 3.146547 1_555
Na18 Te38 3.164711 1_555
Na18 Te0 3.177319 1_555
Na18 Te36 3.386738 1_455
Na18 Te5 3.415432 1_555
Na18 Te8 3.490111 1_555
Na19 Te18 3.160868 1_565
Na19 Te9 3.212413 1_555
Na19 Te11 3.221891 1_555
Na19 Te2 3.239667 1_566
Na19 Te26 3.255446 1_555
Na19 Te4 3.589300 1_556
Na20 Te38 3.172591 1_555
Na20 Te18 3.201000 1_555
Na20 Te9 3.218873 1_545
Na20 Te34 3.245200 1_445
Na20 Te25 3.302791 1_545
Na20 Te0 3.597749 1_555
Na21 Te37 3.153582 1_555
Na21 Te20 3.166156 1_555
Na21 Te29 3.195135 1_555
Na21 Te12 3.262421 1_555
Na21 Te22 3.297246 1_555
Na22 Te32 3.179063 1_555
Na22 Te1 3.195383 1_555
Na22 Te37 3.234491 1_555
Na22 Te7 3.253855 1_555
Na22 Te10 3.301455 1_555
Na23 Te14 3.172591 1_555
Na23 Te34 3.201000 1_555
Na23 Te31 3.218873 1_565
Na23 Te18 3.245200 1_565
Na23 Te15 3.302791 1_565
Na23 Te11 3.597749 1_555
Na24 Te13 3.206086 1_555
Na24 Te27 3.232022 1_555
Na24 Te3 3.243160 1_555
Na24 Te10 3.319736 1_555
Na24 Te31 3.320935 1_565
Na24 Te14 3.337858 1_555
Na25 Te17 3.146547 1_554
Na25 Te29 3.164711 1_555
Na25 Te2 3.177319 1_555
Na25 Te1 3.386738 1_555
Na25 Te24 3.415432 1_555
Na25 Te37 3.490111 1_555
Na26 Te0 3.206086 1_555
Na26 Te31 3.232022 1_555
Na26 Te18 3.243160 1_555
Na26 Te5 3.319736 1_555
Na26 Te27 3.320935 1_545
Na26 Te29 3.337858 1_555
Na27 Te12 3.179063 1_555
Na27 Te6 3.195383 1_555
Na27 Te7 3.234491 1_455
Na27 Te37 3.253855 1_555
Na27 Te24 3.301455 1_555
Na28 Te32 3.146547 1_556
Na28 Te14 3.164711 1_555
Na28 Te11 3.177319 1_555
Na28 Te26 3.386738 1_555
Na28 Te39 3.415432 1_555
Na28 Te23 3.490111 1_555
Na29 Te7 3.153582 1_555
Na29 Te16 3.166156 1_554
Na29 Te19 3.195135 1_555
Na29 Te32 3.262421 1_555
Na29 Te33 3.297246 1_655
Na30 Te20 3.206971 1_555
Na30 Te21 3.222951 1_455
Na30 Te8 3.250803 1_555
Na30 Te6 3.271752 1_555
Na30 Te25 3.369342 1_555
Na30 Te12 3.480604 1_555
Na31 Te29 3.172591 1_555
Na31 Te28 3.201000 1_555
Na31 Te27 3.218873 1_545
Na31 Te3 3.245200 1_545
Na31 Te4 3.302791 1_545
Na31 Te2 3.597749 1_555
Si0 Si15 2.345851 1_555
Si0 Te22 2.473220 1_555
Si0 Te31 2.490689 1_555
Si0 Te5 2.589404 1_555
Si1 Si13 2.357325 1_555
Si1 Te2 2.501577 1_556
Si1 Te17 2.504670 1_555
Si1 Te38 2.514831 1_555
Si2 Si9 2.357325 1_555
Si2 Te28 2.485166 1_555
Si2 Te24 2.568338 1_555
Si2 Te35 2.578293 1_455
Si3 Si6 2.345851 1_555
Si3 Te7 2.487024 1_555
Si3 Te1 2.497517 1_555
Si3 Te35 2.604158 1_555
Si4 Si5 2.345851 1_555
Si4 Te37 2.487024 1_555
Si4 Te6 2.497517 1_555
Si4 Te4 2.604158 1_555
Si5 Te20 2.473220 1_555
Si5 Te27 2.490689 1_555
Si5 Te10 2.589404 1_555
Si6 Te16 2.473220 1_554
Si6 Te30 2.490689 1_555
Si6 Te24 2.589404 1_655
Si7 Te33 2.473220 1_556
Si7 Te9 2.490689 1_555
Si7 Te39 2.589404 1_455
Si8 Te11 2.501577 1_554
Si8 Te32 2.504670 1_555
Si8 Te19 2.514831 1_555
Si9 Te0 2.501577 1_555
Si9 Te12 2.504670 1_555
Si9 Te29 2.514831 1_555
Si10 Si7 2.345851 1_555
Si10 Te8 2.487024 1_555
Si10 Te26 2.497517 1_555
Si10 Te25 2.604158 1_555
Si11 Si8 2.357325 1_555
Si11 Te3 2.485166 1_555
Si11 Te10 2.568338 1_555
Si11 Te4 2.578293 1_555
Si12 Si14 2.357325 1_555
Si12 Te34 2.485166 1_555
Si12 Te39 2.568338 1_555
Si12 Te25 2.578293 1_655
Si13 Te18 2.485166 1_555
Si13 Te5 2.568338 1_555
Si13 Te15 2.578293 1_555
Si14 Te13 2.501577 1_555
Si14 Te21 2.504670 1_555
Si14 Te14 2.514831 1_555
Si15 Te23 2.487024 1_555
Si15 Te36 2.497517 1_555
Si15 Te15 2.604158 1_555
