# generated using pymatgen
data_V8O15
_symmetry_space_group_name_H-M   'P 1'
_cell_length_a   5.54238500
_cell_length_b   7.08985257
_cell_length_c   13.49709001
_cell_angle_alpha   101.55328310
_cell_angle_beta   96.66116394
_cell_angle_gamma   107.57957752
_symmetry_Int_Tables_number   1
_chemical_formula_structural   V8O15
_chemical_formula_sum   'V16 O30'
_cell_volume   486.42712298
_cell_formula_units_Z   2
loop_
 _symmetry_equiv_pos_site_id
 _symmetry_equiv_pos_as_xyz
  1  'x, y, z'
loop_
 _atom_site_type_symbol
 _atom_site_label
 _atom_site_symmetry_multiplicity
 _atom_site_fract_x
 _atom_site_fract_y
 _atom_site_fract_z
 _atom_site_occupancy
  V  V0  1  0.31631600  0.15897300  0.18663200  1
  V  V1  1  0.18382400  0.68102200  0.95247800  1
  V  V2  1  0.73971800  0.67098900  0.56031900  1
  V  V3  1  0.73871600  0.17186500  0.56694800  1
  V  V4  1  0.26028200  0.32901100  0.43968100  1
  V  V5  1  0.82736900  0.82368200  0.05114300  1
  V  V6  1  0.78024100  0.98754000  0.30931200  1
  V  V7  1  0.26128400  0.82813500  0.43305200  1
  V  V8  1  0.20961600  0.50857200  0.69232900  1
  V  V9  1  0.69192900  0.35687200  0.82254100  1
  V  V10  1  0.68368400  0.84102700  0.81336800  1
  V  V11  1  0.21975900  0.01246000  0.69068800  1
  V  V12  1  0.81617600  0.31897800  0.04752200  1
  V  V13  1  0.79038400  0.49142800  0.30767100  1
  V  V14  1  0.30807100  0.64312800  0.17745900  1
  V  V15  1  0.17263100  0.17631800  0.94885700  1
  O  O0  1  0.12380400  0.52063400  0.39120500  1
  O  O1  1  0.06699400  0.21367100  0.65467500  1
  O  O2  1  0.59890800  0.86699600  0.52580700  1
  O  O3  1  0.94632800  0.49245700  0.18262800  1
  O  O4  1  0.87619600  0.47936600  0.60879500  1
  O  O5  1  0.20321700  0.46001600  0.02166900  1
  O  O6  1  0.80920600  0.15343000  0.89404300  1
  O  O7  1  0.40109200  0.13300400  0.47419300  1
  O  O8  1  0.45974600  0.45116000  0.21892000  1
  O  O9  1  0.14445600  0.14602100  0.28917200  1
  O  O10  1  0.99792900  0.13037200  0.08027000  1
  O  O11  1  0.91190400  0.17226000  0.45114800  1
  O  O12  1  0.67423800  0.80857700  0.15619400  1
  O  O13  1  0.85554400  0.85397900  0.71082800  1
  O  O14  1  0.38187700  0.50832900  0.57715100  1
  O  O15  1  0.79678300  0.53998400  0.97833100  1
  O  O16  1  0.57544100  0.17268600  0.68235200  1
  O  O17  1  0.05367200  0.50754300  0.81737200  1
  O  O18  1  0.32576200  0.19142300  0.84380600  1
  O  O19  1  0.35028900  0.81086500  0.74287400  1
  O  O20  1  0.48522000  0.20143400  0.04891800  1
  O  O21  1  0.08809600  0.82774000  0.54885200  1
  O  O22  1  0.93300600  0.78632900  0.34532500  1
  O  O23  1  0.19079400  0.84657000  0.10595700  1
  O  O24  1  0.00207100  0.86962800  0.91973000  1
  O  O25  1  0.42455900  0.82731400  0.31764800  1
  O  O26  1  0.54025400  0.54884000  0.78108000  1
  O  O27  1  0.64971100  0.18913500  0.25712600  1
  O  O28  1  0.51478000  0.79856600  0.95108200  1
  O  O29  1  0.61812300  0.49167100  0.42284900  1
loop_
_geom_bond_atom_site_label_1
_geom_bond_atom_site_label_2
_geom_bond_distance
_geom_bond_site_symmetry_2
O0 V4 1.925613 1_555
O0 V13 1.980134 1_455
O0 V7 2.013967 1_555
O1 V8 1.933242 1_555
O1 V3 1.958084 1_455
O1 V11 1.974862 1_555
O2 V2 1.894008 1_555
O2 V3 1.997108 1_565
O2 V7 2.037570 1_555
O3 V12 1.902341 1_555
O3 V14 1.983498 1_655
O3 V13 1.983681 1_555
O4 V2 1.925613 1_555
O4 V8 1.980134 1_655
O4 V3 2.013967 1_555
O5 V1 2.000859 1_554
O5 V15 2.000945 1_554
O5 V14 2.147524 1_555
O5 V12 2.177367 1_455
O6 V15 2.009876 1_655
O6 V9 2.100635 1_555
O6 V10 2.121983 1_545
O6 V12 2.156485 1_556
O7 V4 1.894008 1_555
O7 V7 1.997108 1_545
O7 V3 2.037570 1_555
O8 V0 1.917417 1_555
O8 V14 1.938889 1_555
O8 V13 1.977950 1_555
O9 V0 1.770608 1_555
O9 V6 2.071416 1_445
O9 V4 2.088225 1_555
O10 V12 1.986281 1_555
O10 V5 2.026295 1_545
O10 V0 2.072545 1_655
O10 V15 2.151505 1_654
O11 V3 1.926759 1_555
O11 V4 1.956838 1_655
O11 V6 2.001711 1_545
O12 V5 1.739904 1_555
O12 V14 2.099748 1_555
O12 V6 2.108028 1_555
O13 V10 1.770608 1_555
O13 V11 2.071416 1_665
O13 V2 2.088225 1_555
O14 V8 1.916365 1_555
O14 V4 1.939235 1_555
O14 V2 2.035406 1_555
O15 V12 2.000859 1_556
O15 V5 2.000945 1_556
O15 V9 2.147524 1_555
O15 V1 2.177367 1_655
O16 V3 1.889886 1_555
O16 V9 1.979868 1_555
O16 V11 1.984733 1_555
O17 V1 1.902341 1_555
O17 V9 1.983498 1_455
O17 V8 1.983681 1_555
O18 V15 1.739904 1_555
O18 V9 2.099748 1_555
O18 V11 2.108028 1_555
O19 V10 1.907178 1_555
O19 V8 1.987010 1_555
O19 V11 1.992981 1_565
O20 V12 1.774932 1_555
O20 V15 2.007900 1_554
O20 V0 2.208949 1_555
O21 V7 1.926759 1_555
O21 V2 1.956838 1_455
O21 V11 2.001711 1_565
O22 V13 1.933242 1_555
O22 V7 1.958084 1_655
O22 V6 1.974862 1_555
O23 V5 2.009876 1_455
O23 V14 2.100635 1_555
O23 V0 2.121983 1_565
O23 V1 2.156485 1_554
O24 V1 1.986281 1_555
O24 V15 2.026295 1_565
O24 V10 2.072545 1_455
O24 V5 2.151505 1_456
O25 V7 1.889886 1_555
O25 V14 1.979868 1_555
O25 V6 1.984733 1_555
O26 V10 1.917417 1_555
O26 V9 1.938889 1_555
O26 V8 1.977950 1_555
O27 V0 1.907178 1_555
O27 V13 1.987010 1_555
O27 V6 1.992981 1_545
O28 V1 1.774932 1_555
O28 V5 2.007900 1_556
O28 V10 2.208949 1_555
O29 V13 1.916365 1_555
O29 V2 1.939235 1_555
O29 V4 2.035406 1_555
