# generated using pymatgen
data_Ba5Ru2Cl2O9
_symmetry_space_group_name_H-M   'P 1'
_cell_length_a   5.97071026
_cell_length_b   14.27810695
_cell_length_c   15.42140309
_cell_angle_alpha   90.00000000
_cell_angle_beta   90.00000000
_cell_angle_gamma   90.00000000
_symmetry_Int_Tables_number   1
_chemical_formula_structural   Ba5Ru2Cl2O9
_chemical_formula_sum   'Ba20 Ru8 Cl8 O36'
_cell_volume   1314.68139359
_cell_formula_units_Z   4
loop_
 _symmetry_equiv_pos_site_id
 _symmetry_equiv_pos_as_xyz
  1  'x, y, z'
loop_
 _atom_site_type_symbol
 _atom_site_label
 _atom_site_symmetry_multiplicity
 _atom_site_fract_x
 _atom_site_fract_y
 _atom_site_fract_z
 _atom_site_occupancy
  Ba  Ba0  1  0.75000000  0.73079596  0.50012763  1
  Ba  Ba1  1  0.25000000  0.67041173  0.79203398  1
  Ba  Ba2  1  0.75000000  0.02076410  0.37338463  1
  Ba  Ba3  1  0.25000000  0.52076410  0.12661537  1
  Ba  Ba4  1  0.75000000  0.44056021  0.43056803  1
  Ba  Ba5  1  0.25000000  0.26920404  0.49987237  1
  Ba  Ba6  1  0.75000000  0.85276043  0.75954062  1
  Ba  Ba7  1  0.75000000  0.64723957  0.25954062  1
  Ba  Ba8  1  0.75000000  0.17041173  0.70796602  1
  Ba  Ba9  1  0.75000000  0.05943979  0.93056803  1
  Ba  Ba10  1  0.25000000  0.97923590  0.62661437  1
  Ba  Ba11  1  0.75000000  0.47923590  0.87338563  1
  Ba  Ba12  1  0.75000000  0.32958827  0.20796602  1
  Ba  Ba13  1  0.25000000  0.94056021  0.06943197  1
  Ba  Ba14  1  0.25000000  0.23079596  0.99987237  1
  Ba  Ba15  1  0.25000000  0.82958827  0.29203398  1
  Ba  Ba16  1  0.25000000  0.35276043  0.74045938  1
  Ba  Ba17  1  0.25000000  0.55943979  0.56943197  1
  Ba  Ba18  1  0.75000000  0.76920404  0.00012763  1
  Ba  Ba19  1  0.25000000  0.14723957  0.24045938  1
  Ru  Ru0  1  0.75000000  0.43775936  0.65464290  1
  Ru  Ru1  1  0.25000000  0.93775936  0.84535710  1
  Ru  Ru2  1  0.25000000  0.37640236  0.30391077  1
  Ru  Ru3  1  0.25000000  0.12359764  0.80391077  1
  Ru  Ru4  1  0.75000000  0.87640236  0.19608923  1
  Ru  Ru5  1  0.25000000  0.56224064  0.34535710  1
  Ru  Ru6  1  0.75000000  0.62359764  0.69608923  1
  Ru  Ru7  1  0.75000000  0.06224064  0.15464290  1
  Cl  Cl0  1  0.25000000  0.44592318  0.92770674  1
  Cl  Cl1  1  0.75000000  0.94592318  0.57229326  1
  Cl  Cl2  1  0.75000000  0.55407682  0.07229326  1
  Cl  Cl3  1  0.25000000  0.68749816  0.99238493  1
  Cl  Cl4  1  0.25000000  0.81250184  0.49238493  1
  Cl  Cl5  1  0.75000000  0.18749816  0.50761507  1
  Cl  Cl6  1  0.75000000  0.31250184  0.00761507  1
  Cl  Cl7  1  0.25000000  0.05407682  0.42770674  1
  O  O0  1  0.51149333  0.11446209  0.09164707  1
  O  O1  1  0.02403793  0.20359743  0.84249180  1
  O  O2  1  0.47596207  0.29640257  0.34249180  1
  O  O3  1  0.25000000  0.64960837  0.25434415  1
  O  O4  1  0.25000000  0.33195663  0.18444354  1
  O  O5  1  0.75000000  0.94437999  0.07928234  1
  O  O6  1  0.75000000  0.66804337  0.81555646  1
  O  O7  1  0.47769193  0.01916771  0.77415693  1
  O  O8  1  0.75000000  0.14960837  0.24565585  1
  O  O9  1  0.97596207  0.79640257  0.15750820  1
  O  O10  1  0.25000000  0.05562001  0.92071766  1
  O  O11  1  0.75000000  0.35039163  0.74565585  1
  O  O12  1  0.25000000  0.85039163  0.75434415  1
  O  O13  1  0.52403793  0.70359743  0.65750820  1
  O  O14  1  0.98850667  0.11446209  0.09164707  1
  O  O15  1  0.47596207  0.20359743  0.84249180  1
  O  O16  1  0.52230807  0.98083229  0.22584307  1
  O  O17  1  0.51149333  0.38553791  0.59164707  1
  O  O18  1  0.52230807  0.51916771  0.72584307  1
  O  O19  1  0.01149333  0.61446209  0.40835293  1
  O  O20  1  0.48850667  0.61446209  0.40835293  1
  O  O21  1  0.98850667  0.38553791  0.59164707  1
  O  O22  1  0.02403793  0.29640257  0.34249180  1
  O  O23  1  0.01149333  0.88553791  0.90835293  1
  O  O24  1  0.02230807  0.48083229  0.27415693  1
  O  O25  1  0.97596207  0.70359743  0.65750820  1
  O  O26  1  0.02230807  0.01916771  0.77415693  1
  O  O27  1  0.52403793  0.79640257  0.15750820  1
  O  O28  1  0.97769193  0.98083229  0.22584307  1
  O  O29  1  0.75000000  0.55562001  0.57928234  1
  O  O30  1  0.25000000  0.44437999  0.42071766  1
  O  O31  1  0.48850667  0.88553791  0.90835293  1
  O  O32  1  0.47769193  0.48083229  0.27415693  1
  O  O33  1  0.75000000  0.83195663  0.31555646  1
  O  O34  1  0.97769193  0.51916771  0.72584307  1
  O  O35  1  0.25000000  0.16804337  0.68444354  1
loop_
_geom_bond_atom_site_label_1
_geom_bond_atom_site_label_2
_geom_bond_distance
_geom_bond_site_symmetry_2
Ba0 O20 2.683232 1_555
Ba0 O19 2.683232 1_655
Ba0 O29 2.783156 1_555
Ba0 O13 2.803836 1_555
Ba0 O25 2.803836 1_555
Ba0 O33 3.191854 1_555
Ba0 Cl4 3.207424 1_555
Ba0 Cl4 3.207424 1_655
Ba0 Cl1 3.267005 1_555
Ba1 O12 2.634684 1_555
Ba1 O25 2.684313 1_455
Ba1 O13 2.684313 1_555
Ba1 O34 2.889421 1_455
Ba1 O18 2.889421 1_555
Ba1 O6 3.007503 1_455
Ba1 O6 3.007503 1_555
Ba1 Cl3 3.099309 1_555
Ba2 O8 2.695230 1_555
Ba2 O16 2.711134 1_545
Ba2 O28 2.711134 1_545
Ba2 O33 2.839490 1_545
Ba2 Cl7 3.136935 1_555
Ba2 Cl7 3.136935 1_655
Ba2 Cl5 3.154753 1_555
Ba2 Cl1 3.248250 1_545
Ba3 O3 2.695230 1_555
Ba3 O24 2.711134 1_555
Ba3 O32 2.711134 1_555
Ba3 O4 2.839490 1_555
Ba3 Cl2 3.136935 1_555
Ba3 Cl2 3.136935 1_455
Ba3 Cl3 3.154753 1_554
Ba3 Cl0 3.248250 1_554
Ba4 O29 2.821084 1_555
Ba4 O19 2.953009 1_655
Ba4 O20 2.953009 1_555
Ba4 O22 2.959495 1_655
Ba4 O2 2.959495 1_555
Ba4 O24 2.965168 1_655
Ba4 O32 2.965168 1_555
Ba4 O17 2.969124 1_555
Ba4 O21 2.969124 1_555
Ba4 O30 2.989715 1_555
Ba4 O30 2.989715 1_655
Ba5 O17 2.683232 1_555
Ba5 O21 2.683232 1_455
Ba5 O30 2.783156 1_555
Ba5 O2 2.803836 1_555
Ba5 O22 2.803836 1_555
Ba5 O35 3.191854 1_555
Ba5 Cl5 3.207424 1_555
Ba5 Cl5 3.207424 1_455
Ba5 Cl7 3.267005 1_555
Ba6 O6 2.775276 1_555
Ba6 O23 2.814823 1_655
Ba6 O31 2.814823 1_555
Ba6 O7 2.887829 1_565
Ba6 O26 2.887829 1_665
Ba6 O13 2.971862 1_555
Ba6 O25 2.971862 1_555
Ba6 O12 2.986622 1_555
Ba6 O12 2.986622 1_655
Ba6 Cl1 3.179266 1_555
Ba7 O33 2.775276 1_555
Ba7 O19 2.814823 1_655
Ba7 O20 2.814823 1_555
Ba7 O24 2.887829 1_655
Ba7 O32 2.887829 1_555
Ba7 O27 2.971862 1_555
Ba7 O9 2.971862 1_555
Ba7 O3 2.986622 1_555
Ba7 O3 2.986622 1_655
Ba7 Cl2 3.179266 1_555
Ba8 O11 2.634684 1_555
Ba8 O15 2.684313 1_555
Ba8 O1 2.684313 1_655
Ba8 O7 2.889421 1_555
Ba8 O26 2.889421 1_655
Ba8 O35 3.007503 1_555
Ba8 O35 3.007503 1_655
Ba8 Cl5 3.099309 1_555
Ba9 O5 2.821084 1_546
Ba9 O31 2.953009 1_545
Ba9 O23 2.953009 1_645
Ba9 O15 2.959495 1_555
Ba9 O1 2.959495 1_655
Ba9 O7 2.965168 1_555
Ba9 O26 2.965168 1_655
Ba9 O14 2.969124 1_556
Ba9 O0 2.969124 1_556
Ba9 O10 2.989715 1_655
Ba9 O10 2.989715 1_555
Ba10 O12 2.695241 1_555
Ba10 O7 2.711146 1_565
Ba10 O26 2.711146 1_565
Ba10 O35 2.839494 1_565
Ba10 Cl1 3.136931 1_455
Ba10 Cl1 3.136931 1_555
Ba10 Cl4 3.154743 1_555
Ba10 Cl7 3.248235 1_565
Ba11 O11 2.695241 1_555
Ba11 O34 2.711146 1_555
Ba11 O18 2.711146 1_555
Ba11 O6 2.839494 1_555
Ba11 Cl0 3.136931 1_655
Ba11 Cl0 3.136931 1_555
Ba11 Cl6 3.154743 1_556
Ba11 Cl2 3.248235 1_556
Ba12 O8 2.634684 1_555
Ba12 O22 2.684313 1_655
Ba12 O2 2.684313 1_555
Ba12 O24 2.889421 1_655
Ba12 O32 2.889421 1_555
Ba12 O4 3.007503 1_655
Ba12 O4 3.007503 1_555
Ba12 Cl6 3.099309 1_555
Ba13 O10 2.821084 1_564
Ba13 O0 2.953009 1_565
Ba13 O14 2.953009 1_465
Ba13 O27 2.959495 1_555
Ba13 O9 2.959495 1_455
Ba13 O16 2.965168 1_555
Ba13 O28 2.965168 1_455
Ba13 O23 2.969124 1_554
Ba13 O31 2.969124 1_554
Ba13 O5 2.989715 1_555
Ba13 O5 2.989715 1_455
Ba14 O14 2.683232 1_456
Ba14 O0 2.683232 1_556
Ba14 O10 2.783156 1_555
Ba14 O15 2.803836 1_555
Ba14 O1 2.803836 1_555
Ba14 O4 3.191854 1_556
Ba14 Cl6 3.207424 1_556
Ba14 Cl6 3.207424 1_456
Ba14 Cl0 3.267005 1_555
Ba15 O3 2.634684 1_555
Ba15 O9 2.684313 1_455
Ba15 O27 2.684313 1_555
Ba15 O16 2.889421 1_555
Ba15 O28 2.889421 1_455
Ba15 O33 3.007503 1_455
Ba15 O33 3.007503 1_555
Ba15 Cl4 3.099309 1_555
Ba16 O35 2.775276 1_555
Ba16 O17 2.814823 1_555
Ba16 O21 2.814823 1_455
Ba16 O18 2.887829 1_555
Ba16 O34 2.887829 1_455
Ba16 O15 2.971862 1_555
Ba16 O1 2.971862 1_555
Ba16 O11 2.986622 1_455
Ba16 O11 2.986622 1_555
Ba16 Cl0 3.179266 1_555
Ba17 O30 2.821084 1_555
Ba17 O17 2.953009 1_555
Ba17 O21 2.953009 1_455
Ba17 O25 2.959495 1_455
Ba17 O13 2.959495 1_555
Ba17 O18 2.965168 1_555
Ba17 O34 2.965168 1_455
Ba17 O20 2.969124 1_555
Ba17 O19 2.969124 1_555
Ba17 O29 2.989715 1_455
Ba17 O29 2.989715 1_555
Ba18 O23 2.683232 1_654
Ba18 O31 2.683232 1_554
Ba18 O5 2.783156 1_555
Ba18 O27 2.803836 1_555
Ba18 O9 2.803836 1_555
Ba18 O6 3.191854 1_554
Ba18 Cl3 3.207424 1_554
Ba18 Cl3 3.207424 1_654
Ba18 Cl2 3.267005 1_555
Ba19 O4 2.775276 1_555
Ba19 O14 2.814823 1_455
Ba19 O0 2.814823 1_555
Ba19 O16 2.887829 1_545
Ba19 O28 2.887829 1_445
Ba19 O2 2.971862 1_555
Ba19 O22 2.971862 1_555
Ba19 O8 2.986622 1_455
Ba19 O8 2.986622 1_555
Ba19 Cl7 3.179266 1_555
O0 Ru7 1.878208 1_555
O1 Ru3 1.865190 1_555
O2 Ru2 1.865190 1_555
O3 Ru5 1.877782 1_555
O4 Ru2 1.948584 1_555
O5 Ru7 2.045125 1_565
O5 Ru4 2.046173 1_555
O6 Ru6 1.948584 1_555
O7 Ru3 2.069299 1_555
O7 Ru1 2.098782 1_545
O8 Ru7 1.877782 1_555
O9 Ru4 1.865190 1_555
O10 Ru1 2.045125 1_545
O10 Ru3 2.046173 1_555
O11 Ru0 1.877782 1_555
O12 Ru1 1.877782 1_555
O13 Ru6 1.865190 1_555
O14 Ru7 1.878208 1_555
O15 Ru3 1.865190 1_555
O16 Ru4 2.069299 1_555
O16 Ru7 2.098782 1_565
O17 Ru0 1.878208 1_555
O18 Ru6 2.069299 1_555
O18 Ru0 2.098782 1_555
O19 Ru5 1.878208 1_555
O20 Ru5 1.878208 1_555
O21 Ru0 1.878208 1_555
O22 Ru2 1.865190 1_555
O23 Ru1 1.878208 1_555
O24 Ru2 2.069299 1_555
O24 Ru5 2.098782 1_555
O25 Ru6 1.865190 1_555
O26 Ru3 2.069299 1_555
O26 Ru1 2.098782 1_545
O27 Ru4 1.865190 1_555
O28 Ru4 2.069299 1_555
O28 Ru7 2.098782 1_565
O29 Ru0 2.045125 1_555
O29 Ru6 2.046173 1_555
O30 Ru5 2.045125 1_555
O30 Ru2 2.046173 1_555
O31 Ru1 1.878208 1_555
O32 Ru2 2.069299 1_555
O32 Ru5 2.098782 1_555
O33 Ru4 1.948584 1_555
O34 Ru6 2.069299 1_555
O34 Ru0 2.098782 1_555
O35 Ru3 1.948584 1_555
