# generated using pymatgen
data_IClOF
_symmetry_space_group_name_H-M   'P 1'
_cell_length_a   7.27602100
_cell_length_b   8.08811500
_cell_length_c   13.08189147
_cell_angle_alpha   85.38630673
_cell_angle_beta   90.00000000
_cell_angle_gamma   90.00000000
_symmetry_Int_Tables_number   1
_chemical_formula_structural   IClOF
_chemical_formula_sum   'I8 Cl8 O8 F8'
_cell_volume   767.36549451
_cell_formula_units_Z   8
loop_
 _symmetry_equiv_pos_site_id
 _symmetry_equiv_pos_as_xyz
  1  'x, y, z'
loop_
 _atom_site_type_symbol
 _atom_site_label
 _atom_site_symmetry_multiplicity
 _atom_site_fract_x
 _atom_site_fract_y
 _atom_site_fract_z
 _atom_site_occupancy
  I  I0  1  0.39650300  0.32106500  0.58834600  1
  I  I1  1  0.45107800  0.64435800  0.77687700  1
  I  I2  1  0.54892200  0.35564200  0.22312300  1
  I  I3  1  0.04892200  0.14435800  0.77687700  1
  I  I4  1  0.89650300  0.17893500  0.41165400  1
  I  I5  1  0.95107800  0.85564200  0.22312300  1
  I  I6  1  0.60349700  0.67893500  0.41165400  1
  I  I7  1  0.10349700  0.82106500  0.58834600  1
  Cl  Cl0  1  0.23703400  0.95982000  0.15726700  1
  Cl  Cl1  1  0.12039100  0.28526500  0.92440600  1
  Cl  Cl2  1  0.37960900  0.78526500  0.92440600  1
  Cl  Cl3  1  0.62039100  0.21473500  0.07559400  1
  Cl  Cl4  1  0.26296600  0.45982000  0.15726700  1
  Cl  Cl5  1  0.73703400  0.54018000  0.84273300  1
  Cl  Cl6  1  0.87960900  0.71473500  0.07559400  1
  Cl  Cl7  1  0.76296600  0.04018000  0.84273300  1
  O  O0  1  0.97488400  0.96759800  0.38995400  1
  O  O1  1  0.47488400  0.53240200  0.61004600  1
  O  O2  1  0.34437800  0.23561100  0.71857200  1
  O  O3  1  0.15562200  0.73561100  0.71857200  1
  O  O4  1  0.02511600  0.03240200  0.61004600  1
  O  O5  1  0.52511600  0.46759800  0.38995400  1
  O  O6  1  0.84437800  0.26438900  0.28142800  1
  O  O7  1  0.65562200  0.76438900  0.28142800  1
  F  F0  1  0.85739100  0.58528100  0.42412800  1
  F  F1  1  0.64260900  0.08528100  0.42412800  1
  F  F2  1  0.84728600  0.74770800  0.60903600  1
  F  F3  1  0.15271400  0.25229200  0.39096400  1
  F  F4  1  0.35739100  0.91471900  0.57587200  1
  F  F5  1  0.34728600  0.75229200  0.39096400  1
  F  F6  1  0.14260900  0.41471900  0.57587200  1
  F  F7  1  0.65271400  0.24770800  0.60903600  1
loop_
_geom_bond_atom_site_label_1
_geom_bond_atom_site_label_2
_geom_bond_distance
_geom_bond_site_symmetry_2
I0 O2 1.826029 1_555
I0 O1 1.845443 1_555
I1 O3 2.378518 1_555
I1 O1 2.435372 1_555
I2 O6 2.378518 1_555
I2 O5 2.435372 1_555
I3 O2 2.378518 1_555
I3 O4 2.435372 1_555
I4 O6 1.826029 1_555
I4 O0 1.845443 1_545
I5 O7 2.378518 1_555
I5 O0 2.435372 1_555
I6 O7 1.826029 1_555
I6 O5 1.845443 1_555
I7 O3 1.826029 1_555
I7 O4 1.845443 1_565
Cl0 I5 2.380001 1_455
Cl1 I3 2.376520 1_555
Cl2 I1 2.376520 1_555
Cl3 I2 2.376520 1_555
Cl4 I2 2.380001 1_555
Cl5 I1 2.380001 1_555
Cl6 I5 2.376520 1_555
Cl7 I3 2.380001 1_655
F0 I6 1.998295 1_555
F1 I4 1.998295 1_555
F2 I7 1.968421 1_655
F3 I4 1.968421 1_455
F4 I7 1.998295 1_555
F5 I6 1.968421 1_555
F6 I0 1.998295 1_555
F7 I0 1.968421 1_555
