# generated using pymatgen
data_Ni6P7O24
_symmetry_space_group_name_H-M   'P 1'
_cell_length_a   26.39932300
_cell_length_b   5.24866900
_cell_length_c   6.38973526
_cell_angle_alpha   72.79679118
_cell_angle_beta   90.00000000
_cell_angle_gamma   90.00000000
_symmetry_Int_Tables_number   1
_chemical_formula_structural   Ni6P7O24
_chemical_formula_sum   'Ni12 P14 O48'
_cell_volume   845.76021259
_cell_formula_units_Z   2
loop_
 _symmetry_equiv_pos_site_id
 _symmetry_equiv_pos_as_xyz
  1  'x, y, z'
loop_
 _atom_site_type_symbol
 _atom_site_label
 _atom_site_symmetry_multiplicity
 _atom_site_fract_x
 _atom_site_fract_y
 _atom_site_fract_z
 _atom_site_occupancy
  Ni  Ni0  1  0.90165300  0.79788100  0.08842800  1
  Ni  Ni1  1  0.18608500  0.88028300  0.27427300  1
  Ni  Ni2  1  0.54875800  0.19261000  0.31018800  1
  Ni  Ni3  1  0.95124200  0.19261000  0.31018800  1
  Ni  Ni4  1  0.09834700  0.20211900  0.91157200  1
  Ni  Ni5  1  0.31391500  0.88028300  0.27427300  1
  Ni  Ni6  1  0.68608500  0.11971700  0.72572700  1
  Ni  Ni7  1  0.81391500  0.11971700  0.72572700  1
  Ni  Ni8  1  0.45124200  0.80739000  0.68981200  1
  Ni  Ni9  1  0.40165300  0.20211900  0.91157200  1
  Ni  Ni10  1  0.59834700  0.79788100  0.08842800  1
  Ni  Ni11  1  0.04875800  0.80739000  0.68981200  1
  P  P0  1  0.11053100  0.31597100  0.38182200  1
  P  P1  1  0.38946900  0.31597100  0.38182200  1
  P  P2  1  0.16810900  0.75429200  0.80366100  1
  P  P3  1  0.47596100  0.70912400  0.20498900  1
  P  P4  1  0.25000000  0.45686700  0.09888100  1
  P  P5  1  0.66810900  0.24570800  0.19633900  1
  P  P6  1  0.88946900  0.68402900  0.61817800  1
  P  P7  1  0.97596100  0.29087600  0.79501100  1
  P  P8  1  0.83189100  0.24570800  0.19633900  1
  P  P9  1  0.52403900  0.29087600  0.79501100  1
  P  P10  1  0.61053100  0.68402900  0.61817800  1
  P  P11  1  0.33189100  0.75429200  0.80366100  1
  P  P12  1  0.02403900  0.70912400  0.20498900  1
  P  P13  1  0.75000000  0.54313300  0.90111900  1
  O  O0  1  0.75000000  0.83814500  0.78393700  1
  O  O1  1  0.25000000  0.16185500  0.21606300  1
  O  O2  1  0.75000000  0.34267500  0.77125600  1
  O  O3  1  0.44251600  0.44814700  0.28674900  1
  O  O4  1  0.11815500  0.60511100  0.78793200  1
  O  O5  1  0.09506600  0.13868700  0.61206200  1
  O  O6  1  0.66312800  0.05980800  0.05026800  1
  O  O7  1  0.54809100  0.12150800  0.01152700  1
  O  O8  1  0.12301400  0.14290900  0.23136200  1
  O  O9  1  0.47265500  0.41293800  0.82870200  1
  O  O10  1  0.16312800  0.94019200  0.94973200  1
  O  O11  1  0.62301400  0.85709100  0.76863800  1
  O  O12  1  0.83687200  0.05980800  0.05026800  1
  O  O13  1  0.02302900  0.85985100  0.37610800  1
  O  O14  1  0.14950400  0.52184600  0.38438100  1
  O  O15  1  0.33687200  0.94019200  0.94973200  1
  O  O16  1  0.29731900  0.50546700  0.93956900  1
  O  O17  1  0.85049600  0.47815400  0.61561900  1
  O  O18  1  0.70268100  0.49453300  0.06043100  1
  O  O19  1  0.25000000  0.65732500  0.22874400  1
  O  O20  1  0.80711500  0.11359700  0.41327900  1
  O  O21  1  0.88184500  0.39488900  0.21206800  1
  O  O22  1  0.97697100  0.14014900  0.62389200  1
  O  O23  1  0.79731900  0.49453300  0.06043100  1
  O  O24  1  0.20268100  0.50546700  0.93956900  1
  O  O25  1  0.45190900  0.87849200  0.98847300  1
  O  O26  1  0.97265500  0.58706200  0.17129800  1
  O  O27  1  0.69288500  0.11359700  0.41327900  1
  O  O28  1  0.35049600  0.52184600  0.38438100  1
  O  O29  1  0.47697100  0.85985100  0.37610800  1
  O  O30  1  0.87698600  0.85709100  0.76863800  1
  O  O31  1  0.38184500  0.60511100  0.78793200  1
  O  O32  1  0.04809100  0.87849200  0.98847300  1
  O  O33  1  0.05748400  0.44814700  0.28674900  1
  O  O34  1  0.59506600  0.86131300  0.38793800  1
  O  O35  1  0.52734500  0.58706200  0.17129800  1
  O  O36  1  0.52302900  0.14014900  0.62389200  1
  O  O37  1  0.64950400  0.47815400  0.61561900  1
  O  O38  1  0.19288500  0.88640300  0.58672100  1
  O  O39  1  0.37698600  0.14290900  0.23136200  1
  O  O40  1  0.94251600  0.55185300  0.71325100  1
  O  O41  1  0.95190900  0.12150800  0.01152700  1
  O  O42  1  0.02734500  0.41293800  0.82870200  1
  O  O43  1  0.30711500  0.88640300  0.58672100  1
  O  O44  1  0.61815500  0.39488900  0.21206800  1
  O  O45  1  0.55748400  0.55185300  0.71325100  1
  O  O46  1  0.40493400  0.13868700  0.61206200  1
  O  O47  1  0.90493400  0.86131300  0.38793800  1
loop_
_geom_bond_atom_site_label_1
_geom_bond_atom_site_label_2
_geom_bond_distance
_geom_bond_site_symmetry_2
Ni0 O47 2.039077 1_555
Ni0 O30 2.078551 1_554
Ni0 O21 2.093580 1_555
Ni0 O41 2.095998 1_565
Ni0 O26 2.161384 1_555
Ni0 O12 2.162372 1_565
Ni1 O38 2.014211 1_555
Ni1 O14 2.045483 1_555
Ni1 O10 2.093040 1_554
Ni1 O19 2.121905 1_555
Ni1 O8 2.126977 1_565
Ni1 O1 2.200986 1_565
Ni2 O7 2.050051 1_555
Ni2 O36 2.056368 1_555
Ni2 O34 2.062518 1_545
Ni2 O35 2.075246 1_555
Ni2 O44 2.117282 1_555
Ni2 O29 2.526693 1_545
Ni3 O41 2.050051 1_555
Ni3 O22 2.056368 1_555
Ni3 O47 2.062518 1_545
Ni3 O26 2.075246 1_555
Ni3 O21 2.117282 1_555
Ni3 O13 2.526693 1_645
Ni4 O5 2.039077 1_555
Ni4 O8 2.078551 1_556
Ni4 O4 2.093580 1_555
Ni4 O32 2.095998 1_545
Ni4 O42 2.161384 1_555
Ni4 O10 2.162372 1_545
Ni5 O43 2.014211 1_555
Ni5 O28 2.045483 1_555
Ni5 O15 2.093040 1_554
Ni5 O19 2.121905 1_555
Ni5 O39 2.126977 1_565
Ni5 O1 2.200986 1_565
Ni6 O27 2.014211 1_555
Ni6 O37 2.045483 1_555
Ni6 O6 2.093040 1_556
Ni6 O2 2.121905 1_555
Ni6 O11 2.126977 1_545
Ni6 O0 2.200986 1_545
Ni7 O20 2.014211 1_555
Ni7 O17 2.045483 1_555
Ni7 O12 2.093040 1_556
Ni7 O2 2.121905 1_555
Ni7 O30 2.126977 1_545
Ni7 O0 2.200986 1_545
Ni8 O25 2.050051 1_555
Ni8 O29 2.056368 1_555
Ni8 O46 2.062518 1_565
Ni8 O9 2.075246 1_555
Ni8 O31 2.117282 1_555
Ni8 O36 2.526693 1_565
Ni9 O46 2.039077 1_555
Ni9 O39 2.078551 1_556
Ni9 O31 2.093580 1_555
Ni9 O25 2.095998 1_545
Ni9 O9 2.161384 1_555
Ni9 O15 2.162372 1_545
Ni10 O34 2.039077 1_555
Ni10 O11 2.078551 1_554
Ni10 O44 2.093580 1_555
Ni10 O7 2.095998 1_565
Ni10 O35 2.161384 1_555
Ni10 O6 2.162372 1_565
Ni11 O32 2.050051 1_555
Ni11 O13 2.056368 1_555
Ni11 O5 2.062518 1_565
Ni11 O42 2.075246 1_555
Ni11 O4 2.117282 1_555
Ni11 O22 2.526693 1_465
O0 P13 1.507461 1_555
O1 P4 1.507461 1_555
O2 P13 1.520519 1_555
O3 P3 1.582874 1_555
O3 P1 1.600678 1_555
O4 P2 1.552047 1_555
O5 P0 1.545029 1_555
O6 P5 1.542461 1_555
O7 P9 1.542707 1_554
O8 P0 1.540956 1_555
O9 P9 1.542231 1_555
O10 P2 1.542461 1_555
O11 P10 1.540956 1_555
O12 P8 1.542461 1_555
O13 P12 1.527673 1_555
O14 P0 1.495628 1_555
O15 P11 1.542461 1_555
O16 P4 1.583727 1_556
O16 P11 1.619224 1_555
O17 P6 1.495628 1_555
O18 P13 1.583727 1_554
O18 P5 1.619224 1_555
O19 P4 1.520519 1_555
O20 P8 1.503853 1_555
O21 P8 1.552047 1_555
O22 P7 1.527673 1_555
O23 P13 1.583727 1_554
O23 P8 1.619224 1_555
O24 P4 1.583727 1_556
O24 P2 1.619224 1_555
O25 P3 1.542707 1_556
O26 P12 1.542231 1_655
O27 P5 1.503853 1_555
O28 P1 1.495628 1_555
O29 P3 1.527673 1_555
O30 P6 1.540956 1_555
O31 P11 1.552047 1_555
O32 P12 1.542707 1_556
O33 P12 1.582874 1_555
O33 P0 1.600678 1_555
O34 P10 1.545029 1_555
O35 P3 1.542231 1_555
O36 P9 1.527673 1_555
O37 P10 1.495628 1_555
O38 P2 1.503853 1_555
O39 P1 1.540956 1_555
O40 P7 1.582874 1_555
O40 P6 1.600678 1_555
O41 P7 1.542707 1_554
O42 P7 1.542231 1_455
O43 P11 1.503853 1_555
O44 P5 1.552047 1_555
O45 P9 1.582874 1_555
O45 P10 1.600678 1_555
O46 P1 1.545029 1_555
O47 P6 1.545029 1_555
