# generated using pymatgen
data_KV3Cd4O12
_symmetry_space_group_name_H-M   'P 1'
_cell_length_a   9.52290433
_cell_length_b   9.52290433
_cell_length_c   7.20575116
_cell_angle_alpha   72.88665508
_cell_angle_beta   72.88665508
_cell_angle_gamma   92.45774198
_symmetry_Int_Tables_number   1
_chemical_formula_structural   KV3Cd4O12
_chemical_formula_sum   'K2 V6 Cd8 O24'
_cell_volume   590.84849940
_cell_formula_units_Z   2
loop_
 _symmetry_equiv_pos_site_id
 _symmetry_equiv_pos_as_xyz
  1  'x, y, z'
loop_
 _atom_site_type_symbol
 _atom_site_label
 _atom_site_symmetry_multiplicity
 _atom_site_fract_x
 _atom_site_fract_y
 _atom_site_fract_z
 _atom_site_occupancy
  K  K0  1  0.03247800  0.96868700  0.24897000  1
  K  K1  1  0.96868700  0.03247800  0.74897000  1
  V  V0  1  0.13036600  0.34712500  0.86302100  1
  V  V1  1  0.65508400  0.87919400  0.63650100  1
  V  V2  1  0.70456300  0.29878800  0.74922800  1
  V  V3  1  0.87919400  0.65508400  0.13650100  1
  V  V4  1  0.29878800  0.70456300  0.24922800  1
  V  V5  1  0.34712500  0.13036600  0.36302100  1
  Cd  Cd0  1  0.26881300  0.73847100  0.74238800  1
  Cd  Cd1  1  0.47638300  0.48924700  0.96207400  1
  Cd  Cd2  1  0.73847100  0.26881300  0.24238800  1
  Cd  Cd3  1  0.93831900  0.62226800  0.64721600  1
  Cd  Cd4  1  0.48924700  0.47638300  0.46207400  1
  Cd  Cd5  1  0.38404700  0.06280100  0.85339000  1
  Cd  Cd6  1  0.06280100  0.38404700  0.35339000  1
  Cd  Cd7  1  0.62226800  0.93831900  0.14721600  1
  O  O0  1  0.82952400  0.83094200  0.62052700  1
  O  O1  1  0.72165400  0.51924800  0.21121100  1
  O  O2  1  0.47721500  0.29689200  0.29194600  1
  O  O3  1  0.17211000  0.17441100  0.37630400  1
  O  O4  1  0.18242800  0.73297600  0.46878800  1
  O  O5  1  0.33112700  0.99696200  0.59809000  1
  O  O6  1  0.52382100  0.28812600  0.72834200  1
  O  O7  1  0.29689200  0.47721500  0.79194600  1
  O  O8  1  0.96832500  0.60960000  0.32032700  1
  O  O9  1  0.73297600  0.18242800  0.96878800  1
  O  O10  1  0.99696200  0.33112700  0.09809000  1
  O  O11  1  0.28812600  0.52382100  0.22834200  1
  O  O12  1  0.67007100  0.01235800  0.39920600  1
  O  O13  1  0.83094200  0.82952400  0.12052700  1
  O  O14  1  0.47635400  0.71757900  0.27352800  1
  O  O15  1  0.04679100  0.39982000  0.67540200  1
  O  O16  1  0.27281700  0.82221800  0.03014200  1
  O  O17  1  0.39982000  0.04679100  0.17540200  1
  O  O18  1  0.17441100  0.17211000  0.87630400  1
  O  O19  1  0.71757900  0.47635400  0.77352800  1
  O  O20  1  0.60960000  0.96832500  0.82032700  1
  O  O21  1  0.01235800  0.67007100  0.89920600  1
  O  O22  1  0.82221800  0.27281700  0.53014200  1
  O  O23  1  0.51924800  0.72165400  0.71121100  1
loop_
_geom_bond_atom_site_label_1
_geom_bond_atom_site_label_2
_geom_bond_distance
_geom_bond_site_symmetry_2
K0 O0 2.700841 1_455
K0 O18 2.714484 1_564
K0 O13 2.800949 1_455
K0 O3 2.828520 1_565
K0 O4 3.016625 1_555
K0 O16 3.019000 1_555
K1 O13 2.700841 1_546
K1 O3 2.714484 1_655
K1 O0 2.800949 1_545
K1 O18 2.828520 1_655
K1 O9 3.016625 1_555
K1 O22 3.019000 1_555
Cd0 O21 2.339175 1_555
Cd0 O5 2.344767 1_555
Cd0 O23 2.345705 1_555
Cd0 O4 2.361729 1_555
Cd0 O16 2.440071 1_556
Cd0 O7 2.445226 1_555
Cd1 O11 2.324152 1_556
Cd1 O19 2.328607 1_555
Cd1 O23 2.337991 1_555
Cd1 O7 2.395130 1_555
Cd1 O2 2.540732 1_556
Cd2 O12 2.339175 1_555
Cd2 O10 2.344767 1_555
Cd2 O1 2.345705 1_555
Cd2 O9 2.361729 1_554
Cd2 O22 2.440071 1_555
Cd2 O2 2.445226 1_555
Cd3 O19 2.248807 1_555
Cd3 O0 2.264551 1_555
Cd3 O21 2.283372 1_655
Cd3 O4 2.324113 1_655
Cd3 O8 2.327781 1_555
Cd3 O15 2.377734 1_655
Cd4 O6 2.324152 1_555
Cd4 O14 2.328607 1_555
Cd4 O1 2.337991 1_555
Cd4 O2 2.395130 1_555
Cd4 O7 2.540732 1_555
Cd5 O6 2.258131 1_555
Cd5 O18 2.276311 1_555
Cd5 O5 2.286619 1_545
Cd5 O16 2.296439 1_546
Cd5 O17 2.329948 1_556
Cd5 O20 2.338904 1_545
Cd6 O11 2.258131 1_555
Cd6 O3 2.276311 1_555
Cd6 O10 2.286619 1_455
Cd6 O22 2.296439 1_455
Cd6 O15 2.329948 1_555
Cd6 O8 2.338904 1_455
Cd7 O14 2.248807 1_555
Cd7 O13 2.264551 1_555
Cd7 O12 2.283372 1_565
Cd7 O9 2.324113 1_564
Cd7 O20 2.327781 1_554
Cd7 O17 2.377734 1_565
O0 V1 1.722775 1_555
O1 V3 1.778262 1_555
O2 V5 1.814368 1_555
O3 V5 1.718288 1_555
O4 V4 1.746422 1_555
O5 V5 1.752524 1_565
O6 V2 1.772542 1_555
O7 V0 1.814368 1_555
O8 V3 1.737291 1_555
O9 V2 1.746422 1_555
O10 V0 1.752524 1_654
O11 V4 1.772542 1_555
O12 V1 1.765483 1_545
O13 V3 1.722775 1_555
O14 V4 1.753387 1_555
O15 V0 1.726612 1_555
O16 V4 1.738190 1_555
O17 V5 1.726612 1_555
O18 V0 1.718288 1_555
O19 V2 1.753387 1_555
O20 V1 1.737291 1_555
O21 V3 1.765483 1_456
O22 V2 1.738190 1_555
O23 V1 1.778262 1_555
