# generated using pymatgen
data_Er3O2F5
_symmetry_space_group_name_H-M   'P 1'
_cell_length_a   5.29668432
_cell_length_b   5.55242335
_cell_length_c   16.89802247
_cell_angle_alpha   90.00000000
_cell_angle_beta   90.00000000
_cell_angle_gamma   90.00000000
_symmetry_Int_Tables_number   1
_chemical_formula_structural   Er3O2F5
_chemical_formula_sum   'Er12 O8 F20'
_cell_volume   496.96127142
_cell_formula_units_Z   4
loop_
 _symmetry_equiv_pos_site_id
 _symmetry_equiv_pos_as_xyz
  1  'x, y, z'
loop_
 _atom_site_type_symbol
 _atom_site_label
 _atom_site_symmetry_multiplicity
 _atom_site_fract_x
 _atom_site_fract_y
 _atom_site_fract_z
 _atom_site_occupancy
  Er  Er0  1  0.03810861  0.32553575  0.40268490  1
  Er  Er1  1  0.96189139  0.67446425  0.59731510  1
  Er  Er2  1  0.53810861  0.17446425  0.90268490  1
  Er  Er3  1  0.03810861  0.32553575  0.09731510  1
  Er  Er4  1  0.45815873  0.26185531  0.25000000  1
  Er  Er5  1  0.53810861  0.17446425  0.59731510  1
  Er  Er6  1  0.95815873  0.23814469  0.75000000  1
  Er  Er7  1  0.96189139  0.67446425  0.90268490  1
  Er  Er8  1  0.04184127  0.76185531  0.25000000  1
  Er  Er9  1  0.46189139  0.82553575  0.40268490  1
  Er  Er10  1  0.46189139  0.82553575  0.09731510  1
  Er  Er11  1  0.54184127  0.73814469  0.75000000  1
  O  O0  1  0.70282600  0.46250970  0.66843800  1
  O  O1  1  0.29717400  0.53749030  0.16843800  1
  O  O2  1  0.79717400  0.96250970  0.83156200  1
  O  O3  1  0.20282600  0.03749030  0.16843800  1
  O  O4  1  0.79717400  0.96250970  0.66843800  1
  O  O5  1  0.70282600  0.46250970  0.83156200  1
  O  O6  1  0.20282600  0.03749030  0.33156200  1
  O  O7  1  0.29717400  0.53749030  0.33156200  1
  F  F0  1  0.86198517  0.38566808  0.25000000  1
  F  F1  1  0.36198517  0.11433192  0.75000000  1
  F  F2  1  0.28481644  0.11630105  0.48623805  1
  F  F3  1  0.67332221  0.16392419  0.37382911  1
  F  F4  1  0.32667779  0.83607581  0.62617089  1
  F  F5  1  0.17332221  0.33607581  0.87382911  1
  F  F6  1  0.28481644  0.11630105  0.01376195  1
  F  F7  1  0.71518356  0.88369895  0.51376195  1
  F  F8  1  0.21518356  0.61630105  0.01376195  1
  F  F9  1  0.82667779  0.66392419  0.12617089  1
  F  F10  1  0.71518356  0.88369895  0.98623805  1
  F  F11  1  0.63801483  0.88566808  0.25000000  1
  F  F12  1  0.67332221  0.16392419  0.12617089  1
  F  F13  1  0.78481644  0.38369895  0.98623805  1
  F  F14  1  0.17332221  0.33607581  0.62617089  1
  F  F15  1  0.32667779  0.83607581  0.87382911  1
  F  F16  1  0.78481644  0.38369895  0.51376195  1
  F  F17  1  0.21518356  0.61630105  0.48623805  1
  F  F18  1  0.13801483  0.61433192  0.75000000  1
  F  F19  1  0.82667779  0.66392419  0.37382911  1
loop_
_geom_bond_atom_site_label_1
_geom_bond_atom_site_label_2
_geom_bond_distance
_geom_bond_site_symmetry_2
Er0 O7 2.170786 1_555
Er0 O6 2.182547 1_555
Er0 F3 2.185454 1_455
Er0 F19 2.240998 1_455
Er0 F2 2.247365 1_555
Er0 F16 2.329651 1_455
Er0 F17 2.340843 1_555
Er1 O0 2.170786 1_555
Er1 O4 2.182547 1_555
Er1 F4 2.185454 1_655
Er1 F14 2.240998 1_655
Er1 F7 2.247365 1_555
Er1 F17 2.329651 1_655
Er1 F16 2.340843 1_555
Er2 O2 2.170786 1_545
Er2 O5 2.182547 1_555
Er2 F5 2.185454 1_555
Er2 F15 2.240998 1_545
Er2 F13 2.247365 1_555
Er2 F6 2.329651 1_556
Er2 F10 2.340843 1_545
Er3 O1 2.170786 1_555
Er3 O3 2.182547 1_555
Er3 F12 2.185454 1_455
Er3 F9 2.240998 1_455
Er3 F6 2.247365 1_555
Er3 F13 2.329651 1_454
Er3 F8 2.340843 1_555
Er4 O1 2.229094 1_555
Er4 O7 2.229094 1_555
Er4 F0 2.246702 1_555
Er4 F11 2.295736 1_545
Er4 O3 2.297936 1_555
Er4 O6 2.297936 1_555
Er4 F12 2.443951 1_555
Er4 F3 2.443951 1_555
Er5 O4 2.170786 1_545
Er5 O0 2.182547 1_555
Er5 F14 2.185454 1_555
Er5 F4 2.240998 1_545
Er5 F16 2.247365 1_555
Er5 F2 2.329651 1_555
Er5 F7 2.340843 1_545
Er6 O4 2.229094 1_545
Er6 O2 2.229094 1_545
Er6 F1 2.246702 1_655
Er6 F18 2.295736 1_655
Er6 O0 2.297936 1_555
Er6 O5 2.297936 1_555
Er6 F5 2.443951 1_655
Er6 F14 2.443951 1_655
Er7 O5 2.170786 1_555
Er7 O2 2.182547 1_555
Er7 F15 2.185454 1_655
Er7 F5 2.240998 1_655
Er7 F10 2.247365 1_555
Er7 F8 2.329651 1_656
Er7 F13 2.340843 1_555
Er8 O3 2.229094 1_565
Er8 O6 2.229094 1_565
Er8 F11 2.246702 1_455
Er8 F0 2.295736 1_455
Er8 O7 2.297936 1_555
Er8 O1 2.297936 1_555
Er8 F9 2.443951 1_455
Er8 F19 2.443951 1_455
Er9 O6 2.170786 1_565
Er9 O7 2.182547 1_555
Er9 F19 2.185454 1_555
Er9 F3 2.240998 1_565
Er9 F17 2.247365 1_555
Er9 F7 2.329651 1_555
Er9 F2 2.340843 1_565
Er10 O3 2.170786 1_565
Er10 O1 2.182547 1_555
Er10 F9 2.185454 1_555
Er10 F12 2.240998 1_565
Er10 F8 2.247365 1_555
Er10 F10 2.329651 1_554
Er10 F6 2.340843 1_565
Er11 O0 2.229094 1_555
Er11 O5 2.229094 1_555
Er11 F18 2.246702 1_555
Er11 F1 2.295736 1_565
Er11 O4 2.297936 1_555
Er11 O2 2.297936 1_555
Er11 F4 2.443951 1_555
Er11 F15 2.443951 1_555
