# generated using pymatgen
data_CsTiCu3Se4
_symmetry_space_group_name_H-M   'P 1'
_cell_length_a   7.85482000
_cell_length_b   5.82540700
_cell_length_c   10.39528079
_cell_angle_alpha   73.69938122
_cell_angle_beta   90.00000000
_cell_angle_gamma   90.00000000
_symmetry_Int_Tables_number   1
_chemical_formula_structural   CsTiCu3Se4
_chemical_formula_sum   'Cs2 Ti2 Cu6 Se8'
_cell_volume   456.54175469
_cell_formula_units_Z   2
loop_
 _symmetry_equiv_pos_site_id
 _symmetry_equiv_pos_as_xyz
  1  'x, y, z'
loop_
 _atom_site_type_symbol
 _atom_site_label
 _atom_site_symmetry_multiplicity
 _atom_site_fract_x
 _atom_site_fract_y
 _atom_site_fract_z
 _atom_site_occupancy
  Cs  Cs0  1  0.25000000  0.17841900  0.62199000  1
  Cs  Cs1  1  0.75000000  0.82158100  0.37801000  1
  Ti  Ti0  1  0.75000000  0.35195800  0.79468300  1
  Ti  Ti1  1  0.25000000  0.64804200  0.20531700  1
  Cu  Cu0  1  0.50577800  0.72210400  0.99786700  1
  Cu  Cu1  1  0.75000000  0.85009800  0.80033900  1
  Cu  Cu2  1  0.25000000  0.14990200  0.19966100  1
  Cu  Cu3  1  0.49422200  0.27789600  0.00213300  1
  Cu  Cu4  1  0.00577800  0.27789600  0.00213300  1
  Cu  Cu5  1  0.99422200  0.72210400  0.99786700  1
  Se  Se0  1  0.49688200  0.59771100  0.78921900  1
  Se  Se1  1  0.99688200  0.40228900  0.21078100  1
  Se  Se2  1  0.00311800  0.59771100  0.78921900  1
  Se  Se3  1  0.50311800  0.40228900  0.21078100  1
  Se  Se4  1  0.25000000  0.98208900  0.99691600  1
  Se  Se5  1  0.75000000  0.01791100  0.00308400  1
  Se  Se6  1  0.25000000  0.79822700  0.39381400  1
  Se  Se7  1  0.75000000  0.20177300  0.60618600  1
loop_
_geom_bond_atom_site_label_1
_geom_bond_atom_site_label_2
_geom_bond_distance
_geom_bond_site_symmetry_2
Cs0 Se6 3.671562 1_545
Cs0 Se6 3.722265 1_555
Cs0 Se4 3.741123 1_545
Cs0 Se2 3.863305 1_545
Cs0 Se0 3.863305 1_545
Cs0 Se2 3.890008 1_555
Cs0 Se0 3.890008 1_555
Cs0 Se7 3.931603 1_555
Cs0 Se7 3.931603 1_455
Cs1 Se7 3.671562 1_565
Cs1 Se7 3.722265 1_555
Cs1 Se5 3.741123 1_565
Cs1 Se3 3.863305 1_565
Cs1 Se1 3.863305 1_565
Cs1 Se3 3.890008 1_555
Cs1 Se1 3.890008 1_555
Cs1 Se6 3.931603 1_555
Cs1 Se6 3.931603 1_655
Cu0 Se3 2.460764 1_556
Cu0 Se0 2.473183 1_555
Cu0 Se4 2.514339 1_555
Cu0 Se5 2.589355 1_566
Cu1 Se7 2.439128 1_565
Cu1 Se2 2.494664 1_655
Cu1 Se0 2.494664 1_555
Cu1 Se5 2.560113 1_566
Cu2 Se6 2.439128 1_545
Cu2 Se3 2.494664 1_555
Cu2 Se1 2.494664 1_455
Cu2 Se4 2.560113 1_544
Cu3 Se0 2.460764 1_554
Cu3 Se3 2.473183 1_555
Cu3 Se5 2.514339 1_555
Cu3 Se4 2.589355 1_544
Cu4 Se2 2.460764 1_554
Cu4 Se1 2.473183 1_455
Cu4 Se5 2.514339 1_455
Cu4 Se4 2.589355 1_544
Cu5 Se1 2.460764 1_556
Cu5 Se2 2.473183 1_655
Cu5 Se4 2.514339 1_655
Cu5 Se5 2.589355 1_566
Se0 Ti0 2.441314 1_555
Se1 Ti1 2.441314 1_655
Se2 Ti0 2.441314 1_455
Se3 Ti1 2.441314 1_555
Se4 Ti1 2.472547 1_556
Se5 Ti0 2.472547 1_554
Se6 Ti1 2.359520 1_555
Se7 Ti0 2.359520 1_555
