# generated using pymatgen
data_ZrS4(N2Cl3)2
_symmetry_space_group_name_H-M   'P 1'
_cell_length_a   7.21936300
_cell_length_b   11.67949774
_cell_length_c   18.90276498
_cell_angle_alpha   102.78434750
_cell_angle_beta   98.62278857
_cell_angle_gamma   92.16053803
_symmetry_Int_Tables_number   1
_chemical_formula_structural   ZrS4(N2Cl3)2
_chemical_formula_sum   'Zr4 S16 N16 Cl24'
_cell_volume   1532.61494303
_cell_formula_units_Z   4
loop_
 _symmetry_equiv_pos_site_id
 _symmetry_equiv_pos_as_xyz
  1  'x, y, z'
loop_
 _atom_site_type_symbol
 _atom_site_label
 _atom_site_symmetry_multiplicity
 _atom_site_fract_x
 _atom_site_fract_y
 _atom_site_fract_z
 _atom_site_occupancy
  Zr  Zr0  1  0.53029500  0.56555100  0.41112800  1
  Zr  Zr1  1  0.46970500  0.43444900  0.58887200  1
  Zr  Zr2  1  0.97251200  0.94223000  0.09198000  1
  Zr  Zr3  1  0.02748800  0.05777000  0.90802100  1
  S  S0  1  0.83760700  0.33909800  0.10295300  1
  S  S1  1  0.08314600  0.79111500  0.66072800  1
  S  S2  1  0.36770800  0.05613000  0.60421900  1
  S  S3  1  0.01169600  0.04499600  0.66537000  1
  S  S4  1  0.16239300  0.66090200  0.89704700  1
  S  S5  1  0.63229200  0.94387000  0.39578100  1
  S  S6  1  0.48061700  0.38919300  0.16181300  1
  S  S7  1  0.01116500  0.42131000  0.81109200  1
  S  S8  1  0.98883500  0.57869000  0.18890800  1
  S  S9  1  0.51938300  0.61080700  0.83818700  1
  S  S10  1  0.58568400  0.64340900  0.16519100  1
  S  S11  1  0.98830400  0.95500400  0.33463000  1
  S  S12  1  0.41431600  0.35659100  0.83480900  1
  S  S13  1  0.49591500  0.87337600  0.68504400  1
  S  S14  1  0.91685400  0.20888500  0.33927200  1
  S  S15  1  0.50408500  0.12662400  0.31495600  1
  N  N0  1  0.98519300  0.91075600  0.66023600  1
  N  N1  1  0.19224300  0.09917500  0.64282200  1
  N  N2  1  0.01480700  0.08924400  0.33976400  1
  N  N3  1  0.47202200  0.52168900  0.16063700  1
  N  N4  1  0.01603400  0.55781900  0.84670300  1
  N  N5  1  0.98396600  0.44218100  0.15329700  1
  N  N6  1  0.34315500  0.67844300  0.85982500  1
  N  N7  1  0.65684500  0.32155700  0.14017500  1
  N  N8  1  0.49595800  0.01304600  0.34788400  1
  N  N9  1  0.80716800  0.64445500  0.18121400  1
  N  N10  1  0.50404200  0.98695400  0.65211600  1
  N  N11  1  0.30497600  0.80243200  0.67643500  1
  N  N12  1  0.19283200  0.35554500  0.81878600  1
  N  N13  1  0.52797800  0.47831100  0.83936300  1
  N  N14  1  0.80775700  0.90082500  0.35717800  1
  N  N15  1  0.69502400  0.19756800  0.32356500  1
  Cl  Cl0  1  0.83332200  0.75434900  0.01177800  1
  Cl  Cl1  1  0.69309500  0.42757000  0.49123000  1
  Cl  Cl2  1  0.80802700  0.15449300  0.83471400  1
  Cl  Cl3  1  0.65052000  0.30548900  0.65271400  1
  Cl  Cl4  1  0.30690500  0.57243000  0.50877000  1
  Cl  Cl5  1  0.71877700  0.95395700  0.16416900  1
  Cl  Cl6  1  0.32582800  0.39483300  0.33479600  1
  Cl  Cl7  1  0.76001300  0.08586300  0.48946300  1
  Cl  Cl8  1  0.89009200  0.86204400  0.83738400  1
  Cl  Cl9  1  0.22691000  0.47601900  0.66524000  1
  Cl  Cl10  1  0.28399000  0.26522200  0.50479600  1
  Cl  Cl11  1  0.27653400  0.58046600  0.98684900  1
  Cl  Cl12  1  0.28122300  0.04604300  0.83583100  1
  Cl  Cl13  1  0.10990800  0.13795600  0.16261600  1
  Cl  Cl14  1  0.78413800  0.04888700  0.99791400  1
  Cl  Cl15  1  0.16667800  0.24565100  0.98822200  1
  Cl  Cl16  1  0.21586200  0.95111300  0.00208600  1
  Cl  Cl17  1  0.23998700  0.91413700  0.51053700  1
  Cl  Cl18  1  0.19197300  0.84550700  0.16528600  1
  Cl  Cl19  1  0.71601000  0.73477800  0.49520400  1
  Cl  Cl20  1  0.67417200  0.60516700  0.66520400  1
  Cl  Cl21  1  0.72346600  0.41953400  0.01315100  1
  Cl  Cl22  1  0.34948000  0.69451100  0.34728600  1
  Cl  Cl23  1  0.77309000  0.52398100  0.33476000  1
loop_
_geom_bond_atom_site_label_1
_geom_bond_atom_site_label_2
_geom_bond_distance
_geom_bond_site_symmetry_2
N0 S3 1.551990 1_665
N0 S1 1.590919 1_655
N1 S3 1.582649 1_555
N1 S2 1.597716 1_555
N2 S11 1.551990 1_445
N2 S14 1.590919 1_455
N3 S6 1.555992 1_555
N3 S10 1.593258 1_555
N4 S7 1.584310 1_555
N4 S4 1.602213 1_555
N5 S8 1.584310 1_555
N5 S0 1.602213 1_555
N6 S9 1.580751 1_555
N6 S4 1.599679 1_555
N7 S6 1.580751 1_555
N7 S0 1.599679 1_555
N8 S15 1.587782 1_555
N8 S5 1.599285 1_545
N9 S8 1.549005 1_555
N9 S10 1.581225 1_555
N10 S13 1.587782 1_555
N10 S2 1.599285 1_565
N11 S13 1.549236 1_555
N11 S1 1.579376 1_555
N12 S7 1.549005 1_555
N12 S12 1.581225 1_555
N13 S9 1.555992 1_555
N13 S12 1.593258 1_555
N14 S11 1.582649 1_555
N14 S5 1.597716 1_555
N15 S15 1.549236 1_555
N15 S14 1.579376 1_555
Cl0 Zr2 2.455192 1_555
Cl1 Zr1 2.617383 1_555
Cl1 Zr0 2.638218 1_555
Cl2 Zr3 2.424043 1_655
Cl3 Zr1 2.430893 1_555
Cl4 Zr0 2.617383 1_555
Cl4 Zr1 2.638218 1_555
Cl5 Zr2 2.433528 1_555
Cl6 Zr0 2.470359 1_555
Cl7 S5 2.198133 1_545
Cl8 Zr3 2.464446 1_665
Cl9 Zr1 2.429964 1_555
Cl10 Zr1 2.449685 1_555
Cl11 S4 2.188108 1_555
Cl12 Zr3 2.433541 1_555
Cl13 Zr2 2.464441 1_445
Cl14 Zr3 2.635151 1_655
Cl14 Zr2 2.635486 1_546
Cl15 Zr3 2.455185 1_555
Cl16 Zr2 2.635165 1_455
Cl16 Zr3 2.635473 1_564
Cl17 S2 2.198133 1_565
Cl18 Zr2 2.424032 1_455
Cl19 Zr0 2.449685 1_555
Cl20 Zr1 2.470359 1_555
Cl21 S0 2.188108 1_555
Cl22 Zr0 2.430893 1_555
Cl23 Zr0 2.429964 1_555
