# generated using pymatgen
data_ZnS
_symmetry_space_group_name_H-M   'P 1'
_cell_length_a   3.80945908
_cell_length_b   3.80945800
_cell_length_c   87.24046559
_cell_angle_alpha   90.00000000
_cell_angle_beta   90.00000000
_cell_angle_gamma   119.99999172
_symmetry_Int_Tables_number   1
_chemical_formula_structural   ZnS
_chemical_formula_sum   'Zn28 S28'
_cell_volume   1096.41544533
_cell_formula_units_Z   28
loop_
 _symmetry_equiv_pos_site_id
 _symmetry_equiv_pos_as_xyz
  1  'x, y, z'
loop_
 _atom_site_type_symbol
 _atom_site_label
 _atom_site_symmetry_multiplicity
 _atom_site_fract_x
 _atom_site_fract_y
 _atom_site_fract_z
 _atom_site_occupancy
  Zn  Zn0  1  0.66666700  0.33333300  0.07145429  1
  Zn  Zn1  1  0.00000000  -0.00000000  0.92860111  1
  Zn  Zn2  1  -0.00000000  -0.00000000  0.64287930  1
  Zn  Zn3  1  0.00000000  -0.00000000  0.21432281  1
  Zn  Zn4  1  0.66666700  0.33333300  0.39287580  1
  Zn  Zn5  1  0.33333300  0.66666700  0.10718782  1
  Zn  Zn6  1  0.33333300  0.66666700  0.46427923  1
  Zn  Zn7  1  0.33333300  0.66666700  0.53572902  1
  Zn  Zn8  1  0.00000000  0.00000000  0.85719148  1
  Zn  Zn9  1  0.00000000  0.00000000  0.78568941  1
  Zn  Zn10  1  0.66666700  0.33333300  0.96430082  1
  Zn  Zn11  1  0.33333300  0.66666700  0.32146435  1
  Zn  Zn12  1  0.00000000  0.00000000  0.14284194  1
  Zn  Zn13  1  0.00000000  -0.00000000  0.35715003  1
  Zn  Zn14  1  0.00000000  -0.00000000  0.00002938  1
  Zn  Zn15  1  0.66666700  0.33333300  0.60715315  1
  Zn  Zn16  1  0.33333300  0.66666700  0.67855469  1
  Zn  Zn17  1  0.66666700  0.33333300  0.71429126  1
  Zn  Zn18  1  0.66666700  0.33333300  0.82144220  1
  Zn  Zn19  1  0.66666700  0.33333300  0.28570427  1
  Zn  Zn20  1  0.33333300  0.66666700  0.03569429  1
  Zn  Zn21  1  0.33333300  0.66666700  0.89288437  1
  Zn  Zn22  1  0.33333300  0.66666700  0.24998989  1
  Zn  Zn23  1  0.66666700  0.33333300  0.17857294  1
  Zn  Zn24  1  0.66666700  0.33333300  0.50001817  1
  Zn  Zn25  1  0.00000000  -0.00000000  0.57141715  1
  Zn  Zn26  1  0.00000000  0.00000000  0.42861870  1
  Zn  Zn27  1  0.33333300  0.66666700  0.75005451  1
  S  S0  1  0.66666700  0.33333300  0.20537298  1
  S  S1  1  0.33333300  0.66666700  0.56247369  1
  S  S2  1  0.33333300  0.66666700  0.70531172  1
  S  S3  1  0.66666700  0.33333300  0.63394884  1
  S  S4  1  0.00000000  0.00000000  0.02676718  1
  S  S5  1  0.00000000  -0.00000000  0.38389063  1
  S  S6  1  0.66666700  0.33333300  0.99108231  1
  S  S7  1  0.66666700  0.33333300  0.84824332  1
  S  S8  1  0.66666700  0.33333300  0.41967147  1
  S  S9  1  0.66666700  0.33333300  0.52679776  1
  S  S10  1  0.33333300  0.66666700  0.06243758  1
  S  S11  1  0.66666700  0.33333300  0.09825064  1
  S  S12  1  0.00000000  0.00000000  0.45535852  1
  S  S13  1  0.66666700  0.33333300  0.31249846  1
  S  S14  1  0.00000000  -0.00000000  0.88391608  1
  S  S15  1  0.00000000  0.00000000  0.59817539  1
  S  S16  1  0.00000000  -0.00000000  0.66962808  1
  S  S17  1  0.33333300  0.66666700  0.77677901  1
  S  S18  1  0.00000000  -0.00000000  0.95532873  1
  S  S19  1  0.00000000  -0.00000000  0.16958838  1
  S  S20  1  0.00000000  -0.00000000  0.24106643  1
  S  S21  1  0.33333300  0.66666700  0.91966911  1
  S  S22  1  0.66666700  0.33333300  0.74108761  1
  S  S23  1  0.33333300  0.66666700  0.34820557  1
  S  S24  1  0.33333300  0.66666700  0.27673330  1
  S  S25  1  0.00000000  -0.00000000  0.81244054  1
  S  S26  1  0.33333300  0.66666700  0.13393260  1
  S  S27  1  0.33333300  0.66666700  0.49101667  1
loop_
_geom_bond_atom_site_label_1
_geom_bond_atom_site_label_2
_geom_bond_distance
_geom_bond_site_symmetry_2
S0 Zn3 2.333869 1_655
S0 Zn3 2.333872 1_665
S0 Zn3 2.333872 1_555
S0 Zn23 2.338048 1_555
S1 Zn7 2.333217 1_555
S1 Zn25 2.333683 1_565
S1 Zn25 2.333686 1_555
S1 Zn25 2.333687 1_665
S2 Zn16 2.334296 1_555
S2 Zn17 2.334737 1_565
S2 Zn17 2.334738 1_455
S2 Zn17 2.334743 1_555
S3 Zn2 2.333304 1_655
S3 Zn2 2.333307 1_665
S3 Zn2 2.333308 1_555
S3 Zn15 2.337668 1_555
S4 Zn14 2.332618 1_555
S4 Zn20 2.333206 1_545
S4 Zn20 2.333210 1_555
S4 Zn20 2.333210 1_445
S5 Zn13 2.332862 1_555
S5 Zn4 2.334902 1_455
S5 Zn4 2.334905 1_445
S5 Zn4 2.334906 1_555
S6 Zn14 2.333788 1_656
S6 Zn14 2.333791 1_666
S6 Zn14 2.333792 1_556
S6 Zn10 2.336430 1_555
S7 Zn8 2.333820 1_655
S7 Zn8 2.333823 1_665
S7 Zn8 2.333824 1_555
S7 Zn18 2.338142 1_555
S8 Zn26 2.333793 1_655
S8 Zn26 2.333796 1_665
S8 Zn26 2.333797 1_555
S8 Zn4 2.337667 1_555
S9 Zn7 2.333327 1_545
S9 Zn7 2.333328 1_655
S9 Zn7 2.333334 1_555
S9 Zn24 2.336264 1_555
S10 Zn20 2.333097 1_555
S10 Zn0 2.335827 1_565
S10 Zn0 2.335828 1_455
S10 Zn0 2.335833 1_555
S11 Zn5 2.333500 1_545
S11 Zn5 2.333500 1_655
S11 Zn5 2.333506 1_555
S11 Zn0 2.337726 1_555
S12 Zn26 2.332794 1_555
S12 Zn6 2.333020 1_545
S12 Zn6 2.333023 1_555
S12 Zn6 2.333024 1_445
S13 Zn11 2.334338 1_545
S13 Zn11 2.334338 1_655
S13 Zn11 2.334344 1_555
S13 Zn19 2.337538 1_555
S14 Zn8 2.331467 1_555
S14 Zn21 2.334408 1_545
S14 Zn21 2.334411 1_555
S14 Zn21 2.334412 1_445
S15 Zn25 2.334401 1_555
S15 Zn15 2.334685 1_455
S15 Zn15 2.334688 1_445
S15 Zn15 2.334689 1_555
S16 Zn16 2.333192 1_545
S16 Zn16 2.333195 1_555
S16 Zn16 2.333196 1_445
S16 Zn2 2.333576 1_555
S17 Zn27 2.331458 1_555
S17 Zn9 2.332720 1_565
S17 Zn9 2.332723 1_555
S17 Zn9 2.332724 1_665
S18 Zn1 2.331730 1_555
S18 Zn10 2.334519 1_455
S18 Zn10 2.334522 1_445
S18 Zn10 2.334523 1_555
S19 Zn12 2.333372 1_555
S19 Zn23 2.334884 1_455
S19 Zn23 2.334887 1_445
S19 Zn23 2.334888 1_555
S20 Zn22 2.333100 1_545
S20 Zn22 2.333103 1_555
S20 Zn22 2.333104 1_445
S20 Zn3 2.333126 1_555
S21 Zn1 2.333349 1_565
S21 Zn1 2.333352 1_555
S21 Zn1 2.333353 1_665
S21 Zn21 2.336713 1_555
S22 Zn27 2.334367 1_545
S22 Zn27 2.334368 1_655
S22 Zn27 2.334374 1_555
S22 Zn17 2.337726 1_555
S23 Zn11 2.332916 1_555
S23 Zn13 2.333712 1_565
S23 Zn13 2.333715 1_555
S23 Zn13 2.333716 1_665
S24 Zn22 2.333108 1_555
S24 Zn19 2.334486 1_565
S24 Zn19 2.334487 1_455
S24 Zn19 2.334493 1_555
S25 Zn9 2.333781 1_555
S25 Zn18 2.335385 1_455
S25 Zn18 2.335388 1_445
S25 Zn18 2.335389 1_555
S26 Zn12 2.332689 1_565
S26 Zn12 2.332693 1_555
S26 Zn12 2.332693 1_665
S26 Zn5 2.333227 1_555
S27 Zn6 2.332587 1_555
S27 Zn24 2.335381 1_565
S27 Zn24 2.335381 1_455
S27 Zn24 2.335387 1_555
