# generated using pymatgen
data_Al3(Ni10B3)2
_symmetry_space_group_name_H-M   'P 1'
_cell_length_a   7.33936949
_cell_length_b   7.33935508
_cell_length_c   7.33937021
_cell_angle_alpha   60.00404071
_cell_angle_beta   60.00411528
_cell_angle_gamma   60.00382992
_symmetry_Int_Tables_number   1
_chemical_formula_structural   Al3(Ni10B3)2
_chemical_formula_sum   'Al3 Ni20 B6'
_cell_volume   279.57593466
_cell_formula_units_Z   1
loop_
 _symmetry_equiv_pos_site_id
 _symmetry_equiv_pos_as_xyz
  1  'x, y, z'
loop_
 _atom_site_type_symbol
 _atom_site_label
 _atom_site_symmetry_multiplicity
 _atom_site_fract_x
 _atom_site_fract_y
 _atom_site_fract_z
 _atom_site_occupancy
  Al  Al0  1  0.00000153  -0.00000041  0.00000224  1
  Al  Al1  1  0.75000107  0.75000003  0.75000474  1
  Al  Al2  1  0.24999866  0.24999997  0.24999522  1
  Ni  Ni0  1  0.99999741  0.33837179  0.66166611  1
  Ni  Ni1  1  -0.00001785  -0.00003200  0.66159320  1
  Ni  Ni2  1  0.66164587  0.33836846  0.00001878  1
  Ni  Ni3  1  0.00003705  0.33833509  0.00005628  1
  Ni  Ni4  1  0.33836191  0.99998184  0.66169186  1
  Ni  Ni5  1  0.33833076  0.00001802  0.00005712  1
  Ni  Ni6  1  0.66158848  -0.00002215  -0.00000432  1
  Ni  Ni7  1  0.33834089  0.66166381  0.00002628  1
  Ni  Ni8  1  0.66169919  -0.00000261  0.33833969  1
  Ni  Ni9  1  0.00004412  0.00002469  0.33832578  1
  Ni  Ni10  1  -0.00000154  0.66158494  0.00000161  1
  Ni  Ni11  1  0.00002048  0.66169056  0.33832176  1
  Ni  Ni12  1  0.61757060  0.14735604  0.61756430  1
  Ni  Ni13  1  0.38240022  0.38242067  0.85265948  1
  Ni  Ni14  1  0.85265021  0.38242359  0.38238750  1
  Ni  Ni15  1  0.38247220  0.38250012  0.38244018  1
  Ni  Ni16  1  0.14735733  0.61757558  0.61755793  1
  Ni  Ni17  1  0.61753068  0.61753600  0.61754163  1
  Ni  Ni18  1  0.61755684  0.61756838  0.14735548  1
  Ni  Ni19  1  0.38241066  0.85264003  0.38239532  1
  B  B0  1  0.72607466  0.27392166  0.72607825  1
  B  B1  1  0.72608269  0.27392286  0.27392193  1
  B  B2  1  0.27392197  0.72607357  0.72607926  1
  B  B3  1  0.27392486  0.27392382  0.72608252  1
  B  B4  1  0.72607640  0.72607438  0.27392195  1
  B  B5  1  0.27392267  0.72608226  0.27392091  1
loop_
_geom_bond_atom_site_label_1
_geom_bond_atom_site_label_2
_geom_bond_distance
_geom_bond_site_symmetry_2
Al0 Ni11 2.483163 1_545
Al0 Ni8 2.483209 1_455
Al0 Ni4 2.483323 1_544
Al0 Ni7 2.483326 1_545
Al0 Ni9 2.483330 1_555
Al0 Ni5 2.483392 1_555
Al0 Ni0 2.483456 1_454
Al0 Ni3 2.483493 1_555
Al0 Ni2 2.483507 1_455
Al0 Ni10 2.483759 1_545
Al0 Ni6 2.483842 1_455
Al0 Ni1 2.483896 1_554
Al1 Ni18 2.381276 1_556
Al1 Ni12 2.381296 1_565
Al1 Ni16 2.381304 1_655
Al1 Ni17 2.381359 1_555
Al1 Ni1 2.852693 1_665
Al1 Ni6 2.852808 1_566
Al1 Ni10 2.852962 1_656
Al1 Ni4 2.853128 1_555
Al1 Ni0 2.853138 1_555
Al1 Ni2 2.853220 1_556
Al1 Ni8 2.853260 1_565
Al1 Ni7 2.853345 1_556
Al1 Ni11 2.853398 1_655
Al1 Ni5 2.853666 1_566
Al1 Ni9 2.853694 1_665
Al1 Ni3 2.853700 1_656
Al2 Ni13 2.381186 1_554
Al2 Ni14 2.381257 1_455
Al2 Ni19 2.381320 1_545
Al2 Ni15 2.381486 1_555
Al2 Ni3 2.852620 1_555
Al2 Ni5 2.852750 1_555
Al2 Ni9 2.852820 1_555
Al2 Ni10 2.853156 1_555
Al2 Ni6 2.853264 1_555
Al2 Ni2 2.853367 1_555
Al2 Ni7 2.853381 1_555
Al2 Ni1 2.853385 1_555
Al2 Ni11 2.853489 1_555
Al2 Ni0 2.853522 1_455
Al2 Ni8 2.853612 1_555
Al2 Ni4 2.853653 1_545
Ni0 Ni11 2.373193 1_655
Ni0 Ni2 2.483446 1_556
Ni0 Ni3 2.483582 1_656
Ni0 Ni4 2.483617 1_645
Ni0 Ni1 2.483989 1_655
Ni0 Ni16 2.583843 1_655
Ni0 Ni17 2.584034 1_555
Ni0 Ni15 2.584183 1_655
Ni0 Ni14 2.584488 1_555
Ni1 Ni9 2.372144 1_555
Ni1 Ni10 2.483761 1_546
Ni1 Ni6 2.483783 1_456
Ni1 Ni4 2.483907 1_545
Ni1 Ni16 2.583220 1_545
Ni1 Ni12 2.583318 1_455
Ni1 Ni19 2.583847 1_545
Ni1 Ni14 2.583971 1_455
Ni2 Ni7 2.372954 1_555
Ni2 Ni8 2.483396 1_555
Ni2 Ni3 2.483593 1_655
Ni2 Ni6 2.483864 1_555
Ni3 Ni9 2.482984 1_555
Ni3 Ni5 2.483090 1_555
Ni4 Ni8 2.373294 1_565
Ni4 Ni7 2.483251 1_556
Ni4 Ni5 2.483406 1_566
Ni5 Ni6 2.372135 1_555
Ni5 Ni9 2.482899 1_555
Ni5 Ni7 2.483378 1_545
Ni6 Ni8 2.483710 1_555
Ni8 Ni9 2.483288 1_655
Ni10 Ni3 2.372103 1_555
Ni10 Ni11 2.483525 1_555
Ni10 Ni7 2.483600 1_555
Ni10 Ni6 2.483795 1_465
Ni10 Ni16 2.583518 1_554
Ni10 Ni18 2.583537 1_455
Ni10 Ni14 2.583618 1_455
Ni10 Ni13 2.583662 1_554
Ni11 Ni7 2.483122 1_555
Ni11 Ni8 2.483153 1_465
Ni11 Ni9 2.483256 1_565
Ni11 Ni16 2.583915 1_555
Ni11 Ni15 2.583975 1_555
Ni11 Ni17 2.584310 1_455
Ni11 Ni14 2.584485 1_455
Ni12 Ni6 2.583435 1_556
Ni12 Ni4 2.583890 1_545
Ni12 Ni8 2.583907 1_555
Ni12 Ni9 2.584149 1_655
Ni12 Ni5 2.584242 1_556
Ni13 Ni3 2.583169 1_556
Ni13 Ni5 2.583380 1_556
Ni13 Ni6 2.583872 1_556
Ni13 Ni7 2.584321 1_556
Ni13 Ni2 2.584325 1_556
Ni14 Ni3 2.582971 1_655
Ni14 Ni9 2.583328 1_655
Ni15 Ni7 2.583762 1_555
Ni15 Ni2 2.583821 1_555
Ni15 Ni8 2.584269 1_555
Ni15 Ni4 2.584416 1_545
Ni16 Ni9 2.584000 1_565
Ni16 Ni3 2.584226 1_556
Ni17 Ni4 2.583974 1_555
Ni17 Ni2 2.584084 1_556
Ni17 Ni8 2.584150 1_565
Ni17 Ni7 2.584185 1_556
Ni18 Ni6 2.583352 1_565
Ni18 Ni2 2.583752 1_555
Ni18 Ni7 2.583802 1_555
Ni18 Ni5 2.583948 1_565
Ni18 Ni3 2.584085 1_655
Ni19 Ni5 2.583001 1_565
Ni19 Ni9 2.583149 1_565
Ni19 Ni6 2.583704 1_565
Ni19 Ni4 2.584592 1_555
Ni19 Ni8 2.584601 1_565
B0 Ni12 2.060307 1_555
B0 Ni17 2.060637 1_555
B0 Ni13 2.061016 1_555
B0 Ni14 2.061115 1_555
B0 Ni0 2.065430 1_555
B0 Ni2 2.065496 1_556
B0 Ni6 2.065577 1_556
B0 Ni1 2.065583 1_655
B1 Ni14 2.060013 1_555
B1 Ni15 2.060615 1_555
B1 Ni12 2.060827 1_555
B1 Ni18 2.060836 1_555
B1 Ni8 2.065137 1_555
B1 Ni2 2.065138 1_555
B1 Ni3 2.065361 1_655
B1 Ni9 2.065456 1_655
B2 Ni16 2.060309 1_555
B2 Ni17 2.060609 1_555
B2 Ni13 2.060883 1_555
B2 Ni19 2.061073 1_555
B2 Ni4 2.065346 1_555
B2 Ni7 2.065471 1_556
B2 Ni1 2.065488 1_565
B2 Ni10 2.065509 1_556
B3 Ni13 2.060106 1_555
B3 Ni15 2.060809 1_555
B3 Ni12 2.060842 1_555
B3 Ni16 2.060872 1_555
B3 Ni0 2.065214 1_455
B3 Ni4 2.065231 1_545
B3 Ni3 2.065503 1_556
B3 Ni5 2.065543 1_556
B4 Ni18 2.060357 1_555
B4 Ni17 2.060679 1_555
B4 Ni14 2.060868 1_555
B4 Ni19 2.060960 1_555
B4 Ni8 2.065378 1_565
B4 Ni11 2.065435 1_655
B4 Ni6 2.065461 1_565
B4 Ni10 2.065492 1_655
B5 Ni19 2.059930 1_555
B5 Ni15 2.060442 1_555
B5 Ni18 2.060774 1_555
B5 Ni16 2.060795 1_555
B5 Ni11 2.065057 1_555
B5 Ni7 2.065071 1_555
B5 Ni5 2.065263 1_565
B5 Ni9 2.065320 1_565
