# generated using pymatgen
data_Ca14GaAs11
_symmetry_space_group_name_H-M   'P 1'
_cell_length_a   15.38141242
_cell_length_b   15.38141242
_cell_length_c   15.38141242
_cell_angle_alpha   118.56242088
_cell_angle_beta   118.56242088
_cell_angle_gamma   92.50853402
_symmetry_Int_Tables_number   1
_chemical_formula_structural   Ca14GaAs11
_chemical_formula_sum   'Ca56 Ga4 As44'
_cell_volume   2626.39052938
_cell_formula_units_Z   4
loop_
 _symmetry_equiv_pos_site_id
 _symmetry_equiv_pos_as_xyz
  1  'x, y, z'
loop_
 _atom_site_type_symbol
 _atom_site_label
 _atom_site_symmetry_multiplicity
 _atom_site_fract_x
 _atom_site_fract_y
 _atom_site_fract_z
 _atom_site_occupancy
  Ca  Ca0  1  0.74552200  0.09438200  0.60370700  1
  Ca  Ca1  1  0.25932500  0.10818600  0.10370700  1
  Ca  Ca2  1  0.31264600  0.28822100  0.66463400  1
  Ca  Ca3  1  0.00447800  0.15561800  0.89629300  1
  Ca  Ca4  1  0.12641300  0.60198800  0.16463400  1
  Ca  Ca5  1  0.66035300  0.88084400  0.13265900  1
  Ca  Ca6  1  0.12500000  0.02309500  0.39809500  1
  Ca  Ca7  1  0.47690500  0.37500000  0.60190500  1
  Ca  Ca8  1  0.21177900  0.18735400  0.33536600  1
  Ca  Ca9  1  0.27769400  0.91035300  0.27950900  1
  Ca  Ca10  1  0.47230600  0.33964700  0.22049100  1
  Ca  Ca11  1  0.40561800  0.75447800  0.39629300  1
  Ca  Ca12  1  0.35198800  0.68735400  0.97557500  1
  Ca  Ca13  1  0.00181500  0.72230600  0.63265900  1
  Ca  Ca14  1  0.03822100  0.87358700  0.47557500  1
  Ca  Ca15  1  0.13084400  0.41035300  0.63265900  1
  Ca  Ca16  1  0.12500000  0.52309500  0.89809500  1
  Ca  Ca17  1  0.16035300  0.02769400  0.77950900  1
  Ca  Ca18  1  0.50447800  0.60818600  0.84886100  1
  Ca  Ca19  1  0.39181400  0.24067500  0.89629300  1
  Ca  Ca20  1  0.99067500  0.59438200  0.34886100  1
  Ca  Ca21  1  0.97690500  0.37500000  0.10190500  1
  Ca  Ca22  1  0.27309500  0.87500000  0.89809500  1
  Ca  Ca23  1  0.62358700  0.64801200  0.33536600  1
  Ca  Ca24  1  0.84438200  0.74067500  0.84886100  1
  Ca  Ca25  1  0.85198800  0.87641300  0.66463400  1
  Ca  Ca26  1  0.49067500  0.14181400  0.39629300  1
  Ca  Ca27  1  0.53822100  0.06264600  0.16463400  1
  Ca  Ca28  1  0.62500000  0.22690500  0.10190500  1
  Ca  Ca29  1  0.43735400  0.96177900  0.83536600  1
  Ca  Ca30  1  0.77769400  0.49818500  0.36734100  1
  Ca  Ca31  1  0.63084400  0.99818500  0.72049100  1
  Ca  Ca32  1  0.93735400  0.10198800  0.47557500  1
  Ca  Ca33  1  0.62641300  0.46177900  0.52442500  1
  Ca  Ca34  1  0.08964700  0.36915600  0.36734100  1
  Ca  Ca35  1  0.61915600  0.83964700  0.86734100  1
  Ca  Ca36  1  0.81264600  0.14801200  0.02442500  1
  Ca  Ca37  1  0.97230600  0.75181500  0.13265900  1
  Ca  Ca38  1  0.50181500  0.86915600  0.27950900  1
  Ca  Ca39  1  0.74818500  0.52769400  0.86734100  1
  Ca  Ca40  1  0.34438200  0.49552200  0.10370700  1
  Ca  Ca41  1  0.75932500  0.65561800  0.15113900  1
  Ca  Ca42  1  0.89801200  0.37358700  0.83536600  1
  Ca  Ca43  1  0.85818600  0.25447800  0.34886100  1
  Ca  Ca44  1  0.89181400  0.99552200  0.15113900  1
  Ca  Ca45  1  0.62500000  0.72690500  0.60190500  1
  Ca  Ca46  1  0.12358700  0.78822100  0.97557500  1
  Ca  Ca47  1  0.24552200  0.64181400  0.65113900  1
  Ca  Ca48  1  0.58964700  0.22230600  0.72049100  1
  Ca  Ca49  1  0.90561800  0.50932500  0.65113900  1
  Ca  Ca50  1  0.35818600  0.00932500  0.60370700  1
  Ca  Ca51  1  0.24818500  0.38084400  0.22049100  1
  Ca  Ca52  1  0.39801200  0.56264600  0.52442500  1
  Ca  Ca53  1  0.71177900  0.37641300  0.02442500  1
  Ca  Ca54  1  0.11915600  0.25181500  0.77950900  1
  Ca  Ca55  1  0.77309500  0.87500000  0.39809500  1
  Ga  Ga0  1  0.25000000  0.75000000  0.50000000  1
  Ga  Ga1  1  0.75000000  0.25000000  0.50000000  1
  Ga  Ga2  1  0.00000000  0.00000000  0.00000000  1
  Ga  Ga3  1  0.50000000  0.50000000  0.00000000  1
  As  As0  1  0.19836100  0.10304600  0.64535700  1
  As  As1  1  0.89695400  0.54231100  0.09531500  1
  As  As2  1  0.85304600  0.70768900  0.40468500  1
  As  As3  1  0.45312000  0.81291300  0.63258000  1
  As  As4  1  0.57053900  0.70312000  0.14020700  1
  As  As5  1  0.79231100  0.64695400  0.59531500  1
  As  As6  1  0.50000000  0.00000000  0.50000000  1
  As  As7  1  0.68708700  0.04688000  0.36742000  1
  As  As8  1  0.29231100  0.69699600  0.14535700  1
  As  As9  1  0.79688000  0.92946100  0.85979300  1
  As  As10  1  0.63369200  0.86630800  0.50000000  1
  As  As11  1  0.69836100  0.05300400  0.09531500  1
  As  As12  1  0.80300400  0.20768900  0.85464300  1
  As  As13  1  0.68033200  0.31291300  0.35979300  1
  As  As14  1  0.06291300  0.20312000  0.13258000  1
  As  As15  1  0.07053900  0.93033200  0.86742000  1
  As  As16  1  0.44699600  0.80163900  0.90468500  1
  As  As17  1  0.36630800  0.13369200  0.50000000  1
  As  As18  1  0.67946100  0.31966800  0.63258000  1
  As  As19  1  0.61630800  0.61630800  0.73261600  1
  As  As20  1  0.56291300  0.43033200  0.85979300  1
  As  As21  1  0.25000000  0.25000000  0.00000000  1
  As  As22  1  0.06966800  0.93708700  0.14020700  1
  As  As23  1  0.95768900  0.60304600  0.90468500  1
  As  As24  1  0.95312000  0.32053900  0.64020700  1
  As  As25  1  0.56966800  0.42946100  0.13258000  1
  As  As26  1  0.35304600  0.94836100  0.14535700  1
  As  As27  1  0.94699600  0.04231100  0.64535700  1
  As  As28  1  0.38369200  0.11630800  0.00000000  1
  As  As29  1  0.18033200  0.82053900  0.36742000  1
  As  As30  1  0.05163900  0.19699600  0.40468500  1
  As  As31  1  0.00000000  0.50000000  0.50000000  1
  As  As32  1  0.86630800  0.36630800  0.23261600  1
  As  As33  1  0.13369200  0.63369200  0.76738400  1
  As  As34  1  0.45768900  0.55300400  0.35464300  1
  As  As35  1  0.75000000  0.75000000  0.00000000  1
  As  As36  1  0.88369200  0.88369200  0.26738400  1
  As  As37  1  0.30300400  0.44836100  0.59531500  1
  As  As38  1  0.39695400  0.30163900  0.35464300  1
  As  As39  1  0.11630800  0.38369200  0.00000000  1
  As  As40  1  0.55163900  0.14695400  0.85464300  1
  As  As41  1  0.18708700  0.81966800  0.64020700  1
  As  As42  1  0.29688000  0.43708700  0.86742000  1
  As  As43  1  0.17946100  0.54688000  0.35979300  1
loop_
_geom_bond_atom_site_label_1
_geom_bond_atom_site_label_2
_geom_bond_distance
_geom_bond_site_symmetry_2
As0 Ca6 2.924492 1_555
As0 Ca19 2.980977 1_555
As0 Ca54 3.018450 1_555
As0 Ca17 3.053528 1_555
As0 Ca50 3.076525 1_555
As0 Ca2 3.089708 1_555
As0 Ca14 3.101323 1_545
As1 Ca21 2.924492 1_555
As1 Ca41 2.980977 1_555
As1 Ca39 3.018450 1_554
As1 Ca37 3.053528 1_555
As1 Ca20 3.076525 1_555
As1 Ca53 3.089708 1_555
As1 Ca4 3.101323 1_655
As2 Ca55 2.924492 1_555
As2 Ca20 2.980977 1_555
As2 Ca13 3.018450 1_655
As2 Ca30 3.053528 1_555
As2 Ca41 3.076525 1_555
As2 Ca14 3.089708 1_655
As2 Ca23 3.101323 1_555
As3 Ga0 2.571398 1_555
As3 Ca11 2.971588 1_555
As3 Ca29 2.995539 1_555
As3 Ca35 3.065986 1_555
As3 Ca31 3.085609 1_555
As3 Ca45 3.140746 1_555
As3 Ca52 3.247570 1_555
As3 Ca50 3.536312 1_565
As4 Ga3 2.571398 1_555
As4 Ca41 2.971607 1_555
As4 Ca12 2.995528 1_554
As4 Ca38 3.065975 1_555
As4 Ca5 3.085615 1_555
As4 Ca55 3.140751 1_555
As4 Ca23 3.247568 1_555
As4 Ca18 3.536312 1_554
As5 Ca45 2.924492 1_555
As5 Ca49 2.980977 1_555
As5 Ca30 3.018450 1_555
As5 Ca13 3.053528 1_655
As5 Ca24 3.076525 1_555
As5 Ca33 3.089708 1_555
As5 Ca25 3.101323 1_555
As6 Ca48 3.020244 1_555
As6 Ca31 3.020244 1_545
As6 Ca9 3.020244 1_545
As6 Ca38 3.020244 1_545
As6 Ca50 3.234039 1_555
As6 Ca26 3.234039 1_555
As6 Ca11 3.234053 1_545
As6 Ca0 3.234053 1_555
As7 Ga1 2.571398 1_555
As7 Ca0 2.971588 1_555
As7 Ca27 2.995539 1_555
As7 Ca5 3.065986 1_545
As7 Ca38 3.085609 1_545
As7 Ca55 3.140746 1_545
As7 Ca32 3.247570 1_555
As7 Ca26 3.536312 1_555
As8 Ca16 2.924492 1_554
As8 Ca11 2.980982 1_555
As8 Ca9 3.018450 1_555
As8 Ca38 3.053528 1_555
As8 Ca40 3.076511 1_555
As8 Ca4 3.089708 1_555
As8 Ca12 3.101323 1_554
As9 Ga2 2.571398 1_666
As9 Ca24 2.971607 1_555
As9 Ca36 2.995528 1_566
As9 Ca31 3.065975 1_555
As9 Ca35 3.085615 1_555
As9 Ca45 3.140751 1_555
As9 Ca25 3.247568 1_555
As9 Ca44 3.536312 1_556
As10 Ca25 3.026261 1_555
As10 Ca23 3.026261 1_555
As10 Ca31 3.031515 1_555
As10 Ca38 3.031515 1_555
As10 Ca0 3.050743 1_565
As10 Ca11 3.050743 1_555
As10 Ca45 3.234430 1_555
As10 Ca55 3.234430 1_555
As11 Ca28 2.924492 1_555
As11 Ca44 2.980970 1_545
As11 Ca35 3.018450 1_544
As11 Ca5 3.053528 1_545
As11 Ca43 3.076520 1_555
As11 Ca36 3.089708 1_555
As11 Ca27 3.101323 1_555
As12 Ca21 2.924492 1_556
As12 Ca0 2.980982 1_555
As12 Ca48 3.018450 1_555
As12 Ca31 3.053528 1_545
As12 Ca3 3.076511 1_655
As12 Ca42 3.089708 1_555
As12 Ca36 3.101323 1_556
As13 Ga1 2.571398 1_555
As13 Ca43 2.971612 1_555
As13 Ca33 2.995528 1_555
As13 Ca10 3.065975 1_555
As13 Ca30 3.085615 1_555
As13 Ca28 3.140751 1_555
As13 Ca27 3.247568 1_555
As13 Ca49 3.536317 1_555
As14 Ga2 2.571398 1_555
As14 Ca3 2.971588 1_554
As14 Ca8 2.995539 1_555
As14 Ca34 3.065986 1_555
As14 Ca51 3.085609 1_555
As14 Ca21 3.140746 1_455
As14 Ca36 3.247570 1_455
As14 Ca1 3.536312 1_555
As15 Ga2 2.571386 1_566
As15 Ca1 2.971602 1_566
As15 Ca25 2.995534 1_455
As15 Ca13 3.065983 1_555
As15 Ca17 3.085629 1_565
As15 Ca22 3.140754 1_555
As15 Ca46 3.247557 1_555
As15 Ca3 3.536326 1_565
As16 Ca22 2.924492 1_555
As16 Ca18 2.980970 1_555
As16 Ca5 3.018450 1_556
As16 Ca35 3.053528 1_555
As16 Ca47 3.076520 1_555
As16 Ca12 3.089708 1_555
As16 Ca29 3.101323 1_555
As17 Ca2 3.026261 1_555
As17 Ca8 3.026261 1_555
As17 Ca48 3.031515 1_555
As17 Ca9 3.031515 1_545
As17 Ca26 3.050739 1_555
As17 Ca50 3.050739 1_555
As17 Ca7 3.234430 1_555
As17 Ca6 3.234430 1_555
As18 Ga1 2.571386 1_555
As18 Ca26 2.971602 1_555
As18 Ca42 2.995534 1_555
As18 Ca39 3.065983 1_555
As18 Ca48 3.085629 1_555
As18 Ca7 3.140754 1_555
As18 Ca33 3.247557 1_555
As18 Ca0 3.536326 1_555
As19 Ca52 3.026261 1_555
As19 Ca33 3.026261 1_555
As19 Ca39 3.031515 1_555
As19 Ca35 3.031515 1_555
As19 Ca24 3.050739 1_555
As19 Ca18 3.050752 1_555
As19 Ca7 3.234430 1_555
As19 Ca45 3.234430 1_555
As20 Ga3 2.571398 1_556
As20 Ca18 2.971612 1_555
As20 Ca53 2.995528 1_556
As20 Ca48 3.065975 1_555
As20 Ca39 3.085615 1_555
As20 Ca7 3.140751 1_555
As20 Ca2 3.247568 1_555
As20 Ca41 3.536317 1_556
As21 Ca10 3.020244 1_555
As21 Ca17 3.020244 1_554
As21 Ca51 3.020244 1_555
As21 Ca54 3.020244 1_554
As21 Ca19 3.234039 1_554
As21 Ca1 3.234039 1_555
As21 Ca40 3.234053 1_555
As21 Ca3 3.234053 1_554
As22 Ga2 2.571398 1_565
As22 Ca44 2.971612 1_455
As22 Ca46 2.995528 1_554
As22 Ca9 3.065975 1_555
As22 Ca37 3.085615 1_455
As22 Ca6 3.140751 1_565
As22 Ca8 3.247568 1_565
As22 Ca24 3.536317 1_454
As23 Ca16 2.924492 1_655
As23 Ca24 2.980977 1_555
As23 Ca37 3.018450 1_556
As23 Ca39 3.053528 1_555
As23 Ca49 3.076525 1_555
As23 Ca46 3.089708 1_655
As23 Ca42 3.101323 1_555
As24 Ga1 2.571398 1_555
As24 Ca49 2.971607 1_555
As24 Ca32 2.995528 1_555
As24 Ca54 3.065975 1_655
As24 Ca15 3.085615 1_655
As24 Ca16 3.140751 1_655
As24 Ca42 3.247568 1_555
As24 Ca43 3.536312 1_555
As25 Ga3 2.571386 1_555
As25 Ca19 2.971602 1_554
As25 Ca23 2.995534 1_555
As25 Ca30 3.065983 1_555
As25 Ca10 3.085629 1_555
As25 Ca28 3.140754 1_555
As25 Ca53 3.247557 1_555
As25 Ca40 3.536326 1_555
As26 Ca22 2.924492 1_554
As26 Ca26 2.980977 1_565
As26 Ca38 3.018450 1_555
As26 Ca9 3.053528 1_555
As26 Ca1 3.076525 1_565
As26 Ca27 3.089708 1_565
As26 Ca46 3.101323 1_554
As27 Ca55 2.924492 1_545
As27 Ca3 2.980982 1_655
As27 Ca17 3.018450 1_655
As27 Ca54 3.053528 1_655
As27 Ca0 3.076511 1_555
As27 Ca25 3.089708 1_545
As27 Ca32 3.101323 1_555
As28 Ca29 3.026261 1_544
As28 Ca27 3.026261 1_555
As28 Ca10 3.031515 1_555
As28 Ca17 3.031515 1_554
As28 Ca1 3.050739 1_555
As28 Ca19 3.050739 1_554
As28 Ca22 3.234430 1_544
As28 Ca28 3.234430 1_555
As29 Ga0 2.571386 1_555
As29 Ca50 2.971602 1_565
As29 Ca4 2.995534 1_555
As29 Ca37 3.065983 1_455
As29 Ca9 3.085629 1_555
As29 Ca6 3.140754 1_565
As29 Ca14 3.247557 1_555
As29 Ca11 3.536326 1_555
As30 Ca6 2.924492 1_555
As30 Ca43 2.980970 1_455
As30 Ca15 3.018450 1_555
As30 Ca34 3.053528 1_555
As30 Ca44 3.076520 1_445
As30 Ca32 3.089708 1_455
As30 Ca8 3.101323 1_555
As31 Ca15 3.020244 1_555
As31 Ca13 3.020244 1_555
As31 Ca30 3.020244 1_455
As31 Ca34 3.020244 1_555
As31 Ca20 3.234039 1_455
As31 Ca49 3.234039 1_455
As31 Ca47 3.234052 1_555
As31 Ca43 3.234052 1_455
As32 Ca53 3.026261 1_555
As32 Ca36 3.026261 1_555
As32 Ca30 3.031515 1_555
As32 Ca34 3.031515 1_655
As32 Ca20 3.050739 1_555
As32 Ca43 3.050752 1_555
As32 Ca28 3.234430 1_555
As32 Ca21 3.234430 1_555
As33 Ca46 3.026261 1_555
As33 Ca12 3.026261 1_555
As33 Ca13 3.031515 1_555
As33 Ca15 3.031515 1_555
As33 Ca49 3.050739 1_455
As33 Ca47 3.050752 1_555
As33 Ca22 3.234430 1_555
As33 Ca16 3.234430 1_555
As34 Ca45 2.924492 1_555
As34 Ca40 2.980982 1_555
As34 Ca10 3.018450 1_555
As34 Ca51 3.053528 1_555
As34 Ca11 3.076511 1_555
As34 Ca23 3.089708 1_555
As34 Ca52 3.101323 1_555
As35 Ca35 3.020244 1_554
As35 Ca39 3.020244 1_554
As35 Ca37 3.020244 1_555
As35 Ca5 3.020244 1_555
As35 Ca41 3.234039 1_555
As35 Ca24 3.234039 1_554
As35 Ca44 3.234052 1_555
As35 Ca18 3.234052 1_554
As36 Ca32 3.026261 1_565
As36 Ca14 3.026261 1_655
As36 Ca37 3.031515 1_555
As36 Ca5 3.031515 1_555
As36 Ca41 3.050739 1_555
As36 Ca44 3.050752 1_555
As36 Ca6 3.234430 1_665
As36 Ca55 3.234430 1_555
As37 Ca7 2.924492 1_555
As37 Ca47 2.980970 1_555
As37 Ca34 3.018450 1_555
As37 Ca15 3.053528 1_555
As37 Ca18 3.076520 1_555
As37 Ca52 3.089708 1_555
As37 Ca2 3.101323 1_555
As38 Ca7 2.924492 1_555
As38 Ca1 2.980977 1_555
As38 Ca51 3.018450 1_555
As38 Ca10 3.053528 1_555
As38 Ca26 3.076525 1_555
As38 Ca8 3.089708 1_555
As38 Ca33 3.101323 1_555
As39 Ca42 3.026261 1_454
As39 Ca4 3.026261 1_555
As39 Ca51 3.031515 1_555
As39 Ca54 3.031515 1_554
As39 Ca3 3.050743 1_554
As39 Ca40 3.050743 1_555
As39 Ca21 3.234430 1_455
As39 Ca16 3.234430 1_554
As40 Ca28 2.924492 1_556
As40 Ca50 2.980977 1_555
As40 Ca31 3.018450 1_545
As40 Ca48 3.053528 1_555
As40 Ca19 3.076525 1_555
As40 Ca29 3.089708 1_545
As40 Ca53 3.101323 1_556
As41 Ga0 2.571398 1_555
As41 Ca47 2.971612 1_555
As41 Ca14 2.995528 1_555
As41 Ca17 3.065975 1_565
As41 Ca13 3.085615 1_555
As41 Ca22 3.140751 1_555
As41 Ca29 3.247568 1_555
As41 Ca20 3.536317 1_455
As42 Ga3 2.571398 1_556
As42 Ca40 2.971588 1_556
As42 Ca2 2.995539 1_555
As42 Ca15 3.065986 1_555
As42 Ca54 3.085609 1_555
As42 Ca16 3.140746 1_555
As42 Ca12 3.247570 1_555
As42 Ca19 3.536312 1_555
As43 Ga0 2.571398 1_555
As43 Ca20 2.971607 1_455
As43 Ca52 2.995528 1_555
As43 Ca51 3.065975 1_555
As43 Ca34 3.085615 1_555
As43 Ca21 3.140751 1_455
As43 Ca4 3.247568 1_555
As43 Ca47 3.536312 1_555
