# generated using pymatgen
data_CsTbZnSe3
_symmetry_space_group_name_H-M   'P 1'
_cell_length_a   8.36413455
_cell_length_b   8.36413455
_cell_length_c   11.04530600
_cell_angle_alpha   90.00000000
_cell_angle_beta   90.00000000
_cell_angle_gamma   150.98188683
_symmetry_Int_Tables_number   1
_chemical_formula_structural   CsTbZnSe3
_chemical_formula_sum   'Cs2 Tb2 Zn2 Se6'
_cell_volume   374.83367195
_cell_formula_units_Z   2
loop_
 _symmetry_equiv_pos_site_id
 _symmetry_equiv_pos_as_xyz
  1  'x, y, z'
loop_
 _atom_site_type_symbol
 _atom_site_label
 _atom_site_symmetry_multiplicity
 _atom_site_fract_x
 _atom_site_fract_y
 _atom_site_fract_z
 _atom_site_occupancy
  Cs  Cs0  1  0.74221600  0.25778400  0.25000000  1
  Cs  Cs1  1  0.25778400  0.74221600  0.75000000  1
  Tb  Tb0  1  0.00000000  0.00000000  0.50000000  1
  Tb  Tb1  1  0.00000000  0.00000000  0.00000000  1
  Zn  Zn0  1  0.46099700  0.53900300  0.25000000  1
  Zn  Zn1  1  0.53900300  0.46099700  0.75000000  1
  Se  Se0  1  0.61691400  0.38308600  0.94056200  1
  Se  Se1  1  0.05471100  0.94528900  0.25000000  1
  Se  Se2  1  0.38308600  0.61691400  0.05943800  1
  Se  Se3  1  0.94528900  0.05471100  0.75000000  1
  Se  Se4  1  0.61691400  0.38308600  0.55943800  1
  Se  Se5  1  0.38308600  0.61691400  0.44056200  1
loop_
_geom_bond_atom_site_label_1
_geom_bond_atom_site_label_2
_geom_bond_distance
_geom_bond_site_symmetry_2
Cs0 Se1 3.689449 1_655
Cs0 Se1 3.689449 1_545
Cs0 Se2 3.745121 1_545
Cs0 Se5 3.745121 1_545
Cs0 Se5 3.745121 1_655
Cs0 Se2 3.745121 1_655
Cs0 Se0 3.974848 1_554
Cs0 Se4 3.974848 1_555
Cs1 Se3 3.689449 1_455
Cs1 Se3 3.689449 1_565
Cs1 Se4 3.745121 1_565
Cs1 Se0 3.745121 1_565
Cs1 Se0 3.745121 1_455
Cs1 Se4 3.745121 1_455
Cs1 Se5 3.974848 1_555
Cs1 Se2 3.974848 1_556
Se0 Zn1 2.454030 1_555
Se0 Tb1 2.899490 1_666
Se0 Tb1 2.899490 1_556
Se1 Zn0 2.587360 1_455
Se1 Zn0 2.587360 1_565
Se1 Tb1 2.899996 1_565
Se1 Tb0 2.899996 1_565
Se2 Zn0 2.454030 1_555
Se2 Tb1 2.899490 1_665
Se2 Tb1 2.899490 1_555
Se3 Zn1 2.587360 1_545
Se3 Zn1 2.587360 1_655
Se3 Tb1 2.899996 1_656
Se3 Tb0 2.899996 1_655
Se4 Zn1 2.454030 1_555
Se4 Tb0 2.899490 1_665
Se4 Tb0 2.899490 1_555
Se5 Zn0 2.454030 1_555
Se5 Tb0 2.899490 1_555
Se5 Tb0 2.899490 1_665
