# generated using pymatgen
data_CeSi2Ir3
_symmetry_space_group_name_H-M   'P 1'
_cell_length_a   5.52643803
_cell_length_b   5.52635237
_cell_length_c   3.65895556
_cell_angle_alpha   90.00000000
_cell_angle_beta   90.00000000
_cell_angle_gamma   120.00147694
_symmetry_Int_Tables_number   1
_chemical_formula_structural   CeSi2Ir3
_chemical_formula_sum   'Ce1 Si2 Ir3'
_cell_volume   96.77544560
_cell_formula_units_Z   1
loop_
 _symmetry_equiv_pos_site_id
 _symmetry_equiv_pos_as_xyz
  1  'x, y, z'
loop_
 _atom_site_type_symbol
 _atom_site_label
 _atom_site_symmetry_multiplicity
 _atom_site_fract_x
 _atom_site_fract_y
 _atom_site_fract_z
 _atom_site_occupancy
  Ce  Ce0  1  -0.00000000  0.00000000  -0.00000000  1
  Si  Si0  1  0.66666805  0.33333314  -0.00000000  1
  Si  Si1  1  0.33333195  0.66666686  0.00000000  1
  Ir  Ir0  1  0.50000000  0.00000000  0.50000000  1
  Ir  Ir1  1  -0.00000000  0.50000000  0.50000000  1
  Ir  Ir2  1  0.50000000  0.50000000  0.50000000  1
loop_
_geom_bond_atom_site_label_1
_geom_bond_atom_site_label_2
_geom_bond_distance
_geom_bond_site_symmetry_2
Ce0 Si0 3.190594 1_445
Ce0 Si1 3.190594 1_555
Ce0 Si0 3.190650 1_555
Ce0 Si1 3.190650 1_445
Ce0 Si0 3.190682 1_455
Ce0 Si1 3.190682 1_545
Ce0 Ir2 3.313896 1_444
Ce0 Ir2 3.313896 1_445
Ce0 Ir2 3.313896 1_555
Ce0 Ir2 3.313896 1_554
Ce0 Ir1 3.313930 1_554
Ce0 Ir1 3.313930 1_544
Ce0 Ir1 3.313930 1_555
Ce0 Ir1 3.313930 1_545
Ce0 Ir0 3.313966 1_455
Ce0 Ir0 3.313966 1_554
Ce0 Ir0 3.313966 1_454
Ce0 Ir0 3.313966 1_555
Ir0 Si0 2.427336 1_556
Ir0 Si0 2.427336 1_555
Ir0 Si1 2.427336 1_545
Ir0 Si1 2.427336 1_546
Ir1 Si1 2.427348 1_555
Ir1 Si0 2.427348 1_456
Ir1 Si1 2.427348 1_556
Ir1 Si0 2.427348 1_455
Ir2 Si0 2.427373 1_556
Ir2 Si0 2.427373 1_555
Ir2 Si1 2.427373 1_555
Ir2 Si1 2.427373 1_556
