# generated using pymatgen
data_MnCo(BiO3)2
_symmetry_space_group_name_H-M   'P 1'
_cell_length_a   5.55812221
_cell_length_b   5.55812221
_cell_length_c   9.73910375
_cell_angle_alpha   74.21691133
_cell_angle_beta   74.21691133
_cell_angle_gamma   59.54847378
_symmetry_Int_Tables_number   1
_chemical_formula_structural   MnCo(BiO3)2
_chemical_formula_sum   'Mn2 Co2 Bi4 O12'
_cell_volume   246.30184361
_cell_formula_units_Z   2
loop_
 _symmetry_equiv_pos_site_id
 _symmetry_equiv_pos_as_xyz
  1  'x, y, z'
loop_
 _atom_site_type_symbol
 _atom_site_label
 _atom_site_symmetry_multiplicity
 _atom_site_fract_x
 _atom_site_fract_y
 _atom_site_fract_z
 _atom_site_occupancy
  Mn  Mn0  1  0.74139500  0.75354100  0.74956900  1
  Mn  Mn1  1  0.24645900  0.25860500  0.25043100  1
  Co  Co0  1  0.00031200  0.99968800  0.00000000  1
  Co  Co1  1  0.48538100  0.51461900  0.50000000  1
  Bi  Bi0  1  0.32347600  0.40864100  0.87644100  1
  Bi  Bi1  1  0.59135900  0.67652400  0.12355900  1
  Bi  Bi2  1  0.88940000  0.84301100  0.37578900  1
  Bi  Bi3  1  0.15698900  0.11060000  0.62421100  1
  O  O0  1  0.62224700  0.06286500  0.13450100  1
  O  O1  1  0.55031700  0.12785700  0.63115300  1
  O  O2  1  0.93713500  0.37775300  0.86549900  1
  O  O3  1  0.12963100  0.57117500  0.09188000  1
  O  O4  1  0.95547500  0.85762100  0.83165000  1
  O  O5  1  0.05466000  0.63351500  0.59066300  1
  O  O6  1  0.52471900  0.64856400  0.67012200  1
  O  O7  1  0.35143600  0.47528100  0.32987800  1
  O  O8  1  0.87214300  0.44968300  0.36884700  1
  O  O9  1  0.36648500  0.94534000  0.40933700  1
  O  O10  1  0.14237900  0.04452500  0.16835000  1
  O  O11  1  0.42882500  0.87036900  0.90812000  1
loop_
_geom_bond_atom_site_label_1
_geom_bond_atom_site_label_2
_geom_bond_distance
_geom_bond_site_symmetry_2
Mn0 O11 1.940848 1_555
Mn0 O5 1.946836 1_655
Mn0 O6 1.963222 1_555
Mn0 O4 1.963725 1_555
Mn0 O2 1.975601 1_555
Mn0 O1 1.976815 1_565
Mn1 O3 1.940848 1_555
Mn1 O9 1.946836 1_545
Mn1 O7 1.963222 1_555
Mn1 O10 1.963725 1_555
Mn1 O0 1.975601 1_555
Mn1 O8 1.976815 1_455
Co0 O0 2.063905 1_465
Co0 O2 2.063905 1_464
Co0 O11 2.108377 1_554
Co0 O3 2.108377 1_555
Co0 O4 2.121285 1_454
Co0 O10 2.121285 1_565
Co1 O1 2.086513 1_555
Co1 O8 2.086513 1_555
Co1 O6 2.092901 1_555
Co1 O7 2.092901 1_555
Co1 O5 2.124030 1_555
Co1 O9 2.124030 1_555
Bi0 O2 2.271556 1_455
Bi0 O3 2.279053 1_556
Bi0 O4 2.306687 1_455
Bi0 O6 2.428692 1_555
Bi0 O11 2.685010 1_545
Bi1 O0 2.271556 1_565
Bi1 O11 2.279053 1_554
Bi1 O10 2.306687 1_565
Bi1 O7 2.428692 1_555
Bi1 O3 2.685010 1_655
Bi2 O8 2.256007 1_555
Bi2 O5 2.283604 1_655
Bi2 O7 2.350428 1_655
Bi2 O10 2.476518 1_665
Bi2 O9 2.605090 1_555
Bi2 O0 2.777969 1_565
Bi3 O1 2.256007 1_555
Bi3 O9 2.283604 1_545
Bi3 O6 2.350428 1_545
Bi3 O4 2.476518 1_445
Bi3 O5 2.605090 1_555
Bi3 O2 2.777969 1_455
