# generated using pymatgen
data_La2TaCl3O4
_symmetry_space_group_name_H-M   'P 1'
_cell_length_a   3.97260800
_cell_length_b   15.76082000
_cell_length_c   18.27086800
_cell_angle_alpha   90.00000000
_cell_angle_beta   90.00000000
_cell_angle_gamma   90.00000000
_symmetry_Int_Tables_number   1
_chemical_formula_structural   La2TaCl3O4
_chemical_formula_sum   'La12 Ta6 Cl18 O24'
_cell_volume   1143.96754106
_cell_formula_units_Z   6
loop_
 _symmetry_equiv_pos_site_id
 _symmetry_equiv_pos_as_xyz
  1  'x, y, z'
loop_
 _atom_site_type_symbol
 _atom_site_label
 _atom_site_symmetry_multiplicity
 _atom_site_fract_x
 _atom_site_fract_y
 _atom_site_fract_z
 _atom_site_occupancy
  La  La0  1  0.50000000  0.67470300  0.61453700  1
  La  La1  1  0.50000000  0.15008400  0.90083700  1
  La  La2  1  0.00000000  0.82529700  0.38546300  1
  La  La3  1  0.50000000  0.84991600  0.90083700  1
  La  La4  1  0.50000000  0.32529700  0.61453700  1
  La  La5  1  0.00000000  0.00000000  0.13388800  1
  La  La6  1  0.00000000  0.17470300  0.38546300  1
  La  La7  1  0.50000000  0.50000000  0.34503100  1
  La  La8  1  0.00000000  0.65008400  0.09916300  1
  La  La9  1  0.50000000  0.50000000  0.86611200  1
  La  La10  1  0.00000000  0.34991600  0.09916300  1
  La  La11  1  0.00000000  0.00000000  0.65496900  1
  Ta  Ta0  1  0.00000000  0.50000000  0.51678700  1
  Ta  Ta1  1  0.50000000  0.80692300  0.20297200  1
  Ta  Ta2  1  0.50000000  0.19307700  0.20297200  1
  Ta  Ta3  1  0.00000000  0.69307700  0.79702800  1
  Ta  Ta4  1  0.00000000  0.30692300  0.79702800  1
  Ta  Ta5  1  0.50000000  0.00000000  0.48321300  1
  Cl  Cl0  1  0.50000000  0.66742800  0.97335200  1
  Cl  Cl1  1  0.00000000  0.83257200  0.02664800  1
  Cl  Cl2  1  0.00000000  0.00000000  0.85582600  1
  Cl  Cl3  1  0.50000000  0.33257200  0.97335200  1
  Cl  Cl4  1  0.00000000  0.50000000  0.99744400  1
  Cl  Cl5  1  0.50000000  0.50000000  0.14417400  1
  Cl  Cl6  1  0.00000000  0.16742800  0.02664800  1
  Cl  Cl7  1  0.50000000  0.11385000  0.72738400  1
  Cl  Cl8  1  0.00000000  0.38615000  0.27261600  1
  Cl  Cl9  1  0.50000000  0.88615000  0.72738400  1
  Cl  Cl10  1  0.50000000  0.50000000  0.70062400  1
  Cl  Cl11  1  0.00000000  0.18761200  0.56213200  1
  Cl  Cl12  1  0.50000000  0.68761200  0.43786800  1
  Cl  Cl13  1  0.50000000  0.00000000  0.00255600  1
  Cl  Cl14  1  0.00000000  0.00000000  0.29937600  1
  Cl  Cl15  1  0.50000000  0.31238800  0.43786800  1
  Cl  Cl16  1  0.00000000  0.81238800  0.56213200  1
  Cl  Cl17  1  0.00000000  0.61385000  0.27261600  1
  O  O0  1  0.00000000  0.41506400  0.83973100  1
  O  O1  1  0.50000000  0.50000000  0.51028600  1
  O  O2  1  0.00000000  0.30751500  0.69431800  1
  O  O3  1  0.50000000  0.08493600  0.16026900  1
  O  O4  1  0.00000000  0.58493600  0.83973100  1
  O  O5  1  0.00000000  0.20090800  0.19832700  1
  O  O6  1  0.00000000  0.79502400  0.85885800  1
  O  O7  1  0.50000000  0.00000000  0.58931200  1
  O  O8  1  0.50000000  0.70497600  0.14114200  1
  O  O9  1  0.50000000  0.70090800  0.80167300  1
  O  O10  1  0.00000000  0.20497600  0.85885800  1
  O  O11  1  0.00000000  0.69248500  0.69431800  1
  O  O12  1  0.00000000  0.60261900  0.56988500  1
  O  O13  1  0.50000000  0.91506400  0.16026900  1
  O  O14  1  0.00000000  0.00000000  0.48971400  1
  O  O15  1  0.50000000  0.10261900  0.43011500  1
  O  O16  1  0.00000000  0.50000000  0.41068800  1
  O  O17  1  0.50000000  0.89738100  0.43011500  1
  O  O18  1  0.00000000  0.39738100  0.56988500  1
  O  O19  1  0.50000000  0.29909200  0.80167300  1
  O  O20  1  0.50000000  0.80751500  0.30568200  1
  O  O21  1  0.50000000  0.19248500  0.30568200  1
  O  O22  1  0.00000000  0.79909200  0.19832700  1
  O  O23  1  0.50000000  0.29502400  0.14114200  1
loop_
_geom_bond_atom_site_label_1
_geom_bond_atom_site_label_2
_geom_bond_distance
_geom_bond_site_symmetry_2
La0 O12 2.429344 1_655
La0 O12 2.429344 1_555
La0 O11 2.479666 1_555
La0 O11 2.479666 1_655
La1 O10 2.298294 1_555
La1 O10 2.298294 1_655
La2 O17 2.429344 1_455
La2 O17 2.429344 1_555
La2 O20 2.479666 1_455
La2 O20 2.479666 1_555
La3 O6 2.298294 1_555
La3 O6 2.298294 1_655
La4 O18 2.429344 1_655
La4 O18 2.429344 1_555
La4 O2 2.479666 1_555
La4 O2 2.479666 1_655
La5 O3 2.443306 1_555
La5 O13 2.443306 1_445
La5 O3 2.443306 1_455
La5 O13 2.443306 1_545
La6 O15 2.429344 1_455
La6 O15 2.429344 1_555
La6 O21 2.479666 1_455
La6 O21 2.479666 1_555
La7 O16 2.320446 1_555
La7 O16 2.320446 1_655
La8 O8 2.298294 1_555
La8 O8 2.298294 1_455
La9 O4 2.443306 1_555
La9 O0 2.443306 1_655
La9 O4 2.443306 1_655
La9 O0 2.443306 1_555
La10 O23 2.298294 1_555
La10 O23 2.298294 1_455
La11 O7 2.320446 1_555
La11 O7 2.320446 1_455
Cl0 La8 3.050252 1_556
Cl0 La8 3.050252 1_656
Cl0 La3 3.166653 1_555
Cl0 La9 3.286701 1_555
Cl1 La3 3.050252 1_554
Cl1 La3 3.050252 1_454
Cl1 La8 3.166653 1_555
Cl1 La5 3.286701 1_565
Cl2 La1 3.196415 1_455
Cl2 La3 3.196415 1_545
Cl2 La3 3.196415 1_445
Cl2 La1 3.196415 1_555
Cl2 La11 3.669832 1_555
Cl3 La10 3.050252 1_556
Cl3 La10 3.050252 1_656
Cl3 La1 3.166653 1_555
Cl3 La9 3.286701 1_555
Cl4 La10 3.008212 1_556
Cl4 La8 3.008212 1_556
Cl4 La9 3.115003 1_555
Cl4 La9 3.115003 1_455
Cl5 La10 3.196415 1_555
Cl5 La10 3.196415 1_655
Cl5 La8 3.196415 1_555
Cl5 La8 3.196415 1_655
Cl5 La7 3.669832 1_555
Cl6 La1 3.050252 1_454
Cl6 La1 3.050252 1_554
Cl6 La10 3.166653 1_555
Cl6 La5 3.286701 1_555
Cl7 La11 2.985920 1_555
Cl7 La11 2.985920 1_655
Cl7 La1 3.220180 1_555
Cl8 La7 2.985920 1_455
Cl8 La7 2.985920 1_555
Cl8 La10 3.220180 1_555
Cl9 La11 2.985920 1_665
Cl9 La11 2.985920 1_565
Cl9 La3 3.220180 1_555
Cl10 La9 3.023609 1_555
Cl10 La4 3.171044 1_555
Cl10 La0 3.171044 1_555
Cl11 La4 3.093736 1_455
Cl11 La4 3.093736 1_555
Cl11 La6 3.234302 1_555
Cl11 La11 3.408886 1_555
Cl12 La2 3.093736 1_655
Cl12 La2 3.093736 1_555
Cl12 La0 3.234302 1_555
Cl12 La7 3.408886 1_555
Cl13 La3 3.008212 1_544
Cl13 La1 3.008212 1_554
Cl13 La5 3.115003 1_655
Cl13 La5 3.115003 1_555
Cl14 La5 3.023609 1_555
Cl14 La6 3.171044 1_555
Cl14 La2 3.171044 1_545
Cl15 La6 3.093736 1_555
Cl15 La6 3.093736 1_655
Cl15 La4 3.234302 1_555
Cl15 La7 3.408886 1_555
Cl16 La0 3.093736 1_555
Cl16 La0 3.093736 1_455
Cl16 La2 3.234302 1_555
Cl16 La11 3.408886 1_565
Cl17 La7 2.985920 1_455
Cl17 La7 2.985920 1_555
Cl17 La8 3.220180 1_555
O0 Ta4 1.874485 1_555
O1 Ta0 1.989852 1_555
O1 Ta0 1.989852 1_655
O2 Ta4 1.876624 1_555
O3 Ta2 1.874485 1_555
O4 Ta3 1.874485 1_555
O5 Ta2 1.991944 1_555
O5 Ta2 1.991944 1_455
O6 Ta3 1.964153 1_555
O7 Ta5 1.938521 1_555
O8 Ta1 1.964153 1_555
O9 Ta3 1.991944 1_655
O9 Ta3 1.991944 1_555
O10 Ta4 1.964153 1_555
O11 Ta3 1.876624 1_555
O12 Ta0 1.886011 1_555
O13 Ta1 1.874485 1_555
O14 Ta5 1.989852 1_555
O14 Ta5 1.989852 1_455
O15 Ta5 1.886011 1_555
O16 Ta0 1.938521 1_555
O17 Ta5 1.886011 1_565
O18 Ta0 1.886011 1_555
O19 Ta4 1.991944 1_555
O19 Ta4 1.991944 1_655
O20 Ta1 1.876624 1_555
O21 Ta2 1.876624 1_555
O22 Ta1 1.991944 1_555
O22 Ta1 1.991944 1_455
O23 Ta2 1.964153 1_555
