# generated using pymatgen
data_Y5GaCo5
_symmetry_space_group_name_H-M   'P 1'
_cell_length_a   5.54906192
_cell_length_b   5.54906192
_cell_length_c   20.15016671
_cell_angle_alpha   90.00000000
_cell_angle_beta   90.00000000
_cell_angle_gamma   135.35564373
_symmetry_Int_Tables_number   1
_chemical_formula_structural   Y5GaCo5
_chemical_formula_sum   'Y10 Ga2 Co10'
_cell_volume   436.00377741
_cell_formula_units_Z   2
loop_
 _symmetry_equiv_pos_site_id
 _symmetry_equiv_pos_as_xyz
  1  'x, y, z'
loop_
 _atom_site_type_symbol
 _atom_site_label
 _atom_site_symmetry_multiplicity
 _atom_site_fract_x
 _atom_site_fract_y
 _atom_site_fract_z
 _atom_site_occupancy
  Y  Y0  1  0.26909438  0.73090562  0.25000000  1
  Y  Y1  1  0.27394205  0.72605795  0.06624521  1
  Y  Y2  1  0.01580405  -0.01580405  0.84484187  1
  Y  Y3  1  0.73090562  0.26909438  0.75000000  1
  Y  Y4  1  0.72605795  0.27394205  0.56624521  1
  Y  Y5  1  -0.01580405  0.01580405  0.34484187  1
  Y  Y6  1  0.01580405  -0.01580405  0.65515813  1
  Y  Y7  1  0.72605795  0.27394205  0.93375479  1
  Y  Y8  1  -0.01580405  0.01580405  0.15515813  1
  Y  Y9  1  0.27394205  0.72605795  0.43375479  1
  Ga  Ga0  1  -0.00000000  0.00000000  0.50000000  1
  Ga  Ga1  1  -0.00000000  0.00000000  0.00000000  1
  Co  Co0  1  0.32420472  0.67579528  0.65178399  1
  Co  Co1  1  0.56620571  0.43379429  0.44702633  1
  Co  Co2  1  0.42655440  0.57344560  0.75000000  1
  Co  Co3  1  0.43379429  0.56620571  0.94702633  1
  Co  Co4  1  0.57344560  0.42655440  0.25000000  1
  Co  Co5  1  0.43379429  0.56620571  0.55297367  1
  Co  Co6  1  0.67579528  0.32420472  0.34821601  1
  Co  Co7  1  0.67579528  0.32420472  0.15178399  1
  Co  Co8  1  0.56620571  0.43379429  0.05297367  1
  Co  Co9  1  0.32420472  0.67579528  0.84821601  1
loop_
_geom_bond_atom_site_label_1
_geom_bond_atom_site_label_2
_geom_bond_distance
_geom_bond_site_symmetry_2
Ga0 Y9 3.113119 1_545
Ga0 Y4 3.113119 1_455
Ga0 Y5 3.130669 1_555
Ga0 Y6 3.130669 1_555
Ga0 Y9 3.407352 1_445
Ga0 Y9 3.407352 1_555
Ga0 Y4 3.407352 1_555
Ga0 Y4 3.407352 1_445
Ga1 Y1 3.113119 1_545
Ga1 Y7 3.113119 1_454
Ga1 Y8 3.130669 1_555
Ga1 Y2 3.130669 1_554
Ga1 Y1 3.407352 1_445
Ga1 Y1 3.407352 1_555
Ga1 Y7 3.407352 1_554
Ga1 Y7 3.407352 1_444
Co0 Co2 2.240721 1_555
Co0 Co5 2.286941 1_555
Co0 Y6 2.883735 1_555
Co0 Y6 2.883735 1_665
Co0 Y4 2.903136 1_565
Co0 Y4 2.903136 1_455
Co0 Y3 3.045690 1_565
Co0 Y3 3.045690 1_455
Co0 Y6 3.166913 1_565
Co1 Co6 2.286941 1_555
Co1 Ga0 2.458338 1_555
Co1 Ga0 2.458338 1_665
Co1 Co5 2.530923 1_555
Co1 Y4 2.909332 1_555
Co1 Y9 3.010320 1_655
Co1 Y9 3.010320 1_545
Co1 Y9 3.012407 1_555
Co1 Y5 3.064398 1_555
Co1 Y5 3.064398 1_665
Co2 Co9 2.240721 1_555
Co2 Y3 2.911458 1_455
Co2 Y3 2.911458 1_565
Co2 Y2 2.988950 1_555
Co2 Y6 2.988950 1_555
Co2 Y2 2.988950 1_665
Co2 Y6 2.988950 1_665
Co2 Y3 3.124610 1_555
Co3 Co9 2.286941 1_555
Co3 Ga1 2.458338 1_556
Co3 Ga1 2.458338 1_666
Co3 Co8 2.530923 1_556
Co3 Y1 2.909332 1_556
Co3 Y7 3.010320 1_565
Co3 Y7 3.010320 1_455
Co3 Y7 3.012407 1_555
Co3 Y2 3.064398 1_555
Co3 Y2 3.064398 1_665
Co4 Co7 2.240721 1_555
Co4 Co6 2.240721 1_555
Co4 Y0 2.911458 1_545
Co4 Y0 2.911458 1_655
Co4 Y8 2.988950 1_665
Co4 Y8 2.988950 1_555
Co4 Y5 2.988950 1_555
Co4 Y5 2.988950 1_665
Co4 Y0 3.124610 1_555
Co5 Ga0 2.458338 1_555
Co5 Ga0 2.458338 1_665
Co5 Y9 2.909332 1_555
Co5 Y4 3.010320 1_455
Co5 Y4 3.010320 1_565
Co5 Y4 3.012407 1_555
Co5 Y6 3.064398 1_555
Co5 Y6 3.064398 1_665
Co6 Y5 2.883735 1_555
Co6 Y5 2.883735 1_665
Co6 Y9 2.903136 1_545
Co6 Y9 2.903136 1_655
Co6 Y0 3.045690 1_545
Co6 Y0 3.045690 1_655
Co6 Y5 3.166913 1_655
Co7 Co8 2.286941 1_555
Co7 Y8 2.883735 1_555
Co7 Y8 2.883735 1_665
Co7 Y1 2.903136 1_655
Co7 Y1 2.903136 1_545
Co7 Y0 3.045690 1_545
Co7 Y0 3.045690 1_655
Co7 Y8 3.166913 1_655
Co8 Ga1 2.458338 1_665
Co8 Ga1 2.458338 1_555
Co8 Y7 2.909332 1_554
Co8 Y1 3.010320 1_545
Co8 Y1 3.010320 1_655
Co8 Y1 3.012407 1_555
Co8 Y8 3.064398 1_555
Co8 Y8 3.064398 1_665
Co9 Y2 2.883735 1_555
Co9 Y2 2.883735 1_665
Co9 Y7 2.903136 1_565
Co9 Y7 2.903136 1_455
Co9 Y3 3.045690 1_565
Co9 Y3 3.045690 1_455
Co9 Y2 3.166913 1_565
