# generated using pymatgen
data_Na6Cu9(PO4)8
_symmetry_space_group_name_H-M   'P 1'
_cell_length_a   8.92467184
_cell_length_b   9.09140150
_cell_length_c   9.44497034
_cell_angle_alpha   112.84467865
_cell_angle_beta   100.26810726
_cell_angle_gamma   102.93504812
_symmetry_Int_Tables_number   1
_chemical_formula_structural   Na6Cu9(PO4)8
_chemical_formula_sum   'Na6 Cu9 P8 O32'
_cell_volume   657.63284835
_cell_formula_units_Z   1
loop_
 _symmetry_equiv_pos_site_id
 _symmetry_equiv_pos_as_xyz
  1  'x, y, z'
loop_
 _atom_site_type_symbol
 _atom_site_label
 _atom_site_symmetry_multiplicity
 _atom_site_fract_x
 _atom_site_fract_y
 _atom_site_fract_z
 _atom_site_occupancy
  Na  Na0  1  0.64789500  0.93224300  0.06373100  1
  Na  Na1  1  0.33115500  0.31025000  0.34954100  1
  Na  Na2  1  0.99317700  0.70280000  0.25803200  1
  Na  Na3  1  0.66884500  0.68975000  0.65045900  1
  Na  Na4  1  0.00682300  0.29720000  0.74196800  1
  Na  Na5  1  0.35210500  0.06775700  0.93626900  1
  Cu  Cu0  1  0.80337700  0.27167700  0.06181300  1
  Cu  Cu1  1  0.71330100  0.88669500  0.43235400  1
  Cu  Cu2  1  0.19662300  0.72832300  0.93818700  1
  Cu  Cu3  1  0.34109500  0.69992800  0.44721900  1
  Cu  Cu4  1  0.00000000  0.00000000  0.00000000  1
  Cu  Cu5  1  0.28669900  0.11330500  0.56764600  1
  Cu  Cu6  1  0.65890500  0.30007200  0.55278100  1
  Cu  Cu7  1  0.00000000  0.50000000  0.50000000  1
  Cu  Cu8  1  0.50000000  0.50000000  0.00000000  1
  P  P0  1  0.03576600  0.87846500  0.64852800  1
  P  P1  1  0.39557800  0.94242000  0.28970500  1
  P  P2  1  0.96423400  0.12153500  0.35147200  1
  P  P3  1  0.60442200  0.05758000  0.71029500  1
  P  P4  1  0.65962400  0.41839500  0.26818900  1
  P  P5  1  0.83252000  0.62452200  0.90753000  1
  P  P6  1  0.16748000  0.37547800  0.09247000  1
  P  P7  1  0.34037600  0.58160500  0.73181100  1
  O  O0  1  0.90326300  0.26145400  0.45910500  1
  O  O1  1  0.80631200  0.79563200  0.92802700  1
  O  O2  1  0.87557700  0.94486600  0.33351100  1
  O  O3  1  0.44222300  0.12668100  0.43435300  1
  O  O4  1  0.15087400  0.53068200  0.70383000  1
  O  O5  1  0.38412800  0.58181600  0.58122200  1
  O  O6  1  0.19368800  0.20436800  0.07197300  1
  O  O7  1  0.92748000  0.11814900  0.18203900  1
  O  O8  1  0.80128300  0.51690700  0.72447200  1
  O  O9  1  0.99025700  0.33880200  0.00017600  1
  O  O10  1  0.72014200  0.17756100  0.66788600  1
  O  O11  1  0.27985800  0.82243900  0.33211400  1
  O  O12  1  0.00974300  0.66119800  0.99982400  1
  O  O13  1  0.84912600  0.46931800  0.29617000  1
  O  O14  1  0.69488900  0.05546600  0.86425500  1
  O  O15  1  0.30511100  0.94453400  0.13574500  1
  O  O16  1  0.61587200  0.41818400  0.41877800  1
  O  O17  1  0.39824400  0.76145100  0.87630300  1
  O  O18  1  0.44852500  0.09933000  0.72870800  1
  O  O19  1  0.19871700  0.48309300  0.27552800  1
  O  O20  1  0.41243900  0.45979000  0.77519800  1
  O  O21  1  0.85242900  0.83364800  0.57669700  1
  O  O22  1  0.55777700  0.87331900  0.56564700  1
  O  O23  1  0.27493900  0.45819400  0.01367100  1
  O  O24  1  0.72506100  0.54180600  0.98632900  1
  O  O25  1  0.14757100  0.16635200  0.42330300  1
  O  O26  1  0.07252000  0.88185100  0.81796100  1
  O  O27  1  0.55147500  0.90067000  0.27129200  1
  O  O28  1  0.60175600  0.23854900  0.12369700  1
  O  O29  1  0.09673700  0.73854600  0.54089500  1
  O  O30  1  0.58756100  0.54021000  0.22480200  1
  O  O31  1  0.12442300  0.05513400  0.66648900  1
loop_
_geom_bond_atom_site_label_1
_geom_bond_atom_site_label_2
_geom_bond_distance
_geom_bond_site_symmetry_2
Na0 O1 2.319556 1_554
Na0 O17 2.328030 1_554
Na0 O27 2.365132 1_555
Na0 O7 2.445971 1_565
Na0 O14 2.586645 1_564
Na0 O28 2.759897 1_565
Na0 O2 2.908169 1_555
Na1 O25 2.244172 1_555
Na1 O16 2.374932 1_555
Na1 O6 2.381136 1_555
Na1 O19 2.396840 1_555
Na1 O3 2.430028 1_555
Na1 O5 2.453792 1_555
Na2 O12 2.355815 1_654
Na2 O11 2.396602 1_655
Na2 O13 2.413582 1_555
Na2 O29 2.531507 1_655
Na2 O2 2.556469 1_555
Na2 O24 2.789251 1_554
Na3 O21 2.244172 1_555
Na3 O5 2.374932 1_555
Na3 O1 2.381136 1_555
Na3 O8 2.396840 1_555
Na3 O22 2.430028 1_555
Na3 O16 2.453792 1_555
Na4 O9 2.355815 1_456
Na4 O10 2.396602 1_455
Na4 O4 2.413582 1_555
Na4 O0 2.531507 1_455
Na4 O31 2.556469 1_555
Na4 O23 2.789251 1_556
Na5 O6 2.319556 1_556
Na5 O28 2.328030 1_556
Na5 O18 2.365132 1_555
Na5 O26 2.445971 1_545
Na5 O15 2.586645 1_546
Na5 O17 2.759897 1_545
Na5 O31 2.908169 1_555
Cu0 O9 1.912947 1_555
Cu0 O14 1.984671 1_554
Cu0 O28 1.984742 1_555
Cu0 O13 2.134478 1_555
Cu0 O7 2.436960 1_555
Cu1 O2 1.941952 1_555
Cu1 O21 1.951429 1_555
Cu1 O27 1.965979 1_555
Cu1 O22 2.047575 1_555
Cu2 O12 1.912947 1_555
Cu2 O15 1.984671 1_556
Cu2 O17 1.984742 1_555
Cu2 O4 2.134478 1_555
Cu2 O26 2.436960 1_555
Cu3 O11 1.929263 1_555
Cu3 O19 1.947357 1_555
Cu3 O5 1.992245 1_555
Cu3 O22 1.992668 1_555
Cu3 O29 2.539982 1_555
Cu4 O7 1.950076 1_455
Cu4 O26 1.950076 1_544
Cu4 O6 2.016136 1_555
Cu4 O1 2.016136 1_444
Cu5 O31 1.941952 1_555
Cu5 O25 1.951429 1_555
Cu5 O18 1.965979 1_555
Cu5 O3 2.047575 1_555
Cu6 O10 1.929263 1_555
Cu6 O8 1.947357 1_555
Cu6 O16 1.992245 1_555
Cu6 O3 1.992668 1_555
Cu6 O0 2.539982 1_555
Cu7 O29 1.997584 1_555
Cu7 O0 1.997584 1_455
Cu7 O4 2.021847 1_555
Cu7 O13 2.021847 1_455
Cu8 O30 1.982520 1_555
Cu8 O20 1.982520 1_554
Cu8 O23 1.996091 1_555
Cu8 O24 1.996091 1_554
O0 P2 1.565466 1_555
O1 P5 1.567600 1_555
O2 P2 1.551205 1_565
O3 P1 1.598134 1_545
O4 P7 1.593612 1_555
O5 P7 1.541172 1_555
O6 P6 1.567600 1_555
O7 P2 1.561909 1_555
O8 P5 1.554633 1_555
O9 P6 1.555433 1_655
O10 P3 1.548957 1_555
O11 P1 1.548957 1_555
O12 P5 1.555433 1_455
O13 P4 1.593612 1_555
O14 P3 1.541712 1_555
O15 P1 1.541712 1_555
O16 P4 1.541172 1_555
O17 P7 1.562262 1_555
O18 P3 1.543227 1_555
O19 P6 1.554633 1_555
O20 P7 1.544454 1_555
O21 P0 1.547469 1_655
O22 P3 1.598134 1_565
O23 P6 1.550916 1_555
O24 P5 1.550916 1_555
O25 P2 1.547469 1_455
O26 P0 1.561909 1_555
O27 P1 1.543227 1_555
O28 P4 1.562262 1_555
O29 P0 1.565466 1_555
O30 P4 1.544454 1_555
O31 P0 1.551205 1_545
