# generated using pymatgen
data_K3Hg3S2Cl5O6
_symmetry_space_group_name_H-M   'P 1'
_cell_length_a   6.13855900
_cell_length_b   12.58653000
_cell_length_c   22.75847500
_cell_angle_alpha   90.00000000
_cell_angle_beta   90.00000000
_cell_angle_gamma   90.00000000
_symmetry_Int_Tables_number   1
_chemical_formula_structural   K3Hg3S2Cl5O6
_chemical_formula_sum   'K12 Hg12 S8 Cl20 O24'
_cell_volume   1758.39162724
_cell_formula_units_Z   4
loop_
 _symmetry_equiv_pos_site_id
 _symmetry_equiv_pos_as_xyz
  1  'x, y, z'
loop_
 _atom_site_type_symbol
 _atom_site_label
 _atom_site_symmetry_multiplicity
 _atom_site_fract_x
 _atom_site_fract_y
 _atom_site_fract_z
 _atom_site_occupancy
  K  K0  1  0.75000000  0.13419500  0.48967200  1
  K  K1  1  0.25000000  0.12622800  0.99798100  1
  K  K2  1  0.25000000  0.36889500  0.13293500  1
  K  K3  1  0.25000000  0.63419500  0.01032800  1
  K  K4  1  0.25000000  0.86580500  0.51032800  1
  K  K5  1  0.75000000  0.62622800  0.50201900  1
  K  K6  1  0.75000000  0.63110500  0.86706500  1
  K  K7  1  0.25000000  0.37377200  0.49798100  1
  K  K8  1  0.75000000  0.87377200  0.00201900  1
  K  K9  1  0.75000000  0.36580500  0.98967200  1
  K  K10  1  0.25000000  0.13110500  0.63293500  1
  K  K11  1  0.75000000  0.86889500  0.36706500  1
  Hg  Hg0  1  0.75000000  0.12572600  0.81178400  1
  Hg  Hg1  1  0.25000000  0.87427400  0.18821600  1
  Hg  Hg2  1  0.75000000  0.11304500  0.19122300  1
  Hg  Hg3  1  0.75000000  0.38695500  0.69122300  1
  Hg  Hg4  1  0.25000000  0.88695500  0.80877700  1
  Hg  Hg5  1  0.25000000  0.14098500  0.31403400  1
  Hg  Hg6  1  0.25000000  0.62572600  0.68821600  1
  Hg  Hg7  1  0.25000000  0.61304500  0.30877700  1
  Hg  Hg8  1  0.75000000  0.37427400  0.31178400  1
  Hg  Hg9  1  0.75000000  0.85901500  0.68596600  1
  Hg  Hg10  1  0.75000000  0.64098500  0.18596600  1
  Hg  Hg11  1  0.25000000  0.35901500  0.81403400  1
  S  S0  1  0.25000000  0.83951900  0.91287900  1
  S  S1  1  0.25000000  0.42188300  0.91623900  1
  S  S2  1  0.75000000  0.16048100  0.08712100  1
  S  S3  1  0.25000000  0.66048100  0.41287900  1
  S  S4  1  0.25000000  0.07811700  0.41623900  1
  S  S5  1  0.75000000  0.33951900  0.58712100  1
  S  S6  1  0.75000000  0.92188300  0.58376100  1
  S  S7  1  0.75000000  0.57811700  0.08376100  1
  Cl  Cl0  1  0.75000000  0.37226300  0.41560600  1
  Cl  Cl1  1  0.25000000  0.36998200  0.30899900  1
  Cl  Cl2  1  0.75000000  0.63001800  0.69100100  1
  Cl  Cl3  1  0.25000000  0.36665500  0.70449400  1
  Cl  Cl4  1  0.25000000  0.61111200  0.20031400  1
  Cl  Cl5  1  0.25000000  0.13334500  0.20449400  1
  Cl  Cl6  1  0.25000000  0.87345800  0.29249100  1
  Cl  Cl7  1  0.25000000  0.62773700  0.58439400  1
  Cl  Cl8  1  0.75000000  0.37345800  0.20750900  1
  Cl  Cl9  1  0.75000000  0.11111200  0.29968600  1
  Cl  Cl10  1  0.25000000  0.62654200  0.79249100  1
  Cl  Cl11  1  0.75000000  0.86665500  0.79550600  1
  Cl  Cl12  1  0.25000000  0.88888800  0.70031400  1
  Cl  Cl13  1  0.75000000  0.12773700  0.91560600  1
  Cl  Cl14  1  0.75000000  0.38888800  0.79968600  1
  Cl  Cl15  1  0.75000000  0.86998200  0.19100100  1
  Cl  Cl16  1  0.75000000  0.12654200  0.70750900  1
  Cl  Cl17  1  0.25000000  0.13001800  0.80899900  1
  Cl  Cl18  1  0.25000000  0.87226300  0.08439400  1
  Cl  Cl19  1  0.75000000  0.63334500  0.29550600  1
  O  O0  1  0.25000000  0.17115600  0.45625800  1
  O  O1  1  0.95014400  0.98708100  0.57596000  1
  O  O2  1  0.94986700  0.22453100  0.07630000  1
  O  O3  1  0.45014400  0.48708100  0.92404000  1
  O  O4  1  0.95014400  0.51291900  0.07596000  1
  O  O5  1  0.05013300  0.77546900  0.92370000  1
  O  O6  1  0.55013300  0.27546900  0.57630000  1
  O  O7  1  0.75000000  0.82884400  0.54374200  1
  O  O8  1  0.75000000  0.06144800  0.05246300  1
  O  O9  1  0.25000000  0.93855200  0.94753700  1
  O  O10  1  0.44986700  0.72453100  0.42370000  1
  O  O11  1  0.25000000  0.32884400  0.95625800  1
  O  O12  1  0.54985600  0.98708100  0.57596000  1
  O  O13  1  0.04985600  0.48708100  0.92404000  1
  O  O14  1  0.25000000  0.56144800  0.44753700  1
  O  O15  1  0.55013300  0.22453100  0.07630000  1
  O  O16  1  0.44986700  0.77546900  0.92370000  1
  O  O17  1  0.45014400  0.01291900  0.42404000  1
  O  O18  1  0.94986700  0.27546900  0.57630000  1
  O  O19  1  0.75000000  0.67115600  0.04374200  1
  O  O20  1  0.04985600  0.01291900  0.42404000  1
  O  O21  1  0.05013300  0.72453100  0.42370000  1
  O  O22  1  0.54985600  0.51291900  0.07596000  1
  O  O23  1  0.75000000  0.43855200  0.55246300  1
loop_
_geom_bond_atom_site_label_1
_geom_bond_atom_site_label_2
_geom_bond_distance
_geom_bond_site_symmetry_2
K0 O20 2.819440 1_655
K0 O17 2.819440 1_555
K0 O18 2.924719 1_555
K0 O6 2.924719 1_555
K0 O12 2.965555 1_545
K0 O1 2.965555 1_545
K0 O0 3.196120 1_655
K0 O0 3.196120 1_555
K1 O9 2.626387 1_545
K1 O11 2.721274 1_555
K1 O15 2.846454 1_556
K1 O2 2.846454 1_456
K2 O22 2.890599 1_555
K2 O4 2.890599 1_455
K2 O15 2.890908 1_555
K2 O2 2.890908 1_455
K3 O22 2.819440 1_555
K3 O4 2.819440 1_455
K3 O16 2.924719 1_554
K3 O5 2.924719 1_554
K3 O3 2.965555 1_554
K3 O13 2.965555 1_554
K3 O19 3.196120 1_455
K3 O19 3.196120 1_555
K4 O12 2.819440 1_555
K4 O1 2.819440 1_455
K4 O10 2.924719 1_555
K4 O21 2.924719 1_555
K4 O20 2.965555 1_565
K4 O17 2.965555 1_565
K4 O7 3.196120 1_455
K4 O7 3.196120 1_555
K5 O23 2.626387 1_555
K5 O7 2.721274 1_555
K5 O21 2.846454 1_655
K5 O10 2.846454 1_555
K6 O3 2.890599 1_555
K6 O13 2.890599 1_655
K6 O5 2.890908 1_655
K6 O16 2.890908 1_555
K7 O14 2.626387 1_555
K7 O0 2.721274 1_555
K7 O6 2.846454 1_555
K7 O18 2.846454 1_455
K8 O8 2.626387 1_565
K8 O19 2.721274 1_555
K8 O5 2.846454 1_654
K8 O16 2.846454 1_554
K9 O13 2.819440 1_655
K9 O3 2.819440 1_555
K9 O2 2.924719 1_556
K9 O15 2.924719 1_556
K9 O4 2.965555 1_556
K9 O22 2.965555 1_556
K9 O11 3.196120 1_655
K9 O11 3.196120 1_555
K10 O1 2.890599 1_445
K10 O12 2.890599 1_545
K10 O6 2.890908 1_555
K10 O18 2.890908 1_455
K11 O20 2.890599 1_665
K11 O17 2.890599 1_565
K11 O21 2.890908 1_655
K11 O10 2.890908 1_555
Hg2 S2 2.443276 1_555
Hg3 S5 2.443276 1_555
Hg4 S0 2.443276 1_555
Hg5 S4 2.456940 1_555
Hg7 S3 2.443276 1_555
Hg9 S6 2.456940 1_555
Hg10 S7 2.456940 1_555
Hg11 S1 2.456940 1_555
Cl0 Hg8 2.362966 1_555
Cl0 K0 3.438031 1_555
Cl1 Hg5 2.884555 1_555
Cl1 Hg7 3.059324 1_555
Cl1 Hg8 3.070409 1_455
Cl1 Hg8 3.070409 1_555
Cl2 Hg9 2.884555 1_555
Cl2 Hg3 3.059324 1_555
Cl2 Hg6 3.070409 1_655
Cl2 Hg6 3.070409 1_555
Cl3 Hg11 2.494817 1_555
Cl3 K10 3.382608 1_555
Cl4 Hg7 2.468572 1_555
Cl4 K2 3.412601 1_555
Cl5 Hg5 2.494817 1_555
Cl5 K2 3.382608 1_555
Cl6 Hg1 2.373162 1_555
Cl6 K11 3.507739 1_555
Cl6 K11 3.507739 1_455
Cl7 Hg6 2.362966 1_555
Cl7 K4 3.438031 1_555
Cl8 Hg8 2.373162 1_555
Cl8 K2 3.507739 1_655
Cl8 K2 3.507739 1_555
Cl9 Hg2 2.468572 1_555
Cl9 K11 3.412601 1_545
Cl10 Hg6 2.373162 1_555
Cl10 K6 3.507739 1_555
Cl10 K6 3.507739 1_455
Cl11 Hg9 2.494817 1_555
Cl11 K6 3.382608 1_555
Cl12 Hg4 2.468572 1_555
Cl12 K10 3.412601 1_565
Cl13 Hg0 2.362966 1_555
Cl13 K9 3.438031 1_555
Cl14 Hg3 2.468572 1_555
Cl14 K6 3.412601 1_555
Cl15 Hg10 2.884555 1_555
Cl15 Hg2 3.059324 1_565
Cl15 Hg1 3.070409 1_655
Cl15 Hg1 3.070409 1_555
Cl16 Hg0 2.373162 1_555
Cl16 K10 3.507739 1_555
Cl16 K10 3.507739 1_655
Cl17 Hg11 2.884555 1_555
Cl17 Hg4 3.059324 1_545
Cl17 Hg0 3.070409 1_555
Cl17 Hg0 3.070409 1_455
Cl18 Hg1 2.362966 1_555
Cl18 K3 3.438031 1_555
Cl19 Hg10 2.494817 1_555
Cl19 K11 3.382608 1_555
O0 S4 1.483521 1_555
O1 S6 1.488079 1_555
O2 S2 1.488565 1_555
O3 S1 1.488079 1_555
O4 S7 1.488079 1_555
O5 S0 1.488565 1_555
O6 S5 1.488565 1_555
O7 S6 1.483521 1_555
O8 S2 1.475081 1_555
O9 S0 1.475081 1_555
O10 S3 1.488565 1_555
O11 S1 1.483521 1_555
O12 S6 1.488079 1_555
O13 S1 1.488079 1_555
O14 S3 1.475081 1_555
O15 S2 1.488565 1_555
O16 S0 1.488565 1_555
O17 S4 1.488079 1_555
O18 S5 1.488565 1_555
O19 S7 1.483521 1_555
O20 S4 1.488079 1_555
O21 S3 1.488565 1_555
O22 S7 1.488079 1_555
O23 S5 1.475081 1_555
