# generated using pymatgen
data_Cs3As
_symmetry_space_group_name_H-M   'P 1'
_cell_length_a   10.85830240
_cell_length_b   10.85830234
_cell_length_c   11.29217385
_cell_angle_alpha   90.00000000
_cell_angle_beta   90.00000000
_cell_angle_gamma   120.00000019
_symmetry_Int_Tables_number   1
_chemical_formula_structural   Cs3As
_chemical_formula_sum   'Cs18 As6'
_cell_volume   1153.00727915
_cell_formula_units_Z   6
loop_
 _symmetry_equiv_pos_site_id
 _symmetry_equiv_pos_as_xyz
  1  'x, y, z'
loop_
 _atom_site_type_symbol
 _atom_site_label
 _atom_site_symmetry_multiplicity
 _atom_site_fract_x
 _atom_site_fract_y
 _atom_site_fract_z
 _atom_site_occupancy
  Cs  Cs0  1  0.62952875  0.00000000  0.50983908  1
  Cs  Cs1  1  0.62952875  0.62952875  0.00983908  1
  Cs  Cs2  1  -0.00000000  0.37047125  0.00983908  1
  Cs  Cs3  1  0.00000000  0.62952875  0.50983908  1
  Cs  Cs4  1  0.37047125  0.37047125  0.50983908  1
  Cs  Cs5  1  0.37047125  0.00000000  0.00983908  1
  Cs  Cs6  1  0.71013312  0.00000000  0.17937678  1
  Cs  Cs7  1  0.71013312  0.71013312  0.67937678  1
  Cs  Cs8  1  0.00000000  0.28986688  0.67937678  1
  Cs  Cs9  1  -0.00000000  0.71013312  0.17937678  1
  Cs  Cs10  1  0.28986688  0.28986688  0.17937678  1
  Cs  Cs11  1  0.28986688  0.00000000  0.67937678  1
  Cs  Cs12  1  0.00000000  0.00000000  0.42827749  1
  Cs  Cs13  1  0.00000000  0.00000000  0.92827749  1
  Cs  Cs14  1  0.66666700  0.33333300  0.29076627  1
  Cs  Cs15  1  0.33333300  0.66666700  0.79076627  1
  Cs  Cs16  1  0.66666700  0.33333300  0.79076627  1
  Cs  Cs17  1  0.33333300  0.66666700  0.29076627  1
  As  As0  1  0.00000000  0.32677705  0.34551180  1
  As  As1  1  0.67322295  0.00000000  0.84551180  1
  As  As2  1  0.32677705  0.32677705  0.84551180  1
  As  As3  1  0.67322295  0.67322295  0.34551180  1
  As  As4  1  0.32677705  0.00000000  0.34551180  1
  As  As5  1  -0.00000000  0.67322295  0.84551180  1
loop_
_geom_bond_atom_site_label_1
_geom_bond_atom_site_label_2
_geom_bond_distance
_geom_bond_site_symmetry_2
As0 Cs12 3.669267 1_555
As0 Cs14 3.707447 1_455
As0 Cs17 3.707453 1_555
As0 Cs3 3.774930 1_555
As0 Cs8 3.791304 1_555
As0 Cs2 3.820052 1_555
As0 Cs6 3.853318 1_455
As0 Cs10 3.853318 1_555
As0 Cs0 4.235785 1_455
As0 Cs4 4.235785 1_555
As1 Cs13 3.669267 1_655
As1 Cs16 3.707447 1_555
As1 Cs15 3.707453 1_545
As1 Cs5 3.774930 1_556
As1 Cs6 3.791304 1_556
As1 Cs0 3.820052 1_555
As1 Cs8 3.853318 1_655
As1 Cs7 3.853318 1_545
As1 Cs2 4.235785 1_656
As1 Cs1 4.235785 1_546
As2 Cs13 3.669267 1_555
As2 Cs15 3.707458 1_555
As2 Cs16 3.707458 1_555
As2 Cs1 3.774930 1_556
As2 Cs10 3.791304 1_556
As2 Cs4 3.820052 1_555
As2 Cs11 3.853318 1_555
As2 Cs8 3.853318 1_555
As2 Cs5 4.235785 1_556
As2 Cs2 4.235785 1_556
As3 Cs12 3.669267 1_665
As3 Cs14 3.707458 1_555
As3 Cs17 3.707458 1_555
As3 Cs4 3.774930 1_555
As3 Cs7 3.791304 1_555
As3 Cs1 3.820052 1_555
As3 Cs6 3.853318 1_565
As3 Cs9 3.853318 1_655
As3 Cs0 4.235785 1_565
As3 Cs3 4.235785 1_655
As4 Cs12 3.669267 1_555
As4 Cs17 3.707447 1_545
As4 Cs14 3.707453 1_555
As4 Cs0 3.774930 1_555
As4 Cs11 3.791304 1_555
As4 Cs5 3.820052 1_555
As4 Cs10 3.853318 1_555
As4 Cs9 3.853318 1_545
As4 Cs4 4.235785 1_555
As4 Cs3 4.235785 1_545
As5 Cs13 3.669267 1_565
As5 Cs15 3.707447 1_555
As5 Cs16 3.707453 1_455
As5 Cs2 3.774930 1_556
As5 Cs9 3.791304 1_556
As5 Cs3 3.820052 1_555
As5 Cs11 3.853318 1_565
As5 Cs7 3.853318 1_455
As5 Cs5 4.235785 1_566
As5 Cs1 4.235785 1_456
