# generated using pymatgen
data_Be12V
_symmetry_space_group_name_H-M   'P 1'
_cell_length_a   4.14526019
_cell_length_b   5.51027701
_cell_length_c   5.51034466
_cell_angle_alpha   81.87163870
_cell_angle_beta   67.90332014
_cell_angle_gamma   67.90346947
_symmetry_Int_Tables_number   1
_chemical_formula_structural   Be12V
_chemical_formula_sum   'Be12 V1'
_cell_volume   108.05442887
_cell_formula_units_Z   1
loop_
 _symmetry_equiv_pos_site_id
 _symmetry_equiv_pos_as_xyz
  1  'x, y, z'
loop_
 _atom_site_type_symbol
 _atom_site_label
 _atom_site_symmetry_multiplicity
 _atom_site_fract_x
 _atom_site_fract_y
 _atom_site_fract_z
 _atom_site_occupancy
  Be  Be0  1  0.49999821  0.78780020  0.21219994  1
  Be  Be1  1  0.34756825  0.65150994  0.65151808  1
  Be  Be2  1  0.00000041  0.34871499  0.65130777  1
  Be  Be3  1  0.99999959  0.65128601  0.34869223  1
  Be  Be4  1  0.71124444  0.78793311  0.78793226  1
  Be  Be5  1  0.50000000  0.00000000  0.50000000  1
  Be  Be6  1  0.50000179  0.21219980  0.78780006  1
  Be  Be7  1  0.65243175  0.34849006  0.34848192  1
  Be  Be8  1  0.28875556  0.21206689  0.21206774  1
  Be  Be9  1  0.50000000  0.50000000  -0.00000000  1
  Be  Be10  1  -0.00000000  0.50000000  -0.00000000  1
  Be  Be11  1  -0.00000000  0.00000000  0.50000000  1
  V  V0  1  -0.00000000  0.00000000  -0.00000000  1
loop_
_geom_bond_atom_site_label_1
_geom_bond_atom_site_label_2
_geom_bond_distance
_geom_bond_site_symmetry_2
Be0 Be11 2.099096 1_565
Be0 Be10 2.099100 1_655
Be0 Be9 2.099180 1_555
Be0 Be5 2.099193 1_565
Be0 Be8 2.166120 1_565
Be0 Be4 2.166149 1_554
Be0 Be3 2.295038 1_555
Be0 Be3 2.295100 1_455
Be0 Be7 2.348460 1_555
Be0 Be1 2.348533 1_555
Be0 V0 2.577523 1_665
Be0 V0 2.577525 1_565
Be1 Be7 2.187849 1_555
Be1 Be10 2.197797 1_556
Be1 Be11 2.197842 1_565
Be1 Be9 2.201425 1_556
Be1 Be5 2.201451 1_565
Be1 Be4 2.294352 1_455
Be1 Be4 2.295151 1_555
Be1 Be6 2.348460 1_555
Be1 V0 2.516042 1_566
Be2 Be3 2.184983 1_455
Be2 Be9 2.199889 1_456
Be2 Be5 2.199968 1_555
Be2 Be6 2.295038 1_555
Be2 Be6 2.295103 1_455
Be2 Be4 2.348355 1_455
Be2 Be8 2.348520 1_555
Be2 V0 2.517939 1_556
Be3 Be9 2.199890 1_655
Be3 Be5 2.199965 1_565
Be3 Be8 2.348360 1_655
Be3 Be4 2.348518 1_555
Be3 V0 2.517935 1_665
Be4 Be9 2.097785 1_556
Be4 Be5 2.097795 1_565
Be4 Be6 2.166120 1_565
Be4 V0 2.574032 1_566
Be4 V0 2.579642 1_666
Be5 Be8 2.097795 1_555
Be5 Be6 2.099193 1_555
Be5 Be7 2.201451 1_555
Be5 V0 2.755097 1_655
Be5 V0 2.755097 1_556
Be6 Be9 2.099180 1_556
Be6 Be8 2.166149 1_556
Be6 Be7 2.348533 1_555
Be6 V0 2.577523 1_556
Be6 V0 2.577525 1_656
Be7 Be9 2.201425 1_555
Be7 Be8 2.294352 1_655
Be7 Be8 2.295151 1_555
Be7 V0 2.516042 1_655
Be8 Be9 2.097785 1_555
Be8 V0 2.574032 1_655
Be8 V0 2.579642 1_555
Be9 V0 2.755078 1_565
Be9 V0 2.755078 1_655
Be10 Be9 2.072630 1_455
Be10 Be9 2.072630 1_555
Be10 Be6 2.099100 1_554
Be10 Be8 2.101149 1_555
Be10 Be4 2.101149 1_454
Be10 Be7 2.197797 1_455
Be10 Be2 2.199931 1_554
Be10 Be3 2.199934 1_455
Be10 V0 2.755139 1_565
Be10 V0 2.755139 1_555
Be11 Be5 2.072630 1_555
Be11 Be5 2.072630 1_455
Be11 Be6 2.099096 1_455
Be11 Be8 2.101139 1_555
Be11 Be4 2.101139 1_445
Be11 Be7 2.197842 1_455
Be11 Be3 2.200090 1_445
Be11 Be2 2.200096 1_555
Be11 V0 2.755172 1_555
Be11 V0 2.755172 1_556
