# generated using pymatgen
data_Al2CoO4
_symmetry_space_group_name_H-M   'P 1'
_cell_length_a   5.78186168
_cell_length_b   5.78186168
_cell_length_c   28.37466000
_cell_angle_alpha   90.00000000
_cell_angle_beta   90.00000000
_cell_angle_gamma   119.99999630
_symmetry_Int_Tables_number   1
_chemical_formula_structural   Al2CoO4
_chemical_formula_sum   'Al24 Co12 O48'
_cell_volume   821.47946061
_cell_formula_units_Z   12
loop_
 _symmetry_equiv_pos_site_id
 _symmetry_equiv_pos_as_xyz
  1  'x, y, z'
loop_
 _atom_site_type_symbol
 _atom_site_label
 _atom_site_symmetry_multiplicity
 _atom_site_fract_x
 _atom_site_fract_y
 _atom_site_fract_z
 _atom_site_occupancy
  Al  Al0  1  0.00000000  0.00000000  0.95585500  1
  Al  Al1  1  0.50349400  0.49650600  0.89584800  1
  Al  Al2  1  0.99301100  0.49650600  0.89584800  1
  Al  Al3  1  0.33333300  0.66666700  0.79084700  1
  Al  Al4  1  0.50349400  0.00698900  0.89584800  1
  Al  Al5  1  0.83508400  0.16491600  0.72911000  1
  Al  Al6  1  0.32983300  0.16491600  0.72911000  1
  Al  Al7  1  0.83508400  0.67016700  0.72911000  1
  Al  Al8  1  0.16689200  0.83310800  0.56250300  1
  Al  Al9  1  0.00000000  0.00000000  0.64542900  1
  Al  Al10  1  0.66621500  0.83310800  0.56250300  1
  Al  Al11  1  0.16689200  0.33378500  0.56250300  1
  Al  Al12  1  0.50003600  0.49996400  0.39565900  1
  Al  Al13  1  0.33333300  0.66666700  0.47906400  1
  Al  Al14  1  0.99992800  0.49996400  0.39565900  1
  Al  Al15  1  0.50003600  0.00007200  0.39565900  1
  Al  Al16  1  0.83328600  0.16671400  0.22876400  1
  Al  Al17  1  0.66666700  0.33333300  0.31221400  1
  Al  Al18  1  0.33342800  0.16671400  0.22876400  1
  Al  Al19  1  0.83328600  0.66657200  0.22876400  1
  Al  Al20  1  0.16873000  0.83127000  0.06285400  1
  Al  Al21  1  0.66254100  0.83127000  0.06285400  1
  Al  Al22  1  0.00000000  0.00000000  0.14564900  1
  Al  Al23  1  0.16873000  0.33745900  0.06285400  1
  Co  Co0  1  0.66666700  0.33333300  0.00175000  1
  Co  Co1  1  0.33333300  0.66666700  0.98066000  1
  Co  Co2  1  0.00000000  0.00000000  0.83450000  1
  Co  Co3  1  0.66666700  0.33333300  0.81291400  1
  Co  Co4  1  0.66666700  0.33333300  0.49982300  1
  Co  Co5  1  0.33333300  0.66666700  0.66679400  1
  Co  Co6  1  0.66666700  0.33333300  0.62602200  1
  Co  Co7  1  0.00000000  0.00000000  0.45839800  1
  Co  Co8  1  0.00000000  0.00000000  0.33293100  1
  Co  Co9  1  0.33333300  0.66666700  0.29141500  1
  Co  Co10  1  0.66666700  0.33333300  0.12326400  1
  Co  Co11  1  0.33333300  0.66666700  0.16724300  1
  O  O0  1  0.17226800  0.34453600  0.93285500  1
  O  O1  1  0.33333300  0.66666700  0.85681400  1
  O  O2  1  0.65546400  0.82773200  0.93285500  1
  O  O3  1  0.17226800  0.82773200  0.93285500  1
  O  O4  1  0.81979800  0.18020200  0.85993600  1
  O  O5  1  0.50091800  0.00183500  0.76615500  1
  O  O6  1  0.66666700  0.33333300  0.69728200  1
  O  O7  1  0.36040400  0.18020200  0.85993600  1
  O  O8  1  0.66666700  0.33333300  0.93179300  1
  O  O9  1  0.99816500  0.49908200  0.76615500  1
  O  O10  1  0.50091800  0.49908200  0.76615500  1
  O  O11  1  0.81979800  0.63959600  0.85993600  1
  O  O12  1  0.85201400  0.70402800  0.60195000  1
  O  O13  1  0.14638400  0.85361600  0.68927100  1
  O  O14  1  0.00000000  0.00000000  0.52842400  1
  O  O15  1  0.70723200  0.85361600  0.68927100  1
  O  O16  1  0.00000000  0.00000000  0.76387200  1
  O  O17  1  0.29597200  0.14798600  0.60195000  1
  O  O18  1  0.85201400  0.14798600  0.60195000  1
  O  O19  1  0.14638400  0.29276800  0.68927100  1
  O  O20  1  0.48072000  0.51928000  0.52341200  1
  O  O21  1  0.18596500  0.37193000  0.43518900  1
  O  O22  1  0.03856000  0.51928000  0.52341200  1
  O  O23  1  0.33333300  0.66666700  0.59712200  1
  O  O24  1  0.33333300  0.66666700  0.36140400  1
  O  O25  1  0.62807000  0.81403500  0.43518900  1
  O  O26  1  0.48072000  0.96144000  0.52341200  1
  O  O27  1  0.18596500  0.81403500  0.43518900  1
  O  O28  1  0.81407300  0.18592700  0.35657200  1
  O  O29  1  0.51943100  0.03886100  0.26823700  1
  O  O30  1  0.66666700  0.33333300  0.43025400  1
  O  O31  1  0.66666700  0.33333300  0.19396600  1
  O  O32  1  0.37185300  0.18592700  0.35657200  1
  O  O33  1  0.96113900  0.48056900  0.26823700  1
  O  O34  1  0.81407300  0.62814700  0.35657200  1
  O  O35  1  0.51943100  0.48056900  0.26823700  1
  O  O36  1  0.85513700  0.71027400  0.10124300  1
  O  O37  1  0.14710900  0.85289100  0.18993600  1
  O  O38  1  0.00000000  0.00000000  0.26351600  1
  O  O39  1  0.00000000  0.00000000  0.02092100  1
  O  O40  1  0.70578200  0.85289100  0.18993600  1
  O  O41  1  0.28972600  0.14486300  0.10124300  1
  O  O42  1  0.14710900  0.29421800  0.18993600  1
  O  O43  1  0.85513700  0.14486300  0.10124300  1
  O  O44  1  0.48710200  0.51289800  0.02764400  1
  O  O45  1  0.02579600  0.51289800  0.02764400  1
  O  O46  1  0.33333300  0.66666700  0.09844500  1
  O  O47  1  0.48710200  0.97420400  0.02764400  1
loop_
_geom_bond_atom_site_label_1
_geom_bond_atom_site_label_2
_geom_bond_distance
_geom_bond_site_symmetry_2
Al0 O3 1.844488 1_545
Al0 O2 1.844488 1_445
Al0 O0 1.844488 1_555
Al0 O39 1.846226 1_556
Al1 O11 1.885306 1_555
Al1 O7 1.885306 1_555
Al1 O8 1.926268 1_555
Al1 O2 1.964578 1_555
Al1 O0 1.964578 1_555
Al1 O1 2.032386 1_555
Al2 O11 1.885302 1_555
Al2 O4 1.885306 1_555
Al2 O8 1.926260 1_555
Al2 O3 1.964578 1_655
Al2 O0 1.964582 1_655
Al2 O1 2.032386 1_655
Al3 O9 1.818641 1_455
Al3 O5 1.818641 1_565
Al3 O10 1.818651 1_555
Al3 O1 1.871791 1_555
Al4 O7 1.885302 1_555
Al4 O4 1.885306 1_555
Al4 O8 1.926260 1_555
Al4 O3 1.964578 1_545
Al4 O2 1.964582 1_545
Al4 O1 2.032386 1_545
Al5 O6 1.913179 1_555
Al5 O16 1.923672 1_655
Al5 O15 1.932198 1_545
Al5 O19 1.932198 1_655
Al5 O9 1.976156 1_555
Al5 O5 1.976156 1_555
Al6 O6 1.913179 1_555
Al6 O16 1.923677 1_555
Al6 O13 1.932199 1_545
Al6 O19 1.932202 1_555
Al6 O5 1.976156 1_555
Al6 O10 1.976156 1_555
Al7 O6 1.913179 1_555
Al7 O16 1.923677 1_665
Al7 O13 1.932199 1_655
Al7 O15 1.932202 1_555
Al7 O9 1.976156 1_555
Al7 O10 1.976156 1_555
Al8 O22 1.930533 1_555
Al8 O26 1.930533 1_555
Al8 O14 1.930910 1_565
Al8 O23 1.934737 1_555
Al8 O17 1.940514 1_565
Al8 O12 1.940514 1_455
Al9 O13 1.922649 1_545
Al9 O19 1.922649 1_555
Al9 O15 1.922649 1_445
Al9 O18 1.928303 1_455
Al9 O12 1.928303 1_445
Al9 O17 1.928303 1_555
Al10 O26 1.930528 1_555
Al10 O20 1.930532 1_555
Al10 O14 1.930915 1_665
Al10 O23 1.934737 1_555
Al10 O18 1.940514 1_565
Al10 O12 1.940518 1_555
Al11 O22 1.930528 1_555
Al11 O20 1.930532 1_555
Al11 O14 1.930915 1_555
Al11 O23 1.934737 1_555
Al11 O18 1.940514 1_455
Al11 O17 1.940518 1_555
Al12 O32 1.931445 1_555
Al12 O34 1.931445 1_555
Al12 O24 1.931780 1_555
Al12 O30 1.936031 1_555
Al12 O25 1.938911 1_555
Al12 O21 1.938911 1_555
Al13 O27 1.930776 1_555
Al13 O21 1.930780 1_555
Al13 O25 1.930780 1_555
Al13 O26 1.939598 1_555
Al13 O22 1.939598 1_555
Al13 O20 1.939602 1_555
Al14 O28 1.931446 1_555
Al14 O34 1.931450 1_555
Al14 O24 1.931776 1_655
Al14 O30 1.936027 1_555
Al14 O21 1.938911 1_655
Al14 O27 1.938911 1_655
Al15 O28 1.931446 1_555
Al15 O32 1.931450 1_555
Al15 O24 1.931776 1_545
Al15 O30 1.936027 1_555
Al15 O25 1.938911 1_545
Al15 O27 1.938911 1_545
Al16 O42 1.926650 1_655
Al16 O40 1.926650 1_545
Al16 O29 1.937135 1_555
Al16 O33 1.937135 1_555
Al16 O31 1.938854 1_555
Al16 O38 1.939009 1_655
Al17 O35 1.931634 1_555
Al17 O33 1.931634 1_555
Al17 O29 1.931634 1_555
Al17 O28 1.939931 1_555
Al17 O32 1.939939 1_555
Al17 O34 1.939939 1_555
Al18 O42 1.926650 1_555
Al18 O37 1.926650 1_545
Al18 O35 1.937136 1_555
Al18 O29 1.937140 1_555
Al18 O31 1.938859 1_555
Al18 O38 1.939009 1_555
Al19 O40 1.926650 1_555
Al19 O37 1.926650 1_655
Al19 O35 1.937136 1_555
Al19 O33 1.937140 1_555
Al19 O31 1.938859 1_555
Al19 O38 1.939009 1_665
Al20 O47 1.883703 1_555
Al20 O45 1.883703 1_555
Al20 O36 1.922239 1_455
Al20 O41 1.922239 1_565
Al20 O46 1.933165 1_555
Al20 O39 2.066625 1_565
Al21 O44 1.883703 1_555
Al21 O47 1.883707 1_555
Al21 O36 1.922235 1_555
Al21 O43 1.922239 1_565
Al21 O46 1.933174 1_555
Al21 O39 2.066621 1_665
Al22 O43 1.921516 1_455
Al22 O41 1.921516 1_555
Al22 O36 1.921516 1_445
Al22 O37 1.936361 1_545
Al22 O42 1.936361 1_555
Al22 O40 1.936361 1_445
Al23 O44 1.883703 1_555
Al23 O45 1.883707 1_555
Al23 O41 1.922235 1_555
Al23 O43 1.922239 1_455
Al23 O46 1.933174 1_555
Al23 O39 2.066621 1_555
Co0 O45 1.942554 1_655
Co0 O47 1.942554 1_545
Co0 O44 1.942559 1_555
Co0 O8 1.985006 1_554
Co1 O47 2.036818 1_556
Co1 O45 2.036818 1_556
Co1 O44 2.036822 1_556
Co1 O3 2.107527 1_555
Co1 O0 2.107531 1_555
Co1 O2 2.107531 1_555
Co2 O4 1.943603 1_455
Co2 O11 1.943603 1_445
Co2 O7 1.943603 1_555
Co2 O16 2.004045 1_555
Co3 O4 2.032704 1_555
Co3 O7 2.032707 1_555
Co3 O11 2.032707 1_555
Co3 O10 2.124983 1_555
Co3 O5 2.124983 1_555
Co3 O9 2.124983 1_555
Co4 O30 1.973997 1_555
Co4 O22 1.978796 1_655
Co4 O26 1.978796 1_545
Co4 O20 1.978800 1_555
Co5 O23 1.976919 1_555
Co5 O13 1.977847 1_555
Co5 O15 1.977852 1_555
Co5 O19 1.977852 1_555
Co6 O18 1.977838 1_555
Co6 O12 1.977843 1_555
Co6 O17 1.977843 1_555
Co6 O6 2.021978 1_555
Co7 O27 1.975349 1_545
Co7 O21 1.975349 1_555
Co7 O25 1.975349 1_445
Co7 O14 1.986964 1_555
Co8 O38 1.969627 1_555
Co8 O32 1.979107 1_555
Co8 O34 1.979107 1_445
Co8 O28 1.979111 1_455
Co9 O29 1.976303 1_565
Co9 O33 1.976303 1_455
Co9 O35 1.976312 1_555
Co9 O24 1.985914 1_555
Co10 O43 1.988167 1_555
Co10 O36 1.988172 1_555
Co10 O41 1.988172 1_555
Co10 O31 2.006145 1_555
Co11 O46 1.952120 1_555
Co11 O37 1.972968 1_555
Co11 O40 1.972973 1_555
Co11 O42 1.972973 1_555
