# generated using pymatgen
data_Ca(ClO2)2
_symmetry_space_group_name_H-M   'P 1'
_cell_length_a   7.17893202
_cell_length_b   7.17893202
_cell_length_c   5.78997600
_cell_angle_alpha   90.00000000
_cell_angle_beta   90.00000000
_cell_angle_gamma   132.22754768
_symmetry_Int_Tables_number   1
_chemical_formula_structural   Ca(ClO2)2
_chemical_formula_sum   'Ca2 Cl4 O8'
_cell_volume   220.95848659
_cell_formula_units_Z   2
loop_
 _symmetry_equiv_pos_site_id
 _symmetry_equiv_pos_as_xyz
  1  'x, y, z'
loop_
 _atom_site_type_symbol
 _atom_site_label
 _atom_site_symmetry_multiplicity
 _atom_site_fract_x
 _atom_site_fract_y
 _atom_site_fract_z
 _atom_site_occupancy
  Ca  Ca0  1  0.50000000  0.50000000  0.50000000  1
  Ca  Ca1  1  0.00000000  0.00000000  0.00000000  1
  Cl  Cl0  1  0.66250200  0.33749800  0.00000000  1
  Cl  Cl1  1  0.16250200  0.83749800  0.50000000  1
  Cl  Cl2  1  0.33749800  0.66250200  0.00000000  1
  Cl  Cl3  1  0.83749800  0.16250200  0.50000000  1
  O  O0  1  0.43453600  0.24524100  0.15939600  1
  O  O1  1  0.56546400  0.75475900  0.15939600  1
  O  O2  1  0.06546400  0.25475900  0.34060400  1
  O  O3  1  0.24524100  0.43453600  0.84060400  1
  O  O4  1  0.74524100  0.93453600  0.65939600  1
  O  O5  1  0.25475900  0.06546400  0.65939600  1
  O  O6  1  0.93453600  0.74524100  0.34060400  1
  O  O7  1  0.75475900  0.56546400  0.84060400  1
loop_
_geom_bond_atom_site_label_1
_geom_bond_atom_site_label_2
_geom_bond_distance
_geom_bond_site_symmetry_2
Ca0 O1 2.509890 1_555
Ca0 O7 2.509890 1_555
Ca0 O0 2.509890 1_555
Ca0 O3 2.509890 1_555
Ca0 O6 2.510065 1_555
Ca0 O5 2.510065 1_555
Ca0 O4 2.510065 1_555
Ca0 O2 2.510065 1_555
Ca1 O6 2.509890 1_445
Ca1 O4 2.509890 1_444
Ca1 O2 2.509890 1_555
Ca1 O5 2.509890 1_554
Ca1 O3 2.510065 1_554
Ca1 O7 2.510065 1_444
Ca1 O0 2.510065 1_555
Ca1 O1 2.510065 1_445
Cl0 O7 1.584856 1_554
Cl0 O0 1.584856 1_555
Cl1 O6 1.584856 1_455
Cl1 O5 1.584856 1_565
Cl2 O1 1.584856 1_555
Cl2 O3 1.584856 1_554
Cl3 O2 1.584856 1_655
Cl3 O4 1.584856 1_545
