# generated using pymatgen
data_Tb4CdCo
_symmetry_space_group_name_H-M   'P 1'
_cell_length_a   9.48533189
_cell_length_b   9.48538189
_cell_length_c   9.48528197
_cell_angle_alpha   59.99974173
_cell_angle_beta   59.99956862
_cell_angle_gamma   59.99990713
_symmetry_Int_Tables_number   1
_chemical_formula_structural   Tb4CdCo
_chemical_formula_sum   'Tb16 Cd4 Co4'
_cell_volume   603.44824959
_cell_formula_units_Z   4
loop_
 _symmetry_equiv_pos_site_id
 _symmetry_equiv_pos_as_xyz
  1  'x, y, z'
loop_
 _atom_site_type_symbol
 _atom_site_label
 _atom_site_symmetry_multiplicity
 _atom_site_fract_x
 _atom_site_fract_y
 _atom_site_fract_z
 _atom_site_occupancy
  Tb  Tb0  1  0.43860874  0.43864574  0.06136672  1
  Tb  Tb1  1  0.59639192  0.59637685  0.59640628  1
  Tb  Tb2  1  0.18894693  0.81103676  0.81106687  1
  Tb  Tb3  1  0.06136794  0.06138428  0.43862547  1
  Tb  Tb4  1  0.43862603  0.06138453  0.06135864  1
  Tb  Tb5  1  0.81105026  0.18894825  0.81103755  1
  Tb  Tb6  1  0.43861816  0.06138451  0.43862662  1
  Tb  Tb7  1  0.59638737  0.21082828  0.59640211  1
  Tb  Tb8  1  0.81107429  0.81103119  0.18893771  1
  Tb  Tb9  1  0.21082088  0.59637976  0.59640956  1
  Tb  Tb10  1  0.81105011  0.18895573  0.18895252  1
  Tb  Tb11  1  0.06137620  0.43863705  0.43860866  1
  Tb  Tb12  1  0.18895473  0.81103715  0.18893686  1
  Tb  Tb13  1  0.59640322  0.59638727  0.21081318  1
  Tb  Tb14  1  0.18896181  0.18894810  0.81104326  1
  Tb  Tb15  1  0.06137570  0.43864513  0.06136613  1
  Cd  Cd0  1  0.82965952  0.82963723  0.51105109  1
  Cd  Cd1  1  0.82966440  0.82964233  0.82965995  1
  Cd  Cd2  1  0.51102758  0.82964699  0.82966340  1
  Cd  Cd3  1  0.82965159  0.51105928  0.82964655  1
  Co  Co0  1  0.39059341  0.39061203  0.39060795  1
  Co  Co1  1  0.82819269  0.39060853  0.39060380  1
  Co  Co2  1  0.39060248  0.82817208  0.39061691  1
  Co  Co3  1  0.39059304  0.39061291  0.82819322  1
loop_
_geom_bond_atom_site_label_1
_geom_bond_atom_site_label_2
_geom_bond_distance
_geom_bond_site_symmetry_2
Tb0 Tb2 3.548643 1_554
Tb0 Tb12 3.548654 1_555
Tb0 Tb5 3.549100 1_554
Tb0 Tb10 3.549113 1_555
Tb1 Tb5 3.410905 1_555
Tb1 Tb2 3.411068 1_555
Tb1 Tb8 3.411222 1_555
Tb2 Tb9 3.411042 1_555
Tb2 Tb6 3.549050 1_565
Tb2 Tb3 3.549065 1_565
Tb2 Tb8 3.584206 1_456
Tb2 Tb5 3.584550 1_465
Tb3 Tb5 3.548755 1_455
Tb4 Tb5 3.548860 1_554
Tb4 Tb8 3.549135 1_545
Tb5 Tb7 3.410874 1_555
Tb5 Tb8 3.584575 1_546
Tb6 Tb8 3.549220 1_545
Tb10 Tb13 3.410939 1_555
Tb10 Tb7 3.411078 1_555
Tb10 Tb3 3.548866 1_655
Tb10 Tb6 3.548957 1_555
Tb10 Tb15 3.549023 1_655
Tb10 Tb14 3.584574 1_654
Tb10 Tb12 3.584621 1_645
Tb10 Tb5 3.584665 1_554
Tb10 Tb8 3.584714 1_545
Tb11 Tb8 3.548706 1_455
Tb11 Tb12 3.548757 1_555
Tb11 Tb5 3.548994 1_455
Tb11 Tb14 3.549042 1_555
Tb12 Tb13 3.411110 1_555
Tb12 Tb9 3.411254 1_555
Tb12 Tb4 3.549078 1_565
Tb12 Tb3 3.549179 1_565
Tb12 Tb2 3.584242 1_554
Tb12 Tb8 3.584346 1_455
Tb12 Tb14 3.584515 1_564
Tb13 Tb8 3.411047 1_555
Tb14 Tb7 3.410922 1_555
Tb14 Tb9 3.410929 1_555
Tb14 Tb6 3.548789 1_555
Tb14 Tb4 3.548802 1_556
Tb14 Tb15 3.549056 1_556
Tb14 Tb2 3.584592 1_545
Tb14 Tb5 3.584643 1_455
Tb15 Tb8 3.548619 1_455
Tb15 Tb2 3.548655 1_554
Cd0 Cd3 3.021889 1_555
Cd0 Cd1 3.022142 1_555
Cd0 Cd2 3.022209 1_555
Cd0 Tb12 3.241277 1_655
Cd0 Tb8 3.241337 1_555
Cd0 Tb10 3.241352 1_565
Cd0 Tb9 3.429116 1_655
Cd0 Tb1 3.429204 1_555
Cd0 Tb7 3.429337 1_565
Cd0 Tb11 3.456101 1_655
Cd0 Tb3 3.456272 1_665
Cd0 Tb6 3.456351 1_565
Cd1 Cd3 3.022006 1_555
Cd1 Cd2 3.022338 1_555
Cd1 Tb8 3.241034 1_556
Cd1 Tb2 3.241109 1_655
Cd1 Tb5 3.241190 1_565
Cd1 Tb13 3.429046 1_556
Cd1 Tb9 3.429057 1_655
Cd1 Tb7 3.429275 1_565
Cd1 Tb15 3.455978 1_656
Cd1 Tb3 3.456217 1_665
Cd1 Tb4 3.456228 1_566
Cd2 Cd3 3.022086 1_555
Cd2 Tb12 3.240985 1_556
Cd2 Tb2 3.241124 1_555
Cd2 Tb14 3.241137 1_565
Cd2 Tb13 3.429076 1_556
Cd2 Tb1 3.429156 1_555
Cd2 Tb7 3.429289 1_565
Cd2 Tb0 3.456011 1_556
Cd2 Tb4 3.456181 1_566
Cd2 Tb6 3.456234 1_565
Cd3 Tb10 3.241300 1_556
Cd3 Tb14 3.241373 1_655
Cd3 Tb5 3.241445 1_555
Cd3 Tb13 3.429006 1_556
Cd3 Tb9 3.429009 1_655
Cd3 Tb1 3.429111 1_555
Cd3 Tb15 3.456211 1_656
Cd3 Tb11 3.456287 1_655
Cd3 Tb0 3.456307 1_556
Co0 Tb11 2.743969 1_555
Co0 Tb6 2.744029 1_555
Co0 Tb0 2.744102 1_555
Co0 Tb9 2.771455 1_555
Co0 Tb13 2.771550 1_555
Co0 Tb7 2.771577 1_555
Co0 Tb14 3.409303 1_555
Co0 Tb12 3.409317 1_555
Co0 Tb10 3.409485 1_555
Co1 Tb11 2.743950 1_655
Co1 Tb3 2.743975 1_655
Co1 Tb15 2.744045 1_655
Co1 Tb1 2.771465 1_555
Co1 Tb13 2.771516 1_555
Co1 Tb7 2.771561 1_555
Co1 Tb5 3.409288 1_555
Co1 Tb8 3.409293 1_555
Co1 Tb10 3.409427 1_555
Co2 Tb3 2.744141 1_565
Co2 Tb6 2.744176 1_565
Co2 Tb4 2.744271 1_565
Co2 Tb9 2.771481 1_555
Co2 Tb1 2.771512 1_555
Co2 Tb13 2.771567 1_555
Co2 Tb2 3.409433 1_555
Co2 Tb12 3.409572 1_555
Co2 Tb8 3.409618 1_555
Co3 Tb15 2.743898 1_556
Co3 Tb0 2.743943 1_556
Co3 Tb4 2.743962 1_556
Co3 Tb9 2.771356 1_555
Co3 Tb1 2.771401 1_555
Co3 Tb7 2.771485 1_555
Co3 Tb2 3.409289 1_555
Co3 Tb14 3.409409 1_555
Co3 Tb5 3.409473 1_555
