# generated using pymatgen
data_Nd3S2Cl5
_symmetry_space_group_name_H-M   'P 1'
_cell_length_a   6.59487125
_cell_length_b   7.08341332
_cell_length_c   21.97745394
_cell_angle_alpha   82.19558772
_cell_angle_beta   90.00000000
_cell_angle_gamma   90.00000000
_symmetry_Int_Tables_number   1
_chemical_formula_structural   Nd3S2Cl5
_chemical_formula_sum   'Nd12 S8 Cl20'
_cell_volume   1017.14960572
_cell_formula_units_Z   4
loop_
 _symmetry_equiv_pos_site_id
 _symmetry_equiv_pos_as_xyz
  1  'x, y, z'
loop_
 _atom_site_type_symbol
 _atom_site_label
 _atom_site_symmetry_multiplicity
 _atom_site_fract_x
 _atom_site_fract_y
 _atom_site_fract_z
 _atom_site_occupancy
  Nd  Nd0  1  0.95543339  0.33678926  0.09949252  1
  Nd  Nd1  1  0.54464289  0.70497803  0.40396576  1
  Nd  Nd2  1  0.04456661  0.66321074  0.90050748  1
  Nd  Nd3  1  0.54383466  0.35768514  0.25096725  1
  Nd  Nd4  1  0.54456661  0.83678926  0.09949252  1
  Nd  Nd5  1  0.04383466  0.14231486  0.74903275  1
  Nd  Nd6  1  0.95616534  0.85768514  0.25096725  1
  Nd  Nd7  1  0.45616534  0.64231486  0.74903275  1
  Nd  Nd8  1  0.95535711  0.20497803  0.40396576  1
  Nd  Nd9  1  0.45535711  0.29502197  0.59603424  1
  Nd  Nd10  1  0.45543339  0.16321074  0.90050748  1
  Nd  Nd11  1  0.04464289  0.79502197  0.59603424  1
  S  S0  1  0.31120557  0.90186806  0.82647812  1
  S  S1  1  0.18879443  0.40186806  0.82647812  1
  S  S2  1  0.31166807  0.96646387  0.66811080  1
  S  S3  1  0.68833193  0.03353613  0.33188920  1
  S  S4  1  0.81166807  0.53353613  0.33188920  1
  S  S5  1  0.81120557  0.59813194  0.17352188  1
  S  S6  1  0.18833193  0.46646387  0.66811080  1
  S  S7  1  0.68879443  0.09813194  0.17352188  1
  Cl  Cl0  1  0.72905843  0.39694199  0.48787401  1
  Cl  Cl1  1  0.77094157  0.89694199  0.48787401  1
  Cl  Cl2  1  0.86263734  0.77457164  0.75393422  1
  Cl  Cl3  1  0.22905843  0.10305801  0.51212599  1
  Cl  Cl4  1  0.34588362  0.47967095  0.11954882  1
  Cl  Cl5  1  0.81939967  0.65841411  0.01818607  1
  Cl  Cl6  1  0.15411638  0.97967095  0.11954882  1
  Cl  Cl7  1  0.65411638  0.52032905  0.88045118  1
  Cl  Cl8  1  0.63736266  0.27457164  0.75393422  1
  Cl  Cl9  1  0.66891451  0.61911023  0.62587913  1
  Cl  Cl10  1  0.16891451  0.88088977  0.37412087  1
  Cl  Cl11  1  0.36263734  0.72542836  0.24606578  1
  Cl  Cl12  1  0.68060033  0.15841411  0.01818607  1
  Cl  Cl13  1  0.31939967  0.84158589  0.98181393  1
  Cl  Cl14  1  0.18060033  0.34158589  0.98181393  1
  Cl  Cl15  1  0.33108549  0.38088977  0.37412087  1
  Cl  Cl16  1  0.27094157  0.60305801  0.51212599  1
  Cl  Cl17  1  0.13736266  0.22542836  0.24606578  1
  Cl  Cl18  1  0.83108549  0.11911023  0.62587913  1
  Cl  Cl19  1  0.84588362  0.02032905  0.88045118  1
loop_
_geom_bond_atom_site_label_1
_geom_bond_atom_site_label_2
_geom_bond_distance
_geom_bond_site_symmetry_2
Nd0 S5 2.792252 1_555
Nd0 S7 2.801794 1_555
Nd1 S4 2.758178 1_555
Nd1 S3 2.796851 1_565
Nd2 S1 2.792252 1_555
Nd2 S0 2.801794 1_555
Nd3 S7 2.835652 1_555
Nd3 S5 2.849503 1_555
Nd3 S3 2.869493 1_555
Nd3 S4 2.904487 1_555
Nd4 S7 2.792252 1_565
Nd4 S5 2.801794 1_555
Nd5 S1 2.835652 1_555
Nd5 S0 2.849503 1_545
Nd5 S6 2.869493 1_555
Nd5 S2 2.904487 1_545
Nd6 S5 2.835652 1_555
Nd6 S7 2.849503 1_565
Nd6 S4 2.869493 1_555
Nd6 S3 2.904487 1_565
Nd7 S0 2.835652 1_555
Nd7 S1 2.849503 1_555
Nd7 S2 2.869493 1_555
Nd7 S6 2.904487 1_555
Nd8 S3 2.758178 1_555
Nd8 S4 2.796851 1_555
Nd9 S6 2.758178 1_555
Nd9 S2 2.796851 1_545
Nd10 S0 2.792252 1_545
Nd10 S1 2.801794 1_555
Nd11 S2 2.758178 1_555
Nd11 S6 2.796851 1_555
Cl0 Nd8 2.856205 1_555
Cl0 Nd1 2.923682 1_555
Cl0 Nd9 2.993958 1_555
Cl1 Nd1 2.856205 1_555
Cl1 Nd8 2.923682 1_565
Cl1 Nd11 2.993958 1_655
Cl2 Nd7 2.846479 1_555
Cl2 Nd5 2.854600 1_665
Cl2 Nd2 3.427604 1_655
Cl3 Nd9 2.856205 1_555
Cl3 Nd11 2.923682 1_545
Cl3 Nd8 2.993958 1_455
Cl4 Nd0 2.823162 1_455
Cl4 Nd4 2.829715 1_555
Cl4 Nd3 3.180412 1_555
Cl5 Nd0 2.842970 1_555
Cl5 Nd4 2.947503 1_555
Cl5 Nd2 2.978453 1_654
Cl6 Nd4 2.823162 1_555
Cl6 Nd0 2.829715 1_465
Cl6 Nd6 3.180412 1_455
Cl7 Nd2 2.823162 1_655
Cl7 Nd10 2.829715 1_555
Cl7 Nd7 3.180412 1_555
Cl8 Nd5 2.846479 1_655
Cl8 Nd7 2.854600 1_555
Cl8 Nd10 3.427604 1_555
Cl9 Nd11 2.810837 1_655
Cl9 Nd9 2.844771 1_555
Cl9 Nd7 3.072800 1_555
Cl10 Nd1 2.810837 1_555
Cl10 Nd8 2.844771 1_465
Cl10 Nd6 3.072800 1_455
Cl11 Nd6 2.846479 1_455
Cl11 Nd3 2.854600 1_555
Cl11 Nd4 3.427604 1_555
Cl12 Nd4 2.842970 1_545
Cl12 Nd0 2.947503 1_555
Cl12 Nd10 2.978453 1_554
Cl13 Nd10 2.842970 1_565
Cl13 Nd2 2.947503 1_555
Cl13 Nd4 2.978453 1_556
Cl14 Nd2 2.842970 1_555
Cl14 Nd10 2.947503 1_555
Cl14 Nd0 2.978453 1_456
Cl15 Nd8 2.810837 1_455
Cl15 Nd1 2.844771 1_555
Cl15 Nd3 3.072800 1_555
Cl16 Nd11 2.856205 1_555
Cl16 Nd9 2.923682 1_555
Cl16 Nd1 2.993958 1_555
Cl17 Nd3 2.846479 1_555
Cl17 Nd6 2.854600 1_445
Cl17 Nd0 3.427604 1_455
Cl18 Nd9 2.810837 1_555
Cl18 Nd11 2.844771 1_645
Cl18 Nd5 3.072800 1_655
Cl19 Nd10 2.823162 1_555
Cl19 Nd2 2.829715 1_645
Cl19 Nd5 3.180412 1_655
