# generated using pymatgen
data_Dy6Fe16O
_symmetry_space_group_name_H-M   'P 1'
_cell_length_a   8.17342305
_cell_length_b   8.17342305
_cell_length_c   8.17342305
_cell_angle_alpha   109.47122063
_cell_angle_beta   109.47122063
_cell_angle_gamma   109.47122063
_symmetry_Int_Tables_number   1
_chemical_formula_structural   Dy6Fe16O
_chemical_formula_sum   'Dy6 Fe16 O1'
_cell_volume   420.32966775
_cell_formula_units_Z   1
loop_
 _symmetry_equiv_pos_site_id
 _symmetry_equiv_pos_as_xyz
  1  'x, y, z'
loop_
 _atom_site_type_symbol
 _atom_site_label
 _atom_site_symmetry_multiplicity
 _atom_site_fract_x
 _atom_site_fract_y
 _atom_site_fract_z
 _atom_site_occupancy
  Dy  Dy0  1  0.26286500  0.00000000  0.26286500  1
  Dy  Dy1  1  0.00000000  0.26286500  0.26286500  1
  Dy  Dy2  1  0.00000000  0.73713500  0.73713500  1
  Dy  Dy3  1  0.26286500  0.26286500  0.00000000  1
  Dy  Dy4  1  0.73713500  0.73713500  0.00000000  1
  Dy  Dy5  1  0.73713500  0.00000000  0.73713500  1
  Fe  Fe0  1  0.00000000  0.00000000  0.50000000  1
  Fe  Fe1  1  0.50000000  0.00000000  0.00000000  1
  Fe  Fe2  1  0.00000000  0.50000000  0.00000000  1
  Fe  Fe3  1  0.50000000  0.50000000  0.50000000  1
  Fe  Fe4  1  0.33716100  0.00000000  0.66283900  1
  Fe  Fe5  1  0.67432200  0.33716100  0.33716100  1
  Fe  Fe6  1  0.00000000  0.33716100  0.66283900  1
  Fe  Fe7  1  0.66283900  0.66283900  0.32567800  1
  Fe  Fe8  1  0.33716100  0.66283900  0.00000000  1
  Fe  Fe9  1  0.33716100  0.67432200  0.33716100  1
  Fe  Fe10  1  0.66283900  0.32567800  0.66283900  1
  Fe  Fe11  1  0.33716100  0.33716100  0.67432200  1
  Fe  Fe12  1  0.32567800  0.66283900  0.66283900  1
  Fe  Fe13  1  0.66283900  0.33716100  0.00000000  1
  Fe  Fe14  1  0.00000000  0.66283900  0.33716100  1
  Fe  Fe15  1  0.66283900  0.00000000  0.33716100  1
  O  O0  1  0.00000000  0.00000000  0.00000000  1
loop_
_geom_bond_atom_site_label_1
_geom_bond_atom_site_label_2
_geom_bond_distance
_geom_bond_site_symmetry_2
Dy0 O0 2.480882 1_555
Dy0 Fe15 3.119723 1_555
Dy0 Fe10 3.119723 1_555
Dy0 Fe4 3.119723 1_555
Dy0 Fe9 3.119723 1_545
Dy0 Fe5 3.258418 1_555
Dy0 Fe11 3.258418 1_555
Dy0 Fe8 3.258418 1_545
Dy0 Fe14 3.258418 1_545
Dy0 Fe3 3.338994 1_555
Dy0 Fe2 3.338994 1_545
Dy0 Fe1 3.338994 1_555
Dy0 Fe0 3.338994 1_555
Dy1 O0 2.480882 1_555
Dy1 Fe14 3.119723 1_555
Dy1 Fe6 3.119723 1_555
Dy1 Fe12 3.119723 1_555
Dy1 Fe5 3.119723 1_455
Dy1 Fe9 3.258418 1_555
Dy1 Fe13 3.258418 1_455
Dy1 Fe11 3.258418 1_555
Dy1 Fe15 3.258418 1_455
Dy1 Fe1 3.338994 1_455
Dy1 Fe3 3.338994 1_555
Dy1 Fe2 3.338994 1_555
Dy1 Fe0 3.338994 1_555
Dy2 O0 2.480882 1_566
Dy2 Fe5 3.119723 1_455
Dy2 Fe6 3.119723 1_555
Dy2 Fe14 3.119723 1_555
Dy2 Fe12 3.119723 1_555
Dy2 Fe10 3.258418 1_455
Dy2 Fe7 3.258418 1_455
Dy2 Fe8 3.258418 1_556
Dy2 Fe4 3.258418 1_565
Dy2 Fe0 3.338994 1_565
Dy2 Fe2 3.338994 1_556
Dy2 Fe1 3.338994 1_566
Dy2 Fe3 3.338994 1_455
Dy3 O0 2.480882 1_555
Dy3 Fe8 3.119723 1_555
Dy3 Fe7 3.119723 1_555
Dy3 Fe13 3.119723 1_555
Dy3 Fe11 3.119723 1_554
Dy3 Fe5 3.258418 1_555
Dy3 Fe9 3.258418 1_555
Dy3 Fe6 3.258418 1_554
Dy3 Fe4 3.258418 1_554
Dy3 Fe2 3.338994 1_555
Dy3 Fe3 3.338994 1_555
Dy3 Fe0 3.338994 1_554
Dy3 Fe1 3.338994 1_555
Dy4 O0 2.480882 1_665
Dy4 Fe13 3.119723 1_555
Dy4 Fe11 3.119723 1_554
Dy4 Fe8 3.119723 1_555
Dy4 Fe7 3.119723 1_555
Dy4 Fe12 3.258418 1_554
Dy4 Fe14 3.258418 1_655
Dy4 Fe15 3.258418 1_565
Dy4 Fe10 3.258418 1_554
Dy4 Fe0 3.338994 1_665
Dy4 Fe1 3.338994 1_565
Dy4 Fe3 3.338994 1_554
Dy4 Fe2 3.338994 1_655
Dy5 O0 2.480882 1_656
Dy5 Fe4 3.119723 1_555
Dy5 Fe9 3.119723 1_545
Dy5 Fe15 3.119723 1_555
Dy5 Fe10 3.119723 1_555
Dy5 Fe7 3.258418 1_545
Dy5 Fe13 3.258418 1_556
Dy5 Fe12 3.258418 1_545
Dy5 Fe6 3.258418 1_655
Dy5 Fe3 3.338994 1_545
Dy5 Fe2 3.338994 1_656
Dy5 Fe1 3.338994 1_556
Dy5 Fe0 3.338994 1_655
Fe0 Fe11 2.630676 1_555
Fe0 Fe6 2.630676 1_555
Fe0 Fe4 2.630676 1_555
Fe0 Fe15 2.630676 1_455
Fe0 Fe7 2.630676 1_445
Fe0 Fe14 2.630676 1_545
Fe1 Fe15 2.630676 1_555
Fe1 Fe13 2.630676 1_555
Fe1 Fe12 2.630676 1_544
Fe1 Fe4 2.630676 1_554
Fe1 Fe5 2.630676 1_555
Fe1 Fe8 2.630676 1_545
Fe2 Fe6 2.630676 1_554
Fe2 Fe8 2.630676 1_555
Fe2 Fe9 2.630676 1_555
Fe3 Fe7 2.630676 1_555
Fe3 Fe5 2.630676 1_555
Fe3 Fe9 2.630676 1_555
Fe4 Fe9 3.073702 1_545
Fe5 Fe7 2.725911 1_555
Fe5 Fe6 3.073702 1_655
Fe6 Fe8 2.725911 1_556
Fe7 Fe9 2.725911 1_555
Fe7 Fe8 3.073702 1_555
Fe8 Fe9 2.725911 1_555
Fe10 Fe3 2.630676 1_555
Fe10 Fe2 2.630676 1_656
Fe10 Fe5 2.725911 1_555
Fe10 Fe11 2.725911 1_555
Fe10 Fe13 2.725911 1_556
Fe10 Fe6 2.725911 1_655
Fe10 Fe4 3.073702 1_555
Fe10 Fe15 3.073702 1_555
Fe11 Fe3 2.630676 1_555
Fe11 Fe12 2.725911 1_555
Fe11 Fe6 2.725911 1_555
Fe11 Fe4 2.725911 1_555
Fe11 Fe13 3.073702 1_556
Fe11 Fe8 3.073702 1_556
Fe12 Fe3 2.630676 1_555
Fe12 Fe9 2.725911 1_555
Fe12 Fe8 2.725911 1_556
Fe12 Fe4 2.725911 1_565
Fe12 Fe14 3.073702 1_555
Fe12 Fe6 3.073702 1_555
Fe13 Fe2 2.630676 1_655
Fe13 Fe5 2.725911 1_555
Fe13 Fe14 2.725911 1_655
Fe13 Fe4 2.725911 1_554
Fe13 Fe7 3.073702 1_555
Fe14 Fe2 2.630676 1_555
Fe14 Fe9 2.725911 1_555
Fe14 Fe4 2.725911 1_565
Fe14 Fe7 2.725911 1_455
Fe14 Fe5 3.073702 1_455
Fe15 Fe5 2.725911 1_555
Fe15 Fe8 2.725911 1_545
Fe15 Fe6 2.725911 1_655
Fe15 Fe7 2.725911 1_545
Fe15 Fe9 3.073702 1_545
