# generated using pymatgen
data_Tl2TeO3
_symmetry_space_group_name_H-M   'P 1'
_cell_length_a   5.26431634
_cell_length_b   11.20254256
_cell_length_c   16.73033684
_cell_angle_alpha   90.00000000
_cell_angle_beta   90.00000000
_cell_angle_gamma   90.00000000
_symmetry_Int_Tables_number   1
_chemical_formula_structural   Tl2TeO3
_chemical_formula_sum   'Tl16 Te8 O24'
_cell_volume   986.65033161
_cell_formula_units_Z   8
loop_
 _symmetry_equiv_pos_site_id
 _symmetry_equiv_pos_as_xyz
  1  'x, y, z'
loop_
 _atom_site_type_symbol
 _atom_site_label
 _atom_site_symmetry_multiplicity
 _atom_site_fract_x
 _atom_site_fract_y
 _atom_site_fract_z
 _atom_site_occupancy
  Tl  Tl0  1  0.24954314  0.62987792  0.41888479  1
  Tl  Tl1  1  0.24954314  0.37012208  0.58111521  1
  Tl  Tl2  1  0.75045686  0.62987792  0.58111521  1
  Tl  Tl3  1  0.75045686  0.37012208  0.41888479  1
  Tl  Tl4  1  0.75045686  0.87012208  0.08111521  1
  Tl  Tl5  1  0.75045686  0.12987792  0.91888479  1
  Tl  Tl6  1  0.24954314  0.87012208  0.91888479  1
  Tl  Tl7  1  0.24954314  0.12987792  0.08111521  1
  Tl  Tl8  1  0.75778613  0.61539532  0.25432914  1
  Tl  Tl9  1  0.75778613  0.38460468  0.74567086  1
  Tl  Tl10  1  0.24221387  0.61539532  0.74567086  1
  Tl  Tl11  1  0.24221387  0.38460468  0.25432914  1
  Tl  Tl12  1  0.24221387  0.88460468  0.24567086  1
  Tl  Tl13  1  0.24221387  0.11539532  0.75432914  1
  Tl  Tl14  1  0.75778613  0.88460468  0.75432914  1
  Tl  Tl15  1  0.75778613  0.11539532  0.24567086  1
  Te  Te0  1  0.23538148  0.63839135  0.08806700  1
  Te  Te1  1  0.23538148  0.36160865  0.91193300  1
  Te  Te2  1  0.76461852  0.63839135  0.91193300  1
  Te  Te3  1  0.76461852  0.36160865  0.08806700  1
  Te  Te4  1  0.76461852  0.86160865  0.41193300  1
  Te  Te5  1  0.76461852  0.13839135  0.58806700  1
  Te  Te6  1  0.23538148  0.86160865  0.58806700  1
  Te  Te7  1  0.23538148  0.13839135  0.41193300  1
  O  O0  1  0.71724309  0.70011646  0.43875604  1
  O  O1  1  0.71724309  0.29988354  0.56124396  1
  O  O2  1  0.28275691  0.70011646  0.56124396  1
  O  O3  1  0.28275691  0.29988354  0.43875604  1
  O  O4  1  0.28275691  0.79988354  0.06124396  1
  O  O5  1  0.28275691  0.20011646  0.93875604  1
  O  O6  1  0.71724309  0.79988354  0.93875604  1
  O  O7  1  0.71724309  0.20011646  0.06124396  1
  O  O8  1  0.68611557  0.84890102  0.30292809  1
  O  O9  1  0.68611557  0.15109898  0.69707191  1
  O  O10  1  0.31388443  0.84890102  0.69707191  1
  O  O11  1  0.31388443  0.15109898  0.30292809  1
  O  O12  1  0.31388443  0.65109898  0.19707191  1
  O  O13  1  0.31388443  0.34890102  0.80292809  1
  O  O14  1  0.68611557  0.65109898  0.80292809  1
  O  O15  1  0.68611557  0.34890102  0.19707191  1
  O  O16  1  0.12070549  0.85493487  0.40277688  1
  O  O17  1  0.12070549  0.14506513  0.59722312  1
  O  O18  1  0.87929451  0.85493487  0.59722312  1
  O  O19  1  0.87929451  0.14506513  0.40277688  1
  O  O20  1  0.87929451  0.64506513  0.09722312  1
  O  O21  1  0.87929451  0.35493487  0.90277688  1
  O  O22  1  0.12070549  0.64506513  0.90277688  1
  O  O23  1  0.12070549  0.35493487  0.09722312  1
loop_
_geom_bond_atom_site_label_1
_geom_bond_atom_site_label_2
_geom_bond_distance
_geom_bond_site_symmetry_2
O0 Te4 1.880561 1_555
O0 Tl2 2.514414 1_555
O0 Tl0 2.606088 1_555
O1 Te5 1.880561 1_555
O1 Tl3 2.514414 1_555
O1 Tl1 2.606088 1_555
O2 Te6 1.880561 1_555
O2 Tl0 2.514414 1_555
O2 Tl2 2.606088 1_555
O3 Te7 1.880561 1_555
O3 Tl1 2.514414 1_555
O3 Tl3 2.606088 1_555
O4 Te0 1.880561 1_555
O4 Tl6 2.514414 1_554
O4 Tl4 2.606088 1_555
O5 Te1 1.880561 1_555
O5 Tl7 2.514414 1_556
O5 Tl5 2.606088 1_555
O6 Te2 1.880561 1_555
O6 Tl4 2.514414 1_556
O6 Tl6 2.606088 1_555
O7 Te3 1.880561 1_555
O7 Tl5 2.514414 1_554
O7 Tl7 2.606088 1_555
O8 Te4 1.875338 1_555
O8 Tl12 2.557035 1_555
O8 Tl8 2.765169 1_555
O9 Te5 1.875338 1_555
O9 Tl13 2.557035 1_555
O9 Tl9 2.765169 1_555
O10 Te6 1.875338 1_555
O10 Tl14 2.557035 1_555
O10 Tl10 2.765169 1_555
O11 Te7 1.875338 1_555
O11 Tl15 2.557035 1_555
O11 Tl11 2.765169 1_555
O12 Te0 1.875338 1_555
O12 Tl8 2.557035 1_555
O12 Tl12 2.765169 1_555
O13 Te1 1.875338 1_555
O13 Tl9 2.557035 1_555
O13 Tl13 2.765169 1_555
O14 Te2 1.875338 1_555
O14 Tl10 2.557035 1_555
O14 Tl14 2.765169 1_555
O15 Te3 1.875338 1_555
O15 Tl11 2.557035 1_555
O15 Tl15 2.765169 1_555
O16 Te4 1.882288 1_455
O16 Tl0 2.624717 1_555
O16 Tl12 2.725494 1_555
O17 Te5 1.882288 1_455
O17 Tl1 2.624717 1_555
O17 Tl13 2.725494 1_555
O18 Te6 1.882288 1_655
O18 Tl2 2.624717 1_555
O18 Tl14 2.725494 1_555
O19 Te7 1.882288 1_655
O19 Tl3 2.624717 1_555
O19 Tl15 2.725494 1_555
O20 Te0 1.882288 1_655
O20 Tl4 2.624717 1_555
O20 Tl8 2.725494 1_555
O21 Te1 1.882288 1_655
O21 Tl5 2.624717 1_555
O21 Tl9 2.725494 1_555
O22 Te2 1.882288 1_455
O22 Tl6 2.624717 1_555
O22 Tl10 2.725494 1_555
O23 Te3 1.882288 1_455
O23 Tl7 2.624717 1_555
O23 Tl11 2.725494 1_555
