# generated using pymatgen
data_Sb2IBr2F11
_symmetry_space_group_name_H-M   'P 1'
_cell_length_a   12.86802100
_cell_length_b   14.46686700
_cell_length_c   14.77406900
_cell_angle_alpha   90.00000000
_cell_angle_beta   90.00000000
_cell_angle_gamma   90.00000000
_symmetry_Int_Tables_number   1
_chemical_formula_structural   Sb2IBr2F11
_chemical_formula_sum   'Sb16 I8 Br16 F88'
_cell_volume   2750.33992211
_cell_formula_units_Z   8
loop_
 _symmetry_equiv_pos_site_id
 _symmetry_equiv_pos_as_xyz
  1  'x, y, z'
loop_
 _atom_site_type_symbol
 _atom_site_label
 _atom_site_symmetry_multiplicity
 _atom_site_fract_x
 _atom_site_fract_y
 _atom_site_fract_z
 _atom_site_occupancy
  Sb  Sb0  1  0.71200700  0.08476400  0.16496000  1
  Sb  Sb1  1  0.17480600  0.08545000  0.55122000  1
  Sb  Sb2  1  0.21200700  0.91523600  0.33504000  1
  Sb  Sb3  1  0.32519400  0.08545000  0.05122000  1
  Sb  Sb4  1  0.67480600  0.41455000  0.55122000  1
  Sb  Sb5  1  0.71200700  0.58476400  0.33504000  1
  Sb  Sb6  1  0.17480600  0.58545000  0.94878000  1
  Sb  Sb7  1  0.78799300  0.08476400  0.66496000  1
  Sb  Sb8  1  0.67480600  0.91455000  0.94878000  1
  Sb  Sb9  1  0.28799300  0.91523600  0.83504000  1
  Sb  Sb10  1  0.82519400  0.91455000  0.44878000  1
  Sb  Sb11  1  0.28799300  0.41523600  0.66496000  1
  Sb  Sb12  1  0.21200700  0.41523600  0.16496000  1
  Sb  Sb13  1  0.82519400  0.41455000  0.05122000  1
  Sb  Sb14  1  0.32519400  0.58545000  0.44878000  1
  Sb  Sb15  1  0.78799300  0.58476400  0.83504000  1
  I  I0  1  0.59790100  0.76171600  0.63926000  1
  I  I1  1  0.40209900  0.23828400  0.36074000  1
  I  I2  1  0.59790100  0.26171600  0.86074000  1
  I  I3  1  0.40209900  0.73828400  0.13926000  1
  I  I4  1  0.09790100  0.73828400  0.63926000  1
  I  I5  1  0.90209900  0.26171600  0.36074000  1
  I  I6  1  0.90209900  0.76171600  0.13926000  1
  I  I7  1  0.09790100  0.23828400  0.86074000  1
  Br  Br0  1  0.46916000  0.17972100  0.76700200  1
  Br  Br1  1  0.53084000  0.82027900  0.23299800  1
  Br  Br2  1  0.98242200  0.64030300  0.54719700  1
  Br  Br3  1  0.53084000  0.32027900  0.26700200  1
  Br  Br4  1  0.01757800  0.85969700  0.04719700  1
  Br  Br5  1  0.03084000  0.17972100  0.26700200  1
  Br  Br6  1  0.01757800  0.35969700  0.45280300  1
  Br  Br7  1  0.51757800  0.64030300  0.04719700  1
  Br  Br8  1  0.46916000  0.67972100  0.73299800  1
  Br  Br9  1  0.96916000  0.82027900  0.73299800  1
  Br  Br10  1  0.03084000  0.67972100  0.23299800  1
  Br  Br11  1  0.48242200  0.35969700  0.95280300  1
  Br  Br12  1  0.48242200  0.85969700  0.54719700  1
  Br  Br13  1  0.51757800  0.14030300  0.45280300  1
  Br  Br14  1  0.96916000  0.32027900  0.76700200  1
  Br  Br15  1  0.98242200  0.14030300  0.95280300  1
  F  F0  1  0.31092100  0.03847000  0.57130700  1
  F  F1  1  0.92434900  0.57453500  0.78725600  1
  F  F2  1  0.84564400  0.58750300  0.39077800  1
  F  F3  1  0.68907900  0.96153000  0.42869300  1
  F  F4  1  0.32968400  0.31167700  0.59518100  1
  F  F5  1  0.81092100  0.96153000  0.92869300  1
  F  F6  1  0.95812800  0.87507500  0.48844100  1
  F  F7  1  0.17031600  0.31167700  0.09518100  1
  F  F8  1  0.74188000  0.65752500  0.73346500  1
  F  F9  1  0.75812000  0.65752500  0.23346500  1
  F  F10  1  0.82101300  0.32828100  0.14754100  1
  F  F11  1  0.88320500  0.01255700  0.38039500  1
  F  F12  1  0.45812800  0.62492500  0.48844100  1
  F  F13  1  0.65435600  0.08750300  0.60922200  1
  F  F14  1  0.73547200  0.83185600  0.03719700  1
  F  F15  1  0.25812000  0.34247500  0.26653500  1
  F  F16  1  0.25362100  0.53116400  0.71750800  1
  F  F17  1  0.04187200  0.62492500  0.98844100  1
  F  F18  1  0.34564400  0.41249700  0.10922200  1
  F  F19  1  0.24637900  0.03116400  0.28249200  1
  F  F20  1  0.75362100  0.96883600  0.71750800  1
  F  F21  1  0.25362100  0.03116400  0.78249200  1
  F  F22  1  0.67031600  0.18832300  0.09518100  1
  F  F23  1  0.42434900  0.42546500  0.71274400  1
  F  F24  1  0.74188000  0.15752500  0.76653500  1
  F  F25  1  0.23547200  0.66814400  0.03719700  1
  F  F26  1  0.57565100  0.57453500  0.28725600  1
  F  F27  1  0.75362100  0.46883600  0.78249200  1
  F  F28  1  0.61679500  0.51255700  0.61960500  1
  F  F29  1  0.65435600  0.58750300  0.89077800  1
  F  F30  1  0.74637900  0.96883600  0.21750800  1
  F  F31  1  0.18907900  0.03847000  0.07130700  1
  F  F32  1  0.24188000  0.84247500  0.73346500  1
  F  F33  1  0.82968400  0.68832300  0.90481900  1
  F  F34  1  0.75812000  0.15752500  0.26653500  1
  F  F35  1  0.38320500  0.48744300  0.38039500  1
  F  F36  1  0.17898700  0.67171900  0.85245900  1
  F  F37  1  0.82101300  0.82828100  0.35245900  1
  F  F38  1  0.16310000  0.49234000  0.05561300  1
  F  F39  1  0.81092100  0.46153000  0.57130700  1
  F  F40  1  0.04187200  0.12492500  0.51155900  1
  F  F41  1  0.16310000  0.99234000  0.44438700  1
  F  F42  1  0.23547200  0.16814400  0.46280300  1
  F  F43  1  0.73547200  0.33185600  0.46280300  1
  F  F44  1  0.82968400  0.18832300  0.59518100  1
  F  F45  1  0.32968400  0.81167700  0.90481900  1
  F  F46  1  0.26452800  0.66814400  0.53719700  1
  F  F47  1  0.18907900  0.53847000  0.42869300  1
  F  F48  1  0.17031600  0.81167700  0.40481900  1
  F  F49  1  0.83690000  0.50766000  0.94438700  1
  F  F50  1  0.61679500  0.01255700  0.88039500  1
  F  F51  1  0.24188000  0.34247500  0.76653500  1
  F  F52  1  0.17898700  0.17171900  0.64754100  1
  F  F53  1  0.42434900  0.92546500  0.78725600  1
  F  F54  1  0.83690000  0.00766000  0.55561300  1
  F  F55  1  0.33690000  0.49234000  0.55561300  1
  F  F56  1  0.07565100  0.42546500  0.21274400  1
  F  F57  1  0.26452800  0.16814400  0.96280300  1
  F  F58  1  0.67031600  0.68832300  0.40481900  1
  F  F59  1  0.68907900  0.46153000  0.07130700  1
  F  F60  1  0.66310000  0.50766000  0.44438700  1
  F  F61  1  0.84564400  0.08750300  0.10922200  1
  F  F62  1  0.32101300  0.17171900  0.14754100  1
  F  F63  1  0.15435600  0.41249700  0.60922200  1
  F  F64  1  0.32101300  0.67171900  0.35245900  1
  F  F65  1  0.92434900  0.07453500  0.71274400  1
  F  F66  1  0.76452800  0.33185600  0.96280300  1
  F  F67  1  0.95812800  0.37507500  0.01155900  1
  F  F68  1  0.76452800  0.83185600  0.53719700  1
  F  F69  1  0.24637900  0.53116400  0.21750800  1
  F  F70  1  0.57565100  0.07453500  0.21274400  1
  F  F71  1  0.45812800  0.12492500  0.01155900  1
  F  F72  1  0.33690000  0.99234000  0.94438700  1
  F  F73  1  0.38320500  0.98744300  0.11960500  1
  F  F74  1  0.34564400  0.91249700  0.39077800  1
  F  F75  1  0.31092100  0.53847000  0.92869300  1
  F  F76  1  0.67898700  0.32828100  0.64754100  1
  F  F77  1  0.54187200  0.87507500  0.98844100  1
  F  F78  1  0.74637900  0.46883600  0.28249200  1
  F  F79  1  0.15435600  0.91249700  0.89077800  1
  F  F80  1  0.11679500  0.48744300  0.88039500  1
  F  F81  1  0.67898700  0.82828100  0.85245900  1
  F  F82  1  0.11679500  0.98744300  0.61960500  1
  F  F83  1  0.07565100  0.92546500  0.28725600  1
  F  F84  1  0.66310000  0.00766000  0.05561300  1
  F  F85  1  0.54187200  0.37507500  0.51155900  1
  F  F86  1  0.25812000  0.84247500  0.23346500  1
  F  F87  1  0.88320500  0.51255700  0.11960500  1
loop_
_geom_bond_atom_site_label_1
_geom_bond_atom_site_label_2
_geom_bond_distance
_geom_bond_site_symmetry_2
Br0 I2 2.463632 1_555
Br1 I3 2.463632 1_555
Br2 I4 2.463208 1_655
Br3 I1 2.463632 1_555
Br4 I6 2.463208 1_455
Br5 I5 2.463632 1_455
Br6 I5 2.463208 1_455
Br7 I3 2.463208 1_555
Br8 I0 2.463632 1_555
Br9 I4 2.463632 1_655
Br10 I6 2.463632 1_455
Br11 I2 2.463208 1_555
Br12 I0 2.463208 1_555
Br13 I1 2.463208 1_555
Br14 I7 2.463632 1_655
Br15 I7 2.463208 1_655
F0 Sb1 1.902067 1_555
F1 Sb15 1.897108 1_555
F2 Sb5 1.907055 1_555
F3 Sb10 1.902067 1_555
F4 Sb11 1.896084 1_555
F5 Sb8 1.902067 1_555
F6 Sb10 1.896212 1_555
F7 Sb12 1.896084 1_555
F8 Sb15 1.926694 1_555
F9 Sb5 1.926694 1_555
F10 Sb13 1.893564 1_555
F11 Sb10 1.894283 1_545
F12 Sb14 1.896212 1_555
F13 Sb7 1.907055 1_555
F14 Sb8 1.935709 1_554
F15 Sb12 1.926694 1_555
F16 Sb11 1.900279 1_555
F17 Sb6 1.896212 1_555
F18 Sb12 1.907055 1_555
F19 Sb2 1.900279 1_545
F20 Sb7 1.900279 1_565
F21 Sb9 1.900279 1_545
F22 Sb0 1.896084 1_555
F23 Sb11 1.897108 1_555
F24 Sb7 1.926694 1_555
F25 Sb6 1.935709 1_554
F26 Sb5 1.897108 1_555
F27 Sb15 1.900279 1_555
F28 Sb4 1.894283 1_555
F29 Sb15 1.907055 1_555
F30 Sb0 1.900279 1_565
F31 Sb3 1.902067 1_555
F32 Sb9 1.926694 1_555
F33 Sb15 1.896084 1_555
F34 Sb0 1.926694 1_555
F35 Sb14 1.894283 1_555
F36 Sb6 1.893564 1_555
F37 Sb10 1.893564 1_555
F38 Sb12 2.061587 1_555
F38 Sb6 2.080466 1_554
F39 Sb4 1.902067 1_555
F40 Sb1 1.896212 1_555
F41 Sb2 2.061587 1_555
F41 Sb1 2.080466 1_565
F42 Sb1 1.935709 1_555
F43 Sb4 1.935709 1_555
F44 Sb7 1.896084 1_555
F45 Sb9 1.896084 1_555
F46 Sb14 1.935709 1_555
F47 Sb14 1.902067 1_555
F48 Sb2 1.896084 1_555
F49 Sb15 2.061587 1_555
F49 Sb13 2.080466 1_556
F50 Sb8 1.894283 1_545
F51 Sb11 1.926694 1_555
F52 Sb1 1.893564 1_555
F53 Sb9 1.897108 1_555
F54 Sb7 2.061587 1_555
F54 Sb10 2.080466 1_545
F55 Sb11 2.061587 1_555
F55 Sb14 2.080466 1_555
F56 Sb12 1.897108 1_555
F57 Sb3 1.935709 1_556
F58 Sb5 1.896084 1_555
F59 Sb13 1.902067 1_555
F60 Sb5 2.061587 1_555
F60 Sb4 2.080466 1_555
F61 Sb0 1.907055 1_555
F62 Sb3 1.893564 1_555
F63 Sb11 1.907055 1_555
F64 Sb14 1.893564 1_555
F65 Sb7 1.897108 1_555
F66 Sb13 1.935709 1_556
F67 Sb13 1.896212 1_555
F68 Sb10 1.935709 1_555
F69 Sb12 1.900279 1_555
F70 Sb0 1.897108 1_555
F71 Sb3 1.896212 1_555
F72 Sb9 2.061587 1_555
F72 Sb3 2.080466 1_566
F73 Sb3 1.894283 1_565
F74 Sb2 1.907055 1_555
F75 Sb6 1.902067 1_555
F76 Sb4 1.893564 1_555
F77 Sb8 1.896212 1_555
F78 Sb5 1.900279 1_555
F79 Sb9 1.907055 1_555
F80 Sb6 1.894283 1_555
F81 Sb8 1.893564 1_555
F82 Sb1 1.894283 1_565
F83 Sb2 1.897108 1_555
F84 Sb0 2.061587 1_555
F84 Sb8 2.080466 1_544
F85 Sb4 1.896212 1_555
F86 Sb2 1.926694 1_555
F87 Sb13 1.894283 1_555
