# generated using pymatgen
data_Rb4Zr3Te16
_symmetry_space_group_name_H-M   'P 1'
_cell_length_a   11.27535053
_cell_length_b   11.27535053
_cell_length_c   15.43215048
_cell_angle_alpha   83.26336262
_cell_angle_beta   83.26336262
_cell_angle_gamma   114.82459631
_symmetry_Int_Tables_number   1
_chemical_formula_structural   Rb4Zr3Te16
_chemical_formula_sum   'Rb8 Zr6 Te32'
_cell_volume   1737.90682211
_cell_formula_units_Z   2
loop_
 _symmetry_equiv_pos_site_id
 _symmetry_equiv_pos_as_xyz
  1  'x, y, z'
loop_
 _atom_site_type_symbol
 _atom_site_label
 _atom_site_symmetry_multiplicity
 _atom_site_fract_x
 _atom_site_fract_y
 _atom_site_fract_z
 _atom_site_occupancy
  Rb  Rb0  1  0.54904580  0.25145965  0.93164879  1
  Rb  Rb1  1  0.74854035  0.45095420  0.56835121  1
  Rb  Rb2  1  0.45095420  0.74854035  0.06835121  1
  Rb  Rb3  1  0.25145965  0.54904580  0.43164879  1
  Rb  Rb4  1  0.02750441  0.75278270  0.87334419  1
  Rb  Rb5  1  0.24721730  0.97249559  0.62665581  1
  Rb  Rb6  1  0.97249559  0.24721730  0.12665581  1
  Rb  Rb7  1  0.75278270  0.02750441  0.37334419  1
  Zr  Zr0  1  0.56718377  0.79202190  0.72876503  1
  Zr  Zr1  1  0.20797810  0.43281623  0.77123497  1
  Zr  Zr2  1  0.43281623  0.20797810  0.27123497  1
  Zr  Zr3  1  0.79202190  0.56718377  0.22876503  1
  Zr  Zr4  1  0.89121679  0.10878321  0.75000000  1
  Zr  Zr5  1  0.10878321  0.89121679  0.25000000  1
  Te  Te0  1  0.75219845  0.84825282  0.87065589  1
  Te  Te1  1  0.15174718  0.24780155  0.62934411  1
  Te  Te2  1  0.24780155  0.15174718  0.12934411  1
  Te  Te3  1  0.84825282  0.75219845  0.37065589  1
  Te  Te4  1  0.80275845  0.09526515  0.94158132  1
  Te  Te5  1  0.90473485  0.19724155  0.55841868  1
  Te  Te6  1  0.19724155  0.90473485  0.05841868  1
  Te  Te7  1  0.09526515  0.80275845  0.44158132  1
  Te  Te8  1  0.08444885  0.15543461  0.87327823  1
  Te  Te9  1  0.84456539  0.91555115  0.62672177  1
  Te  Te10  1  0.91555115  0.84456539  0.12672177  1
  Te  Te11  1  0.15543461  0.08444885  0.37327823  1
  Te  Te12  1  0.35233298  0.26528448  0.74390664  1
  Te  Te13  1  0.73471552  0.64766702  0.75609336  1
  Te  Te14  1  0.64766702  0.73471552  0.25609336  1
  Te  Te15  1  0.26528448  0.35233298  0.24390664  1
  Te  Te16  1  0.62260545  0.07951053  0.71556813  1
  Te  Te17  1  0.92048947  0.37739455  0.78443187  1
  Te  Te18  1  0.37739455  0.92048947  0.28443187  1
  Te  Te19  1  0.07951053  0.62260545  0.21556813  1
  Te  Te20  1  0.40595932  0.88472955  0.83703163  1
  Te  Te21  1  0.11527045  0.59404068  0.66296837  1
  Te  Te22  1  0.59404068  0.11527045  0.16296837  1
  Te  Te23  1  0.88472955  0.40595932  0.33703163  1
  Te  Te24  1  0.42199519  0.54855069  0.87505716  1
  Te  Te25  1  0.45144931  0.57800481  0.62494284  1
  Te  Te26  1  0.57800481  0.45144931  0.12494284  1
  Te  Te27  1  0.54855069  0.42199519  0.37505716  1
  Te  Te28  1  0.17122130  0.52783127  0.93946354  1
  Te  Te29  1  0.47216873  0.82877870  0.56053646  1
  Te  Te30  1  0.82877870  0.47216873  0.06053646  1
  Te  Te31  1  0.52783127  0.17122130  0.43946354  1
loop_
_geom_bond_atom_site_label_1
_geom_bond_atom_site_label_2
_geom_bond_distance
_geom_bond_site_symmetry_2
Rb0 Te12 3.876855 1_555
Rb0 Te22 3.892501 1_556
Rb0 Te26 3.908674 1_556
Rb0 Te4 3.946986 1_555
Rb0 Te2 3.958081 1_556
Rb0 Te30 4.017429 1_556
Rb0 Te17 4.090914 1_555
Rb0 Te24 4.203886 1_555
Rb0 Te16 4.217162 1_555
Rb0 Te20 4.266231 1_545
Rb0 Te6 4.267238 1_546
Rb1 Te13 3.876855 1_555
Rb1 Te23 3.892501 1_555
Rb1 Te27 3.908674 1_555
Rb1 Te5 3.946986 1_555
Rb1 Te3 3.958081 1_555
Rb1 Te31 4.017429 1_555
Rb1 Te16 4.090914 1_555
Rb1 Te25 4.203886 1_555
Rb1 Te17 4.217162 1_555
Rb1 Te21 4.266231 1_655
Rb1 Te7 4.267238 1_655
Rb2 Te14 3.876855 1_555
Rb2 Te20 3.892501 1_554
Rb2 Te24 3.908674 1_554
Rb2 Te6 3.946986 1_555
Rb2 Te0 3.958081 1_554
Rb2 Te28 4.017429 1_554
Rb2 Te19 4.090914 1_555
Rb2 Te26 4.203886 1_555
Rb2 Te18 4.217162 1_555
Rb2 Te22 4.266231 1_565
Rb2 Te4 4.267238 1_564
Rb3 Te15 3.876855 1_555
Rb3 Te21 3.892501 1_555
Rb3 Te25 3.908674 1_555
Rb3 Te7 3.946986 1_555
Rb3 Te1 3.958081 1_555
Rb3 Te29 4.017429 1_555
Rb3 Te18 4.090914 1_555
Rb3 Te27 4.203886 1_555
Rb3 Te19 4.217162 1_555
Rb3 Te23 4.266231 1_455
Rb3 Te5 4.267238 1_455
Rb4 Te28 3.651347 1_555
Rb4 Te0 3.690788 1_455
Rb4 Te30 3.709552 1_456
Rb4 Te13 3.767819 1_455
Rb4 Te6 3.799035 1_556
Rb4 Te20 3.827420 1_555
Rb4 Te21 4.101204 1_555
Rb5 Te29 3.651347 1_555
Rb5 Te1 3.690788 1_565
Rb5 Te31 3.709552 1_565
Rb5 Te12 3.767819 1_565
Rb5 Te7 3.799035 1_555
Rb5 Te21 3.827420 1_555
Rb5 Te20 4.101204 1_555
Rb6 Te30 3.651347 1_555
Rb6 Te2 3.690788 1_655
Rb6 Te28 3.709552 1_654
Rb6 Te15 3.767819 1_655
Rb6 Te4 3.799035 1_554
Rb6 Te22 3.827420 1_555
Rb6 Te23 4.101204 1_555
Rb7 Te31 3.651347 1_555
Rb7 Te3 3.690788 1_545
Rb7 Te29 3.709552 1_545
Rb7 Te14 3.767819 1_545
Rb7 Te5 3.799035 1_555
Rb7 Te23 3.827420 1_555
Rb7 Te22 4.101204 1_555
Te0 Zr4 2.952778 1_565
Te0 Te4 2.967900 1_565
Te0 Te13 2.987502 1_555
Te0 Zr0 3.136132 1_555
Te1 Zr4 2.952778 1_455
Te1 Te5 2.967900 1_455
Te1 Te12 2.987502 1_555
Te1 Zr1 3.136132 1_555
Te2 Zr5 2.952778 1_545
Te2 Te6 2.967900 1_545
Te2 Zr2 3.136132 1_555
Te3 Zr5 2.952778 1_655
Te3 Te7 2.967900 1_655
Te3 Zr3 3.136132 1_555
Te4 Zr4 2.972170 1_555
Te4 Te8 2.982737 1_655
Te5 Zr4 2.972170 1_555
Te5 Te9 2.982737 1_545
Te6 Zr5 2.972170 1_555
Te7 Zr5 2.972170 1_555
Te8 Zr1 2.978865 1_555
Te8 Zr4 2.981259 1_455
Te9 Zr0 2.978865 1_555
Te9 Zr4 2.981259 1_565
Te10 Zr3 2.978865 1_555
Te10 Zr5 2.981259 1_655
Te10 Te6 2.982737 1_655
Te11 Zr2 2.978865 1_555
Te11 Zr5 2.981259 1_545
Te11 Te7 2.982737 1_545
Te12 Zr1 3.000484 1_555
Te13 Zr0 3.000484 1_555
Te14 Te3 2.987502 1_555
Te14 Zr3 3.000484 1_555
Te15 Te2 2.987502 1_555
Te15 Zr2 3.000484 1_555
Te16 Te20 2.785529 1_545
Te16 Zr0 3.008969 1_545
Te16 Zr4 3.023830 1_555
Te16 Te5 3.413491 1_555
Te17 Te21 2.785529 1_655
Te17 Zr1 3.008969 1_655
Te17 Zr4 3.023830 1_555
Te17 Te4 3.413491 1_555
Te18 Te22 2.785529 1_565
Te18 Zr2 3.008969 1_565
Te18 Zr5 3.023830 1_555
Te18 Te7 3.413491 1_555
Te19 Te23 2.785529 1_455
Te19 Zr3 3.008969 1_455
Te19 Zr5 3.023830 1_555
Te19 Te6 3.413491 1_555
Te20 Zr0 2.912317 1_555
Te21 Zr1 2.912317 1_555
Te22 Zr2 2.912317 1_555
Te23 Zr3 2.912317 1_555
Te24 Te28 2.787308 1_555
Te24 Zr1 2.974309 1_555
Te24 Zr0 3.036156 1_555
Te25 Te29 2.787308 1_555
Te25 Zr0 2.974309 1_555
Te25 Zr1 3.036156 1_555
Te26 Te30 2.787308 1_555
Te26 Zr3 2.974309 1_555
Te26 Zr2 3.036156 1_555
Te27 Te31 2.787308 1_555
Te27 Zr2 2.974309 1_555
Te27 Zr3 3.036156 1_555
Te28 Zr1 2.971921 1_555
Te29 Zr0 2.971921 1_555
Te30 Zr3 2.971921 1_555
Te31 Zr2 2.971921 1_555
