# generated using pymatgen
data_K3Na3(NO4)2
_symmetry_space_group_name_H-M   'P 1'
_cell_length_a   7.10411800
_cell_length_b   7.38412100
_cell_length_c   16.32032800
_cell_angle_alpha   90.00000000
_cell_angle_beta   90.00000000
_cell_angle_gamma   90.00000000
_symmetry_Int_Tables_number   1
_chemical_formula_structural   K3Na3(NO4)2
_chemical_formula_sum   'K12 Na12 N8 O32'
_cell_volume   856.12633009
_cell_formula_units_Z   4
loop_
 _symmetry_equiv_pos_site_id
 _symmetry_equiv_pos_as_xyz
  1  'x, y, z'
loop_
 _atom_site_type_symbol
 _atom_site_label
 _atom_site_symmetry_multiplicity
 _atom_site_fract_x
 _atom_site_fract_y
 _atom_site_fract_z
 _atom_site_occupancy
  K  K0  1  0.08519100  0.20616800  0.86699600  1
  K  K1  1  0.91480900  0.79383200  0.13300400  1
  K  K2  1  0.25000000  0.50000000  0.01073000  1
  K  K3  1  0.75000000  0.50000000  0.98927000  1
  K  K4  1  0.25000000  0.00000000  0.51073000  1
  K  K5  1  0.75000000  0.00000000  0.48927000  1
  K  K6  1  0.58519100  0.29383200  0.63300400  1
  K  K7  1  0.58519100  0.20616800  0.13300400  1
  K  K8  1  0.08519100  0.29383200  0.36699600  1
  K  K9  1  0.41480900  0.70616800  0.36699600  1
  K  K10  1  0.91480900  0.70616800  0.63300400  1
  K  K11  1  0.41480900  0.79383200  0.86699600  1
  Na  Na0  1  0.75000000  0.50000000  0.79291600  1
  Na  Na1  1  0.25000000  0.50000000  0.53040000  1
  Na  Na2  1  0.75000000  0.00000000  0.75788200  1
  Na  Na3  1  0.75000000  0.50000000  0.25788200  1
  Na  Na4  1  0.25000000  0.50000000  0.20708400  1
  Na  Na5  1  0.25000000  0.00000000  0.24211800  1
  Na  Na6  1  0.75000000  0.50000000  0.46960000  1
  Na  Na7  1  0.75000000  0.00000000  0.29291600  1
  Na  Na8  1  0.75000000  0.00000000  0.96960000  1
  Na  Na9  1  0.25000000  0.50000000  0.74211800  1
  Na  Na10  1  0.25000000  0.00000000  0.03040000  1
  Na  Na11  1  0.25000000  0.00000000  0.70708400  1
  N  N0  1  0.01661700  0.24055300  0.13016600  1
  N  N1  1  0.51661700  0.24055300  0.86983400  1
  N  N2  1  0.51661700  0.25944700  0.36983400  1
  N  N3  1  0.01661700  0.25944700  0.63016600  1
  N  N4  1  0.48338300  0.75944700  0.13016600  1
  N  N5  1  0.48338300  0.74055300  0.63016600  1
  N  N6  1  0.98338300  0.75944700  0.86983400  1
  N  N7  1  0.98338300  0.74055300  0.36983400  1
  O  O0  1  0.54009400  0.57884900  0.13490400  1
  O  O1  1  0.05238100  0.64481000  0.30255600  1
  O  O2  1  0.94761900  0.14481000  0.19744400  1
  O  O3  1  0.54009400  0.92115100  0.63490400  1
  O  O4  1  0.55238100  0.85519000  0.19744400  1
  O  O5  1  0.05238100  0.85519000  0.80255600  1
  O  O6  1  0.44761900  0.14481000  0.80255600  1
  O  O7  1  0.78519700  0.76913900  0.86888600  1
  O  O8  1  0.95990600  0.42115100  0.13490400  1
  O  O9  1  0.71480300  0.23086100  0.86888600  1
  O  O10  1  0.45990600  0.42115100  0.86509600  1
  O  O11  1  0.95110700  0.16461200  0.05653200  1
  O  O12  1  0.95110700  0.33538800  0.55653200  1
  O  O13  1  0.04889300  0.66461200  0.44346800  1
  O  O14  1  0.28519700  0.73086100  0.63111400  1
  O  O15  1  0.54889300  0.66461200  0.55653200  1
  O  O16  1  0.45110700  0.33538800  0.44346800  1
  O  O17  1  0.44761900  0.35519000  0.30255600  1
  O  O18  1  0.45110700  0.16461200  0.94346800  1
  O  O19  1  0.94761900  0.35519000  0.69744400  1
  O  O20  1  0.71480300  0.26913900  0.36888600  1
  O  O21  1  0.45990600  0.07884900  0.36509600  1
  O  O22  1  0.95990600  0.07884900  0.63490400  1
  O  O23  1  0.78519700  0.73086100  0.36888600  1
  O  O24  1  0.04009400  0.92115100  0.36509600  1
  O  O25  1  0.21480300  0.26913900  0.63111400  1
  O  O26  1  0.54889300  0.83538800  0.05653200  1
  O  O27  1  0.55238100  0.64481000  0.69744400  1
  O  O28  1  0.28519700  0.76913900  0.13111400  1
  O  O29  1  0.21480300  0.23086100  0.13111400  1
  O  O30  1  0.04889300  0.83538800  0.94346800  1
  O  O31  1  0.04009400  0.57884900  0.86509600  1
loop_
_geom_bond_atom_site_label_1
_geom_bond_atom_site_label_2
_geom_bond_distance
_geom_bond_site_symmetry_2
K0 O9 2.637770 1_455
K0 O31 2.770681 1_555
K0 O5 2.806615 1_545
K0 O6 2.817899 1_555
K0 O18 2.899869 1_555
K0 O30 3.019955 1_545
K0 O10 3.099571 1_555
K0 O19 3.134187 1_455
K0 O11 3.251146 1_456
K1 O28 2.637770 1_655
K1 O8 2.770681 1_555
K1 O2 2.806615 1_565
K1 O4 2.817899 1_555
K1 O26 2.899869 1_555
K1 O11 3.019955 1_565
K1 O0 3.099571 1_555
K1 O1 3.134187 1_655
K1 O30 3.251146 1_654
K2 O28 2.805739 1_555
K2 O29 2.805739 1_555
K2 O10 2.865626 1_554
K2 O31 2.865626 1_554
K2 O0 2.948405 1_555
K2 O8 2.948405 1_455
K2 O30 3.062590 1_554
K2 O18 3.062590 1_554
K3 O7 2.805739 1_555
K3 O9 2.805739 1_555
K3 O8 2.865626 1_556
K3 O0 2.865626 1_556
K3 O10 2.948405 1_555
K3 O31 2.948405 1_655
K3 O26 3.062590 1_556
K3 O11 3.062590 1_556
K4 O25 2.805739 1_555
K4 O14 2.805739 1_545
K4 O21 2.865626 1_555
K4 O24 2.865626 1_545
K4 O3 2.948405 1_545
K4 O22 2.948405 1_455
K4 O16 3.062590 1_555
K4 O13 3.062590 1_545
K5 O20 2.805739 1_555
K5 O23 2.805739 1_545
K5 O22 2.865626 1_555
K5 O3 2.865626 1_545
K5 O21 2.948405 1_555
K5 O24 2.948405 1_645
K5 O12 3.062590 1_555
K5 O15 3.062590 1_545
K6 O25 2.637770 1_555
K6 O3 2.770681 1_545
K6 O27 2.806615 1_555
K6 O19 2.817899 1_555
K6 O12 2.899869 1_555
K6 O15 3.019955 1_555
K6 O22 3.099571 1_555
K6 O6 3.134187 1_555
K6 O16 3.251146 1_555
K7 O29 2.637770 1_555
K7 O0 2.770681 1_555
K7 O4 2.806615 1_545
K7 O2 2.817899 1_555
K7 O11 2.899869 1_555
K7 O26 3.019955 1_545
K7 O8 3.099571 1_555
K7 O17 3.134187 1_555
K7 O18 3.251146 1_554
K8 O20 2.637770 1_455
K8 O24 2.770681 1_545
K8 O1 2.806615 1_555
K8 O17 2.817899 1_555
K8 O16 2.899869 1_555
K8 O13 3.019955 1_555
K8 O21 3.099571 1_555
K8 O2 3.134187 1_455
K8 O12 3.251146 1_455
K9 O23 2.637770 1_555
K9 O21 2.770681 1_565
K9 O17 2.806615 1_555
K9 O1 2.817899 1_555
K9 O13 2.899869 1_555
K9 O16 3.019955 1_555
K9 O24 3.099571 1_555
K9 O4 3.134187 1_555
K9 O15 3.251146 1_555
K10 O14 2.637770 1_655
K10 O22 2.770681 1_565
K10 O19 2.806615 1_555
K10 O27 2.817899 1_555
K10 O15 2.899869 1_555
K10 O12 3.019955 1_555
K10 O3 3.099571 1_555
K10 O5 3.134187 1_655
K10 O13 3.251146 1_655
K11 O7 2.637770 1_555
K11 O10 2.770681 1_555
K11 O6 2.806615 1_565
K11 O5 2.817899 1_555
K11 O30 2.899869 1_555
K11 O18 3.019955 1_565
K11 O31 3.099571 1_555
K11 O27 3.134187 1_555
K11 O26 3.251146 1_556
Na0 O19 2.354174 1_555
Na0 O27 2.354174 1_555
Na0 O7 2.355704 1_555
Na0 O9 2.355704 1_555
Na0 O10 2.444142 1_555
Na0 O31 2.444142 1_655
Na1 O13 2.351915 1_555
Na1 O16 2.351915 1_555
Na1 O14 2.381228 1_555
Na1 O25 2.381228 1_555
Na1 O15 2.483560 1_555
Na1 O12 2.483560 1_455
Na2 O9 2.500103 1_555
Na2 O7 2.500103 1_545
Na2 O5 2.507891 1_645
Na2 O6 2.507891 1_555
Na2 O22 2.567270 1_555
Na2 O3 2.567270 1_545
Na3 O23 2.500103 1_555
Na3 O20 2.500103 1_555
Na3 O17 2.507891 1_555
Na3 O1 2.507891 1_655
Na3 O8 2.567270 1_555
Na3 O0 2.567270 1_555
Na4 O1 2.354174 1_555
Na4 O17 2.354174 1_555
Na4 O28 2.355704 1_555
Na4 O29 2.355704 1_555
Na4 O0 2.444142 1_555
Na4 O8 2.444142 1_455
Na5 O29 2.500103 1_555
Na5 O28 2.500103 1_545
Na5 O4 2.507891 1_545
Na5 O2 2.507891 1_455
Na5 O21 2.567270 1_555
Na5 O24 2.567270 1_545
Na6 O12 2.351915 1_555
Na6 O15 2.351915 1_555
Na6 O23 2.381228 1_555
Na6 O20 2.381228 1_555
Na6 O13 2.483560 1_655
Na6 O16 2.483560 1_555
Na7 O4 2.354174 1_545
Na7 O2 2.354174 1_555
Na7 O20 2.355704 1_555
Na7 O23 2.355704 1_545
Na7 O21 2.444142 1_555
Na7 O24 2.444142 1_645
Na8 O11 2.351915 1_556
Na8 O26 2.351915 1_546
Na8 O9 2.381228 1_555
Na8 O7 2.381228 1_545
Na8 O18 2.483560 1_555
Na8 O30 2.483560 1_645
Na9 O14 2.500103 1_555
Na9 O25 2.500103 1_555
Na9 O27 2.507891 1_555
Na9 O19 2.507891 1_455
Na9 O10 2.567270 1_555
Na9 O31 2.567270 1_555
Na10 O18 2.351915 1_554
Na10 O30 2.351915 1_544
Na10 O29 2.381228 1_555
Na10 O28 2.381228 1_545
Na10 O11 2.483560 1_455
Na10 O26 2.483560 1_545
Na11 O5 2.354174 1_545
Na11 O6 2.354174 1_555
Na11 O25 2.355704 1_555
Na11 O14 2.355704 1_545
Na11 O3 2.444142 1_545
Na11 O22 2.444142 1_455
N0 O2 1.394879 1_455
N0 O8 1.395231 1_455
N0 O11 1.405416 1_455
N0 O29 1.409839 1_555
N1 O6 1.394879 1_555
N1 O10 1.395231 1_555
N1 O18 1.405416 1_555
N1 O9 1.409839 1_555
N2 O17 1.394879 1_555
N2 O21 1.395231 1_555
N2 O16 1.405416 1_555
N2 O20 1.409839 1_555
N3 O19 1.394879 1_455
N3 O22 1.395231 1_455
N3 O12 1.405416 1_455
N3 O25 1.409839 1_555
N4 O4 1.394879 1_555
N4 O0 1.395231 1_555
N4 O26 1.405416 1_555
N4 O28 1.409839 1_555
N5 O27 1.394879 1_555
N5 O3 1.395231 1_555
N5 O15 1.405416 1_555
N5 O14 1.409839 1_555
N6 O5 1.394879 1_655
N6 O31 1.395231 1_655
N6 O30 1.405416 1_655
N6 O7 1.409839 1_555
N7 O1 1.394879 1_655
N7 O24 1.395231 1_655
N7 O13 1.405416 1_655
N7 O23 1.409839 1_555
