# generated using pymatgen
data_BaB4O7
_symmetry_space_group_name_H-M   'P 1'
_cell_length_a   4.30169004
_cell_length_b   9.01139862
_cell_length_c   11.00351696
_cell_angle_alpha   90.00000000
_cell_angle_beta   90.00000000
_cell_angle_gamma   90.00000000
_symmetry_Int_Tables_number   1
_chemical_formula_structural   BaB4O7
_chemical_formula_sum   'Ba4 B16 O28'
_cell_volume   426.54301289
_cell_formula_units_Z   4
loop_
 _symmetry_equiv_pos_site_id
 _symmetry_equiv_pos_as_xyz
  1  'x, y, z'
loop_
 _atom_site_type_symbol
 _atom_site_label
 _atom_site_symmetry_multiplicity
 _atom_site_fract_x
 _atom_site_fract_y
 _atom_site_fract_z
 _atom_site_occupancy
  Ba  Ba0  1  0.73012636  0.85327688  0.75000000  1
  Ba  Ba1  1  0.26987364  0.14672312  0.25000000  1
  Ba  Ba2  1  0.23012636  0.64672312  0.25000000  1
  Ba  Ba3  1  0.76987364  0.35327688  0.75000000  1
  B  B0  1  0.70725325  0.91061418  0.12632472  1
  B  B1  1  0.29274675  0.08938582  0.87367528  1
  B  B2  1  0.77836431  0.15788500  0.49961850  1
  B  B3  1  0.22163569  0.84211500  0.99961850  1
  B  B4  1  0.77836431  0.15788500  0.00038150  1
  B  B5  1  0.79274675  0.41061418  0.37367528  1
  B  B6  1  0.70725325  0.91061418  0.37367528  1
  B  B7  1  0.20725325  0.58938582  0.62632472  1
  B  B8  1  0.72163569  0.65788500  0.00038150  1
  B  B9  1  0.27836431  0.34211500  0.50038150  1
  B  B10  1  0.79274675  0.41061418  0.12632472  1
  B  B11  1  0.27836431  0.34211500  0.99961850  1
  B  B12  1  0.72163569  0.65788500  0.49961850  1
  B  B13  1  0.20725325  0.58938582  0.87367528  1
  B  B14  1  0.22163569  0.84211500  0.50038150  1
  B  B15  1  0.29274675  0.08938582  0.62632472  1
  O  O0  1  0.37868478  0.69589078  0.53838403  1
  O  O1  1  0.29627568  0.43678803  0.89612226  1
  O  O2  1  0.79627568  0.06321197  0.39612226  1
  O  O3  1  0.70372432  0.56321197  0.10387774  1
  O  O4  1  0.37602105  0.89066543  0.39427962  1
  O  O5  1  0.62397895  0.10933457  0.89427962  1
  O  O6  1  0.12131522  0.19589078  0.96161597  1
  O  O7  1  0.87602105  0.60933457  0.60572038  1
  O  O8  1  0.37602105  0.89066543  0.10572038  1
  O  O9  1  0.70372432  0.56321197  0.39612226  1
  O  O10  1  0.20372432  0.93678803  0.89612226  1
  O  O11  1  0.78696095  0.86740896  0.25000000  1
  O  O12  1  0.28696095  0.63259104  0.75000000  1
  O  O13  1  0.20372432  0.93678803  0.60387774  1
  O  O14  1  0.29627568  0.43678803  0.60387774  1
  O  O15  1  0.12397895  0.39066543  0.39427962  1
  O  O16  1  0.62131522  0.30410922  0.03838403  1
  O  O17  1  0.12131522  0.19589078  0.53838403  1
  O  O18  1  0.62397895  0.10933457  0.60572038  1
  O  O19  1  0.62131522  0.30410922  0.46161597  1
  O  O20  1  0.87602105  0.60933457  0.89427962  1
  O  O21  1  0.21303905  0.13259104  0.75000000  1
  O  O22  1  0.71303905  0.36740896  0.25000000  1
  O  O23  1  0.87868478  0.80410922  0.03838403  1
  O  O24  1  0.87868478  0.80410922  0.46161597  1
  O  O25  1  0.79627568  0.06321197  0.10387774  1
  O  O26  1  0.12397895  0.39066543  0.10572038  1
  O  O27  1  0.37868478  0.69589078  0.96161597  1
loop_
_geom_bond_atom_site_label_1
_geom_bond_atom_site_label_2
_geom_bond_distance
_geom_bond_site_symmetry_2
Ba0 O10 2.702225 1_655
Ba0 O13 2.702225 1_655
Ba0 O12 2.754830 1_555
Ba0 O20 2.783280 1_555
Ba0 O7 2.783280 1_555
Ba0 O5 2.837814 1_565
Ba0 O18 2.837814 1_565
Ba0 O10 2.877349 1_555
Ba0 O13 2.877349 1_555
Ba1 O25 2.702225 1_455
Ba1 O2 2.702225 1_455
Ba1 O22 2.754830 1_555
Ba1 O26 2.783280 1_555
Ba1 O15 2.783280 1_555
Ba1 O4 2.837814 1_545
Ba1 O8 2.837814 1_545
Ba1 O2 2.877349 1_555
Ba1 O25 2.877349 1_555
Ba2 O9 2.702225 1_555
Ba2 O3 2.702225 1_555
Ba2 O11 2.754830 1_455
Ba2 O4 2.783280 1_555
Ba2 O8 2.783280 1_555
Ba2 O15 2.837814 1_555
Ba2 O26 2.837814 1_555
Ba2 O9 2.877349 1_455
Ba2 O3 2.877349 1_455
Ba3 O14 2.702225 1_555
Ba3 O1 2.702225 1_555
Ba3 O21 2.754830 1_655
Ba3 O18 2.783280 1_555
Ba3 O5 2.783280 1_555
Ba3 O20 2.837814 1_555
Ba3 O7 2.837814 1_555
Ba3 O14 2.877349 1_655
Ba3 O1 2.877349 1_655
B0 O25 1.448658 1_565
B0 O8 1.453939 1_555
B0 O11 1.456399 1_555
B0 O23 1.549620 1_555
B1 O10 1.448658 1_545
B1 O5 1.453939 1_555
B1 O21 1.456399 1_555
B1 O6 1.549620 1_555
B2 O18 1.412624 1_555
B2 O2 1.425025 1_555
B2 O19 1.538686 1_555
B2 O17 1.573424 1_655
B3 O8 1.412624 1_556
B3 O10 1.425025 1_555
B3 O27 1.538686 1_555
B3 O23 1.573424 1_456
B4 O5 1.412624 1_554
B4 O25 1.425025 1_555
B4 O16 1.538686 1_555
B4 O6 1.573424 1_654
B5 O9 1.448658 1_555
B5 O15 1.453939 1_655
B5 O22 1.456399 1_555
B5 O19 1.549620 1_555
B6 O2 1.448658 1_565
B6 O4 1.453939 1_555
B6 O11 1.456399 1_555
B6 O24 1.549620 1_555
B7 O14 1.448658 1_555
B7 O7 1.453939 1_455
B7 O12 1.456399 1_555
B7 O0 1.549620 1_555
B8 O20 1.412624 1_554
B8 O3 1.425025 1_555
B8 O23 1.538686 1_555
B8 O27 1.573424 1_554
B9 O15 1.412624 1_555
B9 O14 1.425025 1_555
B9 O17 1.538686 1_555
B9 O19 1.573424 1_555
B10 O3 1.448658 1_555
B10 O26 1.453939 1_655
B10 O22 1.456399 1_555
B10 O16 1.549620 1_555
B11 O26 1.412624 1_556
B11 O1 1.425025 1_555
B11 O6 1.538686 1_555
B11 O16 1.573424 1_556
B12 O7 1.412624 1_555
B12 O9 1.425025 1_555
B12 O24 1.538686 1_555
B12 O0 1.573424 1_555
B13 O1 1.448658 1_555
B13 O20 1.453939 1_455
B13 O12 1.456399 1_555
B13 O27 1.549620 1_555
B14 O4 1.412624 1_555
B14 O13 1.425025 1_555
B14 O0 1.538686 1_555
B14 O24 1.573424 1_455
B15 O13 1.448658 1_545
B15 O18 1.453939 1_555
B15 O21 1.456399 1_555
B15 O17 1.549620 1_555
