# generated using pymatgen
data_La2CO5
_symmetry_space_group_name_H-M   'P 1'
_cell_length_a   7.03148763
_cell_length_b   7.02832407
_cell_length_c   31.90259086
_cell_angle_alpha   90.00000000
_cell_angle_beta   90.00000000
_cell_angle_gamma   120.01488162
_symmetry_Int_Tables_number   1
_chemical_formula_structural   La2CO5
_chemical_formula_sum   'La24 C12 O60'
_cell_volume   1365.18163235
_cell_formula_units_Z   12
loop_
 _symmetry_equiv_pos_site_id
 _symmetry_equiv_pos_as_xyz
  1  'x, y, z'
loop_
 _atom_site_type_symbol
 _atom_site_label
 _atom_site_symmetry_multiplicity
 _atom_site_fract_x
 _atom_site_fract_y
 _atom_site_fract_z
 _atom_site_occupancy
  La  La0  1  0.66106457  0.67241559  0.57773819  1
  La  La1  1  0.66598908  0.00657829  0.67319603  1
  La  La2  1  0.98890963  0.66437726  0.32763587  1
  La  La3  1  0.65941079  0.99342171  0.32680397  1
  La  La4  1  0.33160686  0.00125012  0.92238798  1
  La  La5  1  0.98864898  0.32758441  0.07773819  1
  La  La6  1  0.65978461  0.66873027  0.42340083  1
  La  La7  1  0.33035774  0.99874988  0.42238798  1
  La  La8  1  0.33160686  0.00125012  0.57761202  1
  La  La9  1  0.65978461  0.66873027  0.07659917  1
  La  La10  1  0.99105533  0.33126973  0.57659917  1
  La  La11  1  0.66598908  0.00657829  0.82680397  1
  La  La12  1  0.32995499  0.33498653  0.32762885  1
  La  La13  1  0.65941079  0.99342171  0.17319603  1
  La  La14  1  0.66106457  0.67241559  0.92226181  1
  La  La15  1  0.98864898  0.32758441  0.42226181  1
  La  La16  1  0.99105533  0.33126973  0.92340083  1
  La  La17  1  0.98890963  0.66437726  0.17236413  1
  La  La18  1  0.32995499  0.33498653  0.17237115  1
  La  La19  1  0.32453237  0.33562274  0.67236413  1
  La  La20  1  0.99496746  0.66501347  0.82762885  1
  La  La21  1  0.32453237  0.33562274  0.82763587  1
  La  La22  1  0.33035774  0.99874988  0.07761202  1
  La  La23  1  0.99496746  0.66501347  0.67237115  1
  C  C0  1  0.65975886  0.27905301  0.25000000  1
  C  C1  1  0.04801079  0.00000000  0.00000000  1
  C  C2  1  0.38070585  0.72094699  0.75000000  1
  C  C3  1  0.65943573  0.38596157  0.50008988  1
  C  C4  1  0.60810440  0.33706867  0.75000000  1
  C  C5  1  0.04679871  0.05134404  0.25000000  1
  C  C6  1  0.99545467  0.94865596  0.75000000  1
  C  C7  1  0.27103473  0.66293133  0.25000000  1
  C  C8  1  0.27347416  0.61403843  0.00008988  1
  C  C9  1  0.04801079  0.00000000  0.50000000  1
  C  C10  1  0.65943573  0.38596157  -0.00008988  1
  C  C11  1  0.27347416  0.61403843  0.49991012  1
  O  O0  1  0.66163745  0.66736336  0.84536518  1
  O  O1  1  0.35970256  0.66422385  0.21464227  1
  O  O2  1  0.32977446  0.33479090  0.59538604  1
  O  O3  1  0.32443087  0.33031238  0.09538767  1
  O  O4  1  0.56404881  0.90247181  0.75000000  1
  O  O5  1  0.65830415  0.56771857  0.50071551  1
  O  O6  1  0.08783645  0.66083944  0.25000000  1
  O  O7  1  0.65976908  0.00021808  0.09862068  1
  O  O8  1  0.35887079  0.69924076  0.53560771  1
  O  O9  1  0.65976908  0.00021808  0.40137932  1
  O  O10  1  0.65876724  0.36618163  0.28537350  1
  O  O11  1  0.99427409  0.33263664  0.34536518  1
  O  O12  1  0.32468019  0.99791825  0.34543222  1
  O  O13  1  0.36440847  0.70382314  0.03511083  1
  O  O14  1  0.35887079  0.69924076  0.96439229  1
  O  O15  1  0.32443087  0.33031238  0.40461233  1
  O  O16  1  0.65830415  0.56771857  0.99928449  1
  O  O17  1  0.99427409  0.33263664  0.15463482  1
  O  O18  1  0.36440847  0.70382314  0.46488917  1
  O  O19  1  0.69547771  0.33577615  0.71464227  1
  O  O20  1  0.66163745  0.66736336  0.65463482  1
  O  O21  1  0.95947596  0.99904898  0.03534892  1
  O  O22  1  0.65963003  0.30075924  0.46439229  1
  O  O23  1  0.32676194  0.00208175  0.65456778  1
  O  O24  1  0.96042697  0.00095102  0.53534892  1
  O  O25  1  0.09058458  0.43228143  0.00071551  1
  O  O26  1  0.99679089  0.33726202  0.84876376  1
  O  O27  1  0.22842842  0.23421846  0.25000000  1
  O  O28  1  0.66058533  0.29617686  0.96488917  1
  O  O29  1  0.99498456  0.66520910  0.09538604  1
  O  O30  1  0.65963003  0.30075924  0.03560771  1
  O  O31  1  0.65952888  0.66273798  0.34876376  1
  O  O32  1  0.65955099  -0.00021808  0.59862068  1
  O  O33  1  0.29258562  0.63381837  0.78537350  1
  O  O34  1  0.99411649  0.66968762  0.59538767  1
  O  O35  1  0.99603816  0.03704723  0.78535222  1
  O  O36  1  0.99421196  0.76578154  0.75000000  1
  O  O37  1  0.32468019  0.99791825  0.15456778  1
  O  O38  1  0.09058458  0.43228143  0.49928449  1
  O  O39  1  0.99603816  0.03704723  0.71464778  1
  O  O40  1  0.99411649  0.66968762  0.90461233  1
  O  O41  1  0.29258562  0.63381837  0.71462650  1
  O  O42  1  0.99498456  0.66520910  0.40461396  1
  O  O43  1  0.65955099  -0.00021808  0.90137932  1
  O  O44  1  0.95947596  0.99904898  0.46465108  1
  O  O45  1  0.23016906  0.00000000  0.50000000  1
  O  O46  1  0.66058533  0.29617686  0.53511083  1
  O  O47  1  0.35970256  0.66422385  0.28535773  1
  O  O48  1  0.42699701  0.33916056  0.75000000  1
  O  O49  1  0.66157800  0.09752819  0.25000000  1
  O  O50  1  0.95898993  0.96295277  0.21464778  1
  O  O51  1  0.99679089  0.33726202  0.65123624  1
  O  O52  1  0.96042697  0.00095102  0.96465108  1
  O  O53  1  0.32676194  0.00208175  0.84543222  1
  O  O54  1  0.69547771  0.33577615  0.78535773  1
  O  O55  1  0.65952888  0.66273798  0.15123624  1
  O  O56  1  0.65876724  0.36618163  0.21462650  1
  O  O57  1  0.23016906  0.00000000  0.00000000  1
  O  O58  1  0.95898993  0.96295277  0.28535222  1
  O  O59  1  0.32977446  0.33479090  0.90461396  1
loop_
_geom_bond_atom_site_label_1
_geom_bond_atom_site_label_2
_geom_bond_distance
_geom_bond_site_symmetry_2
La0 O32 2.400477 1_565
La0 O2 2.417447 1_555
La0 O34 2.417973 1_555
La0 O20 2.453491 1_555
La0 O5 2.562323 1_555
La0 O24 2.593979 1_565
La0 O8 2.599606 1_555
La0 O46 2.972029 1_555
La1 O32 2.379602 1_555
La1 O51 2.427843 1_555
La1 O20 2.441841 1_545
La1 O23 2.443007 1_555
La1 O4 2.555027 1_545
La1 O19 2.581590 1_555
La1 O39 2.585201 1_555
La1 O41 2.936433 1_545
La2 O31 2.406613 1_555
La2 O11 2.417766 1_555
La2 O12 2.419667 1_655
La2 O42 2.456128 1_555
La2 O6 2.576092 1_655
La2 O58 2.590225 1_555
La2 O10 2.594564 1_555
La2 O47 2.935925 1_655
La3 O9 2.379602 1_565
La3 O31 2.427843 1_555
La3 O11 2.441841 1_565
La3 O12 2.443007 1_555
La3 O49 2.555026 1_565
La3 O47 2.581588 1_555
La3 O58 2.585195 1_555
La3 O10 2.936432 1_565
La4 O43 2.406337 1_555
La4 O59 2.418128 1_555
La4 O40 2.418871 1_445
La4 O53 2.455372 1_555
La4 O57 2.575508 1_556
La4 O28 2.586308 1_555
La4 O14 2.597131 1_545
La4 O52 2.936709 1_455
La5 O7 2.400477 1_555
La5 O29 2.417443 1_555
La5 O3 2.417987 1_655
La5 O17 2.453491 1_555
La5 O25 2.562322 1_655
La5 O21 2.593979 1_545
La5 O30 2.599606 1_555
La5 O13 2.972029 1_655
La6 O31 2.381473 1_555
La6 O9 2.433476 1_565
La6 O15 2.442497 1_555
La6 O42 2.444059 1_555
La6 O5 2.565258 1_555
La6 O18 2.576598 1_555
La6 O44 2.582205 1_555
La6 O22 2.897566 1_555
La7 O9 2.406330 1_565
La7 O42 2.418128 1_455
La7 O15 2.418867 1_565
La7 O12 2.455372 1_555
La7 O45 2.575510 1_565
La7 O18 2.586305 1_555
La7 O22 2.597128 1_565
La7 O44 2.936715 1_455
La8 O32 2.406337 1_555
La8 O2 2.418128 1_555
La8 O34 2.418871 1_445
La8 O23 2.455372 1_555
La8 O45 2.575508 1_555
La8 O46 2.586308 1_555
La8 O8 2.597131 1_545
La8 O24 2.936709 1_455
La9 O55 2.381473 1_555
La9 O7 2.433476 1_565
La9 O3 2.442497 1_555
La9 O29 2.444059 1_555
La9 O16 2.565258 1_554
La9 O13 2.576598 1_555
La9 O21 2.582205 1_555
La9 O30 2.897566 1_555
La10 O51 2.381473 1_555
La10 O32 2.433480 1_555
La10 O34 2.442507 1_555
La10 O2 2.444045 1_655
La10 O38 2.565256 1_655
La10 O46 2.576604 1_555
La10 O24 2.582202 1_555
La10 O8 2.897563 1_655
La11 O43 2.379602 1_555
La11 O26 2.427843 1_555
La11 O0 2.441841 1_545
La11 O53 2.443007 1_555
La11 O4 2.555027 1_545
La11 O54 2.581590 1_555
La11 O35 2.585201 1_555
La11 O33 2.936433 1_545
La12 O31 2.406374 1_555
La12 O12 2.418335 1_545
La12 O11 2.419221 1_455
La12 O15 2.456239 1_555
La12 O27 2.576578 1_555
La12 O10 2.589152 1_555
La12 O47 2.594737 1_555
La12 O58 2.938797 1_445
La13 O7 2.379602 1_565
La13 O55 2.427843 1_555
La13 O17 2.441841 1_565
La13 O37 2.443007 1_555
La13 O49 2.555026 1_565
La13 O1 2.581588 1_555
La13 O50 2.585195 1_555
La13 O56 2.936432 1_565
La14 O43 2.400477 1_565
La14 O59 2.417447 1_555
La14 O40 2.417973 1_555
La14 O0 2.453491 1_555
La14 O16 2.562323 1_555
La14 O52 2.593979 1_565
La14 O14 2.599606 1_555
La14 O28 2.972029 1_555
La15 O9 2.400477 1_555
La15 O42 2.417443 1_555
La15 O15 2.417987 1_655
La15 O11 2.453491 1_555
La15 O38 2.562322 1_655
La15 O44 2.593979 1_545
La15 O22 2.599606 1_555
La15 O18 2.972029 1_655
La16 O26 2.381473 1_555
La16 O43 2.433480 1_555
La16 O40 2.442507 1_555
La16 O59 2.444045 1_655
La16 O25 2.565256 1_656
La16 O28 2.576604 1_555
La16 O52 2.582202 1_555
La16 O14 2.897563 1_655
La17 O55 2.406613 1_555
La17 O17 2.417766 1_555
La17 O37 2.419667 1_655
La17 O29 2.456128 1_555
La17 O6 2.576092 1_655
La17 O50 2.590225 1_555
La17 O56 2.594564 1_555
La17 O1 2.935925 1_655
La18 O55 2.406374 1_555
La18 O37 2.418335 1_545
La18 O17 2.419221 1_455
La18 O3 2.456239 1_555
La18 O27 2.576578 1_555
La18 O56 2.589152 1_555
La18 O1 2.594737 1_555
La18 O50 2.938797 1_445
La19 O51 2.406613 1_455
La19 O20 2.417767 1_555
La19 O23 2.419667 1_555
La19 O2 2.456128 1_555
La19 O48 2.576092 1_555
La19 O39 2.590222 1_455
La19 O41 2.594564 1_555
La19 O19 2.935918 1_555
La20 O26 2.406377 1_555
La20 O53 2.418339 1_665
La20 O0 2.419214 1_555
La20 O40 2.456239 1_555
La20 O36 2.576575 1_555
La20 O33 2.589158 1_655
La20 O54 2.594738 1_555
La20 O35 2.938790 1_565
La21 O26 2.406613 1_455
La21 O0 2.417767 1_555
La21 O53 2.419667 1_555
La21 O59 2.456128 1_555
La21 O48 2.576092 1_555
La21 O35 2.590222 1_455
La21 O33 2.594564 1_555
La21 O54 2.935918 1_555
La22 O7 2.406330 1_565
La22 O29 2.418128 1_455
La22 O3 2.418867 1_565
La22 O37 2.455372 1_555
La22 O57 2.575510 1_565
La22 O13 2.586305 1_555
La22 O30 2.597128 1_565
La22 O21 2.936715 1_455
La23 O51 2.406377 1_555
La23 O23 2.418339 1_665
La23 O20 2.419214 1_555
La23 O34 2.456239 1_555
La23 O36 2.576575 1_555
La23 O41 2.589158 1_655
La23 O19 2.594738 1_555
La23 O39 2.938790 1_565
C0 O49 1.282262 1_555
C0 O56 1.285629 1_555
C0 O10 1.285629 1_555
C1 O57 1.280844 1_555
C1 O21 1.286540 1_445
C1 O52 1.286540 1_454
C2 O4 1.282258 1_555
C2 O33 1.285629 1_555
C2 O41 1.285629 1_555
C3 O5 1.281601 1_555
C3 O46 1.285163 1_555
C3 O22 1.287007 1_555
C4 O48 1.280872 1_555
C4 O54 1.286663 1_555
C4 O19 1.286663 1_555
C5 O27 1.280945 1_555
C5 O58 1.286627 1_445
C5 O50 1.286627 1_445
C6 O36 1.280952 1_555
C6 O39 1.286625 1_565
C6 O35 1.286625 1_565
C7 O6 1.280865 1_555
C7 O1 1.286669 1_555
C7 O47 1.286669 1_555
C8 O25 1.281605 1_555
C8 O13 1.285163 1_555
C8 O14 1.287007 1_554
C9 O45 1.280844 1_555
C9 O44 1.286540 1_445
C9 O24 1.286540 1_455
C10 O16 1.281601 1_554
C10 O28 1.285163 1_554
C10 O30 1.287007 1_555
C11 O38 1.281605 1_555
C11 O18 1.285163 1_555
C11 O8 1.287007 1_555
