# generated using pymatgen
data_CdAs2S2(OF3)4
_symmetry_space_group_name_H-M   'P 1'
_cell_length_a   12.18064888
_cell_length_b   10.35402536
_cell_length_c   9.12283565
_cell_angle_alpha   77.13477885
_cell_angle_beta   55.96542432
_cell_angle_gamma   46.89979683
_symmetry_Int_Tables_number   1
_chemical_formula_structural   CdAs2S2(OF3)4
_chemical_formula_sum   'Cd2 As4 S4 O8 F24'
_cell_volume   671.47863558
_cell_formula_units_Z   2
loop_
 _symmetry_equiv_pos_site_id
 _symmetry_equiv_pos_as_xyz
  1  'x, y, z'
loop_
 _atom_site_type_symbol
 _atom_site_label
 _atom_site_symmetry_multiplicity
 _atom_site_fract_x
 _atom_site_fract_y
 _atom_site_fract_z
 _atom_site_occupancy
  Cd  Cd0  1  0.86979600  0.63020400  0.63020400  1
  Cd  Cd1  1  0.61979600  0.38020400  0.38020400  1
  As  As0  1  0.50728000  0.60466000  0.81361300  1
  As  As1  1  0.07444700  0.81361300  0.60466000  1
  As  As2  1  0.43638700  0.17555300  0.74272000  1
  As  As3  1  0.64534000  0.74272000  0.17555300  1
  S  S0  1  0.99869300  0.70697000  0.17912500  1
  S  S1  1  0.54303000  0.25130700  0.13478800  1
  S  S2  1  0.11521200  0.17912500  0.70697000  1
  S  S3  1  0.07087500  0.13478800  0.25130700  1
  O  O0  1  0.63920200  0.26218100  0.17327600  1
  O  O1  1  0.96955900  0.23144500  0.89429200  1
  O  O2  1  0.07672400  0.32465800  0.61079800  1
  O  O3  1  0.98781900  0.61079800  0.32465800  1
  O  O4  1  0.92534200  0.17327600  0.26218100  1
  O  O5  1  0.35570800  0.34529600  0.28044100  1
  O  O6  1  0.90470400  0.89429200  0.23144500  1
  O  O7  1  0.01855500  0.28044100  0.34529600  1
  F  F0  1  0.56883200  0.23633500  0.60590000  1
  F  F1  1  0.38227900  0.54142800  0.93051700  1
  F  F2  1  0.65382800  0.94290000  0.67579500  1
  F  F3  1  0.02957800  0.83114300  0.82146100  1
  F  F4  1  0.64410000  0.66106600  0.68116800  1
  F  F5  1  0.42853900  0.93218200  0.22042200  1
  F  F6  1  0.14577500  0.93051700  0.54142800  1
  F  F7  1  0.30710000  0.59617200  0.52252200  1
  F  F8  1  0.86565800  0.54297600  0.11995800  1
  F  F9  1  0.84842600  0.01655800  0.68580300  1
  F  F10  1  0.58893400  0.60590000  0.23633500  1
  F  F11  1  0.57420500  0.52252200  0.59617200  1
  F  F12  1  0.01366500  0.68116800  0.66106600  1
  F  F13  1  0.23344200  0.40157400  0.80078600  1
  F  F14  1  0.41885700  0.22042200  0.93218200  1
  F  F15  1  0.70702400  0.38434200  0.77859200  1
  F  F16  1  0.31948300  0.10422500  0.86772100  1
  F  F17  1  0.70857200  0.86772100  0.10422500  1
  F  F18  1  0.31781800  0.82146100  0.83114300  1
  F  F19  1  0.72747800  0.67579500  0.94290000  1
  F  F20  1  0.44921400  0.68580300  0.01655800  1
  F  F21  1  0.13004200  0.77859200  0.38434200  1
  F  F22  1  0.56419700  0.80078600  0.40157400  1
  F  F23  1  0.47140800  0.11995800  0.54297600  1
loop_
_geom_bond_atom_site_label_1
_geom_bond_atom_site_label_2
_geom_bond_distance
_geom_bond_site_symmetry_2
Cd0 O2 2.290404 1_655
Cd0 O3 2.290406 1_555
Cd0 F12 2.304522 1_655
Cd0 F4 2.304534 1_555
Cd0 F2 2.304673 1_555
Cd0 F19 2.304674 1_555
Cd1 O0 2.290398 1_555
Cd1 O4 2.290406 1_555
Cd1 F0 2.304527 1_555
Cd1 F10 2.304530 1_555
Cd1 F11 2.304666 1_555
Cd1 F7 2.304674 1_555
As0 F20 1.746065 1_556
As0 F18 1.748654 1_555
As0 F15 1.759338 1_555
As0 F1 1.765772 1_555
As0 F11 1.821131 1_555
As0 F4 1.827624 1_555
As1 F9 1.746059 1_465
As1 F3 1.748654 1_555
As1 F21 1.759338 1_555
As1 F6 1.765762 1_555
As1 F7 1.821125 1_555
As1 F12 1.827634 1_555
As2 F13 1.746061 1_555
As2 F14 1.748654 1_555
As2 F23 1.759338 1_555
As2 F16 1.765763 1_555
As2 F2 1.821127 1_545
As2 F0 1.827633 1_555
As3 F22 1.746056 1_555
As3 F5 1.748654 1_555
As3 F8 1.759338 1_555
As3 F17 1.765772 1_555
As3 F19 1.821123 1_554
As3 F10 1.827624 1_555
O0 S1 1.471900 1_555
O1 S2 1.437525 1_655
O2 S2 1.471893 1_555
O3 S0 1.471893 1_555
O4 S3 1.471888 1_655
O5 S1 1.437525 1_555
O6 S0 1.437525 1_555
O7 S3 1.437525 1_555
