# generated using pymatgen
data_C2S(OF)4
_symmetry_space_group_name_H-M   'P 1'
_cell_length_a   6.63548400
_cell_length_b   9.17435100
_cell_length_c   11.30548623
_cell_angle_alpha   74.77574711
_cell_angle_beta   90.00000000
_cell_angle_gamma   90.00000000
_symmetry_Int_Tables_number   1
_chemical_formula_structural   C2S(OF)4
_chemical_formula_sum   'C8 S4 O16 F16'
_cell_volume   664.08237141
_cell_formula_units_Z   4
loop_
 _symmetry_equiv_pos_site_id
 _symmetry_equiv_pos_as_xyz
  1  'x, y, z'
loop_
 _atom_site_type_symbol
 _atom_site_label
 _atom_site_symmetry_multiplicity
 _atom_site_fract_x
 _atom_site_fract_y
 _atom_site_fract_z
 _atom_site_occupancy
  C  C0  1  0.38074300  0.25855000  0.16236200  1
  C  C1  1  0.27292700  0.33839300  0.56978900  1
  C  C2  1  0.61925700  0.74145000  0.83763800  1
  C  C3  1  0.22707300  0.83839300  0.56978900  1
  C  C4  1  0.11925700  0.75855000  0.16236200  1
  C  C5  1  0.72707300  0.66160700  0.43021100  1
  C  C6  1  0.88074300  0.24145000  0.83763800  1
  C  C7  1  0.77292700  0.16160700  0.43021100  1
  S  S0  1  0.38380600  0.67469500  0.77309500  1
  S  S1  1  0.61619400  0.32530500  0.22690500  1
  S  S2  1  0.11619400  0.17469500  0.77309500  1
  S  S3  1  0.88380600  0.82530500  0.22690500  1
  O  O0  1  0.06519400  0.04610400  0.73019800  1
  O  O1  1  0.62320600  0.17090800  0.34587900  1
  O  O2  1  0.09428800  0.75067900  0.56901000  1
  O  O3  1  0.93480600  0.95389600  0.26980200  1
  O  O4  1  0.37679400  0.82909200  0.65412100  1
  O  O5  1  0.56519400  0.45389600  0.26980200  1
  O  O6  1  0.71877300  0.82250300  0.14649700  1
  O  O7  1  0.21877300  0.67749700  0.85350300  1
  O  O8  1  0.90571200  0.24932100  0.43099000  1
  O  O9  1  0.12320600  0.32909200  0.65412100  1
  O  O10  1  0.28122700  0.17749700  0.85350300  1
  O  O11  1  0.40571200  0.25067900  0.56901000  1
  O  O12  1  0.87679400  0.67090800  0.34587900  1
  O  O13  1  0.43480600  0.54610400  0.73019800  1
  O  O14  1  0.59428800  0.74932100  0.43099000  1
  O  O15  1  0.78122700  0.32250300  0.14649700  1
  F  F0  1  0.16180100  0.86563700  0.05855900  1
  F  F1  1  0.25495200  0.96892600  0.48448700  1
  F  F2  1  0.74504800  0.03107400  0.51551300  1
  F  F3  1  0.75495200  0.53107400  0.51551300  1
  F  F4  1  0.08516100  0.62616200  0.13671100  1
  F  F5  1  0.83819900  0.13436300  0.94144100  1
  F  F6  1  0.24504800  0.46892600  0.48448700  1
  F  F7  1  0.33819900  0.36563700  0.05855900  1
  F  F8  1  0.22885000  0.24607000  0.24208300  1
  F  F9  1  0.58516100  0.87383800  0.86328900  1
  F  F10  1  0.77115000  0.75393000  0.75791700  1
  F  F11  1  0.91483900  0.37383800  0.86328900  1
  F  F12  1  0.66180100  0.63436300  0.94144100  1
  F  F13  1  0.27115000  0.74607000  0.24208300  1
  F  F14  1  0.72885000  0.25393000  0.75791700  1
  F  F15  1  0.41483900  0.12616200  0.13671100  1
loop_
_geom_bond_atom_site_label_1
_geom_bond_atom_site_label_2
_geom_bond_distance
_geom_bond_site_symmetry_2
C0 F8 1.336808 1_555
C0 F15 1.339948 1_555
C0 F7 1.347808 1_555
C1 O11 1.194863 1_555
C1 F6 1.338597 1_555
C1 O9 1.364015 1_555
C2 F10 1.336808 1_555
C2 F9 1.339948 1_555
C2 F12 1.347808 1_555
C3 O2 1.194863 1_555
C3 F1 1.338597 1_555
C3 O4 1.364015 1_555
C4 F13 1.336808 1_555
C4 F4 1.339948 1_555
C4 F0 1.347808 1_555
C5 O14 1.194863 1_555
C5 F3 1.338597 1_555
C5 O12 1.364015 1_555
C6 F14 1.336808 1_555
C6 F11 1.339948 1_555
C6 F5 1.347808 1_555
C7 O8 1.194863 1_555
C7 F2 1.338597 1_555
C7 O1 1.364015 1_555
O0 S2 1.428981 1_555
O1 S1 1.678440 1_555
O3 S3 1.428981 1_555
O4 S0 1.678440 1_555
O5 S1 1.428981 1_555
O6 S3 1.427759 1_555
O7 S0 1.427759 1_555
O9 S2 1.678440 1_555
O10 S2 1.427759 1_555
O12 S3 1.678440 1_555
O13 S0 1.428981 1_555
O15 S1 1.427759 1_555
