# generated using pymatgen
data_Ca(SiNi)2
_symmetry_space_group_name_H-M   'P 1'
_cell_length_a   3.96235732
_cell_length_b   3.96235664
_cell_length_c   5.57516374
_cell_angle_alpha   110.81537670
_cell_angle_beta   110.81536085
_cell_angle_gamma   90.00000238
_symmetry_Int_Tables_number   1
_chemical_formula_structural   Ca(SiNi)2
_chemical_formula_sum   'Ca1 Si2 Ni2'
_cell_volume   75.67518933
_cell_formula_units_Z   1
loop_
 _symmetry_equiv_pos_site_id
 _symmetry_equiv_pos_as_xyz
  1  'x, y, z'
loop_
 _atom_site_type_symbol
 _atom_site_label
 _atom_site_symmetry_multiplicity
 _atom_site_fract_x
 _atom_site_fract_y
 _atom_site_fract_z
 _atom_site_occupancy
  Ca  Ca0  1  0.00000000  -0.00000000  -0.00000000  1
  Si  Si0  1  0.63067976  0.63067976  0.26135753  1
  Si  Si1  1  0.36932024  0.36932024  0.73864247  1
  Ni  Ni0  1  0.25000000  0.75000000  0.50000000  1
  Ni  Ni1  1  0.75000000  0.25000000  0.50000000  1
loop_
_geom_bond_atom_site_label_1
_geom_bond_atom_site_label_2
_geom_bond_distance
_geom_bond_site_symmetry_2
Ca0 Si0 3.071978 1_445
Ca0 Si1 3.071978 1_554
Ca0 Si1 3.071984 1_544
Ca0 Si0 3.071984 1_455
Ca0 Si1 3.071984 1_454
Ca0 Si0 3.071984 1_545
Ca0 Si1 3.071989 1_444
Ca0 Si0 3.071989 1_555
Ca0 Ni0 3.119799 1_544
Ca0 Ni1 3.119799 1_455
Ca0 Ni1 3.119799 1_454
Ca0 Ni0 3.119799 1_545
Ca0 Ni0 3.119799 1_555
Ca0 Ni1 3.119799 1_444
Ca0 Ni1 3.119800 1_555
Ca0 Ni0 3.119800 1_444
Si0 Si1 2.519482 1_554
Ni0 Si1 2.290882 1_565
Ni0 Si0 2.290882 1_455
Ni0 Si0 2.290888 1_555
Ni0 Si1 2.290888 1_555
Ni1 Si0 2.290882 1_545
Ni1 Si1 2.290882 1_655
Ni1 Si1 2.290888 1_555
Ni1 Si0 2.290888 1_555
