# generated using pymatgen
data_Yb5Au3
_symmetry_space_group_name_H-M   'P 1'
_cell_length_a   8.98349444
_cell_length_b   8.98349444
_cell_length_c   8.98349444
_cell_angle_alpha   132.53805994
_cell_angle_beta   132.53805994
_cell_angle_gamma   69.38053577
_symmetry_Int_Tables_number   1
_chemical_formula_structural   Yb5Au3
_chemical_formula_sum   'Yb10 Au6'
_cell_volume   386.19167454
_cell_formula_units_Z   2
loop_
 _symmetry_equiv_pos_site_id
 _symmetry_equiv_pos_as_xyz
  1  'x, y, z'
loop_
 _atom_site_type_symbol
 _atom_site_label
 _atom_site_symmetry_multiplicity
 _atom_site_fract_x
 _atom_site_fract_y
 _atom_site_fract_z
 _atom_site_occupancy
  Yb  Yb0  1  0.51553875  0.01553875  0.83420014  1
  Yb  Yb1  1  0.31866139  0.48446125  0.50000000  1
  Yb  Yb2  1  0.48446125  0.98446125  0.16579986  1
  Yb  Yb3  1  0.01553875  0.18133861  0.50000000  1
  Yb  Yb4  1  0.18133861  0.68133861  0.16579986  1
  Yb  Yb5  1  0.68133861  0.51553875  0.50000000  1
  Yb  Yb6  1  0.50000000  0.50000000  0.00000000  1
  Yb  Yb7  1  0.98446125  0.81866139  0.50000000  1
  Yb  Yb8  1  0.81866139  0.31866139  0.83420014  1
  Yb  Yb9  1  0.00000000  0.00000000  0.00000000  1
  Au  Au0  1  0.63696935  0.86303065  0.50000000  1
  Au  Au1  1  0.25000000  0.25000000  0.00000000  1
  Au  Au2  1  0.36303065  0.13696935  0.50000000  1
  Au  Au3  1  0.13696935  0.63696935  0.77393770  1
  Au  Au4  1  0.86303065  0.36303065  0.22606230  1
  Au  Au5  1  0.75000000  0.75000000  0.00000000  1
loop_
_geom_bond_atom_site_label_1
_geom_bond_atom_site_label_2
_geom_bond_distance
_geom_bond_site_symmetry_2
Au0 Au2 2.801223 1_565
Au0 Yb6 2.805578 1_555
Au0 Yb9 2.805578 1_666
Au0 Yb7 3.004574 1_555
Au0 Yb5 3.004574 1_555
Au0 Yb2 3.145593 1_555
Au0 Yb8 3.145593 1_565
Au0 Yb4 3.145593 1_555
Au0 Yb0 3.145593 1_565
Au1 Yb0 3.060852 1_554
Au1 Yb5 3.060852 1_555
Au1 Yb3 3.060852 1_554
Au1 Yb4 3.060852 1_555
Au1 Yb8 3.060852 1_454
Au1 Yb7 3.060852 1_444
Au1 Yb2 3.060852 1_545
Au1 Yb1 3.060852 1_555
Au2 Yb9 2.805578 1_555
Au2 Yb6 2.805578 1_556
Au2 Yb1 3.004574 1_555
Au2 Yb3 3.004574 1_555
Au2 Yb4 3.145593 1_545
Au2 Yb2 3.145593 1_545
Au2 Yb0 3.145593 1_555
Au2 Yb8 3.145593 1_555
Au3 Au4 2.801213 1_455
Au3 Yb9 2.805580 1_566
Au3 Yb6 2.805580 1_556
Au3 Yb2 3.004572 1_556
Au3 Yb4 3.004583 1_556
Au3 Yb1 3.145586 1_555
Au3 Yb7 3.145586 1_455
Au3 Yb3 3.145596 1_555
Au3 Yb5 3.145596 1_455
Au4 Yb9 2.805580 1_655
Au4 Yb6 2.805580 1_555
Au4 Yb0 3.004572 1_554
Au4 Yb8 3.004583 1_554
Au4 Yb3 3.145586 1_655
Au4 Yb5 3.145586 1_555
Au4 Yb7 3.145596 1_555
Au4 Yb1 3.145596 1_655
Au5 Yb0 3.060852 1_564
Au5 Yb5 3.060852 1_554
Au5 Yb4 3.060852 1_655
Au5 Yb3 3.060852 1_665
Au5 Yb7 3.060852 1_555
Au5 Yb1 3.060852 1_554
Au5 Yb8 3.060852 1_554
Au5 Yb2 3.060852 1_555
