# generated using pymatgen
data_SiO2
_symmetry_space_group_name_H-M   'P 1'
_cell_length_a   3.87878800
_cell_length_b   8.74804100
_cell_length_c   9.84036400
_cell_angle_alpha   90.00000000
_cell_angle_beta   90.00000000
_cell_angle_gamma   90.00000000
_symmetry_Int_Tables_number   1
_chemical_formula_structural   SiO2
_chemical_formula_sum   'Si8 O16'
_cell_volume   333.90122828
_cell_formula_units_Z   8
loop_
 _symmetry_equiv_pos_site_id
 _symmetry_equiv_pos_as_xyz
  1  'x, y, z'
loop_
 _atom_site_type_symbol
 _atom_site_label
 _atom_site_symmetry_multiplicity
 _atom_site_fract_x
 _atom_site_fract_y
 _atom_site_fract_z
 _atom_site_occupancy
  Si  Si0  1  0.34581900  0.32597000  0.60788800  1
  Si  Si1  1  0.65418100  0.67403000  0.60788800  1
  Si  Si2  1  0.34581900  0.82597000  0.89211200  1
  Si  Si3  1  0.65418100  0.17403000  0.89211200  1
  Si  Si4  1  0.34581900  0.17403000  0.10788800  1
  Si  Si5  1  0.65418100  0.82597000  0.10788800  1
  Si  Si6  1  0.34581900  0.67403000  0.39211200  1
  Si  Si7  1  0.65418100  0.32597000  0.39211200  1
  O  O0  1  0.00000000  0.35567500  0.50000000  1
  O  O1  1  0.50000000  0.75000000  0.25000000  1
  O  O2  1  0.50000000  0.30020700  0.00000000  1
  O  O3  1  0.50000000  0.50000000  0.36443000  1
  O  O4  1  0.00000000  0.14432500  0.00000000  1
  O  O5  1  0.50000000  0.00000000  0.13557000  1
  O  O6  1  0.50000000  0.19979300  0.50000000  1
  O  O7  1  0.50000000  0.00000000  0.86443000  1
  O  O8  1  0.50000000  0.69979300  0.00000000  1
  O  O9  1  0.00000000  0.64432500  0.50000000  1
  O  O10  1  0.50000000  0.75000000  0.75000000  1
  O  O11  1  0.50000000  0.50000000  0.63557000  1
  O  O12  1  0.50000000  0.25000000  0.25000000  1
  O  O13  1  0.50000000  0.25000000  0.75000000  1
  O  O14  1  0.00000000  0.85567500  0.00000000  1
  O  O15  1  0.50000000  0.80020700  0.50000000  1
loop_
_geom_bond_atom_site_label_1
_geom_bond_atom_site_label_2
_geom_bond_distance
_geom_bond_site_symmetry_2
O0 Si0 1.730285 1_555
O0 Si7 1.730285 1_455
O1 Si6 1.659802 1_555
O1 Si5 1.659802 1_555
O2 Si3 1.644123 1_554
O2 Si4 1.644123 1_555
O3 Si7 1.658197 1_555
O3 Si6 1.658197 1_555
O4 Si3 1.730285 1_454
O4 Si4 1.730285 1_555
O5 Si4 1.658197 1_555
O5 Si5 1.658197 1_545
O6 Si0 1.644123 1_555
O6 Si7 1.644123 1_555
O7 Si3 1.658197 1_555
O7 Si2 1.658197 1_545
O8 Si5 1.644123 1_555
O8 Si2 1.644123 1_554
O9 Si1 1.730285 1_455
O9 Si6 1.730285 1_555
O10 Si1 1.659802 1_555
O10 Si2 1.659802 1_555
O11 Si0 1.658197 1_555
O11 Si1 1.658197 1_555
O12 Si4 1.659802 1_555
O12 Si7 1.659802 1_555
O13 Si0 1.659802 1_555
O13 Si3 1.659802 1_555
O14 Si2 1.730285 1_554
O14 Si5 1.730285 1_455
O15 Si6 1.644123 1_555
O15 Si1 1.644123 1_555
