# generated using pymatgen
data_CsAs3O8
_symmetry_space_group_name_H-M   'P 1'
_cell_length_a   7.27220858
_cell_length_b   7.27220858
_cell_length_c   7.63208568
_cell_angle_alpha   76.86089791
_cell_angle_beta   76.86089791
_cell_angle_gamma   107.86091500
_symmetry_Int_Tables_number   1
_chemical_formula_structural   CsAs3O8
_chemical_formula_sum   'Cs2 As6 O16'
_cell_volume   354.38207945
_cell_formula_units_Z   2
loop_
 _symmetry_equiv_pos_site_id
 _symmetry_equiv_pos_as_xyz
  1  'x, y, z'
loop_
 _atom_site_type_symbol
 _atom_site_label
 _atom_site_symmetry_multiplicity
 _atom_site_fract_x
 _atom_site_fract_y
 _atom_site_fract_z
 _atom_site_occupancy
  Cs  Cs0  1  0.42343628  0.57656372  0.75000000  1
  Cs  Cs1  1  0.57656372  0.42343628  0.25000000  1
  As  As0  1  0.94935905  0.29549613  0.57152749  1
  As  As1  1  0.70450387  0.05064095  0.92847251  1
  As  As2  1  0.06897485  0.93102515  0.75000000  1
  As  As3  1  0.29549613  0.94935905  0.07152749  1
  As  As4  1  0.05064095  0.70450387  0.42847251  1
  As  As5  1  0.93102515  0.06897485  0.25000000  1
  O  O0  1  0.52381927  0.17677996  0.96967056  1
  O  O1  1  0.84857925  0.86948031  0.92822355  1
  O  O2  1  0.86948031  0.84857925  0.42822355  1
  O  O3  1  0.27225274  0.95443505  0.82948702  1
  O  O4  1  0.47618073  0.82322004  0.03032944  1
  O  O5  1  0.13051969  0.15142075  0.57177645  1
  O  O6  1  0.95443505  0.27225274  0.32948702  1
  O  O7  1  0.72073125  0.07082577  0.68032376  1
  O  O8  1  0.17677996  0.52381927  0.46967056  1
  O  O9  1  0.72774726  0.04556495  0.17051298  1
  O  O10  1  0.04556495  0.72774726  0.67051298  1
  O  O11  1  0.27926875  0.92917423  0.31967624  1
  O  O12  1  0.15142075  0.13051969  0.07177645  1
  O  O13  1  0.07082577  0.72073125  0.18032376  1
  O  O14  1  0.92917423  0.27926875  0.81967624  1
  O  O15  1  0.82322004  0.47618073  0.53032944  1
loop_
_geom_bond_atom_site_label_1
_geom_bond_atom_site_label_2
_geom_bond_distance
_geom_bond_site_symmetry_2
Cs0 O8 3.104490 1_555
Cs0 O4 3.104490 1_556
Cs0 O2 3.271037 1_555
Cs0 O12 3.271037 1_556
Cs0 O10 3.381715 1_555
Cs0 O3 3.381715 1_555
Cs0 O0 3.382083 1_555
Cs0 O15 3.382083 1_555
Cs0 O7 3.423158 1_565
Cs0 O14 3.423158 1_455
Cs1 O0 3.104490 1_554
Cs1 O15 3.104490 1_555
Cs1 O5 3.271037 1_555
Cs1 O1 3.271037 1_554
Cs1 O6 3.381715 1_555
Cs1 O9 3.381715 1_555
Cs1 O8 3.382083 1_555
Cs1 O4 3.382083 1_555
Cs1 O13 3.423158 1_655
Cs1 O11 3.423158 1_545
As0 O7 1.792349 1_555
As0 O8 1.800195 1_655
As0 O15 1.830168 1_555
As0 O14 1.839478 1_555
As0 O6 1.886037 1_555
As0 O5 1.918430 1_655
As1 O14 1.792349 1_555
As1 O4 1.800195 1_546
As1 O0 1.830168 1_555
As1 O7 1.839478 1_555
As1 O9 1.886037 1_556
As1 O1 1.918430 1_545
As2 O10 1.697825 1_555
As2 O3 1.697825 1_555
As2 O5 1.706284 1_565
As2 O1 1.706284 1_455
As3 O13 1.792349 1_555
As3 O0 1.800195 1_564
As3 O4 1.830168 1_555
As3 O11 1.839478 1_555
As3 O3 1.886037 1_554
As3 O12 1.918430 1_565
As4 O11 1.792349 1_555
As4 O15 1.800195 1_455
As4 O8 1.830168 1_555
As4 O13 1.839478 1_555
As4 O10 1.886037 1_555
As4 O2 1.918430 1_455
As5 O9 1.697825 1_555
As5 O6 1.697825 1_555
As5 O2 1.706284 1_545
As5 O12 1.706284 1_655
