# generated using pymatgen
data_BaMnSnS4
_symmetry_space_group_name_H-M   'P 1'
_cell_length_a   15.59201942
_cell_length_b   12.92195672
_cell_length_c   12.67732390
_cell_angle_alpha   75.03926142
_cell_angle_beta   53.19338425
_cell_angle_gamma   51.76735433
_symmetry_Int_Tables_number   1
_chemical_formula_structural   BaMnSnS4
_chemical_formula_sum   'Ba8 Mn8 Sn8 S32'
_cell_volume   1580.44927876
_cell_formula_units_Z   8
loop_
 _symmetry_equiv_pos_site_id
 _symmetry_equiv_pos_as_xyz
  1  'x, y, z'
loop_
 _atom_site_type_symbol
 _atom_site_label
 _atom_site_symmetry_multiplicity
 _atom_site_fract_x
 _atom_site_fract_y
 _atom_site_fract_z
 _atom_site_occupancy
  Ba  Ba0  1  0.74992800  0.25427900  0.74891100  1
  Ba  Ba1  1  0.99572100  0.50007200  0.00311700  1
  Ba  Ba2  1  0.50108900  0.00311700  0.50007200  1
  Ba  Ba3  1  0.24823300  0.75176700  0.75176700  1
  Ba  Ba4  1  0.99950100  0.50049900  0.50049900  1
  Ba  Ba5  1  0.49823300  0.00176700  0.00176700  1
  Ba  Ba6  1  0.24688300  0.74891100  0.25427900  1
  Ba  Ba7  1  0.74950100  0.25049900  0.25049900  1
  Mn  Mn0  1  0.73554400  0.51561600  0.41197100  1
  Mn  Mn1  1  0.23856000  0.01020700  0.98536100  1
  Mn  Mn2  1  0.23979300  0.01144000  0.48412800  1
  Mn  Mn3  1  0.83802900  0.91313100  0.51445600  1
  Mn  Mn4  1  0.76587200  0.98536100  0.01020700  1
  Mn  Mn5  1  0.73438400  0.51445600  0.91313100  1
  Mn  Mn6  1  0.33686900  0.41197100  0.51561600  1
  Mn  Mn7  1  0.26463900  0.48412800  0.01144000  1
  Sn  Sn0  1  0.98557000  0.76321900  0.73903200  1
  Sn  Sn1  1  0.51217900  0.73903200  0.76321900  1
  Sn  Sn2  1  0.01557400  0.23484900  0.84545400  1
  Sn  Sn3  1  0.90412200  0.84545400  0.23484900  1
  Sn  Sn4  1  0.51096800  0.73782100  0.26443000  1
  Sn  Sn5  1  0.48678100  0.26443000  0.73782100  1
  Sn  Sn6  1  0.40454600  0.34587800  0.23442600  1
  Sn  Sn7  1  0.01515100  0.23442600  0.34587800  1
  S  S0  1  0.95865600  0.95563700  0.28885700  1
  S  S1  1  0.22181700  0.52747300  0.21543100  1
  S  S2  1  0.21989500  0.03276300  0.68396700  1
  S  S3  1  0.29436300  0.29134400  0.45315000  1
  S  S4  1  0.21723700  0.03010500  0.18662400  1
  S  S5  1  0.96114300  0.45315000  0.29134400  1
  S  S6  1  0.68776600  0.06432500  0.71860200  1
  S  S7  1  0.45778100  0.95547800  0.79493900  1
  S  S8  1  0.71588400  0.53646800  0.73066000  1
  S  S9  1  0.03456900  0.21472000  0.02818300  1
  S  S10  1  0.52930700  0.71860200  0.06432500  1
  S  S11  1  0.71353200  0.53411600  0.23301200  1
  S  S12  1  0.29729700  0.78939600  0.95608400  1
  S  S13  1  0.79343600  0.79326600  0.45528900  1
  S  S14  1  0.95800900  0.45528900  0.79326600  1
  S  S15  1  0.03528000  0.21543100  0.52747300  1
  S  S16  1  0.06337600  0.68396700  0.03276300  1
  S  S17  1  0.53139800  0.72069300  0.56223400  1
  S  S18  1  0.18567500  0.56223400  0.72069300  1
  S  S19  1  0.29391600  0.29277700  0.95270300  1
  S  S20  1  0.79180100  0.79493900  0.95547800  1
  S  S21  1  0.79685000  0.28885700  0.95563700  1
  S  S22  1  0.45506100  0.45819900  0.79221900  1
  S  S23  1  0.79471100  0.29199100  0.45656400  1
  S  S24  1  0.01698800  0.73066000  0.53646800  1
  S  S25  1  0.29452200  0.79221900  0.45819900  1
  S  S26  1  0.56603300  0.18662400  0.03010500  1
  S  S27  1  0.45673400  0.45656400  0.29199100  1
  S  S28  1  0.46060400  0.95270300  0.29277700  1
  S  S29  1  0.51934000  0.23301200  0.53411600  1
  S  S30  1  0.95722300  0.95608400  0.78939600  1
  S  S31  1  0.72252700  0.02818400  0.21472000  1
loop_
_geom_bond_atom_site_label_1
_geom_bond_atom_site_label_2
_geom_bond_distance
_geom_bond_site_symmetry_2
Ba0 S23 3.293719 1_555
Ba0 S21 3.302993 1_555
Ba0 S15 3.305354 1_655
Ba0 S26 3.307473 1_556
Ba0 S8 3.308722 1_555
Ba0 S6 3.315083 1_555
Ba0 S30 3.333106 1_545
Ba0 S22 3.333211 1_555
Ba1 S14 3.293707 1_554
Ba1 S5 3.303005 1_555
Ba1 S9 3.305354 1_655
Ba1 S16 3.307485 1_655
Ba1 S11 3.308724 1_555
Ba1 S18 3.315077 1_654
Ba1 S19 3.333112 1_654
Ba1 S20 3.333211 1_554
Ba2 S13 3.293719 1_545
Ba2 S3 3.302999 1_555
Ba2 S31 3.305360 1_555
Ba2 S2 3.307459 1_555
Ba2 S29 3.308735 1_555
Ba2 S17 3.315071 1_545
Ba2 S28 3.333100 1_545
Ba2 S7 3.333211 1_545
Ba3 S25 3.299827 1_555
Ba3 S22 3.299833 1_555
Ba3 S16 3.313036 1_556
Ba3 S2 3.313042 1_565
Ba3 S30 3.318999 1_455
Ba3 S12 3.318999 1_555
Ba3 S17 3.319669 1_555
Ba3 S18 3.319669 1_555
Ba4 S3 3.309586 1_655
Ba4 S5 3.309586 1_555
Ba4 S8 3.313698 1_555
Ba4 S24 3.313698 1_655
Ba4 S14 3.317566 1_555
Ba4 S13 3.317566 1_555
Ba4 S15 3.321455 1_655
Ba4 S1 3.321462 1_655
Ba5 S20 3.299827 1_544
Ba5 S7 3.299840 1_544
Ba5 S26 3.313030 1_555
Ba5 S4 3.313043 1_555
Ba5 S28 3.318999 1_545
Ba5 S19 3.318999 1_554
Ba5 S6 3.319669 1_554
Ba5 S10 3.319669 1_545
Ba6 S27 3.293713 1_555
Ba6 S0 3.303005 1_455
Ba6 S1 3.305354 1_555
Ba6 S4 3.307461 1_565
Ba6 S24 3.308730 1_555
Ba6 S10 3.315070 1_555
Ba6 S12 3.333112 1_554
Ba6 S25 3.333211 1_555
Ba7 S21 3.309586 1_554
Ba7 S0 3.309586 1_545
Ba7 S29 3.313698 1_555
Ba7 S11 3.313698 1_555
Ba7 S27 3.317566 1_555
Ba7 S23 3.317566 1_555
Ba7 S31 3.321455 1_555
Ba7 S9 3.321456 1_655
Mn0 S17 2.384067 1_555
Mn0 S11 2.423524 1_555
Mn0 S23 2.450063 1_555
Mn0 S5 2.457812 1_555
Mn1 S9 2.379758 1_556
Mn1 S4 2.429640 1_556
Mn1 S7 2.452253 1_545
Mn1 S12 2.454190 1_545
Mn2 S15 2.379754 1_555
Mn2 S2 2.429653 1_555
Mn2 S25 2.452250 1_545
Mn2 S28 2.454190 1_545
Mn3 S6 2.384067 1_565
Mn3 S24 2.423524 1_655
Mn3 S13 2.450063 1_555
Mn3 S0 2.457812 1_555
Mn4 S31 2.379754 1_565
Mn4 S26 2.429649 1_565
Mn4 S20 2.452263 1_554
Mn4 S30 2.454190 1_554
Mn5 S10 2.384067 1_556
Mn5 S8 2.423524 1_555
Mn5 S14 2.450063 1_555
Mn5 S21 2.457812 1_555
Mn6 S18 2.384067 1_555
Mn6 S29 2.423524 1_555
Mn6 S27 2.450063 1_555
Mn6 S3 2.457812 1_555
Mn7 S1 2.379762 1_555
Mn7 S16 2.429644 1_555
Mn7 S22 2.452257 1_554
Mn7 S19 2.454190 1_554
S0 Sn3 2.432746 1_555
S1 Sn6 2.436648 1_555
S2 Sn2 2.409989 1_555
S3 Sn6 2.432737 1_555
S4 Sn7 2.409998 1_555
S5 Sn7 2.432734 1_655
S6 Sn5 2.438645 1_555
S7 Sn1 2.437134 1_555
S8 Sn1 2.409740 1_555
S9 Sn2 2.436648 1_554
S10 Sn4 2.438645 1_555
S11 Sn4 2.409740 1_555
S12 Sn1 2.436001 1_555
S13 Sn3 2.435446 1_555
S14 Sn2 2.435449 1_655
S15 Sn7 2.436648 1_555
S16 Sn3 2.409985 1_455
S17 Sn1 2.438645 1_555
S18 Sn0 2.438645 1_455
S19 Sn5 2.436001 1_555
S20 Sn0 2.437142 1_555
S21 Sn2 2.432732 1_655
S22 Sn5 2.437147 1_555
S23 Sn7 2.435451 1_655
S24 Sn0 2.409740 1_455
S25 Sn4 2.437138 1_555
S26 Sn6 2.410002 1_555
S27 Sn6 2.435438 1_555
S28 Sn4 2.436001 1_555
S29 Sn5 2.409740 1_555
S30 Sn0 2.436001 1_555
S31 Sn3 2.436650 1_545
