# generated using pymatgen
data_BaNaCe2C4O12F
_symmetry_space_group_name_H-M   'P 1'
_cell_length_a   5.14827840
_cell_length_b   5.14827840
_cell_length_c   23.18747000
_cell_angle_alpha   90.00000000
_cell_angle_beta   90.00000000
_cell_angle_gamma   120.00000519
_symmetry_Int_Tables_number   1
_chemical_formula_structural   BaNaCe2C4O12F
_chemical_formula_sum   'Ba2 Na2 Ce4 C8 O24 F2'
_cell_volume   532.24062759
_cell_formula_units_Z   2
loop_
 _symmetry_equiv_pos_site_id
 _symmetry_equiv_pos_as_xyz
  1  'x, y, z'
loop_
 _atom_site_type_symbol
 _atom_site_label
 _atom_site_symmetry_multiplicity
 _atom_site_fract_x
 _atom_site_fract_y
 _atom_site_fract_z
 _atom_site_occupancy
  Ba  Ba0  1  0.00000000  0.00000000  0.00000000  1
  Ba  Ba1  1  0.00000000  0.00000000  0.50000000  1
  Na  Na0  1  0.33333300  0.66666700  0.75000000  1
  Na  Na1  1  0.66666700  0.33333300  0.25000000  1
  Ce  Ce0  1  0.33333300  0.66666700  0.35311700  1
  Ce  Ce1  1  0.66666700  0.33333300  0.85311700  1
  Ce  Ce2  1  0.66666700  0.33333300  0.64688300  1
  Ce  Ce3  1  0.33333300  0.66666700  0.14688300  1
  C  C0  1  0.00000000  0.00000000  0.67739700  1
  C  C1  1  0.00000000  0.00000000  0.17739700  1
  C  C2  1  0.00000000  0.00000000  0.32260300  1
  C  C3  1  0.00000000  0.00000000  0.82260300  1
  C  C4  1  0.66666700  0.33333300  0.43298700  1
  C  C5  1  0.33333300  0.66666700  0.93298700  1
  C  C6  1  0.33333300  0.66666700  0.56701300  1
  C  C7  1  0.66666700  0.33333300  0.06701300  1
  O  O0  1  0.14518200  0.29036400  0.67611700  1
  O  O1  1  0.85481800  0.14518200  0.17611700  1
  O  O2  1  0.29036400  0.14518200  0.17611700  1
  O  O3  1  0.70963600  0.85481800  0.67611700  1
  O  O4  1  0.14518200  0.85481800  0.67611700  1
  O  O5  1  0.85481800  0.70963600  0.32388300  1
  O  O6  1  0.85481800  0.14518200  0.32388300  1
  O  O7  1  0.85481800  0.70963600  0.17611700  1
  O  O8  1  0.29036400  0.14518200  0.32388300  1
  O  O9  1  0.70963600  0.85481800  0.82388300  1
  O  O10  1  0.14518200  0.29036400  0.82388300  1
  O  O11  1  0.14518200  0.85481800  0.82388300  1
  O  O12  1  0.52110900  0.04221800  0.43433200  1
  O  O13  1  0.47889100  0.52110900  0.93433200  1
  O  O14  1  0.04221800  0.52110900  0.93433200  1
  O  O15  1  0.95778200  0.47889100  0.43433200  1
  O  O16  1  0.52110900  0.47889100  0.43433200  1
  O  O17  1  0.47889100  0.95778200  0.56566800  1
  O  O18  1  0.47889100  0.52110900  0.56566800  1
  O  O19  1  0.47889100  0.95778200  0.93433200  1
  O  O20  1  0.04221800  0.52110900  0.56566800  1
  O  O21  1  0.95778200  0.47889100  0.06566800  1
  O  O22  1  0.52110900  0.04221800  0.06566800  1
  O  O23  1  0.52110900  0.47889100  0.06566800  1
  F  F0  1  0.33333300  0.66666700  0.25000000  1
  F  F1  1  0.66666700  0.33333300  0.75000000  1
loop_
_geom_bond_atom_site_label_1
_geom_bond_atom_site_label_2
_geom_bond_distance
_geom_bond_site_symmetry_2
Ba0 O23 2.996692 1_555
Ba0 O23 2.996692 1_445
Ba0 O13 2.996692 1_554
Ba0 O13 2.996692 1_444
Ba0 O22 2.996692 1_555
Ba0 O21 2.996692 1_445
Ba0 O14 2.996692 1_554
Ba0 O19 2.996692 1_444
Ba0 O21 2.996692 1_455
Ba0 O22 2.996692 1_455
Ba0 O19 2.996692 1_544
Ba0 O14 2.996692 1_544
Ba1 O18 2.996692 1_555
Ba1 O16 2.996692 1_555
Ba1 O18 2.996692 1_445
Ba1 O16 2.996692 1_445
Ba1 O20 2.996692 1_555
Ba1 O12 2.996692 1_555
Ba1 O15 2.996692 1_445
Ba1 O17 2.996692 1_445
Ba1 O17 2.996692 1_545
Ba1 O15 2.996692 1_455
Ba1 O20 2.996692 1_545
Ba1 O12 2.996692 1_455
Na0 O11 2.397871 1_555
Na0 O4 2.397871 1_555
Na0 O9 2.397874 1_555
Na0 O10 2.397874 1_555
Na0 O3 2.397874 1_555
Na0 O0 2.397874 1_555
Na1 O6 2.397871 1_555
Na1 O1 2.397871 1_555
Na1 O5 2.397874 1_555
Na1 O7 2.397874 1_555
Na1 O8 2.397874 1_555
Na1 O2 2.397874 1_555
Ce0 F0 2.391022 1_555
Ce0 O12 2.519916 1_565
Ce0 O15 2.519916 1_455
Ce0 O16 2.519919 1_555
Ce0 O5 2.668779 1_455
Ce0 O8 2.668779 1_565
Ce0 O6 2.668781 1_565
Ce0 O6 2.668781 1_455
Ce0 O8 2.668784 1_555
Ce0 O5 2.668784 1_555
Ce1 F1 2.391022 1_555
Ce1 O14 2.519916 1_655
Ce1 O19 2.519916 1_545
Ce1 O13 2.519919 1_555
Ce1 O9 2.668779 1_545
Ce1 O10 2.668779 1_655
Ce1 O11 2.668781 1_655
Ce1 O11 2.668781 1_545
Ce1 O10 2.668784 1_555
Ce1 O9 2.668784 1_555
Ce2 F1 2.391022 1_555
Ce2 O20 2.519916 1_655
Ce2 O17 2.519916 1_545
Ce2 O18 2.519919 1_555
Ce2 O3 2.668779 1_545
Ce2 O0 2.668779 1_655
Ce2 O4 2.668781 1_655
Ce2 O4 2.668781 1_545
Ce2 O0 2.668784 1_555
Ce2 O3 2.668784 1_555
Ce3 F0 2.391022 1_555
Ce3 O22 2.519916 1_565
Ce3 O21 2.519916 1_455
Ce3 O23 2.519919 1_555
Ce3 O7 2.668779 1_455
Ce3 O2 2.668779 1_565
Ce3 O1 2.668781 1_455
Ce3 O1 2.668781 1_565
Ce3 O2 2.668784 1_555
Ce3 O7 2.668784 1_555
C0 O0 1.294940 1_555
C0 O3 1.294940 1_445
C0 O4 1.294940 1_545
C1 O2 1.294940 1_555
C1 O7 1.294940 1_445
C1 O1 1.294940 1_455
C2 O8 1.294940 1_555
C2 O5 1.294940 1_445
C2 O6 1.294940 1_455
C3 O10 1.294940 1_555
C3 O9 1.294940 1_445
C3 O11 1.294940 1_545
C4 O15 1.298322 1_555
C4 O12 1.298322 1_555
C4 O16 1.298327 1_555
C5 O19 1.298322 1_555
C5 O14 1.298322 1_555
C5 O13 1.298327 1_555
C6 O17 1.298322 1_555
C6 O20 1.298322 1_555
C6 O18 1.298327 1_555
C7 O21 1.298322 1_555
C7 O22 1.298322 1_555
C7 O23 1.298327 1_555
