# generated using pymatgen
data_Cr5As3
_symmetry_space_group_name_H-M   'P 1'
_cell_length_a   6.33441900
_cell_length_b   7.39880700
_cell_length_c   9.26039700
_cell_angle_alpha   90.00000000
_cell_angle_beta   90.00000000
_cell_angle_gamma   90.00000000
_symmetry_Int_Tables_number   1
_chemical_formula_structural   Cr5As3
_chemical_formula_sum   'Cr20 As12'
_cell_volume   434.00835635
_cell_formula_units_Z   4
loop_
 _symmetry_equiv_pos_site_id
 _symmetry_equiv_pos_as_xyz
  1  'x, y, z'
loop_
 _atom_site_type_symbol
 _atom_site_label
 _atom_site_symmetry_multiplicity
 _atom_site_fract_x
 _atom_site_fract_y
 _atom_site_fract_z
 _atom_site_occupancy
  Cr  Cr0  1  0.65171000  0.75000000  0.29185500  1
  Cr  Cr1  1  0.15171000  0.25000000  0.20814500  1
  Cr  Cr2  1  0.34829000  0.25000000  0.70814500  1
  Cr  Cr3  1  0.84829000  0.75000000  0.79185500  1
  Cr  Cr4  1  0.19406400  0.75000000  0.25057800  1
  Cr  Cr5  1  0.69406400  0.25000000  0.24942200  1
  Cr  Cr6  1  0.80593600  0.25000000  0.74942200  1
  Cr  Cr7  1  0.30593600  0.75000000  0.75057800  1
  Cr  Cr8  1  0.47439800  0.75000000  0.01642000  1
  Cr  Cr9  1  0.97439800  0.25000000  0.48358000  1
  Cr  Cr10  1  0.52560200  0.25000000  0.98358000  1
  Cr  Cr11  1  0.02560200  0.75000000  0.51642000  1
  Cr  Cr12  1  0.79911500  0.94430800  0.07681700  1
  Cr  Cr13  1  0.29911500  0.05569200  0.42318300  1
  Cr  Cr14  1  0.20088500  0.44430800  0.92318300  1
  Cr  Cr15  1  0.70088500  0.55569200  0.57681700  1
  Cr  Cr16  1  0.20088500  0.05569200  0.92318300  1
  Cr  Cr17  1  0.70088500  0.94430800  0.57681700  1
  Cr  Cr18  1  0.79911500  0.55569200  0.07681700  1
  Cr  Cr19  1  0.29911500  0.44430800  0.42318300  1
  As  As0  1  0.41442300  0.75000000  0.49437700  1
  As  As1  1  0.91442300  0.25000000  0.00562300  1
  As  As2  1  0.58557700  0.25000000  0.50562300  1
  As  As3  1  0.08557700  0.75000000  0.99437700  1
  As  As4  1  0.92837700  0.51547700  0.33000900  1
  As  As5  1  0.42837700  0.48452300  0.16999100  1
  As  As6  1  0.07162300  0.01547700  0.66999100  1
  As  As7  1  0.57162300  0.98452300  0.83000900  1
  As  As8  1  0.07162300  0.48452300  0.66999100  1
  As  As9  1  0.57162300  0.51547700  0.83000900  1
  As  As10  1  0.92837700  0.98452300  0.33000900  1
  As  As11  1  0.42837700  0.01547700  0.16999100  1
loop_
_geom_bond_atom_site_label_1
_geom_bond_atom_site_label_2
_geom_bond_distance
_geom_bond_site_symmetry_2
As0 Cr0 2.403433 1_555
As0 Cr15 2.437687 1_555
As0 Cr17 2.437687 1_555
As0 Cr19 2.466515 1_555
As0 Cr13 2.466515 1_565
As0 Cr7 2.470043 1_555
As0 Cr11 2.471400 1_555
As0 Cr4 2.654333 1_555
As1 Cr1 2.403433 1_655
As1 Cr16 2.437687 1_654
As1 Cr14 2.437687 1_654
As1 Cr18 2.466515 1_555
As1 Cr12 2.466515 1_545
As1 Cr6 2.470043 1_554
As1 Cr10 2.471400 1_554
As1 Cr5 2.654333 1_555
As2 Cr2 2.403433 1_555
As2 Cr19 2.437687 1_555
As2 Cr13 2.437687 1_555
As2 Cr17 2.466515 1_545
As2 Cr15 2.466515 1_555
As2 Cr5 2.470043 1_555
As2 Cr9 2.471400 1_555
As2 Cr6 2.654333 1_555
As3 Cr3 2.403433 1_455
As3 Cr18 2.437687 1_456
As3 Cr12 2.437687 1_456
As3 Cr14 2.466515 1_555
As3 Cr16 2.466515 1_565
As3 Cr4 2.470043 1_556
As3 Cr8 2.471400 1_556
As3 Cr7 2.654333 1_555
As4 Cr9 2.442450 1_555
As4 Cr0 2.491398 1_555
As4 Cr18 2.501277 1_555
As4 Cr11 2.523901 1_655
As4 Cr4 2.526724 1_655
As4 Cr19 2.556711 1_655
As4 Cr5 2.572549 1_555
As4 Cr1 2.670767 1_655
As4 Cr15 2.718233 1_555
As5 Cr8 2.442450 1_555
As5 Cr1 2.491398 1_555
As5 Cr19 2.501277 1_555
As5 Cr10 2.523901 1_554
As5 Cr5 2.526724 1_555
As5 Cr18 2.556711 1_555
As5 Cr4 2.572549 1_555
As5 Cr0 2.670767 1_555
As5 Cr14 2.718233 1_554
As6 Cr11 2.442450 1_545
As6 Cr2 2.491398 1_555
As6 Cr16 2.501277 1_555
As6 Cr9 2.523901 1_455
As6 Cr6 2.526724 1_455
As6 Cr17 2.556711 1_445
As6 Cr7 2.572549 1_545
As6 Cr3 2.670767 1_445
As6 Cr13 2.718233 1_555
As7 Cr10 2.442450 1_565
As7 Cr3 2.491398 1_555
As7 Cr17 2.501277 1_555
As7 Cr8 2.523901 1_556
As7 Cr7 2.526724 1_555
As7 Cr16 2.556711 1_565
As7 Cr6 2.572549 1_565
As7 Cr2 2.670767 1_565
As7 Cr12 2.718233 1_556
As8 Cr11 2.442450 1_555
As8 Cr2 2.491398 1_555
As8 Cr14 2.501277 1_555
As8 Cr9 2.523901 1_455
As8 Cr6 2.526724 1_455
As8 Cr15 2.556711 1_455
As8 Cr7 2.572549 1_555
As8 Cr3 2.670767 1_455
As8 Cr19 2.718233 1_555
As9 Cr10 2.442450 1_555
As9 Cr3 2.491398 1_555
As9 Cr15 2.501277 1_555
As9 Cr8 2.523901 1_556
As9 Cr7 2.526724 1_555
As9 Cr14 2.556711 1_555
As9 Cr6 2.572549 1_555
As9 Cr2 2.670767 1_555
As9 Cr18 2.718233 1_556
As10 Cr9 2.442450 1_565
As10 Cr0 2.491398 1_555
As10 Cr12 2.501277 1_555
As10 Cr11 2.523901 1_655
As10 Cr4 2.526724 1_655
As10 Cr13 2.556711 1_665
As10 Cr5 2.572549 1_565
As10 Cr1 2.670767 1_665
As10 Cr17 2.718233 1_555
As11 Cr8 2.442450 1_545
As11 Cr1 2.491398 1_555
As11 Cr13 2.501277 1_555
As11 Cr10 2.523901 1_554
As11 Cr5 2.526724 1_555
As11 Cr12 2.556711 1_545
As11 Cr4 2.572549 1_545
As11 Cr0 2.670767 1_545
As11 Cr16 2.718233 1_554
