# generated using pymatgen
data_Rb8Tl11
_symmetry_space_group_name_H-M   'P 1'
_cell_length_a   18.93183046
_cell_length_b   18.93183046
_cell_length_c   18.93182944
_cell_angle_alpha   32.49881213
_cell_angle_beta   32.49881213
_cell_angle_gamma   32.49881187
_symmetry_Int_Tables_number   1
_chemical_formula_structural   Rb8Tl11
_chemical_formula_sum   'Rb16 Tl22'
_cell_volume   1741.72854851
_cell_formula_units_Z   2
loop_
 _symmetry_equiv_pos_site_id
 _symmetry_equiv_pos_as_xyz
  1  'x, y, z'
loop_
 _atom_site_type_symbol
 _atom_site_label
 _atom_site_symmetry_multiplicity
 _atom_site_fract_x
 _atom_site_fract_y
 _atom_site_fract_z
 _atom_site_occupancy
  Rb  Rb0  1  0.32468300  0.65205100  0.08908500  1
  Rb  Rb1  1  0.65205100  0.08908500  0.32468300  1
  Rb  Rb2  1  0.08908500  0.32468300  0.65205100  1
  Rb  Rb3  1  0.84794900  0.17531700  0.41091500  1
  Rb  Rb4  1  0.17531700  0.41091500  0.84794900  1
  Rb  Rb5  1  0.41091500  0.84794900  0.17531700  1
  Rb  Rb6  1  0.67531700  0.34794900  0.91091500  1
  Rb  Rb7  1  0.34794900  0.91091500  0.67531700  1
  Rb  Rb8  1  0.91091500  0.67531700  0.34794900  1
  Rb  Rb9  1  0.15205100  0.82468300  0.58908500  1
  Rb  Rb10  1  0.82468300  0.58908500  0.15205100  1
  Rb  Rb11  1  0.58908500  0.15205100  0.82468300  1
  Rb  Rb12  1  0.07883700  0.07883700  0.07883700  1
  Rb  Rb13  1  0.42116300  0.42116300  0.42116300  1
  Rb  Rb14  1  0.92116300  0.92116300  0.92116300  1
  Rb  Rb15  1  0.57883700  0.57883700  0.57883700  1
  Tl  Tl0  1  0.72790500  0.42613800  0.00406700  1
  Tl  Tl1  1  0.42613800  0.00406700  0.72790500  1
  Tl  Tl2  1  0.00406700  0.72790500  0.42613800  1
  Tl  Tl3  1  0.07386200  0.77209500  0.49593300  1
  Tl  Tl4  1  0.77209500  0.49593300  0.07386200  1
  Tl  Tl5  1  0.49593300  0.07386200  0.77209500  1
  Tl  Tl6  1  0.27209500  0.57386200  0.99593300  1
  Tl  Tl7  1  0.57386200  0.99593300  0.27209500  1
  Tl  Tl8  1  0.99593300  0.27209500  0.57386200  1
  Tl  Tl9  1  0.92613800  0.22790500  0.50406700  1
  Tl  Tl10  1  0.22790500  0.50406700  0.92613800  1
  Tl  Tl11  1  0.50406700  0.92613800  0.22790500  1
  Tl  Tl12  1  0.03829500  0.46170500  0.25000000  1
  Tl  Tl13  1  0.46170500  0.25000000  0.03829500  1
  Tl  Tl14  1  0.25000000  0.03829500  0.46170500  1
  Tl  Tl15  1  0.96170500  0.53829500  0.75000000  1
  Tl  Tl16  1  0.53829500  0.75000000  0.96170500  1
  Tl  Tl17  1  0.75000000  0.96170500  0.53829500  1
  Tl  Tl18  1  0.19927100  0.19927100  0.19927100  1
  Tl  Tl19  1  0.30072900  0.30072900  0.30072900  1
  Tl  Tl20  1  0.80072900  0.80072900  0.80072900  1
  Tl  Tl21  1  0.69927100  0.69927100  0.69927100  1
loop_
_geom_bond_atom_site_label_1
_geom_bond_atom_site_label_2
_geom_bond_distance
_geom_bond_site_symmetry_2
Rb0 Tl16 3.776855 1_554
Rb0 Tl0 3.869175 1_555
Rb0 Tl2 3.878596 1_555
Rb0 Tl6 4.017878 1_554
Rb0 Tl21 4.103510 1_554
Rb0 Tl1 4.174834 1_564
Rb0 Tl19 4.191389 1_555
Rb0 Rb7 4.317267 1_554
Rb0 Rb8 4.317267 1_455
Rb0 Rb6 4.371598 1_554
Rb0 Rb13 4.638464 1_555
Rb0 Rb12 4.735912 1_565
Rb1 Tl17 3.776854 1_545
Rb1 Tl1 3.869175 1_555
Rb1 Tl0 3.878596 1_555
Rb1 Tl7 4.017878 1_545
Rb1 Tl21 4.103510 1_545
Rb1 Tl2 4.174834 1_645
Rb1 Tl19 4.191389 1_555
Rb1 Rb6 4.317267 1_554
Rb1 Rb8 4.317267 1_545
Rb1 Rb7 4.371598 1_545
Rb1 Rb13 4.638464 1_555
Rb1 Rb12 4.735912 1_655
Rb2 Tl15 3.776855 1_455
Rb2 Tl2 3.869175 1_555
Rb2 Tl1 3.878596 1_555
Rb2 Tl8 4.017878 1_455
Rb2 Tl21 4.103510 1_455
Rb2 Tl0 4.174834 1_456
Rb2 Tl19 4.191389 1_555
Rb2 Rb7 4.317267 1_545
Rb2 Rb6 4.317267 1_455
Rb2 Rb8 4.371598 1_455
Rb3 Tl17 3.776855 1_545
Rb3 Tl3 3.869175 1_645
Rb3 Tl4 3.878596 1_555
Rb3 Tl9 4.017878 1_555
Rb3 Tl20 4.103510 1_545
Rb3 Tl5 4.174834 1_555
Rb3 Tl18 4.191389 1_655
Rb3 Rb9 4.371598 1_645
Rb4 Tl15 3.776855 1_455
Rb4 Tl4 3.869175 1_456
Rb4 Tl5 3.878596 1_555
Rb4 Tl10 4.017878 1_555
Rb4 Tl20 4.103510 1_455
Rb4 Tl3 4.174834 1_555
Rb4 Tl18 4.191389 1_556
Rb4 Rb9 4.317267 1_555
Rb5 Tl16 3.776854 1_554
Rb5 Tl5 3.869175 1_564
Rb5 Tl3 3.878596 1_555
Rb5 Tl11 4.017878 1_555
Rb5 Tl20 4.103510 1_554
Rb5 Tl4 4.174834 1_555
Rb5 Tl18 4.191389 1_565
Rb5 Rb9 4.317267 1_555
Rb6 Tl13 3.776855 1_556
Rb6 Tl6 3.869175 1_555
Rb6 Tl8 3.878596 1_555
Rb6 Tl0 4.017878 1_556
Rb6 Tl19 4.103510 1_556
Rb6 Tl7 4.174834 1_546
Rb6 Tl21 4.191389 1_555
Rb7 Tl14 3.776854 1_565
Rb7 Tl7 3.869175 1_555
Rb7 Tl6 3.878596 1_555
Rb7 Tl1 4.017878 1_565
Rb7 Tl19 4.103510 1_565
Rb7 Tl8 4.174834 1_465
Rb7 Tl21 4.191389 1_555
Rb8 Tl12 3.776855 1_655
Rb8 Tl8 3.869175 1_555
Rb8 Tl7 3.878596 1_555
Rb8 Tl2 4.017878 1_655
Rb8 Tl19 4.103510 1_655
Rb8 Tl6 4.174834 1_654
Rb8 Tl21 4.191389 1_555
Rb9 Tl14 3.776855 1_565
Rb9 Tl9 3.869175 1_465
Rb9 Tl10 3.878596 1_555
Rb9 Tl3 4.017878 1_555
Rb9 Tl18 4.103510 1_565
Rb9 Tl11 4.174834 1_555
Rb9 Tl20 4.191389 1_455
Rb10 Tl12 3.776855 1_655
Rb10 Tl10 3.869175 1_654
Rb10 Tl11 3.878596 1_555
Rb10 Tl4 4.017878 1_555
Rb10 Tl18 4.103510 1_655
Rb10 Tl9 4.174834 1_555
Rb10 Tl20 4.191389 1_554
Rb10 Rb5 4.317267 1_555
Rb10 Rb3 4.317267 1_555
Rb10 Rb4 4.371598 1_654
Rb10 Rb14 4.638465 1_554
Rb10 Rb15 4.735911 1_555
Rb11 Tl13 3.776854 1_556
Rb11 Tl11 3.869175 1_546
Rb11 Tl9 3.878596 1_555
Rb11 Tl5 4.017878 1_555
Rb11 Tl18 4.103510 1_556
Rb11 Tl10 4.174834 1_555
Rb11 Tl20 4.191389 1_545
Rb11 Rb3 4.317267 1_555
Rb11 Rb4 4.317267 1_555
Rb11 Rb5 4.371598 1_546
Rb11 Rb14 4.638464 1_545
Rb11 Rb15 4.735912 1_555
Rb12 Tl1 3.981700 1_554
Rb12 Tl0 3.981701 1_455
Rb12 Tl2 3.981701 1_545
Rb12 Tl3 4.289933 1_545
Rb12 Tl4 4.289933 1_455
Rb12 Tl5 4.289934 1_554
Rb12 Tl17 4.329284 1_445
Rb12 Tl15 4.329284 1_454
Rb12 Tl16 4.329284 1_544
Rb12 Rb3 4.638464 1_455
Rb12 Rb5 4.638464 1_545
Rb12 Rb4 4.638465 1_554
Rb12 Rb2 4.735911 1_554
Rb13 Tl5 3.981700 1_555
Rb13 Tl3 3.981701 1_555
Rb13 Tl4 3.981701 1_555
Rb13 Tl0 4.289933 1_555
Rb13 Tl2 4.289933 1_555
Rb13 Tl1 4.289934 1_555
Rb13 Tl16 4.329284 1_554
Rb13 Tl15 4.329284 1_455
Rb13 Tl17 4.329284 1_545
Rb13 Rb2 4.638465 1_555
Rb13 Rb4 4.735911 1_555
Rb13 Rb3 4.735912 1_555
Rb13 Rb5 4.735912 1_555
Rb14 Tl7 3.981700 1_556
Rb14 Tl6 3.981701 1_655
Rb14 Tl8 3.981701 1_565
Rb14 Tl9 4.289933 1_565
Rb14 Tl10 4.289933 1_655
Rb14 Tl11 4.289934 1_556
Rb14 Tl14 4.329284 1_665
Rb14 Tl12 4.329284 1_656
Rb14 Tl13 4.329284 1_566
Rb14 Rb9 4.638464 1_655
Rb14 Rb8 4.735911 1_556
Rb14 Rb6 4.735912 1_565
Rb14 Rb7 4.735912 1_655
Rb15 Tl11 3.981700 1_555
Rb15 Tl9 3.981701 1_555
Rb15 Tl10 3.981701 1_555
Rb15 Tl6 4.289933 1_555
Rb15 Tl8 4.289933 1_555
Rb15 Tl7 4.289934 1_555
Rb15 Tl13 4.329284 1_556
Rb15 Tl12 4.329284 1_655
Rb15 Tl14 4.329284 1_565
Rb15 Rb6 4.638464 1_555
Rb15 Rb7 4.638464 1_555
Rb15 Rb8 4.638465 1_555
Rb15 Rb9 4.735912 1_555
Tl0 Tl15 3.154280 1_554
Tl0 Tl21 3.247523 1_554
Tl0 Tl16 3.249304 1_554
Tl0 Tl4 3.296394 1_555
Tl1 Tl16 3.154280 1_545
Tl1 Tl21 3.247523 1_545
Tl1 Tl17 3.249304 1_545
Tl1 Tl5 3.296394 1_555
Tl2 Tl21 3.247523 1_455
Tl2 Tl3 3.296394 1_555
Tl8 Tl9 3.296394 1_555
Tl10 Tl13 3.154280 1_556
Tl10 Tl18 3.247523 1_556
Tl10 Tl12 3.249304 1_556
Tl10 Tl6 3.296394 1_555
Tl11 Tl14 3.154280 1_565
Tl11 Tl18 3.247523 1_565
Tl11 Tl13 3.249304 1_565
Tl11 Tl7 3.296394 1_555
Tl12 Tl9 3.154280 1_455
Tl12 Tl6 3.154280 1_554
Tl12 Tl8 3.249304 1_455
Tl12 Tl19 3.530673 1_555
Tl12 Tl18 3.530673 1_555
Tl13 Tl7 3.154280 1_545
Tl13 Tl6 3.249304 1_554
Tl13 Tl19 3.530672 1_555
Tl13 Tl18 3.530673 1_555
Tl14 Tl8 3.154280 1_455
Tl14 Tl9 3.249304 1_455
Tl14 Tl7 3.249304 1_545
Tl14 Tl18 3.530672 1_555
Tl14 Tl19 3.530673 1_555
Tl15 Tl3 3.154280 1_655
Tl15 Tl4 3.249304 1_556
Tl15 Tl2 3.249304 1_655
Tl15 Tl20 3.530673 1_555
Tl15 Tl21 3.530673 1_555
Tl16 Tl4 3.154280 1_556
Tl16 Tl5 3.249304 1_565
Tl16 Tl21 3.530672 1_555
Tl16 Tl20 3.530673 1_555
Tl17 Tl5 3.154280 1_565
Tl17 Tl2 3.154280 1_655
Tl17 Tl3 3.249304 1_655
Tl17 Tl20 3.530672 1_555
Tl17 Tl21 3.530673 1_555
Tl18 Tl9 3.247523 1_455
Tl19 Tl6 3.247523 1_554
Tl19 Tl7 3.247523 1_545
Tl19 Tl8 3.247523 1_455
Tl20 Tl3 3.247523 1_655
Tl20 Tl5 3.247523 1_565
Tl20 Tl4 3.247523 1_556
