# generated using pymatgen
data_AlTlBr4
_symmetry_space_group_name_H-M   'P 1'
_cell_length_a   7.49626085
_cell_length_b   8.97757385
_cell_length_c   13.12558105
_cell_angle_alpha   74.69785721
_cell_angle_beta   90.00000000
_cell_angle_gamma   90.00000000
_symmetry_Int_Tables_number   1
_chemical_formula_structural   AlTlBr4
_chemical_formula_sum   'Al4 Tl4 Br16'
_cell_volume   852.01228480
_cell_formula_units_Z   4
loop_
 _symmetry_equiv_pos_site_id
 _symmetry_equiv_pos_as_xyz
  1  'x, y, z'
loop_
 _atom_site_type_symbol
 _atom_site_label
 _atom_site_symmetry_multiplicity
 _atom_site_fract_x
 _atom_site_fract_y
 _atom_site_fract_z
 _atom_site_occupancy
  Al  Al0  1  0.78387781  0.71534746  0.54633915  1
  Al  Al1  1  0.21612219  0.28465254  0.45366085  1
  Al  Al2  1  0.78387781  0.28465254  0.95366085  1
  Al  Al3  1  0.21612219  0.71534746  0.04633915  1
  Tl  Tl0  1  0.09670592  0.00000000  0.25000000  1
  Tl  Tl1  1  0.37513923  0.50000000  0.75000000  1
  Tl  Tl2  1  0.62486077  0.50000000  0.25000000  1
  Tl  Tl3  1  0.90329408  0.00000000  0.75000000  1
  Br  Br0  1  0.57738994  0.16034962  0.87348126  1
  Br  Br1  1  0.26599337  0.54676699  0.39883742  1
  Br  Br2  1  0.93359199  0.78210546  0.08938808  1
  Br  Br3  1  0.06640801  0.78210546  0.58938808  1
  Br  Br4  1  0.26599337  0.45323301  0.10116258  1
  Br  Br5  1  0.42261006  0.83965038  0.12651874  1
  Br  Br6  1  0.57738994  0.83965038  0.62651874  1
  Br  Br7  1  0.25353872  0.20294252  0.63529453  1
  Br  Br8  1  0.06640801  0.21789454  0.91061192  1
  Br  Br9  1  0.74646128  0.20294252  0.13529453  1
  Br  Br10  1  0.42261006  0.16034962  0.37348126  1
  Br  Br11  1  0.74646128  0.79705748  0.36470547  1
  Br  Br12  1  0.73400663  0.54676699  0.89883742  1
  Br  Br13  1  0.25353872  0.79705748  0.86470547  1
  Br  Br14  1  0.93359199  0.21789454  0.41061192  1
  Br  Br15  1  0.73400663  0.45323301  0.60116258  1
loop_
_geom_bond_atom_site_label_1
_geom_bond_atom_site_label_2
_geom_bond_distance
_geom_bond_site_symmetry_2
Al0 Br15 2.302420 1_555
Al0 Br3 2.311448 1_655
Al0 Br6 2.317047 1_555
Al0 Br11 2.318921 1_555
Al1 Br1 2.302420 1_555
Al1 Br14 2.311448 1_455
Al1 Br10 2.317047 1_555
Al1 Br7 2.318921 1_555
Al2 Br12 2.302420 1_555
Al2 Br8 2.311448 1_655
Al2 Br0 2.317047 1_555
Al2 Br9 2.318921 1_556
Al3 Br4 2.302420 1_555
Al3 Br2 2.311448 1_455
Al3 Br5 2.317047 1_555
Al3 Br13 2.318921 1_554
Br7 Tl3 3.321406 1_455
Br9 Tl0 3.321406 1_655
Br11 Tl0 3.321406 1_665
Br13 Tl3 3.321406 1_465
