# generated using pymatgen
data_SiO2
_symmetry_space_group_name_H-M   'P 1'
_cell_length_a   8.93158373
_cell_length_b   9.18113042
_cell_length_c   9.18112997
_cell_angle_alpha   110.86644491
_cell_angle_beta   98.71155929
_cell_angle_gamma   98.71155498
_symmetry_Int_Tables_number   1
_chemical_formula_structural   SiO2
_chemical_formula_sum   'Si12 O24'
_cell_volume   677.96285192
_cell_formula_units_Z   12
loop_
 _symmetry_equiv_pos_site_id
 _symmetry_equiv_pos_as_xyz
  1  'x, y, z'
loop_
 _atom_site_type_symbol
 _atom_site_label
 _atom_site_symmetry_multiplicity
 _atom_site_fract_x
 _atom_site_fract_y
 _atom_site_fract_z
 _atom_site_occupancy
  Si  Si0  1  0.30804903  0.20154102  -0.00171812  1
  Si  Si1  1  0.30804903  -0.00171812  0.20154102  1
  Si  Si2  1  0.32998214  0.90886486  0.70318465  1
  Si  Si3  1  0.10369168  0.40304567  0.88933735  1
  Si  Si4  1  0.66917667  0.09830695  0.30106596  1
  Si  Si5  1  0.89352996  0.59537607  0.10564452  1
  Si  Si6  1  0.68725284  0.80160501  0.00621030  1
  Si  Si7  1  0.10369168  0.88933735  0.40304567  1
  Si  Si8  1  0.68725284  0.00621030  0.80160501  1
  Si  Si9  1  0.32998214  0.70318465  0.90886486  1
  Si  Si10  1  0.89352996  0.10564452  0.59537607  1
  Si  Si11  1  0.66917667  0.30106596  0.09830695  1
  O  O0  1  0.80540274  0.68807556  0.01223212  1
  O  O1  1  0.70827496  0.24498592  0.24498592  1
  O  O2  1  0.99129913  0.99145060  0.49362893  1
  O  O3  1  0.30099832  0.76597322  0.76597322  1
  O  O4  1  0.28327519  0.06504256  0.82133360  1
  O  O5  1  0.00549408  0.27097338  0.72034265  1
  O  O6  1  0.99129913  0.49362893  0.99145060  1
  O  O7  1  0.26416030  0.11999996  0.11999996  1
  O  O8  1  0.71375158  0.18113436  0.94178604  1
  O  O9  1  0.80540274  0.01223212  0.68807556  1
  O  O10  1  0.48651303  0.29997075  0.05984223  1
  O  O11  1  0.28327519  0.82133360  0.06504256  1
  O  O12  1  0.71375158  0.94178604  0.18113436  1
  O  O13  1  0.19582537  0.99204012  0.32060389  1
  O  O14  1  0.51073676  0.95215007  0.69806722  1
  O  O15  1  0.51073676  0.69806722  0.95215007  1
  O  O16  1  0.76816908  0.14676571  0.47859876  1
  O  O17  1  0.00549408  0.72034265  0.27097338  1
  O  O18  1  0.72101007  0.87839395  0.87839395  1
  O  O19  1  0.19582537  0.32060389  0.99204012  1
  O  O20  1  0.76816908  0.47859876  0.14676571  1
  O  O21  1  0.22529289  0.85284043  0.52697072  1
  O  O22  1  0.22529289  0.52697072  0.85284043  1
  O  O23  1  0.48651303  0.05984223  0.29997075  1
loop_
_geom_bond_atom_site_label_1
_geom_bond_atom_site_label_2
_geom_bond_distance
_geom_bond_site_symmetry_2
O0 Si6 1.599895 1_555
O0 Si5 1.611785 1_555
O1 Si11 1.614481 1_555
O1 Si4 1.614481 1_555
O2 Si7 1.600259 1_655
O2 Si10 1.600348 1_565
O3 Si9 1.612922 1_555
O3 Si2 1.612922 1_555
O4 Si0 1.617254 1_556
O4 Si2 1.617703 1_545
O5 Si3 1.603832 1_555
O5 Si10 1.603881 1_455
O6 Si3 1.600259 1_655
O6 Si5 1.600348 1_556
O7 Si1 1.613300 1_555
O7 Si0 1.613300 1_555
O8 Si8 1.616107 1_555
O8 Si11 1.617064 1_556
O9 Si8 1.599895 1_555
O9 Si10 1.611785 1_555
O10 Si0 1.613609 1_555
O10 Si11 1.613846 1_555
O11 Si1 1.617254 1_565
O11 Si9 1.617703 1_554
O12 Si6 1.616107 1_555
O12 Si4 1.617064 1_565
O13 Si1 1.600634 1_565
O13 Si7 1.612840 1_555
O14 Si8 1.615059 1_565
O14 Si2 1.615066 1_555
O15 Si6 1.615059 1_556
O15 Si9 1.615066 1_555
O16 Si4 1.601284 1_555
O16 Si10 1.611975 1_555
O17 Si7 1.603832 1_555
O17 Si5 1.603881 1_455
O18 Si6 1.611584 1_556
O18 Si8 1.611584 1_565
O19 Si0 1.600634 1_556
O19 Si3 1.612840 1_555
O20 Si11 1.601284 1_555
O20 Si5 1.611975 1_555
O21 Si2 1.599856 1_555
O21 Si7 1.610562 1_555
O22 Si9 1.599856 1_555
O22 Si3 1.610562 1_555
O23 Si1 1.613609 1_555
O23 Si4 1.613846 1_555
