# generated using pymatgen
data_ZnS
_symmetry_space_group_name_H-M   'P 1'
_cell_length_a   3.80885506
_cell_length_b   3.80885506
_cell_length_c   68.45229874
_cell_angle_alpha   90.00000000
_cell_angle_beta   90.00000000
_cell_angle_gamma   120.00001494
_symmetry_Int_Tables_number   1
_chemical_formula_structural   ZnS
_chemical_formula_sum   'Zn22 S22'
_cell_volume   860.01791196
_cell_formula_units_Z   22
loop_
 _symmetry_equiv_pos_site_id
 _symmetry_equiv_pos_as_xyz
  1  'x, y, z'
loop_
 _atom_site_type_symbol
 _atom_site_label
 _atom_site_symmetry_multiplicity
 _atom_site_fract_x
 _atom_site_fract_y
 _atom_site_fract_z
 _atom_site_occupancy
  Zn  Zn0  1  -0.00000000  -0.00000000  0.36361795  1
  Zn  Zn1  1  -0.00000000  0.00000000  0.63638139  1
  Zn  Zn2  1  0.33333300  0.66666700  0.86362514  1
  Zn  Zn3  1  0.66666700  0.33333300  0.31817052  1
  Zn  Zn4  1  0.66666700  0.33333300  0.95452302  1
  Zn  Zn5  1  0.66666700  0.33333300  0.04548066  1
  Zn  Zn6  1  0.33333300  0.66666700  0.54546258  1
  Zn  Zn7  1  0.33333300  0.66666700  0.27272657  1
  Zn  Zn8  1  0.33333300  0.66666700  0.13639034  1
  Zn  Zn9  1  0.00000000  -0.00000000  0.90908635  1
  Zn  Zn10  1  0.66666700  0.33333300  0.72728122  1
  Zn  Zn11  1  0.66666700  0.33333300  0.59090501  1
  Zn  Zn12  1  0.66666700  0.33333300  0.18182317  1
  Zn  Zn13  1  0.33333300  0.66666700  0.68182046  1
  Zn  Zn14  1  0.00000000  -0.00000000  0.09090802  1
  Zn  Zn15  1  0.33333300  0.66666700  0.40908811  1
  Zn  Zn16  1  -0.00000000  0.00000000  0.77273014  1
  Zn  Zn17  1  0.66666700  0.33333300  0.45452951  1
  Zn  Zn18  1  0.33333300  0.66666700  0.99999643  1
  Zn  Zn19  1  -0.00000000  -0.00000000  0.22729130  1
  Zn  Zn20  1  0.66666700  0.33333300  0.81821174  1
  Zn  Zn21  1  -0.00000000  0.00000000  0.49999093  1
  S  S0  1  0.66666700  0.33333300  0.76134035  1
  S  S1  1  0.33333300  0.66666700  0.89771262  1
  S  S2  1  0.33333300  0.66666700  0.30680177  1
  S  S3  1  0.66666700  0.33333300  0.07954902  1
  S  S4  1  -0.00000000  -0.00000000  0.53408000  1
  S  S5  1  0.66666700  0.33333300  0.85226996  1
  S  S6  1  0.66666700  0.33333300  0.48861125  1
  S  S7  1  -0.00000000  -0.00000000  0.94316718  1
  S  S8  1  -0.00000000  -0.00000000  0.26137003  1
  S  S9  1  -0.00000000  -0.00000000  0.12500234  1
  S  S10  1  0.33333300  0.66666700  0.17046471  1
  S  S11  1  -0.00000000  0.00000000  0.67046146  1
  S  S12  1  -0.00000000  0.00000000  0.39771359  1
  S  S13  1  0.66666700  0.33333300  0.35223943  1
  S  S14  1  0.33333300  0.66666700  0.57954032  1
  S  S15  1  0.66666700  0.33333300  0.21591349  1
  S  S16  1  0.66666700  0.33333300  0.98857970  1
  S  S17  1  0.33333300  0.66666700  0.44317189  1
  S  S18  1  0.33333300  0.66666700  0.71591086  1
  S  S19  1  0.33333300  0.66666700  0.03411550  1
  S  S20  1  0.00000000  -0.00000000  0.80684529  1
  S  S21  1  0.66666700  0.33333300  0.62499765  1
loop_
_geom_bond_atom_site_label_1
_geom_bond_atom_site_label_2
_geom_bond_distance
_geom_bond_site_symmetry_2
S0 Zn10 2.331426 1_555
S0 Zn16 2.333163 1_655
S0 Zn16 2.333165 1_555
S0 Zn16 2.333165 1_665
S1 Zn9 2.332796 1_565
S1 Zn9 2.332798 1_555
S1 Zn9 2.332798 1_665
S1 Zn2 2.333366 1_555
S2 Zn7 2.332526 1_555
S2 Zn3 2.332681 1_455
S2 Zn3 2.332681 1_565
S2 Zn3 2.332688 1_555
S3 Zn5 2.332058 1_555
S3 Zn14 2.332459 1_655
S3 Zn14 2.332462 1_555
S3 Zn14 2.332462 1_665
S4 Zn6 2.332998 1_545
S4 Zn6 2.333001 1_445
S4 Zn6 2.333001 1_555
S4 Zn21 2.333475 1_555
S5 Zn20 2.331363 1_555
S5 Zn2 2.332372 1_655
S5 Zn2 2.332372 1_545
S5 Zn2 2.332378 1_555
S6 Zn21 2.332932 1_655
S6 Zn21 2.332934 1_665
S6 Zn21 2.332934 1_555
S6 Zn17 2.332973 1_555
S7 Zn4 2.332387 1_455
S7 Zn4 2.332390 1_555
S7 Zn4 2.332390 1_445
S7 Zn9 2.332911 1_555
S8 Zn7 2.332403 1_545
S8 Zn7 2.332406 1_445
S8 Zn7 2.332406 1_555
S8 Zn19 2.332767 1_555
S9 Zn8 2.333122 1_545
S9 Zn8 2.333125 1_445
S9 Zn8 2.333125 1_555
S9 Zn14 2.333835 1_555
S10 Zn12 2.332447 1_455
S10 Zn12 2.332447 1_565
S10 Zn12 2.332453 1_555
S10 Zn8 2.332469 1_555
S11 Zn13 2.332459 1_545
S11 Zn13 2.332462 1_555
S11 Zn13 2.332462 1_445
S11 Zn1 2.332859 1_555
S12 Zn15 2.332814 1_545
S12 Zn15 2.332816 1_555
S12 Zn15 2.332816 1_445
S12 Zn0 2.333925 1_555
S13 Zn3 2.332095 1_555
S13 Zn0 2.332905 1_655
S13 Zn0 2.332908 1_555
S13 Zn0 2.332908 1_665
S14 Zn11 2.332589 1_455
S14 Zn11 2.332589 1_565
S14 Zn11 2.332595 1_555
S14 Zn6 2.332700 1_555
S15 Zn19 2.332889 1_655
S15 Zn19 2.332892 1_665
S15 Zn19 2.332892 1_555
S15 Zn12 2.333561 1_555
S16 Zn4 2.331258 1_555
S16 Zn18 2.333779 1_545
S16 Zn18 2.333779 1_655
S16 Zn18 2.333786 1_555
S17 Zn17 2.332427 1_455
S17 Zn17 2.332427 1_565
S17 Zn17 2.332434 1_555
S17 Zn15 2.333113 1_555
S18 Zn10 2.332718 1_455
S18 Zn10 2.332718 1_565
S18 Zn10 2.332725 1_555
S18 Zn13 2.333566 1_555
S19 Zn5 2.332600 1_455
S19 Zn5 2.332600 1_565
S19 Zn5 2.332606 1_555
S19 Zn18 2.335529 1_554
S20 Zn20 2.332629 1_455
S20 Zn20 2.332632 1_555
S20 Zn20 2.332632 1_445
S20 Zn16 2.335260 1_555
S21 Zn1 2.333024 1_655
S21 Zn1 2.333027 1_665
S21 Zn1 2.333027 1_555
S21 Zn11 2.333720 1_555
