# generated using pymatgen
data_Ba3Ce2C5O15F2
_symmetry_space_group_name_H-M   'P 1'
_cell_length_a   11.11680633
_cell_length_b   11.11680633
_cell_length_c   13.40440786
_cell_angle_alpha   85.45140334
_cell_angle_beta   85.45140334
_cell_angle_gamma   26.77641757
_symmetry_Int_Tables_number   1
_chemical_formula_structural   Ba3Ce2C5O15F2
_chemical_formula_sum   'Ba6 Ce4 C10 O30 F4'
_cell_volume   743.81407862
_cell_formula_units_Z   2
loop_
 _symmetry_equiv_pos_site_id
 _symmetry_equiv_pos_as_xyz
  1  'x, y, z'
loop_
 _atom_site_type_symbol
 _atom_site_label
 _atom_site_symmetry_multiplicity
 _atom_site_fract_x
 _atom_site_fract_y
 _atom_site_fract_z
 _atom_site_occupancy
  Ba  Ba0  1  0.68622900  0.68622900  0.90482800  1
  Ba  Ba1  1  0.80772300  0.80772300  0.60031100  1
  Ba  Ba2  1  0.50000000  0.50000000  0.50000000  1
  Ba  Ba3  1  0.19227700  0.19227700  0.39968900  1
  Ba  Ba4  1  0.31377100  0.31377100  0.09517200  1
  Ba  Ba5  1  0.00000000  0.00000000  0.00000000  1
  Ce  Ce0  1  0.40015600  0.40015600  0.81478100  1
  Ce  Ce1  1  0.59984400  0.59984400  0.18521900  1
  Ce  Ce2  1  0.89445900  0.89445900  0.28801900  1
  Ce  Ce3  1  0.10554100  0.10554100  0.71198100  1
  C  C0  1  0.54126400  0.54126400  0.79987800  1
  C  C1  1  0.95211700  0.95211700  0.64724500  1
  C  C2  1  0.75365600  0.75365600  0.27499900  1
  C  C3  1  0.45873600  0.45873600  0.20012200  1
  C  C4  1  0.83951600  0.83951600  0.90221300  1
  C  C5  1  0.16048400  0.16048400  0.09778700  1
  C  C6  1  0.65025300  0.65025300  0.54110400  1
  C  C7  1  0.24634400  0.24634400  0.72500100  1
  C  C8  1  0.34974700  0.34974700  0.45889600  1
  C  C9  1  0.04788300  0.04788300  0.35275500  1
  O  O0  1  0.00112800  0.56800100  0.27507900  1
  O  O1  1  0.69373500  0.69373500  0.27963500  1
  O  O2  1  0.10220600  0.10220600  0.13191800  1
  O  O3  1  0.73049100  0.29401300  0.81376000  1
  O  O4  1  0.89779400  0.89779400  0.86808200  1
  O  O5  1  0.70546000  0.70546000  0.49693600  1
  O  O6  1  0.29634800  0.85878000  0.34029600  1
  O  O7  1  0.43199900  0.99887200  0.72492100  1
  O  O8  1  0.83965300  0.40290000  0.56032200  1
  O  O9  1  0.26950900  0.70598700  0.18624000  1
  O  O10  1  0.56800100  0.00112800  0.27507900  1
  O  O11  1  0.30626500  0.30626500  0.72036500  1
  O  O12  1  0.40866100  0.96935400  0.08391500  1
  O  O13  1  0.98980200  0.98980200  0.38503600  1
  O  O14  1  0.70598700  0.26950900  0.18624000  1
  O  O15  1  0.59710000  0.16034700  0.43967800  1
  O  O16  1  0.40069200  0.40069200  0.23392000  1
  O  O17  1  0.85878000  0.29634800  0.34029600  1
  O  O18  1  0.16034700  0.59710000  0.43967800  1
  O  O19  1  0.29401300  0.73049100  0.81376000  1
  O  O20  1  0.01019800  0.01019800  0.61496400  1
  O  O21  1  0.14122000  0.70365200  0.65970400  1
  O  O22  1  0.29454000  0.29454000  0.50306400  1
  O  O23  1  0.03064600  0.59133900  0.91608500  1
  O  O24  1  0.40290000  0.83965300  0.56032200  1
  O  O25  1  0.59133900  0.03064600  0.91608500  1
  O  O26  1  0.96935400  0.40866100  0.08391500  1
  O  O27  1  0.59930800  0.59930800  0.76608000  1
  O  O28  1  0.99887200  0.43199900  0.72492100  1
  O  O29  1  0.70365200  0.14122000  0.65970400  1
  F  F0  1  0.42624900  0.42624900  0.98236000  1
  F  F1  1  0.57375100  0.57375100  0.01764000  1
  F  F2  1  0.87506000  0.87506000  0.11536900  1
  F  F3  1  0.12494000  0.12494000  0.88463100  1
loop_
_geom_bond_atom_site_label_1
_geom_bond_atom_site_label_2
_geom_bond_distance
_geom_bond_site_symmetry_2
Ba0 O27 2.750208 1_555
Ba0 F1 2.757814 1_556
Ba0 O12 2.805852 1_556
Ba0 O26 2.805852 1_556
Ba0 O28 2.845247 1_555
Ba0 O7 2.845247 1_555
Ba0 F3 2.918044 1_655
Ba0 F3 2.918044 1_565
Ba0 O25 2.941104 1_565
Ba0 O23 2.941104 1_655
Ba1 O5 2.704119 1_555
Ba1 O7 2.891377 1_555
Ba1 O28 2.891377 1_555
Ba1 O21 2.894946 1_655
Ba1 O29 2.894946 1_565
Ba1 O22 2.909804 1_655
Ba1 O22 2.909804 1_565
Ba1 O15 2.925322 1_565
Ba1 O18 2.925322 1_655
Ba1 O11 3.034511 1_565
Ba1 O11 3.034511 1_655
Ba2 O29 2.984578 1_555
Ba2 O21 2.984578 1_555
Ba2 O17 2.984578 1_555
Ba2 O6 2.984578 1_555
Ba2 O20 3.017395 1_655
Ba2 O20 3.017395 1_565
Ba2 O13 3.017395 1_545
Ba2 O13 3.017395 1_455
Ba2 O24 3.023963 1_555
Ba2 O8 3.023963 1_555
Ba2 O18 3.023963 1_555
Ba2 O15 3.023963 1_555
Ba3 O22 2.704119 1_555
Ba3 O10 2.891377 1_555
Ba3 O0 2.891377 1_555
Ba3 O6 2.894946 1_545
Ba3 O17 2.894946 1_455
Ba3 O5 2.909804 1_455
Ba3 O5 2.909804 1_545
Ba3 O8 2.925322 1_455
Ba3 O24 2.925322 1_545
Ba3 O1 3.034511 1_545
Ba3 O1 3.034511 1_455
Ba4 O16 2.750208 1_555
Ba4 F0 2.757814 1_554
Ba4 O25 2.805852 1_554
Ba4 O23 2.805852 1_554
Ba4 O10 2.845247 1_555
Ba4 O0 2.845247 1_555
Ba4 F2 2.918044 1_455
Ba4 F2 2.918044 1_545
Ba4 O26 2.941104 1_455
Ba4 O12 2.941104 1_545
Ba5 O19 2.880737 1_544
Ba5 O3 2.880737 1_454
Ba5 O14 2.880737 1_455
Ba5 O9 2.880737 1_545
Ba5 O4 2.941282 1_444
Ba5 O2 2.941282 1_555
Ba5 F3 3.002164 1_554
Ba5 F2 3.002164 1_445
Ba5 F0 3.047602 1_544
Ba5 F0 3.047602 1_454
Ba5 F1 3.047602 1_545
Ba5 F1 3.047602 1_455
Ce0 F0 2.360311 1_555
Ce0 O11 2.478896 1_555
Ce0 O21 2.546746 1_555
Ce0 O29 2.546746 1_555
Ce0 O4 2.670761 1_545
Ce0 O4 2.670761 1_455
Ce0 O19 2.671257 1_555
Ce0 O3 2.671257 1_555
Ce0 O23 2.686875 1_555
Ce0 O25 2.686875 1_555
Ce1 F1 2.360311 1_555
Ce1 O1 2.478896 1_555
Ce1 O17 2.546746 1_555
Ce1 O6 2.546746 1_555
Ce1 O2 2.670761 1_565
Ce1 O2 2.670761 1_655
Ce1 O14 2.671257 1_555
Ce1 O9 2.671257 1_555
Ce1 O12 2.686875 1_555
Ce1 O26 2.686875 1_555
Ce2 F2 2.385419 1_555
Ce2 O15 2.497547 1_565
Ce2 O18 2.497547 1_655
Ce2 O13 2.526091 1_555
Ce2 O10 2.643898 1_565
Ce2 O0 2.643898 1_655
Ce2 O16 2.674685 1_655
Ce2 O16 2.674685 1_565
Ce2 O14 2.754631 1_565
Ce2 O9 2.754631 1_655
Ce3 F3 2.385419 1_555
Ce3 O24 2.497547 1_545
Ce3 O8 2.497547 1_455
Ce3 O20 2.526091 1_555
Ce3 O28 2.643898 1_455
Ce3 O7 2.643898 1_545
Ce3 O27 2.674685 1_455
Ce3 O27 2.674685 1_545
Ce3 O19 2.754631 1_545
Ce3 O3 2.754631 1_455
C0 O3 1.292930 1_555
C0 O19 1.292930 1_555
C0 O27 1.299494 1_555
C1 O20 1.294909 1_665
C1 O21 1.300451 1_655
C1 O29 1.300451 1_565
C2 O1 1.292473 1_555
C2 O10 1.300021 1_565
C2 O0 1.300021 1_655
C3 O14 1.292930 1_555
C3 O9 1.292930 1_555
C3 O16 1.299494 1_555
C4 O23 1.294303 1_655
C4 O25 1.294303 1_565
C4 O4 1.305447 1_555
C5 O26 1.294303 1_455
C5 O12 1.294303 1_545
C5 O2 1.305447 1_555
C6 O5 1.288842 1_555
C6 O8 1.302592 1_555
C6 O24 1.302592 1_555
C7 O11 1.292473 1_555
C7 O28 1.300021 1_455
C7 O7 1.300021 1_545
C8 O22 1.288842 1_555
C8 O18 1.302592 1_555
C8 O15 1.302592 1_555
C9 O13 1.294909 1_445
C9 O6 1.300451 1_545
C9 O17 1.300451 1_455
