# generated using pymatgen
data_Bi10(MoO8)3
_symmetry_space_group_name_H-M   'P 1'
_cell_length_a   12.16196436
_cell_length_b   12.16196436
_cell_length_c   8.69809609
_cell_angle_alpha   84.53063696
_cell_angle_beta   84.53063696
_cell_angle_gamma   26.85143149
_symmetry_Int_Tables_number   1
_chemical_formula_structural   Bi10(MoO8)3
_chemical_formula_sum   'Bi10 Mo3 O24'
_cell_volume   578.31700694
_cell_formula_units_Z   1
loop_
 _symmetry_equiv_pos_site_id
 _symmetry_equiv_pos_as_xyz
  1  'x, y, z'
loop_
 _atom_site_type_symbol
 _atom_site_label
 _atom_site_symmetry_multiplicity
 _atom_site_fract_x
 _atom_site_fract_y
 _atom_site_fract_z
 _atom_site_occupancy
  Bi  Bi0  1  0.45149440  0.47479085  0.32309153  1
  Bi  Bi1  1  0.60519148  0.78193314  0.45373906  1
  Bi  Bi2  1  0.52520915  0.54850560  0.67690847  1
  Bi  Bi3  1  0.20328882  0.27370235  0.18524435  1
  Bi  Bi4  1  0.06369726  0.08759046  0.40817486  1
  Bi  Bi5  1  0.21806686  0.39480852  0.54626094  1
  Bi  Bi6  1  0.12025478  0.17677441  0.75111256  1
  Bi  Bi7  1  0.91240954  0.93630274  0.59182514  1
  Bi  Bi8  1  0.82322559  0.87974522  0.24888744  1
  Bi  Bi9  1  0.72629765  0.79671118  0.81475565  1
  Mo  Mo0  1  0.32026372  0.42878950  0.92591068  1
  Mo  Mo1  1  0.00258896  0.99741104  -0.00000000  1
  Mo  Mo2  1  0.57121050  0.67973628  0.07408932  1
  O  O0  1  0.88990763  0.76178730  0.64593423  1
  O  O1  1  0.37790716  0.96432065  0.00875250  1
  O  O2  1  0.23821270  0.11009237  0.35406577  1
  O  O3  1  0.24368507  0.87577276  0.94203478  1
  O  O4  1  0.70015941  0.29984059  0.50000000  1
  O  O5  1  0.01074726  0.54260757  0.34791976  1
  O  O6  1  0.21515449  0.78484551  0.50000000  1
  O  O7  1  0.84471185  0.18041384  0.16298962  1
  O  O8  1  0.73249659  0.48242445  0.91790486  1
  O  O9  1  0.51757555  0.26750341  0.08209514  1
  O  O10  1  0.45445373  0.19800839  0.83381516  1
  O  O11  1  0.30051900  0.55178375  0.77043372  1
  O  O12  1  0.64776582  0.14394251  0.40751845  1
  O  O13  1  0.80199161  0.54554627  0.16618484  1
  O  O14  1  0.44821625  0.69948100  0.22956628  1
  O  O15  1  0.85605749  0.35223418  0.59248155  1
  O  O16  1  0.12422724  0.75631493  0.05796522  1
  O  O17  1  0.35053264  0.86716421  0.57877115  1
  O  O18  1  0.97478593  0.47321990  0.68525615  1
  O  O19  1  0.13283579  0.64946736  0.42122885  1
  O  O20  1  0.52678010  0.02521407  0.31474385  1
  O  O21  1  0.81958616  0.15528815  0.83701038  1
  O  O22  1  0.03567935  0.62209284  0.99124750  1
  O  O23  1  0.45739243  0.98925274  0.65208024  1
loop_
_geom_bond_atom_site_label_1
_geom_bond_atom_site_label_2
_geom_bond_distance
_geom_bond_site_symmetry_2
Bi0 O4 2.195932 1_555
Bi0 O12 2.249488 1_555
Bi0 O19 2.299014 1_555
Bi0 O6 2.402455 1_555
Bi0 O7 2.599476 1_555
Bi0 O14 2.742057 1_555
Bi1 O23 2.171566 1_555
Bi1 O2 2.212169 1_565
Bi1 O20 2.372461 1_565
Bi1 O17 2.386173 1_555
Bi1 O5 2.770466 1_655
Bi2 O4 2.195932 1_555
Bi2 O15 2.249488 1_555
Bi2 O17 2.299014 1_555
Bi2 O6 2.402455 1_555
Bi2 O21 2.599476 1_555
Bi2 O11 2.742057 1_555
Bi3 O2 2.085638 1_555
Bi3 O5 2.183255 1_555
Bi3 O20 2.204683 1_555
Bi3 O13 2.456729 1_455
Bi3 O1 2.691785 1_545
Bi4 O15 2.239460 1_455
Bi4 O17 2.258158 1_545
Bi4 O6 2.281609 1_545
Bi4 O2 2.371215 1_555
Bi4 O4 2.490851 1_455
Bi4 O14 2.681111 1_545
Bi4 O7 2.859129 1_455
Bi5 O5 2.171566 1_555
Bi5 O0 2.212169 1_455
Bi5 O18 2.372461 1_455
Bi5 O19 2.386173 1_555
Bi5 O23 2.770466 1_545
Bi6 O15 2.197945 1_455
Bi6 O18 2.207854 1_455
Bi6 O17 2.393283 1_545
Bi6 O23 2.402231 1_545
Bi6 O8 2.570217 1_455
Bi6 O1 2.702764 1_546
Bi6 O3 2.814798 1_545
Bi7 O12 2.239460 1_565
Bi7 O19 2.258158 1_655
Bi7 O6 2.281609 1_655
Bi7 O0 2.371215 1_555
Bi7 O4 2.490851 1_565
Bi7 O11 2.681111 1_655
Bi7 O21 2.859129 1_565
Bi8 O12 2.197945 1_565
Bi8 O20 2.207854 1_565
Bi8 O19 2.393283 1_655
Bi8 O5 2.402231 1_655
Bi8 O9 2.570217 1_565
Bi8 O22 2.702764 1_654
Bi8 O16 2.814798 1_655
Bi9 O0 2.085638 1_555
Bi9 O23 2.183255 1_555
Bi9 O18 2.204683 1_555
Bi9 O10 2.456729 1_565
Bi9 O22 2.691785 1_655
Mo0 O11 1.777478 1_555
Mo0 O9 1.779331 1_556
Mo0 O10 1.785735 1_555
Mo0 O22 1.785994 1_555
Mo1 O21 1.762772 1_464
Mo1 O7 1.762772 1_465
Mo1 O16 1.777839 1_555
Mo1 O3 1.777839 1_554
Mo2 O14 1.777478 1_555
Mo2 O8 1.779331 1_554
Mo2 O13 1.785735 1_555
Mo2 O1 1.785994 1_555
