# generated using pymatgen
data_LiY(PO3)4
_symmetry_space_group_name_H-M   'P 1'
_cell_length_a   8.96866336
_cell_length_b   8.96866336
_cell_length_c   9.69055510
_cell_angle_alpha   57.26689037
_cell_angle_beta   57.26689037
_cell_angle_gamma   46.85798078
_symmetry_Int_Tables_number   1
_chemical_formula_structural   LiY(PO3)4
_chemical_formula_sum   'Li2 Y2 P8 O24'
_cell_volume   459.49977765
_cell_formula_units_Z   2
loop_
 _symmetry_equiv_pos_site_id
 _symmetry_equiv_pos_as_xyz
  1  'x, y, z'
loop_
 _atom_site_type_symbol
 _atom_site_label
 _atom_site_symmetry_multiplicity
 _atom_site_fract_x
 _atom_site_fract_y
 _atom_site_fract_z
 _atom_site_occupancy
  Li  Li0  1  0.20580600  0.79419400  0.25000000  1
  Li  Li1  1  0.79419400  0.20580600  0.75000000  1
  Y  Y0  1  0.70313000  0.29687000  0.25000000  1
  Y  Y1  1  0.29687000  0.70313000  0.75000000  1
  P  P0  1  0.20324300  0.50471200  0.59758700  1
  P  P1  1  0.91405000  0.81142400  0.15862700  1
  P  P2  1  0.08595000  0.18857600  0.84137300  1
  P  P3  1  0.79675700  0.49528800  0.40241300  1
  P  P4  1  0.18857600  0.08595000  0.34137300  1
  P  P5  1  0.50471200  0.20324300  0.09758700  1
  P  P6  1  0.49528800  0.79675700  0.90241300  1
  P  P7  1  0.81142400  0.91405000  0.65862700  1
  O  O0  1  0.93059500  0.93719800  0.70365700  1
  O  O1  1  0.67575900  0.83407400  0.83978700  1
  O  O2  1  0.48737100  0.65584800  0.08281400  1
  O  O3  1  0.16592600  0.32424100  0.66021300  1
  O  O4  1  0.51262900  0.34415200  0.91718600  1
  O  O5  1  0.06940500  0.06280200  0.29634300  1
  O  O6  1  0.71711200  0.96967200  0.07960000  1
  O  O7  1  0.06280200  0.06940500  0.79634300  1
  O  O8  1  0.74338300  0.50959900  0.27175200  1
  O  O9  1  0.49040100  0.25661700  0.22824800  1
  O  O10  1  0.10067800  0.67494000  0.04062500  1
  O  O11  1  0.28288800  0.03032800  0.92040000  1
  O  O12  1  0.32506000  0.89932200  0.45937500  1
  O  O13  1  0.96967200  0.71711200  0.57960000  1
  O  O14  1  0.50959900  0.74338300  0.77175200  1
  O  O15  1  0.32424100  0.16592600  0.16021300  1
  O  O16  1  0.93719800  0.93059500  0.20365700  1
  O  O17  1  0.03032800  0.28288800  0.42040000  1
  O  O18  1  0.34415200  0.51262900  0.41718600  1
  O  O19  1  0.67494000  0.10067800  0.54062500  1
  O  O20  1  0.25661700  0.49040100  0.72824800  1
  O  O21  1  0.89932200  0.32506000  0.95937500  1
  O  O22  1  0.83407400  0.67575900  0.33978700  1
  O  O23  1  0.65584800  0.48737100  0.58281400  1
loop_
_geom_bond_atom_site_label_1
_geom_bond_atom_site_label_2
_geom_bond_distance
_geom_bond_site_symmetry_2
Li0 O2 2.001402 1_555
Li0 O18 2.001402 1_555
Li0 O16 2.011756 1_455
Li0 O5 2.011756 1_565
Li1 O4 2.001402 1_555
Li1 O23 2.001402 1_555
Li1 O0 2.011756 1_545
Li1 O7 2.011756 1_655
O0 P7 1.510520 1_555
O0 Y1 2.558215 1_655
O1 P6 1.599698 1_555
O1 P7 1.612028 1_555
O2 P6 1.502507 1_554
O2 Y0 2.442120 1_555
O3 P0 1.599698 1_555
O3 P2 1.612028 1_555
O4 P5 1.502507 1_556
O4 Y1 2.442120 1_555
O5 P4 1.510520 1_555
O5 Y0 2.558215 1_455
O6 P1 1.606091 1_555
O6 P5 1.620418 1_565
O7 P2 1.510520 1_555
O7 Y1 2.558215 1_545
O8 P3 1.498175 1_555
O8 Y0 2.296526 1_555
O9 P5 1.498175 1_555
O9 Y0 2.296526 1_555
O10 P1 1.499791 1_455
O10 Y1 2.360271 1_554
O11 P2 1.606091 1_555
O11 P6 1.620418 1_545
O12 P4 1.499791 1_565
O12 Y1 2.360271 1_555
O13 P7 1.606091 1_555
O13 P0 1.620418 1_655
O14 P6 1.498175 1_555
O14 Y1 2.296526 1_555
O15 P5 1.599698 1_555
O15 P4 1.612028 1_555
O16 P1 1.510520 1_555
O16 Y0 2.558215 1_565
O17 P4 1.606091 1_555
O17 P3 1.620418 1_455
O18 P0 1.502507 1_555
O18 Y0 2.442120 1_555
O19 P7 1.499791 1_545
O19 Y0 2.360271 1_555
O20 P0 1.498175 1_555
O20 Y1 2.296526 1_555
O21 P2 1.499791 1_655
O21 Y0 2.360271 1_556
O22 P3 1.599698 1_555
O22 P1 1.612028 1_555
O23 P3 1.502507 1_555
O23 Y1 2.442120 1_555
