# generated using pymatgen
data_PrCoSb3
_symmetry_space_group_name_H-M   'P 1'
_cell_length_a   6.21240500
_cell_length_b   12.17022700
_cell_length_c   12.85542900
_cell_angle_alpha   90.00000000
_cell_angle_beta   90.00000000
_cell_angle_gamma   90.00000000
_symmetry_Int_Tables_number   1
_chemical_formula_structural   PrCoSb3
_chemical_formula_sum   'Pr8 Co8 Sb24'
_cell_volume   971.95243803
_cell_formula_units_Z   8
loop_
 _symmetry_equiv_pos_site_id
 _symmetry_equiv_pos_as_xyz
  1  'x, y, z'
loop_
 _atom_site_type_symbol
 _atom_site_label
 _atom_site_symmetry_multiplicity
 _atom_site_fract_x
 _atom_site_fract_y
 _atom_site_fract_z
 _atom_site_occupancy
  Pr  Pr0  1  0.22420200  0.25000000  0.30281300  1
  Pr  Pr1  1  0.25000000  0.50000000  0.70065900  1
  Pr  Pr2  1  0.75000000  0.00000000  0.29934100  1
  Pr  Pr3  1  0.77579800  0.75000000  0.69718700  1
  Pr  Pr4  1  0.72420200  0.25000000  0.69718700  1
  Pr  Pr5  1  0.25000000  0.00000000  0.70065900  1
  Pr  Pr6  1  0.27579800  0.75000000  0.30281300  1
  Pr  Pr7  1  0.75000000  0.50000000  0.29934100  1
  Co  Co0  1  0.03793500  0.63603200  0.09715700  1
  Co  Co1  1  0.53793500  0.63603200  0.90284300  1
  Co  Co2  1  0.53793500  0.86396800  0.90284300  1
  Co  Co3  1  0.03793500  0.86396800  0.09715700  1
  Co  Co4  1  0.46206500  0.36396800  0.09715700  1
  Co  Co5  1  0.46206500  0.13603200  0.09715700  1
  Co  Co6  1  0.96206500  0.13603200  0.90284300  1
  Co  Co7  1  0.96206500  0.36396800  0.90284300  1
  Sb  Sb0  1  0.88454000  0.75000000  0.94502400  1
  Sb  Sb1  1  0.75000000  0.50000000  0.78271900  1
  Sb  Sb2  1  0.61546000  0.25000000  0.94502400  1
  Sb  Sb3  1  0.25000000  0.00000000  0.97241400  1
  Sb  Sb4  1  0.25000000  0.00000000  0.21728100  1
  Sb  Sb5  1  0.48667800  0.12423000  0.49753600  1
  Sb  Sb6  1  0.51332200  0.62423000  0.50246400  1
  Sb  Sb7  1  0.23151000  0.25000000  0.78822700  1
  Sb  Sb8  1  0.75000000  0.50000000  0.02758600  1
  Sb  Sb9  1  0.01332200  0.62423000  0.49753600  1
  Sb  Sb10  1  0.01332200  0.87577000  0.49753600  1
  Sb  Sb11  1  0.11546000  0.25000000  0.05497600  1
  Sb  Sb12  1  0.76849000  0.75000000  0.21177300  1
  Sb  Sb13  1  0.51332200  0.87577000  0.50246400  1
  Sb  Sb14  1  0.75000000  0.00000000  0.78271900  1
  Sb  Sb15  1  0.25000000  0.50000000  0.97241400  1
  Sb  Sb16  1  0.48667800  0.37577000  0.49753600  1
  Sb  Sb17  1  0.98667800  0.37577000  0.50246400  1
  Sb  Sb18  1  0.26849000  0.75000000  0.78822700  1
  Sb  Sb19  1  0.73151000  0.25000000  0.21177300  1
  Sb  Sb20  1  0.25000000  0.50000000  0.21728100  1
  Sb  Sb21  1  0.75000000  0.00000000  0.02758600  1
  Sb  Sb22  1  0.98667800  0.12423000  0.50246400  1
  Sb  Sb23  1  0.38454000  0.75000000  0.05497600  1
loop_
_geom_bond_atom_site_label_1
_geom_bond_atom_site_label_2
_geom_bond_distance
_geom_bond_site_symmetry_2
Pr0 Sb4 3.239112 1_555
Pr0 Sb20 3.239112 1_555
Pr0 Sb11 3.256883 1_555
Pr0 Sb19 3.276927 1_455
Pr0 Sb22 3.332822 1_455
Pr0 Sb17 3.332822 1_455
Pr0 Sb16 3.356787 1_555
Pr0 Sb5 3.356787 1_555
Pr0 Sb19 3.361895 1_555
Pr1 Sb7 3.246167 1_555
Pr1 Sb18 3.246167 1_555
Pr1 Sb1 3.280449 1_455
Pr1 Sb1 3.280449 1_555
Pr1 Sb16 3.356531 1_555
Pr1 Sb9 3.356531 1_555
Pr1 Sb17 3.384319 1_455
Pr1 Sb6 3.384319 1_555
Pr1 Sb15 3.493527 1_555
Pr2 Sb19 3.246167 1_555
Pr2 Sb12 3.246167 1_545
Pr2 Sb4 3.280449 1_555
Pr2 Sb4 3.280449 1_655
Pr2 Sb22 3.356531 1_555
Pr2 Sb13 3.356531 1_545
Pr2 Sb5 3.384319 1_555
Pr2 Sb10 3.384319 1_645
Pr2 Sb21 3.493527 1_555
Pr3 Sb1 3.239112 1_555
Pr3 Sb14 3.239112 1_565
Pr3 Sb0 3.256883 1_555
Pr3 Sb18 3.276927 1_655
Pr3 Sb10 3.332822 1_655
Pr3 Sb9 3.332822 1_655
Pr3 Sb13 3.356787 1_555
Pr3 Sb6 3.356787 1_555
Pr3 Sb18 3.361895 1_555
Pr4 Sb14 3.239112 1_555
Pr4 Sb1 3.239112 1_555
Pr4 Sb2 3.256883 1_555
Pr4 Sb7 3.276927 1_555
Pr4 Sb5 3.332822 1_555
Pr4 Sb16 3.332822 1_555
Pr4 Sb17 3.356787 1_555
Pr4 Sb22 3.356787 1_555
Pr4 Sb7 3.361895 1_655
Pr5 Sb7 3.246167 1_555
Pr5 Sb18 3.246167 1_545
Pr5 Sb14 3.280449 1_455
Pr5 Sb14 3.280449 1_555
Pr5 Sb5 3.356531 1_555
Pr5 Sb10 3.356531 1_545
Pr5 Sb13 3.384319 1_545
Pr5 Sb22 3.384319 1_455
Pr5 Sb3 3.493527 1_555
Pr6 Sb4 3.239112 1_565
Pr6 Sb20 3.239112 1_555
Pr6 Sb23 3.256883 1_555
Pr6 Sb12 3.276927 1_555
Pr6 Sb13 3.332822 1_555
Pr6 Sb6 3.332822 1_555
Pr6 Sb10 3.356787 1_555
Pr6 Sb9 3.356787 1_555
Pr6 Sb12 3.361895 1_455
Pr7 Sb19 3.246167 1_555
Pr7 Sb12 3.246167 1_555
Pr7 Sb20 3.280449 1_555
Pr7 Sb20 3.280449 1_655
Pr7 Sb6 3.356531 1_555
Pr7 Sb17 3.356531 1_555
Pr7 Sb16 3.384319 1_555
Pr7 Sb9 3.384319 1_655
Pr7 Sb8 3.493527 1_555
Co0 Sb0 2.580084 1_454
Co0 Sb8 2.596227 1_455
Co0 Sb23 2.618080 1_555
Co0 Sb20 2.619378 1_555
Co0 Sb12 2.626172 1_455
Co0 Sb15 2.654818 1_554
Co0 Pr6 3.331227 1_555
Co0 Pr7 3.563166 1_455
Co1 Sb23 2.580084 1_556
Co1 Sb15 2.596227 1_555
Co1 Sb0 2.618080 1_555
Co1 Sb1 2.619378 1_555
Co1 Sb18 2.626172 1_555
Co1 Sb8 2.654818 1_556
Co1 Pr3 3.331227 1_555
Co1 Pr1 3.563166 1_555
Co2 Sb23 2.580084 1_556
Co2 Sb3 2.596227 1_565
Co2 Sb0 2.618080 1_555
Co2 Sb14 2.619378 1_565
Co2 Sb18 2.626172 1_555
Co2 Sb21 2.654818 1_566
Co2 Pr3 3.331227 1_555
Co2 Pr5 3.563166 1_565
Co3 Sb0 2.580084 1_454
Co3 Sb21 2.596227 1_465
Co3 Sb23 2.618080 1_555
Co3 Sb4 2.619378 1_565
Co3 Sb12 2.626172 1_455
Co3 Sb3 2.654818 1_564
Co3 Pr6 3.331227 1_555
Co3 Pr2 3.563166 1_465
Co4 Sb2 2.580084 1_554
Co4 Sb8 2.596227 1_555
Co4 Sb11 2.618080 1_555
Co4 Sb20 2.619378 1_555
Co4 Sb19 2.626172 1_555
Co4 Sb15 2.654818 1_554
Co4 Pr0 3.331227 1_555
Co4 Pr7 3.563166 1_555
Co5 Sb2 2.580084 1_554
Co5 Sb21 2.596227 1_555
Co5 Sb11 2.618080 1_555
Co5 Sb4 2.619378 1_555
Co5 Sb19 2.626172 1_555
Co5 Sb3 2.654818 1_554
Co5 Pr0 3.331227 1_555
Co5 Pr2 3.563166 1_555
Co6 Sb11 2.580084 1_656
Co6 Sb3 2.596227 1_655
Co6 Sb2 2.618080 1_555
Co6 Sb14 2.619378 1_555
Co6 Sb7 2.626172 1_655
Co6 Sb21 2.654818 1_556
Co6 Pr4 3.331227 1_555
Co6 Pr5 3.563166 1_655
Co7 Sb11 2.580084 1_656
Co7 Sb15 2.596227 1_655
Co7 Sb2 2.618080 1_555
Co7 Sb1 2.619378 1_555
Co7 Sb7 2.626172 1_655
Co7 Sb8 2.654818 1_556
Co7 Pr4 3.331227 1_555
Co7 Pr1 3.563166 1_655
Sb0 Sb18 3.122891 1_655
Sb2 Sb7 3.122891 1_555
Sb6 Sb9 3.106848 1_555
Sb6 Sb9 3.106848 1_655
Sb10 Sb22 3.029004 1_465
Sb10 Sb9 3.061299 1_555
Sb10 Sb13 3.106848 1_555
Sb10 Sb13 3.106848 1_455
Sb11 Sb19 3.122891 1_455
Sb12 Sb23 3.122891 1_555
Sb13 Sb5 3.029004 1_565
Sb13 Sb6 3.061299 1_555
Sb16 Sb6 3.029004 1_555
Sb16 Sb5 3.061299 1_555
Sb16 Sb17 3.106848 1_455
Sb16 Sb17 3.106848 1_555
Sb17 Sb9 3.029004 1_655
Sb17 Sb22 3.061299 1_555
Sb22 Sb5 3.106848 1_655
Sb22 Sb5 3.106848 1_555
