# generated using pymatgen
data_Ba3Zr6BeCl18
_symmetry_space_group_name_H-M   'P 1'
_cell_length_a   18.72374909
_cell_length_b   18.72374909
_cell_length_c   18.72374910
_cell_angle_alpha   30.52020602
_cell_angle_beta   30.52020602
_cell_angle_gamma   30.52020791
_symmetry_Int_Tables_number   1
_chemical_formula_structural   Ba3Zr6BeCl18
_chemical_formula_sum   'Ba6 Zr12 Be2 Cl36'
_cell_volume   1500.72280165
_cell_formula_units_Z   2
loop_
 _symmetry_equiv_pos_site_id
 _symmetry_equiv_pos_as_xyz
  1  'x, y, z'
loop_
 _atom_site_type_symbol
 _atom_site_label
 _atom_site_symmetry_multiplicity
 _atom_site_fract_x
 _atom_site_fract_y
 _atom_site_fract_z
 _atom_site_occupancy
  Ba  Ba0  1  0.11139300  0.11139300  0.11139300  1
  Ba  Ba1  1  0.61139300  0.61139300  0.61139300  1
  Ba  Ba2  1  0.88860700  0.88860700  0.88860700  1
  Ba  Ba3  1  0.25000000  0.25000000  0.25000000  1
  Ba  Ba4  1  0.38860700  0.38860700  0.38860700  1
  Ba  Ba5  1  0.75000000  0.75000000  0.75000000  1
  Zr  Zr0  1  0.16177800  0.77143000  0.99156800  1
  Zr  Zr1  1  0.77143000  0.99156800  0.16177800  1
  Zr  Zr2  1  0.66177800  0.49156800  0.27143000  1
  Zr  Zr3  1  0.83822200  0.22857000  0.00843200  1
  Zr  Zr4  1  0.49156800  0.27143000  0.66177800  1
  Zr  Zr5  1  0.99156800  0.16177800  0.77143000  1
  Zr  Zr6  1  0.22857000  0.00843200  0.83822200  1
  Zr  Zr7  1  0.72857000  0.33822200  0.50843200  1
  Zr  Zr8  1  0.00843200  0.83822200  0.22857000  1
  Zr  Zr9  1  0.27143000  0.66177800  0.49156800  1
  Zr  Zr10  1  0.50843200  0.72857000  0.33822200  1
  Zr  Zr11  1  0.33822200  0.50843200  0.72857000  1
  Be  Be0  1  0.50000000  0.50000000  0.50000000  1
  Be  Be1  1  0.00000000  0.00000000  0.00000000  1
  Cl  Cl0  1  0.24559500  0.42537500  0.65850400  1
  Cl  Cl1  1  0.86423900  0.47213900  0.00594700  1
  Cl  Cl2  1  0.42537500  0.65850400  0.24559500  1
  Cl  Cl3  1  0.97213900  0.36423900  0.50594700  1
  Cl  Cl4  1  0.69260200  0.73570400  0.07480200  1
  Cl  Cl5  1  0.47213900  0.00594700  0.86423900  1
  Cl  Cl6  1  0.23570400  0.19260200  0.57480200  1
  Cl  Cl7  1  0.92537500  0.74559500  0.15850400  1
  Cl  Cl8  1  0.92519800  0.30739800  0.26429600  1
  Cl  Cl9  1  0.52786100  0.99405300  0.13576100  1
  Cl  Cl10  1  0.00594700  0.86423900  0.47213900  1
  Cl  Cl11  1  0.63576100  0.49405300  0.02786100  1
  Cl  Cl12  1  0.19260200  0.57480200  0.23570400  1
  Cl  Cl13  1  0.73570400  0.07480200  0.69260200  1
  Cl  Cl14  1  0.25440500  0.84149600  0.07462500  1
  Cl  Cl15  1  0.74559500  0.15850400  0.92537500  1
  Cl  Cl16  1  0.30739800  0.26429600  0.92519800  1
  Cl  Cl17  1  0.57462500  0.34149600  0.75440500  1
  Cl  Cl18  1  0.07462500  0.25440500  0.84149600  1
  Cl  Cl19  1  0.75440500  0.57462500  0.34149600  1
  Cl  Cl20  1  0.84149600  0.07462500  0.25440500  1
  Cl  Cl21  1  0.76429600  0.80739800  0.42519800  1
  Cl  Cl22  1  0.15850400  0.92537500  0.74559500  1
  Cl  Cl23  1  0.42519800  0.76429600  0.80739800  1
  Cl  Cl24  1  0.49405300  0.02786100  0.63576100  1
  Cl  Cl25  1  0.80739800  0.42519800  0.76429600  1
  Cl  Cl26  1  0.13576100  0.52786100  0.99405300  1
  Cl  Cl27  1  0.50594700  0.97213900  0.36423900  1
  Cl  Cl28  1  0.34149600  0.75440500  0.57462500  1
  Cl  Cl29  1  0.26429600  0.92519800  0.30739800  1
  Cl  Cl30  1  0.07480200  0.69260200  0.73570400  1
  Cl  Cl31  1  0.57480200  0.23570400  0.19260200  1
  Cl  Cl32  1  0.02786100  0.63576100  0.49405300  1
  Cl  Cl33  1  0.65850400  0.24559500  0.42537500  1
  Cl  Cl34  1  0.99405300  0.13576100  0.52786100  1
  Cl  Cl35  1  0.36423900  0.50594700  0.97213900  1
loop_
_geom_bond_atom_site_label_1
_geom_bond_atom_site_label_2
_geom_bond_distance
_geom_bond_site_symmetry_2
Ba0 Cl10 3.138202 1_545
Ba0 Cl5 3.138202 1_554
Ba0 Cl1 3.138202 1_455
Ba0 Cl16 3.561091 1_554
Ba0 Cl29 3.561091 1_545
Ba0 Cl8 3.561091 1_455
Ba0 Cl20 3.561707 1_455
Ba0 Cl18 3.561707 1_554
Ba0 Cl14 3.561707 1_545
Ba1 Cl35 3.138202 1_555
Ba1 Cl27 3.138202 1_555
Ba1 Cl3 3.138202 1_555
Ba1 Cl21 3.561091 1_555
Ba1 Cl23 3.561091 1_555
Ba1 Cl25 3.561091 1_555
Ba1 Cl17 3.561707 1_555
Ba1 Cl19 3.561707 1_555
Ba1 Cl28 3.561707 1_555
Ba2 Cl34 3.138202 1_565
Ba2 Cl9 3.138202 1_556
Ba2 Cl26 3.138202 1_655
Ba2 Cl4 3.561091 1_556
Ba2 Cl13 3.561091 1_565
Ba2 Cl30 3.561091 1_655
Ba2 Cl22 3.561707 1_655
Ba2 Cl7 3.561707 1_556
Ba2 Cl15 3.561707 1_565
Ba3 Cl35 3.184375 1_554
Ba3 Cl34 3.184375 1_455
Ba3 Cl3 3.184375 1_455
Ba3 Cl26 3.184375 1_554
Ba3 Cl27 3.184375 1_545
Ba3 Cl9 3.184375 1_545
Ba4 Cl11 3.138202 1_555
Ba4 Cl24 3.138202 1_555
Ba4 Cl32 3.138202 1_555
Ba4 Cl6 3.561091 1_555
Ba4 Cl31 3.561091 1_555
Ba4 Cl12 3.561091 1_555
Ba4 Cl2 3.561707 1_555
Ba4 Cl0 3.561707 1_555
Ba4 Cl33 3.561707 1_555
Ba5 Cl10 3.184375 1_655
Ba5 Cl11 3.184375 1_556
Ba5 Cl1 3.184375 1_556
Ba5 Cl32 3.184375 1_655
Ba5 Cl5 3.184375 1_565
Ba5 Cl24 3.184375 1_565
Be0 Zr10 2.349743 1_555
Be0 Zr4 2.349743 1_555
Be0 Zr11 2.349743 1_555
Be0 Zr2 2.349743 1_555
Be0 Zr7 2.349743 1_555
Be0 Zr9 2.349743 1_555
Be1 Zr6 2.349743 1_554
Be1 Zr1 2.349743 1_445
Be1 Zr8 2.349743 1_545
Be1 Zr5 2.349743 1_454
Be1 Zr3 2.349743 1_455
Be1 Zr0 2.349743 1_544
Cl0 Zr4 2.614075 1_555
Cl0 Zr9 2.616015 1_555
Cl1 Zr2 2.736037 1_555
Cl2 Zr9 2.614075 1_555
Cl2 Zr2 2.616015 1_555
Cl3 Zr5 2.736037 1_555
Cl4 Zr10 2.567313 1_555
Cl4 Zr2 2.583064 1_555
Cl5 Zr4 2.736037 1_555
Cl6 Zr6 2.567313 1_555
Cl6 Zr5 2.583064 1_455
Cl7 Zr1 2.614075 1_555
Cl7 Zr0 2.616015 1_654
Cl8 Zr2 2.567313 1_555
Cl8 Zr7 2.583064 1_555
Cl9 Zr10 2.736037 1_555
Cl10 Zr9 2.736037 1_555
Cl11 Zr3 2.736037 1_555
Cl12 Zr8 2.567313 1_555
Cl12 Zr0 2.583064 1_554
Cl13 Zr7 2.567313 1_555
Cl13 Zr4 2.583064 1_555
Cl14 Zr8 2.614075 1_555
Cl14 Zr6 2.616015 1_564
Cl15 Zr5 2.614075 1_555
Cl15 Zr1 2.616015 1_546
Cl16 Zr4 2.567313 1_555
Cl16 Zr11 2.583064 1_555
Cl17 Zr7 2.614075 1_555
Cl17 Zr11 2.616015 1_555
Cl18 Zr6 2.614075 1_555
Cl18 Zr3 2.616015 1_456
Cl19 Zr10 2.614075 1_555
Cl19 Zr7 2.616015 1_555
Cl20 Zr3 2.614075 1_555
Cl20 Zr8 2.616015 1_645
Cl21 Zr1 2.567313 1_555
Cl21 Zr8 2.583064 1_655
Cl22 Zr0 2.614075 1_555
Cl22 Zr5 2.616015 1_465
Cl23 Zr0 2.567313 1_555
Cl23 Zr6 2.583064 1_565
Cl24 Zr6 2.736037 1_555
Cl25 Zr5 2.567313 1_555
Cl25 Zr3 2.583064 1_556
Cl26 Zr11 2.736037 1_555
Cl27 Zr1 2.736037 1_555
Cl28 Zr11 2.614075 1_555
Cl28 Zr10 2.616015 1_555
Cl29 Zr9 2.567313 1_555
Cl29 Zr10 2.583064 1_555
Cl30 Zr11 2.567313 1_555
Cl30 Zr9 2.583064 1_555
Cl31 Zr3 2.567313 1_555
Cl31 Zr1 2.583064 1_545
Cl32 Zr8 2.736037 1_555
Cl33 Zr2 2.614075 1_555
Cl33 Zr4 2.616015 1_555
Cl34 Zr7 2.736037 1_555
Cl35 Zr0 2.736037 1_555
