# generated using pymatgen
data_Ga4Fe3
_symmetry_space_group_name_H-M   'P 1'
_cell_length_a   6.32560105
_cell_length_b   6.32560105
_cell_length_c   7.84111013
_cell_angle_alpha   77.23665330
_cell_angle_beta   77.23665330
_cell_angle_gamma   74.59180508
_symmetry_Int_Tables_number   1
_chemical_formula_structural   Ga4Fe3
_chemical_formula_sum   'Ga12 Fe9'
_cell_volume   290.57331180
_cell_formula_units_Z   3
loop_
 _symmetry_equiv_pos_site_id
 _symmetry_equiv_pos_as_xyz
  1  'x, y, z'
loop_
 _atom_site_type_symbol
 _atom_site_label
 _atom_site_symmetry_multiplicity
 _atom_site_fract_x
 _atom_site_fract_y
 _atom_site_fract_z
 _atom_site_occupancy
  Ga  Ga0  1  0.27003600  0.27003600  0.91681100  1
  Ga  Ga1  1  0.72996400  0.72996400  0.08318900  1
  Ga  Ga2  1  0.04127700  0.04127700  0.65309800  1
  Ga  Ga3  1  0.95872300  0.95872300  0.34690200  1
  Ga  Ga4  1  0.40433600  0.81078300  0.84876400  1
  Ga  Ga5  1  0.81078300  0.40433600  0.84876400  1
  Ga  Ga6  1  0.59566400  0.18921700  0.15123600  1
  Ga  Ga7  1  0.18921700  0.59566400  0.15123600  1
  Ga  Ga8  1  0.16617100  0.53843400  0.55062800  1
  Ga  Ga9  1  0.53843400  0.16617100  0.55062800  1
  Ga  Ga10  1  0.83382900  0.46156600  0.44937200  1
  Ga  Ga11  1  0.46156600  0.83382900  0.44937200  1
  Fe  Fe0  1  0.00000000  0.00000000  0.00000000  1
  Fe  Fe1  1  0.49457200  0.49457200  0.68941300  1
  Fe  Fe2  1  0.50542800  0.50542800  0.31058700  1
  Fe  Fe3  1  0.22370900  0.22370900  0.35943400  1
  Fe  Fe4  1  0.77629100  0.77629100  0.64056600  1
  Fe  Fe5  1  0.93403200  0.33759000  0.15181200  1
  Fe  Fe6  1  0.33759000  0.93403200  0.15181200  1
  Fe  Fe7  1  0.06596800  0.66241000  0.84818800  1
  Fe  Fe8  1  0.66241000  0.06596800  0.84818800  1
loop_
_geom_bond_atom_site_label_1
_geom_bond_atom_site_label_2
_geom_bond_distance
_geom_bond_site_symmetry_2
Ga0 Ga7 2.929345 1_556
Ga0 Ga6 2.929345 1_556
Ga0 Ga4 2.935794 1_545
Ga0 Ga5 2.935794 1_455
Ga1 Ga4 2.929345 1_554
Ga1 Ga5 2.929345 1_554
Ga1 Ga7 2.935794 1_655
Ga1 Ga6 2.935794 1_565
Ga2 Ga3 2.750028 1_445
Ga2 Ga4 2.922850 1_545
Ga2 Ga5 2.922850 1_455
Ga3 Ga8 2.921932 1_655
Ga3 Ga9 2.921932 1_565
Ga3 Ga7 2.922850 1_655
Ga3 Ga6 2.922850 1_565
Ga4 Ga7 2.731359 1_556
Ga4 Ga9 3.008859 1_565
Ga4 Ga5 3.115726 1_555
Ga5 Ga6 2.731359 1_556
Ga5 Ga8 3.008859 1_655
Ga6 Ga9 3.047146 1_555
Ga6 Ga7 3.115726 1_555
Ga7 Ga8 3.047146 1_555
Ga10 Ga8 2.595681 1_655
Ga10 Ga2 2.921932 1_655
Ga10 Ga7 3.008859 1_655
Ga10 Ga5 3.047146 1_555
Ga11 Ga9 2.595681 1_565
Ga11 Ga2 2.921932 1_565
Ga11 Ga6 3.008859 1_565
Ga11 Ga4 3.047146 1_555
Fe0 Fe5 2.565441 1_455
Fe0 Fe6 2.565441 1_545
Fe0 Fe8 2.565441 1_454
Fe0 Fe7 2.565441 1_544
Fe0 Ga0 2.612815 1_554
Fe0 Ga1 2.612815 1_445
Fe0 Ga3 2.635124 1_445
Fe0 Ga2 2.635124 1_554
Fe0 Ga7 2.653448 1_545
Fe0 Ga6 2.653448 1_455
Fe0 Ga4 2.653448 1_544
Fe0 Ga5 2.653448 1_454
Fe1 Ga0 2.459253 1_555
Fe1 Ga4 2.463818 1_555
Fe1 Ga5 2.463818 1_555
Fe1 Ga8 2.477036 1_555
Fe1 Ga9 2.477036 1_555
Fe1 Ga11 2.518410 1_555
Fe1 Ga10 2.518410 1_555
Fe1 Fe4 2.753615 1_555
Fe2 Ga1 2.459253 1_555
Fe2 Ga7 2.463818 1_555
Fe2 Ga6 2.463818 1_555
Fe2 Ga11 2.477036 1_555
Fe2 Ga10 2.477036 1_555
Fe2 Ga8 2.518410 1_555
Fe2 Ga9 2.518410 1_555
Fe2 Fe3 2.753615 1_555
Fe3 Ga2 2.514965 1_555
Fe3 Ga7 2.536920 1_555
Fe3 Ga6 2.536920 1_555
Fe3 Ga11 2.563579 1_545
Fe3 Ga10 2.563579 1_455
Fe3 Fe6 2.573978 1_545
Fe3 Fe5 2.573978 1_455
Fe3 Ga9 2.652543 1_555
Fe3 Ga8 2.652543 1_555
Fe3 Ga3 2.695826 1_445
Fe4 Ga3 2.514965 1_555
Fe4 Ga5 2.536920 1_555
Fe4 Ga4 2.536920 1_555
Fe4 Ga8 2.563579 1_655
Fe4 Ga9 2.563579 1_565
Fe4 Fe8 2.573978 1_565
Fe4 Fe7 2.573978 1_655
Fe4 Ga10 2.652543 1_555
Fe4 Ga11 2.652543 1_555
Fe4 Ga2 2.695826 1_665
Fe5 Ga1 2.475975 1_555
Fe5 Ga0 2.496052 1_654
Fe5 Ga10 2.520214 1_555
Fe5 Ga3 2.528787 1_545
Fe5 Ga6 2.556511 1_555
Fe5 Ga5 2.575443 1_554
Fe5 Ga7 2.581555 1_655
Fe6 Ga1 2.475975 1_555
Fe6 Ga0 2.496052 1_564
Fe6 Ga11 2.520214 1_555
Fe6 Ga3 2.528787 1_455
Fe6 Ga7 2.556511 1_555
Fe6 Ga4 2.575443 1_554
Fe6 Ga6 2.581555 1_565
Fe7 Ga0 2.475975 1_555
Fe7 Ga1 2.496052 1_456
Fe7 Ga8 2.520214 1_555
Fe7 Ga2 2.528787 1_565
Fe7 Ga4 2.556511 1_555
Fe7 Ga7 2.575443 1_556
Fe7 Ga5 2.581555 1_455
Fe8 Ga0 2.475975 1_555
Fe8 Ga1 2.496052 1_546
Fe8 Ga9 2.520214 1_555
Fe8 Ga2 2.528787 1_655
Fe8 Ga5 2.556511 1_555
Fe8 Ga6 2.575443 1_556
Fe8 Ga4 2.581555 1_545
