# generated using pymatgen
data_Fe3BO5
_symmetry_space_group_name_H-M   'P 1'
_cell_length_a   3.04994525
_cell_length_b   5.44359825
_cell_length_c   10.73947992
_cell_angle_alpha   85.40283327
_cell_angle_beta   90.00000000
_cell_angle_gamma   90.00000000
_symmetry_Int_Tables_number   1
_chemical_formula_structural   Fe3BO5
_chemical_formula_sum   'Fe6 B2 O10'
_cell_volume   177.73047991
_cell_formula_units_Z   2
loop_
 _symmetry_equiv_pos_site_id
 _symmetry_equiv_pos_as_xyz
  1  'x, y, z'
loop_
 _atom_site_type_symbol
 _atom_site_label
 _atom_site_symmetry_multiplicity
 _atom_site_fract_x
 _atom_site_fract_y
 _atom_site_fract_z
 _atom_site_occupancy
  Fe  Fe0  1  0.50000000  0.71444475  0.22858150  1
  Fe  Fe1  1  0.50000000  0.28555525  0.77141850  1
  Fe  Fe2  1  -0.00000000  0.00000000  0.00000000  1
  Fe  Fe3  1  -0.00000000  0.50000000  0.00000000  1
  Fe  Fe4  1  0.50000000  0.00000000  0.50000000  1
  Fe  Fe5  1  -0.00000000  0.50000000  0.50000000  1
  B  B0  1  -0.00000000  0.79075811  0.73990221  1
  B  B1  1  -0.00000000  0.20924189  0.26009779  1
  O  O0  1  -0.00000000  0.18849586  0.38867071  1
  O  O1  1  0.50000000  0.30774905  0.59159133  1
  O  O2  1  -0.00000000  0.81150414  0.61132929  1
  O  O3  1  0.50000000  0.69225095  0.40840867  1
  O  O4  1  0.00000000  0.00047100  0.80400686  1
  O  O5  1  -0.00000000  -0.00047100  0.19599314  1
  O  O6  1  0.50000000  0.25575063  0.96399779  1
  O  O7  1  -0.00000000  0.56026786  0.80351868  1
  O  O8  1  -0.00000000  0.43973214  0.19648132  1
  O  O9  1  0.50000000  0.74424937  0.03600221  1
loop_
_geom_bond_atom_site_label_1
_geom_bond_atom_site_label_2
_geom_bond_distance
_geom_bond_site_symmetry_2
Fe0 O3 1.925337 1_555
Fe0 O9 2.061551 1_555
Fe0 O8 2.182504 1_655
Fe0 O8 2.182504 1_555
Fe0 O5 2.183875 1_565
Fe0 O5 2.183875 1_665
Fe1 O1 1.925337 1_555
Fe1 O6 2.061551 1_555
Fe1 O7 2.182504 1_555
Fe1 O7 2.182504 1_655
Fe1 O4 2.183875 1_555
Fe1 O4 2.183875 1_655
Fe2 O9 2.080139 1_445
Fe2 O9 2.080139 1_545
Fe2 O6 2.080139 1_454
Fe2 O6 2.080139 1_554
Fe2 O4 2.104660 1_554
Fe2 O5 2.104660 1_555
Fe3 O9 2.079728 1_455
Fe3 O9 2.079728 1_555
Fe3 O6 2.079728 1_554
Fe3 O6 2.079728 1_454
Fe3 O7 2.109316 1_554
Fe3 O8 2.109316 1_555
Fe4 O1 2.009529 1_555
Fe4 O3 2.009529 1_545
Fe4 O2 2.147384 1_545
Fe4 O2 2.147384 1_645
Fe4 O0 2.147384 1_555
Fe4 O0 2.147384 1_655
Fe5 O1 2.055072 1_455
Fe5 O1 2.055072 1_555
Fe5 O3 2.055072 1_455
Fe5 O3 2.055072 1_555
Fe5 O0 2.151722 1_555
Fe5 O2 2.151722 1_555
B0 O2 1.376366 1_555
B0 O4 1.379559 1_565
B0 O7 1.379719 1_555
B1 O0 1.376366 1_555
B1 O5 1.379559 1_555
B1 O8 1.379719 1_555
