# generated using pymatgen
data_CsAgF3
_symmetry_space_group_name_H-M   'P 1'
_cell_length_a   6.25349219
_cell_length_b   6.25349198
_cell_length_c   6.25349272
_cell_angle_alpha   91.29504521
_cell_angle_beta   119.25515595
_cell_angle_gamma   119.25513892
_symmetry_Int_Tables_number   1
_chemical_formula_structural   CsAgF3
_chemical_formula_sum   'Cs2 Ag2 F6'
_cell_volume   174.82153892
_cell_formula_units_Z   2
loop_
 _symmetry_equiv_pos_site_id
 _symmetry_equiv_pos_as_xyz
  1  'x, y, z'
loop_
 _atom_site_type_symbol
 _atom_site_label
 _atom_site_symmetry_multiplicity
 _atom_site_fract_x
 _atom_site_fract_y
 _atom_site_fract_z
 _atom_site_occupancy
  Cs  Cs0  1  0.00000000  0.75000000  0.75000000  1
  Cs  Cs1  1  0.00000000  0.25000000  0.25000000  1
  Ag  Ag0  1  0.50000000  0.50000000  0.00000000  1
  Ag  Ag1  1  0.50000000  0.00000000  0.50000000  1
  F  F0  1  0.03066090  0.26533145  0.76533145  1
  F  F1  1  0.50000000  0.23466855  0.26533145  1
  F  F2  1  0.50000000  0.25000000  0.75000000  1
  F  F3  1  0.96933910  0.73466855  0.23466855  1
  F  F4  1  0.50000000  0.76533145  0.73466855  1
  F  F5  1  0.50000000  0.75000000  0.25000000  1
loop_
_geom_bond_atom_site_label_1
_geom_bond_atom_site_label_2
_geom_bond_distance
_geom_bond_site_symmetry_2
Cs0 F0 3.129744 1_555
Cs0 F3 3.129745 1_456
Cs0 F1 3.129751 1_566
Cs0 F1 3.129751 1_455
Cs0 F4 3.129751 1_455
Cs0 F4 3.129751 1_555
Cs0 F0 3.129757 1_565
Cs0 F3 3.129757 1_455
Cs0 F5 3.161882 1_455
Cs0 F5 3.161882 1_556
Cs0 F2 3.161882 1_455
Cs0 F2 3.161882 1_565
Cs1 F3 3.129744 1_455
Cs1 F0 3.129745 1_554
Cs1 F4 3.129751 1_444
Cs1 F4 3.129751 1_555
Cs1 F1 3.129751 1_555
Cs1 F1 3.129751 1_455
Cs1 F3 3.129757 1_445
Cs1 F0 3.129757 1_555
Cs1 F2 3.161882 1_555
Cs1 F2 3.161882 1_454
Cs1 F5 3.161882 1_555
Cs1 F5 3.161882 1_445
Ag0 F3 2.098686 1_555
Ag0 F0 2.098686 1_554
Ag0 F2 2.185816 1_554
Ag0 F5 2.185816 1_555
Ag0 F1 2.372900 1_555
Ag0 F4 2.372900 1_554
Ag1 F4 2.098677 1_545
Ag1 F1 2.098677 1_555
Ag1 F2 2.185816 1_555
Ag1 F5 2.185816 1_545
Ag1 F0 2.372891 1_655
Ag1 F3 2.372891 1_445
