# generated using pymatgen
data_Ag3AsS3
_symmetry_space_group_name_H-M   'P 1'
_cell_length_a   6.79871743
_cell_length_b   6.79871743
_cell_length_c   16.97842039
_cell_angle_alpha   72.37011292
_cell_angle_beta   72.37011292
_cell_angle_gamma   55.71767178
_symmetry_Int_Tables_number   1
_chemical_formula_structural   Ag3AsS3
_chemical_formula_sum   'Ag12 As4 S12'
_cell_volume   609.21065518
_cell_formula_units_Z   4
loop_
 _symmetry_equiv_pos_site_id
 _symmetry_equiv_pos_as_xyz
  1  'x, y, z'
loop_
 _atom_site_type_symbol
 _atom_site_label
 _atom_site_symmetry_multiplicity
 _atom_site_fract_x
 _atom_site_fract_y
 _atom_site_fract_z
 _atom_site_occupancy
  Ag  Ag0  1  0.89814058  0.83355002  0.21477365  1
  Ag  Ag1  1  0.16644998  0.10185942  0.28522635  1
  Ag  Ag2  1  0.68372047  0.59680542  0.13409335  1
  Ag  Ag3  1  0.31627953  0.40319458  0.86590665  1
  Ag  Ag4  1  0.01566939  0.85320851  0.93848258  1
  Ag  Ag5  1  0.85320851  0.01566939  0.43848258  1
  Ag  Ag6  1  0.10185942  0.16644998  0.78522635  1
  Ag  Ag7  1  0.14679149  0.98433061  0.56151742  1
  Ag  Ag8  1  0.40319458  0.31627953  0.36590665  1
  Ag  Ag9  1  0.98433061  0.14679149  0.06151742  1
  Ag  Ag10  1  0.83355002  0.89814058  0.71477365  1
  Ag  Ag11  1  0.59680542  0.68372047  0.63409335  1
  As  As0  1  0.40998643  0.29811984  0.07243357  1
  As  As1  1  0.70188016  0.59001357  0.42756643  1
  As  As2  1  0.29811984  0.40998643  0.57243357  1
  As  As3  1  0.59001357  0.70188016  0.92756643  1
  S  S0  1  0.35017250  0.96138679  0.41349770  1
  S  S1  1  0.56936740  0.28270110  0.17477064  1
  S  S2  1  0.98182974  0.69276914  0.35932295  1
  S  S3  1  0.30723086  0.01817026  0.14067705  1
  S  S4  1  0.71729890  0.43063260  0.32522936  1
  S  S5  1  0.01817026  0.30723086  0.64067705  1
  S  S6  1  0.69276914  0.98182974  0.85932295  1
  S  S7  1  0.43063260  0.71729890  0.82522936  1
  S  S8  1  0.96138679  0.35017250  0.91349770  1
  S  S9  1  0.03861321  0.64982750  0.08650230  1
  S  S10  1  0.64982750  0.03861321  0.58650230  1
  S  S11  1  0.28270110  0.56936740  0.67477064  1
loop_
_geom_bond_atom_site_label_1
_geom_bond_atom_site_label_2
_geom_bond_distance
_geom_bond_site_symmetry_2
Ag0 S2 2.464244 1_555
Ag0 S9 2.501865 1_655
Ag0 S1 2.599288 1_565
Ag1 S3 2.464244 1_555
Ag1 S0 2.501865 1_545
Ag1 S4 2.599288 1_455
Ag2 S9 2.495393 1_655
Ag2 S1 2.508693 1_555
Ag2 S3 2.555593 1_565
Ag2 S4 3.130036 1_555
Ag3 S8 2.495393 1_455
Ag3 S7 2.508693 1_555
Ag3 S6 2.555593 1_545
Ag3 S11 3.130036 1_555
Ag4 S9 2.478247 1_556
Ag4 S6 2.510595 1_455
Ag4 S7 2.713667 1_555
Ag5 S10 2.478247 1_555
Ag5 S2 2.510595 1_545
Ag5 S4 2.713667 1_555
Ag6 S5 2.464244 1_555
Ag6 S8 2.501865 1_455
Ag6 S7 2.599288 1_545
Ag7 S0 2.478247 1_555
Ag7 S5 2.510595 1_565
Ag7 S11 2.713667 1_555
Ag8 S0 2.495393 1_545
Ag8 S4 2.508693 1_555
Ag8 S2 2.555593 1_455
Ag8 S1 3.130036 1_555
Ag9 S8 2.478247 1_554
Ag9 S3 2.510595 1_655
Ag9 S1 2.713667 1_555
Ag10 S6 2.464244 1_555
Ag10 S10 2.501865 1_565
Ag10 S11 2.599288 1_655
Ag11 S10 2.495393 1_565
Ag11 S11 2.508693 1_555
Ag11 S5 2.555593 1_655
Ag11 S7 3.130036 1_555
As0 S1 2.259709 1_555
As0 S3 2.263821 1_555
As0 S9 2.308453 1_555
As1 S4 2.259709 1_555
As1 S2 2.263821 1_555
As1 S0 2.308453 1_555
As2 S11 2.259709 1_555
As2 S5 2.263821 1_555
As2 S10 2.308453 1_555
As3 S7 2.259709 1_555
As3 S6 2.263821 1_555
As3 S8 2.308453 1_555
