# generated using pymatgen
data_BaBe2(BO3)2
_symmetry_space_group_name_H-M   'P 1'
_cell_length_a   8.81518280
_cell_length_b   7.27290530
_cell_length_c   6.74717240
_cell_angle_alpha   77.81674129
_cell_angle_beta   53.75159845
_cell_angle_gamma   48.43166026
_symmetry_Int_Tables_number   1
_chemical_formula_structural   BaBe2(BO3)2
_chemical_formula_sum   'Ba2 Be4 B4 O12'
_cell_volume   248.94105399
_cell_formula_units_Z   2
loop_
 _symmetry_equiv_pos_site_id
 _symmetry_equiv_pos_as_xyz
  1  'x, y, z'
loop_
 _atom_site_type_symbol
 _atom_site_label
 _atom_site_symmetry_multiplicity
 _atom_site_fract_x
 _atom_site_fract_y
 _atom_site_fract_z
 _atom_site_occupancy
  Ba  Ba0  1  0.25000000  0.25000000  0.25000000  1
  Ba  Ba1  1  0.00000000  0.00000000  0.00000000  1
  Be  Be0  1  0.40747100  0.40747100  0.59252900  1
  Be  Be1  1  0.84252900  0.84252900  0.65747100  1
  Be  Be2  1  0.65747100  0.65747100  0.84252900  1
  Be  Be3  1  0.59252900  0.59252900  0.40747100  1
  B  B0  1  0.28592100  0.71407900  0.28592100  1
  B  B1  1  0.53592100  0.96407900  0.53592100  1
  B  B2  1  0.71407900  0.28592100  0.71407900  1
  B  B3  1  0.96407900  0.53592100  0.96407900  1
  O  O0  1  0.59734800  0.40265200  0.59734800  1
  O  O1  1  0.15640900  0.52123900  0.88795900  1
  O  O2  1  0.72876100  0.09359100  0.81560700  1
  O  O3  1  0.43439300  0.88795900  0.52123900  1
  O  O4  1  0.09359100  0.72876100  0.36204100  1
  O  O5  1  0.88795900  0.43439300  0.15640900  1
  O  O6  1  0.40265200  0.59734800  0.40265200  1
  O  O7  1  0.84734800  0.65265200  0.84734800  1
  O  O8  1  0.81560700  0.36204100  0.72876100  1
  O  O9  1  0.36204100  0.81560700  0.09359100  1
  O  O10  1  0.65265200  0.84734800  0.65265200  1
  O  O11  1  0.52123900  0.15640900  0.43439300  1
loop_
_geom_bond_atom_site_label_1
_geom_bond_atom_site_label_2
_geom_bond_distance
_geom_bond_site_symmetry_2
Ba0 O4 2.846795 1_555
Ba0 O2 2.846795 1_554
Ba0 O8 2.846795 1_455
Ba0 O9 2.846795 1_545
Ba0 O1 2.954459 1_554
Ba0 O5 2.954459 1_455
Ba0 O3 2.954459 1_545
Ba0 O11 2.954459 1_555
Ba1 O11 2.846795 1_455
Ba1 O1 2.846795 1_544
Ba1 O5 2.846795 1_455
Ba1 O3 2.846795 1_544
Ba1 O9 2.954459 1_545
Ba1 O4 2.954459 1_545
Ba1 O2 2.954459 1_454
Ba1 O8 2.954459 1_454
Be0 O11 1.614038 1_555
Be0 O1 1.614038 1_555
Be0 O6 1.670306 1_555
Be0 O0 1.670306 1_555
Be1 O2 1.614038 1_565
Be1 O4 1.614038 1_655
Be1 O7 1.670306 1_555
Be1 O10 1.670306 1_555
Be2 O9 1.614038 1_556
Be2 O8 1.614038 1_555
Be2 O10 1.670306 1_555
Be2 O7 1.670306 1_555
Be3 O5 1.614038 1_555
Be3 O3 1.614038 1_555
Be3 O0 1.670306 1_555
Be3 O6 1.670306 1_555
B0 O4 1.379424 1_555
B0 O9 1.379424 1_555
B0 O6 1.384497 1_555
B1 O3 1.379424 1_555
B1 O11 1.379424 1_565
B1 O10 1.384497 1_555
B2 O8 1.379424 1_555
B2 O2 1.379424 1_555
B2 O0 1.384497 1_555
B3 O5 1.379424 1_556
B3 O1 1.379424 1_655
B3 O7 1.384497 1_555
