# generated using pymatgen
data_Rb4CO4
_symmetry_space_group_name_H-M   'P 1'
_cell_length_a   5.76369600
_cell_length_b   7.05994700
_cell_length_c   8.58582176
_cell_angle_alpha   88.76893469
_cell_angle_beta   90.00000000
_cell_angle_gamma   90.00000000
_symmetry_Int_Tables_number   1
_chemical_formula_structural   Rb4CO4
_chemical_formula_sum   'Rb8 C2 O8'
_cell_volume   349.28836641
_cell_formula_units_Z   2
loop_
 _symmetry_equiv_pos_site_id
 _symmetry_equiv_pos_as_xyz
  1  'x, y, z'
loop_
 _atom_site_type_symbol
 _atom_site_label
 _atom_site_symmetry_multiplicity
 _atom_site_fract_x
 _atom_site_fract_y
 _atom_site_fract_z
 _atom_site_occupancy
  Rb  Rb0  1  0.23890600  0.87550600  0.59077300  1
  Rb  Rb1  1  0.74311700  0.54777000  0.58786100  1
  Rb  Rb2  1  0.24683500  0.00972600  0.16185700  1
  Rb  Rb3  1  0.19617200  0.58442000  0.05376100  1
  Rb  Rb4  1  0.74683500  0.99027400  0.83814300  1
  Rb  Rb5  1  0.69617200  0.41558000  0.94623900  1
  Rb  Rb6  1  0.24311700  0.45223000  0.41213900  1
  Rb  Rb7  1  0.73890600  0.12449400  0.40922700  1
  C  C0  1  0.72819900  0.70596400  0.25799400  1
  C  C1  1  0.22819900  0.29403600  0.74200600  1
  O  O0  1  0.72628600  0.49833100  0.25892100  1
  O  O1  1  0.93706700  0.76814800  0.33016900  1
  O  O2  1  0.22628600  0.50166900  0.74107900  1
  O  O3  1  0.21790800  0.22279000  0.90015500  1
  O  O4  1  0.53222100  0.77123400  0.34287200  1
  O  O5  1  0.03222100  0.22876600  0.65712800  1
  O  O6  1  0.71790800  0.77721000  0.09984500  1
  O  O7  1  0.43706700  0.23185200  0.66983100  1
loop_
_geom_bond_atom_site_label_1
_geom_bond_atom_site_label_2
_geom_bond_distance
_geom_bond_site_symmetry_2
C0 O4 1.426093 1_555
C0 O1 1.427476 1_555
C0 O6 1.439062 1_555
C0 O0 1.465770 1_555
C1 O5 1.426093 1_555
C1 O7 1.427476 1_555
C1 O3 1.439062 1_555
C1 O2 1.465770 1_555
O0 Rb5 2.765154 1_554
O0 Rb1 2.854788 1_555
O0 Rb7 2.913773 1_555
O0 Rb6 3.094093 1_555
O0 Rb6 3.269812 1_655
O1 Rb2 2.842342 1_665
O1 Rb7 2.857931 1_565
O1 Rb1 2.901302 1_555
O1 Rb6 2.917877 1_655
O1 Rb0 2.946241 1_655
O2 Rb3 2.765154 1_556
O2 Rb6 2.854788 1_555
O2 Rb0 2.913773 1_555
O2 Rb1 3.094093 1_455
O2 Rb1 3.269812 1_555
O3 Rb2 2.682150 1_556
O3 Rb3 2.901372 1_556
O4 Rb2 2.800640 1_565
O4 Rb0 2.827992 1_555
O4 Rb7 2.832802 1_565
O4 Rb6 2.853927 1_555
O4 Rb1 2.871991 1_555
O5 Rb4 2.800640 1_445
O5 Rb7 2.827992 1_455
O5 Rb0 2.832802 1_545
O5 Rb1 2.853927 1_455
O5 Rb6 2.871991 1_555
O6 Rb4 2.682150 1_554
O6 Rb5 2.901372 1_554
O7 Rb4 2.842342 1_545
O7 Rb0 2.857931 1_545
O7 Rb6 2.901302 1_555
O7 Rb1 2.917877 1_555
O7 Rb7 2.946241 1_555
