# generated using pymatgen
data_Ba2Cu(PO3)6
_symmetry_space_group_name_H-M   'P 1'
_cell_length_a   7.44073300
_cell_length_b   9.68960600
_cell_length_c   21.70218261
_cell_angle_alpha   81.96689992
_cell_angle_beta   90.00000000
_cell_angle_gamma   90.00000000
_symmetry_Int_Tables_number   1
_chemical_formula_structural   Ba2Cu(PO3)6
_chemical_formula_sum   'Ba8 Cu4 P24 O72'
_cell_volume   1549.32558611
_cell_formula_units_Z   4
loop_
 _symmetry_equiv_pos_site_id
 _symmetry_equiv_pos_as_xyz
  1  'x, y, z'
loop_
 _atom_site_type_symbol
 _atom_site_label
 _atom_site_symmetry_multiplicity
 _atom_site_fract_x
 _atom_site_fract_y
 _atom_site_fract_z
 _atom_site_occupancy
  Ba  Ba0  1  0.85172100  0.27811200  0.98888000  1
  Ba  Ba1  1  0.64827900  0.27811200  0.48888000  1
  Ba  Ba2  1  0.35172100  0.72188800  0.51112000  1
  Ba  Ba3  1  0.61314600  0.87540700  0.11565500  1
  Ba  Ba4  1  0.11314600  0.12459300  0.38434500  1
  Ba  Ba5  1  0.14827900  0.72188800  0.01112000  1
  Ba  Ba6  1  0.38685400  0.12459300  0.88434500  1
  Ba  Ba7  1  0.88685400  0.87540700  0.61565500  1
  Cu  Cu0  1  0.66953500  0.62226800  0.74618000  1
  Cu  Cu1  1  0.16953500  0.37773200  0.75382000  1
  Cu  Cu2  1  0.83046500  0.62226800  0.24618000  1
  Cu  Cu3  1  0.33046500  0.37773200  0.25382000  1
  P  P0  1  0.54146700  0.53909600  0.89405800  1
  P  P1  1  0.38974600  0.02607000  0.61303600  1
  P  P2  1  0.44301100  0.89929300  0.74264200  1
  P  P3  1  0.45853300  0.46090400  0.10594200  1
  P  P4  1  0.55698900  0.10070700  0.25735800  1
  P  P5  1  0.88974600  0.97393000  0.88696400  1
  P  P6  1  0.64264200  0.31950000  0.74695800  1
  P  P7  1  0.64572400  0.47722500  0.62134600  1
  P  P8  1  0.85427600  0.47722500  0.12134600  1
  P  P9  1  0.61025400  0.97393000  0.38696400  1
  P  P10  1  0.14572400  0.52277500  0.87865400  1
  P  P11  1  0.94301100  0.10070700  0.75735800  1
  P  P12  1  0.85735800  0.31950000  0.24695800  1
  P  P13  1  0.95853300  0.53909600  0.39405800  1
  P  P14  1  0.35735800  0.68050000  0.25304200  1
  P  P15  1  0.65897000  0.77373700  0.96062500  1
  P  P16  1  0.15897000  0.22626300  0.53937500  1
  P  P17  1  0.05698900  0.89929300  0.24264200  1
  P  P18  1  0.34103000  0.22626300  0.03937500  1
  P  P19  1  0.11025400  0.02607000  0.11303600  1
  P  P20  1  0.84103000  0.77373700  0.46062500  1
  P  P21  1  0.35427600  0.52277500  0.37865400  1
  P  P22  1  0.14264200  0.68050000  0.75304200  1
  P  P23  1  0.04146700  0.46090400  0.60594200  1
  O  O0  1  0.42829400  0.95053500  0.41736600  1
  O  O1  1  0.92021700  0.62175700  0.33172000  1
  O  O2  1  0.63006200  0.61411100  0.94886200  1
  O  O3  1  0.96331100  0.70531100  0.72273600  1
  O  O4  1  0.23669700  0.56487500  0.23601000  1
  O  O5  1  0.83106900  0.43505200  0.58912200  1
  O  O6  1  0.08972400  0.02564800  0.18719200  1
  O  O7  1  0.61096200  0.34245400  0.67225000  1
  O  O8  1  0.72148000  0.09462300  0.40277700  1
  O  O9  1  0.42021700  0.37824300  0.16828000  1
  O  O10  1  0.74894500  0.17805200  0.25837500  1
  O  O11  1  0.07978300  0.37824300  0.66828000  1
  O  O12  1  0.73669700  0.43512500  0.26399000  1
  O  O13  1  0.01907000  0.84705500  0.46303300  1
  O  O14  1  0.59101300  0.81199500  0.71902000  1
  O  O15  1  0.76330300  0.43512500  0.76399000  1
  O  O16  1  0.88903800  0.34245400  0.17225000  1
  O  O17  1  0.53869000  0.04476000  0.19763500  1
  O  O18  1  0.72796000  0.83219200  0.39916000  1
  O  O19  1  0.46131000  0.95524000  0.80236500  1
  O  O20  1  0.49145300  0.52323600  0.42901700  1
  O  O21  1  0.21913100  0.22991300  0.98363400  1
  O  O22  1  0.53668900  0.70531100  0.22273600  1
  O  O23  1  0.07170600  0.95053500  0.91736600  1
  O  O24  1  0.96131000  0.04476000  0.69763500  1
  O  O25  1  0.17026800  0.39338300  0.84783300  1
  O  O26  1  0.82973200  0.60661700  0.15216700  1
  O  O27  1  0.00854700  0.52323600  0.92901700  1
  O  O28  1  0.86993800  0.61411100  0.44886200  1
  O  O29  1  0.33106900  0.56494800  0.91087800  1
  O  O30  1  0.57978300  0.62175700  0.83172000  1
  O  O31  1  0.77852000  0.09462300  0.90277700  1
  O  O32  1  0.24894500  0.82194800  0.24162500  1
  O  O33  1  0.46331100  0.29468900  0.77726400  1
  O  O34  1  0.08452100  0.61290500  0.59075600  1
  O  O35  1  0.09101300  0.18800500  0.78098000  1
  O  O36  1  0.58452100  0.38709500  0.90924400  1
  O  O37  1  0.38903800  0.65754600  0.32775000  1
  O  O38  1  0.03869000  0.95524000  0.30236500  1
  O  O39  1  0.51907000  0.15294500  0.03696700  1
  O  O40  1  0.90898700  0.81199500  0.21901900  1
  O  O41  1  0.13006200  0.38588900  0.55113800  1
  O  O42  1  0.25105500  0.82194800  0.74162500  1
  O  O43  1  0.40898700  0.18800500  0.28098000  1
  O  O44  1  0.41027600  0.02564800  0.68719200  1
  O  O45  1  0.32973200  0.39338300  0.34783300  1
  O  O46  1  0.16893100  0.56494800  0.41087800  1
  O  O47  1  0.58972400  0.97435200  0.31280800  1
  O  O48  1  0.48093000  0.84705500  0.96303300  1
  O  O49  1  0.26330300  0.56487500  0.73601000  1
  O  O50  1  0.03668900  0.29468900  0.27726400  1
  O  O51  1  0.11096200  0.65754600  0.82775000  1
  O  O52  1  0.27204000  0.16780800  0.60084000  1
  O  O53  1  0.71913100  0.77008700  0.51636600  1
  O  O54  1  0.91547900  0.38709500  0.40924400  1
  O  O55  1  0.91027600  0.97435200  0.81280800  1
  O  O56  1  0.92829400  0.04946500  0.08263400  1
  O  O57  1  0.57170600  0.04946500  0.58263400  1
  O  O58  1  0.27852000  0.90537700  0.59722300  1
  O  O59  1  0.99145300  0.47676400  0.07098300  1
  O  O60  1  0.36993800  0.38588900  0.05113800  1
  O  O61  1  0.66893100  0.43505200  0.08912200  1
  O  O62  1  0.28086900  0.22991300  0.48363400  1
  O  O63  1  0.67026800  0.60661700  0.65216700  1
  O  O64  1  0.22796000  0.16780800  0.10084000  1
  O  O65  1  0.22148000  0.90537700  0.09722300  1
  O  O66  1  0.75105500  0.17805200  0.75837500  1
  O  O67  1  0.78086900  0.77008700  0.01636600  1
  O  O68  1  0.41547900  0.61290500  0.09075600  1
  O  O69  1  0.50854700  0.47676400  0.57098300  1
  O  O70  1  0.98093000  0.15294500  0.53696700  1
  O  O71  1  0.77204000  0.83219200  0.89916000  1
loop_
_geom_bond_atom_site_label_1
_geom_bond_atom_site_label_2
_geom_bond_distance
_geom_bond_site_symmetry_2
Ba0 O36 2.746777 1_555
Ba0 O21 2.778417 1_655
Ba0 O27 2.797929 1_655
Ba0 O31 2.806781 1_555
Ba0 O56 2.848340 1_556
Ba0 O39 2.886645 1_556
Ba0 O59 2.986557 1_556
Ba0 O61 3.133627 1_556
Ba1 O54 2.746777 1_555
Ba1 O62 2.778417 1_555
Ba1 O20 2.797929 1_555
Ba1 O8 2.806781 1_555
Ba1 O57 2.848340 1_555
Ba1 O70 2.886645 1_555
Ba1 O69 2.986557 1_555
Ba1 O5 3.133627 1_555
Ba2 O34 2.746777 1_555
Ba2 O53 2.778417 1_555
Ba2 O69 2.797929 1_555
Ba2 O58 2.806781 1_555
Ba2 O0 2.848340 1_555
Ba2 O13 2.886645 1_555
Ba2 O20 2.986557 1_555
Ba2 O46 3.133627 1_555
Ba3 O17 2.642162 1_565
Ba3 O22 2.714786 1_555
Ba3 O67 2.802963 1_555
Ba3 O56 2.918720 1_565
Ba3 O65 2.950410 1_555
Ba3 O68 3.051057 1_555
Ba3 O39 3.058542 1_565
Ba3 O26 3.071069 1_555
Ba3 O40 3.141651 1_555
Ba4 O38 2.642162 1_545
Ba4 O50 2.714786 1_555
Ba4 O62 2.802963 1_555
Ba4 O0 2.918720 1_545
Ba4 O8 2.950410 1_455
Ba4 O54 3.051057 1_455
Ba4 O13 3.058542 1_545
Ba4 O45 3.071069 1_555
Ba4 O43 3.141665 1_555
Ba5 O68 2.746777 1_555
Ba5 O67 2.778417 1_455
Ba5 O59 2.797929 1_455
Ba5 O65 2.806781 1_555
Ba5 O23 2.848340 1_554
Ba5 O48 2.886645 1_554
Ba5 O27 2.986557 1_554
Ba5 O29 3.133627 1_554
Ba6 O19 2.642162 1_545
Ba6 O33 2.714786 1_555
Ba6 O21 2.802963 1_555
Ba6 O23 2.918720 1_545
Ba6 O31 2.950410 1_555
Ba6 O36 3.051057 1_555
Ba6 O48 3.058542 1_545
Ba6 O25 3.071069 1_555
Ba6 O35 3.141665 1_555
Ba7 O24 2.642162 1_565
Ba7 O3 2.714786 1_555
Ba7 O53 2.802963 1_555
Ba7 O57 2.918720 1_565
Ba7 O58 2.950410 1_655
Ba7 O34 3.051057 1_655
Ba7 O70 3.058542 1_565
Ba7 O63 3.071069 1_555
Ba7 O14 3.141665 1_555
Cu0 O15 1.930933 1_555
Cu0 O14 1.940509 1_555
Cu0 O30 1.972227 1_555
Cu0 O63 2.066949 1_555
Cu0 O3 2.360107 1_555
Cu1 O49 1.930933 1_555
Cu1 O35 1.940509 1_555
Cu1 O11 1.972227 1_555
Cu1 O25 2.066949 1_555
Cu1 O33 2.360107 1_555
Cu2 O12 1.930933 1_555
Cu2 O40 1.940513 1_555
Cu2 O1 1.972227 1_555
Cu2 O26 2.066949 1_555
Cu2 O22 2.360107 1_555
Cu3 O4 1.930933 1_555
Cu3 O43 1.940509 1_555
Cu3 O9 1.972227 1_555
Cu3 O45 2.066949 1_555
Cu3 O50 2.360107 1_555
O0 P9 1.509303 1_555
O1 P13 1.500071 1_555
O2 P15 1.616822 1_555
O2 P0 1.618366 1_555
O3 P22 1.492207 1_655
O4 P14 1.521064 1_555
O5 P7 1.624145 1_555
O5 P23 1.634745 1_655
O6 P17 1.610796 1_545
O6 P19 1.616017 1_555
O7 P7 1.609173 1_555
O7 P6 1.622636 1_555
O8 P9 1.510801 1_545
O9 P3 1.500071 1_555
O10 P12 1.579771 1_555
O10 P4 1.614558 1_555
O11 P23 1.500071 1_555
O12 P12 1.521064 1_555
O13 P20 1.507569 1_455
O14 P2 1.520613 1_555
O15 P6 1.521064 1_555
O16 P8 1.609173 1_555
O16 P12 1.622636 1_555
O17 P4 1.479433 1_555
O18 P20 1.611468 1_555
O18 P9 1.619168 1_555
O19 P2 1.479433 1_555
O20 P21 1.495937 1_555
O21 P18 1.508427 1_556
O22 P14 1.492207 1_555
O23 P5 1.509303 1_455
O24 P11 1.479433 1_555
O25 P10 1.512299 1_555
O26 P8 1.512299 1_555
O27 P10 1.495937 1_555
O28 P20 1.616822 1_555
O28 P13 1.618366 1_555
O29 P10 1.624145 1_555
O29 P0 1.634745 1_555
O30 P0 1.500071 1_555
O31 P5 1.510801 1_545
O32 P14 1.579771 1_555
O32 P17 1.614558 1_555
O33 P6 1.492207 1_555
O34 P23 1.498267 1_555
O35 P11 1.520613 1_455
O36 P0 1.498267 1_555
O37 P21 1.609173 1_555
O37 P14 1.622636 1_555
O38 P17 1.479433 1_555
O39 P18 1.507569 1_555
O40 P17 1.520622 1_655
O41 P16 1.616822 1_555
O41 P23 1.618366 1_555
O42 P22 1.579771 1_555
O42 P2 1.614558 1_555
O43 P4 1.520613 1_555
O44 P2 1.610796 1_545
O44 P1 1.616017 1_555
O45 P21 1.512299 1_555
O46 P21 1.624145 1_555
O46 P13 1.634745 1_455
O47 P4 1.610796 1_565
O47 P9 1.616017 1_555
O48 P15 1.507569 1_555
O49 P22 1.521064 1_555
O50 P12 1.492207 1_455
O51 P10 1.609173 1_555
O51 P22 1.622636 1_555
O52 P16 1.611468 1_555
O52 P1 1.619168 1_555
O53 P20 1.508427 1_555
O54 P13 1.498267 1_555
O55 P11 1.610796 1_565
O55 P5 1.616017 1_555
O56 P19 1.509303 1_655
O57 P1 1.509303 1_555
O58 P1 1.510801 1_565
O59 P8 1.495937 1_555
O60 P18 1.616822 1_555
O60 P3 1.618366 1_555
O61 P8 1.624145 1_555
O61 P3 1.634745 1_555
O62 P16 1.508427 1_555
O63 P7 1.512299 1_555
O64 P18 1.611468 1_555
O64 P19 1.619168 1_555
O65 P19 1.510801 1_565
O66 P6 1.579771 1_555
O66 P11 1.614558 1_555
O67 P15 1.508427 1_554
O68 P3 1.498267 1_555
O69 P7 1.495937 1_555
O70 P16 1.507569 1_655
O71 P15 1.611468 1_555
O71 P5 1.619168 1_555
