# generated using pymatgen
data_Na2TiSiO5
_symmetry_space_group_name_H-M   'P 1'
_cell_length_a   4.76220174
_cell_length_b   9.14458260
_cell_length_c   9.77865342
_cell_angle_alpha   90.00000000
_cell_angle_beta   90.00000000
_cell_angle_gamma   90.00000000
_symmetry_Int_Tables_number   1
_chemical_formula_structural   Na2TiSiO5
_chemical_formula_sum   'Na8 Ti4 Si4 O20'
_cell_volume   425.84419398
_cell_formula_units_Z   4
loop_
 _symmetry_equiv_pos_site_id
 _symmetry_equiv_pos_as_xyz
  1  'x, y, z'
loop_
 _atom_site_type_symbol
 _atom_site_label
 _atom_site_symmetry_multiplicity
 _atom_site_fract_x
 _atom_site_fract_y
 _atom_site_fract_z
 _atom_site_occupancy
  Na  Na0  1  0.00454163  0.25060154  0.49749656  1
  Na  Na1  1  0.00554615  0.50000000  0.24892143  1
  Na  Na2  1  0.99445385  0.50000000  0.74892143  1
  Na  Na3  1  0.40118375  0.00000000  0.99398351  1
  Na  Na4  1  0.99545837  0.25060154  0.99749656  1
  Na  Na5  1  0.99545837  0.74939846  0.99749656  1
  Na  Na6  1  0.59881625  0.00000000  0.49398351  1
  Na  Na7  1  0.00454163  0.74939846  0.49749656  1
  Ti  Ti0  1  0.53866097  0.50000000  0.00081411  1
  Ti  Ti1  1  0.97444955  0.00000000  0.21493373  1
  Ti  Ti2  1  0.02555045  0.00000000  0.71493373  1
  Ti  Ti3  1  0.46133903  0.50000000  0.50081411  1
  Si  Si0  1  0.50562803  0.74985011  0.25060161  1
  Si  Si1  1  0.49437197  0.25014989  0.75060161  1
  Si  Si2  1  0.50562803  0.25014989  0.25060161  1
  Si  Si3  1  0.49437197  0.74985011  0.75060161  1
  O  O0  1  0.64495213  0.64787420  0.86523600  1
  O  O1  1  0.24977389  0.14751126  0.81792121  1
  O  O2  1  0.73795808  0.14905124  0.68241378  1
  O  O3  1  0.82375218  0.50000000  0.50166316  1
  O  O4  1  0.65372396  0.35380581  0.13683962  1
  O  O5  1  0.34627604  0.35380581  0.63683962  1
  O  O6  1  0.64495213  0.35212580  0.86523600  1
  O  O7  1  0.24977389  0.85248874  0.81792121  1
  O  O8  1  0.65372396  0.64619419  0.13683962  1
  O  O9  1  0.34627604  0.64619419  0.63683962  1
  O  O10  1  0.84895460  0.00000000  0.05026651  1
  O  O11  1  0.26204192  0.85094876  0.18241378  1
  O  O12  1  0.35504787  0.64787420  0.36523600  1
  O  O13  1  0.26204192  0.14905124  0.18241378  1
  O  O14  1  0.75022611  0.14751126  0.31792121  1
  O  O15  1  0.73795808  0.85094876  0.68241378  1
  O  O16  1  0.15104540  0.00000000  0.55026651  1
  O  O17  1  0.75022611  0.85248874  0.31792121  1
  O  O18  1  0.17624782  0.50000000  0.00166316  1
  O  O19  1  0.35504787  0.35212580  0.36523600  1
loop_
_geom_bond_atom_site_label_1
_geom_bond_atom_site_label_2
_geom_bond_distance
_geom_bond_site_symmetry_2
Na0 O19 2.306684 1_555
Na0 O5 2.322883 1_555
Na0 O14 2.332175 1_455
Na0 O2 2.396621 1_455
Na0 O3 2.438082 1_455
Na0 O16 2.450444 1_555
Na1 O4 2.407410 1_455
Na1 O8 2.407410 1_455
Na1 O12 2.427442 1_555
Na1 O19 2.427442 1_555
Na1 O18 2.550852 1_555
Na1 O3 2.618719 1_455
Na2 O5 2.407410 1_655
Na2 O9 2.407410 1_655
Na2 O0 2.427442 1_555
Na2 O6 2.427442 1_555
Na2 O3 2.550852 1_555
Na2 O18 2.618719 1_656
Na3 O10 2.202256 1_556
Na3 O1 2.302955 1_555
Na3 O7 2.302955 1_545
Na3 O11 2.385796 1_546
Na3 O13 2.385796 1_556
Na3 O10 2.686801 1_456
Na4 O6 2.306684 1_555
Na4 O4 2.322883 1_556
Na4 O1 2.332175 1_655
Na4 O13 2.396621 1_656
Na4 O18 2.438082 1_656
Na4 O10 2.450444 1_556
Na5 O0 2.306684 1_555
Na5 O8 2.322883 1_556
Na5 O7 2.332175 1_655
Na5 O11 2.396621 1_656
Na5 O18 2.438082 1_656
Na5 O10 2.450444 1_566
Na6 O16 2.202256 1_555
Na6 O14 2.302955 1_555
Na6 O17 2.302955 1_545
Na6 O2 2.385796 1_555
Na6 O15 2.385796 1_545
Na6 O16 2.686801 1_655
Na7 O12 2.306684 1_555
Na7 O9 2.322883 1_555
Na7 O17 2.332175 1_455
Na7 O15 2.396621 1_455
Na7 O3 2.438082 1_455
Na7 O16 2.450444 1_565
O0 Si3 1.624932 1_555
O0 Ti0 1.960220 1_556
O1 Si1 1.634355 1_555
O1 Ti2 1.993491 1_555
O2 Si1 1.626323 1_555
O2 Ti2 1.958227 1_655
O3 Ti3 1.725905 1_555
O4 Si2 1.622779 1_555
O4 Ti0 1.963874 1_555
O5 Si1 1.622779 1_555
O5 Ti3 1.963874 1_555
O6 Si1 1.624932 1_555
O6 Ti0 1.960220 1_556
O7 Si3 1.634355 1_555
O7 Ti2 1.993491 1_565
O8 Si0 1.622779 1_555
O8 Ti0 1.963874 1_555
O9 Si3 1.622779 1_555
O9 Ti3 1.963874 1_555
O10 Ti1 1.717552 1_555
O11 Si0 1.626323 1_555
O11 Ti1 1.958227 1_465
O12 Si0 1.624932 1_555
O12 Ti3 1.960220 1_555
O13 Si2 1.626323 1_555
O13 Ti1 1.958227 1_455
O14 Si2 1.634355 1_555
O14 Ti1 1.993491 1_555
O15 Si3 1.626323 1_555
O15 Ti2 1.958227 1_665
O16 Ti2 1.717552 1_555
O17 Si0 1.634355 1_555
O17 Ti1 1.993491 1_565
O18 Ti0 1.725905 1_555
O19 Si2 1.624932 1_555
O19 Ti3 1.960220 1_555
