# generated using pymatgen
data_Mn5(SiO4)3
_symmetry_space_group_name_H-M   'P 1'
_cell_length_a   10.38322717
_cell_length_b   10.38322717
_cell_length_c   10.38322717
_cell_angle_alpha   109.47122063
_cell_angle_beta   109.47122063
_cell_angle_gamma   109.47122063
_symmetry_Int_Tables_number   1
_chemical_formula_structural   Mn5(SiO4)3
_chemical_formula_sum   'Mn20 Si12 O48'
_cell_volume   861.73786513
_cell_formula_units_Z   4
loop_
 _symmetry_equiv_pos_site_id
 _symmetry_equiv_pos_as_xyz
  1  'x, y, z'
loop_
 _atom_site_type_symbol
 _atom_site_label
 _atom_site_symmetry_multiplicity
 _atom_site_fract_x
 _atom_site_fract_y
 _atom_site_fract_z
 _atom_site_occupancy
  Mn  Mn0  1  0.00000000  0.00000000  0.00000000  1
  Mn  Mn1  1  0.50000000  0.00000000  0.00000000  1
  Mn  Mn2  1  0.00000000  0.50000000  0.00000000  1
  Mn  Mn3  1  0.00000000  0.00000000  0.50000000  1
  Mn  Mn4  1  0.50000000  0.50000000  0.00000000  1
  Mn  Mn5  1  0.00000000  0.50000000  0.50000000  1
  Mn  Mn6  1  0.50000000  0.00000000  0.50000000  1
  Mn  Mn7  1  0.50000000  0.50000000  0.50000000  1
  Mn  Mn8  1  0.25000000  0.87500000  0.62500000  1
  Mn  Mn9  1  0.75000000  0.62500000  0.87500000  1
  Mn  Mn10  1  0.62500000  0.87500000  0.75000000  1
  Mn  Mn11  1  0.87500000  0.62500000  0.25000000  1
  Mn  Mn12  1  0.62500000  0.25000000  0.87500000  1
  Mn  Mn13  1  0.87500000  0.75000000  0.62500000  1
  Mn  Mn14  1  0.75000000  0.12500000  0.37500000  1
  Mn  Mn15  1  0.25000000  0.37500000  0.12500000  1
  Mn  Mn16  1  0.37500000  0.12500000  0.25000000  1
  Mn  Mn17  1  0.12500000  0.37500000  0.75000000  1
  Mn  Mn18  1  0.37500000  0.75000000  0.12500000  1
  Mn  Mn19  1  0.12500000  0.25000000  0.37500000  1
  Si  Si0  1  0.12500000  0.87500000  0.25000000  1
  Si  Si1  1  0.87500000  0.12500000  0.75000000  1
  Si  Si2  1  0.25000000  0.62500000  0.37500000  1
  Si  Si3  1  0.37500000  0.25000000  0.62500000  1
  Si  Si4  1  0.75000000  0.87500000  0.12500000  1
  Si  Si5  1  0.12500000  0.75000000  0.87500000  1
  Si  Si6  1  0.37500000  0.62500000  0.75000000  1
  Si  Si7  1  0.62500000  0.75000000  0.37500000  1
  Si  Si8  1  0.87500000  0.25000000  0.12500000  1
  Si  Si9  1  0.25000000  0.12500000  0.87500000  1
  Si  Si10  1  0.75000000  0.37500000  0.62500000  1
  Si  Si11  1  0.62500000  0.37500000  0.25000000  1
  O  O0  1  0.69401800  0.08880900  0.71129900  1
  O  O1  1  0.10520900  0.98271900  0.69401800  1
  O  O2  1  0.71129900  0.51728100  0.62249000  1
  O  O3  1  0.62249000  0.71129900  0.51728100  1
  O  O4  1  0.87751000  0.39479100  0.08880900  1
  O  O5  1  0.08880900  0.87751000  0.39479100  1
  O  O6  1  0.98271900  0.69401800  0.10520900  1
  O  O7  1  0.41119100  0.10520900  0.62249000  1
  O  O8  1  0.39479100  0.80598200  0.51728100  1
  O  O9  1  0.98271900  0.78870100  0.87751000  1
  O  O10  1  0.10520900  0.62249000  0.41119100  1
  O  O11  1  0.51728100  0.39479100  0.80598200  1
  O  O12  1  0.78870100  0.87751000  0.98271900  1
  O  O13  1  0.71129900  0.69401800  0.08880900  1
  O  O14  1  0.08880900  0.71129900  0.69401800  1
  O  O15  1  0.62249000  0.41119100  0.10520900  1
  O  O16  1  0.78870100  0.41119100  0.80598200  1
  O  O17  1  0.80598200  0.51728100  0.39479100  1
  O  O18  1  0.80598200  0.78870100  0.41119100  1
  O  O19  1  0.87751000  0.98271900  0.78870100  1
  O  O20  1  0.41119100  0.80598200  0.78870100  1
  O  O21  1  0.39479100  0.08880900  0.87751000  1
  O  O22  1  0.69401800  0.10520900  0.98271900  1
  O  O23  1  0.51728100  0.62249000  0.71129900  1
  O  O24  1  0.30598200  0.91119100  0.28870100  1
  O  O25  1  0.89479100  0.01728100  0.30598200  1
  O  O26  1  0.28870100  0.48271900  0.37751000  1
  O  O27  1  0.37751000  0.28870100  0.48271900  1
  O  O28  1  0.12249000  0.60520900  0.91119100  1
  O  O29  1  0.91119100  0.12249000  0.60520900  1
  O  O30  1  0.01728100  0.30598200  0.89479100  1
  O  O31  1  0.58880900  0.89479100  0.37751000  1
  O  O32  1  0.60520900  0.19401800  0.48271900  1
  O  O33  1  0.01728100  0.21129900  0.12249000  1
  O  O34  1  0.89479100  0.37751000  0.58880900  1
  O  O35  1  0.48271900  0.60520900  0.19401800  1
  O  O36  1  0.21129900  0.12249000  0.01728100  1
  O  O37  1  0.28870100  0.30598200  0.91119100  1
  O  O38  1  0.91119100  0.28870100  0.30598200  1
  O  O39  1  0.37751000  0.58880900  0.89479100  1
  O  O40  1  0.21129900  0.58880900  0.19401800  1
  O  O41  1  0.19401800  0.48271900  0.60520900  1
  O  O42  1  0.19401800  0.21129900  0.58880900  1
  O  O43  1  0.12249000  0.01728100  0.21129900  1
  O  O44  1  0.58880900  0.19401800  0.21129900  1
  O  O45  1  0.60520900  0.91119100  0.12249000  1
  O  O46  1  0.30598200  0.89479100  0.01728100  1
  O  O47  1  0.48271900  0.37751000  0.28870100  1
loop_
_geom_bond_atom_site_label_1
_geom_bond_atom_site_label_2
_geom_bond_distance
_geom_bond_site_symmetry_2
Mn0 O19 2.046564 1_444
Mn0 O9 2.046564 1_444
Mn0 O12 2.046564 1_444
Mn0 O36 2.046564 1_555
Mn0 O43 2.046564 1_555
Mn0 O33 2.046564 1_555
Mn1 O46 2.046564 1_545
Mn1 O21 2.046564 1_554
Mn1 O22 2.046564 1_554
Mn1 O20 2.046564 1_544
Mn1 O44 2.046564 1_555
Mn1 O45 2.046564 1_545
Mn2 O30 2.046564 1_554
Mn2 O4 2.046564 1_455
Mn2 O16 2.046564 1_454
Mn2 O40 2.046564 1_555
Mn2 O6 2.046564 1_455
Mn2 O28 2.046564 1_554
Mn3 O25 2.046564 1_455
Mn3 O5 2.046564 1_545
Mn3 O42 2.046564 1_555
Mn3 O1 2.046564 1_545
Mn3 O18 2.046564 1_445
Mn3 O29 2.046564 1_455
Mn4 O11 2.046564 1_554
Mn4 O13 2.046564 1_555
Mn4 O37 2.046564 1_554
Mn4 O39 2.046564 1_554
Mn4 O15 2.046564 1_555
Mn4 O35 2.046564 1_555
Mn5 O34 2.046564 1_455
Mn5 O38 2.046564 1_455
Mn5 O17 2.046564 1_455
Mn5 O14 2.046564 1_555
Mn5 O10 2.046564 1_555
Mn5 O41 2.046564 1_555
Mn6 O8 2.046564 1_545
Mn6 O0 2.046564 1_555
Mn6 O31 2.046564 1_545
Mn6 O24 2.046564 1_545
Mn6 O7 2.046564 1_555
Mn6 O32 2.046564 1_555
Mn7 O27 2.046564 1_555
Mn7 O47 2.046564 1_555
Mn7 O26 2.046564 1_555
Mn7 O3 2.046564 1_555
Mn7 O23 2.046564 1_555
Mn7 O2 2.046564 1_555
Mn8 O10 2.308602 1_555
Mn8 O8 2.308602 1_555
Mn8 O21 2.308602 1_565
Mn8 O1 2.308602 1_555
Mn8 O7 2.432902 1_565
Mn8 O20 2.432902 1_555
Mn8 O14 2.432902 1_555
Mn8 O5 2.432902 1_555
Mn9 O2 2.308602 1_555
Mn9 O13 2.308602 1_556
Mn9 O16 2.308602 1_555
Mn9 O12 2.308602 1_555
Mn9 O6 2.432902 1_556
Mn9 O9 2.432902 1_555
Mn9 O11 2.432902 1_555
Mn9 O23 2.432902 1_555
Mn10 O23 2.308602 1_555
Mn10 O0 2.308602 1_565
Mn10 O20 2.308602 1_555
Mn10 O19 2.308602 1_555
Mn10 O22 2.432902 1_565
Mn10 O12 2.432902 1_555
Mn10 O8 2.432902 1_555
Mn10 O3 2.432902 1_555
Mn11 O15 2.308602 1_555
Mn11 O17 2.308602 1_555
Mn11 O5 2.308602 1_655
Mn11 O6 2.308602 1_555
Mn11 O10 2.432902 1_655
Mn11 O13 2.432902 1_555
Mn11 O18 2.432902 1_555
Mn11 O4 2.432902 1_555
Mn12 O7 2.308602 1_555
Mn12 O22 2.308602 1_555
Mn12 O4 2.308602 1_556
Mn12 O11 2.308602 1_555
Mn12 O15 2.432902 1_556
Mn12 O0 2.432902 1_555
Mn12 O16 2.432902 1_555
Mn12 O21 2.432902 1_555
Mn13 O14 2.308602 1_655
Mn13 O3 2.308602 1_555
Mn13 O18 2.308602 1_555
Mn13 O9 2.308602 1_555
Mn13 O19 2.432902 1_555
Mn13 O1 2.432902 1_655
Mn13 O17 2.432902 1_555
Mn13 O2 2.432902 1_555
Mn14 O32 2.308602 1_555
Mn14 O45 2.308602 1_545
Mn14 O34 2.308602 1_555
Mn14 O25 2.308602 1_555
Mn14 O29 2.432902 1_555
Mn14 O38 2.432902 1_555
Mn14 O44 2.432902 1_555
Mn14 O31 2.432902 1_545
Mn15 O26 2.308602 1_555
Mn15 O37 2.308602 1_554
Mn15 O40 2.308602 1_555
Mn15 O36 2.308602 1_555
Mn15 O47 2.432902 1_555
Mn15 O35 2.432902 1_555
Mn15 O30 2.432902 1_554
Mn15 O33 2.432902 1_555
Mn16 O44 2.308602 1_555
Mn16 O47 2.308602 1_555
Mn16 O24 2.308602 1_545
Mn16 O43 2.308602 1_555
Mn16 O27 2.432902 1_555
Mn16 O32 2.432902 1_555
Mn16 O46 2.432902 1_545
Mn16 O36 2.432902 1_555
Mn17 O41 2.308602 1_555
Mn17 O29 2.308602 1_455
Mn17 O39 2.308602 1_555
Mn17 O30 2.308602 1_555
Mn17 O28 2.432902 1_555
Mn17 O42 2.432902 1_555
Mn17 O34 2.432902 1_455
Mn17 O37 2.432902 1_555
Mn18 O35 2.308602 1_555
Mn18 O31 2.308602 1_555
Mn18 O28 2.308602 1_554
Mn18 O46 2.308602 1_555
Mn18 O45 2.432902 1_555
Mn18 O39 2.432902 1_554
Mn18 O24 2.432902 1_555
Mn18 O40 2.432902 1_555
Mn19 O27 2.308602 1_555
Mn19 O42 2.308602 1_555
Mn19 O38 2.308602 1_455
Mn19 O33 2.308602 1_555
Mn19 O26 2.432902 1_555
Mn19 O41 2.432902 1_555
Mn19 O25 2.432902 1_455
Mn19 O43 2.432902 1_555
O0 Si1 1.661064 1_555
O1 Si9 1.661064 1_565
O2 Si10 1.661064 1_555
O3 Si7 1.661064 1_555
O4 Si8 1.661064 1_555
O5 Si0 1.661064 1_555
O6 Si0 1.661064 1_655
O7 Si3 1.661064 1_555
O8 Si2 1.661064 1_555
O9 Si5 1.661064 1_655
O10 Si2 1.661064 1_555
O11 Si3 1.661064 1_555
O12 Si4 1.661064 1_556
O13 Si4 1.661064 1_555
O14 Si5 1.661064 1_555
O15 Si11 1.661064 1_555
O16 Si10 1.661064 1_555
O17 Si11 1.661064 1_555
O18 Si7 1.661064 1_555
O19 Si1 1.661064 1_565
O20 Si6 1.661064 1_555
O21 Si9 1.661064 1_555
O22 Si8 1.661064 1_556
O23 Si6 1.661064 1_555
O24 Si0 1.661064 1_555
O25 Si4 1.661064 1_545
O26 Si2 1.661064 1_555
O27 Si3 1.661064 1_555
O28 Si5 1.661064 1_555
O29 Si1 1.661064 1_555
O30 Si1 1.661064 1_455
O31 Si7 1.661064 1_555
O32 Si10 1.661064 1_555
O33 Si8 1.661064 1_455
O34 Si10 1.661064 1_555
O35 Si7 1.661064 1_555
O36 Si9 1.661064 1_554
O37 Si9 1.661064 1_555
O38 Si8 1.661064 1_555
O39 Si6 1.661064 1_555
O40 Si2 1.661064 1_555
O41 Si6 1.661064 1_555
O42 Si3 1.661064 1_555
O43 Si0 1.661064 1_545
O44 Si11 1.661064 1_555
O45 Si4 1.661064 1_555
O46 Si5 1.661064 1_554
O47 Si11 1.661064 1_555
