# generated using pymatgen
data_NaVBP2H3O10
_symmetry_space_group_name_H-M   'P 1'
_cell_length_a   6.73043801
_cell_length_b   6.73043801
_cell_length_c   9.28061230
_cell_angle_alpha   69.99879815
_cell_angle_beta   69.99879815
_cell_angle_gamma   77.19427150
_symmetry_Int_Tables_number   1
_chemical_formula_structural   NaVBP2H3O10
_chemical_formula_sum   'Na2 V2 B2 P4 H6 O20'
_cell_volume   368.60087855
_cell_formula_units_Z   2
loop_
 _symmetry_equiv_pos_site_id
 _symmetry_equiv_pos_as_xyz
  1  'x, y, z'
loop_
 _atom_site_type_symbol
 _atom_site_label
 _atom_site_symmetry_multiplicity
 _atom_site_fract_x
 _atom_site_fract_y
 _atom_site_fract_z
 _atom_site_occupancy
  Na  Na0  1  0.36980100  0.63019900  0.25000000  1
  Na  Na1  1  0.63019900  0.36980100  0.75000000  1
  V  V0  1  0.00000000  0.50000000  0.00000000  1
  V  V1  1  0.50000000  0.00000000  0.50000000  1
  B  B0  1  0.02761700  0.97238300  0.75000000  1
  B  B1  1  0.97238300  0.02761700  0.25000000  1
  P  P0  1  0.20829200  0.34537300  0.67681800  1
  P  P1  1  0.65462700  0.79170800  0.82318200  1
  P  P2  1  0.79170800  0.65462700  0.32318200  1
  P  P3  1  0.34537300  0.20829200  0.17681800  1
  H  H0  1  0.18734300  0.84048900  0.92407400  1
  H  H1  1  0.15951100  0.81265700  0.57592600  1
  H  H2  1  0.81265700  0.15951100  0.07592600  1
  H  H3  1  0.84048900  0.18734300  0.42407400  1
  H  H4  1  0.00000000  0.50000000  0.50000000  1
  H  H5  1  0.50000000  0.00000000  0.00000000  1
  O  O0  1  0.06662800  0.81502000  0.89830800  1
  O  O1  1  0.18498000  0.93337200  0.60169200  1
  O  O2  1  0.93337200  0.18498000  0.10169200  1
  O  O3  1  0.81502000  0.06662800  0.39830800  1
  O  O4  1  0.22084600  0.42946600  0.80746600  1
  O  O5  1  0.57053400  0.77915400  0.69253400  1
  O  O6  1  0.77915400  0.57053400  0.19253400  1
  O  O7  1  0.42946600  0.22084600  0.30746600  1
  O  O8  1  0.03185900  0.19001000  0.75016600  1
  O  O9  1  0.80999000  0.96814100  0.74983400  1
  O  O10  1  0.96814100  0.80999000  0.24983400  1
  O  O11  1  0.19001000  0.03185900  0.25016600  1
  O  O12  1  0.77014900  0.57148000  0.88812800  1
  O  O13  1  0.42852000  0.22985100  0.61187200  1
  O  O14  1  0.22985100  0.42852000  0.11187200  1
  O  O15  1  0.57148000  0.77014900  0.38812800  1
  O  O16  1  0.13809400  0.53326700  0.54247300  1
  O  O17  1  0.46673300  0.86190600  0.95752700  1
  O  O18  1  0.86190600  0.46673300  0.45752700  1
  O  O19  1  0.53326700  0.13809400  0.04247300  1
loop_
_geom_bond_atom_site_label_1
_geom_bond_atom_site_label_2
_geom_bond_distance
_geom_bond_site_symmetry_2
Na0 O16 2.563035 1_555
Na0 O17 2.563035 1_554
Na0 O6 2.585981 1_555
Na0 O7 2.585981 1_555
Na0 O14 2.637449 1_555
Na0 O15 2.637449 1_555
Na0 O11 2.706256 1_565
Na0 O10 2.706256 1_455
Na1 O19 2.563035 1_556
Na1 O18 2.563035 1_555
Na1 O5 2.585981 1_555
Na1 O4 2.585981 1_555
Na1 O12 2.637449 1_555
Na1 O13 2.637449 1_555
Na1 O8 2.706256 1_655
Na1 O9 2.706256 1_545
B0 O8 1.471852 1_565
B0 O9 1.471852 1_455
B0 O0 1.487226 1_555
B0 O1 1.487226 1_555
B1 O11 1.471852 1_655
B1 O10 1.471852 1_545
B1 O3 1.487226 1_555
B1 O2 1.487226 1_555
H0 O0 0.984553 1_555
H1 O1 0.984553 1_555
H2 O2 0.984553 1_555
H3 O3 0.984553 1_555
H4 O16 1.213505 1_555
H4 O18 1.213505 1_455
H5 O19 1.213505 1_555
H5 O17 1.213505 1_544
O0 V0 2.085726 1_556
O1 V1 2.085726 1_565
O2 V0 2.085726 1_655
O3 V1 2.085726 1_555
O4 P0 1.535691 1_555
O4 V0 2.019430 1_556
O5 P1 1.535691 1_555
O5 V1 2.019430 1_565
O6 P2 1.535691 1_555
O6 V0 2.019430 1_655
O7 P3 1.535691 1_555
O7 V1 2.019430 1_555
O8 P0 1.573980 1_555
O9 P1 1.573980 1_555
O10 P2 1.573980 1_555
O11 P3 1.573980 1_555
O12 P1 1.537331 1_555
O12 V0 2.032172 1_656
O13 P0 1.537331 1_555
O13 V1 2.032172 1_555
O14 P3 1.537331 1_555
O14 V0 2.032172 1_555
O15 P2 1.537331 1_555
O15 V1 2.032172 1_565
O16 P0 1.560925 1_555
O17 P1 1.560925 1_555
O18 P2 1.560925 1_555
O19 P3 1.560925 1_555
