# generated using pymatgen
data_Cs2YSi4O10F
_symmetry_space_group_name_H-M   'P 1'
_cell_length_a   8.99352100
_cell_length_b   12.15111600
_cell_length_c   22.68919300
_cell_angle_alpha   90.00000000
_cell_angle_beta   90.00000000
_cell_angle_gamma   90.00000000
_symmetry_Int_Tables_number   1
_chemical_formula_structural   Cs2YSi4O10F
_chemical_formula_sum   'Cs16 Y8 Si32 O80 F8'
_cell_volume   2479.50489088
_cell_formula_units_Z   8
loop_
 _symmetry_equiv_pos_site_id
 _symmetry_equiv_pos_as_xyz
  1  'x, y, z'
loop_
 _atom_site_type_symbol
 _atom_site_label
 _atom_site_symmetry_multiplicity
 _atom_site_fract_x
 _atom_site_fract_y
 _atom_site_fract_z
 _atom_site_occupancy
  Cs  Cs0  1  0.75000000  0.04771400  0.01621600  1
  Cs  Cs1  1  0.75000000  0.44323700  0.04341600  1
  Cs  Cs2  1  0.75000000  0.62317300  0.23667600  1
  Cs  Cs3  1  0.25000000  0.37682700  0.76332400  1
  Cs  Cs4  1  0.75000000  0.87682700  0.73667600  1
  Cs  Cs5  1  0.25000000  0.54771400  0.48378400  1
  Cs  Cs6  1  0.25000000  0.12317300  0.26332400  1
  Cs  Cs7  1  0.75000000  0.45228600  0.51621600  1
  Cs  Cs8  1  0.75000000  0.05676300  0.54341600  1
  Cs  Cs9  1  0.25000000  0.94323700  0.45658400  1
  Cs  Cs10  1  0.25000000  0.67952800  0.27182700  1
  Cs  Cs11  1  0.75000000  0.17952800  0.22817300  1
  Cs  Cs12  1  0.75000000  0.32047200  0.72817300  1
  Cs  Cs13  1  0.25000000  0.95228600  0.98378400  1
  Cs  Cs14  1  0.25000000  0.82047200  0.77182700  1
  Cs  Cs15  1  0.25000000  0.55676300  0.95658400  1
  Y  Y0  1  0.00020500  0.59674000  0.65088900  1
  Y  Y1  1  0.00020500  0.90326000  0.15088900  1
  Y  Y2  1  0.49979500  0.59674000  0.65088900  1
  Y  Y3  1  0.50020500  0.40326000  0.34911100  1
  Y  Y4  1  0.99979500  0.09674000  0.84911100  1
  Y  Y5  1  0.49979500  0.90326000  0.15088900  1
  Y  Y6  1  0.50020500  0.09674000  0.84911100  1
  Y  Y7  1  0.99979500  0.40326000  0.34911100  1
  Si  Si0  1  0.93105600  0.58887800  0.81022800  1
  Si  Si1  1  0.92894300  0.12285400  0.38251000  1
  Si  Si2  1  0.57205700  0.75021400  0.02001700  1
  Si  Si3  1  0.42894300  0.87714600  0.61749000  1
  Si  Si4  1  0.56886300  0.69596100  0.38806900  1
  Si  Si5  1  0.57105700  0.12285400  0.38251000  1
  Si  Si6  1  0.93105600  0.91112200  0.31022800  1
  Si  Si7  1  0.92794300  0.74978600  0.52001700  1
  Si  Si8  1  0.06894400  0.41112200  0.18977200  1
  Si  Si9  1  0.07105700  0.87714600  0.61749000  1
  Si  Si10  1  0.56886300  0.80403900  0.88806900  1
  Si  Si11  1  0.06894400  0.08887800  0.68977200  1
  Si  Si12  1  0.42794300  0.25021400  0.47998300  1
  Si  Si13  1  0.56894400  0.58887800  0.81022800  1
  Si  Si14  1  0.07105700  0.62285400  0.11749000  1
  Si  Si15  1  0.43105600  0.41112200  0.18977200  1
  Si  Si16  1  0.43113700  0.30403900  0.61193100  1
  Si  Si17  1  0.43105600  0.08887800  0.68977200  1
  Si  Si18  1  0.56894400  0.91112200  0.31022800  1
  Si  Si19  1  0.42894300  0.62285400  0.11749000  1
  Si  Si20  1  0.92894300  0.37714600  0.88251000  1
  Si  Si21  1  0.92794300  0.75021400  0.02001700  1
  Si  Si22  1  0.07205700  0.25021400  0.47998300  1
  Si  Si23  1  0.93113700  0.80403900  0.88806900  1
  Si  Si24  1  0.93113700  0.69596100  0.38806900  1
  Si  Si25  1  0.57105700  0.37714600  0.88251000  1
  Si  Si26  1  0.43113700  0.19596100  0.11193100  1
  Si  Si27  1  0.06886300  0.19596100  0.11193100  1
  Si  Si28  1  0.06886300  0.30403900  0.61193100  1
  Si  Si29  1  0.07205700  0.24978600  0.97998300  1
  Si  Si30  1  0.57205700  0.74978600  0.52001700  1
  Si  Si31  1  0.42794300  0.24978600  0.97998300  1
  O  O0  1  0.96997800  0.78766200  0.33641000  1
  O  O1  1  0.02355700  0.78230700  0.66257400  1
  O  O2  1  0.98941700  0.00040200  0.36073400  1
  O  O3  1  0.02828900  0.13958400  0.94585200  1
  O  O4  1  0.96997800  0.71233800  0.83641000  1
  O  O5  1  0.50068700  0.13773500  0.44982100  1
  O  O6  1  0.50915400  0.75080600  0.95122400  1
  O  O7  1  0.03002200  0.28766200  0.16359000  1
  O  O8  1  0.75000000  0.68188800  0.39196500  1
  O  O9  1  0.47171100  0.36041600  0.44585200  1
  O  O10  1  0.99931300  0.13773500  0.44982100  1
  O  O11  1  0.98660100  0.08335600  0.12786000  1
  O  O12  1  0.51334800  0.43031900  0.25129000  1
  O  O13  1  0.52828900  0.63958400  0.55414800  1
  O  O14  1  0.00068700  0.63773500  0.05017900  1
  O  O15  1  0.01334800  0.93031900  0.24871000  1
  O  O16  1  0.01334800  0.56968100  0.74871000  1
  O  O17  1  0.75000000  0.57638000  0.80447500  1
  O  O18  1  0.00068700  0.86226500  0.55017900  1
  O  O19  1  0.48660100  0.91664400  0.87214000  1
  O  O20  1  0.75000000  0.92362000  0.30447500  1
  O  O21  1  0.75000000  0.81811200  0.89196500  1
  O  O22  1  0.53002200  0.71233800  0.83641000  1
  O  O23  1  0.97644300  0.28230700  0.83742600  1
  O  O24  1  0.98941700  0.49959800  0.86073400  1
  O  O25  1  0.25000000  0.27651400  0.98309300  1
  O  O26  1  0.99931300  0.36226500  0.94982100  1
  O  O27  1  0.53002200  0.78766200  0.33641000  1
  O  O28  1  0.75000000  0.77651400  0.51690700  1
  O  O29  1  0.47171100  0.13958400  0.94585200  1
  O  O30  1  0.49931300  0.86226500  0.55017900  1
  O  O31  1  0.97171100  0.63958400  0.55414800  1
  O  O32  1  0.25000000  0.61206800  0.10627000  1
  O  O33  1  0.99084600  0.74919400  0.45122400  1
  O  O34  1  0.25000000  0.18188800  0.10803500  1
  O  O35  1  0.02828900  0.36041600  0.44585200  1
  O  O36  1  0.00915400  0.25080600  0.54877600  1
  O  O37  1  0.51334800  0.06968100  0.75129000  1
  O  O38  1  0.01058300  0.99959800  0.63926600  1
  O  O39  1  0.46997800  0.21233800  0.66359000  1
  O  O40  1  0.50915400  0.74919400  0.45122400  1
  O  O41  1  0.25000000  0.31811200  0.60803500  1
  O  O42  1  0.48660100  0.58335600  0.37214000  1
  O  O43  1  0.52828900  0.86041600  0.05414800  1
  O  O44  1  0.00915400  0.24919400  0.04877600  1
  O  O45  1  0.48941700  0.50040200  0.13926600  1
  O  O46  1  0.01058300  0.50040200  0.13926600  1
  O  O47  1  0.49084600  0.25080600  0.54877600  1
  O  O48  1  0.98665200  0.43031900  0.25129000  1
  O  O49  1  0.01339900  0.91664400  0.87214000  1
  O  O50  1  0.48665200  0.93031900  0.24871000  1
  O  O51  1  0.51058300  0.49959800  0.86073400  1
  O  O52  1  0.98660100  0.41664400  0.62786000  1
  O  O53  1  0.97644300  0.21769300  0.33742600  1
  O  O54  1  0.51339900  0.41664400  0.62786000  1
  O  O55  1  0.25000000  0.42362000  0.19552500  1
  O  O56  1  0.99084600  0.75080600  0.95122400  1
  O  O57  1  0.47644300  0.71769300  0.16257400  1
  O  O58  1  0.25000000  0.07638000  0.69552500  1
  O  O59  1  0.75000000  0.72348600  0.01690700  1
  O  O60  1  0.51339900  0.08335600  0.12786000  1
  O  O61  1  0.25000000  0.88793200  0.60627000  1
  O  O62  1  0.49084600  0.24919400  0.04877600  1
  O  O63  1  0.01339900  0.58335600  0.37214000  1
  O  O64  1  0.75000000  0.38793200  0.89373000  1
  O  O65  1  0.25000000  0.22348600  0.48309300  1
  O  O66  1  0.97171100  0.86041600  0.05414800  1
  O  O67  1  0.50068700  0.36226500  0.94982100  1
  O  O68  1  0.98665200  0.06968100  0.75129000  1
  O  O69  1  0.47644300  0.78230700  0.66257400  1
  O  O70  1  0.49931300  0.63773500  0.05017900  1
  O  O71  1  0.51058300  0.00040200  0.36073400  1
  O  O72  1  0.46997800  0.28766200  0.16359000  1
  O  O73  1  0.03002200  0.21233800  0.66359000  1
  O  O74  1  0.02355700  0.71769300  0.16257400  1
  O  O75  1  0.52355700  0.21769300  0.33742600  1
  O  O76  1  0.48941700  0.99959800  0.63926600  1
  O  O77  1  0.75000000  0.11206800  0.39373000  1
  O  O78  1  0.48665200  0.56968100  0.74871000  1
  O  O79  1  0.52355700  0.28230700  0.83742600  1
  F  F0  1  0.75000000  0.60229700  0.65948700  1
  F  F1  1  0.25000000  0.58427300  0.64404000  1
  F  F2  1  0.25000000  0.39770300  0.34051300  1
  F  F3  1  0.25000000  0.10229700  0.84051300  1
  F  F4  1  0.75000000  0.41572700  0.35596000  1
  F  F5  1  0.75000000  0.08427300  0.85596000  1
  F  F6  1  0.75000000  0.89770300  0.15948700  1
  F  F7  1  0.25000000  0.91572700  0.14404000  1
loop_
_geom_bond_atom_site_label_1
_geom_bond_atom_site_label_2
_geom_bond_distance
_geom_bond_site_symmetry_2
Cs0 O43 3.145827 1_545
Cs0 O66 3.145827 1_545
Cs0 O29 3.171592 1_554
Cs0 O3 3.171592 1_654
Cs0 O11 3.336477 1_555
Cs0 O60 3.336477 1_555
Cs0 O62 3.460011 1_555
Cs0 O44 3.460011 1_655
Cs0 F5 3.663116 1_554
Cs1 O67 3.241170 1_554
Cs1 O26 3.241170 1_554
Cs1 O70 3.269876 1_555
Cs1 O14 3.269876 1_655
Cs1 O45 3.271749 1_555
Cs1 O46 3.271749 1_655
Cs1 O62 3.317588 1_555
Cs1 O44 3.317588 1_655
Cs1 O59 3.458047 1_555
Cs1 O64 3.462102 1_554
Cs2 O48 3.182960 1_555
Cs2 O12 3.182960 1_555
Cs2 O57 3.193542 1_555
Cs2 O74 3.193542 1_655
Cs3 O78 3.182960 1_555
Cs3 O16 3.182960 1_555
Cs3 O79 3.193542 1_555
Cs3 O23 3.193542 1_455
Cs4 O37 3.182960 1_565
Cs4 O68 3.182960 1_565
Cs4 O69 3.193542 1_555
Cs4 O1 3.193542 1_655
Cs5 O35 3.145827 1_555
Cs5 O9 3.145827 1_555
Cs5 O13 3.171592 1_555
Cs5 O31 3.171592 1_455
Cs5 O42 3.336477 1_555
Cs5 O63 3.336477 1_555
Cs5 O33 3.460011 1_455
Cs5 O40 3.460011 1_555
Cs5 F1 3.663116 1_555
Cs6 O50 3.182960 1_545
Cs6 O15 3.182960 1_545
Cs6 O53 3.193542 1_455
Cs6 O75 3.193542 1_555
Cs7 O31 3.145827 1_555
Cs7 O13 3.145827 1_555
Cs7 O9 3.171592 1_555
Cs7 O35 3.171592 1_655
Cs7 O54 3.336477 1_555
Cs7 O52 3.336477 1_555
Cs7 O47 3.460011 1_555
Cs7 O36 3.460011 1_655
Cs7 F4 3.663116 1_555
Cs8 O10 3.241170 1_555
Cs8 O5 3.241170 1_555
Cs8 O30 3.269876 1_545
Cs8 O18 3.269876 1_645
Cs8 O76 3.271749 1_545
Cs8 O38 3.271749 1_645
Cs8 O47 3.317588 1_555
Cs8 O36 3.317588 1_655
Cs8 O28 3.458047 1_545
Cs8 O77 3.462102 1_555
Cs9 O18 3.241170 1_555
Cs9 O30 3.241170 1_555
Cs9 O10 3.269876 1_465
Cs9 O5 3.269876 1_565
Cs9 O2 3.271749 1_465
Cs9 O71 3.271749 1_565
Cs9 O33 3.317588 1_455
Cs9 O40 3.317588 1_555
Cs9 O65 3.458047 1_565
Cs9 O61 3.462102 1_555
Cs10 O0 3.196237 1_455
Cs10 O27 3.196237 1_555
Cs10 O57 3.241486 1_555
Cs10 O74 3.241486 1_555
Cs10 O63 3.327724 1_555
Cs10 O42 3.327724 1_555
Cs10 O55 3.559013 1_555
Cs11 O7 3.196237 1_655
Cs11 O72 3.196237 1_555
Cs11 O75 3.241486 1_555
Cs11 O53 3.241486 1_555
Cs11 O11 3.327724 1_555
Cs11 O60 3.327724 1_555
Cs11 O20 3.559013 1_545
Cs12 O39 3.196237 1_555
Cs12 O73 3.196237 1_655
Cs12 O79 3.241486 1_555
Cs12 O23 3.241486 1_555
Cs12 O52 3.327724 1_555
Cs12 O54 3.327724 1_555
Cs12 O17 3.559013 1_555
Cs13 O29 3.145827 1_565
Cs13 O3 3.145827 1_565
Cs13 O43 3.171592 1_556
Cs13 O66 3.171592 1_456
Cs13 O19 3.336477 1_555
Cs13 O49 3.336477 1_555
Cs13 O6 3.460011 1_555
Cs13 O56 3.460011 1_455
Cs13 F7 3.663116 1_556
Cs14 O22 3.196237 1_555
Cs14 O4 3.196237 1_455
Cs14 O1 3.241486 1_555
Cs14 O69 3.241486 1_555
Cs14 O49 3.327724 1_555
Cs14 O19 3.327724 1_555
Cs14 O58 3.559013 1_565
Cs15 O14 3.241170 1_556
Cs15 O70 3.241170 1_556
Cs15 O26 3.269876 1_455
Cs15 O67 3.269876 1_555
Cs15 O51 3.271749 1_555
Cs15 O24 3.271749 1_455
Cs15 O6 3.317588 1_555
Cs15 O56 3.317588 1_455
Cs15 O25 3.458047 1_555
Cs15 O32 3.462102 1_556
O0 Si6 1.651047 1_555
O0 Si24 1.654521 1_555
O1 Si9 1.599026 1_555
O1 Y0 2.280072 1_555
O2 Si1 1.659471 1_555
O2 Si6 1.663001 1_545
O3 Si29 1.596175 1_555
O3 Y4 2.270377 1_455
O4 Si0 1.651047 1_555
O4 Si23 1.654521 1_555
O5 Si12 1.662630 1_555
O5 Si5 1.663029 1_555
O6 Si2 1.660231 1_556
O6 Si10 1.661346 1_555
O7 Si8 1.651047 1_555
O7 Si27 1.654521 1_555
O8 Si24 1.640393 1_555
O8 Si4 1.640393 1_555
O9 Si12 1.596175 1_555
O9 Y3 2.270377 1_555
O10 Si22 1.662630 1_655
O10 Si1 1.663029 1_555
O11 Si27 1.596917 1_655
O11 Y1 2.253206 1_645
O12 Si15 1.596995 1_555
O12 Y3 2.246813 1_555
O13 Si30 1.596175 1_555
O13 Y2 2.270377 1_555
O14 Si21 1.662630 1_455
O14 Si14 1.663029 1_555
O15 Si6 1.596995 1_455
O15 Y1 2.246813 1_555
O16 Si0 1.596995 1_455
O16 Y0 2.246813 1_555
O17 Si13 1.640598 1_555
O17 Si0 1.640598 1_555
O18 Si7 1.662630 1_455
O18 Si9 1.663029 1_555
O19 Si10 1.596917 1_555
O19 Y6 2.253206 1_565
O20 Si18 1.640598 1_555
O20 Si6 1.640598 1_555
O21 Si23 1.640393 1_555
O21 Si10 1.640393 1_555
O22 Si13 1.651047 1_555
O22 Si10 1.654521 1_555
O23 Si20 1.599026 1_555
O23 Y4 2.280072 1_555
O24 Si20 1.659471 1_555
O24 Si0 1.663001 1_555
O25 Si29 1.634481 1_555
O25 Si31 1.634481 1_555
O26 Si29 1.662630 1_655
O26 Si20 1.663029 1_555
O27 Si18 1.651047 1_555
O27 Si4 1.654521 1_555
O28 Si30 1.634481 1_555
O28 Si7 1.634481 1_555
O29 Si31 1.596175 1_555
O29 Y6 2.270377 1_555
O30 Si30 1.662630 1_555
O30 Si3 1.663029 1_555
O31 Si7 1.596175 1_555
O31 Y0 2.270377 1_655
O32 Si19 1.634601 1_555
O32 Si14 1.634601 1_555
O33 Si7 1.660231 1_555
O33 Si24 1.661346 1_555
O34 Si26 1.640393 1_555
O34 Si27 1.640393 1_555
O35 Si22 1.596175 1_555
O35 Y7 2.270377 1_455
O36 Si22 1.660231 1_555
O36 Si28 1.661346 1_555
O37 Si17 1.596995 1_555
O37 Y6 2.246813 1_555
O38 Si9 1.659471 1_555
O38 Si11 1.663001 1_565
O39 Si17 1.651047 1_555
O39 Si16 1.654521 1_555
O40 Si30 1.660231 1_555
O40 Si4 1.661346 1_555
O41 Si16 1.640393 1_555
O41 Si28 1.640393 1_555
O42 Si4 1.596917 1_555
O42 Y3 2.253206 1_555
O43 Si2 1.596175 1_555
O43 Y5 2.270377 1_555
O44 Si29 1.660231 1_554
O44 Si27 1.661346 1_555
O45 Si19 1.659471 1_555
O45 Si15 1.663001 1_555
O46 Si14 1.659471 1_555
O46 Si8 1.663001 1_555
O47 Si12 1.660231 1_555
O47 Si16 1.661346 1_555
O48 Si8 1.596995 1_655
O48 Y7 2.246813 1_555
O49 Si23 1.596917 1_455
O49 Y4 2.253206 1_465
O50 Si18 1.596995 1_555
O50 Y5 2.246813 1_555
O51 Si25 1.659471 1_555
O51 Si13 1.663001 1_555
O52 Si28 1.596917 1_655
O52 Y0 2.253206 1_655
O53 Si1 1.599026 1_555
O53 Y7 2.280072 1_555
O54 Si16 1.596917 1_555
O54 Y2 2.253206 1_555
O55 Si8 1.640598 1_555
O55 Si15 1.640598 1_555
O56 Si21 1.660231 1_556
O56 Si23 1.661346 1_555
O57 Si19 1.599026 1_555
O57 Y5 2.280072 1_555
O58 Si17 1.640598 1_555
O58 Si11 1.640598 1_555
O59 Si2 1.634481 1_555
O59 Si21 1.634481 1_555
O60 Si26 1.596917 1_555
O60 Y5 2.253206 1_545
O61 Si3 1.634601 1_555
O61 Si9 1.634601 1_555
O62 Si31 1.660231 1_554
O62 Si26 1.661346 1_555
O63 Si24 1.596917 1_455
O63 Y7 2.253206 1_455
O64 Si20 1.634601 1_555
O64 Si25 1.634601 1_555
O65 Si12 1.634481 1_555
O65 Si22 1.634481 1_555
O66 Si21 1.596175 1_555
O66 Y1 2.270377 1_655
O67 Si31 1.662630 1_555
O67 Si25 1.663029 1_555
O68 Si11 1.596995 1_655
O68 Y4 2.246813 1_555
O69 Si3 1.599026 1_555
O69 Y2 2.280072 1_555
O70 Si2 1.662630 1_555
O70 Si19 1.663029 1_555
O71 Si5 1.659471 1_555
O71 Si18 1.663001 1_545
O72 Si15 1.651047 1_555
O72 Si26 1.654521 1_555
O73 Si11 1.651047 1_555
O73 Si28 1.654521 1_555
O74 Si14 1.599026 1_555
O74 Y1 2.280072 1_555
O75 Si5 1.599026 1_555
O75 Y3 2.280072 1_555
O76 Si3 1.659471 1_555
O76 Si17 1.663001 1_565
O77 Si5 1.634601 1_555
O77 Si1 1.634601 1_555
O78 Si13 1.596995 1_555
O78 Y2 2.246813 1_555
O79 Si25 1.599026 1_555
O79 Y6 2.280072 1_555
F0 Y2 2.259673 1_555
F0 Y0 2.259673 1_655
F1 Y2 2.256994 1_555
F1 Y0 2.256994 1_555
F2 Y3 2.259673 1_555
F2 Y7 2.259673 1_455
F3 Y6 2.259673 1_555
F3 Y4 2.259673 1_455
F4 Y7 2.256994 1_555
F4 Y3 2.256994 1_555
F5 Y4 2.256994 1_555
F5 Y6 2.256994 1_555
F6 Y5 2.259673 1_555
F6 Y1 2.259673 1_655
F7 Y1 2.256994 1_555
F7 Y5 2.256994 1_555
