# generated using pymatgen
data_Sr2I2O
_symmetry_space_group_name_H-M   'P 1'
_cell_length_a   6.52888106
_cell_length_b   7.55517505
_cell_length_c   8.21463487
_cell_angle_alpha   117.31288316
_cell_angle_beta   113.24516072
_cell_angle_gamma   90.00405509
_symmetry_Int_Tables_number   1
_chemical_formula_structural   Sr2I2O
_chemical_formula_sum   'Sr4 I4 O2'
_cell_volume   322.55456192
_cell_formula_units_Z   2
loop_
 _symmetry_equiv_pos_site_id
 _symmetry_equiv_pos_as_xyz
  1  'x, y, z'
loop_
 _atom_site_type_symbol
 _atom_site_label
 _atom_site_symmetry_multiplicity
 _atom_site_fract_x
 _atom_site_fract_y
 _atom_site_fract_z
 _atom_site_occupancy
  Sr  Sr0  1  0.91106570  0.58190936  0.82156295  1
  Sr  Sr1  1  0.08893530  0.41809164  0.17843805  1
  Sr  Sr2  1  0.58878840  0.76000240  0.17824676  1
  Sr  Sr3  1  0.41121160  0.23999660  0.82175324  1
  I  I0  1  0.34969612  0.70131691  0.69925436  1
  I  I1  1  0.84986545  0.99877872  0.69922675  1
  I  I2  1  0.65030388  0.29868309  0.30074564  1
  I  I3  1  0.15013555  0.00122228  0.30077425  1
  O  O0  1  0.25005608  0.50008194  0.00001979  1
  O  O1  1  0.74994392  0.49991806  0.99998021  1
loop_
_geom_bond_atom_site_label_1
_geom_bond_atom_site_label_2
_geom_bond_distance
_geom_bond_site_symmetry_2
I0 Sr1 3.410288 1_555
I0 Sr2 3.415590 1_556
I0 Sr0 3.623128 1_455
I0 Sr0 3.630705 1_555
I0 Sr3 3.695912 1_565
I1 Sr2 3.410538 1_555
I1 Sr1 3.416662 1_666
I1 Sr3 3.623409 1_565
I1 Sr3 3.629093 1_665
I1 Sr0 3.698228 1_555
I2 Sr0 3.410295 1_555
I2 Sr3 3.415587 1_554
I2 Sr1 3.623131 1_655
I2 Sr1 3.630702 1_555
I2 Sr2 3.695919 1_545
I3 Sr3 3.410532 1_555
I3 Sr0 3.416662 1_444
I3 Sr2 3.623412 1_545
I3 Sr2 3.629102 1_445
I3 Sr1 3.698228 1_555
O0 Sr1 2.385045 1_555
O0 Sr3 2.385053 1_554
O0 Sr2 2.386613 1_555
O0 Sr0 2.387574 1_454
O1 Sr0 2.385046 1_555
O1 Sr2 2.385049 1_556
O1 Sr3 2.386617 1_555
O1 Sr1 2.387577 1_656
