# generated using pymatgen
data_TbRhO3
_symmetry_space_group_name_H-M   'P 1'
_cell_length_a   5.22941294
_cell_length_b   5.77580762
_cell_length_c   7.60007790
_cell_angle_alpha   90.00000000
_cell_angle_beta   90.00000000
_cell_angle_gamma   90.00000000
_symmetry_Int_Tables_number   1
_chemical_formula_structural   TbRhO3
_chemical_formula_sum   'Tb4 Rh4 O12'
_cell_volume   229.55338451
_cell_formula_units_Z   4
loop_
 _symmetry_equiv_pos_site_id
 _symmetry_equiv_pos_as_xyz
  1  'x, y, z'
loop_
 _atom_site_type_symbol
 _atom_site_label
 _atom_site_symmetry_multiplicity
 _atom_site_fract_x
 _atom_site_fract_y
 _atom_site_fract_z
 _atom_site_occupancy
  Tb  Tb0  1  0.47011779  0.58399804  0.75000000  1
  Tb  Tb1  1  0.97011779  0.91600196  0.25000000  1
  Tb  Tb2  1  0.02988221  0.08399804  0.75000000  1
  Tb  Tb3  1  0.52988221  0.41600196  0.25000000  1
  Rh  Rh0  1  0.50000000  0.00000000  0.50000000  1
  Rh  Rh1  1  0.00000000  0.50000000  0.50000000  1
  Rh  Rh2  1  0.00000000  0.50000000  0.00000000  1
  Rh  Rh3  1  0.50000000  0.00000000  0.00000000  1
  O  O0  1  0.82353633  0.19055480  0.43976310  1
  O  O1  1  0.32353633  0.30944520  0.56023690  1
  O  O2  1  0.67646367  0.69055480  0.06023690  1
  O  O3  1  0.17646367  0.80944520  0.93976310  1
  O  O4  1  0.17646367  0.80944520  0.56023690  1
  O  O5  1  0.67646367  0.69055480  0.43976310  1
  O  O6  1  0.32353633  0.30944520  0.93976310  1
  O  O7  1  0.82353633  0.19055480  0.06023690  1
  O  O8  1  0.36955436  0.04898991  0.25000000  1
  O  O9  1  0.86955436  0.45101009  0.75000000  1
  O  O10  1  0.13044564  0.54898991  0.25000000  1
  O  O11  1  0.63044564  0.95101009  0.75000000  1
loop_
_geom_bond_atom_site_label_1
_geom_bond_atom_site_label_2
_geom_bond_distance
_geom_bond_site_symmetry_2
O0 Rh1 2.062904 1_655
O0 Rh0 2.069654 1_555
O0 Tb1 2.276446 1_545
O0 Tb3 2.476638 1_555
O0 Tb2 2.665052 1_655
O1 Rh0 2.062904 1_555
O1 Rh1 2.069654 1_555
O1 Tb0 2.276446 1_555
O1 Tb2 2.476638 1_555
O1 Tb3 2.665052 1_555
O2 Rh3 2.062904 1_565
O2 Rh2 2.069654 1_655
O2 Tb3 2.276446 1_555
O2 Tb1 2.476638 1_555
O2 Tb0 2.665052 1_554
O3 Rh2 2.062904 1_556
O3 Rh3 2.069654 1_566
O3 Tb2 2.276446 1_565
O3 Tb0 2.476638 1_555
O3 Tb1 2.665052 1_456
O4 Rh1 2.062904 1_555
O4 Rh0 2.069654 1_565
O4 Tb2 2.276446 1_565
O4 Tb0 2.476638 1_555
O4 Tb1 2.665052 1_455
O5 Rh0 2.062904 1_565
O5 Rh1 2.069654 1_655
O5 Tb3 2.276446 1_555
O5 Tb1 2.476638 1_555
O5 Tb0 2.665052 1_555
O6 Rh3 2.062904 1_556
O6 Rh2 2.069654 1_556
O6 Tb0 2.276446 1_555
O6 Tb2 2.476638 1_555
O6 Tb3 2.665052 1_556
O7 Rh2 2.062904 1_655
O7 Rh3 2.069654 1_555
O7 Tb1 2.276446 1_545
O7 Tb3 2.476638 1_555
O7 Tb2 2.665052 1_654
O8 Rh3 2.038498 1_555
O8 Rh0 2.038498 1_555
O8 Tb1 2.225570 1_445
O8 Tb3 2.279575 1_555
O9 Rh1 2.038498 1_655
O9 Rh2 2.038498 1_656
O9 Tb0 2.225570 1_555
O9 Tb2 2.279575 1_655
O10 Rh1 2.038498 1_555
O10 Rh2 2.038498 1_555
O10 Tb3 2.225570 1_555
O10 Tb1 2.279575 1_455
O11 Rh0 2.038498 1_565
O11 Rh3 2.038498 1_566
O11 Tb2 2.225570 1_665
O11 Tb0 2.279575 1_555
