# generated using pymatgen
data_Ca2PClO4
_symmetry_space_group_name_H-M   'P 1'
_cell_length_a   6.25266500
_cell_length_b   7.05199000
_cell_length_c   10.91156200
_cell_angle_alpha   90.00000000
_cell_angle_beta   90.00000000
_cell_angle_gamma   90.00000000
_symmetry_Int_Tables_number   1
_chemical_formula_structural   Ca2PClO4
_chemical_formula_sum   'Ca8 P4 Cl4 O16'
_cell_volume   481.13148020
_cell_formula_units_Z   4
loop_
 _symmetry_equiv_pos_site_id
 _symmetry_equiv_pos_as_xyz
  1  'x, y, z'
loop_
 _atom_site_type_symbol
 _atom_site_label
 _atom_site_symmetry_multiplicity
 _atom_site_fract_x
 _atom_site_fract_y
 _atom_site_fract_z
 _atom_site_occupancy
  Ca  Ca0  1  0.36663200  0.75000000  0.50000000  1
  Ca  Ca1  1  0.12959400  0.02823000  0.75000000  1
  Ca  Ca2  1  0.63336800  0.25000000  0.50000000  1
  Ca  Ca3  1  0.12959400  0.47177000  0.25000000  1
  Ca  Ca4  1  0.63336800  0.25000000  0.00000000  1
  Ca  Ca5  1  0.87040600  0.52823000  0.75000000  1
  Ca  Ca6  1  0.36663200  0.75000000  0.00000000  1
  Ca  Ca7  1  0.87040600  0.97177000  0.25000000  1
  P  P0  1  0.86244700  0.75000000  0.00000000  1
  P  P1  1  0.13755300  0.25000000  0.50000000  1
  P  P2  1  0.13755300  0.25000000  0.00000000  1
  P  P3  1  0.86244700  0.75000000  0.50000000  1
  Cl  Cl0  1  0.51907300  0.21712400  0.25000000  1
  Cl  Cl1  1  0.51907300  0.28287600  0.75000000  1
  Cl  Cl2  1  0.48092700  0.71712400  0.25000000  1
  Cl  Cl3  1  0.48092700  0.78287600  0.75000000  1
  O  O0  1  0.98999700  0.22812400  0.11491500  1
  O  O1  1  0.28416400  0.42363900  0.47666800  1
  O  O2  1  0.01000300  0.72812400  0.38508500  1
  O  O3  1  0.71583600  0.92363900  0.47666800  1
  O  O4  1  0.01000300  0.77187600  0.61491500  1
  O  O5  1  0.71583600  0.57636100  0.52333200  1
  O  O6  1  0.98999700  0.22812400  0.38508500  1
  O  O7  1  0.98999700  0.27187600  0.88508500  1
  O  O8  1  0.71583600  0.92363900  0.02333200  1
  O  O9  1  0.98999700  0.27187600  0.61491500  1
  O  O10  1  0.71583600  0.57636100  0.97666800  1
  O  O11  1  0.28416400  0.42363900  0.02333200  1
  O  O12  1  0.01000300  0.72812400  0.11491500  1
  O  O13  1  0.01000300  0.77187600  0.88508500  1
  O  O14  1  0.28416400  0.07636100  0.52333200  1
  O  O15  1  0.28416400  0.07636100  0.97666800  1
loop_
_geom_bond_atom_site_label_1
_geom_bond_atom_site_label_2
_geom_bond_distance
_geom_bond_site_symmetry_2
Ca0 O14 2.372252 1_565
Ca0 O1 2.372252 1_555
Ca0 O5 2.516286 1_555
Ca0 O3 2.516286 1_555
Ca0 O2 2.562897 1_555
Ca0 O4 2.562897 1_555
Ca0 Cl2 2.829463 1_555
Ca0 Cl3 2.829463 1_555
Ca1 O7 2.426250 1_455
Ca1 O9 2.426250 1_455
Ca1 O4 2.449480 1_545
Ca1 O13 2.449480 1_545
Ca1 O14 2.677032 1_555
Ca1 O15 2.677032 1_555
Ca1 Cl3 2.796336 1_545
Ca1 Cl1 3.025782 1_555
Ca2 O3 2.372252 1_545
Ca2 O5 2.372252 1_555
Ca2 O1 2.516286 1_555
Ca2 O14 2.516286 1_555
Ca2 O6 2.562897 1_555
Ca2 O9 2.562897 1_555
Ca2 Cl1 2.829463 1_555
Ca2 Cl0 2.829463 1_555
Ca3 O6 2.426250 1_455
Ca3 O0 2.426250 1_455
Ca3 O12 2.449480 1_555
Ca3 O2 2.449480 1_555
Ca3 O11 2.677032 1_555
Ca3 O1 2.677032 1_555
Ca3 Cl2 2.796336 1_555
Ca3 Cl0 3.025782 1_555
Ca4 O10 2.372252 1_554
Ca4 O8 2.372252 1_545
Ca4 O11 2.516286 1_555
Ca4 O15 2.516286 1_554
Ca4 O0 2.562897 1_555
Ca4 O7 2.562897 1_554
Ca4 Cl1 2.829463 1_554
Ca4 Cl0 2.829463 1_555
Ca5 O4 2.426250 1_655
Ca5 O13 2.426250 1_655
Ca5 O7 2.449480 1_555
Ca5 O9 2.449480 1_555
Ca5 O5 2.677032 1_555
Ca5 O10 2.677032 1_555
Ca5 Cl1 2.796336 1_555
Ca5 Cl3 3.025782 1_555
Ca6 O15 2.372252 1_564
Ca6 O11 2.372252 1_555
Ca6 O8 2.516286 1_555
Ca6 O10 2.516286 1_554
Ca6 O13 2.562897 1_554
Ca6 O12 2.562897 1_555
Ca6 Cl2 2.829463 1_555
Ca6 Cl3 2.829463 1_554
Ca7 O12 2.426250 1_655
Ca7 O2 2.426250 1_655
Ca7 O0 2.449480 1_565
Ca7 O6 2.449480 1_565
Ca7 O8 2.677032 1_555
Ca7 O3 2.677032 1_555
Ca7 Cl0 2.796336 1_565
Ca7 Cl2 3.025782 1_555
O0 P2 1.564383 1_655
O1 P1 1.550669 1_555
O2 P3 1.564383 1_455
O3 P3 1.550669 1_555
O4 P3 1.564383 1_455
O5 P3 1.550669 1_555
O6 P1 1.564383 1_655
O7 P2 1.564383 1_656
O8 P0 1.550669 1_555
O9 P1 1.564383 1_655
O10 P0 1.550669 1_556
O11 P2 1.550669 1_555
O12 P0 1.564383 1_455
O13 P0 1.564383 1_456
O14 P1 1.550669 1_555
O15 P2 1.550669 1_556
