# generated using pymatgen
data_Cs3SrCu2C7(SN)7
_symmetry_space_group_name_H-M   'P 1'
_cell_length_a   12.76589401
_cell_length_b   12.76589401
_cell_length_c   12.76589401
_cell_angle_alpha   128.99318776
_cell_angle_beta   128.99318776
_cell_angle_gamma   75.02153518
_symmetry_Int_Tables_number   1
_chemical_formula_structural   Cs3SrCu2C7(SN)7
_chemical_formula_sum   'Cs6 Sr2 Cu4 C14 S14 N14'
_cell_volume   1223.75550630
_cell_formula_units_Z   2
loop_
 _symmetry_equiv_pos_site_id
 _symmetry_equiv_pos_as_xyz
  1  'x, y, z'
loop_
 _atom_site_type_symbol
 _atom_site_label
 _atom_site_symmetry_multiplicity
 _atom_site_fract_x
 _atom_site_fract_y
 _atom_site_fract_z
 _atom_site_occupancy
  Cs  Cs0  1  0.96169900  0.43718500  0.00000000  1
  Cs  Cs1  1  0.43718500  0.96169900  0.00000000  1
  Cs  Cs2  1  0.50000000  0.00000000  0.50000000  1
  Cs  Cs3  1  0.03830100  0.03830100  0.47548600  1
  Cs  Cs4  1  0.00000000  0.50000000  0.50000000  1
  Cs  Cs5  1  0.56281500  0.56281500  0.52451400  1
  Sr  Sr0  1  0.40398000  0.40398000  0.00000000  1
  Sr  Sr1  1  0.59602000  0.59602000  0.00000000  1
  Cu  Cu0  1  0.95145600  0.95145600  0.70479100  1
  Cu  Cu1  1  0.04854400  0.75333500  0.00000000  1
  Cu  Cu2  1  0.24666500  0.24666500  0.29520900  1
  Cu  Cu3  1  0.75333500  0.04854400  0.00000000  1
  C  C0  1  0.42987000  0.03908900  0.76063300  1
  C  C1  1  0.79336400  0.79336400  0.00000000  1
  C  C2  1  0.70595800  0.70595800  0.42007200  1
  C  C3  1  0.72154400  0.96091100  0.39078100  1
  C  C4  1  0.03908900  0.42987000  0.76063300  1
  C  C5  1  0.57013000  0.33076300  0.60921900  1
  C  C6  1  0.71411400  0.29404200  0.00000000  1
  C  C7  1  0.66923700  0.27845600  0.23936700  1
  C  C8  1  0.28588600  0.28588600  0.57992800  1
  C  C9  1  0.27845600  0.66923700  0.23936700  1
  C  C10  1  0.20663600  0.20663600  0.00000000  1
  C  C11  1  0.96091100  0.72154400  0.39078100  1
  C  C12  1  0.33076300  0.57013000  0.60921900  1
  C  C13  1  0.29404200  0.71411400  0.00000000  1
  S  S0  1  0.82911800  0.07794300  0.60070300  1
  S  S1  1  0.22841400  0.47724000  0.39929700  1
  S  S2  1  0.80348300  0.80348300  0.63104000  1
  S  S3  1  0.07794300  0.82911800  0.60070300  1
  S  S4  1  0.87544300  0.87544300  0.00000000  1
  S  S5  1  0.82755700  0.19651700  0.00000000  1
  S  S6  1  0.17088200  0.77158600  0.24882500  1
  S  S7  1  0.77158600  0.17088200  0.24882500  1
  S  S8  1  0.47724000  0.22841400  0.39929700  1
  S  S9  1  0.52276000  0.92205700  0.75117500  1
  S  S10  1  0.12455700  0.12455700  0.00000000  1
  S  S11  1  0.17244300  0.17244300  0.36896000  1
  S  S12  1  0.92205700  0.52276000  0.75117500  1
  S  S13  1  0.19651700  0.82755700  0.00000000  1
  N  N0  1  0.63467000  0.36671600  0.00000000  1
  N  N1  1  0.36671600  0.63467000  0.00000000  1
  N  N2  1  0.73500800  0.73500800  0.00000000  1
  N  N3  1  0.59558900  0.35667900  0.23259400  1
  N  N4  1  0.64332100  0.87591500  0.23891000  1
  N  N5  1  0.63328400  0.63328400  0.26795400  1
  N  N6  1  0.36299500  0.12408500  0.76740600  1
  N  N7  1  0.40441100  0.63700500  0.76109000  1
  N  N8  1  0.12408500  0.36299500  0.76740600  1
  N  N9  1  0.36533000  0.36533000  0.73204600  1
  N  N10  1  0.63700500  0.40441100  0.76109000  1
  N  N11  1  0.26499200  0.26499200  0.00000000  1
  N  N12  1  0.87591500  0.64332100  0.23891000  1
  N  N13  1  0.35667900  0.59558900  0.23259400  1
loop_
_geom_bond_atom_site_label_1
_geom_bond_atom_site_label_2
_geom_bond_distance
_geom_bond_site_symmetry_2
Cs0 N12 3.168502 1_555
Cs0 N10 3.168502 1_554
Cs1 N4 3.168502 1_555
Cs1 N7 3.168502 1_554
Cs2 S8 3.748206 1_555
Cs2 S6 3.748212 1_545
Cs2 S0 3.748219 1_555
Cs2 S9 3.748219 1_545
Cs2 S13 4.025295 1_545
Cs2 S5 4.025295 1_556
Cs2 S2 4.025295 1_545
Cs2 S11 4.025295 1_555
Cs3 N8 3.168502 1_555
Cs3 N6 3.168502 1_555
Cs4 S1 3.748206 1_555
Cs4 S7 3.748212 1_455
Cs4 S3 3.748219 1_555
Cs4 S12 3.748219 1_455
Cs4 S13 4.025295 1_556
Cs4 S5 4.025295 1_455
Cs4 S2 4.025295 1_455
Cs4 S11 4.025295 1_555
Cs5 N13 3.168502 1_555
Cs5 N3 3.168502 1_555
Cu0 S2 2.321922 1_555
Cu0 S10 2.352126 1_666
Cu0 S0 2.365812 1_565
Cu0 S3 2.365812 1_655
Cu1 S13 2.321922 1_555
Cu1 S4 2.352126 1_455
Cu1 S6 2.365804 1_555
Cu1 S12 2.365812 1_454
Cu2 S11 2.321922 1_555
Cu2 S10 2.352126 1_555
Cu2 S1 2.365813 1_555
Cu2 S8 2.365813 1_555
Cu3 S5 2.321922 1_555
Cu3 S4 2.352126 1_545
Cu3 S7 2.365804 1_555
Cu3 S9 2.365812 1_544
C0 N6 1.187285 1_555
C0 S9 1.640193 1_545
C0 Cs2 3.680919 1_555
C1 N2 1.181873 1_555
C1 S4 1.662330 1_555
C2 N5 1.184443 1_555
C2 S2 1.647818 1_555
C3 N4 1.187285 1_555
C3 S0 1.640193 1_565
C3 Cs2 3.680919 1_565
C4 N8 1.187285 1_555
C4 S12 1.640193 1_455
C4 Cs4 3.680919 1_555
C5 N10 1.187285 1_555
C5 S8 1.640193 1_555
C5 Cs2 3.680919 1_555
C6 N0 1.184443 1_555
C6 S5 1.647818 1_555
C7 N3 1.187285 1_555
C7 S7 1.640200 1_555
C7 Cs4 3.680919 1_655
C8 N9 1.184443 1_555
C8 S11 1.647818 1_555
C9 N13 1.187285 1_555
C9 S6 1.640200 1_555
C9 Cs2 3.680919 1_565
C10 N11 1.181873 1_555
C10 S10 1.662330 1_555
C11 N12 1.187285 1_555
C11 S3 1.640193 1_655
C11 Cs4 3.680919 1_655
C12 N7 1.187285 1_555
C12 S1 1.640193 1_555
C12 Cs4 3.680919 1_555
C13 N1 1.184443 1_555
C13 S13 1.647818 1_555
N0 Sr1 2.840030 1_555
N0 Sr0 2.859186 1_555
N1 Sr1 2.840030 1_555
N1 Sr0 2.859186 1_555
N2 Sr1 2.814897 1_555
N3 Sr0 2.741731 1_555
N4 Sr1 2.741731 1_555
N5 Sr0 2.840030 1_555
N5 Sr1 2.859186 1_555
N6 Sr0 2.741731 1_556
N7 Sr1 2.741731 1_556
N8 Sr0 2.741731 1_556
N9 Sr0 2.840030 1_556
N9 Sr1 2.859186 1_556
N10 Sr1 2.741731 1_556
N11 Sr0 2.814897 1_555
N12 Sr1 2.741731 1_555
N13 Sr0 2.741731 1_555
