# generated using pymatgen
data_U2Ni12P7
_symmetry_space_group_name_H-M   'P 1'
_cell_length_a   9.01593008
_cell_length_b   9.01582055
_cell_length_c   3.66971848
_cell_angle_alpha   90.00000000
_cell_angle_beta   90.00000000
_cell_angle_gamma   119.99787728
_symmetry_Int_Tables_number   1
_chemical_formula_structural   U2Ni12P7
_chemical_formula_sum   'U2 Ni12 P7'
_cell_volume   258.33810171
_cell_formula_units_Z   1
loop_
 _symmetry_equiv_pos_site_id
 _symmetry_equiv_pos_as_xyz
  1  'x, y, z'
loop_
 _atom_site_type_symbol
 _atom_site_label
 _atom_site_symmetry_multiplicity
 _atom_site_fract_x
 _atom_site_fract_y
 _atom_site_fract_z
 _atom_site_occupancy
  U  U0  1  0.99998685  0.99997249  0.00000000  1
  U  U1  1  0.33333657  0.66669825  0.50000000  1
  Ni  Ni0  1  0.09794876  0.39243775  -0.00000000  1
  Ni  Ni1  1  0.29446566  0.90203097  0.00000000  1
  Ni  Ni2  1  0.60759819  0.70557525  0.00000000  1
  Ni  Ni3  1  0.81886904  0.60634386  0.00000000  1
  Ni  Ni4  1  0.78745427  0.18111740  -0.00000000  1
  Ni  Ni5  1  0.39366834  0.21250330  0.00000000  1
  Ni  Ni6  1  0.05013708  0.76416981  0.50000000  1
  Ni  Ni7  1  0.71401287  0.94986015  0.50000000  1
  Ni  Ni8  1  0.23583511  0.28595245  0.50000000  1
  Ni  Ni9  1  0.87964041  0.42552189  0.50000000  1
  Ni  Ni10  1  0.54585197  0.12030166  0.50000000  1
  Ni  Ni11  1  0.57451086  0.45414783  0.50000000  1
  P  P0  1  0.07336890  0.62880866  0.00000000  1
  P  P1  1  0.55542383  0.92664493  0.00000000  1
  P  P2  1  0.37122003  0.44459170  -0.00000000  1
  P  P3  1  0.77713156  0.73612740  0.50000000  1
  P  P4  1  0.95898276  0.22284835  0.50000000  1
  P  P5  1  0.26387502  0.04099625  0.50000000  1
  P  P6  1  0.66668092  0.33335066  -0.00000000  1
loop_
_geom_bond_atom_site_label_1
_geom_bond_atom_site_label_2
_geom_bond_distance
_geom_bond_site_symmetry_2
Ni0 P0 2.250076 1_555
Ni0 P2 2.265602 1_555
Ni0 P4 2.314893 1_455
Ni0 P4 2.314893 1_454
Ni0 U1 2.955923 1_555
Ni0 U1 2.955923 1_554
Ni0 U0 3.189882 1_445
Ni1 P1 2.250053 1_555
Ni1 P0 2.265286 1_555
Ni1 P5 2.314741 1_565
Ni1 P5 2.314741 1_564
Ni1 U1 2.955459 1_554
Ni1 U1 2.955459 1_555
Ni1 U0 3.189519 1_455
Ni2 P2 2.250360 1_555
Ni2 P1 2.265244 1_555
Ni2 P3 2.314713 1_554
Ni2 P3 2.314713 1_555
Ni2 U1 2.955888 1_555
Ni2 U1 2.955888 1_554
Ni2 U0 3.189234 1_555
Ni3 P6 2.136253 1_555
Ni3 P0 2.200293 1_655
Ni3 P3 2.306023 1_554
Ni3 P3 2.306023 1_555
Ni3 U0 3.076741 1_555
Ni4 P6 2.136317 1_555
Ni4 P1 2.200181 1_545
Ni4 P4 2.306096 1_555
Ni4 P4 2.306096 1_554
Ni4 U0 3.077049 1_545
Ni5 P6 2.136400 1_555
Ni5 P2 2.200649 1_555
Ni5 P5 2.306018 1_554
Ni5 P5 2.306018 1_555
Ni5 U0 3.077198 1_445
Ni6 P5 2.265693 1_565
Ni6 P0 2.270581 1_556
Ni6 P0 2.270581 1_555
Ni6 P3 2.345238 1_455
Ni6 U0 3.008658 1_455
Ni6 U0 3.008658 1_456
Ni6 U1 3.087929 1_555
Ni7 P3 2.265746 1_555
Ni7 P1 2.270611 1_556
Ni7 P1 2.270611 1_555
Ni7 P4 2.345220 1_565
Ni7 U0 3.008946 1_556
Ni7 U0 3.008946 1_555
Ni7 U1 3.087984 1_555
Ni8 P4 2.265854 1_455
Ni8 P2 2.270810 1_556
Ni8 P2 2.270810 1_555
Ni8 P5 2.345119 1_555
Ni8 U0 3.008968 1_446
Ni8 U0 3.008968 1_445
Ni8 U1 3.088531 1_555
Ni9 P4 2.271051 1_555
Ni9 P6 2.479584 1_555
Ni9 P6 2.479584 1_556
Ni9 P0 2.564289 1_655
Ni9 P0 2.564289 1_656
Ni10 P5 2.270862 1_555
Ni10 P6 2.480044 1_555
Ni10 P6 2.480044 1_556
Ni10 P1 2.563835 1_545
Ni10 P1 2.563835 1_546
Ni11 P3 2.270783 1_555
Ni11 P6 2.479586 1_555
Ni11 P6 2.479586 1_556
Ni11 P2 2.564291 1_556
Ni11 P2 2.564291 1_555
P0 U1 2.859443 1_554
P0 U1 2.859443 1_555
P1 U1 2.859408 1_554
P1 U1 2.859408 1_555
P2 U1 2.859576 1_554
P2 U1 2.859576 1_555
P3 U0 2.878042 1_556
P3 U0 2.878042 1_555
P4 U0 2.878179 1_545
P4 U0 2.878179 1_546
P5 U0 2.878223 1_445
P5 U0 2.878223 1_446
