# generated using pymatgen
data_VPbClO3
_symmetry_space_group_name_H-M   'P 1'
_cell_length_a   5.35928900
_cell_length_b   7.31246100
_cell_length_c   10.57038800
_cell_angle_alpha   90.00000000
_cell_angle_beta   90.00000000
_cell_angle_gamma   90.00000000
_symmetry_Int_Tables_number   1
_chemical_formula_structural   VPbClO3
_chemical_formula_sum   'V4 Pb4 Cl4 O12'
_cell_volume   414.24919089
_cell_formula_units_Z   4
loop_
 _symmetry_equiv_pos_site_id
 _symmetry_equiv_pos_as_xyz
  1  'x, y, z'
loop_
 _atom_site_type_symbol
 _atom_site_label
 _atom_site_symmetry_multiplicity
 _atom_site_fract_x
 _atom_site_fract_y
 _atom_site_fract_z
 _atom_site_occupancy
  V  V0  1  0.75000000  0.93300700  0.52804700  1
  V  V1  1  0.25000000  0.43300700  0.97195300  1
  V  V2  1  0.75000000  0.56699300  0.02804700  1
  V  V3  1  0.25000000  0.06699300  0.47195300  1
  Pb  Pb0  1  0.75000000  0.38935200  0.65764500  1
  Pb  Pb1  1  0.75000000  0.11064800  0.15764500  1
  Pb  Pb2  1  0.25000000  0.88935200  0.84235500  1
  Pb  Pb3  1  0.25000000  0.61064800  0.34235500  1
  Cl  Cl0  1  0.25000000  0.55054000  0.60521800  1
  Cl  Cl1  1  0.25000000  0.94946000  0.10521800  1
  Cl  Cl2  1  0.75000000  0.44946000  0.39478200  1
  Cl  Cl3  1  0.75000000  0.05054000  0.89478200  1
  O  O0  1  0.00798300  0.61284200  0.91502200  1
  O  O1  1  0.25000000  0.23032300  0.36505300  1
  O  O2  1  0.75000000  0.76967700  0.63494700  1
  O  O3  1  0.50798300  0.11284200  0.58497800  1
  O  O4  1  0.99201700  0.11284200  0.58497800  1
  O  O5  1  0.99201700  0.38715800  0.08497800  1
  O  O6  1  0.49201700  0.61284200  0.91502200  1
  O  O7  1  0.00798300  0.88715800  0.41502200  1
  O  O8  1  0.50798300  0.38715800  0.08497800  1
  O  O9  1  0.75000000  0.73032300  0.13494700  1
  O  O10  1  0.49201700  0.88715800  0.41502200  1
  O  O11  1  0.25000000  0.26967700  0.86505300  1
loop_
_geom_bond_atom_site_label_1
_geom_bond_atom_site_label_2
_geom_bond_distance
_geom_bond_site_symmetry_2
Cl0 Pb3 2.813114 1_555
Cl0 Pb0 2.979411 1_455
Cl0 Pb0 2.979411 1_555
Cl1 Pb2 2.813114 1_554
Cl1 Pb1 2.979411 1_465
Cl1 Pb1 2.979411 1_565
Cl2 Pb0 2.813114 1_555
Cl2 Pb3 2.979411 1_555
Cl2 Pb3 2.979411 1_655
Cl3 Pb1 2.813114 1_556
Cl3 Pb2 2.979411 1_545
Cl3 Pb2 2.979411 1_645
O0 V2 1.857782 1_456
O0 V1 1.942620 1_555
O0 Pb2 2.522037 1_555
O1 V3 1.644172 1_555
O1 Pb3 2.791442 1_555
O2 V0 1.644172 1_555
O2 Pb0 2.791442 1_555
O3 V3 1.857782 1_555
O3 V0 1.942620 1_545
O3 Pb0 2.522037 1_555
O4 V3 1.857782 1_655
O4 V0 1.942620 1_545
O4 Pb0 2.522037 1_555
O5 V1 1.857782 1_654
O5 V2 1.942620 1_555
O5 Pb1 2.522037 1_555
O6 V2 1.857782 1_556
O6 V1 1.942620 1_555
O6 Pb2 2.522037 1_555
O7 V0 1.857782 1_455
O7 V3 1.942620 1_565
O7 Pb3 2.522037 1_555
O8 V1 1.857782 1_554
O8 V2 1.942620 1_555
O8 Pb1 2.522037 1_555
O9 V2 1.644172 1_555
O9 Pb1 2.791442 1_565
O10 V0 1.857782 1_555
O10 V3 1.942620 1_565
O10 Pb3 2.522037 1_555
O11 V1 1.644172 1_555
O11 Pb2 2.791442 1_545
