# generated using pymatgen
data_Mn(AgO2)2
_symmetry_space_group_name_H-M   'P 1'
_cell_length_a   5.58801900
_cell_length_b   6.97460600
_cell_length_c   9.89595300
_cell_angle_alpha   90.00000000
_cell_angle_beta   90.00000000
_cell_angle_gamma   90.00000000
_symmetry_Int_Tables_number   1
_chemical_formula_structural   Mn(AgO2)2
_chemical_formula_sum   'Mn4 Ag8 O16'
_cell_volume   385.68715666
_cell_formula_units_Z   4
loop_
 _symmetry_equiv_pos_site_id
 _symmetry_equiv_pos_as_xyz
  1  'x, y, z'
loop_
 _atom_site_type_symbol
 _atom_site_label
 _atom_site_symmetry_multiplicity
 _atom_site_fract_x
 _atom_site_fract_y
 _atom_site_fract_z
 _atom_site_occupancy
  Mn  Mn0  1  0.96734000  0.75000000  0.31449800  1
  Mn  Mn1  1  0.46734000  0.25000000  0.18550200  1
  Mn  Mn2  1  0.03266000  0.25000000  0.68550200  1
  Mn  Mn3  1  0.53266000  0.75000000  0.81449800  1
  Ag  Ag0  1  0.50000000  0.50000000  0.50000000  1
  Ag  Ag1  1  0.00000000  0.50000000  0.00000000  1
  Ag  Ag2  1  0.50000000  0.00000000  0.50000000  1
  Ag  Ag3  1  0.00000000  0.00000000  0.00000000  1
  Ag  Ag4  1  0.01794500  0.75000000  0.64789900  1
  Ag  Ag5  1  0.51794500  0.25000000  0.85210100  1
  Ag  Ag6  1  0.98205500  0.25000000  0.35210100  1
  Ag  Ag7  1  0.48205500  0.75000000  0.14789900  1
  O  O0  1  0.59187500  0.75000000  0.63958100  1
  O  O1  1  0.09187500  0.25000000  0.86041900  1
  O  O2  1  0.40812500  0.25000000  0.36041900  1
  O  O3  1  0.90812500  0.75000000  0.13958100  1
  O  O4  1  0.23639500  0.75000000  0.84999700  1
  O  O5  1  0.73639500  0.25000000  0.65000300  1
  O  O6  1  0.76360500  0.25000000  0.15000300  1
  O  O7  1  0.26360500  0.75000000  0.34999700  1
  O  O8  1  0.66749900  0.54950200  0.88321000  1
  O  O9  1  0.16749900  0.45049800  0.61679000  1
  O  O10  1  0.33250100  0.04950200  0.11679000  1
  O  O11  1  0.83250100  0.95049800  0.38321000  1
  O  O12  1  0.33250100  0.45049800  0.11679000  1
  O  O13  1  0.83250100  0.54950200  0.38321000  1
  O  O14  1  0.66749900  0.95049800  0.88321000  1
  O  O15  1  0.16749900  0.04950200  0.61679000  1
loop_
_geom_bond_atom_site_label_1
_geom_bond_atom_site_label_2
_geom_bond_distance
_geom_bond_site_symmetry_2
Mn0 O7 1.692396 1_655
Mn0 O13 1.727890 1_555
Mn0 O11 1.727890 1_555
Mn0 O3 1.762314 1_555
Mn1 O6 1.692396 1_555
Mn1 O10 1.727890 1_555
Mn1 O12 1.727890 1_555
Mn1 O2 1.762314 1_555
Mn2 O5 1.692396 1_455
Mn2 O9 1.727890 1_555
Mn2 O15 1.727890 1_555
Mn2 O1 1.762314 1_555
Mn3 O4 1.692396 1_555
Mn3 O14 1.727890 1_555
Mn3 O8 1.727890 1_555
Mn3 O0 1.762314 1_555
Ag0 O9 2.215221 1_555
Ag0 O13 2.215221 1_555
Ag0 O0 2.282948 1_555
Ag0 O2 2.282948 1_555
Ag0 O5 2.643637 1_555
Ag0 O7 2.643637 1_555
Ag1 O12 2.215221 1_555
Ag1 O8 2.215221 1_454
Ag1 O1 2.282948 1_554
Ag1 O3 2.282948 1_455
Ag1 O6 2.643637 1_455
Ag1 O4 2.643637 1_554
Ag2 O15 2.215221 1_555
Ag2 O11 2.215221 1_545
Ag2 O0 2.282948 1_545
Ag2 O2 2.282948 1_555
Ag2 O5 2.643637 1_555
Ag2 O7 2.643637 1_545
Ag3 O10 2.215221 1_555
Ag3 O14 2.215221 1_444
Ag3 O3 2.282948 1_445
Ag3 O1 2.282948 1_554
Ag3 O6 2.643637 1_455
Ag3 O4 2.643637 1_544
Ag4 O15 2.270842 1_565
Ag4 O9 2.270842 1_555
Ag4 O4 2.343059 1_555
Ag4 O0 2.382310 1_455
Ag5 O8 2.270842 1_555
Ag5 O14 2.270842 1_545
Ag5 O5 2.343059 1_555
Ag5 O1 2.382310 1_555
Ag6 O13 2.270842 1_555
Ag6 O11 2.270842 1_545
Ag6 O6 2.343059 1_555
Ag6 O2 2.382310 1_655
Ag7 O10 2.270842 1_565
Ag7 O12 2.270842 1_555
Ag7 O7 2.343059 1_555
Ag7 O3 2.382310 1_555
