# generated using pymatgen
data_LiCdPO4
_symmetry_space_group_name_H-M   'P 1'
_cell_length_a   4.86632900
_cell_length_b   6.38626200
_cell_length_c   10.91432500
_cell_angle_alpha   90.00000000
_cell_angle_beta   90.00000000
_cell_angle_gamma   90.00000000
_symmetry_Int_Tables_number   1
_chemical_formula_structural   LiCdPO4
_chemical_formula_sum   'Li4 Cd4 P4 O16'
_cell_volume   339.19159386
_cell_formula_units_Z   4
loop_
 _symmetry_equiv_pos_site_id
 _symmetry_equiv_pos_as_xyz
  1  'x, y, z'
loop_
 _atom_site_type_symbol
 _atom_site_label
 _atom_site_symmetry_multiplicity
 _atom_site_fract_x
 _atom_site_fract_y
 _atom_site_fract_z
 _atom_site_occupancy
  Li  Li0  1  0.01268300  0.00677700  0.49708500  1
  Li  Li1  1  0.98731700  0.50677700  0.50291500  1
  Li  Li2  1  0.51268300  0.50677700  0.00291500  1
  Li  Li3  1  0.48731700  0.00677700  0.99708500  1
  Cd  Cd0  1  0.45613700  0.25192000  0.71601500  1
  Cd  Cd1  1  0.54386300  0.75192000  0.28398500  1
  Cd  Cd2  1  0.04386300  0.25192000  0.21601500  1
  Cd  Cd3  1  0.95613700  0.75192000  0.78398500  1
  P  P0  1  0.10435300  0.74906000  0.08858400  1
  P  P1  1  0.89564700  0.24906000  0.91141600  1
  P  P2  1  0.60435300  0.24906000  0.41141600  1
  P  P3  1  0.39564700  0.74906000  0.58858400  1
  O  O0  1  0.77370300  0.25153700  0.04357300  1
  O  O1  1  0.78872700  0.74597700  0.09232300  1
  O  O2  1  0.22629700  0.75153700  0.95642700  1
  O  O3  1  0.73303900  0.44429000  0.34427600  1
  O  O4  1  0.28872700  0.24597700  0.40767700  1
  O  O5  1  0.23303900  0.94429000  0.15572400  1
  O  O6  1  0.27370300  0.75153700  0.45642700  1
  O  O7  1  0.26696100  0.94429000  0.65572400  1
  O  O8  1  0.76048800  0.05453900  0.84604200  1
  O  O9  1  0.71127300  0.74597700  0.59232300  1
  O  O10  1  0.23951200  0.55453900  0.15395800  1
  O  O11  1  0.72629700  0.25153700  0.54357300  1
  O  O12  1  0.76696100  0.44429000  0.84427600  1
  O  O13  1  0.26048800  0.55453900  0.65395800  1
  O  O14  1  0.21127300  0.24597700  0.90767700  1
  O  O15  1  0.73951200  0.05453900  0.34604200  1
loop_
_geom_bond_atom_site_label_1
_geom_bond_atom_site_label_2
_geom_bond_distance
_geom_bond_site_symmetry_2
Li0 O6 2.113610 1_545
Li0 O15 2.139589 1_455
Li0 O11 2.154758 1_455
Li0 O7 2.165244 1_545
Li0 O4 2.256168 1_555
Li0 O9 2.450688 1_445
Li1 O11 2.113610 1_555
Li1 O13 2.139589 1_655
Li1 O6 2.154758 1_655
Li1 O3 2.165244 1_555
Li1 O9 2.256168 1_555
Li1 O4 2.450688 1_655
Li2 O0 2.113610 1_555
Li2 O10 2.139589 1_555
Li2 O2 2.154758 1_554
Li2 O12 2.165244 1_554
Li2 O1 2.256168 1_555
Li2 O14 2.450688 1_554
Li3 O2 2.113610 1_545
Li3 O8 2.139589 1_555
Li3 O0 2.154758 1_556
Li3 O5 2.165244 1_546
Li3 O14 2.256168 1_555
Li3 O1 2.450688 1_546
Cd0 O13 2.258360 1_555
Cd0 O7 2.267196 1_545
Cd0 O11 2.295793 1_555
Cd0 O12 2.399337 1_555
Cd0 O8 2.407594 1_555
Cd0 O14 2.407739 1_555
Cd1 O15 2.258360 1_565
Cd1 O3 2.267196 1_555
Cd1 O6 2.295793 1_555
Cd1 O5 2.399337 1_555
Cd1 O10 2.407594 1_555
Cd1 O1 2.407739 1_555
Cd2 O10 2.258360 1_555
Cd2 O5 2.267196 1_545
Cd2 O0 2.295793 1_455
Cd2 O3 2.399337 1_455
Cd2 O15 2.407594 1_455
Cd2 O4 2.407739 1_555
Cd3 O8 2.258360 1_565
Cd3 O12 2.267196 1_555
Cd3 O2 2.295793 1_655
Cd3 O7 2.399337 1_655
Cd3 O13 2.407594 1_655
Cd3 O9 2.407739 1_555
O0 P1 1.559784 1_554
O1 P0 1.536608 1_655
O2 P0 1.559784 1_556
O3 P2 1.575952 1_555
O4 P2 1.536608 1_555
O5 P0 1.575952 1_555
O6 P3 1.559784 1_555
O7 P3 1.575952 1_555
O8 P1 1.576364 1_555
O9 P3 1.536608 1_555
O10 P0 1.576364 1_555
O11 P2 1.559784 1_555
O12 P1 1.575952 1_555
O13 P3 1.576364 1_555
O14 P1 1.536608 1_455
O15 P2 1.576364 1_555
