# generated using pymatgen
data_MnSiO3
_symmetry_space_group_name_H-M   'P 1'
_cell_length_a   6.81943100
_cell_length_b   7.70909994
_cell_length_c   16.26500929
_cell_angle_alpha   92.16421080
_cell_angle_beta   96.39317567
_cell_angle_gamma   94.87071769
_symmetry_Int_Tables_number   1
_chemical_formula_structural   MnSiO3
_chemical_formula_sum   'Mn14 Si14 O42'
_cell_volume   845.72935960
_cell_formula_units_Z   14
loop_
 _symmetry_equiv_pos_site_id
 _symmetry_equiv_pos_as_xyz
  1  'x, y, z'
loop_
 _atom_site_type_symbol
 _atom_site_label
 _atom_site_symmetry_multiplicity
 _atom_site_fract_x
 _atom_site_fract_y
 _atom_site_fract_z
 _atom_site_occupancy
  Mn  Mn0  1  0.62075800  0.14581400  0.29196300  1
  Mn  Mn1  1  0.37924200  0.85418600  0.70803700  1
  Mn  Mn2  1  0.79612600  0.30982000  0.48229000  1
  Mn  Mn3  1  0.20387400  0.69018000  0.51771000  1
  Mn  Mn4  1  0.26546900  0.23965100  0.00781900  1
  Mn  Mn5  1  0.73453100  0.76034900  0.99218100  1
  Mn  Mn6  1  0.15939700  0.61174400  0.30749400  1
  Mn  Mn7  1  0.84060300  0.38825600  0.69250600  1
  Mn  Mn8  1  0.06701900  0.53081000  0.10758600  1
  Mn  Mn9  1  0.93298100  0.46919000  0.89241400  1
  Mn  Mn10  1  0.17334900  0.14668300  0.81243200  1
  Mn  Mn11  1  0.82665100  0.85331700  0.18756800  1
  Mn  Mn12  1  0.04385500  0.06758500  0.60473600  1
  Mn  Mn13  1  0.95614500  0.93241500  0.39526400  1
  Si  Si0  1  0.49328700  0.81858500  0.41031000  1
  Si  Si1  1  0.50671300  0.18141500  0.58969000  1
  Si  Si2  1  0.67742900  0.54375300  0.30970000  1
  Si  Si3  1  0.32257100  0.45624700  0.69030000  1
  Si  Si4  1  0.57807700  0.45795500  0.11901300  1
  Si  Si5  1  0.42192300  0.54204500  0.88098700  1
  Si  Si6  1  0.78195200  0.16269500  0.02942500  1
  Si  Si7  1  0.21804800  0.83730500  0.97057500  1
  Si  Si8  1  0.31561600  0.91552900  0.16380500  1
  Si  Si9  1  0.68438400  0.08447100  0.83619500  1
  Si  Si10  1  0.11869500  0.20383000  0.25395800  1
  Si  Si11  1  0.88130500  0.79617000  0.74604200  1
  Si  Si12  1  0.23781800  0.28681900  0.43612500  1
  Si  Si13  1  0.76218200  0.71318100  0.56387500  1
  O  O0  1  0.55496300  0.73631800  0.50260800  1
  O  O1  1  0.44503700  0.26368200  0.49739200  1
  O  O2  1  0.49493900  0.65167500  0.34078100  1
  O  O3  1  0.50506100  0.34832500  0.65921900  1
  O  O4  1  0.58805100  0.43929100  0.22067000  1
  O  O5  1  0.41194900  0.56070900  0.77933000  1
  O  O6  1  0.61823300  0.26334600  0.07846600  1
  O  O7  1  0.38176700  0.73665400  0.92153400  1
  O  O8  1  0.33201800  0.90141800  0.06345000  1
  O  O9  1  0.66798200  0.09858200  0.93655000  1
  O  O10  1  0.23559000  0.11026400  0.18304700  1
  O  O11  1  0.76441000  0.88973600  0.81695300  1
  O  O12  1  0.27892700  0.21705600  0.34139600  1
  O  O13  1  0.72107300  0.78294400  0.65860400  1
  O  O14  1  0.71999700  0.37873700  0.36522900  1
  O  O15  1  0.28000300  0.62126300  0.63477100  1
  O  O16  1  0.35432400  0.47869300  0.07931400  1
  O  O17  1  0.64567600  0.52130700  0.92068600  1
  O  O18  1  0.82731100  0.98156100  0.07236400  1
  O  O19  1  0.17268900  0.01843900  0.92763600  1
  O  O20  1  0.53679300  0.92442600  0.21249900  1
  O  O21  1  0.46320700  0.07557400  0.78750100  1
  O  O22  1  0.07166500  0.39533800  0.22512500  1
  O  O23  1  0.92833500  0.60466200  0.77487500  1
  O  O24  1  0.17819800  0.48447300  0.42999800  1
  O  O25  1  0.82180200  0.51552700  0.57000200  1
  O  O26  1  0.25641600  0.84152200  0.40610400  1
  O  O27  1  0.74358400  0.15847800  0.59389600  1
  O  O28  1  0.94432700  0.83044600  0.52775500  1
  O  O29  1  0.05567300  0.16955400  0.47224500  1
  O  O30  1  0.92713200  0.07614100  0.27513500  1
  O  O31  1  0.07286800  0.92385900  0.72486500  1
  O  O32  1  0.84763800  0.23506300  0.81003100  1
  O  O33  1  0.15236200  0.76493700  0.18996900  1
  O  O34  1  0.96980600  0.30492700  0.02137000  1
  O  O35  1  0.03019400  0.69507300  0.97863000  1
  O  O36  1  0.74987800  0.61238500  0.10525700  1
  O  O37  1  0.25012200  0.38761500  0.89474300  1
  O  O38  1  0.86229500  0.69229200  0.30730800  1
  O  O39  1  0.13770500  0.30770800  0.69269200  1
  O  O40  1  0.64719600  0.98284800  0.39670100  1
  O  O41  1  0.35280400  0.01715200  0.60329900  1
loop_
_geom_bond_atom_site_label_1
_geom_bond_atom_site_label_2
_geom_bond_distance
_geom_bond_site_symmetry_2
Mn0 O20 2.100914 1_545
Mn0 O14 2.134193 1_555
Mn0 O40 2.155154 1_545
Mn0 O30 2.243966 1_555
Mn0 O4 2.596010 1_555
Mn0 O12 2.642640 1_555
Mn1 O21 2.100914 1_565
Mn1 O15 2.134193 1_555
Mn1 O41 2.155154 1_565
Mn1 O31 2.243966 1_555
Mn1 O5 2.596010 1_555
Mn1 O13 2.642640 1_555
Mn2 O14 2.019927 1_555
Mn2 O25 2.075357 1_555
Mn2 O29 2.169053 1_655
Mn2 O27 2.240230 1_555
Mn2 O1 2.431487 1_555
Mn3 O15 2.019927 1_555
Mn3 O24 2.075357 1_555
Mn3 O28 2.169053 1_455
Mn3 O26 2.240230 1_555
Mn3 O0 2.431487 1_555
Mn4 O19 2.115285 1_554
Mn4 O16 2.146378 1_555
Mn4 O34 2.151738 1_455
Mn4 O37 2.197846 1_554
Mn4 O6 2.536692 1_555
Mn5 O18 2.115285 1_556
Mn5 O17 2.146378 1_555
Mn5 O35 2.151738 1_655
Mn5 O36 2.197846 1_556
Mn5 O7 2.536692 1_555
Mn6 O22 2.102196 1_555
Mn6 O38 2.168630 1_455
Mn6 O24 2.249750 1_555
Mn6 O33 2.282701 1_555
Mn6 O2 2.283785 1_555
Mn6 O26 2.344798 1_555
Mn7 O23 2.102196 1_555
Mn7 O39 2.168630 1_655
Mn7 O25 2.249750 1_555
Mn7 O32 2.282701 1_555
Mn7 O3 2.283785 1_555
Mn7 O27 2.344798 1_555
Mn8 O16 2.128833 1_555
Mn8 O34 2.202444 1_455
Mn8 O33 2.203902 1_555
Mn8 O22 2.211223 1_555
Mn8 O36 2.299737 1_455
Mn8 O35 2.490646 1_554
Mn9 O17 2.128833 1_555
Mn9 O35 2.202444 1_655
Mn9 O32 2.203902 1_555
Mn9 O23 2.211223 1_555
Mn9 O37 2.299737 1_655
Mn9 O34 2.490646 1_556
Mn10 O19 2.151647 1_555
Mn10 O21 2.172067 1_555
Mn10 O31 2.201552 1_545
Mn10 O37 2.237687 1_555
Mn10 O39 2.349787 1_555
Mn10 O32 2.374655 1_455
Mn11 O18 2.151647 1_555
Mn11 O20 2.172067 1_555
Mn11 O30 2.201552 1_565
Mn11 O36 2.237687 1_555
Mn11 O38 2.349787 1_555
Mn11 O33 2.374655 1_655
Mn12 O41 2.177138 1_555
Mn12 O28 2.190347 1_445
Mn12 O27 2.210800 1_455
Mn12 O31 2.280169 1_545
Mn12 O39 2.297351 1_555
Mn12 O29 2.328986 1_555
Mn13 O40 2.177138 1_555
Mn13 O29 2.190347 1_665
Mn13 O26 2.210800 1_655
Mn13 O30 2.280169 1_565
Mn13 O38 2.297351 1_555
Mn13 O28 2.328986 1_555
O0 Si13 1.662637 1_555
O0 Si0 1.676124 1_555
O1 Si12 1.662637 1_555
O1 Si1 1.676124 1_555
O2 Si2 1.667527 1_555
O2 Si0 1.682290 1_555
O3 Si3 1.667527 1_555
O3 Si1 1.682290 1_555
O4 Si2 1.657996 1_555
O4 Si4 1.659463 1_555
O5 Si3 1.657996 1_555
O5 Si5 1.659463 1_555
O6 Si6 1.668387 1_555
O6 Si4 1.672113 1_555
O7 Si7 1.668387 1_555
O7 Si5 1.672113 1_555
O8 Si8 1.648630 1_555
O8 Si7 1.657469 1_554
O9 Si9 1.648630 1_555
O9 Si6 1.657469 1_556
O10 Si10 1.650930 1_555
O10 Si8 1.670672 1_545
O11 Si11 1.650930 1_555
O11 Si9 1.670672 1_565
O12 Si12 1.673621 1_555
O12 Si10 1.688495 1_555
O13 Si13 1.673621 1_555
O13 Si11 1.688495 1_555
O14 Si2 1.615364 1_555
O15 Si3 1.615364 1_555
O16 Si4 1.612628 1_555
O17 Si5 1.612628 1_555
O18 Si6 1.622412 1_565
O19 Si7 1.622412 1_545
O20 Si8 1.618409 1_555
O21 Si9 1.618409 1_555
O22 Si10 1.612953 1_555
O23 Si11 1.612953 1_555
O24 Si12 1.613892 1_555
O25 Si13 1.613892 1_555
O26 Si0 1.634023 1_555
O27 Si1 1.634023 1_555
O28 Si13 1.648391 1_555
O29 Si12 1.648391 1_555
O30 Si10 1.643660 1_655
O31 Si11 1.643660 1_455
O32 Si9 1.640620 1_555
O33 Si8 1.640620 1_555
O34 Si6 1.634086 1_555
O35 Si7 1.634086 1_555
O36 Si4 1.637571 1_555
O37 Si5 1.637571 1_555
O38 Si2 1.634390 1_555
O39 Si3 1.634390 1_555
O40 Si0 1.612877 1_555
O41 Si1 1.612877 1_555
