# generated using pymatgen
data_Ba2Mn2Bi2O
_symmetry_space_group_name_H-M   'P 1'
_cell_length_a   4.89514700
_cell_length_b   4.89514422
_cell_length_c   20.48241000
_cell_angle_alpha   90.00000037
_cell_angle_beta   89.99999441
_cell_angle_gamma   120.00009942
_symmetry_Int_Tables_number   1
_chemical_formula_structural   Ba2Mn2Bi2O
_chemical_formula_sum   'Ba4 Mn4 Bi4 O2'
_cell_volume   425.05240822
_cell_formula_units_Z   2
loop_
 _symmetry_equiv_pos_site_id
 _symmetry_equiv_pos_as_xyz
  1  'x, y, z'
loop_
 _atom_site_type_symbol
 _atom_site_label
 _atom_site_symmetry_multiplicity
 _atom_site_fract_x
 _atom_site_fract_y
 _atom_site_fract_z
 _atom_site_occupancy
  Ba  Ba0  1  0.99999900  0.00000100  0.74999200  1
  Ba  Ba1  1  0.00000000  0.00000100  0.24999200  1
  Ba  Ba2  1  0.00000000  0.00000100  0.49999400  1
  Ba  Ba3  1  0.00000000  0.00000100  0.99999400  1
  Mn  Mn0  1  0.33334500  0.66665400  0.84887600  1
  Mn  Mn1  1  0.66666200  0.33333800  0.34888200  1
  Mn  Mn2  1  0.66666300  0.33333800  0.15116100  1
  Mn  Mn3  1  0.33333400  0.66666300  0.65116300  1
  Bi  Bi0  1  0.66666700  0.33333400  0.88893100  1
  Bi  Bi1  1  0.66666700  0.33333400  0.61105800  1
  Bi  Bi2  1  0.33333300  0.66666800  0.38893100  1
  Bi  Bi3  1  0.33333300  0.66666800  0.11105800  1
  O  O0  1  0.66666700  0.33333400  0.24998400  1
  O  O1  1  0.33333300  0.66666700  0.74998400  1
loop_
_geom_bond_atom_site_label_1
_geom_bond_atom_site_label_2
_geom_bond_distance
_geom_bond_site_symmetry_2
Ba0 O1 2.826207 1_655
Ba0 O1 2.826209 1_545
Ba0 O1 2.826221 1_645
Ba1 O0 2.826211 1_445
Ba1 O0 2.826212 1_455
Ba1 O0 2.826213 1_555
Ba2 Bi2 3.627996 1_555
Ba2 Bi2 3.627997 1_545
Ba2 Bi2 3.627998 1_445
Ba2 Bi1 3.628009 1_445
Ba2 Bi1 3.628010 1_455
Ba2 Bi1 3.628011 1_555
Ba3 Bi0 3.627997 1_445
Ba3 Bi0 3.627997 1_455
Ba3 Bi0 3.627998 1_555
Ba3 Bi3 3.628009 1_556
Ba3 Bi3 3.628010 1_546
Ba3 Bi3 3.628010 1_446
Mn0 O1 2.025546 1_555
Mn1 O0 2.025669 1_555
Mn2 O0 2.024133 1_555
Mn3 O1 2.024092 1_555
Bi0 Mn0 2.942787 1_555
Bi0 Mn0 2.942930 1_655
Bi0 Mn0 2.942937 1_545
Bi1 Mn3 2.943154 1_555
Bi1 Mn3 2.943171 1_655
Bi1 Mn3 2.943186 1_545
Bi2 Mn1 2.942822 1_555
Bi2 Mn1 2.942862 1_565
Bi2 Mn1 2.942867 1_455
Bi3 Mn2 2.943134 1_555
Bi3 Mn2 2.943170 1_565
Bi3 Mn2 2.943172 1_455
