# generated using pymatgen
data_Sr8In4Cu3N5
_symmetry_space_group_name_H-M   'P 1'
_cell_length_a   11.55337843
_cell_length_b   11.55337843
_cell_length_c   11.55337843
_cell_angle_alpha   160.76820619
_cell_angle_beta   114.68736195
_cell_angle_gamma   68.78550619
_symmetry_Int_Tables_number   1
_chemical_formula_structural   Sr8In4Cu3N5
_chemical_formula_sum   'Sr8 In4 Cu3 N5'
_cell_volume   458.81287361
_cell_formula_units_Z   1
loop_
 _symmetry_equiv_pos_site_id
 _symmetry_equiv_pos_as_xyz
  1  'x, y, z'
loop_
 _atom_site_type_symbol
 _atom_site_label
 _atom_site_symmetry_multiplicity
 _atom_site_fract_x
 _atom_site_fract_y
 _atom_site_fract_z
 _atom_site_occupancy
  Sr  Sr0  1  0.56268900  0.71090100  0.85178800  1
  Sr  Sr1  1  0.74942300  0.90163800  0.84778600  1
  Sr  Sr2  1  0.43731100  0.28909900  0.14821200  1
  Sr  Sr3  1  0.85911400  0.71090100  0.14821200  1
  Sr  Sr4  1  0.14088600  0.28909900  0.85178800  1
  Sr  Sr5  1  0.25057700  0.09836200  0.15221400  1
  Sr  Sr6  1  0.05385200  0.90163800  0.15221400  1
  Sr  Sr7  1  0.94614800  0.09836200  0.84778600  1
  In  In0  1  0.64774500  0.50000000  0.14774500  1
  In  In1  1  0.35225500  0.50000000  0.85225500  1
  In  In2  1  0.41607200  0.91607200  0.50000000  1
  In  In3  1  0.58392800  0.08392800  0.50000000  1
  Cu  Cu0  1  0.19242200  0.69242200  0.50000000  1
  Cu  Cu1  1  0.80757800  0.30757800  0.50000000  1
  Cu  Cu2  1  0.00000000  0.50000000  0.50000000  1
  N  N0  1  0.34563300  0.69429700  0.65133600  1
  N  N1  1  0.95703900  0.30570300  0.65133600  1
  N  N2  1  0.04296100  0.69429700  0.34866400  1
  N  N3  1  0.00000000  0.00000000  0.00000000  1
  N  N4  1  0.65436700  0.30570300  0.34866400  1
loop_
_geom_bond_atom_site_label_1
_geom_bond_atom_site_label_2
_geom_bond_distance
_geom_bond_site_symmetry_2
In0 In2 3.111095 1_544
In0 In2 3.111095 1_555
In0 In3 3.111095 1_565
In0 In3 3.111095 1_554
In0 Sr1 3.669196 1_544
In0 Sr7 3.669196 1_565
In0 Sr7 3.669196 1_554
In0 Sr1 3.669198 1_555
In0 Sr2 4.021327 1_555
In0 Sr3 4.021337 1_555
In1 In3 3.111095 1_566
In1 In2 3.111095 1_545
In1 In3 3.111095 1_555
In1 In2 3.111095 1_556
In1 Sr5 3.669196 1_566
In1 Sr6 3.669196 1_556
In1 Sr6 3.669196 1_545
In1 Sr5 3.669198 1_555
In1 Sr0 4.021327 1_555
In1 Sr4 4.021337 1_555
In2 In3 3.200569 1_565
In2 Sr2 3.605679 1_566
In2 Sr2 3.605679 1_555
In2 Sr4 3.605687 1_554
In2 Sr4 3.605689 1_565
In3 Sr0 3.605679 1_555
In3 Sr0 3.605679 1_544
In3 Sr3 3.605687 1_556
In3 Sr3 3.605689 1_545
Cu0 N0 1.887253 1_555
Cu0 N2 1.887253 1_555
Cu1 N4 1.887253 1_555
Cu1 N1 1.887253 1_555
Cu2 N3 1.929903 1_555
Cu2 N3 1.929903 1_566
N0 Sr0 2.519283 1_555
N0 Sr2 2.644531 1_555
N0 Sr2 2.644531 1_566
N0 Sr5 2.659073 1_566
N0 Sr5 2.659076 1_555
N1 Sr4 2.519278 1_655
N1 Sr3 2.644523 1_556
N1 Sr3 2.644526 1_545
N1 Sr6 2.659081 1_656
N1 Sr6 2.659081 1_645
N2 Sr3 2.519278 1_455
N2 Sr4 2.644523 1_554
N2 Sr4 2.644526 1_565
N2 Sr7 2.659081 1_465
N2 Sr7 2.659081 1_454
N3 Sr6 2.668218 1_545
N3 Sr7 2.668218 1_454
N3 Sr5 2.668229 1_555
N3 Sr1 2.668229 1_444
N4 Sr2 2.519283 1_555
N4 Sr0 2.644531 1_555
N4 Sr0 2.644531 1_544
N4 Sr1 2.659073 1_544
N4 Sr1 2.659076 1_555
