# generated using pymatgen
data_Li2Co3(P2O7)2
_symmetry_space_group_name_H-M   'P 1'
_cell_length_a   7.96182600
_cell_length_b   7.34172700
_cell_length_c   9.52788002
_cell_angle_alpha   70.08985353
_cell_angle_beta   90.00000000
_cell_angle_gamma   90.00000000
_symmetry_Int_Tables_number   1
_chemical_formula_structural   Li2Co3(P2O7)2
_chemical_formula_sum   'Li4 Co6 P8 O28'
_cell_volume   523.64902244
_cell_formula_units_Z   2
loop_
 _symmetry_equiv_pos_site_id
 _symmetry_equiv_pos_as_xyz
  1  'x, y, z'
loop_
 _atom_site_type_symbol
 _atom_site_label
 _atom_site_symmetry_multiplicity
 _atom_site_fract_x
 _atom_site_fract_y
 _atom_site_fract_z
 _atom_site_occupancy
  Li  Li0  1  0.41511000  0.70774700  0.86174000  1
  Li  Li1  1  0.08489000  0.70774700  0.36174000  1
  Li  Li2  1  0.58489000  0.29225300  0.13826000  1
  Li  Li3  1  0.91511000  0.29225300  0.63826000  1
  Co  Co0  1  0.62575800  0.18907100  0.48135700  1
  Co  Co1  1  0.87424200  0.18907100  0.98135700  1
  Co  Co2  1  0.37424200  0.81092900  0.51864300  1
  Co  Co3  1  0.00000000  0.00000000  0.50000000  1
  Co  Co4  1  0.12575800  0.81092900  0.01864300  1
  Co  Co5  1  0.50000000  0.00000000  0.00000000  1
  P  P0  1  0.70707500  0.88627900  0.30562200  1
  P  P1  1  0.45462000  0.59855200  0.28200600  1
  P  P2  1  0.04538000  0.59855200  0.78200600  1
  P  P3  1  0.79292500  0.88627900  0.80562200  1
  P  P4  1  0.95462000  0.40144800  0.21799400  1
  P  P5  1  0.54538000  0.40144800  0.71799400  1
  P  P6  1  0.29292500  0.11372100  0.69437800  1
  P  P7  1  0.20707500  0.11372100  0.19437800  1
  O  O0  1  0.89543400  0.28097200  0.37779000  1
  O  O1  1  0.99940200  0.61101600  0.19984600  1
  O  O2  1  0.49940200  0.38898400  0.30015400  1
  O  O3  1  0.10456600  0.71902800  0.62221000  1
  O  O4  1  0.13747700  0.31860800  0.19110500  1
  O  O5  1  0.87917000  0.85187100  0.37801400  1
  O  O6  1  0.00059800  0.38898400  0.80015400  1
  O  O7  1  0.36252300  0.31860800  0.69110500  1
  O  O8  1  0.12083000  0.14812900  0.62198600  1
  O  O9  1  0.08351700  0.03178400  0.10652000  1
  O  O10  1  0.63747700  0.68139200  0.30889500  1
  O  O11  1  0.60456600  0.28097200  0.87779000  1
  O  O12  1  0.86252300  0.68139200  0.80889500  1
  O  O13  1  0.79461000  0.01410700  0.63836800  1
  O  O14  1  0.16544400  0.62406200  0.89954800  1
  O  O15  1  0.37917000  0.14812900  0.12198600  1
  O  O16  1  0.41648300  0.03178400  0.60652000  1
  O  O17  1  0.29461000  0.98589300  0.86163200  1
  O  O18  1  0.20539000  0.98589300  0.36163200  1
  O  O19  1  0.58351700  0.96821600  0.39348000  1
  O  O20  1  0.33455600  0.62406200  0.39954800  1
  O  O21  1  0.70539000  0.01410700  0.13836800  1
  O  O22  1  0.91648300  0.96821600  0.89348000  1
  O  O23  1  0.83455600  0.37593800  0.10045200  1
  O  O24  1  0.66544400  0.37593800  0.60045200  1
  O  O25  1  0.50059800  0.61101600  0.69984600  1
  O  O26  1  0.39543400  0.71902800  0.12221000  1
  O  O27  1  0.62083000  0.85187100  0.87801400  1
loop_
_geom_bond_atom_site_label_1
_geom_bond_atom_site_label_2
_geom_bond_distance
_geom_bond_site_symmetry_2
Li0 O27 1.984476 1_555
Li0 O25 2.023127 1_555
Li0 O14 2.075534 1_555
Li0 O17 2.255898 1_555
Li0 O26 2.516021 1_556
Li1 O5 1.984476 1_455
Li1 O1 2.023127 1_455
Li1 O20 2.075534 1_555
Li1 O18 2.255898 1_555
Li1 O3 2.516021 1_555
Li2 O15 1.984476 1_555
Li2 O2 2.023127 1_555
Li2 O23 2.075534 1_555
Li2 O21 2.255898 1_555
Li2 O11 2.516021 1_554
Li3 O8 1.984476 1_655
Li3 O6 2.023127 1_655
Li3 O24 2.075534 1_555
Li3 O13 2.255898 1_555
Li3 O0 2.516021 1_555
Co0 O24 2.080844 1_555
Co0 O19 2.089960 1_545
Co0 O13 2.094400 1_555
Co0 O2 2.102645 1_555
Co0 O16 2.143349 1_555
Co0 O0 2.363386 1_555
Co1 O23 2.080844 1_556
Co1 O22 2.089960 1_545
Co1 O21 2.094400 1_556
Co1 O6 2.102645 1_655
Co1 O9 2.143349 1_656
Co1 O11 2.363386 1_555
Co2 O20 2.080844 1_555
Co2 O16 2.089960 1_565
Co2 O18 2.094400 1_555
Co2 O25 2.102645 1_555
Co2 O19 2.143349 1_555
Co2 O3 2.363386 1_555
Co3 O5 2.078452 1_445
Co3 O8 2.078452 1_555
Co3 O18 2.125069 1_545
Co3 O13 2.125069 1_455
Co3 O3 2.160607 1_545
Co3 O0 2.160607 1_455
Co4 O14 2.080844 1_554
Co4 O9 2.089960 1_565
Co4 O17 2.094400 1_554
Co4 O1 2.102645 1_455
Co4 O22 2.143349 1_454
Co4 O26 2.363386 1_555
Co5 O15 2.078452 1_555
Co5 O27 2.078452 1_544
Co5 O21 2.125069 1_555
Co5 O17 2.125069 1_544
Co5 O26 2.160607 1_545
Co5 O11 2.160607 1_554
O0 P4 1.550888 1_555
O1 P4 1.530715 1_555
O2 P1 1.530715 1_555
O3 P2 1.550888 1_555
O4 P7 1.593352 1_555
O4 P4 1.631327 1_455
O5 P0 1.516017 1_555
O6 P2 1.530715 1_555
O7 P6 1.593352 1_555
O7 P5 1.631327 1_555
O8 P6 1.516017 1_555
O9 P7 1.540566 1_555
O10 P0 1.593352 1_555
O10 P1 1.631327 1_555
O11 P5 1.550888 1_555
O12 P3 1.593352 1_555
O12 P2 1.631327 1_655
O13 P3 1.549777 1_545
O14 P2 1.531655 1_555
O15 P7 1.516017 1_555
O16 P6 1.540566 1_555
O17 P6 1.549777 1_565
O18 P7 1.549777 1_565
O19 P0 1.540566 1_555
O20 P1 1.531655 1_555
O21 P0 1.549777 1_545
O22 P3 1.540566 1_555
O23 P4 1.531655 1_555
O24 P5 1.531655 1_555
O25 P5 1.530715 1_555
O26 P1 1.550888 1_555
O27 P3 1.516017 1_555
