# generated using pymatgen
data_Rb2Al2B2O7
_symmetry_space_group_name_H-M   'P 1'
_cell_length_a   7.66724500
_cell_length_b   9.01021600
_cell_length_c   12.07563223
_cell_angle_alpha   75.93522205
_cell_angle_beta   90.00000000
_cell_angle_gamma   90.00000000
_symmetry_Int_Tables_number   1
_chemical_formula_structural   Rb2Al2B2O7
_chemical_formula_sum   'Rb8 Al8 B8 O28'
_cell_volume   809.21853689
_cell_formula_units_Z   4
loop_
 _symmetry_equiv_pos_site_id
 _symmetry_equiv_pos_as_xyz
  1  'x, y, z'
loop_
 _atom_site_type_symbol
 _atom_site_label
 _atom_site_symmetry_multiplicity
 _atom_site_fract_x
 _atom_site_fract_y
 _atom_site_fract_z
 _atom_site_occupancy
  Rb  Rb0  1  0.36028100  0.96544400  0.12770900  1
  Rb  Rb1  1  0.86028100  0.03455600  0.37229100  1
  Rb  Rb2  1  0.86682500  0.54342500  0.85269100  1
  Rb  Rb3  1  0.36682500  0.45657500  0.64730900  1
  Rb  Rb4  1  0.63317500  0.54342500  0.35269100  1
  Rb  Rb5  1  0.63971900  0.03455600  0.87229100  1
  Rb  Rb6  1  0.13971900  0.96544400  0.62770900  1
  Rb  Rb7  1  0.13317500  0.45657500  0.14730900  1
  Al  Al0  1  0.87650900  0.34186100  0.62184100  1
  Al  Al1  1  0.62349100  0.34186100  0.12184100  1
  Al  Al2  1  0.37650900  0.65813900  0.87815900  1
  Al  Al3  1  0.58279100  0.81502100  0.63414300  1
  Al  Al4  1  0.41720900  0.18497900  0.36585700  1
  Al  Al5  1  0.08279100  0.18497900  0.86585700  1
  Al  Al6  1  0.91720900  0.81502100  0.13414300  1
  Al  Al7  1  0.12349100  0.65813900  0.37815900  1
  B  B0  1  0.41133100  0.84431700  0.41168000  1
  B  B1  1  0.11604300  0.31862900  0.43789600  1
  B  B2  1  0.58866900  0.15568300  0.58832000  1
  B  B3  1  0.61604300  0.68137100  0.06210400  1
  B  B4  1  0.08866900  0.84431700  0.91168000  1
  B  B5  1  0.38395700  0.31862900  0.93789600  1
  B  B6  1  0.88395700  0.68137100  0.56210400  1
  B  B7  1  0.91133100  0.15568300  0.08832000  1
  O  O0  1  0.53858800  0.22928400  0.47924300  1
  O  O1  1  0.80845700  0.79727400  0.60372100  1
  O  O2  1  0.96946800  0.28188100  0.50515800  1
  O  O3  1  0.01913300  0.30784000  0.73753800  1
  O  O4  1  0.46946800  0.71811900  0.99484200  1
  O  O5  1  0.54217600  0.00630900  0.63861500  1
  O  O6  1  0.81205600  0.53677800  0.58860200  1
  O  O7  1  0.45782400  0.99369100  0.36138500  1
  O  O8  1  0.30845700  0.20272600  0.89627900  1
  O  O9  1  0.03858800  0.77071600  0.02075700  1
  O  O10  1  0.46141200  0.77071600  0.52075700  1
  O  O11  1  0.31205600  0.46322200  0.91139800  1
  O  O12  1  0.68794400  0.53677800  0.08860200  1
  O  O13  1  0.18000300  0.76332800  0.84650700  1
  O  O14  1  0.31999700  0.76332800  0.34650700  1
  O  O15  1  0.51913300  0.69216000  0.76246200  1
  O  O16  1  0.95782400  0.00630900  0.13861500  1
  O  O17  1  0.18794400  0.46322200  0.41139800  1
  O  O18  1  0.19154300  0.20272600  0.39627900  1
  O  O19  1  0.68000300  0.23667200  0.65349300  1
  O  O20  1  0.04217600  0.99369100  0.86138500  1
  O  O21  1  0.03053200  0.71811900  0.49484200  1
  O  O22  1  0.96141200  0.22928400  0.97924300  1
  O  O23  1  0.69154300  0.79727400  0.10372100  1
  O  O24  1  0.81999700  0.23667200  0.15349300  1
  O  O25  1  0.53053200  0.28188100  0.00515800  1
  O  O26  1  0.48086700  0.30784000  0.23753800  1
  O  O27  1  0.98086700  0.69216000  0.26246200  1
loop_
_geom_bond_atom_site_label_1
_geom_bond_atom_site_label_2
_geom_bond_distance
_geom_bond_site_symmetry_2
Al0 O3 1.741710 1_655
Al0 O19 1.771531 1_555
Al0 O6 1.774005 1_555
Al0 O2 1.776377 1_555
Al1 O26 1.741710 1_555
Al1 O24 1.771531 1_555
Al1 O12 1.774005 1_555
Al1 O25 1.776377 1_555
Al2 O15 1.741710 1_555
Al2 O13 1.771531 1_555
Al2 O11 1.774005 1_555
Al2 O4 1.776377 1_555
Al3 O15 1.740981 1_555
Al3 O5 1.765146 1_565
Al3 O10 1.779282 1_555
Al3 O1 1.784039 1_555
Al4 O26 1.740981 1_555
Al4 O7 1.765146 1_545
Al4 O0 1.779282 1_555
Al4 O18 1.784039 1_555
Al5 O3 1.740981 1_555
Al5 O20 1.765146 1_545
Al5 O22 1.779282 1_455
Al5 O8 1.784039 1_555
Al6 O27 1.740981 1_555
Al6 O16 1.765146 1_565
Al6 O9 1.779282 1_655
Al6 O23 1.784039 1_555
Al7 O27 1.741710 1_455
Al7 O14 1.771531 1_555
Al7 O17 1.774005 1_555
Al7 O21 1.776377 1_555
B0 O10 1.377541 1_555
B0 O7 1.382052 1_555
B0 O14 1.386147 1_555
B1 O17 1.378770 1_555
B1 O2 1.378994 1_455
B1 O18 1.390440 1_555
B2 O0 1.377541 1_555
B2 O5 1.382052 1_555
B2 O19 1.386147 1_555
B3 O12 1.378770 1_555
B3 O4 1.378994 1_554
B3 O23 1.390440 1_555
B4 O9 1.377541 1_556
B4 O20 1.382052 1_555
B4 O13 1.386147 1_555
B5 O11 1.378770 1_555
B5 O25 1.378994 1_556
B5 O8 1.390440 1_555
B6 O6 1.378770 1_555
B6 O21 1.378994 1_655
B6 O1 1.390440 1_555
B7 O22 1.377541 1_554
B7 O16 1.382052 1_555
B7 O24 1.386147 1_555
O0 Rb4 2.961515 1_555
O0 Rb1 3.454187 1_555
O1 Rb6 3.007348 1_655
O1 Rb1 3.104012 1_565
O2 Rb6 3.157906 1_645
O2 Rb1 3.158941 1_555
O3 Rb2 3.039357 1_455
O3 Rb3 3.062700 1_555
O4 Rb5 3.157906 1_565
O4 Rb0 3.158941 1_556
O5 Rb5 2.989255 1_555
O5 Rb6 3.114202 1_545
O6 Rb4 3.149168 1_555
O7 Rb0 2.989255 1_555
O7 Rb1 3.114202 1_565
O8 Rb5 3.007348 1_555
O8 Rb0 3.104012 1_546
O9 Rb7 2.961515 1_555
O9 Rb0 3.454187 1_555
O10 Rb3 2.961515 1_555
O10 Rb6 3.454187 1_555
O11 Rb7 3.149168 1_556
O12 Rb2 3.149168 1_554
O13 Rb6 2.837964 1_555
O13 Rb2 3.102471 1_455
O14 Rb0 2.837964 1_555
O14 Rb4 3.102471 1_555
O15 Rb3 3.039357 1_555
O15 Rb2 3.062700 1_555
O16 Rb1 2.989255 1_555
O16 Rb0 3.114202 1_645
O17 Rb3 3.149168 1_555
O18 Rb1 3.007348 1_455
O18 Rb6 3.104012 1_545
O19 Rb5 2.837964 1_555
O19 Rb3 3.102471 1_555
O20 Rb6 2.989255 1_555
O20 Rb5 3.114202 1_465
O21 Rb1 3.157906 1_465
O21 Rb6 3.158941 1_555
O22 Rb2 2.961515 1_555
O22 Rb5 3.454187 1_555
O23 Rb0 3.007348 1_555
O23 Rb5 3.104012 1_564
O24 Rb1 2.837964 1_555
O24 Rb7 3.102471 1_655
O25 Rb0 3.157906 1_545
O25 Rb5 3.158941 1_554
O26 Rb4 3.039357 1_555
O26 Rb7 3.062700 1_555
O27 Rb7 3.039357 1_655
O27 Rb4 3.062700 1_555
