# generated using pymatgen
data_LiMnO2
_symmetry_space_group_name_H-M   'P 1'
_cell_length_a   23.79558338
_cell_length_b   23.79558338
_cell_length_c   5.76152791
_cell_angle_alpha   83.05584367
_cell_angle_beta   83.05584367
_cell_angle_gamma   13.90681980
_symmetry_Int_Tables_number   1
_chemical_formula_structural   LiMnO2
_chemical_formula_sum   'Li20 Mn20 O40'
_cell_volume   778.24702812
_cell_formula_units_Z   20
loop_
 _symmetry_equiv_pos_site_id
 _symmetry_equiv_pos_as_xyz
  1  'x, y, z'
loop_
 _atom_site_type_symbol
 _atom_site_label
 _atom_site_symmetry_multiplicity
 _atom_site_fract_x
 _atom_site_fract_y
 _atom_site_fract_z
 _atom_site_occupancy
  Li  Li0  1  0.20009500  0.20009500  0.79395000  1
  Li  Li1  1  0.40263000  0.89858400  0.59719200  1
  Li  Li2  1  0.89858400  0.40263000  0.59719200  1
  Li  Li3  1  0.60102900  0.60102900  0.39275600  1
  Li  Li4  1  0.20023800  0.20023800  0.30174100  1
  Li  Li5  1  0.80088700  0.30258300  0.19206800  1
  Li  Li6  1  0.30258300  0.80088700  0.19206800  1
  Li  Li7  1  0.00566600  0.49413500  0.99631600  1
  Li  Li8  1  0.60123900  0.60123900  0.89766700  1
  Li  Li9  1  0.20332200  0.69810100  0.78953600  1
  Li  Li10  1  0.69810100  0.20332200  0.78953600  1
  Li  Li11  1  0.00032800  0.00032800  0.98511100  1
  Li  Li12  1  0.00316400  0.00316400  0.48721100  1
  Li  Li13  1  0.60582900  0.09505600  0.39072400  1
  Li  Li14  1  0.09505600  0.60582900  0.39072400  1
  Li  Li15  1  0.39987700  0.39987700  0.58528000  1
  Li  Li16  1  0.40078300  0.40078300  0.09240600  1
  Li  Li17  1  0.79935000  0.79935000  0.18756900  1
  Li  Li18  1  0.80188400  0.80188400  0.69199400  1
  Li  Li19  1  0.49413500  0.00566600  0.99631600  1
  Mn  Mn0  1  0.70204600  0.70204600  0.79524500  1
  Mn  Mn1  1  0.10249000  0.10249000  0.39379200  1
  Mn  Mn2  1  0.70196000  0.70196000  0.29604200  1
  Mn  Mn3  1  0.40106500  0.90332500  0.09547400  1
  Mn  Mn4  1  0.90332500  0.40106500  0.09547400  1
  Mn  Mn5  1  0.50272100  0.50272100  0.98964100  1
  Mn  Mn6  1  0.10241400  0.10241400  0.89400000  1
  Mn  Mn7  1  0.30036400  0.80491000  0.69210000  1
  Mn  Mn8  1  0.80491000  0.30036400  0.69210000  1
  Mn  Mn9  1  0.90237600  0.90237600  0.58792400  1
  Mn  Mn10  1  0.50257300  0.50257300  0.48991200  1
  Mn  Mn11  1  0.70164100  0.20337800  0.28889100  1
  Mn  Mn12  1  0.20337800  0.70164100  0.28889100  1
  Mn  Mn13  1  0.30201900  0.30201900  0.19171900  1
  Mn  Mn14  1  0.90222900  0.90222900  0.08866800  1
  Mn  Mn15  1  0.10367000  0.60057000  0.89010000  1
  Mn  Mn16  1  0.60057000  0.10367000  0.89010000  1
  Mn  Mn17  1  0.30191400  0.30191400  0.69239400  1
  Mn  Mn18  1  0.50305800  0.00084100  0.49478800  1
  Mn  Mn19  1  0.00084100  0.50305800  0.49478800  1
  O  O0  1  0.75204400  0.75204400  0.72561100  1
  O  O1  1  0.47103500  0.93375200  0.54520200  1
  O  O2  1  0.93375200  0.47103500  0.54520200  1
  O  O3  1  0.15269200  0.15269200  0.32619800  1
  O  O4  1  0.65258000  0.65258000  0.32635200  1
  O  O5  1  0.75235100  0.75235100  0.26279300  1
  O  O6  1  0.86945500  0.33619600  0.14371400  1
  O  O7  1  0.33619600  0.86945500  0.14371400  1
  O  O8  1  0.47111900  0.93373800  0.04533100  1
  O  O9  1  0.93373800  0.47111900  0.04533100  1
  O  O10  1  0.55325300  0.55325300  0.92271000  1
  O  O11  1  0.05343500  0.05343500  0.92225900  1
  O  O12  1  0.15274600  0.15274600  0.86373900  1
  O  O13  1  0.65251300  0.65251300  0.86400300  1
  O  O14  1  0.27037000  0.73648100  0.73890800  1
  O  O15  1  0.73648100  0.27037000  0.73890800  1
  O  O16  1  0.86971600  0.33637700  0.64317800  1
  O  O17  1  0.33637700  0.86971600  0.64317800  1
  O  O18  1  0.95240000  0.95240000  0.51986200  1
  O  O19  1  0.45331900  0.45331900  0.51930400  1
  O  O20  1  0.55328400  0.55328400  0.46005000  1
  O  O21  1  0.05287900  0.05287900  0.46025300  1
  O  O22  1  0.67195900  0.13363700  0.33774500  1
  O  O23  1  0.13363700  0.67195900  0.33774500  1
  O  O24  1  0.26994900  0.73620000  0.23915300  1
  O  O25  1  0.73620000  0.26994900  0.23915300  1
  O  O26  1  0.35254100  0.35254100  0.12097000  1
  O  O27  1  0.85294000  0.85294000  0.12027900  1
  O  O28  1  0.95295100  0.95295100  0.05673200  1
  O  O29  1  0.45316200  0.45316200  0.05679900  1
  O  O30  1  0.07348900  0.53181200  0.94134800  1
  O  O31  1  0.53181200  0.07348900  0.94134800  1
  O  O32  1  0.67190100  0.13325200  0.83787900  1
  O  O33  1  0.13325200  0.67190100  0.83787900  1
  O  O34  1  0.25249500  0.25249500  0.72542800  1
  O  O35  1  0.35252700  0.35252700  0.65820400  1
  O  O36  1  0.85223900  0.85223900  0.65837700  1
  O  O37  1  0.07308200  0.53167700  0.44153800  1
  O  O38  1  0.53167700  0.07308200  0.44153800  1
  O  O39  1  0.25245200  0.25245200  0.26291800  1
loop_
_geom_bond_atom_site_label_1
_geom_bond_atom_site_label_2
_geom_bond_distance
_geom_bond_site_symmetry_2
Li0 O2 2.103203 1_455
Li0 O1 2.103203 1_545
Li0 O8 2.131951 1_546
Li0 O9 2.131951 1_456
Li0 O12 2.223949 1_555
Li0 O34 2.458776 1_555
Li1 O13 2.108593 1_555
Li1 O4 2.109384 1_555
Li1 O12 2.124813 1_565
Li1 O3 2.125655 1_565
Li1 O17 2.232700 1_555
Li1 O1 2.430126 1_555
Li2 O13 2.108593 1_555
Li2 O4 2.109384 1_555
Li2 O12 2.124813 1_655
Li2 O3 2.125655 1_655
Li2 O16 2.232700 1_555
Li2 O2 2.430126 1_555
Li3 O6 2.096719 1_555
Li3 O7 2.096719 1_555
Li3 O17 2.117749 1_555
Li3 O16 2.117749 1_555
Li3 O20 2.241585 1_555
Li3 O4 2.418725 1_555
Li4 O2 2.099610 1_455
Li4 O1 2.099610 1_545
Li4 O9 2.133637 1_455
Li4 O8 2.133637 1_545
Li4 O3 2.233348 1_555
Li4 O39 2.449487 1_555
Li5 O10 2.108813 1_554
Li5 O20 2.115985 1_555
Li5 O11 2.116913 1_654
Li5 O21 2.121212 1_655
Li5 O25 2.283547 1_555
Li5 O6 2.397768 1_555
Li6 O10 2.108813 1_554
Li6 O20 2.115985 1_555
Li6 O11 2.116913 1_564
Li6 O21 2.121212 1_565
Li6 O24 2.283547 1_555
Li6 O7 2.397768 1_555
Li7 O34 2.093892 1_555
Li7 O39 2.097408 1_556
Li7 O0 2.139120 1_455
Li7 O5 2.141345 1_456
Li7 O9 2.230409 1_456
Li7 O30 2.474976 1_555
Li8 O6 2.097848 1_556
Li8 O7 2.097848 1_556
Li8 O17 2.118310 1_555
Li8 O16 2.118310 1_555
Li8 O10 2.253894 1_555
Li8 O13 2.406331 1_555
Li9 O19 2.103359 1_555
Li9 O29 2.111756 1_556
Li9 O18 2.123321 1_455
Li9 O28 2.130498 1_456
Li9 O33 2.260558 1_555
Li9 O14 2.473135 1_555
Li10 O19 2.103359 1_555
Li10 O29 2.111756 1_556
Li10 O18 2.123321 1_545
Li10 O28 2.130498 1_546
Li10 O32 2.260558 1_555
Li10 O15 2.473135 1_555
Li11 O15 2.085293 1_455
Li11 O14 2.085293 1_545
Li11 O25 2.137668 1_456
Li11 O24 2.137668 1_546
Li11 O28 2.225890 1_446
Li11 O11 2.490798 1_555
Li12 O25 2.099591 1_455
Li12 O24 2.099591 1_545
Li12 O14 2.114927 1_545
Li12 O15 2.114927 1_455
Li12 O21 2.334770 1_555
Li12 O18 2.382564 1_445
Li13 O27 2.093630 1_545
Li13 O36 2.098419 1_545
Li13 O26 2.133743 1_555
Li13 O35 2.141652 1_555
Li13 O38 2.258711 1_555
Li13 O22 2.456205 1_555
Li14 O27 2.093630 1_455
Li14 O36 2.098419 1_455
Li14 O26 2.133743 1_555
Li14 O35 2.141652 1_555
Li14 O37 2.258711 1_555
Li14 O23 2.456205 1_555
Li15 O22 2.099994 1_555
Li15 O23 2.099994 1_555
Li15 O33 2.141808 1_555
Li15 O32 2.141808 1_555
Li15 O35 2.225122 1_555
Li15 O19 2.506916 1_555
Li16 O22 2.108265 1_555
Li16 O23 2.108265 1_555
Li16 O33 2.129610 1_554
Li16 O32 2.129610 1_554
Li16 O26 2.264860 1_555
Li16 O29 2.457905 1_555
Li17 O30 2.101865 1_654
Li17 O31 2.101865 1_564
Li17 O38 2.155250 1_565
Li17 O37 2.155250 1_655
Li17 O5 2.209774 1_555
Li17 O27 2.514056 1_555
Li18 O37 2.122994 1_655
Li18 O38 2.122994 1_565
Li18 O30 2.124366 1_655
Li18 O31 2.124366 1_565
Li18 O0 2.338822 1_555
Li18 O36 2.363069 1_555
Li19 O34 2.093892 1_555
Li19 O39 2.097408 1_556
Li19 O0 2.139120 1_545
Li19 O5 2.141345 1_546
Li19 O8 2.230409 1_546
Li19 O31 2.474976 1_555
Mn0 O1 1.961309 1_555
Mn0 O2 1.961309 1_555
Mn0 O9 1.964396 1_556
Mn0 O8 1.964396 1_556
Mn0 O13 2.325231 1_555
Mn0 O0 2.347124 1_555
Mn1 O7 1.969399 1_545
Mn1 O6 1.969399 1_455
Mn1 O16 1.970188 1_455
Mn1 O17 1.970188 1_545
Mn1 O21 2.328272 1_555
Mn1 O3 2.356091 1_555
Mn2 O2 1.960911 1_555
Mn2 O1 1.960911 1_555
Mn2 O9 1.963486 1_555
Mn2 O8 1.963486 1_555
Mn2 O4 2.317987 1_555
Mn2 O5 2.364852 1_555
Mn3 O12 1.957241 1_564
Mn3 O3 1.957349 1_565
Mn3 O13 1.966565 1_554
Mn3 O4 1.967017 1_555
Mn3 O7 2.316637 1_555
Mn3 O8 2.358186 1_555
Mn4 O12 1.957241 1_654
Mn4 O3 1.957349 1_655
Mn4 O13 1.966565 1_554
Mn4 O4 1.967017 1_555
Mn4 O6 2.316637 1_555
Mn4 O9 2.358186 1_555
Mn5 O24 1.968956 1_556
Mn5 O25 1.968956 1_556
Mn5 O14 1.969581 1_555
Mn5 O15 1.969581 1_555
Mn5 O29 2.326020 1_556
Mn5 O10 2.371315 1_555
Mn6 O6 1.971039 1_456
Mn6 O7 1.971039 1_546
Mn6 O17 1.971286 1_545
Mn6 O16 1.971286 1_455
Mn6 O11 2.299678 1_555
Mn6 O12 2.362851 1_555
Mn7 O11 1.951710 1_565
Mn7 O21 1.953938 1_565
Mn7 O10 1.971849 1_555
Mn7 O20 1.972567 1_555
Mn7 O14 2.310193 1_555
Mn7 O17 2.365141 1_555
Mn8 O11 1.951710 1_655
Mn8 O21 1.953938 1_655
Mn8 O10 1.971849 1_555
Mn8 O20 1.972567 1_555
Mn8 O15 2.310193 1_555
Mn8 O16 2.365141 1_555
Mn9 O23 1.959569 1_655
Mn9 O22 1.959569 1_565
Mn9 O33 1.960536 1_655
Mn9 O32 1.960536 1_565
Mn9 O18 2.347914 1_555
Mn9 O36 2.353826 1_555
Mn10 O15 1.968943 1_555
Mn10 O14 1.968943 1_555
Mn10 O24 1.970684 1_555
Mn10 O25 1.970684 1_555
Mn10 O19 2.312306 1_555
Mn10 O20 2.380822 1_555
Mn11 O19 1.958686 1_555
Mn11 O29 1.959416 1_555
Mn11 O18 1.964268 1_545
Mn11 O28 1.967715 1_545
Mn11 O22 2.333803 1_555
Mn11 O25 2.372760 1_555
Mn12 O19 1.958686 1_555
Mn12 O29 1.959416 1_555
Mn12 O18 1.964268 1_455
Mn12 O28 1.967715 1_455
Mn12 O23 2.333803 1_555
Mn12 O24 2.372760 1_555
Mn13 O30 1.953073 1_554
Mn13 O31 1.953073 1_554
Mn13 O37 1.955314 1_555
Mn13 O38 1.955314 1_555
Mn13 O39 2.327527 1_555
Mn13 O26 2.371831 1_555
Mn14 O23 1.959175 1_655
Mn14 O22 1.959175 1_565
Mn14 O32 1.961796 1_564
Mn14 O33 1.961796 1_654
Mn14 O27 2.313359 1_555
Mn14 O28 2.380769 1_555
Mn15 O26 1.955813 1_556
Mn15 O35 1.956588 1_555
Mn15 O27 1.968059 1_456
Mn15 O36 1.970055 1_455
Mn15 O30 2.322281 1_555
Mn15 O33 2.368954 1_555
Mn16 O26 1.955813 1_556
Mn16 O35 1.956588 1_555
Mn16 O27 1.968059 1_546
Mn16 O36 1.970055 1_545
Mn16 O31 2.322281 1_555
Mn16 O32 2.368954 1_555
Mn17 O30 1.952938 1_555
Mn17 O31 1.952938 1_555
Mn17 O38 1.956264 1_555
Mn17 O37 1.956264 1_555
Mn17 O34 2.319135 1_555
Mn17 O35 2.375084 1_555
Mn18 O0 1.956118 1_545
Mn18 O5 1.958857 1_545
Mn18 O34 1.966706 1_555
Mn18 O39 1.967396 1_555
Mn18 O1 2.325853 1_545
Mn18 O38 2.368028 1_555
Mn19 O0 1.956118 1_455
Mn19 O5 1.958857 1_455
Mn19 O34 1.966706 1_555
Mn19 O39 1.967396 1_555
Mn19 O2 2.325853 1_455
Mn19 O37 2.368028 1_555
