# generated using pymatgen
data_YbTaO4
_symmetry_space_group_name_H-M   'P 1'
_cell_length_a   5.10378981
_cell_length_b   5.47014494
_cell_length_c   6.53750559
_cell_angle_alpha   112.87984644
_cell_angle_beta   111.01780846
_cell_angle_gamma   94.34397650
_symmetry_Int_Tables_number   1
_chemical_formula_structural   YbTaO4
_chemical_formula_sum   'Yb2 Ta2 O8'
_cell_volume   151.97634500
_cell_formula_units_Z   2
loop_
 _symmetry_equiv_pos_site_id
 _symmetry_equiv_pos_as_xyz
  1  'x, y, z'
loop_
 _atom_site_type_symbol
 _atom_site_label
 _atom_site_symmetry_multiplicity
 _atom_site_fract_x
 _atom_site_fract_y
 _atom_site_fract_z
 _atom_site_occupancy
  Yb  Yb0  1  0.88007000  0.13007000  0.26014000  1
  Yb  Yb1  1  0.11993000  0.86993000  0.73986000  1
  Ta  Ta0  1  0.35270100  0.60270100  0.20540200  1
  Ta  Ta1  1  0.64729900  0.39729900  0.79459800  1
  O  O0  1  0.94082400  0.23764700  0.94342500  1
  O  O1  1  0.22463200  0.55037900  0.42622300  1
  O  O2  1  0.05917600  0.76235300  0.05657500  1
  O  O3  1  0.70159100  0.87584400  0.42622300  1
  O  O4  1  0.29840900  0.12415600  0.57377700  1
  O  O5  1  0.49739900  0.29422200  0.05657500  1
  O  O6  1  0.77536800  0.44962100  0.57377700  1
  O  O7  1  0.50260100  0.70577800  0.94342500  1
loop_
_geom_bond_atom_site_label_1
_geom_bond_atom_site_label_2
_geom_bond_distance
_geom_bond_site_symmetry_2
O0 Ta1 1.940872 1_555
O0 Ta0 2.337084 1_656
O0 Yb1 2.392131 1_645
O0 Yb0 2.471811 1_556
O1 Ta0 1.887591 1_555
O1 Yb0 2.373660 1_455
O1 Yb1 2.384462 1_555
O2 Ta0 1.940872 1_555
O2 Ta1 2.337084 1_454
O2 Yb0 2.392131 1_465
O2 Yb1 2.471811 1_554
O3 Ta0 1.887591 1_555
O3 Yb0 2.373660 1_565
O3 Yb1 2.384462 1_655
O4 Ta1 1.887591 1_555
O4 Yb1 2.373660 1_545
O4 Yb0 2.384462 1_455
O5 Ta0 1.940872 1_555
O5 Ta1 2.337084 1_554
O5 Yb0 2.392131 1_555
O5 Yb1 2.471811 1_544
O6 Ta1 1.887591 1_555
O6 Yb1 2.373660 1_655
O6 Yb0 2.384462 1_555
O7 Ta1 1.940872 1_555
O7 Ta0 2.337084 1_556
O7 Yb1 2.392131 1_555
O7 Yb0 2.471811 1_566
