# generated using pymatgen
data_Nb5Ge3
_symmetry_space_group_name_H-M   'P 1'
_cell_length_a   7.78279031
_cell_length_b   7.78279031
_cell_length_c   7.78279031
_cell_angle_alpha   96.31862977
_cell_angle_beta   96.31862977
_cell_angle_gamma   141.25004870
_symmetry_Int_Tables_number   1
_chemical_formula_structural   Nb5Ge3
_chemical_formula_sum   'Nb10 Ge6'
_cell_volume   278.36058638
_cell_formula_units_Z   2
loop_
 _symmetry_equiv_pos_site_id
 _symmetry_equiv_pos_as_xyz
  1  'x, y, z'
loop_
 _atom_site_type_symbol
 _atom_site_label
 _atom_site_symmetry_multiplicity
 _atom_site_fract_x
 _atom_site_fract_y
 _atom_site_fract_z
 _atom_site_occupancy
  Nb  Nb0  1  0.06938300  0.77760000  0.84698300  1
  Nb  Nb1  1  0.77760000  0.93061700  0.70821800  1
  Nb  Nb2  1  0.93061700  0.22240000  0.15301700  1
  Nb  Nb3  1  0.43061700  0.27760000  0.70821800  1
  Nb  Nb4  1  0.50000000  0.00000000  0.50000000  1
  Nb  Nb5  1  0.27760000  0.56938300  0.84698300  1
  Nb  Nb6  1  0.72240000  0.43061700  0.15301700  1
  Nb  Nb7  1  0.22240000  0.06938300  0.29178200  1
  Nb  Nb8  1  0.56938300  0.72240000  0.29178200  1
  Nb  Nb9  1  0.00000000  0.50000000  0.50000000  1
  Ge  Ge0  1  0.32166600  0.82166600  0.14333300  1
  Ge  Ge1  1  0.67833400  0.17833400  0.85666700  1
  Ge  Ge2  1  0.82166600  0.67833400  0.50000000  1
  Ge  Ge3  1  0.17833400  0.32166600  0.50000000  1
  Ge  Ge4  1  0.75000000  0.75000000  0.00000000  1
  Ge  Ge5  1  0.25000000  0.25000000  0.00000000  1
loop_
_geom_bond_atom_site_label_1
_geom_bond_atom_site_label_2
_geom_bond_distance
_geom_bond_site_symmetry_2
Nb0 Nb9 2.971043 1_555
Nb1 Nb4 2.971047 1_565
Nb2 Nb9 2.971043 1_655
Nb3 Nb4 2.971047 1_555
Nb4 Nb9 2.581934 1_545
Nb4 Nb9 2.581934 1_655
Nb4 Nb8 2.971047 1_545
Nb4 Nb7 2.971047 1_555
Nb5 Nb9 2.971043 1_555
Nb6 Nb9 2.971043 1_655
Ge0 Nb4 2.618661 1_565
Ge0 Nb5 2.659171 1_554
Ge0 Nb0 2.659171 1_554
Ge0 Nb8 2.770918 1_555
Ge0 Nb7 2.770918 1_565
Ge0 Nb2 3.001409 1_455
Ge0 Nb6 3.001409 1_455
Ge0 Nb6 3.001414 1_565
Ge0 Nb2 3.001414 1_565
Ge1 Nb4 2.618661 1_555
Ge1 Nb6 2.659171 1_556
Ge1 Nb2 2.659171 1_556
Ge1 Nb3 2.770918 1_555
Ge1 Nb1 2.770918 1_545
Ge1 Nb0 3.001409 1_655
Ge1 Nb5 3.001409 1_655
Ge1 Nb0 3.001414 1_545
Ge1 Nb5 3.001414 1_545
Ge2 Nb9 2.618668 1_655
Ge2 Nb1 2.659169 1_555
Ge2 Nb8 2.659169 1_555
Ge2 Nb0 2.770923 1_655
Ge2 Nb6 2.770923 1_555
Ge2 Nb3 3.001413 1_665
Ge2 Nb7 3.001413 1_555
Ge2 Nb7 3.001418 1_665
Ge2 Nb3 3.001418 1_555
Ge3 Nb9 2.618668 1_555
Ge3 Nb3 2.659169 1_555
Ge3 Nb7 2.659169 1_555
Ge3 Nb5 2.770923 1_555
Ge3 Nb2 2.770923 1_455
Ge3 Nb1 3.001413 1_555
Ge3 Nb8 3.001413 1_445
Ge3 Nb8 3.001418 1_555
Ge3 Nb1 3.001418 1_445
Ge4 Ge5 2.581934 1_665
Ge4 Ge5 2.581934 1_555
Ge4 Nb1 2.741911 1_554
Ge4 Nb8 2.741911 1_555
Ge4 Nb3 2.741913 1_554
Ge4 Nb7 2.741913 1_665
Ge4 Nb5 2.741918 1_554
Ge4 Nb2 2.741918 1_565
Ge4 Nb0 2.741918 1_654
Ge4 Nb6 2.741918 1_555
Ge5 Nb3 2.741911 1_554
Ge5 Nb7 2.741911 1_555
Ge5 Nb1 2.741913 1_444
Ge5 Nb8 2.741913 1_555
Ge5 Nb0 2.741918 1_544
Ge5 Nb5 2.741918 1_554
Ge5 Nb6 2.741918 1_555
Ge5 Nb2 2.741918 1_455
