# generated using pymatgen
data_KP(OF)2
_symmetry_space_group_name_H-M   'P 1'
_cell_length_a   6.16242579
_cell_length_b   7.53508156
_cell_length_c   7.89272309
_cell_angle_alpha   90.00000000
_cell_angle_beta   90.00000000
_cell_angle_gamma   90.00000000
_symmetry_Int_Tables_number   1
_chemical_formula_structural   KP(OF)2
_chemical_formula_sum   'K4 P4 O8 F8'
_cell_volume   366.49371058
_cell_formula_units_Z   4
loop_
 _symmetry_equiv_pos_site_id
 _symmetry_equiv_pos_as_xyz
  1  'x, y, z'
loop_
 _atom_site_type_symbol
 _atom_site_label
 _atom_site_symmetry_multiplicity
 _atom_site_fract_x
 _atom_site_fract_y
 _atom_site_fract_z
 _atom_site_occupancy
  K  K0  1  0.25000000  0.14358256  0.15082686  1
  K  K1  1  0.75000000  0.64358256  0.34917314  1
  K  K2  1  0.25000000  0.35641744  0.65082686  1
  K  K3  1  0.75000000  0.85641744  0.84917314  1
  P  P0  1  0.25000000  0.80806781  0.59241144  1
  P  P1  1  0.75000000  0.19193219  0.40758856  1
  P  P2  1  0.75000000  0.30806681  0.90758856  1
  P  P3  1  0.25000000  0.69193219  0.09241144  1
  O  O0  1  0.04037409  0.71463246  0.59835026  1
  O  O1  1  0.95962591  0.28536754  0.40164974  1
  O  O2  1  0.54037409  0.28536754  0.40164974  1
  O  O3  1  0.45962591  0.71463246  0.59835026  1
  O  O4  1  0.45962591  0.78536754  0.09835026  1
  O  O5  1  0.95962591  0.21463246  0.90164974  1
  O  O6  1  0.04037409  0.78536754  0.09835026  1
  O  O7  1  0.54037409  0.21463246  0.90164974  1
  F  F0  1  0.75000000  0.43774084  0.06457806  1
  F  F1  1  0.75000000  0.04342181  0.26698564  1
  F  F2  1  0.75000000  0.45657819  0.76698564  1
  F  F3  1  0.75000000  0.06225916  0.56457806  1
  F  F4  1  0.25000000  0.95657819  0.73301436  1
  F  F5  1  0.25000000  0.54342181  0.23301436  1
  F  F6  1  0.25000000  0.93774084  0.43542194  1
  F  F7  1  0.25000000  0.56225916  0.93542194  1
loop_
_geom_bond_atom_site_label_1
_geom_bond_atom_site_label_2
_geom_bond_distance
_geom_bond_site_symmetry_2
K0 O5 2.712279 1_454
K0 O7 2.712279 1_554
K0 O1 2.874456 1_455
K0 O2 2.874456 1_555
K0 O4 3.020906 1_545
K0 O6 3.020906 1_545
K1 O3 2.712279 1_555
K1 O0 2.712279 1_655
K1 O4 2.874456 1_555
K1 O6 2.874456 1_655
K1 O1 3.020906 1_555
K1 O2 3.020906 1_555
K2 O2 2.712279 1_555
K2 O1 2.712279 1_455
K2 O5 2.874456 1_455
K2 O7 2.874456 1_555
K2 O0 3.020906 1_555
K2 O3 3.020906 1_555
K3 O4 2.712279 1_556
K3 O6 2.712279 1_656
K3 O3 2.874456 1_555
K3 O0 2.874456 1_655
K3 O7 3.020906 1_565
K3 O5 3.020906 1_565
O0 P0 1.471948 1_555
O1 P1 1.471948 1_555
O2 P1 1.471948 1_555
O3 P0 1.471948 1_555
O4 P3 1.471948 1_555
O5 P2 1.471945 1_555
O6 P3 1.471948 1_555
O7 P2 1.471945 1_555
F0 P2 1.577986 1_554
F0 K1 2.729699 1_555
F1 P1 1.575998 1_555
F1 K1 3.081863 1_545
F2 P2 1.576003 1_555
F2 K3 3.081863 1_555
F3 P1 1.577981 1_555
F3 K3 2.729699 1_545
F4 P0 1.575998 1_555
F4 K2 3.081863 1_565
F5 P3 1.575998 1_555
F5 K0 3.081863 1_555
F6 P0 1.577981 1_555
F6 K0 2.729699 1_565
F7 P3 1.577981 1_556
F7 K2 2.729699 1_555
