# generated using pymatgen
data_Y3Si2Cl5O6
_symmetry_space_group_name_H-M   'P 1'
_cell_length_a   7.47494223
_cell_length_b   7.47494223
_cell_length_c   11.73300419
_cell_angle_alpha   80.60674702
_cell_angle_beta   80.60674702
_cell_angle_gamma   88.66100032
_symmetry_Int_Tables_number   1
_chemical_formula_structural   Y3Si2Cl5O6
_chemical_formula_sum   'Y6 Si4 Cl10 O12'
_cell_volume   638.11227159
_cell_formula_units_Z   2
loop_
 _symmetry_equiv_pos_site_id
 _symmetry_equiv_pos_as_xyz
  1  'x, y, z'
loop_
 _atom_site_type_symbol
 _atom_site_label
 _atom_site_symmetry_multiplicity
 _atom_site_fract_x
 _atom_site_fract_y
 _atom_site_fract_z
 _atom_site_occupancy
  Y  Y0  1  0.41658300  0.91805400  0.33036600  1
  Y  Y1  1  0.58341700  0.08194600  0.66963400  1
  Y  Y2  1  0.00000000  0.50000000  0.00000000  1
  Y  Y3  1  0.91805400  0.41658300  0.33036600  1
  Y  Y4  1  0.08194600  0.58341700  0.66963400  1
  Y  Y5  1  0.50000000  0.00000000  0.00000000  1
  Si  Si0  1  0.88998600  0.18199600  0.85567800  1
  Si  Si1  1  0.81800400  0.11001400  0.14432200  1
  Si  Si2  1  0.18199600  0.88998600  0.85567800  1
  Si  Si3  1  0.11001400  0.81800400  0.14432200  1
  Cl  Cl0  1  0.68501700  0.68501700  0.00159500  1
  Cl  Cl1  1  0.62086000  0.62086000  0.35533600  1
  Cl  Cl2  1  0.88104100  0.33015600  0.57881900  1
  Cl  Cl3  1  0.66984400  0.11895900  0.42118100  1
  Cl  Cl4  1  0.78379500  0.78379500  0.66170500  1
  Cl  Cl5  1  0.31498300  0.31498300  0.99840500  1
  Cl  Cl6  1  0.33015600  0.88104100  0.57881900  1
  Cl  Cl7  1  0.21620500  0.21620500  0.33829500  1
  Cl  Cl8  1  0.11895900  0.66984400  0.42118100  1
  Cl  Cl9  1  0.37914000  0.37914000  0.64466400  1
  O  O0  1  0.04689200  0.04689200  0.80550000  1
  O  O1  1  0.69222800  0.13234300  0.82808900  1
  O  O2  1  0.13234300  0.69222800  0.82808900  1
  O  O3  1  0.95310800  0.95310800  0.19450000  1
  O  O4  1  0.95614800  0.39259000  0.82811400  1
  O  O5  1  0.30777200  0.86765700  0.17191100  1
  O  O6  1  0.39259000  0.95614800  0.82811400  1
  O  O7  1  0.60741000  0.04385200  0.17188600  1
  O  O8  1  0.14246700  0.85753300  0.00000000  1
  O  O9  1  0.04385200  0.60741000  0.17188600  1
  O  O10  1  0.85753300  0.14246700  0.00000000  1
  O  O11  1  0.86765700  0.30777200  0.17191100  1
loop_
_geom_bond_atom_site_label_1
_geom_bond_atom_site_label_2
_geom_bond_distance
_geom_bond_site_symmetry_2
Cl0 Y2 2.701569 1_655
Cl0 Y5 2.701569 1_565
Cl1 Y3 2.669753 1_555
Cl1 Y0 2.669753 1_555
Cl2 Y3 2.849925 1_555
Cl2 Y4 2.878912 1_655
Cl2 Y1 2.881129 1_555
Cl3 Y1 2.849925 1_555
Cl3 Y0 2.878912 1_545
Cl3 Y3 2.881129 1_555
Cl4 Y1 2.661807 1_565
Cl4 Y4 2.661807 1_655
Cl5 Y2 2.701569 1_556
Cl5 Y5 2.701569 1_556
Cl6 Y0 2.849925 1_555
Cl6 Y1 2.878912 1_565
Cl6 Y4 2.881129 1_555
Cl7 Y3 2.661807 1_455
Cl7 Y0 2.661807 1_545
Cl8 Y4 2.849925 1_555
Cl8 Y3 2.878912 1_455
Cl8 Y0 2.881129 1_555
Cl9 Y1 2.669753 1_555
Cl9 Y4 2.669753 1_555
O0 Si2 1.629550 1_545
O0 Si0 1.629550 1_455
O1 Si0 1.627499 1_555
O1 Y1 2.235273 1_555
O1 Y5 2.362365 1_556
O2 Si2 1.627499 1_555
O2 Y4 2.235273 1_555
O2 Y2 2.362365 1_556
O3 Si3 1.629550 1_655
O3 Si1 1.629550 1_565
O4 Si0 1.626410 1_555
O4 Y4 2.236651 1_655
O4 Y2 2.361341 1_656
O5 Si3 1.627499 1_555
O5 Y0 2.235273 1_555
O5 Y5 2.362365 1_565
O6 Si2 1.626410 1_555
O6 Y1 2.236651 1_565
O6 Y5 2.361341 1_566
O7 Si1 1.626410 1_555
O7 Y0 2.236651 1_545
O7 Y5 2.361341 1_555
O8 Si2 1.649080 1_554
O8 Si3 1.649080 1_555
O8 Y2 2.899924 1_555
O8 Y5 2.899924 1_565
O9 Si3 1.626410 1_555
O9 Y3 2.236651 1_455
O9 Y2 2.361341 1_555
O10 Si0 1.649080 1_554
O10 Si1 1.649080 1_555
O10 Y5 2.899924 1_555
O10 Y2 2.899924 1_655
O11 Si1 1.627499 1_555
O11 Y3 2.235273 1_555
O11 Y2 2.362365 1_655
