# generated using pymatgen
data_TlSb3(AsS4)2
_symmetry_space_group_name_H-M   'P 1'
_cell_length_a   8.32894600
_cell_length_b   8.93584300
_cell_length_c   39.39363300
_cell_angle_alpha   90.00000000
_cell_angle_beta   90.00000000
_cell_angle_gamma   90.00000000
_symmetry_Int_Tables_number   1
_chemical_formula_structural   TlSb3(AsS4)2
_chemical_formula_sum   'Tl8 Sb24 As16 S64'
_cell_volume   2931.91658885
_cell_formula_units_Z   8
loop_
 _symmetry_equiv_pos_site_id
 _symmetry_equiv_pos_as_xyz
  1  'x, y, z'
loop_
 _atom_site_type_symbol
 _atom_site_label
 _atom_site_symmetry_multiplicity
 _atom_site_fract_x
 _atom_site_fract_y
 _atom_site_fract_z
 _atom_site_occupancy
  Tl  Tl0  1  0.44203700  0.99761400  0.46879900  1
  Tl  Tl1  1  0.94203700  0.49761400  0.03120100  1
  Tl  Tl2  1  0.36305400  0.25413800  0.28117900  1
  Tl  Tl3  1  0.36305400  0.24586200  0.78117900  1
  Tl  Tl4  1  0.86305400  0.74586200  0.71882100  1
  Tl  Tl5  1  0.94203700  0.00238600  0.53120100  1
  Tl  Tl6  1  0.44203700  0.50238600  0.96879900  1
  Tl  Tl7  1  0.86305400  0.75413800  0.21882100  1
  Sb  Sb0  1  0.94443400  0.20303400  0.42950500  1
  Sb  Sb1  1  0.46639100  0.55205200  0.48844400  1
  Sb  Sb2  1  0.87201400  0.76569500  0.93728300  1
  Sb  Sb3  1  0.13732000  0.19432700  0.13968300  1
  Sb  Sb4  1  0.93875400  0.51769900  0.82280700  1
  Sb  Sb5  1  0.13732000  0.30567300  0.63968300  1
  Sb  Sb6  1  0.96639100  0.44794800  0.51155600  1
  Sb  Sb7  1  0.94443400  0.29696600  0.92950500  1
  Sb  Sb8  1  0.63732000  0.80567300  0.86031700  1
  Sb  Sb9  1  0.44443400  0.70303400  0.07049500  1
  Sb  Sb10  1  0.33707400  0.69537500  0.77235100  1
  Sb  Sb11  1  0.46639100  0.94794800  0.98844400  1
  Sb  Sb12  1  0.33707400  0.80462500  0.27235100  1
  Sb  Sb13  1  0.83707400  0.19537500  0.72764900  1
  Sb  Sb14  1  0.63732000  0.69432700  0.36031700  1
  Sb  Sb15  1  0.87201400  0.73430500  0.43728300  1
  Sb  Sb16  1  0.37201400  0.26569500  0.56271700  1
  Sb  Sb17  1  0.83707400  0.30462500  0.22764900  1
  Sb  Sb18  1  0.44443400  0.79696600  0.57049500  1
  Sb  Sb19  1  0.37201400  0.23430500  0.06271700  1
  Sb  Sb20  1  0.43875400  0.48230100  0.17719300  1
  Sb  Sb21  1  0.96639100  0.05205200  0.01155600  1
  Sb  Sb22  1  0.93875400  0.98230100  0.32280700  1
  Sb  Sb23  1  0.43875400  0.01769900  0.67719300  1
  As  As0  1  0.09912900  0.76902500  0.12817600  1
  As  As1  1  0.77171400  0.45884700  0.12573200  1
  As  As2  1  0.78305300  0.48642600  0.60935800  1
  As  As3  1  0.28305300  0.98642600  0.89064200  1
  As  As4  1  0.93904100  0.03141900  0.80787800  1
  As  As5  1  0.93904100  0.46858100  0.30787800  1
  As  As6  1  0.59912900  0.26902500  0.37182400  1
  As  As7  1  0.59912900  0.23097500  0.87182400  1
  As  As8  1  0.09912900  0.73097500  0.62817600  1
  As  As9  1  0.78305300  0.01357400  0.10935800  1
  As  As10  1  0.77171400  0.04115300  0.62573200  1
  As  As11  1  0.27171400  0.95884700  0.37426800  1
  As  As12  1  0.43904100  0.53141900  0.69212200  1
  As  As13  1  0.28305300  0.51357400  0.39064200  1
  As  As14  1  0.27171400  0.54115300  0.87426800  1
  As  As15  1  0.43904100  0.96858100  0.19212200  1
  S  S0  1  0.54648500  0.97613000  0.24771300  1
  S  S1  1  0.07463400  0.54546300  0.45489200  1
  S  S2  1  0.09661500  0.97151600  0.26829800  1
  S  S3  1  0.09661500  0.52848400  0.76829800  1
  S  S4  1  0.71533400  0.77516800  0.99246800  1
  S  S5  1  0.54648500  0.52387000  0.74771300  1
  S  S6  1  0.96403000  0.43351000  0.16867400  1
  S  S7  1  0.04648500  0.02387000  0.75228700  1
  S  S8  1  0.78488100  0.23600400  0.98251900  1
  S  S9  1  0.42776300  0.69825200  0.41571300  1
  S  S10  1  0.58780800  0.28407800  0.14264000  1
  S  S11  1  0.12726000  0.33989900  0.85222000  1
  S  S12  1  0.28488100  0.73600400  0.51748100  1
  S  S13  1  0.42776300  0.80174800  0.91571300  1
  S  S14  1  0.29178100  0.55931300  0.61596700  1
  S  S15  1  0.41050800  0.19480500  0.91443000  1
  S  S16  1  0.42547000  0.51993200  0.33935500  1
  S  S17  1  0.22135800  0.56747700  0.09876200  1
  S  S18  1  0.79178100  0.44068700  0.38403300  1
  S  S19  1  0.58780800  0.21592200  0.64264000  1
  S  S20  1  0.77294100  0.82894100  0.79976900  1
  S  S21  1  0.46403000  0.56649000  0.83132600  1
  S  S22  1  0.07463400  0.95453700  0.95489200  1
  S  S23  1  0.27294100  0.32894100  0.70023100  1
  S  S24  1  0.79178100  0.05931300  0.88403300  1
  S  S25  1  0.04602600  0.54971400  0.95341400  1
  S  S26  1  0.28029200  0.76806500  0.20457400  1
  S  S27  1  0.72135800  0.43252300  0.90123800  1
  S  S28  1  0.92547000  0.01993200  0.16064500  1
  S  S29  1  0.71533400  0.72483200  0.49246800  1
  S  S30  1  0.77294100  0.67105900  0.29976900  1
  S  S31  1  0.54602600  0.04971400  0.54658600  1
  S  S32  1  0.41050800  0.30519500  0.41443000  1
  S  S33  1  0.42547000  0.98006800  0.83935500  1
  S  S34  1  0.46403000  0.93351000  0.33132600  1
  S  S35  1  0.27294100  0.17105900  0.20023100  1
  S  S36  1  0.04602600  0.95028600  0.45341400  1
  S  S37  1  0.92776300  0.30174800  0.58428700  1
  S  S38  1  0.28488100  0.76399600  0.01748100  1
  S  S39  1  0.59661500  0.47151600  0.23170200  1
  S  S40  1  0.57463400  0.04546300  0.04510800  1
  S  S41  1  0.78488100  0.26399600  0.48251900  1
  S  S42  1  0.54602600  0.45028600  0.04658600  1
  S  S43  1  0.04648500  0.47613000  0.25228700  1
  S  S44  1  0.28029200  0.73193500  0.70457400  1
  S  S45  1  0.72135800  0.06747700  0.40123800  1
  S  S46  1  0.62726000  0.66010100  0.14778000  1
  S  S47  1  0.59661500  0.02848400  0.73170200  1
  S  S48  1  0.12726000  0.16010100  0.35222000  1
  S  S49  1  0.62726000  0.83989900  0.64778000  1
  S  S50  1  0.91050800  0.80519500  0.08557000  1
  S  S51  1  0.57463400  0.45453700  0.54510800  1
  S  S52  1  0.21533400  0.27516800  0.50753200  1
  S  S53  1  0.78029200  0.23193500  0.79542600  1
  S  S54  1  0.08780800  0.71592200  0.85736000  1
  S  S55  1  0.91050800  0.69480500  0.58557000  1
  S  S56  1  0.29178100  0.94068700  0.11596700  1
  S  S57  1  0.08780800  0.78407800  0.35736000  1
  S  S58  1  0.92776300  0.19825200  0.08428700  1
  S  S59  1  0.22135800  0.93252300  0.59876200  1
  S  S60  1  0.78029200  0.26806500  0.29542600  1
  S  S61  1  0.92547000  0.48006800  0.66064500  1
  S  S62  1  0.96403000  0.06649000  0.66867400  1
  S  S63  1  0.21533400  0.22483200  0.00753200  1
loop_
_geom_bond_atom_site_label_1
_geom_bond_atom_site_label_2
_geom_bond_distance
_geom_bond_site_symmetry_2
As0 S56 2.271345 1_555
As0 S50 2.321550 1_455
As0 S17 2.371213 1_555
As1 S10 2.286660 1_555
As1 S46 2.331544 1_555
As1 S6 2.340650 1_555
As2 S37 2.269685 1_555
As2 S55 2.339289 1_555
As2 S61 2.343544 1_555
As3 S13 2.269685 1_555
As3 S15 2.339289 1_565
As3 S33 2.343544 1_555
As4 S53 2.280206 1_555
As4 S20 2.299903 1_545
As4 S7 2.366683 1_655
As5 S60 2.280206 1_555
As5 S30 2.299903 1_555
As5 S43 2.366683 1_655
As6 S18 2.271345 1_555
As6 S32 2.321550 1_555
As6 S45 2.371213 1_555
As7 S24 2.271345 1_555
As7 S15 2.321550 1_555
As7 S27 2.371213 1_555
As8 S14 2.271345 1_555
As8 S55 2.321550 1_455
As8 S59 2.371213 1_555
As9 S58 2.269685 1_555
As9 S50 2.339289 1_545
As9 S28 2.343544 1_555
As10 S19 2.286660 1_555
As10 S49 2.331544 1_545
As10 S62 2.340650 1_555
As11 S57 2.286660 1_555
As11 S48 2.331544 1_565
As11 S34 2.340650 1_555
As12 S44 2.280206 1_555
As12 S23 2.299903 1_555
As12 S5 2.366683 1_555
As13 S9 2.269685 1_555
As13 S32 2.339289 1_555
As13 S16 2.343544 1_555
As14 S54 2.286660 1_555
As14 S11 2.331544 1_555
As14 S21 2.340650 1_555
As15 S26 2.280206 1_555
As15 S35 2.299903 1_565
As15 S0 2.366683 1_555
S0 Sb12 2.516515 1_555
S0 Tl2 3.200562 1_565
S1 Sb15 2.485308 1_455
S1 Sb6 2.560237 1_455
S2 Sb12 2.502117 1_555
S2 Sb22 2.519714 1_455
S3 Sb10 2.502117 1_555
S3 Sb4 2.519714 1_455
S4 Sb2 2.536955 1_555
S4 Sb11 2.589978 1_555
S5 Sb10 2.516515 1_555
S5 Tl3 3.200562 1_555
S6 Sb17 2.800350 1_555
S6 Sb3 2.820557 1_655
S7 Sb13 2.516515 1_455
S7 Tl4 3.200562 1_445
S8 Sb21 2.509166 1_556
S8 Sb7 2.534604 1_555
S9 Sb14 2.794607 1_555
S10 Sb20 2.555675 1_555
S11 Sb4 2.516325 1_455
S12 Sb1 2.509166 1_555
S12 Sb18 2.534604 1_555
S13 Sb8 2.794607 1_555
S14 Sb5 2.768552 1_555
S14 Sb18 3.055346 1_555
S16 Sb14 2.494758 1_555
S17 Sb9 2.481809 1_555
S18 Sb14 2.768552 1_555
S18 Sb0 3.055346 1_555
S19 Sb23 2.555675 1_555
S20 Sb8 2.647336 1_555
S21 Sb10 2.800350 1_555
S21 Sb8 2.820557 1_555
S22 Sb2 2.485308 1_455
S22 Sb21 2.560237 1_466
S23 Sb5 2.647336 1_555
S24 Sb8 2.768552 1_545
S24 Sb7 3.055346 1_555
S25 Sb2 2.495832 1_455
S25 Sb7 2.589204 1_455
S25 Tl1 3.218216 1_456
S26 Sb12 2.731154 1_555
S26 Sb20 3.070173 1_555
S27 Sb7 2.481809 1_555
S28 Sb3 2.494758 1_655
S29 Sb15 2.536955 1_555
S29 Sb1 2.589978 1_555
S30 Sb14 2.647336 1_555
S31 Sb16 2.495832 1_555
S31 Sb18 2.589204 1_545
S31 Tl0 3.218216 1_545
S33 Sb8 2.494758 1_555
S34 Sb12 2.800350 1_555
S34 Sb14 2.820557 1_555
S35 Sb3 2.647336 1_555
S36 Sb15 2.495832 1_455
S36 Sb0 2.589204 1_465
S36 Tl5 3.218216 1_465
S37 Sb5 2.794607 1_655
S38 Sb11 2.509166 1_554
S38 Sb9 2.534604 1_555
S39 Sb17 2.502117 1_555
S39 Sb20 2.519714 1_555
S40 Sb19 2.485308 1_555
S40 Sb11 2.560237 1_544
S41 Sb6 2.509166 1_555
S41 Sb0 2.534604 1_555
S42 Sb19 2.495832 1_555
S42 Sb9 2.589204 1_555
S42 Tl6 3.218216 1_554
S43 Sb17 2.516515 1_455
S43 Tl7 3.200562 1_455
S44 Sb10 2.731154 1_555
S44 Sb23 3.070173 1_565
S45 Sb0 2.481809 1_555
S46 Sb20 2.516325 1_555
S47 Sb13 2.502117 1_555
S47 Sb23 2.519714 1_555
S48 Sb22 2.516325 1_445
S49 Sb23 2.516325 1_565
S51 Sb16 2.485308 1_555
S51 Sb1 2.560237 1_555
S52 Sb16 2.536955 1_555
S52 Sb6 2.589978 1_455
S53 Sb13 2.731154 1_555
S53 Sb4 3.070173 1_555
S54 Sb4 2.555675 1_455
S56 Sb3 2.768552 1_565
S56 Sb9 3.055346 1_555
S57 Sb22 2.555675 1_455
S58 Sb3 2.794607 1_655
S59 Sb18 2.481809 1_555
S60 Sb17 2.731154 1_555
S60 Sb22 3.070173 1_545
S61 Sb5 2.494758 1_655
S62 Sb13 2.800350 1_555
S62 Sb5 2.820557 1_655
S63 Sb19 2.536955 1_555
S63 Sb21 2.589978 1_455
