# generated using pymatgen
data_NaTeH12(CO)3
_symmetry_space_group_name_H-M   'P 1'
_cell_length_a   8.59139360
_cell_length_b   8.59139360
_cell_length_c   13.71329100
_cell_angle_alpha   90.00000000
_cell_angle_beta   90.00000000
_cell_angle_gamma   119.99999695
_symmetry_Int_Tables_number   1
_chemical_formula_structural   NaTeH12(CO)3
_chemical_formula_sum   'Na4 Te4 H48 C12 O12'
_cell_volume   876.59617092
_cell_formula_units_Z   4
loop_
 _symmetry_equiv_pos_site_id
 _symmetry_equiv_pos_as_xyz
  1  'x, y, z'
loop_
 _atom_site_type_symbol
 _atom_site_label
 _atom_site_symmetry_multiplicity
 _atom_site_fract_x
 _atom_site_fract_y
 _atom_site_fract_z
 _atom_site_occupancy
  Na  Na0  1  0.00000000  0.00000000  0.25000000  1
  Na  Na1  1  0.00000000  0.00000000  0.00000000  1
  Na  Na2  1  0.00000000  0.00000000  0.75000000  1
  Na  Na3  1  0.00000000  0.00000000  0.50000000  1
  Te  Te0  1  0.33333300  0.66666700  0.85155800  1
  Te  Te1  1  0.66666700  0.33333300  0.14844200  1
  Te  Te2  1  0.33333300  0.66666700  0.64844200  1
  Te  Te3  1  0.66666700  0.33333300  0.35155800  1
  H  H0  1  0.69108500  0.54623000  0.54954300  1
  H  H1  1  0.30891500  0.45377000  0.45045700  1
  H  H2  1  0.14485500  0.45377000  0.04954300  1
  H  H3  1  0.63998500  0.90885300  0.10429900  1
  H  H4  1  0.36001500  0.09114700  0.89570100  1
  H  H5  1  0.54623000  0.85514500  0.45045700  1
  H  H6  1  0.14485500  0.69108500  0.45045700  1
  H  H7  1  0.28793800  0.82253400  0.17897900  1
  H  H8  1  0.17746600  0.46540300  0.17897900  1
  H  H9  1  0.73113200  0.63998500  0.89570100  1
  H  H10  1  0.17746600  0.71206200  0.32102100  1
  H  H11  1  0.46540300  0.28793800  0.82102100  1
  H  H12  1  0.09114700  0.73113200  0.10429900  1
  H  H13  1  0.90885300  0.63998500  0.60429900  1
  H  H14  1  0.73113200  0.09114700  0.60429900  1
  H  H15  1  0.26886800  0.36001500  0.10429900  1
  H  H16  1  0.45377000  0.14485500  0.54954300  1
  H  H17  1  0.71206200  0.53459700  0.67897900  1
  H  H18  1  0.36001500  0.26886800  0.60429900  1
  H  H19  1  0.53459700  0.71206200  0.17897900  1
  H  H20  1  0.69108500  0.14485500  0.95045700  1
  H  H21  1  0.76773300  0.10812700  0.36856000  1
  H  H22  1  0.65960600  0.89187300  0.86856000  1
  H  H23  1  0.53459700  0.82253400  0.32102100  1
  H  H24  1  0.34039400  0.10812700  0.13144000  1
  H  H25  1  0.34039400  0.23226700  0.36856000  1
  H  H26  1  0.89187300  0.65960600  0.36856000  1
  H  H27  1  0.26886800  0.90885300  0.39570100  1
  H  H28  1  0.09114700  0.36001500  0.39570100  1
  H  H29  1  0.10812700  0.76773300  0.86856000  1
  H  H30  1  0.23226700  0.89187300  0.63144000  1
  H  H31  1  0.89187300  0.23226700  0.13144000  1
  H  H32  1  0.85514500  0.30891500  0.54954300  1
  H  H33  1  0.46540300  0.17746600  0.67897900  1
  H  H34  1  0.82253400  0.28793800  0.67897900  1
  H  H35  1  0.30891500  0.85514500  0.04954300  1
  H  H36  1  0.76773300  0.65960600  0.13144000  1
  H  H37  1  0.85514500  0.54623000  0.95045700  1
  H  H38  1  0.23226700  0.34039400  0.86856000  1
  H  H39  1  0.65960600  0.76773300  0.63144000  1
  H  H40  1  0.45377000  0.30891500  0.95045700  1
  H  H41  1  0.28793800  0.46540300  0.32102100  1
  H  H42  1  0.10812700  0.34039400  0.63144000  1
  H  H43  1  0.82253400  0.53459700  0.82102100  1
  H  H44  1  0.63998500  0.73113200  0.39570100  1
  H  H45  1  0.54623000  0.69108500  0.04954300  1
  H  H46  1  0.71206200  0.17746600  0.82102100  1
  H  H47  1  0.90885300  0.26886800  0.89570100  1
  C  C0  1  0.38185100  0.15428800  0.61378200  1
  C  C1  1  0.77243700  0.61814900  0.61378200  1
  C  C2  1  0.22756300  0.84571200  0.11378200  1
  C  C3  1  0.15428800  0.38185100  0.11378200  1
  C  C4  1  0.61814900  0.84571200  0.38621800  1
  C  C5  1  0.15428800  0.77243700  0.38621800  1
  C  C6  1  0.22756300  0.38185100  0.38621800  1
  C  C7  1  0.38185100  0.22756300  0.88621800  1
  C  C8  1  0.77243700  0.15428800  0.88621800  1
  C  C9  1  0.84571200  0.22756300  0.61378200  1
  C  C10  1  0.84571200  0.61814900  0.88621800  1
  C  C11  1  0.61814900  0.77243700  0.11378200  1
  O  O0  1  0.20878200  0.99483800  0.62463300  1
  O  O1  1  0.79121800  0.78605600  0.12463300  1
  O  O2  1  0.00516200  0.79121800  0.87536700  1
  O  O3  1  0.99483800  0.20878200  0.12463300  1
  O  O4  1  0.78605600  0.79121800  0.62463300  1
  O  O5  1  0.78605600  0.99483800  0.87536700  1
  O  O6  1  0.21394400  0.20878200  0.37536700  1
  O  O7  1  0.21394400  0.00516200  0.12463300  1
  O  O8  1  0.00516200  0.21394400  0.62463300  1
  O  O9  1  0.20878200  0.21394400  0.87536700  1
  O  O10  1  0.79121800  0.00516200  0.37536700  1
  O  O11  1  0.99483800  0.78605600  0.37536700  1
loop_
_geom_bond_atom_site_label_1
_geom_bond_atom_site_label_2
_geom_bond_distance
_geom_bond_site_symmetry_2
Na0 O3 2.500921 1_455
Na0 O10 2.500921 1_455
Na0 O11 2.500921 1_445
Na0 O7 2.500921 1_555
Na0 O1 2.500921 1_445
Na0 O6 2.500921 1_555
Na1 O3 2.494013 1_455
Na1 O2 2.494013 1_544
Na1 O5 2.494013 1_444
Na1 O7 2.494013 1_555
Na1 O9 2.494013 1_554
Na1 O1 2.494013 1_445
Na2 O2 2.500921 1_545
Na2 O0 2.500921 1_545
Na2 O8 2.500921 1_555
Na2 O5 2.500921 1_445
Na2 O4 2.500921 1_445
Na2 O9 2.500921 1_555
Na3 O0 2.494013 1_545
Na3 O10 2.494013 1_455
Na3 O8 2.494013 1_555
Na3 O11 2.494013 1_445
Na3 O6 2.494013 1_555
Na3 O4 2.494013 1_445
Te0 Te2 2.785389 1_555
Te1 Te3 2.785389 1_555
H21 O10 1.005212 1_555
H21 Te3 2.496376 1_555
H22 O5 1.005212 1_555
H22 Te0 2.496382 1_555
H24 O7 1.005212 1_555
H24 Te1 2.496382 1_555
H25 O6 1.005212 1_555
H25 Te3 2.496384 1_555
H26 O11 1.005212 1_555
H26 Te3 2.496382 1_555
H29 O2 1.005212 1_555
H29 Te0 2.496376 1_555
H30 O0 1.005212 1_555
H30 Te2 2.496376 1_555
H31 O3 1.005212 1_555
H31 Te1 2.496376 1_555
H36 O1 1.005212 1_555
H36 Te1 2.496384 1_555
H38 O9 1.005212 1_555
H38 Te0 2.496384 1_555
H39 O4 1.005212 1_555
H39 Te2 2.496384 1_555
H42 O8 1.005212 1_555
H42 Te2 2.496382 1_555
C0 H18 1.098102 1_555
C0 H33 1.100610 1_555
C0 H16 1.102025 1_555
C0 O0 1.439701 1_545
C1 H13 1.098102 1_555
C1 H17 1.100611 1_555
C1 H0 1.102025 1_555
C1 O4 1.439701 1_555
C2 H12 1.098102 1_555
C2 H7 1.100614 1_555
C2 H35 1.102025 1_555
C2 O7 1.439701 1_565
C3 H15 1.098102 1_555
C3 H8 1.100610 1_555
C3 H2 1.102025 1_555
C3 O3 1.439701 1_455
C4 H44 1.098102 1_555
C4 H23 1.100610 1_555
C4 H5 1.102025 1_555
C4 O10 1.439701 1_565
C5 H27 1.098102 1_555
C5 H10 1.100614 1_555
C5 H6 1.102025 1_555
C5 O11 1.439701 1_455
C6 H28 1.098102 1_555
C6 H41 1.100611 1_555
C6 H1 1.102025 1_555
C6 O6 1.439701 1_555
C7 H4 1.098102 1_555
C7 H11 1.100611 1_555
C7 H40 1.102025 1_555
C7 O9 1.439701 1_555
C8 H47 1.098102 1_555
C8 H46 1.100614 1_555
C8 H20 1.102025 1_555
C8 O5 1.439701 1_545
C9 H14 1.098102 1_555
C9 H34 1.100614 1_555
C9 H32 1.102025 1_555
C9 O8 1.439701 1_655
C10 H9 1.098102 1_555
C10 H43 1.100610 1_555
C10 H37 1.102025 1_555
C10 O2 1.439701 1_655
C11 H3 1.098102 1_555
C11 H19 1.100611 1_555
C11 H45 1.102025 1_555
C11 O1 1.439701 1_555
