# generated using pymatgen
data_Pb3WCl2O5
_symmetry_space_group_name_H-M   'P 1'
_cell_length_a   7.23000067
_cell_length_b   7.23000067
_cell_length_c   11.27935300
_cell_angle_alpha   90.00000000
_cell_angle_beta   90.00000000
_cell_angle_gamma   133.35994823
_symmetry_Int_Tables_number   1
_chemical_formula_structural   Pb3WCl2O5
_chemical_formula_sum   'Pb6 W2 Cl4 O10'
_cell_volume   428.67485040
_cell_formula_units_Z   2
loop_
 _symmetry_equiv_pos_site_id
 _symmetry_equiv_pos_as_xyz
  1  'x, y, z'
loop_
 _atom_site_type_symbol
 _atom_site_label
 _atom_site_symmetry_multiplicity
 _atom_site_fract_x
 _atom_site_fract_y
 _atom_site_fract_z
 _atom_site_occupancy
  Pb  Pb0  1  0.90333500  0.09666500  0.75000000  1
  Pb  Pb1  1  0.65350500  0.34649500  0.53226500  1
  Pb  Pb2  1  0.34649500  0.65350500  0.46773500  1
  Pb  Pb3  1  0.65350500  0.34649500  0.96773500  1
  Pb  Pb4  1  0.34649500  0.65350500  0.03226500  1
  Pb  Pb5  1  0.09666500  0.90333500  0.25000000  1
  W  W0  1  0.76318200  0.23681800  0.25000000  1
  W  W1  1  0.23681800  0.76318200  0.75000000  1
  Cl  Cl0  1  0.52647000  0.47353000  0.25000000  1
  Cl  Cl1  1  0.47353000  0.52647000  0.75000000  1
  Cl  Cl2  1  0.00000000  0.00000000  0.50000000  1
  Cl  Cl3  1  0.00000000  0.00000000  0.00000000  1
  O  O0  1  0.10473400  0.89526600  0.75000000  1
  O  O1  1  0.03785600  0.49582100  0.63030900  1
  O  O2  1  0.49582100  0.03785600  0.36969100  1
  O  O3  1  0.50417900  0.96214400  0.63030900  1
  O  O4  1  0.96214400  0.50417900  0.36969100  1
  O  O5  1  0.89526600  0.10473400  0.25000000  1
  O  O6  1  0.03785600  0.49582100  0.86969100  1
  O  O7  1  0.50417900  0.96214400  0.86969100  1
  O  O8  1  0.96214400  0.50417900  0.13030900  1
  O  O9  1  0.49582100  0.03785600  0.13030900  1
loop_
_geom_bond_atom_site_label_1
_geom_bond_atom_site_label_2
_geom_bond_distance
_geom_bond_site_symmetry_2
Cl0 Pb5 3.010069 1_655
Cl0 Pb5 3.010069 1_545
Cl0 W0 3.143236 1_555
Cl1 Pb0 3.010069 1_455
Cl1 Pb0 3.010069 1_565
Cl1 W1 3.143236 1_555
Cl2 Pb0 3.098240 1_455
Cl2 Pb5 3.098240 1_545
Cl3 Pb0 3.098240 1_454
Cl3 Pb5 3.098240 1_545
O0 W1 1.753909 1_555
O0 Pb0 2.674324 1_465
O1 W1 1.951967 1_555
O1 Pb1 2.447641 1_455
O1 Pb2 2.479598 1_555
O1 Pb0 2.691239 1_455
O2 W0 1.951967 1_555
O2 Pb2 2.447641 1_545
O2 Pb1 2.479598 1_555
O2 Pb5 2.691239 1_545
O3 W1 1.951967 1_555
O3 Pb1 2.447641 1_565
O3 Pb2 2.479598 1_555
O3 Pb0 2.691239 1_565
O4 W0 1.951967 1_555
O4 Pb2 2.447641 1_655
O4 Pb1 2.479598 1_555
O4 Pb5 2.691239 1_655
O5 W0 1.753909 1_555
O5 Pb5 2.674324 1_645
O6 W1 1.951967 1_555
O6 Pb3 2.447641 1_455
O6 Pb4 2.479598 1_556
O6 Pb0 2.691239 1_455
O7 W1 1.951967 1_555
O7 Pb3 2.447641 1_565
O7 Pb4 2.479598 1_556
O7 Pb0 2.691239 1_565
O8 W0 1.951967 1_555
O8 Pb4 2.447641 1_655
O8 Pb3 2.479598 1_554
O8 Pb5 2.691239 1_655
O9 W0 1.951967 1_555
O9 Pb4 2.447641 1_545
O9 Pb3 2.479598 1_554
O9 Pb5 2.691239 1_545
