# generated using pymatgen
data_Y9C4I8O
_symmetry_space_group_name_H-M   'P 1'
_cell_length_a   3.86181100
_cell_length_b   11.36699400
_cell_length_c   29.16767900
_cell_angle_alpha   90.00000000
_cell_angle_beta   90.00000000
_cell_angle_gamma   90.00000000
_symmetry_Int_Tables_number   1
_chemical_formula_structural   Y9C4I8O
_chemical_formula_sum   'Y18 C8 I16 O2'
_cell_volume   1280.37892718
_cell_formula_units_Z   2
loop_
 _symmetry_equiv_pos_site_id
 _symmetry_equiv_pos_as_xyz
  1  'x, y, z'
loop_
 _atom_site_type_symbol
 _atom_site_label
 _atom_site_symmetry_multiplicity
 _atom_site_fract_x
 _atom_site_fract_y
 _atom_site_fract_z
 _atom_site_occupancy
  Y  Y0  1  0.50000000  0.73643900  0.06577300  1
  Y  Y1  1  0.00000000  0.39914400  0.77925500  1
  Y  Y2  1  0.50000000  0.45393900  0.50000000  1
  Y  Y3  1  0.00000000  0.26356100  0.56577300  1
  Y  Y4  1  0.50000000  0.60085600  0.27925500  1
  Y  Y5  1  0.00000000  0.39914400  0.22074500  1
  Y  Y6  1  0.00000000  0.54606100  0.00000000  1
  Y  Y7  1  0.50000000  0.47016500  0.88590900  1
  Y  Y8  1  0.50000000  0.60085600  0.72074500  1
  Y  Y9  1  0.00000000  0.52983500  0.38590900  1
  Y  Y10  1  0.50000000  0.47016500  0.11409100  1
  Y  Y11  1  0.00000000  0.52983500  0.61409100  1
  Y  Y12  1  0.50000000  0.32609800  0.32872900  1
  Y  Y13  1  0.50000000  0.32609800  0.67127100  1
  Y  Y14  1  0.50000000  0.73643900  0.93422700  1
  Y  Y15  1  0.00000000  0.26356100  0.43422700  1
  Y  Y16  1  0.00000000  0.67390200  0.17127100  1
  Y  Y17  1  0.00000000  0.67390200  0.82872900  1
  C  C0  1  0.50000000  0.53648100  0.19483200  1
  C  C1  1  0.00000000  0.46351900  0.30516800  1
  C  C2  1  0.00000000  0.60989000  0.08817500  1
  C  C3  1  0.00000000  0.60989000  0.91182500  1
  C  C4  1  0.50000000  0.39011000  0.41182500  1
  C  C5  1  0.50000000  0.53648100  0.80516800  1
  C  C6  1  0.50000000  0.39011000  0.58817500  1
  C  C7  1  0.00000000  0.46351900  0.69483200  1
  I  I0  1  0.00000000  0.10296300  0.35277300  1
  I  I1  1  0.00000000  0.25997800  0.87693200  1
  I  I2  1  0.00000000  0.81332200  0.73803300  1
  I  I3  1  0.00000000  0.25997800  0.12306800  1
  I  I4  1  0.50000000  0.74002200  0.37693200  1
  I  I5  1  0.50000000  0.18667800  0.76196700  1
  I  I6  1  0.00000000  0.66561800  0.50000000  1
  I  I7  1  0.00000000  0.10296300  0.64722700  1
  I  I8  1  0.50000000  0.18667800  0.23803300  1
  I  I9  1  0.50000000  0.74002200  0.62306800  1
  I  I10  1  0.50000000  0.89703700  0.14722700  1
  I  I11  1  0.50000000  0.89703700  0.85277300  1
  I  I12  1  0.00000000  0.81332200  0.26196700  1
  I  I13  1  0.50000000  0.33438200  0.00000000  1
  I  I14  1  0.00000000  0.90675900  0.00000000  1
  I  I15  1  0.50000000  0.09324100  0.50000000  1
  O  O0  1  0.50000000  0.64333900  0.00000000  1
  O  O1  1  0.00000000  0.35666100  0.50000000  1
loop_
_geom_bond_atom_site_label_1
_geom_bond_atom_site_label_2
_geom_bond_distance
_geom_bond_site_symmetry_2
C0 Y10 2.472729 1_555
C0 Y4 2.568849 1_555
C0 Y16 2.576957 1_655
C0 Y16 2.576957 1_555
C0 Y5 2.595520 1_655
C0 Y5 2.595520 1_555
C1 Y9 2.472729 1_555
C1 Y5 2.568849 1_555
C1 Y12 2.576957 1_455
C1 Y12 2.576957 1_555
C1 Y4 2.595520 1_455
C1 Y4 2.595520 1_555
C2 Y0 2.494910 1_455
C2 Y0 2.494910 1_555
C2 Y16 2.530582 1_555
C2 Y10 2.611962 1_455
C2 Y10 2.611962 1_555
C2 Y6 2.672242 1_555
C3 Y14 2.494910 1_455
C3 Y14 2.494910 1_555
C3 Y17 2.530582 1_555
C3 Y7 2.611962 1_555
C3 Y7 2.611962 1_455
C3 Y6 2.672242 1_556
C4 Y15 2.494910 1_655
C4 Y15 2.494910 1_555
C4 Y12 2.530582 1_555
C4 Y9 2.611962 1_655
C4 Y9 2.611962 1_555
C4 Y2 2.672242 1_555
C5 Y7 2.472729 1_555
C5 Y8 2.568849 1_555
C5 Y17 2.576957 1_655
C5 Y17 2.576957 1_555
C5 Y1 2.595520 1_555
C5 Y1 2.595520 1_655
C6 Y3 2.494910 1_555
C6 Y3 2.494910 1_655
C6 Y13 2.530582 1_555
C6 Y11 2.611962 1_655
C6 Y11 2.611962 1_555
C6 Y2 2.672242 1_555
C7 Y11 2.472729 1_555
C7 Y1 2.568849 1_555
C7 Y13 2.576957 1_555
C7 Y13 2.576957 1_455
C7 Y8 2.595520 1_455
C7 Y8 2.595520 1_555
I0 Y15 2.996173 1_555
I0 Y12 3.263958 1_455
I0 Y12 3.263958 1_555
I1 Y7 3.083051 1_555
I1 Y7 3.083051 1_455
I1 Y1 3.258722 1_555
I2 Y17 3.083771 1_555
I2 Y8 3.132949 1_555
I2 Y8 3.132949 1_455
I3 Y10 3.083051 1_455
I3 Y10 3.083051 1_555
I3 Y5 3.258722 1_555
I4 Y9 3.083051 1_655
I4 Y9 3.083051 1_555
I4 Y4 3.258722 1_555
I5 Y13 3.083771 1_555
I5 Y1 3.132949 1_555
I5 Y1 3.132949 1_655
I6 Y2 3.085121 1_555
I6 Y2 3.085121 1_455
I6 Y11 3.668279 1_555
I6 Y9 3.668279 1_555
I7 Y3 2.996173 1_555
I7 Y13 3.263958 1_555
I7 Y13 3.263958 1_455
I8 Y12 3.083771 1_555
I8 Y5 3.132949 1_655
I8 Y5 3.132949 1_555
I9 Y11 3.083051 1_655
I9 Y11 3.083051 1_555
I9 Y8 3.258722 1_555
I10 Y0 2.996173 1_555
I10 Y16 3.263958 1_655
I10 Y16 3.263958 1_555
I11 Y14 2.996173 1_555
I11 Y17 3.263958 1_555
I11 Y17 3.263958 1_655
I12 Y16 3.083771 1_555
I12 Y4 3.132949 1_455
I12 Y4 3.132949 1_555
I13 Y6 3.085121 1_555
I13 Y6 3.085121 1_655
I13 Y10 3.668279 1_555
I13 Y7 3.668279 1_554
I14 Y0 3.340214 1_555
I14 Y0 3.340214 1_455
I14 Y14 3.340214 1_454
I14 Y14 3.340214 1_554
I15 Y3 3.340214 1_655
I15 Y3 3.340214 1_555
I15 Y15 3.340214 1_655
I15 Y15 3.340214 1_555
O0 Y0 2.190973 1_555
O0 Y14 2.190973 1_554
O0 Y6 2.225106 1_555
O0 Y6 2.225106 1_655
O1 Y3 2.190973 1_555
O1 Y15 2.190973 1_555
O1 Y2 2.225106 1_455
O1 Y2 2.225106 1_555
