# generated using pymatgen
data_Ti5Si4
_symmetry_space_group_name_H-M   'P 1'
_cell_length_a   6.68896492
_cell_length_b   6.68896492
_cell_length_c   12.15760457
_cell_angle_alpha   90.00000000
_cell_angle_beta   90.00000000
_cell_angle_gamma   90.00000000
_symmetry_Int_Tables_number   1
_chemical_formula_structural   Ti5Si4
_chemical_formula_sum   'Ti20 Si16'
_cell_volume   543.95860375
_cell_formula_units_Z   4
loop_
 _symmetry_equiv_pos_site_id
 _symmetry_equiv_pos_as_xyz
  1  'x, y, z'
loop_
 _atom_site_type_symbol
 _atom_site_label
 _atom_site_symmetry_multiplicity
 _atom_site_fract_x
 _atom_site_fract_y
 _atom_site_fract_z
 _atom_site_occupancy
  Ti  Ti0  1  0.99586227  0.14908996  0.62206880  1
  Ti  Ti1  1  0.35091004  0.49586227  0.87206880  1
  Ti  Ti2  1  0.64908996  0.50413773  0.37206880  1
  Ti  Ti3  1  0.49586227  0.35091004  0.12793120  1
  Ti  Ti4  1  0.50413773  0.64908996  0.62793120  1
  Ti  Ti5  1  0.00413773  0.85091004  0.12206880  1
  Ti  Ti6  1  0.14908996  0.99586227  0.37793120  1
  Ti  Ti7  1  0.85091004  0.00413773  0.87793120  1
  Ti  Ti8  1  0.00256245  0.34535309  0.21786020  1
  Ti  Ti9  1  0.15464691  0.50256245  0.46786020  1
  Ti  Ti10  1  0.84535309  0.49743755  0.96786020  1
  Ti  Ti11  1  0.50256245  0.15464691  0.53213980  1
  Ti  Ti12  1  0.49743755  0.84535309  0.03213980  1
  Ti  Ti13  1  0.99743755  0.65464691  0.71786020  1
  Ti  Ti14  1  0.34535309  0.00256245  0.78213980  1
  Ti  Ti15  1  0.65464691  0.99743755  0.28213980  1
  Ti  Ti16  1  0.17112760  0.17112760  -0.00000000  1
  Ti  Ti17  1  0.32887240  0.67112760  0.25000000  1
  Ti  Ti18  1  0.67112760  0.32887240  0.75000000  1
  Ti  Ti19  1  0.82887240  0.82887240  0.50000000  1
  Si  Si0  1  0.04535421  0.30087658  0.81315346  1
  Si  Si1  1  0.19912342  0.54535421  0.06315346  1
  Si  Si2  1  0.80087658  0.45464579  0.56315346  1
  Si  Si3  1  0.54535421  0.19912342  0.93684654  1
  Si  Si4  1  0.45464579  0.80087658  0.43684654  1
  Si  Si5  1  0.95464579  0.69912342  0.31315346  1
  Si  Si6  1  0.30087658  0.04535421  0.18684654  1
  Si  Si7  1  0.69912342  0.95464579  0.68684654  1
  Si  Si8  1  0.29423250  0.35763964  0.67280954  1
  Si  Si9  1  0.14236036  0.79423250  0.92280954  1
  Si  Si10  1  0.85763964  0.20576750  0.42280954  1
  Si  Si11  1  0.79423250  0.14236036  0.07719046  1
  Si  Si12  1  0.20576750  0.85763964  0.57719046  1
  Si  Si13  1  0.70576750  0.64236036  0.17280954  1
  Si  Si14  1  0.35763964  0.29423250  0.32719046  1
  Si  Si15  1  0.64236036  0.70576750  0.82719046  1
loop_
_geom_bond_atom_site_label_1
_geom_bond_atom_site_label_2
_geom_bond_distance
_geom_bond_site_symmetry_2
Si0 Si8 2.413874 1_555
Si0 Ti7 2.500319 1_455
Si0 Ti1 2.528131 1_555
Si0 Ti0 2.556826 1_455
Si0 Ti16 2.573169 1_556
Si0 Ti18 2.624982 1_455
Si0 Ti13 2.654164 1_455
Si0 Ti10 2.656319 1_455
Si0 Ti14 2.854928 1_555
Si1 Si9 2.413874 1_554
Si1 Ti3 2.500319 1_555
Si1 Ti5 2.528131 1_555
Si1 Ti1 2.556826 1_554
Si1 Ti17 2.573169 1_555
Si1 Ti16 2.624982 1_555
Si1 Ti10 2.654164 1_454
Si1 Ti8 2.656319 1_555
Si1 Ti12 2.854928 1_555
Si2 Ti4 2.500319 1_555
Si2 Ti0 2.528131 1_555
Si2 Ti2 2.556826 1_555
Si2 Ti18 2.573169 1_555
Si2 Ti19 2.624982 1_555
Si2 Ti9 2.654164 1_655
Si2 Ti13 2.656319 1_555
Si2 Ti11 2.854928 1_555
Si3 Ti1 2.500319 1_555
Si3 Ti7 2.528131 1_555
Si3 Ti3 2.556826 1_556
Si3 Ti18 2.573169 1_555
Si3 Ti16 2.624982 1_556
Si3 Ti12 2.654164 1_546
Si3 Ti14 2.656319 1_555
Si3 Ti10 2.854928 1_555
Si4 Ti2 2.500319 1_555
Si4 Ti6 2.528131 1_555
Si4 Ti4 2.556826 1_555
Si4 Ti17 2.573169 1_555
Si4 Ti19 2.624982 1_555
Si4 Ti11 2.654164 1_565
Si4 Ti15 2.656319 1_555
Si4 Ti9 2.854928 1_555
Si5 Ti6 2.500319 1_655
Si5 Ti2 2.528131 1_555
Si5 Ti5 2.556826 1_655
Si5 Ti19 2.573169 1_555
Si5 Ti17 2.624982 1_655
Si5 Ti8 2.654164 1_655
Si5 Ti9 2.656319 1_655
Si5 Ti15 2.854928 1_555
Si6 Ti5 2.500319 1_545
Si6 Ti3 2.528131 1_555
Si6 Ti6 2.556826 1_545
Si6 Ti16 2.573169 1_555
Si6 Ti17 2.624982 1_545
Si6 Ti15 2.654164 1_545
Si6 Ti12 2.656319 1_545
Si6 Ti8 2.854928 1_555
Si7 Ti0 2.500319 1_565
Si7 Ti4 2.528131 1_555
Si7 Ti7 2.556826 1_565
Si7 Ti19 2.573169 1_555
Si7 Ti18 2.624982 1_565
Si7 Ti14 2.654164 1_565
Si7 Ti11 2.656319 1_565
Si7 Ti13 2.854928 1_555
Si8 Ti4 2.463656 1_555
Si8 Ti0 2.511910 1_455
Si8 Ti11 2.590431 1_555
Si8 Ti1 2.620521 1_555
Si8 Ti18 2.696915 1_555
Si8 Ti14 2.743133 1_555
Si8 Ti9 2.831961 1_555
Si8 Ti13 2.861480 1_455
Si9 Ti7 2.463656 1_465
Si9 Ti1 2.511910 1_555
Si9 Ti14 2.590431 1_565
Si9 Ti5 2.620521 1_556
Si9 Ti16 2.696915 1_566
Si9 Ti12 2.743133 1_556
Si9 Ti13 2.831961 1_455
Si9 Ti10 2.861480 1_455
Si10 Si2 2.413874 1_555
Si10 Ti6 2.463656 1_645
Si10 Ti2 2.511910 1_555
Si10 Ti15 2.590431 1_545
Si10 Ti0 2.620521 1_555
Si10 Ti19 2.696915 1_545
Si10 Ti11 2.743133 1_555
Si10 Ti8 2.831961 1_655
Si10 Ti9 2.861480 1_655
Si11 Si3 2.413874 1_554
Si11 Ti5 2.463656 1_645
Si11 Ti3 2.511910 1_555
Si11 Ti8 2.590431 1_655
Si11 Ti7 2.620521 1_554
Si11 Ti16 2.696915 1_655
Si11 Ti10 2.743133 1_554
Si11 Ti15 2.831961 1_545
Si11 Ti12 2.861480 1_545
Si12 Si4 2.413874 1_555
Si12 Ti0 2.463656 1_465
Si12 Ti4 2.511910 1_555
Si12 Ti13 2.590431 1_455
Si12 Ti6 2.620521 1_555
Si12 Ti19 2.696915 1_455
Si12 Ti9 2.743133 1_555
Si12 Ti14 2.831961 1_565
Si12 Ti11 2.861480 1_565
Si13 Si5 2.413874 1_555
Si13 Ti3 2.463656 1_555
Si13 Ti5 2.511910 1_655
Si13 Ti12 2.590431 1_555
Si13 Ti2 2.620521 1_555
Si13 Ti17 2.696915 1_555
Si13 Ti15 2.743133 1_555
Si13 Ti10 2.831961 1_554
Si13 Ti8 2.861480 1_655
Si14 Si6 2.413874 1_555
Si14 Ti2 2.463656 1_555
Si14 Ti6 2.511910 1_545
Si14 Ti9 2.590431 1_555
Si14 Ti3 2.620521 1_555
Si14 Ti17 2.696915 1_555
Si14 Ti8 2.743133 1_555
Si14 Ti11 2.831961 1_555
Si14 Ti15 2.861480 1_545
Si15 Si7 2.413874 1_555
Si15 Ti1 2.463656 1_555
Si15 Ti7 2.511910 1_565
Si15 Ti10 2.590431 1_555
Si15 Ti4 2.620521 1_555
Si15 Ti18 2.696915 1_555
Si15 Ti13 2.743133 1_555
Si15 Ti12 2.831961 1_556
Si15 Ti14 2.861480 1_565
