# generated using pymatgen
data_Bi7Mo2(AsO8)3
_symmetry_space_group_name_H-M   'P 1'
_cell_length_a   5.41023800
_cell_length_b   16.34719300
_cell_length_c   24.07851000
_cell_angle_alpha   90.00000000
_cell_angle_beta   90.00000000
_cell_angle_gamma   90.00000000
_symmetry_Int_Tables_number   1
_chemical_formula_structural   Bi7Mo2(AsO8)3
_chemical_formula_sum   'Bi28 Mo8 As12 O96'
_cell_volume   2129.55651178
_cell_formula_units_Z   4
loop_
 _symmetry_equiv_pos_site_id
 _symmetry_equiv_pos_as_xyz
  1  'x, y, z'
loop_
 _atom_site_type_symbol
 _atom_site_label
 _atom_site_symmetry_multiplicity
 _atom_site_fract_x
 _atom_site_fract_y
 _atom_site_fract_z
 _atom_site_occupancy
  Bi  Bi0  1  0.19753700  0.32453400  0.81126900  1
  Bi  Bi1  1  0.69551900  0.66135400  0.94043600  1
  Bi  Bi2  1  0.76070500  0.17697900  0.05598100  1
  Bi  Bi3  1  0.73929500  0.67697900  0.55598100  1
  Bi  Bi4  1  0.69753700  0.32453400  0.18873100  1
  Bi  Bi5  1  0.30448100  0.33864600  0.05956400  1
  Bi  Bi6  1  0.25000000  0.50000000  0.31870700  1
  Bi  Bi7  1  0.75000000  0.00000000  0.18129300  1
  Bi  Bi8  1  0.19552000  0.83864600  0.55956400  1
  Bi  Bi9  1  0.23929500  0.82302100  0.94401900  1
  Bi  Bi10  1  0.23929500  0.67697900  0.44401900  1
  Bi  Bi11  1  0.19552000  0.66135400  0.05956400  1
  Bi  Bi12  1  0.73929500  0.82302100  0.05598100  1
  Bi  Bi13  1  0.26070500  0.17697900  0.94401900  1
  Bi  Bi14  1  0.30448100  0.16135400  0.55956400  1
  Bi  Bi15  1  0.80246300  0.82453400  0.68873100  1
  Bi  Bi16  1  0.25000000  0.00000000  0.81870700  1
  Bi  Bi17  1  0.30246300  0.67546600  0.81126900  1
  Bi  Bi18  1  0.69551900  0.83864600  0.44043600  1
  Bi  Bi19  1  0.26070500  0.32302100  0.44401900  1
  Bi  Bi20  1  0.30246300  0.82453400  0.31126900  1
  Bi  Bi21  1  0.76070500  0.32302100  0.55598100  1
  Bi  Bi22  1  0.19753700  0.17546600  0.31126900  1
  Bi  Bi23  1  0.80246300  0.67546600  0.18873100  1
  Bi  Bi24  1  0.75000000  0.50000000  0.68129300  1
  Bi  Bi25  1  0.69753700  0.17546600  0.68873100  1
  Bi  Bi26  1  0.80448100  0.33864600  0.94043600  1
  Bi  Bi27  1  0.80448100  0.16135400  0.44043600  1
  Mo  Mo0  1  0.75000000  0.50000000  0.42419200  1
  Mo  Mo1  1  0.25000000  0.50000000  0.17763500  1
  Mo  Mo2  1  0.25000000  0.00000000  0.67763500  1
  Mo  Mo3  1  0.75000000  0.50000000  0.82236500  1
  Mo  Mo4  1  0.75000000  0.00000000  0.92419200  1
  Mo  Mo5  1  0.75000000  0.00000000  0.32236500  1
  Mo  Mo6  1  0.25000000  0.50000000  0.57580800  1
  Mo  Mo7  1  0.25000000  0.00000000  0.07580800  1
  As  As0  1  0.75000000  0.00000000  0.57110700  1
  As  As1  1  0.25000000  0.00000000  0.42889300  1
  As  As2  1  0.25000000  0.50000000  0.92889300  1
  As  As3  1  0.25133600  0.66853100  0.67233400  1
  As  As4  1  0.24866400  0.33146900  0.67233400  1
  As  As5  1  0.75133600  0.83146900  0.82766600  1
  As  As6  1  0.24866400  0.16853100  0.17233400  1
  As  As7  1  0.75133600  0.66853100  0.32766600  1
  As  As8  1  0.75000000  0.50000000  0.07110700  1
  As  As9  1  0.25133600  0.83146900  0.17233400  1
  As  As10  1  0.74866400  0.16853100  0.82766600  1
  As  As11  1  0.74866400  0.33146900  0.32766600  1
  O  O0  1  0.09045300  0.22661500  0.12386800  1
  O  O1  1  0.53796500  0.45915500  0.77297400  1
  O  O2  1  0.47408000  0.44993900  0.39223400  1
  O  O3  1  0.40346900  0.09880700  0.65389100  1
  O  O4  1  0.61898700  0.07497800  0.52954400  1
  O  O5  1  0.45087700  0.40172100  0.64312800  1
  O  O6  1  0.39328800  0.72508400  0.89432000  1
  O  O7  1  0.90954700  0.77338500  0.87613200  1
  O  O8  1  0.36032800  0.07748900  0.03001500  1
  O  O9  1  0.45594500  0.62294900  0.71786500  1
  O  O10  1  0.39328800  0.77491600  0.39432000  1
  O  O11  1  0.40346900  0.40119300  0.15389100  1
  O  O12  1  0.89328800  0.77491600  0.60568000  1
  O  O13  1  0.58240700  0.76731100  0.78354700  1
  O  O14  1  0.99305500  0.75219300  0.49716200  1
  O  O15  1  0.95087700  0.40172100  0.35687200  1
  O  O16  1  0.09653100  0.90119300  0.65389100  1
  O  O17  1  0.95594500  0.62294900  0.28213500  1
  O  O18  1  0.97396700  0.45004900  0.11039400  1
  O  O19  1  0.45087700  0.09827900  0.14312800  1
  O  O20  1  0.52592000  0.94993900  0.10776600  1
  O  O21  1  0.88101300  0.92502200  0.52954400  1
  O  O22  1  0.58240700  0.73268900  0.28354700  1
  O  O23  1  0.47396700  0.04995100  0.38960600  1
  O  O24  1  0.47408000  0.05006100  0.89223400  1
  O  O25  1  0.95087700  0.09827900  0.85687200  1
  O  O26  1  0.99305500  0.74780700  0.99716200  1
  O  O27  1  0.00694500  0.25219300  0.00283800  1
  O  O28  1  0.63967200  0.57748900  0.46998500  1
  O  O29  1  0.59045300  0.22661500  0.87613200  1
  O  O30  1  0.13967200  0.57748900  0.53001500  1
  O  O31  1  0.38101300  0.92502200  0.47045600  1
  O  O32  1  0.00694500  0.24780700  0.50283800  1
  O  O33  1  0.97408000  0.44993900  0.60776600  1
  O  O34  1  0.41759300  0.23268900  0.21645300  1
  O  O35  1  0.53796500  0.04084500  0.27297400  1
  O  O36  1  0.50694500  0.25219300  0.99716200  1
  O  O37  1  0.52592000  0.55006100  0.60776600  1
  O  O38  1  0.97408000  0.05006100  0.10776600  1
  O  O39  1  0.54912300  0.59827900  0.35687200  1
  O  O40  1  0.54912300  0.90172100  0.85687200  1
  O  O41  1  0.90954700  0.72661500  0.37613200  1
  O  O42  1  0.10671200  0.22508400  0.39432000  1
  O  O43  1  0.97396700  0.04995100  0.61039400  1
  O  O44  1  0.54405500  0.12294900  0.78213500  1
  O  O45  1  0.11898700  0.07497800  0.47045600  1
  O  O46  1  0.04405500  0.12294900  0.21786500  1
  O  O47  1  0.95594500  0.87705100  0.78213500  1
  O  O48  1  0.09653100  0.59880700  0.15389100  1
  O  O49  1  0.04912300  0.59827900  0.64312800  1
  O  O50  1  0.02603300  0.95004900  0.38960600  1
  O  O51  1  0.04405500  0.37705100  0.71786500  1
  O  O52  1  0.52603300  0.54995100  0.11039400  1
  O  O53  1  0.13967200  0.92251100  0.03001500  1
  O  O54  1  0.96203500  0.54084500  0.77297400  1
  O  O55  1  0.40954700  0.72661500  0.62386800  1
  O  O56  1  0.59653100  0.59880700  0.84610900  1
  O  O57  1  0.47396700  0.45004900  0.88960600  1
  O  O58  1  0.90346900  0.09880700  0.34610900  1
  O  O59  1  0.08240700  0.76731100  0.21645300  1
  O  O60  1  0.60671200  0.22508400  0.60568000  1
  O  O61  1  0.90346900  0.40119300  0.84610900  1
  O  O62  1  0.09045300  0.27338500  0.62386800  1
  O  O63  1  0.59045300  0.27338500  0.37613200  1
  O  O64  1  0.63967200  0.92251100  0.96998500  1
  O  O65  1  0.52603300  0.95004900  0.61039400  1
  O  O66  1  0.91759300  0.23268900  0.78354700  1
  O  O67  1  0.40954700  0.77338500  0.12386800  1
  O  O68  1  0.88101300  0.57497800  0.02954400  1
  O  O69  1  0.10671200  0.27491600  0.89432000  1
  O  O70  1  0.61898700  0.42502200  0.02954400  1
  O  O71  1  0.41759300  0.26731100  0.71645300  1
  O  O72  1  0.02592000  0.94993900  0.89223400  1
  O  O73  1  0.89328800  0.72508400  0.10568000  1
  O  O74  1  0.46203500  0.95915500  0.72702600  1
  O  O75  1  0.36032800  0.42251100  0.53001500  1
  O  O76  1  0.08240700  0.73268900  0.71645300  1
  O  O77  1  0.60671200  0.27491600  0.10568000  1
  O  O78  1  0.46203500  0.54084500  0.22702600  1
  O  O79  1  0.50694500  0.24780700  0.49716200  1
  O  O80  1  0.86032800  0.07748900  0.96998500  1
  O  O81  1  0.03796500  0.04084500  0.72702600  1
  O  O82  1  0.96203500  0.95915500  0.27297400  1
  O  O83  1  0.91759300  0.26731100  0.28354700  1
  O  O84  1  0.49305500  0.75219300  0.50283800  1
  O  O85  1  0.49305500  0.74780700  0.00283800  1
  O  O86  1  0.38101300  0.57497800  0.97045600  1
  O  O87  1  0.02592000  0.55006100  0.39223400  1
  O  O88  1  0.03796500  0.45915500  0.22702600  1
  O  O89  1  0.86032800  0.42251100  0.46998500  1
  O  O90  1  0.54405500  0.37705100  0.28213500  1
  O  O91  1  0.04912300  0.90172100  0.14312800  1
  O  O92  1  0.02603300  0.54995100  0.88960600  1
  O  O93  1  0.11898700  0.42502200  0.97045600  1
  O  O94  1  0.59653100  0.90119300  0.34610900  1
  O  O95  1  0.45594500  0.87705100  0.21786500  1
loop_
_geom_bond_atom_site_label_1
_geom_bond_atom_site_label_2
_geom_bond_distance
_geom_bond_site_symmetry_2
Bi0 O61 2.192114 1_455
Bi0 O69 2.213220 1_555
Bi0 O66 2.234657 1_455
Bi0 O51 2.546504 1_555
Bi0 O71 2.739467 1_555
Bi1 O6 2.234289 1_555
Bi1 O86 2.326270 1_555
Bi1 O85 2.335555 1_556
Bi1 O26 2.540512 1_555
Bi1 O56 2.547714 1_555
Bi1 O7 2.663118 1_555
Bi1 O68 2.757617 1_556
Bi1 O92 2.830543 1_655
Bi2 O77 2.165489 1_555
Bi2 O27 2.218998 1_655
Bi2 O36 2.324318 1_554
Bi2 O0 2.552072 1_655
Bi2 O38 2.681797 1_555
Bi2 O80 2.687608 1_554
Bi2 O8 2.779957 1_555
Bi3 O12 2.165489 1_555
Bi3 O84 2.218998 1_555
Bi3 O14 2.324318 1_555
Bi3 O55 2.552072 1_555
Bi3 O37 2.681797 1_555
Bi3 O28 2.687608 1_555
Bi3 O30 2.779957 1_655
Bi4 O11 2.192114 1_555
Bi4 O77 2.213220 1_555
Bi4 O34 2.234657 1_555
Bi4 O90 2.546504 1_555
Bi4 O83 2.739467 1_555
Bi5 O77 2.234289 1_555
Bi5 O70 2.326270 1_555
Bi5 O36 2.335555 1_554
Bi5 O27 2.540512 1_555
Bi5 O11 2.547714 1_555
Bi5 O0 2.663118 1_555
Bi5 O93 2.757617 1_554
Bi5 O18 2.830543 1_455
Bi6 O87 2.296482 1_555
Bi6 O2 2.296482 1_555
Bi6 O39 2.458573 1_555
Bi6 O15 2.458573 1_455
Bi6 O88 2.575857 1_555
Bi6 O78 2.575857 1_555
Bi6 O90 2.710355 1_555
Bi6 O17 2.710355 1_455
Bi7 O38 2.296482 1_555
Bi7 O20 2.296482 1_545
Bi7 O91 2.458573 1_645
Bi7 O19 2.458573 1_555
Bi7 O82 2.575857 1_545
Bi7 O35 2.575857 1_555
Bi7 O95 2.710355 1_545
Bi7 O46 2.710355 1_655
Bi8 O12 2.234293 1_455
Bi8 O21 2.326274 1_455
Bi8 O14 2.335557 1_455
Bi8 O84 2.540509 1_555
Bi8 O16 2.547715 1_555
Bi8 O55 2.663116 1_555
Bi8 O31 2.757615 1_555
Bi8 O65 2.830539 1_555
Bi9 O6 2.165489 1_555
Bi9 O26 2.218998 1_455
Bi9 O85 2.324318 1_556
Bi9 O7 2.552072 1_455
Bi9 O72 2.681797 1_555
Bi9 O53 2.687608 1_556
Bi9 O64 2.779957 1_555
Bi10 O10 2.165489 1_555
Bi10 O14 2.218998 1_455
Bi10 O84 2.324318 1_555
Bi10 O41 2.552072 1_455
Bi10 O87 2.681797 1_555
Bi10 O30 2.687608 1_555
Bi10 O28 2.779957 1_555
Bi11 O73 2.234293 1_455
Bi11 O68 2.326274 1_455
Bi11 O26 2.335557 1_454
Bi11 O85 2.540509 1_555
Bi11 O48 2.547715 1_555
Bi11 O67 2.663116 1_555
Bi11 O86 2.757615 1_554
Bi11 O52 2.830539 1_555
Bi12 O73 2.165489 1_555
Bi12 O85 2.218998 1_555
Bi12 O26 2.324318 1_554
Bi12 O67 2.552072 1_555
Bi12 O20 2.681797 1_555
Bi12 O64 2.687608 1_554
Bi12 O53 2.779957 1_655
Bi13 O69 2.165489 1_555
Bi13 O36 2.218998 1_555
Bi13 O27 2.324318 1_556
Bi13 O29 2.552072 1_555
Bi13 O24 2.681797 1_555
Bi13 O8 2.687608 1_556
Bi13 O80 2.779957 1_455
Bi14 O60 2.234289 1_555
Bi14 O4 2.326270 1_555
Bi14 O79 2.335555 1_555
Bi14 O32 2.540512 1_555
Bi14 O3 2.547714 1_555
Bi14 O62 2.663118 1_555
Bi14 O45 2.757617 1_555
Bi14 O43 2.830543 1_455
Bi15 O16 2.192114 1_655
Bi15 O12 2.213220 1_555
Bi15 O76 2.234657 1_655
Bi15 O47 2.546504 1_555
Bi15 O13 2.739467 1_555
Bi16 O24 2.296482 1_555
Bi16 O72 2.296482 1_545
Bi16 O25 2.458573 1_455
Bi16 O40 2.458573 1_545
Bi16 O81 2.575857 1_555
Bi16 O74 2.575857 1_545
Bi16 O47 2.710355 1_445
Bi16 O44 2.710355 1_555
Bi17 O56 2.192114 1_555
Bi17 O6 2.213220 1_555
Bi17 O13 2.234657 1_555
Bi17 O9 2.546504 1_555
Bi17 O76 2.739467 1_555
Bi18 O10 2.234289 1_555
Bi18 O31 2.326270 1_555
Bi18 O84 2.335555 1_555
Bi18 O14 2.540512 1_555
Bi18 O94 2.547714 1_555
Bi18 O41 2.663118 1_555
Bi18 O21 2.757617 1_555
Bi18 O50 2.830543 1_655
Bi19 O42 2.165489 1_555
Bi19 O79 2.218998 1_555
Bi19 O32 2.324318 1_555
Bi19 O63 2.552072 1_555
Bi19 O2 2.681797 1_555
Bi19 O75 2.687608 1_555
Bi19 O89 2.779957 1_455
Bi20 O94 2.192114 1_555
Bi20 O10 2.213220 1_555
Bi20 O22 2.234657 1_555
Bi20 O95 2.546504 1_555
Bi20 O59 2.739467 1_555
Bi21 O60 2.165489 1_555
Bi21 O32 2.218998 1_655
Bi21 O79 2.324318 1_555
Bi21 O62 2.552072 1_655
Bi21 O33 2.681797 1_555
Bi21 O89 2.687608 1_555
Bi21 O75 2.779957 1_555
Bi22 O58 2.192114 1_455
Bi22 O42 2.213220 1_555
Bi22 O83 2.234657 1_455
Bi22 O46 2.546504 1_555
Bi22 O34 2.739467 1_555
Bi23 O48 2.192114 1_655
Bi23 O73 2.213220 1_555
Bi23 O59 2.234657 1_655
Bi23 O17 2.546504 1_555
Bi23 O22 2.739467 1_555
Bi24 O37 2.296482 1_555
Bi24 O33 2.296482 1_555
Bi24 O49 2.458573 1_655
Bi24 O5 2.458573 1_555
Bi24 O54 2.575857 1_555
Bi24 O1 2.575857 1_555
Bi24 O51 2.710355 1_655
Bi24 O9 2.710355 1_555
Bi25 O3 2.192114 1_555
Bi25 O60 2.213220 1_555
Bi25 O71 2.234657 1_555
Bi25 O44 2.546504 1_555
Bi25 O66 2.739467 1_555
Bi26 O69 2.234289 1_655
Bi26 O93 2.326270 1_655
Bi26 O27 2.335555 1_656
Bi26 O36 2.540512 1_555
Bi26 O61 2.547714 1_555
Bi26 O29 2.663118 1_555
Bi26 O70 2.757617 1_556
Bi26 O57 2.830543 1_555
Bi27 O42 2.234289 1_655
Bi27 O45 2.326270 1_655
Bi27 O32 2.335555 1_655
Bi27 O79 2.540512 1_555
Bi27 O58 2.547714 1_555
Bi27 O63 2.663118 1_555
Bi27 O4 2.757617 1_555
Bi27 O23 2.830543 1_555
Mo0 O89 1.782323 1_555
Mo0 O28 1.782323 1_555
Mo0 O87 1.868227 1_655
Mo0 O2 1.868227 1_555
Mo1 O78 1.782174 1_555
Mo1 O88 1.782174 1_555
Mo1 O48 1.903994 1_555
Mo1 O11 1.903994 1_555
Mo1 O52 2.349125 1_555
Mo1 O18 2.349125 1_455
Mo2 O74 1.782174 1_545
Mo2 O81 1.782174 1_555
Mo2 O16 1.903994 1_545
Mo2 O3 1.903994 1_555
Mo2 O65 2.349125 1_545
Mo2 O43 2.349125 1_455
Mo3 O1 1.782174 1_555
Mo3 O54 1.782174 1_555
Mo3 O61 1.903994 1_555
Mo3 O56 1.903994 1_555
Mo3 O92 2.349125 1_655
Mo3 O57 2.349125 1_555
Mo4 O80 1.782323 1_555
Mo4 O64 1.782323 1_545
Mo4 O24 1.868227 1_555
Mo4 O72 1.868227 1_645
Mo5 O35 1.782174 1_555
Mo5 O82 1.782174 1_545
Mo5 O94 1.903994 1_545
Mo5 O58 1.903994 1_555
Mo5 O50 2.349125 1_645
Mo5 O23 2.349125 1_555
Mo6 O75 1.782323 1_555
Mo6 O30 1.782323 1_555
Mo6 O37 1.868227 1_555
Mo6 O33 1.868227 1_455
Mo7 O8 1.782323 1_555
Mo7 O53 1.782323 1_545
Mo7 O38 1.868227 1_455
Mo7 O20 1.868227 1_545
As0 O21 1.733856 1_545
As0 O4 1.733856 1_555
As0 O65 1.740656 1_545
As0 O43 1.740656 1_555
As1 O31 1.733856 1_545
As1 O45 1.733856 1_555
As1 O50 1.740656 1_545
As1 O23 1.740656 1_555
As2 O86 1.733856 1_555
As2 O93 1.733856 1_555
As2 O92 1.740656 1_555
As2 O57 1.740656 1_555
As3 O9 1.727008 1_555
As3 O55 1.730924 1_555
As3 O49 1.735021 1_555
As3 O76 1.750374 1_555
As4 O51 1.727008 1_555
As4 O62 1.730924 1_555
As4 O5 1.735021 1_555
As4 O71 1.750374 1_555
As5 O47 1.727008 1_555
As5 O7 1.730924 1_555
As5 O40 1.735021 1_555
As5 O13 1.750374 1_555
As6 O46 1.727008 1_555
As6 O0 1.730924 1_555
As6 O19 1.735021 1_555
As6 O34 1.750374 1_555
As7 O17 1.727008 1_555
As7 O41 1.730924 1_555
As7 O39 1.735021 1_555
As7 O22 1.750374 1_555
As8 O68 1.733856 1_555
As8 O70 1.733856 1_555
As8 O52 1.740656 1_555
As8 O18 1.740656 1_555
As9 O95 1.727008 1_555
As9 O67 1.730924 1_555
As9 O91 1.735021 1_555
As9 O59 1.750374 1_555
As10 O44 1.727008 1_555
As10 O29 1.730924 1_555
As10 O25 1.735021 1_555
As10 O66 1.750374 1_555
As11 O90 1.727008 1_555
As11 O63 1.730924 1_555
As11 O15 1.735021 1_555
As11 O83 1.750374 1_555
