# generated using pymatgen
data_Yb3Ni7B2
_symmetry_space_group_name_H-M   'P 1'
_cell_length_a   5.01116099
_cell_length_b   5.01116099
_cell_length_c   14.01887800
_cell_angle_alpha   90.00000000
_cell_angle_beta   90.00000000
_cell_angle_gamma   120.00001301
_symmetry_Int_Tables_number   1
_chemical_formula_structural   Yb3Ni7B2
_chemical_formula_sum   'Yb6 Ni14 B4'
_cell_volume   304.87410662
_cell_formula_units_Z   2
loop_
 _symmetry_equiv_pos_site_id
 _symmetry_equiv_pos_as_xyz
  1  'x, y, z'
loop_
 _atom_site_type_symbol
 _atom_site_label
 _atom_site_symmetry_multiplicity
 _atom_site_fract_x
 _atom_site_fract_y
 _atom_site_fract_z
 _atom_site_occupancy
  Yb  Yb0  1  0.66666700  0.33333300  0.53441500  1
  Yb  Yb1  1  0.33333300  0.66666700  0.46558500  1
  Yb  Yb2  1  0.33333300  0.66666700  0.03441500  1
  Yb  Yb3  1  0.66666700  0.33333300  0.75000000  1
  Yb  Yb4  1  0.66666700  0.33333300  0.96558500  1
  Yb  Yb5  1  0.33333300  0.66666700  0.25000000  1
  Ni  Ni0  1  0.16553100  0.33106200  0.64995000  1
  Ni  Ni1  1  0.33106200  0.16553100  0.35005000  1
  Ni  Ni2  1  0.33106200  0.16553100  0.14995000  1
  Ni  Ni3  1  0.16553100  0.83446900  0.85005000  1
  Ni  Ni4  1  0.83446900  0.66893800  0.35005000  1
  Ni  Ni5  1  0.83446900  0.16553100  0.14995000  1
  Ni  Ni6  1  0.66893800  0.83446900  0.64995000  1
  Ni  Ni7  1  0.66893800  0.83446900  0.85005000  1
  Ni  Ni8  1  0.16553100  0.83446900  0.64995000  1
  Ni  Ni9  1  0.83446900  0.66893800  0.14995000  1
  Ni  Ni10  1  0.00000000  0.00000000  0.00000000  1
  Ni  Ni11  1  0.16553100  0.33106200  0.85005000  1
  Ni  Ni12  1  0.83446900  0.16553100  0.35005000  1
  Ni  Ni13  1  0.00000000  0.00000000  0.50000000  1
  B  B0  1  0.66666700  0.33333300  0.25000000  1
  B  B1  1  0.00000000  0.00000000  0.75000000  1
  B  B2  1  0.33333300  0.66666700  0.75000000  1
  B  B3  1  0.00000000  0.00000000  0.25000000  1
loop_
_geom_bond_atom_site_label_1
_geom_bond_atom_site_label_2
_geom_bond_distance
_geom_bond_site_symmetry_2
Yb0 Yb3 3.022260 1_555
Yb1 Yb5 3.022260 1_555
Yb2 Yb5 3.022260 1_555
Yb3 Yb4 3.022260 1_555
Ni0 Ni13 2.546208 1_555
Ni0 Yb3 2.871458 1_455
Ni0 Yb3 2.871463 1_555
Ni0 Yb1 2.966711 1_555
Ni0 Yb0 2.983513 1_455
Ni0 Yb0 2.983518 1_555
Ni1 Ni13 2.546208 1_555
Ni1 Yb5 2.871458 1_545
Ni1 Yb5 2.871463 1_555
Ni1 Yb0 2.966711 1_555
Ni1 Yb1 2.983513 1_545
Ni1 Yb1 2.983518 1_555
Ni2 Yb5 2.871458 1_545
Ni2 Yb5 2.871463 1_555
Ni2 Yb4 2.966711 1_554
Ni2 Yb2 2.983513 1_545
Ni2 Yb2 2.983518 1_555
Ni3 Yb3 2.871460 1_455
Ni3 Yb3 2.871460 1_565
Ni3 Yb2 2.966709 1_556
Ni3 Yb4 2.983515 1_455
Ni3 Yb4 2.983515 1_565
Ni4 Yb5 2.871458 1_655
Ni4 Yb5 2.871463 1_555
Ni4 Yb0 2.966711 1_555
Ni4 Yb1 2.983513 1_655
Ni4 Yb1 2.983518 1_555
Ni5 Yb5 2.871460 1_545
Ni5 Yb5 2.871460 1_655
Ni5 Yb4 2.966709 1_554
Ni5 Yb2 2.983515 1_545
Ni5 Yb2 2.983515 1_655
Ni6 Yb3 2.871458 1_565
Ni6 Yb3 2.871463 1_555
Ni6 Yb1 2.966711 1_555
Ni6 Yb0 2.983513 1_565
Ni6 Yb0 2.983518 1_555
Ni7 Yb3 2.871458 1_565
Ni7 Yb3 2.871463 1_555
Ni7 Yb2 2.966711 1_556
Ni7 Yb4 2.983513 1_565
Ni7 Yb4 2.983518 1_555
Ni8 Yb3 2.871460 1_455
Ni8 Yb3 2.871460 1_565
Ni8 Yb1 2.966709 1_555
Ni8 Yb0 2.983515 1_565
Ni8 Yb0 2.983515 1_455
Ni9 Yb5 2.871458 1_655
Ni9 Yb5 2.871463 1_555
Ni9 Yb4 2.966711 1_554
Ni9 Yb2 2.983513 1_655
Ni9 Yb2 2.983518 1_555
Ni10 Ni9 2.546208 1_445
Ni10 Ni7 2.546208 1_444
Ni10 Ni2 2.546208 1_555
Ni10 Ni11 2.546208 1_554
Ni10 Ni5 2.546208 1_455
Ni10 Ni3 2.546208 1_544
Ni10 Yb2 2.933143 1_545
Ni10 Yb4 2.933143 1_454
Ni10 Yb4 2.933147 1_554
Ni10 Yb4 2.933147 1_444
Ni10 Yb2 2.933147 1_555
Ni10 Yb2 2.933147 1_445
Ni11 Yb3 2.871458 1_455
Ni11 Yb3 2.871463 1_555
Ni11 Yb2 2.966711 1_556
Ni11 Yb4 2.983513 1_455
Ni11 Yb4 2.983518 1_555
Ni12 Ni13 2.546208 1_655
Ni12 Yb5 2.871460 1_545
Ni12 Yb5 2.871460 1_655
Ni12 Yb0 2.966709 1_555
Ni12 Yb1 2.983515 1_545
Ni12 Yb1 2.983515 1_655
Ni13 Ni4 2.546208 1_445
Ni13 Ni6 2.546208 1_445
Ni13 Ni8 2.546208 1_545
Ni13 Yb1 2.933143 1_545
Ni13 Yb0 2.933143 1_455
Ni13 Yb1 2.933147 1_445
Ni13 Yb0 2.933147 1_445
Ni13 Yb1 2.933147 1_555
Ni13 Yb0 2.933147 1_555
B0 Ni12 2.022006 1_555
B0 Ni5 2.022006 1_555
B0 Ni1 2.022009 1_555
B0 Ni4 2.022009 1_555
B0 Ni9 2.022009 1_555
B0 Ni2 2.022009 1_555
B0 Yb5 2.893192 1_545
B0 Yb5 2.893192 1_655
B0 Yb5 2.893201 1_555
B1 Ni11 2.007854 1_555
B1 Ni6 2.007854 1_445
B1 Ni0 2.007854 1_555
B1 Ni7 2.007854 1_445
B1 Ni3 2.007854 1_545
B1 Ni8 2.007854 1_545
B1 Yb3 2.893192 1_455
B1 Yb3 2.893196 1_445
B1 Yb3 2.893196 1_555
B2 Ni8 2.022006 1_555
B2 Ni3 2.022006 1_555
B2 Ni11 2.022009 1_555
B2 Ni0 2.022009 1_555
B2 Ni7 2.022009 1_555
B2 Ni6 2.022009 1_555
B2 Yb3 2.893192 1_455
B2 Yb3 2.893192 1_565
B2 Yb3 2.893201 1_555
B3 Ni4 2.007854 1_445
B3 Ni9 2.007854 1_445
B3 Ni1 2.007854 1_555
B3 Ni2 2.007854 1_555
B3 Ni12 2.007854 1_455
B3 Ni5 2.007854 1_455
B3 Yb5 2.893192 1_545
B3 Yb5 2.893196 1_555
B3 Yb5 2.893196 1_445
