# generated using pymatgen
data_Rb2(TcSe2)3
_symmetry_space_group_name_H-M   'P 1'
_cell_length_a   10.23375806
_cell_length_b   10.23375806
_cell_length_c   12.54822085
_cell_angle_alpha   88.85643389
_cell_angle_beta   88.85643389
_cell_angle_gamma   59.76491044
_symmetry_Int_Tables_number   1
_chemical_formula_structural   Rb2(TcSe2)3
_chemical_formula_sum   'Rb8 Tc12 Se24'
_cell_volume   1135.10047480
_cell_formula_units_Z   4
loop_
 _symmetry_equiv_pos_site_id
 _symmetry_equiv_pos_as_xyz
  1  'x, y, z'
loop_
 _atom_site_type_symbol
 _atom_site_label
 _atom_site_symmetry_multiplicity
 _atom_site_fract_x
 _atom_site_fract_y
 _atom_site_fract_z
 _atom_site_occupancy
  Rb  Rb0  1  0.61974998  0.38025002  0.25000000  1
  Rb  Rb1  1  0.38025002  0.61974998  0.75000000  1
  Rb  Rb2  1  0.22043695  0.77956305  0.25000000  1
  Rb  Rb3  1  0.77956305  0.22043695  0.75000000  1
  Rb  Rb4  1  0.36302501  0.86120453  0.98068516  1
  Rb  Rb5  1  0.13879547  0.63697499  0.51931484  1
  Rb  Rb6  1  0.63697499  0.13879547  0.01931484  1
  Rb  Rb7  1  0.86120453  0.36302501  0.48068516  1
  Tc  Tc0  1  0.68068008  0.99676870  0.47716950  1
  Tc  Tc1  1  0.00323130  0.31931992  0.02283050  1
  Tc  Tc2  1  0.31931992  0.00323130  0.52283050  1
  Tc  Tc3  1  0.99676870  0.68068008  0.97716950  1
  Tc  Tc4  1  0.53525527  0.88558627  0.37781852  1
  Tc  Tc5  1  0.11441373  0.46474473  0.12218148  1
  Tc  Tc6  1  0.46474473  0.11441373  0.62218148  1
  Tc  Tc7  1  0.88558627  0.53525527  0.87781852  1
  Tc  Tc8  1  0.40088545  0.17603836  0.41763067  1
  Tc  Tc9  1  0.82396164  0.59911455  0.08236933  1
  Tc  Tc10  1  0.59911455  0.82396164  0.58236933  1
  Tc  Tc11  1  0.17603836  0.40088545  0.91763067  1
  Se  Se0  1  0.73691722  0.93320560  0.67005977  1
  Se  Se1  1  0.06679440  0.26308278  0.82994023  1
  Se  Se2  1  0.26308278  0.06679440  0.32994023  1
  Se  Se3  1  0.93320560  0.73691722  0.17005977  1
  Se  Se4  1  0.28022959  0.20024452  0.06247508  1
  Se  Se5  1  0.79975548  0.71977041  0.43752492  1
  Se  Se6  1  0.71977041  0.79975548  0.93752492  1
  Se  Se7  1  0.20024452  0.28022959  0.56247508  1
  Se  Se8  1  0.38610385  0.94870851  0.71582344  1
  Se  Se9  1  0.05129149  0.61389615  0.78417656  1
  Se  Se10  1  0.61389615  0.05129149  0.28417656  1
  Se  Se11  1  0.94870851  0.38610385  0.21582344  1
  Se  Se12  1  0.45648994  0.72160610  0.48243056  1
  Se  Se13  1  0.27839390  0.54351006  0.01756944  1
  Se  Se14  1  0.54351006  0.27839390  0.51756944  1
  Se  Se15  1  0.72160610  0.45648994  0.98243056  1
  Se  Se16  1  0.00369692  0.92827476  0.92252099  1
  Se  Se17  1  0.07172524  0.99630308  0.57747901  1
  Se  Se18  1  0.99630308  0.07172524  0.07747901  1
  Se  Se19  1  0.92827476  0.00369692  0.42252099  1
  Se  Se20  1  0.57351347  0.73047033  0.20135124  1
  Se  Se21  1  0.26952967  0.42648653  0.29864876  1
  Se  Se22  1  0.42648653  0.26952967  0.79864876  1
  Se  Se23  1  0.73047033  0.57351347  0.70135124  1
loop_
_geom_bond_atom_site_label_1
_geom_bond_atom_site_label_2
_geom_bond_distance
_geom_bond_site_symmetry_2
Rb0 Se21 3.414437 1_555
Rb0 Se20 3.414437 1_555
Rb0 Se11 3.415430 1_555
Rb0 Se10 3.415430 1_555
Rb0 Se15 3.680084 1_554
Rb0 Se14 3.680084 1_555
Rb1 Se23 3.414437 1_555
Rb1 Se22 3.414437 1_555
Rb1 Se8 3.415430 1_555
Rb1 Se9 3.415430 1_555
Rb1 Se12 3.680084 1_555
Rb1 Se13 3.680084 1_556
Rb2 Se3 3.356222 1_455
Rb2 Se2 3.356222 1_565
Rb2 Se21 3.431760 1_555
Rb2 Se20 3.431760 1_555
Rb2 Se18 3.452593 1_465
Rb2 Se19 3.452593 1_465
Rb2 Se12 3.669216 1_555
Rb2 Se13 3.669216 1_555
Rb3 Se0 3.356222 1_545
Rb3 Se1 3.356222 1_655
Rb3 Se22 3.431760 1_555
Rb3 Se23 3.431760 1_555
Rb3 Se17 3.452593 1_645
Rb3 Se16 3.452593 1_645
Rb3 Se15 3.669216 1_555
Rb3 Se14 3.669216 1_555
Rb4 Se4 3.310052 1_566
Rb4 Se20 3.359322 1_556
Rb4 Se6 3.411740 1_555
Rb4 Se8 3.459264 1_555
Rb4 Se18 3.461363 1_466
Rb4 Se16 3.474389 1_555
Rb4 Se13 3.780802 1_556
Rb4 Se15 3.913283 1_555
Rb5 Se5 3.310052 1_455
Rb5 Se21 3.359322 1_555
Rb5 Se7 3.411740 1_555
Rb5 Se9 3.459264 1_555
Rb5 Se19 3.461363 1_465
Rb5 Se17 3.474389 1_555
Rb5 Se12 3.780802 1_555
Rb5 Se14 3.913283 1_555
Rb6 Se6 3.310052 1_544
Rb6 Se22 3.359322 1_554
Rb6 Se4 3.411740 1_555
Rb6 Se10 3.459264 1_555
Rb6 Se16 3.461363 1_644
Rb6 Se18 3.474389 1_555
Rb6 Se15 3.780802 1_554
Rb6 Se13 3.913283 1_555
Rb7 Se7 3.310052 1_655
Rb7 Se23 3.359322 1_555
Rb7 Se5 3.411740 1_555
Rb7 Se11 3.459264 1_555
Rb7 Se17 3.461363 1_645
Rb7 Se19 3.474389 1_555
Rb7 Se14 3.780802 1_555
Rb7 Se12 3.913283 1_555
Se0 Tc10 2.479573 1_555
Se0 Tc0 2.495710 1_555
Se0 Tc6 2.525560 1_565
Se1 Tc11 2.479573 1_555
Se1 Tc1 2.495710 1_556
Se1 Tc7 2.525560 1_455
Se2 Tc8 2.479573 1_555
Se2 Tc2 2.495710 1_555
Se2 Tc4 2.525560 1_545
Se3 Tc9 2.479573 1_555
Se3 Tc3 2.495710 1_554
Se3 Tc5 2.525560 1_655
Se4 Tc5 2.484373 1_555
Se4 Tc1 2.514228 1_555
Se4 Tc11 2.525853 1_554
Se5 Tc4 2.484373 1_555
Se5 Tc0 2.514228 1_555
Se5 Tc10 2.525853 1_555
Se6 Tc7 2.484373 1_555
Se6 Tc3 2.514228 1_555
Se6 Tc9 2.525853 1_556
Se7 Tc6 2.484373 1_555
Se7 Tc2 2.514228 1_555
Se7 Tc8 2.525853 1_555
Se8 Tc6 2.482189 1_565
Se8 Tc2 2.504243 1_565
Se8 Tc10 2.514561 1_555
Se9 Tc7 2.482189 1_455
Se9 Tc3 2.504243 1_455
Se9 Tc11 2.514561 1_555
Se10 Tc4 2.482189 1_545
Se10 Tc0 2.504243 1_545
Se10 Tc8 2.514561 1_555
Se11 Tc5 2.482189 1_655
Se11 Tc1 2.504243 1_655
Se11 Tc9 2.514561 1_555
Se12 Tc4 2.534002 1_555
Se12 Tc10 2.542734 1_555
Se12 Tc2 2.547428 1_565
Se13 Tc5 2.534002 1_555
Se13 Tc11 2.542734 1_554
Se13 Tc3 2.547428 1_454
Se14 Tc6 2.534002 1_555
Se14 Tc8 2.542734 1_555
Se14 Tc0 2.547428 1_545
Se15 Tc7 2.534002 1_555
Se15 Tc9 2.542734 1_556
Se15 Tc1 2.547428 1_656
Se16 Se18 2.436787 1_466
Se16 Tc3 2.646727 1_455
Se17 Se19 2.436787 1_465
Se17 Tc2 2.646727 1_565
Se18 Tc1 2.646727 1_655
Se19 Tc0 2.646727 1_545
Se20 Tc4 2.656372 1_555
Se20 Tc9 2.657585 1_555
Se21 Tc5 2.656372 1_555
Se21 Tc8 2.657585 1_555
Se22 Tc6 2.656372 1_555
Se22 Tc11 2.657585 1_555
Se23 Tc7 2.656372 1_555
Se23 Tc10 2.657585 1_555
