# generated using pymatgen
data_KMn6P7O24
_symmetry_space_group_name_H-M   'P 1'
_cell_length_a   27.11762400
_cell_length_b   5.44373100
_cell_length_c   6.66167542
_cell_angle_alpha   72.73828947
_cell_angle_beta   90.00000000
_cell_angle_gamma   90.00000000
_symmetry_Int_Tables_number   1
_chemical_formula_structural   KMn6P7O24
_chemical_formula_sum   'K2 Mn12 P14 O48'
_cell_volume   939.11035533
_cell_formula_units_Z   2
loop_
 _symmetry_equiv_pos_site_id
 _symmetry_equiv_pos_as_xyz
  1  'x, y, z'
loop_
 _atom_site_type_symbol
 _atom_site_label
 _atom_site_symmetry_multiplicity
 _atom_site_fract_x
 _atom_site_fract_y
 _atom_site_fract_z
 _atom_site_occupancy
  K  K0  1  0.75000000  0.22618300  0.37543300  1
  K  K1  1  0.25000000  0.77381700  0.62456700  1
  Mn  Mn0  1  0.04485300  0.31280800  0.68597200  1
  Mn  Mn1  1  0.54485300  0.68719200  0.31402800  1
  Mn  Mn2  1  0.95514700  0.68719200  0.31402800  1
  Mn  Mn3  1  0.45514700  0.31280800  0.68597200  1
  Mn  Mn4  1  0.09751900  0.70670400  0.91286300  1
  Mn  Mn5  1  0.59751900  0.29329600  0.08713700  1
  Mn  Mn6  1  0.90248100  0.29329600  0.08713700  1
  Mn  Mn7  1  0.40248100  0.70670400  0.91286300  1
  Mn  Mn8  1  0.18267000  0.37863500  0.27814700  1
  Mn  Mn9  1  0.68267000  0.62136500  0.72185300  1
  Mn  Mn10  1  0.81733000  0.62136500  0.72185300  1
  Mn  Mn11  1  0.31733000  0.37863500  0.27814700  1
  P  P0  1  0.16781200  0.24790800  0.80830600  1
  P  P1  1  0.66781200  0.75209200  0.19169400  1
  P  P2  1  0.83218800  0.75209200  0.19169400  1
  P  P3  1  0.33218800  0.24790800  0.80830600  1
  P  P4  1  0.75000000  0.03955400  0.90774100  1
  P  P5  1  0.25000000  0.96044600  0.09225900  1
  P  P6  1  0.02437600  0.20767400  0.20527700  1
  P  P7  1  0.52437600  0.79232600  0.79472300  1
  P  P8  1  0.97562400  0.79232600  0.79472300  1
  P  P9  1  0.47562400  0.20767400  0.20527700  1
  P  P10  1  0.10901800  0.81686700  0.38135000  1
  P  P11  1  0.60901800  0.18313300  0.61865000  1
  P  P12  1  0.89098200  0.18313300  0.61865000  1
  P  P13  1  0.39098200  0.81686700  0.38135000  1
  O  O0  1  0.11942200  0.10770000  0.79867300  1
  O  O1  1  0.61942200  0.89230000  0.20132700  1
  O  O2  1  0.88057800  0.89230000  0.20132700  1
  O  O3  1  0.38057800  0.10770000  0.79867300  1
  O  O4  1  0.16571900  0.43490500  0.94205600  1
  O  O5  1  0.66571900  0.56509500  0.05794400  1
  O  O6  1  0.83428100  0.56509500  0.05794400  1
  O  O7  1  0.33428100  0.43490500  0.94205600  1
  O  O8  1  0.19384000  0.36212700  0.59979600  1
  O  O9  1  0.69384000  0.63787300  0.40020400  1
  O  O10  1  0.80616000  0.63787300  0.40020400  1
  O  O11  1  0.30616000  0.36212700  0.59979600  1
  O  O12  1  0.20364200  0.00394100  0.93940200  1
  O  O13  1  0.70364200  0.99605900  0.06059800  1
  O  O14  1  0.79635800  0.99605900  0.06059800  1
  O  O15  1  0.29635800  0.00394100  0.93940200  1
  O  O16  1  0.75000000  0.84893900  0.78045000  1
  O  O17  1  0.25000000  0.15106100  0.21955000  1
  O  O18  1  0.04768300  0.36920000  0.99796800  1
  O  O19  1  0.75000000  0.32357200  0.78612200  1
  O  O20  1  0.97430000  0.09001500  0.17502800  1
  O  O21  1  0.47430000  0.90998500  0.82497200  1
  O  O22  1  0.02570000  0.90998500  0.82497200  1
  O  O23  1  0.52570000  0.09001500  0.17502800  1
  O  O24  1  0.02214200  0.35450600  0.36917900  1
  O  O25  1  0.52214200  0.64549400  0.63082100  1
  O  O26  1  0.97785800  0.64549400  0.63082100  1
  O  O27  1  0.47785800  0.35450600  0.36917900  1
  O  O28  1  0.35225700  0.01470700  0.38388700  1
  O  O29  1  0.85225700  0.98529300  0.61611300  1
  O  O30  1  0.64774300  0.98529300  0.61611300  1
  O  O31  1  0.14774300  0.01470700  0.38388700  1
  O  O32  1  0.37785800  0.65531900  0.23295700  1
  O  O33  1  0.87785800  0.34468100  0.76704300  1
  O  O34  1  0.62214200  0.34468100  0.76704300  1
  O  O35  1  0.12214200  0.65531900  0.23295700  1
  O  O36  1  0.40476300  0.64228100  0.60185500  1
  O  O37  1  0.90476300  0.35771900  0.39814500  1
  O  O38  1  0.59523700  0.35771900  0.39814500  1
  O  O39  1  0.09523700  0.64228100  0.60185500  1
  O  O40  1  0.44262000  0.95204300  0.28999400  1
  O  O41  1  0.94262000  0.04795700  0.71000600  1
  O  O42  1  0.55738000  0.04795700  0.71000600  1
  O  O43  1  0.05738000  0.95204300  0.28999400  1
  O  O44  1  0.45231700  0.36920000  0.99796800  1
  O  O45  1  0.95231700  0.63080000  0.00203200  1
  O  O46  1  0.54768300  0.63080000  0.00203200  1
  O  O47  1  0.25000000  0.67642800  0.21387800  1
loop_
_geom_bond_atom_site_label_1
_geom_bond_atom_site_label_2
_geom_bond_distance
_geom_bond_site_symmetry_2
K0 O9 2.754755 1_555
K0 O10 2.754755 1_555
K0 O16 2.865081 1_545
K0 O19 2.937158 1_555
K0 O14 3.017907 1_545
K0 O13 3.017907 1_545
K0 O29 3.275950 1_545
K0 O30 3.275950 1_545
K0 O6 3.284025 1_555
K0 O5 3.284025 1_555
K1 O8 2.754755 1_555
K1 O11 2.754755 1_555
K1 O17 2.865081 1_565
K1 O47 2.937158 1_555
K1 O15 3.017907 1_565
K1 O12 3.017907 1_565
K1 O28 3.275950 1_565
K1 O31 3.275950 1_565
K1 O7 3.284025 1_555
K1 O4 3.284025 1_555
Mn0 O24 2.144806 1_555
Mn0 O22 2.175030 1_545
Mn0 O18 2.190571 1_555
Mn0 O39 2.191156 1_555
Mn0 O0 2.324195 1_555
Mn0 O26 2.514075 1_455
Mn1 O25 2.144806 1_555
Mn1 O23 2.175030 1_565
Mn1 O46 2.190571 1_555
Mn1 O38 2.191156 1_555
Mn1 O1 2.324195 1_555
Mn1 O27 2.514075 1_555
Mn2 O26 2.144806 1_555
Mn2 O20 2.175030 1_565
Mn2 O45 2.190571 1_555
Mn2 O37 2.191156 1_555
Mn2 O2 2.324195 1_555
Mn2 O24 2.514075 1_655
Mn3 O27 2.144806 1_555
Mn3 O21 2.175030 1_545
Mn3 O44 2.190571 1_555
Mn3 O36 2.191156 1_555
Mn3 O3 2.324195 1_555
Mn3 O25 2.514075 1_555
Mn4 O0 2.170501 1_565
Mn4 O35 2.171881 1_556
Mn4 O39 2.202393 1_555
Mn4 O18 2.214773 1_555
Mn4 O22 2.230664 1_555
Mn4 O4 2.340220 1_555
Mn5 O1 2.170501 1_545
Mn5 O34 2.171881 1_554
Mn5 O38 2.202393 1_555
Mn5 O46 2.214773 1_555
Mn5 O23 2.230664 1_555
Mn5 O5 2.340220 1_555
Mn6 O2 2.170501 1_545
Mn6 O33 2.171881 1_554
Mn6 O37 2.202393 1_555
Mn6 O45 2.214773 1_555
Mn6 O20 2.230664 1_555
Mn6 O6 2.340220 1_555
Mn7 O3 2.170501 1_565
Mn7 O32 2.171881 1_556
Mn7 O36 2.202393 1_555
Mn7 O44 2.214773 1_555
Mn7 O21 2.230664 1_555
Mn7 O7 2.340220 1_555
Mn8 O31 2.118942 1_555
Mn8 O8 2.139347 1_555
Mn8 O35 2.187295 1_555
Mn8 O4 2.216058 1_554
Mn8 O17 2.303862 1_555
Mn8 O47 2.394375 1_555
Mn9 O30 2.118942 1_555
Mn9 O9 2.139347 1_555
Mn9 O34 2.187295 1_555
Mn9 O5 2.216058 1_556
Mn9 O16 2.303862 1_555
Mn9 O19 2.394375 1_555
Mn10 O29 2.118942 1_555
Mn10 O10 2.139347 1_555
Mn10 O33 2.187295 1_555
Mn10 O6 2.216058 1_556
Mn10 O16 2.303862 1_555
Mn10 O19 2.394375 1_555
Mn11 O28 2.118942 1_555
Mn11 O11 2.139347 1_555
Mn11 O32 2.187295 1_555
Mn11 O7 2.216058 1_554
Mn11 O17 2.303862 1_555
Mn11 O47 2.394375 1_555
O0 P0 1.528944 1_555
O1 P1 1.528944 1_555
O2 P2 1.528944 1_555
O3 P3 1.528944 1_555
O4 P0 1.540009 1_555
O5 P1 1.540009 1_555
O6 P2 1.540009 1_555
O7 P3 1.540009 1_555
O8 P0 1.517108 1_555
O9 P1 1.517108 1_555
O10 P2 1.517108 1_555
O11 P3 1.517108 1_555
O12 P5 1.590667 1_546
O12 P0 1.668001 1_555
O13 P4 1.590667 1_564
O13 P1 1.668001 1_555
O14 P4 1.590667 1_564
O14 P2 1.668001 1_555
O15 P5 1.590667 1_546
O15 P3 1.668001 1_555
O16 P4 1.522493 1_565
O17 P5 1.522493 1_545
O18 P6 1.535965 1_556
O19 P4 1.517719 1_555
O20 P6 1.539953 1_655
O21 P7 1.539953 1_555
O22 P8 1.539953 1_455
O23 P9 1.539953 1_555
O24 P6 1.533846 1_555
O25 P7 1.533846 1_555
O26 P8 1.533846 1_555
O27 P9 1.533846 1_555
O28 P13 1.507900 1_545
O29 P12 1.507900 1_565
O30 P11 1.507900 1_565
O31 P10 1.507900 1_545
O32 P13 1.546999 1_555
O33 P12 1.546999 1_555
O34 P11 1.546999 1_555
O35 P10 1.546999 1_555
O36 P13 1.540178 1_555
O37 P12 1.540178 1_555
O38 P11 1.540178 1_555
O39 P10 1.540178 1_555
O40 P9 1.609327 1_565
O40 P13 1.614599 1_555
O41 P8 1.609327 1_545
O41 P12 1.614599 1_555
O42 P7 1.609327 1_545
O42 P11 1.614599 1_555
O43 P6 1.609327 1_565
O43 P10 1.614599 1_555
O44 P9 1.535965 1_556
O45 P8 1.535965 1_554
O46 P7 1.535965 1_554
O47 P5 1.517719 1_555
