# generated using pymatgen
data_Bi3(PO5)2
_symmetry_space_group_name_H-M   'P 1'
_cell_length_a   5.56587200
_cell_length_b   6.79401323
_cell_length_c   7.06478486
_cell_angle_alpha   108.07744304
_cell_angle_beta   109.24430918
_cell_angle_gamma   96.64269130
_symmetry_Int_Tables_number   1
_chemical_formula_structural   Bi3(PO5)2
_chemical_formula_sum   'Bi3 P2 O10'
_cell_volume   232.59657725
_cell_formula_units_Z   1
loop_
 _symmetry_equiv_pos_site_id
 _symmetry_equiv_pos_as_xyz
  1  'x, y, z'
loop_
 _atom_site_type_symbol
 _atom_site_label
 _atom_site_symmetry_multiplicity
 _atom_site_fract_x
 _atom_site_fract_y
 _atom_site_fract_z
 _atom_site_occupancy
  Bi  Bi0  1  0.60107600  0.82324300  0.24605400  1
  Bi  Bi1  1  0.26447200  0.58998900  0.67499300  1
  Bi  Bi2  1  0.01817400  0.99769300  0.99172200  1
  P  P0  1  0.61535100  0.38880400  0.33459900  1
  P  P1  1  0.24912400  0.05580900  0.57907500  1
  O  O0  1  0.08550800  0.91060800  0.65470400  1
  O  O1  1  0.19510200  0.72833900  0.98372000  1
  O  O2  1  0.66016500  0.77114500  0.93463400  1
  O  O3  1  0.05695900  0.02695700  0.34609000  1
  O  O4  1  0.38118700  0.48600100  0.36084300  1
  O  O5  1  0.49220300  0.97222000  0.57618400  1
  O  O6  1  0.82630700  0.41894400  0.55563300  1
  O  O7  1  0.73572200  0.50453200  0.21748200  1
  O  O8  1  0.50262200  0.14558900  0.19424500  1
  O  O9  1  0.31905700  0.28978700  0.73598800  1
loop_
_geom_bond_atom_site_label_1
_geom_bond_atom_site_label_2
_geom_bond_distance
_geom_bond_site_symmetry_2
Bi0 O2 2.257116 1_554
Bi0 O1 2.262106 1_554
Bi0 O7 2.344123 1_555
Bi0 O8 2.423501 1_565
Bi0 O3 2.500347 1_665
Bi0 O5 2.537673 1_555
Bi1 O2 2.244708 1_555
Bi1 O9 2.245075 1_555
Bi1 O1 2.270796 1_555
Bi1 O6 2.321564 1_455
Bi1 O4 2.435235 1_555
Bi1 O0 2.521771 1_555
Bi2 O1 2.170540 1_555
Bi2 O2 2.208553 1_455
Bi2 O3 2.383006 1_566
Bi2 O0 2.434079 1_555
Bi2 O8 2.503010 1_566
O0 P1 1.589964 1_565
O3 P1 1.575572 1_555
O4 P0 1.565738 1_555
O5 P1 1.530416 1_565
O6 P0 1.548006 1_555
O7 P0 1.548852 1_555
O8 P0 1.562213 1_555
O9 P1 1.544721 1_555
