# generated using pymatgen
data_K3Bi
_symmetry_space_group_name_H-M   'P 1'
_cell_length_a   6.09829242
_cell_length_b   6.09829231
_cell_length_c   6.09829119
_cell_angle_alpha   60.00000058
_cell_angle_beta   60.00000120
_cell_angle_gamma   60.00000015
_symmetry_Int_Tables_number   1
_chemical_formula_structural   K3Bi
_chemical_formula_sum   'K3 Bi1'
_cell_volume   160.36502237
_cell_formula_units_Z   1
loop_
 _symmetry_equiv_pos_site_id
 _symmetry_equiv_pos_as_xyz
  1  'x, y, z'
loop_
 _atom_site_type_symbol
 _atom_site_label
 _atom_site_symmetry_multiplicity
 _atom_site_fract_x
 _atom_site_fract_y
 _atom_site_fract_z
 _atom_site_occupancy
  K  K0  1  0.25000000  0.25000000  0.25000000  1
  K  K1  1  0.75000000  0.75000000  0.75000000  1
  K  K2  1  0.50000000  0.50000000  0.50000000  1
  Bi  Bi0  1  -0.00000000  0.00000000  0.00000000  1
loop_
_geom_bond_atom_site_label_1
_geom_bond_atom_site_label_2
_geom_bond_distance
_geom_bond_site_symmetry_2
K0 K2 3.734425 1_554
K0 K2 3.734426 1_555
K0 K2 3.734426 1_545
K0 K2 3.734426 1_455
K1 K2 3.734425 1_556
K1 K2 3.734426 1_555
K1 K2 3.734426 1_565
K1 K2 3.734426 1_655
Bi0 K1 3.734425 1_445
Bi0 K0 3.734425 1_554
Bi0 K0 3.734426 1_555
Bi0 K1 3.734426 1_444
Bi0 K1 3.734426 1_454
Bi0 K0 3.734426 1_545
Bi0 K1 3.734426 1_544
Bi0 K0 3.734426 1_455
