# generated using pymatgen
data_Cs3P7Pb2O21
_symmetry_space_group_name_H-M   'P 1'
_cell_length_a   6.91083000
_cell_length_b   8.03324541
_cell_length_c   22.53471015
_cell_angle_alpha   86.50681569
_cell_angle_beta   83.04106999
_cell_angle_gamma   65.90064692
_symmetry_Int_Tables_number   1
_chemical_formula_structural   Cs3P7Pb2O21
_chemical_formula_sum   'Cs6 P14 Pb4 O42'
_cell_volume   1133.49966935
_cell_formula_units_Z   2
loop_
 _symmetry_equiv_pos_site_id
 _symmetry_equiv_pos_as_xyz
  1  'x, y, z'
loop_
 _atom_site_type_symbol
 _atom_site_label
 _atom_site_symmetry_multiplicity
 _atom_site_fract_x
 _atom_site_fract_y
 _atom_site_fract_z
 _atom_site_occupancy
  Cs  Cs0  1  0.30240400  0.79398900  0.42096400  1
  Cs  Cs1  1  0.87325100  0.68602900  0.76372400  1
  Cs  Cs2  1  0.24612100  0.79277500  0.88945900  1
  Cs  Cs3  1  0.69759600  0.20601100  0.57903600  1
  Cs  Cs4  1  0.12674900  0.31397100  0.23627600  1
  Cs  Cs5  1  0.75387900  0.20722500  0.11054100  1
  P  P0  1  0.95819600  0.12108700  0.73495700  1
  P  P1  1  0.19725100  0.25407600  0.51809800  1
  P  P2  1  0.04180400  0.87891300  0.26504300  1
  P  P3  1  0.01238300  0.33656600  0.93468500  1
  P  P4  1  0.36491600  0.15075400  0.74523400  1
  P  P5  1  0.80274900  0.74592400  0.48190200  1
  P  P6  1  0.98761700  0.66343400  0.06531500  1
  P  P7  1  0.72608100  0.72667300  0.96292300  1
  P  P8  1  0.96237100  0.40244000  0.41213300  1
  P  P9  1  0.63508400  0.84924600  0.25476600  1
  P  P10  1  0.53559600  0.43805900  0.75100300  1
  P  P11  1  0.03762900  0.59756000  0.58786700  1
  P  P12  1  0.27391900  0.27332700  0.03707700  1
  P  P13  1  0.46440400  0.56194100  0.24899700  1
  Pb  Pb0  1  0.41083700  0.81321200  0.62462200  1
  Pb  Pb1  1  0.58916300  0.18678800  0.37537800  1
  Pb  Pb2  1  0.60536200  0.16935600  0.88497900  1
  Pb  Pb3  1  0.39463800  0.83064400  0.11502100  1
  O  O0  1  0.47413600  0.05090300  0.68821800  1
  O  O1  1  0.75360100  0.29808100  0.71427500  1
  O  O2  1  0.53384000  0.38007000  0.28000000  1
  O  O3  1  0.79100100  0.51123700  0.95274900  1
  O  O4  1  0.20899900  0.48876300  0.04725100  1
  O  O5  1  0.95236100  0.99928300  0.31869100  1
  O  O6  1  0.09979700  0.95869500  0.20715000  1
  O  O7  1  0.74756600  0.81658600  0.90306600  1
  O  O8  1  0.00302200  0.29683600  0.47662000  1
  O  O9  1  0.48723500  0.20631100  0.00073300  1
  O  O10  1  0.84029700  0.67559500  0.63081200  1
  O  O11  1  0.08729500  0.26627000  0.00148700  1
  O  O12  1  0.51276500  0.79368900  0.99926700  1
  O  O13  1  0.75478400  0.93491600  0.45744500  1
  O  O14  1  0.17401900  0.39327100  0.89908800  1
  O  O15  1  0.63342800  0.69285900  0.51422600  1
  O  O16  1  0.46616000  0.61993000  0.72000000  1
  O  O17  1  0.04763900  0.00071700  0.68130900  1
  O  O18  1  0.15970300  0.32440500  0.36918800  1
  O  O19  1  0.24531000  0.59390100  0.60303700  1
  O  O20  1  0.56434600  0.93977300  0.19620400  1
  O  O21  1  0.75469000  0.40609900  0.39696300  1
  O  O22  1  0.91270500  0.73373000  0.99851300  1
  O  O23  1  0.93100200  0.60903000  0.42640800  1
  O  O24  1  0.90020300  0.04130500  0.79285000  1
  O  O25  1  0.43565400  0.06022700  0.80379600  1
  O  O26  1  0.06899800  0.39097000  0.57359200  1
  O  O27  1  0.10765300  0.22540400  0.74634900  1
  O  O28  1  0.89234700  0.77459600  0.25365100  1
  O  O29  1  0.05186500  0.80425700  0.08707400  1
  O  O30  1  0.63388900  0.64569200  0.25930700  1
  O  O31  1  0.99697800  0.70316400  0.52338000  1
  O  O32  1  0.82598100  0.60672900  0.10091200  1
  O  O33  1  0.56517100  0.43575600  0.81625200  1
  O  O34  1  0.36657200  0.30714100  0.48577400  1
  O  O35  1  0.94813500  0.19574300  0.91292600  1
  O  O36  1  0.52586400  0.94909700  0.31178200  1
  O  O37  1  0.24639900  0.70191900  0.28572500  1
  O  O38  1  0.24521600  0.06508400  0.54255500  1
  O  O39  1  0.25243400  0.18341400  0.09693400  1
  O  O40  1  0.36611100  0.35430800  0.74069300  1
  O  O41  1  0.43482900  0.56424400  0.18374800  1
loop_
_geom_bond_atom_site_label_1
_geom_bond_atom_site_label_2
_geom_bond_distance
_geom_bond_site_symmetry_2
Cs0 O15 3.122407 1_555
Cs0 O31 3.191568 1_455
Cs0 O36 3.204376 1_555
Cs0 O37 3.283109 1_555
Cs0 O5 3.393109 1_455
Cs0 O21 3.407909 1_555
Cs0 O23 3.438970 1_455
Cs0 O13 3.484345 1_455
Cs0 O38 3.488332 1_565
Cs1 O10 3.039931 1_555
Cs1 O24 3.050069 1_565
Cs1 O7 3.272721 1_555
Cs1 O16 3.335122 1_555
Cs1 O25 3.352965 1_565
Cs1 O40 3.361514 1_655
Cs1 O27 3.405512 1_655
Cs1 O33 3.545599 1_555
Cs1 O17 3.558895 1_665
Cs1 O0 3.608539 1_565
Cs2 O35 3.082255 1_465
Cs2 O33 3.215526 1_555
Cs2 O12 3.261441 1_555
Cs2 O22 3.309366 1_455
Cs2 O7 3.348812 1_455
Cs2 O25 3.352346 1_565
Cs2 O24 3.357717 1_465
Cs2 O14 3.433648 1_555
Cs2 O7 3.597994 1_555
Cs3 O34 3.122407 1_555
Cs3 O8 3.191568 1_655
Cs3 O0 3.204376 1_555
Cs3 O1 3.283109 1_555
Cs3 O17 3.393109 1_655
Cs3 O19 3.407909 1_555
Cs3 O26 3.438970 1_655
Cs3 O38 3.484345 1_655
Cs3 O13 3.488332 1_545
Cs4 O18 3.039931 1_555
Cs4 O6 3.050069 1_545
Cs4 O39 3.272721 1_555
Cs4 O2 3.335122 1_555
Cs4 O20 3.352965 1_545
Cs4 O30 3.361514 1_455
Cs4 O28 3.405512 1_455
Cs4 O41 3.545599 1_555
Cs4 O5 3.558895 1_445
Cs4 O36 3.608539 1_545
Cs5 O29 3.082255 1_645
Cs5 O41 3.215526 1_555
Cs5 O9 3.261441 1_555
Cs5 O11 3.309366 1_655
Cs5 O39 3.348812 1_655
Cs5 O20 3.352346 1_545
Cs5 O6 3.357717 1_645
Cs5 O32 3.433648 1_555
Cs5 O39 3.597994 1_555
O0 P4 1.503364 1_555
O0 Pb0 2.656803 1_545
O1 P10 1.626977 1_555
O1 P0 1.635601 1_555
O2 P13 1.495744 1_555
O2 Pb1 2.546413 1_555
O3 P7 1.624297 1_555
O3 P3 1.625072 1_655
O4 P12 1.624297 1_555
O4 P6 1.625072 1_455
O5 P2 1.500634 1_655
O5 Pb1 2.563356 1_565
O6 P2 1.501517 1_555
O6 Pb3 2.653987 1_555
O7 P7 1.511127 1_555
O7 Pb2 2.616258 1_565
O8 P8 1.632316 1_455
O8 P1 1.637599 1_555
O9 P12 1.498959 1_555
O9 Pb2 2.634237 1_554
O10 P11 1.498422 1_655
O10 Pb0 2.729883 1_555
O11 P12 1.620409 1_555
O11 P3 1.643027 1_554
O12 P7 1.498959 1_555
O12 Pb3 2.634237 1_556
O13 P5 1.499979 1_555
O13 Pb1 2.643825 1_565
O14 P3 1.500878 1_555
O14 Pb2 2.771973 1_555
O15 P5 1.498174 1_555
O15 Pb0 2.764268 1_555
O16 P10 1.495744 1_555
O16 Pb0 2.546413 1_555
O17 P0 1.500634 1_455
O17 Pb0 2.563356 1_545
O18 P8 1.498422 1_455
O18 Pb1 2.729883 1_555
O19 P11 1.503621 1_555
O19 Pb0 2.556190 1_555
O20 P9 1.502811 1_555
O20 Pb3 2.654407 1_555
O21 P8 1.503621 1_555
O21 Pb1 2.556190 1_555
O22 P7 1.620409 1_555
O22 P6 1.643027 1_556
O23 P8 1.630662 1_555
O23 P5 1.631505 1_555
O24 P0 1.501517 1_555
O24 Pb2 2.653987 1_555
O25 P4 1.502811 1_555
O25 Pb2 2.654407 1_555
O26 P11 1.630662 1_555
O26 P1 1.631505 1_555
O27 P0 1.622433 1_455
O27 P4 1.625273 1_555
O28 P2 1.622433 1_655
O28 P9 1.625273 1_555
O29 P6 1.499290 1_455
O29 Pb3 2.615494 1_555
O30 P13 1.614638 1_555
O30 P9 1.635496 1_555
O31 P11 1.632316 1_655
O31 P5 1.637599 1_555
O32 P6 1.500878 1_555
O32 Pb3 2.771973 1_555
O33 P10 1.506823 1_555
O33 Pb2 2.504101 1_555
O34 P1 1.498174 1_555
O34 Pb1 2.764268 1_555
O35 P3 1.499290 1_655
O35 Pb2 2.615494 1_555
O36 P9 1.503364 1_555
O36 Pb1 2.656803 1_565
O37 P13 1.626977 1_555
O37 P2 1.635601 1_555
O38 P1 1.499979 1_555
O38 Pb0 2.643825 1_545
O39 P12 1.511127 1_555
O39 Pb3 2.616258 1_545
O40 P10 1.614638 1_555
O40 P4 1.635496 1_555
O41 P13 1.506823 1_555
O41 Pb3 2.504101 1_555
