# generated using pymatgen
data_K2Ni4P4O15
_symmetry_space_group_name_H-M   'P 1'
_cell_length_a   8.65821003
_cell_length_b   8.65821003
_cell_length_c   18.36510919
_cell_angle_alpha   82.13761516
_cell_angle_beta   82.13761516
_cell_angle_gamma   105.92504065
_symmetry_Int_Tables_number   1
_chemical_formula_structural   K2Ni4P4O15
_chemical_formula_sum   'K8 Ni16 P16 O60'
_cell_volume   1289.30285989
_cell_formula_units_Z   4
loop_
 _symmetry_equiv_pos_site_id
 _symmetry_equiv_pos_as_xyz
  1  'x, y, z'
loop_
 _atom_site_type_symbol
 _atom_site_label
 _atom_site_symmetry_multiplicity
 _atom_site_fract_x
 _atom_site_fract_y
 _atom_site_fract_z
 _atom_site_occupancy
  K  K0  1  0.55272400  0.33574300  0.95549400  1
  K  K1  1  0.90694700  0.40976600  0.79702000  1
  K  K2  1  0.44727600  0.66425700  0.04450600  1
  K  K3  1  0.33574300  0.55272400  0.45549400  1
  K  K4  1  0.59023400  0.09305300  0.70298000  1
  K  K5  1  0.09305300  0.59023400  0.20298000  1
  K  K6  1  0.40976600  0.90694700  0.29702000  1
  K  K7  1  0.66425700  0.44727600  0.54450600  1
  Ni  Ni0  1  0.04244100  0.15093100  0.93194000  1
  Ni  Ni1  1  0.73174300  0.08783700  0.06885100  1
  Ni  Ni2  1  0.26825700  0.91216300  0.93114900  1
  Ni  Ni3  1  0.17577800  0.82422200  0.75000000  1
  Ni  Ni4  1  0.91216300  0.26825700  0.43114900  1
  Ni  Ni5  1  0.82422200  0.17577800  0.25000000  1
  Ni  Ni6  1  0.84906900  0.95755900  0.56806000  1
  Ni  Ni7  1  0.08783700  0.73174300  0.56885100  1
  Ni  Ni8  1  0.95755900  0.84906900  0.06806000  1
  Ni  Ni9  1  0.53697400  0.46302600  0.25000000  1
  Ni  Ni10  1  0.15093100  0.04244100  0.43194000  1
  Ni  Ni11  1  0.00000000  0.50000000  0.00000000  1
  Ni  Ni12  1  0.04616800  0.95383200  0.25000000  1
  Ni  Ni13  1  0.50000000  0.00000000  0.50000000  1
  Ni  Ni14  1  0.46302600  0.53697400  0.75000000  1
  Ni  Ni15  1  0.95383200  0.04616800  0.75000000  1
  P  P0  1  0.28166700  0.15895300  0.82009000  1
  P  P1  1  0.31159800  0.00679100  0.09862400  1
  P  P2  1  0.00679000  0.31159800  0.59862400  1
  P  P3  1  0.10513100  0.22355800  0.09842900  1
  P  P4  1  0.84104700  0.71833300  0.67991000  1
  P  P5  1  0.77644200  0.89486900  0.40157100  1
  P  P6  1  0.23509700  0.55478100  0.88016600  1
  P  P7  1  0.22355800  0.10513100  0.59842900  1
  P  P8  1  0.44521900  0.76490300  0.61983400  1
  P  P9  1  0.89486900  0.77644200  0.90157100  1
  P  P10  1  0.68840200  0.99321000  0.90137600  1
  P  P11  1  0.99320900  0.68840200  0.40137600  1
  P  P12  1  0.76490300  0.44521900  0.11983400  1
  P  P13  1  0.71833300  0.84104700  0.17991000  1
  P  P14  1  0.15895300  0.28166700  0.32009000  1
  P  P15  1  0.55478100  0.23509700  0.38016600  1
  O  O0  1  0.29236600  0.41777900  0.26557500  1
  O  O1  1  0.81431000  0.72193600  0.41947000  1
  O  O2  1  0.29886900  0.98609400  0.81259100  1
  O  O3  1  0.38700600  0.81625000  0.69260900  1
  O  O4  1  0.93794500  0.24965400  0.68164000  1
  O  O5  1  0.66708800  0.22437700  0.44036800  1
  O  O6  1  0.70113100  0.01390600  0.18740900  1
  O  O7  1  0.95408700  0.50853100  0.42862600  1
  O  O8  1  0.41777900  0.29236600  0.76557500  1
  O  O9  1  0.49146900  0.04591300  0.07137400  1
  O  O10  1  0.86096500  0.59470400  0.92738600  1
  O  O11  1  0.18569000  0.27806400  0.58053000  1
  O  O12  1  0.82606800  0.89336000  0.68536000  1
  O  O13  1  0.90300900  0.60650000  0.07880700  1
  O  O14  1  0.60650000  0.90300900  0.57880700  1
  O  O15  1  0.71187300  0.83872500  0.09393100  1
  O  O16  1  0.28812700  0.16127500  0.90606900  1
  O  O17  1  0.72193600  0.81431000  0.91947000  1
  O  O18  1  0.33291200  0.77562300  0.55963200  1
  O  O19  1  0.24965400  0.93794500  0.18164000  1
  O  O20  1  0.99401300  0.11538100  0.05149100  1
  O  O21  1  0.78921100  0.10597400  0.94885300  1
  O  O22  1  0.59310300  0.46564300  0.13764400  1
  O  O23  1  0.75034600  0.06205500  0.81836000  1
  O  O24  1  0.21078900  0.89402600  0.05114700  1
  O  O25  1  0.89402600  0.21078900  0.55114700  1
  O  O26  1  0.58222100  0.70763400  0.23442500  1
  O  O27  1  0.06205500  0.75034600  0.31836000  1
  O  O28  1  0.11538100  0.99401300  0.55149100  1
  O  O29  1  0.88461900  0.00598700  0.44850900  1
  O  O30  1  0.10597400  0.78921100  0.44885300  1
  O  O31  1  0.39350000  0.09699100  0.42119300  1
  O  O32  1  0.89336000  0.82606800  0.18536000  1
  O  O33  1  0.59470400  0.86096500  0.42738600  1
  O  O34  1  0.09699100  0.39350000  0.92119300  1
  O  O35  1  0.40689700  0.53435700  0.86235600  1
  O  O36  1  0.50853100  0.95408700  0.92862600  1
  O  O37  1  0.77562300  0.33291200  0.05963200  1
  O  O38  1  0.83468700  0.96022200  0.31773600  1
  O  O39  1  0.16531300  0.03977800  0.68226400  1
  O  O40  1  0.40529600  0.13903500  0.57261400  1
  O  O41  1  0.70763400  0.58222100  0.73442500  1
  O  O42  1  0.18375000  0.61299400  0.80739100  1
  O  O43  1  0.27806400  0.18569000  0.08053000  1
  O  O44  1  0.53435700  0.40689700  0.36235600  1
  O  O45  1  0.13903500  0.40529600  0.07261400  1
  O  O46  1  0.83872500  0.71187300  0.59393100  1
  O  O47  1  0.81625000  0.38700600  0.19260900  1
  O  O48  1  0.22437700  0.66708800  0.94036800  1
  O  O49  1  0.98609400  0.29886900  0.31259100  1
  O  O50  1  0.96022200  0.83468700  0.81773600  1
  O  O51  1  0.46564300  0.59310300  0.63764400  1
  O  O52  1  0.00598700  0.88461900  0.94850900  1
  O  O53  1  0.16127500  0.28812700  0.40606900  1
  O  O54  1  0.03977800  0.16531300  0.18226400  1
  O  O55  1  0.04591300  0.49146900  0.57137400  1
  O  O56  1  0.01390600  0.70113100  0.68740900  1
  O  O57  1  0.10664000  0.17393200  0.81464000  1
  O  O58  1  0.17393200  0.10664000  0.31464000  1
  O  O59  1  0.61299400  0.18375000  0.30739100  1
loop_
_geom_bond_atom_site_label_1
_geom_bond_atom_site_label_2
_geom_bond_distance
_geom_bond_site_symmetry_2
K0 O16 2.720137 1_555
K0 O37 2.899268 1_556
K0 O10 2.904991 1_555
K0 O35 2.907696 1_555
K0 O9 2.933808 1_556
K0 O43 2.934357 1_556
K0 O21 3.224652 1_555
K1 O42 2.603582 1_655
K1 O4 2.708519 1_555
K1 O41 2.831281 1_555
K1 O56 2.844728 1_655
K1 O23 2.889163 1_555
K1 O34 2.998944 1_655
K1 O57 3.028712 1_655
K1 O10 3.097170 1_555
K2 O15 2.720137 1_555
K2 O48 2.899268 1_554
K2 O45 2.904991 1_555
K2 O22 2.907696 1_555
K2 O36 2.933808 1_554
K2 O17 2.934357 1_554
K2 O24 3.224652 1_555
K3 O53 2.720137 1_555
K3 O18 2.899268 1_555
K3 O33 2.904991 1_555
K3 O44 2.907696 1_555
K3 O55 2.933808 1_555
K3 O11 2.934357 1_555
K3 O30 3.224652 1_555
K4 O3 2.603582 1_545
K4 O23 2.708519 1_555
K4 O8 2.831281 1_555
K4 O2 2.844728 1_545
K4 O4 2.889163 1_555
K4 O14 2.998944 1_545
K4 O12 3.028712 1_545
K4 O40 3.097170 1_555
K5 O47 2.603582 1_455
K5 O27 2.708519 1_555
K5 O0 2.831281 1_555
K5 O49 2.844728 1_455
K5 O19 2.889163 1_555
K5 O13 2.998944 1_455
K5 O32 3.028712 1_455
K5 O45 3.097170 1_555
K6 O59 2.603582 1_565
K6 O19 2.708519 1_555
K6 O26 2.831281 1_555
K6 O6 2.844728 1_565
K6 O27 2.889163 1_555
K6 O31 2.998944 1_565
K6 O58 3.028712 1_565
K6 O33 3.097170 1_555
K7 O46 2.720137 1_555
K7 O5 2.899268 1_555
K7 O40 2.904991 1_555
K7 O51 2.907696 1_555
K7 O7 2.933808 1_555
K7 O1 2.934357 1_555
K7 O25 3.224652 1_555
Ni0 O34 1.997417 1_555
Ni0 O16 2.089509 1_555
Ni0 O21 2.089834 1_455
Ni0 O57 2.117452 1_555
Ni0 O20 2.140909 1_456
Ni0 O52 2.211618 1_545
Ni1 O9 2.004088 1_555
Ni1 O37 2.029098 1_555
Ni1 O15 2.096833 1_545
Ni1 O6 2.142070 1_555
Ni1 O21 2.165943 1_554
Ni1 O20 2.190651 1_555
Ni2 O36 2.004088 1_555
Ni2 O48 2.029098 1_555
Ni2 O16 2.096833 1_565
Ni2 O2 2.142070 1_555
Ni2 O24 2.165943 1_556
Ni2 O52 2.190651 1_555
Ni3 O3 2.005539 1_555
Ni3 O42 2.005539 1_555
Ni3 O2 2.092288 1_555
Ni3 O56 2.092288 1_555
Ni3 O39 2.127752 1_565
Ni3 O50 2.127752 1_455
Ni4 O7 2.004088 1_555
Ni4 O5 2.029098 1_555
Ni4 O53 2.096833 1_655
Ni4 O49 2.142070 1_555
Ni4 O25 2.165943 1_555
Ni4 O29 2.190651 1_555
Ni5 O47 2.005539 1_555
Ni5 O59 2.005539 1_555
Ni5 O49 2.092288 1_555
Ni5 O6 2.092288 1_555
Ni5 O38 2.127752 1_545
Ni5 O54 2.127752 1_655
Ni6 O14 1.997417 1_555
Ni6 O46 2.089509 1_555
Ni6 O25 2.089834 1_565
Ni6 O12 2.117452 1_555
Ni6 O29 2.140909 1_565
Ni6 O28 2.211618 1_655
Ni7 O55 2.004088 1_555
Ni7 O18 2.029098 1_555
Ni7 O46 2.096833 1_455
Ni7 O56 2.142070 1_555
Ni7 O30 2.165943 1_555
Ni7 O28 2.190651 1_555
Ni8 O13 1.997417 1_555
Ni8 O15 2.089509 1_555
Ni8 O24 2.089834 1_655
Ni8 O32 2.117452 1_555
Ni8 O52 2.140909 1_654
Ni8 O20 2.211618 1_565
Ni9 O26 2.017166 1_555
Ni9 O0 2.017166 1_555
Ni9 O44 2.049695 1_555
Ni9 O22 2.049695 1_555
Ni10 O31 1.997417 1_555
Ni10 O53 2.089509 1_555
Ni10 O30 2.089834 1_545
Ni10 O58 2.117452 1_555
Ni10 O28 2.140909 1_545
Ni10 O29 2.211618 1_455
Ni11 O13 2.026742 1_455
Ni11 O34 2.026742 1_554
Ni11 O48 2.123331 1_554
Ni11 O37 2.123331 1_455
Ni11 O45 2.140459 1_555
Ni11 O10 2.140459 1_454
Ni12 O27 2.067406 1_555
Ni12 O19 2.067406 1_555
Ni12 O38 2.086749 1_455
Ni12 O54 2.086749 1_565
Ni12 O32 2.090271 1_455
Ni12 O58 2.090271 1_565
Ni13 O14 2.026742 1_545
Ni13 O31 2.026742 1_555
Ni13 O5 2.123331 1_555
Ni13 O18 2.123331 1_545
Ni13 O40 2.140459 1_555
Ni13 O33 2.140459 1_545
Ni14 O41 2.017166 1_555
Ni14 O8 2.017166 1_555
Ni14 O51 2.049695 1_555
Ni14 O35 2.049695 1_555
Ni15 O23 2.067406 1_555
Ni15 O4 2.067406 1_555
Ni15 O50 2.086749 1_545
Ni15 O39 2.086749 1_655
Ni15 O12 2.090271 1_545
Ni15 O57 2.090271 1_655
O0 P14 1.529464 1_555
O1 P5 1.619153 1_555
O1 P11 1.651158 1_555
O2 P0 1.566593 1_565
O3 P8 1.529443 1_555
O4 P2 1.523016 1_655
O5 P15 1.578639 1_555
O6 P13 1.566593 1_545
O7 P11 1.497154 1_555
O8 P0 1.529464 1_555
O9 P1 1.497154 1_555
O10 P9 1.513695 1_555
O11 P7 1.619153 1_555
O11 P2 1.651166 1_555
O12 P4 1.571348 1_555
O13 P12 1.580139 1_555
O14 P8 1.580139 1_555
O15 P13 1.590298 1_555
O16 P0 1.590298 1_555
O17 P9 1.619153 1_555
O17 P10 1.651166 1_555
O18 P8 1.578639 1_555
O19 P1 1.523017 1_565
O20 P3 1.580898 1_655
O21 P10 1.564856 1_545
O22 P12 1.542048 1_555
O23 P10 1.523016 1_545
O24 P1 1.564861 1_565
O25 P2 1.564856 1_655
O26 P13 1.529464 1_555
O27 P11 1.523017 1_455
O28 P7 1.580898 1_565
O29 P5 1.580898 1_545
O30 P11 1.564861 1_455
O31 P15 1.580139 1_555
O32 P13 1.571348 1_555
O33 P5 1.513695 1_555
O34 P6 1.580139 1_555
O35 P6 1.542048 1_555
O36 P10 1.497153 1_555
O37 P12 1.578639 1_555
O38 P5 1.528927 1_555
O39 P7 1.528927 1_555
O40 P7 1.513695 1_555
O41 P4 1.529464 1_555
O42 P6 1.529443 1_555
O43 P3 1.619153 1_555
O43 P1 1.651158 1_555
O44 P15 1.542048 1_555
O45 P3 1.513695 1_555
O46 P4 1.590298 1_555
O47 P12 1.529443 1_555
O48 P6 1.578639 1_555
O49 P14 1.566593 1_655
O50 P9 1.528927 1_555
O51 P8 1.542048 1_555
O52 P9 1.580898 1_455
O53 P14 1.590298 1_555
O54 P3 1.528927 1_555
O55 P2 1.497153 1_555
O56 P4 1.566593 1_455
O57 P0 1.571348 1_555
O58 P14 1.571348 1_555
O59 P15 1.529443 1_555
