# generated using pymatgen
data_Cs2Ni(NO3)4
_symmetry_space_group_name_H-M   'P 1'
_cell_length_a   6.51037900
_cell_length_b   7.89192650
_cell_length_c   13.51616271
_cell_angle_alpha   87.66305950
_cell_angle_beta   102.28706523
_cell_angle_gamma   108.04470533
_symmetry_Int_Tables_number   1
_chemical_formula_structural   Cs2Ni(NO3)4
_chemical_formula_sum   'Cs4 Ni2 N8 O24'
_cell_volume   644.93487912
_cell_formula_units_Z   2
loop_
 _symmetry_equiv_pos_site_id
 _symmetry_equiv_pos_as_xyz
  1  'x, y, z'
loop_
 _atom_site_type_symbol
 _atom_site_label
 _atom_site_symmetry_multiplicity
 _atom_site_fract_x
 _atom_site_fract_y
 _atom_site_fract_z
 _atom_site_occupancy
  Cs  Cs0  1  0.35252500  0.22501200  0.59561600  1
  Cs  Cs1  1  0.64747500  0.77498800  0.40438400  1
  Cs  Cs2  1  0.84733000  0.70437000  0.07950400  1
  Cs  Cs3  1  0.15267000  0.29563000  0.92049600  1
  Ni  Ni0  1  0.06009900  0.76716100  0.73666800  1
  Ni  Ni1  1  0.93990100  0.23283900  0.26333200  1
  N  N0  1  0.74648600  0.53973700  0.79669300  1
  N  N1  1  0.81794000  0.04024300  0.68904100  1
  N  N2  1  0.18206000  0.95975700  0.31095900  1
  N  N3  1  0.51050500  0.12455800  0.12157100  1
  N  N4  1  0.25351400  0.46026300  0.20330700  1
  N  N5  1  0.48949500  0.87544200  0.87842900  1
  N  N6  1  0.19050200  0.65637400  0.59643000  1
  N  N7  1  0.80949800  0.34362600  0.40357000  1
  O  O0  1  0.01827700  0.00389000  0.25333100  1
  O  O1  1  0.88193700  0.20666500  0.41150500  1
  O  O2  1  0.63563600  0.06845200  0.19548200  1
  O  O3  1  0.98172300  0.99611000  0.74666900  1
  O  O4  1  0.57431700  0.28309100  0.09458000  1
  O  O5  1  0.19299400  0.80787000  0.29543300  1
  O  O6  1  0.32940900  0.01671900  0.07989900  1
  O  O7  1  0.59983200  0.42382900  0.82743200  1
  O  O8  1  0.73438100  0.57934500  0.70311200  1
  O  O9  1  0.80700600  0.19213000  0.70456700  1
  O  O10  1  0.31614200  0.06606500  0.37800100  1
  O  O11  1  0.26561900  0.42065500  0.29688800  1
  O  O12  1  0.68385800  0.93393500  0.62199900  1
  O  O13  1  0.67059100  0.98328100  0.92010100  1
  O  O14  1  0.42568300  0.71690900  0.90542000  1
  O  O15  1  0.19080100  0.57847100  0.68145500  1
  O  O16  1  0.36436400  0.93154800  0.80451800  1
  O  O17  1  0.92798200  0.62948300  0.85761400  1
  O  O18  1  0.40016800  0.57617100  0.17256800  1
  O  O19  1  0.74744100  0.39494300  0.47365900  1
  O  O20  1  0.07201800  0.37051700  0.14238600  1
  O  O21  1  0.25255900  0.60505700  0.52634100  1
  O  O22  1  0.80919900  0.42152900  0.31854500  1
  O  O23  1  0.11806300  0.79333500  0.58849500  1
loop_
_geom_bond_atom_site_label_1
_geom_bond_atom_site_label_2
_geom_bond_distance
_geom_bond_site_symmetry_2
Cs0 O9 3.095264 1_555
Cs0 O10 3.178250 1_555
Cs0 O8 3.255491 1_555
Cs0 O19 3.257829 1_555
Cs0 O23 3.269235 1_545
Cs0 O21 3.319172 1_555
Cs0 O7 3.400040 1_555
Cs0 O1 3.479860 1_455
Cs0 O3 3.514925 1_445
Cs0 O12 3.568310 1_545
Cs0 O16 3.581466 1_545
Cs0 O15 3.583182 1_555
Cs1 O5 3.095264 1_555
Cs1 O12 3.178250 1_555
Cs1 O11 3.255491 1_555
Cs1 O21 3.257829 1_555
Cs1 O1 3.269235 1_565
Cs1 O19 3.319172 1_555
Cs1 O18 3.400040 1_555
Cs1 O23 3.479860 1_655
Cs1 O0 3.514925 1_665
Cs1 O10 3.568310 1_565
Cs1 O2 3.581466 1_565
Cs1 O22 3.583182 1_555
Cs2 O0 3.171176 1_665
Cs2 O14 3.237567 1_554
Cs2 O5 3.241844 1_655
Cs2 O17 3.259853 1_554
Cs2 O4 3.269911 1_555
Cs2 O18 3.272763 1_555
Cs2 O13 3.307283 1_554
Cs2 O6 3.335824 1_665
Cs2 O20 3.388207 1_655
Cs3 O3 3.171176 1_445
Cs3 O4 3.237567 1_556
Cs3 O9 3.241844 1_455
Cs3 O20 3.259853 1_556
Cs3 O14 3.269911 1_555
Cs3 O7 3.272763 1_555
Cs3 O6 3.307283 1_556
Cs3 O13 3.335824 1_445
Cs3 O17 3.388207 1_455
Ni0 O3 2.040535 1_455
Ni0 O16 2.044442 1_555
Ni0 O23 2.106097 1_555
Ni0 O17 2.113611 1_455
Ni0 O8 2.144220 1_455
Ni0 O15 2.155085 1_555
Ni1 O0 2.040535 1_655
Ni1 O2 2.044442 1_555
Ni1 O1 2.106097 1_555
Ni1 O20 2.113611 1_655
Ni1 O11 2.144220 1_655
Ni1 O22 2.155085 1_555
N0 O7 1.231962 1_555
N0 O8 1.282331 1_555
N0 O17 1.300322 1_555
N1 O12 1.248442 1_545
N1 O9 1.251269 1_555
N1 O3 1.311274 1_545
N2 O10 1.248442 1_565
N2 O5 1.251269 1_555
N2 O0 1.311274 1_565
N3 O6 1.251568 1_555
N3 O4 1.255502 1_555
N3 O2 1.303347 1_555
N4 O18 1.231962 1_555
N4 O11 1.282331 1_555
N4 O20 1.300322 1_555
N5 O13 1.251568 1_555
N5 O14 1.255502 1_555
N5 O16 1.303347 1_555
N6 O21 1.232981 1_555
N6 O15 1.280955 1_555
N6 O23 1.298864 1_555
N7 O19 1.232981 1_555
N7 O22 1.280955 1_555
N7 O1 1.298864 1_555
