# generated using pymatgen
data_KEuPdO3
_symmetry_space_group_name_H-M   'P 1'
_cell_length_a   6.91814417
_cell_length_b   6.91814417
_cell_length_c   7.62940822
_cell_angle_alpha   75.82414125
_cell_angle_beta   75.82414125
_cell_angle_gamma   33.46870377
_symmetry_Int_Tables_number   1
_chemical_formula_structural   KEuPdO3
_chemical_formula_sum   'K2 Eu2 Pd2 O6'
_cell_volume   194.67691725
_cell_formula_units_Z   2
loop_
 _symmetry_equiv_pos_site_id
 _symmetry_equiv_pos_as_xyz
  1  'x, y, z'
loop_
 _atom_site_type_symbol
 _atom_site_label
 _atom_site_symmetry_multiplicity
 _atom_site_fract_x
 _atom_site_fract_y
 _atom_site_fract_z
 _atom_site_occupancy
  K  K0  1  0.64464600  0.64464600  0.43510900  1
  K  K1  1  0.35535400  0.35535400  0.56489100  1
  Eu  Eu0  1  0.34904300  0.34904300  0.07562700  1
  Eu  Eu1  1  0.65095700  0.65095700  0.92437300  1
  Pd  Pd0  1  0.00731500  0.00731500  0.21878300  1
  Pd  Pd1  1  0.99268500  0.99268500  0.78121700  1
  O  O0  1  0.17039400  0.17039400  0.13028400  1
  O  O1  1  0.15199300  0.15199300  0.72775100  1
  O  O2  1  0.50626100  0.50626100  0.18384500  1
  O  O3  1  0.49373900  0.49373900  0.81615500  1
  O  O4  1  0.82960600  0.82960600  0.86971600  1
  O  O5  1  0.84800700  0.84800700  0.27224900  1
loop_
_geom_bond_atom_site_label_1
_geom_bond_atom_site_label_2
_geom_bond_distance
_geom_bond_site_symmetry_2
K0 O5 2.663140 1_555
K0 O2 2.972364 1_555
K0 O1 3.012223 1_565
K0 O1 3.012223 1_655
K0 O0 3.014486 1_655
K0 O0 3.014486 1_565
K0 O3 3.078423 1_555
K1 O1 2.663140 1_555
K1 O3 2.972364 1_555
K1 O5 3.012223 1_545
K1 O5 3.012223 1_455
K1 O4 3.014486 1_545
K1 O4 3.014486 1_455
K1 O2 3.078423 1_555
Eu0 O0 2.296183 1_555
Eu0 O3 2.377727 1_554
Eu0 O2 2.429207 1_555
Eu0 O5 2.491575 1_545
Eu0 O5 2.491575 1_455
Eu0 O4 2.590213 1_454
Eu0 O4 2.590213 1_544
Eu1 O4 2.296183 1_555
Eu1 O2 2.377727 1_556
Eu1 O3 2.429207 1_555
Eu1 O1 2.491575 1_655
Eu1 O1 2.491575 1_565
Eu1 O0 2.590213 1_656
Eu1 O0 2.590213 1_566
O0 Pd0 2.092592 1_555
O1 Pd1 2.044951 1_445
O2 Pd0 2.010252 1_565
O2 Pd0 2.010252 1_655
O3 Pd1 2.010252 1_545
O3 Pd1 2.010252 1_455
O4 Pd1 2.092592 1_555
O5 Pd0 2.044951 1_665
