# generated using pymatgen
data_Nd2O3
_symmetry_space_group_name_H-M   'P 1'
_cell_length_a   3.69004014
_cell_length_b   7.43879325
_cell_length_c   9.00684342
_cell_angle_alpha   99.51800203
_cell_angle_beta   90.00000000
_cell_angle_gamma   104.36077485
_symmetry_Int_Tables_number   1
_chemical_formula_structural   Nd2O3
_chemical_formula_sum   'Nd6 O9'
_cell_volume   235.99275136
_cell_formula_units_Z   3
loop_
 _symmetry_equiv_pos_site_id
 _symmetry_equiv_pos_as_xyz
  1  'x, y, z'
loop_
 _atom_site_type_symbol
 _atom_site_label
 _atom_site_symmetry_multiplicity
 _atom_site_fract_x
 _atom_site_fract_y
 _atom_site_fract_z
 _atom_site_occupancy
  Nd  Nd0  1  0.63472539  0.26945079  0.48877310  1
  Nd  Nd1  1  0.36527461  0.73054921  0.51122690  1
  Nd  Nd2  1  0.30965439  0.61931079  0.86188912  1
  Nd  Nd3  1  0.96600897  0.93201795  0.18839203  1
  Nd  Nd4  1  0.69034561  0.38068921  0.13811088  1
  Nd  Nd5  1  0.03399103  0.06798205  0.81160797  1
  O  O0  1  0.47402298  0.94804595  0.34422574  1
  O  O1  1  0.52597702  0.05195405  0.65577426  1
  O  O2  1  0.20196647  0.40392995  0.62732267  1
  O  O3  1  0.12939288  0.25878675  0.28604148  1
  O  O4  1  0.50000000  0.00000000  0.00000000  1
  O  O5  1  0.87060712  0.74121325  0.71395852  1
  O  O6  1  0.82459673  0.64919346  0.02646349  1
  O  O7  1  0.17540327  0.35080654  0.97353651  1
  O  O8  1  0.79803353  0.59607005  0.37267733  1
loop_
_geom_bond_atom_site_label_1
_geom_bond_atom_site_label_2
_geom_bond_distance
_geom_bond_site_symmetry_2
Nd0 O2 2.342570 1_555
Nd0 O2 2.342579 1_655
Nd0 O1 2.350301 1_555
Nd0 O0 2.455637 1_545
Nd0 O3 2.587715 1_655
Nd0 O3 2.587717 1_555
Nd0 O8 2.733802 1_555
Nd1 O8 2.342570 1_555
Nd1 O8 2.342579 1_455
Nd1 O0 2.350301 1_555
Nd1 O1 2.455637 1_565
Nd1 O5 2.587715 1_455
Nd1 O5 2.587717 1_555
Nd1 O2 2.733802 1_555
Nd2 O7 2.327969 1_555
Nd2 O6 2.353442 1_456
Nd2 O6 2.353448 1_556
Nd2 O2 2.398566 1_555
Nd2 O5 2.520045 1_455
Nd2 O5 2.520053 1_555
Nd2 O4 2.812211 1_566
Nd3 O6 2.294850 1_555
Nd3 O0 2.309135 1_555
Nd3 O0 2.309135 1_655
Nd3 O3 2.368892 1_665
Nd3 O4 2.609037 1_565
Nd3 O4 2.609037 1_665
Nd4 O6 2.327969 1_555
Nd4 O7 2.353442 1_654
Nd4 O7 2.353448 1_554
Nd4 O8 2.398566 1_555
Nd4 O3 2.520045 1_655
Nd4 O3 2.520053 1_555
Nd4 O4 2.812211 1_555
Nd5 O7 2.294850 1_555
Nd5 O1 2.309135 1_555
Nd5 O1 2.309135 1_455
Nd5 O5 2.368892 1_445
Nd5 O4 2.609037 1_556
Nd5 O4 2.609037 1_456
