# generated using pymatgen
data_GdSClO4
_symmetry_space_group_name_H-M   'P 1'
_cell_length_a   6.63951000
_cell_length_b   6.88483900
_cell_length_c   9.54909169
_cell_angle_alpha   74.93489543
_cell_angle_beta   90.00000000
_cell_angle_gamma   90.00000000
_symmetry_Int_Tables_number   1
_chemical_formula_structural   GdSClO4
_chemical_formula_sum   'Gd4 S4 Cl4 O16'
_cell_volume   421.50538789
_cell_formula_units_Z   4
loop_
 _symmetry_equiv_pos_site_id
 _symmetry_equiv_pos_as_xyz
  1  'x, y, z'
loop_
 _atom_site_type_symbol
 _atom_site_label
 _atom_site_symmetry_multiplicity
 _atom_site_fract_x
 _atom_site_fract_y
 _atom_site_fract_z
 _atom_site_occupancy
  Gd  Gd0  1  0.09538700  0.82678000  0.23651300  1
  Gd  Gd1  1  0.59538700  0.67322000  0.76348700  1
  Gd  Gd2  1  0.90461300  0.17322000  0.76348700  1
  Gd  Gd3  1  0.40461300  0.32678000  0.23651300  1
  S  S0  1  0.05932600  0.70849100  0.64365100  1
  S  S1  1  0.55932600  0.79150900  0.35634900  1
  S  S2  1  0.44067400  0.20849100  0.64365100  1
  S  S3  1  0.94067400  0.29150900  0.35634900  1
  Cl  Cl0  1  0.13954000  0.18912300  0.03023200  1
  Cl  Cl1  1  0.36046000  0.68912300  0.03023200  1
  Cl  Cl2  1  0.63954000  0.31087700  0.96976800  1
  Cl  Cl3  1  0.86046000  0.81087700  0.96976800  1
  O  O0  1  0.42790300  0.96792300  0.27873600  1
  O  O1  1  0.07209700  0.46792300  0.27873600  1
  O  O2  1  0.94214200  0.88738300  0.65581800  1
  O  O3  1  0.24611300  0.19530800  0.71882900  1
  O  O4  1  0.41241000  0.20415900  0.49250700  1
  O  O5  1  0.05785800  0.11261700  0.34418200  1
  O  O6  1  0.44214200  0.61261700  0.34418200  1
  O  O7  1  0.25388700  0.69530800  0.71882900  1
  O  O8  1  0.91241000  0.29584100  0.50749300  1
  O  O9  1  0.58759000  0.79584100  0.50749300  1
  O  O10  1  0.55785800  0.38738300  0.65581800  1
  O  O11  1  0.57209700  0.03207700  0.72126400  1
  O  O12  1  0.92790300  0.53207700  0.72126400  1
  O  O13  1  0.08759000  0.70415900  0.49250700  1
  O  O14  1  0.74611300  0.30469200  0.28117100  1
  O  O15  1  0.75388700  0.80469200  0.28117100  1
loop_
_geom_bond_atom_site_label_1
_geom_bond_atom_site_label_2
_geom_bond_distance
_geom_bond_site_symmetry_2
Gd0 O15 2.304851 1_455
Gd0 O13 2.370282 1_555
Gd0 O1 2.402679 1_555
Gd0 O5 2.458403 1_565
Gd0 O0 2.486897 1_555
Gd0 O6 2.782735 1_555
Gd1 O7 2.304851 1_555
Gd1 O9 2.370282 1_555
Gd1 O11 2.402679 1_565
Gd1 O10 2.458403 1_555
Gd1 O12 2.486897 1_555
Gd1 O2 2.782735 1_555
Gd2 O3 2.304851 1_655
Gd2 O8 2.370282 1_555
Gd2 O12 2.402679 1_555
Gd2 O2 2.458403 1_545
Gd2 O11 2.486897 1_555
Gd2 O10 2.782735 1_555
Gd3 O14 2.304851 1_555
Gd3 O4 2.370282 1_555
Gd3 O0 2.402679 1_545
Gd3 O6 2.458403 1_555
Gd3 O1 2.486897 1_555
Gd3 O5 2.782735 1_555
Cl0 Gd0 2.763146 1_545
Cl0 Gd3 2.974260 1_555
Cl0 Gd2 3.012977 1_454
Cl1 Gd3 2.763146 1_555
Cl1 Gd0 2.974260 1_555
Cl1 Gd1 3.012977 1_554
Cl2 Gd1 2.763146 1_555
Cl2 Gd2 2.974260 1_555
Cl2 Gd3 3.012977 1_556
Cl3 Gd2 2.763146 1_565
Cl3 Gd1 2.974260 1_555
Cl3 Gd0 3.012977 1_656
O0 S1 1.522483 1_555
O1 S3 1.522483 1_455
O2 S0 1.486668 1_655
O3 S2 1.469164 1_555
O4 S2 1.463408 1_555
O5 S3 1.486668 1_455
O6 S1 1.486668 1_555
O7 S0 1.469164 1_555
O8 S3 1.463408 1_555
O9 S1 1.463408 1_555
O10 S2 1.486668 1_555
O11 S2 1.522483 1_555
O12 S0 1.522483 1_655
O13 S0 1.463408 1_555
O14 S3 1.469164 1_555
O15 S1 1.469164 1_555
