# generated using pymatgen
data_NaBeSi3HO8
_symmetry_space_group_name_H-M   'P 1'
_cell_length_a   7.44132800
_cell_length_b   12.84561900
_cell_length_c   13.78132300
_cell_angle_alpha   90.00000000
_cell_angle_beta   90.00000000
_cell_angle_gamma   90.00000000
_symmetry_Int_Tables_number   1
_chemical_formula_structural   NaBeSi3HO8
_chemical_formula_sum   'Na8 Be8 Si24 H8 O64'
_cell_volume   1317.33550217
_cell_formula_units_Z   8
loop_
 _symmetry_equiv_pos_site_id
 _symmetry_equiv_pos_as_xyz
  1  'x, y, z'
loop_
 _atom_site_type_symbol
 _atom_site_label
 _atom_site_symmetry_multiplicity
 _atom_site_fract_x
 _atom_site_fract_y
 _atom_site_fract_z
 _atom_site_occupancy
  Na  Na0  1  0.50135100  0.10174500  0.07082100  1
  Na  Na1  1  0.50135100  0.10174500  0.42917900  1
  Na  Na2  1  0.00135100  0.39825500  0.57082100  1
  Na  Na3  1  0.99864900  0.60174500  0.42917900  1
  Na  Na4  1  0.49864900  0.89825500  0.92917900  1
  Na  Na5  1  0.99864900  0.60174500  0.07082100  1
  Na  Na6  1  0.49864900  0.89825500  0.57082100  1
  Na  Na7  1  0.00135100  0.39825500  0.92917900  1
  Be  Be0  1  0.65607400  0.50537400  0.49966000  1
  Be  Be1  1  0.65607400  0.50537400  0.00034000  1
  Be  Be2  1  0.15607400  0.99462600  0.99966000  1
  Be  Be3  1  0.84392600  0.00537400  0.00034000  1
  Be  Be4  1  0.34392600  0.49462600  0.50034000  1
  Be  Be5  1  0.34392600  0.49462600  0.99966000  1
  Be  Be6  1  0.84392600  0.00537400  0.49966000  1
  Be  Be7  1  0.15607400  0.99462600  0.50034000  1
  Si  Si0  1  0.98397200  0.84085700  0.86193800  1
  Si  Si1  1  0.48397200  0.65914300  0.13806200  1
  Si  Si2  1  0.19394300  0.83207600  0.36215400  1
  Si  Si3  1  0.30605700  0.33207600  0.13784600  1
  Si  Si4  1  0.80605700  0.16792400  0.86215400  1
  Si  Si5  1  0.26916500  0.65657300  0.86337400  1
  Si  Si6  1  0.73083500  0.34342700  0.13662600  1
  Si  Si7  1  0.73083500  0.34342700  0.36337400  1
  Si  Si8  1  0.26916500  0.65657300  0.63662600  1
  Si  Si9  1  0.01602800  0.15914300  0.36193800  1
  Si  Si10  1  0.80605700  0.16792400  0.63784600  1
  Si  Si11  1  0.98397200  0.84085700  0.63806200  1
  Si  Si12  1  0.69394300  0.66792400  0.86215400  1
  Si  Si13  1  0.76916500  0.84342700  0.36337400  1
  Si  Si14  1  0.23083500  0.15657300  0.63662600  1
  Si  Si15  1  0.51602800  0.34085700  0.63806200  1
  Si  Si16  1  0.01602800  0.15914300  0.13806200  1
  Si  Si17  1  0.51602800  0.34085700  0.86193800  1
  Si  Si18  1  0.30605700  0.33207600  0.36215400  1
  Si  Si19  1  0.19394300  0.83207600  0.13784600  1
  Si  Si20  1  0.48397200  0.65914300  0.36193800  1
  Si  Si21  1  0.76916500  0.84342700  0.13662600  1
  Si  Si22  1  0.23083500  0.15657300  0.86337400  1
  Si  Si23  1  0.69394300  0.66792400  0.63784600  1
  H  H0  1  0.11682700  0.50881400  0.25000000  1
  H  H1  1  0.88317300  0.49118600  0.75000000  1
  H  H2  1  0.38317300  0.00881400  0.25000000  1
  H  H3  1  0.58858800  0.00159200  0.25000000  1
  H  H4  1  0.91141200  0.50159200  0.25000000  1
  H  H5  1  0.08858800  0.49840800  0.75000000  1
  H  H6  1  0.61682700  0.99118600  0.75000000  1
  H  H7  1  0.41141200  0.99840800  0.75000000  1
  O  O0  1  0.77170300  0.58471000  0.56216100  1
  O  O1  1  0.28929100  0.71711300  0.37659700  1
  O  O2  1  0.76559200  0.38123000  0.25000000  1
  O  O3  1  0.27170300  0.91529000  0.06216100  1
  O  O4  1  0.23440800  0.61877000  0.75000000  1
  O  O5  1  0.49948800  0.61850900  0.25000000  1
  O  O6  1  0.47882400  0.69611900  0.87480700  1
  O  O7  1  0.76841700  0.12730600  0.75000000  1
  O  O8  1  0.00051200  0.11850900  0.25000000  1
  O  O9  1  0.73158300  0.62730600  0.75000000  1
  O  O10  1  0.71070900  0.28288700  0.87659700  1
  O  O11  1  0.34948700  0.26175000  0.88447300  1
  O  O12  1  0.97882400  0.80388100  0.37480700  1
  O  O13  1  0.50659900  0.43897400  0.93445700  1
  O  O14  1  0.84948700  0.23825000  0.38447300  1
  O  O15  1  0.28808500  0.06497500  0.56363100  1
  O  O16  1  0.00659900  0.06102600  0.06554300  1
  O  O17  1  0.97882400  0.80388100  0.12519300  1
  O  O18  1  0.72829700  0.08471000  0.56216100  1
  O  O19  1  0.99948800  0.88149100  0.75000000  1
  O  O20  1  0.02117600  0.19611900  0.62519300  1
  O  O21  1  0.02117600  0.19611900  0.87480700  1
  O  O22  1  0.22829700  0.41529000  0.43783900  1
  O  O23  1  0.72829700  0.08471000  0.93783900  1
  O  O24  1  0.28808500  0.06497500  0.93636900  1
  O  O25  1  0.50659900  0.43897400  0.56554300  1
  O  O26  1  0.49054900  0.05336500  0.25000000  1
  O  O27  1  0.34948700  0.26175000  0.61552700  1
  O  O28  1  0.78808500  0.43502500  0.43636900  1
  O  O29  1  0.71070900  0.28288700  0.62340300  1
  O  O30  1  0.99054900  0.44663500  0.75000000  1
  O  O31  1  0.47882400  0.69611900  0.62519300  1
  O  O32  1  0.52117600  0.30388100  0.12519300  1
  O  O33  1  0.22829700  0.41529000  0.06216100  1
  O  O34  1  0.23158300  0.87269400  0.25000000  1
  O  O35  1  0.77170300  0.58471000  0.93783900  1
  O  O36  1  0.99340100  0.93897400  0.56554300  1
  O  O37  1  0.78808500  0.43502500  0.06363100  1
  O  O38  1  0.15051300  0.76175000  0.61552700  1
  O  O39  1  0.21070900  0.21711300  0.37659700  1
  O  O40  1  0.73440800  0.88123000  0.25000000  1
  O  O41  1  0.49340100  0.56102600  0.06554300  1
  O  O42  1  0.78929100  0.78288700  0.87659700  1
  O  O43  1  0.65051300  0.73825000  0.11552700  1
  O  O44  1  0.50945100  0.94663500  0.75000000  1
  O  O45  1  0.21191500  0.56497500  0.56363100  1
  O  O46  1  0.27170300  0.91529000  0.43783900  1
  O  O47  1  0.26841700  0.37269400  0.25000000  1
  O  O48  1  0.21191500  0.56497500  0.93636900  1
  O  O49  1  0.00659900  0.06102600  0.43445700  1
  O  O50  1  0.78929100  0.78288700  0.62340300  1
  O  O51  1  0.71191500  0.93502500  0.06363100  1
  O  O52  1  0.28929100  0.71711300  0.12340300  1
  O  O53  1  0.52117600  0.30388100  0.37480700  1
  O  O54  1  0.00945100  0.55336500  0.25000000  1
  O  O55  1  0.49340100  0.56102600  0.43445700  1
  O  O56  1  0.65051300  0.73825000  0.38447300  1
  O  O57  1  0.21070900  0.21711300  0.12340300  1
  O  O58  1  0.50051200  0.38149100  0.75000000  1
  O  O59  1  0.71191500  0.93502500  0.43636900  1
  O  O60  1  0.15051300  0.76175000  0.88447300  1
  O  O61  1  0.99340100  0.93897400  0.93445700  1
  O  O62  1  0.84948700  0.23825000  0.11552700  1
  O  O63  1  0.26559200  0.11877000  0.75000000  1
loop_
_geom_bond_atom_site_label_1
_geom_bond_atom_site_label_2
_geom_bond_distance
_geom_bond_site_symmetry_2
Na0 O24 2.484944 1_554
Na0 O23 2.501706 1_554
Na0 O26 2.547596 1_555
Na0 O51 2.655459 1_545
Na0 O32 2.706543 1_555
Na0 O57 2.720093 1_555
Na0 O3 2.944687 1_545
Na1 O15 2.484944 1_555
Na1 O18 2.501706 1_555
Na1 O26 2.547596 1_555
Na1 O59 2.655459 1_545
Na1 O53 2.706543 1_555
Na1 O39 2.720093 1_555
Na1 O46 2.944687 1_545
Na2 O28 2.484944 1_455
Na2 O22 2.501706 1_555
Na2 O30 2.547596 1_455
Na2 O45 2.655459 1_555
Na2 O20 2.706543 1_555
Na2 O29 2.720093 1_455
Na2 O0 2.944687 1_455
Na3 O45 2.484944 1_655
Na3 O0 2.501706 1_555
Na3 O54 2.547596 1_655
Na3 O28 2.655459 1_555
Na3 O12 2.706543 1_555
Na3 O1 2.720093 1_655
Na3 O22 2.944687 1_655
Na4 O51 2.484944 1_556
Na4 O3 2.501706 1_556
Na4 O44 2.547596 1_555
Na4 O24 2.655459 1_565
Na4 O6 2.706543 1_555
Na4 O42 2.720093 1_555
Na4 O23 2.944687 1_565
Na5 O48 2.484944 1_654
Na5 O35 2.501706 1_554
Na5 O54 2.547596 1_655
Na5 O37 2.655459 1_555
Na5 O17 2.706543 1_555
Na5 O52 2.720093 1_655
Na5 O33 2.944687 1_655
Na6 O59 2.484944 1_555
Na6 O46 2.501706 1_555
Na6 O44 2.547596 1_555
Na6 O15 2.655459 1_565
Na6 O31 2.706543 1_555
Na6 O50 2.720093 1_555
Na6 O18 2.944687 1_565
Na7 O37 2.484944 1_456
Na7 O33 2.501706 1_556
Na7 O30 2.547596 1_455
Na7 O48 2.655459 1_555
Na7 O21 2.706543 1_555
Na7 O10 2.720093 1_455
Na7 O35 2.944687 1_455
Be0 O0 1.587724 1_555
Be0 O28 1.594493 1_555
Be0 O55 1.668481 1_555
Be0 O25 1.670060 1_555
Be1 O35 1.587724 1_554
Be1 O37 1.594493 1_555
Be1 O41 1.668481 1_555
Be1 O13 1.670060 1_554
Be2 O3 1.587724 1_556
Be2 O24 1.594493 1_565
Be2 O61 1.668481 1_455
Be2 O16 1.670060 1_566
Be3 O23 1.587724 1_554
Be3 O51 1.594493 1_545
Be3 O16 1.668481 1_655
Be3 O61 1.670060 1_544
Be4 O22 1.587724 1_555
Be4 O45 1.594493 1_555
Be4 O25 1.668481 1_555
Be4 O55 1.670060 1_555
Be5 O33 1.587724 1_556
Be5 O48 1.594493 1_555
Be5 O13 1.668481 1_555
Be5 O41 1.670060 1_556
Be6 O18 1.587724 1_555
Be6 O59 1.594493 1_545
Be6 O49 1.668481 1_655
Be6 O36 1.670060 1_545
Be7 O46 1.587724 1_555
Be7 O15 1.594493 1_565
Be7 O36 1.668481 1_455
Be7 O49 1.670060 1_565
H0 O54 0.982824 1_555
H1 O30 0.982824 1_555
H2 O26 0.982824 1_555
H3 O26 0.987182 1_555
H4 O54 0.987182 1_655
H5 O30 0.987182 1_455
H6 O44 0.982824 1_555
H7 O44 0.987182 1_555
O0 Si23 1.601679 1_555
O1 Si20 1.641347 1_555
O1 Si2 1.650419 1_555
O2 Si7 1.656483 1_555
O2 Si6 1.656483 1_555
O3 Si19 1.601679 1_555
O4 Si8 1.656483 1_555
O4 Si5 1.656483 1_555
O5 Si20 1.632655 1_555
O5 Si1 1.632655 1_555
O6 Si5 1.648309 1_555
O6 Si12 1.650470 1_555
O7 Si10 1.655192 1_555
O7 Si4 1.655192 1_555
O8 Si9 1.632655 1_555
O8 Si16 1.632655 1_555
O9 Si23 1.655192 1_555
O9 Si12 1.655192 1_555
O10 Si17 1.641347 1_555
O10 Si4 1.650419 1_555
O11 Si17 1.632451 1_555
O11 Si22 1.639965 1_555
O12 Si13 1.648309 1_555
O12 Si2 1.650470 1_655
O13 Si17 1.610056 1_555
O14 Si9 1.632451 1_655
O14 Si7 1.639965 1_555
O15 Si14 1.605592 1_555
O16 Si16 1.610056 1_555
O17 Si21 1.648309 1_555
O17 Si19 1.650470 1_655
O18 Si10 1.601679 1_555
O19 Si11 1.632655 1_555
O19 Si0 1.632655 1_555
O20 Si14 1.648309 1_555
O20 Si10 1.650470 1_455
O21 Si22 1.648309 1_555
O21 Si4 1.650470 1_455
O22 Si18 1.601679 1_555
O23 Si4 1.601679 1_555
O24 Si22 1.605592 1_555
O25 Si15 1.610056 1_555
O27 Si15 1.632451 1_555
O27 Si14 1.639965 1_555
O28 Si7 1.605592 1_555
O29 Si15 1.641347 1_555
O29 Si10 1.650419 1_555
O31 Si8 1.648309 1_555
O31 Si23 1.650470 1_555
O32 Si6 1.648309 1_555
O32 Si3 1.650470 1_555
O33 Si3 1.601679 1_555
O34 Si2 1.655192 1_555
O34 Si19 1.655192 1_555
O35 Si12 1.601679 1_555
O36 Si11 1.610056 1_555
O37 Si6 1.605592 1_555
O38 Si11 1.632451 1_455
O38 Si8 1.639965 1_555
O39 Si9 1.641347 1_555
O39 Si18 1.650419 1_555
O40 Si13 1.656483 1_555
O40 Si21 1.656483 1_555
O41 Si1 1.610056 1_555
O42 Si0 1.641347 1_555
O42 Si12 1.650419 1_555
O43 Si1 1.632451 1_555
O43 Si21 1.639965 1_555
O45 Si8 1.605592 1_555
O46 Si2 1.601679 1_555
O47 Si18 1.655192 1_555
O47 Si3 1.655192 1_555
O48 Si5 1.605592 1_555
O49 Si9 1.610056 1_555
O50 Si11 1.641347 1_555
O50 Si23 1.650419 1_555
O51 Si21 1.605592 1_555
O52 Si1 1.641347 1_555
O52 Si19 1.650419 1_555
O53 Si7 1.648309 1_555
O53 Si18 1.650470 1_555
O55 Si20 1.610056 1_555
O56 Si20 1.632451 1_555
O56 Si13 1.639965 1_555
O57 Si16 1.641347 1_555
O57 Si3 1.650419 1_555
O58 Si15 1.632655 1_555
O58 Si17 1.632655 1_555
O59 Si13 1.605592 1_555
O60 Si0 1.632451 1_455
O60 Si5 1.639965 1_555
O61 Si0 1.610056 1_555
O62 Si16 1.632451 1_655
O62 Si6 1.639965 1_555
O63 Si14 1.656483 1_555
O63 Si22 1.656483 1_555
