# generated using pymatgen
data_YbGePd
_symmetry_space_group_name_H-M   'P 1'
_cell_length_a   11.49385219
_cell_length_b   11.49385219
_cell_length_c   11.49385219
_cell_angle_alpha   157.70140048
_cell_angle_beta   141.85666436
_cell_angle_gamma   44.62765166
_symmetry_Int_Tables_number   1
_chemical_formula_structural   YbGePd
_chemical_formula_sum   'Yb6 Ge6 Pd6'
_cell_volume   355.01854811
_cell_formula_units_Z   6
loop_
 _symmetry_equiv_pos_site_id
 _symmetry_equiv_pos_as_xyz
  1  'x, y, z'
loop_
 _atom_site_type_symbol
 _atom_site_label
 _atom_site_symmetry_multiplicity
 _atom_site_fract_x
 _atom_site_fract_y
 _atom_site_fract_z
 _atom_site_occupancy
  Yb  Yb0  1  0.46279900  0.00000000  0.46279900  1
  Yb  Yb1  1  0.05024200  0.50000000  0.55024200  1
  Yb  Yb2  1  0.11902100  0.66398400  0.45503600  1
  Yb  Yb3  1  0.79105200  0.33601600  0.45503600  1
  Yb  Yb4  1  0.38622000  0.83127100  0.55494900  1
  Yb  Yb5  1  0.72367800  0.16872900  0.55494900  1
  Ge  Ge0  1  0.90540300  0.06236200  0.84304000  1
  Ge  Ge1  1  0.93615000  0.76903700  0.16711300  1
  Ge  Ge2  1  0.78067800  0.93763800  0.84304000  1
  Ge  Ge3  1  0.23945000  0.39878800  0.84066200  1
  Ge  Ge4  1  0.44187300  0.60121200  0.84066200  1
  Ge  Ge5  1  0.39807500  0.23096300  0.16711300  1
  Pd  Pd0  1  0.73893700  0.57093100  0.16800600  1
  Pd  Pd1  1  0.59707500  0.42906900  0.16800600  1
  Pd  Pd2  1  0.06865800  0.89588000  0.17277800  1
  Pd  Pd3  1  0.10926300  0.26956600  0.83969800  1
  Pd  Pd4  1  0.27689800  0.10412000  0.17277800  1
  Pd  Pd5  1  0.57013200  0.73043400  0.83969800  1
loop_
_geom_bond_atom_site_label_1
_geom_bond_atom_site_label_2
_geom_bond_distance
_geom_bond_site_symmetry_2
Ge0 Pd0 2.588689 1_545
Ge0 Pd0 2.588693 1_556
Ge0 Pd4 2.631128 1_656
Ge0 Ge2 2.652434 1_545
Ge0 Yb1 3.020044 1_645
Ge0 Yb1 3.020047 1_656
Ge0 Yb5 3.130390 1_555
Ge0 Yb0 3.148984 1_555
Ge0 Yb2 3.212126 1_656
Ge0 Yb2 3.212126 1_645
Ge1 Pd3 2.572972 1_654
Ge1 Pd3 2.572975 1_665
Ge1 Pd5 2.592697 1_554
Ge1 Pd2 2.697822 1_655
Ge1 Yb3 3.083188 1_565
Ge1 Yb3 3.083188 1_554
Ge1 Yb2 3.109379 1_655
Ge1 Yb5 3.193724 1_554
Ge1 Yb5 3.193724 1_565
Ge1 Yb4 3.199681 1_655
Ge2 Pd1 2.588690 1_566
Ge2 Pd1 2.588690 1_555
Ge2 Pd2 2.631135 1_656
Ge2 Yb1 3.020042 1_655
Ge2 Yb1 3.020042 1_666
Ge2 Yb4 3.130395 1_555
Ge2 Yb0 3.148976 1_565
Ge2 Yb3 3.212126 1_555
Ge2 Yb3 3.212126 1_566
Ge3 Pd1 2.541692 1_556
Ge3 Pd2 2.556091 1_545
Ge3 Pd2 2.556091 1_556
Ge3 Pd3 2.748099 1_555
Ge3 Yb1 3.064546 1_555
Ge3 Yb4 3.097085 1_545
Ge3 Yb4 3.097085 1_556
Ge3 Yb3 3.189347 1_455
Ge3 Yb0 3.227088 1_555
Ge3 Yb0 3.227088 1_566
Ge4 Pd0 2.541693 1_556
Ge4 Pd4 2.556087 1_566
Ge4 Pd4 2.556091 1_555
Ge4 Pd5 2.748099 1_555
Ge4 Yb1 3.064536 1_555
Ge4 Yb5 3.097090 1_566
Ge4 Yb5 3.097093 1_555
Ge4 Yb2 3.189349 1_555
Ge4 Yb0 3.227081 1_566
Ge4 Yb0 3.227084 1_555
Ge5 Pd5 2.572975 1_555
Ge5 Pd5 2.572979 1_544
Ge5 Pd3 2.592697 1_554
Ge5 Pd4 2.697812 1_555
Ge5 Yb2 3.083171 1_555
Ge5 Yb2 3.083178 1_544
Ge5 Yb3 3.109395 1_555
Ge5 Yb4 3.193729 1_555
Ge5 Yb4 3.193732 1_544
Ge5 Yb5 3.199680 1_555
Pd0 Yb2 2.926470 1_655
Pd0 Pd1 3.016886 1_555
Pd0 Yb0 3.096902 1_565
Pd0 Yb0 3.096902 1_554
Pd0 Yb5 3.160117 1_565
Pd0 Yb5 3.160117 1_554
Pd0 Yb1 3.243214 1_655
Pd1 Yb3 2.926460 1_555
Pd1 Yb0 3.096902 1_554
Pd1 Yb0 3.096902 1_565
Pd1 Yb4 3.160117 1_555
Pd1 Yb4 3.160117 1_544
Pd1 Yb1 3.243214 1_655
Pd2 Yb3 3.038958 1_465
Pd2 Yb3 3.038958 1_454
Pd2 Yb0 3.106191 1_565
Pd2 Yb4 3.182468 1_555
Pd2 Yb1 3.269503 1_565
Pd2 Yb1 3.269503 1_554
Pd3 Yb5 3.028710 1_455
Pd3 Yb4 3.045598 1_556
Pd3 Yb4 3.045601 1_545
Pd3 Yb3 3.216364 1_455
Pd3 Yb2 3.275912 1_556
Pd3 Yb2 3.275918 1_545
Pd4 Yb2 3.038959 1_555
Pd4 Yb2 3.038962 1_544
Pd4 Yb0 3.106191 1_555
Pd4 Yb5 3.182468 1_555
Pd4 Yb1 3.269503 1_544
Pd4 Yb1 3.269503 1_555
Pd5 Yb4 3.028720 1_555
Pd5 Yb5 3.045593 1_555
Pd5 Yb5 3.045593 1_566
Pd5 Yb2 3.216355 1_555
Pd5 Yb3 3.275928 1_566
Pd5 Yb3 3.275928 1_555
