# generated using pymatgen
data_Li9Co3P8O29
_symmetry_space_group_name_H-M   'P 1'
_cell_length_a   9.81197716
_cell_length_b   9.81197716
_cell_length_c   13.74082558
_cell_angle_alpha   89.37360427
_cell_angle_beta   89.37360427
_cell_angle_gamma   60.06157630
_symmetry_Int_Tables_number   1
_chemical_formula_structural   Li9Co3P8O29
_chemical_formula_sum   'Li18 Co6 P16 O58'
_cell_volume   1146.28082011
_cell_formula_units_Z   2
loop_
 _symmetry_equiv_pos_site_id
 _symmetry_equiv_pos_as_xyz
  1  'x, y, z'
loop_
 _atom_site_type_symbol
 _atom_site_label
 _atom_site_symmetry_multiplicity
 _atom_site_fract_x
 _atom_site_fract_y
 _atom_site_fract_z
 _atom_site_occupancy
  Li  Li0  1  0.23444000  0.66410900  0.93646400  1
  Li  Li1  1  0.90473500  0.32873400  0.56468000  1
  Li  Li2  1  0.10107400  0.23741200  0.93604300  1
  Li  Li3  1  0.89892600  0.76258800  0.06395700  1
  Li  Li4  1  0.33546000  0.33568400  0.12038900  1
  Li  Li5  1  0.76258800  0.89892600  0.56395700  1
  Li  Li6  1  0.66454000  0.66431600  0.87961100  1
  Li  Li7  1  0.67126600  0.09526500  0.93532000  1
  Li  Li8  1  0.66410900  0.23444000  0.43646400  1
  Li  Li9  1  0.00000000  0.00000000  0.50000000  1
  Li  Li10  1  0.32873400  0.90473500  0.06468000  1
  Li  Li11  1  0.00000000  0.00000000  0.00000000  1
  Li  Li12  1  0.66431600  0.66454000  0.37961100  1
  Li  Li13  1  0.23741200  0.10107400  0.43604300  1
  Li  Li14  1  0.09526500  0.67126600  0.43532000  1
  Li  Li15  1  0.33589100  0.76556000  0.56353600  1
  Li  Li16  1  0.33568400  0.33546000  0.62038900  1
  Li  Li17  1  0.76556000  0.33589100  0.06353600  1
  Co  Co0  1  0.56901100  0.99790600  0.75245500  1
  Co  Co1  1  0.43098900  0.00209400  0.24754500  1
  Co  Co2  1  0.00209400  0.43098900  0.74754500  1
  Co  Co3  1  0.99790600  0.56901100  0.25245500  1
  Co  Co4  1  0.43720600  0.56279400  0.75000000  1
  Co  Co5  1  0.56279400  0.43720600  0.25000000  1
  P  P0  1  0.08970700  0.23296400  0.15676900  1
  P  P1  1  0.66452500  0.66733700  0.12571400  1
  P  P2  1  0.68573300  0.22287300  0.65656000  1
  P  P3  1  0.91029300  0.76703600  0.84323100  1
  P  P4  1  0.31723600  0.90961300  0.84582600  1
  P  P5  1  0.68276400  0.09038700  0.15417400  1
  P  P6  1  0.33266300  0.33547500  0.37428600  1
  P  P7  1  0.77712700  0.31426700  0.84344000  1
  P  P8  1  0.66733700  0.66452500  0.62571400  1
  P  P9  1  0.23296400  0.08970700  0.65676900  1
  P  P10  1  0.22287300  0.68573300  0.15656000  1
  P  P11  1  0.09038700  0.68276400  0.65417400  1
  P  P12  1  0.33547500  0.33266300  0.87428600  1
  P  P13  1  0.76703600  0.91029300  0.34323100  1
  P  P14  1  0.31426700  0.77712700  0.34344000  1
  P  P15  1  0.90961300  0.31723600  0.34582600  1
  O  O0  1  0.47825300  0.63050000  0.33533500  1
  O  O1  1  0.67283700  0.07282000  0.65859100  1
  O  O2  1  0.92718000  0.32716300  0.84140900  1
  O  O3  1  0.78418000  0.99949800  0.24909000  1
  O  O4  1  0.10831300  0.51788700  0.66456300  1
  O  O5  1  0.78888900  0.21111100  0.75000000  1
  O  O6  1  0.00298300  0.76294700  0.93238500  1
  O  O7  1  0.50733500  0.81173100  0.16050200  1
  O  O8  1  0.21582000  0.00050200  0.75091000  1
  O  O9  1  0.62201400  0.89085200  0.33154600  1
  O  O10  1  0.78055800  0.21978100  0.93324200  1
  O  O11  1  0.99551600  0.77590500  0.56573600  1
  O  O12  1  0.18826900  0.49266500  0.33949800  1
  O  O13  1  0.63050000  0.47825300  0.83533500  1
  O  O14  1  0.21978100  0.78055900  0.43324200  1
  O  O15  1  0.22409500  0.00448400  0.93426400  1
  O  O16  1  0.51320400  0.67144300  0.66680400  1
  O  O17  1  0.89085200  0.62201400  0.83154600  1
  O  O18  1  0.00050200  0.21582000  0.25091000  1
  O  O19  1  0.32153600  0.19341900  0.33467400  1
  O  O20  1  0.74775500  0.33038000  0.34691400  1
  O  O21  1  0.08305800  0.25242300  0.65444700  1
  O  O22  1  0.07282000  0.67283700  0.15859100  1
  O  O23  1  0.76294700  0.00298300  0.43238500  1
  O  O24  1  0.34120400  0.32838400  0.48445100  1
  O  O25  1  0.21944100  0.78021900  0.06675800  1
  O  O26  1  0.66962000  0.25224500  0.15308600  1
  O  O27  1  0.51788700  0.10831300  0.16456300  1
  O  O28  1  0.67846400  0.80658100  0.66532600  1
  O  O29  1  0.99949800  0.78418000  0.74909000  1
  O  O30  1  0.89168700  0.48211300  0.33543700  1
  O  O31  1  0.65879600  0.67161600  0.51554900  1
  O  O32  1  0.25242300  0.08305800  0.15444700  1
  O  O33  1  0.32838400  0.34120400  0.98445100  1
  O  O34  1  0.32855700  0.48679600  0.83319600  1
  O  O35  1  0.37798600  0.10914800  0.66845400  1
  O  O36  1  0.81173100  0.50733500  0.66050200  1
  O  O37  1  0.78021900  0.21944100  0.56675800  1
  O  O38  1  0.77590500  0.99551600  0.06573600  1
  O  O39  1  0.67144300  0.51320400  0.16680400  1
  O  O40  1  0.32716300  0.92718000  0.34140900  1
  O  O41  1  0.23705300  0.99701700  0.56761500  1
  O  O42  1  0.48211300  0.89168700  0.83543700  1
  O  O43  1  0.10914800  0.37798600  0.16845400  1
  O  O44  1  0.00448400  0.22409500  0.43426400  1
  O  O45  1  0.25224500  0.66962000  0.65308600  1
  O  O46  1  0.52174700  0.36950000  0.66466500  1
  O  O47  1  0.80658100  0.67846400  0.16532600  1
  O  O48  1  0.49266500  0.18826900  0.83949800  1
  O  O49  1  0.99701700  0.23705300  0.06761500  1
  O  O50  1  0.48679600  0.32855700  0.33319600  1
  O  O51  1  0.36950000  0.52174700  0.16466500  1
  O  O52  1  0.74757700  0.91694200  0.84555300  1
  O  O53  1  0.67161600  0.65879600  0.01554900  1
  O  O54  1  0.21111100  0.78888900  0.25000000  1
  O  O55  1  0.91694200  0.74757700  0.34555300  1
  O  O56  1  0.19341900  0.32153600  0.83467400  1
  O  O57  1  0.33038000  0.74775500  0.84691400  1
loop_
_geom_bond_atom_site_label_1
_geom_bond_atom_site_label_2
_geom_bond_distance
_geom_bond_site_symmetry_2
Li0 O57 1.948751 1_555
Li0 O6 1.975995 1_555
Li0 O34 2.077226 1_555
Li0 O25 2.096764 1_556
Li1 O21 1.965421 1_655
Li1 O37 1.987408 1_555
Li1 O36 2.016274 1_555
Li1 O44 2.054820 1_655
Li2 O2 1.975193 1_455
Li2 O15 1.981925 1_555
Li2 O56 2.033777 1_555
Li2 O49 2.067386 1_456
Li3 O22 1.975193 1_655
Li3 O38 1.981925 1_555
Li3 O47 2.033777 1_555
Li3 O6 2.067386 1_654
Li4 O33 1.869138 1_554
Li4 O51 2.109984 1_555
Li4 O27 2.134909 1_555
Li4 O43 2.143213 1_555
Li5 O1 1.975193 1_565
Li5 O11 1.981925 1_555
Li5 O28 2.033777 1_555
Li5 O23 2.067386 1_565
Li6 O53 1.869138 1_556
Li6 O13 2.109984 1_555
Li6 O42 2.134909 1_555
Li6 O17 2.143213 1_555
Li7 O52 1.965421 1_545
Li7 O10 1.987400 1_555
Li7 O48 2.016274 1_555
Li7 O38 2.054820 1_546
Li8 O20 1.948751 1_555
Li8 O23 1.975995 1_555
Li8 O50 2.077226 1_555
Li8 O37 2.096764 1_555
Li9 O14 2.343776 1_545
Li9 O37 2.343776 1_455
Li9 O44 2.388489 1_555
Li9 O11 2.388489 1_445
Li9 O23 2.500569 1_455
Li9 O41 2.500569 1_545
Li10 O32 1.965421 1_565
Li10 O25 1.987408 1_555
Li10 O7 2.016274 1_555
Li10 O15 2.054820 1_564
Li11 O25 2.343776 1_545
Li11 O10 2.343781 1_454
Li11 O15 2.388489 1_554
Li11 O38 2.388489 1_445
Li11 O6 2.500569 1_544
Li11 O49 2.500569 1_455
Li12 O31 1.869138 1_555
Li12 O0 2.109984 1_555
Li12 O30 2.134909 1_555
Li12 O9 2.143213 1_555
Li13 O40 1.975193 1_545
Li13 O44 1.981925 1_555
Li13 O19 2.033777 1_555
Li13 O41 2.067386 1_545
Li14 O55 1.965421 1_455
Li14 O14 1.987408 1_555
Li14 O12 2.016274 1_555
Li14 O11 2.054820 1_455
Li15 O45 1.948751 1_555
Li15 O41 1.975995 1_555
Li15 O16 2.077226 1_555
Li15 O14 2.096764 1_555
Li16 O24 1.869138 1_555
Li16 O46 2.109984 1_555
Li16 O4 2.134909 1_555
Li16 O35 2.143213 1_555
Li17 O26 1.948751 1_555
Li17 O49 1.975995 1_555
Li17 O39 2.077226 1_555
Li17 O10 2.096766 1_554
Co0 O1 1.984846 1_565
Co0 O42 1.988243 1_555
Co0 O52 1.993704 1_555
Co0 O35 2.003623 1_565
Co0 O48 2.028090 1_565
Co0 O28 2.029671 1_555
Co1 O40 1.984846 1_545
Co1 O27 1.988243 1_555
Co1 O32 1.993704 1_555
Co1 O9 2.003623 1_545
Co1 O7 2.028090 1_545
Co1 O19 2.029671 1_555
Co2 O2 1.984846 1_455
Co2 O4 1.988243 1_555
Co2 O21 1.993704 1_555
Co2 O17 2.003623 1_455
Co2 O36 2.028090 1_455
Co2 O56 2.029671 1_555
Co3 O22 1.984846 1_655
Co3 O30 1.988243 1_555
Co3 O55 1.993704 1_555
Co3 O43 2.003623 1_655
Co3 O12 2.028090 1_655
Co3 O47 2.029671 1_555
Co4 O16 1.935870 1_555
Co4 O34 1.935870 1_555
Co4 O13 2.029072 1_555
Co4 O46 2.029072 1_555
Co4 O57 2.071053 1_555
Co4 O45 2.071053 1_555
Co5 O50 1.935870 1_555
Co5 O39 1.935870 1_555
Co5 O0 2.029072 1_555
Co5 O51 2.029072 1_555
Co5 O20 2.071053 1_555
Co5 O26 2.071053 1_555
O0 P14 1.536300 1_555
O1 P2 1.539313 1_555
O2 P7 1.539313 1_555
O3 P13 1.607853 1_555
O3 P5 1.613596 1_565
O4 P11 1.542716 1_555
O5 P2 1.610865 1_555
O5 P7 1.610865 1_555
O6 P3 1.521959 1_455
O7 P1 1.559551 1_555
O8 P9 1.607853 1_555
O8 P4 1.613596 1_545
O9 P13 1.537386 1_555
O10 P7 1.525786 1_555
O11 P11 1.526363 1_655
O12 P6 1.559551 1_555
O13 P7 1.536300 1_555
O14 P14 1.525783 1_555
O15 P4 1.526363 1_545
O16 P8 1.578067 1_555
O17 P3 1.537386 1_555
O18 P0 1.607853 1_555
O18 P15 1.613596 1_455
O19 P6 1.555887 1_555
O20 P15 1.527793 1_555
O21 P9 1.539301 1_555
O22 P10 1.539313 1_555
O23 P13 1.521959 1_545
O24 P6 1.515908 1_555
O25 P10 1.525783 1_555
O26 P5 1.527793 1_555
O27 P5 1.542716 1_555
O28 P8 1.555887 1_555
O29 P3 1.607853 1_555
O29 P11 1.613596 1_655
O30 P15 1.542716 1_555
O31 P8 1.515908 1_555
O32 P0 1.539301 1_555
O33 P12 1.515908 1_555
O34 P12 1.578067 1_555
O35 P9 1.537386 1_555
O36 P8 1.559551 1_555
O37 P2 1.525783 1_555
O38 P5 1.526363 1_565
O39 P1 1.578067 1_555
O40 P14 1.539313 1_555
O41 P9 1.521959 1_565
O42 P4 1.542716 1_555
O43 P0 1.537386 1_555
O44 P15 1.526363 1_455
O45 P11 1.527793 1_555
O46 P2 1.536300 1_555
O47 P1 1.555887 1_555
O48 P12 1.559551 1_555
O49 P0 1.521959 1_655
O50 P6 1.578067 1_555
O51 P10 1.536300 1_555
O52 P3 1.539301 1_555
O53 P1 1.515908 1_555
O54 P10 1.610865 1_555
O54 P14 1.610865 1_555
O55 P13 1.539301 1_555
O56 P12 1.555887 1_555
O57 P4 1.527793 1_555
