# generated using pymatgen
data_CsSi2HO5
_symmetry_space_group_name_H-M   'P 1'
_cell_length_a   5.04919700
_cell_length_b   8.98412900
_cell_length_c   13.04073100
_cell_angle_alpha   90.00000000
_cell_angle_beta   90.00000000
_cell_angle_gamma   90.00000000
_symmetry_Int_Tables_number   1
_chemical_formula_structural   CsSi2HO5
_chemical_formula_sum   'Cs4 Si8 H4 O20'
_cell_volume   591.56194910
_cell_formula_units_Z   4
loop_
 _symmetry_equiv_pos_site_id
 _symmetry_equiv_pos_as_xyz
  1  'x, y, z'
loop_
 _atom_site_type_symbol
 _atom_site_label
 _atom_site_symmetry_multiplicity
 _atom_site_fract_x
 _atom_site_fract_y
 _atom_site_fract_z
 _atom_site_occupancy
  Cs  Cs0  1  0.06711700  0.75000000  0.94183900  1
  Cs  Cs1  1  0.56711700  0.75000000  0.55816100  1
  Cs  Cs2  1  0.43288300  0.25000000  0.44183900  1
  Cs  Cs3  1  0.93288300  0.25000000  0.05816100  1
  Si  Si0  1  0.03016400  0.07116600  0.68349600  1
  Si  Si1  1  0.96983600  0.57116600  0.31650400  1
  Si  Si2  1  0.46983600  0.57116600  0.18349600  1
  Si  Si3  1  0.96983600  0.92883400  0.31650400  1
  Si  Si4  1  0.53016400  0.42883400  0.81650400  1
  Si  Si5  1  0.46983600  0.92883400  0.18349600  1
  Si  Si6  1  0.53016400  0.07116600  0.81650400  1
  Si  Si7  1  0.03016400  0.42883400  0.68349600  1
  H  H0  1  0.50000000  0.50000000  0.00000000  1
  H  H1  1  0.50000000  0.00000000  0.00000000  1
  H  H2  1  0.00000000  0.50000000  0.50000000  1
  H  H3  1  0.00000000  0.00000000  0.50000000  1
  O  O0  1  0.39651200  0.47483800  0.08357300  1
  O  O1  1  0.72616500  0.03325400  0.72212300  1
  O  O2  1  0.60348800  0.52516200  0.91642700  1
  O  O3  1  0.54687300  0.25000000  0.84589500  1
  O  O4  1  0.27383500  0.96674600  0.27787700  1
  O  O5  1  0.95312700  0.75000000  0.34589500  1
  O  O6  1  0.22616500  0.46674600  0.77787700  1
  O  O7  1  0.22616500  0.03325400  0.77787700  1
  O  O8  1  0.89651200  0.02516200  0.41642700  1
  O  O9  1  0.72616500  0.46674600  0.72212300  1
  O  O10  1  0.60348800  0.97483800  0.91642700  1
  O  O11  1  0.10348800  0.97483800  0.58357300  1
  O  O12  1  0.77383500  0.53325400  0.22212300  1
  O  O13  1  0.10348800  0.52516200  0.58357300  1
  O  O14  1  0.77383500  0.96674600  0.22212300  1
  O  O15  1  0.04687300  0.25000000  0.65410500  1
  O  O16  1  0.27383500  0.53325400  0.27787700  1
  O  O17  1  0.45312700  0.75000000  0.15410500  1
  O  O18  1  0.39651200  0.02516200  0.08357300  1
  O  O19  1  0.89651200  0.47483800  0.41642700  1
loop_
_geom_bond_atom_site_label_1
_geom_bond_atom_site_label_2
_geom_bond_distance
_geom_bond_site_symmetry_2
Cs0 O10 3.109691 1_455
Cs0 O2 3.109691 1_455
Cs0 H1 3.224478 1_566
Cs0 H0 3.224478 1_556
Cs0 O17 3.385433 1_556
Cs0 O10 3.394804 1_555
Cs0 O2 3.394804 1_555
Cs0 O7 3.419460 1_565
Cs0 O6 3.419460 1_555
Cs0 O18 3.506233 1_566
Cs0 O0 3.506233 1_556
Cs1 O11 3.109691 1_555
Cs1 O13 3.109691 1_555
Cs1 H3 3.224478 1_665
Cs1 H2 3.224478 1_655
Cs1 O5 3.385433 1_555
Cs1 O13 3.394804 1_655
Cs1 O11 3.394804 1_655
Cs1 O1 3.419460 1_565
Cs1 O9 3.419460 1_555
Cs1 O8 3.506233 1_565
Cs1 O19 3.506233 1_555
Cs2 O19 3.109691 1_555
Cs2 O8 3.109691 1_555
Cs2 H2 3.224478 1_555
Cs2 H3 3.224478 1_555
Cs2 O15 3.385433 1_555
Cs2 O19 3.394804 1_455
Cs2 O8 3.394804 1_455
Cs2 O4 3.419460 1_545
Cs2 O16 3.419460 1_555
Cs2 O13 3.506233 1_555
Cs2 O11 3.506233 1_545
Cs3 O0 3.109691 1_655
Cs3 O18 3.109691 1_655
Cs3 H0 3.224478 1_555
Cs3 H1 3.224478 1_555
Cs3 O3 3.385433 1_554
Cs3 O0 3.394804 1_555
Cs3 O18 3.394804 1_555
Cs3 O14 3.419460 1_545
Cs3 O12 3.419460 1_555
Cs3 O10 3.506233 1_544
Cs3 O2 3.506233 1_554
H0 O0 1.229602 1_555
H0 O2 1.229602 1_554
H1 O18 1.229602 1_555
H1 O10 1.229602 1_544
H2 O13 1.229602 1_555
H2 O19 1.229602 1_455
H3 O8 1.229602 1_455
H3 O11 1.229602 1_545
O0 Si2 1.607487 1_555
O1 Si6 1.615635 1_555
O1 Si0 1.651007 1_655
O2 Si4 1.607487 1_555
O3 Si4 1.653905 1_555
O3 Si6 1.653905 1_555
O4 Si5 1.615635 1_555
O4 Si3 1.651007 1_455
O5 Si1 1.653905 1_555
O5 Si3 1.653905 1_555
O6 Si7 1.615635 1_555
O6 Si4 1.651007 1_555
O7 Si0 1.615635 1_555
O7 Si6 1.651007 1_555
O8 Si3 1.607487 1_545
O9 Si4 1.615635 1_555
O9 Si7 1.651007 1_655
O10 Si6 1.607487 1_565
O11 Si0 1.607487 1_565
O12 Si1 1.615635 1_555
O12 Si2 1.651007 1_555
O13 Si7 1.607487 1_555
O14 Si3 1.615635 1_555
O14 Si5 1.651007 1_555
O15 Si0 1.653905 1_555
O15 Si7 1.653905 1_555
O16 Si2 1.615635 1_555
O16 Si1 1.651007 1_455
O17 Si5 1.653905 1_555
O17 Si2 1.653905 1_555
O18 Si5 1.607487 1_545
O19 Si1 1.607487 1_555
