# generated using pymatgen
data_AgSbPbS3
_symmetry_space_group_name_H-M   'P 1'
_cell_length_a   12.90212900
_cell_length_b   6.07077800
_cell_length_c   7.69787311
_cell_angle_alpha   88.97986643
_cell_angle_beta   90.00000000
_cell_angle_gamma   90.00000000
_symmetry_Int_Tables_number   1
_chemical_formula_structural   AgSbPbS3
_chemical_formula_sum   'Ag4 Sb4 Pb4 S12'
_cell_volume   602.84774183
_cell_formula_units_Z   4
loop_
 _symmetry_equiv_pos_site_id
 _symmetry_equiv_pos_as_xyz
  1  'x, y, z'
loop_
 _atom_site_type_symbol
 _atom_site_label
 _atom_site_symmetry_multiplicity
 _atom_site_fract_x
 _atom_site_fract_y
 _atom_site_fract_z
 _atom_site_occupancy
  Ag  Ag0  1  0.73950300  0.78204300  0.87715000  1
  Ag  Ag1  1  0.26049700  0.21795700  0.12285000  1
  Ag  Ag2  1  0.23950300  0.21795700  0.62285000  1
  Ag  Ag3  1  0.76049700  0.78204300  0.37715000  1
  Sb  Sb0  1  0.91069400  0.26713500  0.63643000  1
  Sb  Sb1  1  0.41069400  0.73286500  0.86357000  1
  Sb  Sb2  1  0.08930600  0.73286500  0.36357000  1
  Sb  Sb3  1  0.58930600  0.26713500  0.13643000  1
  Pb  Pb0  1  0.58458500  0.25570000  0.64678500  1
  Pb  Pb1  1  0.91541500  0.25570000  0.14678500  1
  Pb  Pb2  1  0.08458500  0.74430000  0.85321500  1
  Pb  Pb3  1  0.41541500  0.74430000  0.35321500  1
  S  S0  1  0.55733900  0.73492400  0.64948200  1
  S  S1  1  0.62621900  0.86695700  0.13753100  1
  S  S2  1  0.94266100  0.73492400  0.14948200  1
  S  S3  1  0.44266100  0.26507600  0.35051800  1
  S  S4  1  0.87378100  0.86695700  0.63753100  1
  S  S5  1  0.37378100  0.13304300  0.86246900  1
  S  S6  1  0.05733900  0.26507600  0.85051800  1
  S  S7  1  0.27852400  0.64871000  0.63837800  1
  S  S8  1  0.22147600  0.64871000  0.13837800  1
  S  S9  1  0.77852400  0.35129000  0.86162200  1
  S  S10  1  0.12621900  0.13304300  0.36246900  1
  S  S11  1  0.72147600  0.35129000  0.36162200  1
loop_
_geom_bond_atom_site_label_1
_geom_bond_atom_site_label_2
_geom_bond_distance
_geom_bond_site_symmetry_2
Ag0 S1 2.540935 1_556
Ag0 S4 2.575990 1_555
Ag0 S9 2.667797 1_555
Ag0 S0 2.948740 1_555
Ag1 S5 2.540935 1_554
Ag1 S10 2.575990 1_555
Ag1 S8 2.667797 1_555
Ag1 S3 2.948740 1_555
Ag2 S10 2.540935 1_555
Ag2 S5 2.575990 1_555
Ag2 S7 2.667797 1_555
Ag2 S6 2.948740 1_555
Ag3 S4 2.540935 1_555
Ag3 S1 2.575990 1_555
Ag3 S11 2.667797 1_555
Ag3 S2 2.948740 1_555
Pb0 S11 2.868708 1_555
Pb0 S3 2.924530 1_555
Pb0 S0 2.930864 1_555
Pb0 S9 3.060568 1_555
Pb0 S0 3.180699 1_545
Pb0 S5 3.265653 1_555
Pb1 S9 2.868708 1_554
Pb1 S6 2.924530 1_654
Pb1 S2 2.930864 1_555
Pb1 S11 3.060568 1_555
Pb1 S2 3.180699 1_545
Pb1 S10 3.265653 1_655
Pb2 S8 2.868708 1_556
Pb2 S2 2.924530 1_456
Pb2 S6 2.930864 1_555
Pb2 S7 3.060568 1_555
Pb2 S6 3.180699 1_565
Pb2 S4 3.265653 1_455
Pb3 S7 2.868708 1_555
Pb3 S0 2.924530 1_555
Pb3 S3 2.930864 1_555
Pb3 S8 3.060568 1_555
Pb3 S3 3.180699 1_565
Pb3 S1 3.265653 1_555
S0 Sb1 2.509021 1_555
S1 Sb3 2.475501 1_565
S2 Sb2 2.509021 1_655
S3 Sb3 2.509021 1_555
S4 Sb0 2.475501 1_565
S5 Sb1 2.475501 1_545
S6 Sb0 2.509021 1_455
S7 Sb1 2.491088 1_555
S8 Sb2 2.491088 1_555
S9 Sb0 2.491088 1_555
S10 Sb2 2.475501 1_545
S11 Sb3 2.491088 1_555
