# generated using pymatgen
data_Dy3CuGeSe7
_symmetry_space_group_name_H-M   'P 1'
_cell_length_a   10.33287367
_cell_length_b   10.33287367
_cell_length_c   6.10775900
_cell_angle_alpha   90.00000000
_cell_angle_beta   90.00000000
_cell_angle_gamma   119.99999790
_symmetry_Int_Tables_number   1
_chemical_formula_structural   Dy3CuGeSe7
_chemical_formula_sum   'Dy6 Cu2 Ge2 Se14'
_cell_volume   564.74809269
_cell_formula_units_Z   2
loop_
 _symmetry_equiv_pos_site_id
 _symmetry_equiv_pos_as_xyz
  1  'x, y, z'
loop_
 _atom_site_type_symbol
 _atom_site_label
 _atom_site_symmetry_multiplicity
 _atom_site_fract_x
 _atom_site_fract_y
 _atom_site_fract_z
 _atom_site_occupancy
  Dy  Dy0  1  0.22006600  0.35589100  0.42007700  1
  Dy  Dy1  1  0.86417500  0.22006600  0.92007700  1
  Dy  Dy2  1  0.35589100  0.13582500  0.92007700  1
  Dy  Dy3  1  0.64410900  0.86417500  0.42007700  1
  Dy  Dy4  1  0.13582500  0.77993400  0.42007700  1
  Dy  Dy5  1  0.77993400  0.64410900  0.92007700  1
  Cu  Cu0  1  0.00000000  0.00000000  0.47300700  1
  Cu  Cu1  1  0.00000000  0.00000000  0.97300700  1
  Ge  Ge0  1  0.66666700  0.33333300  0.33719700  1
  Ge  Ge1  1  0.33333300  0.66666700  0.83719700  1
  Se  Se0  1  0.26264700  0.10287400  0.45494500  1
  Se  Se1  1  0.15977300  0.26264700  0.95494500  1
  Se  Se2  1  0.10287400  0.84022700  0.95494500  1
  Se  Se3  1  0.89712600  0.15977300  0.45494500  1
  Se  Se4  1  0.84022700  0.73735300  0.45494500  1
  Se  Se5  1  0.73735300  0.89712600  0.95494500  1
  Se  Se6  1  0.51792800  0.42544200  0.17061000  1
  Se  Se7  1  0.09248600  0.51792800  0.67061000  1
  Se  Se8  1  0.42544200  0.90751400  0.67061000  1
  Se  Se9  1  0.57455800  0.09248600  0.17061000  1
  Se  Se10  1  0.90751400  0.48207200  0.17061000  1
  Se  Se11  1  0.48207200  0.57455800  0.67061000  1
  Se  Se12  1  0.33333300  0.66666700  0.22421900  1
  Se  Se13  1  0.66666700  0.33333300  0.72421900  1
loop_
_geom_bond_atom_site_label_1
_geom_bond_atom_site_label_2
_geom_bond_distance
_geom_bond_site_symmetry_2
Dy0 Se0 2.867801 1_555
Dy0 Se3 2.919708 1_455
Dy0 Se11 2.942620 1_555
Dy0 Se1 2.964282 1_554
Dy0 Se7 3.014933 1_555
Dy0 Se12 3.058488 1_555
Dy0 Se6 3.177874 1_555
Dy0 Se1 3.374677 1_555
Dy1 Se1 2.867801 1_655
Dy1 Se5 2.919708 1_545
Dy1 Se10 2.942620 1_556
Dy1 Se3 2.964282 1_555
Dy1 Se9 3.014933 1_556
Dy1 Se13 3.058479 1_555
Dy1 Se7 3.177874 1_655
Dy1 Se3 3.374677 1_556
Dy2 Se2 2.867801 1_545
Dy2 Se1 2.919708 1_555
Dy2 Se9 2.942620 1_556
Dy2 Se0 2.964282 1_555
Dy2 Se6 3.014933 1_556
Dy2 Se13 3.058486 1_555
Dy2 Se8 3.177874 1_545
Dy2 Se0 3.374677 1_556
Dy3 Se3 2.867801 1_565
Dy3 Se4 2.919708 1_555
Dy3 Se8 2.942620 1_555
Dy3 Se5 2.964282 1_554
Dy3 Se11 3.014933 1_555
Dy3 Se12 3.058486 1_555
Dy3 Se9 3.177874 1_565
Dy3 Se5 3.374677 1_555
Dy4 Se4 2.867801 1_455
Dy4 Se0 2.919708 1_565
Dy4 Se7 2.942620 1_555
Dy4 Se2 2.964282 1_554
Dy4 Se8 3.014933 1_555
Dy4 Se12 3.058479 1_555
Dy4 Se10 3.177874 1_455
Dy4 Se2 3.374677 1_555
Dy5 Se5 2.867801 1_555
Dy5 Se2 2.919708 1_655
Dy5 Se6 2.942620 1_556
Dy5 Se4 2.964282 1_555
Dy5 Se10 3.014933 1_556
Dy5 Se13 3.058488 1_555
Dy5 Se11 3.177874 1_555
Dy5 Se4 3.374677 1_556
Cu0 Se3 2.371185 1_455
Cu0 Se0 2.371185 1_555
Cu0 Se4 2.371185 1_445
Cu0 Dy4 3.230520 1_545
Cu0 Dy3 3.230520 1_445
Cu0 Dy0 3.230520 1_555
Cu1 Se2 2.371185 1_545
Cu1 Se5 2.371185 1_445
Cu1 Se1 2.371185 1_555
Cu1 Dy1 3.230520 1_455
Cu1 Dy2 3.230520 1_555
Cu1 Dy5 3.230520 1_445
Ge0 Se13 2.363837 1_555
Ge0 Se9 2.401219 1_555
Ge0 Se10 2.401220 1_555
Ge0 Se6 2.401227 1_555
Ge1 Se12 2.363837 1_556
Ge1 Se8 2.401219 1_555
Ge1 Se7 2.401220 1_555
Ge1 Se11 2.401227 1_555
