# generated using pymatgen
data_NdGd2
_symmetry_space_group_name_H-M   'P 1'
_cell_length_a   4.26009656
_cell_length_b   4.26009656
_cell_length_c   4.26753200
_cell_angle_alpha   90.00000000
_cell_angle_beta   90.00000000
_cell_angle_gamma   120.00000863
_symmetry_Int_Tables_number   1
_chemical_formula_structural   NdGd2
_chemical_formula_sum   'Nd1 Gd2'
_cell_volume   67.07277355
_cell_formula_units_Z   1
loop_
 _symmetry_equiv_pos_site_id
 _symmetry_equiv_pos_as_xyz
  1  'x, y, z'
loop_
 _atom_site_type_symbol
 _atom_site_label
 _atom_site_symmetry_multiplicity
 _atom_site_fract_x
 _atom_site_fract_y
 _atom_site_fract_z
 _atom_site_occupancy
  Nd  Nd0  1  0.00000000  0.00000000  0.00000000  1
  Gd  Gd0  1  0.33333300  0.66666700  0.50000000  1
  Gd  Gd1  1  0.66666700  0.33333300  0.50000000  1
loop_
_geom_bond_atom_site_label_1
_geom_bond_atom_site_label_2
_geom_bond_distance
_geom_bond_site_symmetry_2
Gd0 Gd1 2.459565 1_565
Gd0 Gd1 2.459565 1_455
Gd0 Gd1 2.459573 1_555
Gd0 Nd0 3.256136 1_565
Gd0 Nd0 3.256136 1_566
Gd0 Nd0 3.256138 1_665
Gd0 Nd0 3.256138 1_666
Gd0 Nd0 3.256138 1_555
Gd0 Nd0 3.256138 1_556
Gd1 Nd0 3.256136 1_656
Gd1 Nd0 3.256136 1_655
Gd1 Nd0 3.256138 1_665
Gd1 Nd0 3.256138 1_666
Gd1 Nd0 3.256138 1_555
Gd1 Nd0 3.256138 1_556
