# generated using pymatgen
data_SmTiGe
_symmetry_space_group_name_H-M   'P 1'
_cell_length_a   4.08121570
_cell_length_b   4.08121570
_cell_length_c   7.92793636
_cell_angle_alpha   90.00000000
_cell_angle_beta   90.00000000
_cell_angle_gamma   90.00000000
_symmetry_Int_Tables_number   1
_chemical_formula_structural   SmTiGe
_chemical_formula_sum   'Sm2 Ti2 Ge2'
_cell_volume   132.05025756
_cell_formula_units_Z   2
loop_
 _symmetry_equiv_pos_site_id
 _symmetry_equiv_pos_as_xyz
  1  'x, y, z'
loop_
 _atom_site_type_symbol
 _atom_site_label
 _atom_site_symmetry_multiplicity
 _atom_site_fract_x
 _atom_site_fract_y
 _atom_site_fract_z
 _atom_site_occupancy
  Sm  Sm0  1  0.75000000  0.75000000  0.34812265  1
  Sm  Sm1  1  0.25000000  0.25000000  0.65187735  1
  Ti  Ti0  1  0.25000000  0.75000000  0.00000000  1
  Ti  Ti1  1  0.75000000  0.25000000  0.00000000  1
  Ge  Ge0  1  0.25000000  0.25000000  0.23225091  1
  Ge  Ge1  1  0.75000000  0.75000000  0.76774909  1
loop_
_geom_bond_atom_site_label_1
_geom_bond_atom_site_label_2
_geom_bond_distance
_geom_bond_site_symmetry_2
Ge0 Ti0 2.748519 1_545
Ge0 Ti1 2.748519 1_555
Ge0 Ti1 2.748519 1_455
Ge0 Ti0 2.748519 1_555
Ge0 Sm0 3.028536 1_445
Ge0 Sm0 3.028536 1_545
Ge0 Sm0 3.028536 1_455
Ge0 Sm0 3.028536 1_555
Ge0 Sm1 3.326772 1_555
Ge1 Ti1 2.748519 1_566
Ge1 Ti0 2.748519 1_556
Ge1 Ti0 2.748519 1_656
Ge1 Ti1 2.748519 1_556
Ge1 Sm1 3.028536 1_565
Ge1 Sm1 3.028536 1_655
Ge1 Sm1 3.028536 1_665
Ge1 Sm1 3.028536 1_555
Ge1 Sm0 3.326772 1_555
