# generated using pymatgen
data_Gd(CoSi)2
_symmetry_space_group_name_H-M   'P 1'
_cell_length_a   3.87063121
_cell_length_b   3.87063155
_cell_length_c   5.59820285
_cell_angle_alpha   110.22471537
_cell_angle_beta   110.22472744
_cell_angle_gamma   89.99999872
_symmetry_Int_Tables_number   1
_chemical_formula_structural   Gd(CoSi)2
_chemical_formula_sum   'Gd1 Co2 Si2'
_cell_volume   73.16418186
_cell_formula_units_Z   1
loop_
 _symmetry_equiv_pos_site_id
 _symmetry_equiv_pos_as_xyz
  1  'x, y, z'
loop_
 _atom_site_type_symbol
 _atom_site_label
 _atom_site_symmetry_multiplicity
 _atom_site_fract_x
 _atom_site_fract_y
 _atom_site_fract_z
 _atom_site_occupancy
  Gd  Gd0  1  -0.00000000  -0.00000000  -0.00000000  1
  Co  Co0  1  0.75000000  0.25000000  0.50000000  1
  Co  Co1  1  0.25000000  0.75000000  0.50000000  1
  Si  Si0  1  0.36951574  0.36951574  0.73903248  1
  Si  Si1  1  0.63048426  0.63048426  0.26096752  1
loop_
_geom_bond_atom_site_label_1
_geom_bond_atom_site_label_2
_geom_bond_distance
_geom_bond_site_symmetry_2
Gd0 Si0 3.019121 1_554
Gd0 Si1 3.019121 1_445
Gd0 Si1 3.019123 1_545
Gd0 Si0 3.019123 1_454
Gd0 Si1 3.019124 1_455
Gd0 Si0 3.019124 1_544
Gd0 Si1 3.019126 1_555
Gd0 Si0 3.019126 1_444
Co0 Si0 2.260108 1_655
Co0 Si1 2.260108 1_545
Co0 Si1 2.260111 1_555
Co0 Si0 2.260111 1_555
Co0 Gd0 3.115716 1_555
Co0 Gd0 3.115717 1_656
Co0 Gd0 3.115717 1_666
Co0 Gd0 3.115717 1_655
Co1 Si1 2.260108 1_455
Co1 Si0 2.260108 1_565
Co1 Si0 2.260111 1_555
Co1 Si1 2.260111 1_555
Co1 Gd0 3.115716 1_666
Co1 Gd0 3.115717 1_565
Co1 Gd0 3.115717 1_555
Co1 Gd0 3.115717 1_566
Si0 Si1 2.548891 1_556
