# generated using pymatgen
data_Li(CoO2)2
_symmetry_space_group_name_H-M   'P 1'
_cell_length_a   2.84258200
_cell_length_b   4.82017787
_cell_length_c   9.84019842
_cell_angle_alpha   80.41795332
_cell_angle_beta   90.00196183
_cell_angle_gamma   90.00101187
_symmetry_Int_Tables_number   1
_chemical_formula_structural   Li(CoO2)2
_chemical_formula_sum   'Li2 Co4 O8'
_cell_volume   132.94686063
_cell_formula_units_Z   2
loop_
 _symmetry_equiv_pos_site_id
 _symmetry_equiv_pos_as_xyz
  1  'x, y, z'
loop_
 _atom_site_type_symbol
 _atom_site_label
 _atom_site_symmetry_multiplicity
 _atom_site_fract_x
 _atom_site_fract_y
 _atom_site_fract_z
 _atom_site_occupancy
  Li  Li0  1  0.00000100  0.99776300  0.99897500  1
  Li  Li1  1  0.99999900  0.50223400  0.50102500  1
  Co  Co0  1  0.00000000  0.75000000  0.75000000  1
  Co  Co1  1  0.50000000  0.75000000  0.24999900  1
  Co  Co2  1  0.00000000  0.25000000  0.24999900  1
  Co  Co3  1  0.50000000  0.25000000  0.75000100  1
  O  O0  1  0.50000600  0.37976900  0.35406800  1
  O  O1  1  0.50002700  0.88082400  0.85351600  1
  O  O2  1  0.49999500  0.12023100  0.14593100  1
  O  O3  1  0.49997300  0.61917500  0.64648500  1
  O  O4  1  0.99999600  0.61524900  0.15038400  1
  O  O5  1  0.00002500  0.11842100  0.65145400  1
  O  O6  1  0.00000400  0.88475200  0.34961500  1
  O  O7  1  0.99997500  0.38158100  0.84854700  1
loop_
_geom_bond_atom_site_label_1
_geom_bond_atom_site_label_2
_geom_bond_distance
_geom_bond_site_symmetry_2
Li0 O1 2.157489 1_455
Li0 O1 2.157664 1_555
Li0 O7 2.168446 1_465
Li0 O4 2.169052 1_456
Li0 O2 2.177993 1_566
Li0 O2 2.178094 1_466
Li1 O3 2.157500 1_655
Li1 O3 2.157675 1_555
Li1 O5 2.168434 1_655
Li1 O6 2.169071 1_655
Li1 O0 2.177993 1_555
Li1 O0 2.178097 1_655
Co0 O7 1.876346 1_455
Co0 O5 1.876351 1_565
Co0 O3 1.915475 1_555
Co0 O1 1.915479 1_455
Co0 O3 1.915521 1_455
Co0 O1 1.915524 1_555
Co1 O4 1.901229 1_455
Co1 O6 1.901237 1_655
Co1 O4 1.901279 1_555
Co1 O6 1.901287 1_555
Co1 O2 1.903941 1_565
Co1 O0 1.903945 1_555
Co2 O6 1.867057 1_545
Co2 O4 1.867057 1_455
Co2 O2 1.916552 1_455
Co2 O0 1.916560 1_555
Co2 O2 1.916599 1_555
Co2 O0 1.916603 1_455
Co3 O7 1.888678 1_555
Co3 O5 1.888679 1_555
Co3 O7 1.888852 1_455
Co3 O5 1.888853 1_655
Co3 O3 1.897553 1_555
Co3 O1 1.897553 1_545
