# generated using pymatgen
data_Li3BN2
_symmetry_space_group_name_H-M   'P 1'
_cell_length_a   6.99106047
_cell_length_b   6.99106047
_cell_length_c   6.99106047
_cell_angle_alpha   123.36692266
_cell_angle_beta   123.36692266
_cell_angle_gamma   84.26098113
_symmetry_Int_Tables_number   1
_chemical_formula_structural   Li3BN2
_chemical_formula_sum   'Li12 B4 N8'
_cell_volume   228.06244708
_cell_formula_units_Z   4
loop_
 _symmetry_equiv_pos_site_id
 _symmetry_equiv_pos_as_xyz
  1  'x, y, z'
loop_
 _atom_site_type_symbol
 _atom_site_label
 _atom_site_symmetry_multiplicity
 _atom_site_fract_x
 _atom_site_fract_y
 _atom_site_fract_z
 _atom_site_occupancy
  Li  Li0  1  0.62616600  0.62616600  0.00000000  1
  Li  Li1  1  0.37616600  0.87616600  0.50000000  1
  Li  Li2  1  0.12383400  0.62383400  0.50000000  1
  Li  Li3  1  0.37383400  0.37383400  0.00000000  1
  Li  Li4  1  0.77581400  0.77581400  0.55162800  1
  Li  Li5  1  0.52581400  0.47418600  0.50000000  1
  Li  Li6  1  0.97418600  0.02581400  0.50000000  1
  Li  Li7  1  0.22418600  0.22418600  0.44837200  1
  Li  Li8  1  0.97418600  0.47418600  0.94837200  1
  Li  Li9  1  0.22418600  0.77581400  0.00000000  1
  Li  Li10  1  0.77581400  0.22418600  0.00000000  1
  Li  Li11  1  0.52581400  0.02581400  0.05162800  1
  B  B0  1  0.85298400  0.85298400  0.00000000  1
  B  B1  1  0.60298400  0.10298400  0.50000000  1
  B  B2  1  0.89701600  0.39701600  0.50000000  1
  B  B3  1  0.14701600  0.14701600  0.00000000  1
  N  N0  1  0.05140600  0.84837100  0.20303500  1
  N  N1  1  0.59837100  0.89533700  0.29696500  1
  N  N2  1  0.59837100  0.30140600  0.70303500  1
  N  N3  1  0.69859400  0.40162900  0.29696500  1
  N  N4  1  0.10466300  0.40162900  0.70303500  1
  N  N5  1  0.15162900  0.35466300  0.20303500  1
  N  N6  1  0.15162900  0.94859400  0.79696500  1
  N  N7  1  0.64533700  0.84837100  0.79696500  1
loop_
_geom_bond_atom_site_label_1
_geom_bond_atom_site_label_2
_geom_bond_distance
_geom_bond_site_symmetry_2
Li0 N2 1.990541 1_554
Li0 N1 1.990544 1_555
Li1 N0 1.990541 1_555
Li1 N7 1.990544 1_555
Li2 N6 1.990541 1_555
Li2 N5 1.990544 1_555
Li3 N3 1.990541 1_555
Li3 N4 1.990544 1_554
Li4 N3 2.099157 1_555
Li4 N1 2.099163 1_555
Li4 N7 2.168542 1_555
Li4 N6 2.168548 1_655
Li5 N7 2.099157 1_555
Li5 N5 2.099157 1_555
Li5 N3 2.168548 1_555
Li5 N2 2.168548 1_555
Li6 N6 2.099157 1_645
Li6 N0 2.099157 1_645
Li6 N4 2.168547 1_655
Li6 N1 2.168547 1_545
Li7 N2 2.099157 1_555
Li7 N4 2.099163 1_555
Li7 N5 2.168542 1_555
Li7 N0 2.168548 1_545
Li8 N0 2.099157 1_656
Li8 N5 2.099163 1_656
Li8 N4 2.168542 1_655
Li8 N2 2.168548 1_555
Li9 N1 2.099157 1_555
Li9 N4 2.099157 1_554
Li9 N6 2.168548 1_554
Li9 N0 2.168548 1_555
Li10 N2 2.099157 1_554
Li10 N3 2.099157 1_555
Li10 N5 2.168547 1_655
Li10 N7 2.168547 1_544
Li11 N6 2.099157 1_544
Li11 N7 2.099163 1_544
Li11 N1 2.168542 1_545
Li11 N3 2.168548 1_555
B0 N7 1.347437 1_554
B0 N0 1.347441 1_655
B1 N1 1.347437 1_545
B1 N2 1.347441 1_555
B2 N4 1.347437 1_655
B2 N3 1.347441 1_555
B3 N5 1.347437 1_555
B3 N6 1.347441 1_544
