# generated using pymatgen
data_CsYP2O7
_symmetry_space_group_name_H-M   'P 1'
_cell_length_a   11.05068600
_cell_length_b   8.02774100
_cell_length_c   8.89866127
_cell_angle_alpha   75.68400958
_cell_angle_beta   90.00000000
_cell_angle_gamma   90.00000000
_symmetry_Int_Tables_number   1
_chemical_formula_structural   CsYP2O7
_chemical_formula_sum   'Cs4 Y4 P8 O28'
_cell_volume   764.90443895
_cell_formula_units_Z   4
loop_
 _symmetry_equiv_pos_site_id
 _symmetry_equiv_pos_as_xyz
  1  'x, y, z'
loop_
 _atom_site_type_symbol
 _atom_site_label
 _atom_site_symmetry_multiplicity
 _atom_site_fract_x
 _atom_site_fract_y
 _atom_site_fract_z
 _atom_site_occupancy
  Cs  Cs0  1  0.69084500  0.19992000  0.94777200  1
  Cs  Cs1  1  0.19084500  0.80008000  0.55222800  1
  Cs  Cs2  1  0.30915500  0.80008000  0.05222800  1
  Cs  Cs3  1  0.80915500  0.19992000  0.44777200  1
  Y  Y0  1  0.40053000  0.23666900  0.24740000  1
  Y  Y1  1  0.90053000  0.76333100  0.25260000  1
  Y  Y2  1  0.59947000  0.76333100  0.75260000  1
  Y  Y3  1  0.09947000  0.23666900  0.74740000  1
  P  P0  1  0.37033600  0.42734100  0.81729900  1
  P  P1  1  0.87033600  0.57265900  0.68270100  1
  P  P2  1  0.62966400  0.57265900  0.18270100  1
  P  P3  1  0.12966400  0.42734100  0.31729900  1
  P  P4  1  0.09638700  0.13121000  0.17841100  1
  P  P5  1  0.59638700  0.86879000  0.32158900  1
  P  P6  1  0.90361300  0.86879000  0.82158900  1
  P  P7  1  0.40361300  0.13121000  0.67841100  1
  O  O0  1  0.06134100  0.31724100  0.21000100  1
  O  O1  1  0.56134100  0.68275900  0.28999900  1
  O  O2  1  0.93865900  0.68275900  0.78999900  1
  O  O3  1  0.43865900  0.31724100  0.71000100  1
  O  O4  1  0.27434900  0.08491300  0.73862500  1
  O  O5  1  0.77434900  0.91508700  0.76137500  1
  O  O6  1  0.72565100  0.91508700  0.26137500  1
  O  O7  1  0.22565100  0.08491300  0.23862500  1
  O  O8  1  0.42850700  0.60562100  0.76867400  1
  O  O9  1  0.92850700  0.39437900  0.73132600  1
  O  O10  1  0.57149300  0.39437900  0.23132600  1
  O  O11  1  0.07149300  0.60562100  0.26867400  1
  O  O12  1  0.41473900  0.15361600  0.50450200  1
  O  O13  1  0.91473900  0.84638400  0.99549800  1
  O  O14  1  0.58526100  0.84638400  0.49549800  1
  O  O15  1  0.08526100  0.15361600  0.00450200  1
  O  O16  1  0.39630500  0.33411100  0.98553000  1
  O  O17  1  0.89630500  0.66588900  0.51447000  1
  O  O18  1  0.60369500  0.66588900  0.01447000  1
  O  O19  1  0.10369500  0.33411100  0.48553000  1
  O  O20  1  0.49621500  0.00349500  0.77121300  1
  O  O21  1  0.99621500  0.99650500  0.72878700  1
  O  O22  1  0.50378500  0.99650500  0.22878700  1
  O  O23  1  0.00378500  0.00349500  0.27121300  1
  O  O24  1  0.23575200  0.43752100  0.77484500  1
  O  O25  1  0.73575200  0.56247900  0.72515500  1
  O  O26  1  0.76424800  0.56247900  0.22515500  1
  O  O27  1  0.26424800  0.43752100  0.27484500  1
loop_
_geom_bond_atom_site_label_1
_geom_bond_atom_site_label_2
_geom_bond_distance
_geom_bond_site_symmetry_2
Cs0 O25 3.128962 1_555
Cs0 O6 3.163603 1_546
Cs0 O5 3.272119 1_545
Cs0 O20 3.287255 1_555
Cs0 O22 3.342677 1_546
Cs0 O9 3.399612 1_555
Cs0 O16 3.470812 1_555
Cs0 O3 3.484931 1_555
Cs0 O10 3.534296 1_556
Cs0 O13 3.709535 1_545
Cs1 O24 3.128962 1_555
Cs1 O7 3.163603 1_565
Cs1 O4 3.272119 1_565
Cs1 O21 3.287255 1_455
Cs1 O23 3.342677 1_565
Cs1 O8 3.399612 1_555
Cs1 O17 3.470812 1_455
Cs1 O2 3.484931 1_455
Cs1 O11 3.534296 1_555
Cs1 O12 3.709535 1_565
Cs2 O27 3.128962 1_555
Cs2 O4 3.163603 1_564
Cs2 O7 3.272119 1_565
Cs2 O22 3.287255 1_555
Cs2 O20 3.342677 1_564
Cs2 O11 3.399612 1_555
Cs2 O18 3.470812 1_555
Cs2 O1 3.484931 1_555
Cs2 O8 3.534296 1_554
Cs2 O15 3.709535 1_565
Cs3 O26 3.128962 1_555
Cs3 O5 3.163603 1_545
Cs3 O6 3.272119 1_545
Cs3 O23 3.287255 1_655
Cs3 O21 3.342677 1_545
Cs3 O10 3.399612 1_555
Cs3 O19 3.470812 1_655
Cs3 O0 3.484931 1_655
Cs3 O9 3.534296 1_555
Cs3 O14 3.709535 1_545
O0 P4 1.633062 1_555
O0 P3 1.637148 1_555
O1 P5 1.633062 1_555
O1 P2 1.637148 1_555
O2 P6 1.633062 1_555
O2 P1 1.637148 1_555
O3 P7 1.633062 1_555
O3 P0 1.637148 1_555
O4 P7 1.538584 1_555
O4 Y3 2.296079 1_555
O5 P6 1.538584 1_555
O5 Y2 2.296079 1_555
O6 P5 1.538584 1_555
O6 Y1 2.296079 1_555
O7 P4 1.538584 1_555
O7 Y0 2.296079 1_555
O8 P0 1.530521 1_555
O8 Y2 2.259003 1_555
O9 P1 1.530521 1_555
O9 Y3 2.259003 1_655
O10 P2 1.530521 1_555
O10 Y0 2.259003 1_555
O11 P3 1.530521 1_555
O11 Y1 2.259003 1_455
O12 P7 1.518138 1_555
O12 Y0 2.224666 1_555
O13 P6 1.518138 1_555
O13 Y1 2.224666 1_556
O14 P5 1.518138 1_555
O14 Y2 2.224666 1_555
O15 P4 1.518138 1_555
O15 Y3 2.224666 1_554
O16 P0 1.526273 1_555
O16 Y0 2.267790 1_556
O17 P1 1.526273 1_555
O17 Y1 2.267790 1_555
O18 P2 1.526273 1_555
O18 Y2 2.267790 1_554
O19 P3 1.526273 1_555
O19 Y3 2.267790 1_555
O20 P7 1.536747 1_555
O20 Y2 2.281318 1_545
O21 P6 1.536747 1_555
O21 Y3 2.281318 1_665
O22 P5 1.536747 1_555
O22 Y0 2.281318 1_565
O23 P4 1.536747 1_555
O23 Y1 2.281318 1_445
O24 P0 1.531676 1_555
O24 Y3 2.263238 1_555
O25 P1 1.531676 1_555
O25 Y2 2.263238 1_555
O26 P2 1.531676 1_555
O26 Y1 2.263238 1_555
O27 P3 1.531676 1_555
O27 Y0 2.263238 1_555
