# generated using pymatgen
data_Eu6Mo10O39
_symmetry_space_group_name_H-M   'P 1'
_cell_length_a   11.98834786
_cell_length_b   11.98834660
_cell_length_c   14.26968387
_cell_angle_alpha   96.27483973
_cell_angle_beta   96.27483912
_cell_angle_gamma   116.25622830
_symmetry_Int_Tables_number   1
_chemical_formula_structural   Eu6Mo10O39
_chemical_formula_sum   'Eu12 Mo20 O78'
_cell_volume   1799.41453068
_cell_formula_units_Z   2
loop_
 _symmetry_equiv_pos_site_id
 _symmetry_equiv_pos_as_xyz
  1  'x, y, z'
loop_
 _atom_site_type_symbol
 _atom_site_label
 _atom_site_symmetry_multiplicity
 _atom_site_fract_x
 _atom_site_fract_y
 _atom_site_fract_z
 _atom_site_occupancy
  Eu  Eu0  1  0.71106682  0.03044139  0.35748466  1
  Eu  Eu1  1  0.05949538  0.75896445  0.41263827  1
  Eu  Eu2  1  0.94050462  0.24103555  0.58736173  1
  Eu  Eu3  1  0.47897873  0.36134771  0.41531220  1
  Eu  Eu4  1  0.63865229  0.52102127  0.08468780  1
  Eu  Eu5  1  0.52102127  0.63865229  0.58468780  1
  Eu  Eu6  1  0.03044139  0.71106682  0.85748466  1
  Eu  Eu7  1  0.24103555  0.94050462  0.08736173  1
  Eu  Eu8  1  0.75896445  0.05949538  0.91263827  1
  Eu  Eu9  1  0.96955861  0.28893318  0.14251534  1
  Eu  Eu10  1  0.36134771  0.47897873  0.91531220  1
  Eu  Eu11  1  0.28893318  0.96955861  0.64251534  1
  Mo  Mo0  1  0.74123246  0.43286071  0.66176455  1
  Mo  Mo1  1  0.89327270  0.93743749  0.13619881  1
  Mo  Mo2  1  0.10672730  0.06256251  0.86380119  1
  Mo  Mo3  1  0.99696682  0.61932377  0.11802816  1
  Mo  Mo4  1  0.68740250  0.68415258  0.36086646  1
  Mo  Mo5  1  0.43286071  0.74123246  0.16176455  1
  Mo  Mo6  1  0.38328272  0.81949400  0.86159451  1
  Mo  Mo7  1  0.61671728  0.18050600  0.13840549  1
  Mo  Mo8  1  0.00303318  0.38067623  0.88197184  1
  Mo  Mo9  1  0.68415258  0.68740250  0.86086646  1
  Mo  Mo10  1  0.31259750  0.31584742  0.63913354  1
  Mo  Mo11  1  0.31584742  0.31259750  0.13913354  1
  Mo  Mo12  1  0.25876754  0.56713929  0.33823545  1
  Mo  Mo13  1  0.93743749  0.89327270  0.63619881  1
  Mo  Mo14  1  0.61932377  0.99696682  0.61802816  1
  Mo  Mo15  1  0.81949400  0.38328272  0.36159451  1
  Mo  Mo16  1  0.38067623  0.00303318  0.38197184  1
  Mo  Mo17  1  0.06256251  0.10672730  0.36380119  1
  Mo  Mo18  1  0.56713929  0.25876754  0.83823545  1
  Mo  Mo19  1  0.18050600  0.61671728  0.63840549  1
  O  O0  1  0.02386622  0.70407907  0.23540975  1
  O  O1  1  0.87199369  0.58217441  0.70631526  1
  O  O2  1  0.63068434  0.61676447  0.23618864  1
  O  O3  1  0.70698773  0.84419670  0.88826306  1
  O  O4  1  0.29592093  0.97613378  0.26459025  1
  O  O5  1  0.41602701  0.41668916  0.06425055  1
  O  O6  1  0.05891411  0.46513076  0.58205353  1
  O  O7  1  0.15580330  0.29301227  0.61173694  1
  O  O8  1  0.26555806  0.82700146  0.92888566  1
  O  O9  1  0.32712048  0.60818374  0.64287581  1
  O  O10  1  0.96149675  0.12772057  0.44195005  1
  O  O11  1  0.02337079  0.14528091  0.24105072  1
  O  O12  1  0.72676995  0.06719564  0.53537950  1
  O  O13  1  0.64323242  0.14530746  0.25747933  1
  O  O14  1  0.68830323  0.83306677  0.38483493  1
  O  O15  1  0.73444194  0.17299854  0.07111434  1
  O  O16  1  0.55905553  0.34448730  0.94365616  1
  O  O17  1  0.49423150  0.94390335  0.37891875  1
  O  O18  1  0.22083117  0.22193023  0.90527550  1
  O  O19  1  0.22193023  0.22083117  0.40527550  1
  O  O20  1  0.44094447  0.65551270  0.05634384  1
  O  O21  1  0.17299854  0.73444194  0.57111434  1
  O  O22  1  0.29301227  0.15580330  0.11173694  1
  O  O23  1  0.61676447  0.63068434  0.73618864  1
  O  O24  1  0.50576850  0.05609665  0.62108125  1
  O  O25  1  0.93280436  0.27323005  0.96462050  1
  O  O26  1  0.94390335  0.49423150  0.87891875  1
  O  O27  1  0.41782559  0.12800631  0.79368474  1
  O  O28  1  0.39181626  0.67287952  0.85712419  1
  O  O29  1  0.36931566  0.38323553  0.76381136  1
  O  O30  1  0.12772057  0.96149675  0.94195005  1
  O  O31  1  0.83306677  0.68830323  0.88483493  1
  O  O32  1  0.37214854  0.62785146  0.25000000  1
  O  O33  1  0.83074472  0.53302071  0.07569152  1
  O  O34  1  0.93893572  0.04140085  0.63561652  1
  O  O35  1  0.53302071  0.83074472  0.57569152  1
  O  O36  1  0.85469254  0.35676758  0.24252067  1
  O  O37  1  0.16693323  0.31169677  0.11516507  1
  O  O38  1  0.58217441  0.87199369  0.20631526  1
  O  O39  1  0.31169677  0.16693323  0.61516507  1
  O  O40  1  0.82700146  0.26555806  0.42888566  1
  O  O41  1  0.77806977  0.77916883  0.59472450  1
  O  O42  1  0.87227943  0.03850325  0.05804995  1
  O  O43  1  0.97662921  0.85471909  0.75894928  1
  O  O44  1  0.38323553  0.36931566  0.26381136  1
  O  O45  1  0.77916883  0.77806977  0.09472450  1
  O  O46  1  0.14530746  0.64323242  0.75747933  1
  O  O47  1  0.60818374  0.32712048  0.14287581  1
  O  O48  1  0.05609665  0.50576850  0.12108125  1
  O  O49  1  0.65551270  0.44094447  0.55634384  1
  O  O50  1  0.20339368  0.67819336  0.36706782  1
  O  O51  1  0.58331084  0.58397299  0.43574945  1
  O  O52  1  0.67287952  0.39181626  0.35712419  1
  O  O53  1  0.97613378  0.29592093  0.76459025  1
  O  O54  1  0.03850325  0.87227943  0.55804995  1
  O  O55  1  0.06106428  0.95859915  0.36438348  1
  O  O56  1  0.70407907  0.02386622  0.73540975  1
  O  O57  1  0.34448730  0.55905553  0.44365616  1
  O  O58  1  0.62785146  0.37214854  0.75000000  1
  O  O59  1  0.06719564  0.72676995  0.03537950  1
  O  O60  1  0.79660632  0.32180664  0.63293218  1
  O  O61  1  0.53486924  0.94108589  0.91794647  1
  O  O62  1  0.46513076  0.05891411  0.08205353  1
  O  O63  1  0.58397299  0.58331084  0.93574945  1
  O  O64  1  0.95859915  0.06106428  0.86438348  1
  O  O65  1  0.67819336  0.20339368  0.86706782  1
  O  O66  1  0.35676758  0.85469254  0.74252067  1
  O  O67  1  0.12800631  0.41782559  0.29368474  1
  O  O68  1  0.46697929  0.16925528  0.42430848  1
  O  O69  1  0.41668916  0.41602701  0.56425055  1
  O  O70  1  0.85471909  0.97662921  0.25894928  1
  O  O71  1  0.84419670  0.70698773  0.38826306  1
  O  O72  1  0.14528091  0.02337079  0.74105072  1
  O  O73  1  0.94108589  0.53486924  0.41794647  1
  O  O74  1  0.27323005  0.93280436  0.46462050  1
  O  O75  1  0.16925528  0.46697929  0.92430848  1
  O  O76  1  0.04140085  0.93893572  0.13561652  1
  O  O77  1  0.32180664  0.79660632  0.13293218  1
loop_
_geom_bond_atom_site_label_1
_geom_bond_atom_site_label_2
_geom_bond_distance
_geom_bond_site_symmetry_2
Eu0 O14 2.340833 1_545
Eu0 O13 2.400159 1_555
Eu0 O17 2.405058 1_545
Eu0 O12 2.500245 1_555
Eu0 O38 2.535317 1_545
Eu0 O40 2.551704 1_555
Eu0 O70 2.583222 1_545
Eu0 O10 2.762273 1_555
Eu1 O71 2.346187 1_455
Eu1 O50 2.433516 1_555
Eu1 O73 2.435583 1_455
Eu1 O74 2.445590 1_555
Eu1 O54 2.452496 1_555
Eu1 O0 2.482470 1_555
Eu1 O55 2.554521 1_555
Eu1 O21 2.622696 1_555
Eu2 O7 2.346187 1_655
Eu2 O60 2.433516 1_555
Eu2 O6 2.435583 1_655
Eu2 O12 2.445590 1_555
Eu2 O10 2.452496 1_555
Eu2 O53 2.482470 1_555
Eu2 O34 2.554521 1_555
Eu2 O40 2.622696 1_555
Eu3 O68 2.261845 1_555
Eu3 O51 2.359901 1_555
Eu3 O44 2.366428 1_555
Eu3 O52 2.442000 1_555
Eu3 O69 2.445349 1_555
Eu3 O49 2.510372 1_555
Eu3 O19 2.759032 1_555
Eu4 O33 2.261845 1_555
Eu4 O5 2.359901 1_555
Eu4 O2 2.366428 1_555
Eu4 O47 2.442000 1_555
Eu4 O63 2.445349 1_554
Eu4 O16 2.510372 1_554
Eu4 O45 2.759032 1_555
Eu5 O35 2.261845 1_555
Eu5 O69 2.359901 1_555
Eu5 O23 2.366428 1_555
Eu5 O9 2.442000 1_555
Eu5 O51 2.445349 1_555
Eu5 O57 2.510372 1_555
Eu5 O41 2.759032 1_555
Eu6 O31 2.340833 1_455
Eu6 O46 2.400159 1_555
Eu6 O26 2.405058 1_455
Eu6 O59 2.500245 1_556
Eu6 O1 2.535317 1_455
Eu6 O8 2.551704 1_555
Eu6 O43 2.583222 1_455
Eu6 O30 2.762273 1_555
Eu7 O22 2.346187 1_565
Eu7 O77 2.433516 1_555
Eu7 O62 2.435583 1_565
Eu7 O59 2.445590 1_555
Eu7 O30 2.452496 1_554
Eu7 O4 2.482470 1_555
Eu7 O76 2.554521 1_555
Eu7 O8 2.622696 1_554
Eu8 O3 2.346187 1_545
Eu8 O65 2.433516 1_555
Eu8 O61 2.435583 1_545
Eu8 O25 2.445590 1_555
Eu8 O42 2.452496 1_556
Eu8 O56 2.482470 1_555
Eu8 O64 2.554521 1_555
Eu8 O15 2.622696 1_556
Eu9 O37 2.340833 1_655
Eu9 O36 2.400159 1_555
Eu9 O48 2.405058 1_655
Eu9 O25 2.500245 1_554
Eu9 O67 2.535317 1_655
Eu9 O15 2.551704 1_555
Eu9 O11 2.583222 1_655
Eu9 O42 2.762273 1_555
Eu10 O75 2.261845 1_555
Eu10 O63 2.359901 1_555
Eu10 O29 2.366428 1_555
Eu10 O28 2.442000 1_555
Eu10 O5 2.445349 1_556
Eu10 O20 2.510372 1_556
Eu10 O18 2.759032 1_555
Eu11 O39 2.340833 1_565
Eu11 O66 2.400159 1_555
Eu11 O24 2.405058 1_565
Eu11 O74 2.500245 1_555
Eu11 O27 2.535317 1_565
Eu11 O21 2.551704 1_555
Eu11 O72 2.583222 1_565
Eu11 O54 2.762273 1_555
Mo0 O60 1.761930 1_555
Mo0 O49 1.763652 1_555
Mo0 O1 1.765336 1_555
Mo0 O58 1.913567 1_555
Mo1 O76 1.768880 1_655
Mo1 O45 1.770650 1_555
Mo1 O42 1.810724 1_565
Mo1 O70 1.921386 1_555
Mo1 O11 2.473110 1_665
Mo2 O64 1.768880 1_455
Mo2 O18 1.770650 1_555
Mo2 O30 1.810724 1_545
Mo2 O72 1.921386 1_555
Mo2 O43 2.473110 1_445
Mo3 O0 1.778203 1_655
Mo3 O33 1.783939 1_555
Mo3 O48 1.793786 1_655
Mo3 O59 1.829910 1_655
Mo4 O71 1.766846 1_555
Mo4 O14 1.775619 1_555
Mo4 O2 1.793208 1_555
Mo4 O51 1.840493 1_555
Mo5 O77 1.761931 1_555
Mo5 O20 1.763652 1_555
Mo5 O38 1.765336 1_555
Mo5 O32 1.913567 1_555
Mo6 O61 1.776092 1_555
Mo6 O28 1.799982 1_555
Mo6 O8 1.819807 1_555
Mo6 O66 1.823059 1_555
Mo7 O62 1.776092 1_555
Mo7 O47 1.799982 1_555
Mo7 O15 1.819807 1_555
Mo7 O13 1.823059 1_555
Mo8 O53 1.778203 1_455
Mo8 O75 1.783939 1_555
Mo8 O26 1.793786 1_455
Mo8 O25 1.829910 1_455
Mo9 O3 1.766846 1_555
Mo9 O31 1.775619 1_555
Mo9 O23 1.793208 1_555
Mo9 O63 1.840493 1_555
Mo10 O7 1.766846 1_555
Mo10 O39 1.775619 1_555
Mo10 O29 1.793208 1_555
Mo10 O69 1.840493 1_555
Mo11 O22 1.766846 1_555
Mo11 O37 1.775619 1_555
Mo11 O44 1.793208 1_555
Mo11 O5 1.840493 1_555
Mo12 O50 1.761930 1_555
Mo12 O57 1.763652 1_555
Mo12 O67 1.765336 1_555
Mo12 O32 1.913567 1_555
Mo13 O34 1.768880 1_565
Mo13 O41 1.770650 1_555
Mo13 O54 1.810724 1_655
Mo13 O43 1.921386 1_555
Mo13 O72 2.473110 1_665
Mo14 O56 1.778203 1_565
Mo14 O35 1.783939 1_555
Mo14 O24 1.793786 1_565
Mo14 O12 1.829910 1_565
Mo15 O73 1.776092 1_555
Mo15 O52 1.799982 1_555
Mo15 O40 1.819807 1_555
Mo15 O36 1.823059 1_555
Mo16 O4 1.778203 1_545
Mo16 O68 1.783939 1_555
Mo16 O17 1.793786 1_545
Mo16 O74 1.829910 1_545
Mo17 O55 1.768880 1_545
Mo17 O19 1.770650 1_555
Mo17 O10 1.810724 1_455
Mo17 O11 1.921386 1_555
Mo17 O70 2.473110 1_445
Mo18 O65 1.761931 1_555
Mo18 O16 1.763652 1_555
Mo18 O27 1.765336 1_555
Mo18 O58 1.913567 1_555
Mo19 O6 1.776092 1_555
Mo19 O9 1.799982 1_555
Mo19 O21 1.819807 1_555
Mo19 O46 1.823059 1_555
