# generated using pymatgen
data_SnTePd
_symmetry_space_group_name_H-M   'P 1'
_cell_length_a   6.68450800
_cell_length_b   6.72036400
_cell_length_c   13.09141700
_cell_angle_alpha   90.00000000
_cell_angle_beta   90.00000000
_cell_angle_gamma   90.00000000
_symmetry_Int_Tables_number   1
_chemical_formula_structural   SnTePd
_chemical_formula_sum   'Sn8 Te8 Pd8'
_cell_volume   588.09691433
_cell_formula_units_Z   8
loop_
 _symmetry_equiv_pos_site_id
 _symmetry_equiv_pos_as_xyz
  1  'x, y, z'
loop_
 _atom_site_type_symbol
 _atom_site_label
 _atom_site_symmetry_multiplicity
 _atom_site_fract_x
 _atom_site_fract_y
 _atom_site_fract_z
 _atom_site_occupancy
  Sn  Sn0  1  0.35918700  0.18238800  0.56526200  1
  Sn  Sn1  1  0.64081300  0.81761200  0.43473800  1
  Sn  Sn2  1  0.14081300  0.81761200  0.06526200  1
  Sn  Sn3  1  0.14081300  0.68238800  0.56526200  1
  Sn  Sn4  1  0.35918700  0.31761200  0.06526200  1
  Sn  Sn5  1  0.85918700  0.31761200  0.43473800  1
  Sn  Sn6  1  0.85918700  0.18238800  0.93473800  1
  Sn  Sn7  1  0.64081300  0.68238800  0.93473800  1
  Te  Te0  1  0.62798300  0.05216800  0.17835500  1
  Te  Te1  1  0.12798300  0.44783200  0.82164500  1
  Te  Te2  1  0.87201700  0.55216800  0.17835500  1
  Te  Te3  1  0.37201700  0.94783200  0.82164500  1
  Te  Te4  1  0.12798300  0.05216800  0.32164500  1
  Te  Te5  1  0.87201700  0.94783200  0.67835500  1
  Te  Te6  1  0.62798300  0.44783200  0.67835500  1
  Te  Te7  1  0.37201700  0.55216800  0.32164500  1
  Pd  Pd0  1  0.99710400  0.67789100  0.37170300  1
  Pd  Pd1  1  0.49710400  0.67789100  0.12829700  1
  Pd  Pd2  1  0.99710400  0.82210900  0.87170300  1
  Pd  Pd3  1  0.00289600  0.32210900  0.62829700  1
  Pd  Pd4  1  0.50289600  0.32210900  0.87170300  1
  Pd  Pd5  1  0.49710400  0.82210900  0.62829700  1
  Pd  Pd6  1  0.50289600  0.17789100  0.37170300  1
  Pd  Pd7  1  0.00289600  0.17789100  0.12829700  1
loop_
_geom_bond_atom_site_label_1
_geom_bond_atom_site_label_2
_geom_bond_distance
_geom_bond_site_symmetry_2
Sn0 Te6 2.933024 1_555
Sn1 Te7 2.933024 1_555
Sn2 Te2 2.933024 1_455
Sn3 Te5 2.933024 1_455
Sn4 Te0 2.933024 1_555
Sn5 Te4 2.933024 1_655
Sn6 Te1 2.933024 1_655
Sn7 Te3 2.933024 1_555
Pd0 Sn1 2.689762 1_555
Pd0 Sn3 2.710106 1_655
Pd0 Sn5 2.719032 1_555
Pd0 Te7 2.724684 1_655
Pd0 Te4 2.742528 1_665
Pd0 Te2 2.796421 1_555
Pd1 Sn2 2.689762 1_555
Pd1 Sn7 2.710106 1_554
Pd1 Sn4 2.719032 1_555
Pd1 Te2 2.724684 1_555
Pd1 Te0 2.742528 1_565
Pd1 Te7 2.796421 1_555
Pd2 Sn7 2.689762 1_555
Pd2 Sn2 2.710106 1_656
Pd2 Sn6 2.719032 1_565
Pd2 Te3 2.724684 1_655
Pd2 Te1 2.742528 1_655
Pd2 Te5 2.796421 1_555
Pd3 Sn0 2.689762 1_555
Pd3 Sn5 2.710106 1_455
Pd3 Sn3 2.719032 1_555
Pd3 Te6 2.724684 1_455
Pd3 Te5 2.742528 1_445
Pd3 Te1 2.796421 1_555
Pd4 Sn6 2.689762 1_555
Pd4 Sn4 2.710106 1_556
Pd4 Sn7 2.719032 1_555
Pd4 Te1 2.724684 1_555
Pd4 Te3 2.742528 1_545
Pd4 Te6 2.796421 1_555
Pd5 Sn3 2.689762 1_555
Pd5 Sn1 2.710106 1_555
Pd5 Sn0 2.719032 1_565
Pd5 Te5 2.724684 1_555
Pd5 Te6 2.742528 1_555
Pd5 Te3 2.796421 1_555
Pd6 Sn5 2.689762 1_555
Pd6 Sn0 2.710106 1_555
Pd6 Sn1 2.719032 1_545
Pd6 Te4 2.724684 1_555
Pd6 Te7 2.742528 1_555
Pd6 Te0 2.796421 1_555
Pd7 Sn4 2.689762 1_555
Pd7 Sn6 2.710106 1_454
Pd7 Sn2 2.719032 1_545
Pd7 Te0 2.724684 1_455
Pd7 Te2 2.742528 1_455
Pd7 Te4 2.796421 1_555
