# generated using pymatgen
data_BaZrS3
_symmetry_space_group_name_H-M   'P 1'
_cell_length_a   7.06356130
_cell_length_b   7.13448881
_cell_length_c   10.04182376
_cell_angle_alpha   90.00000000
_cell_angle_beta   90.00000000
_cell_angle_gamma   90.00000000
_symmetry_Int_Tables_number   1
_chemical_formula_structural   BaZrS3
_chemical_formula_sum   'Ba4 Zr4 S12'
_cell_volume   506.05669470
_cell_formula_units_Z   4
loop_
 _symmetry_equiv_pos_site_id
 _symmetry_equiv_pos_as_xyz
  1  'x, y, z'
loop_
 _atom_site_type_symbol
 _atom_site_label
 _atom_site_symmetry_multiplicity
 _atom_site_fract_x
 _atom_site_fract_y
 _atom_site_fract_z
 _atom_site_occupancy
  Ba  Ba0  1  0.00875008  0.04302725  0.25000000  1
  Ba  Ba1  1  0.50875008  0.45697275  0.75000000  1
  Ba  Ba2  1  0.49124992  0.54302725  0.25000000  1
  Ba  Ba3  1  0.99124992  0.95697275  0.75000000  1
  Zr  Zr0  1  0.50000000  -0.00000000  0.00000000  1
  Zr  Zr1  1  -0.00000000  0.50000000  0.00000000  1
  Zr  Zr2  1  -0.00000000  0.50000000  0.50000000  1
  Zr  Zr3  1  0.50000000  -0.00000000  0.50000000  1
  S  S0  1  0.56089726  0.99415816  0.25000000  1
  S  S1  1  0.06089726  0.50584184  0.75000000  1
  S  S2  1  0.93910274  0.49415816  0.25000000  1
  S  S3  1  0.43910274  0.00584184  0.75000000  1
  S  S4  1  0.78661805  0.21325579  0.96817857  1
  S  S5  1  0.28661805  0.28674421  0.03182143  1
  S  S6  1  0.71338195  0.71325579  0.53182143  1
  S  S7  1  0.21338195  0.78674421  0.46817857  1
  S  S8  1  0.21338195  0.78674421  0.03182143  1
  S  S9  1  0.71338195  0.71325579  0.96817857  1
  S  S10  1  0.28661805  0.28674421  0.46817857  1
  S  S11  1  0.78661805  0.21325579  0.53182143  1
loop_
_geom_bond_atom_site_label_1
_geom_bond_atom_site_label_2
_geom_bond_distance
_geom_bond_site_symmetry_2
Ba0 S0 3.182591 1_445
Ba0 S7 3.198841 1_545
Ba0 S8 3.198841 1_545
Ba0 S2 3.255969 1_455
Ba0 S10 3.416993 1_555
Ba0 S5 3.416993 1_555
Ba0 S4 3.456269 1_454
Ba0 S11 3.456269 1_455
Ba1 S1 3.182591 1_555
Ba1 S9 3.198841 1_555
Ba1 S6 3.198841 1_555
Ba1 S3 3.255969 1_555
Ba1 S4 3.416993 1_555
Ba1 S11 3.416993 1_555
Ba1 S10 3.456269 1_555
Ba1 S5 3.456269 1_556
Ba2 S2 3.182591 1_555
Ba2 S10 3.198841 1_555
Ba2 S5 3.198841 1_555
Ba2 S0 3.255969 1_555
Ba2 S7 3.416993 1_555
Ba2 S8 3.416993 1_555
Ba2 S9 3.456269 1_554
Ba2 S6 3.456269 1_555
Ba3 S3 3.182591 1_665
Ba3 S4 3.198841 1_565
Ba3 S11 3.198841 1_565
Ba3 S1 3.255969 1_655
Ba3 S9 3.416993 1_555
Ba3 S6 3.416993 1_555
Ba3 S8 3.456269 1_656
Ba3 S7 3.456269 1_655
S0 Zr3 2.547382 1_565
S0 Zr0 2.547382 1_565
S1 Zr2 2.547382 1_555
S1 Zr1 2.547382 1_556
S2 Zr1 2.547382 1_655
S2 Zr2 2.547382 1_655
S3 Zr0 2.547382 1_556
S3 Zr3 2.547382 1_555
S4 Zr0 2.552599 1_556
S4 Zr1 2.561066 1_656
S5 Zr1 2.552599 1_555
S5 Zr0 2.561066 1_555
S6 Zr2 2.552599 1_655
S6 Zr3 2.561066 1_565
S7 Zr3 2.552599 1_565
S7 Zr2 2.561066 1_555
S8 Zr0 2.552599 1_565
S8 Zr1 2.561066 1_555
S9 Zr1 2.552599 1_656
S9 Zr0 2.561066 1_566
S10 Zr2 2.552599 1_555
S10 Zr3 2.561066 1_555
S11 Zr3 2.552599 1_555
S11 Zr2 2.561066 1_655
