# generated using pymatgen
data_K
_symmetry_space_group_name_H-M   'P 1'
_cell_length_a   9.34461593
_cell_length_b   9.34461785
_cell_length_c   9.34461694
_cell_angle_alpha   109.47121387
_cell_angle_beta   109.47121807
_cell_angle_gamma   109.47123234
_symmetry_Int_Tables_number   1
_chemical_formula_structural   K
_chemical_formula_sum   K8
_cell_volume   628.14889692
_cell_formula_units_Z   8
loop_
 _symmetry_equiv_pos_site_id
 _symmetry_equiv_pos_as_xyz
  1  'x, y, z'
loop_
 _atom_site_type_symbol
 _atom_site_label
 _atom_site_symmetry_multiplicity
 _atom_site_fract_x
 _atom_site_fract_y
 _atom_site_fract_z
 _atom_site_occupancy
  K  K0_0  1  0.00000000  0.00000000  0.00000000  1
  K  K0_1  1  0.00000000  0.00000000  0.50000000  1
  K  K0_2  1  0.00000000  0.50000000  0.00000000  1
  K  K0_3  1  1.00000000  0.50000000  0.50000000  1
  K  K0_4  1  0.50000000  0.00000000  0.00000000  1
  K  K0_5  1  0.50000000  0.00000000  0.50000000  1
  K  K0_6  1  0.50000000  0.50000000  0.00000000  1
  K  K0_7  1  0.50000000  0.50000000  0.50000000  1
loop_
_geom_bond_atom_site_label_1
_geom_bond_atom_site_label_2
_geom_bond_distance
_geom_bond_site_symmetry_2
K0_0 K0_4 4.672308 1_455
K0_0 K0_4 4.672308 1_555
K0_0 K0_7 4.672308 1_555
K0_0 K0_7 4.672308 1_444
K0_0 K0_1 4.672308 1_555
K0_0 K0_1 4.672308 1_554
K0_0 K0_2 4.672309 1_555
K0_0 K0_2 4.672309 1_545
K0_1 K0_5 4.672308 1_555
K0_1 K0_5 4.672308 1_455
K0_1 K0_6 4.672308 1_556
K0_1 K0_6 4.672308 1_445
K0_1 K0_3 4.672309 1_445
K0_1 K0_3 4.672309 1_455
K0_2 K0_6 4.672308 1_455
K0_2 K0_6 4.672308 1_555
K0_2 K0_5 4.672308 1_454
K0_2 K0_5 4.672308 1_565
K0_2 K0_3 4.672308 1_455
K0_2 K0_3 4.672308 1_454
K0_3 K0_7 4.672308 1_555
K0_3 K0_7 4.672308 1_655
K0_3 K0_4 4.672308 1_555
K0_3 K0_4 4.672308 1_666
K0_4 K0_5 4.672308 1_555
K0_4 K0_5 4.672308 1_554
K0_4 K0_6 4.672309 1_555
K0_4 K0_6 4.672309 1_545
K0_5 K0_7 4.672309 1_555
K0_5 K0_7 4.672309 1_545
K0_6 K0_7 4.672308 1_555
K0_6 K0_7 4.672308 1_554
