# generated using pymatgen
data_SrCoO3
_symmetry_space_group_name_H-M   'P 1'
_cell_length_a   4.92441533
_cell_length_b   5.52051531
_cell_length_c   9.69211595
_cell_angle_alpha   89.96229321
_cell_angle_beta   94.70025655
_cell_angle_gamma   89.99433842
_symmetry_Int_Tables_number   1
_chemical_formula_structural   SrCoO3
_chemical_formula_sum   'Sr4 Co4 O12'
_cell_volume   262.59702971
_cell_formula_units_Z   4
loop_
 _symmetry_equiv_pos_site_id
 _symmetry_equiv_pos_as_xyz
  1  'x, y, z'
loop_
 _atom_site_type_symbol
 _atom_site_label
 _atom_site_symmetry_multiplicity
 _atom_site_fract_x
 _atom_site_fract_y
 _atom_site_fract_z
 _atom_site_occupancy
  Sr  Sr0  1  0.52838500  0.24989600  0.65114300  1
  Sr  Sr1  1  0.47118500  0.75013100  0.34915400  1
  Sr  Sr2  1  0.01972800  0.74993400  0.65166400  1
  Sr  Sr3  1  0.97965200  0.25010400  0.34791900  1
  Co  Co0  1  0.50015100  0.00014000  0.99999500  1
  Co  Co1  1  0.00248700  0.24966900  0.99696800  1
  Co  Co2  1  0.50000900  0.49933100  0.99999200  1
  Co  Co3  1  0.99805900  0.75082700  0.00313800  1
  O  O0  1  0.18597200  0.00088900  0.10312300  1
  O  O1  1  0.68095300  0.74962900  0.10133000  1
  O  O2  1  0.69094300  0.24967800  0.09867400  1
  O  O3  1  0.48609800  0.25013800  0.39412700  1
  O  O4  1  0.81483100  0.50116700  0.89761400  1
  O  O5  1  0.31043100  0.74991400  0.90150000  1
  O  O6  1  0.18507400  0.49921800  0.10260600  1
  O  O7  1  0.51362900  0.74993500  0.60663500  1
  O  O8  1  0.81405300  0.99948400  0.89698900  1
  O  O9  1  0.31931400  0.24987900  0.89815800  1
  O  O10  1  0.01997400  0.24998400  0.60519900  1
  O  O11  1  0.97907100  0.75005300  0.39407200  1
loop_
_geom_bond_atom_site_label_1
_geom_bond_atom_site_label_2
_geom_bond_distance
_geom_bond_site_symmetry_2
Co0 O9 1.876678 1_555
Co0 O1 1.877376 1_546
Co0 O5 1.883661 1_545
Co0 O2 1.884117 1_556
Co0 O8 1.907635 1_545
Co0 O0 1.909498 1_556
Co1 O4 1.887069 1_455
Co1 O8 1.887394 1_445
Co1 O2 1.890298 1_456
Co1 O9 1.896366 1_555
Co1 O6 1.898906 1_556
Co1 O0 1.899140 1_556
Co2 O9 1.876282 1_555
Co2 O1 1.877908 1_556
Co2 O5 1.883718 1_555
Co2 O2 1.883858 1_556
Co2 O4 1.907945 1_555
Co2 O6 1.909739 1_556
Co3 O0 1.885772 1_665
Co3 O6 1.886628 1_655
Co3 O5 1.893403 1_654
Co3 O1 1.894143 1_555
Co3 O8 1.899728 1_554
Co3 O4 1.900155 1_554
O0 Sr3 2.992214 1_455
O0 Sr1 3.003580 1_545
O1 Sr1 2.691285 1_555
O2 Sr3 2.700761 1_555
O3 Sr0 2.482654 1_555
O3 Sr3 2.497461 1_455
O3 Sr3 2.507214 1_555
O3 Sr1 2.794159 1_555
O3 Sr1 2.794817 1_545
O4 Sr2 2.996102 1_655
O4 Sr0 3.012127 1_555
O5 Sr2 2.710090 1_555
O6 Sr3 2.992944 1_455
O6 Sr1 3.011114 1_555
O7 Sr1 2.487147 1_555
O7 Sr2 2.494691 1_655
O7 Sr2 2.505972 1_555
O7 Sr0 2.793713 1_555
O7 Sr0 2.793863 1_565
O8 Sr2 2.995994 1_655
O8 Sr0 3.002250 1_565
O9 Sr0 2.682469 1_555
O10 Sr3 2.485208 1_455
O10 Sr0 2.497032 1_455
O10 Sr0 2.506736 1_555
O10 Sr2 2.796750 1_545
O10 Sr2 2.796790 1_555
O11 Sr2 2.488219 1_655
O11 Sr1 2.497033 1_655
O11 Sr1 2.503257 1_555
O11 Sr3 2.796295 1_565
O11 Sr3 2.796320 1_555
