# generated using pymatgen
data_Co5Se4(ClO6)2
_symmetry_space_group_name_H-M   'P 1'
_cell_length_a   6.57894260
_cell_length_b   14.44261952
_cell_length_c   8.00979065
_cell_angle_alpha   96.13650491
_cell_angle_beta   72.53187658
_cell_angle_gamma   89.83767000
_symmetry_Int_Tables_number   1
_chemical_formula_structural   Co5Se4(ClO6)2
_chemical_formula_sum   'Co10 Se8 Cl4 O24'
_cell_volume   721.32103854
_cell_formula_units_Z   2
loop_
 _symmetry_equiv_pos_site_id
 _symmetry_equiv_pos_as_xyz
  1  'x, y, z'
loop_
 _atom_site_type_symbol
 _atom_site_label
 _atom_site_symmetry_multiplicity
 _atom_site_fract_x
 _atom_site_fract_y
 _atom_site_fract_z
 _atom_site_occupancy
  Co  Co0  1  0.99999100  0.49999300  0.50000800  1
  Co  Co1  1  0.11195300  0.84853100  0.28449500  1
  Co  Co2  1  0.88791900  0.15147700  0.71556600  1
  Co  Co3  1  0.68030900  0.56339400  0.90671900  1
  Co  Co4  1  0.31970000  0.43658600  0.09326400  1
  Co  Co5  1  0.99996600  0.00005000  0.99995800  1
  Co  Co6  1  0.11235800  0.34855400  0.78443200  1
  Co  Co7  1  0.88761900  0.65141200  0.21557600  1
  Co  Co8  1  0.68022600  0.06357100  0.40688100  1
  Co  Co9  1  0.32004800  0.93630900  0.59308800  1
  Se  Se0  1  0.65226600  0.34585000  0.67020400  1
  Se  Se1  1  0.65201900  0.84585000  0.17020200  1
  Se  Se2  1  0.34790300  0.15412100  0.82982500  1
  Se  Se3  1  0.34768900  0.65413800  0.32979400  1
  Se  Se4  1  0.78737800  0.41923900  0.19732500  1
  Se  Se5  1  0.78739300  0.91933200  0.69720500  1
  Se  Se6  1  0.21279300  0.08068700  0.30282200  1
  Se  Se7  1  0.21262400  0.58074400  0.80267000  1
  Cl  Cl0  1  0.17675600  0.34443300  0.35037900  1
  Cl  Cl1  1  0.17652600  0.84445300  0.85007600  1
  Cl  Cl2  1  0.82328800  0.15554100  0.14976000  1
  Cl  Cl3  1  0.82322800  0.65557400  0.64960800  1
  O  O0  1  0.58368000  0.15062700  0.65770000  1
  O  O1  1  0.58346600  0.65047100  0.15767000  1
  O  O2  1  0.41649600  0.34953700  0.84234100  1
  O  O3  1  0.41628700  0.84940900  0.34238700  1
  O  O4  1  0.83385300  0.02319700  0.81263800  1
  O  O5  1  0.83388800  0.52314500  0.31264000  1
  O  O6  1  0.16610000  0.47683700  0.68737200  1
  O  O7  1  0.16621200  0.97682100  0.18739700  1
  O  O8  1  0.96376000  0.09860800  0.46006700  1
  O  O9  1  0.96363500  0.59853100  0.96003000  1
  O  O10  1  0.03635900  0.40148100  0.03995200  1
  O  O11  1  0.03633000  0.90147600  0.53986700  1
  O  O12  1  0.83242500  0.29304700  0.75674300  1
  O  O13  1  0.83219600  0.79297100  0.25661400  1
  O  O14  1  0.16770700  0.20700600  0.74343400  1
  O  O15  1  0.16755000  0.70695300  0.24324300  1
  O  O16  1  0.26220100  0.04086300  0.81683000  1
  O  O17  1  0.26204200  0.54085800  0.31701200  1
  O  O18  1  0.73795000  0.45913300  0.68299100  1
  O  O19  1  0.73782100  0.95909700  0.18304200  1
  O  O20  1  0.35995300  0.04886200  0.43482100  1
  O  O21  1  0.36010000  0.54890100  0.93441100  1
  O  O22  1  0.63988700  0.45110600  0.06561200  1
  O  O23  1  0.64015500  0.95122300  0.56533100  1
loop_
_geom_bond_atom_site_label_1
_geom_bond_atom_site_label_2
_geom_bond_distance
_geom_bond_site_symmetry_2
Co0 O18 2.035232 1_555
Co0 O17 2.035352 1_655
Co0 O5 2.155950 1_555
Co0 O6 2.155964 1_655
Co1 O11 2.017102 1_555
Co1 O15 2.050062 1_555
Co1 O13 2.073172 1_455
Co1 O7 2.076171 1_555
Co1 O3 2.186375 1_555
Co2 O8 2.017638 1_555
Co2 O12 2.049863 1_555
Co2 O14 2.073156 1_655
Co2 O4 2.075870 1_555
Co2 O0 2.185667 1_555
Co3 O21 2.064662 1_555
Co3 O9 2.085948 1_555
Co3 O22 2.135655 1_556
Co3 O18 2.152775 1_555
Co3 O1 2.171188 1_556
Co4 O22 2.064625 1_555
Co4 O10 2.085943 1_555
Co4 O21 2.135779 1_554
Co4 O17 2.152977 1_555
Co4 O2 2.170816 1_554
Co5 O16 2.036365 1_655
Co5 O19 2.036563 1_546
Co5 O4 2.155648 1_555
Co5 O7 2.157369 1_646
Co6 O10 2.017954 1_556
Co6 O14 2.049429 1_555
Co6 O12 2.073438 1_455
Co6 O6 2.075741 1_555
Co6 O2 2.185157 1_555
Co7 O9 2.017956 1_554
Co7 O13 2.049647 1_555
Co7 O15 2.073553 1_655
Co7 O5 2.075534 1_555
Co7 O1 2.185250 1_555
Co8 O20 2.065070 1_555
Co8 O8 2.086486 1_555
Co8 O23 2.134222 1_545
Co8 O19 2.155302 1_545
Co8 O0 2.170196 1_555
Co9 O23 2.064614 1_555
Co9 O11 2.087113 1_555
Co9 O20 2.135785 1_565
Co9 O16 2.155336 1_565
Co9 O3 2.168357 1_555
Cl0 Co4 2.515438 1_555
Cl0 Co0 2.531640 1_455
Cl1 Co9 2.512510 1_555
Cl1 Co5 2.532151 1_465
Cl2 Co8 2.513943 1_555
Cl2 Co5 2.530961 1_554
Cl3 Co3 2.515633 1_555
Cl3 Co0 2.531833 1_555
O0 Se2 1.734999 1_555
O1 Se3 1.734850 1_555
O2 Se0 1.734858 1_555
O3 Se1 1.735002 1_555
O4 Se5 1.753364 1_545
O5 Se4 1.753487 1_555
O6 Se7 1.753463 1_555
O7 Se6 1.753611 1_565
O8 Se6 1.739730 1_655
O9 Se7 1.739780 1_655
O10 Se4 1.739758 1_455
O11 Se5 1.739525 1_455
O12 Se0 1.751572 1_555
O13 Se1 1.751532 1_555
O14 Se2 1.751564 1_555
O15 Se3 1.751612 1_555
O16 Se2 1.734488 1_555
O17 Se3 1.734565 1_555
O18 Se0 1.734692 1_555
O19 Se1 1.734496 1_555
O20 Se6 1.726948 1_555
O21 Se7 1.726910 1_555
O22 Se4 1.726916 1_555
O23 Se5 1.726835 1_555
