# generated using pymatgen
data_MnP4
_symmetry_space_group_name_H-M   'P 1'
_cell_length_a   5.07461317
_cell_length_b   5.81425907
_cell_length_c   21.72841070
_cell_angle_alpha   94.37976251
_cell_angle_beta   90.00000000
_cell_angle_gamma   115.87401643
_symmetry_Int_Tables_number   1
_chemical_formula_structural   MnP4
_chemical_formula_sum   'Mn8 P32'
_cell_volume   574.75132730
_cell_formula_units_Z   8
loop_
 _symmetry_equiv_pos_site_id
 _symmetry_equiv_pos_as_xyz
  1  'x, y, z'
loop_
 _atom_site_type_symbol
 _atom_site_label
 _atom_site_symmetry_multiplicity
 _atom_site_fract_x
 _atom_site_fract_y
 _atom_site_fract_z
 _atom_site_occupancy
  Mn  Mn0  1  0.51452286  0.63187097  0.18153662  1
  Mn  Mn1  1  0.95716228  0.14945894  0.42979718  1
  Mn  Mn2  1  0.80770334  0.85054106  0.07020282  1
  Mn  Mn3  1  0.88265189  0.36812903  0.31846338  1
  Mn  Mn4  1  0.19229666  0.14945894  0.92979718  1
  Mn  Mn5  1  0.11734811  0.63187097  0.68153662  1
  Mn  Mn6  1  0.04283772  0.85054106  0.57020282  1
  Mn  Mn7  1  0.48547714  0.36812903  0.81846338  1
  P  P0  1  0.95485867  0.94664125  0.16999414  1
  P  P1  1  0.41514287  0.44949952  0.45081060  1
  P  P2  1  0.63825367  0.06430546  0.80002248  1
  P  P3  1  0.57394920  0.93569454  0.69997752  1
  P  P4  1  0.96564435  0.55050048  0.04918940  1
  P  P5  1  0.50091145  0.84194150  0.42551246  1
  P  P6  1  0.63791815  0.45967686  0.91643615  1
  P  P7  1  0.90441200  0.15210459  0.53682324  1
  P  P8  1  0.70576180  0.65774265  0.28475324  1
  P  P9  1  0.34103004  0.84194150  0.92551246  1
  P  P10  1  0.99178358  0.94664125  0.66999414  1
  P  P11  1  0.65044020  0.32050544  0.16923945  1
  P  P12  1  0.34955980  0.67949456  0.83076055  1
  P  P13  1  0.67006524  0.32050544  0.66923945  1
  P  P14  1  0.04514133  0.05335875  0.83000586  1
  P  P15  1  0.42605080  0.06430546  0.30002248  1
  P  P16  1  0.17824029  0.54032314  0.58356385  1
  P  P17  1  0.32993476  0.67949456  0.33076055  1
  P  P18  1  0.24769258  0.15210459  0.03682324  1
  P  P19  1  0.09558800  0.84789541  0.46317676  1
  P  P20  1  0.04802015  0.34225735  0.21524676  1
  P  P21  1  0.95197985  0.65774265  0.78475324  1
  P  P22  1  0.29423820  0.34225735  0.71524676  1
  P  P23  1  0.36208185  0.54032314  0.08356385  1
  P  P24  1  0.00821642  0.05335875  0.33000586  1
  P  P25  1  0.36174633  0.93569454  0.19997752  1
  P  P26  1  0.82175971  0.45967686  0.41643615  1
  P  P27  1  0.49908855  0.15805850  0.57448754  1
  P  P28  1  0.75230742  0.84789541  0.96317676  1
  P  P29  1  0.03435565  0.44949952  0.95081060  1
  P  P30  1  0.58485713  0.55050048  0.54918940  1
  P  P31  1  0.65896996  0.15805850  0.07448754  1
loop_
_geom_bond_atom_site_label_1
_geom_bond_atom_site_label_2
_geom_bond_distance
_geom_bond_site_symmetry_2
Mn0 P11 2.200103 1_555
Mn0 P23 2.209312 1_555
Mn0 P0 2.215020 1_555
Mn0 P25 2.229211 1_555
Mn0 P20 2.384404 1_555
Mn0 P8 2.411502 1_555
Mn1 P5 2.219829 1_545
Mn1 P26 2.229654 1_555
Mn1 P1 2.234470 1_655
Mn1 P24 2.241023 1_655
Mn1 P19 2.315815 1_645
Mn1 P7 2.340513 1_555
Mn2 P31 2.219829 1_565
Mn2 P23 2.229657 1_555
Mn2 P4 2.234473 1_555
Mn2 P0 2.241024 1_555
Mn2 P18 2.315815 1_665
Mn2 P28 2.340513 1_554
Mn3 P17 2.200103 1_655
Mn3 P26 2.209311 1_555
Mn3 P24 2.215017 1_655
Mn3 P15 2.229214 1_555
Mn3 P8 2.384407 1_555
Mn3 P20 2.411504 1_655
Mn4 P9 2.219829 1_545
Mn4 P6 2.229657 1_555
Mn4 P29 2.234473 1_555
Mn4 P14 2.241024 1_555
Mn4 P28 2.315815 1_445
Mn4 P18 2.340513 1_556
Mn5 P13 2.200103 1_455
Mn5 P16 2.209311 1_555
Mn5 P10 2.215017 1_455
Mn5 P3 2.229214 1_555
Mn5 P22 2.384407 1_555
Mn5 P21 2.411504 1_455
Mn6 P27 2.219829 1_565
Mn6 P16 2.229654 1_555
Mn6 P30 2.234470 1_455
Mn6 P10 2.241023 1_455
Mn6 P7 2.315815 1_465
Mn6 P19 2.340513 1_555
Mn7 P12 2.200103 1_555
Mn7 P6 2.209312 1_555
Mn7 P14 2.215020 1_555
Mn7 P2 2.229211 1_555
Mn7 P21 2.384404 1_555
Mn7 P22 2.411502 1_555
P0 P25 2.193835 1_655
P0 P20 2.277444 1_665
P1 P26 2.172386 1_555
P1 P5 2.241161 1_555
P1 P30 2.241168 1_555
P2 P3 2.220336 1_545
P10 P3 2.193835 1_555
P10 P22 2.277444 1_665
P11 P20 2.200881 1_655
P11 P31 2.207112 1_555
P11 P25 2.228376 1_545
P12 P21 2.200881 1_455
P12 P9 2.207112 1_555
P12 P2 2.228376 1_565
P13 P22 2.200877 1_555
P13 P27 2.207112 1_555
P13 P3 2.228377 1_545
P14 P2 2.193835 1_455
P14 P21 2.277444 1_445
P15 P24 2.193835 1_555
P15 P25 2.220336 1_545
P15 P17 2.228377 1_545
P16 P30 2.172386 1_555
P16 P7 2.229271 1_455
P17 P8 2.200877 1_555
P17 P5 2.207112 1_555
P18 P31 2.226981 1_555
P18 P23 2.229272 1_555
P19 P5 2.226981 1_555
P19 P26 2.229271 1_455
P23 P4 2.172377 1_455
P24 P8 2.277444 1_445
P27 P7 2.226981 1_555
P27 P30 2.241161 1_555
P28 P9 2.226981 1_555
P28 P6 2.229272 1_555
P29 P6 2.172377 1_455
P29 P9 2.241163 1_555
P29 P4 2.241165 1_456
P31 P4 2.241163 1_555
