# generated using pymatgen
data_Al6SnTe10
_symmetry_space_group_name_H-M   'P 1'
_cell_length_a   14.70977118
_cell_length_b   14.70977064
_cell_length_c   18.18705447
_cell_angle_alpha   90.00000000
_cell_angle_beta   90.00000000
_cell_angle_gamma   119.99999904
_symmetry_Int_Tables_number   1
_chemical_formula_structural   Al6SnTe10
_chemical_formula_sum   'Al36 Sn6 Te60'
_cell_volume   3408.04108502
_cell_formula_units_Z   6
loop_
 _symmetry_equiv_pos_site_id
 _symmetry_equiv_pos_as_xyz
  1  'x, y, z'
loop_
 _atom_site_type_symbol
 _atom_site_label
 _atom_site_symmetry_multiplicity
 _atom_site_fract_x
 _atom_site_fract_y
 _atom_site_fract_z
 _atom_site_occupancy
  Al  Al0  1  0.99060047  0.91768262  0.91939658  1
  Al  Al1  1  0.07291885  0.08231738  0.74727042  1
  Al  Al2  1  0.00939953  0.92708115  0.41393742  1
  Al  Al3  1  0.08231738  0.07291885  0.25272958  1
  Al  Al4  1  0.14141481  0.92258780  0.59667260  1
  Al  Al5  1  0.25795341  0.81079240  0.07411256  1
  Al  Al6  1  0.11684131  0.52336984  0.93325180  1
  Al  Al7  1  0.25599248  0.67797139  0.25026227  1
  Al  Al8  1  0.25486182  0.65894765  0.74813722  1
  Al  Al9  1  0.40652853  0.88315869  0.59991880  1
  Al  Al10  1  0.18920760  0.44716101  0.40744556  1
  Al  Al11  1  0.07741220  0.21882701  0.93000560  1
  Al  Al12  1  0.40408583  0.74513818  0.41480322  1
  Al  Al13  1  0.32202861  0.57802109  0.58359627  1
  Al  Al14  1  0.34105235  0.59591417  0.08147022  1
  Al  Al15  1  0.42197891  0.74400752  0.91692927  1
  Al  Al16  1  0.21882701  0.07741220  0.06999440  1
  Al  Al17  1  0.47663016  0.59347147  0.26658480  1
  Al  Al18  1  0.55283899  0.74204659  0.74077956  1
  Al  Al19  1  0.44716101  0.18920760  0.59255444  1
  Al  Al20  1  0.78117299  0.85858519  0.26333860  1
  Al  Al21  1  0.59347147  0.47663016  0.73341520  1
  Al  Al22  1  0.57802109  0.32202861  0.41640373  1
  Al  Al23  1  0.59591417  0.34105235  0.91852978  1
  Al  Al24  1  0.52336984  0.11684131  0.06674820  1
  Al  Al25  1  0.74204659  0.55283899  0.25922044  1
  Al  Al26  1  0.85858519  0.78117299  0.73666140  1
  Al  Al27  1  0.65894765  0.25486182  0.25186278  1
  Al  Al28  1  0.74400752  0.42197891  0.08307073  1
  Al  Al29  1  0.74513818  0.40408583  0.58519678  1
  Al  Al30  1  0.67797139  0.25599248  0.74973773  1
  Al  Al31  1  0.88315869  0.40652853  0.40008120  1
  Al  Al32  1  0.81079240  0.25795341  0.92588744  1
  Al  Al33  1  0.92258780  0.14141481  0.40332740  1
  Al  Al34  1  0.92708115  0.00939953  0.58606258  1
  Al  Al35  1  0.91768262  0.99060047  0.08060342  1
  Sn  Sn0  1  0.08787511  0.74126772  0.84277302  1
  Sn  Sn1  1  0.25873228  0.34660739  0.17610602  1
  Sn  Sn2  1  0.65339261  0.91212489  0.50944002  1
  Sn  Sn3  1  0.34660739  0.25873228  0.82389398  1
  Sn  Sn4  1  0.91212489  0.65339261  0.49055998  1
  Sn  Sn5  1  0.74126772  0.08787511  0.15722698  1
  Te  Te0  1  0.15661023  0.00000000  0.83333300  1
  Te  Te1  1  0.03396820  0.89887101  0.06105250  1
  Te  Te2  1  0.24926368  0.24926368  -0.00000000  1
  Te  Te3  1  0.00000000  0.75073632  0.66666700  1
  Te  Te4  1  0.14600531  0.87231404  0.45787496  1
  Te  Te5  1  0.08631405  0.66418339  0.00392855  1
  Te  Te6  1  0.06331609  0.52339679  0.79411445  1
  Te  Te7  1  0.21422012  0.82265400  0.21075770  1
  Te  Te8  1  0.33130075  0.99933627  0.00568027  1
  Te  Te9  1  0.00066373  0.33196548  0.33901327  1
  Te  Te10  1  0.19692910  0.63215940  0.39283386  1
  Te  Te11  1  0.23191438  0.69761392  0.60633150  1
  Te  Te12  1  0.17266700  0.51182648  0.16413386  1
  Te  Te13  1  1.00000000  0.15661023  0.16666700  1
  Te  Te14  1  0.33915947  0.82733300  0.83080086  1
  Te  Te15  1  0.17734600  0.39156512  0.54409170  1
  Te  Te16  1  0.46008070  0.93668391  0.46078145  1
  Te  Te17  1  0.12768596  0.27369127  0.79120796  1
  Te  Te18  1  0.43523030  0.80307090  0.05950086  1
  Te  Te19  1  0.10112899  0.13509819  0.39438550  1
  Te  Te20  1  0.30238608  0.53430047  0.93966450  1
  Te  Te21  1  0.46569953  0.76808562  0.27299750  1
  Te  Te22  1  0.13509819  0.10112899  0.60561450  1
  Te  Te23  1  0.36784060  0.56476970  0.72616786  1
  Te  Te24  1  0.57786934  0.91368595  0.67059555  1
  Te  Te25  1  0.33581661  0.42213066  0.33726155  1
  Te  Te26  1  0.48817352  0.66084053  0.49746786  1
  Te  Te27  1  0.47660321  0.53991930  0.12744745  1
  Te  Te28  1  0.27369127  0.12768596  0.20879204  1
  Te  Te29  1  0.60843488  0.78577988  0.87742470  1
  Te  Te30  1  0.42213066  0.33581661  0.66273845  1
  Te  Te31  1  0.72630873  0.85399469  0.12454096  1
  Te  Te32  1  0.53991930  0.47660321  0.87255255  1
  Te  Te33  1  0.39156512  0.17734600  0.45590830  1
  Te  Te34  1  0.33196548  0.00066373  0.66098673  1
  Te  Te35  1  0.66803452  0.66869925  0.67234727  1
  Te  Te36  1  0.66869925  0.66803452  0.32765273  1
  Te  Te37  1  0.56476970  0.36784060  0.27383214  1
  Te  Te38  1  0.86490181  0.96603180  0.72771950  1
  Te  Te39  1  0.53430047  0.30238608  0.06033550  1
  Te  Te40  1  0.66084053  0.48817352  0.50253214  1
  Te  Te41  1  0.51182648  0.17266700  0.83586614  1
  Te  Te42  1  0.78577988  0.60843488  0.12257530  1
  Te  Te43  1  0.52339679  0.06331609  0.20588555  1
  Te  Te44  1  0.85399469  0.72630873  0.87545904  1
  Te  Te45  1  0.63215940  0.19692910  0.60716614  1
  Te  Te46  1  0.96603180  0.86490181  0.27228050  1
  Te  Te47  1  0.76808562  0.46569953  0.72700250  1
  Te  Te48  1  0.69761392  0.23191438  0.39366850  1
  Te  Te49  1  0.80307090  0.43523030  0.94049914  1
  Te  Te50  1  0.66418339  0.08631405  0.99607145  1
  Te  Te51  1  0.91368595  0.57786934  0.32940445  1
  Te  Te52  1  0.82733300  0.33915947  0.16919914  1
  Te  Te53  1  0.93668391  0.46008070  0.53921855  1
  Te  Te54  1  0.82265400  0.21422012  0.78924230  1
  Te  Te55  1  0.75073632  1.00000000  0.33333300  1
  Te  Te56  1  0.87231404  0.14600531  0.54212504  1
  Te  Te57  1  0.99933627  0.33130075  0.99431973  1
  Te  Te58  1  0.89887101  0.03396820  0.93894750  1
  Te  Te59  1  0.84338977  0.84338977  0.50000000  1
loop_
_geom_bond_atom_site_label_1
_geom_bond_atom_site_label_2
_geom_bond_distance
_geom_bond_site_symmetry_2
Al0 Te0 2.631062 1_665
Al0 Te44 2.635202 1_555
Al0 Te58 2.679754 1_565
Al0 Te1 2.701368 1_656
Al1 Te0 2.631040 1_555
Al1 Te17 2.635206 1_555
Al1 Te38 2.679778 1_445
Al1 Te22 2.701368 1_555
Al2 Te59 2.631051 1_455
Al2 Te4 2.635192 1_555
Al2 Te19 2.679782 1_565
Al2 Te46 2.701386 1_455
Al3 Te13 2.631040 1_455
Al3 Te28 2.635206 1_555
Al3 Te46 2.679778 1_445
Al3 Te19 2.701368 1_555
Al4 Te4 2.640752 1_555
Al4 Te3 2.660721 1_555
Al4 Te22 2.678910 1_565
Al4 Te34 2.706399 1_565
Al5 Te7 2.594728 1_555
Al5 Te18 2.679519 1_555
Al5 Te5 2.685099 1_555
Al5 Te8 2.722625 1_555
Al6 Te6 2.650216 1_555
Al6 Te20 2.655148 1_555
Al6 Te5 2.659786 1_556
Al6 Te57 2.705548 1_455
Al7 Te7 2.594404 1_555
Al7 Te12 2.633130 1_555
Al7 Te10 2.710516 1_555
Al7 Te21 2.711956 1_555
Al8 Te14 2.619456 1_555
Al8 Te6 2.644941 1_555
Al8 Te23 2.672633 1_555
Al8 Te11 2.698299 1_555
Al9 Te16 2.650216 1_555
Al9 Te11 2.655148 1_555
Al9 Te24 2.659786 1_555
Al9 Te34 2.705537 1_565
Al10 Te15 2.594750 1_555
Al10 Te10 2.679518 1_555
Al10 Te25 2.685099 1_555
Al10 Te9 2.722623 1_555
Al11 Te17 2.640752 1_555
Al11 Te2 2.660721 1_556
Al11 Te58 2.678918 1_455
Al11 Te57 2.706387 1_455
Al12 Te26 2.619466 1_555
Al12 Te16 2.644947 1_555
Al12 Te10 2.672633 1_555
Al12 Te21 2.698299 1_555
Al13 Te15 2.594414 1_555
Al13 Te26 2.633130 1_555
Al13 Te23 2.710516 1_555
Al13 Te11 2.711956 1_555
Al14 Te12 2.619456 1_555
Al14 Te27 2.644941 1_555
Al14 Te18 2.672633 1_555
Al14 Te20 2.698299 1_554
Al15 Te29 2.594418 1_555
Al15 Te14 2.633130 1_555
Al15 Te18 2.710516 1_556
Al15 Te20 2.711956 1_555
Al16 Te28 2.640752 1_555
Al16 Te2 2.660721 1_555
Al16 Te1 2.678918 1_545
Al16 Te8 2.706387 1_545
Al17 Te27 2.650216 1_555
Al17 Te21 2.655148 1_555
Al17 Te25 2.659786 1_555
Al17 Te36 2.705549 1_555
Al18 Te29 2.594731 1_555
Al18 Te23 2.679519 1_555
Al18 Te24 2.685099 1_555
Al18 Te35 2.722613 1_555
Al19 Te33 2.594750 1_555
Al19 Te45 2.679519 1_555
Al19 Te30 2.685099 1_555
Al19 Te34 2.722623 1_555
Al20 Te31 2.640752 1_555
Al20 Te55 2.660721 1_555
Al20 Te46 2.678925 1_555
Al20 Te36 2.706398 1_555
Al21 Te32 2.650216 1_555
Al21 Te47 2.655148 1_555
Al21 Te30 2.659786 1_555
Al21 Te35 2.705549 1_555
Al22 Te33 2.594414 1_555
Al22 Te40 2.633130 1_555
Al22 Te37 2.710516 1_555
Al22 Te48 2.711956 1_555
Al23 Te41 2.619456 1_555
Al23 Te32 2.644941 1_555
Al23 Te49 2.672633 1_555
Al23 Te39 2.698299 1_556
Al24 Te43 2.650216 1_555
Al24 Te39 2.655148 1_555
Al24 Te50 2.659786 1_554
Al24 Te8 2.705548 1_545
Al25 Te42 2.594731 1_555
Al25 Te37 2.679519 1_555
Al25 Te51 2.685099 1_555
Al25 Te36 2.722613 1_555
Al26 Te44 2.640752 1_555
Al26 Te3 2.660721 1_655
Al26 Te38 2.678924 1_555
Al26 Te35 2.706398 1_555
Al27 Te52 2.619456 1_555
Al27 Te43 2.644941 1_555
Al27 Te37 2.672633 1_555
Al27 Te48 2.698299 1_555
Al28 Te42 2.594418 1_555
Al28 Te52 2.633130 1_555
Al28 Te49 2.710516 1_554
Al28 Te39 2.711956 1_555
Al29 Te40 2.619466 1_555
Al29 Te53 2.644947 1_555
Al29 Te45 2.672633 1_555
Al29 Te47 2.698299 1_555
Al30 Te54 2.594404 1_555
Al30 Te41 2.633130 1_555
Al30 Te45 2.710516 1_555
Al30 Te47 2.711956 1_555
Al31 Te53 2.650216 1_555
Al31 Te48 2.655148 1_555
Al31 Te51 2.659786 1_555
Al31 Te9 2.705537 1_655
Al32 Te54 2.594728 1_555
Al32 Te49 2.679518 1_555
Al32 Te50 2.685099 1_555
Al32 Te57 2.722625 1_555
Al33 Te56 2.640752 1_555
Al33 Te55 2.660721 1_545
Al33 Te19 2.678910 1_655
Al33 Te9 2.706399 1_655
Al34 Te59 2.631051 1_545
Al34 Te56 2.635192 1_555
Al34 Te22 2.679782 1_655
Al34 Te38 2.701386 1_545
Al35 Te13 2.631062 1_565
Al35 Te31 2.635202 1_555
Al35 Te1 2.679754 1_655
Al35 Te58 2.701368 1_564
Sn0 Te5 3.138573 1_556
Sn0 Te6 3.166517 1_555
Sn0 Te14 3.260905 1_555
Sn0 Te44 3.388309 1_455
Sn0 Te0 3.418848 1_565
Sn0 Te3 3.482608 1_555
Sn1 Te25 3.138573 1_555
Sn1 Te27 3.166517 1_555
Sn1 Te12 3.260905 1_555
Sn1 Te28 3.388309 1_555
Sn1 Te13 3.418847 1_455
Sn1 Te2 3.482608 1_555
Sn2 Te24 3.138573 1_555
Sn2 Te16 3.166517 1_555
Sn2 Te26 3.260905 1_555
Sn2 Te56 3.388306 1_565
Sn2 Te59 3.418848 1_555
Sn2 Te55 3.482625 1_555
Sn3 Te30 3.138573 1_555
Sn3 Te32 3.166517 1_555
Sn3 Te41 3.260905 1_555
Sn3 Te17 3.388309 1_555
Sn3 Te0 3.418847 1_555
Sn3 Te2 3.482608 1_556
Sn4 Te51 3.138573 1_555
Sn4 Te53 3.166517 1_555
Sn4 Te40 3.260905 1_555
Sn4 Te4 3.388306 1_655
Sn4 Te59 3.418848 1_555
Sn4 Te3 3.482625 1_655
Sn5 Te50 3.138573 1_554
Sn5 Te43 3.166517 1_555
Sn5 Te52 3.260905 1_555
Sn5 Te31 3.388309 1_545
Sn5 Te13 3.418848 1_555
Sn5 Te55 3.482608 1_545
