# generated using pymatgen
data_Na26In4O19
_symmetry_space_group_name_H-M   'P 1'
_cell_length_a   12.48743002
_cell_length_b   12.48743002
_cell_length_c   12.48168558
_cell_angle_alpha   70.42894296
_cell_angle_beta   70.42894296
_cell_angle_gamma   108.97344728
_symmetry_Int_Tables_number   1
_chemical_formula_structural   Na26In4O19
_chemical_formula_sum   'Na52 In8 O38'
_cell_volume   1503.74155323
_cell_formula_units_Z   2
loop_
 _symmetry_equiv_pos_site_id
 _symmetry_equiv_pos_as_xyz
  1  'x, y, z'
loop_
 _atom_site_type_symbol
 _atom_site_label
 _atom_site_symmetry_multiplicity
 _atom_site_fract_x
 _atom_site_fract_y
 _atom_site_fract_z
 _atom_site_occupancy
  Na  Na0  1  0.81436600  0.44307600  0.14217100  1
  Na  Na1  1  0.55936100  0.31832800  0.35131000  1
  Na  Na2  1  0.85273800  0.40960300  0.82596600  1
  Na  Na3  1  0.67891600  0.35826900  0.58896300  1
  Na  Na4  1  0.26510300  0.44564000  0.40805100  1
  Na  Na5  1  0.13112800  0.38278500  0.24283300  1
  Na  Na6  1  0.58956600  0.14553200  0.54184100  1
  Na  Na7  1  0.64422000  0.45743100  0.91365400  1
  Na  Na8  1  0.36176000  0.31666100  0.55403600  1
  Na  Na9  1  0.10436300  0.17760000  0.48158900  1
  Na  Na10  1  0.91489200  0.34897000  0.46092200  1
  Na  Na11  1  0.05017400  0.39708600  0.63068400  1
  Na  Na12  1  0.44564000  0.26510300  0.90805100  1
  Na  Na13  1  0.18391400  0.31860200  0.77128300  1
  Na  Na14  1  0.82925700  0.24097400  0.31526900  1
  Na  Na15  1  0.61969800  0.24491300  0.12501800  1
  Na  Na16  1  0.38278500  0.13112800  0.74283300  1
  Na  Na17  1  0.31666100  0.36176000  0.05403600  1
  Na  Na18  1  0.15278800  0.05294800  0.69861700  1
  Na  Na19  1  0.17760000  0.10436300  0.98158900  1
  Na  Na20  1  0.39708600  0.05017400  0.13068400  1
  Na  Na21  1  0.34897000  0.91489200  0.96092200  1
  Na  Na22  1  0.24097400  0.82925700  0.81526900  1
  Na  Na23  1  0.31860200  0.18391400  0.27128300  1
  Na  Na24  1  0.95507100  0.09921500  0.83631900  1
  Na  Na25  1  0.94400900  0.85964200  0.68364500  1
  Na  Na26  1  0.05294800  0.15278800  0.19861700  1
  Na  Na27  1  0.58423100  0.94247000  0.74396800  1
  Na  Na28  1  0.76119600  0.08744900  0.06154900  1
  Na  Na29  1  0.75365500  0.88641400  0.86534800  1
  Na  Na30  1  0.09921500  0.95507100  0.33631900  1
  Na  Na31  1  0.85964200  0.94400900  0.18364500  1
  Na  Na32  1  0.81355600  0.64954400  0.94377100  1
  Na  Na33  1  0.62577300  0.03909900  0.31761900  1
  Na  Na34  1  0.54335300  0.68739400  0.87000200  1
  Na  Na35  1  0.55947600  0.87015600  0.08949000  1
  Na  Na36  1  0.94247000  0.58423100  0.24396800  1
  Na  Na37  1  0.08744900  0.76119600  0.56154900  1
  Na  Na38  1  0.68506900  0.74134800  0.16770300  1
  Na  Na39  1  0.88641400  0.75365500  0.36534800  1
  Na  Na40  1  0.64954400  0.81355600  0.44377100  1
  Na  Na41  1  0.35826900  0.67891600  0.08896300  1
  Na  Na42  1  0.40960300  0.85273800  0.32596600  1
  Na  Na43  1  0.03909900  0.62577300  0.81761900  1
  Na  Na44  1  0.68739400  0.54335300  0.37000200  1
  Na  Na45  1  0.87015600  0.55947600  0.58949000  1
  Na  Na46  1  0.74134800  0.68506900  0.66770300  1
  Na  Na47  1  0.14553200  0.58956600  0.04184100  1
  Na  Na48  1  0.45743100  0.64422000  0.41365400  1
  Na  Na49  1  0.44307600  0.81436600  0.64217100  1
  Na  Na50  1  0.24491300  0.61969800  0.62501800  1
  Na  Na51  1  0.31832800  0.55936100  0.85131000  1
  In  In0  1  0.50256400  0.50256200  0.17943000  1
  In  In1  1  0.50256200  0.50256400  0.67943000  1
  In  In2  1  0.81831600  0.99882400  0.49853900  1
  In  In3  1  0.99926300  0.31624900  0.99973500  1
  In  In4  1  0.68575600  0.17987000  0.81756100  1
  In  In5  1  0.31624900  0.99926300  0.49973500  1
  In  In6  1  0.99882400  0.81831600  0.99853900  1
  In  In7  1  0.17987000  0.68575600  0.31756100  1
  O  O0  1  0.63368000  0.43756500  0.11520100  1
  O  O1  1  0.74893700  0.37331100  0.37659800  1
  O  O2  1  0.50333400  0.50258100  0.34966500  1
  O  O3  1  0.30854200  0.37491600  0.24534800  1
  O  O4  1  0.50258100  0.50333400  0.84966500  1
  O  O5  1  0.39092800  0.13527000  0.55480800  1
  O  O6  1  0.37491600  0.30854200  0.74534800  1
  O  O7  1  0.61228500  0.24725200  0.94529000  1
  O  O8  1  0.55393000  0.11446800  0.75391600  1
  O  O9  1  0.14260900  0.25586300  0.62367300  1
  O  O10  1  0.95626900  0.19445700  0.40828700  1
  O  O11  1  0.05768300  0.44333800  0.80592700  1
  O  O12  1  0.84660200  0.35802400  0.65208900  1
  O  O13  1  0.13527000  0.39092800  0.05480800  1
  O  O14  1  0.25586300  0.14260900  0.12367300  1
  O  O15  1  0.44333800  0.05768300  0.30592700  1
  O  O16  1  0.19445700  0.95626900  0.90828700  1
  O  O17  1  0.64626900  0.99892000  0.50204800  1
  O  O18  1  0.00088100  0.14739700  0.99707700  1
  O  O19  1  0.93485600  0.88414900  0.86602400  1
  O  O20  1  0.74954200  0.86401900  0.69243900  1
  O  O21  1  0.80435400  0.25044900  0.13376000  1
  O  O22  1  0.73899200  0.04801300  0.90224500  1
  O  O23  1  0.99892000  0.64626900  0.00204800  1
  O  O24  1  0.14739700  0.00088100  0.49707700  1
  O  O25  1  0.88414900  0.93485600  0.36602400  1
  O  O26  1  0.25044900  0.80435400  0.63376000  1
  O  O27  1  0.86401900  0.74954200  0.19243900  1
  O  O28  1  0.04801300  0.73899200  0.40224500  1
  O  O29  1  0.37331100  0.74893700  0.87659800  1
  O  O30  1  0.62509200  0.87261100  0.25411900  1
  O  O31  1  0.56831100  0.69711400  0.04819900  1
  O  O32  1  0.35802400  0.84660200  0.15208900  1
  O  O33  1  0.87261100  0.62509200  0.75411900  1
  O  O34  1  0.69711400  0.56831100  0.54819900  1
  O  O35  1  0.43756500  0.63368000  0.61520100  1
  O  O36  1  0.24725200  0.61228500  0.44529000  1
  O  O37  1  0.11446800  0.55393000  0.25391600  1
loop_
_geom_bond_atom_site_label_1
_geom_bond_atom_site_label_2
_geom_bond_distance
_geom_bond_site_symmetry_2
Na0 O23 2.309194 1_555
Na0 O0 2.373262 1_555
Na0 O21 2.407301 1_555
Na0 O1 2.493183 1_555
Na1 O5 2.346366 1_555
Na1 O1 2.400852 1_555
Na1 O0 2.468337 1_555
Na1 O2 2.609316 1_555
Na2 O11 2.364154 1_655
Na2 O33 2.430379 1_555
Na2 O12 2.479241 1_555
Na2 O7 2.523266 1_555
Na3 O34 2.414732 1_555
Na3 O1 2.415116 1_555
Na3 O12 2.472531 1_555
Na3 O8 2.549831 1_555
Na4 O36 2.340170 1_555
Na4 O9 2.410596 1_555
Na4 O3 2.444069 1_555
Na4 O2 2.590673 1_555
Na5 O10 2.224726 1_455
Na5 O37 2.257826 1_555
Na5 O3 2.259408 1_555
Na5 O13 2.296995 1_555
Na6 O17 2.305748 1_545
Na6 O5 2.388689 1_555
Na6 O8 2.401263 1_555
Na6 O1 2.438011 1_555
Na7 O4 2.322445 1_555
Na7 O7 2.392288 1_555
Na7 O0 2.397121 1_556
Na7 O33 2.449890 1_555
Na8 O2 2.316186 1_555
Na8 O9 2.331167 1_555
Na8 O5 2.405760 1_555
Na8 O6 2.418837 1_555
Na9 O10 2.357760 1_455
Na9 O24 2.398102 1_555
Na9 O9 2.398629 1_555
Na9 O3 2.697639 1_555
Na10 O12 2.305132 1_555
Na10 O10 2.385693 1_555
Na10 O37 2.558414 1_655
Na10 O1 2.674200 1_555
Na11 O12 2.328713 1_455
Na11 O9 2.410261 1_555
Na11 O11 2.464821 1_555
Na11 O36 2.520117 1_555
Na12 O7 2.340170 1_555
Na12 O14 2.410596 1_556
Na12 O6 2.444069 1_555
Na12 O4 2.590673 1_555
Na13 O6 2.348234 1_555
Na13 O9 2.369658 1_555
Na13 O18 2.491558 1_555
Na13 O11 2.586329 1_555
Na14 O21 2.357903 1_555
Na14 O10 2.362604 1_555
Na14 O1 2.394536 1_555
Na14 O17 2.647950 1_545
Na15 O7 2.266901 1_554
Na15 O15 2.280024 1_555
Na15 O0 2.312590 1_555
Na15 O21 2.324591 1_555
Na16 O16 2.224726 1_545
Na16 O8 2.257826 1_555
Na16 O6 2.259408 1_555
Na16 O5 2.296995 1_555
Na17 O4 2.316186 1_554
Na17 O14 2.331167 1_555
Na17 O13 2.405760 1_555
Na17 O3 2.418837 1_555
Na18 O19 2.392645 1_445
Na18 O9 2.452121 1_555
Na18 O5 2.514320 1_555
Na18 O16 2.789485 1_545
Na18 O24 2.817100 1_555
Na19 O16 2.357760 1_545
Na19 O18 2.398102 1_555
Na19 O14 2.398629 1_556
Na19 O6 2.697639 1_555
Na20 O32 2.328713 1_545
Na20 O14 2.410261 1_555
Na20 O15 2.464821 1_555
Na20 O7 2.520117 1_554
Na21 O32 2.305132 1_556
Na21 O16 2.385693 1_555
Na21 O8 2.558414 1_565
Na21 O29 2.674200 1_555
Na22 O26 2.357903 1_555
Na22 O16 2.362604 1_555
Na22 O29 2.394536 1_555
Na22 O23 2.647950 1_456
Na23 O3 2.348234 1_555
Na23 O14 2.369658 1_555
Na23 O24 2.491558 1_555
Na23 O15 2.586329 1_555
Na24 O22 2.324814 1_555
Na24 O9 2.394587 1_655
Na24 O18 2.463617 1_655
Na24 O19 2.498622 1_545
Na25 O24 2.314576 1_665
Na25 O19 2.367246 1_555
Na25 O20 2.413272 1_555
Na25 O33 2.489527 1_555
Na26 O25 2.392645 1_445
Na26 O14 2.452121 1_555
Na26 O13 2.514320 1_555
Na26 O10 2.789485 1_455
Na26 O18 2.817100 1_554
Na27 O8 2.333955 1_565
Na27 O29 2.403686 1_555
Na27 O20 2.546058 1_555
Na27 O17 2.620411 1_555
Na28 O22 2.282462 1_554
Na28 O30 2.416886 1_545
Na28 O21 2.467199 1_555
Na28 O18 2.586918 1_654
Na29 O22 2.263660 1_565
Na29 O19 2.274882 1_555
Na29 O20 2.282088 1_555
Na29 O31 2.332931 1_556
Na30 O28 2.324814 1_555
Na30 O14 2.394587 1_565
Na30 O24 2.463617 1_565
Na30 O25 2.498622 1_455
Na31 O18 2.314576 1_664
Na31 O25 2.367246 1_555
Na31 O27 2.413272 1_555
Na31 O30 2.489527 1_555
Na32 O33 2.387831 1_555
Na32 O0 2.397898 1_556
Na32 O19 2.458407 1_555
Na32 O23 2.656753 1_556
Na33 O17 2.306690 1_545
Na33 O15 2.410170 1_555
Na33 O21 2.427254 1_555
Na33 O30 2.459166 1_545
Na34 O4 2.307157 1_555
Na34 O20 2.369672 1_555
Na34 O31 2.383191 1_556
Na34 O29 2.468312 1_555
Na35 O32 2.252423 1_555
Na35 O22 2.279286 1_564
Na35 O31 2.410413 1_555
Na35 O30 2.459385 1_555
Na36 O37 2.333955 1_655
Na36 O1 2.403686 1_555
Na36 O27 2.546058 1_555
Na36 O23 2.620411 1_555
Na37 O28 2.282462 1_555
Na37 O33 2.416886 1_455
Na37 O26 2.467199 1_555
Na37 O24 2.586918 1_565
Na38 O27 2.331105 1_555
Na38 O30 2.419231 1_555
Na38 O31 2.478123 1_555
Na38 O2 2.609327 1_555
Na39 O28 2.263660 1_655
Na39 O25 2.274882 1_555
Na39 O27 2.282088 1_555
Na39 O34 2.332931 1_555
Na40 O30 2.387831 1_555
Na40 O35 2.397898 1_555
Na40 O25 2.458407 1_555
Na40 O17 2.656753 1_555
Na41 O31 2.414732 1_555
Na41 O29 2.415116 1_554
Na41 O32 2.472531 1_555
Na41 O37 2.549831 1_555
Na42 O15 2.364154 1_565
Na42 O30 2.430379 1_555
Na42 O32 2.479241 1_555
Na42 O36 2.523266 1_555
Na43 O23 2.306690 1_456
Na43 O11 2.410170 1_555
Na43 O26 2.427254 1_555
Na43 O33 2.459166 1_455
Na44 O2 2.307157 1_555
Na44 O27 2.369672 1_555
Na44 O34 2.383191 1_555
Na44 O1 2.468312 1_555
Na45 O12 2.252423 1_555
Na45 O28 2.279286 1_655
Na45 O34 2.410413 1_555
Na45 O33 2.459385 1_555
Na46 O20 2.331105 1_555
Na46 O33 2.419231 1_555
Na46 O34 2.478123 1_555
Na46 O4 2.609327 1_555
Na47 O23 2.305748 1_455
Na47 O13 2.388689 1_555
Na47 O37 2.401263 1_555
Na47 O29 2.438011 1_554
Na48 O2 2.322445 1_555
Na48 O36 2.392288 1_555
Na48 O35 2.397121 1_555
Na48 O30 2.449890 1_555
Na49 O17 2.309194 1_555
Na49 O35 2.373262 1_555
Na49 O26 2.407301 1_555
Na49 O29 2.493183 1_555
Na50 O36 2.266901 1_555
Na50 O11 2.280024 1_555
Na50 O35 2.312590 1_555
Na50 O26 2.324591 1_555
Na51 O13 2.346366 1_556
Na51 O29 2.400852 1_555
Na51 O35 2.468337 1_555
Na51 O4 2.609316 1_555
In0 O3 2.088647 1_555
In0 O31 2.096503 1_555
In0 O0 2.098311 1_555
In0 O2 2.128139 1_555
In1 O6 2.088647 1_555
In1 O34 2.096503 1_555
In1 O35 2.098311 1_555
In1 O4 2.128139 1_555
In2 O10 2.079489 1_565
In2 O20 2.089651 1_555
In2 O25 2.109705 1_555
In2 O17 2.134553 1_555
In3 O11 2.096545 1_655
In3 O13 2.099614 1_656
In3 O21 2.109134 1_556
In3 O18 2.126386 1_655
In4 O22 2.070475 1_555
In4 O8 2.108191 1_555
In4 O12 2.118047 1_555
In4 O7 2.124199 1_555
In5 O15 2.096545 1_565
In5 O5 2.099614 1_565
In5 O26 2.109134 1_555
In5 O24 2.126386 1_565
In6 O16 2.079489 1_655
In6 O27 2.089651 1_556
In6 O19 2.109705 1_555
In6 O23 2.134553 1_556
In7 O28 2.070475 1_555
In7 O37 2.108191 1_555
In7 O32 2.118047 1_555
In7 O36 2.124199 1_555
