# generated using pymatgen
data_Li2Co(PO4)2
_symmetry_space_group_name_H-M   'P 1'
_cell_length_a   8.29255800
_cell_length_b   8.40761533
_cell_length_c   10.58805206
_cell_angle_alpha   90.15119370
_cell_angle_beta   90.24014070
_cell_angle_gamma   103.72634002
_symmetry_Int_Tables_number   1
_chemical_formula_structural   Li2Co(PO4)2
_chemical_formula_sum   'Li8 Co4 P8 O32'
_cell_volume   717.11137363
_cell_formula_units_Z   4
loop_
 _symmetry_equiv_pos_site_id
 _symmetry_equiv_pos_as_xyz
  1  'x, y, z'
loop_
 _atom_site_type_symbol
 _atom_site_label
 _atom_site_symmetry_multiplicity
 _atom_site_fract_x
 _atom_site_fract_y
 _atom_site_fract_z
 _atom_site_occupancy
  Li  Li0  1  0.43918200  0.22310700  0.56593500  1
  Li  Li1  1  0.44538800  0.71745900  0.93924200  1
  Li  Li2  1  0.38527000  0.90075000  0.66972000  1
  Li  Li3  1  0.63636700  0.17143100  0.85214000  1
  Li  Li4  1  0.62035000  0.58722900  0.17131200  1
  Li  Li5  1  0.60707000  0.10455300  0.32303000  1
  Li  Li6  1  0.55186700  0.78136400  0.43168600  1
  Li  Li7  1  0.38000800  0.40391600  0.83045100  1
  Co  Co0  1  0.90600800  0.92037600  0.83228900  1
  Co  Co1  1  0.08819400  0.57644700  0.33920400  1
  Co  Co2  1  0.90416200  0.42657900  0.66563200  1
  Co  Co3  1  0.10993700  0.07774300  0.15945100  1
  P  P0  1  0.71501500  0.47041200  0.41827000  1
  P  P1  1  0.74962600  0.05904800  0.59788400  1
  P  P2  1  0.28074400  0.53071900  0.58406300  1
  P  P3  1  0.25052900  0.94465900  0.40482900  1
  P  P4  1  0.75193100  0.55122600  0.90421300  1
  P  P5  1  0.24365700  0.45029000  0.09803300  1
  P  P6  1  0.29024500  0.02872300  0.90939300  1
  P  P7  1  0.72736700  0.96375200  0.08076400  1
  O  O0  1  0.18095900  0.06861400  0.31971900  1
  O  O1  1  0.11967300  0.54032900  0.66384700  1
  O  O2  1  0.89613200  0.70834000  0.87634100  1
  O  O3  1  0.71897200  0.99745100  0.46411300  1
  O  O4  1  0.40296500  0.43558700  0.16255200  1
  O  O5  1  0.26510000  0.51178400  0.96305100  1
  O  O6  1  0.59471300  0.30310100  0.42323900  1
  O  O7  1  0.10695500  0.78150200  0.40006900  1
  O  O8  1  0.89462200  0.22202100  0.60546400  1
  O  O9  1  0.58764800  0.57673600  0.85503800  1
  O  O10  1  0.35355600  0.88641200  0.85649600  1
  O  O11  1  0.40723200  0.91495100  0.34531900  1
  O  O12  1  0.21469500  0.48102100  0.44587500  1
  O  O13  1  0.11989900  0.03614800  0.84338200  1
  O  O14  1  0.87388600  0.45408400  0.34161100  1
  O  O15  1  0.60904800  0.79523300  0.08219300  1
  O  O16  1  0.39757300  0.70001200  0.58264100  1
  O  O17  1  0.27278000  0.01257100  0.53842600  1
  O  O18  1  0.81931000  0.92955800  0.67591400  1
  O  O19  1  0.35090200  0.39630100  0.64200200  1
  O  O20  1  0.41085800  0.19381300  0.88886800  1
  O  O21  1  0.64866100  0.60812500  0.36222500  1
  O  O22  1  0.16751800  0.57214200  0.17989000  1
  O  O23  1  0.10947200  0.28151000  0.10301000  1
  O  O24  1  0.66900100  0.09941900  0.14590900  1
  O  O25  1  0.24751400  0.99836800  0.05338900  1
  O  O26  1  0.80077300  0.40936300  0.82169200  1
  O  O27  1  0.78099200  0.51980800  0.55830700  1
  O  O28  1  0.59935700  0.09178100  0.66863500  1
  O  O29  1  0.76734700  0.01359900  0.93553200  1
  O  O30  1  0.89933700  0.95022000  0.14037100  1
  O  O31  1  0.75789400  0.50772700  0.04212500  1
loop_
_geom_bond_atom_site_label_1
_geom_bond_atom_site_label_2
_geom_bond_distance
_geom_bond_site_symmetry_2
Li0 O19 1.951821 1_555
Li0 O17 1.989214 1_555
Li0 O6 2.002140 1_555
Li0 O28 2.203644 1_555
Li1 O10 1.969678 1_555
Li1 O5 2.016814 1_555
Li1 O15 2.028982 1_556
Li1 O9 2.062044 1_555
Li2 O16 1.945046 1_555
Li2 O10 1.996283 1_555
Li2 O17 2.024545 1_565
Li2 O28 2.092515 1_565
Li3 O20 1.963778 1_555
Li3 O28 2.051424 1_555
Li3 O29 2.098193 1_555
Li3 O26 2.162685 1_555
Li4 O4 1.947050 1_555
Li4 O31 1.997194 1_555
Li4 O15 2.010789 1_555
Li4 O21 2.036321 1_555
Li5 O24 1.949559 1_555
Li5 O6 1.998903 1_555
Li5 O11 2.023525 1_545
Li5 O3 2.072534 1_545
Li6 O21 1.964883 1_555
Li6 O3 2.033903 1_555
Li6 O11 2.042489 1_555
Li6 O16 2.065707 1_555
Li7 O20 1.946103 1_555
Li7 O9 1.987649 1_555
Li7 O19 2.007875 1_555
Li7 O5 2.028849 1_555
Co0 O18 1.811421 1_555
Co0 O13 1.812618 1_665
Co0 O2 1.826954 1_555
Co0 O29 1.888162 1_565
Co1 O7 1.810463 1_555
Co1 O22 1.816498 1_555
Co1 O14 1.830355 1_455
Co1 O12 1.847708 1_555
Co2 O1 1.816072 1_655
Co2 O8 1.816370 1_555
Co2 O27 1.823150 1_555
Co2 O26 1.854883 1_555
Co3 O0 1.801687 1_555
Co3 O23 1.816782 1_555
Co3 O30 1.829645 1_445
Co3 O25 1.837429 1_545
O0 P3 1.586486 1_545
O1 P2 1.601414 1_555
O2 P4 1.586608 1_555
O3 P1 1.506510 1_565
O4 P5 1.515770 1_555
O5 P5 1.517870 1_556
O6 P0 1.520401 1_555
O7 P3 1.589291 1_555
O8 P1 1.595747 1_555
O9 P4 1.518663 1_555
O10 P6 1.522486 1_565
O11 P3 1.519240 1_555
O12 P2 1.580131 1_555
O13 P6 1.587971 1_555
O14 P0 1.583517 1_555
O15 P7 1.520155 1_555
O16 P2 1.520057 1_555
O17 P3 1.518063 1_545
O18 P1 1.581480 1_565
O19 P2 1.518129 1_555
O20 P6 1.522750 1_555
O21 P0 1.516154 1_555
O22 P5 1.583121 1_555
O23 P5 1.583086 1_555
O24 P7 1.507222 1_545
O25 P6 1.574446 1_564
O26 P4 1.605238 1_555
O27 P0 1.597620 1_555
O28 P1 1.535968 1_555
O29 P7 1.609934 1_546
O30 P7 1.585803 1_555
O31 P4 1.509713 1_554
