# generated using pymatgen
data_BaBiIO2
_symmetry_space_group_name_H-M   'P 1'
_cell_length_a   7.89432793
_cell_length_b   7.89432793
_cell_length_c   5.92634600
_cell_angle_alpha   90.00000000
_cell_angle_beta   90.00000000
_cell_angle_gamma   133.97804292
_symmetry_Int_Tables_number   1
_chemical_formula_structural   BaBiIO2
_chemical_formula_sum   'Ba2 Bi2 I2 O4'
_cell_volume   265.77374667
_cell_formula_units_Z   2
loop_
 _symmetry_equiv_pos_site_id
 _symmetry_equiv_pos_as_xyz
  1  'x, y, z'
loop_
 _atom_site_type_symbol
 _atom_site_label
 _atom_site_symmetry_multiplicity
 _atom_site_fract_x
 _atom_site_fract_y
 _atom_site_fract_z
 _atom_site_occupancy
  Ba  Ba0  1  0.60132200  0.39867800  0.75000000  1
  Ba  Ba1  1  0.39867800  0.60132200  0.25000000  1
  Bi  Bi0  1  0.06725700  0.93274300  0.25000000  1
  Bi  Bi1  1  0.93274300  0.06725700  0.75000000  1
  I  I0  1  0.25199000  0.74801000  0.75000000  1
  I  I1  1  0.74801000  0.25199000  0.25000000  1
  O  O0  1  0.77643200  0.77643200  0.50000000  1
  O  O1  1  0.22356800  0.22356800  0.50000000  1
  O  O2  1  0.22356800  0.22356800  0.00000000  1
  O  O3  1  0.77643200  0.77643200  0.00000000  1
loop_
_geom_bond_atom_site_label_1
_geom_bond_atom_site_label_2
_geom_bond_distance
_geom_bond_site_symmetry_2
Ba0 O0 2.697038 1_555
Ba0 O2 2.697038 1_556
Ba0 O3 2.697038 1_556
Ba0 O1 2.697038 1_555
Ba0 I1 3.650292 1_555
Ba0 I1 3.650292 1_556
Ba0 I0 3.783817 1_545
Ba0 I0 3.783817 1_655
Ba1 O0 2.697038 1_555
Ba1 O2 2.697038 1_555
Ba1 O3 2.697038 1_555
Ba1 O1 2.697038 1_555
Ba1 I0 3.650292 1_555
Ba1 I0 3.650292 1_554
Ba1 I1 3.783817 1_565
Ba1 I1 3.783817 1_455
Bi0 O0 2.248193 1_455
Bi0 O2 2.248193 1_565
Bi0 O1 2.248193 1_565
Bi0 O3 2.248193 1_455
Bi1 O2 2.248193 1_656
Bi1 O3 2.248193 1_546
Bi1 O0 2.248193 1_545
Bi1 O1 2.248193 1_655
