# generated using pymatgen
data_InBiO3
_symmetry_space_group_name_H-M   'P 1'
_cell_length_a   5.67835500
_cell_length_b   6.09561000
_cell_length_c   8.20360800
_cell_angle_alpha   90.00000000
_cell_angle_beta   90.00000000
_cell_angle_gamma   90.00000000
_symmetry_Int_Tables_number   1
_chemical_formula_structural   InBiO3
_chemical_formula_sum   'In4 Bi4 O12'
_cell_volume   283.95179152
_cell_formula_units_Z   4
loop_
 _symmetry_equiv_pos_site_id
 _symmetry_equiv_pos_as_xyz
  1  'x, y, z'
loop_
 _atom_site_type_symbol
 _atom_site_label
 _atom_site_symmetry_multiplicity
 _atom_site_fract_x
 _atom_site_fract_y
 _atom_site_fract_z
 _atom_site_occupancy
  In  In0  1  0.50000000  0.00000000  0.50000000  1
  In  In1  1  0.50000000  0.00000000  0.00000000  1
  In  In2  1  0.00000000  0.50000000  0.00000000  1
  In  In3  1  0.00000000  0.50000000  0.50000000  1
  Bi  Bi0  1  0.01210100  0.95481400  0.25000000  1
  Bi  Bi1  1  0.98789900  0.04518600  0.75000000  1
  Bi  Bi2  1  0.48789900  0.45481400  0.25000000  1
  Bi  Bi3  1  0.51210100  0.54518600  0.75000000  1
  O  O0  1  0.36682400  0.95044600  0.75000000  1
  O  O1  1  0.86682400  0.54955400  0.25000000  1
  O  O2  1  0.17212500  0.18397600  0.05841600  1
  O  O3  1  0.82787500  0.81602400  0.94158400  1
  O  O4  1  0.32787500  0.68397600  0.44158400  1
  O  O5  1  0.63317600  0.04955400  0.25000000  1
  O  O6  1  0.17212500  0.18397600  0.44158400  1
  O  O7  1  0.67212500  0.31602400  0.55841600  1
  O  O8  1  0.32787500  0.68397600  0.05841600  1
  O  O9  1  0.13317600  0.45044600  0.75000000  1
  O  O10  1  0.82787500  0.81602400  0.55841600  1
  O  O11  1  0.67212500  0.31602400  0.94158400  1
loop_
_geom_bond_atom_site_label_1
_geom_bond_atom_site_label_2
_geom_bond_distance
_geom_bond_site_symmetry_2
In0 O5 2.206651 1_555
In0 O0 2.206651 1_545
In0 O7 2.212645 1_555
In0 O4 2.212645 1_545
In0 O10 2.225659 1_545
In0 O6 2.225659 1_555
In1 O5 2.206651 1_555
In1 O0 2.206651 1_544
In1 O11 2.212645 1_554
In1 O8 2.212645 1_545
In1 O3 2.225659 1_544
In1 O2 2.225659 1_555
In2 O9 2.206651 1_554
In2 O1 2.206651 1_455
In2 O2 2.212645 1_555
In2 O3 2.212645 1_454
In2 O8 2.225659 1_555
In2 O11 2.225659 1_454
In3 O9 2.206651 1_555
In3 O1 2.206651 1_455
In3 O6 2.212645 1_555
In3 O10 2.212645 1_455
In3 O4 2.225659 1_555
In3 O7 2.225659 1_455
Bi0 O5 2.227822 1_465
Bi0 O6 2.290665 1_565
Bi0 O2 2.290665 1_565
Bi0 O1 2.604406 1_455
Bi1 O0 2.227822 1_645
Bi1 O3 2.290665 1_545
Bi1 O10 2.290665 1_545
Bi1 O9 2.604406 1_655
Bi2 O1 2.227822 1_555
Bi2 O4 2.290665 1_555
Bi2 O8 2.290665 1_555
Bi2 O5 2.604406 1_555
Bi3 O9 2.227822 1_555
Bi3 O11 2.290665 1_555
Bi3 O7 2.290665 1_555
Bi3 O0 2.604406 1_555
