# generated using pymatgen
data_P
_symmetry_space_group_name_H-M   'P 1'
_cell_length_a   10.86723000
_cell_length_b   4.87707029
_cell_length_c   4.84938822
_cell_angle_alpha   90.00002444
_cell_angle_beta   116.74228857
_cell_angle_gamma   90.00161210
_symmetry_Int_Tables_number   1
_chemical_formula_structural   P
_chemical_formula_sum   P16
_cell_volume   229.52790992
_cell_formula_units_Z   16
loop_
 _symmetry_equiv_pos_site_id
 _symmetry_equiv_pos_as_xyz
  1  'x, y, z'
loop_
 _atom_site_type_symbol
 _atom_site_label
 _atom_site_symmetry_multiplicity
 _atom_site_fract_x
 _atom_site_fract_y
 _atom_site_fract_z
 _atom_site_occupancy
  P  P0_0  1  0.12574343  0.49252145  0.37623469  1
  P  P0_1  1  0.12574343  0.49252145  0.87623469  1
  P  P0_2  1  0.12574343  0.99252145  0.37623470  1
  P  P0_3  1  0.12574343  0.99252145  0.87623469  1
  P  P0_4  1  0.62574343  0.49252146  0.37623470  1
  P  P0_5  1  0.62574343  0.49252146  0.87623469  1
  P  P0_6  1  0.62574343  0.99252145  0.37623470  1
  P  P0_7  1  0.62574343  0.99252145  0.87623469  1
  P  P1_0  1  0.37631807  0.49250555  0.12680931  1
  P  P1_1  1  0.37631807  0.49250555  0.62680930  1
  P  P1_2  1  0.37631807  0.99250555  0.12680931  1
  P  P1_3  1  0.37631807  0.99250555  0.62680930  1
  P  P1_4  1  0.87631807  0.49250554  0.12680931  1
  P  P1_5  1  0.87631807  0.49250555  0.62680930  1
  P  P1_6  1  0.87631807  0.99250555  0.12680931  1
  P  P1_7  1  0.87631807  0.99250554  0.62680930  1
loop_
_geom_bond_atom_site_label_1
_geom_bond_atom_site_label_2
_geom_bond_distance
_geom_bond_site_symmetry_2
P0_0 P1_4 2.420661 1_455
P0_0 P0_1 2.424694 1_555
P0_0 P0_1 2.424694 1_554
P0_0 P1_1 2.431815 1_555
P0_0 P0_2 2.438535 1_555
P0_0 P0_2 2.438535 1_545
P0_1 P1_5 2.420661 1_455
P0_1 P1_0 2.431815 1_556
P0_1 P0_3 2.438535 1_555
P0_1 P0_3 2.438535 1_545
P0_2 P1_6 2.420661 1_455
P0_2 P0_3 2.424694 1_555
P0_2 P0_3 2.424694 1_554
P0_2 P1_3 2.431815 1_555
P0_3 P1_7 2.420661 1_455
P0_3 P1_2 2.431815 1_556
P0_4 P1_0 2.420661 1_555
P0_4 P0_5 2.424694 1_554
P0_4 P0_5 2.424694 1_555
P0_4 P1_5 2.431815 1_555
P0_4 P0_6 2.438535 1_555
P0_4 P0_6 2.438535 1_545
P0_5 P1_1 2.420661 1_555
P0_5 P1_4 2.431815 1_556
P0_5 P0_7 2.438535 1_555
P0_5 P0_7 2.438535 1_545
P0_6 P1_2 2.420661 1_555
P0_6 P0_7 2.424694 1_555
P0_6 P0_7 2.424694 1_554
P0_6 P1_7 2.431815 1_555
P0_7 P1_3 2.420661 1_555
P0_7 P1_6 2.431815 1_556
P1_0 P1_1 2.424694 1_554
P1_0 P1_1 2.424694 1_555
P1_0 P1_2 2.438535 1_555
P1_0 P1_2 2.438535 1_545
P1_1 P1_3 2.438535 1_555
P1_1 P1_3 2.438535 1_545
P1_2 P1_3 2.424694 1_555
P1_2 P1_3 2.424694 1_554
P1_4 P1_5 2.424694 1_555
P1_4 P1_5 2.424694 1_554
P1_4 P1_6 2.438535 1_545
P1_4 P1_6 2.438535 1_555
P1_5 P1_7 2.438535 1_555
P1_5 P1_7 2.438535 1_545
P1_6 P1_7 2.424694 1_554
P1_6 P1_7 2.424694 1_555
