# generated using pymatgen
data_Rb2CeCu3Te5
_symmetry_space_group_name_H-M   'P 1'
_cell_length_a   9.87993827
_cell_length_b   9.87993827
_cell_length_c   12.51915829
_cell_angle_alpha   68.63014922
_cell_angle_beta   68.63014922
_cell_angle_gamma   36.87794466
_symmetry_Int_Tables_number   1
_chemical_formula_structural   Rb2CeCu3Te5
_chemical_formula_sum   'Rb4 Ce2 Cu6 Te10'
_cell_volume   677.10144341
_cell_formula_units_Z   2
loop_
 _symmetry_equiv_pos_site_id
 _symmetry_equiv_pos_as_xyz
  1  'x, y, z'
loop_
 _atom_site_type_symbol
 _atom_site_label
 _atom_site_symmetry_multiplicity
 _atom_site_fract_x
 _atom_site_fract_y
 _atom_site_fract_z
 _atom_site_occupancy
  Rb  Rb0  1  0.99522800  0.99522800  0.68072400  1
  Rb  Rb1  1  0.67165100  0.67165100  0.67205600  1
  Rb  Rb2  1  0.32834900  0.32834900  0.32794400  1
  Rb  Rb3  1  0.00477200  0.00477200  0.31927600  1
  Ce  Ce0  1  0.70186200  0.70186200  0.18626300  1
  Ce  Ce1  1  0.29813800  0.29813800  0.81373700  1
  Cu  Cu0  1  0.89013000  0.39756900  0.99850300  1
  Cu  Cu1  1  0.39756900  0.89013000  0.99850300  1
  Cu  Cu2  1  0.75229300  0.24770700  0.00000000  1
  Cu  Cu3  1  0.60243100  0.10987000  0.00149700  1
  Cu  Cu4  1  0.10987000  0.60243100  0.00149700  1
  Cu  Cu5  1  0.24770700  0.75229300  0.00000000  1
  Te  Te0  1  0.11278800  0.60478000  0.58022100  1
  Te  Te1  1  0.39522000  0.88721200  0.41977900  1
  Te  Te2  1  0.22313800  0.22313800  0.10205400  1
  Te  Te3  1  0.11638600  0.11638600  0.85413400  1
  Te  Te4  1  0.77686200  0.77686200  0.89794600  1
  Te  Te5  1  0.88361400  0.88361400  0.14586600  1
  Te  Te6  1  0.88721200  0.39522000  0.41977900  1
  Te  Te7  1  0.45940500  0.45940500  0.85476000  1
  Te  Te8  1  0.54059500  0.54059500  0.14524000  1
  Te  Te9  1  0.60478000  0.11278800  0.58022100  1
loop_
_geom_bond_atom_site_label_1
_geom_bond_atom_site_label_2
_geom_bond_distance
_geom_bond_site_symmetry_2
Rb0 Te9 3.621785 1_565
Rb0 Te0 3.621785 1_655
Rb0 Te3 3.695794 1_665
Rb0 Te6 3.716646 1_565
Rb0 Te1 3.716646 1_655
Rb0 Te7 3.720148 1_655
Rb0 Te7 3.720148 1_565
Rb0 Te4 3.949619 1_555
Rb1 Te0 3.612348 1_655
Rb1 Te9 3.612348 1_565
Rb1 Te6 3.748108 1_555
Rb1 Te1 3.748108 1_555
Rb1 Te7 3.751044 1_555
Rb1 Te3 3.771010 1_655
Rb1 Te3 3.771010 1_565
Rb1 Te4 4.021391 1_555
Rb2 Te1 3.612348 1_545
Rb2 Te6 3.612348 1_455
Rb2 Te0 3.748108 1_555
Rb2 Te9 3.748108 1_555
Rb2 Te8 3.751044 1_555
Rb2 Te5 3.771010 1_455
Rb2 Te5 3.771010 1_545
Rb2 Te2 4.021391 1_555
Rb3 Te1 3.621785 1_545
Rb3 Te6 3.621785 1_455
Rb3 Te5 3.695794 1_445
Rb3 Te9 3.716646 1_455
Rb3 Te0 3.716646 1_545
Rb3 Te8 3.720148 1_545
Rb3 Te8 3.720148 1_455
Rb3 Te2 3.949619 1_555
Ce0 Te1 3.106359 1_555
Ce0 Te6 3.106359 1_555
Ce0 Te5 3.246517 1_555
Ce0 Te8 3.255009 1_555
Ce0 Te2 3.273055 1_655
Ce0 Te2 3.273055 1_565
Ce0 Cu0 3.322778 1_554
Ce0 Cu1 3.322778 1_554
Ce0 Cu3 3.330247 1_565
Ce0 Cu4 3.330247 1_655
Ce0 Te4 3.332655 1_554
Ce1 Te0 3.106359 1_555
Ce1 Te9 3.106359 1_555
Ce1 Te3 3.246517 1_555
Ce1 Te7 3.255009 1_555
Ce1 Te4 3.273055 1_455
Ce1 Te4 3.273055 1_545
Ce1 Cu4 3.322778 1_556
Ce1 Cu3 3.322778 1_556
Ce1 Cu1 3.330247 1_545
Ce1 Cu0 3.330247 1_455
Ce1 Te2 3.332655 1_556
Cu0 Te8 2.599763 1_556
Cu0 Te3 2.600190 1_655
Cu0 Te4 2.785614 1_555
Cu0 Te2 2.807915 1_656
Cu1 Te8 2.599763 1_556
Cu1 Te3 2.600190 1_565
Cu1 Te4 2.785614 1_555
Cu1 Te2 2.807915 1_566
Cu2 Te5 2.725936 1_545
Cu2 Te3 2.725936 1_654
Cu2 Te8 2.726632 1_555
Cu2 Te7 2.726632 1_554
Cu3 Te7 2.599763 1_554
Cu3 Te5 2.600190 1_545
Cu3 Te2 2.785614 1_555
Cu3 Te4 2.807915 1_544
Cu4 Te7 2.599763 1_554
Cu4 Te5 2.600190 1_455
Cu4 Te2 2.785614 1_555
Cu4 Te4 2.807915 1_454
Cu5 Te5 2.725936 1_455
Cu5 Te3 2.725936 1_564
Cu5 Te8 2.726632 1_555
Cu5 Te7 2.726632 1_554
Te0 Te9 3.074919 1_555
Te0 Te9 3.175019 1_465
Te1 Te6 3.074919 1_555
Te1 Te6 3.175019 1_465
