# generated using pymatgen
data_PICl8
_symmetry_space_group_name_H-M   'P 1'
_cell_length_a   12.01873315
_cell_length_b   12.01845655
_cell_length_c   12.01874415
_cell_angle_alpha   118.56334754
_cell_angle_beta   117.46054861
_cell_angle_gamma   93.48192948
_symmetry_Int_Tables_number   1
_chemical_formula_structural   PICl8
_chemical_formula_sum   'P4 I4 Cl32'
_cell_volume   1261.81545519
_cell_formula_units_Z   4
loop_
 _symmetry_equiv_pos_site_id
 _symmetry_equiv_pos_as_xyz
  1  'x, y, z'
loop_
 _atom_site_type_symbol
 _atom_site_label
 _atom_site_symmetry_multiplicity
 _atom_site_fract_x
 _atom_site_fract_y
 _atom_site_fract_z
 _atom_site_occupancy
  P  P0  1  0.24573676  0.74573989  -0.00001287  1
  P  P1  1  0.25425635  0.25425762  0.49999187  1
  P  P2  1  0.74574276  0.74573392  0.49999041  1
  P  P3  1  0.75424661  0.25425643  -0.00001118  1
  I  I0  1  0.74997463  0.68963299  0.93962593  1
  I  I1  1  0.75001942  0.17863539  0.42865032  1
  I  I2  1  0.25002725  0.82134698  0.57137750  1
  I  I3  1  0.25000146  0.31029937  0.06030587  1
  Cl  Cl0  1  0.22583161  0.40436595  0.48356803  1
  Cl  Cl1  1  0.74999892  0.97543776  0.22542873  1
  Cl  Cl2  1  0.39365127  0.71369484  0.97873639  1
  Cl  Cl3  1  0.10633850  0.08508526  0.32003354  1
  Cl  Cl4  1  0.40296299  0.97302445  0.57012050  1
  Cl  Cl5  1  0.76503655  0.08509218  0.97873816  1
  Cl  Cl6  1  0.09709585  0.66715587  0.57011918  1
  Cl  Cl7  1  0.25003172  0.02458688  0.77461531  1
  Cl  Cl8  1  0.57920994  0.75773884  0.48356685  1
  Cl  Cl9  1  0.09701914  0.15611180  0.05908891  1
  Cl  Cl10  1  0.23495336  0.91490490  0.02124104  1
  Cl  Cl11  1  0.54893149  0.69286345  0.74179801  1
  Cl  Cl12  1  0.25002756  0.61397296  0.36400149  1
  Cl  Cl13  1  0.77416281  0.59562972  0.51642373  1
  Cl  Cl14  1  0.59700581  0.53792850  0.94091077  1
  Cl  Cl15  1  0.95104513  0.69286618  0.14391443  1
  Cl  Cl16  1  0.72582778  0.24226604  0.82145804  1
  Cl  Cl17  1  0.90292806  0.33287205  0.42993514  1
  Cl  Cl18  1  0.90296231  0.84388853  0.94091050  1
  Cl  Cl19  1  0.26504079  0.28629497  0.67994656  1
  Cl  Cl20  1  0.04895428  0.30715051  0.85610536  1
  Cl  Cl21  1  0.42079519  0.24226157  0.51642449  1
  Cl  Cl22  1  0.73494572  0.71369309  0.32002772  1
  Cl  Cl23  1  0.07919637  0.59562783  0.82145772  1
  Cl  Cl24  1  0.74999481  0.38605209  0.63604497  1
  Cl  Cl25  1  0.27416023  0.75773774  0.17852252  1
  Cl  Cl26  1  0.40297820  0.46207415  0.05908592  1
  Cl  Cl27  1  0.60633274  0.28629551  0.02124210  1
  Cl  Cl28  1  0.92078624  0.40436946  0.17852632  1
  Cl  Cl29  1  0.89365676  0.91490906  0.67994315  1
  Cl  Cl30  1  0.59706258  0.02699709  0.42992745  1
  Cl  Cl31  1  0.45106904  0.30714818  0.25821911  1
loop_
_geom_bond_atom_site_label_1
_geom_bond_atom_site_label_2
_geom_bond_distance
_geom_bond_site_symmetry_2
Cl0 P1 1.939987 1_555
Cl1 I1 2.495010 1_565
Cl2 P0 1.944684 1_556
Cl3 P1 1.944711 1_555
Cl4 I2 2.519292 1_555
Cl5 P3 1.944618 1_556
Cl6 I2 2.519241 1_555
Cl7 I2 2.495468 1_545
Cl8 P2 1.940045 1_555
Cl9 I3 2.519969 1_555
Cl10 P0 1.944598 1_555
Cl11 I0 2.508837 1_555
Cl12 I2 2.546284 1_555
Cl13 P2 1.939981 1_555
Cl14 I0 2.520017 1_555
Cl15 I0 2.508990 1_554
Cl16 P3 1.940087 1_556
Cl17 I1 2.519215 1_555
Cl18 I0 2.520021 1_555
Cl19 P1 1.944718 1_555
Cl20 I3 2.508807 1_556
Cl21 P1 1.940060 1_555
Cl22 P2 1.944729 1_555
Cl23 P0 1.940064 1_556
Cl24 I1 2.546809 1_555
Cl25 P0 1.940081 1_555
Cl26 I3 2.520122 1_555
Cl27 P3 1.944677 1_555
Cl28 P3 1.940082 1_555
Cl29 P2 1.944698 1_555
Cl30 I1 2.519312 1_555
Cl31 I3 2.509014 1_555
