# generated using pymatgen
data_SiO2
_symmetry_space_group_name_H-M   'P 1'
_cell_length_a   8.07131941
_cell_length_b   8.98643679
_cell_length_c   8.98643679
_cell_angle_alpha   90.00000000
_cell_angle_beta   90.00000000
_cell_angle_gamma   90.00000000
_symmetry_Int_Tables_number   1
_chemical_formula_structural   SiO2
_chemical_formula_sum   'Si16 O32'
_cell_volume   651.80784301
_cell_formula_units_Z   16
loop_
 _symmetry_equiv_pos_site_id
 _symmetry_equiv_pos_as_xyz
  1  'x, y, z'
loop_
 _atom_site_type_symbol
 _atom_site_label
 _atom_site_symmetry_multiplicity
 _atom_site_fract_x
 _atom_site_fract_y
 _atom_site_fract_z
 _atom_site_occupancy
  Si  Si0  1  0.68724134  0.03246963  0.80542951  1
  Si  Si1  1  0.18724134  0.30542951  0.53246963  1
  Si  Si2  1  0.31275866  0.46753037  0.80542951  1
  Si  Si3  1  0.81275866  0.30542951  0.96753037  1
  Si  Si4  1  0.68724134  0.53246963  0.19457049  1
  Si  Si5  1  0.81275866  0.19457049  0.53246963  1
  Si  Si6  1  0.18724134  0.80542951  0.46753037  1
  Si  Si7  1  0.31275866  0.53246963  0.30542951  1
  Si  Si8  1  0.68724134  0.46753037  0.69457049  1
  Si  Si9  1  0.81275866  0.69457049  0.46753037  1
  Si  Si10  1  0.68724134  0.96753037  0.30542951  1
  Si  Si11  1  0.81275866  0.80542951  0.03246963  1
  Si  Si12  1  0.18724134  0.19457049  0.96753037  1
  Si  Si13  1  0.31275866  0.03246963  0.69457049  1
  Si  Si14  1  0.31275866  0.96753037  0.19457049  1
  Si  Si15  1  0.18724134  0.69457049  0.03246963  1
  O  O0  1  0.75000000  0.61973729  0.61973729  1
  O  O1  1  0.19353780  0.57350360  0.16643531  1
  O  O2  1  0.69353780  0.33356469  0.57350360  1
  O  O3  1  0.75000000  0.38026271  0.11973729  1
  O  O4  1  0.00000000  0.25000000  0.51170607  1
  O  O5  1  0.69353780  0.16643531  0.92649640  1
  O  O6  1  0.00000000  0.25000000  0.98829393  1
  O  O7  1  0.80646220  0.92649640  0.16643531  1
  O  O8  1  0.25000000  0.88026271  0.61973729  1
  O  O9  1  0.19353780  0.92649640  0.33356469  1
  O  O10  1  0.19353780  0.07350360  0.83356469  1
  O  O11  1  0.19353780  0.42649640  0.66643531  1
  O  O12  1  0.25000000  0.11973729  0.11973729  1
  O  O13  1  0.80646220  0.42649640  0.83356469  1
  O  O14  1  0.30646220  0.33356469  0.92649640  1
  O  O15  1  0.80646220  0.07350360  0.66643531  1
  O  O16  1  0.50000000  0.48829393  0.75000000  1
  O  O17  1  0.75000000  0.88026271  0.88026271  1
  O  O18  1  0.30646220  0.16643531  0.57350360  1
  O  O19  1  0.80646220  0.57350360  0.33356469  1
  O  O20  1  0.69353780  0.66643531  0.07350360  1
  O  O21  1  0.50000000  0.98829393  0.25000000  1
  O  O22  1  0.69353780  0.83356469  0.42649640  1
  O  O23  1  0.50000000  0.51170607  0.25000000  1
  O  O24  1  0.50000000  0.01170607  0.75000000  1
  O  O25  1  0.30646220  0.66643531  0.42649640  1
  O  O26  1  0.00000000  0.75000000  0.48829393  1
  O  O27  1  0.30646220  0.83356469  0.07350360  1
  O  O28  1  0.00000000  0.75000000  0.01170607  1
  O  O29  1  0.25000000  0.38026271  0.38026271  1
  O  O30  1  0.25000000  0.61973729  0.88026271  1
  O  O31  1  0.75000000  0.11973729  0.38026271  1
loop_
_geom_bond_atom_site_label_1
_geom_bond_atom_site_label_2
_geom_bond_distance
_geom_bond_site_symmetry_2
O0 Si9 1.606142 1_555
O0 Si8 1.606142 1_555
O1 Si7 1.619289 1_555
O1 Si15 1.623438 1_555
O2 Si5 1.619289 1_555
O2 Si8 1.623438 1_555
O3 Si4 1.606142 1_555
O3 Si3 1.606142 1_554
O4 Si1 1.602159 1_555
O4 Si5 1.602159 1_455
O5 Si3 1.619289 1_555
O5 Si0 1.623438 1_555
O6 Si12 1.602159 1_555
O6 Si3 1.602159 1_455
O7 Si10 1.619289 1_555
O7 Si11 1.623438 1_555
O8 Si13 1.606142 1_565
O8 Si6 1.606142 1_555
O9 Si14 1.619289 1_555
O9 Si6 1.623438 1_555
O10 Si13 1.619289 1_555
O10 Si12 1.623438 1_555
O11 Si2 1.619289 1_555
O11 Si1 1.623438 1_555
O12 Si14 1.606142 1_545
O12 Si12 1.606142 1_554
O13 Si8 1.619289 1_555
O13 Si3 1.623438 1_555
O14 Si12 1.619289 1_555
O14 Si2 1.623438 1_555
O15 Si0 1.619289 1_555
O15 Si5 1.623438 1_555
O16 Si2 1.602159 1_555
O16 Si8 1.602159 1_555
O17 Si11 1.606142 1_556
O17 Si0 1.606142 1_565
O18 Si1 1.619289 1_555
O18 Si13 1.623438 1_555
O19 Si4 1.619289 1_555
O19 Si9 1.623438 1_555
O20 Si11 1.619289 1_555
O20 Si4 1.623438 1_555
O21 Si14 1.602159 1_555
O21 Si10 1.602159 1_555
O22 Si9 1.619289 1_555
O22 Si10 1.623438 1_555
O23 Si7 1.602159 1_555
O23 Si4 1.602159 1_555
O24 Si13 1.602159 1_555
O24 Si0 1.602159 1_555
O25 Si6 1.619289 1_555
O25 Si7 1.623438 1_555
O26 Si6 1.602159 1_555
O26 Si9 1.602159 1_455
O27 Si15 1.619289 1_555
O27 Si14 1.623438 1_555
O28 Si15 1.602159 1_555
O28 Si11 1.602159 1_455
O29 Si7 1.606142 1_555
O29 Si1 1.606142 1_555
O30 Si2 1.606142 1_555
O30 Si15 1.606142 1_556
O31 Si5 1.606142 1_555
O31 Si10 1.606142 1_545
