# generated using pymatgen
data_Na2Bi5AuO11
_symmetry_space_group_name_H-M   'P 1'
_cell_length_a   12.49570500
_cell_length_b   12.49570500
_cell_length_c   3.91805000
_cell_angle_alpha   90.00000000
_cell_angle_beta   90.00000000
_cell_angle_gamma   90.00000000
_symmetry_Int_Tables_number   1
_chemical_formula_structural   Na2Bi5AuO11
_chemical_formula_sum   'Na4 Bi10 Au2 O22'
_cell_volume   611.77468416
_cell_formula_units_Z   2
loop_
 _symmetry_equiv_pos_site_id
 _symmetry_equiv_pos_as_xyz
  1  'x, y, z'
loop_
 _atom_site_type_symbol
 _atom_site_label
 _atom_site_symmetry_multiplicity
 _atom_site_fract_x
 _atom_site_fract_y
 _atom_site_fract_z
 _atom_site_occupancy
  Na  Na0  1  0.29607900  0.20392100  0.00000000  1
  Na  Na1  1  0.20392100  0.70392100  0.00000000  1
  Na  Na2  1  0.79607900  0.29607900  0.00000000  1
  Na  Na3  1  0.70392100  0.79607900  0.00000000  1
  Bi  Bi0  1  0.45060700  0.73054800  0.50000000  1
  Bi  Bi1  1  0.04939300  0.23054800  0.50000000  1
  Bi  Bi2  1  0.95060700  0.76945200  0.50000000  1
  Bi  Bi3  1  0.54939300  0.26945200  0.50000000  1
  Bi  Bi4  1  0.26945200  0.45060700  0.50000000  1
  Bi  Bi5  1  0.76945200  0.04939300  0.50000000  1
  Bi  Bi6  1  0.73054800  0.54939300  0.50000000  1
  Bi  Bi7  1  0.50000000  0.00000000  0.00000000  1
  Bi  Bi8  1  0.00000000  0.50000000  0.00000000  1
  Bi  Bi9  1  0.23054800  0.95060700  0.50000000  1
  Au  Au0  1  0.00000000  0.00000000  0.00000000  1
  Au  Au1  1  0.50000000  0.50000000  0.00000000  1
  O  O0  1  0.49670400  0.17153300  0.00000000  1
  O  O1  1  0.39124700  0.62220200  0.00000000  1
  O  O2  1  0.82846700  0.49670400  0.00000000  1
  O  O3  1  0.87779800  0.10875300  0.00000000  1
  O  O4  1  0.17153300  0.50329600  0.00000000  1
  O  O5  1  0.28824800  0.78824800  0.50000000  1
  O  O6  1  0.21175200  0.28824800  0.50000000  1
  O  O7  1  0.67153300  0.99670400  0.00000000  1
  O  O8  1  0.89124700  0.87779800  0.00000000  1
  O  O9  1  0.78824800  0.71175200  0.50000000  1
  O  O10  1  0.50329600  0.82846700  0.00000000  1
  O  O11  1  0.60875300  0.37779800  0.00000000  1
  O  O12  1  0.12220200  0.89124700  0.00000000  1
  O  O13  1  0.00000000  0.50000000  0.50000000  1
  O  O14  1  0.37779800  0.39124700  0.00000000  1
  O  O15  1  0.00329600  0.67153300  0.00000000  1
  O  O16  1  0.99670400  0.32846700  0.00000000  1
  O  O17  1  0.71175200  0.21175200  0.50000000  1
  O  O18  1  0.10875300  0.12220200  0.00000000  1
  O  O19  1  0.50000000  0.00000000  0.50000000  1
  O  O20  1  0.32846700  0.00329600  0.00000000  1
  O  O21  1  0.62220200  0.60875300  0.00000000  1
loop_
_geom_bond_atom_site_label_1
_geom_bond_atom_site_label_2
_geom_bond_distance
_geom_bond_site_symmetry_2
Na0 O6 2.461392 1_555
Na0 O6 2.461392 1_554
Na0 O0 2.539408 1_555
Na0 O20 2.539408 1_555
Na0 O18 2.553806 1_555
Na0 O14 2.553806 1_555
Na1 O5 2.461392 1_554
Na1 O5 2.461392 1_555
Na1 O15 2.539408 1_555
Na1 O4 2.539408 1_555
Na1 O12 2.553806 1_555
Na1 O1 2.553806 1_555
Na2 O17 2.461392 1_554
Na2 O17 2.461392 1_555
Na2 O2 2.539408 1_555
Na2 O16 2.539408 1_555
Na2 O3 2.553806 1_555
Na2 O11 2.553806 1_555
Na3 O9 2.461392 1_554
Na3 O9 2.461392 1_555
Na3 O7 2.539408 1_555
Na3 O10 2.539408 1_555
Na3 O21 2.553806 1_555
Na3 O8 2.553806 1_555
Bi0 O5 2.153099 1_555
Bi0 O10 2.401743 1_555
Bi0 O10 2.401743 1_556
Bi0 O1 2.494173 1_556
Bi0 O1 2.494173 1_555
Bi1 O6 2.153099 1_555
Bi1 O16 2.401743 1_455
Bi1 O16 2.401743 1_456
Bi1 O18 2.494173 1_555
Bi1 O18 2.494173 1_556
Bi2 O9 2.153099 1_555
Bi2 O15 2.401743 1_655
Bi2 O15 2.401743 1_656
Bi2 O8 2.494173 1_556
Bi2 O8 2.494173 1_555
Bi3 O17 2.153099 1_555
Bi3 O0 2.401743 1_555
Bi3 O0 2.401743 1_556
Bi3 O11 2.494173 1_556
Bi3 O11 2.494173 1_555
Bi4 O6 2.153099 1_555
Bi4 O4 2.401743 1_555
Bi4 O4 2.401743 1_556
Bi4 O14 2.494173 1_555
Bi4 O14 2.494173 1_556
Bi5 O17 2.153099 1_555
Bi5 O7 2.401743 1_545
Bi5 O7 2.401743 1_546
Bi5 O3 2.494173 1_556
Bi5 O3 2.494173 1_555
Bi6 O9 2.153099 1_555
Bi6 O2 2.401743 1_556
Bi6 O2 2.401743 1_555
Bi6 O21 2.494173 1_555
Bi6 O21 2.494173 1_556
Bi7 O19 1.959025 1_555
Bi7 O19 1.959025 1_554
Bi7 O0 2.143821 1_555
Bi7 O20 2.143821 1_555
Bi7 O10 2.143821 1_545
Bi7 O7 2.143821 1_545
Bi8 O13 1.959025 1_555
Bi8 O13 1.959025 1_554
Bi8 O16 2.143821 1_455
Bi8 O4 2.143821 1_555
Bi8 O2 2.143821 1_455
Bi8 O15 2.143821 1_555
Bi9 O5 2.153099 1_555
Bi9 O20 2.401743 1_565
Bi9 O20 2.401743 1_566
Bi9 O12 2.494173 1_556
Bi9 O12 2.494173 1_555
Au0 O18 2.044129 1_555
Au0 O12 2.044129 1_545
Au0 O3 2.044129 1_455
Au0 O8 2.044129 1_445
Au1 O11 2.044129 1_555
Au1 O14 2.044129 1_555
Au1 O21 2.044129 1_555
Au1 O1 2.044129 1_555
