# generated using pymatgen
data_K2Mo7O20
_symmetry_space_group_name_H-M   'P 1'
_cell_length_a   3.90072600
_cell_length_b   18.52611600
_cell_length_c   22.40699200
_cell_angle_alpha   90.00000000
_cell_angle_beta   90.00000000
_cell_angle_gamma   90.00000000
_symmetry_Int_Tables_number   1
_chemical_formula_structural   K2Mo7O20
_chemical_formula_sum   'K8 Mo28 O80'
_cell_volume   1619.24805186
_cell_formula_units_Z   4
loop_
 _symmetry_equiv_pos_site_id
 _symmetry_equiv_pos_as_xyz
  1  'x, y, z'
loop_
 _atom_site_type_symbol
 _atom_site_label
 _atom_site_symmetry_multiplicity
 _atom_site_fract_x
 _atom_site_fract_y
 _atom_site_fract_z
 _atom_site_occupancy
  K  K0  1  0.50225500  0.40656000  0.94853100  1
  K  K1  1  0.50225500  0.09344000  0.44853100  1
  K  K2  1  0.49774500  0.59344000  0.44853100  1
  K  K3  1  0.50225500  0.09344000  0.05146900  1
  K  K4  1  0.50225500  0.40656000  0.55146900  1
  K  K5  1  0.49774500  0.59344000  0.05146900  1
  K  K6  1  0.49774500  0.90656000  0.94853100  1
  K  K7  1  0.49774500  0.90656000  0.55146900  1
  Mo  Mo0  1  0.04435300  0.09040500  0.60642200  1
  Mo  Mo1  1  0.98796800  0.25000000  0.50000000  1
  Mo  Mo2  1  0.98316300  0.14860600  0.75000000  1
  Mo  Mo3  1  0.01683700  0.85139400  0.25000000  1
  Mo  Mo4  1  0.01347600  0.96917900  0.75000000  1
  Mo  Mo5  1  0.98652400  0.03082100  0.25000000  1
  Mo  Mo6  1  0.95564700  0.90959500  0.10642200  1
  Mo  Mo7  1  0.04435300  0.09040500  0.89357800  1
  Mo  Mo8  1  0.01347600  0.53082100  0.25000000  1
  Mo  Mo9  1  0.01683700  0.64860600  0.75000000  1
  Mo  Mo10  1  0.04435300  0.40959500  0.10642200  1
  Mo  Mo11  1  0.01203200  0.75000000  0.00000000  1
  Mo  Mo12  1  0.98652400  0.46917900  0.75000000  1
  Mo  Mo13  1  0.04435300  0.40959500  0.39357800  1
  Mo  Mo14  1  0.04042900  0.20551300  0.16335000  1
  Mo  Mo15  1  0.95957100  0.70551300  0.16335000  1
  Mo  Mo16  1  0.95564700  0.90959500  0.39357800  1
  Mo  Mo17  1  0.95957100  0.79448700  0.83665000  1
  Mo  Mo18  1  0.95564700  0.59040500  0.60642200  1
  Mo  Mo19  1  0.04042900  0.29448700  0.83665000  1
  Mo  Mo20  1  0.01203200  0.75000000  0.50000000  1
  Mo  Mo21  1  0.04042900  0.29448700  0.66335000  1
  Mo  Mo22  1  0.95564700  0.59040500  0.89357800  1
  Mo  Mo23  1  0.04042900  0.20551300  0.33665000  1
  Mo  Mo24  1  0.98316300  0.35139400  0.25000000  1
  Mo  Mo25  1  0.95957100  0.79448700  0.66335000  1
  Mo  Mo26  1  0.98796800  0.25000000  0.00000000  1
  Mo  Mo27  1  0.95957100  0.70551300  0.33665000  1
  O  O0  1  0.00018500  0.55851000  0.69388200  1
  O  O1  1  0.99981500  0.44149000  0.30611800  1
  O  O2  1  0.00213900  0.64946000  0.53869200  1
  O  O3  1  0.00011500  0.99681100  0.07535600  1
  O  O4  1  0.50839700  0.64829200  0.75000000  1
  O  O5  1  0.99786100  0.14946000  0.53869200  1
  O  O6  1  0.00618800  0.80166400  0.91918700  1
  O  O7  1  0.49970600  0.79220300  0.83611500  1
  O  O8  1  0.00618900  0.61082100  0.18629500  1
  O  O9  1  0.50509400  0.09569300  0.88954100  1
  O  O10  1  0.99381100  0.38917900  0.81370500  1
  O  O11  1  0.49970600  0.70779700  0.33611500  1
  O  O12  1  0.50029400  0.29220300  0.66388500  1
  O  O13  1  0.00618900  0.88917900  0.81370500  1
  O  O14  1  0.00725000  0.68509400  0.66332300  1
  O  O15  1  0.00725000  0.68509400  0.83667700  1
  O  O16  1  0.99275000  0.31490600  0.16332300  1
  O  O17  1  0.99988500  0.49681100  0.42464400  1
  O  O18  1  0.50029400  0.29220300  0.83611500  1
  O  O19  1  0.50788700  0.75000000  0.00000000  1
  O  O20  1  0.50509400  0.40430700  0.38954100  1
  O  O21  1  0.99381100  0.38917900  0.68629500  1
  O  O22  1  0.50509400  0.09569300  0.61045900  1
  O  O23  1  0.99381200  0.30166400  0.91918700  1
  O  O24  1  0.49160300  0.14829200  0.75000000  1
  O  O25  1  0.99786100  0.35054000  0.46130800  1
  O  O26  1  0.99186400  0.26099900  0.75000000  1
  O  O27  1  0.99381100  0.11082100  0.18629500  1
  O  O28  1  0.99186400  0.23900100  0.25000000  1
  O  O29  1  0.00618800  0.80166400  0.58081300  1
  O  O30  1  0.50509400  0.40430700  0.11045900  1
  O  O31  1  0.00018500  0.94149000  0.19388200  1
  O  O32  1  0.00618900  0.61082100  0.31370500  1
  O  O33  1  0.49490600  0.90430700  0.11045900  1
  O  O34  1  0.00213900  0.64946000  0.96130800  1
  O  O35  1  0.50029400  0.20779700  0.16388500  1
  O  O36  1  0.49160300  0.35170800  0.25000000  1
  O  O37  1  0.00018500  0.55851000  0.80611800  1
  O  O38  1  0.00725000  0.81490600  0.16332300  1
  O  O39  1  0.00725000  0.81490600  0.33667700  1
  O  O40  1  0.99981500  0.05851000  0.69388200  1
  O  O41  1  0.50839700  0.85170800  0.25000000  1
  O  O42  1  0.99981500  0.44149000  0.19388200  1
  O  O43  1  0.49970600  0.70779700  0.16388500  1
  O  O44  1  0.00213900  0.85054000  0.46130800  1
  O  O45  1  0.50788700  0.75000000  0.50000000  1
  O  O46  1  0.99381100  0.11082100  0.31370500  1
  O  O47  1  0.99381200  0.30166400  0.58081300  1
  O  O48  1  0.00011500  0.99681100  0.42464400  1
  O  O49  1  0.99786100  0.14946000  0.96130800  1
  O  O50  1  0.49490600  0.59569300  0.61045900  1
  O  O51  1  0.00011500  0.50318900  0.92464400  1
  O  O52  1  0.99275000  0.18509400  0.66332300  1
  O  O53  1  0.99988500  0.00318900  0.57535600  1
  O  O54  1  0.00813600  0.76099900  0.75000000  1
  O  O55  1  0.99988500  0.00318900  0.92464400  1
  O  O56  1  0.00213900  0.85054000  0.03869200  1
  O  O57  1  0.99275000  0.18509400  0.83667700  1
  O  O58  1  0.00011500  0.50318900  0.57535600  1
  O  O59  1  0.99988500  0.49681100  0.07535600  1
  O  O60  1  0.49211300  0.25000000  0.50000000  1
  O  O61  1  0.00018500  0.94149000  0.30611800  1
  O  O62  1  0.49490600  0.59569300  0.88954100  1
  O  O63  1  0.49211300  0.25000000  0.00000000  1
  O  O64  1  0.49490600  0.90430700  0.38954100  1
  O  O65  1  0.49970600  0.79220300  0.66388500  1
  O  O66  1  0.00618800  0.69833600  0.41918600  1
  O  O67  1  0.50865200  0.96842100  0.75000000  1
  O  O68  1  0.99381200  0.19833600  0.41918600  1
  O  O69  1  0.50029400  0.20779700  0.33611500  1
  O  O70  1  0.50865200  0.53157900  0.25000000  1
  O  O71  1  0.99275000  0.31490600  0.33667700  1
  O  O72  1  0.49134800  0.03157900  0.25000000  1
  O  O73  1  0.00813600  0.73900100  0.25000000  1
  O  O74  1  0.49134800  0.46842100  0.75000000  1
  O  O75  1  0.99786100  0.35054000  0.03869200  1
  O  O76  1  0.99981500  0.05851000  0.80611800  1
  O  O77  1  0.00618900  0.88917900  0.68629500  1
  O  O78  1  0.00618800  0.69833600  0.08081300  1
  O  O79  1  0.99381200  0.19833600  0.08081300  1
loop_
_geom_bond_atom_site_label_1
_geom_bond_atom_site_label_2
_geom_bond_distance
_geom_bond_site_symmetry_2
K0 O51 2.694916 1_655
K0 O51 2.706972 1_555
K0 O23 2.808083 1_555
K0 O23 2.853465 1_455
K0 O75 2.982584 1_556
K0 O75 3.004916 1_456
K0 O63 3.121568 1_556
K0 O18 3.291408 1_555
K1 O48 2.694916 1_645
K1 O48 2.706972 1_545
K1 O68 2.808088 1_555
K1 O68 2.853470 1_455
K1 O5 2.982584 1_555
K1 O5 3.004916 1_455
K1 O60 3.121568 1_555
K1 O69 3.291408 1_555
K2 O17 2.694916 1_455
K2 O17 2.706972 1_555
K2 O66 2.808088 1_555
K2 O66 2.853470 1_655
K2 O2 2.982584 1_555
K2 O2 3.004916 1_655
K2 O45 3.121568 1_555
K2 O11 3.291408 1_555
K3 O3 2.694916 1_645
K3 O3 2.706972 1_545
K3 O79 2.808083 1_555
K3 O79 2.853465 1_455
K3 O49 2.982584 1_554
K3 O49 3.004916 1_454
K3 O63 3.121568 1_555
K3 O35 3.291408 1_555
K4 O58 2.694916 1_655
K4 O58 2.706972 1_555
K4 O47 2.808083 1_555
K4 O47 2.853465 1_455
K4 O25 2.982584 1_555
K4 O25 3.004916 1_455
K4 O60 3.121568 1_555
K4 O12 3.291408 1_555
K5 O59 2.694916 1_455
K5 O59 2.706972 1_555
K5 O78 2.808083 1_555
K5 O78 2.853465 1_655
K5 O34 2.982584 1_554
K5 O34 3.004916 1_654
K5 O19 3.121568 1_555
K5 O43 3.291408 1_555
K6 O55 2.694916 1_465
K6 O55 2.706972 1_565
K6 O6 2.808083 1_555
K6 O6 2.853465 1_655
K6 O56 2.982584 1_556
K6 O56 3.004916 1_656
K6 O19 3.121568 1_556
K6 O7 3.291408 1_555
K7 O53 2.694916 1_465
K7 O53 2.706972 1_565
K7 O29 2.808083 1_555
K7 O29 2.853465 1_655
K7 O44 2.982584 1_555
K7 O44 3.004916 1_655
K7 O45 3.121568 1_555
K7 O65 3.291408 1_555
Mo0 O53 1.767869 1_455
Mo0 O22 1.802164 1_555
Mo0 O5 1.879639 1_455
Mo0 O40 2.054220 1_455
Mo0 O22 2.107724 1_455
Mo0 O52 2.177930 1_455
Mo1 O60 1.934194 1_555
Mo1 O60 1.966532 1_655
Mo1 O47 2.048300 1_555
Mo1 O68 2.048320 1_555
Mo1 O5 2.054864 1_555
Mo1 O25 2.054864 1_555
Mo2 O24 1.917450 1_555
Mo2 O24 1.983294 1_655
Mo2 O57 2.056788 1_555
Mo2 O52 2.056788 1_555
Mo2 O26 2.082482 1_555
Mo2 O76 2.090779 1_555
Mo2 O40 2.090779 1_555
Mo3 O41 1.917450 1_555
Mo3 O41 1.983294 1_455
Mo3 O39 2.056788 1_555
Mo3 O38 2.056788 1_555
Mo3 O73 2.082482 1_555
Mo3 O31 2.090779 1_555
Mo3 O61 2.090779 1_555
Mo4 O67 1.931597 1_555
Mo4 O67 1.969230 1_455
Mo4 O13 2.057905 1_555
Mo4 O77 2.057905 1_555
Mo4 O40 2.079150 1_465
Mo4 O76 2.079150 1_465
Mo5 O72 1.931597 1_555
Mo5 O72 1.969230 1_655
Mo5 O27 2.057905 1_555
Mo5 O46 2.057905 1_555
Mo5 O61 2.079150 1_645
Mo5 O31 2.079150 1_645
Mo6 O3 1.767869 1_655
Mo6 O33 1.802164 1_555
Mo6 O56 1.879639 1_655
Mo6 O31 2.054220 1_655
Mo6 O33 2.107724 1_655
Mo6 O38 2.177930 1_655
Mo7 O55 1.767869 1_455
Mo7 O9 1.802164 1_555
Mo7 O49 1.879639 1_455
Mo7 O76 2.054220 1_455
Mo7 O9 2.107724 1_455
Mo7 O57 2.177930 1_455
Mo8 O70 1.931597 1_555
Mo8 O70 1.969230 1_455
Mo8 O8 2.057905 1_555
Mo8 O32 2.057905 1_555
Mo8 O42 2.079150 1_455
Mo8 O1 2.079150 1_455
Mo9 O4 1.917450 1_555
Mo9 O4 1.983294 1_455
Mo9 O14 2.056788 1_555
Mo9 O15 2.056788 1_555
Mo9 O54 2.082482 1_555
Mo9 O37 2.090779 1_555
Mo9 O0 2.090779 1_555
Mo10 O59 1.767869 1_455
Mo10 O30 1.802164 1_555
Mo10 O75 1.879639 1_455
Mo10 O42 2.054220 1_455
Mo10 O30 2.107724 1_455
Mo10 O16 2.177930 1_455
Mo11 O19 1.934194 1_555
Mo11 O19 1.966532 1_455
Mo11 O6 2.048300 1_554
Mo11 O78 2.048300 1_555
Mo11 O56 2.054864 1_555
Mo11 O34 2.054864 1_554
Mo12 O74 1.931597 1_555
Mo12 O74 1.969230 1_655
Mo12 O10 2.057905 1_555
Mo12 O21 2.057905 1_555
Mo12 O37 2.079150 1_655
Mo12 O0 2.079150 1_655
Mo13 O17 1.767869 1_455
Mo13 O20 1.802164 1_555
Mo13 O25 1.879639 1_455
Mo13 O1 2.054220 1_455
Mo13 O20 2.107724 1_455
Mo13 O71 2.177930 1_455
Mo14 O35 1.794346 1_555
Mo14 O27 1.837084 1_455
Mo14 O79 1.863075 1_455
Mo14 O16 2.035143 1_455
Mo14 O28 2.047062 1_455
Mo14 O35 2.107378 1_455
Mo15 O43 1.794346 1_555
Mo15 O8 1.837084 1_655
Mo15 O78 1.863075 1_655
Mo15 O38 2.035143 1_655
Mo15 O73 2.047062 1_655
Mo15 O43 2.107378 1_655
Mo16 O48 1.767869 1_655
Mo16 O64 1.802164 1_555
Mo16 O44 1.879639 1_655
Mo16 O61 2.054220 1_655
Mo16 O64 2.107724 1_655
Mo16 O39 2.177930 1_655
Mo17 O7 1.794346 1_555
Mo17 O13 1.837084 1_655
Mo17 O6 1.863075 1_655
Mo17 O15 2.035143 1_655
Mo17 O54 2.047062 1_655
Mo17 O7 2.107378 1_655
Mo18 O58 1.767869 1_655
Mo18 O50 1.802164 1_555
Mo18 O2 1.879639 1_655
Mo18 O0 2.054220 1_655
Mo18 O50 2.107724 1_655
Mo18 O14 2.177930 1_655
Mo19 O18 1.794346 1_555
Mo19 O10 1.837084 1_455
Mo19 O23 1.863075 1_455
Mo19 O57 2.035143 1_455
Mo19 O26 2.047062 1_455
Mo19 O18 2.107378 1_455
Mo20 O45 1.934194 1_555
Mo20 O45 1.966532 1_455
Mo20 O29 2.048300 1_555
Mo20 O66 2.048320 1_555
Mo20 O2 2.054864 1_555
Mo20 O44 2.054864 1_555
Mo21 O12 1.794346 1_555
Mo21 O21 1.837084 1_455
Mo21 O47 1.863075 1_455
Mo21 O52 2.035143 1_455
Mo21 O26 2.047062 1_455
Mo21 O12 2.107378 1_455
Mo22 O51 1.767869 1_655
Mo22 O62 1.802164 1_555
Mo22 O34 1.879639 1_655
Mo22 O37 2.054220 1_655
Mo22 O62 2.107724 1_655
Mo22 O15 2.177930 1_655
Mo23 O69 1.794346 1_555
Mo23 O46 1.837084 1_455
Mo23 O68 1.863052 1_455
Mo23 O71 2.035143 1_455
Mo23 O28 2.047062 1_455
Mo23 O69 2.107378 1_455
Mo24 O36 1.917450 1_555
Mo24 O36 1.983294 1_655
Mo24 O71 2.056788 1_555
Mo24 O16 2.056788 1_555
Mo24 O28 2.082482 1_555
Mo24 O1 2.090779 1_555
Mo24 O42 2.090779 1_555
Mo25 O65 1.794346 1_555
Mo25 O77 1.837084 1_655
Mo25 O29 1.863075 1_655
Mo25 O14 2.035143 1_655
Mo25 O54 2.047062 1_655
Mo25 O65 2.107378 1_655
Mo26 O63 1.934194 1_555
Mo26 O63 1.966532 1_655
Mo26 O23 2.048300 1_554
Mo26 O79 2.048300 1_555
Mo26 O75 2.054864 1_555
Mo26 O49 2.054864 1_554
Mo27 O11 1.794346 1_555
Mo27 O32 1.837084 1_655
Mo27 O66 1.863052 1_655
Mo27 O39 2.035143 1_655
Mo27 O73 2.047062 1_655
Mo27 O11 2.107378 1_655
