# generated using pymatgen
data_Dy3Se4
_symmetry_space_group_name_H-M   'P 1'
_cell_length_a   7.52216675
_cell_length_b   7.52216675
_cell_length_c   7.52216675
_cell_angle_alpha   109.47122063
_cell_angle_beta   109.47122063
_cell_angle_gamma   109.47122063
_symmetry_Int_Tables_number   1
_chemical_formula_structural   Dy3Se4
_chemical_formula_sum   'Dy6 Se8'
_cell_volume   327.64759124
_cell_formula_units_Z   2
loop_
 _symmetry_equiv_pos_site_id
 _symmetry_equiv_pos_as_xyz
  1  'x, y, z'
loop_
 _atom_site_type_symbol
 _atom_site_label
 _atom_site_symmetry_multiplicity
 _atom_site_fract_x
 _atom_site_fract_y
 _atom_site_fract_z
 _atom_site_occupancy
  Dy  Dy0  1  0.25000000  0.12500000  0.87500000  1
  Dy  Dy1  1  0.12500000  0.87500000  0.25000000  1
  Dy  Dy2  1  0.75000000  0.37500000  0.62500000  1
  Dy  Dy3  1  0.87500000  0.25000000  0.12500000  1
  Dy  Dy4  1  0.62500000  0.75000000  0.37500000  1
  Dy  Dy5  1  0.37500000  0.62500000  0.75000000  1
  Se  Se0  1  0.50000000  0.00000000  0.64321200  1
  Se  Se1  1  0.00000000  0.64321200  0.50000000  1
  Se  Se2  1  0.64321200  0.50000000  0.00000000  1
  Se  Se3  1  0.00000000  0.14321200  0.50000000  1
  Se  Se4  1  0.85678800  0.85678800  0.85678800  1
  Se  Se5  1  0.35678800  0.35678800  0.35678800  1
  Se  Se6  1  0.14321200  0.50000000  0.00000000  1
  Se  Se7  1  0.50000000  0.00000000  0.14321200  1
loop_
_geom_bond_atom_site_label_1
_geom_bond_atom_site_label_2
_geom_bond_distance
_geom_bond_site_symmetry_2
Dy0 Se7 2.899159 1_556
Dy0 Se4 2.899159 1_445
Dy0 Se2 2.899159 1_556
Dy0 Se3 2.899159 1_555
Dy0 Se5 3.119656 1_556
Dy0 Se1 3.119656 1_545
Dy0 Se0 3.119656 1_555
Dy0 Se6 3.119656 1_556
Dy1 Se0 2.899159 1_565
Dy1 Se4 2.899159 1_454
Dy1 Se6 2.899159 1_555
Dy1 Se3 2.899159 1_565
Dy1 Se5 3.119656 1_565
Dy1 Se2 3.119656 1_455
Dy1 Se7 3.119656 1_565
Dy1 Se1 3.119656 1_555
Dy2 Se0 2.899159 1_555
Dy2 Se1 2.899159 1_655
Dy2 Se5 2.899159 1_555
Dy2 Se6 2.899159 1_656
Dy2 Se2 3.119656 1_556
Dy2 Se4 3.119656 1_555
Dy2 Se3 3.119656 1_655
Dy2 Se7 3.119656 1_555
Dy3 Se7 2.899159 1_555
Dy3 Se6 2.899159 1_655
Dy3 Se4 2.899159 1_544
Dy3 Se1 2.899159 1_655
Dy3 Se5 3.119656 1_655
Dy3 Se0 3.119656 1_554
Dy3 Se3 3.119656 1_655
Dy3 Se2 3.119656 1_555
Dy4 Se3 2.899159 1_665
Dy4 Se5 2.899159 1_555
Dy4 Se2 2.899159 1_555
Dy4 Se0 2.899159 1_565
Dy4 Se7 3.119656 1_565
Dy4 Se4 3.119656 1_555
Dy4 Se1 3.119656 1_655
Dy4 Se6 3.119656 1_555
Dy5 Se2 2.899159 1_556
Dy5 Se1 2.899159 1_555
Dy5 Se5 2.899159 1_555
Dy5 Se7 2.899159 1_566
Dy5 Se3 3.119656 1_555
Dy5 Se4 3.119656 1_555
Dy5 Se6 3.119656 1_556
Dy5 Se0 3.119656 1_565
