# generated using pymatgen
data_KSrB5O9
_symmetry_space_group_name_H-M   'P 1'
_cell_length_a   8.07329700
_cell_length_b   6.74487500
_cell_length_c   14.39827797
_cell_angle_alpha   86.94040013
_cell_angle_beta   90.00000000
_cell_angle_gamma   90.00000000
_symmetry_Int_Tables_number   1
_chemical_formula_structural   KSrB5O9
_chemical_formula_sum   'K4 Sr4 B20 O36'
_cell_volume   782.91728921
_cell_formula_units_Z   4
loop_
 _symmetry_equiv_pos_site_id
 _symmetry_equiv_pos_as_xyz
  1  'x, y, z'
loop_
 _atom_site_type_symbol
 _atom_site_label
 _atom_site_symmetry_multiplicity
 _atom_site_fract_x
 _atom_site_fract_y
 _atom_site_fract_z
 _atom_site_occupancy
  K  K0  1  0.65510000  0.50133400  0.09933700  1
  K  K1  1  0.15510000  0.49866600  0.40066300  1
  K  K2  1  0.84490000  0.50133400  0.59933700  1
  K  K3  1  0.34490000  0.49866600  0.90066300  1
  Sr  Sr0  1  0.48359000  0.92255000  0.26024500  1
  Sr  Sr1  1  0.98359000  0.07745000  0.23975500  1
  Sr  Sr2  1  0.51641000  0.07745000  0.73975500  1
  Sr  Sr3  1  0.01641000  0.92255000  0.76024500  1
  B  B0  1  0.71595800  0.06092800  0.06152000  1
  B  B1  1  0.00652300  0.61577500  0.19380800  1
  B  B2  1  0.78383700  0.53556800  0.32726200  1
  B  B3  1  0.28404200  0.93907200  0.93848000  1
  B  B4  1  0.77867900  0.19249600  0.89671500  1
  B  B5  1  0.49347700  0.61577500  0.69380800  1
  B  B6  1  0.19756500  0.16734400  0.56523300  1
  B  B7  1  0.50652300  0.38422500  0.30619200  1
  B  B8  1  0.30243500  0.16734400  0.06523300  1
  B  B9  1  0.72132100  0.19249600  0.39671500  1
  B  B10  1  0.22132100  0.80750400  0.10328500  1
  B  B11  1  0.21616300  0.46443200  0.67273800  1
  B  B12  1  0.21595800  0.93907200  0.43848000  1
  B  B13  1  0.28383700  0.46443200  0.17273800  1
  B  B14  1  0.69756500  0.83265600  0.93476700  1
  B  B15  1  0.80243500  0.83265600  0.43476700  1
  B  B16  1  0.27867900  0.80750400  0.60328500  1
  B  B17  1  0.78404200  0.06092800  0.56152000  1
  B  B18  1  0.71616300  0.53556800  0.82726200  1
  B  B19  1  0.99347700  0.38422500  0.80619200  1
  O  O0  1  0.39882200  0.44432700  0.69716200  1
  O  O1  1  0.29638400  0.91006500  0.84699700  1
  O  O2  1  0.76295900  0.98256100  0.36926300  1
  O  O3  1  0.54810600  0.22154300  0.36341700  1
  O  O4  1  0.32551500  0.12663500  0.97272500  1
  O  O5  1  0.17448500  0.12663500  0.47272500  1
  O  O6  1  0.95189400  0.22154300  0.86341700  1
  O  O7  1  0.76770100  0.20821900  0.99708500  1
  O  O8  1  0.82140700  0.63985900  0.41313000  1
  O  O9  1  0.20361600  0.91006500  0.34699700  1
  O  O10  1  0.83193800  0.32801500  0.34243700  1
  O  O11  1  0.23229900  0.79178100  0.00291500  1
  O  O12  1  0.70361600  0.08993500  0.15300300  1
  O  O13  1  0.73229900  0.20821900  0.49708500  1
  O  O14  1  0.82551500  0.87336500  0.52727500  1
  O  O15  1  0.67859300  0.63985900  0.91313000  1
  O  O16  1  0.23704100  0.01743900  0.63073700  1
  O  O17  1  0.33193800  0.67198500  0.15756300  1
  O  O18  1  0.89882200  0.55567300  0.80283800  1
  O  O19  1  0.79638400  0.08993500  0.65300300  1
  O  O20  1  0.17859300  0.36014100  0.58687000  1
  O  O21  1  0.67448500  0.87336500  0.02727500  1
  O  O22  1  0.32140700  0.36014100  0.08687000  1
  O  O23  1  0.66806200  0.32801500  0.84243700  1
  O  O24  1  0.60117800  0.55567300  0.30283800  1
  O  O25  1  0.86821400  0.63802600  0.24711000  1
  O  O26  1  0.04810600  0.77845700  0.13658300  1
  O  O27  1  0.10117800  0.44432700  0.19716200  1
  O  O28  1  0.13178600  0.36197400  0.75289000  1
  O  O29  1  0.63178600  0.63802600  0.74711000  1
  O  O30  1  0.36821400  0.36197400  0.25289000  1
  O  O31  1  0.73704100  0.98256100  0.86926300  1
  O  O32  1  0.26770100  0.79178100  0.50291500  1
  O  O33  1  0.16806200  0.67198500  0.65756300  1
  O  O34  1  0.26295900  0.01743900  0.13073700  1
  O  O35  1  0.45189400  0.77845700  0.63658300  1
loop_
_geom_bond_atom_site_label_1
_geom_bond_atom_site_label_2
_geom_bond_distance
_geom_bond_site_symmetry_2
K0 O21 2.668279 1_555
K0 O7 2.685751 1_554
K0 O15 2.798147 1_554
K0 O22 2.866191 1_555
K0 O12 2.867282 1_555
K0 O25 2.923470 1_555
K0 O17 2.989563 1_555
K0 O24 3.003956 1_555
K1 O5 2.668279 1_555
K1 O32 2.685751 1_555
K1 O20 2.798147 1_555
K1 O8 2.866191 1_455
K1 O9 2.867282 1_555
K1 O30 2.923470 1_555
K1 O10 2.989563 1_455
K1 O27 3.003956 1_555
K2 O14 2.668279 1_555
K2 O13 2.685751 1_555
K2 O8 2.798147 1_555
K2 O20 2.866191 1_655
K2 O19 2.867282 1_555
K2 O29 2.923470 1_555
K2 O33 2.989563 1_655
K2 O18 3.003956 1_555
K3 O4 2.668279 1_555
K3 O11 2.685751 1_556
K3 O22 2.798147 1_556
K3 O15 2.866191 1_555
K3 O1 2.867282 1_555
K3 O28 2.923470 1_555
K3 O23 2.989563 1_555
K3 O0 3.003956 1_555
B0 O12 1.345632 1_555
B0 O7 1.387012 1_554
B0 O21 1.422063 1_545
B1 O25 1.367709 1_455
B1 O26 1.378068 1_555
B1 O27 1.384770 1_555
B2 O10 1.457966 1_555
B2 O25 1.479292 1_555
B2 O8 1.486007 1_555
B2 O24 1.520391 1_555
B3 O1 1.345632 1_555
B3 O11 1.387012 1_556
B3 O4 1.422063 1_565
B4 O7 1.457373 1_555
B4 O23 1.472254 1_555
B4 O6 1.487878 1_555
B4 O31 1.527741 1_545
B5 O29 1.367709 1_555
B5 O35 1.378068 1_555
B5 O0 1.384770 1_555
B6 O20 1.361903 1_555
B6 O16 1.382606 1_555
B6 O5 1.386816 1_555
B7 O30 1.367709 1_555
B7 O3 1.378068 1_555
B7 O24 1.384770 1_555
B8 O22 1.361903 1_555
B8 O34 1.382606 1_555
B8 O4 1.386816 1_554
B9 O13 1.457373 1_555
B9 O10 1.472254 1_555
B9 O3 1.487878 1_555
B9 O2 1.527741 1_545
B10 O11 1.457373 1_555
B10 O17 1.472254 1_555
B10 O26 1.487878 1_555
B10 O34 1.527741 1_565
B11 O33 1.457966 1_555
B11 O28 1.479292 1_555
B11 O20 1.486007 1_555
B11 O0 1.520391 1_555
B12 O9 1.345632 1_555
B12 O32 1.387012 1_555
B12 O5 1.422063 1_565
B13 O17 1.457966 1_555
B13 O30 1.479292 1_555
B13 O22 1.486007 1_555
B13 O27 1.520391 1_555
B14 O15 1.361903 1_555
B14 O31 1.382606 1_555
B14 O21 1.386816 1_556
B15 O8 1.361903 1_555
B15 O2 1.382606 1_555
B15 O14 1.386816 1_555
B16 O32 1.457373 1_555
B16 O33 1.472254 1_555
B16 O35 1.487878 1_555
B16 O16 1.527741 1_565
B17 O19 1.345632 1_555
B17 O13 1.387012 1_555
B17 O14 1.422063 1_545
B18 O23 1.457966 1_555
B18 O29 1.479292 1_555
B18 O15 1.486007 1_555
B18 O18 1.520391 1_555
B19 O28 1.367709 1_655
B19 O6 1.378068 1_555
B19 O18 1.384770 1_555
O0 Sr2 2.690475 1_555
O1 Sr2 2.574517 1_565
O1 Sr3 2.581681 1_555
O2 Sr1 2.632877 1_565
O2 Sr0 2.789711 1_555
O3 Sr0 2.620068 1_545
O6 Sr3 2.620068 1_645
O9 Sr1 2.574517 1_465
O9 Sr0 2.581681 1_555
O10 Sr1 2.609159 1_555
O12 Sr0 2.574517 1_545
O12 Sr1 2.581681 1_555
O16 Sr3 2.632877 1_545
O16 Sr2 2.789711 1_555
O17 Sr0 2.609159 1_555
O18 Sr3 2.690475 1_655
O19 Sr3 2.574517 1_645
O19 Sr2 2.581681 1_555
O23 Sr2 2.609159 1_555
O24 Sr0 2.690475 1_555
O25 Sr1 3.103192 1_565
O26 Sr1 2.620068 1_465
O27 Sr1 2.690475 1_455
O28 Sr3 3.103192 1_545
O29 Sr2 3.103192 1_565
O30 Sr0 3.103192 1_545
O31 Sr2 2.632877 1_565
O31 Sr3 2.789711 1_655
O33 Sr3 2.609159 1_555
O34 Sr0 2.632877 1_545
O34 Sr1 2.789711 1_455
O35 Sr2 2.620068 1_565
