# generated using pymatgen
data_NbSeI3
_symmetry_space_group_name_H-M   'P 1'
_cell_length_a   8.16035051
_cell_length_b   8.16035051
_cell_length_c   13.83196066
_cell_angle_alpha   85.96045847
_cell_angle_beta   85.96045847
_cell_angle_gamma   126.78842385
_symmetry_Int_Tables_number   1
_chemical_formula_structural   NbSeI3
_chemical_formula_sum   'Nb4 Se4 I12'
_cell_volume   728.47323516
_cell_formula_units_Z   4
loop_
 _symmetry_equiv_pos_site_id
 _symmetry_equiv_pos_as_xyz
  1  'x, y, z'
loop_
 _atom_site_type_symbol
 _atom_site_label
 _atom_site_symmetry_multiplicity
 _atom_site_fract_x
 _atom_site_fract_y
 _atom_site_fract_z
 _atom_site_occupancy
  Nb  Nb0  1  0.87160294  0.99269113  0.15638455  1
  Nb  Nb1  1  0.00730887  0.12839706  0.34361545  1
  Nb  Nb2  1  0.12839706  0.00730887  0.84361545  1
  Nb  Nb3  1  0.99269113  0.87160294  0.65638455  1
  Se  Se0  1  0.96137575  0.33568899  0.20533285  1
  Se  Se1  1  0.66431101  0.03862425  0.29466715  1
  Se  Se2  1  0.03862425  0.66431101  0.79466715  1
  Se  Se3  1  0.33568899  0.96137575  0.70533285  1
  I  I0  1  0.94634192  0.75036878  0.03326759  1
  I  I1  1  0.24963122  0.05365808  0.46673241  1
  I  I2  1  0.05365808  0.24963122  0.96673241  1
  I  I3  1  0.75036878  0.94634192  0.53326759  1
  I  I4  1  0.49015020  0.77560843  0.09035098  1
  I  I5  1  0.22439157  0.50984980  0.40964902  1
  I  I6  1  0.50984980  0.22439157  0.90964902  1
  I  I7  1  0.77560843  0.49015020  0.59035098  1
  I  I8  1  0.80186517  0.69891127  0.30642581  1
  I  I9  1  0.30108873  0.19813483  0.19357419  1
  I  I10  1  0.19813483  0.30108873  0.69357419  1
  I  I11  1  0.69891127  0.80186517  0.80642581  1
loop_
_geom_bond_atom_site_label_1
_geom_bond_atom_site_label_2
_geom_bond_distance
_geom_bond_site_symmetry_2
Nb0 Se0 2.590434 1_565
Nb0 Se1 2.658007 1_565
Nb1 Se1 2.590434 1_455
Nb1 Se0 2.658007 1_455
Nb2 Se2 2.590434 1_545
Nb2 Se3 2.658007 1_545
Nb3 Se3 2.590434 1_655
Nb3 Se2 2.658007 1_655
Se0 Se1 2.323233 1_555
Se2 Se3 2.323233 1_555
I0 Nb2 2.903443 1_664
I0 Nb0 2.992467 1_555
I1 Nb3 2.903443 1_445
I1 Nb1 2.992467 1_555
I2 Nb0 2.903443 1_446
I2 Nb2 2.992467 1_555
I3 Nb1 2.903443 1_665
I3 Nb3 2.992467 1_555
I4 Nb0 2.772334 1_555
I5 Nb1 2.772334 1_555
I6 Nb2 2.772334 1_555
I7 Nb3 2.772334 1_555
I8 Nb0 2.806571 1_555
I8 Nb1 2.948999 1_665
I9 Nb1 2.806571 1_555
I9 Nb0 2.948999 1_445
I10 Nb2 2.806571 1_555
I10 Nb3 2.948999 1_445
I11 Nb3 2.806571 1_555
I11 Nb2 2.948999 1_665
