# generated using pymatgen
data_Na5Co2O5
_symmetry_space_group_name_H-M   'P 1'
_cell_length_a   8.55517841
_cell_length_b   8.55517841
_cell_length_c   11.50046418
_cell_angle_alpha   77.10177592
_cell_angle_beta   77.10177592
_cell_angle_gamma   57.04790427
_symmetry_Int_Tables_number   1
_chemical_formula_structural   Na5Co2O5
_chemical_formula_sum   'Na20 Co8 O20'
_cell_volume   683.14333177
_cell_formula_units_Z   4
loop_
 _symmetry_equiv_pos_site_id
 _symmetry_equiv_pos_as_xyz
  1  'x, y, z'
loop_
 _atom_site_type_symbol
 _atom_site_label
 _atom_site_symmetry_multiplicity
 _atom_site_fract_x
 _atom_site_fract_y
 _atom_site_fract_z
 _atom_site_occupancy
  Na  Na0  1  0.32861700  0.99953800  0.96011300  1
  Na  Na1  1  0.62133600  0.40302100  0.37673900  1
  Na  Na2  1  0.99953800  0.32861700  0.46011300  1
  Na  Na3  1  0.59697900  0.37866400  0.12326100  1
  Na  Na4  1  0.40302100  0.62133600  0.87673900  1
  Na  Na5  1  0.98871300  0.79825700  0.81000600  1
  Na  Na6  1  0.37866400  0.59697900  0.62326100  1
  Na  Na7  1  0.79825700  0.98871300  0.31000600  1
  Na  Na8  1  0.60321900  0.79364600  0.48310600  1
  Na  Na9  1  0.67138300  0.00046200  0.03988700  1
  Na  Na10  1  0.43409300  0.77782800  0.21186100  1
  Na  Na11  1  0.39678100  0.20635400  0.51689400  1
  Na  Na12  1  0.20174300  0.01128700  0.68999400  1
  Na  Na13  1  0.20635400  0.39678100  0.01689400  1
  Na  Na14  1  0.22217200  0.56590700  0.28813900  1
  Na  Na15  1  0.79364600  0.60321900  0.98310600  1
  Na  Na16  1  0.00046200  0.67138300  0.53988700  1
  Na  Na17  1  0.56590700  0.22217200  0.78813900  1
  Na  Na18  1  0.01128700  0.20174300  0.18999400  1
  Na  Na19  1  0.77782800  0.43409300  0.71186100  1
  Co  Co0  1  0.18385400  0.91545000  0.44308100  1
  Co  Co1  1  0.38601100  0.14444000  0.26807400  1
  Co  Co2  1  0.08455000  0.81614600  0.05691900  1
  Co  Co3  1  0.85556000  0.61398900  0.23192600  1
  Co  Co4  1  0.81614600  0.08455000  0.55691900  1
  Co  Co5  1  0.91545000  0.18385400  0.94308100  1
  Co  Co6  1  0.14444000  0.38601100  0.76807400  1
  Co  Co7  1  0.61398900  0.85556000  0.73192600  1
  O  O0  1  0.32275100  0.68423000  0.08994300  1
  O  O1  1  0.30711700  0.04285600  0.42883000  1
  O  O2  1  0.31577000  0.67724900  0.41005700  1
  O  O3  1  0.90541100  0.64828200  0.36618900  1
  O  O4  1  0.09458900  0.35171800  0.63381100  1
  O  O5  1  0.64828200  0.90541100  0.86618900  1
  O  O6  1  0.26392100  0.48529600  0.80745800  1
  O  O7  1  0.04285600  0.30711700  0.92883000  1
  O  O8  1  0.73607900  0.51470400  0.19254200  1
  O  O9  1  0.48529600  0.26392100  0.30745800  1
  O  O10  1  0.10260200  0.93965300  0.89231000  1
  O  O11  1  0.95714400  0.69288300  0.07117000  1
  O  O12  1  0.51470400  0.73607900  0.69254200  1
  O  O13  1  0.89739800  0.06034700  0.10769000  1
  O  O14  1  0.68423000  0.32275100  0.58994300  1
  O  O15  1  0.06034700  0.89739800  0.60769000  1
  O  O16  1  0.35171800  0.09458900  0.13381100  1
  O  O17  1  0.93965300  0.10260200  0.39231000  1
  O  O18  1  0.67724900  0.31577000  0.91005700  1
  O  O19  1  0.69288300  0.95714400  0.57117000  1
loop_
_geom_bond_atom_site_label_1
_geom_bond_atom_site_label_2
_geom_bond_distance
_geom_bond_site_symmetry_2
Na0 O16 2.401466 1_566
Na0 O5 2.442962 1_555
Na0 O7 2.449908 1_565
Na0 O10 2.557044 1_555
Na0 O0 2.797173 1_556
Na1 O8 2.356343 1_555
Na1 O9 2.397819 1_555
Na1 O2 2.401442 1_555
Na1 O14 2.491675 1_555
Na1 O17 2.540050 1_555
Na2 O4 2.401466 1_655
Na2 O3 2.442962 1_555
Na2 O1 2.449908 1_655
Na2 O17 2.557044 1_555
Na2 O14 2.797173 1_555
Na3 O9 2.356343 1_555
Na3 O8 2.397819 1_555
Na3 O0 2.401442 1_555
Na3 O18 2.491675 1_554
Na3 O13 2.540050 1_555
Na4 O12 2.356343 1_555
Na4 O6 2.397819 1_555
Na4 O18 2.401442 1_555
Na4 O0 2.491675 1_556
Na4 O10 2.540050 1_555
Na5 O10 2.348119 1_655
Na5 O15 2.357219 1_655
Na5 O6 2.420609 1_655
Na5 O5 2.502001 1_555
Na6 O6 2.356343 1_555
Na6 O12 2.397819 1_555
Na6 O14 2.401442 1_555
Na6 O2 2.491675 1_555
Na6 O15 2.540050 1_555
Na7 O17 2.348119 1_565
Na7 O13 2.357219 1_565
Na7 O9 2.420609 1_565
Na7 O3 2.502001 1_555
Na8 O1 2.364029 1_565
Na8 O12 2.383120 1_555
Na8 O19 2.391066 1_555
Na8 O3 2.394846 1_555
Na9 O5 2.401466 1_544
Na9 O16 2.442962 1_555
Na9 O11 2.449908 1_545
Na9 O13 2.557044 1_555
Na9 O18 2.797173 1_554
Na10 O8 2.330581 1_555
Na10 O0 2.332755 1_555
Na10 O16 2.401043 1_565
Na10 O2 2.449983 1_555
Na11 O19 2.364029 1_545
Na11 O9 2.383120 1_555
Na11 O1 2.391066 1_555
Na11 O4 2.394846 1_555
Na12 O15 2.348119 1_545
Na12 O10 2.357219 1_545
Na12 O12 2.420609 1_545
Na12 O4 2.502001 1_555
Na13 O11 2.364029 1_455
Na13 O6 2.383120 1_554
Na13 O7 2.391066 1_554
Na13 O16 2.394846 1_555
Na14 O9 2.330581 1_555
Na14 O2 2.332755 1_555
Na14 O3 2.401043 1_455
Na14 O0 2.449983 1_555
Na15 O7 2.364029 1_655
Na15 O8 2.383120 1_556
Na15 O11 2.391066 1_556
Na15 O5 2.394846 1_555
Na16 O3 2.401466 1_455
Na16 O4 2.442962 1_555
Na16 O19 2.449908 1_455
Na16 O15 2.557044 1_555
Na16 O2 2.797173 1_555
Na17 O6 2.330581 1_555
Na17 O18 2.332755 1_555
Na17 O5 2.401043 1_545
Na17 O14 2.449983 1_555
Na18 O13 2.348119 1_455
Na18 O17 2.357219 1_455
Na18 O8 2.420609 1_455
Na18 O16 2.502001 1_555
Na19 O12 2.330581 1_555
Na19 O14 2.332755 1_555
Na19 O4 2.401043 1_655
Na19 O18 2.449983 1_555
Co0 O2 1.795262 1_555
Co0 O1 1.849456 1_565
Co0 O17 1.938413 1_465
Co0 O15 1.969278 1_555
Co1 O16 1.812324 1_555
Co1 O9 1.815068 1_555
Co1 O1 1.998133 1_555
Co2 O0 1.795262 1_555
Co2 O11 1.849456 1_455
Co2 O13 1.938413 1_465
Co2 O10 1.969278 1_554
Co3 O3 1.812324 1_555
Co3 O8 1.815068 1_555
Co3 O11 1.998133 1_555
Co4 O14 1.795262 1_555
Co4 O19 1.849456 1_545
Co4 O15 1.938413 1_645
Co4 O17 1.969278 1_555
Co5 O18 1.795262 1_555
Co5 O7 1.849456 1_655
Co5 O10 1.938413 1_645
Co5 O13 1.969278 1_556
Co6 O4 1.812324 1_555
Co6 O6 1.815068 1_555
Co6 O7 1.998133 1_555
Co7 O5 1.812324 1_555
Co7 O12 1.815068 1_555
Co7 O19 1.998133 1_555
