# generated using pymatgen
data_H11C10NO8
_symmetry_space_group_name_H-M   'P 1'
_cell_length_a   6.13664100
_cell_length_b   12.41297700
_cell_length_c   15.96027300
_cell_angle_alpha   90.00000000
_cell_angle_beta   90.00000000
_cell_angle_gamma   90.00000000
_symmetry_Int_Tables_number   1
_chemical_formula_structural   H11C10NO8
_chemical_formula_sum   'H44 C40 N4 O32'
_cell_volume   1215.75757360
_cell_formula_units_Z   4
loop_
 _symmetry_equiv_pos_site_id
 _symmetry_equiv_pos_as_xyz
  1  'x, y, z'
loop_
 _atom_site_type_symbol
 _atom_site_label
 _atom_site_symmetry_multiplicity
 _atom_site_fract_x
 _atom_site_fract_y
 _atom_site_fract_z
 _atom_site_occupancy
  H  H0  1  0.87863000  0.47095100  0.82509300  1
  H  H1  1  0.62137000  0.97095100  0.82509300  1
  H  H2  1  0.56358000  0.63740000  0.30430100  1
  H  H3  1  0.69833600  0.13872000  0.94563900  1
  H  H4  1  0.43642000  0.36260000  0.69569900  1
  H  H5  1  0.93642000  0.63740000  0.19569900  1
  H  H6  1  0.29840500  0.20255500  0.29851200  1
  H  H7  1  0.70159500  0.29744500  0.79851200  1
  H  H8  1  0.62137000  0.47095100  0.67490700  1
  H  H9  1  0.50089000  0.45786100  0.77725700  1
  H  H10  1  0.70159500  0.79744500  0.70148800  1
  H  H11  1  0.80166400  0.13872000  0.55436100  1
  H  H12  1  0.29840500  0.70255500  0.20148800  1
  H  H13  1  0.43642000  0.86260000  0.80430100  1
  H  H14  1  0.19833600  0.36128000  0.05436100  1
  H  H15  1  0.00089000  0.54213900  0.27725700  1
  H  H16  1  0.87863000  0.97095100  0.67490700  1
  H  H17  1  0.20159500  0.20255500  0.20148800  1
  H  H18  1  0.00089000  0.04213900  0.22274300  1
  H  H19  1  0.12137000  0.02904900  0.32509300  1
  H  H20  1  0.12137000  0.52904900  0.17490700  1
  H  H21  1  0.75000000  0.81502600  0.25000000  1
  H  H22  1  0.99911000  0.45786100  0.72274300  1
  H  H23  1  0.69833600  0.63872000  0.55436100  1
  H  H24  1  0.06358000  0.36260000  0.80430100  1
  H  H25  1  0.06358000  0.86260000  0.69569900  1
  H  H26  1  0.56358000  0.13740000  0.19569900  1
  H  H27  1  0.20159500  0.70255500  0.29851200  1
  H  H28  1  0.93642000  0.13740000  0.30430100  1
  H  H29  1  0.99911000  0.95786100  0.77725700  1
  H  H30  1  0.49911000  0.04213900  0.27725700  1
  H  H31  1  0.37863000  0.52904900  0.32509300  1
  H  H32  1  0.75000000  0.31502600  0.25000000  1
  H  H33  1  0.79840500  0.79744500  0.79851200  1
  H  H34  1  0.37863000  0.02904900  0.17490700  1
  H  H35  1  0.25000000  0.68497400  0.75000000  1
  H  H36  1  0.25000000  0.18497400  0.75000000  1
  H  H37  1  0.79840500  0.29744500  0.70148800  1
  H  H38  1  0.30166400  0.36128000  0.44563900  1
  H  H39  1  0.50089000  0.95786100  0.72274300  1
  H  H40  1  0.49911000  0.54213900  0.22274300  1
  H  H41  1  0.30166400  0.86128000  0.05436100  1
  H  H42  1  0.19833600  0.86128000  0.44563900  1
  H  H43  1  0.80166400  0.63872000  0.94563900  1
  C  C0  1  0.06223000  0.08534000  0.27761300  1
  C  C1  1  0.21328300  0.65867300  0.87994700  1
  C  C2  1  0.06223000  0.58534000  0.22238700  1
  C  C3  1  0.16204200  0.62246400  0.50102700  1
  C  C4  1  0.28671700  0.65867300  0.62005300  1
  C  C5  1  0.78671700  0.34132700  0.12005300  1
  C  C6  1  0.37865800  0.13236600  0.95972300  1
  C  C7  1  0.43777000  0.58534000  0.27761300  1
  C  C8  1  0.21328300  0.15867300  0.62005300  1
  C  C9  1  0.93463800  0.85099000  0.08547200  1
  C  C10  1  0.71328300  0.34132700  0.37994700  1
  C  C11  1  0.43463800  0.64901000  0.91452800  1
  C  C12  1  0.06536200  0.14901000  0.91452800  1
  C  C13  1  0.83795800  0.87753600  0.00102700  1
  C  C14  1  0.56536200  0.85099000  0.41452800  1
  C  C15  1  0.06536200  0.64901000  0.58547200  1
  C  C16  1  0.12134200  0.13236600  0.54027700  1
  C  C17  1  0.33795800  0.62246400  0.99897300  1
  C  C18  1  0.66204200  0.37753600  0.00102700  1
  C  C19  1  0.56223000  0.41466000  0.72238700  1
  C  C20  1  0.78671700  0.84132700  0.37994700  1
  C  C21  1  0.43777000  0.08534000  0.22238700  1
  C  C22  1  0.93777000  0.91466000  0.72238700  1
  C  C23  1  0.87865800  0.86763400  0.45972300  1
  C  C24  1  0.16204200  0.12246400  0.99897300  1
  C  C25  1  0.71328300  0.84132700  0.12005300  1
  C  C26  1  0.93777000  0.41466000  0.77761300  1
  C  C27  1  0.56223000  0.91466000  0.77761300  1
  C  C28  1  0.33795800  0.12246400  0.50102700  1
  C  C29  1  0.28671700  0.15867300  0.87994700  1
  C  C30  1  0.62134200  0.86763400  0.04027700  1
  C  C31  1  0.56536200  0.35099000  0.08547200  1
  C  C32  1  0.37865800  0.63236600  0.54027700  1
  C  C33  1  0.66204200  0.87753600  0.49897300  1
  C  C34  1  0.83795800  0.37753600  0.49897300  1
  C  C35  1  0.12134200  0.63236600  0.95972300  1
  C  C36  1  0.93463800  0.35099000  0.41452800  1
  C  C37  1  0.43463800  0.14901000  0.58547200  1
  C  C38  1  0.87865800  0.36763400  0.04027700  1
  C  C39  1  0.62134200  0.36763400  0.45972300  1
  N  N0  1  0.25000000  0.65283800  0.25000000  1
  N  N1  1  0.75000000  0.84716200  0.75000000  1
  N  N2  1  0.25000000  0.15283800  0.25000000  1
  N  N3  1  0.75000000  0.34716200  0.75000000  1
  O  O0  1  0.37647300  0.33794700  0.11387100  1
  O  O1  1  0.87325900  0.31685000  0.19101700  1
  O  O2  1  0.59023600  0.89455200  0.56994400  1
  O  O3  1  0.92602900  0.62307300  0.98993200  1
  O  O4  1  0.12352700  0.83794700  0.11387100  1
  O  O5  1  0.12674100  0.18315000  0.69101700  1
  O  O6  1  0.90976400  0.39455200  0.56994400  1
  O  O7  1  0.37325900  0.18315000  0.80898300  1
  O  O8  1  0.59023600  0.39455200  0.93005600  1
  O  O9  1  0.42602900  0.87692700  0.01006800  1
  O  O10  1  0.40976400  0.60544800  0.06994400  1
  O  O11  1  0.92602900  0.12307300  0.51006800  1
  O  O12  1  0.42602900  0.37692700  0.48993200  1
  O  O13  1  0.57397100  0.12307300  0.98993200  1
  O  O14  1  0.90976400  0.89455200  0.93005600  1
  O  O15  1  0.57397100  0.62307300  0.51006800  1
  O  O16  1  0.09023600  0.60544800  0.43005600  1
  O  O17  1  0.62352700  0.66205300  0.88612900  1
  O  O18  1  0.62674100  0.31685000  0.30898300  1
  O  O19  1  0.62352700  0.16205300  0.61387100  1
  O  O20  1  0.40976400  0.10544800  0.43005600  1
  O  O21  1  0.07397100  0.87692700  0.48993200  1
  O  O22  1  0.12674100  0.68315000  0.80898300  1
  O  O23  1  0.07397100  0.37692700  0.01006800  1
  O  O24  1  0.12352700  0.33794700  0.38612900  1
  O  O25  1  0.37647300  0.83794700  0.38612900  1
  O  O26  1  0.09023600  0.10544800  0.06994400  1
  O  O27  1  0.87325900  0.81685000  0.30898300  1
  O  O28  1  0.37325900  0.68315000  0.69101700  1
  O  O29  1  0.87647300  0.16205300  0.88612900  1
  O  O30  1  0.62674100  0.81685000  0.19101700  1
  O  O31  1  0.87647300  0.66205300  0.61387100  1
loop_
_geom_bond_atom_site_label_1
_geom_bond_atom_site_label_2
_geom_bond_distance
_geom_bond_site_symmetry_2
H3 O13 1.058263 1_555
H3 O29 1.476822 1_555
H6 N2 1.033720 1_555
H7 N3 1.033720 1_555
H10 N1 1.033720 1_555
H11 O11 1.058263 1_555
H11 O19 1.476822 1_555
H12 N0 1.033720 1_555
H14 O23 1.058263 1_555
H14 O0 1.476822 1_555
H17 N2 1.033720 1_555
H21 O30 1.207830 1_555
H21 O27 1.207830 1_555
H23 O15 1.058263 1_555
H23 O31 1.476822 1_555
H27 N0 1.033720 1_555
H32 O18 1.207830 1_555
H32 O1 1.207830 1_555
H33 N1 1.033720 1_555
H35 O22 1.207830 1_555
H35 O28 1.207830 1_555
H36 O5 1.207830 1_555
H36 O7 1.207830 1_555
H37 N3 1.033720 1_555
H38 O12 1.058263 1_555
H38 O24 1.476822 1_555
H41 O9 1.058263 1_555
H41 O4 1.476822 1_555
H42 O21 1.058263 1_555
H42 O25 1.476822 1_555
H43 O3 1.058263 1_555
H43 O17 1.476822 1_555
C0 H19 1.092794 1_555
C0 H28 1.093203 1_455
C0 H18 1.093701 1_555
C0 N2 1.491296 1_555
C1 O22 1.287304 1_555
C2 H20 1.092794 1_555
C2 H5 1.093203 1_455
C2 H15 1.093701 1_555
C2 N0 1.491296 1_555
C3 O16 1.233625 1_555
C4 O28 1.287304 1_555
C5 O1 1.287304 1_555
C6 O13 1.297046 1_555
C7 H31 1.092794 1_555
C7 H2 1.093203 1_555
C7 H40 1.093701 1_555
C7 N0 1.491296 1_555
C8 O5 1.287304 1_555
C9 O4 1.255097 1_655
C10 O18 1.287304 1_555
C11 O17 1.255097 1_555
C12 O29 1.255097 1_455
C13 O14 1.233625 1_554
C14 O25 1.255097 1_555
C15 O31 1.255097 1_455
C16 O11 1.297046 1_455
C17 O10 1.233625 1_556
C18 O8 1.233625 1_554
C19 H8 1.092794 1_555
C19 H4 1.093203 1_555
C19 H9 1.093701 1_555
C19 N3 1.491296 1_555
C20 O27 1.287304 1_555
C21 H34 1.092794 1_555
C21 H26 1.093203 1_555
C21 H30 1.093701 1_555
C21 N2 1.491296 1_555
C22 H16 1.092794 1_555
C22 H25 1.093203 1_655
C22 H29 1.093701 1_555
C22 N1 1.491296 1_555
C23 O21 1.297046 1_655
C24 O26 1.233625 1_556
C25 O30 1.287304 1_555
C26 H0 1.092794 1_555
C26 H24 1.093203 1_655
C26 H22 1.093701 1_555
C26 N3 1.491296 1_555
C27 H1 1.092794 1_555
C27 H13 1.093203 1_555
C27 H39 1.093701 1_555
C27 N1 1.491296 1_555
C28 O20 1.233625 1_555
C29 O7 1.287304 1_555
C30 O9 1.297046 1_555
C31 O0 1.255097 1_555
C32 O15 1.297046 1_555
C33 O2 1.233625 1_555
C34 O6 1.233625 1_555
C35 O3 1.297046 1_455
C36 O24 1.255097 1_655
C37 O19 1.255097 1_555
C38 O23 1.297046 1_655
C39 O12 1.297046 1_555
