# generated using pymatgen
data_CsCS(OF)3
_symmetry_space_group_name_H-M   'P 1'
_cell_length_a   6.24260300
_cell_length_b   5.58471600
_cell_length_c   9.99522250
_cell_angle_alpha   75.13962340
_cell_angle_beta   90.00000000
_cell_angle_gamma   90.00000000
_symmetry_Int_Tables_number   1
_chemical_formula_structural   CsCS(OF)3
_chemical_formula_sum   'Cs2 C2 S2 O6 F6'
_cell_volume   336.81021176
_cell_formula_units_Z   2
loop_
 _symmetry_equiv_pos_site_id
 _symmetry_equiv_pos_as_xyz
  1  'x, y, z'
loop_
 _atom_site_type_symbol
 _atom_site_label
 _atom_site_symmetry_multiplicity
 _atom_site_fract_x
 _atom_site_fract_y
 _atom_site_fract_z
 _atom_site_occupancy
  Cs  Cs0  1  0.48962300  0.05011300  0.83506000  1
  Cs  Cs1  1  0.98962300  0.94988700  0.16494000  1
  C  C0  1  0.55316600  0.34903700  0.36560100  1
  C  C1  1  0.05316600  0.65096300  0.63439900  1
  S  S0  1  0.95436600  0.59278400  0.81645300  1
  S  S1  1  0.45436600  0.40721600  0.18354700  1
  O  O0  1  0.00401900  0.82385300  0.85354900  1
  O  O1  1  0.72573100  0.54802700  0.80274900  1
  O  O2  1  0.22573100  0.45197300  0.19725100  1
  O  O3  1  0.07949700  0.37782800  0.88873400  1
  O  O4  1  0.57949700  0.62217200  0.11126600  1
  O  O5  1  0.50401900  0.17614700  0.14645100  1
  F  F0  1  0.76764100  0.30075400  0.37196500  1
  F  F1  1  0.51998900  0.54972300  0.41611800  1
  F  F2  1  0.45276800  0.15213600  0.45129500  1
  F  F3  1  0.26764100  0.69924600  0.62803500  1
  F  F4  1  0.01998900  0.45027700  0.58388200  1
  F  F5  1  0.95276800  0.84786400  0.54870500  1
loop_
_geom_bond_atom_site_label_1
_geom_bond_atom_site_label_2
_geom_bond_distance
_geom_bond_site_symmetry_2
Cs0 O1 3.090060 1_555
Cs0 O4 3.203737 1_546
Cs0 O1 3.256335 1_545
Cs0 O3 3.270468 1_555
Cs0 O0 3.271183 1_545
Cs0 O5 3.363682 1_556
Cs0 O0 3.438411 1_645
Cs0 F3 3.481597 1_545
Cs0 F2 3.737651 1_555
Cs1 O2 3.090060 1_655
Cs1 O3 3.203737 1_664
Cs1 O2 3.256335 1_665
Cs1 O4 3.270468 1_555
Cs1 O5 3.271183 1_565
Cs1 O0 3.363682 1_654
Cs1 O5 3.438411 1_665
Cs1 F0 3.481597 1_565
Cs1 F5 3.737651 1_555
C0 F1 1.358034 1_555
C0 F2 1.361081 1_555
C0 F0 1.364025 1_555
C1 F4 1.358034 1_555
C1 F5 1.361081 1_455
C1 F3 1.364025 1_555
O0 S0 1.464328 1_455
O1 S0 1.461479 1_555
O2 S1 1.461479 1_555
O3 S0 1.458905 1_455
O4 S1 1.458905 1_555
O5 S1 1.464328 1_555
