# generated using pymatgen
data_Al2FeO4
_symmetry_space_group_name_H-M   'P 1'
_cell_length_a   19.35845150
_cell_length_b   19.35845150
_cell_length_c   19.35845197
_cell_angle_alpha   17.30542905
_cell_angle_beta   17.30542905
_cell_angle_gamma   17.30543025
_symmetry_Int_Tables_number   1
_chemical_formula_structural   Al2FeO4
_chemical_formula_sum   'Al16 Fe8 O32'
_cell_volume   560.14935894
_cell_formula_units_Z   8
loop_
 _symmetry_equiv_pos_site_id
 _symmetry_equiv_pos_as_xyz
  1  'x, y, z'
loop_
 _atom_site_type_symbol
 _atom_site_label
 _atom_site_symmetry_multiplicity
 _atom_site_fract_x
 _atom_site_fract_y
 _atom_site_fract_z
 _atom_site_occupancy
  Al  Al0  1  0.37739100  0.37739100  0.87169400  1
  Al  Al1  1  0.37739100  0.87169400  0.37739100  1
  Al  Al2  1  0.25002300  0.25002300  0.25002300  1
  Al  Al3  1  0.12469400  0.12469400  0.62548100  1
  Al  Al4  1  0.87169400  0.37739100  0.37739100  1
  Al  Al5  1  0.12469400  0.62548100  0.12469400  1
  Al  Al6  1  0.99995500  0.99995500  0.99995500  1
  Al  Al7  1  0.87501200  0.87501200  0.37479300  1
  Al  Al8  1  0.62548100  0.12469400  0.12469400  1
  Al  Al9  1  0.87501200  0.37479300  0.87501200  1
  Al  Al10  1  0.12033200  0.62671200  0.62671200  1
  Al  Al11  1  0.74947000  0.74947000  0.74947000  1
  Al  Al12  1  0.62671200  0.62671200  0.12033100  1
  Al  Al13  1  0.37479300  0.87501200  0.87501200  1
  Al  Al14  1  0.62671200  0.12033200  0.62671200  1
  Al  Al15  1  0.15543800  0.15543800  0.15543800  1
  Fe  Fe0  1  0.84430900  0.84430900  0.84430900  1
  Fe  Fe1  1  0.50042500  0.50042500  0.50042500  1
  Fe  Fe2  1  0.59423800  0.59423800  0.59423800  1
  Fe  Fe3  1  0.34367800  0.34367800  0.34367800  1
  Fe  Fe4  1  0.09353200  0.09353200  0.09353200  1
  Fe  Fe5  1  0.90551900  0.90551900  0.90551900  1
  Fe  Fe6  1  0.65631200  0.65631200  0.65631200  1
  Fe  Fe7  1  0.40667200  0.40667200  0.40667200  1
  O  O0  1  0.67930800  0.21568600  0.67930800  1
  O  O1  1  0.67930800  0.67930800  0.21568600  1
  O  O2  1  0.55959700  0.55959700  0.55959700  1
  O  O3  1  0.21568600  0.67930800  0.67930800  1
  O  O4  1  0.41812600  0.98032500  0.41812600  1
  O  O5  1  0.51396100  0.08469500  0.08469500  1
  O  O6  1  0.18773700  0.18773700  0.18773700  1
  O  O7  1  0.30859800  0.30859800  0.30859800  1
  O  O8  1  0.41812600  0.41812600  0.98032500  1
  O  O9  1  0.08469500  0.08469500  0.51396100  1
  O  O10  1  0.08469500  0.51396100  0.08469500  1
  O  O11  1  0.98032500  0.41812600  0.41812600  1
  O  O12  1  0.16800200  0.73000900  0.16800200  1
  O  O13  1  0.26972100  0.83183100  0.83183100  1
  O  O14  1  0.94111600  0.94111600  0.94111600  1
  O  O15  1  0.16800200  0.16800200  0.73000900  1
  O  O16  1  0.05843300  0.05843300  0.05843300  1
  O  O17  1  0.83183100  0.83183100  0.26972100  1
  O  O18  1  0.73000900  0.16800200  0.16800200  1
  O  O19  1  0.83183100  0.26972100  0.83183100  1
  O  O20  1  0.91634700  0.48234000  0.91634700  1
  O  O21  1  0.02010700  0.58153900  0.58153900  1
  O  O22  1  0.69134300  0.69134300  0.69134300  1
  O  O23  1  0.91634700  0.91634700  0.48234000  1
  O  O24  1  0.80880100  0.80880100  0.80880100  1
  O  O25  1  0.58153900  0.58153900  0.02010700  1
  O  O26  1  0.48234000  0.91634700  0.91634700  1
  O  O27  1  0.58153900  0.02010700  0.58153900  1
  O  O28  1  0.80884900  0.31065800  0.31065800  1
  O  O29  1  0.44287600  0.44287600  0.44287600  1
  O  O30  1  0.31065800  0.31065800  0.80884900  1
  O  O31  1  0.31065800  0.80884900  0.31065800  1
loop_
_geom_bond_atom_site_label_1
_geom_bond_atom_site_label_2
_geom_bond_distance
_geom_bond_site_symmetry_2
Al0 O0 1.895184 1_555
Al0 O3 1.895184 1_555
Al0 O5 1.922684 1_556
Al0 O10 1.922684 1_556
Al0 O2 1.938542 1_555
Al0 O6 2.084892 1_556
Al1 O3 1.895184 1_555
Al1 O1 1.895184 1_555
Al1 O5 1.922684 1_565
Al1 O9 1.922684 1_565
Al1 O2 1.938542 1_555
Al1 O6 2.084892 1_565
Al2 O9 1.923989 1_555
Al2 O5 1.923989 1_555
Al2 O10 1.923989 1_555
Al2 O8 1.943003 1_554
Al2 O11 1.943003 1_455
Al2 O4 1.943003 1_545
Al3 O13 1.938846 1_545
Al3 O19 1.938846 1_455
Al3 O11 1.938899 1_455
Al3 O4 1.938899 1_545
Al3 O7 1.943903 1_555
Al3 O14 1.945032 1_445
Al4 O0 1.895184 1_555
Al4 O1 1.895184 1_555
Al4 O10 1.922684 1_655
Al4 O9 1.922684 1_655
Al4 O2 1.938542 1_555
Al4 O6 2.084892 1_655
Al5 O13 1.938846 1_554
Al5 O17 1.938846 1_455
Al5 O11 1.938898 1_455
Al5 O8 1.938899 1_554
Al5 O7 1.943903 1_555
Al5 O14 1.945032 1_454
Al6 O15 1.939021 1_665
Al6 O12 1.939022 1_656
Al6 O18 1.939022 1_566
Al6 O17 1.942906 1_556
Al6 O19 1.942906 1_565
Al6 O13 1.942906 1_655
Al7 O16 1.936763 1_665
Al7 O21 1.939638 1_655
Al7 O27 1.939638 1_565
Al7 O22 1.940944 1_555
Al7 O18 1.943073 1_565
Al7 O12 1.943073 1_655
Al8 O19 1.938846 1_554
Al8 O17 1.938846 1_545
Al8 O4 1.938898 1_545
Al8 O8 1.938899 1_554
Al8 O7 1.943903 1_555
Al8 O14 1.945032 1_544
Al9 O16 1.936763 1_656
Al9 O21 1.939638 1_655
Al9 O25 1.939638 1_556
Al9 O22 1.940945 1_555
Al9 O18 1.943072 1_556
Al9 O15 1.943073 1_655
Al10 O29 1.907904 1_555
Al10 O20 1.927763 1_455
Al10 O23 1.927764 1_455
Al10 O24 1.939840 1_455
Al10 O31 2.002562 1_555
Al10 O30 2.002562 1_555
Al11 O25 1.929102 1_556
Al11 O21 1.929102 1_655
Al11 O27 1.929102 1_565
Al11 O23 1.934803 1_555
Al11 O26 1.934804 1_555
Al11 O20 1.934804 1_555
Al12 O29 1.907898 1_555
Al12 O20 1.927751 1_554
Al12 O26 1.927751 1_554
Al12 O24 1.939847 1_554
Al12 O28 2.002574 1_555
Al12 O31 2.002574 1_555
Al13 O16 1.936763 1_566
Al13 O27 1.939638 1_565
Al13 O25 1.939638 1_556
Al13 O22 1.940945 1_555
Al13 O12 1.943072 1_556
Al13 O15 1.943073 1_565
Al14 O29 1.907904 1_555
Al14 O26 1.927763 1_545
Al14 O23 1.927764 1_545
Al14 O24 1.939840 1_545
Al14 O28 2.002562 1_555
Al14 O30 2.002562 1_555
Al15 O28 1.822840 1_455
Al15 O31 1.822840 1_545
Al15 O30 1.822840 1_554
Al15 O6 1.847255 1_555
Fe0 O3 1.968723 1_655
Fe0 O0 1.968723 1_565
Fe0 O1 1.968723 1_556
Fe0 O24 2.030785 1_555
Fe1 O1 2.090236 1_555
Fe1 O0 2.090236 1_555
Fe1 O3 2.090236 1_555
Fe1 O30 2.155153 1_555
Fe1 O31 2.155153 1_555
Fe1 O28 2.155153 1_555
Fe2 O2 1.981200 1_555
Fe2 O8 1.997814 1_555
Fe2 O11 1.997814 1_555
Fe2 O4 1.997814 1_555
Fe3 O15 2.004181 1_555
Fe3 O18 2.004181 1_555
Fe3 O12 2.004181 1_555
Fe3 O7 2.006307 1_555
Fe4 O16 2.007394 1_555
Fe4 O23 2.013440 1_445
Fe4 O20 2.013440 1_454
Fe4 O26 2.013440 1_544
Fe5 O9 2.021040 1_665
Fe5 O5 2.021040 1_566
Fe5 O10 2.021040 1_656
Fe5 O14 2.035876 1_555
Fe6 O22 2.003505 1_555
Fe6 O17 2.008174 1_555
Fe6 O19 2.008174 1_555
Fe6 O13 2.008174 1_555
Fe7 O21 2.014391 1_555
Fe7 O27 2.014391 1_555
Fe7 O25 2.014391 1_555
Fe7 O29 2.070591 1_555
