# generated using pymatgen
data_Sm3CuSnSe7
_symmetry_space_group_name_H-M   'P 1'
_cell_length_a   10.49406535
_cell_length_b   10.49406535
_cell_length_c   6.37932000
_cell_angle_alpha   90.00000000
_cell_angle_beta   90.00000000
_cell_angle_gamma   119.99999593
_symmetry_Int_Tables_number   1
_chemical_formula_structural   Sm3CuSnSe7
_chemical_formula_sum   'Sm6 Cu2 Sn2 Se14'
_cell_volume   608.40470850
_cell_formula_units_Z   2
loop_
 _symmetry_equiv_pos_site_id
 _symmetry_equiv_pos_as_xyz
  1  'x, y, z'
loop_
 _atom_site_type_symbol
 _atom_site_label
 _atom_site_symmetry_multiplicity
 _atom_site_fract_x
 _atom_site_fract_y
 _atom_site_fract_z
 _atom_site_occupancy
  Sm  Sm0  1  0.21435800  0.35606400  0.94147400  1
  Sm  Sm1  1  0.14170500  0.78564200  0.94147400  1
  Sm  Sm2  1  0.64393600  0.85829500  0.94147400  1
  Sm  Sm3  1  0.78564200  0.64393600  0.44147400  1
  Sm  Sm4  1  0.35606400  0.14170500  0.44147400  1
  Sm  Sm5  1  0.85829500  0.21435800  0.44147400  1
  Cu  Cu0  1  0.00000000  0.00000000  0.00127000  1
  Cu  Cu1  1  0.00000000  0.00000000  0.50127000  1
  Sn  Sn0  1  0.33333300  0.66666700  0.36701400  1
  Sn  Sn1  1  0.66666700  0.33333300  0.86701400  1
  Se  Se0  1  0.73965800  0.89334900  0.48716800  1
  Se  Se1  1  0.43330100  0.91858000  0.18969800  1
  Se  Se2  1  0.91858000  0.48527900  0.68969800  1
  Se  Se3  1  0.51472100  0.43330100  0.68969800  1
  Se  Se4  1  0.89334900  0.15369200  0.98716800  1
  Se  Se5  1  0.56669900  0.08142000  0.68969800  1
  Se  Se6  1  0.10665100  0.84630800  0.48716800  1
  Se  Se7  1  0.33333300  0.66666700  0.76399700  1
  Se  Se8  1  0.26034200  0.10665100  0.98716800  1
  Se  Se9  1  0.48527900  0.56669900  0.18969800  1
  Se  Se10  1  0.08142000  0.51472100  0.18969800  1
  Se  Se11  1  0.66666700  0.33333300  0.26399700  1
  Se  Se12  1  0.15369200  0.26034200  0.48716800  1
  Se  Se13  1  0.84630800  0.73965800  0.98716800  1
loop_
_geom_bond_atom_site_label_1
_geom_bond_atom_site_label_2
_geom_bond_distance
_geom_bond_site_symmetry_2
Cu0 Se8 2.380561 1_554
Cu0 Se13 2.380562 1_444
Cu0 Se4 2.380570 1_454
Cu0 Sm1 3.280576 1_544
Cu0 Sm0 3.280584 1_554
Cu0 Sm2 3.280586 1_444
Cu1 Se0 2.380561 1_445
Cu1 Se12 2.380562 1_555
Cu1 Se6 2.380570 1_545
Cu1 Sm5 3.280576 1_455
Cu1 Sm3 3.280584 1_445
Cu1 Sm4 3.280586 1_555
Se0 Sm3 2.903690 1_555
Se0 Sm5 2.964635 1_565
Se0 Sm2 3.028894 1_555
Se0 Sm2 3.590724 1_554
Se1 Sn0 2.568136 1_555
Se1 Sm2 3.031836 1_554
Se1 Sm1 3.090067 1_554
Se1 Sm4 3.258393 1_565
Se2 Sn1 2.568137 1_555
Se2 Sm5 3.031845 1_555
Se2 Sm3 3.090059 1_555
Se2 Sm1 3.258399 1_655
Se3 Sn1 2.568145 1_555
Se3 Sm3 3.031843 1_555
Se3 Sm4 3.090066 1_555
Se3 Sm0 3.258402 1_555
Se4 Sm2 2.903690 1_545
Se4 Sm0 2.964635 1_655
Se4 Sm5 3.028888 1_556
Se4 Sm5 3.590719 1_555
Se5 Sn1 2.568136 1_555
Se5 Sm4 3.031836 1_555
Se5 Sm5 3.090067 1_555
Se5 Sm2 3.258393 1_545
Se6 Sm4 2.903690 1_565
Se6 Sm3 2.964635 1_455
Se6 Sm1 3.028888 1_555
Se6 Sm1 3.590719 1_554
Se7 Sn0 2.532482 1_555
Se7 Sm1 3.065185 1_555
Se7 Sm0 3.065185 1_555
Se7 Sm2 3.065185 1_555
Se8 Sm0 2.903690 1_555
Se8 Sm1 2.964635 1_545
Se8 Sm4 3.028894 1_556
Se8 Sm4 3.590724 1_555
Se9 Sn0 2.568145 1_555
Se9 Sm0 3.031843 1_554
Se9 Sm2 3.090066 1_554
Se9 Sm3 3.258402 1_555
Se10 Sn0 2.568137 1_555
Se10 Sm1 3.031845 1_554
Se10 Sm0 3.090059 1_554
Se10 Sm5 3.258399 1_455
Se11 Sn1 2.532482 1_554
Se11 Sm5 3.065185 1_555
Se11 Sm3 3.065185 1_555
Se11 Sm4 3.065185 1_555
Se12 Sm5 2.903690 1_455
Se12 Sm4 2.964635 1_555
Se12 Sm0 3.028893 1_555
Se12 Sm0 3.590723 1_554
Se13 Sm1 2.903690 1_655
Se13 Sm2 2.964635 1_555
Se13 Sm3 3.028893 1_556
Se13 Sm3 3.590723 1_555
