# generated using pymatgen
data_RbCoF3
_symmetry_space_group_name_H-M   'P 1'
_cell_length_a   6.01300964
_cell_length_b   6.01300964
_cell_length_c   14.72267100
_cell_angle_alpha   90.00000000
_cell_angle_beta   90.00000000
_cell_angle_gamma   119.99999606
_symmetry_Int_Tables_number   1
_chemical_formula_structural   RbCoF3
_chemical_formula_sum   'Rb6 Co6 F18'
_cell_volume   461.00013937
_cell_formula_units_Z   6
loop_
 _symmetry_equiv_pos_site_id
 _symmetry_equiv_pos_as_xyz
  1  'x, y, z'
loop_
 _atom_site_type_symbol
 _atom_site_label
 _atom_site_symmetry_multiplicity
 _atom_site_fract_x
 _atom_site_fract_y
 _atom_site_fract_z
 _atom_site_occupancy
  Rb  Rb0  1  0.00000000  0.00000000  0.75000000  1
  Rb  Rb1  1  0.66666700  0.33333300  0.90474400  1
  Rb  Rb2  1  0.33333300  0.66666700  0.40474400  1
  Rb  Rb3  1  0.66666700  0.33333300  0.59525600  1
  Rb  Rb4  1  0.33333300  0.66666700  0.09525600  1
  Rb  Rb5  1  0.00000000  0.00000000  0.25000000  1
  Co  Co0  1  0.33333300  0.66666700  0.65369900  1
  Co  Co1  1  0.66666700  0.33333300  0.15369900  1
  Co  Co2  1  0.66666700  0.33333300  0.34630100  1
  Co  Co3  1  0.00000000  0.00000000  0.00000000  1
  Co  Co4  1  0.00000000  0.00000000  0.50000000  1
  Co  Co5  1  0.33333300  0.66666700  0.84630100  1
  F  F0  1  0.03623500  0.51811800  0.75000000  1
  F  F1  1  0.51811800  0.48188200  0.25000000  1
  F  F2  1  0.33097300  0.16548600  0.42000300  1
  F  F3  1  0.66902700  0.83451400  0.92000300  1
  F  F4  1  0.16548600  0.33097300  0.57999700  1
  F  F5  1  0.83451400  0.66902700  0.42000300  1
  F  F6  1  0.83451400  0.66902700  0.07999700  1
  F  F7  1  0.33097300  0.16548600  0.07999700  1
  F  F8  1  0.16548600  0.83451400  0.92000300  1
  F  F9  1  0.96376500  0.48188200  0.25000000  1
  F  F10  1  0.16548600  0.83451400  0.57999700  1
  F  F11  1  0.83451400  0.16548600  0.42000300  1
  F  F12  1  0.48188200  0.96376500  0.75000000  1
  F  F13  1  0.51811800  0.03623500  0.25000000  1
  F  F14  1  0.16548600  0.33097300  0.92000300  1
  F  F15  1  0.48188200  0.51811800  0.75000000  1
  F  F16  1  0.66902700  0.83451400  0.57999700  1
  F  F17  1  0.83451400  0.16548600  0.07999700  1
loop_
_geom_bond_atom_site_label_1
_geom_bond_atom_site_label_2
_geom_bond_distance
_geom_bond_site_symmetry_2
Co0 F10 2.057492 1_555
Co0 F16 2.057492 1_555
Co0 F4 2.057492 1_555
Co0 F15 2.098509 1_555
Co0 F12 2.098509 1_555
Co0 F0 2.098509 1_555
Co1 F17 2.057492 1_555
Co1 F6 2.057492 1_555
Co1 F7 2.057492 1_555
Co1 F1 2.098509 1_555
Co1 F9 2.098509 1_555
Co1 F13 2.098509 1_555
Co2 F11 2.057492 1_555
Co2 F5 2.057492 1_555
Co2 F2 2.057492 1_555
Co2 F1 2.098509 1_555
Co2 F9 2.098509 1_555
Co2 F13 2.098509 1_555
Co3 F17 2.087493 1_455
Co3 F8 2.087493 1_544
Co3 F7 2.087497 1_555
Co3 F14 2.087497 1_554
Co3 F6 2.087497 1_445
Co3 F3 2.087497 1_444
Co4 F10 2.087493 1_545
Co4 F11 2.087493 1_455
Co4 F4 2.087497 1_555
Co4 F16 2.087497 1_445
Co4 F2 2.087497 1_555
Co4 F5 2.087497 1_445
Co5 F8 2.057492 1_555
Co5 F3 2.057492 1_555
Co5 F14 2.057492 1_555
Co5 F15 2.098509 1_555
Co5 F12 2.098509 1_555
Co5 F0 2.098509 1_555
F0 Rb3 2.982295 1_455
F0 Rb1 2.982295 1_455
F0 Rb0 3.012417 1_565
F0 Rb0 3.012423 1_555
F1 Rb2 2.982302 1_555
F1 Rb4 2.982302 1_555
F1 Rb5 3.012421 1_555
F1 Rb5 3.012421 1_665
F2 Rb2 3.014906 1_545
F2 Rb2 3.014917 1_555
F2 Rb5 3.038915 1_555
F2 Rb3 3.116608 1_555
F3 Rb1 3.014906 1_565
F3 Rb1 3.014917 1_555
F3 Rb0 3.038915 1_665
F3 Rb4 3.116608 1_556
F4 Rb3 3.014906 1_455
F4 Rb3 3.014917 1_555
F4 Rb0 3.038915 1_555
F4 Rb2 3.116608 1_555
F5 Rb2 3.014906 1_655
F5 Rb2 3.014917 1_555
F5 Rb5 3.038915 1_665
F5 Rb3 3.116608 1_555
F6 Rb4 3.014906 1_655
F6 Rb4 3.014917 1_555
F6 Rb5 3.038915 1_665
F6 Rb1 3.116608 1_554
F7 Rb4 3.014906 1_545
F7 Rb4 3.014917 1_555
F7 Rb5 3.038915 1_555
F7 Rb1 3.116608 1_554
F8 Rb1 3.014912 1_455
F8 Rb1 3.014912 1_565
F8 Rb0 3.038912 1_565
F8 Rb4 3.116608 1_556
F9 Rb4 2.982295 1_655
F9 Rb2 2.982295 1_655
F9 Rb5 3.012417 1_655
F9 Rb5 3.012423 1_665
F10 Rb3 3.014912 1_455
F10 Rb3 3.014912 1_565
F10 Rb0 3.038912 1_565
F10 Rb2 3.116608 1_555
F11 Rb2 3.014912 1_545
F11 Rb2 3.014912 1_655
F11 Rb5 3.038912 1_655
F11 Rb3 3.116608 1_555
F12 Rb3 2.982295 1_565
F12 Rb1 2.982295 1_565
F12 Rb0 3.012417 1_565
F12 Rb0 3.012423 1_665
F13 Rb2 2.982295 1_545
F13 Rb4 2.982295 1_545
F13 Rb5 3.012417 1_655
F13 Rb5 3.012423 1_555
F14 Rb1 3.014906 1_455
F14 Rb1 3.014917 1_555
F14 Rb0 3.038915 1_555
F14 Rb4 3.116608 1_556
F15 Rb3 2.982302 1_555
F15 Rb1 2.982302 1_555
F15 Rb0 3.012421 1_555
F15 Rb0 3.012421 1_665
F16 Rb3 3.014906 1_565
F16 Rb3 3.014917 1_555
F16 Rb0 3.038915 1_665
F16 Rb2 3.116608 1_555
F17 Rb4 3.014912 1_545
F17 Rb4 3.014912 1_655
F17 Rb5 3.038912 1_655
F17 Rb1 3.116608 1_554
