# generated using pymatgen
data_Sr5B3O9F
_symmetry_space_group_name_H-M   'P 1'
_cell_length_a   7.30809400
_cell_length_b   9.89328900
_cell_length_c   14.29770700
_cell_angle_alpha   90.00000000
_cell_angle_beta   90.00000000
_cell_angle_gamma   90.00000000
_symmetry_Int_Tables_number   1
_chemical_formula_structural   Sr5B3O9F
_chemical_formula_sum   'Sr20 B12 O36 F4'
_cell_volume   1033.73974314
_cell_formula_units_Z   4
loop_
 _symmetry_equiv_pos_site_id
 _symmetry_equiv_pos_as_xyz
  1  'x, y, z'
loop_
 _atom_site_type_symbol
 _atom_site_label
 _atom_site_symmetry_multiplicity
 _atom_site_fract_x
 _atom_site_fract_y
 _atom_site_fract_z
 _atom_site_occupancy
  Sr  Sr0  1  0.28894200  0.48147100  0.75000000  1
  Sr  Sr1  1  0.25493700  0.62577400  0.11976400  1
  Sr  Sr2  1  0.47185200  0.24587800  0.38777300  1
  Sr  Sr3  1  0.24506300  0.12577400  0.61976400  1
  Sr  Sr4  1  0.97185200  0.25412200  0.38777300  1
  Sr  Sr5  1  0.02814800  0.74587800  0.88777300  1
  Sr  Sr6  1  0.74506300  0.37422600  0.88023600  1
  Sr  Sr7  1  0.52814800  0.75412200  0.61222700  1
  Sr  Sr8  1  0.75493700  0.87422600  0.38023600  1
  Sr  Sr9  1  0.24506300  0.12577400  0.88023600  1
  Sr  Sr10  1  0.75493700  0.87422600  0.11976400  1
  Sr  Sr11  1  0.78894200  0.01852900  0.75000000  1
  Sr  Sr12  1  0.02814800  0.74587800  0.61222700  1
  Sr  Sr13  1  0.21105800  0.98147100  0.25000000  1
  Sr  Sr14  1  0.74506300  0.37422600  0.61976400  1
  Sr  Sr15  1  0.52814800  0.75412200  0.88777300  1
  Sr  Sr16  1  0.97185200  0.25412200  0.11222700  1
  Sr  Sr17  1  0.47185200  0.24587800  0.11222700  1
  Sr  Sr18  1  0.25493700  0.62577400  0.38023600  1
  Sr  Sr19  1  0.71105800  0.51852900  0.25000000  1
  B  B0  1  0.19962600  0.93818300  0.46127900  1
  B  B1  1  0.21772700  0.38986000  0.25000000  1
  B  B2  1  0.71772700  0.11014000  0.25000000  1
  B  B3  1  0.30037400  0.43818300  0.96127900  1
  B  B4  1  0.80037400  0.06181700  0.53872100  1
  B  B5  1  0.19962600  0.93818300  0.03872100  1
  B  B6  1  0.69962600  0.56181700  0.03872100  1
  B  B7  1  0.69962600  0.56181700  0.46127900  1
  B  B8  1  0.30037400  0.43818300  0.53872100  1
  B  B9  1  0.78227300  0.61014000  0.75000000  1
  B  B10  1  0.80037400  0.06181700  0.96127900  1
  B  B11  1  0.28227300  0.88986000  0.75000000  1
  O  O0  1  0.21500400  0.24856000  0.25000000  1
  O  O1  1  0.22395300  0.07090600  0.06983300  1
  O  O2  1  0.77604700  0.92909400  0.93016700  1
  O  O3  1  0.72395300  0.42909400  0.43016700  1
  O  O4  1  0.59310200  0.65262200  0.41048500  1
  O  O5  1  0.90689800  0.15262200  0.91048500  1
  O  O6  1  0.55648600  0.03674000  0.25000000  1
  O  O7  1  0.77936400  0.60364100  0.95513400  1
  O  O8  1  0.27604700  0.57090600  0.56983300  1
  O  O9  1  0.22063600  0.39635900  0.45513400  1
  O  O10  1  0.88485500  0.04404700  0.25000000  1
  O  O11  1  0.71500400  0.25144000  0.25000000  1
  O  O12  1  0.27936400  0.89635900  0.54486600  1
  O  O13  1  0.40689800  0.34737800  0.58951500  1
  O  O14  1  0.77936400  0.60364100  0.54486600  1
  O  O15  1  0.44351400  0.96326000  0.75000000  1
  O  O16  1  0.27936400  0.89635900  0.95513400  1
  O  O17  1  0.78499600  0.75144000  0.75000000  1
  O  O18  1  0.05648600  0.46326000  0.25000000  1
  O  O19  1  0.09310200  0.84737800  0.08951500  1
  O  O20  1  0.40689800  0.34737800  0.91048500  1
  O  O21  1  0.38485500  0.45595300  0.25000000  1
  O  O22  1  0.72063600  0.10364100  0.45513400  1
  O  O23  1  0.61514500  0.54404700  0.75000000  1
  O  O24  1  0.27604700  0.57090600  0.93016700  1
  O  O25  1  0.11514500  0.95595300  0.75000000  1
  O  O26  1  0.59310200  0.65262200  0.08951500  1
  O  O27  1  0.22063600  0.39635900  0.04486600  1
  O  O28  1  0.28499600  0.74856000  0.75000000  1
  O  O29  1  0.72063600  0.10364100  0.04486600  1
  O  O30  1  0.77604700  0.92909400  0.56983300  1
  O  O31  1  0.72395300  0.42909400  0.06983300  1
  O  O32  1  0.22395300  0.07090600  0.43016700  1
  O  O33  1  0.90689800  0.15262200  0.58951500  1
  O  O34  1  0.94351400  0.53674000  0.75000000  1
  O  O35  1  0.09310200  0.84737800  0.41048500  1
  F  F0  1  0.36003500  0.76386900  0.25000000  1
  F  F1  1  0.86003500  0.73613100  0.25000000  1
  F  F2  1  0.63996500  0.23613100  0.75000000  1
  F  F3  1  0.13996500  0.26386900  0.75000000  1
loop_
_geom_bond_atom_site_label_1
_geom_bond_atom_site_label_2
_geom_bond_distance
_geom_bond_site_symmetry_2
B0 O12 1.392501 1_555
B0 O35 1.393024 1_555
B0 O32 1.397722 1_565
B1 O18 1.384147 1_555
B1 O21 1.385403 1_555
B1 O0 1.398063 1_555
B2 O6 1.384147 1_555
B2 O10 1.385403 1_555
B2 O11 1.398063 1_555
B3 O27 1.392501 1_556
B3 O20 1.393024 1_555
B3 O24 1.397722 1_555
B4 O22 1.392501 1_555
B4 O33 1.393024 1_555
B4 O30 1.397722 1_545
B5 O16 1.392501 1_554
B5 O19 1.393024 1_555
B5 O1 1.397722 1_565
B6 O7 1.392501 1_554
B6 O26 1.393024 1_555
B6 O31 1.397722 1_555
B7 O14 1.392501 1_555
B7 O4 1.393024 1_555
B7 O3 1.397722 1_555
B8 O9 1.392501 1_555
B8 O13 1.393024 1_555
B8 O8 1.397722 1_555
B9 O34 1.384147 1_555
B9 O23 1.385403 1_555
B9 O17 1.398063 1_555
B10 O29 1.392501 1_556
B10 O5 1.393024 1_555
B10 O2 1.397722 1_545
B11 O15 1.384147 1_555
B11 O25 1.385403 1_555
B11 O28 1.398063 1_555
O0 Sr13 2.642546 1_545
O0 Sr4 2.653477 1_455
O0 Sr16 2.653477 1_455
O0 Sr2 2.721094 1_555
O0 Sr17 2.721094 1_555
O1 Sr17 2.577999 1_555
O1 Sr16 2.654677 1_455
O1 Sr13 2.725328 1_545
O1 Sr9 2.768918 1_554
O2 Sr15 2.577999 1_555
O2 Sr5 2.654677 1_655
O2 Sr11 2.725328 1_565
O2 Sr10 2.768918 1_556
O3 Sr4 2.577999 1_555
O3 Sr2 2.654677 1_555
O3 Sr19 2.725328 1_555
O3 Sr14 2.768918 1_555
O4 Sr18 2.522921 1_555
O4 Sr8 2.528325 1_555
O4 Sr19 2.787125 1_555
O4 Sr7 3.090910 1_555
O5 Sr9 2.522921 1_655
O5 Sr6 2.528325 1_555
O5 Sr11 2.787125 1_555
O5 Sr16 3.090910 1_556
O6 Sr13 2.582959 1_545
O6 Sr8 2.855820 1_545
O6 Sr10 2.855820 1_545
O6 Sr2 2.922985 1_555
O6 Sr17 2.922985 1_555
O7 Sr5 2.492667 1_655
O7 Sr6 2.522102 1_555
O7 Sr15 2.552357 1_555
O8 Sr12 2.577999 1_555
O8 Sr7 2.654677 1_555
O8 Sr0 2.725328 1_555
O8 Sr18 2.768918 1_555
O9 Sr4 2.492667 1_455
O9 Sr18 2.522102 1_555
O9 Sr2 2.552357 1_555
O10 Sr13 2.462996 1_645
O10 Sr10 2.681694 1_545
O10 Sr8 2.681694 1_545
O10 Sr4 2.933249 1_555
O10 Sr16 2.933249 1_555
O11 Sr19 2.642546 1_555
O11 Sr2 2.653477 1_555
O11 Sr17 2.653477 1_555
O11 Sr16 2.721094 1_555
O11 Sr4 2.721094 1_555
O12 Sr7 2.492667 1_555
O12 Sr3 2.522102 1_565
O12 Sr12 2.552357 1_555
O13 Sr14 2.522921 1_555
O13 Sr3 2.528325 1_555
O13 Sr0 2.787125 1_555
O13 Sr2 3.090910 1_555
O14 Sr12 2.492667 1_655
O14 Sr14 2.522102 1_555
O14 Sr7 2.552357 1_555
O15 Sr11 2.582959 1_565
O15 Sr3 2.855820 1_565
O15 Sr9 2.855820 1_565
O15 Sr7 2.922985 1_555
O15 Sr15 2.922985 1_555
O16 Sr15 2.492667 1_555
O16 Sr9 2.522102 1_565
O16 Sr5 2.552357 1_555
O17 Sr11 2.642546 1_565
O17 Sr5 2.653477 1_655
O17 Sr12 2.653477 1_655
O17 Sr7 2.721094 1_555
O17 Sr15 2.721094 1_555
O18 Sr19 2.582959 1_455
O18 Sr1 2.855820 1_555
O18 Sr18 2.855820 1_555
O18 Sr4 2.922985 1_455
O18 Sr16 2.922985 1_455
O19 Sr10 2.522921 1_455
O19 Sr1 2.528325 1_555
O19 Sr13 2.787125 1_555
O19 Sr5 3.090910 1_554
O20 Sr6 2.522921 1_555
O20 Sr9 2.528325 1_555
O20 Sr0 2.787125 1_555
O20 Sr17 3.090910 1_556
O21 Sr19 2.462996 1_555
O21 Sr1 2.681694 1_555
O21 Sr18 2.681694 1_555
O21 Sr2 2.933249 1_555
O21 Sr17 2.933249 1_555
O22 Sr2 2.492667 1_555
O22 Sr8 2.522102 1_545
O22 Sr4 2.552357 1_555
O23 Sr0 2.462996 1_555
O23 Sr6 2.681694 1_555
O23 Sr14 2.681694 1_555
O23 Sr7 2.933249 1_555
O23 Sr15 2.933249 1_555
O24 Sr5 2.577999 1_555
O24 Sr15 2.654677 1_555
O24 Sr0 2.725328 1_555
O24 Sr1 2.768918 1_556
O25 Sr11 2.462996 1_465
O25 Sr3 2.681694 1_565
O25 Sr9 2.681694 1_565
O25 Sr12 2.933249 1_555
O25 Sr5 2.933249 1_555
O26 Sr1 2.522921 1_555
O26 Sr10 2.528325 1_555
O26 Sr19 2.787125 1_555
O26 Sr15 3.090910 1_554
O27 Sr16 2.492667 1_455
O27 Sr1 2.522102 1_555
O27 Sr17 2.552357 1_555
O28 Sr0 2.642546 1_555
O28 Sr7 2.653477 1_555
O28 Sr15 2.653477 1_555
O28 Sr5 2.721094 1_555
O28 Sr12 2.721094 1_555
O29 Sr17 2.492667 1_555
O29 Sr10 2.522102 1_545
O29 Sr16 2.552357 1_555
O30 Sr7 2.577999 1_555
O30 Sr12 2.654677 1_655
O30 Sr11 2.725328 1_565
O30 Sr8 2.768918 1_555
O31 Sr16 2.577999 1_555
O31 Sr17 2.654677 1_555
O31 Sr19 2.725328 1_555
O31 Sr6 2.768918 1_554
O32 Sr2 2.577999 1_555
O32 Sr4 2.654677 1_455
O32 Sr13 2.725328 1_545
O32 Sr3 2.768918 1_555
O33 Sr3 2.522921 1_655
O33 Sr14 2.528325 1_555
O33 Sr11 2.787125 1_555
O33 Sr4 3.090910 1_555
O34 Sr0 2.582959 1_655
O34 Sr14 2.855820 1_555
O34 Sr6 2.855820 1_555
O34 Sr5 2.922985 1_655
O34 Sr12 2.922985 1_655
O35 Sr8 2.522921 1_455
O35 Sr18 2.528325 1_555
O35 Sr13 2.787125 1_555
O35 Sr12 3.090910 1_555
F0 Sr13 2.412446 1_555
F0 Sr1 2.433884 1_555
F0 Sr18 2.433884 1_555
F1 Sr19 2.412446 1_555
F1 Sr10 2.433884 1_555
F1 Sr8 2.433884 1_555
F2 Sr11 2.412446 1_555
F2 Sr6 2.433884 1_555
F2 Sr14 2.433884 1_555
F3 Sr0 2.412446 1_555
F3 Sr9 2.433884 1_555
F3 Sr3 2.433884 1_555
