# generated using pymatgen
data_SiO2
_symmetry_space_group_name_H-M   'P 1'
_cell_length_a   10.46989033
_cell_length_b   10.46989033
_cell_length_c   10.46989033
_cell_angle_alpha   109.47122063
_cell_angle_beta   109.47122063
_cell_angle_gamma   109.47122063
_symmetry_Int_Tables_number   1
_chemical_formula_structural   SiO2
_chemical_formula_sum   'Si24 O48'
_cell_volume   883.49583569
_cell_formula_units_Z   24
loop_
 _symmetry_equiv_pos_site_id
 _symmetry_equiv_pos_as_xyz
  1  'x, y, z'
loop_
 _atom_site_type_symbol
 _atom_site_label
 _atom_site_symmetry_multiplicity
 _atom_site_fract_x
 _atom_site_fract_y
 _atom_site_fract_z
 _atom_site_occupancy
  Si  Si0  1  0.30031700  0.37157500  0.68173900  1
  Si  Si1  1  0.61857800  0.81826100  0.18983600  1
  Si  Si2  1  0.07125800  0.19968300  0.88142200  1
  Si  Si3  1  0.87157500  0.57125800  0.68983600  1
  Si  Si4  1  0.11857800  0.92874200  0.80031700  1
  Si  Si5  1  0.12842500  0.42874200  0.31016400  1
  Si  Si6  1  0.81016400  0.38142200  0.18173900  1
  Si  Si7  1  0.31016400  0.12842500  0.42874200  1
  Si  Si8  1  0.37157500  0.68173900  0.30031700  1
  Si  Si9  1  0.69968300  0.62842500  0.31826100  1
  Si  Si10  1  0.62842500  0.31826100  0.69968300  1
  Si  Si11  1  0.57125800  0.68983600  0.87157500  1
  Si  Si12  1  0.19968300  0.88142200  0.07125800  1
  Si  Si13  1  0.42874200  0.31016400  0.12842500  1
  Si  Si14  1  0.68983600  0.87157500  0.57125800  1
  Si  Si15  1  0.38142200  0.18173900  0.81016400  1
  Si  Si16  1  0.81826100  0.18983600  0.61857800  1
  Si  Si17  1  0.18173900  0.81016400  0.38142200  1
  Si  Si18  1  0.88142200  0.07125800  0.19968300  1
  Si  Si19  1  0.18983600  0.61857800  0.81826100  1
  Si  Si20  1  0.31826100  0.69968300  0.62842500  1
  Si  Si21  1  0.92874200  0.80031700  0.11857800  1
  Si  Si22  1  0.68173900  0.30031700  0.37157500  1
  Si  Si23  1  0.80031700  0.11857800  0.92874200  1
  O  O0  1  0.48474000  0.26061500  0.00047100  1
  O  O1  1  0.00002900  0.25002900  0.75000000  1
  O  O2  1  0.75002900  0.75000000  0.50002900  1
  O  O3  1  0.50047100  0.23985600  0.51573100  1
  O  O4  1  0.98426900  0.22412500  0.98474000  1
  O  O5  1  0.23938500  0.72412500  0.73985600  1
  O  O6  1  0.75000000  0.22793100  0.47793100  1
  O  O7  1  0.52206900  0.25000000  0.77206900  1
  O  O8  1  0.24997100  0.25000000  0.49997100  1
  O  O9  1  0.99952900  0.51526000  0.73938500  1
  O  O10  1  0.22793100  0.47793100  0.75000000  1
  O  O11  1  0.49952900  0.76014400  0.48426900  1
  O  O12  1  0.01526000  0.01573100  0.77587500  1
  O  O13  1  0.51573100  0.50047100  0.23985600  1
  O  O14  1  0.98474000  0.98426900  0.22412500  1
  O  O15  1  0.74997100  0.25000000  0.99997100  1
  O  O16  1  0.49997100  0.24997100  0.25000000  1
  O  O17  1  0.72793100  0.97793100  0.75000000  1
  O  O18  1  0.99997100  0.74997100  0.25000000  1
  O  O19  1  0.73938500  0.99952900  0.51526000  1
  O  O20  1  0.75000000  0.72793100  0.97793100  1
  O  O21  1  0.02206900  0.25000000  0.27206900  1
  O  O22  1  0.97793100  0.75000000  0.72793100  1
  O  O23  1  0.25000000  0.99997100  0.74997100  1
  O  O24  1  0.73985600  0.23938500  0.72412500  1
  O  O25  1  0.27206900  0.02206900  0.25000000  1
  O  O26  1  0.25002900  0.75000000  0.00002900  1
  O  O27  1  0.23985600  0.51573100  0.50047100  1
  O  O28  1  0.48426900  0.49952900  0.76014400  1
  O  O29  1  0.26014400  0.76061500  0.27587500  1
  O  O30  1  0.72412500  0.73985600  0.23938500  1
  O  O31  1  0.47793100  0.75000000  0.22793100  1
  O  O32  1  0.26061500  0.00047100  0.48474000  1
  O  O33  1  0.01573100  0.77587500  0.01526000  1
  O  O34  1  0.25000000  0.77206900  0.52206900  1
  O  O35  1  0.77206900  0.52206900  0.25000000  1
  O  O36  1  0.27587500  0.26014400  0.76061500  1
  O  O37  1  0.25000000  0.49997100  0.24997100  1
  O  O38  1  0.75000000  0.50002900  0.75002900  1
  O  O39  1  0.25000000  0.27206900  0.02206900  1
  O  O40  1  0.51526000  0.73938500  0.99952900  1
  O  O41  1  0.50002900  0.75002900  0.75000000  1
  O  O42  1  0.22412500  0.98474000  0.98426900  1
  O  O43  1  0.77587500  0.01526000  0.01573100  1
  O  O44  1  0.76061500  0.27587500  0.26014400  1
  O  O45  1  0.75000000  0.00002900  0.25002900  1
  O  O46  1  0.76014400  0.48426900  0.49952900  1
  O  O47  1  0.00047100  0.48474000  0.26061500  1
loop_
_geom_bond_atom_site_label_1
_geom_bond_atom_site_label_2
_geom_bond_distance
_geom_bond_site_symmetry_2
O0 Si13 1.634208 1_555
O0 Si15 1.640960 1_554
O1 Si2 1.669976 1_555
O1 Si16 1.669976 1_455
O2 Si14 1.669976 1_555
O2 Si9 1.669976 1_555
O3 Si10 1.634208 1_555
O3 Si7 1.640960 1_555
O4 Si23 1.634208 1_555
O4 Si2 1.640960 1_655
O5 Si19 1.634208 1_555
O5 Si20 1.640960 1_555
O6 Si16 1.648716 1_555
O6 Si22 1.648716 1_555
O7 Si15 1.648716 1_555
O7 Si10 1.648716 1_555
O8 Si0 1.669976 1_555
O8 Si7 1.669976 1_555
O9 Si3 1.634208 1_555
O9 Si19 1.640960 1_655
O10 Si19 1.648716 1_555
O10 Si0 1.648716 1_555
O11 Si8 1.634208 1_555
O11 Si14 1.640960 1_555
O12 Si2 1.634208 1_555
O12 Si4 1.640960 1_545
O13 Si9 1.634208 1_555
O13 Si13 1.640960 1_555
O14 Si21 1.634208 1_555
O14 Si18 1.640960 1_565
O15 Si6 1.669976 1_556
O15 Si23 1.669976 1_555
O16 Si22 1.669976 1_555
O16 Si13 1.669976 1_555
O17 Si23 1.648716 1_565
O17 Si14 1.648716 1_555
O18 Si17 1.669976 1_655
O18 Si21 1.669976 1_555
O19 Si14 1.634208 1_555
O19 Si16 1.640960 1_565
O20 Si21 1.648716 1_556
O20 Si11 1.648716 1_555
O21 Si5 1.648716 1_555
O21 Si18 1.648716 1_455
O22 Si4 1.648716 1_655
O22 Si3 1.648716 1_555
O23 Si15 1.669976 1_565
O23 Si4 1.669976 1_555
O24 Si16 1.634208 1_555
O24 Si10 1.640960 1_555
O25 Si7 1.648716 1_555
O25 Si12 1.648716 1_545
O26 Si12 1.669976 1_555
O26 Si19 1.669976 1_554
O27 Si20 1.634208 1_555
O27 Si5 1.640960 1_555
O28 Si0 1.634208 1_555
O28 Si11 1.640960 1_555
O29 Si17 1.634208 1_555
O29 Si8 1.640960 1_555
O30 Si1 1.634208 1_555
O30 Si9 1.640960 1_555
O31 Si1 1.648716 1_555
O31 Si8 1.648716 1_555
O32 Si7 1.634208 1_555
O32 Si17 1.640960 1_545
O33 Si12 1.634208 1_555
O33 Si21 1.640960 1_455
O34 Si17 1.648716 1_555
O34 Si20 1.648716 1_555
O35 Si6 1.648716 1_555
O35 Si9 1.648716 1_555
O36 Si15 1.634208 1_555
O36 Si0 1.640960 1_555
O37 Si8 1.669976 1_555
O37 Si5 1.669976 1_555
O38 Si3 1.669976 1_555
O38 Si10 1.669976 1_555
O39 Si13 1.648716 1_555
O39 Si2 1.648716 1_554
O40 Si11 1.634208 1_555
O40 Si1 1.640960 1_556
O41 Si11 1.669976 1_555
O41 Si20 1.669976 1_555
O42 Si4 1.634208 1_555
O42 Si12 1.640960 1_556
O43 Si18 1.634208 1_555
O43 Si23 1.640960 1_554
O44 Si6 1.634208 1_555
O44 Si22 1.640960 1_555
O45 Si18 1.669976 1_555
O45 Si1 1.669976 1_545
O46 Si22 1.634208 1_555
O46 Si3 1.640960 1_555
O47 Si5 1.634208 1_555
O47 Si6 1.640960 1_455
