# generated using pymatgen
data_Al2Te2Cl7
_symmetry_space_group_name_H-M   'P 1'
_cell_length_a   11.30733466
_cell_length_b   9.27797313
_cell_length_c   13.20115482
_cell_angle_alpha   88.37727326
_cell_angle_beta   90.00000000
_cell_angle_gamma   90.00000000
_symmetry_Int_Tables_number   1
_chemical_formula_structural   Al2Te2Cl7
_chemical_formula_sum   'Al8 Te8 Cl28'
_cell_volume   1384.36648650
_cell_formula_units_Z   4
loop_
 _symmetry_equiv_pos_site_id
 _symmetry_equiv_pos_as_xyz
  1  'x, y, z'
loop_
 _atom_site_type_symbol
 _atom_site_label
 _atom_site_symmetry_multiplicity
 _atom_site_fract_x
 _atom_site_fract_y
 _atom_site_fract_z
 _atom_site_occupancy
  Al  Al0  1  0.17829933  0.11880036  0.29689419  1
  Al  Al1  1  0.67829933  0.88119964  0.20310581  1
  Al  Al2  1  0.82170067  0.88119964  0.70310581  1
  Al  Al3  1  0.32170067  0.11880036  0.79689419  1
  Al  Al4  1  0.07936808  0.73907167  0.34278296  1
  Al  Al5  1  0.57936808  0.26092833  0.15721704  1
  Al  Al6  1  0.92063192  0.26092833  0.65721704  1
  Al  Al7  1  0.42063192  0.73907167  0.84278296  1
  Te  Te0  1  0.15527942  0.43457978  0.03445569  1
  Te  Te1  1  0.65527942  0.56542022  0.46554431  1
  Te  Te2  1  0.84472058  0.56542022  0.96554431  1
  Te  Te3  1  0.34472058  0.43457978  0.53445569  1
  Te  Te4  1  0.93574497  0.32220277  0.05074150  1
  Te  Te5  1  0.43574497  0.67779723  0.44925850  1
  Te  Te6  1  0.06425503  0.67779723  0.94925850  1
  Te  Te7  1  0.56425503  0.32220277  0.55074150  1
  Cl  Cl0  1  0.17079240  0.10299000  0.13553087  1
  Cl  Cl1  1  0.67079240  0.89701000  0.36446913  1
  Cl  Cl2  1  0.82920760  0.89701000  0.86446913  1
  Cl  Cl3  1  0.32920760  0.10299000  0.63553087  1
  Cl  Cl4  1  0.12397511  0.32490505  0.34214382  1
  Cl  Cl5  1  0.62397511  0.67509495  0.15785618  1
  Cl  Cl6  1  0.87602489  0.67509495  0.65785618  1
  Cl  Cl7  1  0.37602489  0.32490505  0.84214382  1
  Cl  Cl8  1  0.33477201  0.04347709  0.36732549  1
  Cl  Cl9  1  0.83477201  0.95652291  0.13267451  1
  Cl  Cl10  1  0.66522799  0.95652291  0.63267451  1
  Cl  Cl11  1  0.16522799  0.04347709  0.86732549  1
  Cl  Cl12  1  0.02955781  0.97468844  0.35523509  1
  Cl  Cl13  1  0.52955781  0.02531156  0.14476491  1
  Cl  Cl14  1  0.97044219  0.02531156  0.64476491  1
  Cl  Cl15  1  0.47044219  0.97468844  0.85523509  1
  Cl  Cl16  1  0.14240806  0.68529227  0.49192908  1
  Cl  Cl17  1  0.64240806  0.31470773  0.00807092  1
  Cl  Cl18  1  0.85759194  0.31470773  0.50807092  1
  Cl  Cl19  1  0.35759194  0.68529227  0.99192908  1
  Cl  Cl20  1  0.21553676  0.72519308  0.23417660  1
  Cl  Cl21  1  0.71553676  0.27480692  0.26582340  1
  Cl  Cl22  1  0.78446324  0.27480692  0.76582340  1
  Cl  Cl23  1  0.28446324  0.72519308  0.73417660  1
  Cl  Cl24  1  0.92059425  0.63467334  0.30416155  1
  Cl  Cl25  1  0.42059425  0.36532666  0.19583845  1
  Cl  Cl26  1  0.07940575  0.36532666  0.69583845  1
  Cl  Cl27  1  0.57940575  0.63467334  0.80416155  1
loop_
_geom_bond_atom_site_label_1
_geom_bond_atom_site_label_2
_geom_bond_distance
_geom_bond_site_symmetry_2
Al0 Cl8 2.108661 1_555
Al0 Cl4 2.110799 1_555
Al0 Cl0 2.141050 1_555
Al0 Cl12 2.269641 1_545
Al1 Cl9 2.108661 1_555
Al1 Cl5 2.110799 1_555
Al1 Cl1 2.141050 1_555
Al1 Cl13 2.269641 1_565
Al2 Cl10 2.108661 1_555
Al2 Cl6 2.110799 1_555
Al2 Cl2 2.141050 1_555
Al2 Cl14 2.269641 1_565
Al3 Cl11 2.108661 1_555
Al3 Cl7 2.110799 1_555
Al3 Cl3 2.141050 1_555
Al3 Cl15 2.269641 1_545
Al4 Cl24 2.109323 1_455
Al4 Cl20 2.110286 1_555
Al4 Cl16 2.139626 1_555
Al4 Cl12 2.267904 1_555
Al5 Cl25 2.109323 1_555
Al5 Cl21 2.110286 1_555
Al5 Cl17 2.139626 1_555
Al5 Cl13 2.267904 1_555
Al6 Cl26 2.109323 1_655
Al6 Cl22 2.110286 1_555
Al6 Cl18 2.139626 1_555
Al6 Cl14 2.267904 1_555
Al7 Cl27 2.109323 1_555
Al7 Cl23 2.110286 1_555
Al7 Cl19 2.139626 1_555
Al7 Cl15 2.267904 1_555
Te0 Te6 2.696783 1_554
Te0 Te4 2.698641 1_455
Te1 Te7 2.696783 1_555
Te1 Te5 2.698641 1_555
Te2 Te4 2.696783 1_556
Te2 Te6 2.698641 1_655
Te3 Te5 2.696783 1_555
Te3 Te7 2.698641 1_555
