# generated using pymatgen
data_BaCuPClO4
_symmetry_space_group_name_H-M   'P 1'
_cell_length_a   7.38458700
_cell_length_b   7.99510300
_cell_length_c   8.81026000
_cell_angle_alpha   90.00000000
_cell_angle_beta   90.00000000
_cell_angle_gamma   90.00000000
_symmetry_Int_Tables_number   1
_chemical_formula_structural   BaCuPClO4
_chemical_formula_sum   'Ba4 Cu4 P4 Cl4 O16'
_cell_volume   520.16245224
_cell_formula_units_Z   4
loop_
 _symmetry_equiv_pos_site_id
 _symmetry_equiv_pos_as_xyz
  1  'x, y, z'
loop_
 _atom_site_type_symbol
 _atom_site_label
 _atom_site_symmetry_multiplicity
 _atom_site_fract_x
 _atom_site_fract_y
 _atom_site_fract_z
 _atom_site_occupancy
  Ba  Ba0  1  0.37373700  0.01760300  0.29757000  1
  Ba  Ba1  1  0.12626300  0.98239700  0.79757000  1
  Ba  Ba2  1  0.87373700  0.48239700  0.70243000  1
  Ba  Ba3  1  0.62626300  0.51760300  0.20243000  1
  Cu  Cu0  1  0.86479900  0.01543800  0.18247100  1
  Cu  Cu1  1  0.36479900  0.48456200  0.81752900  1
  Cu  Cu2  1  0.13520100  0.51543800  0.31752900  1
  Cu  Cu3  1  0.63520100  0.98456200  0.68247100  1
  P  P0  1  0.37322800  0.68375900  0.58124400  1
  P  P1  1  0.87322800  0.81624100  0.41875600  1
  P  P2  1  0.12677200  0.31624100  0.08124400  1
  P  P3  1  0.62677200  0.18375900  0.91875600  1
  Cl  Cl0  1  0.33027400  0.73824100  0.04150600  1
  Cl  Cl1  1  0.16972600  0.26175900  0.54150600  1
  Cl  Cl2  1  0.66972600  0.23824100  0.45849400  1
  Cl  Cl3  1  0.83027400  0.76175900  0.95849400  1
  O  O0  1  0.16298300  0.36030100  0.91258600  1
  O  O1  1  0.97530800  0.42295800  0.15538800  1
  O  O2  1  0.70678800  0.85026900  0.31298900  1
  O  O3  1  0.92175900  0.62601200  0.41470200  1
  O  O4  1  0.29321200  0.35026900  0.18701100  1
  O  O5  1  0.57824100  0.37398800  0.91470200  1
  O  O6  1  0.33701700  0.63969900  0.41258600  1
  O  O7  1  0.52469200  0.57704200  0.65538800  1
  O  O8  1  0.79321200  0.14973100  0.81298900  1
  O  O9  1  0.02469200  0.92295800  0.34461200  1
  O  O10  1  0.42175900  0.87398800  0.58529800  1
  O  O11  1  0.83701700  0.86030100  0.58741400  1
  O  O12  1  0.47530800  0.07704200  0.84461200  1
  O  O13  1  0.66298300  0.13969900  0.08741400  1
  O  O14  1  0.07824100  0.12601200  0.08529800  1
  O  O15  1  0.20678800  0.64973100  0.68701100  1
loop_
_geom_bond_atom_site_label_1
_geom_bond_atom_site_label_2
_geom_bond_distance
_geom_bond_site_symmetry_2
Ba0 O9 2.718113 1_545
Ba0 O2 2.803064 1_545
Ba0 O10 2.805383 1_545
Ba0 O4 2.894198 1_555
Ba0 O13 2.990552 1_555
Ba0 O14 3.001735 1_555
Ba0 Cl2 3.146334 1_555
Ba0 Cl0 3.190792 1_545
Ba0 O6 3.198295 1_545
Ba0 Cl1 3.270927 1_555
Ba1 O12 2.718113 1_565
Ba1 O8 2.803064 1_465
Ba1 O14 2.805383 1_566
Ba1 O15 2.894198 1_555
Ba1 O11 2.990552 1_455
Ba1 O10 3.001735 1_555
Ba1 Cl3 3.146334 1_455
Ba1 Cl1 3.190792 1_565
Ba1 O0 3.198295 1_565
Ba1 Cl0 3.270927 1_556
Ba2 O7 2.718113 1_555
Ba2 O15 2.803064 1_655
Ba2 O3 2.805383 1_555
Ba2 O8 2.894198 1_555
Ba2 O0 2.990552 1_655
Ba2 O5 3.001735 1_555
Ba2 Cl1 3.146334 1_655
Ba2 Cl3 3.190792 1_555
Ba2 O11 3.198295 1_555
Ba2 Cl2 3.270927 1_555
Ba3 O1 2.718113 1_555
Ba3 O4 2.803064 1_555
Ba3 O5 2.805383 1_554
Ba3 O2 2.894198 1_555
Ba3 O6 2.990552 1_555
Ba3 O3 3.001735 1_555
Ba3 Cl0 3.146334 1_555
Ba3 Cl2 3.190792 1_555
Ba3 O13 3.198295 1_555
Ba3 Cl3 3.270927 1_554
Cu0 O13 1.977232 1_555
Cu0 O9 1.995363 1_645
Cu0 O14 1.999708 1_655
Cu0 O2 2.104193 1_545
Cu1 O0 1.977232 1_555
Cu1 O7 1.995363 1_555
Cu1 O5 1.999708 1_555
Cu1 O15 2.104193 1_555
Cu2 O6 1.977232 1_555
Cu2 O1 1.995363 1_455
Cu2 O3 1.999708 1_455
Cu2 O4 2.104193 1_555
Cu3 O11 1.977232 1_555
Cu3 O12 1.995363 1_565
Cu3 O10 1.999708 1_555
Cu3 O8 2.104193 1_565
Cl0 Cu1 2.841206 1_554
Cl1 Cu2 2.841206 1_555
Cl2 Cu3 2.841206 1_545
Cl3 Cu0 2.841206 1_566
O0 P2 1.550340 1_556
O1 P2 1.551038 1_655
O2 P1 1.566204 1_555
O3 P1 1.562962 1_555
O4 P2 1.566204 1_555
O5 P3 1.562962 1_555
O6 P0 1.550340 1_555
O7 P0 1.551038 1_555
O8 P3 1.566204 1_555
O9 P1 1.551038 1_455
O10 P0 1.562962 1_555
O11 P1 1.550340 1_555
O12 P3 1.551038 1_555
O13 P3 1.550340 1_554
O14 P2 1.562962 1_555
O15 P0 1.566204 1_555
