# generated using pymatgen
data_U4Re7Si6
_symmetry_space_group_name_H-M   'P 1'
_cell_length_a   7.12736460
_cell_length_b   7.12734431
_cell_length_c   7.12754039
_cell_angle_alpha   109.47168302
_cell_angle_beta   109.47176241
_cell_angle_gamma   109.47064505
_symmetry_Int_Tables_number   1
_chemical_formula_structural   U4Re7Si6
_chemical_formula_sum   'U4 Re7 Si6'
_cell_volume   278.72261920
_cell_formula_units_Z   1
loop_
 _symmetry_equiv_pos_site_id
 _symmetry_equiv_pos_as_xyz
  1  'x, y, z'
loop_
 _atom_site_type_symbol
 _atom_site_label
 _atom_site_symmetry_multiplicity
 _atom_site_fract_x
 _atom_site_fract_y
 _atom_site_fract_z
 _atom_site_occupancy
  U  U0  1  0.50000000  0.50000000  0.50000000  1
  U  U1  1  0.50000000  0.00000000  0.00000100  1
  U  U2  1  -0.00000000  0.50000000  -0.00000000  1
  U  U3  1  0.99999900  0.00000000  0.50000000  1
  Re  Re0  1  0.50000540  0.75000220  0.25000220  1
  Re  Re1  1  0.75000099  0.50000096  0.25000544  1
  Re  Re2  1  0.24999901  0.49999904  0.74999556  1
  Re  Re3  1  0.75000099  0.25000003  0.49999655  1
  Re  Re4  1  0.24999901  0.74999997  0.50000345  1
  Re  Re5  1  0.49999560  0.24999780  0.74999780  1
  Re  Re6  1  -0.00000000  0.00000000  -0.00000000  1
  Si  Si0  1  0.00000000  0.31130791  0.31132418  1
  Si  Si1  1  0.31131246  0.00000636  0.31132232  1
  Si  Si2  1  0.68868754  -0.00000636  0.68867768  1
  Si  Si3  1  0.68868754  0.68869390  0.00000986  1
  Si  Si4  1  0.31131246  0.31130610  -0.00000986  1
  Si  Si5  1  -0.00000000  0.68869209  0.68867582  1
loop_
_geom_bond_atom_site_label_1
_geom_bond_atom_site_label_2
_geom_bond_distance
_geom_bond_site_symmetry_2
Re0 Si3 2.577703 1_555
Re0 Si2 2.577710 1_565
Re0 Si4 2.577785 1_555
Re0 Si1 2.577791 1_565
Re0 U3 2.909690 1_565
Re0 Re1 2.909701 1_555
Re0 Re3 2.909708 1_565
Re0 U2 2.909759 1_555
Re0 U1 2.909769 1_565
Re0 U0 2.909774 1_555
Re0 Re2 2.909819 1_554
Re0 Re4 2.909824 1_555
Re1 Si5 2.577679 1_655
Re1 Si4 2.577749 1_555
Re1 Si0 2.577762 1_655
Re1 Si3 2.577783 1_555
Re1 U3 2.909715 1_565
Re1 Re4 2.909716 1_655
Re1 U1 2.909726 1_555
Re1 Re3 2.909728 1_555
Re1 U0 2.909754 1_555
Re1 U2 2.909806 1_655
Re1 Re5 2.909825 1_554
Re2 Si0 2.577685 1_555
Re2 Si3 2.577748 1_556
Re2 Si5 2.577762 1_555
Re2 Si4 2.577777 1_556
Re2 Re5 2.909707 1_555
Re2 U3 2.909715 1_455
Re2 Re3 2.909716 1_455
Re2 U1 2.909726 1_566
Re2 Re4 2.909734 1_555
Re2 U0 2.909760 1_555
Re2 U2 2.909800 1_556
Re3 Si0 2.577685 1_655
Re3 Si1 2.577748 1_555
Re3 Si5 2.577763 1_655
Re3 Si2 2.577777 1_555
Re3 U3 2.909709 1_555
Re3 U0 2.909726 1_555
Re3 U1 2.909755 1_555
Re3 U2 2.909801 1_656
Re3 Re5 2.909819 1_555
Re4 Si5 2.577685 1_555
Re4 Si2 2.577748 1_565
Re4 Si0 2.577763 1_555
Re4 Si1 2.577777 1_565
Re4 Re5 2.909708 1_565
Re4 U3 2.909720 1_465
Re4 U0 2.909726 1_555
Re4 U1 2.909766 1_566
Re4 U2 2.909801 1_555
Re5 Si4 2.577708 1_556
Re5 Si1 2.577709 1_555
Re5 Si2 2.577786 1_555
Re5 Si3 2.577786 1_556
Re5 U3 2.909708 1_455
Re5 U2 2.909753 1_656
Re5 U0 2.909774 1_555
Re5 U1 2.909780 1_556
Re6 Si1 2.562122 1_555
Re6 Si2 2.562122 1_454
Re6 Si3 2.562122 1_445
Re6 Si4 2.562122 1_555
Re6 Si5 2.562136 1_544
Re6 Si0 2.562136 1_555
Si0 U3 2.953100 1_455
Si0 U1 2.953162 1_455
Si0 U0 2.953162 1_555
Si0 U2 2.953316 1_555
Si1 U0 2.953115 1_555
Si1 U3 2.953148 1_455
Si1 U2 2.953191 1_545
Si1 U1 2.953275 1_555
Si2 U0 2.953115 1_545
Si2 U3 2.953136 1_555
Si2 U2 2.953191 1_656
Si2 U1 2.953287 1_556
Si3 U1 2.953114 1_565
Si3 U3 2.953142 1_565
Si3 U2 2.953190 1_655
Si3 U0 2.953281 1_554
Si4 U1 2.953115 1_555
Si4 U3 2.953143 1_454
Si4 U2 2.953190 1_555
Si4 U0 2.953281 1_555
Si5 U3 2.953101 1_465
Si5 U0 2.953162 1_455
Si5 U1 2.953163 1_566
Si5 U2 2.953316 1_556
