# generated using pymatgen
data_NaFe3H6(SO7)2
_symmetry_space_group_name_H-M   'P 1'
_cell_length_a   7.02012247
_cell_length_b   7.02012247
_cell_length_c   7.02012331
_cell_angle_alpha   65.07422209
_cell_angle_beta   65.07422209
_cell_angle_gamma   65.07421889
_symmetry_Int_Tables_number   1
_chemical_formula_structural   NaFe3H6(SO7)2
_chemical_formula_sum   'Na1 Fe3 H6 S2 O14'
_cell_volume   271.72466067
_cell_formula_units_Z   1
loop_
 _symmetry_equiv_pos_site_id
 _symmetry_equiv_pos_as_xyz
  1  'x, y, z'
loop_
 _atom_site_type_symbol
 _atom_site_label
 _atom_site_symmetry_multiplicity
 _atom_site_fract_x
 _atom_site_fract_y
 _atom_site_fract_z
 _atom_site_occupancy
  Na  Na0  1  0.00000000  0.00000000  0.00000000  1
  Fe  Fe0  1  0.00000000  0.50000000  0.00000000  1
  Fe  Fe1  1  0.50000000  0.00000000  0.00000000  1
  Fe  Fe2  1  0.00000000  0.00000000  0.50000000  1
  H  H0  1  0.63014400  0.63014400  0.19709800  1
  H  H1  1  0.19709800  0.63014400  0.63014400  1
  H  H2  1  0.63014400  0.19709800  0.63014400  1
  H  H3  1  0.36985600  0.80290200  0.36985600  1
  H  H4  1  0.36985600  0.36985600  0.80290200  1
  H  H5  1  0.80290200  0.36985600  0.36985600  1
  S  S0  1  0.31562400  0.31562400  0.31562400  1
  S  S1  1  0.68437600  0.68437600  0.68437600  1
  O  O0  1  0.40381300  0.40381300  0.40381300  1
  O  O1  1  0.59618700  0.59618700  0.59618700  1
  O  O2  1  0.50210800  0.17604300  0.17604300  1
  O  O3  1  0.17604300  0.17604300  0.50210800  1
  O  O4  1  0.17604300  0.50210800  0.17604300  1
  O  O5  1  0.82395700  0.49789200  0.82395700  1
  O  O6  1  0.49789200  0.82395700  0.82395700  1
  O  O7  1  0.82395700  0.82395700  0.49789200  1
  O  O8  1  0.88593400  0.27365300  0.27365300  1
  O  O9  1  0.27365300  0.27365300  0.88593400  1
  O  O10  1  0.27365300  0.88593400  0.27365300  1
  O  O11  1  0.72634700  0.11406600  0.72634700  1
  O  O12  1  0.11406600  0.72634700  0.72634700  1
  O  O13  1  0.72634700  0.72634700  0.11406600  1
loop_
_geom_bond_atom_site_label_1
_geom_bond_atom_site_label_2
_geom_bond_distance
_geom_bond_site_symmetry_2
Na0 O9 2.922284 1_554
Na0 O13 2.922284 1_445
Na0 O10 2.922284 1_545
Na0 O8 2.922284 1_455
Na0 O11 2.922284 1_454
Na0 O12 2.922284 1_544
Na0 O2 3.045810 1_455
Na0 O4 3.045810 1_545
Na0 O6 3.045810 1_544
Na0 O5 3.045810 1_454
Na0 O3 3.045810 1_554
Na0 O7 3.045810 1_445
Fe0 O13 2.014822 1_455
Fe0 O9 2.014822 1_554
Fe0 O8 2.014822 1_455
Fe0 O12 2.014822 1_554
Fe0 O4 2.091176 1_555
Fe0 O5 2.091176 1_454
Fe1 O13 2.014822 1_545
Fe1 O9 2.014822 1_554
Fe1 O10 2.014822 1_545
Fe1 O11 2.014822 1_554
Fe1 O2 2.091176 1_555
Fe1 O6 2.091176 1_544
Fe2 O12 2.014822 1_545
Fe2 O10 2.014822 1_545
Fe2 O8 2.014822 1_455
Fe2 O11 2.014822 1_455
Fe2 O3 2.091176 1_555
Fe2 O7 2.091176 1_445
H0 O13 0.986307 1_555
H1 O12 0.986307 1_555
H2 O11 0.986307 1_555
H3 O10 0.986307 1_555
H4 O9 0.986307 1_555
H5 O8 0.986307 1_555
O0 S0 1.455691 1_555
O1 S1 1.455691 1_555
O2 S0 1.510285 1_555
O3 S0 1.510285 1_555
O4 S0 1.510285 1_555
O5 S1 1.510285 1_555
O6 S1 1.510285 1_555
O7 S1 1.510285 1_555
