# generated using pymatgen
data_CsNiPdF5
_symmetry_space_group_name_H-M   'P 1'
_cell_length_a   7.36433051
_cell_length_b   7.36433051
_cell_length_c   7.36433051
_cell_angle_alpha   126.28755141
_cell_angle_beta   117.97513952
_cell_angle_gamma   86.50700702
_symmetry_Int_Tables_number   1
_chemical_formula_structural   CsNiPdF5
_chemical_formula_sum   'Cs2 Ni2 Pd2 F10'
_cell_volume   270.82254177
_cell_formula_units_Z   2
loop_
 _symmetry_equiv_pos_site_id
 _symmetry_equiv_pos_as_xyz
  1  'x, y, z'
loop_
 _atom_site_type_symbol
 _atom_site_label
 _atom_site_symmetry_multiplicity
 _atom_site_fract_x
 _atom_site_fract_y
 _atom_site_fract_z
 _atom_site_occupancy
  Cs  Cs0  1  0.86906900  0.61906900  0.25000000  1
  Cs  Cs1  1  0.13093100  0.38093100  0.75000000  1
  Ni  Ni0  1  0.00000000  0.00000000  0.00000000  1
  Ni  Ni1  1  0.50000000  0.00000000  0.50000000  1
  Pd  Pd0  1  0.50000000  0.00000000  0.00000000  1
  Pd  Pd1  1  0.50000000  0.50000000  0.50000000  1
  F  F0  1  0.44210500  0.65353700  0.33566700  1
  F  F1  1  0.55789500  0.89356300  0.21143200  1
  F  F2  1  0.18213000  0.34646300  0.28856800  1
  F  F3  1  0.81787000  0.10643700  0.16433300  1
  F  F4  1  0.55789500  0.34646300  0.66433300  1
  F  F5  1  0.44210500  0.10643700  0.78856800  1
  F  F6  1  0.82005900  0.07005900  0.75000000  1
  F  F7  1  0.17994100  0.92994100  0.25000000  1
  F  F8  1  0.18213000  0.89356300  0.83566700  1
  F  F9  1  0.81787000  0.65353700  0.71143200  1
loop_
_geom_bond_atom_site_label_1
_geom_bond_atom_site_label_2
_geom_bond_distance
_geom_bond_site_symmetry_2
Cs0 F8 2.987112 1_655
Cs0 F4 2.987113 1_554
Cs0 F2 2.987113 1_655
Cs0 F1 2.987118 1_555
Cs0 F7 3.334821 1_655
Cs0 F6 3.368146 1_554
Cs0 F6 3.368146 1_565
Cs0 F9 3.453017 1_555
Cs0 F0 3.453017 1_555
Cs0 F5 3.453021 1_554
Cs0 F3 3.453024 1_555
Cs1 F3 2.987112 1_455
Cs1 F0 2.987113 1_556
Cs1 F9 2.987113 1_455
Cs1 F5 2.987118 1_555
Cs1 F6 3.334821 1_455
Cs1 F7 3.368146 1_556
Cs1 F7 3.368146 1_545
Cs1 F4 3.453017 1_555
Cs1 F2 3.453017 1_555
Cs1 F1 3.453021 1_556
Cs1 F8 3.453024 1_555
F0 Pd1 2.000434 1_555
F0 Ni1 2.037128 1_565
F1 Pd0 2.000427 1_565
F1 Ni1 2.037130 1_565
F2 Pd1 2.000434 1_555
F2 Ni0 2.037128 1_555
F3 Pd0 2.000433 1_555
F3 Ni0 2.037128 1_655
F4 Pd1 2.000434 1_555
F4 Ni1 2.037128 1_555
F5 Pd0 2.000427 1_556
F5 Ni1 2.037130 1_555
F6 Ni1 2.040578 1_555
F6 Ni0 2.040578 1_656
F7 Ni1 2.040578 1_565
F7 Ni0 2.040578 1_565
F8 Pd0 2.000433 1_566
F8 Ni0 2.037128 1_566
F9 Pd1 2.000434 1_555
F9 Ni0 2.037128 1_666
