# generated using pymatgen
data_La4Pb3
_symmetry_space_group_name_H-M   'P 1'
_cell_length_a   8.59609546
_cell_length_b   8.59609437
_cell_length_c   8.59609572
_cell_angle_alpha   109.47121885
_cell_angle_beta   109.47121629
_cell_angle_gamma   109.47122056
_symmetry_Int_Tables_number   1
_chemical_formula_structural   La4Pb3
_chemical_formula_sum   'La8 Pb6'
_cell_volume   488.96952221
_cell_formula_units_Z   2
loop_
 _symmetry_equiv_pos_site_id
 _symmetry_equiv_pos_as_xyz
  1  'x, y, z'
loop_
 _atom_site_type_symbol
 _atom_site_label
 _atom_site_symmetry_multiplicity
 _atom_site_fract_x
 _atom_site_fract_y
 _atom_site_fract_z
 _atom_site_occupancy
  La  La0  1  0.36278240  0.50000000  -0.00000000  1
  La  La1  1  0.86278240  0.50000000  -0.00000000  1
  La  La2  1  0.63721760  0.63721760  0.63721760  1
  La  La3  1  0.50000000  -0.00000000  0.36278240  1
  La  La4  1  0.13721760  0.13721760  0.13721760  1
  La  La5  1  0.00000000  0.86278240  0.50000000  1
  La  La6  1  0.50000000  -0.00000000  0.86278240  1
  La  La7  1  0.00000000  0.36278240  0.50000000  1
  Pb  Pb0  1  0.87500000  0.12500000  0.75000000  1
  Pb  Pb1  1  0.75000000  0.87500000  0.12500000  1
  Pb  Pb2  1  0.25000000  0.62500000  0.37500000  1
  Pb  Pb3  1  0.62500000  0.37500000  0.25000000  1
  Pb  Pb4  1  0.12500000  0.75000000  0.87500000  1
  Pb  Pb5  1  0.37500000  0.25000000  0.62500000  1
loop_
_geom_bond_atom_site_label_1
_geom_bond_atom_site_label_2
_geom_bond_distance
_geom_bond_site_symmetry_2
La0 Pb1 3.283044 1_555
La0 Pb3 3.283044 1_555
La0 Pb5 3.283044 1_554
La0 Pb4 3.599229 1_554
La0 Pb2 3.599229 1_555
La0 Pb0 3.599230 1_454
La1 Pb0 3.283044 1_554
La1 Pb4 3.283044 1_654
La1 Pb2 3.283044 1_655
La1 Pb1 3.599229 1_555
La1 Pb3 3.599229 1_555
La1 Pb5 3.599230 1_554
La2 Pb5 3.283044 1_555
La2 Pb3 3.283044 1_555
La2 Pb2 3.283044 1_555
La2 Pb0 3.599229 1_565
La2 Pb4 3.599230 1_655
La2 Pb1 3.599230 1_556
La3 Pb2 3.283044 1_545
La3 Pb5 3.283044 1_555
La3 Pb0 3.283044 1_555
La3 Pb3 3.599229 1_555
La3 Pb1 3.599229 1_545
La3 Pb4 3.599230 1_544
La4 Pb4 3.283044 1_544
La4 Pb1 3.283044 1_445
La4 Pb0 3.283044 1_454
La4 Pb2 3.599229 1_555
La4 Pb3 3.599230 1_555
La4 Pb5 3.599230 1_555
La5 Pb5 3.283044 1_565
La5 Pb0 3.283044 1_465
La5 Pb1 3.283044 1_455
La5 Pb2 3.599229 1_555
La5 Pb3 3.599229 1_455
La5 Pb4 3.599229 1_555
La6 Pb4 3.283044 1_545
La6 Pb3 3.283044 1_556
La6 Pb1 3.283044 1_546
La6 Pb5 3.599229 1_555
La6 Pb0 3.599229 1_555
La6 Pb2 3.599230 1_545
La7 Pb2 3.283044 1_555
La7 Pb4 3.283044 1_555
La7 Pb3 3.283044 1_455
La7 Pb0 3.599229 1_455
La7 Pb1 3.599229 1_445
La7 Pb5 3.599229 1_555
