# generated using pymatgen
data_CuAg3S2
_symmetry_space_group_name_H-M   'P 1'
_cell_length_a   8.58476113
_cell_length_b   8.58476113
_cell_length_c   8.58476113
_cell_angle_alpha   118.75590552
_cell_angle_beta   118.75590552
_cell_angle_gamma   92.16868964
_symmetry_Int_Tables_number   1
_chemical_formula_structural   CuAg3S2
_chemical_formula_sum   'Cu4 Ag12 S8'
_cell_volume   455.43251886
_cell_formula_units_Z   4
loop_
 _symmetry_equiv_pos_site_id
 _symmetry_equiv_pos_as_xyz
  1  'x, y, z'
loop_
 _atom_site_type_symbol
 _atom_site_label
 _atom_site_symmetry_multiplicity
 _atom_site_fract_x
 _atom_site_fract_y
 _atom_site_fract_z
 _atom_site_occupancy
  Cu  Cu0  1  0.34681100  0.34681100  0.00000000  1
  Cu  Cu1  1  0.09681100  0.59681100  0.50000000  1
  Cu  Cu2  1  0.40318900  0.90318900  0.50000000  1
  Cu  Cu3  1  0.65318900  0.65318900  0.00000000  1
  Ag  Ag0  1  0.43557500  0.93557500  0.87115000  1
  Ag  Ag1  1  0.68557500  0.31442500  0.00000000  1
  Ag  Ag2  1  0.31442500  0.68557500  0.00000000  1
  Ag  Ag3  1  0.06442500  0.56442500  0.12885000  1
  Ag  Ag4  1  0.31442500  0.31442500  0.62885000  1
  Ag  Ag5  1  0.06442500  0.93557500  0.50000000  1
  Ag  Ag6  1  0.43557500  0.56442500  0.50000000  1
  Ag  Ag7  1  0.68557500  0.68557500  0.37115000  1
  Ag  Ag8  1  0.37500000  0.12500000  0.25000000  1
  Ag  Ag9  1  0.87500000  0.12500000  0.25000000  1
  Ag  Ag10  1  0.87500000  0.62500000  0.75000000  1
  Ag  Ag11  1  0.87500000  0.12500000  0.75000000  1
  S  S0  1  0.66220500  0.41347200  0.75126800  1
  S  S1  1  0.66220500  0.91093700  0.24873200  1
  S  S2  1  0.58652800  0.33779500  0.24873200  1
  S  S3  1  0.66093700  0.91220500  0.74873200  1
  S  S4  1  0.16347200  0.91220500  0.25126800  1
  S  S5  1  0.08906300  0.33779500  0.75126800  1
  S  S6  1  0.08779500  0.33906300  0.25126800  1
  S  S7  1  0.08779500  0.83652800  0.74873200  1
loop_
_geom_bond_atom_site_label_1
_geom_bond_atom_site_label_2
_geom_bond_distance
_geom_bond_site_symmetry_2
Cu0 S5 2.177980 1_554
Cu0 S2 2.177984 1_555
Cu1 S6 2.177980 1_555
Cu1 S7 2.177984 1_555
Cu2 S3 2.177980 1_555
Cu2 S4 2.177984 1_555
Cu3 S1 2.177980 1_555
Cu3 S0 2.177984 1_554
Ag0 S7 2.582724 1_555
Ag0 S3 2.582725 1_555
Ag0 S2 2.993319 1_566
Ag0 S1 2.993320 1_556
Ag1 S2 2.582719 1_555
Ag1 S0 2.582719 1_554
Ag1 S6 2.993320 1_655
Ag1 S3 2.993320 1_544
Ag2 S5 2.582725 1_554
Ag2 S1 2.582725 1_555
Ag2 S4 2.993327 1_555
Ag2 S7 2.993327 1_554
Ag3 S4 2.582724 1_555
Ag3 S6 2.582725 1_555
Ag3 S0 2.993319 1_454
Ag3 S5 2.993320 1_554
Ag4 S0 2.582724 1_555
Ag4 S5 2.582725 1_555
Ag4 S4 2.993319 1_545
Ag4 S6 2.993320 1_555
Ag5 S7 2.582719 1_555
Ag5 S4 2.582719 1_555
Ag5 S5 2.993320 1_565
Ag5 S1 2.993320 1_455
Ag6 S3 2.582725 1_555
Ag6 S6 2.582725 1_555
Ag6 S0 2.993327 1_555
Ag6 S2 2.993327 1_555
Ag7 S2 2.582724 1_555
Ag7 S1 2.582725 1_555
Ag7 S7 2.993319 1_655
Ag7 S3 2.993320 1_555
Ag8 S2 2.534154 1_555
Ag8 S4 2.534154 1_545
Ag8 S0 3.131420 1_555
Ag8 S7 3.131420 1_544
Ag8 S1 3.131421 1_545
Ag8 S6 3.131421 1_555
Ag9 S1 2.534148 1_545
Ag9 S6 2.534148 1_655
Ag9 S4 3.131414 1_645
Ag9 S2 3.131414 1_555
Ag9 S5 3.131421 1_655
Ag9 S3 3.131421 1_544
Ag10 S7 2.534154 1_655
Ag10 S0 2.534154 1_555
Ag10 S4 3.131420 1_656
Ag10 S2 3.131420 1_555
Ag10 S3 3.131421 1_555
Ag10 S5 3.131421 1_655
Ag11 S5 2.534148 1_655
Ag11 S3 2.534148 1_545
Ag11 S0 3.131414 1_555
Ag11 S7 3.131414 1_645
Ag11 S6 3.131421 1_656
Ag11 S1 3.131421 1_545
