# generated using pymatgen
data_ThB4Mo
_symmetry_space_group_name_H-M   'P 1'
_cell_length_a   3.78899246
_cell_length_b   6.10007671
_cell_length_c   6.10007634
_cell_angle_alpha   104.19542794
_cell_angle_beta   90.00000000
_cell_angle_gamma   90.00000000
_symmetry_Int_Tables_number   1
_chemical_formula_structural   ThB4Mo
_chemical_formula_sum   'Th2 B8 Mo2'
_cell_volume   136.68674665
_cell_formula_units_Z   2
loop_
 _symmetry_equiv_pos_site_id
 _symmetry_equiv_pos_as_xyz
  1  'x, y, z'
loop_
 _atom_site_type_symbol
 _atom_site_label
 _atom_site_symmetry_multiplicity
 _atom_site_fract_x
 _atom_site_fract_y
 _atom_site_fract_z
 _atom_site_occupancy
  Th  Th0  1  -0.00000000  0.69841542  0.30158458  1
  Th  Th1  1  0.00000000  0.30158458  0.69841542  1
  B  B0  1  0.50000000  0.91023141  0.08976859  1
  B  B1  1  0.50000000  0.08976859  0.91023141  1
  B  B2  1  0.50000000  0.62917954  0.62917954  1
  B  B3  1  0.50000000  0.37082046  0.37082046  1
  B  B4  1  0.50000000  0.37657986  0.06502493  1
  B  B5  1  0.50000000  0.62342014  0.93497507  1
  B  B6  1  0.50000000  0.06502493  0.37657986  1
  B  B7  1  0.50000000  0.93497507  0.62342014  1
  Mo  Mo0  1  0.00000000  0.82908661  0.82908661  1
  Mo  Mo1  1  0.00000000  0.17091339  0.17091339  1
loop_
_geom_bond_atom_site_label_1
_geom_bond_atom_site_label_2
_geom_bond_distance
_geom_bond_site_symmetry_2
B0 B1 1.728341 1_564
B0 B6 1.772668 1_565
B0 B5 1.772668 1_554
B0 Mo0 2.444739 1_654
B0 Mo0 2.444739 1_554
B0 Mo1 2.444739 1_565
B0 Mo1 2.444739 1_665
B0 Th0 2.783335 1_555
B0 Th0 2.783335 1_655
B1 B7 1.772668 1_545
B1 B4 1.772668 1_556
B1 Mo1 2.444739 1_556
B1 Mo1 2.444739 1_656
B1 Mo0 2.444739 1_645
B1 Mo0 2.444739 1_545
B1 Th1 2.783335 1_555
B1 Th1 2.783335 1_655
B2 B5 1.874301 1_555
B2 B7 1.874301 1_555
B2 B3 1.936339 1_555
B2 Mo0 2.415343 1_655
B2 Mo0 2.415343 1_555
B2 Th0 2.859170 1_555
B2 Th0 2.859170 1_655
B2 Th1 2.859170 1_655
B2 Th1 2.859170 1_555
B3 B4 1.874301 1_555
B3 B6 1.874301 1_555
B3 Mo1 2.415343 1_555
B3 Mo1 2.415343 1_655
B3 Th1 2.859170 1_555
B3 Th1 2.859170 1_655
B3 Th0 2.859170 1_555
B3 Th0 2.859170 1_655
B4 B5 1.866141 1_554
B4 Mo1 2.444947 1_655
B4 Mo1 2.444947 1_555
B4 Th0 2.852407 1_555
B4 Th0 2.852407 1_655
B4 Th1 2.880602 1_654
B4 Th1 2.880602 1_554
B5 Mo0 2.444947 1_555
B5 Mo0 2.444947 1_655
B5 Th1 2.852407 1_555
B5 Th1 2.852407 1_655
B5 Th0 2.880602 1_656
B5 Th0 2.880602 1_556
B6 B7 1.866141 1_545
B6 Mo1 2.444947 1_555
B6 Mo1 2.444947 1_655
B6 Th1 2.852407 1_655
B6 Th1 2.852407 1_555
B6 Th0 2.880602 1_645
B6 Th0 2.880602 1_545
B7 Mo0 2.444947 1_655
B7 Mo0 2.444947 1_555
B7 Th0 2.852407 1_555
B7 Th0 2.852407 1_655
B7 Th1 2.880602 1_665
B7 Th1 2.880602 1_565
Mo0 Mo1 2.561909 1_566
Mo0 Th0 3.119557 1_555
Mo0 Th1 3.119557 1_555
Mo0 Th0 3.173278 1_556
Mo0 Th1 3.173278 1_565
Mo1 Th1 3.119557 1_555
Mo1 Th0 3.119557 1_555
Mo1 Th1 3.173278 1_554
Mo1 Th0 3.173278 1_545
