# generated using pymatgen
data_ErCu3Se2ClO8
_symmetry_space_group_name_H-M   'P 1'
_cell_length_a   6.34615900
_cell_length_b   7.03120900
_cell_length_c   9.52196900
_cell_angle_alpha   90.00000000
_cell_angle_beta   90.00000000
_cell_angle_gamma   90.00000000
_symmetry_Int_Tables_number   1
_chemical_formula_structural   ErCu3Se2ClO8
_chemical_formula_sum   'Er2 Cu6 Se4 Cl2 O16'
_cell_volume   424.88140011
_cell_formula_units_Z   2
loop_
 _symmetry_equiv_pos_site_id
 _symmetry_equiv_pos_as_xyz
  1  'x, y, z'
loop_
 _atom_site_type_symbol
 _atom_site_label
 _atom_site_symmetry_multiplicity
 _atom_site_fract_x
 _atom_site_fract_y
 _atom_site_fract_z
 _atom_site_occupancy
  Er  Er0  1  0.50000000  0.26572900  0.50000000  1
  Er  Er1  1  0.00000000  0.73427100  0.00000000  1
  Cu  Cu0  1  0.75000000  0.00000000  0.25000000  1
  Cu  Cu1  1  0.25000000  0.00000000  0.75000000  1
  Cu  Cu2  1  0.25000000  0.00000000  0.25000000  1
  Cu  Cu3  1  0.50000000  0.79445400  0.50000000  1
  Cu  Cu4  1  0.00000000  0.20554600  0.00000000  1
  Cu  Cu5  1  0.75000000  0.00000000  0.75000000  1
  Se  Se0  1  0.00000000  0.41207000  0.68853700  1
  Se  Se1  1  0.50000000  0.58793000  0.81146300  1
  Se  Se2  1  0.50000000  0.58793000  0.18853700  1
  Se  Se3  1  0.00000000  0.41207000  0.31146300  1
  Cl  Cl0  1  0.00000000  0.85070800  0.50000000  1
  Cl  Cl1  1  0.50000000  0.14929200  0.00000000  1
  O  O0  1  0.28635900  0.73806000  0.83951600  1
  O  O1  1  0.00000000  0.42727600  0.87035700  1
  O  O2  1  0.00000000  0.00123300  0.86257400  1
  O  O3  1  0.78635900  0.26194000  0.66048400  1
  O  O4  1  0.50000000  0.57272400  0.37035700  1
  O  O5  1  0.00000000  0.00123300  0.13742600  1
  O  O6  1  0.71364100  0.73806000  0.83951600  1
  O  O7  1  0.21364100  0.26194000  0.33951600  1
  O  O8  1  0.50000000  0.99876700  0.36257400  1
  O  O9  1  0.71364100  0.73806000  0.16048400  1
  O  O10  1  0.50000000  0.99876700  0.63742600  1
  O  O11  1  0.21364100  0.26194000  0.66048400  1
  O  O12  1  0.28635900  0.73806000  0.16048400  1
  O  O13  1  0.50000000  0.57272400  0.62964300  1
  O  O14  1  0.78635900  0.26194000  0.33951600  1
  O  O15  1  0.00000000  0.42727600  0.12964300  1
loop_
_geom_bond_atom_site_label_1
_geom_bond_atom_site_label_2
_geom_bond_distance
_geom_bond_site_symmetry_2
Er0 O10 2.288170 1_545
Er0 O8 2.288170 1_545
Er0 O3 2.374527 1_555
Er0 O14 2.374527 1_555
Er0 O11 2.374527 1_555
Er0 O7 2.374527 1_555
Er0 O13 2.486605 1_555
Er0 O4 2.486605 1_555
Er1 O5 2.288170 1_565
Er1 O2 2.288170 1_564
Er1 O12 2.374527 1_555
Er1 O9 2.374527 1_455
Er1 O0 2.374527 1_554
Er1 O6 2.374527 1_454
Er1 O15 2.486605 1_555
Er1 O1 2.486605 1_554
Cu0 O5 1.914735 1_655
Cu0 O8 1.914735 1_545
Cu0 O14 2.042507 1_555
Cu0 O9 2.042507 1_545
Cu1 O2 1.914735 1_555
Cu1 O10 1.914735 1_545
Cu1 O0 2.042507 1_545
Cu1 O11 2.042507 1_555
Cu2 O5 1.914735 1_555
Cu2 O8 1.914735 1_545
Cu2 O12 2.042507 1_545
Cu2 O7 2.042507 1_555
Cu3 O10 1.943212 1_555
Cu3 O8 1.943212 1_555
Cu3 O13 1.988582 1_555
Cu3 O4 1.988582 1_555
Cu4 O5 1.943212 1_555
Cu4 O2 1.943212 1_554
Cu4 O15 1.988582 1_555
Cu4 O1 1.988582 1_554
Cu5 O2 1.914735 1_655
Cu5 O10 1.914735 1_545
Cu5 O6 2.042507 1_545
Cu5 O3 2.042507 1_555
Cl0 Cu0 3.047249 1_465
Cl0 Cu2 3.047249 1_565
Cl0 Cu1 3.047249 1_565
Cl0 Cu5 3.047249 1_465
Cl1 Cu2 3.047249 1_555
Cl1 Cu5 3.047249 1_554
Cl1 Cu1 3.047249 1_554
Cl1 Cu0 3.047249 1_555
O0 Se1 1.738916 1_555
O1 Se0 1.734583 1_555
O3 Se0 1.738916 1_655
O4 Se2 1.734583 1_555
O6 Se1 1.738916 1_555
O7 Se3 1.738916 1_555
O9 Se2 1.738916 1_555
O11 Se0 1.738916 1_555
O12 Se2 1.738916 1_555
O13 Se1 1.734583 1_555
O14 Se3 1.738916 1_655
O15 Se3 1.734583 1_555
