# generated using pymatgen
data_Ba4B2N4O
_symmetry_space_group_name_H-M   'P 1'
_cell_length_a   8.76928920
_cell_length_b   8.76928920
_cell_length_c   7.41952400
_cell_angle_alpha   90.00000000
_cell_angle_beta   90.00000000
_cell_angle_gamma   130.19403287
_symmetry_Int_Tables_number   1
_chemical_formula_structural   Ba4B2N4O
_chemical_formula_sum   'Ba8 B4 N8 O2'
_cell_volume   435.83333390
_cell_formula_units_Z   2
loop_
 _symmetry_equiv_pos_site_id
 _symmetry_equiv_pos_as_xyz
  1  'x, y, z'
loop_
 _atom_site_type_symbol
 _atom_site_label
 _atom_site_symmetry_multiplicity
 _atom_site_fract_x
 _atom_site_fract_y
 _atom_site_fract_z
 _atom_site_occupancy
  Ba  Ba0  1  0.32573400  0.67426600  0.50000000  1
  Ba  Ba1  1  0.69319400  0.69319400  0.19320900  1
  Ba  Ba2  1  0.30680600  0.30680600  0.80679100  1
  Ba  Ba3  1  0.19319400  0.19319400  0.30679100  1
  Ba  Ba4  1  0.82573400  0.17426600  0.00000000  1
  Ba  Ba5  1  0.67426600  0.32573400  0.50000000  1
  Ba  Ba6  1  0.80680600  0.80680600  0.69320900  1
  Ba  Ba7  1  0.17426600  0.82573400  0.00000000  1
  B  B0  1  0.36267400  0.63732600  0.00000000  1
  B  B1  1  0.63732600  0.36267400  0.00000000  1
  B  B2  1  0.13732600  0.86267400  0.50000000  1
  B  B3  1  0.86267400  0.13732600  0.50000000  1
  N  N0  1  0.99490400  0.26317400  0.62853100  1
  N  N1  1  0.76317400  0.49490400  0.87146900  1
  N  N2  1  0.49490400  0.76317400  0.87146900  1
  N  N3  1  0.50509600  0.23682500  0.12853100  1
  N  N4  1  0.00509600  0.73682500  0.37146900  1
  N  N5  1  0.26317400  0.99490400  0.62853100  1
  N  N6  1  0.73682600  0.00509600  0.37146900  1
  N  N7  1  0.23682600  0.50509600  0.12853100  1
  O  O0  1  0.50000000  0.50000000  0.50000000  1
  O  O1  1  0.00000000  0.00000000  0.00000000  1
loop_
_geom_bond_atom_site_label_1
_geom_bond_atom_site_label_2
_geom_bond_distance
_geom_bond_site_symmetry_2
Ba0 O0 2.772202 1_555
Ba0 N0 2.970269 1_455
Ba0 N6 2.970269 1_565
Ba0 N2 2.985287 1_555
Ba0 N7 2.985287 1_555
Ba0 N4 3.332784 1_555
Ba0 N5 3.332791 1_555
Ba1 O1 2.681218 1_665
Ba1 O0 2.686442 1_555
Ba1 N6 2.833012 1_565
Ba1 N4 2.833017 1_655
Ba2 O1 2.681218 1_556
Ba2 O0 2.686442 1_555
Ba2 N5 2.833012 1_545
Ba2 N0 2.833012 1_455
Ba3 O0 2.681218 1_555
Ba3 O1 2.686442 1_555
Ba3 N7 2.833012 1_555
Ba3 N3 2.833017 1_555
Ba4 O1 2.772202 1_655
Ba4 N7 2.970269 1_655
Ba4 N2 2.970269 1_544
Ba4 N0 2.985287 1_554
Ba4 N6 2.985287 1_555
Ba4 N3 3.332784 1_555
Ba4 N1 3.332791 1_554
Ba5 O0 2.772202 1_555
Ba5 N4 2.970264 1_655
Ba5 N5 2.970269 1_545
Ba5 N3 2.985286 1_555
Ba5 N1 2.985287 1_555
Ba5 N6 3.332791 1_555
Ba5 N0 3.332791 1_555
Ba6 O0 2.681218 1_555
Ba6 O1 2.686442 1_666
Ba6 N2 2.833012 1_555
Ba6 N1 2.833012 1_555
Ba7 O1 2.772202 1_565
Ba7 N3 2.970264 1_565
Ba7 N1 2.970269 1_454
Ba7 N4 2.985286 1_555
Ba7 N5 2.985287 1_554
Ba7 N2 3.332791 1_554
Ba7 N7 3.332791 1_555
B0 N7 1.349137 1_555
B0 N2 1.349137 1_554
B0 Ba7 2.997171 1_555
B1 N1 1.349137 1_554
B1 N3 1.349140 1_555
B1 Ba4 2.997171 1_555
B2 N5 1.349137 1_555
B2 N4 1.349140 1_555
B2 Ba0 2.997171 1_555
B3 N0 1.349137 1_555
B3 N6 1.349137 1_555
B3 Ba5 2.997171 1_555
