# generated using pymatgen
data_Ba2La2Mg2TiWO12
_symmetry_space_group_name_H-M   'P 1'
_cell_length_a   5.68911500
_cell_length_b   5.68927733
_cell_length_c   27.86159912
_cell_angle_alpha   90.00466563
_cell_angle_beta   89.99974089
_cell_angle_gamma   119.99902708
_symmetry_Int_Tables_number   1
_chemical_formula_structural   Ba2La2Mg2TiWO12
_chemical_formula_sum   'Ba6 La6 Mg6 Ti3 W3 O36'
_cell_volume   780.98509194
_cell_formula_units_Z   3
loop_
 _symmetry_equiv_pos_site_id
 _symmetry_equiv_pos_as_xyz
  1  'x, y, z'
loop_
 _atom_site_type_symbol
 _atom_site_label
 _atom_site_symmetry_multiplicity
 _atom_site_fract_x
 _atom_site_fract_y
 _atom_site_fract_z
 _atom_site_occupancy
  Ba  Ba0  1  0.33283200  0.66619700  0.21517500  1
  Ba  Ba1  1  0.66667400  0.33334600  0.04323700  1
  Ba  Ba2  1  0.99994800  0.99996000  0.87204700  1
  Ba  Ba3  1  0.00005200  0.00004000  0.12795300  1
  Ba  Ba4  1  0.33332600  0.66665400  0.95676300  1
  Ba  Ba5  1  0.66716800  0.33380300  0.78482500  1
  La  La0  1  0.33467600  0.66800700  0.69654900  1
  La  La1  1  0.66705900  0.33343700  0.53932900  1
  La  La2  1  0.99762600  0.99772100  0.37610800  1
  La  La3  1  0.00237400  0.00227900  0.62389200  1
  La  La4  1  0.33294100  0.66656300  0.46067100  1
  La  La5  1  0.66532400  0.33199300  0.30345100  1
  Mg  Mg0  1  0.99936600  0.99938400  0.25522300  1
  Mg  Mg1  1  0.33342600  0.66676500  0.08587500  1
  Mg  Mg2  1  0.00063400  0.00061600  0.74477700  1
  Mg  Mg3  1  0.66657400  0.33323500  0.91412500  1
  Mg  Mg4  1  0.66597300  0.33270200  0.41986700  1
  Mg  Mg5  1  0.33402700  0.66729800  0.58013300  1
  Ti  Ti0  1  0.66824700  0.33495500  0.66271800  1
  Ti  Ti1  1  0.00000000  0.00000000  0.50000000  1
  Ti  Ti2  1  0.33175300  0.66504500  0.33728200  1
  W  W0  1  0.66658800  0.33325200  0.17154500  1
  W  W1  1  0.00000000  0.00000000  0.00000000  1
  W  W2  1  0.33341200  0.66674800  0.82845500  1
  O  O0  1  0.98775700  0.49401300  0.13078000  1
  O  O1  1  0.82482200  0.65005000  0.21279300  1
  O  O2  1  0.82487900  0.17425500  0.21269500  1
  O  O3  1  0.50640500  0.49404200  0.13073600  1
  O  O4  1  0.50633700  0.01249000  0.13068400  1
  O  O5  1  0.34884200  0.17419300  0.21262800  1
  O  O6  1  0.32094300  0.16041700  0.95928200  1
  O  O7  1  0.16045400  0.32094200  0.04074000  1
  O  O8  1  0.16039800  0.83955000  0.04074000  1
  O  O9  1  0.83960200  0.16045000  0.95926000  1
  O  O10  1  0.83954600  0.67905800  0.95926000  1
  O  O11  1  0.67905700  0.83958300  0.04071800  1
  O  O12  1  0.65115800  0.82580700  0.78737200  1
  O  O13  1  0.49366300  0.98751000  0.86931600  1
  O  O14  1  0.49359500  0.50595800  0.86926400  1
  O  O15  1  0.17512100  0.82574500  0.78730500  1
  O  O16  1  0.17517800  0.34995000  0.78720700  1
  O  O17  1  0.01224300  0.50598700  0.86922000  1
  O  O18  1  0.99785600  0.49982300  0.62268900  1
  O  O19  1  0.83555300  0.66991500  0.70010600  1
  O  O20  1  0.83604500  0.16645200  0.69989900  1
  O  O21  1  0.50317400  0.49963400  0.62260500  1
  O  O22  1  0.50321200  0.00562200  0.62240400  1
  O  O23  1  0.33099500  0.16619100  0.69980100  1
  O  O24  1  0.16407700  0.32834200  0.53942300  1
  O  O25  1  0.32857800  0.16426600  0.46079800  1
  O  O26  1  0.16416400  0.83557000  0.53927700  1
  O  O27  1  0.83583600  0.16443000  0.46072300  1
  O  O28  1  0.83592300  0.67165800  0.46057700  1
  O  O29  1  0.67142200  0.83573400  0.53920200  1
  O  O30  1  0.49678800  0.99437800  0.37759600  1
  O  O31  1  0.66900500  0.83380900  0.30019900  1
  O  O32  1  0.49682600  0.50036600  0.37739500  1
  O  O33  1  0.16395500  0.83354800  0.30010100  1
  O  O34  1  0.16444700  0.33008500  0.29989400  1
  O  O35  1  0.00214400  0.50017700  0.37731100  1
loop_
_geom_bond_atom_site_label_1
_geom_bond_atom_site_label_2
_geom_bond_distance
_geom_bond_site_symmetry_2
Ba0 O1 2.846083 1_455
Ba0 O2 2.846266 1_455
Ba0 O5 2.846574 1_565
Ba0 O5 2.846660 1_555
Ba0 O1 2.846804 1_555
Ba0 O2 2.846879 1_565
Ba0 O34 2.883535 1_555
Ba0 O33 2.888370 1_555
Ba0 O31 2.890461 1_555
Ba0 O0 2.901593 1_455
Ba0 O3 2.904464 1_555
Ba0 O4 2.907491 1_565
Ba1 O11 2.845892 1_545
Ba1 O8 2.845958 1_655
Ba1 O7 2.845962 1_655
Ba1 O7 2.846167 1_555
Ba1 O8 2.846352 1_545
Ba1 O11 2.846425 1_555
Ba1 O6 2.893569 1_554
Ba1 O10 2.894221 1_554
Ba1 O9 2.894323 1_554
Ba1 O4 2.904485 1_555
Ba1 O3 2.905781 1_555
Ba1 O0 2.907136 1_555
Ba2 O14 2.845346 1_665
Ba2 O17 2.845697 1_665
Ba2 O13 2.845894 1_655
Ba2 O13 2.846577 1_555
Ba2 O17 2.847050 1_655
Ba2 O14 2.847348 1_555
Ba2 O9 2.898752 1_565
Ba2 O10 2.899141 1_555
Ba2 O6 2.899704 1_665
Ba2 O12 2.918657 1_555
Ba2 O15 2.921891 1_655
Ba2 O16 2.926069 1_665
Ba3 O3 2.845346 1_445
Ba3 O0 2.845697 1_445
Ba3 O4 2.845894 1_455
Ba3 O4 2.846577 1_555
Ba3 O0 2.847050 1_455
Ba3 O3 2.847348 1_555
Ba3 O8 2.898752 1_545
Ba3 O7 2.899141 1_555
Ba3 O11 2.899704 1_445
Ba3 O5 2.918657 1_555
Ba3 O2 2.921891 1_455
Ba3 O1 2.926069 1_445
Ba4 O6 2.845892 1_565
Ba4 O9 2.845958 1_455
Ba4 O10 2.845962 1_455
Ba4 O10 2.846167 1_555
Ba4 O9 2.846352 1_565
Ba4 O6 2.846425 1_555
Ba4 O11 2.893569 1_556
Ba4 O7 2.894221 1_556
Ba4 O8 2.894323 1_556
Ba4 O13 2.904485 1_555
Ba4 O14 2.905781 1_555
Ba4 O17 2.907136 1_555
Ba5 O16 2.846083 1_655
Ba5 O15 2.846266 1_655
Ba5 O12 2.846574 1_545
Ba5 O12 2.846660 1_555
Ba5 O16 2.846804 1_555
Ba5 O15 2.846879 1_545
Ba5 O19 2.883535 1_555
Ba5 O20 2.888370 1_555
Ba5 O23 2.890461 1_555
Ba5 O17 2.901593 1_655
Ba5 O14 2.904464 1_555
Ba5 O13 2.907491 1_545
La0 O18 2.643565 1_455
La0 O21 2.645534 1_555
La0 O22 2.652408 1_565
La0 O20 2.845671 1_565
La0 O19 2.845862 1_555
La0 O23 2.846008 1_555
La0 O23 2.846270 1_565
La0 O19 2.846736 1_455
La0 O20 2.846744 1_455
La0 O12 2.972269 1_555
La0 O16 2.972640 1_555
La0 O15 2.972771 1_555
La1 O27 2.750610 1_555
La1 O25 2.751038 1_555
La1 O28 2.755368 1_555
La1 O22 2.822565 1_555
La1 O21 2.833349 1_555
La1 O18 2.837296 1_555
La1 O24 2.842198 1_655
La1 O26 2.842582 1_655
La1 O29 2.844064 1_545
La1 O29 2.845380 1_555
La1 O26 2.846915 1_545
La1 O24 2.847141 1_555
La2 O31 2.663497 1_555
La2 O33 2.671300 1_655
La2 O34 2.681674 1_665
La2 O32 2.839671 1_555
La2 O30 2.840166 1_555
La2 O35 2.843805 1_655
La2 O35 2.846042 1_665
La2 O28 2.849637 1_555
La2 O30 2.849649 1_655
La2 O32 2.850162 1_665
La2 O27 2.859583 1_565
La2 O25 2.868143 1_665
La3 O23 2.663497 1_555
La3 O20 2.671300 1_455
La3 O19 2.681674 1_445
La3 O21 2.839671 1_555
La3 O22 2.840166 1_555
La3 O18 2.843805 1_455
La3 O18 2.846042 1_445
La3 O24 2.849637 1_555
La3 O22 2.849649 1_455
La3 O21 2.850162 1_445
La3 O26 2.859583 1_545
La3 O29 2.868143 1_445
La4 O26 2.750610 1_555
La4 O29 2.751038 1_555
La4 O24 2.755368 1_555
La4 O30 2.822565 1_555
La4 O32 2.833349 1_555
La4 O35 2.837296 1_555
La4 O28 2.842198 1_455
La4 O27 2.842582 1_455
La4 O25 2.844064 1_565
La4 O25 2.845380 1_555
La4 O27 2.846915 1_565
La4 O28 2.847141 1_555
La5 O35 2.643565 1_655
La5 O32 2.645534 1_555
La5 O30 2.652408 1_545
La5 O33 2.845671 1_545
La5 O34 2.845862 1_555
La5 O31 2.846008 1_555
La5 O31 2.846270 1_545
La5 O34 2.846736 1_655
La5 O33 2.846744 1_655
La5 O5 2.972269 1_555
La5 O1 2.972640 1_555
La5 O2 2.972771 1_555
Mg0 O34 2.050272 1_665
Mg0 O33 2.052805 1_655
Mg0 O31 2.054210 1_555
Mg0 O1 2.087989 1_555
Mg0 O2 2.089730 1_565
Mg0 O5 2.091261 1_665
Mg1 O4 2.111846 1_565
Mg1 O3 2.112714 1_555
Mg1 O0 2.113301 1_455
Mg1 O11 2.117315 1_555
Mg1 O7 2.117616 1_555
Mg1 O8 2.117679 1_555
Mg2 O19 2.050272 1_445
Mg2 O20 2.052805 1_455
Mg2 O23 2.054210 1_555
Mg2 O16 2.087989 1_555
Mg2 O15 2.089730 1_545
Mg2 O12 2.091261 1_445
Mg3 O13 2.111846 1_545
Mg3 O14 2.112714 1_555
Mg3 O17 2.113301 1_655
Mg3 O6 2.117315 1_555
Mg3 O10 2.117616 1_555
Mg3 O9 2.117679 1_555
Mg4 O25 2.015945 1_555
Mg4 O27 2.017784 1_555
Mg4 O28 2.018741 1_555
Mg4 O35 2.036995 1_655
Mg4 O32 2.038208 1_555
Mg4 O30 2.040945 1_545
Mg5 O29 2.015945 1_555
Mg5 O26 2.017784 1_555
Mg5 O24 2.018741 1_555
Mg5 O18 2.036995 1_455
Mg5 O21 2.038208 1_555
Mg5 O22 2.040945 1_565
O0 W0 1.947844 1_555
O1 W0 1.938251 1_555
O2 W0 1.938674 1_555
O3 W0 1.947783 1_555
O4 W0 1.947691 1_555
O5 W0 1.939385 1_555
O6 W1 1.946176 1_556
O7 W1 1.946443 1_555
O8 W1 1.946160 1_565
O9 W1 1.946160 1_656
O10 W1 1.946443 1_666
O11 W1 1.946176 1_665
O12 W2 1.939385 1_555
O13 W2 1.947691 1_555
O14 W2 1.947783 1_555
O15 W2 1.938674 1_555
O16 W2 1.938251 1_555
O17 W2 1.947844 1_555
O18 Ti0 1.970094 1_555
O19 Ti0 1.951556 1_555
O20 Ti0 1.954167 1_555
O21 Ti0 1.972007 1_555
O22 Ti0 1.973398 1_555
O23 Ti0 1.956691 1_555
O24 Ti1 1.955334 1_555
O25 Ti1 1.952928 1_555
O26 Ti1 1.954170 1_565
O27 Ti1 1.954170 1_655
O28 Ti1 1.955334 1_665
O29 Ti1 1.952928 1_665
O30 Ti2 1.973398 1_555
O31 Ti2 1.956691 1_555
O32 Ti2 1.972007 1_555
O33 Ti2 1.954167 1_555
O34 Ti2 1.951556 1_555
O35 Ti2 1.970094 1_555
