# generated using pymatgen
data_VCuAgO4
_symmetry_space_group_name_H-M   'P 1'
_cell_length_a   5.44235400
_cell_length_b   6.92786100
_cell_length_c   9.28718700
_cell_angle_alpha   90.00000000
_cell_angle_beta   90.00000000
_cell_angle_gamma   90.00000000
_symmetry_Int_Tables_number   1
_chemical_formula_structural   VCuAgO4
_chemical_formula_sum   'V4 Cu4 Ag4 O16'
_cell_volume   350.16291012
_cell_formula_units_Z   4
loop_
 _symmetry_equiv_pos_site_id
 _symmetry_equiv_pos_as_xyz
  1  'x, y, z'
loop_
 _atom_site_type_symbol
 _atom_site_label
 _atom_site_symmetry_multiplicity
 _atom_site_fract_x
 _atom_site_fract_y
 _atom_site_fract_z
 _atom_site_occupancy
  V  V0  1  0.93062300  0.75000000  0.30980100  1
  V  V1  1  0.43062300  0.25000000  0.19019900  1
  V  V2  1  0.06937700  0.25000000  0.69019900  1
  V  V3  1  0.56937700  0.75000000  0.80980100  1
  Cu  Cu0  1  0.50000000  0.00000000  0.50000000  1
  Cu  Cu1  1  0.00000000  0.00000000  0.00000000  1
  Cu  Cu2  1  0.50000000  0.50000000  0.50000000  1
  Cu  Cu3  1  0.00000000  0.50000000  0.00000000  1
  Ag  Ag0  1  0.47300200  0.75000000  0.13828900  1
  Ag  Ag1  1  0.97300200  0.25000000  0.36171100  1
  Ag  Ag2  1  0.52699800  0.25000000  0.86171100  1
  Ag  Ag3  1  0.02699800  0.75000000  0.63828900  1
  O  O0  1  0.91737900  0.75000000  0.11020400  1
  O  O1  1  0.41737900  0.25000000  0.38979600  1
  O  O2  1  0.08262100  0.25000000  0.88979600  1
  O  O3  1  0.58262100  0.75000000  0.61020400  1
  O  O4  1  0.72809700  0.25000000  0.13082700  1
  O  O5  1  0.22809700  0.75000000  0.36917300  1
  O  O6  1  0.27190300  0.75000000  0.86917300  1
  O  O7  1  0.77190300  0.25000000  0.63082700  1
  O  O8  1  0.77652400  0.54590200  0.37514500  1
  O  O9  1  0.27652400  0.45409800  0.12485500  1
  O  O10  1  0.22347600  0.04590200  0.62485500  1
  O  O11  1  0.72347600  0.95409800  0.87514500  1
  O  O12  1  0.22347600  0.45409800  0.62485500  1
  O  O13  1  0.72347600  0.54590200  0.87514500  1
  O  O14  1  0.77652400  0.95409800  0.37514500  1
  O  O15  1  0.27652400  0.04590200  0.12485500  1
loop_
_geom_bond_atom_site_label_1
_geom_bond_atom_site_label_2
_geom_bond_distance
_geom_bond_site_symmetry_2
Cu0 O10 1.926275 1_555
Cu0 O14 1.926275 1_545
Cu0 O3 2.061410 1_545
Cu0 O1 2.061410 1_555
Cu0 O5 2.581811 1_545
Cu0 O7 2.581811 1_555
Cu1 O15 1.926275 1_555
Cu1 O11 1.926275 1_444
Cu1 O0 2.061410 1_445
Cu1 O2 2.061410 1_554
Cu1 O4 2.581811 1_455
Cu1 O6 2.581811 1_544
Cu2 O12 1.926275 1_555
Cu2 O8 1.926275 1_555
Cu2 O3 2.061410 1_555
Cu2 O1 2.061410 1_555
Cu2 O7 2.581811 1_555
Cu2 O5 2.581811 1_555
Cu3 O9 1.926275 1_555
Cu3 O13 1.926275 1_454
Cu3 O0 2.061410 1_455
Cu3 O2 2.061410 1_554
Cu3 O6 2.581811 1_554
Cu3 O4 2.581811 1_455
Ag0 O15 2.315457 1_565
Ag0 O9 2.315457 1_555
Ag0 O0 2.432482 1_555
Ag0 O5 2.524753 1_555
Ag0 O6 2.728457 1_554
Ag1 O14 2.315457 1_545
Ag1 O8 2.315457 1_555
Ag1 O1 2.432482 1_655
Ag1 O4 2.524753 1_555
Ag1 O7 2.728457 1_555
Ag2 O11 2.315457 1_545
Ag2 O13 2.315457 1_555
Ag2 O2 2.432482 1_555
Ag2 O7 2.524753 1_555
Ag2 O4 2.728457 1_556
Ag3 O10 2.315457 1_565
Ag3 O12 2.315457 1_555
Ag3 O3 2.432482 1_455
Ag3 O6 2.524753 1_555
Ag3 O5 2.728457 1_555
O0 V0 1.855095 1_555
O1 V1 1.855095 1_555
O2 V2 1.855095 1_555
O3 V3 1.855095 1_555
O4 V1 1.710283 1_555
O5 V0 1.710283 1_455
O6 V3 1.710283 1_555
O7 V2 1.710283 1_655
O8 V0 1.752405 1_555
O9 V1 1.752405 1_555
O10 V2 1.752405 1_555
O11 V3 1.752405 1_555
O12 V2 1.752405 1_555
O13 V3 1.752405 1_555
O14 V0 1.752405 1_555
O15 V1 1.752405 1_555
