# generated using pymatgen
data_AgSbO3
_symmetry_space_group_name_H-M   'P 1'
_cell_length_a   7.27007979
_cell_length_b   7.27007979
_cell_length_c   7.27007979
_cell_angle_alpha   60.00000000
_cell_angle_beta   60.00000000
_cell_angle_gamma   60.00000000
_symmetry_Int_Tables_number   1
_chemical_formula_structural   AgSbO3
_chemical_formula_sum   'Ag4 Sb4 O12'
_cell_volume   271.70806795
_cell_formula_units_Z   4
loop_
 _symmetry_equiv_pos_site_id
 _symmetry_equiv_pos_as_xyz
  1  'x, y, z'
loop_
 _atom_site_type_symbol
 _atom_site_label
 _atom_site_symmetry_multiplicity
 _atom_site_fract_x
 _atom_site_fract_y
 _atom_site_fract_z
 _atom_site_occupancy
  Ag  Ag0  1  0.62500000  0.12500000  0.12500000  1
  Ag  Ag1  1  0.12500000  0.62500000  0.12500000  1
  Ag  Ag2  1  0.12500000  0.12500000  0.62500000  1
  Ag  Ag3  1  0.12500000  0.12500000  0.12500000  1
  Sb  Sb0  1  0.12500000  0.62500000  0.62500000  1
  Sb  Sb1  1  0.62500000  0.12500000  0.62500000  1
  Sb  Sb2  1  0.62500000  0.62500000  0.12500000  1
  Sb  Sb3  1  0.62500000  0.62500000  0.62500000  1
  O  O0  1  0.69956123  0.69956123  0.30043877  1
  O  O1  1  0.30043877  0.30043877  0.69956123  1
  O  O2  1  0.69956123  0.30043877  0.69956123  1
  O  O3  1  0.30043877  0.69956123  0.30043877  1
  O  O4  1  0.30043877  0.69956123  0.69956123  1
  O  O5  1  0.69956123  0.30043877  0.30043877  1
  O  O6  1  0.55043877  0.55043877  0.94956123  1
  O  O7  1  0.94956123  0.94956123  0.55043877  1
  O  O8  1  0.55043877  0.94956123  0.55043877  1
  O  O9  1  0.94956123  0.55043877  0.94956123  1
  O  O10  1  0.94956123  0.55043877  0.55043877  1
  O  O11  1  0.55043877  0.94956123  0.94956123  1
loop_
_geom_bond_atom_site_label_1
_geom_bond_atom_site_label_2
_geom_bond_distance
_geom_bond_site_symmetry_2
Ag0 O6 2.560653 1_554
Ag0 O0 2.560653 1_545
Ag0 O11 2.560653 1_544
Ag0 O8 2.560653 1_545
Ag0 O2 2.560653 1_554
Ag0 O5 2.560653 1_555
Ag1 O6 2.560653 1_554
Ag1 O4 2.560653 1_554
Ag1 O0 2.560653 1_455
Ag1 O10 2.560653 1_455
Ag1 O9 2.560653 1_454
Ag1 O3 2.560653 1_555
Ag2 O8 2.560653 1_545
Ag2 O2 2.560653 1_455
Ag2 O4 2.560653 1_545
Ag2 O10 2.560653 1_455
Ag2 O7 2.560653 1_445
Ag2 O1 2.560653 1_555
Ag3 O5 2.560653 1_455
Ag3 O11 2.560653 1_544
Ag3 O9 2.560653 1_454
Ag3 O3 2.560653 1_545
Ag3 O1 2.560653 1_554
Ag3 O7 2.560653 1_445
O0 Sb3 1.972574 1_555
O0 Sb2 1.972574 1_555
O1 Sb1 1.972574 1_555
O1 Sb0 1.972574 1_555
O2 Sb3 1.972574 1_555
O2 Sb1 1.972574 1_555
O3 Sb0 1.972574 1_555
O3 Sb2 1.972574 1_555
O4 Sb3 1.972574 1_555
O4 Sb0 1.972574 1_555
O5 Sb2 1.972574 1_555
O5 Sb1 1.972574 1_555
O6 Sb2 1.972574 1_556
O6 Sb3 1.972574 1_555
O7 Sb0 1.972574 1_655
O7 Sb1 1.972574 1_565
O8 Sb3 1.972574 1_555
O8 Sb1 1.972574 1_565
O9 Sb0 1.972574 1_655
O9 Sb2 1.972574 1_556
O10 Sb0 1.972574 1_655
O10 Sb3 1.972574 1_555
O11 Sb1 1.972574 1_565
O11 Sb2 1.972574 1_556
