# generated using pymatgen
data_MnNi(BiO3)2
_symmetry_space_group_name_H-M   'P 1'
_cell_length_a   5.44189000
_cell_length_b   5.66115800
_cell_length_c   7.76464566
_cell_angle_alpha   90.00001753
_cell_angle_beta   89.73725669
_cell_angle_gamma   89.99985550
_symmetry_Int_Tables_number   1
_chemical_formula_structural   MnNi(BiO3)2
_chemical_formula_sum   'Mn2 Ni2 Bi4 O12'
_cell_volume   239.20602259
_cell_formula_units_Z   2
loop_
 _symmetry_equiv_pos_site_id
 _symmetry_equiv_pos_as_xyz
  1  'x, y, z'
loop_
 _atom_site_type_symbol
 _atom_site_label
 _atom_site_symmetry_multiplicity
 _atom_site_fract_x
 _atom_site_fract_y
 _atom_site_fract_z
 _atom_site_occupancy
  Mn  Mn0  1  0.50001300  0.00000000  0.50000300  1
  Mn  Mn1  1  0.99998400  0.50001600  0.99999100  1
  Ni  Ni0  1  0.99999500  0.50000100  0.50000100  1
  Ni  Ni1  1  0.49999200  0.00000100  0.00000200  1
  Bi  Bi0  1  0.01001300  0.05656300  0.24995600  1
  Bi  Bi1  1  0.48998800  0.55656200  0.25004500  1
  Bi  Bi2  1  0.51001400  0.44343500  0.74995500  1
  Bi  Bi3  1  0.98998800  0.94343600  0.75004500  1
  O  O0  1  0.81125700  0.21167700  0.95505400  1
  O  O1  1  0.79099100  0.19318200  0.54352700  1
  O  O2  1  0.90911300  0.47360100  0.24221400  1
  O  O3  1  0.18874500  0.78832200  0.04494600  1
  O  O4  1  0.40911300  0.02639600  0.74221800  1
  O  O5  1  0.68874100  0.71167600  0.54494600  1
  O  O6  1  0.70901200  0.69318100  0.95647400  1
  O  O7  1  0.20901300  0.80681500  0.45647400  1
  O  O8  1  0.59088900  0.97360100  0.25778300  1
  O  O9  1  0.31125900  0.28832300  0.45505300  1
  O  O10  1  0.29099200  0.30681500  0.04352600  1
  O  O11  1  0.09088800  0.52639600  0.75778600  1
loop_
_geom_bond_atom_site_label_1
_geom_bond_atom_site_label_2
_geom_bond_distance
_geom_bond_site_symmetry_2
Mn0 O4 1.948224 1_555
Mn0 O8 1.948230 1_545
Mn0 O1 1.955131 1_555
Mn0 O7 1.955245 1_545
Mn0 O5 1.960636 1_545
Mn0 O9 1.960715 1_555
Mn1 O11 1.948148 1_655
Mn1 O2 1.948253 1_556
Mn1 O6 1.955037 1_555
Mn1 O10 1.955335 1_656
Mn1 O3 1.960667 1_656
Mn1 O0 1.960700 1_555
Ni0 O11 2.069422 1_655
Ni0 O2 2.069424 1_555
Ni0 O1 2.102696 1_555
Ni0 O5 2.102697 1_555
Ni0 O7 2.102715 1_655
Ni0 O9 2.102754 1_655
Ni1 O4 2.069396 1_554
Ni1 O8 2.069399 1_545
Ni1 O10 2.102653 1_555
Ni1 O3 2.102683 1_545
Ni1 O6 2.102745 1_544
Ni1 O0 2.102757 1_554
Bi0 O8 2.329201 1_445
Bi0 O7 2.399795 1_545
Bi0 O3 2.402447 1_545
Bi0 O2 2.424735 1_455
Bi0 O10 2.625220 1_555
Bi0 O9 2.639869 1_555
Bi0 O1 2.681394 1_455
Bi0 O0 2.684570 1_454
Bi1 O2 2.329204 1_555
Bi1 O10 2.399790 1_555
Bi1 O9 2.402427 1_555
Bi1 O8 2.424744 1_555
Bi1 O7 2.625201 1_555
Bi1 O3 2.639865 1_555
Bi1 O6 2.681401 1_554
Bi1 O5 2.684559 1_555
Bi2 O11 2.329209 1_555
Bi2 O6 2.399791 1_555
Bi2 O5 2.402434 1_555
Bi2 O4 2.424743 1_555
Bi2 O1 2.625203 1_555
Bi2 O0 2.639859 1_555
Bi2 O10 2.681398 1_556
Bi2 O9 2.684566 1_555
Bi3 O4 2.329205 1_665
Bi3 O1 2.399781 1_565
Bi3 O0 2.402439 1_565
Bi3 O11 2.424746 1_655
Bi3 O6 2.625215 1_555
Bi3 O5 2.639882 1_555
Bi3 O7 2.681404 1_655
Bi3 O3 2.684566 1_656
