# generated using pymatgen
data_Ce3Si2S8Cl
_symmetry_space_group_name_H-M   'P 1'
_cell_length_a   8.77023305
_cell_length_b   8.77023305
_cell_length_c   11.04317067
_cell_angle_alpha   83.53050238
_cell_angle_beta   83.53050238
_cell_angle_gamma   52.14660829
_symmetry_Int_Tables_number   1
_chemical_formula_structural   Ce3Si2S8Cl
_chemical_formula_sum   'Ce6 Si4 S16 Cl2'
_cell_volume   665.38056255
_cell_formula_units_Z   2
loop_
 _symmetry_equiv_pos_site_id
 _symmetry_equiv_pos_as_xyz
  1  'x, y, z'
loop_
 _atom_site_type_symbol
 _atom_site_label
 _atom_site_symmetry_multiplicity
 _atom_site_fract_x
 _atom_site_fract_y
 _atom_site_fract_z
 _atom_site_occupancy
  Ce  Ce0  1  0.68309800  0.92691400  0.68602700  1
  Ce  Ce1  1  0.07308600  0.31690200  0.81397300  1
  Ce  Ce2  1  0.31690200  0.07308600  0.31397300  1
  Ce  Ce3  1  0.92691400  0.68309800  0.18602700  1
  Ce  Ce4  1  0.37927700  0.62072300  0.75000000  1
  Ce  Ce5  1  0.62072300  0.37927700  0.25000000  1
  Si  Si0  1  0.37130500  0.30856700  0.02993200  1
  Si  Si1  1  0.69143300  0.62869500  0.47006800  1
  Si  Si2  1  0.62869500  0.69143300  0.97006800  1
  Si  Si3  1  0.30856700  0.37130500  0.52993200  1
  S  S0  1  0.60409900  0.10397100  0.14225700  1
  S  S1  1  0.89602900  0.39590100  0.35774300  1
  S  S2  1  0.39590100  0.89602900  0.85774300  1
  S  S3  1  0.10397100  0.60409900  0.64225700  1
  S  S4  1  0.14266200  0.28833200  0.08526700  1
  S  S5  1  0.71166800  0.85733800  0.41473300  1
  S  S6  1  0.85733800  0.71166800  0.91473300  1
  S  S7  1  0.28833200  0.14266200  0.58526700  1
  S  S8  1  0.27616700  0.59243800  0.05126000  1
  S  S9  1  0.40756200  0.72383300  0.44874000  1
  S  S10  1  0.72383300  0.40756200  0.94874000  1
  S  S11  1  0.59243800  0.27616700  0.55126000  1
  S  S12  1  0.44158400  0.26278800  0.84026100  1
  S  S13  1  0.73721200  0.55841600  0.65973900  1
  S  S14  1  0.55841600  0.73721200  0.15973900  1
  S  S15  1  0.26278800  0.44158400  0.34026100  1
  Cl  Cl0  1  0.99426500  0.00573500  0.25000000  1
  Cl  Cl1  1  0.00573500  0.99426500  0.75000000  1
loop_
_geom_bond_atom_site_label_1
_geom_bond_atom_site_label_2
_geom_bond_distance
_geom_bond_site_symmetry_2
Ce0 S11 2.911986 1_565
Ce0 S6 2.921057 1_555
Ce0 S12 2.953767 1_565
Ce0 S3 2.992425 1_655
Ce0 S13 3.008671 1_555
Ce0 S7 3.026361 1_565
Ce0 S5 3.076682 1_555
Ce0 S2 3.107860 1_555
Ce0 Cl1 3.383851 1_655
Ce1 S10 2.911986 1_455
Ce1 S7 2.921057 1_555
Ce1 S13 2.953767 1_455
Ce1 S2 2.992425 1_545
Ce1 S12 3.008671 1_555
Ce1 S6 3.026361 1_455
Ce1 S4 3.076682 1_556
Ce1 S3 3.107860 1_555
Ce1 Cl1 3.383851 1_545
Ce2 S9 2.911986 1_545
Ce2 S4 2.921057 1_555
Ce2 S14 2.953767 1_545
Ce2 S1 2.992425 1_455
Ce2 S15 3.008671 1_555
Ce2 S5 3.026361 1_545
Ce2 S7 3.076682 1_555
Ce2 S0 3.107860 1_555
Ce2 Cl0 3.383851 1_455
Ce3 S8 2.911986 1_655
Ce3 S5 2.921057 1_555
Ce3 S15 2.953767 1_655
Ce3 S0 2.992425 1_565
Ce3 S14 3.008671 1_555
Ce3 S4 3.026361 1_655
Ce3 S6 3.076682 1_554
Ce3 S1 3.107860 1_555
Ce3 Cl0 3.383851 1_565
Ce4 Cl1 2.879784 1_555
Ce4 S2 2.895730 1_555
Ce4 S3 2.895730 1_555
Ce4 S13 2.908420 1_555
Ce4 S12 2.908420 1_555
Ce4 S11 3.328651 1_555
Ce4 S10 3.328651 1_555
Ce4 S9 3.370268 1_555
Ce4 S8 3.370268 1_556
Ce5 Cl0 2.879784 1_555
Ce5 S1 2.895730 1_555
Ce5 S0 2.895730 1_555
Ce5 S14 2.908420 1_555
Ce5 S15 2.908420 1_555
Ce5 S8 3.328651 1_555
Ce5 S9 3.328651 1_555
Ce5 S10 3.370268 1_554
Ce5 S11 3.370268 1_555
S0 Si0 2.121260 1_555
S1 Si1 2.121260 1_555
S2 Si2 2.121260 1_555
S3 Si3 2.121260 1_555
S4 Si0 2.135912 1_555
S5 Si1 2.135912 1_555
S6 Si2 2.135912 1_555
S7 Si3 2.135912 1_555
S8 Si0 2.118554 1_555
S9 Si1 2.118554 1_555
S10 Si2 2.118554 1_555
S11 Si3 2.118554 1_555
S12 Si0 2.126779 1_556
S13 Si1 2.126779 1_555
S14 Si2 2.126779 1_554
S15 Si3 2.126779 1_555
