# generated using pymatgen
data_LaRhO3
_symmetry_space_group_name_H-M   'P 1'
_cell_length_a   5.50481427
_cell_length_b   5.76156261
_cell_length_c   7.90193892
_cell_angle_alpha   90.00000000
_cell_angle_beta   90.00000000
_cell_angle_gamma   90.00000000
_symmetry_Int_Tables_number   1
_chemical_formula_structural   LaRhO3
_chemical_formula_sum   'La4 Rh4 O12'
_cell_volume   250.62051881
_cell_formula_units_Z   4
loop_
 _symmetry_equiv_pos_site_id
 _symmetry_equiv_pos_as_xyz
  1  'x, y, z'
loop_
 _atom_site_type_symbol
 _atom_site_label
 _atom_site_symmetry_multiplicity
 _atom_site_fract_x
 _atom_site_fract_y
 _atom_site_fract_z
 _atom_site_occupancy
  La  La0  1  0.48363625  0.56286655  0.75000000  1
  La  La1  1  0.98363625  0.93713345  0.25000000  1
  La  La2  1  0.01636375  0.06286655  0.75000000  1
  La  La3  1  0.51636375  0.43713345  0.25000000  1
  Rh  Rh0  1  0.50000000  -0.00000000  0.50000000  1
  Rh  Rh1  1  -0.00000000  0.50000000  0.50000000  1
  Rh  Rh2  1  -0.00000000  0.50000000  -0.00000000  1
  Rh  Rh3  1  0.50000000  -0.00000000  -0.00000000  1
  O  O0  1  0.80632958  0.19953598  0.45053187  1
  O  O1  1  0.30632958  0.30046402  0.54946813  1
  O  O2  1  0.69367042  0.69953598  0.04946813  1
  O  O3  1  0.19367042  0.80046402  0.95053187  1
  O  O4  1  0.19367042  0.80046402  0.54946813  1
  O  O5  1  0.69367042  0.69953598  0.45053187  1
  O  O6  1  0.30632958  0.30046402  0.95053187  1
  O  O7  1  0.80632958  0.19953598  0.04946813  1
  O  O8  1  0.40256946  0.02457688  0.25000000  1
  O  O9  1  0.90256946  0.47542312  0.75000000  1
  O  O10  1  0.09743054  0.52457688  0.25000000  1
  O  O11  1  0.59743054  0.97542312  0.75000000  1
loop_
_geom_bond_atom_site_label_1
_geom_bond_atom_site_label_2
_geom_bond_distance
_geom_bond_site_symmetry_2
La0 O9 2.360540 1_555
La0 O1 2.397763 1_555
La0 O6 2.397763 1_555
La0 O11 2.458127 1_555
La0 O4 2.633018 1_555
La0 O3 2.633018 1_555
La0 O5 2.748925 1_555
La0 O2 2.748925 1_556
La1 O8 2.360540 1_665
La1 O0 2.397763 1_565
La1 O7 2.397763 1_565
La1 O10 2.458127 1_655
La1 O2 2.633018 1_555
La1 O5 2.633018 1_555
La1 O3 2.748925 1_654
La1 O4 2.748925 1_655
La2 O11 2.360540 1_445
La2 O4 2.397763 1_545
La2 O3 2.397763 1_545
La2 O9 2.458127 1_455
La2 O1 2.633018 1_555
La2 O6 2.633018 1_555
La2 O7 2.748925 1_456
La2 O0 2.748925 1_455
La3 O10 2.360540 1_555
La3 O5 2.397763 1_555
La3 O2 2.397763 1_555
La3 O8 2.458127 1_555
La3 O0 2.633018 1_555
La3 O7 2.633018 1_555
La3 O6 2.748925 1_554
La3 O1 2.748925 1_555
O0 Rh1 2.070329 1_655
O0 Rh0 2.077988 1_555
O1 Rh0 2.070329 1_555
O1 Rh1 2.077988 1_555
O2 Rh3 2.070329 1_565
O2 Rh2 2.077988 1_655
O3 Rh2 2.070329 1_556
O3 Rh3 2.077988 1_566
O4 Rh1 2.070329 1_555
O4 Rh0 2.077988 1_565
O5 Rh0 2.070329 1_565
O5 Rh1 2.077988 1_655
O6 Rh3 2.070329 1_556
O6 Rh2 2.077988 1_556
O7 Rh2 2.070329 1_655
O7 Rh3 2.077988 1_555
O8 Rh3 2.051889 1_555
O8 Rh0 2.051889 1_555
O9 Rh2 2.051889 1_656
O9 Rh1 2.051889 1_655
O10 Rh1 2.051889 1_555
O10 Rh2 2.051889 1_555
O11 Rh3 2.051889 1_566
O11 Rh0 2.051889 1_565
