# generated using pymatgen
data_CaCo2Te3(ClO4)2
_symmetry_space_group_name_H-M   'P 1'
_cell_length_a   9.29151800
_cell_length_b   6.59413200
_cell_length_c   19.17023824
_cell_angle_alpha   73.60604093
_cell_angle_beta   90.00000000
_cell_angle_gamma   90.00000000
_symmetry_Int_Tables_number   1
_chemical_formula_structural   CaCo2Te3(ClO4)2
_chemical_formula_sum   'Ca4 Co8 Te12 Cl8 O32'
_cell_volume   1126.79799114
_cell_formula_units_Z   4
loop_
 _symmetry_equiv_pos_site_id
 _symmetry_equiv_pos_as_xyz
  1  'x, y, z'
loop_
 _atom_site_type_symbol
 _atom_site_label
 _atom_site_symmetry_multiplicity
 _atom_site_fract_x
 _atom_site_fract_y
 _atom_site_fract_z
 _atom_site_occupancy
  Ca  Ca0  1  0.11367300  0.50971300  0.73095900  1
  Ca  Ca1  1  0.38632700  0.50971300  0.23095900  1
  Ca  Ca2  1  0.88632700  0.49028700  0.26904100  1
  Ca  Ca3  1  0.61367300  0.49028700  0.76904100  1
  Co  Co0  1  0.24376900  0.06388800  0.32317900  1
  Co  Co1  1  0.75623100  0.93611200  0.67682100  1
  Co  Co2  1  0.45761000  0.19168800  0.68000000  1
  Co  Co3  1  0.95761000  0.80831200  0.82000000  1
  Co  Co4  1  0.25623100  0.06388800  0.82317900  1
  Co  Co5  1  0.54239000  0.80831200  0.32000000  1
  Co  Co6  1  0.04239000  0.19168800  0.18000000  1
  Co  Co7  1  0.74376900  0.93611200  0.17682100  1
  Te  Te0  1  0.29630700  0.54249900  0.89138600  1
  Te  Te1  1  0.08089700  0.77701600  0.11170400  1
  Te  Te2  1  0.39205000  0.09163600  0.13891700  1
  Te  Te3  1  0.10795000  0.09163600  0.63891700  1
  Te  Te4  1  0.41910300  0.77701600  0.61170400  1
  Te  Te5  1  0.60795000  0.90836400  0.86108300  1
  Te  Te6  1  0.58089700  0.22298400  0.38829600  1
  Te  Te7  1  0.89205000  0.90836400  0.36108300  1
  Te  Te8  1  0.91910300  0.22298400  0.88829600  1
  Te  Te9  1  0.79630700  0.45750100  0.60861400  1
  Te  Te10  1  0.70369300  0.45750100  0.10861400  1
  Te  Te11  1  0.20369300  0.54249900  0.39138600  1
  Cl  Cl0  1  0.67547600  0.09589000  0.04606800  1
  Cl  Cl1  1  0.82452400  0.09589000  0.54606800  1
  Cl  Cl2  1  0.32452400  0.90411000  0.95393200  1
  Cl  Cl3  1  0.10943200  0.25654500  0.04946400  1
  Cl  Cl4  1  0.17547600  0.90411000  0.45393200  1
  Cl  Cl5  1  0.60943200  0.74345500  0.45053600  1
  Cl  Cl6  1  0.39056800  0.25654500  0.54946400  1
  Cl  Cl7  1  0.89056800  0.74345500  0.95053600  1
  O  O0  1  0.01258400  0.62540400  0.35400700  1
  O  O1  1  0.26818800  0.17331800  0.20637300  1
  O  O2  1  0.80673400  0.23554300  0.17510800  1
  O  O3  1  0.23181200  0.17331800  0.70637300  1
  O  O4  1  0.02190000  0.10123200  0.82434000  1
  O  O5  1  0.22888800  0.80415600  0.64925200  1
  O  O6  1  0.97980600  0.90382400  0.70460700  1
  O  O7  1  0.51258400  0.37459600  0.14599300  1
  O  O8  1  0.73682500  0.63508700  0.16951500  1
  O  O9  1  0.05710400  0.50306600  0.17709300  1
  O  O10  1  0.72888800  0.19584400  0.85074800  1
  O  O11  1  0.02019400  0.09617600  0.29539300  1
  O  O12  1  0.76818800  0.82668200  0.29362700  1
  O  O13  1  0.19326600  0.76445700  0.82489200  1
  O  O14  1  0.27111200  0.80415600  0.14925200  1
  O  O15  1  0.69326600  0.23554300  0.67510800  1
  O  O16  1  0.97810000  0.89876800  0.17566000  1
  O  O17  1  0.23682500  0.36491300  0.33048500  1
  O  O18  1  0.52190000  0.89876800  0.67566000  1
  O  O19  1  0.44289600  0.50306600  0.67709300  1
  O  O20  1  0.30673400  0.76445700  0.32489200  1
  O  O21  1  0.55710400  0.49693400  0.32290700  1
  O  O22  1  0.73181200  0.82668200  0.79362700  1
  O  O23  1  0.26317500  0.36491300  0.83048500  1
  O  O24  1  0.47980600  0.09617600  0.79539300  1
  O  O25  1  0.77111200  0.19584400  0.35074800  1
  O  O26  1  0.98741600  0.37459600  0.64599300  1
  O  O27  1  0.94289600  0.49693400  0.82290700  1
  O  O28  1  0.47810000  0.10123200  0.32434000  1
  O  O29  1  0.52019400  0.90382400  0.20460700  1
  O  O30  1  0.48741600  0.62540400  0.85400700  1
  O  O31  1  0.76317500  0.63508700  0.66951500  1
loop_
_geom_bond_atom_site_label_1
_geom_bond_atom_site_label_2
_geom_bond_distance
_geom_bond_site_symmetry_2
Ca0 O23 2.335204 1_555
Ca0 O27 2.355442 1_455
Ca0 O26 2.375353 1_455
Ca0 O5 2.377507 1_555
Ca0 O3 2.633968 1_555
Ca0 O6 2.795548 1_455
Ca0 O13 2.884227 1_555
Ca0 O4 2.909503 1_555
Ca1 O17 2.335204 1_555
Ca1 O21 2.355442 1_555
Ca1 O7 2.375353 1_555
Ca1 O14 2.377507 1_555
Ca1 O1 2.633968 1_555
Ca1 O29 2.795548 1_555
Ca1 O20 2.884227 1_555
Ca1 O28 2.909503 1_555
Ca2 O8 2.335204 1_555
Ca2 O9 2.355442 1_655
Ca2 O0 2.375353 1_655
Ca2 O25 2.377507 1_555
Ca2 O12 2.633968 1_555
Ca2 O11 2.795548 1_655
Ca2 O2 2.884227 1_555
Ca2 O16 2.909503 1_555
Ca3 O31 2.335204 1_555
Ca3 O19 2.355442 1_555
Ca3 O30 2.375353 1_555
Ca3 O10 2.377507 1_555
Ca3 O22 2.633968 1_555
Ca3 O24 2.795548 1_555
Ca3 O15 2.884227 1_555
Ca3 O18 2.909503 1_555
Co0 O17 2.030008 1_555
Co0 O20 2.050695 1_545
Co0 O11 2.140194 1_555
Co0 O1 2.161968 1_555
Co0 O28 2.191991 1_555
Co1 O31 2.030008 1_555
Co1 O15 2.050695 1_565
Co1 O6 2.140194 1_555
Co1 O22 2.161968 1_555
Co1 O18 2.191991 1_555
Co2 O19 2.042820 1_555
Co2 O18 2.045816 1_545
Co2 O24 2.132180 1_555
Co2 O3 2.153449 1_555
Co2 O15 2.207141 1_555
Co3 O27 2.042820 1_555
Co3 O4 2.045816 1_665
Co3 O6 2.132180 1_555
Co3 O22 2.153449 1_555
Co3 O13 2.207141 1_655
Co4 O23 2.030008 1_555
Co4 O13 2.050695 1_545
Co4 O24 2.140194 1_555
Co4 O3 2.161968 1_555
Co4 O4 2.191991 1_555
Co5 O21 2.042820 1_555
Co5 O28 2.045816 1_565
Co5 O29 2.132180 1_555
Co5 O12 2.153449 1_555
Co5 O20 2.207141 1_555
Co6 O9 2.042820 1_555
Co6 O16 2.045816 1_445
Co6 O11 2.132180 1_555
Co6 O1 2.153449 1_555
Co6 O2 2.207141 1_455
Co7 O8 2.030008 1_555
Co7 O2 2.050695 1_565
Co7 O29 2.140194 1_555
Co7 O12 2.161968 1_555
Co7 O16 2.191991 1_555
Cl0 Co7 2.510945 1_545
Cl1 Co1 2.510945 1_545
Cl2 Co4 2.510945 1_565
Cl3 Co6 2.495768 1_555
Cl4 Co0 2.510945 1_565
Cl5 Co5 2.495768 1_555
Cl6 Co2 2.495768 1_555
Cl7 Co3 2.495768 1_555
O0 Te11 1.935016 1_555
O0 Te7 2.212925 1_455
O1 Te2 1.918335 1_555
O2 Te10 1.905399 1_555
O3 Te3 1.918335 1_555
O4 Te8 1.901499 1_455
O5 Te4 1.935592 1_555
O5 Te3 2.164151 1_565
O6 Te3 1.912301 1_665
O7 Te10 1.935016 1_555
O7 Te2 2.212925 1_555
O8 Te10 1.897585 1_555
O9 Te1 1.898754 1_555
O10 Te8 1.935592 1_555
O10 Te5 2.164151 1_545
O11 Te7 1.912301 1_445
O12 Te7 1.918335 1_555
O13 Te0 1.905399 1_555
O14 Te1 1.935592 1_555
O14 Te2 2.164151 1_565
O15 Te9 1.905399 1_555
O16 Te1 1.901499 1_655
O17 Te11 1.897585 1_555
O18 Te4 1.901499 1_555
O19 Te4 1.898754 1_555
O20 Te11 1.905399 1_555
O21 Te6 1.898754 1_555
O22 Te5 1.918335 1_555
O23 Te0 1.897585 1_555
O24 Te5 1.912301 1_545
O25 Te6 1.935592 1_555
O25 Te7 2.164151 1_545
O26 Te9 1.935016 1_555
O26 Te3 2.212925 1_655
O27 Te8 1.898754 1_555
O28 Te6 1.901499 1_555
O29 Te2 1.912301 1_565
O30 Te0 1.935016 1_555
O30 Te5 2.212925 1_555
O31 Te9 1.897585 1_555
