# generated using pymatgen
data_Ba6Nb4S13O3
_symmetry_space_group_name_H-M   'P 1'
_cell_length_a   7.95007000
_cell_length_b   14.52291400
_cell_length_c   24.58028300
_cell_angle_alpha   90.00000000
_cell_angle_beta   90.00000000
_cell_angle_gamma   90.00000000
_symmetry_Int_Tables_number   1
_chemical_formula_structural   Ba6Nb4S13O3
_chemical_formula_sum   'Ba24 Nb16 S52 O12'
_cell_volume   2837.99481045
_cell_formula_units_Z   4
loop_
 _symmetry_equiv_pos_site_id
 _symmetry_equiv_pos_as_xyz
  1  'x, y, z'
loop_
 _atom_site_type_symbol
 _atom_site_label
 _atom_site_symmetry_multiplicity
 _atom_site_fract_x
 _atom_site_fract_y
 _atom_site_fract_z
 _atom_site_occupancy
  Ba  Ba0  1  0.60700400  0.25000000  0.44955900  1
  Ba  Ba1  1  0.76173400  0.75000000  0.84353800  1
  Ba  Ba2  1  0.40315900  0.91760400  0.72527300  1
  Ba  Ba3  1  0.90315900  0.41760400  0.77472700  1
  Ba  Ba4  1  0.59684100  0.08239600  0.27472700  1
  Ba  Ba5  1  0.76717800  0.98410900  0.58272700  1
  Ba  Ba6  1  0.76717800  0.51589100  0.58272700  1
  Ba  Ba7  1  0.26173400  0.25000000  0.65646200  1
  Ba  Ba8  1  0.39299600  0.75000000  0.55044100  1
  Ba  Ba9  1  0.73826600  0.75000000  0.34353800  1
  Ba  Ba10  1  0.23282200  0.01589100  0.41727300  1
  Ba  Ba11  1  0.09684100  0.58239600  0.22527300  1
  Ba  Ba12  1  0.73282200  0.98410900  0.08272700  1
  Ba  Ba13  1  0.10700400  0.75000000  0.05044100  1
  Ba  Ba14  1  0.26717800  0.48410900  0.91727300  1
  Ba  Ba15  1  0.23826600  0.25000000  0.15646200  1
  Ba  Ba16  1  0.09684100  0.91760400  0.22527300  1
  Ba  Ba17  1  0.90315900  0.08239600  0.77472700  1
  Ba  Ba18  1  0.40315900  0.58239600  0.72527300  1
  Ba  Ba19  1  0.23282200  0.48410900  0.41727300  1
  Ba  Ba20  1  0.89299600  0.25000000  0.94955900  1
  Ba  Ba21  1  0.26717800  0.01589100  0.91727300  1
  Ba  Ba22  1  0.73282200  0.51589100  0.08272700  1
  Ba  Ba23  1  0.59684100  0.41760400  0.27472700  1
  Nb  Nb0  1  0.78425800  0.49613000  0.91621500  1
  Nb  Nb1  1  0.10297000  0.25000000  0.32992000  1
  Nb  Nb2  1  0.72132100  0.25000000  0.16401000  1
  Nb  Nb3  1  0.21574200  0.99613000  0.08378500  1
  Nb  Nb4  1  0.60297000  0.75000000  0.17008000  1
  Nb  Nb5  1  0.89703000  0.75000000  0.67008000  1
  Nb  Nb6  1  0.39703000  0.25000000  0.82992000  1
  Nb  Nb7  1  0.22132100  0.75000000  0.33599000  1
  Nb  Nb8  1  0.28425800  0.99613000  0.58378500  1
  Nb  Nb9  1  0.21574200  0.50387000  0.08378500  1
  Nb  Nb10  1  0.78425800  0.00387000  0.91621500  1
  Nb  Nb11  1  0.71574200  0.49613000  0.41621500  1
  Nb  Nb12  1  0.71574200  0.00387000  0.41621500  1
  Nb  Nb13  1  0.77867900  0.25000000  0.66401000  1
  Nb  Nb14  1  0.27867900  0.75000000  0.83599000  1
  Nb  Nb15  1  0.28425800  0.50387000  0.58378500  1
  S  S0  1  0.12124600  0.04125900  0.65718600  1
  S  S1  1  0.10240200  0.75000000  0.41927800  1
  S  S2  1  0.38050200  0.61789800  0.32098200  1
  S  S3  1  0.62124600  0.95874100  0.84281400  1
  S  S4  1  0.70596000  0.75000000  0.08379100  1
  S  S5  1  0.37771300  0.59106800  0.02716700  1
  S  S6  1  0.09437500  0.38377200  0.03790300  1
  S  S7  1  0.37771300  0.90893200  0.02716700  1
  S  S8  1  0.59437500  0.61622800  0.46209700  1
  S  S9  1  0.88050200  0.38210200  0.17901800  1
  S  S10  1  0.38050200  0.88210200  0.32098200  1
  S  S11  1  0.40562500  0.11622800  0.53790300  1
  S  S12  1  0.81245700  0.25000000  0.33160800  1
  S  S13  1  0.29404000  0.25000000  0.91620900  1
  S  S14  1  0.87771300  0.40893200  0.47283300  1
  S  S15  1  0.29742800  0.12031200  0.78755600  1
  S  S16  1  0.12124600  0.45874100  0.65718600  1
  S  S17  1  0.20257200  0.12031200  0.28755600  1
  S  S18  1  0.11949800  0.88210200  0.82098200  1
  S  S19  1  0.62228700  0.40893200  0.97283300  1
  S  S20  1  0.61949800  0.38210200  0.67901800  1
  S  S21  1  0.20596000  0.25000000  0.41620900  1
  S  S22  1  0.18754300  0.75000000  0.66839200  1
  S  S23  1  0.11949800  0.61789800  0.82098200  1
  S  S24  1  0.39759800  0.75000000  0.91927800  1
  S  S25  1  0.90562500  0.61622800  0.96209700  1
  S  S26  1  0.89759800  0.25000000  0.58072200  1
  S  S27  1  0.70257200  0.62031200  0.21244400  1
  S  S28  1  0.12228700  0.59106800  0.52716700  1
  S  S29  1  0.12228700  0.90893200  0.52716700  1
  S  S30  1  0.37875400  0.45874100  0.15718600  1
  S  S31  1  0.87771300  0.09106800  0.47283300  1
  S  S32  1  0.88050200  0.11789800  0.17901800  1
  S  S33  1  0.79404000  0.75000000  0.58379100  1
  S  S34  1  0.90562500  0.88377200  0.96209700  1
  S  S35  1  0.59437500  0.88377200  0.46209700  1
  S  S36  1  0.68754300  0.25000000  0.83160800  1
  S  S37  1  0.09437500  0.11622800  0.03790300  1
  S  S38  1  0.20257200  0.37968800  0.28755600  1
  S  S39  1  0.40562500  0.38377200  0.53790300  1
  S  S40  1  0.37875400  0.04125900  0.15718600  1
  S  S41  1  0.79742800  0.62031200  0.71244400  1
  S  S42  1  0.61949800  0.11789800  0.67901800  1
  S  S43  1  0.60240200  0.25000000  0.08072200  1
  S  S44  1  0.62228700  0.09106800  0.97283300  1
  S  S45  1  0.87875400  0.54125900  0.34281400  1
  S  S46  1  0.70257200  0.87968800  0.21244400  1
  S  S47  1  0.31245700  0.75000000  0.16839200  1
  S  S48  1  0.29742800  0.37968800  0.78755600  1
  S  S49  1  0.87875400  0.95874100  0.34281400  1
  S  S50  1  0.62124600  0.54125900  0.84281400  1
  S  S51  1  0.79742800  0.87968800  0.71244400  1
  O  O0  1  0.54723700  0.25000000  0.21414800  1
  O  O1  1  0.45196300  0.58128800  0.60929800  1
  O  O2  1  0.45276300  0.75000000  0.78585200  1
  O  O3  1  0.45196300  0.91871200  0.60929800  1
  O  O4  1  0.54803700  0.41871200  0.39070200  1
  O  O5  1  0.04803700  0.58128800  0.10929800  1
  O  O6  1  0.95196300  0.08128800  0.89070200  1
  O  O7  1  0.04723700  0.75000000  0.28585200  1
  O  O8  1  0.95196300  0.41871200  0.89070200  1
  O  O9  1  0.04803700  0.91871200  0.10929800  1
  O  O10  1  0.95276300  0.25000000  0.71414800  1
  O  O11  1  0.54803700  0.08128800  0.39070200  1
loop_
_geom_bond_atom_site_label_1
_geom_bond_atom_site_label_2
_geom_bond_distance
_geom_bond_site_symmetry_2
Ba0 O11 2.883782 1_555
Ba0 O4 2.883782 1_555
Ba0 S14 3.207278 1_555
Ba0 S31 3.207278 1_555
Ba0 S21 3.292025 1_555
Ba0 S39 3.324597 1_555
Ba0 S11 3.324597 1_555
Ba0 S12 3.327709 1_555
Ba1 O2 2.836223 1_555
Ba1 S3 3.230777 1_555
Ba1 S50 3.230777 1_555
Ba1 S24 3.441867 1_555
Ba1 S18 3.475315 1_655
Ba1 S23 3.475315 1_655
Ba1 S34 3.684503 1_555
Ba1 S25 3.684503 1_555
Ba1 S51 3.743167 1_555
Ba1 S41 3.743167 1_555
Ba2 O3 2.877026 1_555
Ba2 O2 2.880559 1_555
Ba2 S51 3.198052 1_555
Ba2 S22 3.289075 1_555
Ba2 S18 3.299384 1_555
Ba2 S0 3.324010 1_565
Ba2 S3 3.422051 1_555
Ba2 S15 3.422999 1_565
Ba2 S42 3.565416 1_565
Ba3 O8 2.877026 1_555
Ba3 O10 2.880559 1_555
Ba3 S48 3.198052 1_655
Ba3 S36 3.289075 1_555
Ba3 S20 3.299384 1_555
Ba3 S50 3.324010 1_555
Ba3 S16 3.422051 1_655
Ba3 S41 3.422999 1_555
Ba3 S23 3.565416 1_655
Ba4 O11 2.877026 1_555
Ba4 O0 2.880559 1_555
Ba4 S17 3.198052 1_555
Ba4 S12 3.289075 1_555
Ba4 S32 3.299384 1_555
Ba4 S49 3.324010 1_545
Ba4 S40 3.422051 1_555
Ba4 S46 3.422999 1_545
Ba4 S10 3.565416 1_545
Ba5 O3 2.758359 1_555
Ba5 S31 3.237554 1_565
Ba5 S42 3.279593 1_565
Ba5 S29 3.320725 1_655
Ba5 S33 3.406745 1_555
Ba5 S0 3.458621 1_665
Ba6 O1 2.758359 1_555
Ba6 S14 3.237554 1_555
Ba6 S20 3.279593 1_555
Ba6 S28 3.320725 1_655
Ba6 S33 3.406745 1_555
Ba6 S16 3.458621 1_655
Ba7 O10 2.836223 1_455
Ba7 S16 3.230777 1_555
Ba7 S0 3.230777 1_555
Ba7 S26 3.441867 1_455
Ba7 S20 3.475315 1_555
Ba7 S42 3.475315 1_555
Ba7 S39 3.684503 1_555
Ba7 S11 3.684503 1_555
Ba7 S48 3.743167 1_555
Ba7 S15 3.743167 1_555
Ba8 O1 2.883782 1_555
Ba8 O3 2.883782 1_555
Ba8 S29 3.207278 1_555
Ba8 S28 3.207278 1_555
Ba8 S33 3.292025 1_555
Ba8 S8 3.324597 1_555
Ba8 S35 3.324597 1_555
Ba8 S22 3.327709 1_555
Ba9 O7 2.836223 1_655
Ba9 S49 3.230777 1_555
Ba9 S45 3.230777 1_555
Ba9 S1 3.441867 1_655
Ba9 S10 3.475315 1_555
Ba9 S2 3.475315 1_555
Ba9 S35 3.684503 1_555
Ba9 S8 3.684503 1_555
Ba9 S46 3.743167 1_555
Ba9 S27 3.743167 1_555
Ba10 O11 2.758359 1_555
Ba10 S29 3.237554 1_545
Ba10 S10 3.279593 1_545
Ba10 S31 3.320725 1_455
Ba10 S21 3.406745 1_555
Ba10 S49 3.458621 1_445
Ba11 O5 2.877026 1_555
Ba11 O7 2.880559 1_555
Ba11 S27 3.198052 1_455
Ba11 S47 3.289075 1_555
Ba11 S2 3.299384 1_555
Ba11 S30 3.324010 1_555
Ba11 S45 3.422051 1_455
Ba11 S38 3.422999 1_555
Ba11 S9 3.565416 1_455
Ba12 O9 2.758359 1_655
Ba12 S44 3.237554 1_564
Ba12 S32 3.279593 1_565
Ba12 S7 3.320725 1_555
Ba12 S4 3.406745 1_555
Ba12 S40 3.458621 1_565
Ba13 O5 2.883782 1_555
Ba13 O9 2.883782 1_555
Ba13 S7 3.207278 1_555
Ba13 S5 3.207278 1_555
Ba13 S4 3.292025 1_455
Ba13 S25 3.324597 1_454
Ba13 S34 3.324597 1_454
Ba13 S47 3.327709 1_555
Ba14 O8 2.758359 1_455
Ba14 S5 3.237554 1_556
Ba14 S23 3.279593 1_555
Ba14 S19 3.320725 1_555
Ba14 S13 3.406745 1_555
Ba14 S50 3.458621 1_555
Ba15 O0 2.836223 1_555
Ba15 S30 3.230777 1_555
Ba15 S40 3.230777 1_555
Ba15 S43 3.441867 1_555
Ba15 S9 3.475315 1_455
Ba15 S32 3.475315 1_455
Ba15 S6 3.684503 1_555
Ba15 S37 3.684503 1_555
Ba15 S38 3.743167 1_555
Ba15 S17 3.743167 1_555
Ba16 O9 2.877026 1_555
Ba16 O7 2.880559 1_555
Ba16 S46 3.198052 1_455
Ba16 S47 3.289075 1_555
Ba16 S10 3.299384 1_555
Ba16 S40 3.324010 1_565
Ba16 S49 3.422051 1_455
Ba16 S17 3.422999 1_565
Ba16 S32 3.565416 1_465
Ba17 O6 2.877026 1_555
Ba17 O10 2.880559 1_555
Ba17 S15 3.198052 1_655
Ba17 S36 3.289075 1_555
Ba17 S42 3.299384 1_555
Ba17 S3 3.324010 1_545
Ba17 S0 3.422051 1_655
Ba17 S51 3.422999 1_545
Ba17 S18 3.565416 1_645
Ba18 O1 2.877026 1_555
Ba18 O2 2.880559 1_555
Ba18 S41 3.198052 1_555
Ba18 S22 3.289075 1_555
Ba18 S23 3.299384 1_555
Ba18 S16 3.324010 1_555
Ba18 S50 3.422051 1_555
Ba18 S48 3.422999 1_555
Ba18 S20 3.565416 1_555
Ba19 O4 2.758359 1_555
Ba19 S28 3.237554 1_555
Ba19 S2 3.279593 1_555
Ba19 S14 3.320725 1_455
Ba19 S21 3.406745 1_555
Ba19 S45 3.458621 1_455
Ba20 O8 2.883782 1_555
Ba20 O6 2.883782 1_555
Ba20 S19 3.207278 1_555
Ba20 S44 3.207278 1_555
Ba20 S13 3.292025 1_655
Ba20 S37 3.324597 1_656
Ba20 S6 3.324597 1_656
Ba20 S36 3.327709 1_555
Ba21 O6 2.758359 1_455
Ba21 S7 3.237554 1_546
Ba21 S18 3.279593 1_545
Ba21 S44 3.320725 1_555
Ba21 S13 3.406745 1_555
Ba21 S3 3.458621 1_545
Ba22 O5 2.758359 1_655
Ba22 S19 3.237554 1_554
Ba22 S9 3.279593 1_555
Ba22 S5 3.320725 1_555
Ba22 S4 3.406745 1_555
Ba22 S30 3.458621 1_555
Ba23 O4 2.877026 1_555
Ba23 O0 2.880559 1_555
Ba23 S38 3.198052 1_555
Ba23 S12 3.289075 1_555
Ba23 S9 3.299384 1_555
Ba23 S45 3.324010 1_555
Ba23 S30 3.422051 1_555
Ba23 S27 3.422999 1_555
Ba23 S2 3.565416 1_555
Nb0 O8 1.853376 1_555
Nb0 S19 2.280045 1_555
Nb0 S25 2.290205 1_555
Nb0 S50 2.316087 1_555
Nb1 S21 2.273559 1_555
Nb1 S38 2.293193 1_555
Nb1 S17 2.293193 1_555
Nb1 S12 2.309971 1_455
Nb2 O0 1.853166 1_555
Nb2 S43 2.254997 1_555
Nb2 S9 2.327712 1_555
Nb2 S32 2.327712 1_555
Nb3 O9 1.853376 1_555
Nb3 S7 2.280045 1_555
Nb3 S37 2.290205 1_565
Nb3 S40 2.316087 1_565
Nb4 S4 2.273559 1_555
Nb4 S46 2.293193 1_555
Nb4 S27 2.293193 1_555
Nb4 S47 2.309971 1_555
Nb5 S33 2.273559 1_555
Nb5 S51 2.293193 1_555
Nb5 S41 2.293193 1_555
Nb5 S22 2.309971 1_655
Nb6 S13 2.273559 1_555
Nb6 S48 2.293193 1_555
Nb6 S15 2.293193 1_555
Nb6 S36 2.309971 1_555
Nb7 O7 1.853166 1_555
Nb7 S1 2.254997 1_555
Nb7 S10 2.327712 1_555
Nb7 S2 2.327712 1_555
Nb8 O3 1.853376 1_555
Nb8 S29 2.280045 1_555
Nb8 S11 2.290205 1_565
Nb8 S0 2.316087 1_565
Nb9 O5 1.853376 1_555
Nb9 S5 2.280045 1_555
Nb9 S6 2.290205 1_555
Nb9 S30 2.316087 1_555
Nb10 O6 1.853376 1_555
Nb10 S44 2.280045 1_555
Nb10 S34 2.290205 1_545
Nb10 S3 2.316087 1_545
Nb11 O4 1.853376 1_555
Nb11 S14 2.280045 1_555
Nb11 S8 2.290205 1_555
Nb11 S45 2.316087 1_555
Nb12 O11 1.853376 1_555
Nb12 S31 2.280045 1_555
Nb12 S35 2.290205 1_545
Nb12 S49 2.316087 1_545
Nb13 O10 1.853166 1_555
Nb13 S26 2.254997 1_555
Nb13 S20 2.327712 1_555
Nb13 S42 2.327712 1_555
Nb14 O2 1.853166 1_555
Nb14 S24 2.254997 1_555
Nb14 S18 2.327712 1_555
Nb14 S23 2.327712 1_555
Nb15 O1 1.853376 1_555
Nb15 S28 2.280045 1_555
Nb15 S39 2.290205 1_555
Nb15 S16 2.316087 1_555
