# generated using pymatgen
data_Tb
_symmetry_space_group_name_H-M   'P 1'
_cell_length_a   7.18743936
_cell_length_b   7.18743954
_cell_length_c   34.88117410
_cell_angle_alpha   90.00000000
_cell_angle_beta   90.00000000
_cell_angle_gamma   119.99999918
_symmetry_Int_Tables_number   1
_chemical_formula_structural   Tb
_chemical_formula_sum   Tb48
_cell_volume   1560.52283528
_cell_formula_units_Z   48
loop_
 _symmetry_equiv_pos_site_id
 _symmetry_equiv_pos_as_xyz
  1  'x, y, z'
loop_
 _atom_site_type_symbol
 _atom_site_label
 _atom_site_symmetry_multiplicity
 _atom_site_fract_x
 _atom_site_fract_y
 _atom_site_fract_z
 _atom_site_occupancy
  Tb  Tb0_0  1  0.33333350  0.16666650  0.45861931  1
  Tb  Tb0_1  1  0.33333350  0.16666650  0.95861931  1
  Tb  Tb0_2  1  0.33333350  0.66666650  0.45861931  1
  Tb  Tb0_3  1  0.33333350  0.66666650  0.95861931  1
  Tb  Tb0_4  1  0.83333350  0.16666650  0.45861931  1
  Tb  Tb0_5  1  0.83333350  0.16666650  0.95861931  1
  Tb  Tb0_6  1  0.83333350  0.66666650  0.45861931  1
  Tb  Tb0_7  1  0.83333350  0.66666650  0.95861931  1
  Tb  Tb1_0  1  0.00000000  0.00000000  0.12500000  1
  Tb  Tb1_1  1  0.00000000  0.00000000  0.62500000  1
  Tb  Tb1_2  1  0.00000000  0.50000000  0.12500000  1
  Tb  Tb1_3  1  0.00000000  0.50000000  0.62500000  1
  Tb  Tb1_4  1  0.50000000  0.00000000  0.12500000  1
  Tb  Tb1_5  1  0.50000000  0.00000000  0.62500000  1
  Tb  Tb1_6  1  0.50000000  0.50000000  0.12500000  1
  Tb  Tb1_7  1  0.50000000  0.50000000  0.62500000  1
  Tb  Tb2_0  1  0.33333350  0.16666650  0.29138069  1
  Tb  Tb2_1  1  0.33333350  0.16666650  0.79138069  1
  Tb  Tb2_2  1  0.33333350  0.66666650  0.29138069  1
  Tb  Tb2_3  1  0.33333350  0.66666650  0.79138069  1
  Tb  Tb2_4  1  0.83333350  0.16666650  0.29138069  1
  Tb  Tb2_5  1  0.83333350  0.16666650  0.79138069  1
  Tb  Tb2_6  1  0.83333350  0.66666650  0.29138069  1
  Tb  Tb2_7  1  0.83333350  0.66666650  0.79138069  1
  Tb  Tb3_0  1  0.16666650  0.33333350  0.20861931  1
  Tb  Tb3_1  1  0.16666650  0.33333350  0.70861931  1
  Tb  Tb3_2  1  0.16666650  0.83333350  0.20861931  1
  Tb  Tb3_3  1  0.16666650  0.83333350  0.70861931  1
  Tb  Tb3_4  1  0.66666650  0.33333350  0.20861931  1
  Tb  Tb3_5  1  0.66666650  0.33333350  0.70861931  1
  Tb  Tb3_6  1  0.66666650  0.83333350  0.20861931  1
  Tb  Tb3_7  1  0.66666650  0.83333350  0.70861931  1
  Tb  Tb4_0  1  0.00000000  0.00000000  0.37500000  1
  Tb  Tb4_1  1  0.00000000  0.00000000  0.87500000  1
  Tb  Tb4_2  1  0.00000000  0.50000000  0.37500000  1
  Tb  Tb4_3  1  0.00000000  0.50000000  0.87500000  1
  Tb  Tb4_4  1  0.50000000  0.00000000  0.37500000  1
  Tb  Tb4_5  1  0.50000000  0.00000000  0.87500000  1
  Tb  Tb4_6  1  0.50000000  0.50000000  0.37500000  1
  Tb  Tb4_7  1  0.50000000  0.50000000  0.87500000  1
  Tb  Tb5_0  1  0.16666650  0.33333350  0.04138069  1
  Tb  Tb5_1  1  0.16666650  0.33333350  0.54138069  1
  Tb  Tb5_2  1  0.16666650  0.83333350  0.04138069  1
  Tb  Tb5_3  1  0.16666650  0.83333350  0.54138069  1
  Tb  Tb5_4  1  0.66666650  0.33333350  0.04138069  1
  Tb  Tb5_5  1  0.66666650  0.33333350  0.54138069  1
  Tb  Tb5_6  1  0.66666650  0.83333350  0.04138069  1
  Tb  Tb5_7  1  0.66666650  0.83333350  0.54138069  1
loop_
_geom_bond_atom_site_label_1
_geom_bond_atom_site_label_2
_geom_bond_distance
_geom_bond_site_symmetry_2
Tb0_0 Tb5_5 3.555085 1_555
Tb0_0 Tb5_3 3.555085 1_545
Tb0_0 Tb5_1 3.555088 1_555
Tb0_0 Tb4_4 3.579428 1_555
Tb0_0 Tb4_0 3.579429 1_555
Tb0_0 Tb4_6 3.579429 1_555
Tb0_0 Tb0_4 3.593720 1_455
Tb0_0 Tb0_4 3.593720 1_555
Tb0_0 Tb0_2 3.593720 1_545
Tb0_0 Tb0_6 3.593720 1_445
Tb0_0 Tb0_2 3.593720 1_555
Tb0_0 Tb0_6 3.593720 1_555
Tb0_1 Tb5_4 3.555085 1_556
Tb0_1 Tb5_2 3.555085 1_546
Tb0_1 Tb5_0 3.555088 1_556
Tb0_1 Tb4_5 3.579428 1_555
Tb0_1 Tb4_1 3.579429 1_555
Tb0_1 Tb4_7 3.579429 1_555
Tb0_1 Tb0_5 3.593720 1_455
Tb0_1 Tb0_5 3.593720 1_555
Tb0_1 Tb0_3 3.593720 1_545
Tb0_1 Tb0_7 3.593720 1_445
Tb0_1 Tb0_3 3.593720 1_555
Tb0_1 Tb0_7 3.593720 1_555
Tb0_2 Tb5_7 3.555085 1_555
Tb0_2 Tb5_1 3.555085 1_555
Tb0_2 Tb5_3 3.555088 1_555
Tb0_2 Tb4_6 3.579428 1_555
Tb0_2 Tb4_2 3.579429 1_555
Tb0_2 Tb4_4 3.579429 1_565
Tb0_2 Tb0_6 3.593720 1_455
Tb0_2 Tb0_6 3.593720 1_555
Tb0_2 Tb0_4 3.593720 1_565
Tb0_2 Tb0_4 3.593720 1_455
Tb0_3 Tb5_6 3.555085 1_556
Tb0_3 Tb5_0 3.555085 1_556
Tb0_3 Tb5_2 3.555088 1_556
Tb0_3 Tb4_7 3.579428 1_555
Tb0_3 Tb4_3 3.579429 1_555
Tb0_3 Tb4_5 3.579429 1_565
Tb0_3 Tb0_7 3.593720 1_455
Tb0_3 Tb0_7 3.593720 1_555
Tb0_3 Tb0_5 3.593720 1_455
Tb0_3 Tb0_5 3.593720 1_565
Tb0_4 Tb5_1 3.555085 1_655
Tb0_4 Tb5_7 3.555085 1_545
Tb0_4 Tb5_5 3.555088 1_555
Tb0_4 Tb4_0 3.579428 1_655
Tb0_4 Tb4_4 3.579429 1_555
Tb0_4 Tb4_2 3.579429 1_655
Tb0_4 Tb0_6 3.593720 1_545
Tb0_4 Tb0_6 3.593720 1_555
Tb0_5 Tb5_0 3.555085 1_656
Tb0_5 Tb5_6 3.555085 1_546
Tb0_5 Tb5_4 3.555088 1_556
Tb0_5 Tb4_1 3.579428 1_655
Tb0_5 Tb4_5 3.579429 1_555
Tb0_5 Tb4_3 3.579429 1_655
Tb0_5 Tb0_7 3.593720 1_545
Tb0_5 Tb0_7 3.593720 1_555
Tb0_6 Tb5_3 3.555085 1_655
Tb0_6 Tb5_5 3.555085 1_555
Tb0_6 Tb5_7 3.555088 1_555
Tb0_6 Tb4_2 3.579428 1_655
Tb0_6 Tb4_6 3.579429 1_555
Tb0_6 Tb4_0 3.579429 1_665
Tb0_7 Tb5_2 3.555085 1_656
Tb0_7 Tb5_4 3.555085 1_556
Tb0_7 Tb5_6 3.555088 1_556
Tb0_7 Tb4_3 3.579428 1_655
Tb0_7 Tb4_7 3.579429 1_555
Tb0_7 Tb4_1 3.579429 1_665
Tb1_0 Tb3_2 3.579428 1_545
Tb1_0 Tb5_2 3.579428 1_545
Tb1_0 Tb3_6 3.579429 1_445
Tb1_0 Tb5_6 3.579429 1_445
Tb1_0 Tb3_0 3.579429 1_555
Tb1_0 Tb5_0 3.579429 1_555
Tb1_0 Tb1_4 3.593720 1_455
Tb1_0 Tb1_4 3.593720 1_555
Tb1_0 Tb1_2 3.593720 1_555
Tb1_0 Tb1_6 3.593720 1_555
Tb1_0 Tb1_2 3.593720 1_545
Tb1_0 Tb1_6 3.593720 1_445
Tb1_1 Tb5_3 3.579428 1_545
Tb1_1 Tb3_3 3.579428 1_545
Tb1_1 Tb5_7 3.579429 1_445
Tb1_1 Tb3_7 3.579429 1_445
Tb1_1 Tb5_1 3.579429 1_555
Tb1_1 Tb3_1 3.579429 1_555
Tb1_1 Tb1_5 3.593720 1_455
Tb1_1 Tb1_5 3.593720 1_555
Tb1_1 Tb1_7 3.593720 1_445
Tb1_1 Tb1_3 3.593720 1_545
Tb1_1 Tb1_7 3.593720 1_555
Tb1_1 Tb1_3 3.593720 1_555
Tb1_2 Tb3_0 3.579428 1_555
Tb1_2 Tb5_0 3.579428 1_555
Tb1_2 Tb5_4 3.579429 1_455
Tb1_2 Tb3_4 3.579429 1_455
Tb1_2 Tb3_2 3.579429 1_555
Tb1_2 Tb5_2 3.579429 1_555
Tb1_2 Tb1_6 3.593720 1_555
Tb1_2 Tb1_6 3.593720 1_455
Tb1_2 Tb1_4 3.593720 1_455
Tb1_2 Tb1_4 3.593720 1_565
Tb1_3 Tb5_1 3.579428 1_555
Tb1_3 Tb3_1 3.579428 1_555
Tb1_3 Tb5_5 3.579429 1_455
Tb1_3 Tb3_5 3.579429 1_455
Tb1_3 Tb3_3 3.579429 1_555
Tb1_3 Tb5_3 3.579429 1_555
Tb1_3 Tb1_7 3.593720 1_555
Tb1_3 Tb1_7 3.593720 1_455
Tb1_3 Tb1_5 3.593720 1_565
Tb1_3 Tb1_5 3.593720 1_455
Tb1_4 Tb3_6 3.579428 1_545
Tb1_4 Tb5_6 3.579428 1_545
Tb1_4 Tb3_2 3.579429 1_545
Tb1_4 Tb5_2 3.579429 1_545
Tb1_4 Tb5_4 3.579429 1_555
Tb1_4 Tb3_4 3.579429 1_555
Tb1_4 Tb1_6 3.593720 1_545
Tb1_4 Tb1_6 3.593720 1_555
Tb1_5 Tb5_7 3.579428 1_545
Tb1_5 Tb3_7 3.579428 1_545
Tb1_5 Tb3_3 3.579429 1_545
Tb1_5 Tb5_3 3.579429 1_545
Tb1_5 Tb3_5 3.579429 1_555
Tb1_5 Tb5_5 3.579429 1_555
Tb1_5 Tb1_7 3.593720 1_555
Tb1_5 Tb1_7 3.593720 1_545
Tb1_6 Tb3_4 3.579428 1_555
Tb1_6 Tb5_4 3.579428 1_555
Tb1_6 Tb3_0 3.579429 1_555
Tb1_6 Tb5_0 3.579429 1_555
Tb1_6 Tb5_6 3.579429 1_555
Tb1_6 Tb3_6 3.579429 1_555
Tb1_7 Tb3_5 3.579428 1_555
Tb1_7 Tb5_5 3.579428 1_555
Tb1_7 Tb5_1 3.579429 1_555
Tb1_7 Tb3_1 3.579429 1_555
Tb1_7 Tb5_7 3.579429 1_555
Tb1_7 Tb3_7 3.579429 1_555
Tb2_0 Tb3_4 3.555085 1_555
Tb2_0 Tb3_2 3.555085 1_545
Tb2_0 Tb3_0 3.555088 1_555
Tb2_0 Tb4_4 3.579428 1_555
Tb2_0 Tb4_0 3.579429 1_555
Tb2_0 Tb4_6 3.579429 1_555
Tb2_0 Tb2_4 3.593720 1_455
Tb2_0 Tb2_4 3.593720 1_555
Tb2_0 Tb2_6 3.593720 1_445
Tb2_0 Tb2_2 3.593720 1_545
Tb2_0 Tb2_2 3.593720 1_555
Tb2_0 Tb2_6 3.593720 1_555
Tb2_1 Tb3_5 3.555085 1_555
Tb2_1 Tb3_3 3.555085 1_545
Tb2_1 Tb3_1 3.555088 1_555
Tb2_1 Tb4_5 3.579428 1_555
Tb2_1 Tb4_1 3.579429 1_555
Tb2_1 Tb4_7 3.579429 1_555
Tb2_1 Tb2_5 3.593720 1_455
Tb2_1 Tb2_5 3.593720 1_555
Tb2_1 Tb2_3 3.593720 1_545
Tb2_1 Tb2_7 3.593720 1_445
Tb2_1 Tb2_7 3.593720 1_555
Tb2_1 Tb2_3 3.593720 1_555
Tb2_2 Tb3_6 3.555085 1_555
Tb2_2 Tb3_0 3.555085 1_555
Tb2_2 Tb3_2 3.555088 1_555
Tb2_2 Tb4_6 3.579428 1_555
Tb2_2 Tb4_2 3.579429 1_555
Tb2_2 Tb4_4 3.579429 1_565
Tb2_2 Tb2_6 3.593720 1_455
Tb2_2 Tb2_6 3.593720 1_555
Tb2_2 Tb2_4 3.593720 1_455
Tb2_2 Tb2_4 3.593720 1_565
Tb2_3 Tb3_7 3.555085 1_555
Tb2_3 Tb3_1 3.555085 1_555
Tb2_3 Tb3_3 3.555088 1_555
Tb2_3 Tb4_7 3.579428 1_555
Tb2_3 Tb4_3 3.579429 1_555
Tb2_3 Tb4_5 3.579429 1_565
Tb2_3 Tb2_7 3.593720 1_455
Tb2_3 Tb2_7 3.593720 1_555
Tb2_3 Tb2_5 3.593720 1_565
Tb2_3 Tb2_5 3.593720 1_455
Tb2_4 Tb3_0 3.555085 1_655
Tb2_4 Tb3_6 3.555085 1_545
Tb2_4 Tb3_4 3.555088 1_555
Tb2_4 Tb4_0 3.579428 1_655
Tb2_4 Tb4_4 3.579429 1_555
Tb2_4 Tb4_2 3.579429 1_655
Tb2_4 Tb2_6 3.593720 1_545
Tb2_4 Tb2_6 3.593720 1_555
Tb2_5 Tb3_1 3.555085 1_655
Tb2_5 Tb3_7 3.555085 1_545
Tb2_5 Tb3_5 3.555088 1_555
Tb2_5 Tb4_1 3.579428 1_655
Tb2_5 Tb4_5 3.579429 1_555
Tb2_5 Tb4_3 3.579429 1_655
Tb2_5 Tb2_7 3.593720 1_545
Tb2_5 Tb2_7 3.593720 1_555
Tb2_6 Tb3_2 3.555085 1_655
Tb2_6 Tb3_4 3.555085 1_555
Tb2_6 Tb3_6 3.555088 1_555
Tb2_6 Tb4_2 3.579428 1_655
Tb2_6 Tb4_6 3.579429 1_555
Tb2_6 Tb4_0 3.579429 1_665
Tb2_7 Tb3_3 3.555085 1_655
Tb2_7 Tb3_5 3.555085 1_555
Tb2_7 Tb3_7 3.555088 1_555
Tb2_7 Tb4_3 3.579428 1_655
Tb2_7 Tb4_7 3.579429 1_555
Tb2_7 Tb4_1 3.579429 1_665
Tb3_0 Tb3_4 3.593720 1_455
Tb3_0 Tb3_4 3.593720 1_555
Tb3_0 Tb3_2 3.593720 1_555
Tb3_0 Tb3_6 3.593720 1_555
Tb3_0 Tb3_2 3.593720 1_545
Tb3_0 Tb3_6 3.593720 1_445
Tb3_1 Tb3_5 3.593720 1_455
Tb3_1 Tb3_5 3.593720 1_555
Tb3_1 Tb3_3 3.593720 1_555
Tb3_1 Tb3_7 3.593720 1_555
Tb3_1 Tb3_3 3.593720 1_545
Tb3_1 Tb3_7 3.593720 1_445
Tb3_2 Tb3_6 3.593720 1_455
Tb3_2 Tb3_6 3.593720 1_555
Tb3_2 Tb3_4 3.593720 1_455
Tb3_2 Tb3_4 3.593720 1_565
Tb3_3 Tb3_7 3.593720 1_455
Tb3_3 Tb3_7 3.593720 1_555
Tb3_3 Tb3_5 3.593720 1_455
Tb3_3 Tb3_5 3.593720 1_565
Tb3_4 Tb3_6 3.593720 1_555
Tb3_4 Tb3_6 3.593720 1_545
Tb3_5 Tb3_7 3.593720 1_555
Tb3_5 Tb3_7 3.593720 1_545
Tb4_0 Tb4_4 3.593720 1_455
Tb4_0 Tb4_4 3.593720 1_555
Tb4_0 Tb4_6 3.593720 1_555
Tb4_0 Tb4_2 3.593720 1_555
Tb4_0 Tb4_6 3.593720 1_445
Tb4_0 Tb4_2 3.593720 1_545
Tb4_1 Tb4_5 3.593720 1_555
Tb4_1 Tb4_5 3.593720 1_455
Tb4_1 Tb4_3 3.593720 1_545
Tb4_1 Tb4_7 3.593720 1_445
Tb4_1 Tb4_3 3.593720 1_555
Tb4_1 Tb4_7 3.593720 1_555
Tb4_2 Tb4_6 3.593720 1_555
Tb4_2 Tb4_6 3.593720 1_455
Tb4_2 Tb4_4 3.593720 1_455
Tb4_2 Tb4_4 3.593720 1_565
Tb4_3 Tb4_7 3.593720 1_455
Tb4_3 Tb4_7 3.593720 1_555
Tb4_3 Tb4_5 3.593720 1_455
Tb4_3 Tb4_5 3.593720 1_565
Tb4_4 Tb4_6 3.593720 1_555
Tb4_4 Tb4_6 3.593720 1_545
Tb4_5 Tb4_7 3.593720 1_545
Tb4_5 Tb4_7 3.593720 1_555
Tb5_0 Tb5_4 3.593720 1_455
Tb5_0 Tb5_4 3.593720 1_555
Tb5_0 Tb5_6 3.593720 1_555
Tb5_0 Tb5_2 3.593720 1_555
Tb5_0 Tb5_2 3.593720 1_545
Tb5_0 Tb5_6 3.593720 1_445
Tb5_1 Tb5_5 3.593720 1_455
Tb5_1 Tb5_5 3.593720 1_555
Tb5_1 Tb5_3 3.593720 1_555
Tb5_1 Tb5_7 3.593720 1_555
Tb5_1 Tb5_3 3.593720 1_545
Tb5_1 Tb5_7 3.593720 1_445
Tb5_2 Tb5_6 3.593720 1_455
Tb5_2 Tb5_6 3.593720 1_555
Tb5_2 Tb5_4 3.593720 1_455
Tb5_2 Tb5_4 3.593720 1_565
Tb5_3 Tb5_7 3.593720 1_455
Tb5_3 Tb5_7 3.593720 1_555
Tb5_3 Tb5_5 3.593720 1_455
Tb5_3 Tb5_5 3.593720 1_565
Tb5_4 Tb5_6 3.593720 1_555
Tb5_4 Tb5_6 3.593720 1_545
Tb5_5 Tb5_7 3.593720 1_555
Tb5_5 Tb5_7 3.593720 1_545
