# generated using pymatgen
data_Yb3Ge8
_symmetry_space_group_name_H-M   'P 1'
_cell_length_a   7.42226500
_cell_length_b   7.58894026
_cell_length_c   10.47161317
_cell_angle_alpha   69.01930218
_cell_angle_beta   69.80956792
_cell_angle_gamma   64.40085335
_symmetry_Int_Tables_number   1
_chemical_formula_structural   Yb3Ge8
_chemical_formula_sum   'Yb6 Ge16'
_cell_volume   483.80164265
_cell_formula_units_Z   2
loop_
 _symmetry_equiv_pos_site_id
 _symmetry_equiv_pos_as_xyz
  1  'x, y, z'
loop_
 _atom_site_type_symbol
 _atom_site_label
 _atom_site_symmetry_multiplicity
 _atom_site_fract_x
 _atom_site_fract_y
 _atom_site_fract_z
 _atom_site_occupancy
  Yb  Yb0  1  0.66907700  0.31910900  0.37432300  1
  Yb  Yb1  1  0.33092300  0.68089100  0.62567700  1
  Yb  Yb2  1  0.33683300  0.09187200  0.77528400  1
  Yb  Yb3  1  0.82115100  0.56252700  0.78082400  1
  Yb  Yb4  1  0.17884900  0.43747300  0.21917600  1
  Yb  Yb5  1  0.66316700  0.90812800  0.22471600  1
  Ge  Ge0  1  0.37500500  0.64165000  0.92520700  1
  Ge  Ge1  1  0.66620700  0.30761500  0.69241200  1
  Ge  Ge2  1  0.82363300  0.54899200  0.47450900  1
  Ge  Ge3  1  0.82680600  0.55353300  0.08259400  1
  Ge  Ge4  1  0.17636700  0.45100800  0.52549100  1
  Ge  Ge5  1  0.87520500  0.12776300  0.90646400  1
  Ge  Ge6  1  0.62499500  0.35835000  0.07479300  1
  Ge  Ge7  1  0.32453800  0.10667900  0.47909500  1
  Ge  Ge8  1  0.33379300  0.69238500  0.30758800  1
  Ge  Ge9  1  0.87357500  0.96782900  0.64488300  1
  Ge  Ge10  1  0.17319400  0.44646700  0.91740600  1
  Ge  Ge11  1  0.12479500  0.87223700  0.09353600  1
  Ge  Ge12  1  0.31701400  0.09404700  0.06873000  1
  Ge  Ge13  1  0.67546200  0.89332100  0.52090500  1
  Ge  Ge14  1  0.12642500  0.03217100  0.35511700  1
  Ge  Ge15  1  0.68298600  0.90595300  0.93127000  1
loop_
_geom_bond_atom_site_label_1
_geom_bond_atom_site_label_2
_geom_bond_distance
_geom_bond_site_symmetry_2
Ge0 Ge10 2.555940 1_555
Ge0 Ge6 2.581888 1_556
Ge0 Ge11 2.599814 1_556
Ge0 Yb3 3.014603 1_555
Ge0 Yb4 3.071931 1_556
Ge0 Yb2 3.138180 1_565
Ge0 Yb1 3.160549 1_555
Ge1 Ge9 2.495300 1_545
Ge1 Ge2 2.635026 1_555
Ge1 Ge5 2.770045 1_555
Ge1 Yb1 2.897744 1_555
Ge1 Yb3 3.140394 1_555
Ge1 Yb2 3.222918 1_555
Ge1 Yb0 3.293563 1_555
Ge2 Ge4 2.586606 1_655
Ge2 Yb0 3.054655 1_555
Ge2 Yb4 3.105245 1_655
Ge2 Yb5 3.151028 1_555
Ge2 Yb3 3.239318 1_555
Ge2 Yb1 3.294990 1_555
Ge3 Ge6 2.555940 1_555
Ge3 Yb0 3.050736 1_555
Ge3 Yb4 3.055766 1_655
Ge3 Yb5 3.118868 1_555
Ge3 Yb3 3.150677 1_554
Ge4 Ge7 2.516091 1_555
Ge4 Ge8 2.635026 1_555
Ge4 Yb1 3.054655 1_555
Ge4 Yb3 3.105245 1_455
Ge4 Yb2 3.151028 1_555
Ge4 Yb4 3.239318 1_555
Ge4 Yb0 3.294990 1_555
Ge5 Ge6 2.599814 1_556
Ge5 Yb3 2.981590 1_555
Ge5 Yb2 3.148559 1_655
Ge5 Yb5 3.321134 1_546
Ge6 Yb4 3.014603 1_555
Ge6 Yb3 3.071931 1_554
Ge6 Yb5 3.138180 1_545
Ge6 Yb0 3.160549 1_555
Ge7 Yb1 3.027472 1_545
Ge7 Yb2 3.094781 1_555
Ge7 Yb4 3.110022 1_555
Ge7 Yb5 3.265469 1_545
Ge7 Yb0 3.271308 1_555
Ge8 Yb0 2.897744 1_555
Ge8 Yb4 3.140394 1_555
Ge8 Yb5 3.222918 1_555
Ge8 Yb1 3.293563 1_555
Ge9 Yb3 3.025698 1_555
Ge9 Yb1 3.124093 1_655
Ge9 Yb0 3.391277 1_565
Ge9 Yb2 3.542092 1_565
Ge10 Ge3 2.528585 1_456
Ge10 Ge12 2.543434 1_556
Ge10 Yb1 3.050736 1_555
Ge10 Yb3 3.055766 1_455
Ge10 Yb2 3.118868 1_555
Ge10 Yb4 3.150677 1_556
Ge11 Ge12 2.538272 1_565
Ge11 Ge8 2.770045 1_555
Ge11 Ge5 2.776709 1_464
Ge11 Yb4 2.981590 1_555
Ge11 Yb5 3.148559 1_455
Ge11 Yb2 3.321134 1_564
Ge12 Ge15 2.628647 1_544
Ge12 Ge14 2.802213 1_555
Ge12 Yb2 3.030930 1_554
Ge12 Yb5 3.061660 1_545
Ge12 Yb4 3.137119 1_555
Ge13 Ge7 2.496538 1_565
Ge13 Ge2 2.516091 1_555
Ge13 Ge9 2.594091 1_555
Ge13 Yb0 3.027472 1_565
Ge13 Yb5 3.094781 1_555
Ge13 Yb3 3.110022 1_555
Ge13 Yb2 3.265469 1_565
Ge13 Yb1 3.271308 1_555
Ge14 Ge8 2.495300 1_545
Ge14 Ge7 2.594091 1_555
Ge14 Ge9 2.961015 1_445
Ge14 Yb4 3.025698 1_555
Ge14 Yb0 3.124093 1_455
Ge14 Yb1 3.391277 1_545
Ge14 Yb5 3.542092 1_545
Ge15 Ge5 2.538272 1_565
Ge15 Ge3 2.543434 1_556
Ge15 Ge9 2.802213 1_555
Ge15 Yb5 3.030930 1_556
Ge15 Yb2 3.061660 1_565
Ge15 Yb3 3.137119 1_555
