# generated using pymatgen
data_Th(TeO3)2
_symmetry_space_group_name_H-M   'P 1'
_cell_length_a   11.26866160
_cell_length_b   7.21972374
_cell_length_c   8.66252971
_cell_angle_alpha   55.28776684
_cell_angle_beta   90.00000000
_cell_angle_gamma   90.00000000
_symmetry_Int_Tables_number   1
_chemical_formula_structural   Th(TeO3)2
_chemical_formula_sum   'Th4 Te8 O24'
_cell_volume   579.32376772
_cell_formula_units_Z   4
loop_
 _symmetry_equiv_pos_site_id
 _symmetry_equiv_pos_as_xyz
  1  'x, y, z'
loop_
 _atom_site_type_symbol
 _atom_site_label
 _atom_site_symmetry_multiplicity
 _atom_site_fract_x
 _atom_site_fract_y
 _atom_site_fract_z
 _atom_site_occupancy
  Th  Th0  1  0.09322387  0.25076817  0.00902023  1
  Th  Th1  1  0.59322387  0.74923183  0.49097977  1
  Th  Th2  1  0.90677613  0.74923183  0.99097977  1
  Th  Th3  1  0.40677613  0.25076817  0.50902023  1
  Te  Te0  1  0.27679437  0.79942951  0.43959876  1
  Te  Te1  1  0.77679437  0.20057049  0.06040124  1
  Te  Te2  1  0.72320563  0.20057049  0.56040124  1
  Te  Te3  1  0.22320563  0.79942951  0.93959876  1
  Te  Te4  1  0.92697780  0.72609134  0.53795474  1
  Te  Te5  1  0.42697780  0.27390866  0.96204526  1
  Te  Te6  1  0.07302220  0.27390866  0.46204526  1
  Te  Te7  1  0.57302220  0.72609134  0.03795474  1
  O  O0  1  0.24793941  0.96292388  0.18203960  1
  O  O1  1  0.74793941  0.03707612  0.31796040  1
  O  O2  1  0.75206059  0.03707612  0.81796040  1
  O  O3  1  0.25206059  0.96292388  0.68203960  1
  O  O4  1  0.40046957  0.99030068  0.41966783  1
  O  O5  1  0.90046957  0.00969932  0.08033217  1
  O  O6  1  0.59953043  0.00969932  0.58033217  1
  O  O7  1  0.09953043  0.99030068  0.91966783  1
  O  O8  1  0.40097951  0.61282523  0.45646621  1
  O  O9  1  0.90097951  0.38717477  0.04353379  1
  O  O10  1  0.59902049  0.38717477  0.54353379  1
  O  O11  1  0.09902049  0.61282523  0.95646621  1
  O  O12  1  0.02228088  0.47344553  0.70370902  1
  O  O13  1  0.52228088  0.52655447  0.79629098  1
  O  O14  1  0.97771912  0.52655447  0.29629098  1
  O  O15  1  0.47771912  0.47344553  0.20370902  1
  O  O16  1  0.90350143  0.85041881  0.67763898  1
  O  O17  1  0.40350143  0.14958119  0.82236102  1
  O  O18  1  0.09649857  0.14958119  0.32236102  1
  O  O19  1  0.59649857  0.85041881  0.17763898  1
  O  O20  1  0.78217606  0.57071489  0.60484521  1
  O  O21  1  0.28217606  0.42928511  0.89515479  1
  O  O22  1  0.21782394  0.42928511  0.39515479  1
  O  O23  1  0.71782394  0.57071489  0.10484521  1
loop_
_geom_bond_atom_site_label_1
_geom_bond_atom_site_label_2
_geom_bond_distance
_geom_bond_site_symmetry_2
O0 Te0 1.864806 1_555
O0 Th0 2.461156 1_565
O1 Te1 1.864806 1_555
O1 Th1 2.461156 1_545
O2 Te2 1.864806 1_555
O2 Th2 2.461156 1_545
O3 Te3 1.864806 1_555
O3 Th3 2.461156 1_565
O4 Te0 1.897392 1_555
O4 Th3 2.407941 1_565
O4 Th1 2.627588 1_555
O5 Te1 1.897392 1_555
O5 Th2 2.407941 1_544
O5 Th0 2.627588 1_655
O6 Te2 1.897392 1_555
O6 Th1 2.407941 1_545
O6 Th3 2.627588 1_555
O7 Te3 1.897392 1_555
O7 Th0 2.407941 1_566
O7 Th2 2.627588 1_455
O8 Te0 1.889579 1_555
O8 Th3 2.385154 1_555
O8 Th1 2.467307 1_555
O9 Te1 1.889579 1_555
O9 Th2 2.385154 1_554
O9 Th0 2.467307 1_655
O10 Te2 1.889579 1_555
O10 Th1 2.385154 1_555
O10 Th3 2.467307 1_555
O11 Te3 1.889579 1_555
O11 Th0 2.385154 1_556
O11 Th2 2.467307 1_455
O12 Te4 1.886599 1_455
O12 Th0 2.318608 1_556
O13 Te5 1.886599 1_555
O13 Th1 2.318608 1_555
O14 Te6 1.886599 1_655
O14 Th2 2.318608 1_554
O15 Te7 1.886599 1_555
O15 Th3 2.318608 1_555
O16 Te4 1.891252 1_555
O16 Th2 2.375759 1_555
O17 Te5 1.891252 1_555
O17 Th3 2.375759 1_555
O18 Te6 1.891252 1_555
O18 Th0 2.375759 1_555
O19 Te7 1.891252 1_555
O19 Th1 2.375759 1_555
O20 Te4 1.875194 1_555
O20 Th1 2.391616 1_555
O21 Te5 1.875194 1_555
O21 Th0 2.391616 1_556
O22 Te6 1.875194 1_555
O22 Th3 2.391616 1_555
O23 Te7 1.875194 1_555
O23 Th2 2.391616 1_554
