# generated using pymatgen
data_Ba5As3ClO12
_symmetry_space_group_name_H-M   'P 1'
_cell_length_a   10.79341784
_cell_length_b   10.79341784
_cell_length_c   7.83249400
_cell_angle_alpha   90.00000000
_cell_angle_beta   90.00000000
_cell_angle_gamma   119.99999904
_symmetry_Int_Tables_number   1
_chemical_formula_structural   Ba5As3ClO12
_chemical_formula_sum   'Ba10 As6 Cl2 O24'
_cell_volume   790.22121871
_cell_formula_units_Z   2
loop_
 _symmetry_equiv_pos_site_id
 _symmetry_equiv_pos_as_xyz
  1  'x, y, z'
loop_
 _atom_site_type_symbol
 _atom_site_label
 _atom_site_symmetry_multiplicity
 _atom_site_fract_x
 _atom_site_fract_y
 _atom_site_fract_z
 _atom_site_occupancy
  Ba  Ba0  1  0.66666700  0.33333300  0.50148600  1
  Ba  Ba1  1  0.33333300  0.66666700  0.49851400  1
  Ba  Ba2  1  0.00547900  0.25423500  0.25000000  1
  Ba  Ba3  1  0.33333300  0.66666700  0.00148600  1
  Ba  Ba4  1  0.74576500  0.75124400  0.25000000  1
  Ba  Ba5  1  0.24875600  0.99452100  0.25000000  1
  Ba  Ba6  1  0.75124400  0.00547900  0.75000000  1
  Ba  Ba7  1  0.99452100  0.74576500  0.75000000  1
  Ba  Ba8  1  0.66666700  0.33333300  0.99851400  1
  Ba  Ba9  1  0.25423500  0.24875600  0.75000000  1
  As  As0  1  0.96601800  0.59382300  0.25000000  1
  As  As1  1  0.59382300  0.62780500  0.75000000  1
  As  As2  1  0.37219500  0.96601800  0.75000000  1
  As  As3  1  0.40617700  0.37219500  0.25000000  1
  As  As4  1  0.03398200  0.40617700  0.75000000  1
  As  As5  1  0.62780500  0.03398200  0.25000000  1
  Cl  Cl0  1  0.00000000  0.00000000  0.00000000  1
  Cl  Cl1  1  0.00000000  0.00000000  0.50000000  1
  O  O0  1  0.64439600  0.73741000  0.92710600  1
  O  O1  1  0.33300600  0.48232600  0.25000000  1
  O  O2  1  0.35560400  0.26259000  0.42710600  1
  O  O3  1  0.40842000  0.53101600  0.75000000  1
  O  O4  1  0.09301500  0.35560400  0.57289400  1
  O  O5  1  0.66699400  0.51767400  0.75000000  1
  O  O6  1  0.85067900  0.33300600  0.75000000  1
  O  O7  1  0.12259600  0.59158000  0.75000000  1
  O  O8  1  0.59158000  0.46898400  0.25000000  1
  O  O9  1  0.73741000  0.09301500  0.07289400  1
  O  O10  1  0.09301500  0.35560400  0.92710600  1
  O  O11  1  0.87740400  0.40842000  0.25000000  1
  O  O12  1  0.46898400  0.87740400  0.75000000  1
  O  O13  1  0.90698500  0.64439600  0.07289400  1
  O  O14  1  0.90698500  0.64439600  0.42710600  1
  O  O15  1  0.48232600  0.14932100  0.75000000  1
  O  O16  1  0.35560400  0.26259000  0.07289400  1
  O  O17  1  0.73741000  0.09301500  0.42710600  1
  O  O18  1  0.14932100  0.66699400  0.25000000  1
  O  O19  1  0.26259000  0.90698500  0.92710600  1
  O  O20  1  0.51767400  0.85067900  0.25000000  1
  O  O21  1  0.26259000  0.90698500  0.57289400  1
  O  O22  1  0.64439600  0.73741000  0.57289400  1
  O  O23  1  0.53101600  0.12259600  0.25000000  1
loop_
_geom_bond_atom_site_label_1
_geom_bond_atom_site_label_2
_geom_bond_distance
_geom_bond_site_symmetry_2
Ba0 O6 2.782174 1_555
Ba0 O15 2.782181 1_555
Ba0 O5 2.782189 1_555
Ba0 O11 2.804826 1_555
Ba0 O23 2.804827 1_555
Ba0 O8 2.804833 1_555
Ba0 O17 3.103394 1_555
Ba0 O14 3.103408 1_555
Ba0 O2 3.103414 1_555
Ba1 O18 2.782174 1_555
Ba1 O20 2.782181 1_555
Ba1 O1 2.782189 1_555
Ba1 O7 2.804826 1_555
Ba1 O12 2.804827 1_555
Ba1 O3 2.804833 1_555
Ba1 O21 3.103394 1_555
Ba1 O4 3.103408 1_555
Ba1 O22 3.103414 1_555
Ba2 O11 2.642150 1_455
Ba2 O10 2.729872 1_554
Ba2 O4 2.729872 1_555
Ba2 O17 2.879081 1_455
Ba2 O9 2.879081 1_455
Ba2 O1 3.139261 1_555
Ba2 Cl1 3.347441 1_555
Ba2 Cl0 3.347441 1_555
Ba3 O18 2.782174 1_555
Ba3 O20 2.782181 1_555
Ba3 O1 2.782189 1_555
Ba3 O7 2.804826 1_554
Ba3 O12 2.804827 1_554
Ba3 O3 2.804833 1_554
Ba3 O19 3.103394 1_554
Ba3 O10 3.103408 1_554
Ba3 O0 3.103414 1_554
Ba4 O8 2.642150 1_555
Ba4 O22 2.729870 1_555
Ba4 O0 2.729870 1_554
Ba4 O13 2.879074 1_555
Ba4 O14 2.879074 1_555
Ba4 O20 3.139253 1_555
Ba4 Cl0 3.347441 1_665
Ba4 Cl1 3.347441 1_665
Ba5 O23 2.642150 1_565
Ba5 O21 2.729874 1_555
Ba5 O19 2.729874 1_554
Ba5 O2 2.879083 1_565
Ba5 O16 2.879083 1_565
Ba5 O18 3.139263 1_555
Ba5 Cl0 3.347441 1_565
Ba5 Cl1 3.347441 1_565
Ba6 O12 2.642150 1_545
Ba6 O9 2.729874 1_556
Ba6 O17 2.729874 1_555
Ba6 O22 2.879083 1_545
Ba6 O0 2.879083 1_545
Ba6 O6 3.139263 1_555
Ba6 Cl1 3.347441 1_655
Ba6 Cl0 3.347441 1_656
Ba7 O7 2.642150 1_655
Ba7 O13 2.729872 1_556
Ba7 O14 2.729872 1_555
Ba7 O21 2.879081 1_655
Ba7 O19 2.879081 1_655
Ba7 O5 3.139261 1_555
Ba7 Cl0 3.347441 1_666
Ba7 Cl1 3.347441 1_665
Ba8 O6 2.782174 1_555
Ba8 O15 2.782181 1_555
Ba8 O5 2.782189 1_555
Ba8 O11 2.804826 1_556
Ba8 O23 2.804827 1_556
Ba8 O8 2.804833 1_556
Ba8 O9 3.103394 1_556
Ba8 O13 3.103408 1_556
Ba8 O16 3.103414 1_556
Ba9 O3 2.642150 1_555
Ba9 O16 2.729870 1_556
Ba9 O2 2.729870 1_555
Ba9 O4 2.879074 1_555
Ba9 O10 2.879074 1_555
Ba9 O15 3.139253 1_555
Ba9 Cl1 3.347441 1_555
Ba9 Cl0 3.347441 1_556
As0 O18 1.724973 1_655
As0 O14 1.725113 1_555
As0 O13 1.725113 1_555
As0 O11 1.733593 1_555
As1 O5 1.724963 1_555
As1 O22 1.725108 1_555
As1 O0 1.725108 1_555
As1 O3 1.733593 1_555
As2 O15 1.724972 1_565
As2 O19 1.725108 1_555
As2 O21 1.725108 1_555
As2 O12 1.733593 1_555
As3 O1 1.724963 1_555
As3 O2 1.725108 1_555
As3 O16 1.725108 1_555
As3 O8 1.733593 1_555
As4 O6 1.724973 1_455
As4 O10 1.725113 1_555
As4 O4 1.725113 1_555
As4 O7 1.733593 1_555
As5 O20 1.724972 1_545
As5 O17 1.725108 1_555
As5 O9 1.725108 1_555
As5 O23 1.733593 1_555
