# generated using pymatgen
data_Li2U3V2O15
_symmetry_space_group_name_H-M   'P 1'
_cell_length_a   13.55405316
_cell_length_b   13.55405316
_cell_length_c   13.55405316
_cell_angle_alpha   148.10310399
_cell_angle_beta   148.10310399
_cell_angle_gamma   45.73318653
_symmetry_Int_Tables_number   1
_chemical_formula_structural   Li2U3V2O15
_chemical_formula_sum   'Li4 U6 V4 O30'
_cell_volume   692.89514430
_cell_formula_units_Z   2
loop_
 _symmetry_equiv_pos_site_id
 _symmetry_equiv_pos_as_xyz
  1  'x, y, z'
loop_
 _atom_site_type_symbol
 _atom_site_label
 _atom_site_symmetry_multiplicity
 _atom_site_fract_x
 _atom_site_fract_y
 _atom_site_fract_z
 _atom_site_occupancy
  Li  Li0  1  0.34437100  0.34437100  0.00000000  1
  Li  Li1  1  0.40562900  0.90562900  0.50000000  1
  Li  Li2  1  0.09437100  0.59437100  0.50000000  1
  Li  Li3  1  0.65562900  0.65562900  0.00000000  1
  U  U0  1  0.91500400  0.91500400  0.00000000  1
  U  U1  1  0.83499600  0.33499600  0.50000000  1
  U  U2  1  0.08499600  0.08499600  0.00000000  1
  U  U3  1  0.66500400  0.16500400  0.50000000  1
  U  U4  1  0.50000000  0.50000000  0.00000000  1
  U  U5  1  0.25000000  0.75000000  0.50000000  1
  V  V0  1  0.78227300  0.78227300  0.00000000  1
  V  V1  1  0.96772700  0.46772700  0.50000000  1
  V  V2  1  0.53227300  0.03227300  0.50000000  1
  V  V3  1  0.21772700  0.21772700  0.00000000  1
  O  O0  1  0.92225800  0.59982800  0.67756900  1
  O  O1  1  0.08685000  0.84112200  0.75427200  1
  O  O2  1  0.17637200  0.67637200  0.50000000  1
  O  O3  1  0.59112200  0.33685000  0.25427200  1
  O  O4  1  0.49336800  0.79962400  0.30625600  1
  O  O5  1  0.99468900  0.17225800  0.82243100  1
  O  O6  1  0.66742300  0.91315000  0.75427200  1
  O  O7  1  0.15887800  0.91315000  0.24572800  1
  O  O8  1  0.32362800  0.82362800  0.50000000  1
  O  O9  1  0.92225800  0.24468900  0.32243100  1
  O  O10  1  0.82774200  0.00531100  0.17756900  1
  O  O11  1  0.40017200  0.07774200  0.32243100  1
  O  O12  1  0.66315000  0.91742300  0.25427200  1
  O  O13  1  0.54962400  0.74336800  0.80625600  1
  O  O14  1  0.66315000  0.40887800  0.74572800  1
  O  O15  1  0.08685000  0.33257700  0.24572800  1
  O  O16  1  0.20037600  0.50663200  0.69374400  1
  O  O17  1  0.57362800  0.57362800  0.00000000  1
  O  O18  1  0.08257700  0.33685000  0.74572800  1
  O  O19  1  0.75000000  0.25000000  0.50000000  1
  O  O20  1  0.81288800  0.50663200  0.30625600  1
  O  O21  1  0.34982800  0.17225800  0.17756900  1
  O  O22  1  0.75531100  0.07774200  0.67756900  1
  O  O23  1  0.25663200  0.06288800  0.80625600  1
  O  O24  1  0.93711200  0.74336800  0.19374400  1
  O  O25  1  0.49336800  0.18711200  0.69374400  1
  O  O26  1  0.82774200  0.65017200  0.82243100  1
  O  O27  1  0.25663200  0.45037600  0.19374400  1
  O  O28  1  0.00000000  0.00000000  0.00000000  1
  O  O29  1  0.42637200  0.42637200  0.00000000  1
loop_
_geom_bond_atom_site_label_1
_geom_bond_atom_site_label_2
_geom_bond_distance
_geom_bond_site_symmetry_2
Li0 O3 1.903254 1_555
Li0 O18 1.903258 1_554
Li0 O29 2.048199 1_555
Li0 O23 2.623994 1_554
Li0 O27 2.623994 1_555
Li1 O7 1.903254 1_555
Li1 O6 1.903258 1_555
Li1 O8 2.048199 1_555
Li1 O4 2.623994 1_555
Li1 O25 2.623994 1_565
Li2 O1 1.903254 1_555
Li2 O15 1.903258 1_555
Li2 O2 2.048199 1_555
Li2 O16 2.623994 1_555
Li2 O20 2.623994 1_455
Li3 O14 1.903254 1_554
Li3 O12 1.903258 1_555
Li3 O17 2.048199 1_555
Li3 O13 2.623994 1_554
Li3 O24 2.623994 1_555
O0 V1 1.743325 1_555
O0 U0 2.408468 1_556
O0 U1 2.549531 1_555
O1 U2 1.830905 1_566
O2 U5 1.839061 1_555
O3 U1 1.830905 1_555
O4 V2 1.739796 1_565
O4 U4 2.287172 1_555
O5 V3 1.743331 1_656
O5 U3 2.408471 1_555
O5 U2 2.549519 1_656
O6 U0 1.830901 1_556
O7 U0 1.830905 1_455
O8 U5 1.839061 1_555
O9 V1 1.743331 1_555
O9 U0 2.408471 1_545
O9 U1 2.549519 1_555
O10 V0 1.743331 1_545
O10 U1 2.408471 1_555
O10 U0 2.549519 1_545
O11 V2 1.743325 1_555
O11 U2 2.408468 1_555
O11 U3 2.549531 1_555
O12 U3 1.830901 1_565
O13 V0 1.739796 1_556
O13 U5 2.287172 1_555
O14 U3 1.830905 1_555
O15 U2 1.830901 1_555
O16 V1 1.739796 1_455
O16 U4 2.287172 1_556
O17 U4 1.839061 1_555
O18 U1 1.830901 1_455
O19 U1 2.123008 1_555
O19 U3 2.123008 1_555
O20 V1 1.739796 1_555
O20 U4 2.287172 1_555
O21 V3 1.743325 1_555
O21 U3 2.408468 1_555
O21 U2 2.549531 1_555
O22 V2 1.743331 1_555
O22 U2 2.408471 1_656
O22 U3 2.549519 1_555
O23 V3 1.739796 1_556
O23 U5 2.287172 1_545
O24 V0 1.739796 1_555
O24 U5 2.287172 1_655
O25 V2 1.739796 1_555
O25 U4 2.287172 1_556
O26 V0 1.743325 1_556
O26 U1 2.408468 1_555
O26 U0 2.549531 1_556
O27 V3 1.739796 1_555
O27 U5 2.287172 1_555
O28 U2 2.123008 1_555
O28 U0 2.123008 1_445
O29 U4 1.839061 1_555
