# generated using pymatgen
data_CsMo(PO4)2
_symmetry_space_group_name_H-M   'P 1'
_cell_length_a   5.26306700
_cell_length_b   12.03878700
_cell_length_c   13.28708307
_cell_angle_alpha   90.00000000
_cell_angle_beta   111.96173877
_cell_angle_gamma   90.00000000
_symmetry_Int_Tables_number   1
_chemical_formula_structural   CsMo(PO4)2
_chemical_formula_sum   'Cs4 Mo4 P8 O32'
_cell_volume   780.78992571
_cell_formula_units_Z   4
loop_
 _symmetry_equiv_pos_site_id
 _symmetry_equiv_pos_as_xyz
  1  'x, y, z'
loop_
 _atom_site_type_symbol
 _atom_site_label
 _atom_site_symmetry_multiplicity
 _atom_site_fract_x
 _atom_site_fract_y
 _atom_site_fract_z
 _atom_site_occupancy
  Cs  Cs0  1  0.28281100  0.16029700  0.55159500  1
  Cs  Cs1  1  0.28281100  0.33970300  0.05159500  1
  Cs  Cs2  1  0.71718900  0.83970300  0.44840500  1
  Cs  Cs3  1  0.71718900  0.66029700  0.94840500  1
  Mo  Mo0  1  0.95021200  0.45258100  0.68797900  1
  Mo  Mo1  1  0.95021200  0.04741900  0.18797900  1
  Mo  Mo2  1  0.04978800  0.54741900  0.31202100  1
  Mo  Mo3  1  0.04978800  0.95258100  0.81202100  1
  P  P0  1  0.54678800  0.33246800  0.80945300  1
  P  P1  1  0.54678800  0.16753200  0.30945300  1
  P  P2  1  0.45321200  0.66753200  0.19054700  1
  P  P3  1  0.45321200  0.83246800  0.69054700  1
  P  P4  1  0.63971500  0.10285300  0.91683600  1
  P  P5  1  0.63971500  0.39714700  0.41683600  1
  P  P6  1  0.36028500  0.89714700  0.08316400  1
  P  P7  1  0.36028500  0.60285300  0.58316400  1
  O  O0  1  0.05956300  0.53438100  0.80178400  1
  O  O1  1  0.05956300  0.96561900  0.30178400  1
  O  O2  1  0.94043700  0.46561900  0.19821600  1
  O  O3  1  0.94043700  0.03438100  0.69821600  1
  O  O4  1  0.22958400  0.32652600  0.75038200  1
  O  O5  1  0.22958400  0.17347400  0.25038200  1
  O  O6  1  0.77041600  0.67347400  0.24961800  1
  O  O7  1  0.77041600  0.82652600  0.74961800  1
  O  O8  1  0.67535400  0.35765000  0.72499100  1
  O  O9  1  0.67535400  0.14235000  0.22499100  1
  O  O10  1  0.32464600  0.64235000  0.27500900  1
  O  O11  1  0.32464600  0.85765000  0.77500900  1
  O  O12  1  0.20822400  0.51208000  0.61792500  1
  O  O13  1  0.20822400  0.98792000  0.11792500  1
  O  O14  1  0.79177600  0.48792000  0.38207500  1
  O  O15  1  0.79177600  0.01208000  0.88207500  1
  O  O16  1  0.65622600  0.56934800  0.60245600  1
  O  O17  1  0.65622600  0.93065200  0.10245600  1
  O  O18  1  0.34377400  0.43065200  0.39754400  1
  O  O19  1  0.34377400  0.06934800  0.89754400  1
  O  O20  1  0.78666700  0.35678500  0.53322600  1
  O  O21  1  0.78666700  0.14321500  0.03322600  1
  O  O22  1  0.21333300  0.64321500  0.46677400  1
  O  O23  1  0.21333300  0.85678500  0.96677400  1
  O  O24  1  0.64864000  0.40001400  0.91148500  1
  O  O25  1  0.64864000  0.09998600  0.41148500  1
  O  O26  1  0.35136000  0.59998600  0.08851500  1
  O  O27  1  0.35136000  0.90001400  0.58851500  1
  O  O28  1  0.62875300  0.20227600  0.83456200  1
  O  O29  1  0.62875300  0.29772400  0.33456200  1
  O  O30  1  0.37124700  0.79772400  0.16543800  1
  O  O31  1  0.37124700  0.70227600  0.66543800  1
loop_
_geom_bond_atom_site_label_1
_geom_bond_atom_site_label_2
_geom_bond_distance
_geom_bond_site_symmetry_2
Cs0 O27 3.171309 1_545
Cs0 O25 3.221966 1_555
Cs0 O25 3.238124 1_455
Cs0 O4 3.407810 1_555
Cs0 O8 3.414813 1_555
Cs0 O3 3.459183 1_455
Cs0 O20 3.463657 1_455
Cs0 O28 3.547712 1_555
Cs0 O3 3.609593 1_555
Cs0 O20 3.629236 1_555
Cs1 O26 3.171309 1_555
Cs1 O24 3.221966 1_554
Cs1 O24 3.238124 1_454
Cs1 O5 3.407810 1_555
Cs1 O9 3.414813 1_555
Cs1 O2 3.459183 1_455
Cs1 O21 3.463657 1_455
Cs1 O29 3.547712 1_555
Cs1 O2 3.609593 1_555
Cs1 O21 3.629236 1_555
Cs2 O25 3.171309 1_565
Cs2 O27 3.221966 1_555
Cs2 O27 3.238124 1_655
Cs2 O6 3.407810 1_555
Cs2 O10 3.414813 1_555
Cs2 O1 3.459183 1_655
Cs2 O22 3.463657 1_655
Cs2 O30 3.547712 1_555
Cs2 O1 3.609593 1_555
Cs2 O22 3.629236 1_555
Cs3 O24 3.171309 1_555
Cs3 O26 3.221966 1_556
Cs3 O26 3.238124 1_656
Cs3 O7 3.407810 1_555
Cs3 O11 3.414813 1_555
Cs3 O0 3.459183 1_655
Cs3 O23 3.463657 1_655
Cs3 O31 3.547712 1_555
Cs3 O0 3.609593 1_555
Cs3 O23 3.629236 1_555
Mo0 O0 1.713657 1_655
Mo0 O12 2.041790 1_655
Mo0 O8 2.042724 1_555
Mo0 O4 2.059247 1_655
Mo0 O16 2.084778 1_555
Mo0 O20 2.230495 1_555
Mo1 O1 1.713657 1_645
Mo1 O13 2.041790 1_645
Mo1 O9 2.042724 1_555
Mo1 O5 2.059247 1_655
Mo1 O17 2.084778 1_545
Mo1 O21 2.230495 1_555
Mo2 O2 1.713657 1_455
Mo2 O14 2.041790 1_455
Mo2 O10 2.042724 1_555
Mo2 O6 2.059247 1_455
Mo2 O18 2.084778 1_555
Mo2 O22 2.230495 1_555
Mo3 O3 1.713657 1_465
Mo3 O15 2.041790 1_465
Mo3 O11 2.042724 1_555
Mo3 O7 2.059247 1_455
Mo3 O19 2.084778 1_565
Mo3 O23 2.230495 1_555
O4 P0 1.558261 1_555
O5 P1 1.558261 1_555
O6 P2 1.558261 1_555
O7 P3 1.558261 1_555
O8 P0 1.541820 1_555
O9 P1 1.541820 1_555
O10 P2 1.541820 1_555
O11 P3 1.541820 1_555
O12 P7 1.524632 1_555
O13 P6 1.524632 1_555
O14 P5 1.524632 1_555
O15 P4 1.524632 1_555
O16 P7 1.534848 1_555
O17 P6 1.534848 1_555
O18 P5 1.534848 1_555
O19 P4 1.534848 1_555
O20 P5 1.526846 1_555
O21 P4 1.526846 1_554
O22 P7 1.526846 1_555
O23 P6 1.526846 1_556
O24 P0 1.497654 1_555
O25 P1 1.497654 1_555
O26 P2 1.497654 1_555
O27 P3 1.497654 1_555
O28 P4 1.607435 1_555
O28 P0 1.626760 1_555
O29 P5 1.607435 1_555
O29 P1 1.626760 1_555
O30 P6 1.607435 1_555
O30 P2 1.626760 1_555
O31 P7 1.607435 1_555
O31 P3 1.626760 1_555
