# generated using pymatgen
data_In3SnI5
_symmetry_space_group_name_H-M   'P 1'
_cell_length_a   9.00277060
_cell_length_b   8.96407249
_cell_length_c   17.76076752
_cell_angle_alpha   80.65824948
_cell_angle_beta   90.00000000
_cell_angle_gamma   90.00000000
_symmetry_Int_Tables_number   1
_chemical_formula_structural   In3SnI5
_chemical_formula_sum   'In12 Sn4 I20'
_cell_volume   1414.31124121
_cell_formula_units_Z   4
loop_
 _symmetry_equiv_pos_site_id
 _symmetry_equiv_pos_as_xyz
  1  'x, y, z'
loop_
 _atom_site_type_symbol
 _atom_site_label
 _atom_site_symmetry_multiplicity
 _atom_site_fract_x
 _atom_site_fract_y
 _atom_site_fract_z
 _atom_site_occupancy
  In  In0  1  0.82254035  0.61875353  0.25229463  1
  In  In1  1  0.67745965  0.61875353  0.75229463  1
  In  In2  1  0.60448070  0.10899911  0.24872274  1
  In  In3  1  0.10448070  0.89100089  0.25127726  1
  In  In4  1  0.32254035  0.38124647  0.24770537  1
  In  In5  1  0.54629458  0.22394847  0.97590070  1
  In  In6  1  0.45370542  0.77605153  0.02409930  1
  In  In7  1  0.89551930  0.10899911  0.74872274  1
  In  In8  1  0.04629458  0.77605153  0.52409930  1
  In  In9  1  0.39551930  0.89100089  0.75127726  1
  In  In10  1  0.17745965  0.38124647  0.74770537  1
  In  In11  1  0.95370542  0.22394847  0.47590070  1
  Sn  Sn0  1  0.53630693  0.29606259  0.58691704  1
  Sn  Sn1  1  0.03630693  0.70393741  0.91308296  1
  Sn  Sn2  1  0.46369307  0.70393741  0.41308296  1
  Sn  Sn3  1  0.96369307  0.29606259  0.08691704  1
  I  I0  1  0.37483840  0.61442695  0.60482692  1
  I  I1  1  0.12516160  0.61442695  0.10482692  1
  I  I2  1  0.53848789  0.25216207  0.75988013  1
  I  I3  1  0.64747043  0.45570174  0.10241533  1
  I  I4  1  0.21148107  0.00950573  0.89349097  1
  I  I5  1  0.27612037  0.13029931  0.11308190  1
  I  I6  1  0.78851893  0.99049427  0.10650903  1
  I  I7  1  0.28851893  0.00950573  0.39349097  1
  I  I8  1  0.96151211  0.25216207  0.25988013  1
  I  I9  1  0.77612037  0.86970069  0.38691810  1
  I  I10  1  0.87483840  0.38557305  0.89517308  1
  I  I11  1  0.35252957  0.54429826  0.89758467  1
  I  I12  1  0.72387963  0.86970069  0.88691810  1
  I  I13  1  0.71148107  0.99049427  0.60650903  1
  I  I14  1  0.46151211  0.74783793  0.24011987  1
  I  I15  1  0.03848789  0.74783793  0.74011987  1
  I  I16  1  0.62516160  0.38557305  0.39517308  1
  I  I17  1  0.22387963  0.13029931  0.61308190  1
  I  I18  1  0.14747043  0.54429826  0.39758467  1
  I  I19  1  0.85252957  0.45570174  0.60241533  1
loop_
_geom_bond_atom_site_label_1
_geom_bond_atom_site_label_2
_geom_bond_distance
_geom_bond_site_symmetry_2
In0 In3 3.519157 1_655
In1 In9 3.519157 1_555
In2 In4 3.519157 1_555
In10 In7 3.519157 1_455
I0 Sn0 3.263961 1_555
I0 Sn2 3.463261 1_555
I0 In8 3.497003 1_555
I0 In10 3.499180 1_555
I1 Sn3 3.263961 1_455
I1 Sn1 3.463261 1_554
I1 In6 3.497003 1_555
I1 In4 3.499180 1_555
I2 Sn0 3.033102 1_555
I2 In10 3.445085 1_555
I2 In7 3.478547 1_555
I2 In1 3.498364 1_555
I2 In9 3.510248 1_545
I3 Sn3 3.218102 1_555
I3 In5 3.421978 1_554
I3 In6 3.453597 1_555
I3 In0 3.601339 1_555
I4 Sn1 3.130753 1_545
I4 In9 3.335338 1_545
I4 In6 3.597201 1_546
I5 Sn3 3.179790 1_455
I5 In3 3.362177 1_545
I5 In5 3.448642 1_554
I5 In4 3.563431 1_555
I6 Sn3 3.130753 1_565
I6 In2 3.335338 1_565
I6 In5 3.597201 1_564
I7 Sn2 3.130753 1_545
I7 In3 3.335338 1_545
I7 In8 3.597201 1_545
I8 Sn3 3.033102 1_555
I8 In4 3.445085 1_655
I8 In2 3.478547 1_555
I8 In0 3.498364 1_555
I8 In3 3.510248 1_645
I9 Sn2 3.179790 1_555
I9 In2 3.362177 1_565
I9 In8 3.448642 1_655
I9 In0 3.563431 1_555
I10 Sn1 3.263961 1_655
I10 Sn3 3.463261 1_556
I10 In5 3.497003 1_555
I10 In1 3.499180 1_555
I11 Sn1 3.218102 1_555
I11 In6 3.421978 1_556
I11 In5 3.453597 1_555
I11 In10 3.601339 1_555
I12 Sn1 3.179790 1_655
I12 In7 3.362177 1_565
I12 In6 3.448642 1_556
I12 In1 3.563431 1_555
I13 Sn0 3.130753 1_565
I13 In7 3.335338 1_565
I13 In11 3.597201 1_565
I14 Sn2 3.033102 1_555
I14 In0 3.445085 1_555
I14 In3 3.478547 1_555
I14 In4 3.498364 1_555
I14 In2 3.510248 1_565
I15 Sn1 3.033102 1_555
I15 In1 3.445085 1_455
I15 In9 3.478547 1_555
I15 In10 3.498364 1_555
I15 In7 3.510248 1_465
I16 Sn2 3.263961 1_555
I16 Sn0 3.463261 1_555
I16 In11 3.497003 1_555
I16 In0 3.499180 1_555
I17 Sn0 3.179790 1_555
I17 In9 3.362177 1_545
I17 In11 3.448642 1_455
I17 In10 3.563431 1_555
I18 Sn2 3.218102 1_555
I18 In8 3.421978 1_555
I18 In11 3.453597 1_455
I18 In4 3.601339 1_555
I19 Sn0 3.218102 1_555
I19 In11 3.421978 1_555
I19 In8 3.453597 1_655
I19 In1 3.601339 1_555
