# generated using pymatgen
data_KFe3H6(SO7)2
_symmetry_space_group_name_H-M   'P 1'
_cell_length_a   8.59910590
_cell_length_b   8.59910613
_cell_length_c   8.59910581
_cell_angle_alpha   66.12383906
_cell_angle_beta   66.12383544
_cell_angle_gamma   66.12383350
_symmetry_Int_Tables_number   1
_chemical_formula_structural   KFe3H6(SO7)2
_chemical_formula_sum   'K1 Fe3 H6 S2 O14'
_cell_volume   509.13518421
_cell_formula_units_Z   1
loop_
 _symmetry_equiv_pos_site_id
 _symmetry_equiv_pos_as_xyz
  1  'x, y, z'
loop_
 _atom_site_type_symbol
 _atom_site_label
 _atom_site_symmetry_multiplicity
 _atom_site_fract_x
 _atom_site_fract_y
 _atom_site_fract_z
 _atom_site_occupancy
  K  K0  1  0.00000000  0.00000000  0.00000000  1
  Fe  Fe0  1  0.00000000  0.00000000  0.50000000  1
  Fe  Fe1  1  0.00000000  0.50000000  0.00000000  1
  Fe  Fe2  1  0.50000000  0.00000000  0.00000000  1
  H  H0  1  0.49588400  0.04651200  0.49588400  1
  H  H1  1  0.50411600  0.95348800  0.50411600  1
  H  H2  1  0.49588400  0.49588400  0.04651200  1
  H  H3  1  0.04651200  0.49588400  0.49588400  1
  H  H4  1  0.95348800  0.50411600  0.50411600  1
  H  H5  1  0.50411600  0.50411600  0.95348800  1
  S  S0  1  0.26310200  0.26310200  0.26310200  1
  S  S1  1  0.73689800  0.73689800  0.73689800  1
  O  O0  1  0.84916400  0.84916400  0.58520200  1
  O  O1  1  0.41479800  0.15083600  0.15083600  1
  O  O2  1  0.58520200  0.84916400  0.84916400  1
  O  O3  1  0.66518500  0.66518500  0.66518500  1
  O  O4  1  0.01327200  0.30251100  0.01327200  1
  O  O5  1  0.69748900  0.98672800  0.98672800  1
  O  O6  1  0.98672800  0.69748900  0.98672800  1
  O  O7  1  0.84916400  0.58520200  0.84916400  1
  O  O8  1  0.33481500  0.33481500  0.33481500  1
  O  O9  1  0.15083600  0.41479800  0.15083600  1
  O  O10  1  0.15083600  0.15083600  0.41479800  1
  O  O11  1  0.01327200  0.01327200  0.30251100  1
  O  O12  1  0.98672800  0.98672800  0.69748900  1
  O  O13  1  0.30251100  0.01327200  0.01327200  1
loop_
_geom_bond_atom_site_label_1
_geom_bond_atom_site_label_2
_geom_bond_distance
_geom_bond_site_symmetry_2
K0 O12 2.698916 1_444
K0 O11 2.698916 1_555
K0 O13 2.698916 1_555
K0 O5 2.698916 1_444
K0 O6 2.698916 1_444
K0 O4 2.698916 1_555
Fe0 O11 1.614553 1_555
Fe0 O12 1.614553 1_445
Fe0 O0 1.929978 1_445
Fe0 O10 1.929978 1_555
Fe1 O4 1.614553 1_555
Fe1 O6 1.614553 1_454
Fe1 O7 1.929978 1_454
Fe1 O9 1.929978 1_555
Fe2 O13 1.614553 1_555
Fe2 O5 1.614553 1_544
Fe2 O2 1.929978 1_544
Fe2 O1 1.929978 1_555
H0 H1 0.749852 1_545
H2 H5 0.749852 1_554
H3 H4 0.749852 1_455
O0 S1 1.510340 1_555
O1 S0 1.510339 1_555
O2 S1 1.510339 1_555
O3 S1 1.436792 1_555
O7 S1 1.510339 1_555
O8 S0 1.436792 1_555
O9 S0 1.510339 1_555
O10 S0 1.510340 1_555
