# generated using pymatgen
data_In2Pt3
_symmetry_space_group_name_H-M   'P 1'
_cell_length_a   5.61772662
_cell_length_b   5.61772777
_cell_length_c   13.84894764
_cell_angle_alpha   90.00000000
_cell_angle_beta   90.00000000
_cell_angle_gamma   119.99999324
_symmetry_Int_Tables_number   1
_chemical_formula_structural   In2Pt3
_chemical_formula_sum   'In8 Pt12'
_cell_volume   378.50247636
_cell_formula_units_Z   4
loop_
 _symmetry_equiv_pos_site_id
 _symmetry_equiv_pos_as_xyz
  1  'x, y, z'
loop_
 _atom_site_type_symbol
 _atom_site_label
 _atom_site_symmetry_multiplicity
 _atom_site_fract_x
 _atom_site_fract_y
 _atom_site_fract_z
 _atom_site_occupancy
  In  In0  1  0.00000000  -0.00000000  0.25000000  1
  In  In1  1  0.00000000  -0.00000000  0.75000000  1
  In  In2  1  0.33333300  0.66666700  0.25000000  1
  In  In3  1  0.66666700  0.33333300  0.75000000  1
  In  In4  1  0.33333300  0.66666700  0.91764947  1
  In  In5  1  0.33333300  0.66666700  0.58235053  1
  In  In6  1  0.66666700  0.33333300  0.08235053  1
  In  In7  1  0.66666700  0.33333300  0.41764947  1
  Pt  Pt0  1  0.16576447  0.33152893  0.09055762  1
  Pt  Pt1  1  0.66847107  0.83423753  0.09055762  1
  Pt  Pt2  1  0.16576247  0.83423553  0.09055762  1
  Pt  Pt3  1  0.66847107  0.83423553  0.40944238  1
  Pt  Pt4  1  0.16576247  0.33152893  0.40944238  1
  Pt  Pt5  1  0.16576447  0.83423753  0.40944238  1
  Pt  Pt6  1  0.83423553  0.66847107  0.90944238  1
  Pt  Pt7  1  0.33152893  0.16576247  0.90944238  1
  Pt  Pt8  1  0.83423753  0.16576447  0.90944238  1
  Pt  Pt9  1  0.33152893  0.16576447  0.59055762  1
  Pt  Pt10  1  0.83423753  0.66847107  0.59055762  1
  Pt  Pt11  1  0.83423553  0.16576247  0.59055762  1
loop_
_geom_bond_atom_site_label_1
_geom_bond_atom_site_label_2
_geom_bond_distance
_geom_bond_site_symmetry_2
In0 Pt5 2.734451 1_545
In0 Pt2 2.734451 1_545
In0 Pt3 2.734457 1_445
In0 Pt1 2.734457 1_445
In0 Pt0 2.734457 1_555
In0 Pt4 2.734457 1_555
In1 Pt11 2.734451 1_455
In1 Pt8 2.734451 1_455
In1 Pt9 2.734457 1_555
In1 Pt7 2.734457 1_555
In1 Pt6 2.734457 1_445
In1 Pt10 2.734457 1_445
In2 Pt3 2.744851 1_555
In2 Pt1 2.744851 1_555
In2 Pt0 2.744851 1_555
In2 Pt4 2.744851 1_555
In2 Pt2 2.744854 1_555
In2 Pt5 2.744854 1_555
In3 Pt9 2.744851 1_555
In3 Pt7 2.744851 1_555
In3 Pt6 2.744851 1_555
In3 Pt10 2.744851 1_555
In3 Pt8 2.744854 1_555
In3 Pt11 2.744854 1_555
In4 Pt7 2.811162 1_565
In4 Pt8 2.811171 1_455
In4 Pt6 2.811173 1_455
In4 Pt6 2.811178 1_555
In4 Pt8 2.811182 1_565
In4 Pt7 2.811190 1_555
In4 Pt1 2.896990 1_556
In4 Pt0 2.896990 1_556
In4 Pt2 2.896992 1_556
In5 Pt10 2.811162 1_455
In5 Pt11 2.811171 1_565
In5 Pt9 2.811173 1_565
In5 Pt9 2.811179 1_555
In5 Pt11 2.811182 1_455
In5 Pt10 2.811190 1_555
In5 Pt3 2.896990 1_555
In5 Pt4 2.896990 1_555
In5 Pt5 2.896992 1_555
In6 Pt1 2.811162 1_545
In6 Pt2 2.811171 1_655
In6 Pt0 2.811173 1_655
In6 Pt0 2.811178 1_555
In6 Pt2 2.811182 1_545
In6 Pt1 2.811190 1_555
In6 Pt7 2.896990 1_554
In6 Pt6 2.896990 1_554
In6 Pt8 2.896992 1_554
In7 Pt4 2.811162 1_655
In7 Pt5 2.811171 1_545
In7 Pt3 2.811173 1_545
In7 Pt3 2.811179 1_555
In7 Pt5 2.811182 1_655
In7 Pt4 2.811190 1_555
In7 Pt9 2.896990 1_555
In7 Pt10 2.896990 1_555
In7 Pt11 2.896992 1_555
