# generated using pymatgen
data_Lu2Te4O11
_symmetry_space_group_name_H-M   'P 1'
_cell_length_a   6.60619319
_cell_length_b   6.60619319
_cell_length_c   15.91314891
_cell_angle_alpha   75.40300150
_cell_angle_beta   75.40300150
_cell_angle_gamma   44.83043757
_symmetry_Int_Tables_number   1
_chemical_formula_structural   Lu2Te4O11
_chemical_formula_sum   'Lu4 Te8 O22'
_cell_volume   471.06965340
_cell_formula_units_Z   2
loop_
 _symmetry_equiv_pos_site_id
 _symmetry_equiv_pos_as_xyz
  1  'x, y, z'
loop_
 _atom_site_type_symbol
 _atom_site_label
 _atom_site_symmetry_multiplicity
 _atom_site_fract_x
 _atom_site_fract_y
 _atom_site_fract_z
 _atom_site_occupancy
  Lu  Lu0  1  0.63085196  0.13008725  0.03609534  1
  Lu  Lu1  1  0.86991275  0.36914804  0.46390466  1
  Lu  Lu2  1  0.36914804  0.86991275  0.96390466  1
  Lu  Lu3  1  0.13008725  0.63085196  0.53609534  1
  Te  Te0  1  0.59190156  0.15569018  0.37442433  1
  Te  Te1  1  0.84430982  0.40809844  0.12557567  1
  Te  Te2  1  0.40809844  0.84430982  0.62557567  1
  Te  Te3  1  0.15569018  0.59190156  0.87442433  1
  Te  Te4  1  0.15955627  0.59463383  0.19762827  1
  Te  Te5  1  0.40536617  0.84044373  0.30237173  1
  Te  Te6  1  0.84044373  0.40536617  0.80237173  1
  Te  Te7  1  0.59463383  0.15955627  0.69762827  1
  O  O0  1  0.68444313  0.80788078  0.37408961  1
  O  O1  1  0.19211922  0.31555687  0.12591039  1
  O  O2  1  0.31555687  0.19211922  0.62591039  1
  O  O3  1  0.80788078  0.68444313  0.87408961  1
  O  O4  1  0.24357665  0.34127337  0.44808977  1
  O  O5  1  0.65872663  0.75642335  0.05191023  1
  O  O6  1  0.75642335  0.65872663  0.55191023  1
  O  O7  1  0.34127337  0.24357665  0.94808977  1
  O  O8  1  0.82764725  0.03265601  0.45656546  1
  O  O9  1  0.96734399  0.17235275  0.04343454  1
  O  O10  1  0.17235275  0.96734399  0.54343454  1
  O  O11  1  0.03265601  0.82764725  0.95656546  1
  O  O12  1  0.44932594  0.59782321  0.40664769  1
  O  O13  1  0.40217679  0.55067406  0.09335231  1
  O  O14  1  0.55067406  0.40217679  0.59335231  1
  O  O15  1  0.59782321  0.44932594  0.90664769  1
  O  O16  1  0.08782486  0.20599951  0.33528024  1
  O  O17  1  0.79400049  0.91217514  0.16471976  1
  O  O18  1  0.91217514  0.79400049  0.66471976  1
  O  O19  1  0.20599951  0.08782486  0.83528024  1
  O  O20  1  0.15045184  0.84954816  0.25000000  1
  O  O21  1  0.84954816  0.15045184  0.75000000  1
loop_
_geom_bond_atom_site_label_1
_geom_bond_atom_site_label_2
_geom_bond_distance
_geom_bond_site_symmetry_2
Lu0 O11 2.167565 1_644
Lu0 O17 2.202161 1_545
Lu0 O7 2.229298 1_554
Lu0 O5 2.292641 1_545
Lu0 O13 2.336870 1_555
Lu0 O1 2.387912 1_555
Lu0 O9 2.461844 1_555
Lu0 O15 2.474417 1_554
Lu1 O10 2.167565 1_645
Lu1 O16 2.202161 1_655
Lu1 O6 2.229298 1_555
Lu1 O4 2.292641 1_655
Lu1 O12 2.336870 1_555
Lu1 O0 2.387912 1_555
Lu1 O8 2.461844 1_555
Lu1 O14 2.474417 1_555
Lu2 O9 2.167565 1_466
Lu2 O19 2.202161 1_565
Lu2 O5 2.229298 1_556
Lu2 O7 2.292641 1_565
Lu2 O15 2.336870 1_555
Lu2 O3 2.387912 1_555
Lu2 O11 2.461844 1_555
Lu2 O13 2.474417 1_556
Lu3 O8 2.167565 1_465
Lu3 O18 2.202161 1_455
Lu3 O4 2.229298 1_555
Lu3 O6 2.292641 1_455
Lu3 O14 2.336870 1_555
Lu3 O2 2.387912 1_555
Lu3 O10 2.461844 1_555
Lu3 O12 2.474417 1_555
O0 Te0 1.914499 1_565
O0 Te5 2.263181 1_555
O1 Te1 1.914499 1_455
O1 Te4 2.263181 1_555
O2 Te2 1.914499 1_545
O2 Te7 2.263181 1_555
O3 Te3 1.914499 1_655
O3 Te6 2.263181 1_555
O4 Te0 1.880314 1_555
O5 Te1 1.880314 1_555
O6 Te2 1.880314 1_555
O7 Te3 1.880314 1_555
O8 Te0 1.868093 1_555
O9 Te1 1.868093 1_555
O10 Te2 1.868093 1_555
O11 Te3 1.868093 1_555
O12 Te5 1.910210 1_555
O12 Te0 2.508113 1_555
O13 Te4 1.910210 1_555
O13 Te1 2.508113 1_555
O14 Te7 1.910210 1_555
O14 Te2 2.508113 1_555
O15 Te6 1.910210 1_555
O15 Te3 2.508113 1_555
O16 Te5 1.845247 1_545
O17 Te4 1.845247 1_655
O18 Te7 1.845247 1_565
O19 Te6 1.845247 1_455
O20 Te4 2.018053 1_555
O20 Te5 2.018053 1_555
O21 Te7 2.018053 1_555
O21 Te6 2.018053 1_555
