# generated using pymatgen
data_La2AlNi9
_symmetry_space_group_name_H-M   'P 1'
_cell_length_a   4.95176912
_cell_length_b   4.95172729
_cell_length_c   7.98725521
_cell_angle_alpha   90.00047588
_cell_angle_beta   89.99951776
_cell_angle_gamma   119.08056806
_symmetry_Int_Tables_number   1
_chemical_formula_structural   La2AlNi9
_chemical_formula_sum   'La2 Al1 Ni9'
_cell_volume   171.15707299
_cell_formula_units_Z   1
loop_
 _symmetry_equiv_pos_site_id
 _symmetry_equiv_pos_as_xyz
  1  'x, y, z'
loop_
 _atom_site_type_symbol
 _atom_site_label
 _atom_site_symmetry_multiplicity
 _atom_site_fract_x
 _atom_site_fract_y
 _atom_site_fract_z
 _atom_site_occupancy
  La  La0  1  0.99999273  0.00000827  0.01483521  1
  La  La1  1  0.00000727  0.99999173  0.48516479  1
  Al  Al0  1  0.50000000  0.50000000  0.75000000  1
  Ni  Ni0  1  0.66916231  0.33083669  1.00029372  1
  Ni  Ni1  1  0.66916652  0.33083248  0.49971851  1
  Ni  Ni2  1  0.50000000  0.50000000  0.25000000  1
  Ni  Ni3  1  0.33083348  0.66916752  1.00028149  1
  Ni  Ni4  1  0.50000000  -0.00000000  0.75000000  1
  Ni  Ni5  1  0.00000000  0.50000000  0.25000000  1
  Ni  Ni6  1  0.50000000  -0.00000000  0.25000000  1
  Ni  Ni7  1  0.33083769  0.66916331  0.49970628  1
  Ni  Ni8  1  0.00000000  0.50000000  0.75000000  1
loop_
_geom_bond_atom_site_label_1
_geom_bond_atom_site_label_2
_geom_bond_distance
_geom_bond_site_symmetry_2
La0 Ni0 2.826571 1_554
La0 Ni3 2.826669 1_644
La0 Ni3 2.898251 1_654
La0 Ni3 2.898275 1_544
La0 Ni0 2.898299 1_544
La0 Ni0 2.898314 1_654
La0 Ni5 3.107672 1_655
La0 Ni6 3.107690 1_555
La0 Ni5 3.107790 1_645
La0 Ni6 3.107805 1_655
La0 Ni2 3.135154 1_655
La0 Ni2 3.135158 1_545
La0 Ni8 3.256412 1_654
La0 Ni4 3.256430 1_554
La0 Ni8 3.256474 1_644
La0 Ni4 3.256488 1_654
La1 Ni7 2.826571 1_555
La1 Ni1 2.826669 1_465
La1 Ni1 2.898251 1_455
La1 Ni1 2.898275 1_565
La1 Ni7 2.898299 1_565
La1 Ni7 2.898314 1_455
La1 Ni5 3.107672 1_555
La1 Ni6 3.107690 1_565
La1 Ni5 3.107790 1_565
La1 Ni6 3.107805 1_465
La1 Ni2 3.135154 1_455
La1 Ni2 3.135158 1_565
La1 Ni8 3.256412 1_555
La1 Ni4 3.256430 1_565
La1 Ni8 3.256474 1_565
La1 Ni4 3.256488 1_465
Al0 Ni1 2.466108 1_555
Al0 Ni3 2.466108 1_555
Al0 Ni0 2.466188 1_555
Al0 Ni7 2.466188 1_555
Al0 Ni4 2.475864 1_555
Al0 Ni4 2.475864 1_565
Al0 Ni8 2.475885 1_555
Al0 Ni8 2.475885 1_655
Al0 La1 3.282624 1_655
Al0 La0 3.282624 1_456
Al0 La0 3.282628 1_566
Al0 La1 3.282628 1_545
Ni0 Ni6 2.455483 1_556
Ni0 Ni5 2.455492 1_656
Ni0 Ni4 2.459285 1_555
Ni0 Ni8 2.459294 1_655
Ni0 Ni2 2.462364 1_556
Ni1 Ni6 2.455541 1_555
Ni1 Ni5 2.455550 1_655
Ni1 Ni4 2.459206 1_555
Ni1 Ni8 2.459215 1_655
Ni1 Ni2 2.462487 1_555
Ni2 Ni7 2.462364 1_555
Ni2 Ni3 2.462487 1_554
Ni2 Ni6 2.475864 1_565
Ni2 Ni6 2.475864 1_555
Ni2 Ni5 2.475885 1_555
Ni2 Ni5 2.475885 1_655
Ni3 Ni6 2.455541 1_566
Ni3 Ni5 2.455550 1_556
Ni3 Ni4 2.459206 1_565
Ni3 Ni8 2.459215 1_555
Ni4 Ni7 2.459285 1_545
Ni4 Ni8 2.510202 1_655
Ni4 Ni8 2.510202 1_545
Ni5 Ni7 2.455492 1_555
Ni5 Ni6 2.510202 1_565
Ni5 Ni6 2.510202 1_455
Ni6 Ni7 2.455483 1_545
Ni7 Ni8 2.459294 1_555
