# generated using pymatgen
data_Nb3Sb2Te5
_symmetry_space_group_name_H-M   'P 1'
_cell_length_a   8.58017656
_cell_length_b   8.58017771
_cell_length_c   8.58017816
_cell_angle_alpha   109.47121434
_cell_angle_beta   109.47121708
_cell_angle_gamma   109.47122842
_symmetry_Int_Tables_number   1
_chemical_formula_structural   Nb3Sb2Te5
_chemical_formula_sum   'Nb6 Sb4 Te10'
_cell_volume   486.25819487
_cell_formula_units_Z   2
loop_
 _symmetry_equiv_pos_site_id
 _symmetry_equiv_pos_as_xyz
  1  'x, y, z'
loop_
 _atom_site_type_symbol
 _atom_site_label
 _atom_site_symmetry_multiplicity
 _atom_site_fract_x
 _atom_site_fract_y
 _atom_site_fract_z
 _atom_site_occupancy
  Nb  Nb0  1  -0.00000000  0.34268393  0.34268393  1
  Nb  Nb1  1  0.34268393  -0.00000000  0.34268393  1
  Nb  Nb2  1  0.65731607  0.00000000  0.65731607  1
  Nb  Nb3  1  0.65731607  0.65731607  -0.00000000  1
  Nb  Nb4  1  0.34268393  0.34268393  0.00000000  1
  Nb  Nb5  1  0.00000000  0.65731607  0.65731607  1
  Sb  Sb0  1  0.33327748  -0.00000000  -0.00000000  1
  Sb  Sb1  1  -0.00000000  0.33327748  0.00000000  1
  Sb  Sb2  1  0.66672252  0.66672252  0.66672252  1
  Sb  Sb3  1  0.00000000  0.00000000  0.33327748  1
  Te  Te0  1  0.32518334  0.32518334  0.32518334  1
  Te  Te1  1  0.25000000  0.75000000  0.50000000  1
  Te  Te2  1  0.00000000  0.67481666  -0.00000000  1
  Te  Te3  1  0.50000000  0.75000000  0.25000000  1
  Te  Te4  1  0.75000000  0.25000000  0.50000000  1
  Te  Te5  1  0.50000000  0.25000000  0.75000000  1
  Te  Te6  1  0.67481666  0.00000000  0.00000000  1
  Te  Te7  1  -0.00000000  -0.00000000  0.67481666  1
  Te  Te8  1  0.25000000  0.50000000  0.75000000  1
  Te  Te9  1  0.75000000  0.50000000  0.25000000  1
loop_
_geom_bond_atom_site_label_1
_geom_bond_atom_site_label_2
_geom_bond_distance
_geom_bond_site_symmetry_2
Nb0 Te0 2.893701 1_555
Nb0 Te6 2.893702 1_455
Nb0 Sb3 2.914380 1_555
Nb0 Sb1 2.914380 1_555
Nb0 Te4 2.926471 1_455
Nb0 Te1 2.926471 1_555
Nb0 Te9 2.926471 1_455
Nb0 Te8 2.926471 1_555
Nb1 Te0 2.893701 1_555
Nb1 Te2 2.893701 1_545
Nb1 Sb3 2.914379 1_555
Nb1 Sb0 2.914380 1_555
Nb1 Te4 2.926471 1_555
Nb1 Te1 2.926471 1_545
Nb1 Te3 2.926471 1_545
Nb1 Te5 2.926472 1_555
Nb2 Te7 2.893701 1_655
Nb2 Te6 2.893702 1_556
Nb2 Sb2 2.914380 1_545
Nb2 Sb1 2.914380 1_656
Nb2 Te1 2.926471 1_545
Nb2 Te4 2.926471 1_555
Nb2 Te5 2.926471 1_555
Nb2 Te3 2.926472 1_545
Nb3 Te2 2.893701 1_655
Nb3 Te6 2.893701 1_565
Nb3 Sb3 2.914380 1_665
Nb3 Sb2 2.914380 1_554
Nb3 Te8 2.926471 1_554
Nb3 Te3 2.926471 1_555
Nb3 Te9 2.926471 1_555
Nb3 Te5 2.926471 1_554
Nb4 Te7 2.893701 1_554
Nb4 Te0 2.893702 1_555
Nb4 Sb1 2.914379 1_555
Nb4 Sb0 2.914380 1_555
Nb4 Te9 2.926471 1_555
Nb4 Te5 2.926471 1_554
Nb4 Te8 2.926471 1_554
Nb4 Te3 2.926471 1_555
Nb5 Te7 2.893701 1_565
Nb5 Te2 2.893702 1_556
Nb5 Sb2 2.914379 1_455
Nb5 Sb0 2.914380 1_566
Nb5 Te1 2.926471 1_555
Nb5 Te4 2.926471 1_455
Nb5 Te8 2.926471 1_555
Nb5 Te9 2.926471 1_455
Sb0 Te6 2.930466 1_555
Sb0 Te2 3.262354 1_545
Sb0 Te7 3.262355 1_554
Sb0 Te0 3.262355 1_555
Sb1 Te2 2.930467 1_555
Sb1 Te6 3.262354 1_455
Sb1 Te0 3.262355 1_555
Sb1 Te7 3.262355 1_554
Sb2 Te0 2.930467 1_555
Sb2 Te7 3.262354 1_665
Sb2 Te2 3.262355 1_656
Sb2 Te6 3.262355 1_566
Sb3 Te7 2.930467 1_555
Sb3 Te0 3.262354 1_555
Sb3 Te6 3.262355 1_455
Sb3 Te2 3.262355 1_545
