# generated using pymatgen
data_Mg(BH4)2
_symmetry_space_group_name_H-M   'P 1'
_cell_length_a   4.31188500
_cell_length_b   6.09677400
_cell_length_c   8.39071300
_cell_angle_alpha   90.00000000
_cell_angle_beta   90.00000000
_cell_angle_gamma   90.00000000
_symmetry_Int_Tables_number   1
_chemical_formula_structural   Mg(BH4)2
_chemical_formula_sum   'Mg2 B4 H16'
_cell_volume   220.58000010
_cell_formula_units_Z   2
loop_
 _symmetry_equiv_pos_site_id
 _symmetry_equiv_pos_as_xyz
  1  'x, y, z'
loop_
 _atom_site_type_symbol
 _atom_site_label
 _atom_site_symmetry_multiplicity
 _atom_site_fract_x
 _atom_site_fract_y
 _atom_site_fract_z
 _atom_site_occupancy
  Mg  Mg0  1  0.00000000  0.69836400  0.50061900  1
  Mg  Mg1  1  0.00000000  0.30163600  0.00061900  1
  B  B0  1  0.00000000  0.51795600  0.24493900  1
  B  B1  1  0.00000000  0.48204400  0.74493900  1
  B  B2  1  0.50000000  0.10237200  0.97881200  1
  B  B3  1  0.50000000  0.89762800  0.47881200  1
  H  H0  1  0.27978700  0.94181500  0.56684900  1
  H  H1  1  0.50000000  0.00816100  0.35985500  1
  H  H2  1  0.50000000  0.99183900  0.85985500  1
  H  H3  1  0.00000000  0.41675800  0.37216700  1
  H  H4  1  0.00000000  0.71855500  0.25574200  1
  H  H5  1  0.27978700  0.05818500  0.06684900  1
  H  H6  1  0.75993200  0.53169300  0.67624800  1
  H  H7  1  0.24006800  0.46830700  0.17624800  1
  H  H8  1  0.00000000  0.28144500  0.75574200  1
  H  H9  1  0.50000000  0.70037000  0.44270200  1
  H  H10  1  0.72021300  0.05818500  0.06684900  1
  H  H11  1  0.00000000  0.58324200  0.87216700  1
  H  H12  1  0.72021300  0.94181500  0.56684900  1
  H  H13  1  0.24006800  0.53169300  0.67624800  1
  H  H14  1  0.75993200  0.46830700  0.17624800  1
  H  H15  1  0.50000000  0.29963000  0.94270200  1
loop_
_geom_bond_atom_site_label_1
_geom_bond_atom_site_label_2
_geom_bond_distance
_geom_bond_site_symmetry_2
B0 H7 1.222846 1_555
B0 H14 1.222846 1_455
B0 H4 1.226361 1_555
B0 H3 1.233002 1_555
B1 H13 1.222846 1_555
B1 H6 1.222846 1_455
B1 H8 1.226361 1_555
B1 H11 1.233002 1_555
B2 H2 1.204328 1_545
B2 H10 1.232824 1_556
B2 H5 1.232824 1_556
B2 H15 1.240217 1_555
B3 H1 1.204328 1_565
B3 H12 1.232824 1_555
B3 H0 1.232824 1_555
B3 H9 1.240217 1_555
H0 Mg0 1.991806 1_555
H3 Mg0 2.027157 1_555
H4 Mg0 2.058377 1_555
H5 Mg1 1.991806 1_555
H6 Mg0 2.067789 1_655
H7 Mg1 2.067789 1_555
H8 Mg1 2.058377 1_556
H9 Mg0 2.210068 1_655
H9 Mg0 2.210068 1_555
H10 Mg1 1.991806 1_655
H11 Mg1 2.027157 1_556
H12 Mg0 1.991806 1_655
H13 Mg0 2.067789 1_555
H14 Mg1 2.067789 1_655
H15 Mg1 2.210068 1_556
H15 Mg1 2.210068 1_656
