# generated using pymatgen
data_Ag3BO3
_symmetry_space_group_name_H-M   'P 1'
_cell_length_a   7.27480535
_cell_length_b   7.27480535
_cell_length_c   7.27480601
_cell_angle_alpha   85.81387084
_cell_angle_beta   85.81387084
_cell_angle_gamma   85.81387498
_symmetry_Int_Tables_number   1
_chemical_formula_structural   Ag3BO3
_chemical_formula_sum   'Ag12 B4 O12'
_cell_volume   382.06434257
_cell_formula_units_Z   4
loop_
 _symmetry_equiv_pos_site_id
 _symmetry_equiv_pos_as_xyz
  1  'x, y, z'
loop_
 _atom_site_type_symbol
 _atom_site_label
 _atom_site_symmetry_multiplicity
 _atom_site_fract_x
 _atom_site_fract_y
 _atom_site_fract_z
 _atom_site_occupancy
  Ag  Ag0  1  0.87427444  0.37198131  0.38099025  1
  Ag  Ag1  1  0.37427444  0.88099025  0.87198131  1
  Ag  Ag2  1  0.88099025  0.87198131  0.37427444  1
  Ag  Ag3  1  0.62801869  0.61900975  0.12572556  1
  Ag  Ag4  1  0.12801869  0.62572556  0.11900975  1
  Ag  Ag5  1  0.38099025  0.87427444  0.37198131  1
  Ag  Ag6  1  0.61900975  0.12572556  0.62801869  1
  Ag  Ag7  1  0.12572556  0.62801869  0.61900975  1
  Ag  Ag8  1  0.62572556  0.11900975  0.12801869  1
  Ag  Ag9  1  0.87198131  0.37427444  0.88099025  1
  Ag  Ag10  1  0.11900975  0.12801869  0.62572556  1
  Ag  Ag11  1  0.37198131  0.38099025  0.87427444  1
  B  B0  1  0.62488913  0.62488913  0.62488913  1
  B  B1  1  0.37511087  0.37511087  0.37511087  1
  B  B2  1  0.12488913  0.12488913  0.12488913  1
  B  B3  1  0.87511087  0.87511087  0.87511087  1
  O  O0  1  0.13020337  0.98277213  0.26086055  1
  O  O1  1  0.98277213  0.26086055  0.13020337  1
  O  O2  1  0.63020337  0.76086055  0.48277213  1
  O  O3  1  0.36979663  0.23913945  0.51722787  1
  O  O4  1  0.01722787  0.73913945  0.86979663  1
  O  O5  1  0.23913945  0.51722787  0.36979663  1
  O  O6  1  0.76086055  0.48277213  0.63020337  1
  O  O7  1  0.73913945  0.86979663  0.01722787  1
  O  O8  1  0.51722787  0.36979663  0.23913945  1
  O  O9  1  0.86979663  0.01722787  0.73913945  1
  O  O10  1  0.48277213  0.63020337  0.76086055  1
  O  O11  1  0.26086055  0.13020337  0.98277213  1
loop_
_geom_bond_atom_site_label_1
_geom_bond_atom_site_label_2
_geom_bond_distance
_geom_bond_site_symmetry_2
Ag0 O6 2.124874 1_555
Ag0 O1 2.125308 1_555
Ag1 O11 2.124874 1_565
Ag1 O10 2.125308 1_555
Ag2 O0 2.124874 1_655
Ag2 O2 2.125308 1_555
Ag3 O8 2.124874 1_555
Ag3 O7 2.125308 1_555
Ag4 O4 2.124874 1_554
Ag4 O5 2.125308 1_555
Ag5 O2 2.124874 1_555
Ag5 O0 2.125308 1_555
Ag6 O3 2.124874 1_555
Ag6 O9 2.125308 1_555
Ag7 O5 2.124874 1_555
Ag7 O4 2.125308 1_555
Ag8 O7 2.124874 1_545
Ag8 O8 2.125308 1_555
Ag9 O1 2.124874 1_556
Ag9 O6 2.125308 1_555
Ag10 O9 2.124874 1_455
Ag10 O3 2.125308 1_555
Ag11 O10 2.124874 1_555
Ag11 O11 2.125308 1_555
B0 O6 1.378144 1_555
B0 O10 1.378144 1_555
B0 O2 1.378144 1_555
B1 O5 1.378144 1_555
B1 O8 1.378144 1_555
B1 O3 1.378144 1_555
B2 O1 1.378144 1_455
B2 O0 1.378144 1_545
B2 O11 1.378144 1_554
B3 O4 1.378144 1_655
B3 O9 1.378144 1_565
B3 O7 1.378144 1_556
