# generated using pymatgen
data_YZnAsO
_symmetry_space_group_name_H-M   'P 1'
_cell_length_a   3.97471800
_cell_length_b   3.97471800
_cell_length_c   8.96306600
_cell_angle_alpha   90.00000000
_cell_angle_beta   90.00000000
_cell_angle_gamma   90.00000000
_symmetry_Int_Tables_number   1
_chemical_formula_structural   YZnAsO
_chemical_formula_sum   'Y2 Zn2 As2 O2'
_cell_volume   141.60195113
_cell_formula_units_Z   2
loop_
 _symmetry_equiv_pos_site_id
 _symmetry_equiv_pos_as_xyz
  1  'x, y, z'
loop_
 _atom_site_type_symbol
 _atom_site_label
 _atom_site_symmetry_multiplicity
 _atom_site_fract_x
 _atom_site_fract_y
 _atom_site_fract_z
 _atom_site_occupancy
  Y  Y0  1  0.00000000  0.50000000  0.87826100  1
  Y  Y1  1  0.50000000  0.00000000  0.12173900  1
  Zn  Zn0  1  0.00000000  0.00000000  0.50000000  1
  Zn  Zn1  1  0.50000000  0.50000000  0.50000000  1
  As  As0  1  0.00000000  0.50000000  0.31777000  1
  As  As1  1  0.50000000  0.00000000  0.68223000  1
  O  O0  1  0.00000000  0.00000000  0.00000000  1
  O  O1  1  0.50000000  0.50000000  0.00000000  1
loop_
_geom_bond_atom_site_label_1
_geom_bond_atom_site_label_2
_geom_bond_distance
_geom_bond_site_symmetry_2
As0 Zn1 2.572430 1_555
As0 Zn0 2.572430 1_565
As0 Zn0 2.572430 1_555
As0 Zn1 2.572430 1_455
As0 Y1 3.314570 1_565
As0 Y1 3.314570 1_455
As0 Y1 3.314570 1_555
As0 Y1 3.314570 1_465
As1 Zn0 2.572430 1_555
As1 Zn1 2.572430 1_555
As1 Zn1 2.572430 1_545
As1 Zn0 2.572430 1_655
As1 Y0 3.314570 1_645
As1 Y0 3.314570 1_555
As1 Y0 3.314570 1_545
As1 Y0 3.314570 1_655
O0 Y1 2.267204 1_455
O0 Y0 2.267204 1_554
O0 Y1 2.267204 1_555
O0 Y0 2.267204 1_544
O1 Y0 2.267204 1_654
O1 Y0 2.267204 1_554
O1 Y1 2.267204 1_565
O1 Y1 2.267204 1_555
