# generated using pymatgen
data_CsTmSeCl2O3
_symmetry_space_group_name_H-M   'P 1'
_cell_length_a   6.86270476
_cell_length_b   6.57443597
_cell_length_c   17.82411666
_cell_angle_alpha   77.69142740
_cell_angle_beta   90.00000000
_cell_angle_gamma   90.00000000
_symmetry_Int_Tables_number   1
_chemical_formula_structural   CsTmSeCl2O3
_chemical_formula_sum   'Cs4 Tm4 Se4 Cl8 O12'
_cell_volume   785.71036159
_cell_formula_units_Z   4
loop_
 _symmetry_equiv_pos_site_id
 _symmetry_equiv_pos_as_xyz
  1  'x, y, z'
loop_
 _atom_site_type_symbol
 _atom_site_label
 _atom_site_symmetry_multiplicity
 _atom_site_fract_x
 _atom_site_fract_y
 _atom_site_fract_z
 _atom_site_occupancy
  Cs  Cs0  1  0.20985575  0.75150988  0.05513308  1
  Cs  Cs1  1  0.70985575  0.24849012  0.44486692  1
  Cs  Cs2  1  0.79014425  0.24849012  0.94486692  1
  Cs  Cs3  1  0.29014425  0.75150988  0.55513308  1
  Tm  Tm0  1  0.82204420  0.86372955  0.75753268  1
  Tm  Tm1  1  0.67795580  0.86372955  0.25753268  1
  Tm  Tm2  1  0.17795580  0.13627045  0.24246732  1
  Tm  Tm3  1  0.32204420  0.13627045  0.74246732  1
  Se  Se0  1  0.18329789  0.63788673  0.29324980  1
  Se  Se1  1  0.68329789  0.36211327  0.20675020  1
  Se  Se2  1  0.31670211  0.63788673  0.79324980  1
  Se  Se3  1  0.81670211  0.36211327  0.70675020  1
  Cl  Cl0  1  0.69056216  0.87884721  0.11067203  1
  Cl  Cl1  1  0.19056216  0.12115279  0.38932797  1
  Cl  Cl2  1  0.80943784  0.87884721  0.61067203  1
  Cl  Cl3  1  0.30943784  0.12115279  0.88932797  1
  Cl  Cl4  1  0.15693773  0.22685442  0.09304942  1
  Cl  Cl5  1  0.65693773  0.77314558  0.40695058  1
  Cl  Cl6  1  0.84306227  0.77314558  0.90695058  1
  Cl  Cl7  1  0.34306227  0.22685442  0.59304942  1
  O  O0  1  0.82672165  0.51409465  0.77130018  1
  O  O1  1  0.00065131  0.81724815  0.26456234  1
  O  O2  1  0.17327835  0.48590535  0.22869982  1
  O  O3  1  0.99934869  0.18275185  0.73543766  1
  O  O4  1  0.64535773  0.17754500  0.74541757  1
  O  O5  1  0.50065131  0.18275185  0.23543766  1
  O  O6  1  0.35464227  0.82245500  0.25458243  1
  O  O7  1  0.85464227  0.17754500  0.24541757  1
  O  O8  1  0.14535773  0.82245500  0.75458243  1
  O  O9  1  0.49934869  0.81724815  0.76456234  1
  O  O10  1  0.32672165  0.48590535  0.72869982  1
  O  O11  1  0.67327835  0.51409465  0.27130018  1
loop_
_geom_bond_atom_site_label_1
_geom_bond_atom_site_label_2
_geom_bond_distance
_geom_bond_site_symmetry_2
Cs0 O2 3.221771 1_555
Cs1 O11 3.221771 1_555
Cs2 O0 3.221771 1_555
Cs3 O10 3.221771 1_555
Cl0 Tm1 2.599729 1_555
Cl0 Cs2 3.470558 1_564
Cl0 Cs0 3.594051 1_555
Cl0 Cs0 3.838559 1_655
Cl1 Tm2 2.599729 1_555
Cl1 Cs3 3.470558 1_545
Cl1 Cs1 3.594051 1_455
Cl1 Cs1 3.838559 1_555
Cl2 Tm0 2.599729 1_555
Cl2 Cs1 3.470558 1_565
Cl2 Cs3 3.594051 1_655
Cl2 Cs3 3.838559 1_555
Cl3 Tm3 2.599729 1_555
Cl3 Cs0 3.470558 1_546
Cl3 Cs2 3.594051 1_555
Cl3 Cs2 3.838559 1_455
Cl4 Tm2 2.606167 1_555
Cl4 Cs0 3.354920 1_545
Cl4 Cs0 3.390060 1_555
Cl4 Cs2 3.629378 1_454
Cl5 Tm1 2.606167 1_555
Cl5 Cs1 3.354920 1_565
Cl5 Cs1 3.390060 1_555
Cl5 Cs3 3.629378 1_555
Cl6 Tm0 2.606167 1_555
Cl6 Cs2 3.354920 1_565
Cl6 Cs2 3.390060 1_555
Cl6 Cs0 3.629378 1_656
Cl7 Tm3 2.606167 1_555
Cl7 Cs3 3.354920 1_545
Cl7 Cs3 3.390060 1_555
Cl7 Cs1 3.629378 1_555
O0 Se3 1.678396 1_555
O0 Tm0 2.259326 1_555
O1 Se0 1.722217 1_555
O1 Tm1 2.235409 1_455
O1 Tm2 2.383811 1_565
O2 Se0 1.678396 1_555
O2 Tm2 2.259326 1_555
O3 Se3 1.722217 1_555
O3 Tm3 2.235409 1_655
O3 Tm0 2.383811 1_545
O4 Se3 1.724405 1_555
O4 Tm3 2.237315 1_555
O4 Tm0 2.362960 1_545
O5 Se1 1.722217 1_555
O5 Tm2 2.235409 1_555
O5 Tm1 2.383811 1_545
O6 Se0 1.724405 1_555
O6 Tm1 2.237315 1_555
O6 Tm2 2.362960 1_565
O7 Se1 1.724405 1_555
O7 Tm2 2.237315 1_655
O7 Tm1 2.362960 1_545
O8 Se2 1.724405 1_555
O8 Tm0 2.237315 1_455
O8 Tm3 2.362960 1_565
O9 Se2 1.722217 1_555
O9 Tm0 2.235409 1_555
O9 Tm3 2.383811 1_565
O10 Se2 1.678396 1_555
O10 Tm3 2.259326 1_555
O11 Se1 1.678396 1_555
O11 Tm1 2.259326 1_555
