# generated using pymatgen
data_K2Cd2Te3
_symmetry_space_group_name_H-M   'P 1'
_cell_length_a   16.05139700
_cell_length_b   13.49792700
_cell_length_c   14.56759175
_cell_angle_alpha   85.50302236
_cell_angle_beta   90.00000000
_cell_angle_gamma   90.00000000
_symmetry_Int_Tables_number   1
_chemical_formula_structural   K2Cd2Te3
_chemical_formula_sum   'K24 Cd24 Te36'
_cell_volume   3146.50642684
_cell_formula_units_Z   12
loop_
 _symmetry_equiv_pos_site_id
 _symmetry_equiv_pos_as_xyz
  1  'x, y, z'
loop_
 _atom_site_type_symbol
 _atom_site_label
 _atom_site_symmetry_multiplicity
 _atom_site_fract_x
 _atom_site_fract_y
 _atom_site_fract_z
 _atom_site_occupancy
  K  K0  1  0.96134100  0.14251800  0.56064800  1
  K  K1  1  0.77028100  0.73378700  0.26799300  1
  K  K2  1  0.02457700  0.64283200  0.04645700  1
  K  K3  1  0.05491700  0.98063200  0.12258800  1
  K  K4  1  0.52649200  0.47482200  0.14523400  1
  K  K5  1  0.55491700  0.01936800  0.37741200  1
  K  K6  1  0.47350800  0.52517800  0.85476600  1
  K  K7  1  0.02649200  0.52517800  0.35476600  1
  K  K8  1  0.52457700  0.35716800  0.45354300  1
  K  K9  1  0.52961800  0.24768400  0.76683400  1
  K  K10  1  0.22971900  0.26621300  0.73200700  1
  K  K11  1  0.53865900  0.14251800  0.06064800  1
  K  K12  1  0.47542300  0.64283200  0.54645700  1
  K  K13  1  0.02961800  0.75231600  0.73316600  1
  K  K14  1  0.94508300  0.01936800  0.87741200  1
  K  K15  1  0.27028100  0.26621300  0.23200700  1
  K  K16  1  0.97038200  0.24768400  0.26683400  1
  K  K17  1  0.97542300  0.35716800  0.95354300  1
  K  K18  1  0.72971900  0.73378700  0.76799300  1
  K  K19  1  0.47038200  0.75231600  0.23316600  1
  K  K20  1  0.97350800  0.47482200  0.64523400  1
  K  K21  1  0.46134100  0.85748200  0.93935200  1
  K  K22  1  0.44508300  0.98063200  0.62258800  1
  K  K23  1  0.03865900  0.85748200  0.43935200  1
  Cd  Cd0  1  0.24627400  0.68117700  0.88652500  1
  Cd  Cd1  1  0.79130800  0.63137300  0.01933600  1
  Cd  Cd2  1  0.29130800  0.36862700  0.48066400  1
  Cd  Cd3  1  0.25372600  0.68117700  0.38652500  1
  Cd  Cd4  1  0.75022500  0.17755700  0.90453700  1
  Cd  Cd5  1  0.72984400  0.44277800  0.31868200  1
  Cd  Cd6  1  0.30944700  0.13765500  0.99087600  1
  Cd  Cd7  1  0.27015600  0.55722200  0.68131800  1
  Cd  Cd8  1  0.77015600  0.44277800  0.81868200  1
  Cd  Cd9  1  0.29070700  0.00839500  0.32283100  1
  Cd  Cd10  1  0.22984400  0.55722200  0.18131800  1
  Cd  Cd11  1  0.20929300  0.00839500  0.82283100  1
  Cd  Cd12  1  0.24977500  0.82244300  0.09546300  1
  Cd  Cd13  1  0.74977500  0.17755700  0.40453700  1
  Cd  Cd14  1  0.80944700  0.86234500  0.50912400  1
  Cd  Cd15  1  0.19055300  0.13765500  0.49087600  1
  Cd  Cd16  1  0.70929300  0.99160500  0.67716900  1
  Cd  Cd17  1  0.79070700  0.99160500  0.17716900  1
  Cd  Cd18  1  0.74627400  0.31882300  0.61347500  1
  Cd  Cd19  1  0.25022500  0.82244300  0.59546300  1
  Cd  Cd20  1  0.70869200  0.63137300  0.51933600  1
  Cd  Cd21  1  0.20869200  0.36862700  0.98066400  1
  Cd  Cd22  1  0.75372600  0.31882300  0.11347500  1
  Cd  Cd23  1  0.69055300  0.86234500  0.00912400  1
  Te  Te0  1  0.15508500  0.50994600  0.83249900  1
  Te  Te1  1  0.12262500  0.06749700  0.32530700  1
  Te  Te2  1  0.86153000  0.26224900  0.76150500  1
  Te  Te3  1  0.88896900  0.58472400  0.86232200  1
  Te  Te4  1  0.87946200  0.67027400  0.48306700  1
  Te  Te5  1  0.13988500  0.84392000  0.93290800  1
  Te  Te6  1  0.62053800  0.67027400  0.98306700  1
  Te  Te7  1  0.11103100  0.41527600  0.13767800  1
  Te  Te8  1  0.86011500  0.15608000  0.06709200  1
  Te  Te9  1  0.63439300  0.83543000  0.56005300  1
  Te  Te10  1  0.34491500  0.50994600  0.33249900  1
  Te  Te11  1  0.63847000  0.26224900  0.26150500  1
  Te  Te12  1  0.61103100  0.58472400  0.36232200  1
  Te  Te13  1  0.34761400  0.64813500  0.05044800  1
  Te  Te14  1  0.84491500  0.49005400  0.16750100  1
  Te  Te15  1  0.36560700  0.16457000  0.43994700  1
  Te  Te16  1  0.64877300  0.01357400  0.86265200  1
  Te  Te17  1  0.65508500  0.49005400  0.66750100  1
  Te  Te18  1  0.86560700  0.83543000  0.06005300  1
  Te  Te19  1  0.36153000  0.73775100  0.73849500  1
  Te  Te20  1  0.38896900  0.41527600  0.63767800  1
  Te  Te21  1  0.15238600  0.64813500  0.55044800  1
  Te  Te22  1  0.87737500  0.93250300  0.67469300  1
  Te  Te23  1  0.62262500  0.93250300  0.17469300  1
  Te  Te24  1  0.37737500  0.06749700  0.82530700  1
  Te  Te25  1  0.36011500  0.84392000  0.43290800  1
  Te  Te26  1  0.37946200  0.32972600  0.01693300  1
  Te  Te27  1  0.12053800  0.32972600  0.51693300  1
  Te  Te28  1  0.65238600  0.35186500  0.94955200  1
  Te  Te29  1  0.35122700  0.98642600  0.13734800  1
  Te  Te30  1  0.84761400  0.35186500  0.44955200  1
  Te  Te31  1  0.63988500  0.15608000  0.56709200  1
  Te  Te32  1  0.14877300  0.98642600  0.63734800  1
  Te  Te33  1  0.13439300  0.16457000  0.93994700  1
  Te  Te34  1  0.13847000  0.73775100  0.23849500  1
  Te  Te35  1  0.85122700  0.01357400  0.36265200  1
loop_
_geom_bond_atom_site_label_1
_geom_bond_atom_site_label_2
_geom_bond_distance
_geom_bond_site_symmetry_2
K0 Te22 3.445866 1_545
K0 Te27 3.615004 1_655
K0 Te30 3.635838 1_555
K0 Te32 3.790742 1_645
K0 Te2 3.805472 1_555
K0 Te35 3.906380 1_555
K1 Te12 3.469454 1_555
K1 Te18 3.570407 1_555
K1 Te4 3.633375 1_555
K1 Te23 3.753321 1_555
K1 Te14 3.893180 1_555
K2 Te7 3.533538 1_555
K2 Te5 3.581206 1_554
K2 Te3 3.588650 1_454
K2 Te34 3.656752 1_555
K2 Te18 3.659153 1_455
K2 Te14 3.886919 1_455
K3 Te1 3.437999 1_565
K3 Te5 3.701364 1_554
K3 Te33 3.719509 1_564
K3 Te18 3.766274 1_455
K3 Te34 3.811751 1_555
K3 Te8 3.967217 1_465
K4 Te26 3.670530 1_555
K4 Te11 3.683792 1_555
K4 Te6 3.720539 1_554
K4 Te12 3.844312 1_555
K4 Te13 3.888026 1_555
K4 Te28 3.963069 1_554
K4 Te10 4.045276 1_555
K5 Te23 3.437999 1_545
K5 Te31 3.701364 1_555
K5 Te9 3.719509 1_545
K5 Te15 3.766274 1_555
K5 Te11 3.811751 1_555
K5 Te25 3.967217 1_545
K6 Te6 3.670530 1_555
K6 Te19 3.683792 1_555
K6 Te26 3.720539 1_556
K6 Te20 3.844312 1_555
K6 Te28 3.888026 1_555
K6 Te13 3.963069 1_556
K6 Te17 4.045276 1_555
K7 Te4 3.670530 1_455
K7 Te34 3.683792 1_555
K7 Te27 3.720539 1_555
K7 Te7 3.844312 1_555
K7 Te30 3.888026 1_455
K7 Te21 3.963069 1_555
K7 Te14 4.045276 1_455
K8 Te12 3.533538 1_555
K8 Te31 3.581206 1_555
K8 Te20 3.588650 1_555
K8 Te11 3.656752 1_555
K8 Te15 3.659153 1_555
K8 Te10 3.886919 1_555
K9 Te24 3.505396 1_555
K9 Te20 3.617554 1_555
K9 Te28 3.678677 1_555
K9 Te31 3.700326 1_555
K9 Te16 3.860095 1_555
K9 Te17 4.013742 1_555
K10 Te20 3.469454 1_555
K10 Te33 3.570407 1_555
K10 Te27 3.633375 1_555
K10 Te24 3.753321 1_555
K10 Te0 3.893180 1_555
K11 Te23 3.445866 1_545
K11 Te26 3.615004 1_555
K11 Te28 3.635838 1_554
K11 Te29 3.790742 1_545
K11 Te11 3.805472 1_555
K11 Te16 3.906380 1_554
K12 Te20 3.533538 1_555
K12 Te25 3.581206 1_555
K12 Te12 3.588650 1_555
K12 Te19 3.656752 1_555
K12 Te9 3.659153 1_555
K12 Te17 3.886919 1_555
K13 Te22 3.505396 1_455
K13 Te3 3.617554 1_455
K13 Te21 3.678677 1_555
K13 Te5 3.700326 1_555
K13 Te32 3.860095 1_555
K13 Te0 4.013742 1_555
K14 Te22 3.437999 1_545
K14 Te8 3.701364 1_556
K14 Te18 3.719509 1_546
K14 Te33 3.766274 1_655
K14 Te2 3.811751 1_555
K14 Te5 3.967217 1_645
K15 Te7 3.469454 1_555
K15 Te15 3.570407 1_555
K15 Te26 3.633375 1_555
K15 Te1 3.753321 1_555
K15 Te10 3.893180 1_555
K16 Te1 3.505396 1_655
K16 Te7 3.617554 1_655
K16 Te30 3.678677 1_555
K16 Te8 3.700326 1_555
K16 Te35 3.860095 1_555
K16 Te14 4.013742 1_555
K17 Te3 3.533538 1_555
K17 Te8 3.581206 1_556
K17 Te7 3.588650 1_656
K17 Te2 3.656752 1_555
K17 Te33 3.659153 1_655
K17 Te0 3.886919 1_655
K18 Te3 3.469454 1_555
K18 Te9 3.570407 1_555
K18 Te6 3.633375 1_555
K18 Te22 3.753321 1_555
K18 Te17 3.893180 1_555
K19 Te23 3.505396 1_555
K19 Te12 3.617554 1_555
K19 Te13 3.678677 1_555
K19 Te25 3.700326 1_555
K19 Te29 3.860095 1_555
K19 Te10 4.013742 1_555
K20 Te27 3.670530 1_655
K20 Te2 3.683792 1_555
K20 Te4 3.720539 1_555
K20 Te3 3.844312 1_555
K20 Te21 3.888026 1_655
K20 Te30 3.963069 1_555
K20 Te0 4.045276 1_655
K21 Te24 3.445866 1_565
K21 Te6 3.615004 1_555
K21 Te13 3.635838 1_556
K21 Te16 3.790742 1_565
K21 Te19 3.805472 1_555
K21 Te29 3.906380 1_556
K22 Te24 3.437999 1_565
K22 Te25 3.701364 1_555
K22 Te15 3.719509 1_565
K22 Te9 3.766274 1_555
K22 Te19 3.811751 1_555
K22 Te31 3.967217 1_565
K23 Te1 3.445866 1_565
K23 Te4 3.615004 1_455
K23 Te21 3.635838 1_555
K23 Te35 3.790742 1_465
K23 Te34 3.805472 1_555
K23 Te32 3.906380 1_555
Cd0 Te13 2.894868 1_556
Cd0 Te0 2.896386 1_555
Cd0 Te19 2.897881 1_555
Cd0 Te5 2.903615 1_555
Cd1 Te6 2.832839 1_554
Cd1 Te3 2.882967 1_554
Cd1 Te14 2.896913 1_555
Cd1 Te18 3.101087 1_555
Cd1 K2 3.769527 1_655
Cd1 K18 3.937114 1_554
Cd1 K1 3.991417 1_555
Cd2 Te27 2.832839 1_555
Cd2 Te20 2.882967 1_555
Cd2 Te10 2.896913 1_555
Cd2 Te15 3.101087 1_555
Cd2 K8 3.769527 1_555
Cd2 K10 3.937114 1_555
Cd2 K15 3.991417 1_555
Cd3 Te21 2.894868 1_555
Cd3 Te10 2.896386 1_555
Cd3 Te34 2.897881 1_555
Cd3 Te25 2.903615 1_555
Cd4 Te16 2.852227 1_555
Cd4 Te2 2.909772 1_555
Cd4 Te28 2.945155 1_555
Cd4 Te8 2.948776 1_556
Cd4 K14 3.824971 1_555
Cd5 Te12 2.811265 1_555
Cd5 Te30 2.889136 1_555
Cd5 Te14 2.906671 1_555
Cd5 Te11 3.016793 1_555
Cd5 K8 3.961669 1_555
Cd5 K1 3.992623 1_555
Cd6 Te24 2.874241 1_555
Cd6 Te26 2.877984 1_556
Cd6 Te29 2.913145 1_546
Cd6 Te33 2.921553 1_555
Cd6 K11 3.818923 1_556
Cd6 K15 4.086719 1_556
Cd7 Te20 2.811265 1_555
Cd7 Te21 2.889136 1_555
Cd7 Te0 2.906671 1_555
Cd7 Te19 3.016793 1_555
Cd7 K12 3.961669 1_555
Cd7 K10 3.992623 1_555
Cd8 Te3 2.811265 1_555
Cd8 Te28 2.889136 1_555
Cd8 Te17 2.906671 1_555
Cd8 Te2 3.016793 1_555
Cd8 K17 3.961669 1_555
Cd8 K18 3.992623 1_555
Cd9 Te1 2.814456 1_555
Cd9 Te25 2.860606 1_545
Cd9 Te29 2.908312 1_545
Cd9 Te15 3.060063 1_555
Cd9 K15 3.639573 1_555
Cd10 Te7 2.811265 1_555
Cd10 Te13 2.889136 1_555
Cd10 Te10 2.906671 1_555
Cd10 Te34 3.016793 1_555
Cd10 K2 3.961669 1_555
Cd10 K15 3.992623 1_555
Cd11 Te24 2.814456 1_555
Cd11 Te5 2.860606 1_545
Cd11 Te32 2.908312 1_545
Cd11 Te33 3.060063 1_555
Cd11 K10 3.639573 1_555
Cd12 Te29 2.852227 1_555
Cd12 Te34 2.909772 1_555
Cd12 Te13 2.945155 1_555
Cd12 Te5 2.948776 1_554
Cd12 K3 3.824971 1_555
Cd13 Te35 2.852227 1_555
Cd13 Te11 2.909772 1_555
Cd13 Te30 2.945155 1_555
Cd13 Te31 2.948776 1_555
Cd13 K5 3.824971 1_555
Cd14 Te22 2.874241 1_555
Cd14 Te4 2.877984 1_555
Cd14 Te35 2.913145 1_565
Cd14 Te9 2.921553 1_555
Cd14 K23 3.818923 1_655
Cd14 K1 4.086719 1_555
Cd15 Te1 2.874241 1_555
Cd15 Te27 2.877984 1_555
Cd15 Te32 2.913145 1_545
Cd15 Te15 2.921553 1_555
Cd15 K0 3.818923 1_455
Cd15 K10 4.086719 1_555
Cd16 Te22 2.814456 1_555
Cd16 Te31 2.860606 1_565
Cd16 Te16 2.908312 1_565
Cd16 Te9 3.060063 1_555
Cd16 K18 3.639573 1_555
Cd17 Te23 2.814456 1_555
Cd17 Te8 2.860606 1_565
Cd17 Te35 2.908312 1_565
Cd17 Te18 3.060063 1_555
Cd17 K1 3.639573 1_555
Cd18 Te30 2.894868 1_555
Cd18 Te17 2.896386 1_555
Cd18 Te2 2.897881 1_555
Cd18 Te31 2.903615 1_555
Cd19 Te32 2.852227 1_555
Cd19 Te19 2.909772 1_555
Cd19 Te21 2.945155 1_555
Cd19 Te25 2.948776 1_555
Cd19 K22 3.824971 1_555
Cd20 Te4 2.832839 1_555
Cd20 Te12 2.882967 1_555
Cd20 Te17 2.896913 1_555
Cd20 Te9 3.101087 1_555
Cd20 K12 3.769527 1_555
Cd20 K1 3.937114 1_555
Cd20 K18 3.991417 1_555
Cd21 Te26 2.832839 1_556
Cd21 Te7 2.882967 1_556
Cd21 Te0 2.896913 1_555
Cd21 Te33 3.101087 1_555
Cd21 K17 3.769527 1_455
Cd21 K15 3.937114 1_556
Cd21 K10 3.991417 1_555
Cd22 Te28 2.894868 1_554
Cd22 Te14 2.896386 1_555
Cd22 Te11 2.897881 1_555
Cd22 Te8 2.903615 1_555
Cd23 Te23 2.874241 1_555
Cd23 Te6 2.877984 1_554
Cd23 Te16 2.913145 1_564
Cd23 Te18 2.921553 1_555
Cd23 K21 3.818923 1_554
Cd23 K18 4.086719 1_554
