# generated using pymatgen
data_Sm2Zr2O7
_symmetry_space_group_name_H-M   'P 1'
_cell_length_a   7.60915596
_cell_length_b   7.60915596
_cell_length_c   25.03974562
_cell_angle_alpha   80.94827532
_cell_angle_beta   80.94827532
_cell_angle_gamma   59.76239399
_symmetry_Int_Tables_number   1
_chemical_formula_structural   Sm2Zr2O7
_chemical_formula_sum   'Sm16 Zr16 O56'
_cell_volume   1231.74038056
_cell_formula_units_Z   8
loop_
 _symmetry_equiv_pos_site_id
 _symmetry_equiv_pos_as_xyz
  1  'x, y, z'
loop_
 _atom_site_type_symbol
 _atom_site_label
 _atom_site_symmetry_multiplicity
 _atom_site_fract_x
 _atom_site_fract_y
 _atom_site_fract_z
 _atom_site_occupancy
  Sm  Sm0  1  0.36199800  0.36199800  0.88554600  1
  Sm  Sm1  1  0.86104900  0.37034800  0.87368600  1
  Sm  Sm2  1  0.74473800  0.74473800  0.74932800  1
  Sm  Sm3  1  0.63800200  0.63800200  0.11445400  1
  Sm  Sm4  1  0.37034800  0.86104900  0.87368600  1
  Sm  Sm5  1  0.13895100  0.62965200  0.12631400  1
  Sm  Sm6  1  0.00000000  0.00000000  0.00000000  1
  Sm  Sm7  1  0.62965200  0.13895100  0.12631400  1
  Sm  Sm8  1  0.37424600  0.37424600  0.37653900  1
  Sm  Sm9  1  0.37414300  0.87499200  0.37456700  1
  Sm  Sm10  1  0.25526200  0.25526200  0.25067200  1
  Sm  Sm11  1  0.87499200  0.37414300  0.37456700  1
  Sm  Sm12  1  0.62575400  0.62575400  0.62346100  1
  Sm  Sm13  1  0.62585700  0.12500800  0.62543300  1
  Sm  Sm14  1  0.50000000  0.50000000  0.50000000  1
  Sm  Sm15  1  0.12500800  0.62585700  0.62543300  1
  Zr  Zr0  1  0.74416700  0.24998600  0.75134700  1
  Zr  Zr1  1  0.24998600  0.74416700  0.75134700  1
  Zr  Zr2  1  0.24675400  0.24675400  0.75292800  1
  Zr  Zr3  1  0.00000000  0.50000000  0.00000000  1
  Zr  Zr4  1  0.87767800  0.87767800  0.86567700  1
  Zr  Zr5  1  0.50000000  0.00000000  0.00000000  1
  Zr  Zr6  1  0.50000000  0.50000000  0.00000000  1
  Zr  Zr7  1  0.25583300  0.75001400  0.24865300  1
  Zr  Zr8  1  0.12232200  0.12232200  0.13432300  1
  Zr  Zr9  1  0.87585200  0.87585200  0.37363300  1
  Zr  Zr10  1  0.75001400  0.25583300  0.24865300  1
  Zr  Zr11  1  0.75324600  0.75324600  0.24707200  1
  Zr  Zr12  1  0.50000000  0.00000000  0.50000000  1
  Zr  Zr13  1  0.12414800  0.12414800  0.62636700  1
  Zr  Zr14  1  0.00000000  0.50000000  0.50000000  1
  Zr  Zr15  1  0.00000000  0.00000000  0.50000000  1
  O  O0  1  0.68326800  0.23714200  0.83553800  1
  O  O1  1  0.56259400  0.56259400  0.72903900  1
  O  O2  1  0.23714200  0.68326800  0.83553800  1
  O  O3  1  0.56100800  0.14253900  0.73016100  1
  O  O4  1  0.99853600  0.60945700  0.91640400  1
  O  O5  1  0.22750000  0.22750000  0.84046700  1
  O  O6  1  0.14253900  0.56100800  0.73016100  1
  O  O7  1  0.92944600  0.92944600  0.77492700  1
  O  O8  1  0.00146400  0.39054300  0.08359600  1
  O  O9  1  0.74575300  0.74575300  0.02982500  1
  O  O10  1  0.60945700  0.99853600  0.91640400  1
  O  O11  1  0.39054300  0.00146400  0.08359600  1
  O  O12  1  0.93051200  0.36036900  0.77070600  1
  O  O13  1  0.83043200  0.36960000  0.98066000  1
  O  O14  1  0.72237100  0.72237100  0.84014900  1
  O  O15  1  0.31673200  0.76285800  0.16446200  1
  O  O16  1  0.48225500  0.48225500  0.08419300  1
  O  O17  1  0.36960000  0.83043200  0.98066000  1
  O  O18  1  0.25424700  0.25424700  0.97017500  1
  O  O19  1  0.36036900  0.93051200  0.77070600  1
  O  O20  1  0.51774500  0.51774500  0.91580700  1
  O  O21  1  0.17280600  0.75123800  0.33364700  1
  O  O22  1  0.07055400  0.07055400  0.22507300  1
  O  O23  1  0.76285800  0.31673200  0.16446200  1
  O  O24  1  0.75123800  0.17280600  0.33364700  1
  O  O25  1  0.16956800  0.63040000  0.01934000  1
  O  O26  1  0.01129200  0.01129200  0.90507600  1
  O  O27  1  0.06948800  0.63963100  0.22929400  1
  O  O28  1  0.98870800  0.98870800  0.09492300  1
  O  O29  1  0.57992800  0.00362000  0.41545400  1
  O  O30  1  0.43740600  0.43740600  0.27096100  1
  O  O31  1  0.63963100  0.06948800  0.22929400  1
  O  O32  1  0.75035200  0.75035200  0.33226500  1
  O  O33  1  0.63040000  0.16956800  0.01934000  1
  O  O34  1  0.42007200  0.99638000  0.58454600  1
  O  O35  1  0.77250000  0.77250000  0.15953300  1
  O  O36  1  0.31565500  0.31565500  0.47780000  1
  O  O37  1  0.00362000  0.57992800  0.41545400  1
  O  O38  1  0.99638000  0.42007200  0.58454600  1
  O  O39  1  0.43899200  0.85746100  0.26983900  1
  O  O40  1  0.27762900  0.27762900  0.15985100  1
  O  O41  1  0.31603700  0.89131400  0.47808200  1
  O  O42  1  0.21923300  0.21923300  0.34508400  1
  O  O43  1  0.82719400  0.24876200  0.66635300  1
  O  O44  1  0.99724600  0.99724600  0.58442800  1
  O  O45  1  0.89131400  0.31603700  0.47808200  1
  O  O46  1  0.68434500  0.68434500  0.52220000  1
  O  O47  1  0.85746100  0.43899200  0.26983900  1
  O  O48  1  0.00275400  0.00275400  0.41557200  1
  O  O49  1  0.24876200  0.82719400  0.66635300  1
  O  O50  1  0.68396300  0.10868600  0.52191800  1
  O  O51  1  0.53153100  0.53153100  0.40601700  1
  O  O52  1  0.46846900  0.46846900  0.59398300  1
  O  O53  1  0.10868600  0.68396300  0.52191800  1
  O  O54  1  0.24964800  0.24964800  0.66773500  1
  O  O55  1  0.78076700  0.78076700  0.65491600  1
loop_
_geom_bond_atom_site_label_1
_geom_bond_atom_site_label_2
_geom_bond_distance
_geom_bond_site_symmetry_2
O0 Zr0 2.083714 1_555
O0 Sm0 2.349171 1_555
O0 Sm1 2.421151 1_555
O0 Zr4 2.421943 1_545
O1 Zr1 2.096131 1_555
O1 Zr0 2.096131 1_555
O1 Sm2 2.545123 1_555
O1 Sm12 2.623717 1_555
O2 Zr1 2.083714 1_555
O2 Sm0 2.349171 1_555
O2 Sm4 2.421151 1_555
O2 Zr4 2.421943 1_455
O3 Zr0 2.099750 1_555
O3 Zr2 2.115469 1_555
O3 Sm13 2.602822 1_555
O3 Sm2 2.615157 1_545
O4 Zr4 2.070266 1_555
O4 Zr3 2.127162 1_656
O4 Sm0 2.516301 1_655
O4 Sm1 2.903514 1_555
O5 Zr2 2.160351 1_555
O5 Sm0 2.269525 1_555
O5 Sm4 2.480027 1_545
O5 Sm1 2.480027 1_455
O6 Zr1 2.099750 1_555
O6 Zr2 2.115469 1_555
O6 Sm15 2.602822 1_555
O6 Sm2 2.615157 1_455
O7 Zr1 2.151890 1_655
O7 Zr0 2.151890 1_565
O7 Zr4 2.250983 1_555
O7 Sm2 2.630216 1_555
O8 Zr8 2.070266 1_555
O8 Zr3 2.127162 1_555
O8 Sm3 2.516301 1_455
O8 Sm5 2.903514 1_555
O9 Zr3 2.034311 1_655
O9 Zr5 2.034311 1_565
O9 Sm3 2.327803 1_555
O10 Zr4 2.070266 1_555
O10 Zr5 2.127162 1_566
O10 Sm0 2.516301 1_565
O10 Sm4 2.903514 1_555
O11 Zr8 2.070266 1_555
O11 Zr5 2.127162 1_555
O11 Sm3 2.516301 1_545
O11 Sm7 2.903514 1_555
O12 Zr2 2.103521 1_655
O12 Zr0 2.120103 1_555
O12 Sm2 2.533820 1_555
O12 Sm1 2.554724 1_555
O13 Zr3 2.126281 1_656
O13 Zr6 2.190019 1_556
O13 Sm6 2.433505 1_656
O13 Sm1 2.651302 1_555
O14 Sm2 2.239470 1_555
O14 Zr4 2.254689 1_555
O14 Sm1 2.391199 1_555
O14 Sm4 2.391199 1_555
O15 Zr7 2.083714 1_555
O15 Sm3 2.349171 1_555
O15 Sm5 2.421151 1_555
O15 Zr8 2.421943 1_565
O16 Zr6 2.078480 1_555
O16 Sm3 2.315760 1_555
O16 Sm5 2.397630 1_555
O16 Sm7 2.397630 1_555
O17 Zr5 2.126281 1_566
O17 Zr6 2.190019 1_556
O17 Sm6 2.433505 1_566
O17 Sm4 2.651302 1_555
O18 Zr3 2.034311 1_556
O18 Zr5 2.034311 1_556
O18 Sm0 2.327803 1_555
O19 Zr2 2.103521 1_565
O19 Zr1 2.120103 1_555
O19 Sm2 2.533820 1_555
O19 Sm4 2.554724 1_555
O20 Zr6 2.078480 1_556
O20 Sm0 2.315760 1_555
O20 Sm4 2.397630 1_555
O20 Sm1 2.397630 1_555
O21 Zr9 2.106225 1_455
O21 Zr7 2.122691 1_555
O21 Sm9 2.556193 1_555
O21 Sm8 2.617601 1_555
O22 Zr7 2.151890 1_545
O22 Zr10 2.151890 1_455
O22 Zr8 2.250983 1_555
O22 Sm10 2.630216 1_555
O23 Zr10 2.083714 1_555
O23 Sm3 2.349171 1_555
O23 Sm7 2.421151 1_555
O23 Zr8 2.421943 1_655
O24 Zr9 2.106225 1_545
O24 Zr10 2.122691 1_555
O24 Sm11 2.556193 1_555
O24 Sm8 2.617601 1_555
O25 Zr3 2.126281 1_555
O25 Zr6 2.190019 1_555
O25 Sm6 2.433505 1_565
O25 Sm5 2.651302 1_555
O26 Zr4 2.170910 1_445
O26 Sm6 2.354401 1_556
O26 Sm1 2.418763 1_455
O26 Sm4 2.418763 1_545
O27 Zr11 2.103521 1_455
O27 Zr7 2.120103 1_555
O27 Sm10 2.533820 1_555
O27 Sm5 2.554724 1_555
O28 Zr8 2.170925 1_665
O28 Sm6 2.354376 1_665
O28 Sm5 2.418768 1_655
O28 Sm7 2.418768 1_565
O29 Zr12 2.108502 1_555
O29 Zr9 2.117930 1_545
O29 Sm8 2.553817 1_555
O29 Sm9 2.611761 1_545
O30 Zr7 2.096131 1_555
O30 Zr10 2.096131 1_555
O30 Sm10 2.545123 1_555
O30 Sm8 2.623717 1_555
O31 Zr11 2.103521 1_545
O31 Zr10 2.120103 1_555
O31 Sm10 2.533820 1_555
O31 Sm7 2.554724 1_555
O32 Zr9 2.106607 1_555
O32 Zr11 2.126614 1_555
O32 Sm9 2.616048 1_555
O32 Sm11 2.616048 1_555
O33 Zr5 2.126281 1_555
O33 Zr6 2.190019 1_555
O33 Sm6 2.433505 1_655
O33 Sm7 2.651302 1_555
O34 Zr12 2.108502 1_565
O34 Zr13 2.117930 1_565
O34 Sm12 2.553817 1_555
O34 Sm13 2.611761 1_565
O35 Zr11 2.160351 1_555
O35 Sm3 2.269525 1_555
O35 Sm5 2.480027 1_655
O35 Sm7 2.480027 1_565
O36 Zr12 2.116014 1_555
O36 Zr14 2.116014 1_555
O36 Sm8 2.513036 1_555
O36 Sm14 2.591641 1_555
O37 Zr14 2.108502 1_555
O37 Zr9 2.117930 1_455
O37 Sm8 2.553817 1_555
O37 Sm11 2.611761 1_455
O38 Zr14 2.108502 1_655
O38 Zr13 2.117930 1_655
O38 Sm12 2.553817 1_555
O38 Sm15 2.611761 1_655
O39 Zr7 2.099750 1_555
O39 Zr11 2.115469 1_555
O39 Sm9 2.602822 1_555
O39 Sm10 2.615157 1_565
O40 Sm10 2.239470 1_555
O40 Zr8 2.254689 1_555
O40 Sm5 2.391199 1_555
O40 Sm7 2.391199 1_555
O41 Zr15 2.119573 1_565
O41 Zr12 2.120164 1_565
O41 Sm9 2.571908 1_555
O41 Sm14 2.579961 1_555
O42 Sm9 2.313274 1_545
O42 Sm11 2.313274 1_455
O42 Sm8 2.321370 1_555
O42 Sm10 2.325275 1_555
O43 Zr13 2.106225 1_655
O43 Zr0 2.122691 1_555
O43 Sm13 2.556193 1_555
O43 Sm12 2.617601 1_555
O44 Zr15 2.107765 1_665
O44 Zr13 2.131871 1_665
O44 Sm15 2.572830 1_655
O44 Sm13 2.572830 1_565
O45 Zr15 2.119573 1_655
O45 Zr14 2.120164 1_655
O45 Sm11 2.571908 1_555
O45 Sm14 2.579961 1_555
O46 Zr12 2.116014 1_565
O46 Zr14 2.116014 1_655
O46 Sm12 2.513036 1_555
O46 Sm14 2.591641 1_555
O47 Zr10 2.099750 1_555
O47 Zr11 2.115469 1_555
O47 Sm11 2.602822 1_555
O47 Sm10 2.615157 1_655
O48 Zr15 2.107765 1_555
O48 Zr9 2.131871 1_445
O48 Sm11 2.572830 1_455
O48 Sm9 2.572830 1_545
O49 Zr13 2.106225 1_565
O49 Zr1 2.122691 1_555
O49 Sm15 2.556193 1_555
O49 Sm12 2.617601 1_555
O50 Zr15 2.119573 1_655
O50 Zr12 2.120164 1_555
O50 Sm13 2.571908 1_555
O50 Sm14 2.579961 1_555
O51 Sm14 2.314273 1_555
O51 Sm9 2.319777 1_555
O51 Sm11 2.319777 1_555
O51 Sm8 2.325522 1_555
O52 Sm14 2.314273 1_555
O52 Sm15 2.319777 1_555
O52 Sm13 2.319777 1_555
O52 Sm12 2.325522 1_555
O53 Zr15 2.119573 1_565
O53 Zr14 2.120164 1_555
O53 Sm15 2.571908 1_555
O53 Sm14 2.579961 1_555
O54 Zr13 2.106607 1_555
O54 Zr2 2.126614 1_555
O54 Sm13 2.616048 1_555
O54 Sm15 2.616048 1_555
O55 Sm13 2.313274 1_565
O55 Sm15 2.313274 1_655
O55 Sm12 2.321370 1_555
O55 Sm2 2.325275 1_555
