# generated using pymatgen
data_B4C
_symmetry_space_group_name_H-M   'P 1'
_cell_length_a   5.11891100
_cell_length_b   5.11881548
_cell_length_c   22.36804765
_cell_angle_alpha   92.91352383
_cell_angle_beta   94.78121753
_cell_angle_gamma   114.43464863
_symmetry_Int_Tables_number   1
_chemical_formula_structural   B4C
_chemical_formula_sum   'B56 C14'
_cell_volume   529.39669256
_cell_formula_units_Z   14
loop_
 _symmetry_equiv_pos_site_id
 _symmetry_equiv_pos_as_xyz
  1  'x, y, z'
loop_
 _atom_site_type_symbol
 _atom_site_label
 _atom_site_symmetry_multiplicity
 _atom_site_fract_x
 _atom_site_fract_y
 _atom_site_fract_z
 _atom_site_occupancy
  B  B0  1  0.32563400  0.00677200  0.99841200  1
  B  B1  1  0.12922300  0.93889500  0.06568800  1
  B  B2  1  0.99274200  0.67387500  0.99856400  1
  B  B3  1  0.73531000  0.79578400  0.19993300  1
  B  B4  1  0.53831700  0.72892900  0.26597400  1
  B  B5  1  0.47061100  0.66219100  0.13535600  1
  B  B6  1  0.75025400  0.76854100  0.03785500  1
  B  B7  1  0.40467900  0.45138300  0.19982700  1
  B  B8  1  0.27067200  0.28826600  0.03786900  1
  B  B9  1  0.93660700  0.53074400  0.46799000  1
  B  B10  1  0.16489100  0.55677000  0.24018900  1
  B  B11  1  0.87374400  0.46603800  0.33681900  1
  B  B12  1  0.12064300  0.51802600  0.15988700  1
  B  B13  1  0.80258900  0.26945700  0.40113700  1
  B  B14  1  0.68194900  0.07967400  0.24037600  1
  B  B15  1  0.91965600  0.14229200  0.06250200  1
  B  B16  1  0.63714100  0.04050300  0.15979200  1
  B  B17  1  0.54417100  0.38916400  0.60270400  1
  B  B18  1  0.27919800  0.25814600  0.53790100  1
  B  B19  1  0.55842900  0.36105300  0.44036000  1
  B  B20  1  0.51645400  0.32497400  0.36007500  1
  B  B21  1  0.21426400  0.05929600  0.60288300  1
  B  B22  1  0.08048100  0.87735400  0.44043400  1
  B  B23  1  0.03909400  0.84184800  0.35990000  1
  B  B24  1  0.32918100  0.93714100  0.26340100  1
  B  B25  1  0.26257100  0.86894700  0.13220700  1
  B  B26  1  0.06829200  0.80168600  0.19905100  1
  B  B27  1  0.93350300  0.19760700  0.80103700  1
  B  B28  1  0.97299700  0.15128900  0.64269500  1
  B  B29  1  0.67414500  0.06301500  0.73675200  1
  B  B30  1  0.93089300  0.11368900  0.56246100  1
  B  B31  1  0.79569800  0.93561600  0.40022900  1
  B  B32  1  0.60384800  0.86792300  0.80104100  1
  B  B33  1  0.49214600  0.67024300  0.64271700  1
  B  B34  1  0.44936000  0.63275300  0.56246100  1
  B  B35  1  0.72626700  0.73578900  0.46479700  1
  B  B36  1  0.66285300  0.67255000  0.33418600  1
  B  B37  1  0.45139500  0.60506900  0.40032900  1
  B  B38  1  0.36119600  0.96010500  0.83983300  1
  B  B39  1  0.06367800  0.87107300  0.93407100  1
  B  B40  1  0.32113000  0.92252100  0.75965400  1
  B  B41  1  0.20824400  0.72613500  0.60206500  1
  B  B42  1  0.88012400  0.47903200  0.83983200  1
  B  B43  1  0.83750600  0.43890600  0.75965300  1
  B  B44  1  0.13830300  0.52821100  0.66592000  1
  B  B45  1  0.07231300  0.46483800  0.53473600  1
  B  B46  1  0.87676300  0.39468800  0.60191600  1
  B  B47  1  0.71054100  0.72877900  0.95744300  1
  B  B48  1  0.59600100  0.53364100  0.79926400  1
  B  B49  1  0.52862000  0.33521500  0.86340700  1
  B  B50  1  0.22935200  0.24771500  0.95742300  1
  B  B51  1  0.46260100  0.26919000  0.73136700  1
  B  B52  1  0.26602300  0.20367200  0.79926400  1
  B  B53  1  0.98787100  0.34210400  0.99745100  1
  B  B54  1  0.65600400  0.01013000  0.99726700  1
  B  B55  1  0.85321600  0.07655400  0.92922200  1
  C  C0  1  0.51287400  0.56027400  0.07215400  1
  C  C1  1  0.12317800  0.60117800  0.40088700  1
  C  C2  1  0.93180700  0.34923700  0.27613700  1
  C  C3  1  0.87488500  0.24919300  0.12469400  1
  C  C4  1  0.33890300  0.32772300  0.66618900  1
  C  C5  1  0.40030000  0.12251900  0.19927200  1
  C  C6  1  0.32580400  0.14914100  0.47564500  1
  C  C7  1  0.27301500  0.05601400  0.32407800  1
  C  C8  1  0.72833300  0.13638900  0.86421800  1
  C  C9  1  0.73961000  0.93918200  0.67820900  1
  C  C10  1  0.68747500  0.84148500  0.52799900  1
  C  C11  1  0.12292300  0.75229300  0.87482900  1
  C  C12  1  0.07906900  0.64726500  0.72596900  1
  C  C13  1  0.47243600  0.45230300  0.92414200  1
loop_
_geom_bond_atom_site_label_1
_geom_bond_atom_site_label_2
_geom_bond_distance
_geom_bond_site_symmetry_2
B0 B54 1.686447 1_555
B0 B50 1.774025 1_555
B0 B39 1.777052 1_545
B0 B8 1.783770 1_556
B0 B2 1.845745 1_445
B0 B1 1.847284 1_546
B1 B25 1.701479 1_555
B1 B15 1.777273 1_465
B1 B8 1.796297 1_565
B1 B6 1.804225 1_455
B1 B2 1.848435 1_454
B2 B53 1.686993 1_555
B2 B47 1.775507 1_555
B2 B39 1.778747 1_655
B2 B6 1.784423 1_556
B3 B5 1.787958 1_555
B3 B4 1.824917 1_555
B3 B7 1.871585 1_555
B4 B7 1.867905 1_555
B5 C0 1.544964 1_555
B6 C0 1.538992 1_555
B7 C5 1.673644 1_555
B8 C0 1.539061 1_555
B9 C1 1.817716 1_655
B10 C2 1.548165 1_455
B10 B4 1.770345 1_555
B10 B26 1.793666 1_555
B11 C2 1.555615 1_555
B11 C1 1.739539 1_655
B11 B13 1.773780 1_555
B11 B36 1.796147 1_555
B12 C3 1.545488 1_455
B12 B26 1.783054 1_555
B12 B25 1.801731 1_555
B13 B31 1.693629 1_545
B13 B19 1.782534 1_555
B13 B20 1.793414 1_555
B13 C1 1.809293 1_655
B13 B9 1.833628 1_555
B14 C2 1.561041 1_555
B14 C5 1.741593 1_555
B14 B4 1.781705 1_545
B14 B3 1.800179 1_545
B15 C3 1.538398 1_555
B15 B54 1.795640 1_554
B15 B53 1.796046 1_554
B16 C3 1.551626 1_555
B16 C5 1.728529 1_555
B16 B25 1.784085 1_545
B16 B3 1.785440 1_545
B17 B46 1.692593 1_555
B17 B34 1.772703 1_555
B17 B33 1.779863 1_555
B17 B18 1.792060 1_555
B17 C4 1.800063 1_555
B17 B21 1.829152 1_555
B18 C6 1.547243 1_555
B18 B45 1.779899 1_555
B18 B21 1.791735 1_555
B19 C6 1.546813 1_555
B19 B9 1.799681 1_555
B20 C7 1.548332 1_555
B20 B36 1.770997 1_555
B21 B41 1.692009 1_545
B21 B30 1.772064 1_455
B21 B28 1.778172 1_455
B21 C4 1.796247 1_555
B22 C6 1.552798 1_565
B22 C1 1.729024 1_555
B22 B9 1.782142 1_455
B22 B31 1.786397 1_455
B23 C7 1.562337 1_565
B23 C1 1.741031 1_555
B23 B36 1.781838 1_455
B23 B31 1.798485 1_455
B24 C7 1.555896 1_565
B24 C5 1.740753 1_565
B24 B26 1.774287 1_555
B24 B4 1.795893 1_555
B25 B5 1.785123 1_555
B25 C5 1.816822 1_565
B25 B26 1.833039 1_555
B26 B3 1.694020 1_455
B26 C5 1.809465 1_565
B27 B52 1.693363 1_655
B27 B29 1.768963 1_555
B27 B42 1.772287 1_555
B27 B43 1.779476 1_555
B27 C8 1.794052 1_555
B27 B32 1.827454 1_545
B28 C9 1.552387 1_545
B28 C4 1.728664 1_655
B28 B46 1.781957 1_555
B29 C9 1.547055 1_545
B29 B32 1.769073 1_545
B30 C10 1.543569 1_545
B30 B46 1.779334 1_555
B30 B45 1.803103 1_655
B31 B35 1.787028 1_555
B31 B36 1.825032 1_555
B31 B37 1.871651 1_555
B32 B48 1.693254 1_555
B32 B38 1.772384 1_555
B32 B40 1.779636 1_555
B32 C8 1.794308 1_565
B33 C9 1.551967 1_555
B33 C4 1.728997 1_555
B33 B41 1.780679 1_555
B34 C10 1.544159 1_555
B34 B41 1.778746 1_555
B34 B45 1.795094 1_555
B35 C10 1.545523 1_555
B35 B9 1.787677 1_555
B36 B4 1.688926 1_555
B36 B37 1.868010 1_555
B37 C1 1.673072 1_555
B38 C11 1.549970 1_555
B38 C8 1.737753 1_565
B38 B52 1.777382 1_565
B39 C11 1.534684 1_555
B40 C12 1.542845 1_555
B40 B52 1.784279 1_565
B41 B44 1.768323 1_555
B41 B46 1.836981 1_455
B41 B45 1.841690 1_555
B42 C11 1.549938 1_655
B42 C8 1.737231 1_555
B42 B48 1.777348 1_555
B43 C12 1.542776 1_655
B43 B48 1.784200 1_555
B44 C12 1.550809 1_555
B44 C4 1.726010 1_555
B44 B46 1.770063 1_455
B45 B9 1.702219 1_455
B45 B46 1.843162 1_455
B47 C13 1.535486 1_555
B47 B54 1.785841 1_565
B48 B49 1.774810 1_555
B48 B52 1.829128 1_555
B48 B51 1.859742 1_555
B49 C13 1.553219 1_555
B49 C8 1.714890 1_555
B49 B52 1.774905 1_555
B50 C13 1.534549 1_555
B50 B53 1.788215 1_455
B51 C4 1.632076 1_555
B51 B52 1.859814 1_555
B53 B8 1.768090 1_656
B53 B54 1.839416 1_555
B53 B55 1.868302 1_555
B54 B6 1.766640 1_546
B54 B55 1.864426 1_555
B55 C8 1.633686 1_555
