# generated using pymatgen
data_BaV13O18
_symmetry_space_group_name_H-M   'P 1'
_cell_length_a   8.01713574
_cell_length_b   8.01713574
_cell_length_c   8.01713600
_cell_angle_alpha   110.73457738
_cell_angle_beta   110.73457738
_cell_angle_gamma   110.73458182
_symmetry_Int_Tables_number   1
_chemical_formula_structural   BaV13O18
_chemical_formula_sum   'Ba1 V13 O18'
_cell_volume   376.98313448
_cell_formula_units_Z   1
loop_
 _symmetry_equiv_pos_site_id
 _symmetry_equiv_pos_as_xyz
  1  'x, y, z'
loop_
 _atom_site_type_symbol
 _atom_site_label
 _atom_site_symmetry_multiplicity
 _atom_site_fract_x
 _atom_site_fract_y
 _atom_site_fract_z
 _atom_site_occupancy
  Ba  Ba0  1  0.00000000  0.00000000  0.00000000  1
  V  V0  1  0.76717500  0.34257700  0.39913800  1
  V  V1  1  0.39913800  0.76717500  0.34257700  1
  V  V2  1  0.34257700  0.39913800  0.76717500  1
  V  V3  1  0.23282500  0.65742300  0.60086200  1
  V  V4  1  0.60086200  0.23282500  0.65742300  1
  V  V5  1  0.65742300  0.60086200  0.23282500  1
  V  V6  1  0.43667400  0.12056900  0.92740800  1
  V  V7  1  0.50000000  0.50000000  0.50000000  1
  V  V8  1  0.12056900  0.92740800  0.43667400  1
  V  V9  1  0.56332600  0.87943100  0.07259200  1
  V  V10  1  0.07259200  0.56332600  0.87943100  1
  V  V11  1  0.87943100  0.07259200  0.56332600  1
  V  V12  1  0.92740800  0.43667400  0.12056900  1
  O  O0  1  0.59706500  0.05199400  0.38298100  1
  O  O1  1  0.38298100  0.59706500  0.05199400  1
  O  O2  1  0.05199400  0.38298100  0.59706500  1
  O  O3  1  0.40293500  0.94800600  0.61701900  1
  O  O4  1  0.61701900  0.40293500  0.94800600  1
  O  O5  1  0.94800600  0.61701900  0.40293500  1
  O  O6  1  0.73810500  0.17403900  0.12192300  1
  O  O7  1  0.12192300  0.73810500  0.17403900  1
  O  O8  1  0.17403900  0.12192300  0.73810500  1
  O  O9  1  0.26189500  0.82596100  0.87807700  1
  O  O10  1  0.87807700  0.26189500  0.82596100  1
  O  O11  1  0.82596100  0.87807700  0.26189500  1
  O  O12  1  0.66757000  0.77252600  0.49534600  1
  O  O13  1  0.49534600  0.66757000  0.77252600  1
  O  O14  1  0.22747400  0.50465400  0.33243000  1
  O  O15  1  0.50465400  0.33243000  0.22747400  1
  O  O16  1  0.77252600  0.49534600  0.66757000  1
  O  O17  1  0.33243000  0.22747400  0.50465400  1
loop_
_geom_bond_atom_site_label_1
_geom_bond_atom_site_label_2
_geom_bond_distance
_geom_bond_site_symmetry_2
Ba0 O8 3.142090 1_554
Ba0 O11 3.142090 1_445
Ba0 O7 3.142090 1_545
Ba0 O10 3.142090 1_454
Ba0 O6 3.142090 1_455
Ba0 O9 3.142090 1_544
Ba0 O15 3.239878 1_555
Ba0 O13 3.239878 1_444
Ba0 O14 3.239878 1_555
Ba0 O16 3.239878 1_444
Ba0 O17 3.239878 1_555
Ba0 O12 3.239878 1_444
O0 V1 2.093711 1_545
O0 V11 2.119207 1_555
O0 V4 2.146264 1_555
O0 V0 2.171524 1_555
O0 V9 2.236107 1_545
O1 V2 2.093711 1_554
O1 V9 2.119207 1_555
O1 V5 2.146264 1_555
O1 V1 2.171524 1_555
O1 V10 2.236107 1_554
O2 V0 2.093711 1_455
O2 V10 2.119207 1_555
O2 V3 2.146263 1_555
O2 V2 2.171524 1_555
O2 V11 2.236107 1_455
O3 V4 2.093711 1_565
O3 V8 2.119207 1_555
O3 V1 2.146264 1_555
O3 V3 2.171524 1_555
O3 V6 2.236107 1_565
O4 V5 2.093711 1_556
O4 V6 2.119207 1_555
O4 V2 2.146264 1_555
O4 V4 2.171524 1_555
O4 V12 2.236107 1_556
O5 V3 2.093711 1_655
O5 V12 2.119207 1_555
O5 V0 2.146263 1_555
O5 V5 2.171524 1_555
O5 V8 2.236107 1_655
O6 V0 2.025666 1_555
O6 V9 2.073936 1_545
O6 V12 2.121800 1_555
O6 V6 2.140172 1_554
O7 V1 2.025666 1_555
O7 V10 2.073936 1_554
O7 V8 2.121800 1_555
O7 V12 2.140171 1_455
O8 V2 2.025666 1_555
O8 V11 2.073936 1_455
O8 V6 2.121800 1_555
O8 V8 2.140172 1_545
O9 V3 2.025666 1_555
O9 V6 2.073936 1_565
O9 V10 2.121800 1_555
O9 V9 2.140172 1_556
O10 V4 2.025666 1_555
O10 V12 2.073936 1_556
O10 V11 2.121800 1_555
O10 V10 2.140171 1_655
O11 V5 2.025666 1_555
O11 V8 2.073936 1_655
O11 V9 2.121800 1_555
O11 V11 2.140172 1_565
O12 V5 2.019608 1_555
O12 V1 2.040670 1_555
O12 V11 2.119469 1_565
O12 V7 2.143533 1_555
O13 V3 2.019608 1_555
O13 V2 2.040670 1_555
O13 V9 2.119469 1_556
O13 V7 2.143533 1_555
O14 V1 2.019608 1_555
O14 V3 2.040670 1_555
O14 V12 2.119469 1_455
O14 V7 2.143533 1_555
O15 V0 2.019608 1_555
O15 V5 2.040670 1_555
O15 V6 2.119469 1_554
O15 V7 2.143533 1_555
O16 V4 2.019608 1_555
O16 V0 2.040670 1_555
O16 V10 2.119469 1_655
O16 V7 2.143533 1_555
O17 V2 2.019608 1_555
O17 V4 2.040670 1_555
O17 V8 2.119469 1_545
O17 V7 2.143533 1_555
