# generated using pymatgen
data_NaLiYb2F8
_symmetry_space_group_name_H-M   'P 1'
_cell_length_a   6.56990142
_cell_length_b   6.56990142
_cell_length_c   7.30869000
_cell_angle_alpha   90.00000000
_cell_angle_beta   90.00000000
_cell_angle_gamma   99.11944385
_symmetry_Int_Tables_number   1
_chemical_formula_structural   NaLiYb2F8
_chemical_formula_sum   'Na2 Li2 Yb4 F16'
_cell_volume   311.48189658
_cell_formula_units_Z   2
loop_
 _symmetry_equiv_pos_site_id
 _symmetry_equiv_pos_as_xyz
  1  'x, y, z'
loop_
 _atom_site_type_symbol
 _atom_site_label
 _atom_site_symmetry_multiplicity
 _atom_site_fract_x
 _atom_site_fract_y
 _atom_site_fract_z
 _atom_site_occupancy
  Na  Na0  1  0.33101400  0.33101400  0.75000000  1
  Na  Na1  1  0.66898600  0.66898600  0.25000000  1
  Li  Li0  1  0.00000000  0.00000000  0.50000000  1
  Li  Li1  1  0.00000000  0.00000000  0.00000000  1
  Yb  Yb0  1  0.06616700  0.43955200  0.25000000  1
  Yb  Yb1  1  0.93383300  0.56044800  0.75000000  1
  Yb  Yb2  1  0.43955200  0.06616700  0.25000000  1
  Yb  Yb3  1  0.56044800  0.93383300  0.75000000  1
  F  F0  1  0.41594600  0.41594600  0.25000000  1
  F  F1  1  0.58405400  0.58405400  0.75000000  1
  F  F2  1  0.06505500  0.33883600  0.54661500  1
  F  F3  1  0.93494500  0.66116400  0.45338500  1
  F  F4  1  0.30644100  0.72464000  0.25000000  1
  F  F5  1  0.27536000  0.69355900  0.75000000  1
  F  F6  1  0.33883600  0.06505500  0.95338500  1
  F  F7  1  0.66116400  0.93494500  0.45338500  1
  F  F8  1  0.69355900  0.27536000  0.75000000  1
  F  F9  1  0.66116400  0.93494500  0.04661500  1
  F  F10  1  0.06505500  0.33883600  0.95338500  1
  F  F11  1  0.91228300  0.91228300  0.75000000  1
  F  F12  1  0.93494500  0.66116400  0.04661500  1
  F  F13  1  0.72464000  0.30644100  0.25000000  1
  F  F14  1  0.33883600  0.06505500  0.54661500  1
  F  F15  1  0.08771700  0.08771700  0.25000000  1
loop_
_geom_bond_atom_site_label_1
_geom_bond_atom_site_label_2
_geom_bond_distance
_geom_bond_site_symmetry_2
F0 Na1 2.156711 1_555
F0 Yb0 2.327637 1_555
F0 Yb2 2.327637 1_555
F1 Na0 2.156711 1_555
F1 Yb3 2.327637 1_555
F1 Yb1 2.327637 1_555
F2 Li0 2.225479 1_555
F2 Yb0 2.266276 1_555
F2 Na0 2.300840 1_555
F2 Yb1 2.338929 1_455
F3 Li0 2.225479 1_665
F3 Yb1 2.266276 1_555
F3 Na1 2.300840 1_555
F3 Yb0 2.338929 1_655
F4 Yb0 2.250068 1_555
F4 Yb2 2.275394 1_565
F4 Na1 2.466402 1_555
F5 Yb3 2.250068 1_555
F5 Yb1 2.275394 1_455
F5 Na0 2.466402 1_555
F6 Li1 2.225479 1_556
F6 Yb2 2.266276 1_556
F6 Na0 2.300840 1_555
F6 Yb3 2.338929 1_545
F7 Li0 2.225479 1_665
F7 Yb3 2.266276 1_555
F7 Na1 2.300840 1_555
F7 Yb2 2.338929 1_565
F8 Yb1 2.250068 1_555
F8 Yb3 2.275394 1_545
F8 Na0 2.466402 1_555
F9 Li1 2.225479 1_665
F9 Yb3 2.266276 1_554
F9 Na1 2.300840 1_555
F9 Yb2 2.338929 1_565
F10 Li1 2.225479 1_556
F10 Yb0 2.266276 1_556
F10 Na0 2.300840 1_555
F10 Yb1 2.338929 1_455
F11 Li0 1.974211 1_665
F11 Li1 1.974211 1_666
F11 Yb1 2.338144 1_555
F11 Yb3 2.338144 1_555
F12 Li1 2.225479 1_665
F12 Yb1 2.266276 1_554
F12 Na1 2.300840 1_555
F12 Yb0 2.338929 1_655
F13 Yb2 2.250068 1_555
F13 Yb0 2.275394 1_655
F13 Na1 2.466402 1_555
F14 Li0 2.225479 1_555
F14 Yb2 2.266276 1_555
F14 Na0 2.300840 1_555
F14 Yb3 2.338929 1_545
F15 Li1 1.974211 1_555
F15 Li0 1.974211 1_555
F15 Yb2 2.338144 1_555
F15 Yb0 2.338144 1_555
