# generated using pymatgen
data_Sr3EuRhO6
_symmetry_space_group_name_H-M   'P 1'
_cell_length_a   6.90428446
_cell_length_b   6.90428446
_cell_length_c   6.90428400
_cell_angle_alpha   91.48485851
_cell_angle_beta   91.48485851
_cell_angle_gamma   91.48486462
_symmetry_Int_Tables_number   1
_chemical_formula_structural   Sr3EuRhO6
_chemical_formula_sum   'Sr6 Eu2 Rh2 O12'
_cell_volume   328.78391364
_cell_formula_units_Z   2
loop_
 _symmetry_equiv_pos_site_id
 _symmetry_equiv_pos_as_xyz
  1  'x, y, z'
loop_
 _atom_site_type_symbol
 _atom_site_label
 _atom_site_symmetry_multiplicity
 _atom_site_fract_x
 _atom_site_fract_y
 _atom_site_fract_z
 _atom_site_occupancy
  Sr  Sr0  1  0.88124700  0.61875300  0.25000000  1
  Sr  Sr1  1  0.61875300  0.25000000  0.88124700  1
  Sr  Sr2  1  0.25000000  0.88124700  0.61875300  1
  Sr  Sr3  1  0.11875300  0.38124700  0.75000000  1
  Sr  Sr4  1  0.38124700  0.75000000  0.11875300  1
  Sr  Sr5  1  0.75000000  0.11875300  0.38124700  1
  Eu  Eu0  1  0.25000000  0.25000000  0.25000000  1
  Eu  Eu1  1  0.75000000  0.75000000  0.75000000  1
  Rh  Rh0  1  0.00000000  0.00000000  0.00000000  1
  Rh  Rh1  1  0.50000000  0.50000000  0.50000000  1
  O  O0  1  0.94936300  0.28900800  0.08237300  1
  O  O1  1  0.28900800  0.08237300  0.94936300  1
  O  O2  1  0.08237300  0.94936300  0.28900800  1
  O  O3  1  0.21099200  0.55063700  0.41762700  1
  O  O4  1  0.55063700  0.41762700  0.21099200  1
  O  O5  1  0.41762700  0.21099200  0.55063700  1
  O  O6  1  0.05063700  0.71099200  0.91762700  1
  O  O7  1  0.71099200  0.91762700  0.05063700  1
  O  O8  1  0.91762700  0.05063700  0.71099200  1
  O  O9  1  0.78900800  0.44936300  0.58237300  1
  O  O10  1  0.44936300  0.58237300  0.78900800  1
  O  O11  1  0.58237300  0.78900800  0.44936300  1
loop_
_geom_bond_atom_site_label_1
_geom_bond_atom_site_label_2
_geom_bond_distance
_geom_bond_site_symmetry_2
Eu0 O4 2.375093 1_555
Eu0 O2 2.375093 1_545
Eu0 O5 2.375093 1_555
Eu0 O1 2.375093 1_554
Eu0 O3 2.375093 1_555
Eu0 O0 2.375093 1_455
Eu1 O8 2.375093 1_565
Eu1 O10 2.375093 1_555
Eu1 O7 2.375093 1_556
Eu1 O11 2.375093 1_555
Eu1 O6 2.375093 1_655
Eu1 O9 2.375093 1_555
O0 Rh0 2.101171 1_655
O0 Sr0 2.586680 1_555
O0 Sr1 2.644937 1_554
O0 Sr3 2.686199 1_654
O0 Sr5 2.779127 1_555
O1 Rh0 2.101171 1_556
O1 Sr1 2.586680 1_555
O1 Sr2 2.644937 1_545
O1 Sr4 2.686199 1_546
O1 Sr3 2.779127 1_555
O2 Rh0 2.101171 1_565
O2 Sr2 2.586680 1_555
O2 Sr0 2.644937 1_455
O2 Sr5 2.686199 1_465
O2 Sr4 2.779127 1_555
O3 Rh1 2.101171 1_555
O3 Sr0 2.586680 1_455
O3 Sr2 2.644937 1_555
O3 Sr3 2.686199 1_555
O3 Sr4 2.779127 1_555
O4 Rh1 2.101171 1_555
O4 Sr1 2.586680 1_554
O4 Sr0 2.644937 1_555
O4 Sr4 2.686199 1_555
O4 Sr5 2.779127 1_555
O5 Rh1 2.101171 1_555
O5 Sr2 2.586680 1_545
O5 Sr1 2.644937 1_555
O5 Sr5 2.686199 1_555
O5 Sr3 2.779127 1_555
O6 Rh0 2.101171 1_566
O6 Sr3 2.586680 1_555
O6 Sr4 2.644937 1_556
O6 Sr0 2.686199 1_456
O6 Sr2 2.779127 1_555
O7 Rh0 2.101171 1_665
O7 Sr4 2.586680 1_555
O7 Sr5 2.644937 1_565
O7 Sr1 2.686199 1_564
O7 Sr0 2.779127 1_555
O8 Rh0 2.101171 1_656
O8 Sr5 2.586680 1_555
O8 Sr3 2.644937 1_655
O8 Sr2 2.686199 1_645
O8 Sr1 2.779127 1_555
O9 Rh1 2.101171 1_555
O9 Sr3 2.586680 1_655
O9 Sr5 2.644937 1_555
O9 Sr0 2.686199 1_555
O9 Sr1 2.779127 1_555
O10 Rh1 2.101171 1_555
O10 Sr4 2.586680 1_556
O10 Sr3 2.644937 1_555
O10 Sr1 2.686199 1_555
O10 Sr2 2.779127 1_555
O11 Rh1 2.101171 1_555
O11 Sr5 2.586680 1_565
O11 Sr4 2.644937 1_555
O11 Sr2 2.686199 1_555
O11 Sr0 2.779127 1_555
