# generated using pymatgen
data_Mg2BP3(H3O7)2
_symmetry_space_group_name_H-M   'P 1'
_cell_length_a   7.18277300
_cell_length_b   8.75958700
_cell_length_c   16.48038600
_cell_angle_alpha   90.00000000
_cell_angle_beta   90.00000000
_cell_angle_gamma   90.00000000
_symmetry_Int_Tables_number   1
_chemical_formula_structural   Mg2BP3(H3O7)2
_chemical_formula_sum   'Mg8 B4 P12 H24 O56'
_cell_volume   1036.91498631
_cell_formula_units_Z   4
loop_
 _symmetry_equiv_pos_site_id
 _symmetry_equiv_pos_as_xyz
  1  'x, y, z'
loop_
 _atom_site_type_symbol
 _atom_site_label
 _atom_site_symmetry_multiplicity
 _atom_site_fract_x
 _atom_site_fract_y
 _atom_site_fract_z
 _atom_site_occupancy
  Mg  Mg0  1  0.81856300  0.17346100  0.30561000  1
  Mg  Mg1  1  0.17957400  0.30325300  0.20807500  1
  Mg  Mg2  1  0.31856300  0.32653900  0.69439000  1
  Mg  Mg3  1  0.18143700  0.67346100  0.19439000  1
  Mg  Mg4  1  0.67957400  0.19674700  0.79192500  1
  Mg  Mg5  1  0.82042600  0.80325300  0.29192500  1
  Mg  Mg6  1  0.68143700  0.82653900  0.80561000  1
  Mg  Mg7  1  0.32042600  0.69674700  0.70807500  1
  B  B0  1  0.65419800  0.58352200  0.41756000  1
  B  B1  1  0.84580200  0.41647800  0.91756000  1
  B  B2  1  0.34580200  0.08352200  0.08244000  1
  B  B3  1  0.15419800  0.91647800  0.58244000  1
  P  P0  1  0.01289100  0.49603200  0.36164100  1
  P  P1  1  0.51289100  0.00396800  0.63835900  1
  P  P2  1  0.86499800  0.47223200  0.08332700  1
  P  P3  1  0.04885300  0.00102300  0.73478300  1
  P  P4  1  0.63500200  0.52776800  0.58332700  1
  P  P5  1  0.98710900  0.99603200  0.13835900  1
  P  P6  1  0.36499800  0.02776800  0.91667300  1
  P  P7  1  0.45114700  0.99897700  0.23478300  1
  P  P8  1  0.13500200  0.97223200  0.41667300  1
  P  P9  1  0.54885300  0.49897700  0.26521700  1
  P  P10  1  0.48710900  0.50396800  0.86164100  1
  P  P11  1  0.95114700  0.50102300  0.76521700  1
  H  H0  1  0.68952000  0.10543100  0.46161500  1
  H  H1  1  0.69227200  0.33817900  0.16629100  1
  H  H2  1  0.58746700  0.80633500  0.41804700  1
  H  H3  1  0.26660900  0.77826600  0.04333900  1
  H  H4  1  0.73339100  0.27826600  0.45666100  1
  H  H5  1  0.70334100  0.01291400  0.09163400  1
  H  H6  1  0.31048000  0.60543100  0.03838500  1
  H  H7  1  0.20334100  0.48708600  0.90836600  1
  H  H8  1  0.81048000  0.89456900  0.96161500  1
  H  H9  1  0.29665900  0.51291400  0.40836600  1
  H  H10  1  0.30772800  0.83817900  0.33370900  1
  H  H11  1  0.18952000  0.39456900  0.53838500  1
  H  H12  1  0.79665900  0.98708600  0.59163400  1
  H  H13  1  0.23339100  0.22173400  0.54333900  1
  H  H14  1  0.91253300  0.19366500  0.91804700  1
  H  H15  1  0.80772800  0.66182100  0.66629100  1
  H  H16  1  0.08746700  0.69366500  0.58195300  1
  H  H17  1  0.79122000  0.34330500  0.63236200  1
  H  H18  1  0.41253300  0.30633500  0.08195300  1
  H  H19  1  0.29122000  0.15669500  0.36763800  1
  H  H20  1  0.20878000  0.84330500  0.86763800  1
  H  H21  1  0.76660900  0.72173400  0.95666100  1
  H  H22  1  0.70878000  0.65669500  0.13236200  1
  H  H23  1  0.19227200  0.16182100  0.83370900  1
  O  O0  1  0.76429000  0.63261900  0.07750100  1
  O  O1  1  0.66066200  0.63545900  0.23332600  1
  O  O2  1  0.16771900  0.50169800  0.43065300  1
  O  O3  1  0.83228100  0.00169800  0.06934700  1
  O  O4  1  0.16066200  0.86454100  0.76667400  1
  O  O5  1  0.21503500  0.15186900  0.89670400  1
  O  O6  1  0.33228100  0.49830200  0.93065300  1
  O  O7  1  0.52792200  0.86387000  0.69347000  1
  O  O8  1  0.06266400  0.94070500  0.50323600  1
  O  O9  1  0.02689900  0.34452300  0.31529500  1
  O  O10  1  0.28496500  0.84813100  0.39670400  1
  O  O11  1  0.35306700  0.49058100  0.22633300  1
  O  O12  1  0.52689900  0.15547700  0.68470500  1
  O  O13  1  0.02278100  0.47661300  0.14479100  1
  O  O14  1  0.47310100  0.65547700  0.81529500  1
  O  O15  1  0.26429000  0.86738100  0.92249900  1
  O  O16  1  0.69372300  0.74362700  0.40196200  1
  O  O17  1  0.15364200  0.15355300  0.74698600  1
  O  O18  1  0.79170400  0.81115000  0.92278100  1
  O  O19  1  0.73571000  0.36738100  0.57750100  1
  O  O20  1  0.83933800  0.36454100  0.73332600  1
  O  O21  1  0.43733600  0.05929500  0.00323600  1
  O  O22  1  0.93733600  0.44070500  0.99676400  1
  O  O23  1  0.66976300  0.50435300  0.91300800  1
  O  O24  1  0.47207800  0.36387000  0.80653000  1
  O  O25  1  0.80627700  0.25637300  0.90196200  1
  O  O26  1  0.52278100  0.02338700  0.85520900  1
  O  O27  1  0.66771900  0.99830200  0.56934700  1
  O  O28  1  0.97310100  0.84452300  0.18470500  1
  O  O29  1  0.56266400  0.55929500  0.49676400  1
  O  O30  1  0.29170400  0.68885000  0.07721900  1
  O  O31  1  0.19372300  0.75637300  0.59803800  1
  O  O32  1  0.47721900  0.52338700  0.64479100  1
  O  O33  1  0.02792200  0.63613000  0.30653000  1
  O  O34  1  0.65364200  0.34644700  0.25301400  1
  O  O35  1  0.70829600  0.18885000  0.42278100  1
  O  O36  1  0.34635800  0.84644700  0.24698600  1
  O  O37  1  0.16976300  0.99564700  0.08699200  1
  O  O38  1  0.64693300  0.99058100  0.27366700  1
  O  O39  1  0.51304800  0.52048400  0.35997000  1
  O  O40  1  0.78496500  0.65186900  0.60329600  1
  O  O41  1  0.33933800  0.13545900  0.26667400  1
  O  O42  1  0.71503500  0.34813100  0.10329600  1
  O  O43  1  0.97207800  0.13613000  0.19347000  1
  O  O44  1  0.97721900  0.97661300  0.35520900  1
  O  O45  1  0.48695200  0.02048400  0.14003000  1
  O  O46  1  0.30627700  0.24362700  0.09803800  1
  O  O47  1  0.83023700  0.49564700  0.41300800  1
  O  O48  1  0.14693300  0.50941900  0.72633300  1
  O  O49  1  0.84635800  0.65355300  0.75301400  1
  O  O50  1  0.20829600  0.31115000  0.57721900  1
  O  O51  1  0.98695200  0.47951600  0.85997000  1
  O  O52  1  0.33023700  0.00435300  0.58699200  1
  O  O53  1  0.23571000  0.13261900  0.42249900  1
  O  O54  1  0.01304800  0.97951600  0.64003000  1
  O  O55  1  0.85306700  0.00941900  0.77366700  1
loop_
_geom_bond_atom_site_label_1
_geom_bond_atom_site_label_2
_geom_bond_distance
_geom_bond_site_symmetry_2
Mg0 O38 2.088811 1_545
Mg0 O35 2.091488 1_555
Mg0 O34 2.109666 1_555
Mg0 O9 2.123695 1_655
Mg0 O43 2.176766 1_555
Mg0 O44 2.222625 1_545
Mg1 O11 2.082321 1_555
Mg1 O46 2.095149 1_555
Mg1 O41 2.099962 1_555
Mg1 O43 2.102927 1_455
Mg1 O9 2.110846 1_555
Mg1 O13 2.159192 1_555
Mg2 O48 2.088811 1_555
Mg2 O50 2.091488 1_555
Mg2 O17 2.109666 1_555
Mg2 O12 2.123695 1_555
Mg2 O24 2.176766 1_555
Mg2 O32 2.222625 1_555
Mg3 O11 2.088811 1_555
Mg3 O30 2.091488 1_555
Mg3 O36 2.109666 1_555
Mg3 O28 2.123695 1_455
Mg3 O33 2.176766 1_555
Mg3 O13 2.222625 1_555
Mg4 O55 2.082321 1_555
Mg4 O25 2.095149 1_555
Mg4 O20 2.099962 1_555
Mg4 O24 2.102927 1_555
Mg4 O12 2.110846 1_555
Mg4 O26 2.159192 1_555
Mg5 O38 2.082321 1_555
Mg5 O16 2.095149 1_555
Mg5 O1 2.099962 1_555
Mg5 O33 2.102927 1_655
Mg5 O28 2.110846 1_555
Mg5 O44 2.159192 1_555
Mg6 O55 2.088811 1_565
Mg6 O18 2.091488 1_555
Mg6 O49 2.109666 1_555
Mg6 O14 2.123695 1_555
Mg6 O7 2.176766 1_555
Mg6 O26 2.222625 1_565
Mg7 O48 2.082321 1_555
Mg7 O31 2.095149 1_555
Mg7 O4 2.099962 1_555
Mg7 O7 2.102927 1_555
Mg7 O14 2.110846 1_555
Mg7 O32 2.159192 1_555
B0 O16 1.453807 1_555
B0 O29 1.476869 1_555
B0 O47 1.482218 1_555
B0 O39 1.494523 1_555
B1 O25 1.453807 1_555
B1 O22 1.476869 1_555
B1 O23 1.482218 1_555
B1 O51 1.494523 1_555
B2 O46 1.453807 1_555
B2 O21 1.476869 1_555
B2 O37 1.482218 1_545
B2 O45 1.494523 1_555
B3 O31 1.453807 1_555
B3 O8 1.476869 1_555
B3 O52 1.482218 1_565
B3 O54 1.494523 1_555
H0 O35 0.980680 1_555
H1 O42 1.054587 1_555
H1 O34 1.457714 1_555
H2 O16 0.976981 1_555
H3 O30 0.978636 1_555
H4 O35 0.978636 1_555
H5 O3 1.001154 1_555
H6 O30 0.980680 1_555
H7 O6 1.001154 1_555
H8 O18 0.980680 1_555
H9 O2 1.001154 1_555
H10 O10 1.054587 1_555
H10 O36 1.457714 1_555
H11 O50 0.980680 1_555
H12 O27 1.001154 1_555
H13 O50 0.978636 1_555
H14 O25 0.976981 1_555
H15 O40 1.054587 1_555
H15 O49 1.457714 1_555
H16 O31 0.976981 1_555
H17 O19 1.010398 1_555
H17 O20 1.709592 1_555
H18 O46 0.976981 1_555
H19 O53 1.010398 1_555
H19 O41 1.709592 1_555
H20 O15 1.010398 1_555
H20 O4 1.709592 1_555
H21 O18 0.978636 1_555
H22 O0 1.010398 1_555
H22 O1 1.709592 1_555
H23 O5 1.054587 1_555
H23 O17 1.457714 1_555
O0 P2 1.583125 1_555
O1 P9 1.533127 1_555
O2 P0 1.591468 1_555
O3 P5 1.591468 1_545
O4 P3 1.533127 1_565
O5 P6 1.565339 1_555
O6 P10 1.591468 1_555
O7 P1 1.530554 1_565
O8 P8 1.543179 1_555
O9 P0 1.534555 1_555
O10 P8 1.565339 1_555
O11 P9 1.547160 1_555
O12 P1 1.534555 1_555
O13 P2 1.520511 1_455
O14 P10 1.534555 1_555
O15 P6 1.583125 1_565
O17 P3 1.546651 1_555
O19 P4 1.583125 1_555
O20 P11 1.533127 1_555
O21 P6 1.543179 1_554
O22 P2 1.543179 1_556
O23 P10 1.561378 1_555
O24 P10 1.530554 1_555
O26 P6 1.520511 1_555
O27 P1 1.591468 1_565
O28 P5 1.534555 1_555
O29 P4 1.543179 1_555
O32 P4 1.520511 1_555
O33 P0 1.530554 1_555
O34 P9 1.546651 1_555
O36 P7 1.546651 1_555
O37 P5 1.561378 1_455
O38 P7 1.547160 1_555
O39 P9 1.593776 1_555
O40 P4 1.565339 1_555
O41 P7 1.533127 1_545
O42 P2 1.565339 1_555
O43 P5 1.530554 1_545
O44 P8 1.520511 1_655
O45 P7 1.593776 1_545
O47 P0 1.561378 1_655
O48 P11 1.547160 1_455
O49 P11 1.546651 1_555
O51 P11 1.593776 1_555
O52 P1 1.561378 1_555
O53 P8 1.583125 1_545
O54 P3 1.593776 1_565
O55 P3 1.547160 1_655
