# generated using pymatgen
data_Ba2ScCl7
_symmetry_space_group_name_H-M   'P 1'
_cell_length_a   13.60670100
_cell_length_b   7.02762000
_cell_length_c   12.36932991
_cell_angle_alpha   83.72966102
_cell_angle_beta   90.00000000
_cell_angle_gamma   90.00000000
_symmetry_Int_Tables_number   1
_chemical_formula_structural   Ba2ScCl7
_chemical_formula_sum   'Ba8 Sc4 Cl28'
_cell_volume   1175.71313933
_cell_formula_units_Z   4
loop_
 _symmetry_equiv_pos_site_id
 _symmetry_equiv_pos_as_xyz
  1  'x, y, z'
loop_
 _atom_site_type_symbol
 _atom_site_label
 _atom_site_symmetry_multiplicity
 _atom_site_fract_x
 _atom_site_fract_y
 _atom_site_fract_z
 _atom_site_occupancy
  Ba  Ba0  1  0.54657600  0.23782000  0.25597300  1
  Ba  Ba1  1  0.63679900  0.73803700  0.62190900  1
  Ba  Ba2  1  0.86812400  0.70607400  0.23343800  1
  Ba  Ba3  1  0.36812400  0.29392600  0.76656200  1
  Ba  Ba4  1  0.78455400  0.25062600  0.87722700  1
  Ba  Ba5  1  0.28455400  0.74937400  0.12277300  1
  Ba  Ba6  1  0.04657600  0.76218000  0.74402700  1
  Ba  Ba7  1  0.13679900  0.26196300  0.37809100  1
  Sc  Sc0  1  0.34439800  0.81181100  0.54671400  1
  Sc  Sc1  1  0.84439800  0.18818900  0.45328600  1
  Sc  Sc2  1  0.07708100  0.20576700  0.95580500  1
  Sc  Sc3  1  0.57708100  0.79423300  0.04419500  1
  Cl  Cl0  1  0.77597200  0.11802300  0.63710300  1
  Cl  Cl1  1  0.20275300  0.97298500  0.89283400  1
  Cl  Cl2  1  0.94888600  0.46623000  0.47725300  1
  Cl  Cl3  1  0.01695500  0.23637400  0.76320100  1
  Cl  Cl4  1  0.83538400  0.62311100  0.73248400  1
  Cl  Cl5  1  0.48547000  0.03919100  0.49912000  1
  Cl  Cl6  1  0.58666600  0.37080000  0.77007600  1
  Cl  Cl7  1  0.95854500  0.45226200  0.99361400  1
  Cl  Cl8  1  0.64496100  0.87464900  0.86193500  1
  Cl  Cl9  1  0.23364300  0.07369600  0.60396300  1
  Cl  Cl10  1  0.20881300  0.57246200  0.60242200  1
  Cl  Cl11  1  0.45854500  0.54773800  0.00638600  1
  Cl  Cl12  1  0.70114000  0.52767500  0.09115600  1
  Cl  Cl13  1  0.20114000  0.47232500  0.90884400  1
  Cl  Cl14  1  0.44888600  0.53377000  0.52274700  1
  Cl  Cl15  1  0.73364300  0.92630400  0.39603700  1
  Cl  Cl16  1  0.33538400  0.37688900  0.26751600  1
  Cl  Cl17  1  0.98547000  0.96080900  0.50088000  1
  Cl  Cl18  1  0.70275300  0.02701500  0.10716600  1
  Cl  Cl19  1  0.27597200  0.88197700  0.36289700  1
  Cl  Cl20  1  0.40851600  0.79004100  0.73694100  1
  Cl  Cl21  1  0.14496100  0.12535100  0.13806500  1
  Cl  Cl22  1  0.70881300  0.42753800  0.39757800  1
  Cl  Cl23  1  0.94811600  0.94579000  0.98354800  1
  Cl  Cl24  1  0.44811600  0.05421000  0.01645200  1
  Cl  Cl25  1  0.90851600  0.20995900  0.26305900  1
  Cl  Cl26  1  0.08666600  0.62920000  0.22992400  1
  Cl  Cl27  1  0.51695500  0.76362600  0.23679900  1
loop_
_geom_bond_atom_site_label_1
_geom_bond_atom_site_label_2
_geom_bond_distance
_geom_bond_site_symmetry_2
Ba0 Cl16 3.043642 1_555
Ba0 Cl22 3.198246 1_555
Ba0 Cl18 3.270196 1_555
Ba0 Cl5 3.281495 1_555
Ba0 Cl27 3.390663 1_545
Ba0 Cl12 3.438235 1_555
Ba0 Cl24 3.615601 1_555
Ba0 Cl15 3.666688 1_545
Ba0 Cl27 3.698851 1_555
Ba0 Cl11 3.773666 1_555
Ba1 Cl6 3.074337 1_555
Ba1 Cl4 3.095640 1_555
Ba1 Cl5 3.213040 1_565
Ba1 Cl8 3.220467 1_555
Ba1 Cl15 3.238094 1_555
Ba1 Cl14 3.238424 1_555
Ba1 Cl0 3.295757 1_565
Ba1 Cl20 3.452543 1_555
Ba1 Cl22 3.839771 1_555
Ba2 Cl26 3.023473 1_655
Ba2 Cl12 3.211480 1_555
Ba2 Cl15 3.235540 1_555
Ba2 Cl22 3.432857 1_555
Ba2 Cl18 3.438062 1_565
Ba2 Cl2 3.468925 1_555
Ba2 Cl25 3.508989 1_555
Ba2 Cl23 3.526942 1_554
Ba2 Cl25 3.641317 1_565
Ba2 Cl7 3.827662 1_554
Ba3 Cl6 3.023473 1_555
Ba3 Cl13 3.211480 1_555
Ba3 Cl9 3.235540 1_555
Ba3 Cl10 3.432857 1_555
Ba3 Cl1 3.438062 1_545
Ba3 Cl14 3.468925 1_555
Ba3 Cl20 3.508989 1_555
Ba3 Cl24 3.526942 1_556
Ba3 Cl20 3.641317 1_545
Ba3 Cl11 3.827662 1_556
Ba4 Cl6 3.078229 1_555
Ba4 Cl4 3.084203 1_555
Ba4 Cl7 3.182905 1_555
Ba4 Cl0 3.210698 1_555
Ba4 Cl23 3.264425 1_545
Ba4 Cl8 3.276281 1_545
Ba4 Cl18 3.289595 1_556
Ba4 Cl3 3.468395 1_655
Ba4 Cl12 3.634083 1_556
Ba5 Cl26 3.078229 1_555
Ba5 Cl16 3.084203 1_555
Ba5 Cl11 3.182905 1_555
Ba5 Cl19 3.210698 1_555
Ba5 Cl24 3.264425 1_565
Ba5 Cl21 3.276281 1_565
Ba5 Cl1 3.289595 1_554
Ba5 Cl27 3.468395 1_555
Ba5 Cl13 3.634083 1_554
Ba6 Cl4 3.043642 1_455
Ba6 Cl10 3.198246 1_555
Ba6 Cl1 3.270196 1_555
Ba6 Cl17 3.281495 1_455
Ba6 Cl3 3.390663 1_565
Ba6 Cl13 3.438235 1_555
Ba6 Cl23 3.615601 1_455
Ba6 Cl9 3.666688 1_565
Ba6 Cl3 3.698851 1_555
Ba6 Cl7 3.773666 1_455
Ba7 Cl26 3.074337 1_555
Ba7 Cl16 3.095640 1_555
Ba7 Cl17 3.213040 1_445
Ba7 Cl21 3.220467 1_555
Ba7 Cl9 3.238094 1_555
Ba7 Cl2 3.238424 1_455
Ba7 Cl19 3.295757 1_545
Ba7 Cl25 3.452543 1_455
Ba7 Cl10 3.839771 1_555
Cl0 Sc1 2.456579 1_555
Cl1 Sc2 2.546616 1_565
Cl2 Sc1 2.460435 1_555
Cl3 Sc2 2.505871 1_555
Cl5 Sc0 2.525683 1_545
Cl7 Sc2 2.449050 1_655
Cl8 Sc3 2.444713 1_556
Cl9 Sc0 2.538581 1_545
Cl10 Sc0 2.540564 1_555
Cl11 Sc3 2.449050 1_555
Cl12 Sc3 2.541322 1_555
Cl13 Sc2 2.541322 1_555
Cl14 Sc0 2.460435 1_555
Cl15 Sc1 2.538581 1_565
Cl17 Sc1 2.525683 1_565
Cl18 Sc3 2.546616 1_545
Cl19 Sc0 2.456579 1_555
Cl20 Sc0 2.498486 1_555
Cl21 Sc2 2.444713 1_554
Cl22 Sc1 2.540564 1_555
Cl23 Sc2 2.529444 1_665
Cl24 Sc3 2.529444 1_545
Cl25 Sc1 2.498486 1_555
Cl27 Sc3 2.505871 1_555
