# generated using pymatgen
data_Gd
_symmetry_space_group_name_H-M   'P 1'
_cell_length_a   18.29674350
_cell_length_b   18.29674258
_cell_length_c   18.29674112
_cell_angle_alpha   23.01232812
_cell_angle_beta   23.01233231
_cell_angle_gamma   23.01232495
_symmetry_Int_Tables_number   1
_chemical_formula_structural   Gd
_chemical_formula_sum   Gd24
_cell_volume   821.57009786
_cell_formula_units_Z   24
loop_
 _symmetry_equiv_pos_site_id
 _symmetry_equiv_pos_as_xyz
  1  'x, y, z'
loop_
 _atom_site_type_symbol
 _atom_site_label
 _atom_site_symmetry_multiplicity
 _atom_site_fract_x
 _atom_site_fract_y
 _atom_site_fract_z
 _atom_site_occupancy
  Gd  Gd0_0  1  0.00000000  0.00000000  0.00000000  1
  Gd  Gd0_1  1  0.00000000  0.00000000  0.50000000  1
  Gd  Gd0_2  1  0.00000000  0.50000000  0.00000000  1
  Gd  Gd0_3  1  0.00000000  0.50000000  0.50000000  1
  Gd  Gd0_4  1  0.50000000  0.00000000  0.00000000  1
  Gd  Gd0_5  1  0.50000000  0.00000000  0.50000000  1
  Gd  Gd0_6  1  0.50000000  0.50000000  0.00000000  1
  Gd  Gd0_7  1  0.50000000  0.50000000  0.50000000  1
  Gd  Gd1_0  1  0.11145555  0.11145555  0.11145555  1
  Gd  Gd1_1  1  0.11145555  0.11145555  0.61145555  1
  Gd  Gd1_2  1  0.11145555  0.61145555  0.11145555  1
  Gd  Gd1_3  1  0.11145555  0.61145555  0.61145555  1
  Gd  Gd1_4  1  0.61145555  0.11145555  0.11145555  1
  Gd  Gd1_5  1  0.61145555  0.11145555  0.61145555  1
  Gd  Gd1_6  1  0.61145555  0.61145555  0.11145555  1
  Gd  Gd1_7  1  0.61145555  0.61145555  0.61145555  1
  Gd  Gd2_0  1  0.38854445  0.38854445  0.38854445  1
  Gd  Gd2_1  1  0.38854445  0.38854445  0.88854445  1
  Gd  Gd2_2  1  0.38854445  0.88854445  0.38854445  1
  Gd  Gd2_3  1  0.38854445  0.88854445  0.88854445  1
  Gd  Gd2_4  1  0.88854445  0.38854445  0.38854445  1
  Gd  Gd2_5  1  0.88854445  0.38854445  0.88854445  1
  Gd  Gd2_6  1  0.88854445  0.88854445  0.38854445  1
  Gd  Gd2_7  1  0.88854445  0.88854445  0.88854445  1
loop_
_geom_bond_atom_site_label_1
_geom_bond_atom_site_label_2
_geom_bond_distance
_geom_bond_site_symmetry_2
Gd0_0 Gd1_1 3.624516 1_554
Gd0_0 Gd2_6 3.624516 1_445
Gd0_0 Gd2_5 3.624517 1_454
Gd0_0 Gd1_2 3.624517 1_545
Gd0_0 Gd1_4 3.624517 1_455
Gd0_0 Gd2_3 3.624517 1_544
Gd0_0 Gd0_6 3.649712 1_545
Gd0_0 Gd0_6 3.649712 1_455
Gd0_0 Gd0_3 3.649713 1_545
Gd0_0 Gd0_3 3.649713 1_554
Gd0_0 Gd0_5 3.649713 1_554
Gd0_0 Gd0_5 3.649713 1_455
Gd0_1 Gd2_7 3.624516 1_445
Gd0_1 Gd1_0 3.624516 1_555
Gd0_1 Gd2_4 3.624517 1_455
Gd0_1 Gd1_3 3.624517 1_545
Gd0_1 Gd2_2 3.624517 1_545
Gd0_1 Gd1_5 3.624517 1_455
Gd0_1 Gd0_7 3.649712 1_545
Gd0_1 Gd0_7 3.649712 1_455
Gd0_1 Gd0_2 3.649713 1_555
Gd0_1 Gd0_2 3.649713 1_546
Gd0_1 Gd0_4 3.649713 1_555
Gd0_1 Gd0_4 3.649713 1_456
Gd0_2 Gd2_4 3.624516 1_455
Gd0_2 Gd1_3 3.624516 1_554
Gd0_2 Gd2_7 3.624517 1_454
Gd0_2 Gd1_0 3.624517 1_555
Gd0_2 Gd1_6 3.624517 1_455
Gd0_2 Gd2_1 3.624517 1_554
Gd0_2 Gd0_4 3.649712 1_465
Gd0_2 Gd0_4 3.649712 1_555
Gd0_2 Gd0_7 3.649713 1_554
Gd0_2 Gd0_7 3.649713 1_455
Gd0_3 Gd1_2 3.624516 1_555
Gd0_3 Gd2_5 3.624516 1_455
Gd0_3 Gd1_1 3.624517 1_555
Gd0_3 Gd2_6 3.624517 1_455
Gd0_3 Gd1_7 3.624517 1_455
Gd0_3 Gd2_0 3.624517 1_555
Gd0_3 Gd0_5 3.649712 1_555
Gd0_3 Gd0_5 3.649712 1_465
Gd0_3 Gd0_6 3.649713 1_555
Gd0_3 Gd0_6 3.649713 1_456
Gd0_4 Gd2_2 3.624516 1_545
Gd0_4 Gd1_5 3.624516 1_554
Gd0_4 Gd1_6 3.624517 1_545
Gd0_4 Gd2_1 3.624517 1_554
Gd0_4 Gd2_7 3.624517 1_544
Gd0_4 Gd1_0 3.624517 1_555
Gd0_4 Gd0_7 3.649713 1_545
Gd0_4 Gd0_7 3.649713 1_554
Gd0_5 Gd2_3 3.624516 1_545
Gd0_5 Gd1_4 3.624516 1_555
Gd0_5 Gd1_7 3.624517 1_545
Gd0_5 Gd2_0 3.624517 1_555
Gd0_5 Gd1_1 3.624517 1_555
Gd0_5 Gd2_6 3.624517 1_545
Gd0_5 Gd0_6 3.649713 1_546
Gd0_5 Gd0_6 3.649713 1_555
Gd0_6 Gd2_0 3.624516 1_555
Gd0_6 Gd1_7 3.624516 1_554
Gd0_6 Gd2_3 3.624517 1_554
Gd0_6 Gd1_4 3.624517 1_555
Gd0_6 Gd2_5 3.624517 1_554
Gd0_6 Gd1_2 3.624517 1_555
Gd0_7 Gd1_6 3.624516 1_555
Gd0_7 Gd2_1 3.624516 1_555
Gd0_7 Gd2_2 3.624517 1_555
Gd0_7 Gd1_5 3.624517 1_555
Gd0_7 Gd2_4 3.624517 1_555
Gd0_7 Gd1_3 3.624517 1_555
Gd1_0 Gd1_6 3.649712 1_455
Gd1_0 Gd1_6 3.649712 1_545
Gd1_0 Gd1_3 3.649713 1_545
Gd1_0 Gd1_3 3.649713 1_554
Gd1_0 Gd1_5 3.649713 1_554
Gd1_0 Gd1_5 3.649713 1_455
Gd1_0 Gd2_3 3.669565 1_544
Gd1_0 Gd2_5 3.669565 1_454
Gd1_0 Gd2_6 3.669566 1_445
Gd1_1 Gd1_7 3.649712 1_545
Gd1_1 Gd1_7 3.649712 1_455
Gd1_1 Gd1_2 3.649713 1_546
Gd1_1 Gd1_2 3.649713 1_555
Gd1_1 Gd1_4 3.649713 1_555
Gd1_1 Gd1_4 3.649713 1_456
Gd1_1 Gd2_2 3.669565 1_545
Gd1_1 Gd2_4 3.669565 1_455
Gd1_1 Gd2_7 3.669566 1_445
Gd1_2 Gd1_4 3.649712 1_555
Gd1_2 Gd1_4 3.649712 1_465
Gd1_2 Gd1_7 3.649713 1_554
Gd1_2 Gd1_7 3.649713 1_455
Gd1_2 Gd2_1 3.669565 1_554
Gd1_2 Gd2_7 3.669565 1_454
Gd1_2 Gd2_4 3.669566 1_455
Gd1_3 Gd1_5 3.649712 1_555
Gd1_3 Gd1_5 3.649712 1_465
Gd1_3 Gd1_6 3.649713 1_555
Gd1_3 Gd1_6 3.649713 1_456
Gd1_3 Gd2_0 3.669565 1_555
Gd1_3 Gd2_6 3.669565 1_455
Gd1_3 Gd2_5 3.669566 1_455
Gd1_4 Gd1_7 3.649713 1_554
Gd1_4 Gd1_7 3.649713 1_545
Gd1_4 Gd2_7 3.669565 1_544
Gd1_4 Gd2_1 3.669565 1_554
Gd1_4 Gd2_2 3.669566 1_545
Gd1_5 Gd1_6 3.649713 1_555
Gd1_5 Gd1_6 3.649713 1_546
Gd1_5 Gd2_6 3.669565 1_545
Gd1_5 Gd2_0 3.669565 1_555
Gd1_5 Gd2_3 3.669566 1_545
Gd1_6 Gd2_5 3.669565 1_554
Gd1_6 Gd2_3 3.669565 1_554
Gd1_6 Gd2_0 3.669566 1_555
Gd1_7 Gd2_4 3.669565 1_555
Gd1_7 Gd2_2 3.669565 1_555
Gd1_7 Gd2_1 3.669566 1_555
Gd2_0 Gd2_6 3.649712 1_455
Gd2_0 Gd2_6 3.649712 1_545
Gd2_0 Gd2_3 3.649713 1_554
Gd2_0 Gd2_3 3.649713 1_545
Gd2_0 Gd2_5 3.649713 1_554
Gd2_0 Gd2_5 3.649713 1_455
Gd2_1 Gd2_7 3.649712 1_545
Gd2_1 Gd2_7 3.649712 1_455
Gd2_1 Gd2_2 3.649713 1_546
Gd2_1 Gd2_2 3.649713 1_555
Gd2_1 Gd2_4 3.649713 1_555
Gd2_1 Gd2_4 3.649713 1_456
Gd2_2 Gd2_4 3.649712 1_465
Gd2_2 Gd2_4 3.649712 1_555
Gd2_2 Gd2_7 3.649713 1_554
Gd2_2 Gd2_7 3.649713 1_455
Gd2_3 Gd2_5 3.649712 1_555
Gd2_3 Gd2_5 3.649712 1_465
Gd2_3 Gd2_6 3.649713 1_555
Gd2_3 Gd2_6 3.649713 1_456
Gd2_4 Gd2_7 3.649713 1_545
Gd2_4 Gd2_7 3.649713 1_554
Gd2_5 Gd2_6 3.649713 1_555
Gd2_5 Gd2_6 3.649713 1_546
