# generated using pymatgen
data_CaFe3Si2HO9
_symmetry_space_group_name_H-M   'P 1'
_cell_length_a   5.91470400
_cell_length_b   8.90872800
_cell_length_c   13.17787300
_cell_angle_alpha   90.00000000
_cell_angle_beta   90.00000000
_cell_angle_gamma   90.00000000
_symmetry_Int_Tables_number   1
_chemical_formula_structural   CaFe3Si2HO9
_chemical_formula_sum   'Ca4 Fe12 Si8 H4 O36'
_cell_volume   694.37492989
_cell_formula_units_Z   4
loop_
 _symmetry_equiv_pos_site_id
 _symmetry_equiv_pos_as_xyz
  1  'x, y, z'
loop_
 _atom_site_type_symbol
 _atom_site_label
 _atom_site_symmetry_multiplicity
 _atom_site_fract_x
 _atom_site_fract_y
 _atom_site_fract_z
 _atom_site_occupancy
  Ca  Ca0  1  0.75000000  0.13072100  0.68708700  1
  Ca  Ca1  1  0.75000000  0.36927900  0.18708700  1
  Ca  Ca2  1  0.25000000  0.86927900  0.31291300  1
  Ca  Ca3  1  0.25000000  0.63072100  0.81291300  1
  Fe  Fe0  1  0.01089800  0.44927900  0.60998600  1
  Fe  Fe1  1  0.48910200  0.05072100  0.10998600  1
  Fe  Fe2  1  0.51089800  0.55072100  0.39001400  1
  Fe  Fe3  1  0.98910200  0.94927900  0.89001400  1
  Fe  Fe4  1  0.98910200  0.55072100  0.39001400  1
  Fe  Fe5  1  0.51089800  0.94927900  0.89001400  1
  Fe  Fe6  1  0.48910200  0.44927900  0.60998600  1
  Fe  Fe7  1  0.01089800  0.05072100  0.10998600  1
  Fe  Fe8  1  0.25000000  0.75945200  0.55861700  1
  Fe  Fe9  1  0.25000000  0.74054800  0.05861700  1
  Fe  Fe10  1  0.75000000  0.24054800  0.44138300  1
  Fe  Fe11  1  0.75000000  0.25945200  0.94138300  1
  Si  Si0  1  0.25000000  0.13086700  0.54063700  1
  Si  Si1  1  0.25000000  0.36913300  0.04063700  1
  Si  Si2  1  0.75000000  0.86913300  0.45936300  1
  Si  Si3  1  0.75000000  0.63086700  0.95936300  1
  Si  Si4  1  0.25000000  0.27251100  0.82092000  1
  Si  Si5  1  0.25000000  0.22748900  0.32092000  1
  Si  Si6  1  0.75000000  0.72748900  0.17908000  1
  Si  Si7  1  0.75000000  0.77251100  0.67908000  1
  H  H0  1  0.75000000  0.43471900  0.77184300  1
  H  H1  1  0.75000000  0.06528100  0.27184300  1
  H  H2  1  0.25000000  0.56528100  0.22815700  1
  H  H3  1  0.25000000  0.93471900  0.72815700  1
  O  O0  1  0.75000000  0.46870500  0.49089400  1
  O  O1  1  0.75000000  0.03129500  0.99089400  1
  O  O2  1  0.25000000  0.53129500  0.50910600  1
  O  O3  1  0.25000000  0.96870500  0.00910600  1
  O  O4  1  0.01704300  0.22740900  0.56446900  1
  O  O5  1  0.48295700  0.27259100  0.06446900  1
  O  O6  1  0.51704300  0.77259100  0.43553100  1
  O  O7  1  0.98295700  0.72740900  0.93553100  1
  O  O8  1  0.98295700  0.77259100  0.43553100  1
  O  O9  1  0.51704300  0.72740900  0.93553100  1
  O  O10  1  0.48295700  0.22740900  0.56446900  1
  O  O11  1  0.01704300  0.27259100  0.06446900  1
  O  O12  1  0.25000000  0.39119300  0.72345000  1
  O  O13  1  0.25000000  0.10880700  0.22345000  1
  O  O14  1  0.75000000  0.60880700  0.27655000  1
  O  O15  1  0.75000000  0.89119300  0.77655000  1
  O  O16  1  0.01812500  0.17006100  0.82916100  1
  O  O17  1  0.48187500  0.32993900  0.32916100  1
  O  O18  1  0.51812500  0.82993900  0.17083900  1
  O  O19  1  0.98187500  0.67006100  0.67083900  1
  O  O20  1  0.98187500  0.82993900  0.17083900  1
  O  O21  1  0.51812500  0.67006100  0.67083900  1
  O  O22  1  0.48187500  0.17006100  0.82916100  1
  O  O23  1  0.01812500  0.32993900  0.32916100  1
  O  O24  1  0.25000000  0.39901100  0.91513500  1
  O  O25  1  0.25000000  0.10098900  0.41513500  1
  O  O26  1  0.75000000  0.60098900  0.08486500  1
  O  O27  1  0.75000000  0.89901100  0.58486500  1
  O  O28  1  0.75000000  0.47386900  0.89856900  1
  O  O29  1  0.75000000  0.02613100  0.39856900  1
  O  O30  1  0.25000000  0.52613100  0.10143100  1
  O  O31  1  0.25000000  0.97386900  0.60143100  1
  O  O32  1  0.75000000  0.39048800  0.70187800  1
  O  O33  1  0.75000000  0.10951200  0.20187800  1
  O  O34  1  0.25000000  0.60951200  0.29812200  1
  O  O35  1  0.25000000  0.89048800  0.79812200  1
loop_
_geom_bond_atom_site_label_1
_geom_bond_atom_site_label_2
_geom_bond_distance
_geom_bond_site_symmetry_2
Ca0 O32 2.322387 1_555
Ca0 O4 2.418194 1_655
Ca0 O10 2.418194 1_555
Ca0 O15 2.437902 1_545
Ca0 O27 2.464891 1_545
Ca0 O16 2.478528 1_655
Ca0 O22 2.478528 1_555
Ca1 O33 2.322387 1_555
Ca1 O11 2.418194 1_655
Ca1 O5 2.418194 1_555
Ca1 O14 2.437902 1_555
Ca1 O26 2.464891 1_555
Ca1 O23 2.478528 1_655
Ca1 O17 2.478528 1_555
Ca2 O34 2.322387 1_555
Ca2 O6 2.418194 1_555
Ca2 O8 2.418194 1_455
Ca2 O13 2.437902 1_565
Ca2 O25 2.464891 1_565
Ca2 O18 2.478528 1_555
Ca2 O20 2.478528 1_455
Ca3 O35 2.322387 1_555
Ca3 O9 2.418194 1_555
Ca3 O7 2.418194 1_455
Ca3 O12 2.437902 1_555
Ca3 O24 2.464891 1_555
Ca3 O21 2.478528 1_555
Ca3 O19 2.478528 1_455
Fe0 O32 2.030261 1_455
Fe0 O4 2.065906 1_555
Fe0 O2 2.073918 1_555
Fe0 O12 2.122134 1_555
Fe0 O19 2.131004 1_455
Fe0 O0 2.207751 1_455
Fe1 O33 2.030261 1_555
Fe1 O5 2.065906 1_555
Fe1 O3 2.073918 1_545
Fe1 O13 2.122134 1_555
Fe1 O18 2.131004 1_545
Fe1 O1 2.207751 1_554
Fe2 O34 2.030261 1_555
Fe2 O6 2.065906 1_555
Fe2 O0 2.073918 1_555
Fe2 O14 2.122134 1_555
Fe2 O17 2.131004 1_555
Fe2 O2 2.207751 1_555
Fe3 O35 2.030261 1_655
Fe3 O7 2.065906 1_555
Fe3 O1 2.073918 1_565
Fe3 O15 2.122134 1_555
Fe3 O16 2.131004 1_665
Fe3 O3 2.207751 1_656
Fe4 O34 2.030261 1_655
Fe4 O8 2.065906 1_555
Fe4 O0 2.073918 1_555
Fe4 O14 2.122134 1_555
Fe4 O23 2.131004 1_655
Fe4 O2 2.207751 1_655
Fe5 O35 2.030261 1_555
Fe5 O9 2.065906 1_555
Fe5 O1 2.073918 1_565
Fe5 O15 2.122134 1_555
Fe5 O22 2.131004 1_565
Fe5 O3 2.207751 1_556
Fe6 O32 2.030261 1_555
Fe6 O10 2.065906 1_555
Fe6 O2 2.073918 1_555
Fe6 O12 2.122134 1_555
Fe6 O21 2.131004 1_555
Fe6 O0 2.207751 1_555
Fe7 O33 2.030261 1_455
Fe7 O11 2.065906 1_555
Fe7 O3 2.073918 1_545
Fe7 O13 2.122134 1_555
Fe7 O20 2.131004 1_445
Fe7 O1 2.207751 1_454
Fe8 O31 1.991762 1_555
Fe8 O2 2.134738 1_555
Fe8 O8 2.267020 1_455
Fe8 O6 2.267020 1_555
Fe8 O21 2.310020 1_555
Fe8 O19 2.310020 1_455
Fe9 O30 1.991762 1_555
Fe9 O3 2.134738 1_555
Fe9 O7 2.267020 1_454
Fe9 O9 2.267020 1_554
Fe9 O18 2.310020 1_555
Fe9 O20 2.310020 1_455
Fe10 O29 1.991762 1_555
Fe10 O0 2.134738 1_555
Fe10 O4 2.267020 1_655
Fe10 O10 2.267020 1_555
Fe10 O23 2.310020 1_655
Fe10 O17 2.310020 1_555
Fe11 O28 1.991762 1_555
Fe11 O1 2.134738 1_555
Fe11 O11 2.267020 1_656
Fe11 O5 2.267020 1_556
Fe11 O16 2.310020 1_655
Fe11 O22 2.310020 1_555
H0 O32 1.002664 1_555
H0 O28 1.706012 1_555
H1 O33 1.002664 1_555
H1 O29 1.706012 1_555
H2 O34 1.002664 1_555
H2 O30 1.706012 1_555
H3 O35 1.002664 1_555
H3 O31 1.706012 1_555
O4 Si0 1.654350 1_555
O5 Si1 1.654350 1_555
O6 Si2 1.654350 1_555
O7 Si3 1.654350 1_555
O8 Si2 1.654350 1_555
O9 Si3 1.654350 1_555
O10 Si0 1.654350 1_555
O11 Si1 1.654350 1_555
O12 Si4 1.663641 1_555
O13 Si5 1.663641 1_555
O14 Si6 1.663641 1_555
O15 Si7 1.663641 1_555
O16 Si4 1.650984 1_555
O17 Si5 1.650984 1_555
O18 Si6 1.650984 1_555
O19 Si7 1.650984 1_555
O20 Si6 1.650984 1_555
O21 Si7 1.650984 1_555
O22 Si4 1.650984 1_555
O23 Si5 1.650984 1_555
O24 Si1 1.675132 1_556
O24 Si4 1.676747 1_555
O25 Si0 1.675132 1_555
O25 Si5 1.676747 1_555
O26 Si3 1.675132 1_554
O26 Si6 1.676747 1_555
O27 Si2 1.675132 1_555
O27 Si7 1.676747 1_555
O28 Si3 1.611846 1_555
O29 Si2 1.611846 1_545
O30 Si1 1.611846 1_555
O31 Si0 1.611846 1_565
