# generated using pymatgen
data_TiSO5
_symmetry_space_group_name_H-M   'P 1'
_cell_length_a   5.25352877
_cell_length_b   6.57923622
_cell_length_c   11.10112497
_cell_angle_alpha   90.00000000
_cell_angle_beta   90.00000000
_cell_angle_gamma   90.00000000
_symmetry_Int_Tables_number   1
_chemical_formula_structural   TiSO5
_chemical_formula_sum   'Ti4 S4 O20'
_cell_volume   383.70157880
_cell_formula_units_Z   4
loop_
 _symmetry_equiv_pos_site_id
 _symmetry_equiv_pos_as_xyz
  1  'x, y, z'
loop_
 _atom_site_type_symbol
 _atom_site_label
 _atom_site_symmetry_multiplicity
 _atom_site_fract_x
 _atom_site_fract_y
 _atom_site_fract_z
 _atom_site_occupancy
  Ti  Ti0  1  0.25000000  0.84257440  0.05705658  1
  Ti  Ti1  1  0.75000000  0.34257440  0.44294342  1
  Ti  Ti2  1  0.25000000  0.65742560  0.55705658  1
  Ti  Ti3  1  0.75000000  0.15742560  0.94294342  1
  S  S0  1  0.25000000  0.47591450  0.84499007  1
  S  S1  1  0.75000000  0.52408550  0.15500993  1
  S  S2  1  0.75000000  0.97591450  0.65500993  1
  S  S3  1  0.25000000  0.02408550  0.34499007  1
  O  O0  1  0.25000000  0.67170329  0.90900889  1
  O  O1  1  0.50000000  0.50000000  0.50000000  1
  O  O2  1  0.25000000  0.97941599  0.21527742  1
  O  O3  1  0.25000000  0.82829671  0.40900889  1
  O  O4  1  0.01977331  0.36316262  0.87383527  1
  O  O5  1  0.48022669  0.13683738  0.37383527  1
  O  O6  1  0.98022669  0.63683738  0.12616473  1
  O  O7  1  0.75000000  0.32829671  0.09099111  1
  O  O8  1  0.51977331  0.63683738  0.12616473  1
  O  O9  1  0.75000000  0.02058401  0.78472258  1
  O  O10  1  -0.00000000  -0.00000000  -0.00000000  1
  O  O11  1  0.75000000  0.47941599  0.28472258  1
  O  O12  1  0.75000000  0.17170329  0.59099111  1
  O  O13  1  0.51977331  0.86316262  0.62616473  1
  O  O14  1  0.01977331  0.13683738  0.37383527  1
  O  O15  1  0.98022669  0.86316262  0.62616473  1
  O  O16  1  0.48022669  0.36316262  0.87383527  1
  O  O17  1  0.50000000  -0.00000000  -0.00000000  1
  O  O18  1  -0.00000000  0.50000000  0.50000000  1
  O  O19  1  0.25000000  0.52058401  0.71527742  1
loop_
_geom_bond_atom_site_label_1
_geom_bond_atom_site_label_2
_geom_bond_distance
_geom_bond_site_symmetry_2
O0 S0 1.471181 1_555
O0 Ti0 1.991208 1_556
O1 Ti2 1.788551 1_555
O1 Ti1 1.788551 1_555
O2 S3 1.469642 1_565
O2 Ti0 1.973729 1_555
O3 S3 1.471181 1_565
O3 Ti2 1.991208 1_555
O4 S0 1.454556 1_555
O4 Ti3 2.104615 1_455
O5 S3 1.454556 1_555
O5 Ti1 2.104615 1_555
O6 S1 1.454556 1_555
O6 Ti0 2.104615 1_655
O7 S1 1.471181 1_555
O7 Ti3 1.991208 1_554
O8 S1 1.454556 1_555
O8 Ti0 2.104615 1_555
O9 S2 1.469642 1_545
O9 Ti3 1.973729 1_555
O10 Ti3 1.788551 1_454
O10 Ti0 1.788551 1_545
O11 S1 1.469642 1_555
O11 Ti1 1.973729 1_555
O12 S2 1.471181 1_545
O12 Ti1 1.991208 1_555
O13 S2 1.454556 1_555
O13 Ti2 2.104615 1_555
O14 S3 1.454556 1_555
O14 Ti1 2.104615 1_455
O15 S2 1.454556 1_555
O15 Ti2 2.104615 1_655
O16 S0 1.454556 1_555
O16 Ti3 2.104615 1_555
O17 Ti3 1.788551 1_554
O17 Ti0 1.788551 1_545
O18 Ti2 1.788551 1_555
O18 Ti1 1.788551 1_455
O19 S0 1.469642 1_555
O19 Ti2 1.973729 1_555
