# generated using pymatgen
data_AsC4S4N4Cl2O2F5
_symmetry_space_group_name_H-M   'P 1'
_cell_length_a   11.24573200
_cell_length_b   12.01666800
_cell_length_c   14.26442984
_cell_angle_alpha   58.49806435
_cell_angle_beta   90.00000000
_cell_angle_gamma   90.00000000
_symmetry_Int_Tables_number   1
_chemical_formula_structural   AsC4S4N4Cl2O2F5
_chemical_formula_sum   'As4 C16 S16 N16 Cl8 O8 F20'
_cell_volume   1643.55031695
_cell_formula_units_Z   4
loop_
 _symmetry_equiv_pos_site_id
 _symmetry_equiv_pos_as_xyz
  1  'x, y, z'
loop_
 _atom_site_type_symbol
 _atom_site_label
 _atom_site_symmetry_multiplicity
 _atom_site_fract_x
 _atom_site_fract_y
 _atom_site_fract_z
 _atom_site_occupancy
  As  As0  1  0.74844200  0.44524500  0.30924200  1
  As  As1  1  0.75155800  0.44524500  0.80924200  1
  As  As2  1  0.25155800  0.55475500  0.69075800  1
  As  As3  1  0.24844200  0.55475500  0.19075800  1
  C  C0  1  0.43453900  0.73357200  0.20752100  1
  C  C1  1  0.39159600  0.11523700  0.67260800  1
  C  C2  1  0.98734900  0.23941100  0.21415200  1
  C  C3  1  0.19360100  0.00989200  0.20409700  1
  C  C4  1  0.69360100  0.99010800  0.29590300  1
  C  C5  1  0.56546100  0.26642800  0.79247900  1
  C  C6  1  0.89159600  0.88476300  0.82739200  1
  C  C7  1  0.51265100  0.23941100  0.71415200  1
  C  C8  1  0.10840400  0.11523700  0.17260800  1
  C  C9  1  0.30639900  0.00989200  0.70409700  1
  C  C10  1  0.01265100  0.76058900  0.78584800  1
  C  C11  1  0.60840400  0.88476300  0.32739200  1
  C  C12  1  0.48734900  0.76058900  0.28584800  1
  C  C13  1  0.06546100  0.73357200  0.70752100  1
  C  C14  1  0.80639900  0.99010800  0.79590300  1
  C  C15  1  0.93453900  0.26642800  0.29247900  1
  S  S0  1  0.68605700  0.92524200  0.49245100  1
  S  S1  1  0.81394300  0.92524200  0.99245100  1
  S  S2  1  0.35182600  0.57741000  0.39135600  1
  S  S3  1  0.42640600  0.19500800  0.53209000  1
  S  S4  1  0.92640600  0.80499200  0.96791000  1
  S  S5  1  0.03966400  0.29707100  0.64776300  1
  S  S6  1  0.14817400  0.57741000  0.89135600  1
  S  S7  1  0.07359400  0.19500800  0.03209000  1
  S  S8  1  0.57359400  0.80499200  0.46791000  1
  S  S9  1  0.46033600  0.29707100  0.14776300  1
  S  S10  1  0.31394300  0.07475800  0.50754900  1
  S  S11  1  0.64817400  0.42259000  0.60864400  1
  S  S12  1  0.18605700  0.07475800  0.00754900  1
  S  S13  1  0.53966400  0.70292900  0.85223700  1
  S  S14  1  0.96033600  0.70292900  0.35223700  1
  S  S15  1  0.85182600  0.42259000  0.10864400  1
  N  N0  1  0.85771200  0.36543300  0.24489600  1
  N  N1  1  0.23500400  0.98394500  0.13254200  1
  N  N2  1  0.93412400  0.85853900  0.75562200  1
  N  N3  1  0.73500400  0.01605500  0.36745800  1
  N  N4  1  0.56587600  0.85853900  0.25562200  1
  N  N5  1  0.43412400  0.14146100  0.74437800  1
  N  N6  1  0.05244700  0.67890100  0.88850500  1
  N  N7  1  0.06587600  0.14146100  0.24437800  1
  N  N8  1  0.94755300  0.32109900  0.11149500  1
  N  N9  1  0.55244700  0.32109900  0.61149500  1
  N  N10  1  0.35771200  0.63456700  0.25510400  1
  N  N11  1  0.64228800  0.36543300  0.74489600  1
  N  N12  1  0.44755300  0.67890100  0.38850500  1
  N  N13  1  0.76499600  0.01605500  0.86745800  1
  N  N14  1  0.14228800  0.63456700  0.75510400  1
  N  N15  1  0.26499600  0.98394500  0.63254200  1
  Cl  Cl0  1  0.76219800  0.08213100  0.66163200  1
  Cl  Cl1  1  0.96655000  0.18036800  0.42694700  1
  Cl  Cl2  1  0.73780200  0.08213100  0.16163200  1
  Cl  Cl3  1  0.23780200  0.91786900  0.33836800  1
  Cl  Cl4  1  0.46655000  0.81963200  0.07305300  1
  Cl  Cl5  1  0.03345000  0.81963200  0.57305300  1
  Cl  Cl6  1  0.53345000  0.18036800  0.92694700  1
  Cl  Cl7  1  0.26219800  0.91786900  0.83836800  1
  O  O0  1  0.52620200  0.81444400  0.74134900  1
  O  O1  1  0.86330800  0.70508200  0.41821500  1
  O  O2  1  0.02620200  0.18555600  0.75865100  1
  O  O3  1  0.36330800  0.29491800  0.08178500  1
  O  O4  1  0.97379800  0.81444400  0.24134900  1
  O  O5  1  0.13669200  0.29491800  0.58178500  1
  O  O6  1  0.63669200  0.70508200  0.91821500  1
  O  O7  1  0.47379800  0.18555600  0.25865100  1
  F  F0  1  0.80540000  0.28692900  0.90113600  1
  F  F1  1  0.30540000  0.71307100  0.59886400  1
  F  F2  1  0.64442400  0.46544300  0.20868800  1
  F  F3  1  0.31095700  0.40141300  0.28721800  1
  F  F4  1  0.19460000  0.71307100  0.09886400  1
  F  F5  1  0.36071000  0.57542600  0.09645300  1
  F  F6  1  0.85557600  0.46544300  0.70868800  1
  F  F7  1  0.65134800  0.51538900  0.36086100  1
  F  F8  1  0.68904300  0.59858700  0.71278200  1
  F  F9  1  0.18904300  0.40141300  0.78721800  1
  F  F10  1  0.69460000  0.28692900  0.40113600  1
  F  F11  1  0.13929000  0.57542600  0.59645300  1
  F  F12  1  0.86071000  0.42457400  0.40354700  1
  F  F13  1  0.63929000  0.42457400  0.90354700  1
  F  F14  1  0.34865200  0.48461100  0.63913900  1
  F  F15  1  0.15134800  0.48461100  0.13913900  1
  F  F16  1  0.81095700  0.59858700  0.21278200  1
  F  F17  1  0.84865200  0.51538900  0.86086100  1
  F  F18  1  0.35557600  0.53455700  0.79131200  1
  F  F19  1  0.14442400  0.53455700  0.29131200  1
loop_
_geom_bond_atom_site_label_1
_geom_bond_atom_site_label_2
_geom_bond_distance
_geom_bond_site_symmetry_2
As0 F7 1.758826 1_555
As0 F10 1.760117 1_555
As0 F12 1.765242 1_555
As0 F2 1.766571 1_555
As0 F16 1.770096 1_555
As0 N0 2.047498 1_555
As1 F17 1.758826 1_555
As1 F0 1.760117 1_555
As1 F13 1.765242 1_555
As1 F6 1.766571 1_555
As1 F8 1.770096 1_555
As1 N11 2.047498 1_555
As2 F14 1.758826 1_555
As2 F1 1.760117 1_555
As2 F11 1.765242 1_555
As2 F18 1.766571 1_555
As2 F9 1.770096 1_555
As2 N14 2.047498 1_555
As3 F15 1.758826 1_555
As3 F4 1.760117 1_555
As3 F5 1.765242 1_555
As3 F19 1.766571 1_555
As3 F3 1.770096 1_555
As3 N10 2.047498 1_555
C0 N10 1.333667 1_555
C0 C12 1.444131 1_555
C0 Cl4 1.674878 1_555
C1 N5 1.308917 1_555
C1 C9 1.458761 1_555
C1 S3 1.755512 1_555
C2 N8 1.343866 1_555
C2 N7 1.349372 1_655
C3 N1 1.299386 1_545
C3 C8 1.458761 1_555
C3 Cl3 1.710230 1_545
C4 N3 1.299386 1_565
C4 Cl2 1.710230 1_565
C5 N11 1.333667 1_555
C5 C7 1.444131 1_555
C5 Cl6 1.674878 1_555
C6 N2 1.308917 1_555
C6 S4 1.755512 1_555
C7 N9 1.343866 1_555
C7 N5 1.349372 1_555
C8 N7 1.308917 1_555
C8 S7 1.755512 1_555
C9 N15 1.299386 1_545
C9 Cl7 1.710230 1_545
C10 N6 1.343866 1_555
C10 N2 1.349372 1_455
C10 C13 1.444131 1_555
C11 N4 1.308917 1_555
C11 C4 1.458761 1_555
C11 S8 1.755512 1_555
C12 N12 1.343866 1_555
C12 N4 1.349372 1_555
C13 N14 1.333667 1_555
C13 Cl5 1.674878 1_555
C14 N13 1.299386 1_565
C14 C6 1.458761 1_555
C14 Cl0 1.710230 1_565
C15 N0 1.333667 1_555
C15 C2 1.444131 1_555
C15 Cl1 1.674878 1_555
S0 S8 2.082968 1_555
S1 S4 2.082968 1_555
S10 S3 2.082968 1_555
S12 S7 2.082968 1_555
N0 S15 1.690707 1_555
N1 S12 1.624635 1_565
N3 S0 1.624635 1_545
N6 S6 1.611242 1_555
N8 S15 1.611242 1_555
N9 S11 1.611242 1_555
N10 S2 1.690707 1_555
N11 S11 1.690707 1_555
N12 S2 1.611242 1_555
N13 S1 1.624635 1_545
N14 S6 1.690707 1_555
N15 S10 1.624635 1_565
O0 S13 1.451020 1_555
O1 S14 1.449989 1_555
O2 S5 1.451020 1_555
O3 S9 1.449989 1_555
O4 S14 1.451020 1_555
O5 S5 1.449989 1_555
O6 S13 1.449989 1_555
O7 S9 1.451020 1_555
