# generated using pymatgen
data_YMn2O5
_symmetry_space_group_name_H-M   'P 1'
_cell_length_a   5.68214146
_cell_length_b   7.24722054
_cell_length_c   8.47873238
_cell_angle_alpha   90.00011272
_cell_angle_beta   89.99999020
_cell_angle_gamma   89.99999761
_symmetry_Int_Tables_number   1
_chemical_formula_structural   YMn2O5
_chemical_formula_sum   'Y4 Mn8 O20'
_cell_volume   349.15192965
_cell_formula_units_Z   4
loop_
 _symmetry_equiv_pos_site_id
 _symmetry_equiv_pos_as_xyz
  1  'x, y, z'
loop_
 _atom_site_type_symbol
 _atom_site_label
 _atom_site_symmetry_multiplicity
 _atom_site_fract_x
 _atom_site_fract_y
 _atom_site_fract_z
 _atom_site_occupancy
  Y  Y0  1  -0.00000014  0.63755056  0.32866671  1
  Y  Y1  1  0.00000003  0.36244928  0.67133428  1
  Y  Y2  1  -0.00000018  0.13755335  0.17132920  1
  Y  Y3  1  0.00000014  0.86244588  0.82866976  1
  Mn  Mn0  1  0.49999996  0.91171975  0.15063425  1
  Mn  Mn1  1  0.49999996  0.08828397  0.84936654  1
  Mn  Mn2  1  0.49999998  0.41171706  0.34936366  1
  Mn  Mn3  1  0.50000013  0.58828642  0.65063566  1
  Mn  Mn4  1  0.25438991  0.49999998  0.00000007  1
  Mn  Mn5  1  0.74561360  0.00000000  0.49999986  1
  Mn  Mn6  1  0.74561030  0.50000021  -0.00000009  1
  Mn  Mn7  1  0.25438638  -0.00000000  0.49999988  1
  O  O0  1  0.27182851  0.49999940  0.50000101  1
  O  O1  1  0.72817247  -0.00000057  -0.00000107  1
  O  O2  1  0.72817137  0.49999935  0.50000084  1
  O  O3  1  0.27182736  -0.00000052  -0.00000107  1
  O  O4  1  0.00000001  0.66314793  0.05596164  1
  O  O5  1  -0.00000010  0.33685163  0.94403825  1
  O  O6  1  -0.00000008  0.16315043  0.44404060  1
  O  O7  1  0.00000012  0.83684926  0.55595949  1
  O  O8  1  0.50000000  0.65320077  0.06646558  1
  O  O9  1  0.50000015  0.34679826  0.93353569  1
  O  O10  1  0.50000000  0.15320048  0.43353872  1
  O  O11  1  0.49999999  0.84679868  0.56645990  1
  O  O12  1  0.24397555  0.89450526  0.29363597  1
  O  O13  1  0.24397725  0.10549448  0.70636381  1
  O  O14  1  0.75602097  0.39450178  0.20636292  1
  O  O15  1  0.75601970  0.60549797  0.79363693  1
  O  O16  1  0.75602277  0.10549437  0.70636382  1
  O  O17  1  0.75602435  0.89450523  0.29363599  1
  O  O18  1  0.24398071  0.60549774  0.79363699  1
  O  O19  1  0.24397882  0.39450161  0.20636320  1
loop_
_geom_bond_atom_site_label_1
_geom_bond_atom_site_label_2
_geom_bond_distance
_geom_bond_site_symmetry_2
Mn0 O12 1.897894 1_555
Mn0 O17 1.897895 1_555
Mn0 O1 1.929116 1_565
Mn0 O3 1.929117 1_565
Mn0 O8 2.004856 1_555
Mn1 O13 1.897891 1_555
Mn1 O16 1.897891 1_555
Mn1 O3 1.929112 1_556
Mn1 O1 1.929112 1_556
Mn1 O9 2.004826 1_555
Mn2 O19 1.897874 1_555
Mn2 O14 1.897874 1_555
Mn2 O2 1.929127 1_555
Mn2 O0 1.929128 1_555
Mn2 O10 2.004862 1_555
Mn3 O18 1.897869 1_555
Mn3 O15 1.897869 1_555
Mn3 O2 1.929125 1_555
Mn3 O0 1.929125 1_555
Mn3 O11 2.004835 1_555
Mn4 O8 1.870288 1_555
Mn4 O9 1.870289 1_554
Mn4 O18 1.910368 1_554
Mn4 O19 1.910370 1_555
Mn4 O4 1.926795 1_555
Mn4 O5 1.926798 1_554
Mn5 O10 1.870291 1_555
Mn5 O11 1.870292 1_545
Mn5 O16 1.910362 1_555
Mn5 O17 1.910363 1_545
Mn5 O6 1.926787 1_655
Mn5 O7 1.926790 1_645
Mn6 O8 1.870288 1_555
Mn6 O9 1.870289 1_554
Mn6 O15 1.910367 1_554
Mn6 O14 1.910369 1_555
Mn6 O4 1.926794 1_655
Mn6 O5 1.926797 1_654
Mn7 O10 1.870291 1_555
Mn7 O11 1.870292 1_545
Mn7 O13 1.910362 1_555
Mn7 O12 1.910363 1_545
Mn7 O6 1.926788 1_555
Mn7 O7 1.926789 1_545
O0 Y1 2.343016 1_555
O0 Y0 2.343025 1_555
O1 Y3 2.342999 1_644
O1 Y2 2.343005 1_655
O2 Y1 2.343017 1_655
O2 Y0 2.343024 1_655
O3 Y3 2.342998 1_544
O3 Y2 2.343005 1_555
O4 Y0 2.319624 1_555
O4 Y3 2.408334 1_554
O5 Y1 2.319614 1_555
O5 Y2 2.408329 1_556
O6 Y2 2.319676 1_555
O6 Y1 2.408345 1_555
O7 Y3 2.319666 1_555
O7 Y0 2.408339 1_555
O12 Y0 2.340487 1_555
O12 Y2 2.469786 1_565
O13 Y1 2.340491 1_555
O13 Y3 2.469790 1_545
O14 Y2 2.340463 1_655
O14 Y0 2.469786 1_655
O15 Y3 2.340465 1_655
O15 Y1 2.469786 1_655
O16 Y1 2.340492 1_655
O16 Y3 2.469790 1_645
O17 Y0 2.340486 1_655
O17 Y2 2.469785 1_665
O18 Y3 2.340466 1_555
O18 Y1 2.469786 1_555
O19 Y2 2.340463 1_555
O19 Y0 2.469786 1_555
