# generated using pymatgen
data_KCa9Mn(PO4)7
_symmetry_space_group_name_H-M   'P 1'
_cell_length_a   13.87156115
_cell_length_b   13.87156115
_cell_length_c   13.87156167
_cell_angle_alpha   44.69547843
_cell_angle_beta   44.69547843
_cell_angle_gamma   44.69547889
_symmetry_Int_Tables_number   1
_chemical_formula_structural   KCa9Mn(PO4)7
_chemical_formula_sum   'K2 Ca18 Mn2 P14 O56'
_cell_volume   1201.02713695
_cell_formula_units_Z   2
loop_
 _symmetry_equiv_pos_site_id
 _symmetry_equiv_pos_as_xyz
  1  'x, y, z'
loop_
 _atom_site_type_symbol
 _atom_site_label
 _atom_site_symmetry_multiplicity
 _atom_site_fract_x
 _atom_site_fract_y
 _atom_site_fract_z
 _atom_site_occupancy
  K  K0  1  0.68395400  0.68395400  0.68395400  1
  K  K1  1  0.18395400  0.18395400  0.18395400  1
  Ca  Ca0  1  0.57421500  0.56506800  0.16047500  1
  Ca  Ca1  1  0.97300600  0.56371400  0.94389500  1
  Ca  Ca2  1  0.90969900  0.34615100  0.94545500  1
  Ca  Ca3  1  0.66047500  0.06506800  0.07421500  1
  Ca  Ca4  1  0.34615100  0.94545500  0.90969900  1
  Ca  Ca5  1  0.56506800  0.16047500  0.57421500  1
  Ca  Ca6  1  0.94389500  0.97300600  0.56371400  1
  Ca  Ca7  1  0.56371400  0.94389500  0.97300600  1
  Ca  Ca8  1  0.06371400  0.47300600  0.44389500  1
  Ca  Ca9  1  0.16047500  0.57421500  0.56506800  1
  Ca  Ca10  1  0.40969900  0.44545500  0.84615100  1
  Ca  Ca11  1  0.06506800  0.07421500  0.66047500  1
  Ca  Ca12  1  0.47300600  0.44389500  0.06371400  1
  Ca  Ca13  1  0.84615100  0.40969900  0.44545500  1
  Ca  Ca14  1  0.44545500  0.84615100  0.40969900  1
  Ca  Ca15  1  0.44389500  0.06371400  0.47300600  1
  Ca  Ca16  1  0.07421500  0.66047500  0.06506800  1
  Ca  Ca17  1  0.94545500  0.90969900  0.34615100  1
  Mn  Mn0  1  0.50138900  0.50138900  0.50138900  1
  Mn  Mn1  1  0.00138900  0.00138900  0.00138900  1
  P  P0  1  0.31510500  0.82054900  0.27289300  1
  P  P1  1  0.68237400  0.18739100  0.72884100  1
  P  P2  1  0.32054900  0.81510500  0.77289300  1
  P  P3  1  0.82054900  0.27289300  0.31510500  1
  P  P4  1  0.22884100  0.68739100  0.18237400  1
  P  P5  1  0.27289300  0.31510500  0.82054900  1
  P  P6  1  0.72884100  0.68237400  0.18739100  1
  P  P7  1  0.81510500  0.77289300  0.32054900  1
  P  P8  1  0.76845200  0.76845200  0.76845200  1
  P  P9  1  0.18237400  0.22884100  0.68739100  1
  P  P10  1  0.18739100  0.72884100  0.68237400  1
  P  P11  1  0.77289300  0.32054900  0.81510500  1
  P  P12  1  0.26845200  0.26845200  0.26845200  1
  P  P13  1  0.68739100  0.18237400  0.22884100  1
  O  O0  1  0.61639700  0.36333800  0.64385900  1
  O  O1  1  0.12878800  0.67620400  0.85152300  1
  O  O2  1  0.64385900  0.61639700  0.36333800  1
  O  O3  1  0.39553000  0.86934700  0.76191100  1
  O  O4  1  0.37439300  0.64519000  0.37069800  1
  O  O5  1  0.38875400  0.64111700  0.84152300  1
  O  O6  1  0.37069800  0.37439300  0.64519000  1
  O  O7  1  0.36333800  0.64385900  0.61639700  1
  O  O8  1  0.86934700  0.76191100  0.39553000  1
  O  O9  1  0.26191100  0.36934700  0.89553000  1
  O  O10  1  0.26226500  0.39141900  0.11139400  1
  O  O11  1  0.16931400  0.19109700  0.61634000  1
  O  O12  1  0.14439900  0.90118000  0.58877100  1
  O  O13  1  0.08877100  0.40118000  0.64439900  1
  O  O14  1  0.61634000  0.16931400  0.19109700  1
  O  O15  1  0.34152300  0.14111700  0.88875400  1
  O  O16  1  0.89141900  0.76226500  0.61139400  1
  O  O17  1  0.87439300  0.87069800  0.14519000  1
  O  O18  1  0.17620400  0.62878800  0.35152300  1
  O  O19  1  0.83797400  0.10963500  0.39429000  1
  O  O20  1  0.89553000  0.26191100  0.36934700  1
  O  O21  1  0.11634000  0.69109700  0.66931400  1
  O  O22  1  0.64111700  0.84152300  0.38875400  1
  O  O23  1  0.64439900  0.08877100  0.40118000  1
  O  O24  1  0.76226500  0.61139400  0.89141900  1
  O  O25  1  0.81002300  0.81002300  0.81002300  1
  O  O26  1  0.76191100  0.39553000  0.86934700  1
  O  O27  1  0.33797400  0.89429000  0.60963500  1
  O  O28  1  0.66931400  0.11634000  0.69109700  1
  O  O29  1  0.14111700  0.88875400  0.34152300  1
  O  O30  1  0.10963500  0.39429000  0.83797400  1
  O  O31  1  0.39429000  0.83797400  0.10963500  1
  O  O32  1  0.39141900  0.11139400  0.26226500  1
  O  O33  1  0.58877100  0.14439900  0.90118000  1
  O  O34  1  0.19109700  0.61634000  0.16931400  1
  O  O35  1  0.11139400  0.26226500  0.39141900  1
  O  O36  1  0.11639700  0.14385900  0.86333800  1
  O  O37  1  0.60963500  0.33797400  0.89429000  1
  O  O38  1  0.69109700  0.66931400  0.11634000  1
  O  O39  1  0.62878800  0.35152300  0.17620400  1
  O  O40  1  0.84152300  0.38875400  0.64111700  1
  O  O41  1  0.85152300  0.12878800  0.67620400  1
  O  O42  1  0.14385900  0.86333800  0.11639700  1
  O  O43  1  0.87069800  0.14519000  0.87439300  1
  O  O44  1  0.14519000  0.87439300  0.87069800  1
  O  O45  1  0.61139400  0.89141900  0.76226500  1
  O  O46  1  0.64519000  0.37069800  0.37439300  1
  O  O47  1  0.67620400  0.85152300  0.12878800  1
  O  O48  1  0.35152300  0.17620400  0.62878800  1
  O  O49  1  0.89429000  0.60963500  0.33797400  1
  O  O50  1  0.88875400  0.34152300  0.14111700  1
  O  O51  1  0.36934700  0.89553000  0.26191100  1
  O  O52  1  0.90118000  0.58877100  0.14439900  1
  O  O53  1  0.31002300  0.31002300  0.31002300  1
  O  O54  1  0.86333800  0.11639700  0.14385900  1
  O  O55  1  0.40118000  0.64439900  0.08877100  1
loop_
_geom_bond_atom_site_label_1
_geom_bond_atom_site_label_2
_geom_bond_distance
_geom_bond_site_symmetry_2
K0 O3 2.639089 1_555
K0 O26 2.639089 1_555
K0 O8 2.639089 1_555
K1 O51 2.639089 1_545
K1 O20 2.639089 1_455
K1 O9 2.639089 1_554
Ca0 O39 2.350148 1_555
Ca0 O38 2.399586 1_555
Ca0 O55 2.458537 1_555
Ca0 O46 2.459493 1_555
Ca0 O4 2.481608 1_555
Ca0 O24 2.505804 1_554
Ca0 O31 2.516268 1_555
Ca1 O52 2.406549 1_556
Ca1 O30 2.427314 1_655
Ca1 O25 2.489963 1_555
Ca1 O21 2.498529 1_655
Ca1 O38 2.588171 1_556
Ca1 O1 2.600221 1_655
Ca1 O50 2.633913 1_556
Ca1 O9 2.677217 1_655
Ca2 O30 2.387357 1_655
Ca2 O26 2.416405 1_555
Ca2 O24 2.417112 1_555
Ca2 O36 2.419722 1_655
Ca2 O54 2.464276 1_556
Ca2 O50 2.472400 1_556
Ca2 O13 2.758344 1_655
Ca2 O39 2.762033 1_556
Ca3 O47 2.350148 1_545
Ca3 O14 2.399587 1_555
Ca3 O33 2.458537 1_554
Ca3 O17 2.459493 1_545
Ca3 O43 2.481608 1_554
Ca3 O32 2.505804 1_555
Ca3 O37 2.516268 1_554
Ca4 O31 2.387358 1_556
Ca4 O3 2.416405 1_555
Ca4 O45 2.417112 1_555
Ca4 O42 2.419722 1_556
Ca4 O36 2.464276 1_565
Ca4 O15 2.472400 1_565
Ca4 O55 2.758344 1_556
Ca4 O48 2.762033 1_565
Ca5 O48 2.350148 1_555
Ca5 O28 2.399587 1_555
Ca5 O23 2.458537 1_555
Ca5 O6 2.459493 1_555
Ca5 O46 2.481608 1_555
Ca5 O45 2.505804 1_545
Ca5 O19 2.516268 1_555
Ca6 O12 2.406549 1_655
Ca6 O19 2.427314 1_565
Ca6 O25 2.489963 1_555
Ca6 O28 2.498529 1_565
Ca6 O21 2.588171 1_655
Ca6 O41 2.600221 1_565
Ca6 O29 2.633914 1_655
Ca6 O20 2.677217 1_565
Ca7 O33 2.406549 1_565
Ca7 O31 2.427314 1_556
Ca7 O25 2.489963 1_555
Ca7 O38 2.498529 1_556
Ca7 O28 2.588171 1_565
Ca7 O47 2.600221 1_556
Ca7 O15 2.633913 1_565
Ca7 O51 2.677217 1_556
Ca8 O13 2.406549 1_555
Ca8 O49 2.427314 1_455
Ca8 O53 2.489963 1_555
Ca8 O34 2.498529 1_555
Ca8 O11 2.588171 1_555
Ca8 O18 2.600221 1_555
Ca8 O40 2.633913 1_455
Ca8 O8 2.677217 1_455
Ca9 O18 2.350148 1_555
Ca9 O21 2.399587 1_555
Ca9 O13 2.458537 1_555
Ca9 O4 2.459492 1_555
Ca9 O6 2.481608 1_555
Ca9 O16 2.505804 1_455
Ca9 O30 2.516268 1_555
Ca10 O37 2.387357 1_555
Ca10 O9 2.416404 1_555
Ca10 O10 2.417112 1_556
Ca10 O0 2.419722 1_555
Ca10 O7 2.464276 1_555
Ca10 O5 2.472400 1_555
Ca10 O33 2.758344 1_555
Ca10 O1 2.762033 1_555
Ca11 O41 2.350148 1_455
Ca11 O11 2.399586 1_555
Ca11 O12 2.458537 1_545
Ca11 O43 2.459493 1_455
Ca11 O44 2.481608 1_545
Ca11 O35 2.505804 1_555
Ca11 O27 2.516268 1_545
Ca12 O55 2.406549 1_555
Ca12 O37 2.427314 1_554
Ca12 O53 2.489963 1_555
Ca12 O14 2.498529 1_555
Ca12 O34 2.588171 1_555
Ca12 O39 2.600221 1_555
Ca12 O5 2.633914 1_554
Ca12 O26 2.677217 1_554
Ca13 O49 2.387357 1_555
Ca13 O20 2.416405 1_555
Ca13 O35 2.417112 1_655
Ca13 O2 2.419722 1_555
Ca13 O0 2.464276 1_555
Ca13 O40 2.472400 1_555
Ca13 O52 2.758344 1_555
Ca13 O41 2.762033 1_555
Ca14 O27 2.387358 1_555
Ca14 O51 2.416405 1_555
Ca14 O32 2.417112 1_565
Ca14 O7 2.419722 1_555
Ca14 O2 2.464276 1_555
Ca14 O22 2.472400 1_555
Ca14 O12 2.758344 1_555
Ca14 O47 2.762033 1_555
Ca15 O23 2.406549 1_555
Ca15 O27 2.427314 1_545
Ca15 O53 2.489963 1_555
Ca15 O11 2.498529 1_555
Ca15 O14 2.588171 1_555
Ca15 O48 2.600221 1_555
Ca15 O22 2.633913 1_545
Ca15 O3 2.677217 1_545
Ca16 O1 2.350148 1_554
Ca16 O34 2.399587 1_555
Ca16 O52 2.458537 1_455
Ca16 O44 2.459492 1_554
Ca16 O17 2.481608 1_455
Ca16 O10 2.505804 1_555
Ca16 O49 2.516268 1_455
Ca17 O19 2.387357 1_565
Ca17 O8 2.416404 1_555
Ca17 O16 2.417112 1_555
Ca17 O54 2.419722 1_565
Ca17 O42 2.464276 1_655
Ca17 O29 2.472400 1_655
Ca17 O23 2.758344 1_565
Ca17 O18 2.762033 1_655
Mn0 O6 2.184536 1_555
Mn0 O46 2.184536 1_555
Mn0 O4 2.184536 1_555
Mn0 O2 2.208272 1_555
Mn0 O7 2.208272 1_555
Mn0 O0 2.208272 1_555
Mn1 O17 2.184536 1_445
Mn1 O43 2.184536 1_454
Mn1 O44 2.184536 1_544
Mn1 O36 2.208272 1_554
Mn1 O42 2.208272 1_545
Mn1 O54 2.208272 1_455
O0 P1 1.565819 1_555
O1 P10 1.547832 1_555
O2 P6 1.565819 1_555
O3 P2 1.547760 1_555
O4 P0 1.576171 1_555
O5 P2 1.547232 1_555
O6 P5 1.576171 1_555
O7 P10 1.565819 1_555
O8 P7 1.547760 1_555
O9 P5 1.547760 1_555
O10 P12 1.561326 1_555
O11 P9 1.549407 1_555
O12 P10 1.554841 1_555
O13 P9 1.554841 1_555
O14 P13 1.549407 1_555
O15 P5 1.547232 1_555
O16 P8 1.561326 1_555
O17 P7 1.576171 1_555
O18 P4 1.547832 1_555
O19 P3 1.567243 1_555
O20 P3 1.547760 1_555
O21 P10 1.549407 1_555
O22 P7 1.547232 1_555
O23 P13 1.554841 1_555
O24 P8 1.561326 1_555
O25 P8 1.554310 1_555
O26 P11 1.547760 1_555
O27 P2 1.567243 1_555
O28 P1 1.549407 1_555
O29 P0 1.547232 1_555
O30 P5 1.567243 1_555
O31 P0 1.567243 1_555
O32 P12 1.561326 1_555
O33 P1 1.554841 1_555
O34 P4 1.549407 1_555
O35 P12 1.561326 1_555
O36 P9 1.565819 1_555
O37 P11 1.567243 1_555
O38 P6 1.549407 1_555
O39 P13 1.547832 1_555
O40 P11 1.547233 1_555
O41 P1 1.547832 1_555
O42 P4 1.565819 1_555
O43 P11 1.576171 1_555
O44 P2 1.576171 1_555
O45 P8 1.561326 1_555
O46 P3 1.576171 1_555
O47 P6 1.547832 1_555
O48 P9 1.547832 1_555
O49 P7 1.567243 1_555
O50 P3 1.547233 1_555
O51 P0 1.547760 1_555
O52 P6 1.554841 1_555
O53 P12 1.554310 1_555
O54 P13 1.565819 1_555
O55 P4 1.554841 1_555
