# generated using pymatgen
data_K4Nb11Al2O20F
_symmetry_space_group_name_H-M   'P 1'
_cell_length_a   8.99270409
_cell_length_b   8.99270409
_cell_length_c   8.99270409
_cell_angle_alpha   120.62408937
_cell_angle_beta   120.62408937
_cell_angle_gamma   88.92240224
_symmetry_Int_Tables_number   1
_chemical_formula_structural   K4Nb11Al2O20F
_chemical_formula_sum   'K4 Nb11 Al2 O20 F1'
_cell_volume   509.27976714
_cell_formula_units_Z   1
loop_
 _symmetry_equiv_pos_site_id
 _symmetry_equiv_pos_as_xyz
  1  'x, y, z'
loop_
 _atom_site_type_symbol
 _atom_site_label
 _atom_site_symmetry_multiplicity
 _atom_site_fract_x
 _atom_site_fract_y
 _atom_site_fract_z
 _atom_site_occupancy
  K  K0  1  0.80750400  0.50000000  0.30750400  1
  K  K1  1  0.50000000  0.19249600  0.69249600  1
  K  K2  1  0.50000000  0.80750400  0.30750400  1
  K  K3  1  0.19249600  0.50000000  0.69249600  1
  Nb  Nb0  1  0.99895500  0.67606300  0.00000000  1
  Nb  Nb1  1  0.67606300  0.99895500  0.00000000  1
  Nb  Nb2  1  0.67606300  0.67606300  0.67710800  1
  Nb  Nb3  1  0.00104500  0.00104500  0.67710800  1
  Nb  Nb4  1  0.99895500  0.99895500  0.32289200  1
  Nb  Nb5  1  0.32393700  0.32393700  0.32289200  1
  Nb  Nb6  1  0.32393700  0.00104500  0.00000000  1
  Nb  Nb7  1  0.00000000  0.00000000  0.00000000  1
  Nb  Nb8  1  0.68473700  0.68473700  0.00000000  1
  Nb  Nb9  1  0.31526300  0.31526300  0.00000000  1
  Nb  Nb10  1  0.00104500  0.32393700  0.00000000  1
  Al  Al0  1  0.75000000  0.25000000  0.50000000  1
  Al  Al1  1  0.25000000  0.75000000  0.50000000  1
  O  O0  1  0.15987300  0.49058000  0.00000000  1
  O  O1  1  0.84012700  0.50942000  0.00000000  1
  O  O2  1  0.16628000  0.82715000  0.66087000  1
  O  O3  1  0.16628000  0.50541000  0.33913000  1
  O  O4  1  0.15987300  0.15987300  0.66929300  1
  O  O5  1  0.50942000  0.50942000  0.66929300  1
  O  O6  1  0.83032900  0.83032900  0.66065700  1
  O  O7  1  0.16967100  0.83032900  0.00000000  1
  O  O8  1  0.50942000  0.84012700  0.00000000  1
  O  O9  1  0.83032900  0.16967100  0.00000000  1
  O  O10  1  0.49058000  0.15987300  0.00000000  1
  O  O11  1  0.16967100  0.16967100  0.33934300  1
  O  O12  1  0.83372000  0.49459000  0.66087000  1
  O  O13  1  0.49058000  0.49058000  0.33070700  1
  O  O14  1  0.84012700  0.84012700  0.33070700  1
  O  O15  1  0.50541000  0.16628000  0.33913000  1
  O  O16  1  0.83372000  0.17285000  0.33913000  1
  O  O17  1  0.82715000  0.16628000  0.66087000  1
  O  O18  1  0.49459000  0.83372000  0.66087000  1
  O  O19  1  0.17285000  0.83372000  0.33913000  1
  F  F0  1  0.50000000  0.50000000  0.00000000  1
loop_
_geom_bond_atom_site_label_1
_geom_bond_atom_site_label_2
_geom_bond_distance
_geom_bond_site_symmetry_2
K0 O6 2.949497 1_555
K0 O9 2.949502 1_555
K0 O13 2.967521 1_555
K0 O10 2.967521 1_555
K0 O14 2.967521 1_555
K0 O1 2.967521 1_555
K0 O3 3.090251 1_655
K0 O2 3.090251 1_655
K0 O12 3.090251 1_555
K0 O16 3.090251 1_555
K1 O11 2.949497 1_555
K1 O9 2.949502 1_556
K1 O4 2.967521 1_555
K1 O10 2.967521 1_556
K1 O1 2.967521 1_556
K1 O5 2.967521 1_555
K1 O19 3.090251 1_545
K1 O15 3.090251 1_555
K1 O17 3.090251 1_555
K1 O18 3.090251 1_545
K2 O6 2.949497 1_555
K2 O7 2.949502 1_555
K2 O13 2.967521 1_555
K2 O0 2.967521 1_555
K2 O14 2.967521 1_555
K2 O8 2.967521 1_555
K2 O15 3.090251 1_565
K2 O18 3.090251 1_555
K2 O17 3.090251 1_565
K2 O19 3.090251 1_555
K3 O11 2.949497 1_555
K3 O7 2.949502 1_556
K3 O4 2.967521 1_555
K3 O8 2.967521 1_556
K3 O0 2.967521 1_556
K3 O5 2.967521 1_555
K3 O16 3.090251 1_455
K3 O3 3.090251 1_555
K3 O12 3.090251 1_455
K3 O2 3.090251 1_555
Nb0 O7 2.088409 1_655
Nb0 O1 2.089556 1_555
Nb0 O12 2.139087 1_554
Nb0 O19 2.139087 1_655
Nb0 O0 2.187574 1_655
Nb1 O9 2.088409 1_565
Nb1 O8 2.089556 1_555
Nb1 O18 2.139087 1_554
Nb1 O16 2.139087 1_565
Nb1 O10 2.187574 1_565
Nb2 O6 2.088416 1_555
Nb2 O5 2.089556 1_555
Nb2 O12 2.139087 1_555
Nb2 O18 2.139087 1_555
Nb2 O13 2.187574 1_555
Nb3 O6 2.088403 1_445
Nb3 O4 2.089556 1_555
Nb3 O17 2.139087 1_455
Nb3 O2 2.139087 1_545
Nb3 O14 2.187574 1_445
Nb4 O11 2.088403 1_665
Nb4 O14 2.089556 1_555
Nb4 O16 2.139087 1_565
Nb4 O19 2.139087 1_655
Nb4 O4 2.187574 1_665
Nb5 O11 2.088416 1_555
Nb5 O13 2.089556 1_555
Nb5 O15 2.139087 1_555
Nb5 O3 2.139087 1_555
Nb5 O5 2.187574 1_555
Nb6 O7 2.088409 1_545
Nb6 O10 2.089556 1_555
Nb6 O2 2.139087 1_544
Nb6 O15 2.139087 1_555
Nb6 O8 2.187574 1_545
Nb7 O9 2.137422 1_455
Nb7 O7 2.137422 1_545
Nb7 O11 2.137428 1_555
Nb7 O6 2.137428 1_444
Nb8 O8 2.086955 1_555
Nb8 O1 2.086955 1_555
Nb8 O14 2.086955 1_555
Nb8 O5 2.086955 1_554
Nb9 O13 2.086955 1_555
Nb9 O10 2.086955 1_555
Nb9 O0 2.086955 1_555
Nb9 O4 2.086955 1_554
Nb10 O9 2.088409 1_455
Nb10 O0 2.089556 1_555
Nb10 O17 2.139087 1_454
Nb10 O3 2.139087 1_555
Nb10 O1 2.187574 1_455
Al0 O15 1.791201 1_555
Al0 O16 1.791201 1_555
Al0 O12 1.791201 1_555
Al0 O17 1.791201 1_555
Al1 O3 1.791201 1_555
Al1 O19 1.791201 1_555
Al1 O18 1.791201 1_555
Al1 O2 1.791201 1_555
F0 Nb8 2.371401 1_555
F0 Nb9 2.371401 1_555
F0 K2 2.739166 1_555
F0 K0 2.739166 1_555
F0 K1 2.739166 1_554
F0 K3 2.739166 1_554
