# generated using pymatgen
data_Li5P2N5
_symmetry_space_group_name_H-M   'P 1'
_cell_length_a   8.63280200
_cell_length_b   8.87928500
_cell_length_c   12.43293400
_cell_angle_alpha   90.00000000
_cell_angle_beta   90.00000000
_cell_angle_gamma   90.00000000
_symmetry_Int_Tables_number   1
_chemical_formula_structural   Li5P2N5
_chemical_formula_sum   'Li40 P16 N40'
_cell_volume   953.02304890
_cell_formula_units_Z   8
loop_
 _symmetry_equiv_pos_site_id
 _symmetry_equiv_pos_as_xyz
  1  'x, y, z'
loop_
 _atom_site_type_symbol
 _atom_site_label
 _atom_site_symmetry_multiplicity
 _atom_site_fract_x
 _atom_site_fract_y
 _atom_site_fract_z
 _atom_site_occupancy
  Li  Li0  1  0.25000000  0.82267600  0.28337600  1
  Li  Li1  1  0.25000000  0.01148900  0.38508400  1
  Li  Li2  1  0.52452100  0.17403200  0.60043600  1
  Li  Li3  1  0.75000000  0.48851100  0.88508400  1
  Li  Li4  1  0.75000000  0.67732400  0.78337600  1
  Li  Li5  1  0.52452100  0.67403200  0.89956400  1
  Li  Li6  1  0.44532600  0.68434400  0.12288800  1
  Li  Li7  1  0.05467400  0.68434400  0.12288800  1
  Li  Li8  1  0.25000000  0.75744300  0.74728300  1
  Li  Li9  1  0.55467400  0.81565600  0.62288800  1
  Li  Li10  1  0.50000000  0.00000000  0.00000000  1
  Li  Li11  1  0.75000000  0.96463300  0.82348100  1
  Li  Li12  1  0.75000000  0.00740900  0.43219200  1
  Li  Li13  1  0.44532600  0.18434400  0.37711200  1
  Li  Li14  1  0.97547900  0.17403200  0.60043600  1
  Li  Li15  1  0.05467400  0.18434400  0.37711200  1
  Li  Li16  1  0.75000000  0.24255700  0.25271700  1
  Li  Li17  1  0.02452100  0.32596800  0.10043600  1
  Li  Li18  1  0.55467400  0.31565600  0.87711200  1
  Li  Li19  1  0.47547900  0.32596800  0.10043600  1
  Li  Li20  1  0.50000000  0.50000000  0.50000000  1
  Li  Li21  1  0.75000000  0.50740900  0.06780800  1
  Li  Li22  1  0.25000000  0.51148900  0.11491600  1
  Li  Li23  1  0.25000000  0.53536700  0.32348100  1
  Li  Li24  1  0.75000000  0.46463300  0.67651900  1
  Li  Li25  1  0.25000000  0.49259100  0.93219200  1
  Li  Li26  1  0.00000000  0.50000000  0.50000000  1
  Li  Li27  1  0.97547900  0.67403200  0.89956400  1
  Li  Li28  1  0.75000000  0.74255700  0.24728300  1
  Li  Li29  1  0.94532600  0.81565600  0.62288800  1
  Li  Li30  1  0.47547900  0.82596800  0.39956400  1
  Li  Li31  1  0.02452100  0.82596800  0.39956400  1
  Li  Li32  1  0.00000000  0.00000000  0.00000000  1
  Li  Li33  1  0.25000000  0.99259100  0.56780800  1
  Li  Li34  1  0.75000000  0.98851100  0.61491600  1
  Li  Li35  1  0.25000000  0.03536700  0.17651900  1
  Li  Li36  1  0.75000000  0.17732400  0.71662400  1
  Li  Li37  1  0.25000000  0.25744300  0.75271700  1
  Li  Li38  1  0.94532600  0.31565600  0.87711200  1
  Li  Li39  1  0.25000000  0.32267600  0.21662400  1
  P  P0  1  0.41657400  0.50779100  0.70674900  1
  P  P1  1  0.25000000  0.84038700  0.95284200  1
  P  P2  1  0.75000000  0.83704300  0.04053700  1
  P  P3  1  0.41657400  0.00779100  0.79325100  1
  P  P4  1  0.58342600  0.99220900  0.20674900  1
  P  P5  1  0.91657400  0.99220900  0.20674900  1
  P  P6  1  0.25000000  0.16295700  0.95946300  1
  P  P7  1  0.75000000  0.15961300  0.04715800  1
  P  P8  1  0.75000000  0.33704300  0.45946300  1
  P  P9  1  0.25000000  0.34038700  0.54715800  1
  P  P10  1  0.91657400  0.49220900  0.29325100  1
  P  P11  1  0.58342600  0.49220900  0.29325100  1
  P  P12  1  0.08342600  0.50779100  0.70674900  1
  P  P13  1  0.75000000  0.65961300  0.45284200  1
  P  P14  1  0.25000000  0.66295700  0.54053700  1
  P  P15  1  0.08342600  0.00779100  0.79325100  1
  N  N0  1  0.40582200  0.35412400  0.62822300  1
  N  N1  1  0.25000000  0.50895600  0.77798900  1
  N  N2  1  0.56859300  0.51150700  0.78097200  1
  N  N3  1  0.40467000  0.65666400  0.62275400  1
  N  N4  1  0.75000000  0.69434300  0.96106400  1
  N  N5  1  0.25000000  0.68833700  0.02248200  1
  N  N6  1  0.90467000  0.84333600  0.12275400  1
  N  N7  1  0.40582200  0.85412400  0.87177700  1
  N  N8  1  0.59533000  0.84333600  0.12275400  1
  N  N9  1  0.75000000  0.99104400  0.27798900  1
  N  N10  1  0.56859300  0.01150700  0.71902800  1
  N  N11  1  0.25000000  0.99847800  0.02636700  1
  N  N12  1  0.75000000  0.00152200  0.97363300  1
  N  N13  1  0.43140700  0.98849300  0.28097200  1
  N  N14  1  0.06859300  0.98849300  0.28097200  1
  N  N15  1  0.90582200  0.14587600  0.12822300  1
  N  N16  1  0.40467000  0.15666400  0.87724600  1
  N  N17  1  0.59417800  0.14587600  0.12822300  1
  N  N18  1  0.25000000  0.18833700  0.47751800  1
  N  N19  1  0.75000000  0.19434300  0.53893600  1
  N  N20  1  0.75000000  0.31166300  0.97751800  1
  N  N21  1  0.25000000  0.30565700  0.03893600  1
  N  N22  1  0.90467000  0.34333600  0.37724600  1
  N  N23  1  0.09417800  0.35412400  0.62822300  1
  N  N24  1  0.59533000  0.34333600  0.37724600  1
  N  N25  1  0.75000000  0.49104400  0.22201100  1
  N  N26  1  0.06859300  0.48849300  0.21902800  1
  N  N27  1  0.75000000  0.50152200  0.52636700  1
  N  N28  1  0.25000000  0.49847800  0.47363300  1
  N  N29  1  0.93140700  0.51150700  0.78097200  1
  N  N30  1  0.43140700  0.48849300  0.21902800  1
  N  N31  1  0.59417800  0.64587600  0.37177700  1
  N  N32  1  0.90582200  0.64587600  0.37177700  1
  N  N33  1  0.09533000  0.65666400  0.62275400  1
  N  N34  1  0.75000000  0.81166300  0.52248200  1
  N  N35  1  0.25000000  0.80565700  0.46106400  1
  N  N36  1  0.09417800  0.85412400  0.87177700  1
  N  N37  1  0.93140700  0.01150700  0.71902800  1
  N  N38  1  0.25000000  0.00895600  0.72201100  1
  N  N39  1  0.09533000  0.15666400  0.87724600  1
loop_
_geom_bond_atom_site_label_1
_geom_bond_atom_site_label_2
_geom_bond_distance
_geom_bond_site_symmetry_2
Li0 N14 2.149694 1_555
Li0 N13 2.149694 1_555
Li0 N35 2.214346 1_555
Li1 N18 1.945896 1_555
Li1 N14 2.041990 1_545
Li1 N13 2.041990 1_545
Li1 N35 2.057339 1_545
Li2 N0 1.930403 1_555
Li2 N10 2.097928 1_555
Li2 N19 2.099071 1_555
Li3 N20 1.945896 1_555
Li3 N29 2.041990 1_555
Li3 N2 2.041990 1_555
Li3 N4 2.057339 1_555
Li4 N2 2.149694 1_555
Li4 N29 2.149694 1_555
Li4 N4 2.214346 1_555
Li5 N7 1.930403 1_555
Li5 N2 2.097928 1_555
Li5 N4 2.099071 1_555
Li6 N8 1.915700 1_555
Li6 N5 2.098313 1_555
Li6 N30 2.113614 1_555
Li7 N6 1.915700 1_455
Li7 N5 2.098313 1_555
Li7 N26 2.113614 1_555
Li8 N7 2.223112 1_555
Li8 N36 2.223112 1_555
Li8 N33 2.231751 1_555
Li8 N3 2.231751 1_555
Li8 N1 2.239171 1_555
Li8 N38 2.255251 1_565
Li9 N3 1.915700 1_555
Li9 N34 2.098313 1_555
Li9 N10 2.113614 1_565
Li10 N11 2.182997 1_545
Li10 N12 2.182997 1_554
Li10 N17 2.209111 1_555
Li10 N7 2.209111 1_544
Li10 N8 2.222970 1_545
Li10 N16 2.222970 1_554
Li11 N12 1.895347 1_565
Li11 N10 2.076597 1_565
Li11 N37 2.076597 1_565
Li12 N9 1.922695 1_545
Li12 N34 2.069082 1_545
Li12 N19 2.125176 1_555
Li13 N24 1.915700 1_555
Li13 N18 2.098313 1_555
Li13 N13 2.113614 1_545
Li14 N23 1.930403 1_655
Li14 N37 2.097928 1_555
Li14 N19 2.099071 1_555
Li15 N22 1.915700 1_455
Li15 N18 2.098313 1_555
Li15 N14 2.113614 1_545
Li16 N15 2.223112 1_555
Li16 N17 2.223112 1_555
Li16 N24 2.231751 1_555
Li16 N22 2.231751 1_555
Li16 N25 2.239171 1_555
Li16 N9 2.255251 1_545
Li17 N15 1.930403 1_455
Li17 N26 2.097928 1_555
Li17 N21 2.099071 1_555
Li18 N16 1.915700 1_555
Li18 N20 2.098313 1_555
Li18 N2 2.113614 1_555
Li19 N17 1.930403 1_555
Li19 N30 2.097928 1_555
Li19 N21 2.099071 1_555
Li20 N27 2.182997 1_555
Li20 N28 2.182997 1_555
Li20 N0 2.209111 1_555
Li20 N31 2.209111 1_555
Li20 N3 2.222970 1_555
Li20 N24 2.222970 1_555
Li21 N25 1.922695 1_555
Li21 N20 2.069082 1_554
Li21 N4 2.125176 1_554
Li22 N5 1.945896 1_555
Li22 N26 2.041990 1_555
Li22 N30 2.041990 1_555
Li22 N21 2.057339 1_555
Li23 N28 1.895347 1_555
Li23 N26 2.076597 1_555
Li23 N30 2.076597 1_555
Li24 N27 1.895347 1_555
Li24 N2 2.076597 1_555
Li24 N29 2.076597 1_555
Li25 N1 1.922695 1_555
Li25 N5 2.069082 1_556
Li25 N21 2.125176 1_556
Li26 N27 2.182997 1_455
Li26 N28 2.182997 1_555
Li26 N23 2.209111 1_555
Li26 N32 2.209111 1_455
Li26 N33 2.222970 1_555
Li26 N22 2.222970 1_455
Li27 N36 1.930403 1_655
Li27 N29 2.097928 1_555
Li27 N4 2.099071 1_555
Li28 N32 2.223112 1_555
Li28 N31 2.223112 1_555
Li28 N8 2.231751 1_555
Li28 N6 2.231751 1_555
Li28 N9 2.239171 1_555
Li28 N25 2.255251 1_555
Li29 N33 1.915700 1_655
Li29 N34 2.098313 1_555
Li29 N37 2.113614 1_565
Li30 N31 1.930403 1_555
Li30 N13 2.097928 1_555
Li30 N35 2.099071 1_555
Li31 N32 1.930403 1_455
Li31 N14 2.097928 1_555
Li31 N35 2.099071 1_555
Li32 N11 2.182997 1_545
Li32 N12 2.182997 1_454
Li32 N15 2.209111 1_455
Li32 N36 2.209111 1_544
Li32 N6 2.222970 1_445
Li32 N39 2.222970 1_554
Li33 N38 1.922695 1_565
Li33 N18 2.069082 1_565
Li33 N35 2.125176 1_555
Li34 N34 1.945896 1_555
Li34 N10 2.041990 1_565
Li34 N37 2.041990 1_565
Li34 N19 2.057339 1_565
Li35 N11 1.895347 1_545
Li35 N14 2.076597 1_545
Li35 N13 2.076597 1_545
Li36 N37 2.149694 1_555
Li36 N10 2.149694 1_555
Li36 N19 2.214346 1_555
Li37 N0 2.223112 1_555
Li37 N23 2.223112 1_555
Li37 N39 2.231751 1_555
Li37 N16 2.231751 1_555
Li37 N38 2.239171 1_555
Li37 N1 2.255251 1_555
Li38 N39 1.915700 1_655
Li38 N20 2.098313 1_555
Li38 N29 2.113614 1_555
Li39 N30 2.149694 1_555
Li39 N26 2.149694 1_555
Li39 N21 2.214346 1_555
N0 P0 1.680335 1_555
N0 P9 1.685290 1_555
N1 P0 1.688922 1_555
N1 P12 1.688922 1_555
N2 P0 1.604658 1_555
N3 P14 1.682518 1_555
N3 P0 1.687754 1_555
N4 P2 1.606793 1_556
N5 P1 1.603876 1_554
N6 P2 1.682518 1_555
N6 P5 1.687754 1_555
N7 P3 1.680335 1_565
N7 P1 1.685290 1_555
N8 P2 1.682518 1_555
N8 P4 1.687754 1_555
N9 P5 1.688922 1_555
N9 P4 1.688922 1_555
N10 P3 1.604658 1_555
N11 P1 1.675144 1_554
N11 P6 1.680727 1_564
N12 P7 1.675144 1_556
N12 P2 1.680727 1_546
N13 P4 1.604658 1_555
N14 P5 1.604658 1_455
N15 P5 1.680335 1_545
N15 P7 1.685290 1_555
N16 P6 1.682518 1_555
N16 P3 1.687754 1_555
N17 P4 1.680335 1_545
N17 P7 1.685290 1_555
N18 P9 1.603876 1_555
N19 P8 1.606793 1_555
N20 P7 1.603876 1_556
N21 P6 1.606793 1_554
N22 P8 1.682518 1_555
N22 P10 1.687754 1_555
N23 P12 1.680335 1_555
N23 P9 1.685290 1_555
N24 P8 1.682518 1_555
N24 P11 1.687754 1_555
N25 P11 1.688922 1_555
N25 P10 1.688922 1_555
N26 P10 1.604658 1_455
N27 P13 1.675144 1_555
N27 P8 1.680727 1_555
N28 P9 1.675144 1_555
N28 P14 1.680727 1_555
N29 P12 1.604658 1_655
N30 P11 1.604658 1_555
N31 P11 1.680335 1_555
N31 P13 1.685290 1_555
N32 P10 1.680335 1_555
N32 P13 1.685290 1_555
N33 P14 1.682518 1_555
N33 P12 1.687754 1_555
N34 P13 1.603876 1_555
N35 P14 1.606793 1_555
N36 P15 1.680335 1_565
N36 P1 1.685290 1_555
N37 P15 1.604658 1_655
N38 P3 1.688922 1_555
N38 P15 1.688922 1_555
N39 P6 1.682518 1_555
N39 P15 1.687754 1_555
