# generated using pymatgen
data_U8CrS17
_symmetry_space_group_name_H-M   'P 1'
_cell_length_a   7.89492045
_cell_length_b   7.87731675
_cell_length_c   10.47834274
_cell_angle_alpha   80.66201308
_cell_angle_beta   80.45829241
_cell_angle_gamma   64.81556935
_symmetry_Int_Tables_number   1
_chemical_formula_structural   U8CrS17
_chemical_formula_sum   'U8 Cr1 S17'
_cell_volume   578.47359666
_cell_formula_units_Z   1
loop_
 _symmetry_equiv_pos_site_id
 _symmetry_equiv_pos_as_xyz
  1  'x, y, z'
loop_
 _atom_site_type_symbol
 _atom_site_label
 _atom_site_symmetry_multiplicity
 _atom_site_fract_x
 _atom_site_fract_y
 _atom_site_fract_z
 _atom_site_occupancy
  U  U0  1  0.81630761  0.30099570  0.29903074  1
  U  U1  1  0.69790714  0.18392161  0.70393348  1
  U  U2  1  0.18379422  0.69889472  0.70082998  1
  U  U3  1  0.30222344  0.81594949  0.29624686  1
  U  U4  1  0.20613354  0.20634422  0.54537794  1
  U  U5  1  0.79421703  0.79343154  0.45498272  1
  U  U6  1  0.67954176  0.67857120  0.97908620  1
  U  U7  1  0.32039837  0.32164867  0.02081380  1
  Cr  Cr0  1  -0.00017190  0.00011817  0.00007796  1
  S  S0  1  0.82301979  0.43240162  0.53373049  1
  S  S1  1  0.56920999  0.17580386  0.46635598  1
  S  S2  1  0.17707467  0.56741226  0.46585374  1
  S  S3  1  0.43077606  0.82444301  0.53326344  1
  S  S4  1  0.94432094  0.32129058  0.02904816  1
  S  S5  1  0.67857542  0.05577430  0.97350585  1
  S  S6  1  0.05546000  0.67896251  0.97102132  1
  S  S7  1  0.32130267  0.94410265  0.02668610  1
  S  S8  1  0.21230212  0.20717898  0.27983070  1
  S  S9  1  0.78692996  0.79321802  0.72014817  1
  S  S10  1  0.05315446  0.05813187  0.77440640  1
  S  S11  1  0.94637193  0.94243452  0.22565898  1
  S  S12  1  0.30412516  0.29899955  0.75708000  1
  S  S13  1  0.69640838  0.70041986  0.24292894  1
  S  S14  1  0.52352930  0.51928726  0.83041278  1
  S  S15  1  0.47699870  0.48027395  0.16975538  1
  S  S16  1  0.00008522  -0.00001112  0.49993586  1
loop_
_geom_bond_atom_site_label_1
_geom_bond_atom_site_label_2
_geom_bond_distance
_geom_bond_site_symmetry_2
Cr0 S11 2.335737 1_445
Cr0 S10 2.336821 1_554
Cr0 S6 2.438380 1_544
Cr0 S4 2.438549 1_455
Cr0 S5 2.439372 1_454
Cr0 S7 2.440394 1_545
S0 U5 2.751526 1_555
S0 U4 2.793268 1_655
S0 U1 2.813567 1_555
S0 U0 2.835184 1_555
S1 U4 2.766035 1_555
S1 U5 2.781172 1_545
S1 U0 2.791867 1_555
S1 U1 2.859927 1_555
S2 U4 2.752390 1_555
S2 U5 2.790600 1_455
S2 U3 2.811172 1_555
S2 U2 2.838206 1_555
S3 U5 2.766547 1_555
S3 U4 2.778531 1_565
S3 U2 2.793878 1_555
S3 U3 2.854797 1_555
S4 U6 2.728080 1_554
S4 U0 2.844804 1_555
S4 U7 2.957217 1_655
S5 U7 2.731351 1_556
S5 U1 2.843227 1_555
S5 U6 2.959199 1_545
S6 U7 2.728439 1_556
S6 U2 2.847243 1_555
S6 U6 2.956316 1_455
S7 U6 2.731136 1_554
S7 U3 2.843045 1_555
S7 U7 2.961671 1_565
S8 U4 2.773825 1_555
S8 U7 2.828497 1_555
S8 U3 2.835091 1_545
S8 U0 2.869503 1_455
S9 U5 2.769281 1_555
S9 U6 2.826643 1_555
S9 U1 2.832668 1_565
S9 U2 2.875291 1_655
S10 U1 2.734445 1_455
S10 U2 2.761603 1_545
S10 U4 2.812633 1_555
S11 U3 2.738631 1_655
S11 U0 2.756425 1_565
S11 U5 2.814691 1_555
S12 U4 2.761695 1_555
S12 U7 2.825323 1_556
S12 U1 2.826367 1_555
S12 U2 2.865178 1_555
S13 U5 2.765668 1_555
S13 U6 2.826044 1_554
S13 U3 2.829039 1_555
S13 U0 2.861968 1_555
S14 U1 2.840197 1_555
S14 U6 2.846771 1_555
S14 U2 2.897210 1_555
S14 U7 3.005368 1_556
S15 U3 2.842255 1_555
S15 U7 2.848314 1_555
S15 U0 2.892737 1_555
S15 U6 3.007072 1_554
S16 U5 2.874764 1_445
S16 U4 2.876418 1_555
S16 U0 2.936648 1_455
S16 U2 2.936757 1_545
S16 U3 2.952990 1_545
S16 U1 2.955081 1_455
