# generated using pymatgen
data_Na3Ga(PO4)2
_symmetry_space_group_name_H-M   'P 1'
_cell_length_a   8.98074000
_cell_length_b   9.00895545
_cell_length_c   9.37548127
_cell_angle_alpha   89.24144943
_cell_angle_beta   70.94802078
_cell_angle_gamma   87.75131707
_symmetry_Int_Tables_number   1
_chemical_formula_structural   Na3Ga(PO4)2
_chemical_formula_sum   'Na12 Ga4 P8 O32'
_cell_volume   716.43983886
_cell_formula_units_Z   4
loop_
 _symmetry_equiv_pos_site_id
 _symmetry_equiv_pos_as_xyz
  1  'x, y, z'
loop_
 _atom_site_type_symbol
 _atom_site_label
 _atom_site_symmetry_multiplicity
 _atom_site_fract_x
 _atom_site_fract_y
 _atom_site_fract_z
 _atom_site_occupancy
  Na  Na0  1  0.65492300  0.75013000  0.87084200  1
  Na  Na1  1  0.30803600  0.90792200  0.06910200  1
  Na  Na2  1  0.04952800  0.58212700  0.81722700  1
  Na  Na3  1  0.69196400  0.09207800  0.93089800  1
  Na  Na4  1  0.10079200  0.70062200  0.41223100  1
  Na  Na5  1  0.35066600  0.76111100  0.67728600  1
  Na  Na6  1  0.34507700  0.24987000  0.12915800  1
  Na  Na7  1  0.92661100  0.83640200  0.10815600  1
  Na  Na8  1  0.07338900  0.16359800  0.89184400  1
  Na  Na9  1  0.95047200  0.41787300  0.18277300  1
  Na  Na10  1  0.89920800  0.29937800  0.58776900  1
  Na  Na11  1  0.64933400  0.23888900  0.32271400  1
  Ga  Ga0  1  0.47905700  0.58163100  0.24568000  1
  Ga  Ga1  1  0.74803500  0.92008100  0.48888800  1
  Ga  Ga2  1  0.52094300  0.41836900  0.75432000  1
  Ga  Ga3  1  0.25196500  0.07991900  0.51111200  1
  P  P0  1  0.03063800  0.09147800  0.28948500  1
  P  P1  1  0.27826000  0.59079000  0.01607200  1
  P  P2  1  0.53437500  0.92622200  0.26598100  1
  P  P3  1  0.46562500  0.07377800  0.73401900  1
  P  P4  1  0.71524800  0.58632700  0.45361100  1
  P  P5  1  0.72174000  0.40921000  0.98392800  1
  P  P6  1  0.96936200  0.90852200  0.71051500  1
  P  P7  1  0.28475200  0.41367300  0.54638900  1
  O  O0  1  0.96199600  0.93541100  0.35694700  1
  O  O1  1  0.90455700  0.92574200  0.88319300  1
  O  O2  1  0.55406400  0.41725400  0.11469600  1
  O  O3  1  0.09593700  0.78470400  0.65284200  1
  O  O4  1  0.30230900  0.52605000  0.41264100  1
  O  O5  1  0.88907600  0.60474000  0.36598300  1
  O  O6  1  0.69769100  0.47395000  0.58735900  1
  O  O7  1  0.36844500  0.48130800  0.65054400  1
  O  O8  1  0.63366300  0.73875100  0.52338000  1
  O  O9  1  0.44593600  0.58274600  0.88530400  1
  O  O10  1  0.09544300  0.07425800  0.11680700  1
  O  O11  1  0.43095000  0.23022700  0.81084400  1
  O  O12  1  0.31264800  0.65621900  0.15674900  1
  O  O13  1  0.61430400  0.08482100  0.58894300  1
  O  O14  1  0.49312800  0.95822200  0.84421200  1
  O  O15  1  0.50687200  0.04177800  0.15578800  1
  O  O16  1  0.20888400  0.43699600  0.04541600  1
  O  O17  1  0.31632300  0.03327600  0.69442700  1
  O  O18  1  0.11092400  0.39526000  0.63401700  1
  O  O19  1  0.82780800  0.29310600  0.03039000  1
  O  O20  1  0.17219200  0.70689400  0.96961000  1
  O  O21  1  0.38569600  0.91517900  0.41105700  1
  O  O22  1  0.36633700  0.26124900  0.47662000  1
  O  O23  1  0.63155500  0.51869200  0.34945600  1
  O  O24  1  0.82368200  0.87806900  0.65911300  1
  O  O25  1  0.68735200  0.34378100  0.84325100  1
  O  O26  1  0.68367700  0.96672400  0.30557300  1
  O  O27  1  0.03800400  0.06458900  0.64305300  1
  O  O28  1  0.90406300  0.21529600  0.34715800  1
  O  O29  1  0.56905000  0.76977300  0.18915600  1
  O  O30  1  0.79111600  0.56300400  0.95458400  1
  O  O31  1  0.17631800  0.12193100  0.34088700  1
loop_
_geom_bond_atom_site_label_1
_geom_bond_atom_site_label_2
_geom_bond_distance
_geom_bond_site_symmetry_2
Na0 O30 2.320443 1_555
Na0 O24 2.382922 1_555
Na0 O14 2.387218 1_555
Na0 O9 2.421870 1_555
Na0 O1 2.827572 1_555
Na0 O29 2.834274 1_556
Na1 O14 2.271504 1_554
Na1 O10 2.307929 1_565
Na1 O12 2.405077 1_555
Na1 O15 2.538863 1_565
Na1 O20 2.568928 1_554
Na2 O30 2.268976 1_455
Na2 O3 2.333556 1_555
Na2 O18 2.339648 1_555
Na2 O20 2.384371 1_555
Na2 O7 2.895101 1_555
Na3 O15 2.271504 1_556
Na3 O1 2.307929 1_545
Na3 O25 2.405077 1_555
Na3 O14 2.538863 1_545
Na3 O19 2.568928 1_556
Na4 O5 2.286127 1_455
Na4 O4 2.351539 1_555
Na4 O3 2.375493 1_555
Na4 O0 2.546043 1_455
Na4 O12 2.551021 1_555
Na5 O3 2.373581 1_555
Na5 O17 2.460001 1_565
Na5 O8 2.480995 1_555
Na5 O7 2.530111 1_555
Na5 O20 2.734423 1_555
Na5 O21 2.772278 1_555
Na5 O9 2.831284 1_555
Na5 O14 2.966239 1_555
Na6 O16 2.320443 1_555
Na6 O31 2.382922 1_555
Na6 O15 2.387218 1_555
Na6 O2 2.421870 1_555
Na6 O10 2.827572 1_555
Na6 O11 2.834274 1_554
Na7 O1 2.313168 1_554
Na7 O20 2.425001 1_654
Na7 O26 2.604679 1_555
Na7 O0 2.626512 1_555
Na7 O10 2.690194 1_665
Na8 O10 2.313168 1_556
Na8 O19 2.425001 1_456
Na8 O17 2.604679 1_555
Na8 O27 2.626512 1_555
Na8 O1 2.690194 1_445
Na9 O16 2.268976 1_655
Na9 O28 2.333556 1_555
Na9 O5 2.339648 1_555
Na9 O19 2.384371 1_555
Na9 O23 2.895101 1_555
Na10 O18 2.286127 1_655
Na10 O6 2.351539 1_555
Na10 O28 2.375493 1_555
Na10 O27 2.546043 1_655
Na10 O25 2.551021 1_555
Na11 O28 2.373581 1_555
Na11 O26 2.460001 1_545
Na11 O22 2.480995 1_555
Na11 O23 2.530111 1_555
Na11 O19 2.734423 1_555
Na11 O13 2.772278 1_555
Na11 O2 2.831284 1_555
Na11 O15 2.966239 1_555
Ga0 O2 1.893308 1_555
Ga0 O29 1.900271 1_555
Ga0 O4 1.907904 1_555
Ga0 O23 1.984482 1_555
Ga0 O12 2.024848 1_555
Ga1 O13 1.920027 1_565
Ga1 O0 1.925109 1_555
Ga1 O8 1.931079 1_555
Ga1 O24 1.955374 1_555
Ga1 O26 2.018610 1_555
Ga2 O9 1.893308 1_555
Ga2 O11 1.900271 1_555
Ga2 O6 1.907904 1_555
Ga2 O7 1.984482 1_555
Ga2 O25 2.024848 1_555
Ga3 O21 1.920027 1_545
Ga3 O27 1.925109 1_555
Ga3 O22 1.931079 1_555
Ga3 O31 1.955374 1_555
Ga3 O17 2.018610 1_555
O0 P0 1.595876 1_665
O1 P6 1.538892 1_555
O2 P5 1.601391 1_554
O3 P6 1.531015 1_455
O4 P7 1.572273 1_555
O5 P4 1.522802 1_555
O6 P4 1.572273 1_555
O7 P7 1.555839 1_555
O8 P4 1.575523 1_555
O9 P1 1.601391 1_556
O10 P0 1.538892 1_555
O11 P3 1.564703 1_555
O12 P1 1.575801 1_555
O13 P3 1.569706 1_555
O14 P3 1.526443 1_565
O15 P2 1.526443 1_545
O16 P1 1.526203 1_555
O17 P3 1.560671 1_555
O18 P7 1.522802 1_555
O19 P5 1.540080 1_554
O20 P1 1.540080 1_556
O21 P2 1.569706 1_555
O22 P7 1.575523 1_555
O23 P4 1.555839 1_555
O24 P6 1.569232 1_555
O25 P5 1.575801 1_555
O26 P2 1.560671 1_555
O27 P6 1.595876 1_445
O28 P0 1.531015 1_655
O29 P2 1.564703 1_555
O30 P5 1.526203 1_555
O31 P0 1.569232 1_555
