# generated using pymatgen
data_K2Hg3S3O10
_symmetry_space_group_name_H-M   'P 1'
_cell_length_a   7.65286500
_cell_length_b   8.03130500
_cell_length_c   21.21282100
_cell_angle_alpha   90.00000000
_cell_angle_beta   90.00000000
_cell_angle_gamma   90.00000000
_symmetry_Int_Tables_number   1
_chemical_formula_structural   K2Hg3S3O10
_chemical_formula_sum   'K8 Hg12 S12 O40'
_cell_volume   1303.79286093
_cell_formula_units_Z   4
loop_
 _symmetry_equiv_pos_site_id
 _symmetry_equiv_pos_as_xyz
  1  'x, y, z'
loop_
 _atom_site_type_symbol
 _atom_site_label
 _atom_site_symmetry_multiplicity
 _atom_site_fract_x
 _atom_site_fract_y
 _atom_site_fract_z
 _atom_site_occupancy
  K  K0  1  0.36159900  0.36449600  0.55976800  1
  K  K1  1  0.13840100  0.86449600  0.44023200  1
  K  K2  1  0.63840100  0.63550400  0.44023200  1
  K  K3  1  0.86159900  0.13550400  0.55976800  1
  K  K4  1  0.63840100  0.63550400  0.05976800  1
  K  K5  1  0.86159900  0.13550400  0.94023200  1
  K  K6  1  0.13840100  0.86449600  0.05976800  1
  K  K7  1  0.36159900  0.36449600  0.94023200  1
  Hg  Hg0  1  0.72958700  0.72994900  0.82954200  1
  Hg  Hg1  1  0.05670100  0.41104600  0.75000000  1
  Hg  Hg2  1  0.77041300  0.22994900  0.17045800  1
  Hg  Hg3  1  0.44329900  0.91104600  0.25000000  1
  Hg  Hg4  1  0.27041300  0.27005100  0.32954200  1
  Hg  Hg5  1  0.22958700  0.77005100  0.82954200  1
  Hg  Hg6  1  0.27041300  0.27005100  0.17045800  1
  Hg  Hg7  1  0.77041300  0.22994900  0.32954200  1
  Hg  Hg8  1  0.55670100  0.08895400  0.75000000  1
  Hg  Hg9  1  0.22958700  0.77005100  0.67045800  1
  Hg  Hg10  1  0.72958700  0.72994900  0.67045800  1
  Hg  Hg11  1  0.94329900  0.58895400  0.25000000  1
  S  S0  1  0.99024300  0.88287400  0.25000000  1
  S  S1  1  0.86768800  0.58977400  0.91680500  1
  S  S2  1  0.13231200  0.41022600  0.08319500  1
  S  S3  1  0.63231200  0.08977400  0.41680500  1
  S  S4  1  0.86768800  0.58977400  0.58319500  1
  S  S5  1  0.13231200  0.41022600  0.41680500  1
  S  S6  1  0.63231200  0.08977400  0.08319500  1
  S  S7  1  0.36768800  0.91022600  0.58319500  1
  S  S8  1  0.50975700  0.38287400  0.75000000  1
  S  S9  1  0.00975700  0.11712600  0.75000000  1
  S  S10  1  0.36768800  0.91022600  0.91680500  1
  S  S11  1  0.49024300  0.61712600  0.25000000  1
  O  O0  1  0.08824800  0.92631100  0.19184800  1
  O  O1  1  0.47933500  0.99865000  0.10928800  1
  O  O2  1  0.58988700  0.82779300  0.75000000  1
  O  O3  1  0.91175200  0.07368900  0.80815200  1
  O  O4  1  0.08332700  0.28064900  0.03722400  1
  O  O5  1  0.26666900  0.52625900  0.05865600  1
  O  O6  1  0.41667300  0.78064900  0.96277600  1
  O  O7  1  0.91175200  0.07368900  0.69184800  1
  O  O8  1  0.58332700  0.21935100  0.46277600  1
  O  O9  1  0.08988700  0.67220700  0.75000000  1
  O  O10  1  0.97933500  0.50135000  0.10928800  1
  O  O11  1  0.08824800  0.92631100  0.30815200  1
  O  O12  1  0.91667300  0.71935100  0.53722400  1
  O  O13  1  0.52066500  0.00135000  0.89071200  1
  O  O14  1  0.41011300  0.17220700  0.25000000  1
  O  O15  1  0.23333100  0.02625900  0.55865600  1
  O  O16  1  0.58824800  0.57368900  0.19184800  1
  O  O17  1  0.73333100  0.47374100  0.55865600  1
  O  O18  1  0.02066500  0.49865000  0.89071200  1
  O  O19  1  0.52066500  0.00135000  0.60928800  1
  O  O20  1  0.68806000  0.45702500  0.75000000  1
  O  O21  1  0.41175200  0.42631100  0.80815200  1
  O  O22  1  0.47933500  0.99865000  0.39071200  1
  O  O23  1  0.73333100  0.47374100  0.94134400  1
  O  O24  1  0.76666900  0.97374100  0.05865600  1
  O  O25  1  0.02066500  0.49865000  0.60928800  1
  O  O26  1  0.18806000  0.04297500  0.75000000  1
  O  O27  1  0.41175200  0.42631100  0.69184800  1
  O  O28  1  0.58332700  0.21935100  0.03722400  1
  O  O29  1  0.91667300  0.71935100  0.96277600  1
  O  O30  1  0.91011300  0.32779300  0.25000000  1
  O  O31  1  0.26666900  0.52625900  0.44134400  1
  O  O32  1  0.08332700  0.28064900  0.46277600  1
  O  O33  1  0.41667300  0.78064900  0.53722400  1
  O  O34  1  0.58824800  0.57368900  0.30815200  1
  O  O35  1  0.81194000  0.95702500  0.25000000  1
  O  O36  1  0.23333100  0.02625900  0.94134400  1
  O  O37  1  0.76666900  0.97374100  0.44134400  1
  O  O38  1  0.97933500  0.50135000  0.39071200  1
  O  O39  1  0.31194000  0.54297500  0.25000000  1
loop_
_geom_bond_atom_site_label_1
_geom_bond_atom_site_label_2
_geom_bond_distance
_geom_bond_site_symmetry_2
K0 O27 2.871203 1_555
K0 O15 2.888497 1_555
K0 O8 2.910563 1_555
K0 O31 2.919983 1_555
K0 O17 2.977133 1_555
K0 O25 3.011950 1_555
K0 O32 3.036737 1_555
K0 O19 3.330389 1_555
K0 O33 3.402497 1_555
K1 O11 2.871203 1_555
K1 O31 2.888497 1_555
K1 O12 2.910563 1_455
K1 O15 2.919983 1_565
K1 O37 2.977133 1_455
K1 O22 3.011950 1_555
K1 O33 3.036737 1_555
K1 O38 3.330389 1_455
K1 O32 3.402497 1_565
K2 O34 2.871203 1_555
K2 O37 2.888497 1_555
K2 O33 2.910563 1_555
K2 O17 2.919983 1_555
K2 O31 2.977133 1_555
K2 O38 3.011950 1_555
K2 O12 3.036737 1_555
K2 O22 3.330389 1_555
K2 O8 3.402497 1_555
K3 O7 2.871203 1_555
K3 O17 2.888497 1_555
K3 O32 2.910563 1_655
K3 O37 2.919983 1_545
K3 O15 2.977133 1_655
K3 O19 3.011950 1_555
K3 O8 3.036737 1_555
K3 O25 3.330389 1_655
K3 O12 3.402497 1_545
K4 O16 2.871203 1_555
K4 O24 2.888497 1_555
K4 O6 2.910563 1_554
K4 O23 2.919983 1_554
K4 O5 2.977133 1_555
K4 O10 3.011950 1_555
K4 O29 3.036737 1_554
K4 O1 3.330389 1_555
K4 O28 3.402497 1_555
K5 O3 2.871203 1_555
K5 O23 2.888497 1_555
K5 O4 2.910563 1_656
K5 O24 2.919983 1_546
K5 O36 2.977133 1_655
K5 O13 3.011950 1_555
K5 O28 3.036737 1_556
K5 O18 3.330389 1_655
K5 O29 3.402497 1_545
K6 O0 2.871203 1_555
K6 O5 2.888497 1_555
K6 O29 2.910563 1_454
K6 O36 2.919983 1_564
K6 O24 2.977133 1_455
K6 O1 3.011950 1_555
K6 O6 3.036737 1_554
K6 O10 3.330389 1_455
K6 O4 3.402497 1_565
K7 O21 2.871203 1_555
K7 O36 2.888497 1_555
K7 O28 2.910563 1_556
K7 O5 2.919983 1_556
K7 O23 2.977133 1_555
K7 O18 3.011950 1_555
K7 O4 3.036737 1_556
K7 O13 3.330389 1_555
K7 O6 3.402497 1_555
Hg0 O2 2.146510 1_555
Hg0 S1 2.410585 1_555
Hg1 O9 2.112783 1_555
Hg1 S9 2.387742 1_555
Hg2 O30 2.146510 1_555
Hg2 S6 2.410585 1_555
Hg3 O14 2.112783 1_565
Hg3 S11 2.387742 1_555
Hg4 O14 2.146510 1_555
Hg4 S5 2.410585 1_555
Hg5 O9 2.146510 1_555
Hg5 S10 2.410585 1_555
Hg6 O14 2.146510 1_555
Hg6 S2 2.410585 1_555
Hg7 O30 2.146510 1_555
Hg7 S3 2.410585 1_555
Hg8 O2 2.112783 1_545
Hg8 S8 2.387742 1_555
Hg9 O9 2.146510 1_555
Hg9 S7 2.410585 1_555
Hg10 O2 2.146510 1_555
Hg10 S4 2.410585 1_555
Hg11 O30 2.112783 1_555
Hg11 S0 2.387742 1_555
O0 S0 1.485234 1_455
O1 S6 1.487459 1_565
O3 S9 1.485234 1_655
O4 S2 1.474617 1_555
O5 S2 1.482101 1_555
O6 S10 1.474617 1_555
O7 S9 1.485234 1_655
O8 S3 1.474617 1_555
O10 S2 1.487459 1_655
O11 S0 1.485234 1_455
O12 S4 1.474617 1_555
O13 S10 1.487459 1_545
O15 S7 1.482101 1_545
O16 S11 1.485234 1_555
O17 S4 1.482101 1_555
O18 S1 1.487459 1_455
O19 S7 1.487459 1_545
O20 S8 1.488823 1_555
O21 S8 1.485234 1_555
O22 S3 1.487459 1_565
O23 S1 1.482101 1_555
O24 S6 1.482101 1_565
O25 S4 1.487459 1_455
O26 S9 1.488823 1_555
O27 S8 1.485234 1_555
O28 S6 1.474617 1_555
O29 S1 1.474617 1_555
O31 S5 1.482101 1_555
O32 S5 1.474617 1_555
O33 S7 1.474617 1_555
O34 S11 1.485234 1_555
O35 S0 1.488823 1_555
O36 S10 1.482101 1_545
O37 S3 1.482101 1_565
O38 S5 1.487459 1_655
O39 S11 1.488823 1_555
