# generated using pymatgen
data_VPd3
_symmetry_space_group_name_H-M   'P 1'
_cell_length_a   3.87985020
_cell_length_b   3.89056727
_cell_length_c   3.89081456
_cell_angle_alpha   90.00000000
_cell_angle_beta   90.00000000
_cell_angle_gamma   90.00000000
_symmetry_Int_Tables_number   1
_chemical_formula_structural   VPd3
_chemical_formula_sum   'V1 Pd3'
_cell_volume   58.73113844
_cell_formula_units_Z   1
loop_
 _symmetry_equiv_pos_site_id
 _symmetry_equiv_pos_as_xyz
  1  'x, y, z'
loop_
 _atom_site_type_symbol
 _atom_site_label
 _atom_site_symmetry_multiplicity
 _atom_site_fract_x
 _atom_site_fract_y
 _atom_site_fract_z
 _atom_site_occupancy
  V  V0  1  0.00000000  -0.00000000  -0.00000000  1
  Pd  Pd0  1  0.00000000  0.50000000  0.50000000  1
  Pd  Pd1  1  0.50000000  -0.00000000  0.50000000  1
  Pd  Pd2  1  0.50000000  0.50000000  0.00000000  1
loop_
_geom_bond_atom_site_label_1
_geom_bond_atom_site_label_2
_geom_bond_distance
_geom_bond_site_symmetry_2
Pd0 Pd1 2.747260 1_455
Pd0 Pd1 2.747260 1_465
Pd0 Pd1 2.747260 1_555
Pd0 Pd1 2.747260 1_565
Pd0 Pd2 2.747348 1_456
Pd0 Pd2 2.747348 1_455
Pd0 Pd2 2.747348 1_556
Pd0 Pd2 2.747348 1_555
Pd0 V0 2.751134 1_556
Pd0 V0 2.751134 1_565
Pd0 V0 2.751134 1_566
Pd0 V0 2.751134 1_555
Pd1 V0 2.747348 1_656
Pd1 V0 2.747348 1_655
Pd1 V0 2.747348 1_555
Pd1 V0 2.747348 1_556
Pd1 Pd2 2.751134 1_546
Pd1 Pd2 2.751134 1_545
Pd1 Pd2 2.751134 1_556
Pd1 Pd2 2.751134 1_555
Pd2 V0 2.747260 1_565
Pd2 V0 2.747260 1_655
Pd2 V0 2.747260 1_665
Pd2 V0 2.747260 1_555
