# generated using pymatgen
data_Gd2Fe2I
_symmetry_space_group_name_H-M   'P 1'
_cell_length_a   3.97781035
_cell_length_b   3.97781053
_cell_length_c   17.34530094
_cell_angle_alpha   90.00000000
_cell_angle_beta   90.00000000
_cell_angle_gamma   119.99999839
_symmetry_Int_Tables_number   1
_chemical_formula_structural   Gd2Fe2I
_chemical_formula_sum   'Gd4 Fe4 I2'
_cell_volume   237.68438164
_cell_formula_units_Z   2
loop_
 _symmetry_equiv_pos_site_id
 _symmetry_equiv_pos_as_xyz
  1  'x, y, z'
loop_
 _atom_site_type_symbol
 _atom_site_label
 _atom_site_symmetry_multiplicity
 _atom_site_fract_x
 _atom_site_fract_y
 _atom_site_fract_z
 _atom_site_occupancy
  Gd  Gd0  1  0.00000000  0.00000000  0.39422398  1
  Gd  Gd1  1  0.00000000  0.00000000  0.10577602  1
  Gd  Gd2  1  0.00000000  0.00000000  0.60577602  1
  Gd  Gd3  1  0.00000000  0.00000000  0.89422398  1
  Fe  Fe0  1  0.66666700  0.33333300  0.99442533  1
  Fe  Fe1  1  0.33333300  0.66666700  0.49442533  1
  Fe  Fe2  1  0.66666700  0.33333300  0.50557467  1
  Fe  Fe3  1  0.33333300  0.66666700  0.00557467  1
  I  I0  1  0.66666700  0.33333300  0.25000000  1
  I  I1  1  0.33333300  0.66666700  0.75000000  1
loop_
_geom_bond_atom_site_label_1
_geom_bond_atom_site_label_2
_geom_bond_distance
_geom_bond_site_symmetry_2
Gd0 I0 3.395933 1_455
Gd0 I0 3.395935 1_555
Gd0 I0 3.395935 1_445
Gd1 I0 3.395933 1_455
Gd1 I0 3.395935 1_555
Gd1 I0 3.395935 1_445
Gd2 I1 3.395933 1_545
Gd2 I1 3.395935 1_445
Gd2 I1 3.395935 1_555
Gd3 I1 3.395933 1_545
Gd3 I1 3.395935 1_445
Gd3 I1 3.395935 1_555
Fe0 Fe3 2.304716 1_656
Fe0 Fe3 2.304716 1_546
Fe0 Fe3 2.304722 1_556
Fe0 Gd3 2.880111 1_655
Fe0 Gd3 2.880113 1_555
Fe0 Gd3 2.880113 1_665
Fe0 Gd1 3.000777 1_656
Fe0 Gd1 3.000780 1_556
Fe0 Gd1 3.000780 1_666
Fe1 Fe2 2.304716 1_455
Fe1 Fe2 2.304716 1_565
Fe1 Fe2 2.304722 1_555
Fe1 Gd0 2.880111 1_565
Fe1 Gd0 2.880113 1_665
Fe1 Gd0 2.880113 1_555
Fe1 Gd2 3.000777 1_565
Fe1 Gd2 3.000780 1_665
Fe1 Gd2 3.000780 1_555
Fe2 Gd2 2.880111 1_655
Fe2 Gd2 2.880113 1_555
Fe2 Gd2 2.880113 1_665
Fe2 Gd0 3.000777 1_655
Fe2 Gd0 3.000780 1_555
Fe2 Gd0 3.000780 1_665
Fe3 Gd1 2.880111 1_565
Fe3 Gd1 2.880113 1_665
Fe3 Gd1 2.880113 1_555
Fe3 Gd3 3.000777 1_564
Fe3 Gd3 3.000780 1_664
Fe3 Gd3 3.000780 1_554
