# generated using pymatgen
data_Rb3As11
_symmetry_space_group_name_H-M   'P 1'
_cell_length_a   10.87477383
_cell_length_b   11.33417500
_cell_length_c   15.44335771
_cell_angle_alpha   90.00000000
_cell_angle_beta   90.00000000
_cell_angle_gamma   90.00000000
_symmetry_Int_Tables_number   1
_chemical_formula_structural   Rb3As11
_chemical_formula_sum   'Rb12 As44'
_cell_volume   1903.49560446
_cell_formula_units_Z   4
loop_
 _symmetry_equiv_pos_site_id
 _symmetry_equiv_pos_as_xyz
  1  'x, y, z'
loop_
 _atom_site_type_symbol
 _atom_site_label
 _atom_site_symmetry_multiplicity
 _atom_site_fract_x
 _atom_site_fract_y
 _atom_site_fract_z
 _atom_site_occupancy
  Rb  Rb0  1  0.25000000  -0.00000000  0.80403159  1
  Rb  Rb1  1  0.75000000  0.50000000  0.69596841  1
  Rb  Rb2  1  0.75000000  -0.00000000  0.19596841  1
  Rb  Rb3  1  0.25000000  0.50000000  0.30403159  1
  Rb  Rb4  1  0.40552496  0.27822155  0.01839200  1
  Rb  Rb5  1  0.90552496  0.22177845  0.48160800  1
  Rb  Rb6  1  0.59447504  0.77822155  0.48160800  1
  Rb  Rb7  1  0.09447504  0.72177845  0.01839200  1
  Rb  Rb8  1  0.59447504  0.72177845  0.98160800  1
  Rb  Rb9  1  0.09447504  0.77822155  0.51839200  1
  Rb  Rb10  1  0.40552496  0.22177845  0.51839200  1
  Rb  Rb11  1  0.90552496  0.27822155  0.98160800  1
  As  As0  1  0.22601465  0.18361169  0.24200672  1
  As  As1  1  0.72601465  0.31638831  0.25799328  1
  As  As2  1  0.77398535  0.68361169  0.25799328  1
  As  As3  1  0.27398535  0.81638831  0.24200672  1
  As  As4  1  0.77398535  0.81638831  0.75799328  1
  As  As5  1  0.27398535  0.68361169  0.74200672  1
  As  As6  1  0.22601465  0.31638831  0.74200672  1
  As  As7  1  0.72601465  0.18361169  0.75799328  1
  As  As8  1  0.43763346  0.11124309  0.21468862  1
  As  As9  1  0.93763346  0.38875691  0.28531138  1
  As  As10  1  0.56236654  0.61124309  0.28531138  1
  As  As11  1  0.06236654  0.88875691  0.21468862  1
  As  As12  1  0.56236654  0.88875691  0.78531138  1
  As  As13  1  0.06236654  0.61124309  0.71468862  1
  As  As14  1  0.43763346  0.38875691  0.71468862  1
  As  As15  1  0.93763346  0.11124309  0.78531138  1
  As  As16  1  0.17368708  0.07993671  0.37857945  1
  As  As17  1  0.67368708  0.42006329  0.12142055  1
  As  As18  1  0.82631292  0.57993671  0.12142055  1
  As  As19  1  0.32631292  0.92006329  0.37857945  1
  As  As20  1  0.82631292  0.92006329  0.62142055  1
  As  As21  1  0.32631292  0.57993671  0.87857945  1
  As  As22  1  0.17368708  0.42006329  0.87857945  1
  As  As23  1  0.67368708  0.07993671  0.62142055  1
  As  As24  1  0.10184168  0.07277246  0.13483128  1
  As  As25  1  0.60184168  0.42722754  0.36516872  1
  As  As26  1  0.89815832  0.57277246  0.36516872  1
  As  As27  1  0.39815832  0.92722754  0.13483128  1
  As  As28  1  0.89815832  0.92722754  0.86516872  1
  As  As29  1  0.39815832  0.57277246  0.63483128  1
  As  As30  1  0.10184168  0.42722754  0.63483128  1
  As  As31  1  0.60184168  0.07277246  0.86516872  1
  As  As32  1  0.00777991  0.46733609  0.15033135  1
  As  As33  1  0.50777991  0.03266391  0.34966865  1
  As  As34  1  0.99222009  0.96733609  0.34966865  1
  As  As35  1  0.49222009  0.53266391  0.15033135  1
  As  As36  1  0.99222009  0.53266391  0.84966865  1
  As  As37  1  0.49222009  0.96733609  0.65033135  1
  As  As38  1  0.00777991  0.03266391  0.65033135  1
  As  As39  1  0.50777991  0.46733609  0.84966865  1
  As  As40  1  0.25000000  -0.00000000  0.03275111  1
  As  As41  1  0.75000000  0.50000000  0.46724889  1
  As  As42  1  0.75000000  -0.00000000  0.96724889  1
  As  As43  1  0.25000000  0.50000000  0.53275111  1
loop_
_geom_bond_atom_site_label_1
_geom_bond_atom_site_label_2
_geom_bond_distance
_geom_bond_site_symmetry_2
As0 As24 2.478142 1_555
As0 As8 2.479272 1_555
As0 As16 2.480542 1_555
As0 Rb3 3.720881 1_555
As1 As25 2.478142 1_555
As1 As9 2.479272 1_555
As1 As17 2.480542 1_555
As1 Rb2 3.720881 1_555
As2 As26 2.478142 1_555
As2 Rb2 3.720881 1_565
As3 Rb3 3.720881 1_555
As4 Rb1 3.720881 1_555
As5 Rb0 3.720881 1_565
As6 Rb0 3.720881 1_555
As7 Rb1 3.720881 1_555
As8 Rb4 3.590763 1_555
As8 Rb2 3.634880 1_555
As9 Rb5 3.590763 1_555
As9 Rb3 3.634880 1_655
As10 As35 2.391747 1_555
As10 As25 2.460736 1_555
As10 As2 2.479272 1_555
As10 Rb6 3.590763 1_555
As10 Rb3 3.634880 1_555
As11 As34 2.391747 1_455
As11 As24 2.460736 1_565
As11 As3 2.479272 1_555
As11 Rb7 3.590763 1_555
As11 Rb2 3.634880 1_465
As12 As37 2.391747 1_555
As12 As31 2.460736 1_565
As12 As4 2.479272 1_555
As12 Rb8 3.590763 1_555
As12 Rb0 3.634880 1_565
As13 As36 2.391747 1_455
As13 As30 2.460736 1_555
As13 As5 2.479272 1_555
As13 Rb9 3.590763 1_555
As13 Rb1 3.634880 1_455
As14 As39 2.391747 1_555
As14 As29 2.460736 1_555
As14 As6 2.479272 1_555
As14 Rb10 3.590763 1_555
As14 Rb1 3.634880 1_555
As15 As38 2.391747 1_655
As15 As28 2.460736 1_545
As15 As7 2.479272 1_555
As15 Rb11 3.590763 1_555
As15 Rb0 3.634880 1_655
As16 As34 2.392170 1_445
As16 As19 2.457297 1_545
As16 Rb10 3.688221 1_555
As16 Rb5 3.690586 1_455
As17 As35 2.392170 1_555
As17 As18 2.457297 1_555
As17 Rb11 3.688221 1_554
As17 Rb4 3.690586 1_555
As18 As32 2.392170 1_655
As18 As2 2.480542 1_555
As18 Rb8 3.688221 1_554
As18 Rb7 3.690586 1_655
As19 As33 2.392170 1_565
As19 As3 2.480542 1_555
As19 Rb9 3.688221 1_555
As19 Rb6 3.690586 1_555
As20 As38 2.392170 1_665
As20 As23 2.457297 1_565
As20 As4 2.480542 1_555
As20 Rb6 3.688221 1_555
As20 Rb9 3.690586 1_655
As21 As39 2.392170 1_555
As21 As22 2.457297 1_555
As21 As5 2.480542 1_555
As21 Rb7 3.688221 1_556
As21 Rb8 3.690586 1_555
As22 As36 2.392170 1_455
As22 As6 2.480542 1_555
As22 Rb4 3.688221 1_556
As22 Rb11 3.690586 1_455
As23 As37 2.392170 1_545
As23 As7 2.480542 1_555
As23 Rb5 3.688221 1_555
As23 Rb10 3.690586 1_555
As24 As40 2.400308 1_555
As24 Rb11 3.947081 1_454
As24 Rb2 4.026358 1_455
As25 As41 2.400308 1_555
As25 Rb10 3.947081 1_555
As25 Rb3 4.026358 1_555
As26 As41 2.400308 1_555
As26 As9 2.460736 1_555
As26 Rb9 3.947081 1_655
As26 Rb3 4.026358 1_655
As27 As40 2.400308 1_565
As27 As8 2.460736 1_565
As27 As3 2.478142 1_555
As27 Rb8 3.947081 1_554
As27 Rb2 4.026358 1_565
As28 As42 2.400308 1_565
As28 As4 2.478142 1_555
As28 Rb7 3.947081 1_656
As28 Rb0 4.026358 1_665
As29 As43 2.400308 1_555
As29 As5 2.478142 1_555
As29 Rb6 3.947081 1_555
As29 Rb1 4.026358 1_555
As30 As43 2.400308 1_555
As30 As6 2.478142 1_555
As30 Rb5 3.947081 1_455
As30 Rb1 4.026358 1_455
As31 As42 2.400308 1_555
As31 As7 2.478142 1_555
As31 Rb4 3.947081 1_556
As31 Rb0 4.026358 1_555
As32 As9 2.391747 1_455
As32 Rb11 3.552519 1_454
As32 Rb3 3.565065 1_555
As32 Rb7 3.654786 1_555
As33 As8 2.391747 1_555
As33 Rb10 3.552519 1_555
As33 Rb2 3.565065 1_555
As33 Rb6 3.654786 1_545
As34 Rb9 3.552519 1_655
As34 Rb2 3.565065 1_565
As34 Rb5 3.654786 1_565
As35 Rb8 3.552519 1_554
As35 Rb3 3.565065 1_555
As35 Rb4 3.654786 1_555
As36 Rb7 3.552519 1_656
As36 Rb1 3.565065 1_555
As36 Rb11 3.654786 1_555
As37 Rb6 3.552519 1_555
As37 Rb0 3.565065 1_565
As37 Rb10 3.654786 1_565
As38 Rb5 3.552519 1_455
As38 Rb0 3.565065 1_555
As38 Rb9 3.654786 1_545
As39 Rb4 3.552519 1_556
As39 Rb1 3.565065 1_555
As39 Rb8 3.654786 1_555
As40 Rb0 3.532197 1_554
As40 Rb4 3.585202 1_555
As40 Rb7 3.585202 1_545
As41 Rb1 3.532197 1_555
As41 Rb5 3.585202 1_555
As41 Rb6 3.585202 1_555
As42 Rb2 3.532197 1_556
As42 Rb8 3.585202 1_545
As42 Rb11 3.585202 1_555
As43 Rb3 3.532197 1_555
As43 Rb10 3.585202 1_555
As43 Rb9 3.585202 1_555
