# generated using pymatgen
data_Ba2CaMgAl2F14
_symmetry_space_group_name_H-M   'P 1'
_cell_length_a   7.38764420
_cell_length_b   7.38764420
_cell_length_c   14.81682458
_cell_angle_alpha   88.20076789
_cell_angle_beta   88.20076789
_cell_angle_gamma   41.90909928
_symmetry_Int_Tables_number   1
_chemical_formula_structural   Ba2CaMgAl2F14
_chemical_formula_sum   'Ba4 Ca2 Mg2 Al4 F28'
_cell_volume   539.84108080
_cell_formula_units_Z   2
loop_
 _symmetry_equiv_pos_site_id
 _symmetry_equiv_pos_as_xyz
  1  'x, y, z'
loop_
 _atom_site_type_symbol
 _atom_site_label
 _atom_site_symmetry_multiplicity
 _atom_site_fract_x
 _atom_site_fract_y
 _atom_site_fract_z
 _atom_site_occupancy
  Ba  Ba0  1  0.23175400  0.15082800  0.38196800  1
  Ba  Ba1  1  0.84917200  0.76824600  0.11803200  1
  Ba  Ba2  1  0.76824600  0.84917200  0.61803200  1
  Ba  Ba3  1  0.15082800  0.23175400  0.88196800  1
  Ca  Ca0  1  0.56059700  0.43940300  0.25000000  1
  Ca  Ca1  1  0.43940300  0.56059700  0.75000000  1
  Mg  Mg0  1  0.50000000  0.50000000  0.00000000  1
  Mg  Mg1  1  0.50000000  0.50000000  0.50000000  1
  Al  Al0  1  0.12127000  0.11094900  0.12174400  1
  Al  Al1  1  0.88905100  0.87873000  0.37825600  1
  Al  Al2  1  0.87873000  0.88905100  0.87825600  1
  Al  Al3  1  0.11094900  0.12127000  0.62174400  1
  F  F0  1  0.28294000  0.19719200  0.07890300  1
  F  F1  1  0.80280800  0.71706000  0.42109700  1
  F  F2  1  0.71706000  0.80280800  0.92109700  1
  F  F3  1  0.19719200  0.28294000  0.57890300  1
  F  F4  1  0.73317700  0.10986400  0.97572600  1
  F  F5  1  0.89013600  0.26682300  0.52427400  1
  F  F6  1  0.26682300  0.89013600  0.02427400  1
  F  F7  1  0.10986400  0.73317700  0.47572600  1
  F  F8  1  0.39993600  0.82592500  0.55055000  1
  F  F9  1  0.17407500  0.60006400  0.94945000  1
  F  F10  1  0.60006400  0.17407500  0.44945000  1
  F  F11  1  0.82592500  0.39993600  0.05055000  1
  F  F12  1  0.93077700  0.05624100  0.15883400  1
  F  F13  1  0.94375900  0.06922300  0.34116600  1
  F  F14  1  0.06922300  0.94375900  0.84116600  1
  F  F15  1  0.05624100  0.93077700  0.65883400  1
  F  F16  1  0.35772000  0.96119600  0.71500900  1
  F  F17  1  0.03880400  0.64228000  0.78499100  1
  F  F18  1  0.64228000  0.03880400  0.28499100  1
  F  F19  1  0.96119600  0.35772000  0.21500900  1
  F  F20  1  0.59401200  0.15345200  0.80550400  1
  F  F21  1  0.84654800  0.40598800  0.69449600  1
  F  F22  1  0.40598800  0.84654800  0.19449600  1
  F  F23  1  0.15345200  0.59401200  0.30550400  1
  F  F24  1  0.51211400  0.61900500  0.38073900  1
  F  F25  1  0.38099500  0.48788600  0.11926100  1
  F  F26  1  0.48788600  0.38099500  0.61926100  1
  F  F27  1  0.61900500  0.51211400  0.88073900  1
loop_
_geom_bond_atom_site_label_1
_geom_bond_atom_site_label_2
_geom_bond_distance
_geom_bond_site_symmetry_2
Ba0 F13 2.696003 1_455
Ba0 F24 2.759832 1_545
Ba0 F19 2.824341 1_455
Ba0 F18 2.830683 1_555
Ba0 F5 2.847784 1_455
Ba0 F1 2.860641 1_455
Ba0 F1 2.884077 1_545
Ba0 F8 2.987280 1_545
Ba0 F3 3.048497 1_555
Ba0 F10 3.051215 1_555
Ba0 F23 3.054029 1_555
Ba0 F22 3.207287 1_545
Ba1 F12 2.696003 1_565
Ba1 F25 2.759832 1_655
Ba1 F18 2.824341 1_565
Ba1 F19 2.830683 1_555
Ba1 F4 2.847784 1_564
Ba1 F0 2.860641 1_565
Ba1 F0 2.884077 1_655
Ba1 F9 2.987280 1_654
Ba1 F2 3.048497 1_554
Ba1 F11 3.051215 1_555
Ba1 F22 3.054029 1_555
Ba1 F23 3.207287 1_655
Ba2 F15 2.696003 1_655
Ba2 F26 2.759832 1_565
Ba2 F17 2.824341 1_655
Ba2 F16 2.830683 1_555
Ba2 F7 2.847784 1_655
Ba2 F3 2.860641 1_655
Ba2 F3 2.884077 1_565
Ba2 F10 2.987280 1_565
Ba2 F1 3.048497 1_555
Ba2 F8 3.051215 1_555
Ba2 F21 3.054029 1_555
Ba2 F20 3.207287 1_565
Ba3 F14 2.696003 1_545
Ba3 F27 2.759832 1_455
Ba3 F16 2.824341 1_545
Ba3 F17 2.830683 1_555
Ba3 F6 2.847784 1_546
Ba3 F2 2.860641 1_545
Ba3 F2 2.884077 1_455
Ba3 F11 2.987280 1_456
Ba3 F0 3.048497 1_556
Ba3 F9 3.051215 1_555
Ba3 F20 3.054029 1_555
Ba3 F21 3.207287 1_455
Ca0 F24 2.247612 1_555
Ca0 F25 2.247612 1_555
Ca0 F13 2.408791 1_555
Ca0 F12 2.408791 1_555
Ca0 F22 2.412096 1_555
Ca0 F23 2.412096 1_555
Ca0 F19 2.580048 1_555
Ca0 F18 2.580048 1_555
Ca1 F27 2.247612 1_555
Ca1 F26 2.247612 1_555
Ca1 F14 2.408791 1_555
Ca1 F15 2.408791 1_555
Ca1 F21 2.412096 1_555
Ca1 F20 2.412096 1_555
Ca1 F16 2.580048 1_555
Ca1 F17 2.580048 1_555
Al0 F12 1.797192 1_455
Al0 F0 1.815211 1_555
Al0 F22 1.815645 1_545
Al0 F6 1.828288 1_545
Al0 F19 1.865035 1_455
Al0 F11 1.871139 1_455
Al1 F13 1.797192 1_565
Al1 F1 1.815211 1_555
Al1 F23 1.815645 1_655
Al1 F7 1.828288 1_655
Al1 F18 1.865035 1_565
Al1 F10 1.871139 1_565
Al2 F14 1.797192 1_655
Al2 F2 1.815211 1_555
Al2 F20 1.815645 1_565
Al2 F4 1.828288 1_565
Al2 F17 1.865035 1_655
Al2 F9 1.871139 1_655
Al3 F15 1.797192 1_545
Al3 F3 1.815211 1_555
Al3 F21 1.815645 1_455
Al3 F5 1.828288 1_455
Al3 F16 1.865035 1_545
Al3 F8 1.871139 1_545
F4 Mg0 2.010007 1_556
F5 Mg1 2.010007 1_555
F6 Mg0 2.010007 1_555
F7 Mg1 2.010007 1_555
F8 Mg1 2.081881 1_555
F9 Mg0 2.081881 1_556
F10 Mg1 2.081881 1_555
F11 Mg0 2.081881 1_555
F24 Mg1 1.978156 1_555
F25 Mg0 1.978156 1_555
F26 Mg1 1.978156 1_555
F27 Mg0 1.978156 1_556
