# generated using pymatgen
data_U2(Co7B2)3
_symmetry_space_group_name_H-M   'P 1'
_cell_length_a   7.46439838
_cell_length_b   7.46438807
_cell_length_c   7.46437925
_cell_angle_alpha   60.00028632
_cell_angle_beta   59.99958532
_cell_angle_gamma   59.99954111
_symmetry_Int_Tables_number   1
_chemical_formula_structural   U2(Co7B2)3
_chemical_formula_sum   'U2 Co21 B6'
_cell_volume   294.08020425
_cell_formula_units_Z   1
loop_
 _symmetry_equiv_pos_site_id
 _symmetry_equiv_pos_as_xyz
  1  'x, y, z'
loop_
 _atom_site_type_symbol
 _atom_site_label
 _atom_site_symmetry_multiplicity
 _atom_site_fract_x
 _atom_site_fract_y
 _atom_site_fract_z
 _atom_site_occupancy
  U  U0  1  0.25000173  0.24998289  0.25001869  1
  U  U1  1  0.74999439  0.75000835  0.75002795  1
  Co  Co0  1  0.00000875  -0.00000109  -0.00002178  1
  Co  Co1  1  0.38319131  0.38318875  0.38318471  1
  Co  Co2  1  0.14954838  0.61682651  0.61681447  1
  Co  Co3  1  0.61681476  0.14953720  0.61683127  1
  Co  Co4  1  0.61681003  0.61683565  0.14954012  1
  Co  Co5  1  0.38318161  0.85045138  0.38316724  1
  Co  Co6  1  0.38318379  0.38316837  0.85045090  1
  Co  Co7  1  0.85044067  0.38318225  0.38318050  1
  Co  Co8  1  0.61681179  0.61682344  0.61681429  1
  Co  Co9  1  -0.00000478  0.33922383  -0.00000361  1
  Co  Co10  1  0.33922715  -0.00001100  0.00000057  1
  Co  Co11  1  0.00001034  0.33920091  0.66079082  1
  Co  Co12  1  0.66077040  0.00000717  0.33921647  1
  Co  Co13  1  0.33921005  0.00000232  0.66079082  1
  Co  Co14  1  0.00000938  -0.00000149  0.33922322  1
  Co  Co15  1  0.66078525  0.33921818  0.00000442  1
  Co  Co16  1  0.00000967  0.66078113  0.33921163  1
  Co  Co17  1  -0.00000260  -0.00000926  0.66079666  1
  Co  Co18  1  0.33922106  0.66079748  -0.00000115  1
  Co  Co19  1  0.66079256  -0.00001640  -0.00000727  1
  Co  Co20  1  -0.00001791  0.66080123  -0.00001189  1
  B  B0  1  0.27384278  0.72617180  0.27382661  1
  B  B1  1  0.27382073  0.72617998  0.72616531  1
  B  B2  1  0.72616652  0.27383687  0.27383113  1
  B  B3  1  0.72616149  0.72617331  0.27381767  1
  B  B4  1  0.27383590  0.27382560  0.72616793  1
  B  B5  1  0.72617478  0.27381465  0.72617229  1
loop_
_geom_bond_atom_site_label_1
_geom_bond_atom_site_label_2
_geom_bond_distance
_geom_bond_site_symmetry_2
Co0 Co17 2.531853 1_554
Co0 Co13 2.531863 1_554
Co0 Co11 2.531890 1_554
Co0 Co18 2.531956 1_545
Co0 Co20 2.531966 1_545
Co0 Co19 2.532048 1_455
Co0 Co15 2.532064 1_455
Co0 Co10 2.532108 1_555
Co0 Co16 2.532121 1_545
Co0 Co9 2.532124 1_555
Co0 Co12 2.532191 1_455
Co0 Co14 2.532254 1_555
Co1 U0 2.435190 1_555
Co2 U1 2.435126 1_455
Co3 U1 2.434987 1_545
Co4 U1 2.434883 1_554
Co5 U0 2.435003 1_565
Co6 U0 2.435222 1_556
Co7 U0 2.435169 1_655
Co8 U1 2.435310 1_555
B0 Co5 2.091209 1_555
B0 Co4 2.091244 1_555
B0 Co1 2.091349 1_555
B0 Co2 2.091380 1_555
B0 Co10 2.101374 1_565
B0 Co18 2.101381 1_555
B0 Co14 2.101432 1_565
B0 Co16 2.101487 1_555
B1 Co2 2.091314 1_555
B1 Co8 2.091388 1_555
B1 Co5 2.091438 1_555
B1 Co6 2.091524 1_555
B1 Co17 2.101316 1_565
B1 Co13 2.101433 1_565
B1 Co20 2.101437 1_556
B1 Co18 2.101539 1_556
B2 Co7 2.091268 1_555
B2 Co1 2.091290 1_555
B2 Co4 2.091448 1_555
B2 Co3 2.091456 1_555
B2 Co15 2.101407 1_555
B2 Co9 2.101439 1_655
B2 Co12 2.101487 1_555
B2 Co14 2.101521 1_655
B3 Co4 2.091254 1_555
B3 Co5 2.091318 1_555
B3 Co7 2.091397 1_555
B3 Co8 2.091433 1_555
B3 Co19 2.101337 1_565
B3 Co20 2.101366 1_655
B3 Co12 2.101502 1_565
B3 Co16 2.101590 1_655
B4 Co6 2.091297 1_555
B4 Co3 2.091314 1_555
B4 Co1 2.091346 1_555
B4 Co2 2.091458 1_555
B4 Co13 2.101374 1_555
B4 Co11 2.101397 1_555
B4 Co9 2.101462 1_556
B4 Co10 2.101483 1_556
B5 Co3 2.091326 1_555
B5 Co6 2.091385 1_555
B5 Co7 2.091398 1_555
B5 Co8 2.091507 1_555
B5 Co17 2.101353 1_655
B5 Co19 2.101417 1_556
B5 Co11 2.101494 1_655
B5 Co15 2.101513 1_556
