# generated using pymatgen
data_LuSeO3F
_symmetry_space_group_name_H-M   'P 1'
_cell_length_a   6.89829000
_cell_length_b   6.54534300
_cell_length_c   7.10315076
_cell_angle_alpha   81.92894463
_cell_angle_beta   90.00000000
_cell_angle_gamma   90.00000000
_symmetry_Int_Tables_number   1
_chemical_formula_structural   LuSeO3F
_chemical_formula_sum   'Lu4 Se4 O12 F4'
_cell_volume   317.54233284
_cell_formula_units_Z   4
loop_
 _symmetry_equiv_pos_site_id
 _symmetry_equiv_pos_as_xyz
  1  'x, y, z'
loop_
 _atom_site_type_symbol
 _atom_site_label
 _atom_site_symmetry_multiplicity
 _atom_site_fract_x
 _atom_site_fract_y
 _atom_site_fract_z
 _atom_site_occupancy
  Lu  Lu0  1  0.64165800  0.86296200  0.32558800  1
  Lu  Lu1  1  0.85834200  0.86296200  0.82558800  1
  Lu  Lu2  1  0.14165800  0.13703800  0.17441200  1
  Lu  Lu3  1  0.35834200  0.13703800  0.67441200  1
  Se  Se0  1  0.62050900  0.35221800  0.21002300  1
  Se  Se1  1  0.37949100  0.64778200  0.78997700  1
  Se  Se2  1  0.12050900  0.64778200  0.28997700  1
  Se  Se3  1  0.87949100  0.35221800  0.71002300  1
  O  O0  1  0.18684800  0.47905300  0.13772300  1
  O  O1  1  0.02946100  0.17157300  0.85358400  1
  O  O2  1  0.52946100  0.82842700  0.64641600  1
  O  O3  1  0.31315200  0.47905300  0.63772300  1
  O  O4  1  0.19061100  0.82649900  0.77853500  1
  O  O5  1  0.97053900  0.82842700  0.14641600  1
  O  O6  1  0.30938900  0.82649900  0.27853500  1
  O  O7  1  0.80938900  0.17350100  0.22146500  1
  O  O8  1  0.81315200  0.52094700  0.86227700  1
  O  O9  1  0.69061100  0.17350100  0.72146500  1
  O  O10  1  0.47053900  0.17157300  0.35358400  1
  O  O11  1  0.68684800  0.52094700  0.36227700  1
  F  F0  1  0.62136000  0.83603800  0.02732300  1
  F  F1  1  0.12136000  0.16396200  0.47267700  1
  F  F2  1  0.87864000  0.83603800  0.52732300  1
  F  F3  1  0.37864000  0.16396200  0.97267700  1
loop_
_geom_bond_atom_site_label_1
_geom_bond_atom_site_label_2
_geom_bond_distance
_geom_bond_site_symmetry_2
Lu0 O11 2.238890 1_555
Lu0 O6 2.333395 1_555
Lu0 O7 2.365388 1_565
Lu0 O10 2.371921 1_565
Lu0 O2 2.387218 1_555
Lu0 O5 2.626534 1_555
Lu1 O8 2.238890 1_555
Lu1 O4 2.333395 1_655
Lu1 O9 2.365388 1_565
Lu1 O1 2.371921 1_665
Lu1 O5 2.387218 1_556
Lu1 O2 2.626534 1_555
Lu2 O0 2.238890 1_555
Lu2 O7 2.333395 1_455
Lu2 O6 2.365388 1_545
Lu2 O5 2.371921 1_445
Lu2 O1 2.387218 1_554
Lu2 O10 2.626534 1_555
Lu3 O3 2.238890 1_555
Lu3 O9 2.333395 1_555
Lu3 O4 2.365388 1_545
Lu3 O2 2.371921 1_545
Lu3 O10 2.387218 1_555
Lu3 O1 2.626534 1_555
O0 Se2 1.712918 1_555
O1 Se3 1.780334 1_455
O2 Se1 1.780334 1_555
O3 Se1 1.712918 1_555
O4 Se1 1.745260 1_555
O5 Se2 1.780334 1_655
O6 Se2 1.745260 1_555
O7 Se0 1.745260 1_555
O8 Se3 1.712918 1_555
O9 Se3 1.745260 1_555
O10 Se0 1.780334 1_555
O11 Se0 1.712918 1_555
F0 Lu0 2.155008 1_555
F0 Lu1 2.164712 1_554
F1 Lu2 2.155008 1_555
F1 Lu3 2.164712 1_555
F2 Lu1 2.155008 1_555
F2 Lu0 2.164712 1_555
F3 Lu3 2.155008 1_555
F3 Lu2 2.164712 1_556
