# generated using pymatgen
data_Ba2Ni2ClF7
_symmetry_space_group_name_H-M   'P 1'
_cell_length_a   5.84852700
_cell_length_b   7.74774100
_cell_length_c   8.94042871
_cell_angle_alpha   73.22385828
_cell_angle_beta   90.00000000
_cell_angle_gamma   90.00000000
_symmetry_Int_Tables_number   1
_chemical_formula_structural   Ba2Ni2ClF7
_chemical_formula_sum   'Ba4 Ni4 Cl2 F14'
_cell_volume   387.87465358
_cell_formula_units_Z   2
loop_
 _symmetry_equiv_pos_site_id
 _symmetry_equiv_pos_as_xyz
  1  'x, y, z'
loop_
 _atom_site_type_symbol
 _atom_site_label
 _atom_site_symmetry_multiplicity
 _atom_site_fract_x
 _atom_site_fract_y
 _atom_site_fract_z
 _atom_site_occupancy
  Ba  Ba0  1  0.25000000  0.66989300  0.58759900  1
  Ba  Ba1  1  0.25000000  0.70445100  0.07203600  1
  Ba  Ba2  1  0.75000000  0.33010700  0.41240100  1
  Ba  Ba3  1  0.75000000  0.29554900  0.92796400  1
  Ni  Ni0  1  0.25000000  0.17535000  0.73366000  1
  Ni  Ni1  1  0.75000000  0.81840900  0.82532000  1
  Ni  Ni2  1  0.75000000  0.82465000  0.26634000  1
  Ni  Ni3  1  0.25000000  0.18159100  0.17468000  1
  Cl  Cl0  1  0.75000000  0.88294300  0.52969300  1
  Cl  Cl1  1  0.25000000  0.11705700  0.47030700  1
  F  F0  1  0.99029700  0.63195400  0.83982900  1
  F  F1  1  0.75000000  0.75113400  0.06453400  1
  F  F2  1  0.00078700  0.99718700  0.82619600  1
  F  F3  1  0.49489900  0.36135600  0.65510300  1
  F  F4  1  0.25000000  0.24886600  0.93546600  1
  F  F5  1  0.00510100  0.36135600  0.65510300  1
  F  F6  1  0.50970300  0.63195400  0.83982900  1
  F  F7  1  0.00970300  0.36804600  0.16017100  1
  F  F8  1  0.99921300  0.00281300  0.17380400  1
  F  F9  1  0.50510100  0.63864400  0.34489700  1
  F  F10  1  0.49029700  0.36804600  0.16017100  1
  F  F11  1  0.49921300  0.99718700  0.82619600  1
  F  F12  1  0.99489900  0.63864400  0.34489700  1
  F  F13  1  0.50078700  0.00281300  0.17380400  1
loop_
_geom_bond_atom_site_label_1
_geom_bond_atom_site_label_2
_geom_bond_distance
_geom_bond_site_symmetry_2
Ba0 F0 2.663828 1_455
Ba0 F6 2.663828 1_555
Ba0 F12 2.701135 1_455
Ba0 F9 2.701135 1_555
Ba0 F3 2.701337 1_555
Ba0 F5 2.701337 1_555
Ba0 Cl1 3.317417 1_565
Ba0 Cl0 3.324259 1_555
Ba0 Cl0 3.324259 1_455
Ba1 F6 2.757813 1_554
Ba1 F0 2.757813 1_454
Ba1 F12 2.778317 1_455
Ba1 F9 2.778317 1_555
Ba1 F10 2.864201 1_555
Ba1 F7 2.864201 1_555
Ba1 F1 2.944933 1_455
Ba1 F1 2.944933 1_555
Ba1 F11 3.036707 1_554
Ba1 F2 3.036707 1_554
Ba1 F13 3.088188 1_565
Ba1 F8 3.088188 1_465
Ba2 F10 2.663828 1_555
Ba2 F7 2.663828 1_655
Ba2 F3 2.701135 1_555
Ba2 F5 2.701135 1_655
Ba2 F12 2.701337 1_555
Ba2 F9 2.701337 1_555
Ba2 Cl0 3.317417 1_545
Ba2 Cl1 3.324259 1_555
Ba2 Cl1 3.324259 1_655
Ba3 F7 2.757813 1_656
Ba3 F10 2.757813 1_556
Ba3 F3 2.778317 1_555
Ba3 F5 2.778317 1_655
Ba3 F6 2.864201 1_555
Ba3 F0 2.864201 1_555
Ba3 F4 2.944933 1_555
Ba3 F4 2.944933 1_655
Ba3 F8 3.036707 1_556
Ba3 F13 3.036707 1_556
Ba3 F2 3.088188 1_645
Ba3 F11 3.088188 1_545
Cl0 Ni2 2.522191 1_555
Cl0 Ni1 2.544161 1_555
Cl1 Ni0 2.522191 1_555
Cl1 Ni3 2.544161 1_555
F0 Ni1 1.992646 1_555
F1 Ni2 2.042771 1_555
F1 Ni1 2.049905 1_554
F2 Ni0 2.013703 1_565
F2 Ni1 2.018962 1_455
F3 Ni0 2.009307 1_555
F4 Ni0 2.042771 1_555
F4 Ni3 2.049905 1_556
F5 Ni0 2.009307 1_555
F6 Ni1 1.992646 1_555
F7 Ni3 1.992646 1_555
F8 Ni2 2.013703 1_545
F8 Ni3 2.018962 1_655
F9 Ni2 2.009307 1_555
F10 Ni3 1.992646 1_555
F11 Ni0 2.013703 1_565
F11 Ni1 2.018962 1_555
F12 Ni2 2.009307 1_555
F13 Ni2 2.013703 1_545
F13 Ni3 2.018962 1_555
