# generated using pymatgen
data_Ca2Ni7P4
_symmetry_space_group_name_H-M   'P 1'
_cell_length_a   3.66932335
_cell_length_b   9.12472337
_cell_length_c   10.30836067
_cell_angle_alpha   90.00000000
_cell_angle_beta   90.00000000
_cell_angle_gamma   90.00000000
_symmetry_Int_Tables_number   1
_chemical_formula_structural   Ca2Ni7P4
_chemical_formula_sum   'Ca4 Ni14 P8'
_cell_volume   345.14000167
_cell_formula_units_Z   2
loop_
 _symmetry_equiv_pos_site_id
 _symmetry_equiv_pos_as_xyz
  1  'x, y, z'
loop_
 _atom_site_type_symbol
 _atom_site_label
 _atom_site_symmetry_multiplicity
 _atom_site_fract_x
 _atom_site_fract_y
 _atom_site_fract_z
 _atom_site_occupancy
  Ca  Ca0  1  -0.00000000  0.06107692  0.39435534  1
  Ca  Ca1  1  0.50000000  0.93892308  0.89435534  1
  Ca  Ca2  1  -0.00000000  0.43807880  0.17861110  1
  Ca  Ca3  1  0.50000000  0.56192120  0.67861110  1
  Ni  Ni0  1  0.00000000  0.06098816  0.70076396  1
  Ni  Ni1  1  0.50000000  0.93901184  0.20076396  1
  Ni  Ni2  1  -0.00000000  0.72892503  0.50745495  1
  Ni  Ni3  1  0.50000000  0.27107497  0.00745495  1
  Ni  Ni4  1  0.00000000  0.09389365  0.09456025  1
  Ni  Ni5  1  0.50000000  0.90610635  0.59456025  1
  Ni  Ni6  1  -0.00000000  0.74744831  0.27361101  1
  Ni  Ni7  1  0.50000000  0.25255169  0.77361101  1
  Ni  Ni8  1  0.00000000  0.30447659  0.60012986  1
  Ni  Ni9  1  0.50000000  0.69552341  0.10012986  1
  Ni  Ni10  1  0.00000000  0.68400973  0.91472822  1
  Ni  Ni11  1  0.50000000  0.31599027  0.41472822  1
  Ni  Ni12  1  -0.00000000  0.41570084  0.87410338  1
  Ni  Ni13  1  0.50000000  0.58429916  0.37410338  1
  P  P0  1  0.00000000  0.18139815  0.89169923  1
  P  P1  1  0.50000000  0.81860185  0.39169923  1
  P  P2  1  0.00000000  0.84231810  0.08432710  1
  P  P3  1  0.50000000  0.15768190  0.58432710  1
  P  P4  1  0.00000000  0.81393773  0.71027200  1
  P  P5  1  0.50000000  0.18606227  0.21027200  1
  P  P6  1  -0.00000000  0.47847006  0.45948160  1
  P  P7  1  0.50000000  0.52152994  0.95948160  1
loop_
_geom_bond_atom_site_label_1
_geom_bond_atom_site_label_2
_geom_bond_distance
_geom_bond_site_symmetry_2
Ca0 P3 2.824525 1_555
Ca0 P3 2.824525 1_455
Ca0 P1 2.874364 1_445
Ca0 P1 2.874364 1_545
Ca0 P5 2.875326 1_555
Ca0 P5 2.875326 1_455
Ca0 Ni1 2.930702 1_445
Ca0 Ni1 2.930702 1_545
Ca0 Ni11 2.969921 1_455
Ca0 Ni11 2.969921 1_555
Ca0 Ni8 3.071176 1_555
Ca0 Ni5 3.102381 1_445
Ca0 Ni5 3.102381 1_545
Ca0 Ni4 3.104869 1_555
Ca0 Ni6 3.120732 1_545
Ca0 Ni0 3.158571 1_555
Ca0 Ni2 3.247302 1_545
Ca1 P2 2.824525 1_656
Ca1 P2 2.824525 1_556
Ca1 P0 2.874364 1_565
Ca1 P0 2.874364 1_665
Ca1 P4 2.875326 1_555
Ca1 P4 2.875326 1_655
Ca1 Ni0 2.930702 1_565
Ca1 Ni0 2.930702 1_665
Ca1 Ni10 2.969921 1_555
Ca1 Ni10 2.969921 1_655
Ca1 Ni9 3.071176 1_556
Ca1 Ni4 3.102381 1_566
Ca1 Ni4 3.102381 1_666
Ca1 Ni5 3.104869 1_555
Ca1 Ni7 3.120732 1_565
Ca1 Ni1 3.158571 1_556
Ca1 Ni3 3.247302 1_566
Ca2 P6 2.918678 1_555
Ca2 P5 2.959827 1_455
Ca2 P5 2.959827 1_555
Ca2 Ni3 2.966654 1_455
Ca2 Ni3 2.966654 1_555
Ca2 Ni6 2.987950 1_555
Ca2 P7 3.008038 1_454
Ca2 P7 3.008038 1_554
Ca2 Ni13 3.034333 1_455
Ca2 Ni13 3.034333 1_555
Ca2 Ni9 3.088496 1_555
Ca2 Ni9 3.088496 1_455
Ca2 Ni12 3.145610 1_554
Ca2 Ni11 3.245195 1_455
Ca2 Ni11 3.245195 1_555
Ca2 Ni4 3.257918 1_555
Ca3 P7 2.918678 1_555
Ca3 P4 2.959827 1_655
Ca3 P4 2.959827 1_555
Ca3 Ni2 2.966654 1_655
Ca3 Ni2 2.966654 1_555
Ca3 Ni7 2.987950 1_555
Ca3 P6 3.008038 1_555
Ca3 P6 3.008038 1_655
Ca3 Ni12 3.034333 1_555
Ca3 Ni12 3.034333 1_655
Ca3 Ni8 3.088496 1_655
Ca3 Ni8 3.088496 1_555
Ca3 Ni13 3.145610 1_555
Ca3 Ni10 3.245195 1_655
Ca3 Ni10 3.245195 1_555
Ca3 Ni5 3.257918 1_555
Ni0 P0 2.254127 1_555
Ni0 P4 2.256397 1_545
Ni0 P3 2.363281 1_555
Ni0 P3 2.363281 1_455
Ni1 P1 2.254127 1_555
Ni1 P5 2.256397 1_565
Ni1 P2 2.363281 1_555
Ni1 P2 2.363281 1_655
Ni2 P4 2.229980 1_555
Ni2 P1 2.336538 1_555
Ni2 P1 2.336538 1_455
Ni2 P6 2.338226 1_555
Ni3 P5 2.229980 1_555
Ni3 P0 2.336538 1_654
Ni3 P0 2.336538 1_554
Ni3 P7 2.338226 1_554
Ni4 P0 2.238414 1_554
Ni4 P2 2.297980 1_545
Ni4 P5 2.344367 1_455
Ni4 P5 2.344367 1_555
Ni5 P1 2.238414 1_555
Ni5 P3 2.297980 1_565
Ni5 P4 2.344367 1_555
Ni5 P4 2.344367 1_655
Ni6 P2 2.134614 1_555
Ni6 P1 2.295501 1_455
Ni6 P1 2.295501 1_555
Ni7 P3 2.134614 1_555
Ni7 P0 2.295501 1_655
Ni7 P0 2.295501 1_555
Ni8 P6 2.150042 1_555
Ni8 P3 2.277427 1_455
Ni8 P3 2.277427 1_555
Ni9 P7 2.150042 1_554
Ni9 P2 2.277427 1_555
Ni9 P2 2.277427 1_655
Ni10 P2 2.267850 1_556
Ni10 P7 2.403511 1_555
Ni10 P7 2.403511 1_455
Ni10 P4 2.418173 1_555
Ni11 P3 2.267850 1_555
Ni11 P6 2.403511 1_655
Ni11 P6 2.403511 1_555
Ni11 P5 2.418173 1_555
Ni12 P0 2.145628 1_555
Ni12 P7 2.252349 1_555
Ni12 P7 2.252349 1_455
Ni13 P1 2.145628 1_555
Ni13 P6 2.252349 1_555
Ni13 P6 2.252349 1_655
