# generated using pymatgen
data_Er(FeSi)2
_symmetry_space_group_name_H-M   'P 1'
_cell_length_a   3.86087319
_cell_length_b   3.86087278
_cell_length_c   5.60594074
_cell_angle_alpha   110.14245899
_cell_angle_beta   110.14245137
_cell_angle_gamma   90.00000873
_symmetry_Int_Tables_number   1
_chemical_formula_structural   Er(FeSi)2
_chemical_formula_sum   'Er1 Fe2 Si2'
_cell_volume   72.98537843
_cell_formula_units_Z   1
loop_
 _symmetry_equiv_pos_site_id
 _symmetry_equiv_pos_as_xyz
  1  'x, y, z'
loop_
 _atom_site_type_symbol
 _atom_site_label
 _atom_site_symmetry_multiplicity
 _atom_site_fract_x
 _atom_site_fract_y
 _atom_site_fract_z
 _atom_site_occupancy
  Er  Er0  1  0.00000000  0.00000000  0.00000000  1
  Fe  Fe0  1  0.25000000  0.75000000  0.50000000  1
  Fe  Fe1  1  0.75000000  0.25000000  0.50000000  1
  Si  Si0  1  0.62733011  0.62733011  0.25466122  1
  Si  Si1  1  0.37266989  0.37266989  0.74533878  1
loop_
_geom_bond_atom_site_label_1
_geom_bond_atom_site_label_2
_geom_bond_distance
_geom_bond_site_symmetry_2
Er0 Si1 3.001314 1_444
Er0 Si0 3.001314 1_555
Er0 Si0 3.001317 1_455
Er0 Si1 3.001317 1_544
Er0 Si1 3.001317 1_454
Er0 Si0 3.001317 1_545
Er0 Si0 3.001319 1_445
Er0 Si1 3.001319 1_554
Er0 Fe1 3.117681 1_444
Er0 Fe0 3.117681 1_555
Er0 Fe0 3.117681 1_544
Er0 Fe1 3.117681 1_455
Er0 Fe0 3.117681 1_545
Er0 Fe1 3.117681 1_454
Er0 Fe1 3.117681 1_555
Er0 Fe0 3.117681 1_444
Fe0 Si0 2.273667 1_555
Fe0 Si1 2.273667 1_555
Fe0 Si1 2.273670 1_565
Fe0 Si0 2.273671 1_455
Fe1 Si1 2.273667 1_555
Fe1 Si0 2.273667 1_555
Fe1 Si0 2.273670 1_545
Fe1 Si1 2.273671 1_655
Si0 Si1 2.493777 1_554
