# generated using pymatgen
data_Tb8Ni18P11
_symmetry_space_group_name_H-M   'P 1'
_cell_length_a   18.03008779
_cell_length_b   18.03008779
_cell_length_c   3.82218000
_cell_angle_alpha   90.00000000
_cell_angle_beta   90.00000000
_cell_angle_gamma   119.99999924
_symmetry_Int_Tables_number   1
_chemical_formula_structural   Tb8Ni18P11
_chemical_formula_sum   'Tb16 Ni36 P22'
_cell_volume   1076.06239263
_cell_formula_units_Z   2
loop_
 _symmetry_equiv_pos_site_id
 _symmetry_equiv_pos_as_xyz
  1  'x, y, z'
loop_
 _atom_site_type_symbol
 _atom_site_label
 _atom_site_symmetry_multiplicity
 _atom_site_fract_x
 _atom_site_fract_y
 _atom_site_fract_z
 _atom_site_occupancy
  Tb  Tb0  1  0.59394100  0.40605900  0.00000000  1
  Tb  Tb1  1  0.33471200  0.45104200  0.50000000  1
  Tb  Tb2  1  0.33471200  0.88367000  0.50000000  1
  Tb  Tb3  1  0.54895800  0.66528800  0.50000000  1
  Tb  Tb4  1  0.54895800  0.88367000  0.50000000  1
  Tb  Tb5  1  0.38085000  0.19042500  0.00000000  1
  Tb  Tb6  1  0.11633000  0.66528800  0.50000000  1
  Tb  Tb7  1  0.77386900  0.88693400  0.50000000  1
  Tb  Tb8  1  0.80957500  0.19042500  0.00000000  1
  Tb  Tb9  1  0.80957500  0.61915000  0.00000000  1
  Tb  Tb10  1  0.59394100  0.18788100  0.00000000  1
  Tb  Tb11  1  0.11633000  0.45104200  0.50000000  1
  Tb  Tb12  1  0.81211900  0.40605900  0.00000000  1
  Tb  Tb13  1  0.11306600  0.88693400  0.50000000  1
  Tb  Tb14  1  0.33333300  0.66666700  0.50000000  1
  Tb  Tb15  1  0.11306600  0.22613100  0.50000000  1
  Ni  Ni0  1  0.20430700  0.03487600  0.00000000  1
  Ni  Ni1  1  0.04424500  0.08849000  0.00000000  1
  Ni  Ni2  1  0.51800600  0.03601100  0.50000000  1
  Ni  Ni3  1  0.96385000  0.59063300  0.00000000  1
  Ni  Ni4  1  0.18918500  0.81081500  0.00000000  1
  Ni  Ni5  1  0.96385000  0.37321700  0.00000000  1
  Ni  Ni6  1  0.40595500  0.59404500  0.00000000  1
  Ni  Ni7  1  0.96398900  0.48199400  0.50000000  1
  Ni  Ni8  1  0.10360300  0.05180200  0.50000000  1
  Ni  Ni9  1  0.96289400  0.26812500  0.50000000  1
  Ni  Ni10  1  0.40595500  0.81191000  0.00000000  1
  Ni  Ni11  1  0.73187500  0.69476800  0.50000000  1
  Ni  Ni12  1  0.94819800  0.05180200  0.50000000  1
  Ni  Ni13  1  0.04424500  0.95575500  0.00000000  1
  Ni  Ni14  1  0.73876600  0.47753100  0.50000000  1
  Ni  Ni15  1  0.94819800  0.89639700  0.50000000  1
  Ni  Ni16  1  0.62678300  0.03615000  0.00000000  1
  Ni  Ni17  1  0.30523200  0.03710600  0.50000000  1
  Ni  Ni18  1  0.40936700  0.37321700  0.00000000  1
  Ni  Ni19  1  0.62163100  0.81081500  0.00000000  1
  Ni  Ni20  1  0.83056900  0.03487600  0.00000000  1
  Ni  Ni21  1  0.83056900  0.79569300  0.00000000  1
  Ni  Ni22  1  0.18809000  0.59404500  0.00000000  1
  Ni  Ni23  1  0.18918500  0.37836900  0.00000000  1
  Ni  Ni24  1  0.96512400  0.16943100  0.00000000  1
  Ni  Ni25  1  0.52246900  0.26123400  0.50000000  1
  Ni  Ni26  1  0.96512400  0.79569300  0.00000000  1
  Ni  Ni27  1  0.30523200  0.26812500  0.50000000  1
  Ni  Ni28  1  0.91151000  0.95575500  0.00000000  1
  Ni  Ni29  1  0.73876600  0.26123400  0.50000000  1
  Ni  Ni30  1  0.73187500  0.03710600  0.50000000  1
  Ni  Ni31  1  0.51800600  0.48199400  0.50000000  1
  Ni  Ni32  1  0.20430700  0.16943100  0.00000000  1
  Ni  Ni33  1  0.40936700  0.03615000  0.00000000  1
  Ni  Ni34  1  0.62678300  0.59063300  0.00000000  1
  Ni  Ni35  1  0.96289400  0.69476800  0.50000000  1
  P  P0  1  0.26204300  0.31020600  0.00000000  1
  P  P1  1  0.66566500  0.11889400  0.50000000  1
  P  P2  1  0.87910200  0.12089800  0.50000000  1
  P  P3  1  0.47676600  0.73838300  0.00000000  1
  P  P4  1  0.04816300  0.31020600  0.00000000  1
  P  P5  1  0.66566500  0.54677100  0.50000000  1
  P  P6  1  0.87910200  0.75820500  0.50000000  1
  P  P7  1  0.26161700  0.73838300  0.00000000  1
  P  P8  1  0.45322900  0.11889400  0.50000000  1
  P  P9  1  0.26161700  0.52323400  0.00000000  1
  P  P10  1  0.04816300  0.73795700  0.00000000  1
  P  P11  1  0.68979400  0.73795700  0.00000000  1
  P  P12  1  0.88110600  0.33433500  0.50000000  1
  P  P13  1  0.45322900  0.33433500  0.50000000  1
  P  P14  1  0.24179500  0.12089800  0.50000000  1
  P  P15  1  0.47737800  0.95475700  0.00000000  1
  P  P16  1  0.88110600  0.54677100  0.50000000  1
  P  P17  1  0.68979400  0.95183700  0.00000000  1
  P  P18  1  0.66666700  0.33333300  0.50000000  1
  P  P19  1  0.26204300  0.95183700  0.00000000  1
  P  P20  1  0.47737800  0.52262200  0.00000000  1
  P  P21  1  0.04524300  0.52262200  0.00000000  1
loop_
_geom_bond_atom_site_label_1
_geom_bond_atom_site_label_2
_geom_bond_distance
_geom_bond_site_symmetry_2
Ni0 P19 2.209937 1_545
Ni0 P14 2.338022 1_555
Ni0 P14 2.338022 1_554
Ni0 Ni13 2.499344 1_545
Ni0 Tb5 3.011717 1_555
Ni0 Tb13 3.014219 1_544
Ni0 Tb13 3.014219 1_545
Ni1 Ni13 2.393224 1_545
Ni1 Ni28 2.393224 1_445
Ni1 Ni8 2.437861 1_555
Ni1 Ni8 2.437861 1_554
Ni1 Ni12 2.437872 1_455
Ni1 Ni12 2.437872 1_454
Ni1 Ni24 2.499344 1_455
Ni1 Ni32 2.499344 1_555
Ni1 Tb15 2.875989 1_555
Ni1 Tb15 2.875989 1_554
Ni2 P15 2.293899 1_545
Ni2 P15 2.293899 1_546
Ni2 P1 2.311395 1_555
Ni2 P8 2.311410 1_555
Ni2 Tb10 3.045602 1_555
Ni2 Tb10 3.045602 1_556
Ni2 Tb4 3.064111 1_545
Ni2 Tb2 3.064122 1_545
Ni3 P16 2.307285 1_554
Ni3 P16 2.307285 1_555
Ni3 P10 2.308395 1_655
Ni3 P21 2.335988 1_655
Ni3 Tb6 3.053158 1_655
Ni3 Tb6 3.053158 1_654
Ni3 Tb9 3.071126 1_555
Ni3 Tb12 3.074871 1_555
Ni4 P19 2.202397 1_555
Ni4 P10 2.202397 1_555
Ni4 P7 2.261981 1_555
Ni4 Tb6 2.969136 1_554
Ni4 Tb6 2.969136 1_555
Ni4 Tb2 2.969136 1_555
Ni4 Tb2 2.969136 1_554
Ni4 Tb13 3.050078 1_555
Ni4 Tb13 3.050078 1_554
Ni5 P12 2.307285 1_555
Ni5 P12 2.307285 1_554
Ni5 P4 2.308394 1_655
Ni5 P21 2.336003 1_655
Ni5 Tb11 3.053158 1_655
Ni5 Tb11 3.053158 1_654
Ni5 Tb8 3.071126 1_555
Ni5 Tb12 3.074859 1_555
Ni6 P20 2.230471 1_555
Ni6 P9 2.253901 1_555
Ni6 P3 2.253901 1_555
Ni6 Tb1 2.939086 1_554
Ni6 Tb1 2.939086 1_555
Ni6 Tb3 2.939086 1_554
Ni6 Tb3 2.939086 1_555
Ni6 Tb14 2.965755 1_554
Ni6 Tb14 2.965755 1_555
Ni7 P21 2.293899 1_655
Ni7 P21 2.293899 1_656
Ni7 P12 2.311395 1_555
Ni7 P16 2.311410 1_555
Ni7 Tb12 3.045602 1_555
Ni7 Tb12 3.045602 1_556
Ni7 Tb11 3.064111 1_655
Ni7 Tb6 3.064122 1_655
Ni8 P14 2.157801 1_555
Ni8 Tb15 3.061426 1_555
Ni8 Tb13 3.061462 1_545
Ni9 P2 2.306192 1_555
Ni9 P12 2.315180 1_555
Ni9 P4 2.329180 1_656
Ni9 P4 2.329180 1_655
Ni9 Tb8 3.063309 1_556
Ni9 Tb8 3.063309 1_555
Ni9 Tb11 3.066980 1_655
Ni9 Tb15 3.155082 1_655
Ni10 P15 2.230487 1_555
Ni10 P3 2.253901 1_555
Ni10 P7 2.253901 1_555
Ni10 Tb2 2.939086 1_555
Ni10 Tb2 2.939086 1_554
Ni10 Tb4 2.939086 1_555
Ni10 Tb4 2.939086 1_554
Ni10 Tb14 2.965743 1_554
Ni10 Tb14 2.965743 1_555
Ni11 P6 2.306189 1_555
Ni11 P5 2.315164 1_555
Ni11 P11 2.329189 1_555
Ni11 P11 2.329189 1_556
Ni11 Tb9 3.063297 1_555
Ni11 Tb9 3.063297 1_556
Ni11 Tb3 3.066987 1_555
Ni11 Tb7 3.155082 1_555
Ni12 P2 2.157801 1_555
Ni12 Ni28 2.437872 1_546
Ni12 Ni28 2.437872 1_545
Ni12 Tb15 3.061442 1_655
Ni12 Tb7 3.061442 1_545
Ni13 Ni28 2.393224 1_455
Ni13 Ni15 2.437870 1_454
Ni13 Ni15 2.437870 1_455
Ni13 Ni8 2.437870 1_565
Ni13 Ni8 2.437870 1_564
Ni13 Ni26 2.499344 1_455
Ni13 Tb13 2.876001 1_554
Ni13 Tb13 2.876001 1_555
Ni14 P16 2.222842 1_555
Ni14 P5 2.222858 1_555
Ni14 P18 2.251582 1_555
Ni14 Tb9 2.922698 1_555
Ni14 Tb9 2.922698 1_556
Ni14 Tb12 2.960803 1_556
Ni14 Tb12 2.960803 1_555
Ni14 Tb0 2.960803 1_555
Ni14 Tb0 2.960803 1_556
Ni15 P6 2.157801 1_555
Ni15 Ni28 2.437861 1_556
Ni15 Ni28 2.437861 1_555
Ni15 Tb7 3.061426 1_555
Ni15 Tb13 3.061462 1_655
Ni16 P1 2.307285 1_555
Ni16 P1 2.307285 1_554
Ni16 P17 2.308394 1_545
Ni16 P15 2.336003 1_545
Ni16 Tb4 3.053158 1_545
Ni16 Tb4 3.053158 1_544
Ni16 Tb8 3.071126 1_555
Ni16 Tb10 3.074859 1_555
Ni17 P14 2.306221 1_555
Ni17 P8 2.315165 1_555
Ni17 P19 2.329180 1_546
Ni17 P19 2.329180 1_545
Ni17 Tb5 3.063309 1_555
Ni17 Tb5 3.063309 1_556
Ni17 Tb2 3.066969 1_545
Ni17 Tb13 3.155082 1_545
Ni18 P13 2.307285 1_554
Ni18 P13 2.307285 1_555
Ni18 P0 2.308395 1_555
Ni18 P20 2.336004 1_555
Ni18 Tb1 3.053158 1_554
Ni18 Tb1 3.053158 1_555
Ni18 Tb5 3.071126 1_555
Ni18 Tb0 3.074877 1_555
Ni19 P11 2.202381 1_555
Ni19 P17 2.202397 1_555
Ni19 P3 2.261997 1_555
Ni19 Tb3 2.969136 1_554
Ni19 Tb3 2.969136 1_555
Ni19 Tb4 2.969148 1_555
Ni19 Tb4 2.969148 1_554
Ni19 Tb7 3.050078 1_554
Ni19 Tb7 3.050078 1_555
Ni20 P17 2.209937 1_545
Ni20 P2 2.338021 1_555
Ni20 P2 2.338021 1_554
Ni20 Ni28 2.499344 1_545
Ni20 Tb8 3.011717 1_555
Ni20 Tb7 3.014221 1_545
Ni20 Tb7 3.014221 1_544
Ni21 P11 2.209937 1_555
Ni21 P6 2.338012 1_555
Ni21 P6 2.338012 1_554
Ni21 Ni28 2.499344 1_555
Ni21 Tb9 3.011717 1_555
Ni21 Tb7 3.014208 1_554
Ni21 Tb7 3.014208 1_555
Ni22 P21 2.230487 1_555
Ni22 P9 2.253901 1_555
Ni22 P7 2.253901 1_555
Ni22 Tb6 2.939086 1_554
Ni22 Tb6 2.939086 1_555
Ni22 Tb11 2.939086 1_554
Ni22 Tb11 2.939086 1_555
Ni22 Tb14 2.965743 1_555
Ni22 Tb14 2.965743 1_554
Ni23 P0 2.202381 1_555
Ni23 P4 2.202397 1_555
Ni23 P9 2.261997 1_555
Ni23 Tb1 2.969136 1_554
Ni23 Tb1 2.969136 1_555
Ni23 Tb11 2.969148 1_555
Ni23 Tb11 2.969148 1_554
Ni23 Tb15 3.050078 1_554
Ni23 Tb15 3.050078 1_555
Ni24 P4 2.209937 1_655
Ni24 P2 2.338021 1_555
Ni24 P2 2.338021 1_554
Ni24 Tb8 3.011717 1_555
Ni24 Tb15 3.014221 1_655
Ni24 Tb15 3.014221 1_654
Ni25 P8 2.222842 1_555
Ni25 P13 2.222858 1_555
Ni25 P18 2.251582 1_555
Ni25 Tb5 2.922698 1_555
Ni25 Tb5 2.922698 1_556
Ni25 Tb10 2.960803 1_555
Ni25 Tb10 2.960803 1_556
Ni25 Tb0 2.960803 1_556
Ni25 Tb0 2.960803 1_555
Ni26 P10 2.209937 1_655
Ni26 P6 2.338022 1_555
Ni26 P6 2.338022 1_554
Ni26 Tb9 3.011717 1_555
Ni26 Tb13 3.014219 1_654
Ni26 Tb13 3.014219 1_655
Ni27 P14 2.306189 1_555
Ni27 P13 2.315164 1_555
Ni27 P0 2.329189 1_555
Ni27 P0 2.329189 1_556
Ni27 Tb5 3.063297 1_555
Ni27 Tb5 3.063297 1_556
Ni27 Tb1 3.066987 1_555
Ni27 Tb15 3.155082 1_555
Ni28 Tb7 2.875989 1_555
Ni28 Tb7 2.875989 1_554
Ni29 P1 2.222843 1_555
Ni29 P12 2.222843 1_555
Ni29 P18 2.251582 1_555
Ni29 Tb8 2.922686 1_555
Ni29 Tb8 2.922686 1_556
Ni29 Tb10 2.960803 1_556
Ni29 Tb10 2.960803 1_555
Ni29 Tb12 2.960803 1_556
Ni29 Tb12 2.960803 1_555
Ni30 P2 2.306192 1_555
Ni30 P1 2.315180 1_555
Ni30 P17 2.329180 1_546
Ni30 P17 2.329180 1_545
Ni30 Tb8 3.063309 1_556
Ni30 Tb8 3.063309 1_555
Ni30 Tb4 3.066980 1_545
Ni30 Tb7 3.155082 1_545
Ni31 P20 2.293916 1_556
Ni31 P20 2.293916 1_555
Ni31 P5 2.311393 1_555
Ni31 P13 2.311393 1_555
Ni31 Tb0 3.045602 1_555
Ni31 Tb0 3.045602 1_556
Ni31 Tb1 3.064128 1_555
Ni31 Tb3 3.064128 1_555
Ni32 P0 2.209937 1_555
Ni32 P14 2.338012 1_555
Ni32 P14 2.338012 1_554
Ni32 Tb5 3.011717 1_555
Ni32 Tb15 3.014208 1_554
Ni32 Tb15 3.014208 1_555
Ni33 P8 2.307285 1_554
Ni33 P8 2.307285 1_555
Ni33 P19 2.308395 1_545
Ni33 P15 2.335988 1_545
Ni33 Tb2 3.053158 1_544
Ni33 Tb2 3.053158 1_545
Ni33 Tb5 3.071126 1_555
Ni33 Tb10 3.074871 1_555
Ni34 P5 2.307285 1_555
Ni34 P5 2.307285 1_554
Ni34 P11 2.308395 1_555
Ni34 P20 2.336004 1_555
Ni34 Tb3 3.053158 1_554
Ni34 Tb3 3.053158 1_555
Ni34 Tb9 3.071126 1_555
Ni34 Tb0 3.074877 1_555
Ni35 P6 2.306221 1_555
Ni35 P16 2.315165 1_555
Ni35 P10 2.329180 1_655
Ni35 P10 2.329180 1_656
Ni35 Tb9 3.063309 1_555
Ni35 Tb9 3.063309 1_556
Ni35 Tb6 3.066969 1_655
Ni35 Tb13 3.155082 1_655
P0 Tb1 2.913742 1_555
P0 Tb1 2.913742 1_554
P0 Tb15 3.015520 1_554
P0 Tb15 3.015520 1_555
P1 Tb10 2.912091 1_556
P1 Tb10 2.912091 1_555
P1 Tb8 2.949867 1_556
P1 Tb8 2.949867 1_555
P2 Tb8 2.892514 1_555
P2 Tb8 2.892514 1_556
P3 Tb14 2.944187 1_554
P3 Tb14 2.944187 1_555
P3 Tb3 2.966279 1_554
P3 Tb3 2.966279 1_555
P3 Tb4 2.966279 1_554
P3 Tb4 2.966279 1_555
P4 Tb11 2.913742 1_555
P4 Tb11 2.913742 1_554
P4 Tb15 3.015532 1_555
P4 Tb15 3.015532 1_554
P5 Tb0 2.912102 1_555
P5 Tb0 2.912102 1_556
P5 Tb9 2.949867 1_555
P5 Tb9 2.949867 1_556
P6 Tb9 2.892526 1_555
P6 Tb9 2.892526 1_556
P7 Tb14 2.944175 1_554
P7 Tb14 2.944175 1_555
P7 Tb6 2.966279 1_554
P7 Tb6 2.966279 1_555
P7 Tb2 2.966279 1_555
P7 Tb2 2.966279 1_554
P8 Tb10 2.912102 1_556
P8 Tb10 2.912102 1_555
P8 Tb5 2.949867 1_555
P8 Tb5 2.949867 1_556
P9 Tb14 2.944187 1_554
P9 Tb14 2.944187 1_555
P9 Tb1 2.966279 1_554
P9 Tb1 2.966279 1_555
P9 Tb11 2.966279 1_555
P9 Tb11 2.966279 1_554
P10 Tb6 2.913742 1_554
P10 Tb6 2.913742 1_555
P10 Tb13 3.015519 1_555
P10 Tb13 3.015519 1_554
P11 Tb3 2.913742 1_555
P11 Tb3 2.913742 1_554
P11 Tb7 3.015520 1_554
P11 Tb7 3.015520 1_555
P12 Tb12 2.912091 1_555
P12 Tb12 2.912091 1_556
P12 Tb8 2.949867 1_556
P12 Tb8 2.949867 1_555
P13 Tb0 2.912102 1_555
P13 Tb0 2.912102 1_556
P13 Tb5 2.949867 1_555
P13 Tb5 2.949867 1_556
P14 Tb5 2.892526 1_555
P14 Tb5 2.892526 1_556
P15 Tb2 2.935090 1_554
P15 Tb2 2.935090 1_555
P15 Tb4 2.935102 1_555
P15 Tb4 2.935102 1_554
P16 Tb12 2.912102 1_555
P16 Tb12 2.912102 1_556
P16 Tb9 2.949867 1_555
P16 Tb9 2.949867 1_556
P17 Tb4 2.913742 1_555
P17 Tb4 2.913742 1_554
P17 Tb7 3.015532 1_554
P17 Tb7 3.015532 1_555
P18 Tb0 2.968239 1_556
P18 Tb0 2.968239 1_555
P18 Tb12 2.968239 1_555
P18 Tb12 2.968239 1_556
P18 Tb10 2.968239 1_556
P18 Tb10 2.968239 1_555
P19 Tb2 2.913742 1_555
P19 Tb2 2.913742 1_554
P19 Tb13 3.015519 1_555
P19 Tb13 3.015519 1_554
P20 Tb1 2.935090 1_554
P20 Tb1 2.935090 1_555
P20 Tb3 2.935090 1_554
P20 Tb3 2.935090 1_555
P21 Tb6 2.935090 1_554
P21 Tb6 2.935090 1_555
P21 Tb11 2.935102 1_555
P21 Tb11 2.935102 1_554
