# generated using pymatgen
data_ZnS
_symmetry_space_group_name_H-M   'P 1'
_cell_length_a   3.85326939
_cell_length_b   3.85326939
_cell_length_c   125.91018500
_cell_angle_alpha   90.00000000
_cell_angle_beta   90.00000000
_cell_angle_gamma   119.99998948
_symmetry_Int_Tables_number   1
_chemical_formula_structural   ZnS
_chemical_formula_sum   'Zn40 S40'
_cell_volume   1619.01280677
_cell_formula_units_Z   40
loop_
 _symmetry_equiv_pos_site_id
 _symmetry_equiv_pos_as_xyz
  1  'x, y, z'
loop_
 _atom_site_type_symbol
 _atom_site_label
 _atom_site_symmetry_multiplicity
 _atom_site_fract_x
 _atom_site_fract_y
 _atom_site_fract_z
 _atom_site_occupancy
  Zn  Zn0  1  0.00000000  0.00000000  0.27500400  1
  Zn  Zn1  1  0.00000000  0.00000000  0.82500400  1
  Zn  Zn2  1  0.66666700  0.33333300  0.45000000  1
  Zn  Zn3  1  0.33333300  0.66666700  0.32499900  1
  Zn  Zn4  1  0.33333300  0.66666700  0.17499900  1
  Zn  Zn5  1  0.33333300  0.66666700  0.10000000  1
  Zn  Zn6  1  0.00000000  0.00000000  0.42500000  1
  Zn  Zn7  1  0.00000000  0.00000000  0.95000200  1
  Zn  Zn8  1  0.66666700  0.33333300  0.20000100  1
  Zn  Zn9  1  0.66666700  0.33333300  0.52499700  1
  Zn  Zn10  1  0.33333300  0.66666700  0.92499900  1
  Zn  Zn11  1  0.33333300  0.66666700  0.47500100  1
  Zn  Zn12  1  0.00000000  0.00000000  0.14999900  1
  Zn  Zn13  1  0.66666700  0.33333300  0.97499600  1
  Zn  Zn14  1  0.33333300  0.66666700  0.57499700  1
  Zn  Zn15  1  0.00000000  0.00000000  0.55000400  1
  Zn  Zn16  1  0.00000000  0.00000000  0.69999700  1
  Zn  Zn17  1  0.66666700  0.33333300  0.72500500  1
  Zn  Zn18  1  0.66666700  0.33333300  0.37500000  1
  Zn  Zn19  1  0.66666700  0.33333300  0.04999900  1
  Zn  Zn20  1  0.66666700  0.33333300  0.79999700  1
  Zn  Zn21  1  0.00000000  0.00000000  0.22499700  1
  Zn  Zn22  1  0.33333300  0.66666700  0.39999900  1
  Zn  Zn23  1  0.66666700  0.33333300  0.29999800  1
  Zn  Zn24  1  0.00000000  0.00000000  0.00000400  1
  Zn  Zn25  1  0.00000000  0.00000000  0.77499700  1
  Zn  Zn26  1  0.66666700  0.33333300  0.87500100  1
  Zn  Zn27  1  0.33333300  0.66666700  0.02499800  1
  Zn  Zn28  1  0.00000000  0.00000000  0.89999800  1
  Zn  Zn29  1  0.00000000  0.00000000  0.07499900  1
  Zn  Zn30  1  0.66666700  0.33333300  0.59999900  1
  Zn  Zn31  1  0.33333300  0.66666700  0.84999800  1
  Zn  Zn32  1  0.33333300  0.66666700  0.75000000  1
  Zn  Zn33  1  0.00000000  0.00000000  0.49999700  1
  Zn  Zn34  1  0.00000000  0.00000000  0.35000000  1
  Zn  Zn35  1  0.66666700  0.33333300  0.12499900  1
  Zn  Zn36  1  0.33333300  0.66666700  0.65000100  1
  Zn  Zn37  1  0.66666700  0.33333300  0.67499700  1
  Zn  Zn38  1  0.33333300  0.66666700  0.24999700  1
  Zn  Zn39  1  0.00000000  0.00000000  0.62499900  1
  S  S0  1  0.33333300  0.66666700  0.76875200  1
  S  S1  1  0.00000000  0.00000000  0.96873300  1
  S  S2  1  0.33333300  0.66666700  0.59375000  1
  S  S3  1  0.33333300  0.66666700  0.49375300  1
  S  S4  1  0.66666700  0.33333300  0.74374900  1
  S  S5  1  0.33333300  0.66666700  0.04375000  1
  S  S6  1  0.00000000  0.00000000  0.91873600  1
  S  S7  1  0.66666700  0.33333300  0.21875300  1
  S  S8  1  0.00000000  0.00000000  0.51873500  1
  S  S9  1  0.66666700  0.33333300  0.81876600  1
  S  S10  1  0.00000000  0.00000000  0.84374900  1
  S  S11  1  0.33333300  0.66666700  0.11875100  1
  S  S12  1  0.33333300  0.66666700  0.66875300  1
  S  S13  1  0.66666700  0.33333300  0.46875200  1
  S  S14  1  0.00000000  0.00000000  0.56874700  1
  S  S15  1  0.66666700  0.33333300  0.61875000  1
  S  S16  1  0.33333300  0.66666700  0.19375100  1
  S  S17  1  0.00000000  0.00000000  0.29374900  1
  S  S18  1  0.66666700  0.33333300  0.14375100  1
  S  S19  1  0.00000000  0.00000000  0.16875100  1
  S  S20  1  0.00000000  0.00000000  0.44375100  1
  S  S21  1  0.00000000  0.00000000  0.36875100  1
  S  S22  1  0.66666700  0.33333300  0.31875000  1
  S  S23  1  0.00000000  0.00000000  0.01874900  1
  S  S24  1  0.66666700  0.33333300  0.39375100  1
  S  S25  1  0.33333300  0.66666700  0.41875100  1
  S  S26  1  0.66666700  0.33333300  0.89375300  1
  S  S27  1  0.00000000  0.00000000  0.09375100  1
  S  S28  1  0.66666700  0.33333300  0.69373500  1
  S  S29  1  0.00000000  0.00000000  0.79373500  1
  S  S30  1  0.66666700  0.33333300  0.54376600  1
  S  S31  1  0.00000000  0.00000000  0.24373500  1
  S  S32  1  0.33333300  0.66666700  0.34375100  1
  S  S33  1  0.66666700  0.33333300  0.99376500  1
  S  S34  1  0.00000000  0.00000000  0.64375100  1
  S  S35  1  0.33333300  0.66666700  0.86875100  1
  S  S36  1  0.33333300  0.66666700  0.26876600  1
  S  S37  1  0.33333300  0.66666700  0.94376700  1
  S  S38  1  0.00000000  0.00000000  0.71876600  1
  S  S39  1  0.66666700  0.33333300  0.06875100  1
loop_
_geom_bond_atom_site_label_1
_geom_bond_atom_site_label_2
_geom_bond_distance
_geom_bond_site_symmetry_2
S0 Zn25 2.359555 1_565
S0 Zn25 2.359559 1_555
S0 Zn25 2.359559 1_665
S0 Zn32 2.361068 1_555
S1 Zn7 2.358424 1_555
S1 Zn13 2.360311 1_455
S1 Zn13 2.360315 1_555
S1 Zn13 2.360315 1_445
S2 Zn30 2.359723 1_565
S2 Zn30 2.359723 1_455
S2 Zn30 2.359729 1_555
S2 Zn14 2.361194 1_555
S3 Zn33 2.359513 1_565
S3 Zn33 2.359517 1_555
S3 Zn33 2.359517 1_665
S3 Zn11 2.361068 1_555
S4 Zn32 2.359807 1_545
S4 Zn32 2.359807 1_655
S4 Zn32 2.359813 1_555
S4 Zn17 2.360061 1_555
S5 Zn19 2.359723 1_455
S5 Zn19 2.359723 1_565
S5 Zn19 2.359729 1_555
S5 Zn27 2.361068 1_555
S6 Zn28 2.359305 1_555
S6 Zn10 2.360311 1_545
S6 Zn10 2.360315 1_555
S6 Zn10 2.360315 1_445
S7 Zn21 2.359513 1_655
S7 Zn21 2.359517 1_555
S7 Zn21 2.359517 1_665
S7 Zn8 2.361068 1_555
S8 Zn33 2.359305 1_555
S8 Zn9 2.360269 1_455
S8 Zn9 2.360273 1_555
S8 Zn9 2.360273 1_445
S9 Zn1 2.359261 1_655
S9 Zn1 2.359265 1_665
S9 Zn1 2.359265 1_555
S9 Zn20 2.363208 1_555
S10 Zn31 2.359723 1_545
S10 Zn31 2.359726 1_445
S10 Zn31 2.359726 1_555
S10 Zn1 2.360186 1_555
S11 Zn35 2.359681 1_455
S11 Zn35 2.359681 1_565
S11 Zn35 2.359687 1_555
S11 Zn5 2.360942 1_555
S12 Zn37 2.359513 1_455
S12 Zn37 2.359513 1_565
S12 Zn37 2.359519 1_555
S12 Zn36 2.361068 1_555
S13 Zn11 2.359723 1_545
S13 Zn11 2.359723 1_655
S13 Zn11 2.359729 1_555
S13 Zn2 2.361068 1_555
S14 Zn14 2.359765 1_545
S14 Zn14 2.359768 1_555
S14 Zn14 2.359768 1_445
S14 Zn15 2.359935 1_555
S15 Zn39 2.359723 1_655
S15 Zn39 2.359726 1_665
S15 Zn39 2.359726 1_555
S15 Zn30 2.360942 1_555
S16 Zn8 2.359765 1_565
S16 Zn8 2.359765 1_455
S16 Zn8 2.359771 1_555
S16 Zn4 2.361068 1_555
S17 Zn23 2.359723 1_455
S17 Zn23 2.359726 1_555
S17 Zn23 2.359726 1_445
S17 Zn0 2.360186 1_555
S18 Zn12 2.359681 1_655
S18 Zn12 2.359684 1_555
S18 Zn12 2.359684 1_665
S18 Zn35 2.361068 1_555
S19 Zn4 2.359681 1_545
S19 Zn4 2.359684 1_445
S19 Zn4 2.359684 1_555
S19 Zn12 2.361068 1_555
S20 Zn2 2.359723 1_455
S20 Zn2 2.359726 1_555
S20 Zn2 2.359726 1_445
S20 Zn6 2.360942 1_555
S21 Zn18 2.359723 1_455
S21 Zn18 2.359726 1_555
S21 Zn18 2.359726 1_445
S21 Zn34 2.360942 1_555
S22 Zn3 2.359723 1_545
S22 Zn3 2.359723 1_655
S22 Zn3 2.359729 1_555
S22 Zn23 2.361068 1_555
S23 Zn27 2.359723 1_545
S23 Zn27 2.359726 1_555
S23 Zn27 2.359726 1_445
S23 Zn24 2.360186 1_555
S24 Zn22 2.359681 1_655
S24 Zn22 2.359681 1_545
S24 Zn22 2.359687 1_555
S24 Zn18 2.360942 1_555
S25 Zn6 2.359723 1_565
S25 Zn6 2.359726 1_665
S25 Zn6 2.359726 1_555
S25 Zn22 2.361068 1_555
S26 Zn28 2.359555 1_655
S26 Zn28 2.359559 1_555
S26 Zn28 2.359559 1_665
S26 Zn26 2.361068 1_555
S27 Zn5 2.359723 1_545
S27 Zn5 2.359726 1_555
S27 Zn5 2.359726 1_445
S27 Zn29 2.361068 1_555
S28 Zn37 2.359305 1_555
S28 Zn16 2.360269 1_655
S28 Zn16 2.360273 1_665
S28 Zn16 2.360273 1_555
S29 Zn25 2.359305 1_555
S29 Zn20 2.360269 1_455
S29 Zn20 2.360273 1_555
S29 Zn20 2.360273 1_445
S30 Zn15 2.359261 1_655
S30 Zn15 2.359265 1_555
S30 Zn15 2.359265 1_665
S30 Zn9 2.363208 1_555
S31 Zn21 2.359305 1_555
S31 Zn38 2.360269 1_545
S31 Zn38 2.360273 1_445
S31 Zn38 2.360273 1_555
S32 Zn34 2.359723 1_565
S32 Zn34 2.359726 1_555
S32 Zn34 2.359726 1_665
S32 Zn3 2.361068 1_555
S33 Zn24 2.359303 1_656
S33 Zn24 2.359307 1_666
S33 Zn24 2.359307 1_556
S33 Zn13 2.363208 1_555
S34 Zn36 2.359765 1_545
S34 Zn36 2.359768 1_555
S34 Zn36 2.359768 1_445
S34 Zn39 2.361068 1_555
S35 Zn26 2.359765 1_455
S35 Zn26 2.359765 1_565
S35 Zn26 2.359771 1_555
S35 Zn31 2.361194 1_555
S36 Zn0 2.359261 1_565
S36 Zn0 2.359265 1_665
S36 Zn0 2.359265 1_555
S36 Zn38 2.363208 1_555
S37 Zn7 2.359136 1_565
S37 Zn7 2.359139 1_665
S37 Zn7 2.359139 1_555
S37 Zn10 2.363082 1_555
S38 Zn17 2.359303 1_455
S38 Zn17 2.359307 1_445
S38 Zn17 2.359307 1_555
S38 Zn16 2.363208 1_555
S39 Zn29 2.359681 1_655
S39 Zn29 2.359684 1_555
S39 Zn29 2.359684 1_665
S39 Zn19 2.361068 1_555
