# generated using pymatgen
data_Sr2SnSe5
_symmetry_space_group_name_H-M   'P 1'
_cell_length_a   8.70279651
_cell_length_b   12.17199499
_cell_length_c   16.72485230
_cell_angle_alpha   90.00000000
_cell_angle_beta   90.00000000
_cell_angle_gamma   90.00000000
_symmetry_Int_Tables_number   1
_chemical_formula_structural   Sr2SnSe5
_chemical_formula_sum   'Sr16 Sn8 Se40'
_cell_volume   1771.67021913
_cell_formula_units_Z   8
loop_
 _symmetry_equiv_pos_site_id
 _symmetry_equiv_pos_as_xyz
  1  'x, y, z'
loop_
 _atom_site_type_symbol
 _atom_site_label
 _atom_site_symmetry_multiplicity
 _atom_site_fract_x
 _atom_site_fract_y
 _atom_site_fract_z
 _atom_site_occupancy
  Sr  Sr0  1  0.24147070  0.25474805  0.43066567  1
  Sr  Sr1  1  0.25588593  0.61454771  0.82130901  1
  Sr  Sr2  1  0.75856530  0.38225317  0.17963581  1
  Sr  Sr3  1  0.74411407  0.11454771  0.67869099  1
  Sr  Sr4  1  0.24143470  0.11774683  0.67963581  1
  Sr  Sr5  1  0.75856530  0.61774683  0.82036419  1
  Sr  Sr6  1  0.74411407  0.88545229  0.32130901  1
  Sr  Sr7  1  0.74022135  0.74779691  0.57087168  1
  Sr  Sr8  1  0.75852930  0.75474805  0.06933433  1
  Sr  Sr9  1  0.24147070  0.74525195  0.56933433  1
  Sr  Sr10  1  0.75852930  0.24525195  0.93066567  1
  Sr  Sr11  1  0.25977865  0.75220309  0.07087168  1
  Sr  Sr12  1  0.74022135  0.25220309  0.42912832  1
  Sr  Sr13  1  0.25588593  0.38545229  0.17869099  1
  Sr  Sr14  1  0.25977865  0.24779691  0.92912832  1
  Sr  Sr15  1  0.24143470  0.88225317  0.32036419  1
  Sn  Sn0  1  0.01569391  0.09174393  0.17344023  1
  Sn  Sn1  1  0.98430609  0.40825607  0.67344023  1
  Sn  Sn2  1  0.49267427  0.05304122  0.10378389  1
  Sn  Sn3  1  0.50732573  0.55304122  0.39621611  1
  Sn  Sn4  1  0.98430609  0.59174393  0.32655977  1
  Sn  Sn5  1  0.49267427  0.94695878  0.89621611  1
  Sn  Sn6  1  0.50732573  0.44695878  0.60378389  1
  Sn  Sn7  1  0.01569391  0.90825607  0.82655977  1
  Se  Se0  1  0.28105908  0.87176440  0.76424138  1
  Se  Se1  1  0.98924460  0.93862669  0.60763783  1
  Se  Se2  1  0.01075540  0.56137331  0.10763783  1
  Se  Se3  1  0.51466263  0.74221642  0.92656138  1
  Se  Se4  1  0.49404430  0.37061818  0.31899568  1
  Se  Se5  1  0.01320982  0.24518769  0.07015378  1
  Se  Se6  1  0.98679018  0.25481231  0.57015378  1
  Se  Se7  1  0.28105908  0.12823560  0.23575862  1
  Se  Se8  1  0.22810020  0.63353032  0.24991602  1
  Se  Se9  1  0.48533737  0.75778358  0.42656138  1
  Se  Se10  1  0.65010788  -0.00000000  0.50000000  1
  Se  Se11  1  0.48868988  0.05807460  0.39112377  1
  Se  Se12  1  0.15652284  -0.00000000  0.50000000  1
  Se  Se13  1  0.98924460  0.06137331  0.39236217  1
  Se  Se14  1  0.99461995  0.61833456  0.67452447  1
  Se  Se15  1  0.84347716  0.50000000  0.00000000  1
  Se  Se16  1  0.28165939  0.50000000  0.50000000  1
  Se  Se17  1  0.00538005  0.11833456  0.82547553  1
  Se  Se18  1  0.51131012  0.44192540  0.89112377  1
  Se  Se19  1  0.99461995  0.38166544  0.32547553  1
  Se  Se20  1  0.49404430  0.62938182  0.68100432  1
  Se  Se21  1  0.72487523  0.50000000  0.50000000  1
  Se  Se22  1  0.51131012  0.55807460  0.10887623  1
  Se  Se23  1  0.50595570  0.87061818  0.18100432  1
  Se  Se24  1  0.50595570  0.12938182  0.81899568  1
  Se  Se25  1  0.48533737  0.24221642  0.57343862  1
  Se  Se26  1  0.48868988  0.94192540  0.60887623  1
  Se  Se27  1  0.01075540  0.43862669  0.89236217  1
  Se  Se28  1  0.01320982  0.75481231  0.92984622  1
  Se  Se29  1  0.00538005  0.88166544  0.17452447  1
  Se  Se30  1  0.34989212  0.50000000  0.00000000  1
  Se  Se31  1  0.77189980  0.13353032  0.25008398  1
  Se  Se32  1  0.51466263  0.25778358  0.07343862  1
  Se  Se33  1  0.71834061  -0.00000000  0.00000000  1
  Se  Se34  1  0.71894092  0.37176440  0.73575862  1
  Se  Se35  1  0.77189980  0.86646968  0.74991602  1
  Se  Se36  1  0.71894092  0.62823560  0.26424138  1
  Se  Se37  1  0.98679018  0.74518769  0.42984622  1
  Se  Se38  1  0.22810020  0.36646968  0.75008398  1
  Se  Se39  1  0.27512477  -0.00000000  0.00000000  1
loop_
_geom_bond_atom_site_label_1
_geom_bond_atom_site_label_2
_geom_bond_distance
_geom_bond_site_symmetry_2
Se0 Sn7 2.572358 1_555
Se0 Sn5 3.016845 1_555
Se0 Sr1 3.280415 1_555
Se0 Sr4 3.329535 1_565
Se0 Sr9 3.621638 1_555
Se1 Se12 2.432735 1_665
Se1 Sr7 3.235763 1_555
Se1 Sr3 3.247838 1_565
Se1 Sr9 3.281601 1_655
Se1 Sr4 3.319706 1_665
Se2 Sr11 3.235763 1_555
Se2 Sr13 3.247838 1_555
Se2 Sr8 3.281601 1_455
Se2 Sr2 3.319706 1_455
Se3 Sn5 2.550465 1_555
Se3 Sr5 3.155247 1_555
Se3 Sr8 3.198340 1_556
Se3 Sr1 3.253536 1_555
Se3 Sr11 3.280322 1_556
Se4 Sn3 2.571331 1_555
Se4 Sr13 3.136060 1_555
Se4 Sr12 3.171793 1_555
Se4 Sr0 3.210754 1_555
Se4 Sr2 3.279039 1_555
Se5 Sn0 2.544193 1_555
Se5 Sr14 3.188850 1_554
Se5 Sr10 3.217931 1_454
Se5 Sr13 3.266566 1_555
Se5 Sr2 3.323768 1_455
Se6 Sn1 2.544193 1_555
Se6 Sr12 3.188850 1_555
Se6 Sr0 3.217931 1_655
Se6 Sr3 3.266566 1_555
Se6 Sr4 3.323768 1_655
Se7 Sn0 2.572358 1_555
Se7 Sn2 3.016845 1_555
Se7 Sr13 3.280415 1_555
Se7 Sr15 3.329535 1_545
Se7 Sr0 3.621638 1_555
Se8 Sn4 2.530498 1_455
Se8 Sr15 3.250720 1_555
Se8 Sr13 3.255074 1_555
Se8 Sr11 3.336092 1_555
Se9 Sn3 2.550465 1_555
Se9 Sr15 3.155247 1_555
Se9 Sr9 3.198340 1_555
Se9 Sr6 3.253536 1_555
Se9 Sr7 3.280322 1_555
Se10 Se11 2.406020 1_555
Se10 Se26 2.406020 1_545
Se10 Sr7 3.382865 1_545
Se10 Sr12 3.382865 1_555
Se10 Sr3 3.397783 1_555
Se10 Sr6 3.397783 1_545
Se11 Sr15 3.257430 1_545
Se11 Sr6 3.274073 1_545
Se11 Sr12 3.283184 1_555
Se11 Sr0 3.285894 1_555
Se12 Se13 2.432735 1_455
Se12 Sr0 3.392070 1_555
Se12 Sr9 3.392070 1_545
Se12 Sr4 3.409764 1_555
Se12 Sr15 3.409764 1_545
Se13 Sr12 3.235763 1_555
Se13 Sr6 3.247838 1_545
Se13 Sr0 3.281601 1_655
Se13 Sr15 3.319706 1_645
Se14 Sn1 2.558713 1_555
Se14 Sr9 3.177543 1_655
Se14 Sr5 3.189010 1_555
Se14 Sr7 3.223382 1_555
Se14 Sr1 3.346463 1_655
Se15 Se2 2.432735 1_655
Se15 Se27 2.432735 1_654
Se15 Sr8 3.392070 1_555
Se15 Sr10 3.392070 1_554
Se15 Sr5 3.409764 1_554
Se15 Sr2 3.409764 1_555
Se16 Sn6 2.699395 1_555
Se16 Sn3 2.699395 1_555
Se16 Sr9 3.221563 1_555
Se16 Sr0 3.221563 1_555
Se17 Sn7 2.558713 1_545
Se17 Sr10 3.177543 1_455
Se17 Sr4 3.189010 1_555
Se17 Sr14 3.223382 1_555
Se17 Sr3 3.346463 1_455
Se18 Se30 2.406020 1_556
Se18 Sr5 3.257430 1_555
Se18 Sr1 3.274073 1_555
Se18 Sr14 3.283184 1_555
Se18 Sr10 3.285894 1_555
Se19 Sn4 2.558713 1_555
Se19 Sr0 3.177543 1_655
Se19 Sr2 3.189010 1_555
Se19 Sr12 3.223382 1_555
Se19 Sr13 3.346463 1_655
Se20 Sn6 2.571331 1_555
Se20 Sr1 3.136060 1_555
Se20 Sr7 3.171793 1_555
Se20 Sr9 3.210754 1_555
Se20 Sr5 3.279039 1_555
Se21 Sn3 2.648445 1_555
Se21 Sn6 2.648445 1_555
Se21 Sr12 3.243482 1_555
Se21 Sr7 3.243482 1_555
Se22 Se30 2.406020 1_555
Se22 Sr2 3.257430 1_555
Se22 Sr13 3.274073 1_555
Se22 Sr11 3.283184 1_555
Se22 Sr8 3.285894 1_555
Se23 Sn2 2.571331 1_565
Se23 Sr6 3.136060 1_555
Se23 Sr11 3.171793 1_555
Se23 Sr8 3.210754 1_555
Se23 Sr15 3.279039 1_555
Se24 Sn5 2.571331 1_545
Se24 Sr3 3.136060 1_555
Se24 Sr14 3.171793 1_555
Se24 Sr10 3.210754 1_555
Se24 Sr4 3.279039 1_555
Se25 Sn6 2.550465 1_555
Se25 Sr4 3.155247 1_555
Se25 Sr0 3.198340 1_555
Se25 Sr3 3.253536 1_555
Se25 Sr12 3.280322 1_555
Se26 Sr4 3.257430 1_565
Se26 Sr3 3.274073 1_565
Se26 Sr7 3.283184 1_555
Se26 Sr9 3.285894 1_555
Se27 Sr14 3.235763 1_555
Se27 Sr1 3.247838 1_555
Se27 Sr10 3.281601 1_455
Se27 Sr5 3.319706 1_455
Se28 Sn7 2.544193 1_555
Se28 Sr11 3.188850 1_556
Se28 Sr8 3.217931 1_456
Se28 Sr1 3.266566 1_555
Se28 Sr5 3.323768 1_455
Se29 Sn0 2.558713 1_565
Se29 Sr8 3.177543 1_455
Se29 Sr15 3.189010 1_555
Se29 Sr11 3.223382 1_555
Se29 Sr6 3.346463 1_455
Se30 Sr14 3.382865 1_554
Se30 Sr11 3.382865 1_555
Se30 Sr13 3.397783 1_555
Se30 Sr1 3.397783 1_554
Se31 Sn0 2.530498 1_655
Se31 Sr2 3.250720 1_555
Se31 Sr6 3.255074 1_545
Se31 Sr12 3.336092 1_555
Se32 Sn2 2.550465 1_555
Se32 Sr2 3.155247 1_555
Se32 Sr10 3.198340 1_554
Se32 Sr13 3.253536 1_555
Se32 Sr14 3.280322 1_554
Se33 Sn2 2.699395 1_555
Se33 Sn5 2.699395 1_544
Se33 Sr8 3.221563 1_545
Se33 Sr10 3.221563 1_554
Se34 Sn1 2.572358 1_555
Se34 Sn6 3.016845 1_555
Se34 Sr3 3.280415 1_555
Se34 Sr5 3.329535 1_555
Se34 Sr10 3.621638 1_555
Se35 Sn7 2.530498 1_655
Se35 Sr5 3.250720 1_555
Se35 Sr3 3.255074 1_565
Se35 Sr7 3.336092 1_555
Se36 Sn4 2.572358 1_555
Se36 Sn3 3.016845 1_555
Se36 Sr6 3.280415 1_555
Se36 Sr2 3.329535 1_555
Se36 Sr8 3.621638 1_555
Se37 Sn4 2.544193 1_555
Se37 Sr7 3.188850 1_555
Se37 Sr9 3.217931 1_655
Se37 Sr6 3.266566 1_555
Se37 Sr15 3.323768 1_655
Se38 Sn1 2.530498 1_455
Se38 Sr4 3.250720 1_555
Se38 Sr1 3.255074 1_555
Se38 Sr14 3.336092 1_555
Se39 Sn2 2.648445 1_555
Se39 Sn5 2.648445 1_544
Se39 Sr14 3.243482 1_554
Se39 Sr11 3.243482 1_545
