# generated using pymatgen
data_K4Nb6O17
_symmetry_space_group_name_H-M   'P 1'
_cell_length_a   6.60406800
_cell_length_b   7.93895200
_cell_length_c   33.70333600
_cell_angle_alpha   90.00000000
_cell_angle_beta   90.00000000
_cell_angle_gamma   90.00000000
_symmetry_Int_Tables_number   1
_chemical_formula_structural   K4Nb6O17
_chemical_formula_sum   'K16 Nb24 O68'
_cell_volume   1767.04497188
_cell_formula_units_Z   4
loop_
 _symmetry_equiv_pos_site_id
 _symmetry_equiv_pos_as_xyz
  1  'x, y, z'
loop_
 _atom_site_type_symbol
 _atom_site_label
 _atom_site_symmetry_multiplicity
 _atom_site_fract_x
 _atom_site_fract_y
 _atom_site_fract_z
 _atom_site_occupancy
  K  K0  1  0.84676800  0.75545900  0.71756700  1
  K  K1  1  0.34846900  0.75434800  0.78112400  1
  K  K2  1  0.21944200  0.25953400  0.98066500  1
  K  K3  1  0.66933800  0.25618200  0.91686100  1
  K  K4  1  0.78055800  0.75953400  0.01933500  1
  K  K5  1  0.16933800  0.75618200  0.58313900  1
  K  K6  1  0.71944200  0.75953400  0.51933500  1
  K  K7  1  0.34676800  0.25545900  0.78243300  1
  K  K8  1  0.33066200  0.75618200  0.08313900  1
  K  K9  1  0.65323200  0.75545900  0.21756700  1
  K  K10  1  0.15323200  0.25545900  0.28243300  1
  K  K11  1  0.15153100  0.75434800  0.28112400  1
  K  K12  1  0.65153100  0.25434800  0.21887600  1
  K  K13  1  0.28055800  0.25953400  0.48066500  1
  K  K14  1  0.84846900  0.25434800  0.71887600  1
  K  K15  1  0.83066200  0.25618200  0.41686100  1
  Nb  Nb0  1  0.13887900  0.25795200  0.09448800  1
  Nb  Nb1  1  0.18236200  0.76036600  0.45134500  1
  Nb  Nb2  1  0.73597600  0.51431200  0.62595800  1
  Nb  Nb3  1  0.26402400  0.01431200  0.37404200  1
  Nb  Nb4  1  0.70517700  0.50400200  0.32599800  1
  Nb  Nb5  1  0.81763800  0.26036600  0.54865500  1
  Nb  Nb6  1  0.23597600  0.01431200  0.87404200  1
  Nb  Nb7  1  0.76402400  0.51431200  0.12595800  1
  Nb  Nb8  1  0.68236200  0.26036600  0.04865500  1
  Nb  Nb9  1  0.20517700  0.00400200  0.17400200  1
  Nb  Nb10  1  0.73843000  0.00115200  0.62531000  1
  Nb  Nb11  1  0.76157000  0.00115200  0.12531000  1
  Nb  Nb12  1  0.36112100  0.25795200  0.59448800  1
  Nb  Nb13  1  0.79482300  0.50400200  0.82599800  1
  Nb  Nb14  1  0.31763800  0.76036600  0.95134500  1
  Nb  Nb15  1  0.29254400  0.50870500  0.67441400  1
  Nb  Nb16  1  0.86112100  0.75795200  0.90551200  1
  Nb  Nb17  1  0.23843000  0.50115200  0.87469000  1
  Nb  Nb18  1  0.29482300  0.00400200  0.67400200  1
  Nb  Nb19  1  0.79254400  0.00870500  0.82558600  1
  Nb  Nb20  1  0.70745600  0.00870500  0.32558600  1
  Nb  Nb21  1  0.63887900  0.75795200  0.40551200  1
  Nb  Nb22  1  0.26157000  0.50115200  0.37469000  1
  Nb  Nb23  1  0.20745600  0.50870500  0.17441400  1
  O  O0  1  0.87533100  0.26248100  0.49651400  1
  O  O1  1  0.69084400  0.02112300  0.06769800  1
  O  O2  1  0.58788800  0.99584500  0.39163500  1
  O  O3  1  0.49421300  0.00967300  0.85073100  1
  O  O4  1  0.78400400  0.75799800  0.11964900  1
  O  O5  1  0.59178300  0.00821400  0.67867700  1
  O  O6  1  0.50578700  0.50967300  0.14926900  1
  O  O7  1  0.30828100  0.99782800  0.93190700  1
  O  O8  1  0.28764500  0.48212000  0.22531600  1
  O  O9  1  0.21599600  0.25799800  0.88035100  1
  O  O10  1  0.90998400  0.50723100  0.17918100  1
  O  O11  1  0.21497300  0.25752100  0.15704300  1
  O  O12  1  0.77325100  0.25674000  0.83103000  1
  O  O13  1  0.00578700  0.00967300  0.35073100  1
  O  O14  1  0.89049000  0.75963700  0.42980000  1
  O  O15  1  0.72674900  0.25674000  0.33103000  1
  O  O16  1  0.90821700  0.00821400  0.17867700  1
  O  O17  1  0.69739200  0.25831500  0.61952300  1
  O  O18  1  0.71497300  0.75752100  0.34295700  1
  O  O19  1  0.19084400  0.52112300  0.43230200  1
  O  O20  1  0.59001600  0.50723100  0.67918100  1
  O  O21  1  0.71235500  0.98212000  0.77468400  1
  O  O22  1  0.49693100  0.50532600  0.85163000  1
  O  O23  1  0.28633400  0.03178300  0.22480400  1
  O  O24  1  0.91211200  0.99584500  0.89163500  1
  O  O25  1  0.91253200  0.51994400  0.89200500  1
  O  O26  1  0.51465700  0.25900600  0.54507900  1
  O  O27  1  0.27325100  0.75674000  0.66897000  1
  O  O28  1  0.41211200  0.49584500  0.60836500  1
  O  O29  1  0.28400400  0.25799800  0.38035100  1
  O  O30  1  0.78764500  0.98212000  0.27468400  1
  O  O31  1  0.71599600  0.75799800  0.61964900  1
  O  O32  1  0.99693100  0.00532600  0.64837000  1
  O  O33  1  0.10951000  0.25963700  0.57020000  1
  O  O34  1  0.80828100  0.49782800  0.56809300  1
  O  O35  1  0.78502700  0.75752100  0.84295700  1
  O  O36  1  0.98534300  0.25900600  0.04507900  1
  O  O37  1  0.80260800  0.25831500  0.11952300  1
  O  O38  1  0.37533100  0.76248100  0.00348600  1
  O  O39  1  0.58746800  0.51994400  0.39200500  1
  O  O40  1  0.21366600  0.03178300  0.72480400  1
  O  O41  1  0.80915600  0.02112300  0.56769800  1
  O  O42  1  0.09001600  0.00723100  0.82081900  1
  O  O43  1  0.08746800  0.01994400  0.10799500  1
  O  O44  1  0.01465700  0.75900600  0.95492100  1
  O  O45  1  0.08788800  0.49584500  0.10836500  1
  O  O46  1  0.62466900  0.26248100  0.99651400  1
  O  O47  1  0.40821700  0.50821400  0.32132300  1
  O  O48  1  0.19739200  0.75831500  0.88047700  1
  O  O49  1  0.30915600  0.52112300  0.93230200  1
  O  O50  1  0.39049000  0.25963700  0.07020000  1
  O  O51  1  0.78633400  0.53178300  0.27519600  1
  O  O52  1  0.21235500  0.48212000  0.72531600  1
  O  O53  1  0.30260800  0.75831500  0.38047700  1
  O  O54  1  0.28502700  0.25752100  0.65704300  1
  O  O55  1  0.12466900  0.76248100  0.50348600  1
  O  O56  1  0.50306900  0.00532600  0.14837000  1
  O  O57  1  0.69171900  0.49782800  0.06809300  1
  O  O58  1  0.00306900  0.50532600  0.35163000  1
  O  O59  1  0.48534300  0.75900600  0.45492100  1
  O  O60  1  0.41253200  0.01994400  0.60799500  1
  O  O61  1  0.19171900  0.99782800  0.43190700  1
  O  O62  1  0.60951000  0.75963700  0.92980000  1
  O  O63  1  0.40998400  0.00723100  0.32081900  1
  O  O64  1  0.71366600  0.53178300  0.77519600  1
  O  O65  1  0.09178300  0.50821400  0.82132300  1
  O  O66  1  0.22674900  0.75674000  0.16897000  1
  O  O67  1  0.99421300  0.50967300  0.64926900  1
loop_
_geom_bond_atom_site_label_1
_geom_bond_atom_site_label_2
_geom_bond_distance
_geom_bond_site_symmetry_2
K0 O64 2.774609 1_555
K0 O21 2.780601 1_555
K0 O20 2.903856 1_555
K0 O5 2.929185 1_565
K0 O67 3.170848 1_555
K0 O32 3.218300 1_565
K0 O52 3.256740 1_655
K0 O27 3.258153 1_655
K0 O40 3.277642 1_665
K1 O65 2.920188 1_555
K1 O42 2.955287 1_565
K1 O64 2.996445 1_555
K1 O52 3.002779 1_555
K1 O21 3.015291 1_555
K1 O40 3.040854 1_565
K1 O22 3.242908 1_555
K1 O3 3.246360 1_565
K2 O36 2.665192 1_456
K2 O49 2.705692 1_555
K2 O7 2.713189 1_545
K2 O46 2.729036 1_555
K3 O46 2.701194 1_555
K3 O24 2.750468 1_545
K3 O25 2.768765 1_555
K3 O12 2.973079 1_555
K3 O22 3.168919 1_555
K3 O3 3.183563 1_555
K3 O7 3.185840 1_545
K3 O49 3.217605 1_555
K3 O9 3.236944 1_555
K4 O44 2.665192 1_654
K4 O1 2.705692 1_565
K4 O57 2.713189 1_555
K4 O38 2.729036 1_555
K5 O55 2.701194 1_555
K5 O28 2.750468 1_555
K5 O60 2.768765 1_565
K5 O27 2.973079 1_555
K5 O32 3.168919 1_465
K5 O67 3.183563 1_455
K5 O34 3.185840 1_455
K5 O41 3.217605 1_465
K5 O31 3.236944 1_455
K6 O59 2.665192 1_555
K6 O41 2.705692 1_565
K6 O34 2.713189 1_555
K6 O55 2.729036 1_655
K7 O40 2.774609 1_555
K7 O52 2.780601 1_555
K7 O42 2.903856 1_555
K7 O65 2.929185 1_555
K7 O3 3.170848 1_555
K7 O22 3.218300 1_555
K7 O21 3.256740 1_545
K7 O12 3.258153 1_555
K7 O64 3.277642 1_555
K8 O38 2.701194 1_555
K8 O45 2.750468 1_555
K8 O43 2.768765 1_565
K8 O66 2.973079 1_555
K8 O56 3.168919 1_565
K8 O6 3.183563 1_555
K8 O57 3.185840 1_555
K8 O1 3.217605 1_565
K8 O4 3.236944 1_555
K9 O51 2.774609 1_555
K9 O30 2.780601 1_555
K9 O10 2.903856 1_555
K9 O16 2.929185 1_565
K9 O6 3.170848 1_555
K9 O56 3.218300 1_565
K9 O8 3.256740 1_555
K9 O66 3.258153 1_555
K9 O23 3.277642 1_565
K10 O23 2.774609 1_555
K10 O8 2.780601 1_555
K10 O63 2.903856 1_555
K10 O47 2.929185 1_555
K10 O13 3.170848 1_555
K10 O58 3.218300 1_555
K10 O30 3.256740 1_445
K10 O15 3.258153 1_455
K10 O51 3.277642 1_455
K11 O47 2.920188 1_555
K11 O63 2.955287 1_565
K11 O51 2.996445 1_455
K11 O8 3.002779 1_555
K11 O30 3.015291 1_455
K11 O23 3.040854 1_565
K11 O58 3.242908 1_555
K11 O13 3.246360 1_565
K12 O16 2.920188 1_555
K12 O10 2.955287 1_555
K12 O23 2.996445 1_555
K12 O30 3.002779 1_545
K12 O8 3.015291 1_555
K12 O51 3.040854 1_555
K12 O56 3.242908 1_555
K12 O6 3.246360 1_555
K13 O26 2.665192 1_555
K13 O19 2.705692 1_555
K13 O61 2.713189 1_545
K13 O0 2.729036 1_455
K14 O5 2.920188 1_555
K14 O20 2.955287 1_555
K14 O40 2.996445 1_655
K14 O21 3.002779 1_545
K14 O52 3.015291 1_655
K14 O64 3.040854 1_555
K14 O32 3.242908 1_555
K14 O67 3.246360 1_555
K15 O0 2.701194 1_555
K15 O2 2.750468 1_545
K15 O39 2.768765 1_555
K15 O15 2.973079 1_555
K15 O58 3.168919 1_655
K15 O13 3.183563 1_655
K15 O61 3.185840 1_645
K15 O19 3.217605 1_655
K15 O29 3.236944 1_655
Nb0 O50 1.852394 1_555
Nb0 O36 1.949677 1_455
Nb0 O43 1.973030 1_555
Nb0 O45 1.974597 1_555
Nb0 O11 2.167378 1_555
Nb0 O37 2.375648 1_455
Nb1 O55 1.798233 1_555
Nb1 O61 1.996744 1_555
Nb1 O59 2.004563 1_555
Nb1 O19 2.005629 1_555
Nb1 O14 2.059789 1_455
Nb1 O53 2.517093 1_555
Nb2 O67 1.878046 1_555
Nb2 O31 1.950729 1_555
Nb2 O34 2.012111 1_555
Nb2 O20 2.037158 1_555
Nb2 O17 2.059710 1_555
Nb2 O28 2.224326 1_555
Nb3 O13 1.878046 1_555
Nb3 O29 1.950729 1_555
Nb3 O61 2.012111 1_545
Nb3 O63 2.037158 1_555
Nb3 O53 2.059710 1_545
Nb3 O2 2.224326 1_545
Nb4 O51 1.807629 1_555
Nb4 O47 1.967747 1_555
Nb4 O15 1.975457 1_555
Nb4 O18 2.093262 1_555
Nb4 O58 2.148644 1_655
Nb4 O39 2.359957 1_555
Nb5 O0 1.798233 1_555
Nb5 O34 1.996744 1_555
Nb5 O26 2.004563 1_555
Nb5 O41 2.005629 1_555
Nb5 O33 2.059789 1_655
Nb5 O17 2.517093 1_555
Nb6 O3 1.878046 1_555
Nb6 O9 1.950729 1_555
Nb6 O7 2.012111 1_545
Nb6 O42 2.037158 1_555
Nb6 O48 2.059710 1_545
Nb6 O24 2.224326 1_445
Nb7 O6 1.878046 1_555
Nb7 O4 1.950729 1_555
Nb7 O57 2.012111 1_555
Nb7 O10 2.037158 1_555
Nb7 O37 2.059710 1_555
Nb7 O45 2.224326 1_655
Nb8 O46 1.798233 1_554
Nb8 O57 1.996744 1_555
Nb8 O36 2.004563 1_555
Nb8 O1 2.005629 1_555
Nb8 O50 2.059789 1_555
Nb8 O37 2.517093 1_555
Nb9 O23 1.807629 1_555
Nb9 O16 1.967747 1_455
Nb9 O66 1.975457 1_545
Nb9 O11 2.093262 1_555
Nb9 O56 2.148644 1_555
Nb9 O43 2.359957 1_555
Nb10 O32 1.876040 1_555
Nb10 O31 1.945443 1_545
Nb10 O41 2.003388 1_555
Nb10 O5 2.043575 1_555
Nb10 O17 2.068729 1_555
Nb10 O60 2.234951 1_555
Nb11 O56 1.876040 1_555
Nb11 O4 1.945443 1_545
Nb11 O1 2.003388 1_555
Nb11 O16 2.043575 1_555
Nb11 O37 2.068729 1_555
Nb11 O43 2.234951 1_655
Nb12 O33 1.852394 1_555
Nb12 O26 1.949677 1_555
Nb12 O60 1.973030 1_555
Nb12 O28 1.974597 1_555
Nb12 O54 2.167378 1_555
Nb12 O17 2.375648 1_555
Nb13 O64 1.807629 1_555
Nb13 O65 1.967747 1_655
Nb13 O12 1.975457 1_555
Nb13 O35 2.093262 1_555
Nb13 O22 2.148644 1_555
Nb13 O25 2.359957 1_555
Nb14 O38 1.798233 1_556
Nb14 O7 1.996744 1_555
Nb14 O44 2.004563 1_555
Nb14 O49 2.005629 1_555
Nb14 O62 2.059789 1_555
Nb14 O48 2.517093 1_555
Nb15 O52 1.807806 1_555
Nb15 O20 1.971119 1_555
Nb15 O27 1.981768 1_555
Nb15 O54 2.078897 1_555
Nb15 O67 2.144748 1_455
Nb15 O28 2.364179 1_555
Nb16 O62 1.852394 1_555
Nb16 O44 1.949677 1_655
Nb16 O25 1.973030 1_555
Nb16 O24 1.974597 1_555
Nb16 O35 2.167378 1_555
Nb16 O48 2.375648 1_655
Nb17 O22 1.876040 1_555
Nb17 O9 1.945443 1_555
Nb17 O49 2.003388 1_555
Nb17 O65 2.043575 1_555
Nb17 O48 2.068729 1_555
Nb17 O25 2.234951 1_455
Nb18 O40 1.807629 1_555
Nb18 O5 1.967747 1_555
Nb18 O27 1.975457 1_545
Nb18 O54 2.093262 1_555
Nb18 O32 2.148644 1_455
Nb18 O60 2.359957 1_555
Nb19 O21 1.807806 1_545
Nb19 O42 1.971119 1_655
Nb19 O12 1.981768 1_555
Nb19 O35 2.078897 1_545
Nb19 O3 2.144748 1_555
Nb19 O24 2.364179 1_545
Nb20 O30 1.807806 1_545
Nb20 O63 1.971119 1_555
Nb20 O15 1.981768 1_555
Nb20 O18 2.078897 1_545
Nb20 O13 2.144748 1_655
Nb20 O2 2.364179 1_545
Nb21 O14 1.852394 1_555
Nb21 O59 1.949677 1_555
Nb21 O39 1.973030 1_555
Nb21 O2 1.974597 1_555
Nb21 O18 2.167378 1_555
Nb21 O53 2.375648 1_555
Nb22 O58 1.876040 1_555
Nb22 O29 1.945443 1_555
Nb22 O19 2.003388 1_555
Nb22 O47 2.043575 1_555
Nb22 O53 2.068729 1_555
Nb22 O39 2.234951 1_555
Nb23 O8 1.807806 1_555
Nb23 O10 1.971119 1_455
Nb23 O66 1.981768 1_555
Nb23 O11 2.078897 1_555
Nb23 O6 2.144748 1_555
Nb23 O45 2.364179 1_555
