# generated using pymatgen
data_Bi14PdBr16
_symmetry_space_group_name_H-M   'P 1'
_cell_length_a   11.11881700
_cell_length_b   11.26508629
_cell_length_c   11.32049317
_cell_angle_alpha   118.50548151
_cell_angle_beta   108.53276086
_cell_angle_gamma   92.00914619
_symmetry_Int_Tables_number   1
_chemical_formula_structural   Bi14PdBr16
_chemical_formula_sum   'Bi14 Pd1 Br16'
_cell_volume   1151.37175421
_cell_formula_units_Z   1
loop_
 _symmetry_equiv_pos_site_id
 _symmetry_equiv_pos_as_xyz
  1  'x, y, z'
loop_
 _atom_site_type_symbol
 _atom_site_label
 _atom_site_symmetry_multiplicity
 _atom_site_fract_x
 _atom_site_fract_y
 _atom_site_fract_z
 _atom_site_occupancy
  Bi  Bi0  1  0.24784900  0.89670200  0.99441500  1
  Bi  Bi1  1  0.75215100  0.10329800  0.00558500  1
  Bi  Bi2  1  0.16766000  0.11639100  0.89909200  1
  Bi  Bi3  1  0.83234000  0.88360900  0.10090800  1
  Bi  Bi4  1  0.01287700  0.30163900  0.09147800  1
  Bi  Bi5  1  0.98712300  0.69836100  0.90852200  1
  Bi  Bi6  1  0.99371200  0.19032600  0.29547400  1
  Bi  Bi7  1  0.00628800  0.80967400  0.70452700  1
  Bi  Bi8  1  0.13545400  0.93674500  0.23425300  1
  Bi  Bi9  1  0.86454600  0.06325500  0.76574700  1
  Bi  Bi10  1  0.61816700  0.33761000  0.47008900  1
  Bi  Bi11  1  0.38183300  0.66239000  0.52991100  1
  Bi  Bi12  1  0.65459800  0.60295600  0.21550800  1
  Bi  Bi13  1  0.34540200  0.39704400  0.78449200  1
  Pd  Pd0  1  0.00000000  0.00000000  0.00000000  1
  Br  Br0  1  0.57381900  0.07956800  0.21715600  1
  Br  Br1  1  0.42618100  0.92043200  0.78284400  1
  Br  Br2  1  0.85677300  0.32422900  0.63353200  1
  Br  Br3  1  0.14322700  0.67577100  0.36646800  1
  Br  Br4  1  0.47986900  0.21604700  0.56659200  1
  Br  Br5  1  0.52013100  0.78395300  0.43340800  1
  Br  Br6  1  0.37378400  0.38559800  0.29658000  1
  Br  Br7  1  0.62621600  0.61440200  0.70342000  1
  Br  Br8  1  0.79181900  0.48796500  0.38792700  1
  Br  Br9  1  0.20818100  0.51203500  0.61207300  1
  Br  Br10  1  0.80267300  0.52653200  0.04881500  1
  Br  Br11  1  0.19732700  0.47346800  0.95118500  1
  Br  Br12  1  0.50693900  0.69000900  0.01994300  1
  Br  Br13  1  0.49306100  0.30999100  0.98005700  1
  Br  Br14  1  0.83300000  0.85677200  0.39859100  1
  Br  Br15  1  0.16700000  0.14322800  0.60140900  1
loop_
_geom_bond_atom_site_label_1
_geom_bond_atom_site_label_2
_geom_bond_distance
_geom_bond_site_symmetry_2
Bi0 Pd0 3.036093 1_566
Bi0 Bi5 3.165746 1_455
Bi0 Bi7 3.175824 1_555
Bi1 Pd0 3.036093 1_655
Bi1 Bi4 3.165746 1_655
Bi1 Bi6 3.175831 1_555
Bi2 Pd0 3.018466 1_556
Bi2 Bi7 3.130205 1_545
Bi2 Bi4 3.218145 1_556
Bi3 Pd0 3.018466 1_665
Bi3 Bi6 3.130204 1_565
Bi3 Bi5 3.218145 1_554
Bi4 Pd0 3.025254 1_555
Bi4 Bi9 3.146515 1_454
Bi4 Bi6 3.163686 1_455
Bi5 Pd0 3.025254 1_666
Bi5 Bi8 3.146515 1_656
Bi5 Bi7 3.163676 1_655
Bi6 Pd0 3.017315 1_655
Bi6 Bi8 3.200731 1_645
Bi7 Pd0 3.017306 1_566
Bi7 Bi9 3.200731 1_465
Bi8 Pd0 3.024631 1_565
Bi9 Pd0 3.024631 1_656
Bi10 Br2 2.767390 1_555
Bi10 Br4 2.789537 1_555
Bi10 Br0 2.819421 1_555
Bi10 Br7 2.945576 1_555
Bi10 Br6 3.042604 1_555
Bi10 Br8 3.142921 1_555
Bi11 Br3 2.767390 1_555
Bi11 Br5 2.789537 1_555
Bi11 Br1 2.819421 1_555
Bi11 Br6 2.945576 1_555
Bi11 Br7 3.042604 1_555
Bi11 Br9 3.142921 1_555
Bi12 Br10 2.745282 1_555
Bi12 Br14 2.781765 1_555
Bi12 Br12 2.903973 1_555
Bi12 Br8 2.911096 1_555
Bi12 Br13 3.060569 1_554
Bi12 Br5 3.199226 1_555
Bi13 Br11 2.745282 1_555
Bi13 Br15 2.781765 1_555
Bi13 Br13 2.903973 1_555
Bi13 Br9 2.911096 1_555
Bi13 Br12 3.060569 1_556
Bi13 Br4 3.199226 1_555
