# generated using pymatgen
data_Nd12Ni6Sn
_symmetry_space_group_name_H-M   'P 1'
_cell_length_a   8.68868115
_cell_length_b   8.68868115
_cell_length_c   8.68868115
_cell_angle_alpha   109.47122063
_cell_angle_beta   109.47122063
_cell_angle_gamma   109.47122063
_symmetry_Int_Tables_number   1
_chemical_formula_structural   Nd12Ni6Sn
_chemical_formula_sum   'Nd12 Ni6 Sn1'
_cell_volume   504.93989970
_cell_formula_units_Z   1
loop_
 _symmetry_equiv_pos_site_id
 _symmetry_equiv_pos_as_xyz
  1  'x, y, z'
loop_
 _atom_site_type_symbol
 _atom_site_label
 _atom_site_symmetry_multiplicity
 _atom_site_fract_x
 _atom_site_fract_y
 _atom_site_fract_z
 _atom_site_occupancy
  Nd  Nd0  1  0.69218234  0.18604327  0.87822561  1
  Nd  Nd1  1  0.81395673  0.50613907  0.69218234  1
  Nd  Nd2  1  0.49386093  0.30781766  0.18604327  1
  Nd  Nd3  1  0.81395673  0.12177439  0.30781766  1
  Nd  Nd4  1  0.50613907  0.69218234  0.81395673  1
  Nd  Nd5  1  0.18604327  0.49386093  0.30781766  1
  Nd  Nd6  1  0.12177439  0.30781766  0.81395673  1
  Nd  Nd7  1  0.87822561  0.69218234  0.18604327  1
  Nd  Nd8  1  0.18604327  0.87822561  0.69218234  1
  Nd  Nd9  1  0.69218234  0.81395673  0.50613907  1
  Nd  Nd10  1  0.30781766  0.18604327  0.49386093  1
  Nd  Nd11  1  0.30781766  0.81395673  0.12177439  1
  Ni  Ni0  1  0.62139028  0.12139028  0.50000000  1
  Ni  Ni1  1  0.87860972  0.50000000  0.37860972  1
  Ni  Ni2  1  0.50000000  0.37860972  0.87860972  1
  Ni  Ni3  1  0.12139028  0.50000000  0.62139028  1
  Ni  Ni4  1  0.50000000  0.62139028  0.12139028  1
  Ni  Ni5  1  0.37860972  0.87860972  0.50000000  1
  Sn  Sn0  1  -0.00000000  -0.00000000  -0.00000000  1
loop_
_geom_bond_atom_site_label_1
_geom_bond_atom_site_label_2
_geom_bond_distance
_geom_bond_site_symmetry_2
Nd0 Ni2 2.729516 1_555
Nd0 Ni5 2.947017 1_545
Nd0 Ni0 2.947017 1_555
Nd0 Sn0 3.608524 1_656
Nd0 Ni1 3.663341 1_556
Nd1 Ni0 2.729516 1_555
Nd1 Ni3 2.947017 1_655
Nd1 Ni1 2.947017 1_555
Nd1 Sn0 3.608524 1_666
Nd1 Ni2 3.663341 1_555
Nd2 Ni1 2.729516 1_555
Nd2 Ni2 2.947017 1_554
Nd2 Ni4 2.947017 1_555
Nd2 Sn0 3.608524 1_555
Nd2 Ni0 3.663341 1_555
Nd3 Ni0 2.729516 1_555
Nd3 Ni3 2.947017 1_655
Nd3 Ni1 2.947017 1_555
Nd3 Sn0 3.608524 1_655
Nd3 Ni4 3.663341 1_545
Nd4 Ni3 2.729516 1_555
Nd4 Ni4 2.947017 1_556
Nd4 Ni2 2.947017 1_555
Nd4 Sn0 3.608524 1_666
Nd4 Ni5 3.663341 1_555
Nd5 Ni5 2.729516 1_555
Nd5 Ni1 2.947017 1_455
Nd5 Ni3 2.947017 1_555
Nd5 Sn0 3.608524 1_555
Nd5 Ni4 3.663341 1_555
Nd6 Ni3 2.729516 1_555
Nd6 Ni4 2.947017 1_556
Nd6 Ni2 2.947017 1_555
Nd6 Sn0 3.608524 1_556
Nd6 Ni0 3.663341 1_455
Nd7 Ni1 2.729516 1_555
Nd7 Ni2 2.947017 1_554
Nd7 Ni4 2.947017 1_555
Nd7 Sn0 3.608524 1_665
Nd7 Ni5 3.663341 1_655
Nd8 Ni5 2.729516 1_555
Nd8 Ni1 2.947017 1_455
Nd8 Ni3 2.947017 1_555
Nd8 Sn0 3.608524 1_566
Nd8 Ni2 3.663341 1_565
Nd9 Ni4 2.729516 1_555
Nd9 Ni5 2.947017 1_555
Nd9 Ni0 2.947017 1_565
Nd9 Sn0 3.608524 1_666
Nd9 Ni1 3.663341 1_555
Nd10 Ni2 2.729516 1_555
Nd10 Ni5 2.947017 1_545
Nd10 Ni0 2.947017 1_555
Nd10 Sn0 3.608524 1_555
Nd10 Ni3 3.663341 1_555
Nd11 Ni4 2.729516 1_555
Nd11 Ni5 2.947017 1_555
Nd11 Ni0 2.947017 1_565
Nd11 Sn0 3.608524 1_565
Nd11 Ni3 3.663341 1_554
Ni0 Ni5 2.435775 1_545
Ni1 Ni3 2.435775 1_655
Ni2 Ni4 2.435775 1_556
