# generated using pymatgen
data_CaBr2
_symmetry_space_group_name_H-M   'P 1'
_cell_length_a   6.80812474
_cell_length_b   6.80812474
_cell_length_c   4.37986693
_cell_angle_alpha   90.00000000
_cell_angle_beta   90.00000000
_cell_angle_gamma   90.00000000
_symmetry_Int_Tables_number   1
_chemical_formula_structural   CaBr2
_chemical_formula_sum   'Ca2 Br4'
_cell_volume   203.00929577
_cell_formula_units_Z   2
loop_
 _symmetry_equiv_pos_site_id
 _symmetry_equiv_pos_as_xyz
  1  'x, y, z'
loop_
 _atom_site_type_symbol
 _atom_site_label
 _atom_site_symmetry_multiplicity
 _atom_site_fract_x
 _atom_site_fract_y
 _atom_site_fract_z
 _atom_site_occupancy
  Ca  Ca0  1  0.00000000  0.00000000  0.00000000  1
  Ca  Ca1  1  0.50000000  0.50000000  0.50000000  1
  Br  Br0  1  0.80228098  0.19771902  0.50000000  1
  Br  Br1  1  0.69771902  0.69771902  0.00000000  1
  Br  Br2  1  0.30228098  0.30228098  -0.00000000  1
  Br  Br3  1  0.19771902  0.80228098  0.50000000  1
loop_
_geom_bond_atom_site_label_1
_geom_bond_atom_site_label_2
_geom_bond_distance
_geom_bond_site_symmetry_2
Br0 Ca0 2.901682 1_655
Br0 Ca0 2.901682 1_656
Br0 Ca1 2.910404 1_555
Br1 Ca1 2.901682 1_555
Br1 Ca1 2.901682 1_554
Br1 Ca0 2.910404 1_665
Br2 Ca1 2.901682 1_555
Br2 Ca1 2.901682 1_554
Br2 Ca0 2.910404 1_555
Br3 Ca0 2.901682 1_565
Br3 Ca0 2.901682 1_566
Br3 Ca1 2.910404 1_555
