# generated using pymatgen
data_K2Ag2SnSe4
_symmetry_space_group_name_H-M   'P 1'
_cell_length_a   6.01734900
_cell_length_b   7.69126700
_cell_length_c   12.47791974
_cell_angle_alpha   66.16747479
_cell_angle_beta   90.00000000
_cell_angle_gamma   90.00000000
_symmetry_Int_Tables_number   1
_chemical_formula_structural   K2Ag2SnSe4
_chemical_formula_sum   'K4 Ag4 Sn2 Se8'
_cell_volume   528.24866452
_cell_formula_units_Z   2
loop_
 _symmetry_equiv_pos_site_id
 _symmetry_equiv_pos_as_xyz
  1  'x, y, z'
loop_
 _atom_site_type_symbol
 _atom_site_label
 _atom_site_symmetry_multiplicity
 _atom_site_fract_x
 _atom_site_fract_y
 _atom_site_fract_z
 _atom_site_occupancy
  K  K0  1  0.52157700  0.00000000  0.25000000  1
  K  K1  1  0.00000000  0.00000000  0.00000000  1
  K  K2  1  0.47842300  0.00000000  0.75000000  1
  K  K3  1  0.00000000  0.00000000  0.50000000  1
  Ag  Ag0  1  0.75002700  0.50094900  0.03186200  1
  Ag  Ag1  1  0.24997300  0.50094900  0.53186200  1
  Ag  Ag2  1  0.24997300  0.49905100  0.96813800  1
  Ag  Ag3  1  0.75002700  0.49905100  0.46813800  1
  Sn  Sn0  1  0.24920300  0.50000000  0.25000000  1
  Sn  Sn1  1  0.75079700  0.50000000  0.75000000  1
  Se  Se0  1  0.03087500  0.73320400  0.31139400  1
  Se  Se1  1  0.52981300  0.26667000  0.92641900  1
  Se  Se2  1  0.47018700  0.73333000  0.07358100  1
  Se  Se3  1  0.52981300  0.73333000  0.57358100  1
  Se  Se4  1  0.03087500  0.26679600  0.18860600  1
  Se  Se5  1  0.47018700  0.26667000  0.42641900  1
  Se  Se6  1  0.96912500  0.73320400  0.81139400  1
  Se  Se7  1  0.96912500  0.26679600  0.68860600  1
loop_
_geom_bond_atom_site_label_1
_geom_bond_atom_site_label_2
_geom_bond_distance
_geom_bond_site_symmetry_2
K0 Se4 3.499399 1_555
K0 Se0 3.499399 1_545
K0 Se2 3.577286 1_545
K0 Se5 3.577286 1_555
K0 Se4 3.594318 1_655
K0 Se0 3.594318 1_645
K0 Se1 3.717418 1_554
K0 Se3 3.717418 1_545
K1 Se2 3.395985 1_545
K1 Se1 3.395985 1_454
K1 Se7 3.591571 1_454
K1 Se0 3.591571 1_545
K1 Se4 3.699510 1_555
K1 Se6 3.699510 1_444
K1 Se2 3.700227 1_445
K1 Se1 3.700227 1_554
K2 Se6 3.499399 1_545
K2 Se7 3.499399 1_555
K2 Se3 3.577286 1_545
K2 Se1 3.577286 1_555
K2 Se6 3.594318 1_445
K2 Se7 3.594318 1_455
K2 Se2 3.717418 1_546
K2 Se5 3.717418 1_555
K3 Se3 3.395985 1_445
K3 Se5 3.395985 1_555
K3 Se6 3.591571 1_445
K3 Se4 3.591571 1_555
K3 Se0 3.699510 1_545
K3 Se7 3.699510 1_455
K3 Se3 3.700227 1_545
K3 Se5 3.700227 1_455
Ag0 Se2 2.655718 1_555
Ag0 Se4 2.660476 1_655
Ag0 Se6 2.919890 1_554
Ag0 Se1 2.941044 1_554
Ag1 Se3 2.655718 1_555
Ag1 Se7 2.660476 1_455
Ag1 Se0 2.919890 1_555
Ag1 Se5 2.941044 1_555
Ag2 Se1 2.655718 1_555
Ag2 Se6 2.660476 1_455
Ag2 Se4 2.919890 1_556
Ag2 Se2 2.941044 1_556
Ag3 Se5 2.655718 1_555
Ag3 Se0 2.660476 1_655
Ag3 Se7 2.919890 1_555
Ag3 Se3 2.941044 1_555
Se0 Sn0 2.576887 1_555
Se1 Sn1 2.577240 1_555
Se2 Sn0 2.577240 1_555
Se3 Sn1 2.577240 1_555
Se4 Sn0 2.576887 1_555
Se5 Sn0 2.577240 1_555
Se6 Sn1 2.576887 1_555
Se7 Sn1 2.576887 1_555
