# generated using pymatgen
data_SrAl4O7
_symmetry_space_group_name_H-M   'P 1'
_cell_length_a   8.20364879
_cell_length_b   8.20364879
_cell_length_c   4.84087100
_cell_angle_alpha   90.00000000
_cell_angle_beta   90.00000000
_cell_angle_gamma   111.30088142
_symmetry_Int_Tables_number   1
_chemical_formula_structural   SrAl4O7
_chemical_formula_sum   'Sr2 Al8 O14'
_cell_volume   303.53377996
_cell_formula_units_Z   2
loop_
 _symmetry_equiv_pos_site_id
 _symmetry_equiv_pos_as_xyz
  1  'x, y, z'
loop_
 _atom_site_type_symbol
 _atom_site_label
 _atom_site_symmetry_multiplicity
 _atom_site_fract_x
 _atom_site_fract_y
 _atom_site_fract_z
 _atom_site_occupancy
  Sr  Sr0  1  0.50000000  0.00000000  0.00000000  1
  Sr  Sr1  1  0.00000000  0.50000000  0.00000000  1
  Al  Al0  1  0.63065200  0.36934800  0.55637400  1
  Al  Al1  1  0.36934800  0.63065200  0.44362600  1
  Al  Al2  1  0.75000000  0.75000000  0.50000000  1
  Al  Al3  1  0.86934800  0.13065200  0.55637400  1
  Al  Al4  1  0.13065200  0.86934800  0.44362600  1
  Al  Al5  1  0.50000000  0.50000000  0.00000000  1
  Al  Al6  1  0.00000000  0.00000000  0.00000000  1
  Al  Al7  1  0.25000000  0.25000000  0.50000000  1
  O  O0  1  0.07302700  0.21227300  0.73231300  1
  O  O1  1  0.78772700  0.92697300  0.73231300  1
  O  O2  1  0.38350000  0.61650000  0.79842500  1
  O  O3  1  0.88350000  0.11650000  0.20157500  1
  O  O4  1  0.61650000  0.38350000  0.20157500  1
  O  O5  1  0.71227300  0.57302700  0.73231300  1
  O  O6  1  0.42697300  0.28772700  0.73231300  1
  O  O7  1  0.21227300  0.07302700  0.26768700  1
  O  O8  1  0.57302700  0.71227300  0.26768700  1
  O  O9  1  0.28772700  0.42697300  0.26768700  1
  O  O10  1  0.92697300  0.78772700  0.26768700  1
  O  O11  1  0.25000000  0.75000000  0.32164200  1
  O  O12  1  0.11650000  0.88350000  0.79842500  1
  O  O13  1  0.75000000  0.25000000  0.67835800  1
loop_
_geom_bond_atom_site_label_1
_geom_bond_atom_site_label_2
_geom_bond_distance
_geom_bond_site_symmetry_2
Al0 O13 1.721161 1_555
Al0 O4 1.728202 1_555
Al0 O5 1.775619 1_555
Al0 O6 1.775619 1_555
Al1 O11 1.721161 1_555
Al1 O2 1.728202 1_555
Al1 O8 1.775619 1_555
Al1 O9 1.775619 1_555
Al2 O10 1.772525 1_555
Al2 O8 1.772525 1_555
Al2 O5 1.772525 1_555
Al2 O1 1.772525 1_555
Al3 O13 1.721161 1_555
Al3 O3 1.728202 1_555
Al3 O1 1.775619 1_545
Al3 O0 1.775619 1_655
Al4 O11 1.721161 1_555
Al4 O12 1.728202 1_555
Al4 O10 1.775619 1_455
Al4 O7 1.775619 1_565
Al5 O4 1.855431 1_555
Al5 O2 1.855431 1_554
Al5 O6 2.076695 1_554
Al5 O9 2.076695 1_555
Al5 O8 2.076695 1_555
Al5 O5 2.076695 1_554
Al6 O12 1.855431 1_544
Al6 O3 1.855431 1_455
Al6 O7 2.076695 1_555
Al6 O0 2.076695 1_554
Al6 O1 2.076695 1_444
Al6 O10 2.076695 1_445
Al7 O9 1.772525 1_555
Al7 O0 1.772525 1_555
Al7 O6 1.772525 1_555
Al7 O7 1.772525 1_555
O0 Sr1 2.938882 1_556
O1 Sr0 2.938882 1_566
O2 Sr1 3.094995 1_556
O2 Sr0 3.094995 1_566
O3 Sr0 3.094995 1_555
O3 Sr1 3.094995 1_655
O4 Sr1 3.094995 1_655
O4 Sr0 3.094995 1_555
O5 Sr1 2.938882 1_656
O6 Sr0 2.938882 1_556
O7 Sr0 2.938882 1_555
O8 Sr0 2.938882 1_565
O9 Sr1 2.938882 1_555
O10 Sr1 2.938882 1_655
O11 Sr0 2.789418 1_565
O11 Sr1 2.789418 1_555
O12 Sr1 3.094995 1_556
O12 Sr0 3.094995 1_566
O13 Sr0 2.789418 1_556
O13 Sr1 2.789418 1_656
