# generated using pymatgen
data_Ba2AlInO5
_symmetry_space_group_name_H-M   'P 1'
_cell_length_a   5.93292185
_cell_length_b   5.93292185
_cell_length_c   19.98246000
_cell_angle_alpha   90.00000000
_cell_angle_beta   90.00000000
_cell_angle_gamma   119.99999835
_symmetry_Int_Tables_number   1
_chemical_formula_structural   Ba2AlInO5
_chemical_formula_sum   'Ba8 Al4 In4 O20'
_cell_volume   609.13961852
_cell_formula_units_Z   4
loop_
 _symmetry_equiv_pos_site_id
 _symmetry_equiv_pos_as_xyz
  1  'x, y, z'
loop_
 _atom_site_type_symbol
 _atom_site_label
 _atom_site_symmetry_multiplicity
 _atom_site_fract_x
 _atom_site_fract_y
 _atom_site_fract_z
 _atom_site_occupancy
  Ba  Ba0  1  0.66666700  0.33333300  0.89408700  1
  Ba  Ba1  1  0.33333300  0.66666700  0.10591300  1
  Ba  Ba2  1  0.33333300  0.66666700  0.39408700  1
  Ba  Ba3  1  0.00000000  0.00000000  0.00000000  1
  Ba  Ba4  1  0.00000000  0.00000000  0.50000000  1
  Ba  Ba5  1  0.66666700  0.33333300  0.25000000  1
  Ba  Ba6  1  0.66666700  0.33333300  0.60591300  1
  Ba  Ba7  1  0.33333300  0.66666700  0.75000000  1
  Al  Al0  1  0.00000000  0.00000000  0.83668700  1
  Al  Al1  1  0.00000000  0.00000000  0.16331300  1
  Al  Al2  1  0.00000000  0.00000000  0.66331300  1
  Al  Al3  1  0.00000000  0.00000000  0.33668700  1
  In  In0  1  0.33333300  0.66666700  0.56675200  1
  In  In1  1  0.66666700  0.33333300  0.06675200  1
  In  In2  1  0.33333300  0.66666700  0.93324800  1
  In  In3  1  0.66666700  0.33333300  0.43324800  1
  O  O0  1  0.67361100  0.83680600  0.63433300  1
  O  O1  1  0.00000000  0.50000000  0.50000000  1
  O  O2  1  0.00000000  0.00000000  0.25000000  1
  O  O3  1  0.83680600  0.67361100  0.36566700  1
  O  O4  1  0.83680600  0.16319400  0.13433300  1
  O  O5  1  0.16319400  0.32638900  0.63433300  1
  O  O6  1  0.67361100  0.83680600  0.86566700  1
  O  O7  1  0.32638900  0.16319400  0.13433300  1
  O  O8  1  0.00000000  0.00000000  0.75000000  1
  O  O9  1  0.83680600  0.16319400  0.36566700  1
  O  O10  1  0.16319400  0.32638900  0.86566700  1
  O  O11  1  0.50000000  0.00000000  0.00000000  1
  O  O12  1  0.32638900  0.16319400  0.36566700  1
  O  O13  1  0.50000000  0.00000000  0.50000000  1
  O  O14  1  0.83680600  0.67361100  0.13433300  1
  O  O15  1  0.16319400  0.83680600  0.63433300  1
  O  O16  1  0.50000000  0.50000000  0.00000000  1
  O  O17  1  0.00000000  0.50000000  0.00000000  1
  O  O18  1  0.50000000  0.50000000  0.50000000  1
  O  O19  1  0.16319400  0.83680600  0.86566700  1
loop_
_geom_bond_atom_site_label_1
_geom_bond_atom_site_label_2
_geom_bond_distance
_geom_bond_site_symmetry_2
Ba0 O11 2.722581 1_556
Ba0 O17 2.722581 1_656
Ba0 O16 2.722585 1_556
Ba0 O10 3.020536 1_655
Ba0 O6 3.020536 1_545
Ba0 O19 3.020542 1_655
Ba0 O19 3.020542 1_545
Ba0 O6 3.020548 1_555
Ba0 O10 3.020548 1_555
Ba1 O11 2.722581 1_565
Ba1 O17 2.722581 1_555
Ba1 O16 2.722585 1_555
Ba1 O7 3.020536 1_565
Ba1 O14 3.020536 1_455
Ba1 O4 3.020542 1_565
Ba1 O4 3.020542 1_455
Ba1 O14 3.020548 1_555
Ba1 O7 3.020548 1_555
Ba2 O1 2.722581 1_555
Ba2 O13 2.722581 1_565
Ba2 O18 2.722585 1_555
Ba2 O12 3.020536 1_565
Ba2 O3 3.020536 1_455
Ba2 O9 3.020542 1_565
Ba2 O9 3.020542 1_455
Ba2 O3 3.020548 1_555
Ba2 O12 3.020548 1_555
Ba3 O11 2.966461 1_555
Ba3 O17 2.966461 1_545
Ba3 O11 2.966461 1_455
Ba3 O17 2.966461 1_555
Ba3 O16 2.966461 1_555
Ba3 O16 2.966461 1_445
Ba3 O4 3.165094 1_455
Ba3 O19 3.165094 1_544
Ba3 O14 3.165097 1_445
Ba3 O7 3.165097 1_555
Ba3 O10 3.165097 1_554
Ba3 O6 3.165097 1_444
Ba4 O13 2.966461 1_555
Ba4 O13 2.966461 1_455
Ba4 O1 2.966461 1_545
Ba4 O1 2.966461 1_555
Ba4 O18 2.966461 1_555
Ba4 O18 2.966461 1_445
Ba4 O15 3.165094 1_545
Ba4 O9 3.165094 1_455
Ba4 O5 3.165097 1_555
Ba4 O0 3.165097 1_445
Ba4 O3 3.165097 1_445
Ba4 O12 3.165097 1_555
Ba5 O9 2.898095 1_555
Ba5 O4 2.898095 1_555
Ba5 O12 2.898095 1_555
Ba5 O3 2.898095 1_555
Ba5 O14 2.898095 1_555
Ba5 O7 2.898095 1_555
Ba6 O1 2.722581 1_655
Ba6 O13 2.722581 1_555
Ba6 O18 2.722585 1_555
Ba6 O5 3.020536 1_655
Ba6 O0 3.020536 1_545
Ba6 O15 3.020542 1_655
Ba6 O15 3.020542 1_545
Ba6 O0 3.020548 1_555
Ba6 O5 3.020548 1_555
Ba7 O19 2.898095 1_555
Ba7 O15 2.898095 1_555
Ba7 O6 2.898095 1_555
Ba7 O10 2.898095 1_555
Ba7 O5 2.898095 1_555
Ba7 O0 2.898095 1_555
Al0 O8 1.732220 1_555
Al0 O19 1.774171 1_545
Al0 O10 1.774175 1_555
Al0 O6 1.774175 1_445
Al1 O2 1.732220 1_555
Al1 O4 1.774171 1_455
Al1 O7 1.774175 1_555
Al1 O14 1.774175 1_445
Al2 O8 1.732220 1_555
Al2 O15 1.774171 1_545
Al2 O5 1.774175 1_555
Al2 O0 1.774175 1_445
Al3 O2 1.732220 1_555
Al3 O9 1.774171 1_455
Al3 O12 1.774175 1_555
Al3 O3 1.774175 1_445
In0 O13 2.170829 1_565
In0 O1 2.170829 1_555
In0 O18 2.170833 1_555
In0 O15 2.209178 1_555
In0 O0 2.209178 1_555
In0 O5 2.209178 1_555
In1 O17 2.170829 1_655
In1 O11 2.170829 1_555
In1 O16 2.170833 1_555
In1 O4 2.209178 1_555
In1 O14 2.209178 1_555
In1 O7 2.209178 1_555
In2 O17 2.170829 1_556
In2 O11 2.170829 1_566
In2 O16 2.170833 1_556
In2 O19 2.209178 1_555
In2 O6 2.209178 1_555
In2 O10 2.209178 1_555
In3 O1 2.170829 1_655
In3 O13 2.170829 1_555
In3 O18 2.170833 1_555
In3 O9 2.209178 1_555
In3 O3 2.209178 1_555
In3 O12 2.209178 1_555
