# generated using pymatgen
data_Cs5FeO4
_symmetry_space_group_name_H-M   'P 1'
_cell_length_a   12.79247621
_cell_length_b   7.31853582
_cell_length_c   11.38103760
_cell_angle_alpha   80.94957332
_cell_angle_beta   90.00000000
_cell_angle_gamma   90.00000000
_symmetry_Int_Tables_number   1
_chemical_formula_structural   Cs5FeO4
_chemical_formula_sum   'Cs20 Fe4 O16'
_cell_volume   1052.25232678
_cell_formula_units_Z   4
loop_
 _symmetry_equiv_pos_site_id
 _symmetry_equiv_pos_as_xyz
  1  'x, y, z'
loop_
 _atom_site_type_symbol
 _atom_site_label
 _atom_site_symmetry_multiplicity
 _atom_site_fract_x
 _atom_site_fract_y
 _atom_site_fract_z
 _atom_site_occupancy
  Cs  Cs0  1  0.70303833  0.01012101  0.23392191  1
  Cs  Cs1  1  0.20303833  0.48987899  0.76607809  1
  Cs  Cs2  1  0.29696167  0.98987899  0.76607809  1
  Cs  Cs3  1  0.79696167  0.51012101  0.23392191  1
  Cs  Cs4  1  0.17573053  0.16473023  0.14963681  1
  Cs  Cs5  1  0.67573053  0.33526977  0.85036319  1
  Cs  Cs6  1  0.82426947  0.83526977  0.85036319  1
  Cs  Cs7  1  0.32426947  0.66473023  0.14963681  1
  Cs  Cs8  1  0.07049182  0.45102671  0.36672973  1
  Cs  Cs9  1  0.57049182  0.04897329  0.63327027  1
  Cs  Cs10  1  0.92950818  0.54897329  0.63327027  1
  Cs  Cs11  1  0.42950818  0.95102671  0.36672973  1
  Cs  Cs12  1  0.92442211  0.24078361  0.00811600  1
  Cs  Cs13  1  0.42442211  0.25921639  0.99188400  1
  Cs  Cs14  1  0.07557789  0.75921639  0.99188400  1
  Cs  Cs15  1  0.57557789  0.74078361  0.00811600  1
  Cs  Cs16  1  0.86372362  0.07395843  0.50504789  1
  Cs  Cs17  1  0.36372362  0.42604157  0.49495211  1
  Cs  Cs18  1  0.13627638  0.92604157  0.49495211  1
  Cs  Cs19  1  0.63627638  0.57395843  0.50504789  1
  Fe  Fe0  1  0.53196081  0.38750315  0.25383767  1
  Fe  Fe1  1  0.03196081  0.11249685  0.74616233  1
  Fe  Fe2  1  0.46803919  0.61249685  0.74616233  1
  Fe  Fe3  1  0.96803919  0.88750315  0.25383767  1
  O  O0  1  0.88858012  0.18442755  0.75966718  1
  O  O1  1  0.38858012  0.31557245  0.24033282  1
  O  O2  1  0.11141988  0.81557245  0.24033282  1
  O  O3  1  0.61141988  0.68442755  0.75966718  1
  O  O4  1  0.60653058  0.35545927  0.11196792  1
  O  O5  1  0.10653058  0.14454073  0.88803208  1
  O  O6  1  0.39346942  0.64454073  0.88803208  1
  O  O7  1  0.89346942  0.85545927  0.11196792  1
  O  O8  1  0.59417897  0.24454244  0.38941730  1
  O  O9  1  0.09417897  0.25545756  0.61058270  1
  O  O10  1  0.40582103  0.75545756  0.61058270  1
  O  O11  1  0.90582103  0.74454244  0.38941730  1
  O  O12  1  0.96719478  0.14222672  0.27201500  1
  O  O13  1  0.46719478  0.35777328  0.72798500  1
  O  O14  1  0.03280522  0.85777328  0.72798500  1
  O  O15  1  0.53280522  0.64222672  0.27201500  1
loop_
_geom_bond_atom_site_label_1
_geom_bond_atom_site_label_2
_geom_bond_distance
_geom_bond_site_symmetry_2
Cs0 O4 2.955436 1_555
Cs0 O8 2.994940 1_555
Cs0 O7 3.104256 1_545
Cs0 O15 3.436915 1_545
Cs0 O11 3.543553 1_545
Cs0 O12 3.560009 1_555
Cs1 O5 2.955436 1_555
Cs1 O9 2.994940 1_555
Cs1 O6 3.104256 1_555
Cs1 O14 3.436915 1_555
Cs1 O10 3.543553 1_555
Cs1 O13 3.560009 1_555
Cs2 O6 2.955436 1_555
Cs2 O10 2.994940 1_555
Cs2 O5 3.104256 1_565
Cs2 O13 3.436915 1_565
Cs2 O9 3.543553 1_565
Cs2 O14 3.560009 1_555
Cs3 O7 2.955436 1_555
Cs3 O11 2.994940 1_555
Cs3 O4 3.104256 1_555
Cs3 O12 3.436915 1_555
Cs3 O8 3.543553 1_555
Cs3 O15 3.560009 1_555
Cs4 O2 2.728030 1_545
Cs4 O12 3.001897 1_455
Cs4 O5 3.131836 1_554
Cs4 O1 3.171229 1_555
Cs5 O3 2.728030 1_555
Cs5 O13 3.001897 1_555
Cs5 O4 3.131836 1_556
Cs5 O0 3.171229 1_555
Cs6 O0 2.728030 1_565
Cs6 O14 3.001897 1_655
Cs6 O7 3.131836 1_556
Cs6 O3 3.171229 1_555
Cs7 O1 2.728030 1_555
Cs7 O15 3.001897 1_555
Cs7 O6 3.131836 1_554
Cs7 O2 3.171229 1_555
Cs8 O2 2.872971 1_555
Cs8 O9 2.931378 1_555
Cs8 O12 2.963445 1_455
Cs8 O11 3.048453 1_455
Cs9 O3 2.872971 1_545
Cs9 O8 2.931378 1_555
Cs9 O13 2.963445 1_555
Cs9 O10 3.048453 1_545
Cs10 O0 2.872971 1_555
Cs10 O11 2.931378 1_555
Cs10 O14 2.963445 1_655
Cs10 O9 3.048453 1_655
Cs11 O1 2.872971 1_565
Cs11 O10 2.931378 1_555
Cs11 O15 2.963445 1_555
Cs11 O8 3.048453 1_565
Cs12 O5 2.844979 1_654
Cs12 O7 2.908198 1_545
Cs12 O0 2.956788 1_554
Cs12 O12 3.026348 1_555
Cs13 O4 2.844979 1_556
Cs13 O6 2.908198 1_555
Cs13 O1 2.956788 1_556
Cs13 O13 3.026348 1_555
Cs14 O7 2.844979 1_456
Cs14 O5 2.908198 1_565
Cs14 O2 2.956788 1_556
Cs14 O14 3.026348 1_555
Cs15 O6 2.844979 1_554
Cs15 O4 2.908198 1_555
Cs15 O3 2.956788 1_554
Cs15 O15 3.026348 1_555
Cs16 O12 2.935768 1_555
Cs16 O11 2.971896 1_545
Cs16 O0 3.144715 1_555
Cs17 O13 2.935768 1_555
Cs17 O10 2.971896 1_555
Cs17 O1 3.144715 1_555
Cs18 O14 2.935768 1_555
Cs18 O9 2.971896 1_565
Cs18 O2 3.144715 1_555
Cs19 O15 2.935768 1_555
Cs19 O8 2.971896 1_555
Cs19 O3 3.144715 1_555
Fe0 O8 1.897687 1_555
Fe0 O15 1.907748 1_555
Fe0 O1 1.921060 1_555
Fe0 O4 1.921230 1_555
Fe1 O9 1.897687 1_555
Fe1 O14 1.907748 1_545
Fe1 O0 1.921060 1_455
Fe1 O5 1.921230 1_555
Fe2 O10 1.897687 1_555
Fe2 O13 1.907748 1_555
Fe2 O3 1.921060 1_555
Fe2 O6 1.921230 1_555
Fe3 O11 1.897687 1_555
Fe3 O12 1.907748 1_565
Fe3 O2 1.921060 1_655
Fe3 O7 1.921230 1_555
