# generated using pymatgen
data_CdHg6(As2Br3)2
_symmetry_space_group_name_H-M   'P 1'
_cell_length_a   12.70259000
_cell_length_b   12.70259000
_cell_length_c   12.70259000
_cell_angle_alpha   90.00000000
_cell_angle_beta   90.00000000
_cell_angle_gamma   90.00000000
_symmetry_Int_Tables_number   1
_chemical_formula_structural   CdHg6(As2Br3)2
_chemical_formula_sum   'Cd4 Hg24 As16 Br24'
_cell_volume   2049.63647890
_cell_formula_units_Z   4
loop_
 _symmetry_equiv_pos_site_id
 _symmetry_equiv_pos_as_xyz
  1  'x, y, z'
loop_
 _atom_site_type_symbol
 _atom_site_label
 _atom_site_symmetry_multiplicity
 _atom_site_fract_x
 _atom_site_fract_y
 _atom_site_fract_z
 _atom_site_occupancy
  Cd  Cd0  1  0.50000000  0.00000000  0.50000000  1
  Cd  Cd1  1  0.00000000  0.00000000  0.00000000  1
  Cd  Cd2  1  0.00000000  0.50000000  0.50000000  1
  Cd  Cd3  1  0.50000000  0.50000000  0.00000000  1
  Hg  Hg0  1  0.71421500  0.71780600  0.47599300  1
  Hg  Hg1  1  0.21780600  0.02400700  0.28578500  1
  Hg  Hg2  1  0.97599300  0.71421500  0.78219400  1
  Hg  Hg3  1  0.78578500  0.28219400  0.97599300  1
  Hg  Hg4  1  0.52400700  0.28578500  0.28219400  1
  Hg  Hg5  1  0.78219400  0.97599300  0.71421500  1
  Hg  Hg6  1  0.02400700  0.21421500  0.71780600  1
  Hg  Hg7  1  0.47599300  0.78578500  0.21780600  1
  Hg  Hg8  1  0.21780600  0.47599300  0.78578500  1
  Hg  Hg9  1  0.47599300  0.71421500  0.71780600  1
  Hg  Hg10  1  0.78578500  0.21780600  0.47599300  1
  Hg  Hg11  1  0.28578500  0.28219400  0.52400700  1
  Hg  Hg12  1  0.02400700  0.28578500  0.21780600  1
  Hg  Hg13  1  0.97599300  0.78578500  0.28219400  1
  Hg  Hg14  1  0.78219400  0.52400700  0.21421500  1
  Hg  Hg15  1  0.28219400  0.52400700  0.28578500  1
  Hg  Hg16  1  0.28578500  0.21780600  0.02400700  1
  Hg  Hg17  1  0.28219400  0.97599300  0.78578500  1
  Hg  Hg18  1  0.52400700  0.21421500  0.78219400  1
  Hg  Hg19  1  0.21421500  0.71780600  0.02400700  1
  Hg  Hg20  1  0.71780600  0.47599300  0.71421500  1
  Hg  Hg21  1  0.71421500  0.78219400  0.97599300  1
  Hg  Hg22  1  0.21421500  0.78219400  0.52400700  1
  Hg  Hg23  1  0.71780600  0.02400700  0.21421500  1
  As  As0  1  0.82908900  0.17091100  0.67091100  1
  As  As1  1  0.78269800  0.71730200  0.28269800  1
  As  As2  1  0.82908900  0.32908900  0.17091100  1
  As  As3  1  0.17091100  0.67091100  0.82908900  1
  As  As4  1  0.32908900  0.17091100  0.82908900  1
  As  As5  1  0.32908900  0.32908900  0.32908900  1
  As  As6  1  0.21730200  0.28269800  0.71730200  1
  As  As7  1  0.71730200  0.21730200  0.28269800  1
  As  As8  1  0.17091100  0.82908900  0.32908900  1
  As  As9  1  0.67091100  0.82908900  0.17091100  1
  As  As10  1  0.78269800  0.78269800  0.78269800  1
  As  As11  1  0.21730200  0.21730200  0.21730200  1
  As  As12  1  0.28269800  0.78269800  0.71730200  1
  As  As13  1  0.71730200  0.28269800  0.78269800  1
  As  As14  1  0.67091100  0.67091100  0.67091100  1
  As  As15  1  0.28269800  0.71730200  0.21730200  1
  Br  Br0  1  0.03174200  0.21781500  0.96218800  1
  Br  Br1  1  0.78218500  0.46218800  0.46825800  1
  Br  Br2  1  0.96825800  0.78218500  0.03781200  1
  Br  Br3  1  0.53174200  0.28218500  0.03781200  1
  Br  Br4  1  0.96825800  0.71781500  0.53781200  1
  Br  Br5  1  0.28218500  0.46218800  0.03174200  1
  Br  Br6  1  0.03781200  0.53174200  0.28218500  1
  Br  Br7  1  0.46218800  0.03174200  0.28218500  1
  Br  Br8  1  0.78218500  0.03781200  0.96825800  1
  Br  Br9  1  0.53781200  0.53174200  0.21781500  1
  Br  Br10  1  0.71781500  0.96218800  0.46825800  1
  Br  Br11  1  0.21781500  0.96218800  0.03174200  1
  Br  Br12  1  0.46218800  0.46825800  0.78218500  1
  Br  Br13  1  0.28218500  0.03781200  0.53174200  1
  Br  Br14  1  0.96218800  0.03174200  0.21781500  1
  Br  Br15  1  0.03174200  0.28218500  0.46218800  1
  Br  Br16  1  0.53781200  0.96825800  0.71781500  1
  Br  Br17  1  0.71781500  0.53781200  0.96825800  1
  Br  Br18  1  0.21781500  0.53781200  0.53174200  1
  Br  Br19  1  0.53174200  0.21781500  0.53781200  1
  Br  Br20  1  0.96218800  0.46825800  0.71781500  1
  Br  Br21  1  0.03781200  0.96825800  0.78218500  1
  Br  Br22  1  0.46825800  0.78218500  0.46218800  1
  Br  Br23  1  0.46825800  0.71781500  0.96218800  1
loop_
_geom_bond_atom_site_label_1
_geom_bond_atom_site_label_2
_geom_bond_distance
_geom_bond_site_symmetry_2
As0 As13 2.459485 1_555
As0 Hg5 2.605344 1_545
As0 Hg10 2.605344 1_555
As0 Hg6 2.605344 1_655
As1 As9 2.459485 1_555
As1 Hg14 2.604902 1_555
As1 Hg13 2.604902 1_555
As1 Hg0 2.604902 1_555
As2 As7 2.459485 1_555
As2 Hg3 2.605344 1_554
As2 Hg12 2.605344 1_655
As2 Hg14 2.605344 1_555
As3 Hg2 2.605344 1_455
As3 Hg8 2.605344 1_555
As3 Hg19 2.605344 1_556
As4 As6 2.459485 1_555
As4 Hg17 2.605344 1_545
As4 Hg16 2.605344 1_556
As4 Hg18 2.605344 1_555
As5 Hg4 2.605344 1_555
As5 Hg15 2.605344 1_555
As5 Hg11 2.605344 1_555
As6 Hg11 2.604902 1_555
As6 Hg6 2.604902 1_555
As6 Hg8 2.604902 1_555
As7 Hg23 2.604902 1_555
As7 Hg4 2.604902 1_555
As7 Hg10 2.604902 1_555
As8 Hg13 2.605344 1_455
As8 Hg1 2.605344 1_565
As8 Hg22 2.605344 1_555
As9 Hg21 2.605344 1_554
As9 Hg7 2.605344 1_555
As9 Hg23 2.605344 1_565
As10 As14 2.459485 1_555
As10 Hg21 2.604902 1_555
As10 Hg5 2.604902 1_555
As10 Hg2 2.604902 1_555
As11 As5 2.459485 1_555
As11 Hg16 2.604902 1_555
As11 Hg12 2.604902 1_555
As11 Hg1 2.604902 1_555
As12 As3 2.459485 1_555
As12 Hg17 2.604902 1_555
As12 Hg22 2.604902 1_555
As12 Hg9 2.604902 1_555
As13 Hg18 2.604902 1_555
As13 Hg3 2.604902 1_555
As13 Hg20 2.604902 1_555
As14 Hg0 2.605344 1_555
As14 Hg20 2.605344 1_555
As14 Hg9 2.605344 1_555
As15 As8 2.459485 1_555
As15 Hg7 2.604902 1_555
As15 Hg19 2.604902 1_555
As15 Hg15 2.604902 1_555
Br0 Cd1 2.836994 1_556
Br0 Hg6 3.106176 1_555
Br1 Cd2 2.836994 1_655
Br1 Hg10 3.106176 1_555
Br2 Cd1 2.836994 1_665
Br2 Hg13 3.106176 1_555
Br3 Cd3 2.836994 1_555
Br3 Hg4 3.106176 1_555
Br4 Cd2 2.836994 1_655
Br4 Hg2 3.106176 1_555
Br5 Cd3 2.836994 1_555
Br5 Hg16 3.106176 1_555
Br6 Cd2 2.836994 1_555
Br6 Hg15 3.106176 1_555
Br7 Cd0 2.836994 1_555
Br7 Hg1 3.106176 1_555
Br8 Cd1 2.836994 1_656
Br8 Hg3 3.106176 1_555
Br9 Cd3 2.836994 1_555
Br9 Hg14 3.106176 1_555
Br10 Cd0 2.836994 1_565
Br10 Hg0 3.106176 1_555
Br11 Cd1 2.836994 1_565
Br11 Hg19 3.106176 1_555
Br12 Cd3 2.836994 1_556
Br12 Hg8 3.106176 1_555
Br13 Cd0 2.836994 1_555
Br13 Hg11 3.106176 1_555
Br14 Cd1 2.836994 1_655
Br14 Hg23 3.106176 1_555
Br15 Cd2 2.836994 1_555
Br15 Hg12 3.106176 1_555
Br16 Cd0 2.836994 1_565
Br16 Hg5 3.106176 1_555
Br17 Cd3 2.836994 1_556
Br17 Hg21 3.106176 1_555
Br18 Cd2 2.836994 1_555
Br18 Hg22 3.106176 1_555
Br19 Cd0 2.836994 1_555
Br19 Hg18 3.106176 1_555
Br20 Cd2 2.836994 1_655
Br20 Hg20 3.106176 1_555
Br21 Cd1 2.836994 1_566
Br21 Hg17 3.106176 1_555
Br22 Cd0 2.836994 1_565
Br22 Hg7 3.106176 1_555
Br23 Cd3 2.836994 1_556
Br23 Hg9 3.106176 1_555
