# generated using pymatgen
data_Dy7(TeIr)2
_symmetry_space_group_name_H-M   'P 1'
_cell_length_a   3.94516394
_cell_length_b   9.37761063
_cell_length_c   9.37761112
_cell_angle_alpha   60.54944181
_cell_angle_beta   77.85712650
_cell_angle_gamma   77.85712407
_symmetry_Int_Tables_number   1
_chemical_formula_structural   Dy7(TeIr)2
_chemical_formula_sum   'Dy7 Te2 Ir2'
_cell_volume   293.00681317
_cell_formula_units_Z   1
loop_
 _symmetry_equiv_pos_site_id
 _symmetry_equiv_pos_as_xyz
  1  'x, y, z'
loop_
 _atom_site_type_symbol
 _atom_site_label
 _atom_site_symmetry_multiplicity
 _atom_site_fract_x
 _atom_site_fract_y
 _atom_site_fract_z
 _atom_site_occupancy
  Dy  Dy0  1  0.18529059  0.71225514  0.91716469  1
  Dy  Dy1  1  0.14637122  0.10778361  0.59947595  1
  Dy  Dy2  1  0.50000000  0.02226169  0.97773831  1
  Dy  Dy3  1  0.36911986  0.73869590  0.52306437  1
  Dy  Dy4  1  0.63088014  0.47693563  0.26130410  1
  Dy  Dy5  1  0.81470941  0.08283531  0.28774486  1
  Dy  Dy6  1  0.85362878  0.40052405  0.89221639  1
  Te  Te0  1  -0.00000000  0.76188363  0.23811637  1
  Te  Te1  1  0.50000000  0.35990400  0.64009600  1
  Ir  Ir0  1  0.26059948  0.33480004  0.14399900  1
  Ir  Ir1  1  0.73940052  0.85600100  0.66519996  1
loop_
_geom_bond_atom_site_label_1
_geom_bond_atom_site_label_2
_geom_bond_distance
_geom_bond_site_symmetry_2
Dy0 Ir1 2.848423 1_455
Dy0 Ir1 2.848426 1_555
Dy0 Ir0 3.092175 1_556
Dy0 Te0 3.180926 1_556
Dy1 Ir1 2.877521 1_545
Dy1 Ir1 2.877522 1_445
Dy1 Te1 3.190324 1_555
Dy1 Te1 3.190328 1_455
Dy2 Te0 3.154742 1_646
Dy2 Te0 3.154742 1_546
Dy2 Te1 3.192537 1_555
Dy3 Ir1 2.838603 1_455
Dy3 Ir1 2.838609 1_555
Dy3 Te1 3.118047 1_555
Dy3 Te0 3.200105 1_555
Dy3 Te0 3.200105 1_655
Dy4 Ir0 2.838603 1_655
Dy4 Ir0 2.838609 1_555
Dy4 Te1 3.118047 1_555
Dy4 Te0 3.200105 1_555
Dy4 Te0 3.200105 1_655
Dy5 Ir0 2.848423 1_655
Dy5 Ir0 2.848426 1_555
Dy5 Ir1 3.092175 1_545
Dy5 Te0 3.180926 1_645
Dy6 Ir0 2.877522 1_656
Dy6 Ir0 2.877522 1_556
Dy6 Te1 3.190324 1_555
Dy6 Te1 3.190328 1_655
