# generated using pymatgen
data_Ni4P4O15
_symmetry_space_group_name_H-M   'P 1'
_cell_length_a   8.67158014
_cell_length_b   8.67158014
_cell_length_c   18.07094783
_cell_angle_alpha   82.22757412
_cell_angle_beta   82.22757412
_cell_angle_gamma   107.21171257
_symmetry_Int_Tables_number   1
_chemical_formula_structural   Ni4P4O15
_chemical_formula_sum   'Ni16 P16 O60'
_cell_volume   1263.84871345
_cell_formula_units_Z   4
loop_
 _symmetry_equiv_pos_site_id
 _symmetry_equiv_pos_as_xyz
  1  'x, y, z'
loop_
 _atom_site_type_symbol
 _atom_site_label
 _atom_site_symmetry_multiplicity
 _atom_site_fract_x
 _atom_site_fract_y
 _atom_site_fract_z
 _atom_site_occupancy
  Ni  Ni0  1  0.91422800  0.26789500  0.43406200  1
  Ni  Ni1  1  0.94772800  0.05227200  0.75000000  1
  Ni  Ni2  1  0.00000000  0.50000000  0.00000000  1
  Ni  Ni3  1  0.83374900  0.16625100  0.25000000  1
  Ni  Ni4  1  0.96057700  0.84998200  0.06825000  1
  Ni  Ni5  1  0.73210500  0.08577200  0.06593800  1
  Ni  Ni6  1  0.84998200  0.96057700  0.56825000  1
  Ni  Ni7  1  0.52173800  0.47826200  0.25000000  1
  Ni  Ni8  1  0.50000000  0.00000000  0.50000000  1
  Ni  Ni9  1  0.47826200  0.52173800  0.75000000  1
  Ni  Ni10  1  0.15001800  0.03942300  0.43175000  1
  Ni  Ni11  1  0.26789500  0.91422800  0.93406200  1
  Ni  Ni12  1  0.03942300  0.15001800  0.93175000  1
  Ni  Ni13  1  0.16625100  0.83374900  0.75000000  1
  Ni  Ni14  1  0.05227200  0.94772800  0.25000000  1
  Ni  Ni15  1  0.08577200  0.73210500  0.56593800  1
  P  P0  1  0.98675900  0.68584500  0.40132100  1
  P  P1  1  0.77895200  0.43987000  0.12488300  1
  P  P2  1  0.88657200  0.77431600  0.90318700  1
  P  P3  1  0.77431600  0.88657200  0.40318700  1
  P  P4  1  0.56013000  0.22104800  0.37511700  1
  P  P5  1  0.84371200  0.71973400  0.67975000  1
  P  P6  1  0.71973400  0.84371200  0.17975000  1
  P  P7  1  0.68584500  0.98675900  0.90132100  1
  P  P8  1  0.31415500  0.01324100  0.09867900  1
  P  P9  1  0.28026600  0.15628800  0.82025000  1
  P  P10  1  0.15628800  0.28026600  0.32025000  1
  P  P11  1  0.43987000  0.77895200  0.62488300  1
  P  P12  1  0.22568400  0.11342800  0.59681300  1
  P  P13  1  0.11342800  0.22568400  0.09681300  1
  P  P14  1  0.22104800  0.56013000  0.87511700  1
  P  P15  1  0.01324100  0.31415500  0.59867900  1
  O  O0  1  0.88881600  0.00227100  0.44935100  1
  O  O1  1  0.99772900  0.11118400  0.05064900  1
  O  O2  1  0.97914300  0.28755000  0.31760000  1
  O  O3  1  0.95759700  0.50697200  0.42808300  1
  O  O4  1  0.94970600  0.25395000  0.68330800  1
  O  O5  1  0.83799900  0.38402400  0.19651600  1
  O  O6  1  0.91183000  0.60410200  0.07952100  1
  O  O7  1  0.79151300  0.09764400  0.94958100  1
  O  O8  1  0.71245000  0.02085700  0.18240000  1
  O  O9  1  0.90235600  0.20848700  0.55041900  1
  O  O10  1  0.66912500  0.21359300  0.43738800  1
  O  O11  1  0.80712900  0.71435200  0.42080100  1
  O  O12  1  0.78640700  0.33087500  0.06261200  1
  O  O13  1  0.89699100  0.82971700  0.18325700  1
  O  O14  1  0.74605000  0.05029400  0.81669200  1
  O  O15  1  0.86676500  0.59711600  0.92941200  1
  O  O16  1  0.95165800  0.83778700  0.81674800  1
  O  O17  1  0.83778700  0.95165800  0.31674800  1
  O  O18  1  0.61597600  0.16200100  0.30348400  1
  O  O19  1  0.83607000  0.71728300  0.59264200  1
  O  O20  1  0.54419900  0.39152000  0.35163400  1
  O  O21  1  0.60848000  0.45580100  0.14836600  1
  O  O22  1  0.49302800  0.04240300  0.07191700  1
  O  O23  1  0.71728300  0.83607000  0.09264200  1
  O  O24  1  0.82971700  0.89699100  0.68325700  1
  O  O25  1  0.71397100  0.58524000  0.73680800  1
  O  O26  1  0.39589800  0.08817000  0.42047900  1
  O  O27  1  0.71435200  0.80712900  0.92080100  1
  O  O28  1  0.59711600  0.86676500  0.42941200  1
  O  O29  1  0.58524000  0.71397100  0.23680800  1
  O  O30  1  0.41476000  0.28602900  0.76319200  1
  O  O31  1  0.40288400  0.13323500  0.57058800  1
  O  O32  1  0.28564800  0.19287100  0.07919900  1
  O  O33  1  0.60410200  0.91183000  0.57952100  1
  O  O34  1  0.28602900  0.41476000  0.26319200  1
  O  O35  1  0.17028300  0.10300900  0.31674300  1
  O  O36  1  0.28271700  0.16393000  0.90735800  1
  O  O37  1  0.50697200  0.95759700  0.92808300  1
  O  O38  1  0.39152000  0.54419900  0.85163400  1
  O  O39  1  0.45580100  0.60848000  0.64836600  1
  O  O40  1  0.16393000  0.28271700  0.40735800  1
  O  O41  1  0.38402400  0.83799900  0.69651600  1
  O  O42  1  0.16221300  0.04834200  0.68325200  1
  O  O43  1  0.04834200  0.16221300  0.18325200  1
  O  O44  1  0.13323500  0.40288400  0.07058800  1
  O  O45  1  0.25395000  0.94970600  0.18330800  1
  O  O46  1  0.10300900  0.17028300  0.81674300  1
  O  O47  1  0.21359300  0.66912500  0.93738800  1
  O  O48  1  0.19287100  0.28564800  0.57919900  1
  O  O49  1  0.33087500  0.78640700  0.56261200  1
  O  O50  1  0.09764400  0.79151300  0.44958100  1
  O  O51  1  0.28755000  0.97914300  0.81760000  1
  O  O52  1  0.20848700  0.90235600  0.05041900  1
  O  O53  1  0.08817000  0.39589800  0.92047900  1
  O  O54  1  0.16200100  0.61597600  0.80348400  1
  O  O55  1  0.05029400  0.74605000  0.31669200  1
  O  O56  1  0.04240300  0.49302800  0.57191700  1
  O  O57  1  0.02085700  0.71245000  0.68240000  1
  O  O58  1  0.00227000  0.88881600  0.94935100  1
  O  O59  1  0.11118400  0.99773000  0.55064900  1
loop_
_geom_bond_atom_site_label_1
_geom_bond_atom_site_label_2
_geom_bond_distance
_geom_bond_site_symmetry_2
Ni0 O3 1.979437 1_555
Ni0 O10 2.026892 1_555
Ni0 O2 2.073871 1_555
Ni0 O9 2.077098 1_555
Ni0 O40 2.115150 1_655
Ni0 O0 2.222941 1_555
Ni1 O14 1.979362 1_555
Ni1 O4 1.979362 1_555
Ni1 O46 2.067051 1_655
Ni1 O24 2.067051 1_545
Ni1 O16 2.087397 1_545
Ni1 O42 2.087397 1_655
Ni2 O6 1.981586 1_455
Ni2 O53 1.981586 1_554
Ni2 O47 2.058745 1_554
Ni2 O12 2.058745 1_455
Ni2 O44 2.086884 1_555
Ni2 O15 2.086884 1_454
Ni3 O18 1.989269 1_555
Ni3 O5 1.989269 1_555
Ni3 O8 2.041469 1_555
Ni3 O2 2.041469 1_555
Ni3 O43 2.088498 1_655
Ni3 O17 2.088498 1_545
Ni4 O6 2.022911 1_555
Ni4 O52 2.031466 1_655
Ni4 O13 2.046486 1_555
Ni4 O23 2.059934 1_555
Ni4 O58 2.093515 1_654
Ni4 O1 2.163541 1_565
Ni5 O22 1.979437 1_555
Ni5 O12 2.026892 1_555
Ni5 O8 2.073871 1_555
Ni5 O7 2.077098 1_554
Ni5 O23 2.115150 1_545
Ni5 O1 2.222941 1_555
Ni6 O33 2.022911 1_555
Ni6 O9 2.031466 1_565
Ni6 O24 2.046486 1_555
Ni6 O19 2.059934 1_555
Ni6 O0 2.093515 1_565
Ni6 O59 2.163539 1_655
Ni7 O34 1.924700 1_555
Ni7 O29 1.924700 1_555
Ni7 O20 1.945946 1_555
Ni7 O21 1.945946 1_555
Ni8 O33 1.981586 1_545
Ni8 O26 1.981586 1_555
Ni8 O10 2.058745 1_555
Ni8 O49 2.058745 1_545
Ni8 O31 2.086884 1_555
Ni8 O28 2.086884 1_545
Ni9 O30 1.924700 1_555
Ni9 O25 1.924700 1_555
Ni9 O38 1.945946 1_555
Ni9 O39 1.945946 1_555
Ni10 O26 2.022911 1_555
Ni10 O50 2.031466 1_545
Ni10 O35 2.046486 1_555
Ni10 O40 2.059934 1_555
Ni10 O59 2.093515 1_545
Ni10 O0 2.163541 1_455
Ni11 O37 1.979437 1_555
Ni11 O47 2.026892 1_555
Ni11 O51 2.073871 1_555
Ni11 O52 2.077098 1_556
Ni11 O36 2.115150 1_565
Ni11 O58 2.222950 1_555
Ni12 O53 2.022911 1_555
Ni12 O7 2.031466 1_455
Ni12 O46 2.046486 1_555
Ni12 O36 2.059934 1_555
Ni12 O1 2.093515 1_456
Ni12 O58 2.163539 1_545
Ni13 O54 1.989269 1_555
Ni13 O41 1.989269 1_555
Ni13 O57 2.041469 1_555
Ni13 O51 2.041469 1_555
Ni13 O16 2.088498 1_455
Ni13 O42 2.088498 1_565
Ni14 O55 1.979362 1_555
Ni14 O45 1.979362 1_555
Ni14 O35 2.067051 1_565
Ni14 O13 2.067051 1_455
Ni14 O17 2.087397 1_455
Ni14 O43 2.087397 1_565
Ni15 O56 1.979437 1_555
Ni15 O49 2.026892 1_555
Ni15 O57 2.073871 1_555
Ni15 O50 2.077098 1_555
Ni15 O19 2.115150 1_455
Ni15 O59 2.222950 1_555
O0 P3 1.596639 1_545
O1 P13 1.596639 1_655
O2 P10 1.562840 1_655
O3 P0 1.495216 1_555
O4 P15 1.516860 1_655
O5 P1 1.526050 1_555
O6 P1 1.576542 1_555
O7 P7 1.564063 1_545
O8 P6 1.562840 1_545
O9 P15 1.564063 1_655
O10 P4 1.570973 1_555
O11 P3 1.599996 1_555
O11 P0 1.647570 1_555
O12 P1 1.570973 1_555
O13 P6 1.586215 1_555
O14 P7 1.516860 1_545
O15 P2 1.496686 1_555
O16 P2 1.551321 1_555
O17 P3 1.551321 1_555
O18 P4 1.526050 1_555
O19 P5 1.587180 1_555
O20 P4 1.533448 1_555
O21 P1 1.533448 1_555
O22 P8 1.495216 1_555
O23 P6 1.587180 1_555
O24 P5 1.586215 1_555
O25 P5 1.507832 1_555
O26 P4 1.576542 1_555
O27 P2 1.599996 1_555
O27 P7 1.647570 1_555
O28 P3 1.496686 1_555
O29 P6 1.507832 1_555
O30 P9 1.507832 1_555
O31 P12 1.496686 1_555
O32 P13 1.599996 1_555
O32 P8 1.647570 1_555
O33 P11 1.576542 1_555
O34 P10 1.507832 1_555
O35 P10 1.586215 1_555
O36 P9 1.587180 1_555
O37 P7 1.495216 1_555
O38 P14 1.533448 1_555
O39 P11 1.533448 1_555
O40 P10 1.587180 1_555
O41 P11 1.526050 1_555
O42 P12 1.551321 1_555
O43 P13 1.551321 1_555
O44 P13 1.496686 1_555
O45 P8 1.516860 1_565
O46 P9 1.586215 1_555
O47 P14 1.570973 1_555
O48 P12 1.599996 1_555
O48 P15 1.647570 1_555
O49 P11 1.570973 1_555
O50 P0 1.564063 1_455
O51 P9 1.562840 1_565
O52 P8 1.564063 1_565
O53 P14 1.576542 1_555
O54 P14 1.526050 1_555
O55 P0 1.516860 1_455
O56 P15 1.495216 1_555
O57 P5 1.562840 1_455
O58 P2 1.596635 1_455
O59 P12 1.596635 1_565
