# generated using pymatgen
data_Rb2Sb2OF10
_symmetry_space_group_name_H-M   'P 1'
_cell_length_a   15.58417700
_cell_length_b   8.20323300
_cell_length_c   11.17474953
_cell_angle_alpha   49.75150234
_cell_angle_beta   90.00000000
_cell_angle_gamma   90.00000000
_symmetry_Int_Tables_number   1
_chemical_formula_structural   Rb2Sb2OF10
_chemical_formula_sum   'Rb8 Sb8 O4 F40'
_cell_volume   1090.36824501
_cell_formula_units_Z   4
loop_
 _symmetry_equiv_pos_site_id
 _symmetry_equiv_pos_as_xyz
  1  'x, y, z'
loop_
 _atom_site_type_symbol
 _atom_site_label
 _atom_site_symmetry_multiplicity
 _atom_site_fract_x
 _atom_site_fract_y
 _atom_site_fract_z
 _atom_site_occupancy
  Rb  Rb0  1  0.31626500  0.78500000  0.96775700  1
  Rb  Rb1  1  0.95701200  0.46502500  0.82898600  1
  Rb  Rb2  1  0.54298800  0.46502500  0.32898600  1
  Rb  Rb3  1  0.45701200  0.53497500  0.67101400  1
  Rb  Rb4  1  0.04298800  0.53497500  0.17101400  1
  Rb  Rb5  1  0.81626500  0.21500000  0.53224300  1
  Rb  Rb6  1  0.68373500  0.21500000  0.03224300  1
  Rb  Rb7  1  0.18373500  0.78500000  0.46775700  1
  Sb  Sb0  1  0.92822300  0.93162900  0.30730200  1
  Sb  Sb1  1  0.75713700  0.66968400  0.04767400  1
  Sb  Sb2  1  0.07177700  0.06837100  0.69269800  1
  Sb  Sb3  1  0.25713700  0.33031600  0.45232600  1
  Sb  Sb4  1  0.24286300  0.33031600  0.95232600  1
  Sb  Sb5  1  0.57177700  0.93162900  0.80730200  1
  Sb  Sb6  1  0.74286300  0.66968400  0.54767400  1
  Sb  Sb7  1  0.42822300  0.06837100  0.19269800  1
  O  O0  1  0.65725100  0.70583500  0.92638800  1
  O  O1  1  0.34274900  0.29416500  0.07361200  1
  O  O2  1  0.84274900  0.70583500  0.42638800  1
  O  O3  1  0.15725100  0.29416500  0.57361200  1
  F  F0  1  0.37007400  0.93133800  0.39018800  1
  F  F1  1  0.68561000  0.52456800  0.48597400  1
  F  F2  1  0.51492500  0.84711200  0.31391000  1
  F  F3  1  0.79039000  0.39773600  0.72748600  1
  F  F4  1  0.31439000  0.47543200  0.51402600  1
  F  F5  1  0.12992600  0.93133800  0.89018800  1
  F  F6  1  0.49636000  0.18921200  0.00643900  1
  F  F7  1  0.99636000  0.81078800  0.49356100  1
  F  F8  1  0.30840300  0.06271700  0.62223000  1
  F  F9  1  0.00519000  0.23988700  0.72031800  1
  F  F10  1  0.37309900  0.87690700  0.17268400  1
  F  F11  1  0.50364000  0.81078800  0.99356100  1
  F  F12  1  0.19159700  0.06271700  0.12223000  1
  F  F13  1  0.62690100  0.12309300  0.82731600  1
  F  F14  1  0.20961000  0.60226400  0.27251400  1
  F  F15  1  0.29838300  0.20764200  0.87169900  1
  F  F16  1  0.69159700  0.93728300  0.37777000  1
  F  F17  1  0.87309900  0.12309300  0.32731600  1
  F  F18  1  0.80840300  0.93728300  0.87777000  1
  F  F19  1  0.29039000  0.60226400  0.77251400  1
  F  F20  1  0.49481000  0.23988700  0.22031800  1
  F  F21  1  0.85584200  0.60502200  0.17632200  1
  F  F22  1  0.62992600  0.06866200  0.60981200  1
  F  F23  1  0.70961000  0.39773600  0.22748600  1
  F  F24  1  0.98507500  0.84711200  0.81391000  1
  F  F25  1  0.12690100  0.87690700  0.67268400  1
  F  F26  1  0.64415800  0.60502200  0.67632200  1
  F  F27  1  0.79838300  0.79235800  0.62830100  1
  F  F28  1  0.18561000  0.47543200  0.01402600  1
  F  F29  1  0.87007400  0.06866200  0.10981200  1
  F  F30  1  0.50519000  0.76011300  0.77968200  1
  F  F31  1  0.20161700  0.20764200  0.37169900  1
  F  F32  1  0.70161700  0.79235800  0.12830100  1
  F  F33  1  0.35584200  0.39497800  0.32367800  1
  F  F34  1  0.48507500  0.15288800  0.68609000  1
  F  F35  1  0.01492500  0.15288800  0.18609000  1
  F  F36  1  0.81439000  0.52456800  0.98597400  1
  F  F37  1  0.99481000  0.76011300  0.27968200  1
  F  F38  1  0.14415800  0.39497800  0.82367800  1
  F  F39  1  0.00364000  0.18921200  0.50643900  1
loop_
_geom_bond_atom_site_label_1
_geom_bond_atom_site_label_2
_geom_bond_distance
_geom_bond_site_symmetry_2
O0 Sb5 1.947025 1_555
O0 Sb1 1.956692 1_556
O0 Rb6 3.409860 1_556
O1 Sb7 1.947025 1_555
O1 Sb4 1.956692 1_554
O1 Rb0 3.409860 1_554
O2 Sb0 1.947025 1_555
O2 Sb6 1.956692 1_555
O2 Rb5 3.409860 1_555
O3 Sb2 1.947025 1_555
O3 Sb3 1.956692 1_555
O3 Rb7 3.409860 1_555
F0 Sb7 1.936371 1_565
F0 Rb3 3.011727 1_555
F0 Rb7 3.046421 1_555
F1 Sb6 1.936282 1_555
F1 Rb5 3.027442 1_555
F1 Rb2 3.059996 1_555
F2 Sb7 1.943675 1_565
F2 Rb2 3.059648 1_555
F2 Rb3 3.176738 1_555
F3 Sb6 1.941747 1_555
F3 Rb1 3.023722 1_555
F3 Rb6 3.164010 1_556
F3 Rb5 3.375817 1_555
F4 Sb3 1.936282 1_555
F4 Rb7 3.027442 1_555
F4 Rb3 3.059996 1_555
F5 Sb2 1.936371 1_565
F5 Rb4 3.011727 1_556
F5 Rb0 3.046421 1_555
F6 Sb7 1.943257 1_555
F6 Rb3 2.955088 1_554
F6 Rb6 2.955270 1_555
F7 Sb0 1.943257 1_555
F7 Rb1 2.955088 1_555
F7 Rb7 2.955270 1_655
F8 Sb3 1.917343 1_555
F8 Rb0 2.957526 1_545
F9 Sb2 1.926877 1_555
F9 Rb1 2.889166 1_455
F10 Sb7 1.925820 1_565
F10 Rb0 2.971204 1_554
F11 Sb5 1.943257 1_555
F11 Rb2 2.955088 1_556
F11 Rb0 2.955270 1_555
F12 Sb4 1.917343 1_554
F12 Rb7 2.957526 1_545
F13 Sb5 1.925820 1_545
F13 Rb6 2.971204 1_556
F14 Sb3 1.941747 1_555
F14 Rb4 3.023722 1_555
F14 Rb0 3.164010 1_554
F14 Rb7 3.375817 1_555
F15 Sb4 1.935127 1_555
F15 Rb0 2.905362 1_545
F15 Rb3 3.251056 1_555
F16 Sb6 1.917343 1_555
F16 Rb6 2.957526 1_565
F17 Sb0 1.925820 1_545
F17 Rb5 2.971204 1_555
F18 Sb1 1.917343 1_556
F18 Rb5 2.957526 1_565
F19 Sb4 1.941747 1_555
F19 Rb3 3.023722 1_555
F19 Rb7 3.164010 1_555
F19 Rb0 3.375817 1_555
F20 Sb7 1.926877 1_555
F20 Rb2 2.889166 1_555
F21 Sb1 1.931027 1_555
F21 Rb4 2.980572 1_655
F21 Rb5 3.161065 1_555
F22 Sb5 1.936371 1_545
F22 Rb2 3.011727 1_555
F22 Rb5 3.046421 1_555
F23 Sb1 1.941747 1_555
F23 Rb2 3.023722 1_555
F23 Rb5 3.164010 1_555
F23 Rb6 3.375817 1_555
F24 Sb2 1.943675 1_665
F24 Rb1 3.059648 1_555
F24 Rb4 3.176738 1_656
F25 Sb2 1.925820 1_565
F25 Rb7 2.971204 1_555
F26 Sb6 1.931027 1_555
F26 Rb3 2.980572 1_555
F26 Rb6 3.161065 1_556
F27 Sb6 1.935127 1_555
F27 Rb5 2.905362 1_565
F27 Rb1 3.251056 1_555
F28 Sb4 1.936282 1_554
F28 Rb0 3.027442 1_554
F28 Rb4 3.059996 1_555
F29 Sb0 1.936371 1_545
F29 Rb1 3.011727 1_554
F29 Rb6 3.046421 1_555
F30 Sb5 1.926877 1_555
F30 Rb3 2.889166 1_555
F31 Sb3 1.935127 1_555
F31 Rb7 2.905362 1_545
F31 Rb4 3.251056 1_555
F32 Sb1 1.935127 1_555
F32 Rb6 2.905362 1_565
F32 Rb2 3.251056 1_555
F33 Sb3 1.931027 1_555
F33 Rb2 2.980572 1_555
F33 Rb0 3.161065 1_554
F34 Sb5 1.943675 1_545
F34 Rb3 3.059648 1_555
F34 Rb2 3.176738 1_555
F35 Sb0 1.943675 1_445
F35 Rb4 3.059648 1_555
F35 Rb1 3.176738 1_454
F36 Sb1 1.936282 1_556
F36 Rb6 3.027442 1_556
F36 Rb1 3.059996 1_555
F37 Sb0 1.926877 1_555
F37 Rb4 2.889166 1_655
F38 Sb4 1.931027 1_555
F38 Rb1 2.980572 1_455
F38 Rb7 3.161065 1_555
F39 Sb2 1.943257 1_555
F39 Rb4 2.955088 1_555
F39 Rb5 2.955270 1_455
