# generated using pymatgen
data_Li7Mn17O32
_symmetry_space_group_name_H-M   'P 1'
_cell_length_a   23.18603366
_cell_length_b   8.19719398
_cell_length_c   10.04563413
_cell_angle_alpha   65.89399270
_cell_angle_beta   30.01997943
_cell_angle_gamma   45.00214660
_symmetry_Int_Tables_number   1
_chemical_formula_structural   Li7Mn17O32
_chemical_formula_sum   'Li7 Mn17 O32'
_cell_volume   552.12776685
_cell_formula_units_Z   1
loop_
 _symmetry_equiv_pos_site_id
 _symmetry_equiv_pos_as_xyz
  1  'x, y, z'
loop_
 _atom_site_type_symbol
 _atom_site_label
 _atom_site_symmetry_multiplicity
 _atom_site_fract_x
 _atom_site_fract_y
 _atom_site_fract_z
 _atom_site_occupancy
  Li  Li0  1  0.06388200  0.12224500  0.74886200  1
  Li  Li1  1  0.18725600  0.87548800  0.25000000  1
  Li  Li2  1  0.31151300  0.12570300  0.75127400  1
  Li  Li3  1  0.43727000  0.87545900  0.25000000  1
  Li  Li4  1  0.56274300  0.12450600  0.75113800  1
  Li  Li5  1  0.81278700  0.12569800  0.74872600  1
  Li  Li6  1  0.93726700  0.87546700  0.25000000  1
  Mn  Mn0  1  0.12514900  0.99969600  0.99980800  1
  Mn  Mn1  1  0.00241500  0.49618200  0.99899800  1
  Mn  Mn2  1  0.00305400  0.49663300  0.49306300  1
  Mn  Mn3  1  0.37198600  0.00183100  0.00684200  1
  Mn  Mn4  1  0.24611700  0.50502400  0.00693700  1
  Mn  Mn5  1  0.12882800  0.49654100  0.49315800  1
  Mn  Mn6  1  0.24987100  0.50005100  0.50020500  1
  Mn  Mn7  1  0.62359200  0.00280700  0.99899000  1
  Mn  Mn8  1  0.50007500  0.50005700  0.99979500  1
  Mn  Mn9  1  0.37258200  0.50484500  0.50101000  1
  Mn  Mn10  1  0.49883300  0.50507000  0.50147800  1
  Mn  Mn11  1  0.75031100  0.49664200  0.99852200  1
  Mn  Mn12  1  0.87620600  0.00180600  0.99842300  1
  Mn  Mn13  1  0.62462900  0.49652300  0.50157700  1
  Mn  Mn14  1  0.68727500  0.87544900  0.25000000  1
  Mn  Mn15  1  0.75141200  0.49616400  0.50100200  1
  Mn  Mn16  1  0.87495800  0.50009000  0.50019200  1
  O  O0  1  0.10557100  0.26230600  0.02713500  1
  O  O1  1  0.24411400  0.26240800  0.02502300  1
  O  O2  1  0.13095300  0.26373600  0.47498100  1
  O  O3  1  0.01913700  0.71108800  0.47497700  1
  O  O4  1  0.35593400  0.26249000  0.02501900  1
  O  O5  1  0.23006600  0.28961700  0.52704100  1
  O  O6  1  0.11827400  0.73728400  0.52674000  1
  O  O7  1  0.00745000  0.73602500  0.97229200  1
  O  O8  1  0.49229100  0.26483000  0.02724100  1
  O  O9  1  0.38222200  0.26265100  0.47232300  1
  O  O10  1  0.26953300  0.71152200  0.47275900  1
  O  O11  1  0.60454600  0.26381400  0.02767700  1
  O  O12  1  0.14479500  0.73709300  0.97308600  1
  O  O13  1  0.47994000  0.28950300  0.52696700  1
  O  O14  1  0.36751800  0.73828600  0.52761800  1
  O  O15  1  0.25674600  0.73708100  0.97314500  1
  O  O16  1  0.74289200  0.26239300  0.02745900  1
  O  O17  1  0.63215500  0.26130800  0.47257900  1
  O  O18  1  0.52035100  0.71112200  0.47254100  1
  O  O19  1  0.85473400  0.26491400  0.02742100  1
  O  O20  1  0.39501300  0.73614200  0.97326000  1
  O  O21  1  0.72974200  0.28959200  0.52770800  1
  O  O22  1  0.61812900  0.73763000  0.52673200  1
  O  O23  1  0.50710700  0.73603600  0.97295900  1
  O  O24  1  0.99280000  0.26381500  0.02779600  1
  O  O25  1  0.88270600  0.26114000  0.47286500  1
  O  O26  1  0.77059600  0.70939300  0.47220400  1
  O  O27  1  0.64513600  0.73640500  0.97238200  1
  O  O28  1  0.97989100  0.28964600  0.52685500  1
  O  O29  1  0.86788000  0.73755700  0.52691400  1
  O  O30  1  0.75690700  0.73680300  0.97303300  1
  O  O31  1  0.89486000  0.73639200  0.97326800  1
loop_
_geom_bond_atom_site_label_1
_geom_bond_atom_site_label_2
_geom_bond_distance
_geom_bond_site_symmetry_2
Li0 O10 1.946161 1_545
Li0 O2 1.966744 1_555
Li0 O19 1.966805 1_456
Li0 O24 1.966935 1_456
Li1 O15 1.962333 1_554
Li1 O28 1.962338 1_465
Li1 O20 1.964678 1_554
Li1 O6 1.964688 1_555
Li2 O0 1.947486 1_556
Li2 O18 1.964448 1_545
Li2 O1 1.964465 1_556
Li2 O9 1.969244 1_555
Li3 O23 1.962346 1_554
Li3 O5 1.962351 1_565
Li3 O14 1.963971 1_555
Li3 O27 1.963975 1_554
Li4 O8 1.946156 1_556
Li4 O4 1.966740 1_556
Li4 O17 1.966791 1_555
Li4 O26 1.966949 1_545
Li5 O25 1.947481 1_555
Li5 O16 1.964448 1_556
Li5 O3 1.964480 1_645
Li5 O11 1.969234 1_556
Li6 O21 1.962209 1_565
Li6 O7 1.962214 1_654
Li6 O12 1.964112 1_654
Li6 O29 1.964112 1_555
Mn0 O15 1.944944 1_555
Mn0 O14 1.945482 1_555
Mn0 O12 1.945995 1_555
Mn0 O24 1.947021 1_466
Mn0 O25 1.948876 1_466
Mn0 O0 1.949468 1_566
Mn1 O0 1.928609 1_556
Mn1 O5 1.946377 1_555
Mn1 O7 1.946897 1_555
Mn1 O26 1.948764 1_456
Mn1 O24 1.949409 1_456
Mn1 O31 1.979724 1_455
Mn2 O1 1.929479 1_555
Mn2 O28 1.945492 1_455
Mn2 O29 1.946429 1_455
Mn2 O3 1.952227 1_555
Mn2 O2 1.953468 1_555
Mn2 O30 1.976780 1_455
Mn3 O2 1.930063 1_555
Mn3 O23 1.945325 1_544
Mn3 O20 1.945766 1_544
Mn3 O1 1.952271 1_555
Mn3 O4 1.952859 1_555
Mn3 O22 1.977429 1_544
Mn4 O3 1.929479 1_555
Mn4 O15 1.945508 1_554
Mn4 O12 1.946413 1_554
Mn4 O1 1.952235 1_555
Mn4 O4 1.953467 1_555
Mn4 O13 1.976780 1_554
Mn5 O4 1.930063 1_555
Mn5 O5 1.945324 1_555
Mn5 O6 1.945767 1_555
Mn5 O3 1.952272 1_555
Mn5 O2 1.952859 1_555
Mn5 O31 1.977428 1_455
Mn6 O7 1.944957 1_555
Mn6 O5 1.945505 1_555
Mn6 O6 1.945923 1_555
Mn6 O9 1.947856 1_555
Mn6 O8 1.948313 1_555
Mn6 O10 1.948910 1_555
Mn7 O8 1.927875 1_556
Mn7 O29 1.946972 1_545
Mn7 O27 1.947487 1_545
Mn7 O9 1.949443 1_556
Mn7 O11 1.950069 1_556
Mn7 O30 1.978469 1_545
Mn8 O21 1.944956 1_555
Mn8 O23 1.945496 1_555
Mn8 O20 1.945923 1_555
Mn8 O11 1.947888 1_556
Mn8 O10 1.948315 1_556
Mn8 O8 1.948910 1_556
Mn9 O10 1.927858 1_555
Mn9 O12 1.946974 1_555
Mn9 O14 1.947479 1_555
Mn9 O11 1.949442 1_555
Mn9 O9 1.950062 1_555
Mn9 O13 1.978469 1_555
Mn10 O18 1.930231 1_555
Mn10 O15 1.944864 1_555
Mn10 O14 1.946280 1_555
Mn10 O16 1.951923 1_555
Mn10 O17 1.953819 1_555
Mn10 O13 1.977554 1_555
Mn11 O16 1.930223 1_556
Mn11 O28 1.944864 1_555
Mn11 O27 1.946280 1_555
Mn11 O18 1.951922 1_556
Mn11 O19 1.953819 1_556
Mn11 O30 1.977554 1_555
Mn12 O19 1.930776 1_556
Mn12 O6 1.945127 1_645
Mn12 O7 1.945216 1_645
Mn12 O17 1.952569 1_556
Mn12 O16 1.952624 1_556
Mn12 O31 1.978252 1_545
Mn13 O17 1.930768 1_555
Mn13 O20 1.945127 1_555
Mn13 O21 1.945217 1_555
Mn13 O19 1.952568 1_555
Mn13 O18 1.952623 1_555
Mn13 O22 1.978261 1_555
Mn14 O30 1.961840 1_554
Mn14 O13 1.961850 1_565
Mn14 O31 1.962825 1_554
Mn14 O22 1.962825 1_555
Mn15 O25 1.928625 1_555
Mn15 O23 1.946376 1_555
Mn15 O21 1.946888 1_555
Mn15 O24 1.948765 1_555
Mn15 O26 1.949410 1_555
Mn15 O22 1.979691 1_555
Mn16 O28 1.944929 1_555
Mn16 O27 1.945480 1_555
Mn16 O29 1.945993 1_555
Mn16 O26 1.947037 1_555
Mn16 O0 1.948877 1_655
Mn16 O25 1.949469 1_555
