# generated using pymatgen
data_Cu4SnS4
_symmetry_space_group_name_H-M   'P 1'
_cell_length_a   6.43703000
_cell_length_b   7.63607400
_cell_length_c   13.64838800
_cell_angle_alpha   90.00000000
_cell_angle_beta   90.00000000
_cell_angle_gamma   90.00000000
_symmetry_Int_Tables_number   1
_chemical_formula_structural   Cu4SnS4
_chemical_formula_sum   'Cu16 Sn4 S16'
_cell_volume   670.86791512
_cell_formula_units_Z   4
loop_
 _symmetry_equiv_pos_site_id
 _symmetry_equiv_pos_as_xyz
  1  'x, y, z'
loop_
 _atom_site_type_symbol
 _atom_site_label
 _atom_site_symmetry_multiplicity
 _atom_site_fract_x
 _atom_site_fract_y
 _atom_site_fract_z
 _atom_site_occupancy
  Cu  Cu0  1  0.94077400  0.25000000  0.15817100  1
  Cu  Cu1  1  0.62551200  0.48890000  0.83495300  1
  Cu  Cu2  1  0.44077400  0.75000000  0.34182900  1
  Cu  Cu3  1  0.60877600  0.25000000  0.06746500  1
  Cu  Cu4  1  0.12551200  0.51110000  0.66504700  1
  Cu  Cu5  1  0.05922600  0.75000000  0.84182900  1
  Cu  Cu6  1  0.62551200  0.01110000  0.83495300  1
  Cu  Cu7  1  0.87448800  0.48890000  0.33495300  1
  Cu  Cu8  1  0.87448800  0.01110000  0.33495300  1
  Cu  Cu9  1  0.37448800  0.51110000  0.16504700  1
  Cu  Cu10  1  0.12551200  0.98890000  0.66504700  1
  Cu  Cu11  1  0.55922600  0.25000000  0.65817100  1
  Cu  Cu12  1  0.37448800  0.98890000  0.16504700  1
  Cu  Cu13  1  0.10877600  0.75000000  0.43253500  1
  Cu  Cu14  1  0.39122400  0.75000000  0.93253500  1
  Cu  Cu15  1  0.89122400  0.25000000  0.56746500  1
  Sn  Sn0  1  0.87436100  0.75000000  0.08602800  1
  Sn  Sn1  1  0.12563900  0.25000000  0.91397200  1
  Sn  Sn2  1  0.62563900  0.75000000  0.58602800  1
  Sn  Sn3  1  0.37436100  0.25000000  0.41397200  1
  S  S0  1  0.24396400  0.25000000  0.58673300  1
  S  S1  1  0.23676500  0.50731100  0.32280400  1
  S  S2  1  0.26323500  0.99268900  0.82280400  1
  S  S3  1  0.26038600  0.75000000  0.08405100  1
  S  S4  1  0.73961400  0.25000000  0.91594900  1
  S  S5  1  0.25603600  0.25000000  0.08673300  1
  S  S6  1  0.73676500  0.49268900  0.17719600  1
  S  S7  1  0.26323500  0.50731100  0.82280400  1
  S  S8  1  0.74396400  0.75000000  0.91326700  1
  S  S9  1  0.75603600  0.75000000  0.41326700  1
  S  S10  1  0.73676500  0.00731100  0.17719600  1
  S  S11  1  0.76038600  0.25000000  0.41594900  1
  S  S12  1  0.76323500  0.49268900  0.67719600  1
  S  S13  1  0.23676500  0.99268900  0.32280400  1
  S  S14  1  0.76323500  0.00731100  0.67719600  1
  S  S15  1  0.23961400  0.75000000  0.58405100  1
loop_
_geom_bond_atom_site_label_1
_geom_bond_atom_site_label_2
_geom_bond_distance
_geom_bond_site_symmetry_2
Cu0 S5 2.251425 1_655
Cu0 S6 2.286103 1_555
Cu0 S10 2.286103 1_555
Cu1 S4 2.255976 1_555
Cu1 S12 2.328676 1_555
Cu1 S7 2.342099 1_555
Cu1 S8 2.387256 1_555
Cu2 S9 2.251425 1_555
Cu2 S1 2.286103 1_555
Cu2 S13 2.286103 1_555
Cu3 S4 2.232874 1_554
Cu3 S5 2.285776 1_555
Cu3 S10 2.521118 1_555
Cu3 S6 2.521118 1_555
Cu4 S15 2.255976 1_555
Cu4 S7 2.328676 1_555
Cu4 S12 2.342099 1_455
Cu4 S0 2.387256 1_555
Cu5 S8 2.251425 1_455
Cu5 S7 2.286103 1_555
Cu5 S2 2.286103 1_555
Cu6 S4 2.255976 1_555
Cu6 S14 2.328676 1_555
Cu6 S2 2.342099 1_545
Cu6 S8 2.387256 1_545
Cu7 S11 2.255976 1_555
Cu7 S6 2.328676 1_555
Cu7 S1 2.342099 1_655
Cu7 S9 2.387256 1_555
Cu8 S11 2.255976 1_555
Cu8 S10 2.328676 1_555
Cu8 S13 2.342099 1_645
Cu8 S9 2.387256 1_545
Cu9 S3 2.255976 1_555
Cu9 S1 2.328676 1_555
Cu9 S6 2.342099 1_555
Cu9 S5 2.387256 1_555
Cu10 S15 2.255976 1_555
Cu10 S2 2.328676 1_555
Cu10 S14 2.342099 1_465
Cu10 S0 2.387256 1_565
Cu11 S0 2.251425 1_555
Cu11 S12 2.286103 1_555
Cu11 S14 2.286103 1_555
Cu12 S3 2.255976 1_555
Cu12 S13 2.328676 1_555
Cu12 S10 2.342099 1_565
Cu12 S5 2.387256 1_565
Cu13 S15 2.232874 1_555
Cu13 S9 2.285776 1_455
Cu13 S13 2.521118 1_555
Cu13 S1 2.521118 1_555
Cu14 S3 2.232874 1_556
Cu14 S8 2.285776 1_555
Cu14 S7 2.521118 1_555
Cu14 S2 2.521118 1_555
Cu15 S11 2.232874 1_555
Cu15 S0 2.285776 1_655
Cu15 S14 2.521118 1_555
Cu15 S12 2.521118 1_555
S0 Sn3 2.502854 1_555
S1 Sn3 2.488649 1_555
S2 Sn1 2.488649 1_565
S3 Sn0 2.485001 1_455
S4 Sn1 2.485001 1_655
S5 Sn1 2.502854 1_554
S6 Sn0 2.488649 1_555
S7 Sn1 2.488649 1_555
S8 Sn0 2.502854 1_556
S9 Sn2 2.502854 1_555
S10 Sn0 2.488649 1_545
S11 Sn3 2.485001 1_555
S12 Sn2 2.488649 1_555
S13 Sn3 2.488649 1_565
S14 Sn2 2.488649 1_545
S15 Sn2 2.485001 1_555
