# generated using pymatgen
data_PH6CNO3
_symmetry_space_group_name_H-M   'P 1'
_cell_length_a   15.56384500
_cell_length_b   7.32625000
_cell_length_c   13.49092780
_cell_angle_alpha   64.73042268
_cell_angle_beta   90.00000000
_cell_angle_gamma   90.00000000
_symmetry_Int_Tables_number   1
_chemical_formula_structural   PH6CNO3
_chemical_formula_sum   'P12 H72 C12 N12 O36'
_cell_volume   1391.09716437
_cell_formula_units_Z   12
loop_
 _symmetry_equiv_pos_site_id
 _symmetry_equiv_pos_as_xyz
  1  'x, y, z'
loop_
 _atom_site_type_symbol
 _atom_site_label
 _atom_site_symmetry_multiplicity
 _atom_site_fract_x
 _atom_site_fract_y
 _atom_site_fract_z
 _atom_site_occupancy
  P  P0  1  0.69020600  0.67120000  0.13119600  1
  P  P1  1  0.80979400  0.67120000  0.63119600  1
  P  P2  1  0.19020600  0.32880000  0.36880400  1
  P  P3  1  0.01809300  0.43103500  0.27361800  1
  P  P4  1  0.83600800  0.32695800  0.84448500  1
  P  P5  1  0.66399200  0.32695800  0.34448500  1
  P  P6  1  0.16399200  0.67304200  0.15551500  1
  P  P7  1  0.98190700  0.56896500  0.72638200  1
  P  P8  1  0.51809300  0.56896500  0.22638200  1
  P  P9  1  0.30979400  0.32880000  0.86880400  1
  P  P10  1  0.33600800  0.67304200  0.65551500  1
  P  P11  1  0.48190700  0.43103500  0.77361800  1
  H  H0  1  0.47130000  0.11013900  0.54629200  1
  H  H1  1  0.60625300  0.81032600  0.56248300  1
  H  H2  1  0.29763300  0.79441800  0.27800700  1
  H  H3  1  0.57193100  0.89902800  0.73445100  1
  H  H4  1  0.32844300  0.08738700  0.61697600  1
  H  H5  1  0.82844300  0.91261300  0.88302400  1
  H  H6  1  0.80870500  0.66641400  0.96710900  1
  H  H7  1  0.12902700  0.08350500  0.65504100  1
  H  H8  1  0.31500200  0.14527900  0.25307600  1
  H  H9  1  0.30870500  0.33358600  0.53289100  1
  H  H10  1  0.42806900  0.10097200  0.26554900  1
  H  H11  1  0.52790400  0.09608700  0.06202800  1
  H  H12  1  0.87599000  0.33813100  0.43366000  1
  H  H13  1  0.87097300  0.91649500  0.34495900  1
  H  H14  1  0.02790400  0.90391300  0.43797200  1
  H  H15  1  0.31916100  0.86187500  0.96986500  1
  H  H16  1  0.58326000  0.12290100  0.17112900  1
  H  H17  1  0.07193100  0.10097200  0.76554900  1
  H  H18  1  0.09453200  0.75736400  0.80529800  1
  H  H19  1  0.15949300  0.80465300  0.89148200  1
  H  H20  1  0.62902700  0.91649500  0.84495900  1
  H  H21  1  0.81500200  0.85472100  0.24692400  1
  H  H22  1  0.37097300  0.08350500  0.15504100  1
  H  H23  1  0.02526800  0.66828200  0.42810700  1
  H  H24  1  0.04425600  0.37247100  0.96241800  1
  H  H25  1  0.92806900  0.89902800  0.23445100  1
  H  H26  1  0.69129500  0.66641400  0.46710900  1
  H  H27  1  0.19129500  0.33358600  0.03289100  1
  H  H28  1  0.38537800  0.27244300  0.63374200  1
  H  H29  1  0.18499800  0.14527900  0.75307600  1
  H  H30  1  0.89374700  0.81032600  0.06248300  1
  H  H31  1  0.54425600  0.62752900  0.53758200  1
  H  H32  1  0.65949300  0.19534700  0.60851800  1
  H  H33  1  0.47209600  0.90391300  0.93797200  1
  H  H34  1  0.52526800  0.33171800  0.07189300  1
  H  H35  1  0.82186000  0.36674400  0.53539900  1
  H  H36  1  0.20236700  0.79441800  0.77800700  1
  H  H37  1  0.68499800  0.85472100  0.74692400  1
  H  H38  1  0.39374700  0.18967400  0.43751700  1
  H  H39  1  0.17814000  0.63325600  0.46460100  1
  H  H40  1  0.59453200  0.24263600  0.69470200  1
  H  H41  1  0.97473200  0.33171800  0.57189300  1
  H  H42  1  0.37599000  0.66186900  0.06634000  1
  H  H43  1  0.84050700  0.19534700  0.10851800  1
  H  H44  1  0.02870000  0.11013900  0.04629200  1
  H  H45  1  0.18083900  0.86187500  0.46986500  1
  H  H46  1  0.41674000  0.87709900  0.82887100  1
  H  H47  1  0.90546800  0.24263600  0.19470200  1
  H  H48  1  0.62401000  0.33813100  0.93366000  1
  H  H49  1  0.81916100  0.13812500  0.53013500  1
  H  H50  1  0.67814000  0.36674400  0.03539900  1
  H  H51  1  0.08326000  0.87709900  0.32887100  1
  H  H52  1  0.52870000  0.88986100  0.45370800  1
  H  H53  1  0.34050700  0.80465300  0.39148200  1
  H  H54  1  0.10625300  0.18967400  0.93751700  1
  H  H55  1  0.40546800  0.75736400  0.30529800  1
  H  H56  1  0.97130000  0.88986100  0.95370800  1
  H  H57  1  0.95574400  0.62752900  0.03758200  1
  H  H58  1  0.61462200  0.72755700  0.36625800  1
  H  H59  1  0.68083900  0.13812500  0.03013500  1
  H  H60  1  0.47473200  0.66828200  0.92810700  1
  H  H61  1  0.12401000  0.66186900  0.56634000  1
  H  H62  1  0.70236700  0.20558200  0.72199300  1
  H  H63  1  0.97209600  0.09608700  0.56202800  1
  H  H64  1  0.79763300  0.20558200  0.22199300  1
  H  H65  1  0.91674000  0.12290100  0.67112900  1
  H  H66  1  0.11462200  0.27244300  0.13374200  1
  H  H67  1  0.88537800  0.72755700  0.86625800  1
  H  H68  1  0.17155700  0.08738700  0.11697600  1
  H  H69  1  0.32186000  0.63325600  0.96460100  1
  H  H70  1  0.45574400  0.37247100  0.46241800  1
  H  H71  1  0.67155700  0.91261300  0.38302400  1
  C  C0  1  0.36729400  0.05716700  0.24117100  1
  C  C1  1  0.42386200  0.22558500  0.50028300  1
  C  C2  1  0.43543200  0.80046700  0.91501600  1
  C  C3  1  0.86729400  0.94283300  0.25882900  1
  C  C4  1  0.06456800  0.80046700  0.41501600  1
  C  C5  1  0.92386200  0.77441500  0.99971700  1
  C  C6  1  0.93543200  0.19953300  0.58498400  1
  C  C7  1  0.07613800  0.22558500  0.00028300  1
  C  C8  1  0.56456800  0.19953300  0.08498400  1
  C  C9  1  0.57613800  0.77441500  0.49971700  1
  C  C10  1  0.13270600  0.05716700  0.74117100  1
  C  C11  1  0.63270600  0.94283300  0.75882900  1
  N  N0  1  0.35109800  0.83850800  0.30901700  1
  N  N1  1  0.35651700  0.23106200  0.57686100  1
  N  N2  1  0.64295000  0.26442800  0.01608400  1
  N  N3  1  0.85109800  0.16149200  0.19098300  1
  N  N4  1  0.85705000  0.26442800  0.51608400  1
  N  N5  1  0.85651700  0.76893800  0.92313900  1
  N  N6  1  0.14295000  0.73557200  0.48391600  1
  N  N7  1  0.64348300  0.76893800  0.42313900  1
  N  N8  1  0.35705000  0.73557200  0.98391600  1
  N  N9  1  0.64890200  0.16149200  0.69098300  1
  N  N10  1  0.14348300  0.23106200  0.07686100  1
  N  N11  1  0.14890200  0.83850800  0.80901700  1
  O  O0  1  0.98361200  0.69193400  0.79215800  1
  O  O1  1  0.93486100  0.35245400  0.79752200  1
  O  O2  1  0.43558900  0.52847200  0.18315300  1
  O  O3  1  0.01638800  0.30806600  0.20784200  1
  O  O4  1  0.20528500  0.83565000  0.17973300  1
  O  O5  1  0.56513900  0.35245400  0.29752200  1
  O  O6  1  0.77559500  0.55077800  0.57283900  1
  O  O7  1  0.77830900  0.88120300  0.59879800  1
  O  O8  1  0.29471500  0.83565000  0.67973300  1
  O  O9  1  0.48361200  0.30806600  0.70784200  1
  O  O10  1  0.22440500  0.44922200  0.42716100  1
  O  O11  1  0.70528500  0.16435000  0.32026700  1
  O  O12  1  0.56441100  0.47152800  0.81684700  1
  O  O13  1  0.16417100  0.68593000  0.04213000  1
  O  O14  1  0.79516700  0.54663400  0.76380100  1
  O  O15  1  0.06513900  0.64754600  0.20247800  1
  O  O16  1  0.72169100  0.88120300  0.09879800  1
  O  O17  1  0.08505300  0.32954000  0.37607000  1
  O  O18  1  0.33582900  0.68593000  0.54213000  1
  O  O19  1  0.22169100  0.11879700  0.40120200  1
  O  O20  1  0.27559500  0.44922200  0.92716100  1
  O  O21  1  0.51638800  0.69193400  0.29215800  1
  O  O22  1  0.66417100  0.31407000  0.45787000  1
  O  O23  1  0.58505300  0.67046000  0.12393000  1
  O  O24  1  0.93558900  0.47152800  0.31684700  1
  O  O25  1  0.79471500  0.16435000  0.82026700  1
  O  O26  1  0.41494700  0.32954000  0.87607000  1
  O  O27  1  0.83582900  0.31407000  0.95787000  1
  O  O28  1  0.91494700  0.67046000  0.62393000  1
  O  O29  1  0.06441100  0.52847200  0.68315300  1
  O  O30  1  0.70483300  0.54663400  0.26380100  1
  O  O31  1  0.43486100  0.64754600  0.70247800  1
  O  O32  1  0.20483300  0.45336600  0.23619900  1
  O  O33  1  0.72440500  0.55077800  0.07283900  1
  O  O34  1  0.27830900  0.11879700  0.90120200  1
  O  O35  1  0.29516700  0.45336600  0.73619900  1
loop_
_geom_bond_atom_site_label_1
_geom_bond_atom_site_label_2
_geom_bond_distance
_geom_bond_site_symmetry_2
H2 N0 1.042667 1_555
H4 N1 1.051390 1_555
H5 N5 1.051390 1_555
H6 N5 1.043744 1_555
H9 N1 1.043744 1_555
H12 N4 1.049919 1_555
H15 N8 1.044105 1_555
H18 N11 1.047595 1_555
H19 N11 1.044426 1_555
H26 N7 1.043744 1_555
H27 N10 1.043744 1_555
H28 N1 1.039793 1_555
H32 N9 1.044426 1_555
H35 N4 1.047147 1_555
H36 N11 1.042667 1_555
H39 N6 1.047147 1_555
H40 N9 1.047595 1_555
H42 N8 1.049919 1_554
H43 N3 1.044426 1_555
H45 N6 1.044105 1_555
H47 N3 1.047595 1_555
H48 N2 1.049919 1_556
H49 N4 1.044105 1_555
H50 N2 1.047147 1_555
H53 N0 1.044426 1_555
H55 N0 1.047595 1_555
H58 N7 1.039793 1_555
H59 N2 1.044105 1_555
H61 N6 1.049919 1_555
H62 N9 1.042667 1_555
H64 N3 1.042667 1_555
H66 N10 1.039793 1_555
H67 N5 1.039793 1_555
H68 N10 1.051390 1_555
H69 N8 1.047147 1_555
H71 N7 1.051390 1_555
C0 H8 1.092427 1_555
C0 H10 1.093609 1_555
C0 H22 1.095112 1_555
C0 N0 1.488533 1_545
C1 H70 1.093566 1_555
C1 H38 1.093675 1_555
C1 H0 1.094319 1_555
C1 N1 1.484226 1_555
C2 H46 1.092443 1_555
C2 H33 1.093750 1_555
C2 H60 1.094137 1_555
C2 N8 1.483568 1_555
C3 H21 1.092427 1_555
C3 H25 1.093609 1_555
C3 H13 1.095112 1_555
C3 N3 1.488533 1_565
C4 H51 1.092443 1_555
C4 H14 1.093750 1_555
C4 H23 1.094137 1_555
C4 N6 1.483568 1_555
C5 H57 1.093566 1_556
C5 H30 1.093675 1_556
C5 H56 1.094319 1_555
C5 N5 1.484226 1_555
C6 H65 1.092443 1_555
C6 H63 1.093750 1_555
C6 H41 1.094137 1_555
C6 N4 1.483568 1_555
C7 H24 1.093566 1_554
C7 H54 1.093675 1_554
C7 H44 1.094319 1_555
C7 N10 1.484226 1_555
C8 H16 1.092443 1_555
C8 H11 1.093750 1_555
C8 H34 1.094137 1_555
C8 N2 1.483568 1_555
C9 H31 1.093566 1_555
C9 H1 1.093675 1_555
C9 H52 1.094319 1_555
C9 N7 1.484226 1_555
C10 H29 1.092427 1_555
C10 H17 1.093609 1_555
C10 H7 1.095112 1_555
C10 N11 1.488533 1_545
C11 H37 1.092427 1_555
C11 H3 1.093609 1_555
C11 H20 1.095112 1_555
C11 N9 1.488533 1_565
O0 P7 1.510727 1_555
O1 P7 1.635115 1_555
O1 P4 1.643883 1_555
O2 P8 1.491543 1_555
O3 P3 1.510727 1_555
O4 P6 1.507083 1_555
O5 P8 1.635115 1_555
O5 P5 1.643883 1_555
O6 P1 1.508140 1_555
O7 P1 1.491354 1_555
O8 P10 1.507083 1_555
O9 P11 1.510727 1_555
O10 P2 1.508140 1_555
O11 P5 1.507083 1_555
O12 P11 1.491543 1_555
O13 P6 1.491811 1_555
O14 P4 1.638112 1_555
O14 P1 1.640491 1_555
O15 P3 1.635115 1_555
O15 P6 1.643883 1_555
O16 P0 1.491354 1_555
O17 P3 1.634609 1_555
O17 P2 1.639665 1_555
O18 P10 1.491811 1_555
O19 P2 1.491354 1_555
O20 P9 1.508140 1_555
O21 P8 1.510727 1_555
O22 P5 1.491811 1_555
O23 P8 1.634609 1_555
O23 P0 1.639665 1_555
O24 P3 1.491543 1_655
O25 P4 1.507083 1_555
O26 P11 1.634609 1_555
O26 P9 1.639665 1_555
O27 P4 1.491811 1_555
O28 P7 1.634609 1_555
O28 P1 1.639665 1_555
O29 P7 1.491543 1_455
O30 P5 1.638112 1_555
O30 P0 1.640491 1_555
O31 P11 1.635115 1_555
O31 P10 1.643883 1_555
O32 P6 1.638112 1_555
O32 P2 1.640491 1_555
O33 P0 1.508140 1_555
O34 P9 1.491354 1_555
O35 P10 1.638112 1_555
O35 P9 1.640491 1_555
