# generated using pymatgen
data_Ba2Mn2As2O
_symmetry_space_group_name_H-M   'P 1'
_cell_length_a   4.29224104
_cell_length_b   6.53718301
_cell_length_c   7.14345218
_cell_angle_alpha   79.62747549
_cell_angle_beta   107.49735226
_cell_angle_gamma   70.82055560
_symmetry_Int_Tables_number   1
_chemical_formula_structural   Ba2Mn2As2O
_chemical_formula_sum   'Ba2 Mn2 As2 O1'
_cell_volume   171.68726491
_cell_formula_units_Z   1
loop_
 _symmetry_equiv_pos_site_id
 _symmetry_equiv_pos_as_xyz
  1  'x, y, z'
loop_
 _atom_site_type_symbol
 _atom_site_label
 _atom_site_symmetry_multiplicity
 _atom_site_fract_x
 _atom_site_fract_y
 _atom_site_fract_z
 _atom_site_occupancy
  Ba  Ba0  1  0.75319100  0.19633900  0.70283800  1
  Ba  Ba1  1  0.24681700  0.80365500  0.29717000  1
  Mn  Mn0  1  0.61427300  0.69726400  0.92580700  1
  Mn  Mn1  1  0.38572400  0.30274400  0.07419000  1
  As  As0  1  0.96491500  0.35001600  0.27967700  1
  As  As1  1  0.03508200  0.64997900  0.72031800  1
  O  O0  1  0.49999900  0.00000500  0.99999900  1
loop_
_geom_bond_atom_site_label_1
_geom_bond_atom_site_label_2
_geom_bond_distance
_geom_bond_site_symmetry_2
Ba0 O0 2.941516 1_655
Ba0 O0 2.942287 1_555
Ba1 O0 2.941565 1_464
Ba1 O0 2.942354 1_564
Mn0 O0 2.081922 1_565
Mn1 O0 2.081906 1_554
As0 Mn1 2.627450 1_655
As0 Mn1 2.627602 1_555
As0 Mn0 2.685015 1_554
As0 Ba1 3.338449 1_645
As0 Ba0 3.481032 1_655
As0 Ba0 3.482934 1_555
As0 Ba1 3.559416 1_555
As0 Ba1 3.560086 1_655
As1 Mn0 2.627460 1_455
As1 Mn0 2.627651 1_555
As1 Mn1 2.684982 1_556
As1 Ba0 3.338467 1_465
As1 Ba1 3.480955 1_455
As1 Ba1 3.482878 1_555
As1 Ba0 3.559406 1_555
As1 Ba0 3.560056 1_455
