# generated using pymatgen
data_NiAs2
_symmetry_space_group_name_H-M   'P 1'
_cell_length_a   5.75712878
_cell_length_b   5.84423470
_cell_length_c   11.43237378
_cell_angle_alpha   90.00000000
_cell_angle_beta   90.00000000
_cell_angle_gamma   90.00000000
_symmetry_Int_Tables_number   1
_chemical_formula_structural   NiAs2
_chemical_formula_sum   'Ni8 As16'
_cell_volume   384.65378297
_cell_formula_units_Z   8
loop_
 _symmetry_equiv_pos_site_id
 _symmetry_equiv_pos_as_xyz
  1  'x, y, z'
loop_
 _atom_site_type_symbol
 _atom_site_label
 _atom_site_symmetry_multiplicity
 _atom_site_fract_x
 _atom_site_fract_y
 _atom_site_fract_z
 _atom_site_occupancy
  Ni  Ni0  1  0.99708293  0.17545494  0.37165879  1
  Ni  Ni1  1  0.49708293  0.32454506  0.62834121  1
  Ni  Ni2  1  0.00291707  0.67545494  0.12834021  1
  Ni  Ni3  1  0.50291707  0.82454506  0.87165879  1
  Ni  Ni4  1  0.00291707  0.82454506  0.62834121  1
  Ni  Ni5  1  0.50291707  0.67545494  0.37165879  1
  Ni  Ni6  1  0.99708293  0.32454506  0.87165879  1
  Ni  Ni7  1  0.49708293  0.17545494  0.12834021  1
  As  As0  1  0.12017301  0.05500144  0.18077219  1
  As  As1  1  0.62017301  0.44499856  0.81922781  1
  As  As2  1  0.87982699  0.55500144  0.31922781  1
  As  As3  1  0.37982699  0.94499856  0.68077219  1
  As  As4  1  0.87982699  0.94499856  0.81922781  1
  As  As5  1  0.37982699  0.55500144  0.18077219  1
  As  As6  1  0.12017301  0.44499856  0.68077219  1
  As  As7  1  0.62017301  0.05500144  0.31922781  1
  As  As8  1  0.36626756  0.31111940  0.43095117  1
  As  As9  1  0.86626756  0.18888060  0.56904883  1
  As  As10  1  0.63373244  0.81111940  0.06904883  1
  As  As11  1  0.13373244  0.68888060  0.93095117  1
  As  As12  1  0.63373244  0.68888060  0.56904883  1
  As  As13  1  0.13373244  0.81111940  0.43095117  1
  As  As14  1  0.36626756  0.18888060  0.93095117  1
  As  As15  1  0.86626756  0.31111940  0.06904883  1
loop_
_geom_bond_atom_site_label_1
_geom_bond_atom_site_label_2
_geom_bond_distance
_geom_bond_site_symmetry_2
As0 Ni7 2.358689 1_555
As0 Ni2 2.394836 1_545
As0 Ni0 2.400023 1_455
As0 As15 2.451247 1_455
As1 Ni6 2.358686 1_555
As1 Ni3 2.394833 1_555
As1 Ni1 2.400023 1_555
As1 As14 2.451247 1_555
As2 Ni5 2.358686 1_555
As2 Ni0 2.394833 1_555
As2 Ni2 2.400034 1_655
As3 Ni4 2.358686 1_555
As3 Ni1 2.394833 1_565
As3 Ni3 2.400023 1_555
As4 Ni3 2.358686 1_555
As4 Ni6 2.394833 1_565
As4 Ni4 2.400023 1_655
As5 Ni2 2.358689 1_555
As5 Ni7 2.394836 1_555
As5 Ni5 2.400023 1_555
As6 Ni1 2.358686 1_555
As6 Ni4 2.394833 1_555
As6 Ni6 2.400023 1_455
As6 As9 2.451247 1_455
As7 Ni0 2.358686 1_555
As7 Ni5 2.394833 1_545
As7 Ni7 2.400034 1_555
As7 As8 2.451247 1_555
As8 Ni0 2.367618 1_455
As8 Ni5 2.368998 1_555
As8 Ni1 2.380285 1_555
As9 Ni1 2.367618 1_555
As9 Ni4 2.368998 1_645
As9 Ni0 2.380285 1_555
As10 Ni2 2.367614 1_655
As10 Ni7 2.368995 1_565
As10 Ni3 2.380285 1_554
As10 As5 2.451247 1_555
As11 Ni3 2.367618 1_555
As11 Ni6 2.368998 1_455
As11 Ni2 2.380274 1_556
As11 As4 2.451247 1_455
As12 Ni4 2.367618 1_655
As12 Ni1 2.368998 1_555
As12 Ni5 2.380285 1_555
As12 As3 2.451247 1_555
As13 Ni5 2.367618 1_555
As13 Ni0 2.368998 1_465
As13 Ni4 2.380285 1_555
As13 As2 2.451247 1_455
As14 Ni6 2.367618 1_455
As14 Ni3 2.368998 1_545
As14 Ni7 2.380274 1_556
As15 Ni7 2.367614 1_555
As15 Ni2 2.368995 1_655
As15 Ni6 2.380285 1_554
