# generated using pymatgen
data_Rb2Nb3Cl7O5
_symmetry_space_group_name_H-M   'P 1'
_cell_length_a   9.75144006
_cell_length_b   9.75144006
_cell_length_c   11.32404034
_cell_angle_alpha   71.34652800
_cell_angle_beta   71.34652800
_cell_angle_gamma   55.20745878
_symmetry_Int_Tables_number   1
_chemical_formula_structural   Rb2Nb3Cl7O5
_chemical_formula_sum   'Rb4 Nb6 Cl14 O10'
_cell_volume   824.69428014
_cell_formula_units_Z   2
loop_
 _symmetry_equiv_pos_site_id
 _symmetry_equiv_pos_as_xyz
  1  'x, y, z'
loop_
 _atom_site_type_symbol
 _atom_site_label
 _atom_site_symmetry_multiplicity
 _atom_site_fract_x
 _atom_site_fract_y
 _atom_site_fract_z
 _atom_site_occupancy
  Rb  Rb0  1  0.83767200  0.75772700  0.85607400  1
  Rb  Rb1  1  0.16232800  0.24227300  0.14392600  1
  Rb  Rb2  1  0.24227300  0.16232800  0.64392600  1
  Rb  Rb3  1  0.75772700  0.83767200  0.35607400  1
  Nb  Nb0  1  0.46526700  0.53473300  0.75000000  1
  Nb  Nb1  1  0.21388600  0.79110200  0.02643000  1
  Nb  Nb2  1  0.20889800  0.78611400  0.47357000  1
  Nb  Nb3  1  0.79110200  0.21388600  0.52643000  1
  Nb  Nb4  1  0.53473300  0.46526700  0.25000000  1
  Nb  Nb5  1  0.78611400  0.20889800  0.97357000  1
  Cl  Cl0  1  0.93825300  0.36013000  0.87504100  1
  Cl  Cl1  1  0.06174700  0.63987000  0.12495900  1
  Cl  Cl2  1  0.57816100  0.71919400  0.66912400  1
  Cl  Cl3  1  0.09299800  0.90700200  0.25000000  1
  Cl  Cl4  1  0.36256000  0.94337100  0.95782100  1
  Cl  Cl5  1  0.05662900  0.63744000  0.54217900  1
  Cl  Cl6  1  0.94337100  0.36256000  0.45782100  1
  Cl  Cl7  1  0.71919400  0.57816100  0.16912400  1
  Cl  Cl8  1  0.42183900  0.28080600  0.33087600  1
  Cl  Cl9  1  0.36013000  0.93825300  0.37504100  1
  Cl  Cl10  1  0.90700200  0.09299800  0.75000000  1
  Cl  Cl11  1  0.63987000  0.06174700  0.62495900  1
  Cl  Cl12  1  0.28080600  0.42183900  0.83087600  1
  Cl  Cl13  1  0.63744000  0.05662900  0.04217900  1
  O  O0  1  0.71345600  0.28908400  0.37912800  1
  O  O1  1  0.60089800  0.39613200  0.87435900  1
  O  O2  1  0.39910200  0.60386800  0.12564100  1
  O  O3  1  0.71091600  0.28654400  0.12087200  1
  O  O4  1  0.28908400  0.71345600  0.87912900  1
  O  O5  1  0.00000000  0.00000000  0.00000000  1
  O  O6  1  0.28654400  0.71091600  0.62087200  1
  O  O7  1  0.39613200  0.60089800  0.37435900  1
  O  O8  1  0.60386800  0.39910200  0.62564100  1
  O  O9  1  0.00000000  0.00000000  0.50000000  1
loop_
_geom_bond_atom_site_label_1
_geom_bond_atom_site_label_2
_geom_bond_distance
_geom_bond_site_symmetry_2
Nb0 O8 1.868970 1_555
Nb0 O1 1.868970 1_555
Nb0 O6 2.175625 1_555
Nb0 O4 2.175633 1_555
Nb1 O4 1.812518 1_554
Nb1 O5 1.936483 1_565
Nb1 O2 2.019995 1_555
Nb2 O6 1.812528 1_555
Nb2 O9 1.936483 1_565
Nb2 O7 2.019995 1_555
Nb3 O0 1.812528 1_555
Nb3 O9 1.936483 1_655
Nb3 O8 2.019995 1_555
Nb4 O2 1.868970 1_555
Nb4 O7 1.868970 1_555
Nb4 O3 2.175625 1_555
Nb4 O0 2.175625 1_555
Nb5 O3 1.812528 1_556
Nb5 O5 1.936483 1_656
Nb5 O1 2.019995 1_555
Cl0 Nb5 2.450737 1_555
Cl0 Rb2 3.331534 1_655
Cl0 Rb0 3.361946 1_555
Cl0 Rb1 3.810262 1_656
Cl1 Nb1 2.450737 1_555
Cl1 Rb3 3.331534 1_455
Cl1 Rb1 3.361946 1_555
Cl1 Rb0 3.810262 1_454
Cl2 Nb0 2.418125 1_555
Cl2 Rb3 3.561717 1_555
Cl2 Rb2 3.624798 1_565
Cl3 Nb2 2.734473 1_555
Cl3 Nb1 2.734473 1_555
Cl3 Rb3 3.475566 1_455
Cl3 Rb1 3.475566 1_565
Cl4 Nb1 2.430732 1_556
Cl4 Rb1 3.398790 1_566
Cl4 Rb2 3.677455 1_565
Cl4 Rb0 3.797058 1_555
Cl5 Nb2 2.430732 1_555
Cl5 Rb3 3.398790 1_455
Cl5 Rb0 3.677455 1_455
Cl5 Rb2 3.797058 1_555
Cl6 Nb3 2.430732 1_555
Cl6 Rb2 3.398790 1_655
Cl6 Rb1 3.677455 1_655
Cl6 Rb3 3.797058 1_555
Cl7 Nb4 2.418125 1_555
Cl7 Rb0 3.561717 1_554
Cl7 Rb1 3.624798 1_655
Cl8 Nb4 2.418125 1_555
Cl8 Rb2 3.561717 1_555
Cl8 Rb3 3.624798 1_545
Cl9 Nb2 2.450737 1_555
Cl9 Rb1 3.331534 1_565
Cl9 Rb3 3.361946 1_555
Cl9 Rb2 3.810262 1_565
Cl10 Nb5 2.734473 1_555
Cl10 Nb3 2.734473 1_555
Cl10 Rb2 3.475566 1_655
Cl10 Rb0 3.475566 1_545
Cl11 Nb3 2.450737 1_555
Cl11 Rb0 3.331534 1_545
Cl11 Rb2 3.361946 1_555
Cl11 Rb3 3.810262 1_545
Cl12 Nb0 2.418125 1_555
Cl12 Rb1 3.561717 1_556
Cl12 Rb0 3.624798 1_455
Cl13 Nb5 2.430732 1_554
Cl13 Rb0 3.398790 1_544
Cl13 Rb3 3.677455 1_545
Cl13 Rb1 3.797058 1_555
