# generated using pymatgen
data_P4Se3
_symmetry_space_group_name_H-M   'P 1'
_cell_length_a   10.44851700
_cell_length_b   12.72890700
_cell_length_c   28.44654400
_cell_angle_alpha   90.00000000
_cell_angle_beta   90.00000000
_cell_angle_gamma   90.00000000
_symmetry_Int_Tables_number   1
_chemical_formula_structural   P4Se3
_chemical_formula_sum   'P64 Se48'
_cell_volume   3783.33918181
_cell_formula_units_Z   16
loop_
 _symmetry_equiv_pos_site_id
 _symmetry_equiv_pos_as_xyz
  1  'x, y, z'
loop_
 _atom_site_type_symbol
 _atom_site_label
 _atom_site_symmetry_multiplicity
 _atom_site_fract_x
 _atom_site_fract_y
 _atom_site_fract_z
 _atom_site_occupancy
  P  P0  1  0.64268700  0.00282500  0.74462000  1
  P  P1  1  0.25000000  0.22758900  0.83277800  1
  P  P2  1  0.75000000  0.82147700  0.39893700  1
  P  P3  1  0.35731300  0.99717500  0.25538000  1
  P  P4  1  0.85731300  0.50282500  0.75538000  1
  P  P5  1  0.85755600  0.45962900  0.12995800  1
  P  P6  1  0.75000000  0.32147700  0.10106300  1
  P  P7  1  0.14268700  0.99717500  0.25538000  1
  P  P8  1  0.85731300  0.00282500  0.74462000  1
  P  P9  1  0.25000000  0.47844200  0.98232200  1
  P  P10  1  0.14251300  0.97357200  0.85472000  1
  P  P11  1  0.85750600  0.77916600  0.91264600  1
  P  P12  1  0.14249400  0.72083400  0.41264600  1
  P  P13  1  0.75000000  0.02528600  0.21368700  1
  P  P14  1  0.75000000  0.04273400  0.67861100  1
  P  P15  1  0.75000000  0.90987400  0.87732800  1
  P  P16  1  0.75000000  0.54273400  0.82138900  1
  P  P17  1  0.75000000  0.45299700  0.50158200  1
  P  P18  1  0.75000000  0.77241100  0.16722200  1
  P  P19  1  0.64244400  0.95962900  0.37004200  1
  P  P20  1  0.85755600  0.95962900  0.37004200  1
  P  P21  1  0.14268700  0.49717500  0.24462000  1
  P  P22  1  0.25000000  0.22871700  0.30673200  1
  P  P23  1  0.85748700  0.52642800  0.35472000  1
  P  P24  1  0.25000000  0.97471400  0.78631300  1
  P  P25  1  0.25000000  0.45726600  0.17861100  1
  P  P26  1  0.25000000  0.04700300  0.00158200  1
  P  P27  1  0.25000000  0.72871700  0.19326800  1
  P  P28  1  0.64249400  0.27916600  0.58735400  1
  P  P29  1  0.25000000  0.67852300  0.89893700  1
  P  P30  1  0.25000000  0.72758900  0.66722200  1
  P  P31  1  0.25000000  0.09012600  0.12267200  1
  P  P32  1  0.64268700  0.50282500  0.75538000  1
  P  P33  1  0.75000000  0.27128300  0.80673200  1
  P  P34  1  0.14251300  0.47357200  0.64528000  1
  P  P35  1  0.35750600  0.72083400  0.41264600  1
  P  P36  1  0.35748700  0.47357200  0.64528000  1
  P  P37  1  0.35731300  0.49717500  0.24462000  1
  P  P38  1  0.64251300  0.02642800  0.14528000  1
  P  P39  1  0.85748700  0.02642800  0.14528000  1
  P  P40  1  0.75000000  0.40987400  0.62267200  1
  P  P41  1  0.25000000  0.47471400  0.71368700  1
  P  P42  1  0.75000000  0.02155800  0.48232200  1
  P  P43  1  0.75000000  0.27241100  0.33277800  1
  P  P44  1  0.25000000  0.54700300  0.49841800  1
  P  P45  1  0.35755600  0.54037100  0.87004200  1
  P  P46  1  0.75000000  0.52155800  0.01767800  1
  P  P47  1  0.25000000  0.97844200  0.51767800  1
  P  P48  1  0.64251300  0.52642800  0.35472000  1
  P  P49  1  0.14244400  0.04037100  0.62995800  1
  P  P50  1  0.75000000  0.95299700  0.99841800  1
  P  P51  1  0.25000000  0.59012600  0.37732800  1
  P  P52  1  0.85750600  0.27916600  0.58735400  1
  P  P53  1  0.14249400  0.22083400  0.08735400  1
  P  P54  1  0.35748700  0.97357200  0.85472000  1
  P  P55  1  0.64244400  0.45962900  0.12995800  1
  P  P56  1  0.25000000  0.17852300  0.60106300  1
  P  P57  1  0.75000000  0.52528600  0.28631300  1
  P  P58  1  0.75000000  0.77128300  0.69326800  1
  P  P59  1  0.25000000  0.95726600  0.32138900  1
  P  P60  1  0.14244400  0.54037100  0.87004200  1
  P  P61  1  0.64249400  0.77916600  0.91264600  1
  P  P62  1  0.35750600  0.22083400  0.08735400  1
  P  P63  1  0.35755600  0.04037100  0.62995800  1
  Se  Se0  1  0.91612700  0.83275700  0.73700200  1
  Se  Se1  1  0.91595700  0.84191100  0.98382700  1
  Se  Se2  1  0.58410700  0.85792300  0.13226000  1
  Se  Se3  1  0.25000000  0.10597800  0.36494300  1
  Se  Se4  1  0.08410700  0.64207700  0.63226000  1
  Se  Se5  1  0.08387300  0.16724300  0.26299800  1
  Se  Se6  1  0.75000000  0.34275500  0.02212300  1
  Se  Se7  1  0.58393000  0.05663800  0.43309400  1
  Se  Se8  1  0.41595700  0.15808900  0.01617300  1
  Se  Se9  1  0.58410700  0.35792300  0.36774000  1
  Se  Se10  1  0.08393000  0.44336200  0.93309400  1
  Se  Se11  1  0.41612700  0.16724300  0.26299800  1
  Se  Se12  1  0.58393000  0.55663800  0.06690600  1
  Se  Se13  1  0.75000000  0.89402200  0.63505700  1
  Se  Se14  1  0.25000000  0.60597800  0.13505700  1
  Se  Se15  1  0.41589300  0.64207700  0.63226000  1
  Se  Se16  1  0.08404300  0.15808900  0.01617300  1
  Se  Se17  1  0.08410700  0.14207700  0.86774000  1
  Se  Se18  1  0.91607000  0.05663800  0.43309400  1
  Se  Se19  1  0.75000000  0.35619300  0.26207100  1
  Se  Se20  1  0.91589300  0.35792300  0.36774000  1
  Se  Se21  1  0.91607000  0.55663800  0.06690600  1
  Se  Se22  1  0.75000000  0.39402200  0.86494300  1
  Se  Se23  1  0.91595700  0.34191100  0.51617300  1
  Se  Se24  1  0.41607000  0.94336200  0.56690600  1
  Se  Se25  1  0.41607000  0.44336200  0.93309400  1
  Se  Se26  1  0.25000000  0.15724500  0.52212300  1
  Se  Se27  1  0.75000000  0.84275500  0.47787700  1
  Se  Se28  1  0.91612700  0.33275700  0.76299800  1
  Se  Se29  1  0.75000000  0.85619300  0.23792900  1
  Se  Se30  1  0.75000000  0.54421700  0.57050500  1
  Se  Se31  1  0.58387300  0.33275700  0.76299800  1
  Se  Se32  1  0.25000000  0.65724500  0.97787700  1
  Se  Se33  1  0.25000000  0.14380700  0.76207100  1
  Se  Se34  1  0.08387300  0.66724300  0.23700200  1
  Se  Se35  1  0.75000000  0.04421700  0.92949500  1
  Se  Se36  1  0.58404300  0.84191100  0.98382700  1
  Se  Se37  1  0.58404300  0.34191100  0.51617300  1
  Se  Se38  1  0.41589300  0.14207700  0.86774000  1
  Se  Se39  1  0.41612700  0.66724300  0.23700200  1
  Se  Se40  1  0.58387300  0.83275700  0.73700200  1
  Se  Se41  1  0.25000000  0.64380700  0.73792900  1
  Se  Se42  1  0.91589300  0.85792300  0.13226000  1
  Se  Se43  1  0.25000000  0.45578300  0.42949500  1
  Se  Se44  1  0.25000000  0.95578300  0.07050500  1
  Se  Se45  1  0.41595700  0.65808900  0.48382700  1
  Se  Se46  1  0.08404300  0.65808900  0.48382700  1
  Se  Se47  1  0.08393000  0.94336200  0.56690600  1
loop_
_geom_bond_atom_site_label_1
_geom_bond_atom_site_label_2
_geom_bond_distance
_geom_bond_site_symmetry_2
P0 P8 2.242523 1_555
P0 P14 2.245251 1_555
P0 Se40 2.260723 1_545
P1 Se38 2.275600 1_555
P1 Se17 2.275600 1_555
P1 Se33 2.276605 1_555
P2 P20 2.242980 1_555
P2 Se27 2.261845 1_555
P3 P7 2.242523 1_555
P3 P59 2.245251 1_555
P3 Se11 2.260723 1_565
P4 Se28 2.260723 1_555
P5 P6 2.242980 1_555
P5 P55 2.247601 1_555
P5 Se21 2.261771 1_555
P6 Se6 2.261845 1_555
P7 Se5 2.260723 1_565
P8 Se0 2.260723 1_545
P9 Se10 2.274046 1_555
P9 Se25 2.274046 1_555
P9 Se32 2.279476 1_555
P10 P54 2.246159 1_555
P10 P24 2.246823 1_555
P10 Se17 2.260557 1_565
P11 P15 2.244829 1_555
P11 P61 2.246557 1_555
P11 Se1 2.260730 1_555
P12 P51 2.244829 1_555
P12 P35 2.246557 1_555
P12 Se46 2.260730 1_555
P13 P39 2.246823 1_555
P13 P38 2.246823 1_555
P13 Se29 2.260142 1_545
P14 P8 2.245251 1_555
P14 Se13 2.262355 1_545
P15 P61 2.244829 1_555
P15 Se35 2.264157 1_565
P16 P32 2.245251 1_555
P16 P4 2.245251 1_555
P16 Se22 2.262355 1_555
P17 Se23 2.275622 1_555
P17 Se37 2.275622 1_555
P17 Se30 2.278653 1_555
P18 Se42 2.275600 1_555
P18 Se2 2.275600 1_555
P18 Se29 2.276605 1_555
P19 P2 2.242980 1_555
P19 P20 2.247601 1_555
P19 Se7 2.261771 1_565
P20 Se18 2.261771 1_565
P21 P37 2.242523 1_555
P21 P25 2.245251 1_555
P21 Se34 2.260723 1_555
P22 Se11 2.274417 1_555
P22 Se5 2.274417 1_555
P22 Se3 2.276597 1_555
P23 P48 2.246159 1_555
P23 P57 2.246823 1_555
P23 Se20 2.260557 1_555
P24 P54 2.246823 1_555
P24 Se33 2.260142 1_565
P25 P37 2.245251 1_555
P25 Se14 2.262355 1_555
P26 Se8 2.275622 1_555
P26 Se16 2.275622 1_555
P26 Se44 2.278653 1_545
P27 Se39 2.274417 1_555
P27 Se34 2.274417 1_555
P27 Se14 2.276597 1_555
P28 P40 2.244829 1_555
P28 P52 2.246557 1_555
P28 Se37 2.260730 1_555
P29 P45 2.242980 1_555
P29 P60 2.242980 1_555
P29 Se32 2.261845 1_555
P30 Se15 2.275600 1_555
P30 Se4 2.275600 1_555
P30 Se41 2.276605 1_555
P31 P62 2.244829 1_555
P31 P53 2.244829 1_555
P31 Se44 2.264157 1_545
P32 P4 2.242523 1_555
P32 Se31 2.260723 1_555
P33 Se28 2.274417 1_555
P33 Se31 2.274417 1_555
P33 Se22 2.276597 1_555
P34 P36 2.246159 1_555
P34 P41 2.246823 1_555
P34 Se4 2.260557 1_555
P35 P51 2.244829 1_555
P35 Se45 2.260730 1_555
P36 P41 2.246823 1_555
P36 Se15 2.260557 1_555
P37 Se39 2.260723 1_555
P38 P39 2.246159 1_555
P38 Se2 2.260557 1_545
P39 Se42 2.260557 1_545
P40 P52 2.244829 1_555
P40 Se30 2.264157 1_555
P41 Se41 2.260142 1_555
P42 Se7 2.274046 1_555
P42 Se18 2.274046 1_555
P42 Se27 2.279476 1_545
P43 Se20 2.275600 1_555
P43 Se9 2.275600 1_555
P43 Se19 2.276605 1_555
P44 Se45 2.275622 1_555
P44 Se46 2.275622 1_555
P44 Se43 2.278653 1_555
P45 P60 2.247601 1_555
P45 Se25 2.261771 1_555
P46 Se12 2.274046 1_555
P46 Se21 2.274046 1_555
P46 Se6 2.279476 1_555
P47 Se47 2.274046 1_555
P47 Se24 2.274046 1_555
P47 Se26 2.279476 1_565
P48 P57 2.246823 1_555
P48 Se9 2.260557 1_555
P49 P56 2.242980 1_555
P49 P63 2.247601 1_555
P49 Se47 2.261771 1_545
P50 Se1 2.275622 1_555
P50 Se36 2.275622 1_555
P50 Se35 2.278653 1_565
P51 Se43 2.264157 1_555
P52 Se23 2.260730 1_555
P53 P62 2.246557 1_555
P53 Se16 2.260730 1_555
P54 Se38 2.260557 1_565
P55 P6 2.242980 1_555
P55 Se12 2.261771 1_555
P56 P63 2.242980 1_555
P56 Se26 2.261845 1_555
P57 Se19 2.260142 1_555
P58 Se0 2.274417 1_555
P58 Se40 2.274417 1_555
P58 Se13 2.276597 1_555
P59 P7 2.245251 1_555
P59 Se3 2.262355 1_565
P60 Se10 2.261771 1_555
P61 Se36 2.260730 1_555
P62 Se8 2.260730 1_555
P63 Se24 2.261771 1_545
