# generated using pymatgen
data_Nb2Sn2O7
_symmetry_space_group_name_H-M   'P 1'
_cell_length_a   7.60888616
_cell_length_b   7.60888616
_cell_length_c   7.60888616
_cell_angle_alpha   60.00000000
_cell_angle_beta   60.00000000
_cell_angle_gamma   60.00000000
_symmetry_Int_Tables_number   1
_chemical_formula_structural   Nb2Sn2O7
_chemical_formula_sum   'Nb4 Sn4 O14'
_cell_volume   311.49297840
_cell_formula_units_Z   2
loop_
 _symmetry_equiv_pos_site_id
 _symmetry_equiv_pos_as_xyz
  1  'x, y, z'
loop_
 _atom_site_type_symbol
 _atom_site_label
 _atom_site_symmetry_multiplicity
 _atom_site_fract_x
 _atom_site_fract_y
 _atom_site_fract_z
 _atom_site_occupancy
  Nb  Nb0  1  0.62500000  0.62500000  0.62500000  1
  Nb  Nb1  1  0.12500000  0.62500000  0.62500000  1
  Nb  Nb2  1  0.62500000  0.62500000  0.12500000  1
  Nb  Nb3  1  0.62500000  0.12500000  0.62500000  1
  Sn  Sn0  1  0.12500000  0.12500000  0.62500000  1
  Sn  Sn1  1  0.12500000  0.12500000  0.12500000  1
  Sn  Sn2  1  0.62500000  0.12500000  0.12500000  1
  Sn  Sn3  1  0.12500000  0.62500000  0.12500000  1
  O  O0  1  0.56100300  0.93899700  0.56100300  1
  O  O1  1  0.56100300  0.56100300  0.93899700  1
  O  O2  1  0.31100300  0.68899700  0.31100300  1
  O  O3  1  0.56100300  0.93899700  0.93899700  1
  O  O4  1  0.68899700  0.31100300  0.68899700  1
  O  O5  1  0.93899700  0.56100300  0.56100300  1
  O  O6  1  0.68899700  0.68899700  0.31100300  1
  O  O7  1  0.68899700  0.31100300  0.31100300  1
  O  O8  1  0.25000000  0.25000000  0.25000000  1
  O  O9  1  0.31100300  0.68899700  0.68899700  1
  O  O10  1  0.93899700  0.93899700  0.56100300  1
  O  O11  1  0.31100300  0.31100300  0.68899700  1
  O  O12  1  0.00000000  0.00000000  0.00000000  1
  O  O13  1  0.93899700  0.56100300  0.93899700  1
loop_
_geom_bond_atom_site_label_1
_geom_bond_atom_site_label_2
_geom_bond_distance
_geom_bond_site_symmetry_2
Nb0 O5 2.023037 1_555
Nb0 O0 2.023037 1_555
Nb0 O1 2.023037 1_555
Nb0 O9 2.023037 1_555
Nb0 O6 2.023037 1_555
Nb0 O4 2.023037 1_555
Nb1 O9 2.023037 1_555
Nb1 O5 2.023037 1_455
Nb1 O13 2.023037 1_455
Nb1 O2 2.023037 1_555
Nb1 O10 2.023037 1_455
Nb1 O11 2.023037 1_555
Nb2 O6 2.023037 1_555
Nb2 O1 2.023037 1_554
Nb2 O3 2.023037 1_554
Nb2 O13 2.023037 1_554
Nb2 O7 2.023037 1_555
Nb2 O2 2.023037 1_555
Nb3 O0 2.023037 1_545
Nb3 O4 2.023037 1_555
Nb3 O7 2.023037 1_555
Nb3 O3 2.023037 1_545
Nb3 O11 2.023037 1_555
Nb3 O10 2.023037 1_545
O8 Sn3 2.329736 1_555
O8 Sn0 2.329736 1_555
O8 Sn1 2.329736 1_555
O8 Sn2 2.329736 1_555
O12 Sn2 2.329736 1_455
O12 Sn1 2.329736 1_555
O12 Sn0 2.329736 1_554
O12 Sn3 2.329736 1_545
