# generated using pymatgen
data_KCu3S2ClO9
_symmetry_space_group_name_H-M   'P 1'
_cell_length_a   7.21750200
_cell_length_b   9.80940100
_cell_length_c   13.03598800
_cell_angle_alpha   90.00000000
_cell_angle_beta   90.00000000
_cell_angle_gamma   90.00000000
_symmetry_Int_Tables_number   1
_chemical_formula_structural   KCu3S2ClO9
_chemical_formula_sum   'K4 Cu12 S8 Cl4 O36'
_cell_volume   922.93975515
_cell_formula_units_Z   4
loop_
 _symmetry_equiv_pos_site_id
 _symmetry_equiv_pos_as_xyz
  1  'x, y, z'
loop_
 _atom_site_type_symbol
 _atom_site_label
 _atom_site_symmetry_multiplicity
 _atom_site_fract_x
 _atom_site_fract_y
 _atom_site_fract_z
 _atom_site_occupancy
  K  K0  1  0.34525300  0.86437600  0.42469000  1
  K  K1  1  0.84525300  0.63562400  0.92469000  1
  K  K2  1  0.34525300  0.36437600  0.07531000  1
  K  K3  1  0.84525300  0.13562400  0.57531000  1
  Cu  Cu0  1  0.33353500  0.34688500  0.64809500  1
  Cu  Cu1  1  0.83571900  0.72106700  0.59424400  1
  Cu  Cu2  1  0.83353500  0.65311500  0.35190500  1
  Cu  Cu3  1  0.08286000  0.50113400  0.50024300  1
  Cu  Cu4  1  0.33571900  0.77893300  0.09424400  1
  Cu  Cu5  1  0.58286000  0.99886600  0.00024300  1
  Cu  Cu6  1  0.83353500  0.15311500  0.14809500  1
  Cu  Cu7  1  0.08286000  0.00113400  0.99975700  1
  Cu  Cu8  1  0.58286000  0.49886600  0.49975700  1
  Cu  Cu9  1  0.83571900  0.22106700  0.90575600  1
  Cu  Cu10  1  0.33571900  0.27893300  0.40575600  1
  Cu  Cu11  1  0.33353500  0.84688500  0.85190500  1
  S  S0  1  0.83351300  0.83424700  0.14502200  1
  S  S1  1  0.83727100  0.42888600  0.70941300  1
  S  S2  1  0.83727100  0.92888600  0.79058700  1
  S  S3  1  0.33727100  0.57111400  0.29058700  1
  S  S4  1  0.33351300  0.66575300  0.64502200  1
  S  S5  1  0.83351300  0.33424700  0.35497800  1
  S  S6  1  0.33727100  0.07111400  0.20941300  1
  S  S7  1  0.33351300  0.16575300  0.85497800  1
  Cl  Cl0  1  0.33869800  0.14130000  0.55727100  1
  Cl  Cl1  1  0.83869800  0.35870000  0.05727100  1
  Cl  Cl2  1  0.83869800  0.85870000  0.44272900  1
  Cl  Cl3  1  0.33869800  0.64130000  0.94272900  1
  O  O0  1  0.50300100  0.16831200  0.92406500  1
  O  O1  1  0.34018600  0.11312500  0.32074500  1
  O  O2  1  0.00300100  0.83168800  0.07593500  1
  O  O3  1  0.84018600  0.38687500  0.82074500  1
  O  O4  1  0.83228700  0.07705300  0.00909700  1
  O  O5  1  0.50300100  0.66831200  0.57593500  1
  O  O6  1  0.50073400  0.62742300  0.34575700  1
  O  O7  1  0.00073400  0.37257700  0.65424300  1
  O  O8  1  0.66760700  0.87877100  0.84229100  1
  O  O9  1  0.34018600  0.61312500  0.17925500  1
  O  O10  1  0.32964900  0.54317600  0.70961900  1
  O  O11  1  0.84349300  0.08192900  0.78650000  1
  O  O12  1  0.82964900  0.45682400  0.29038100  1
  O  O13  1  0.16676700  0.67217600  0.57450700  1
  O  O14  1  0.16760700  0.62122900  0.34229100  1
  O  O15  1  0.33692700  0.79225200  0.70567700  1
  O  O16  1  0.34349300  0.41807100  0.28650000  1
  O  O17  1  0.83228700  0.57705300  0.49090300  1
  O  O18  1  0.83692700  0.20774800  0.29432300  1
  O  O19  1  0.16676700  0.17217600  0.92549300  1
  O  O20  1  0.32964900  0.04317600  0.79038100  1
  O  O21  1  0.84018600  0.88687500  0.67925500  1
  O  O22  1  0.33228600  0.92294700  0.99090300  1
  O  O23  1  0.66676700  0.82782400  0.07450700  1
  O  O24  1  0.00300100  0.33168800  0.42406500  1
  O  O25  1  0.33692700  0.29225200  0.79432300  1
  O  O26  1  0.34349300  0.91807100  0.21350000  1
  O  O27  1  0.84349300  0.58192900  0.71350000  1
  O  O28  1  0.66760700  0.37877100  0.65770900  1
  O  O29  1  0.00073400  0.87257700  0.84575700  1
  O  O30  1  0.83692700  0.70774800  0.20567700  1
  O  O31  1  0.33228600  0.42294700  0.50909700  1
  O  O32  1  0.16760700  0.12122900  0.15770900  1
  O  O33  1  0.50073400  0.12742300  0.15424300  1
  O  O34  1  0.82964900  0.95682400  0.20961900  1
  O  O35  1  0.66676700  0.32782400  0.42549300  1
loop_
_geom_bond_atom_site_label_1
_geom_bond_atom_site_label_2
_geom_bond_distance
_geom_bond_site_symmetry_2
K0 O6 2.778625 1_555
K0 O1 2.791311 1_565
K0 O26 2.803032 1_555
K0 O14 2.913171 1_555
K0 O5 2.980365 1_555
K0 O13 3.004727 1_555
K1 O29 2.778625 1_655
K1 O3 2.791311 1_555
K1 O27 2.803032 1_555
K1 O8 2.913171 1_555
K1 O2 2.980365 1_656
K1 O23 3.004727 1_556
K2 O33 2.778625 1_555
K2 O9 2.791311 1_555
K2 O16 2.803032 1_555
K2 O32 2.913171 1_555
K2 O0 2.980365 1_554
K2 O19 3.004727 1_554
K3 O7 2.778625 1_655
K3 O21 2.791311 1_545
K3 O11 2.803032 1_555
K3 O28 2.913171 1_555
K3 O24 2.980365 1_655
K3 O35 3.004727 1_555
Cu0 O31 1.959602 1_555
Cu0 O25 1.980279 1_555
Cu0 O10 2.086042 1_555
Cu0 O7 2.416507 1_555
Cu0 O28 2.434596 1_555
Cu1 O17 1.952211 1_555
Cu1 O21 1.968395 1_555
Cu1 O27 2.069501 1_555
Cu1 O13 2.450541 1_655
Cu1 O5 2.468087 1_555
Cu2 O17 1.959602 1_555
Cu2 O30 1.980279 1_555
Cu2 O12 2.086042 1_555
Cu2 O6 2.416507 1_555
Cu2 O14 2.434596 1_655
Cu3 O17 1.959629 1_455
Cu3 O31 1.960204 1_555
Cu3 O24 2.020189 1_555
Cu3 O13 2.029546 1_555
Cu3 O7 2.443739 1_555
Cu3 O14 2.449834 1_555
Cu4 O22 1.952211 1_554
Cu4 O9 1.968395 1_555
Cu4 O26 2.069501 1_555
Cu4 O23 2.450541 1_555
Cu4 O2 2.468087 1_555
Cu5 O22 1.959635 1_554
Cu5 O4 1.960210 1_565
Cu5 O0 2.020189 1_564
Cu5 O23 2.029546 1_555
Cu5 O33 2.443739 1_565
Cu5 O8 2.449834 1_554
Cu6 O4 1.959602 1_555
Cu6 O18 1.980279 1_555
Cu6 O34 2.086042 1_545
Cu6 O33 2.416507 1_555
Cu6 O32 2.434596 1_655
Cu7 O4 1.959629 1_456
Cu7 O22 1.960204 1_545
Cu7 O2 2.020189 1_546
Cu7 O19 2.029546 1_555
Cu7 O29 2.443739 1_545
Cu7 O32 2.449834 1_556
Cu8 O31 1.959635 1_555
Cu8 O17 1.960210 1_555
Cu8 O5 2.020189 1_555
Cu8 O35 2.029546 1_555
Cu8 O6 2.443739 1_555
Cu8 O28 2.449834 1_555
Cu9 O4 1.952211 1_556
Cu9 O3 1.968395 1_555
Cu9 O11 2.069501 1_555
Cu9 O19 2.450541 1_655
Cu9 O0 2.468087 1_555
Cu10 O31 1.952211 1_555
Cu10 O1 1.968395 1_555
Cu10 O16 2.069501 1_555
Cu10 O35 2.450541 1_555
Cu10 O24 2.468087 1_555
Cu11 O22 1.959602 1_555
Cu11 O15 1.980279 1_555
Cu11 O20 2.086042 1_565
Cu11 O29 2.416507 1_555
Cu11 O8 2.434596 1_555
Cl0 Cu0 2.338833 1_555
Cl0 Cu10 2.392579 1_555
Cl0 K0 3.220014 1_545
Cl0 K3 3.569630 1_455
Cl0 K3 3.664040 1_555
Cl1 Cu6 2.338833 1_555
Cl1 Cu9 2.392579 1_554
Cl1 K1 3.220014 1_554
Cl1 K2 3.569630 1_555
Cl1 K2 3.664040 1_655
Cl2 Cu2 2.338833 1_555
Cl2 Cu1 2.392579 1_555
Cl2 K3 3.220014 1_565
Cl2 K0 3.569630 1_555
Cl2 K0 3.664040 1_655
Cl3 Cu11 2.338833 1_555
Cl3 Cu4 2.392579 1_556
Cl3 K2 3.220014 1_556
Cl3 K1 3.569630 1_455
Cl3 K1 3.664040 1_555
O0 S7 1.519262 1_555
O1 S6 1.508843 1_555
O2 S0 1.519262 1_455
O3 S1 1.508843 1_555
O5 S4 1.519262 1_555
O6 S3 1.488038 1_555
O7 S1 1.488038 1_455
O8 S2 1.481717 1_555
O9 S3 1.508843 1_555
O10 S4 1.468220 1_555
O11 S2 1.502876 1_545
O12 S5 1.468220 1_555
O13 S4 1.515700 1_555
O14 S3 1.481717 1_555
O15 S4 1.471595 1_555
O16 S3 1.502876 1_555
O18 S5 1.471595 1_555
O19 S7 1.515700 1_555
O20 S7 1.468220 1_555
O21 S2 1.508843 1_555
O23 S0 1.515700 1_555
O24 S5 1.519262 1_455
O25 S7 1.471595 1_555
O26 S6 1.502876 1_565
O27 S1 1.502876 1_555
O28 S1 1.481717 1_555
O29 S2 1.488038 1_455
O30 S0 1.471595 1_555
O32 S6 1.481717 1_555
O33 S6 1.488038 1_555
O34 S0 1.468220 1_555
O35 S5 1.515700 1_555
