# generated using pymatgen
data_CsTmP4(H2O3)6
_symmetry_space_group_name_H-M   'P 1'
_cell_length_a   7.60735851
_cell_length_b   7.60735851
_cell_length_c   15.15911674
_cell_angle_alpha   89.25926387
_cell_angle_beta   89.25926387
_cell_angle_gamma   109.92415766
_symmetry_Int_Tables_number   1
_chemical_formula_structural   CsTmP4(H2O3)6
_chemical_formula_sum   'Cs2 Tm2 P8 H24 O36'
_cell_volume   824.56738904
_cell_formula_units_Z   2
loop_
 _symmetry_equiv_pos_site_id
 _symmetry_equiv_pos_as_xyz
  1  'x, y, z'
loop_
 _atom_site_type_symbol
 _atom_site_label
 _atom_site_symmetry_multiplicity
 _atom_site_fract_x
 _atom_site_fract_y
 _atom_site_fract_z
 _atom_site_occupancy
  Cs  Cs0  1  0.53665800  0.46334200  0.25000000  1
  Cs  Cs1  1  0.46334200  0.53665800  0.75000000  1
  Tm  Tm0  1  0.89415600  0.10584400  0.25000000  1
  Tm  Tm1  1  0.10584400  0.89415600  0.75000000  1
  P  P0  1  0.96262900  0.78984600  0.08630500  1
  P  P1  1  0.21015400  0.03737100  0.41369500  1
  P  P2  1  0.03737100  0.21015400  0.91369500  1
  P  P3  1  0.78984600  0.96262900  0.58630500  1
  P  P4  1  0.83260800  0.75630700  0.42613500  1
  P  P5  1  0.24369300  0.16739200  0.07386500  1
  P  P6  1  0.16739200  0.24369300  0.57386500  1
  P  P7  1  0.75630700  0.83260800  0.92613500  1
  H  H0  1  0.87950600  0.38824400  0.11143300  1
  H  H1  1  0.61175600  0.12049400  0.38856700  1
  H  H2  1  0.12049400  0.61175600  0.88856700  1
  H  H3  1  0.38824400  0.87950600  0.61143300  1
  H  H4  1  0.77622600  0.32023100  0.39284500  1
  H  H5  1  0.67976900  0.22377400  0.10715500  1
  H  H6  1  0.22377400  0.67976900  0.60715500  1
  H  H7  1  0.32023100  0.77622600  0.89284500  1
  H  H8  1  0.27212900  0.54194800  0.44607100  1
  H  H9  1  0.45805200  0.72787100  0.05392900  1
  H  H10  1  0.72787100  0.45805200  0.55392900  1
  H  H11  1  0.54194800  0.27212900  0.94607100  1
  H  H12  1  0.27058400  0.67020200  0.10971800  1
  H  H13  1  0.32979800  0.72941600  0.39028200  1
  H  H14  1  0.72941600  0.32979800  0.89028200  1
  H  H15  1  0.67020200  0.27058400  0.60971800  1
  H  H16  1  0.12517100  0.49402900  0.31760400  1
  H  H17  1  0.50597100  0.87482900  0.18239600  1
  H  H18  1  0.87482900  0.50597100  0.68239600  1
  H  H19  1  0.49402900  0.12517100  0.81760400  1
  H  H20  1  0.03561300  0.52207700  0.22450700  1
  H  H21  1  0.47792300  0.96438700  0.27549300  1
  H  H22  1  0.96438700  0.47792300  0.77549300  1
  H  H23  1  0.52207700  0.03561300  0.72450700  1
  O  O0  1  0.05069700  0.85099500  0.45273800  1
  O  O1  1  0.14900500  0.94930300  0.04726200  1
  O  O2  1  0.94930300  0.14900500  0.54726200  1
  O  O3  1  0.85099500  0.05069700  0.95273800  1
  O  O4  1  0.83919400  0.72530400  0.99975500  1
  O  O5  1  0.27469600  0.16080600  0.50024500  1
  O  O6  1  0.16080600  0.27469600  0.00024500  1
  O  O7  1  0.72530400  0.83919400  0.49975500  1
  O  O8  1  0.86238300  0.86996400  0.15190000  1
  O  O9  1  0.13003600  0.13761700  0.34810000  1
  O  O10  1  0.13761700  0.13003600  0.84810000  1
  O  O11  1  0.86996400  0.86238300  0.65190000  1
  O  O12  1  0.01783900  0.62583500  0.11493800  1
  O  O13  1  0.37416500  0.98216100  0.38506200  1
  O  O14  1  0.98216100  0.37416500  0.88506200  1
  O  O15  1  0.62583500  0.01783900  0.61493800  1
  O  O16  1  0.16926900  0.19736500  0.16255800  1
  O  O17  1  0.80263500  0.83073100  0.33744200  1
  O  O18  1  0.83073100  0.80263500  0.83744200  1
  O  O19  1  0.19736500  0.16926900  0.66255800  1
  O  O20  1  0.77593200  0.54973800  0.44119300  1
  O  O21  1  0.45026200  0.22406800  0.05880700  1
  O  O22  1  0.22406800  0.45026200  0.55880700  1
  O  O23  1  0.54973800  0.77593200  0.94119300  1
  O  O24  1  0.80511600  0.26066700  0.13304200  1
  O  O25  1  0.73933300  0.19488400  0.36695800  1
  O  O26  1  0.19488400  0.73933300  0.86695800  1
  O  O27  1  0.26066700  0.80511600  0.63304200  1
  O  O28  1  0.29954900  0.59324100  0.38511500  1
  O  O29  1  0.40675900  0.70045100  0.11488500  1
  O  O30  1  0.70045100  0.40675900  0.61488500  1
  O  O31  1  0.59324100  0.29954900  0.88511500  1
  O  O32  1  0.02617000  0.43263100  0.27324300  1
  O  O33  1  0.56736900  0.97383000  0.22675700  1
  O  O34  1  0.97383000  0.56736900  0.72675700  1
  O  O35  1  0.43263100  0.02617000  0.77324300  1
loop_
_geom_bond_atom_site_label_1
_geom_bond_atom_site_label_2
_geom_bond_distance
_geom_bond_site_symmetry_2
Cs0 O29 3.097900 1_555
Cs0 O28 3.097900 1_555
Cs0 O16 3.158052 1_555
Cs0 O17 3.158052 1_555
Cs1 O30 3.097900 1_555
Cs1 O31 3.097900 1_555
Cs1 O19 3.158052 1_555
Cs1 O18 3.158052 1_555
H0 O24 0.991027 1_555
H1 O25 0.991027 1_555
H2 O26 0.991027 1_555
H3 O27 0.991027 1_555
H4 O25 0.985984 1_555
H5 O24 0.985984 1_555
H6 O27 0.985984 1_555
H7 O26 0.985984 1_555
H8 O28 0.989868 1_555
H9 O29 0.989868 1_555
H10 O30 0.989868 1_555
H11 O31 0.989868 1_555
H12 O29 0.986071 1_555
H13 O28 0.986071 1_555
H14 O31 0.986071 1_555
H15 O30 0.986071 1_555
H16 O32 1.009485 1_555
H17 O33 1.009485 1_555
H18 O34 1.009485 1_555
H19 O35 1.009485 1_555
H20 O32 0.983007 1_555
H21 O33 0.983007 1_555
H22 O34 0.983007 1_555
H23 O35 0.983007 1_555
O0 P1 1.618505 1_565
O0 P4 1.626147 1_455
O1 P0 1.618505 1_455
O1 P5 1.626147 1_565
O2 P3 1.618505 1_545
O2 P6 1.626147 1_655
O3 P2 1.618505 1_655
O3 P7 1.626147 1_545
O4 P0 1.605772 1_556
O4 P7 1.629379 1_555
O5 P1 1.605772 1_555
O5 P6 1.629379 1_555
O6 P2 1.605772 1_554
O6 P5 1.629379 1_555
O7 P3 1.605772 1_555
O7 P4 1.629379 1_555
O8 P0 1.501548 1_555
O8 Tm0 2.296205 1_565
O9 P1 1.501548 1_555
O9 Tm0 2.296205 1_455
O10 P2 1.501548 1_555
O10 Tm1 2.296205 1_545
O11 P3 1.501548 1_555
O11 Tm1 2.296205 1_655
O12 P0 1.506453 1_455
O13 P1 1.506453 1_565
O14 P2 1.506453 1_655
O15 P3 1.506453 1_545
O16 P5 1.502155 1_555
O16 Tm0 2.352289 1_455
O17 P4 1.502155 1_555
O17 Tm0 2.352289 1_565
O18 P7 1.502155 1_555
O18 Tm1 2.352289 1_655
O19 P6 1.502155 1_555
O19 Tm1 2.352289 1_545
O20 P4 1.494604 1_555
O21 P5 1.494604 1_555
O22 P6 1.494604 1_555
O23 P7 1.494604 1_555
O24 Tm0 2.347396 1_555
O25 Tm0 2.347396 1_555
O26 Tm1 2.347396 1_555
O27 Tm1 2.347396 1_555
O32 Tm0 2.375514 1_455
O33 Tm0 2.375514 1_565
O34 Tm1 2.375514 1_655
O35 Tm1 2.375514 1_545
