# generated using pymatgen
data_Sr(NiSb)2
_symmetry_space_group_name_H-M   'P 1'
_cell_length_a   4.42549753
_cell_length_b   4.42549775
_cell_length_c   6.26056534
_cell_angle_alpha   110.69801818
_cell_angle_beta   110.69801664
_cell_angle_gamma   89.99999663
_symmetry_Int_Tables_number   1
_chemical_formula_structural   Sr(NiSb)2
_chemical_formula_sum   'Sr1 Ni2 Sb2'
_cell_volume   106.19738401
_cell_formula_units_Z   1
loop_
 _symmetry_equiv_pos_site_id
 _symmetry_equiv_pos_as_xyz
  1  'x, y, z'
loop_
 _atom_site_type_symbol
 _atom_site_label
 _atom_site_symmetry_multiplicity
 _atom_site_fract_x
 _atom_site_fract_y
 _atom_site_fract_z
 _atom_site_occupancy
  Sr  Sr0  1  0.00000000  0.00000000  -0.00000000  1
  Ni  Ni0  1  0.75000000  0.25000000  0.50000000  1
  Ni  Ni1  1  0.25000000  0.75000000  0.50000000  1
  Sb  Sb0  1  0.35931136  0.35931136  0.71862272  1
  Sb  Sb1  1  0.64068864  0.64068864  0.28137728  1
loop_
_geom_bond_atom_site_label_1
_geom_bond_atom_site_label_2
_geom_bond_distance
_geom_bond_site_symmetry_2
Ni0 Sb0 2.510291 1_655
Ni0 Sb1 2.510291 1_545
Ni0 Sb0 2.510291 1_555
Ni0 Sb1 2.510291 1_555
Ni0 Sr0 3.499542 1_555
Ni0 Sr0 3.499542 1_666
Ni0 Sr0 3.499543 1_655
Ni0 Sr0 3.499543 1_656
Ni1 Sb1 2.510291 1_455
Ni1 Sb0 2.510291 1_565
Ni1 Sb1 2.510291 1_555
Ni1 Sb0 2.510291 1_555
Ni1 Sr0 3.499542 1_666
Ni1 Sr0 3.499542 1_555
Ni1 Sr0 3.499543 1_566
Ni1 Sr0 3.499543 1_565
Sb0 Sr0 3.481433 1_666
Sb0 Sr0 3.481433 1_566
Sb0 Sr0 3.481433 1_656
Sb0 Sr0 3.481433 1_556
Sb1 Sr0 3.481433 1_555
Sb1 Sr0 3.481433 1_655
Sb1 Sr0 3.481433 1_565
Sb1 Sr0 3.481433 1_665
