# generated using pymatgen
data_Ce2Si2O7
_symmetry_space_group_name_H-M   'P 1'
_cell_length_a   7.31379661
_cell_length_b   10.16157793
_cell_length_c   23.52592391
_cell_angle_alpha   90.00000000
_cell_angle_beta   90.00000000
_cell_angle_gamma   90.00000000
_symmetry_Int_Tables_number   1
_chemical_formula_structural   Ce2Si2O7
_chemical_formula_sum   'Ce24 Si24 O84'
_cell_volume   1748.43994167
_cell_formula_units_Z   12
loop_
 _symmetry_equiv_pos_site_id
 _symmetry_equiv_pos_as_xyz
  1  'x, y, z'
loop_
 _atom_site_type_symbol
 _atom_site_label
 _atom_site_symmetry_multiplicity
 _atom_site_fract_x
 _atom_site_fract_y
 _atom_site_fract_z
 _atom_site_occupancy
  Ce  Ce0  1  0.58551671  0.63573229  0.83598002  1
  Ce  Ce1  1  0.12024271  0.50526383  0.92380425  1
  Ce  Ce2  1  0.85736005  0.73625382  0.68650498  1
  Ce  Ce3  1  0.41448329  0.13573229  0.16401998  1
  Ce  Ce4  1  0.64267267  0.76339815  0.18268590  1
  Ce  Ce5  1  0.14263995  0.23625382  0.31349502  1
  Ce  Ce6  1  0.88732418  0.85693758  0.33952231  1
  Ce  Ce7  1  0.64267267  0.26339815  0.31731410  1
  Ce  Ce8  1  0.12024271  0.00526383  0.57619575  1
  Ce  Ce9  1  0.14263995  0.73625382  0.18650498  1
  Ce  Ce10  1  0.35732733  0.26339815  0.81731410  1
  Ce  Ce11  1  0.37480486  0.50604431  0.07771685  1
  Ce  Ce12  1  0.41448329  0.63573229  0.33598002  1
  Ce  Ce13  1  0.87975729  0.50526383  0.42380425  1
  Ce  Ce14  1  0.11267582  0.85693758  0.83952231  1
  Ce  Ce15  1  0.85736005  0.23625382  0.81349502  1
  Ce  Ce16  1  0.37480486  0.00604431  0.42228315  1
  Ce  Ce17  1  0.62519514  0.50604431  0.57771685  1
  Ce  Ce18  1  0.35732733  0.76339815  0.68268590  1
  Ce  Ce19  1  0.62519514  0.00604431  0.92228315  1
  Ce  Ce20  1  0.88732418  0.35693758  0.16047769  1
  Ce  Ce21  1  0.11267582  0.35693758  0.66047769  1
  Ce  Ce22  1  0.87975729  0.00526383  0.07619575  1
  Ce  Ce23  1  0.58551671  0.13573229  0.66401998  1
  Si  Si0  1  0.84895281  0.24158230  0.53271311  1
  Si  Si1  1  0.11295377  0.12627588  0.91567325  1
  Si  Si2  1  0.41950844  0.24349658  0.53632327  1
  Si  Si3  1  0.15104719  0.74158230  0.46728689  1
  Si  Si4  1  0.57367260  0.43429089  0.72079920  1
  Si  Si5  1  0.15104719  0.24158230  0.03271311  1
  Si  Si6  1  0.07309223  0.55812969  0.77686339  1
  Si  Si7  1  0.38332746  0.88066742  0.07887794  1
  Si  Si8  1  0.38332746  0.38066742  0.42112206  1
  Si  Si9  1  0.84895281  0.74158230  0.96728689  1
  Si  Si10  1  0.58049156  0.24349658  0.03632327  1
  Si  Si11  1  0.42632740  0.93429089  0.27920080  1
  Si  Si12  1  0.88704623  0.12627588  0.41567325  1
  Si  Si13  1  0.42632740  0.43429089  0.22079920  1
  Si  Si14  1  0.57367260  0.93429089  0.77920080  1
  Si  Si15  1  0.88704623  0.62627588  0.08432675  1
  Si  Si16  1  0.11295377  0.62627588  0.58432675  1
  Si  Si17  1  0.61667254  0.38066742  0.92112206  1
  Si  Si18  1  0.92690777  0.05812969  0.22313661  1
  Si  Si19  1  0.58049156  0.74349658  0.46367673  1
  Si  Si20  1  0.41950844  0.74349658  0.96367673  1
  Si  Si21  1  0.92690777  0.55812969  0.27686339  1
  Si  Si22  1  0.07309223  0.05812969  0.72313661  1
  Si  Si23  1  0.61667254  0.88066742  0.57887794  1
  O  O0  1  0.63712586  0.40146642  0.78696139  1
  O  O1  1  0.05193403  0.39623865  0.77530482  1
  O  O2  1  0.02258787  0.72083563  0.41224020  1
  O  O3  1  0.58185876  0.86951427  0.50855600  1
  O  O4  1  0.70135592  0.87887461  0.83127596  1
  O  O5  1  0.30533813  0.56000491  0.60404729  1
  O  O6  1  0.37837136  0.73236502  0.10850154  1
  O  O7  1  0.29864408  0.37887461  0.16872404  1
  O  O8  1  0.44127855  0.59662532  0.21796125  1
  O  O9  1  0.55872145  0.59662532  0.71796125  1
  O  O10  1  0.06163448  0.04688617  0.38837896  1
  O  O11  1  0.22023952  0.60071273  0.82570015  1
  O  O12  1  0.69466187  0.56000491  0.10404729  1
  O  O13  1  0.79860384  0.46067323  0.90216711  1
  O  O14  1  0.06163448  0.54688617  0.11162104  1
  O  O15  1  0.13458733  0.60164873  0.71195751  1
  O  O16  1  0.10640960  0.27585265  0.88753621  1
  O  O17  1  0.61497494  0.34448095  0.21764178  1
  O  O18  1  0.94806597  0.89623865  0.22469518  1
  O  O19  1  0.97741213  0.72083563  0.91224020  1
  O  O20  1  0.15998587  0.88950667  0.49098038  1
  O  O21  1  0.58185876  0.36951427  0.99144400  1
  O  O22  1  0.43753123  0.95243125  0.60765610  1
  O  O23  1  0.20139616  0.46067323  0.40216711  1
  O  O24  1  0.79860384  0.96067323  0.59783289  1
  O  O25  1  0.88497710  0.14626851  0.71357188  1
  O  O26  1  0.69466187  0.06000491  0.39595271  1
  O  O27  1  0.37837136  0.23236502  0.39149846  1
  O  O28  1  0.36287414  0.90146642  0.21303861  1
  O  O29  1  0.68224638  0.12015971  0.00825442  1
  O  O30  1  0.31775362  0.12015971  0.50825442  1
  O  O31  1  0.41814124  0.36951427  0.49144400  1
  O  O32  1  0.02258787  0.22083563  0.08775980  1
  O  O33  1  0.86541267  0.10164873  0.28804249  1
  O  O34  1  0.97741213  0.22083563  0.58775980  1
  O  O35  1  0.68224638  0.62015971  0.49174558  1
  O  O36  1  0.64047240  0.28802315  0.09930773  1
  O  O37  1  0.20139616  0.96067323  0.09783289  1
  O  O38  1  0.36287414  0.40146642  0.28696139  1
  O  O39  1  0.84001413  0.38950667  0.50901962  1
  O  O40  1  0.08761916  0.63194498  0.51464750  1
  O  O41  1  0.91238084  0.63194498  0.01464750  1
  O  O42  1  0.56246877  0.45243125  0.39234390  1
  O  O43  1  0.86541267  0.60164873  0.21195751  1
  O  O44  1  0.70135592  0.37887461  0.66872404  1
  O  O45  1  0.89359040  0.77585265  0.11246379  1
  O  O46  1  0.64047240  0.78802315  0.40069227  1
  O  O47  1  0.36362631  0.70551368  0.44792560  1
  O  O48  1  0.93836552  0.04688617  0.88837896  1
  O  O49  1  0.31775362  0.62015971  0.99174558  1
  O  O50  1  0.88497710  0.64626851  0.78642812  1
  O  O51  1  0.77976048  0.10071273  0.17429985  1
  O  O52  1  0.11502290  0.14626851  0.21357188  1
  O  O53  1  0.93836552  0.54688617  0.61162104  1
  O  O54  1  0.22023952  0.10071273  0.67429985  1
  O  O55  1  0.30533813  0.06000491  0.89595271  1
  O  O56  1  0.94806597  0.39623865  0.27530482  1
  O  O57  1  0.10640960  0.77585265  0.61246379  1
  O  O58  1  0.89359040  0.27585265  0.38753621  1
  O  O59  1  0.38502506  0.34448095  0.71764178  1
  O  O60  1  0.63712586  0.90146642  0.71303861  1
  O  O61  1  0.61497494  0.84448095  0.28235822  1
  O  O62  1  0.36362631  0.20551368  0.05207440  1
  O  O63  1  0.29864408  0.87887461  0.33127596  1
  O  O64  1  0.38502506  0.84448095  0.78235822  1
  O  O65  1  0.62162864  0.73236502  0.60850154  1
  O  O66  1  0.35952760  0.78802315  0.90069227  1
  O  O67  1  0.05193403  0.89623865  0.72469518  1
  O  O68  1  0.43753123  0.45243125  0.89234390  1
  O  O69  1  0.13458733  0.10164873  0.78804249  1
  O  O70  1  0.55872145  0.09662532  0.78203875  1
  O  O71  1  0.41814124  0.86951427  0.00855600  1
  O  O72  1  0.77976048  0.60071273  0.32570015  1
  O  O73  1  0.56246877  0.95243125  0.10765610  1
  O  O74  1  0.15998587  0.38950667  0.00901962  1
  O  O75  1  0.35952760  0.28802315  0.59930773  1
  O  O76  1  0.44127855  0.09662532  0.28203875  1
  O  O77  1  0.63637369  0.70551368  0.94792560  1
  O  O78  1  0.63637369  0.20551368  0.55207440  1
  O  O79  1  0.08761916  0.13194498  0.98535250  1
  O  O80  1  0.91238084  0.13194498  0.48535250  1
  O  O81  1  0.62162864  0.23236502  0.89149846  1
  O  O82  1  0.84001413  0.88950667  0.99098038  1
  O  O83  1  0.11502290  0.64626851  0.28642812  1
loop_
_geom_bond_atom_site_label_1
_geom_bond_atom_site_label_2
_geom_bond_distance
_geom_bond_site_symmetry_2
Ce0 O50 2.483423 1_555
Ce0 O68 2.529652 1_555
Ce0 O4 2.614277 1_555
Ce0 O0 2.671928 1_555
Ce0 O11 2.705988 1_555
Ce0 O66 2.728448 1_555
Ce0 O77 2.752659 1_555
Ce0 O9 2.811633 1_555
Ce0 O13 2.831580 1_555
Ce0 O64 2.870739 1_555
Ce1 O74 2.342481 1_556
Ce1 O19 2.442085 1_455
Ce1 O13 2.449126 1_455
Ce1 O49 2.450444 1_555
Ce1 O16 2.484482 1_555
Ce1 O68 2.494219 1_555
Ce1 O11 2.608146 1_555
Ce1 O41 2.921606 1_456
Ce2 O67 2.339929 1_655
Ce2 O60 2.408861 1_555
Ce2 O15 2.518041 1_655
Ce2 O65 2.518265 1_555
Ce2 O50 2.530434 1_555
Ce2 O57 2.552242 1_655
Ce2 O53 2.675345 1_555
Ce2 O9 2.707661 1_555
Ce3 O52 2.483423 1_555
Ce3 O73 2.529652 1_545
Ce3 O7 2.614277 1_555
Ce3 O28 2.671928 1_545
Ce3 O51 2.705988 1_555
Ce3 O36 2.728448 1_555
Ce3 O62 2.752659 1_555
Ce3 O76 2.811633 1_555
Ce3 O37 2.831580 1_545
Ce3 O17 2.870739 1_555
Ce4 O8 2.393790 1_555
Ce4 O43 2.414463 1_555
Ce4 O45 2.472462 1_555
Ce4 O61 2.493667 1_555
Ce4 O28 2.581860 1_555
Ce4 O6 2.623362 1_555
Ce4 O73 2.673872 1_555
Ce4 O18 2.790662 1_555
Ce4 O12 2.799803 1_555
Ce5 O56 2.339929 1_455
Ce5 O38 2.408861 1_555
Ce5 O33 2.518041 1_455
Ce5 O27 2.518265 1_555
Ce5 O52 2.530434 1_555
Ce5 O58 2.552242 1_455
Ce5 O10 2.675345 1_555
Ce5 O76 2.707661 1_555
Ce6 O61 2.406721 1_555
Ce6 O2 2.412074 1_655
Ce6 O46 2.412653 1_555
Ce6 O10 2.583020 1_665
Ce6 O72 2.739274 1_555
Ce6 O18 2.766675 1_555
Ce6 O33 2.770542 1_565
Ce6 O26 2.829483 1_565
Ce6 O83 2.986020 1_655
Ce6 O63 3.022790 1_655
Ce7 O76 2.393790 1_555
Ce7 O33 2.414463 1_555
Ce7 O58 2.472462 1_555
Ce7 O17 2.493667 1_555
Ce7 O38 2.581860 1_555
Ce7 O27 2.623362 1_555
Ce7 O42 2.673872 1_555
Ce7 O56 2.790662 1_555
Ce7 O26 2.799803 1_555
Ce8 O20 2.342481 1_545
Ce8 O34 2.442085 1_455
Ce8 O24 2.449126 1_445
Ce8 O30 2.450444 1_555
Ce8 O57 2.484482 1_545
Ce8 O22 2.494219 1_545
Ce8 O54 2.608146 1_555
Ce8 O80 2.921606 1_455
Ce9 O18 2.339929 1_455
Ce9 O28 2.408861 1_555
Ce9 O43 2.518041 1_455
Ce9 O6 2.518265 1_555
Ce9 O83 2.530434 1_555
Ce9 O45 2.552242 1_455
Ce9 O14 2.675345 1_555
Ce9 O8 2.707661 1_555
Ce10 O70 2.393790 1_555
Ce10 O69 2.414463 1_555
Ce10 O16 2.472462 1_555
Ce10 O59 2.493667 1_555
Ce10 O0 2.581860 1_555
Ce10 O81 2.623362 1_555
Ce10 O68 2.673872 1_555
Ce10 O1 2.790662 1_555
Ce10 O55 2.799803 1_555
Ce11 O49 2.368435 1_554
Ce11 O6 2.411259 1_555
Ce11 O14 2.460625 1_555
Ce11 O12 2.481335 1_555
Ce11 O74 2.546139 1_555
Ce11 O7 2.562065 1_555
Ce12 O83 2.483423 1_555
Ce12 O42 2.529652 1_555
Ce12 O63 2.614277 1_555
Ce12 O38 2.671928 1_555
Ce12 O72 2.705988 1_555
Ce12 O46 2.728448 1_555
Ce12 O47 2.752659 1_555
Ce12 O8 2.811633 1_555
Ce12 O23 2.831580 1_555
Ce12 O61 2.870739 1_555
Ce13 O39 2.342481 1_555
Ce13 O2 2.442085 1_655
Ce13 O23 2.449126 1_655
Ce13 O35 2.450444 1_555
Ce13 O58 2.484482 1_555
Ce13 O42 2.494219 1_555
Ce13 O72 2.608146 1_555
Ce13 O40 2.921606 1_655
Ce14 O64 2.406721 1_555
Ce14 O19 2.412074 1_455
Ce14 O66 2.412653 1_555
Ce14 O48 2.583020 1_465
Ce14 O11 2.739274 1_555
Ce14 O67 2.766675 1_555
Ce14 O69 2.770542 1_565
Ce14 O55 2.829483 1_565
Ce14 O50 2.986020 1_455
Ce14 O4 3.022790 1_455
Ce15 O1 2.339929 1_655
Ce15 O0 2.408861 1_555
Ce15 O69 2.518041 1_655
Ce15 O81 2.518265 1_555
Ce15 O25 2.530434 1_555
Ce15 O16 2.552242 1_655
Ce15 O48 2.675345 1_555
Ce15 O70 2.707661 1_555
Ce16 O30 2.368435 1_555
Ce16 O27 2.411259 1_555
Ce16 O10 2.460625 1_555
Ce16 O26 2.481335 1_555
Ce16 O20 2.546139 1_545
Ce16 O63 2.562065 1_545
Ce17 O35 2.368435 1_555
Ce17 O65 2.411259 1_555
Ce17 O53 2.460625 1_555
Ce17 O5 2.481335 1_555
Ce17 O39 2.546139 1_555
Ce17 O44 2.562065 1_555
Ce18 O9 2.393790 1_555
Ce18 O15 2.414463 1_555
Ce18 O57 2.472462 1_555
Ce18 O64 2.493667 1_555
Ce18 O60 2.581860 1_555
Ce18 O65 2.623362 1_555
Ce18 O22 2.673872 1_555
Ce18 O67 2.790662 1_555
Ce18 O5 2.799803 1_555
Ce19 O29 2.368435 1_556
Ce19 O81 2.411259 1_555
Ce19 O48 2.460625 1_555
Ce19 O55 2.481335 1_555
Ce19 O82 2.546139 1_545
Ce19 O4 2.562065 1_545
Ce20 O17 2.406721 1_555
Ce20 O32 2.412074 1_655
Ce20 O36 2.412653 1_555
Ce20 O14 2.583020 1_655
Ce20 O51 2.739274 1_555
Ce20 O56 2.766675 1_555
Ce20 O43 2.770542 1_555
Ce20 O12 2.829483 1_555
Ce20 O52 2.986020 1_655
Ce20 O7 3.022790 1_655
Ce21 O59 2.406721 1_555
Ce21 O34 2.412074 1_455
Ce21 O75 2.412653 1_555
Ce21 O53 2.583020 1_455
Ce21 O54 2.739274 1_555
Ce21 O1 2.766675 1_555
Ce21 O15 2.770542 1_555
Ce21 O5 2.829483 1_555
Ce21 O25 2.986020 1_455
Ce21 O44 3.022790 1_455
Ce22 O82 2.342481 1_544
Ce22 O32 2.442085 1_655
Ce22 O37 2.449126 1_645
Ce22 O29 2.450444 1_555
Ce22 O45 2.484482 1_545
Ce22 O73 2.494219 1_545
Ce22 O51 2.608146 1_555
Ce22 O79 2.921606 1_654
Ce23 O25 2.483423 1_555
Ce23 O22 2.529652 1_545
Ce23 O44 2.614277 1_555
Ce23 O60 2.671928 1_545
Ce23 O54 2.705988 1_555
Ce23 O75 2.728448 1_555
Ce23 O78 2.752659 1_555
Ce23 O70 2.811633 1_555
Ce23 O24 2.831580 1_545
Ce23 O59 2.870739 1_555
O0 Si4 1.658133 1_555
O1 Si6 1.652737 1_555
O2 Si3 1.613766 1_555
O3 Si19 1.659713 1_555
O3 Si23 1.677700 1_555
O4 Si14 1.640148 1_555
O5 Si16 1.627438 1_555
O6 Si7 1.660730 1_555
O7 Si13 1.640148 1_555
O8 Si13 1.654542 1_555
O9 Si4 1.654542 1_555
O10 Si12 1.641222 1_455
O11 Si6 1.632635 1_555
O12 Si15 1.627438 1_555
O13 Si17 1.621826 1_555
O14 Si15 1.641222 1_455
O15 Si6 1.652116 1_555
O16 Si1 1.658516 1_555
O17 Si13 1.655908 1_555
O18 Si18 1.652737 1_565
O19 Si9 1.613766 1_555
O20 Si3 1.604502 1_555
O21 Si10 1.659713 1_556
O21 Si17 1.677700 1_555
O22 Si23 1.645232 1_555
O23 Si8 1.621826 1_555
O24 Si23 1.621826 1_555
O25 Si22 1.657018 1_655
O26 Si12 1.627438 1_555
O27 Si8 1.660730 1_555
O28 Si11 1.658133 1_555
O29 Si10 1.600208 1_555
O30 Si2 1.600208 1_555
O31 Si2 1.659713 1_555
O31 Si8 1.677700 1_555
O32 Si5 1.613766 1_555
O33 Si18 1.652116 1_555
O34 Si0 1.613766 1_555
O35 Si19 1.600208 1_555
O36 Si10 1.610218 1_555
O37 Si7 1.621826 1_555
O38 Si13 1.658133 1_555
O39 Si0 1.604502 1_555
O40 Si3 1.642511 1_555
O40 Si16 1.650713 1_555
O41 Si9 1.642511 1_554
O41 Si15 1.650713 1_555
O42 Si8 1.645232 1_555
O43 Si21 1.652116 1_555
O44 Si4 1.640148 1_555
O45 Si15 1.658516 1_555
O46 Si19 1.610218 1_555
O47 Si3 1.661050 1_555
O47 Si19 1.673925 1_555
O48 Si1 1.641222 1_655
O49 Si20 1.600208 1_555
O50 Si6 1.657018 1_655
O51 Si18 1.632635 1_555
O52 Si18 1.657018 1_455
O53 Si16 1.641222 1_655
O54 Si22 1.632635 1_555
O55 Si1 1.627438 1_555
O56 Si21 1.652737 1_555
O57 Si16 1.658516 1_555
O58 Si12 1.658516 1_555
O59 Si4 1.655908 1_555
O60 Si14 1.658133 1_555
O61 Si11 1.655908 1_555
O62 Si5 1.661050 1_555
O62 Si10 1.673925 1_555
O63 Si11 1.640148 1_555
O64 Si14 1.655908 1_555
O65 Si23 1.660730 1_555
O66 Si20 1.610218 1_555
O67 Si22 1.652737 1_565
O68 Si17 1.645232 1_555
O69 Si22 1.652116 1_555
O70 Si14 1.654542 1_545
O71 Si20 1.659713 1_554
O71 Si7 1.677700 1_555
O72 Si21 1.632635 1_555
O73 Si7 1.645232 1_555
O74 Si5 1.604502 1_555
O75 Si2 1.610218 1_555
O76 Si11 1.654542 1_545
O77 Si9 1.661050 1_555
O77 Si20 1.673925 1_555
O78 Si0 1.661050 1_555
O78 Si2 1.673925 1_555
O79 Si5 1.642511 1_556
O79 Si1 1.650713 1_555
O80 Si0 1.642511 1_555
O80 Si12 1.650713 1_555
O81 Si17 1.660730 1_555
O82 Si9 1.604502 1_555
O83 Si21 1.657018 1_455
