# generated using pymatgen
data_DyCuTe2ClO6
_symmetry_space_group_name_H-M   'P 1'
_cell_length_a   14.98550200
_cell_length_b   5.44196600
_cell_length_c   9.33357039
_cell_angle_alpha   80.05396715
_cell_angle_beta   90.00000000
_cell_angle_gamma   90.00000000
_symmetry_Int_Tables_number   1
_chemical_formula_structural   DyCuTe2ClO6
_chemical_formula_sum   'Dy4 Cu4 Te8 Cl4 O24'
_cell_volume   749.71865315
_cell_formula_units_Z   4
loop_
 _symmetry_equiv_pos_site_id
 _symmetry_equiv_pos_as_xyz
  1  'x, y, z'
loop_
 _atom_site_type_symbol
 _atom_site_label
 _atom_site_symmetry_multiplicity
 _atom_site_fract_x
 _atom_site_fract_y
 _atom_site_fract_z
 _atom_site_occupancy
  Dy  Dy0  1  0.91294700  0.25448500  0.97263200  1
  Dy  Dy1  1  0.08705300  0.74551500  0.02736800  1
  Dy  Dy2  1  0.41294700  0.74551500  0.52736800  1
  Dy  Dy3  1  0.58705300  0.25448500  0.47263200  1
  Cu  Cu0  1  0.27725400  0.72747900  0.82945400  1
  Cu  Cu1  1  0.77725400  0.27252100  0.67054600  1
  Cu  Cu2  1  0.72274600  0.27252100  0.17054600  1
  Cu  Cu3  1  0.22274600  0.72747900  0.32945400  1
  Te  Te0  1  0.65449900  0.74427300  0.71659100  1
  Te  Te1  1  0.41367300  0.21963100  0.79638400  1
  Te  Te2  1  0.84550100  0.74427300  0.21659100  1
  Te  Te3  1  0.15449900  0.25572700  0.78340900  1
  Te  Te4  1  0.34550100  0.25572700  0.28340900  1
  Te  Te5  1  0.08632700  0.21963100  0.29638400  1
  Te  Te6  1  0.91367300  0.78036900  0.70361600  1
  Te  Te7  1  0.58632700  0.78036900  0.20361600  1
  Cl  Cl0  1  0.89710600  0.27583500  0.44351300  1
  Cl  Cl1  1  0.60289400  0.27583500  0.94351300  1
  Cl  Cl2  1  0.10289400  0.72416500  0.55648700  1
  Cl  Cl3  1  0.39710600  0.72416500  0.05648700  1
  O  O0  1  0.63844300  0.03811000  0.29213700  1
  O  O1  1  0.98258800  0.63085200  0.86532300  1
  O  O2  1  0.54565700  0.87457000  0.62647900  1
  O  O3  1  0.67640200  0.49851100  0.59680900  1
  O  O4  1  0.36155700  0.96189000  0.70786300  1
  O  O5  1  0.28595000  0.98446100  0.40832000  1
  O  O6  1  0.86155700  0.03811000  0.79213700  1
  O  O7  1  0.32302700  0.46855300  0.72936900  1
  O  O8  1  0.48258800  0.36914800  0.63467700  1
  O  O9  1  0.17640200  0.50148900  0.90319100  1
  O  O10  1  0.82302700  0.53144700  0.77063100  1
  O  O11  1  0.21405000  0.98446100  0.90832000  1
  O  O12  1  0.67697300  0.53144700  0.27063100  1
  O  O13  1  0.01741200  0.36914800  0.13467700  1
  O  O14  1  0.78595000  0.01553900  0.09168000  1
  O  O15  1  0.04565700  0.12543000  0.87352100  1
  O  O16  1  0.13844300  0.96189000  0.20786300  1
  O  O17  1  0.51741200  0.63085200  0.36532300  1
  O  O18  1  0.45434300  0.12543000  0.37352100  1
  O  O19  1  0.32359800  0.50148900  0.40319100  1
  O  O20  1  0.71405000  0.01553900  0.59168000  1
  O  O21  1  0.17697300  0.46855300  0.22936900  1
  O  O22  1  0.82359800  0.49851100  0.09680900  1
  O  O23  1  0.95434300  0.87457000  0.12647900  1
loop_
_geom_bond_atom_site_label_1
_geom_bond_atom_site_label_2
_geom_bond_distance
_geom_bond_site_symmetry_2
Dy0 O22 2.330514 1_556
Dy0 O13 2.335290 1_656
Dy0 O6 2.345830 1_555
Dy0 O15 2.351263 1_655
Dy0 O1 2.361917 1_555
Dy0 O23 2.386567 1_546
Dy0 O14 2.459317 1_556
Dy0 O10 2.580797 1_555
Dy1 O9 2.330514 1_554
Dy1 O1 2.335290 1_454
Dy1 O16 2.345830 1_555
Dy1 O23 2.351263 1_455
Dy1 O13 2.361917 1_555
Dy1 O15 2.386567 1_564
Dy1 O11 2.459317 1_554
Dy1 O21 2.580797 1_555
Dy2 O19 2.330514 1_555
Dy2 O17 2.335290 1_555
Dy2 O4 2.345830 1_555
Dy2 O2 2.351263 1_555
Dy2 O8 2.361917 1_555
Dy2 O18 2.386567 1_565
Dy2 O5 2.459317 1_555
Dy2 O7 2.580797 1_555
Dy3 O3 2.330514 1_555
Dy3 O8 2.335290 1_555
Dy3 O0 2.345830 1_555
Dy3 O18 2.351263 1_555
Dy3 O17 2.361917 1_555
Dy3 O2 2.386567 1_545
Dy3 O20 2.459317 1_555
Dy3 O12 2.580797 1_555
Cu0 O11 1.936569 1_555
Cu0 O7 1.945072 1_555
Cu0 O9 1.994452 1_555
Cu0 O4 2.002781 1_555
Cu1 O20 1.936569 1_555
Cu1 O10 1.945072 1_555
Cu1 O3 1.994452 1_555
Cu1 O6 2.002781 1_555
Cu2 O14 1.936569 1_555
Cu2 O12 1.945072 1_555
Cu2 O22 1.994452 1_555
Cu2 O0 2.002781 1_555
Cu3 O5 1.936569 1_555
Cu3 O21 1.945072 1_555
Cu3 O19 1.994452 1_555
Cu3 O16 2.002781 1_555
Cl0 Cu1 2.775459 1_555
Cl1 Cu2 2.775459 1_556
Cl2 Cu3 2.775459 1_555
Cl3 Cu0 2.775459 1_554
O0 Te7 1.913172 1_545
O1 Te6 1.892709 1_555
O2 Te0 1.914287 1_555
O3 Te0 1.913864 1_555
O4 Te1 1.913172 1_565
O5 Te4 1.933991 1_565
O6 Te6 1.913172 1_545
O7 Te1 1.943897 1_555
O8 Te1 1.892709 1_555
O9 Te3 1.913864 1_555
O10 Te6 1.943897 1_555
O11 Te3 1.933991 1_565
O12 Te7 1.943897 1_555
O13 Te5 1.892709 1_555
O14 Te2 1.933991 1_545
O15 Te3 1.914287 1_555
O16 Te5 1.913172 1_565
O17 Te7 1.892709 1_555
O18 Te4 1.914287 1_555
O19 Te4 1.913864 1_555
O20 Te0 1.933991 1_545
O21 Te5 1.943897 1_555
O22 Te2 1.913864 1_555
O23 Te2 1.914287 1_555
