# generated using pymatgen
data_Cs4Li2(Si2O5)3
_symmetry_space_group_name_H-M   'P 1'
_cell_length_a   8.63763800
_cell_length_b   11.12878700
_cell_length_c   19.28343137
_cell_angle_alpha   89.81239829
_cell_angle_beta   90.00000000
_cell_angle_gamma   90.00000000
_symmetry_Int_Tables_number   1
_chemical_formula_structural   Cs4Li2(Si2O5)3
_chemical_formula_sum   'Cs16 Li8 Si24 O60'
_cell_volume   1853.63754636
_cell_formula_units_Z   4
loop_
 _symmetry_equiv_pos_site_id
 _symmetry_equiv_pos_as_xyz
  1  'x, y, z'
loop_
 _atom_site_type_symbol
 _atom_site_label
 _atom_site_symmetry_multiplicity
 _atom_site_fract_x
 _atom_site_fract_y
 _atom_site_fract_z
 _atom_site_occupancy
  Cs  Cs0  1  0.25000000  0.54485900  0.48595700  1
  Cs  Cs1  1  0.25000000  0.47968600  0.00756300  1
  Cs  Cs2  1  0.25000000  0.04288300  0.98094800  1
  Cs  Cs3  1  0.25000000  0.72193500  0.27937900  1
  Cs  Cs4  1  0.75000000  0.79584600  0.26721800  1
  Cs  Cs5  1  0.25000000  0.29476200  0.22341800  1
  Cs  Cs6  1  0.25000000  0.20415400  0.73278200  1
  Cs  Cs7  1  0.25000000  0.77749900  0.77249100  1
  Cs  Cs8  1  0.75000000  0.22250100  0.22750900  1
  Cs  Cs9  1  0.75000000  0.70523800  0.77658200  1
  Cs  Cs10  1  0.75000000  0.52031400  0.99243700  1
  Cs  Cs11  1  0.25000000  0.96729300  0.51848900  1
  Cs  Cs12  1  0.75000000  0.45514100  0.51404300  1
  Cs  Cs13  1  0.75000000  0.03270700  0.48151100  1
  Cs  Cs14  1  0.75000000  0.95711700  0.01905200  1
  Cs  Cs15  1  0.75000000  0.27806500  0.72062100  1
  Li  Li0  1  0.01852600  0.23760700  0.57877200  1
  Li  Li1  1  0.51247500  0.26031100  0.07198500  1
  Li  Li2  1  0.98752500  0.26031100  0.07198500  1
  Li  Li3  1  0.51852600  0.76239300  0.42122800  1
  Li  Li4  1  0.48752500  0.73968900  0.92801500  1
  Li  Li5  1  0.48147400  0.23760700  0.57877200  1
  Li  Li6  1  0.01247500  0.73968900  0.92801500  1
  Li  Li7  1  0.98147400  0.76239300  0.42122800  1
  Si  Si0  1  0.56544900  0.49471200  0.33517900  1
  Si  Si1  1  0.93990500  0.99489500  0.83461200  1
  Si  Si2  1  0.06009500  0.00510500  0.16538800  1
  Si  Si3  1  0.06544900  0.50528800  0.66482100  1
  Si  Si4  1  0.43875300  0.25609900  0.41183600  1
  Si  Si5  1  0.93455100  0.49471200  0.33517900  1
  Si  Si6  1  0.56057600  0.25006800  0.90387700  1
  Si  Si7  1  0.93942400  0.25006800  0.90387700  1
  Si  Si8  1  0.56009500  0.99489500  0.83461200  1
  Si  Si9  1  0.93875300  0.74390100  0.58816400  1
  Si  Si10  1  0.06399200  0.48492500  0.82979100  1
  Si  Si11  1  0.56399200  0.51507500  0.17020900  1
  Si  Si12  1  0.43455100  0.50528800  0.66482100  1
  Si  Si13  1  0.93600800  0.51507500  0.17020900  1
  Si  Si14  1  0.43990500  0.00510500  0.16538800  1
  Si  Si15  1  0.56124700  0.74390100  0.58816400  1
  Si  Si16  1  0.06057600  0.74993200  0.09612300  1
  Si  Si17  1  0.43942400  0.74993200  0.09612300  1
  Si  Si18  1  0.55990800  0.98285000  0.67114400  1
  Si  Si19  1  0.06124700  0.25609900  0.41183600  1
  Si  Si20  1  0.05990800  0.01715000  0.32885600  1
  Si  Si21  1  0.94009200  0.98285000  0.67114400  1
  Si  Si22  1  0.43600800  0.48492500  0.82979100  1
  Si  Si23  1  0.44009200  0.01715000  0.32885600  1
  O  O0  1  0.25000000  0.01679800  0.32531500  1
  O  O1  1  0.50526100  0.11433100  0.12100800  1
  O  O2  1  0.53112600  0.35885800  0.84607600  1
  O  O3  1  0.25000000  0.00040900  0.16866600  1
  O  O4  1  0.01902300  0.59395500  0.87874300  1
  O  O5  1  0.02562500  0.37723000  0.63332400  1
  O  O6  1  0.52562500  0.62277000  0.36667600  1
  O  O7  1  0.49473900  0.88566900  0.87899200  1
  O  O8  1  0.46333000  0.38688300  0.37226600  1
  O  O9  1  0.53667000  0.61311700  0.62773400  1
  O  O10  1  0.50552200  0.84671100  0.64575400  1
  O  O11  1  0.48097700  0.59395500  0.87874300  1
  O  O12  1  0.03667000  0.38688300  0.37226600  1
  O  O13  1  0.01775900  0.51661900  0.74805300  1
  O  O14  1  0.49947200  0.12697200  0.86327700  1
  O  O15  1  0.02672900  0.75358400  0.51613900  1
  O  O16  1  0.75000000  0.23758900  0.91111100  1
  O  O17  1  0.47718400  0.26907100  0.97622300  1
  O  O18  1  0.99447800  0.84671100  0.64575400  1
  O  O19  1  0.75000000  0.99959100  0.83133400  1
  O  O20  1  0.97327100  0.24641600  0.48386100  1
  O  O21  1  0.02281600  0.26907100  0.97622300  1
  O  O22  1  0.00909900  0.08927400  0.62569000  1
  O  O23  1  0.99473900  0.11433100  0.12100800  1
  O  O24  1  0.00552200  0.15328900  0.35424600  1
  O  O25  1  0.99947200  0.87302800  0.13672300  1
  O  O26  1  0.98097700  0.40604500  0.12125700  1
  O  O27  1  0.47437500  0.37723000  0.63332400  1
  O  O28  1  0.49800600  0.98957500  0.75289900  1
  O  O29  1  0.50052800  0.87302800  0.13672300  1
  O  O30  1  0.25000000  0.44785000  0.83067800  1
  O  O31  1  0.46887400  0.64114200  0.15392400  1
  O  O32  1  0.75000000  0.75901600  0.57888500  1
  O  O33  1  0.99090100  0.91072600  0.37431000  1
  O  O34  1  0.50199400  0.01042500  0.24710100  1
  O  O35  1  0.97437500  0.62277000  0.36667600  1
  O  O36  1  0.75000000  0.45397400  0.34174800  1
  O  O37  1  0.49447800  0.15328900  0.35424600  1
  O  O38  1  0.00199400  0.98957500  0.75289900  1
  O  O39  1  0.00052800  0.12697200  0.86327700  1
  O  O40  1  0.25000000  0.76241100  0.08888900  1
  O  O41  1  0.52672900  0.24641600  0.48386100  1
  O  O42  1  0.98224100  0.48338100  0.25194700  1
  O  O43  1  0.52281600  0.73092900  0.02377700  1
  O  O44  1  0.49090100  0.08927400  0.62569000  1
  O  O45  1  0.48224100  0.51661900  0.74805300  1
  O  O46  1  0.50909900  0.91072600  0.37431000  1
  O  O47  1  0.25000000  0.24098400  0.42111500  1
  O  O48  1  0.00526100  0.88566900  0.87899200  1
  O  O49  1  0.96333000  0.61311700  0.62773400  1
  O  O50  1  0.96887400  0.35885800  0.84607600  1
  O  O51  1  0.25000000  0.54602600  0.65825200  1
  O  O52  1  0.51902300  0.40604500  0.12125700  1
  O  O53  1  0.47327100  0.75358400  0.51613900  1
  O  O54  1  0.97718400  0.73092900  0.02377700  1
  O  O55  1  0.03112600  0.64114200  0.15392400  1
  O  O56  1  0.75000000  0.98320200  0.67468500  1
  O  O57  1  0.51775900  0.48338100  0.25194700  1
  O  O58  1  0.75000000  0.55215000  0.16932200  1
  O  O59  1  0.99800600  0.01042500  0.24710100  1
loop_
_geom_bond_atom_site_label_1
_geom_bond_atom_site_label_2
_geom_bond_distance
_geom_bond_site_symmetry_2
Cs0 O15 3.076117 1_555
Cs0 O53 3.076117 1_555
Cs0 O51 3.322507 1_555
Cs0 O8 3.364212 1_555
Cs0 O12 3.364212 1_555
Cs0 O35 3.420141 1_455
Cs0 O6 3.420141 1_555
Cs0 O47 3.609354 1_555
Cs1 O17 3.117543 1_554
Cs1 O21 3.117543 1_554
Cs1 O26 3.296396 1_455
Cs1 O52 3.296396 1_555
Cs1 O11 3.427476 1_554
Cs1 O4 3.427476 1_554
Cs1 O30 3.430454 1_554
Cs1 O40 3.520149 1_555
Cs1 O43 3.670734 1_555
Cs1 O54 3.670734 1_455
Cs2 O17 3.192779 1_555
Cs2 O21 3.192779 1_555
Cs2 O14 3.264050 1_555
Cs2 O39 3.264050 1_555
Cs2 O48 3.379036 1_545
Cs2 O7 3.379036 1_545
Cs2 O1 3.578015 1_556
Cs2 O23 3.578015 1_456
Cs2 O3 3.649044 1_556
Cs2 O40 3.746009 1_546
Cs3 O35 3.115685 1_455
Cs3 O6 3.115685 1_555
Cs3 O31 3.201471 1_555
Cs3 O55 3.201471 1_555
Cs4 O33 3.200972 1_555
Cs4 O46 3.200972 1_555
Cs4 O59 3.230471 1_565
Cs4 O34 3.230471 1_565
Cs4 O58 3.309437 1_555
Cs4 O6 3.334695 1_555
Cs4 O35 3.334695 1_555
Cs4 O25 3.420413 1_555
Cs4 O29 3.420413 1_555
Cs5 O57 3.172618 1_555
Cs5 O42 3.172618 1_455
Cs5 O52 3.286094 1_555
Cs5 O26 3.286094 1_455
Cs5 O3 3.445024 1_555
Cs5 O8 3.564315 1_555
Cs5 O12 3.564315 1_555
Cs5 O1 3.580393 1_555
Cs5 O23 3.580393 1_455
Cs5 O37 3.643722 1_555
Cs5 O24 3.643722 1_555
Cs5 O0 3.659270 1_555
Cs6 O44 3.200972 1_555
Cs6 O22 3.200972 1_555
Cs6 O38 3.230471 1_545
Cs6 O28 3.230471 1_545
Cs6 O30 3.309437 1_555
Cs6 O27 3.334695 1_555
Cs6 O5 3.334695 1_555
Cs6 O14 3.420413 1_555
Cs6 O39 3.420413 1_555
Cs7 O48 3.186202 1_555
Cs7 O7 3.186202 1_555
Cs7 O38 3.208763 1_555
Cs7 O28 3.208763 1_555
Cs7 O18 3.380094 1_455
Cs7 O10 3.380094 1_555
Cs7 O51 3.394976 1_555
Cs7 O11 3.510457 1_555
Cs7 O4 3.510457 1_555
Cs7 O13 3.561481 1_555
Cs7 O45 3.561481 1_555
Cs8 O23 3.186202 1_555
Cs8 O1 3.186202 1_555
Cs8 O59 3.208763 1_555
Cs8 O34 3.208763 1_555
Cs8 O37 3.380094 1_555
Cs8 O24 3.380094 1_655
Cs8 O36 3.394976 1_555
Cs8 O52 3.510457 1_555
Cs8 O26 3.510457 1_555
Cs8 O42 3.561481 1_555
Cs8 O57 3.561481 1_555
Cs9 O13 3.172618 1_655
Cs9 O45 3.172618 1_555
Cs9 O4 3.286094 1_655
Cs9 O11 3.286094 1_555
Cs9 O19 3.445024 1_555
Cs9 O9 3.564315 1_555
Cs9 O49 3.564315 1_555
Cs9 O48 3.580393 1_655
Cs9 O7 3.580393 1_555
Cs9 O10 3.643722 1_555
Cs9 O18 3.643722 1_555
Cs9 O56 3.659270 1_555
Cs10 O54 3.117543 1_556
Cs10 O43 3.117543 1_556
Cs10 O4 3.296396 1_655
Cs10 O11 3.296396 1_555
Cs10 O26 3.427476 1_556
Cs10 O52 3.427476 1_556
Cs10 O58 3.430454 1_556
Cs10 O16 3.520149 1_555
Cs10 O21 3.670734 1_655
Cs10 O17 3.670734 1_555
Cs11 O15 3.062420 1_555
Cs11 O53 3.062420 1_555
Cs11 O44 3.234858 1_565
Cs11 O22 3.234858 1_565
Cs12 O20 3.076117 1_555
Cs12 O41 3.076117 1_555
Cs12 O36 3.322507 1_555
Cs12 O9 3.364212 1_555
Cs12 O49 3.364212 1_555
Cs12 O27 3.420141 1_555
Cs12 O5 3.420141 1_655
Cs12 O32 3.609354 1_555
Cs13 O20 3.062420 1_555
Cs13 O41 3.062420 1_555
Cs13 O33 3.234858 1_545
Cs13 O46 3.234858 1_545
Cs14 O54 3.192779 1_555
Cs14 O43 3.192779 1_555
Cs14 O25 3.264050 1_555
Cs14 O29 3.264050 1_555
Cs14 O23 3.379036 1_565
Cs14 O1 3.379036 1_565
Cs14 O7 3.578015 1_554
Cs14 O48 3.578015 1_654
Cs14 O19 3.649044 1_554
Cs14 O16 3.746009 1_564
Cs15 O5 3.115685 1_655
Cs15 O27 3.115685 1_555
Cs15 O50 3.201471 1_555
Cs15 O2 3.201471 1_555
Li0 O20 1.873740 1_455
Li0 O5 1.880283 1_555
Li0 O22 1.881604 1_555
Li1 O17 1.873834 1_554
Li1 O1 1.877961 1_555
Li1 O52 1.883193 1_555
Li2 O21 1.873834 1_654
Li2 O23 1.877961 1_555
Li2 O26 1.883193 1_555
Li3 O53 1.873740 1_555
Li3 O6 1.880283 1_555
Li3 O46 1.881604 1_555
Li4 O43 1.873834 1_556
Li4 O7 1.877961 1_555
Li4 O11 1.883193 1_555
Li5 O41 1.873740 1_555
Li5 O27 1.880283 1_555
Li5 O44 1.881604 1_555
Li6 O54 1.873834 1_456
Li6 O48 1.877961 1_555
Li6 O4 1.883193 1_555
Li7 O15 1.873740 1_655
Li7 O35 1.880283 1_555
Li7 O33 1.881604 1_555
O0 Si23 1.643370 1_555
O0 Si20 1.643370 1_555
O1 Si14 1.588028 1_555
O2 Si22 1.655017 1_555
O2 Si6 1.662530 1_555
O3 Si14 1.642373 1_555
O3 Si2 1.642373 1_555
O4 Si10 1.587990 1_555
O5 Si3 1.588675 1_555
O6 Si0 1.588675 1_555
O7 Si8 1.588028 1_555
O8 Si0 1.650423 1_555
O8 Si4 1.654816 1_555
O9 Si12 1.650423 1_555
O9 Si15 1.654816 1_555
O10 Si18 1.661525 1_555
O10 Si15 1.668042 1_555
O11 Si22 1.587990 1_555
O12 Si5 1.650423 1_455
O12 Si19 1.654816 1_555
O13 Si3 1.662207 1_555
O13 Si10 1.662713 1_555
O14 Si8 1.656967 1_545
O14 Si6 1.665889 1_555
O15 Si9 1.586537 1_455
O16 Si7 1.647935 1_555
O16 Si6 1.647935 1_555
O17 Si6 1.584850 1_555
O18 Si21 1.661525 1_555
O18 Si9 1.668042 1_555
O19 Si8 1.642373 1_555
O19 Si1 1.642373 1_555
O20 Si19 1.586537 1_655
O21 Si7 1.584850 1_455
O22 Si21 1.587289 1_445
O23 Si2 1.588028 1_655
O24 Si20 1.661525 1_555
O24 Si19 1.668042 1_555
O25 Si2 1.656967 1_665
O25 Si16 1.665889 1_655
O26 Si13 1.587990 1_555
O27 Si12 1.588675 1_555
O28 Si8 1.665710 1_555
O28 Si18 1.666634 1_555
O29 Si14 1.656967 1_565
O29 Si17 1.665889 1_555
O30 Si22 1.658877 1_555
O30 Si10 1.658877 1_555
O31 Si11 1.655017 1_555
O31 Si17 1.662530 1_555
O32 Si9 1.648713 1_555
O32 Si15 1.648713 1_555
O33 Si20 1.587289 1_665
O34 Si14 1.665710 1_555
O34 Si23 1.666634 1_555
O35 Si5 1.588675 1_555
O36 Si5 1.662021 1_555
O36 Si0 1.662021 1_555
O37 Si23 1.661525 1_555
O37 Si4 1.668042 1_555
O38 Si1 1.665710 1_455
O38 Si21 1.666634 1_455
O39 Si1 1.656967 1_445
O39 Si7 1.665889 1_455
O40 Si17 1.647935 1_555
O40 Si16 1.647935 1_555
O41 Si4 1.586537 1_555
O42 Si5 1.662207 1_555
O42 Si13 1.662713 1_555
O43 Si17 1.584850 1_555
O44 Si18 1.587289 1_545
O45 Si12 1.662207 1_555
O45 Si22 1.662713 1_555
O46 Si23 1.587289 1_565
O47 Si4 1.648713 1_555
O47 Si19 1.648713 1_555
O48 Si1 1.588028 1_455
O49 Si3 1.650423 1_655
O49 Si9 1.654816 1_555
O50 Si10 1.655017 1_655
O50 Si7 1.662530 1_555
O51 Si12 1.662021 1_555
O51 Si3 1.662021 1_555
O52 Si11 1.587990 1_555
O53 Si15 1.586537 1_555
O54 Si16 1.584850 1_655
O55 Si13 1.655017 1_455
O55 Si16 1.662530 1_555
O56 Si21 1.643370 1_555
O56 Si18 1.643370 1_555
O57 Si0 1.662207 1_555
O57 Si11 1.662713 1_555
O58 Si13 1.658877 1_555
O58 Si11 1.658877 1_555
O59 Si2 1.665710 1_655
O59 Si20 1.666634 1_655
