# generated using pymatgen
data_Rb2CoH12(SeO7)2
_symmetry_space_group_name_H-M   'P 1'
_cell_length_a   12.73180700
_cell_length_b   6.45632200
_cell_length_c   9.37618070
_cell_angle_alpha   75.61446175
_cell_angle_beta   90.00000000
_cell_angle_gamma   90.00000000
_symmetry_Int_Tables_number   1
_chemical_formula_structural   Rb2CoH12(SeO7)2
_chemical_formula_sum   'Rb4 Co2 H24 Se4 O28'
_cell_volume   746.56262158
_cell_formula_units_Z   2
loop_
 _symmetry_equiv_pos_site_id
 _symmetry_equiv_pos_as_xyz
  1  'x, y, z'
loop_
 _atom_site_type_symbol
 _atom_site_label
 _atom_site_symmetry_multiplicity
 _atom_site_fract_x
 _atom_site_fract_y
 _atom_site_fract_z
 _atom_site_occupancy
  Rb  Rb0  1  0.34605100  0.65642800  0.13143100  1
  Rb  Rb1  1  0.84605100  0.34357200  0.36856900  1
  Rb  Rb2  1  0.65394900  0.34357200  0.86856900  1
  Rb  Rb3  1  0.15394900  0.65642800  0.63143100  1
  Co  Co0  1  0.00000000  0.00000000  0.00000000  1
  Co  Co1  1  0.50000000  0.00000000  0.50000000  1
  H  H0  1  0.08767700  0.68929000  0.19943500  1
  H  H1  1  0.58767700  0.31071000  0.30056500  1
  H  H2  1  0.91232300  0.31071000  0.80056500  1
  H  H3  1  0.41232300  0.68929000  0.69943500  1
  H  H4  1  0.12417700  0.91030000  0.23550000  1
  H  H5  1  0.62417700  0.08970000  0.26450000  1
  H  H6  1  0.87582300  0.08970000  0.76450000  1
  H  H7  1  0.37582300  0.91030000  0.73550000  1
  H  H8  1  0.09632900  0.07289200  0.72884100  1
  H  H9  1  0.59632900  0.92710800  0.77115900  1
  H  H10  1  0.90367100  0.92710800  0.27115900  1
  H  H11  1  0.40367100  0.07289200  0.22884100  1
  H  H12  1  0.18437200  0.99899300  0.85025300  1
  H  H13  1  0.68437200  0.00100700  0.64974700  1
  H  H14  1  0.81562800  0.00100700  0.14974700  1
  H  H15  1  0.31562800  0.99899300  0.35025300  1
  H  H16  1  0.94491400  0.67791900  0.89939600  1
  H  H17  1  0.44491400  0.32208100  0.60060400  1
  H  H18  1  0.05508600  0.32208100  0.10060400  1
  H  H19  1  0.55508600  0.67791900  0.39939600  1
  H  H20  1  0.86525200  0.68817100  0.02751000  1
  H  H21  1  0.36525200  0.31182900  0.47249000  1
  H  H22  1  0.13474800  0.31182900  0.97249000  1
  H  H23  1  0.63474800  0.68817100  0.52751000  1
  Se  Se0  1  0.14063400  0.26776200  0.40085400  1
  Se  Se1  1  0.64063400  0.73223800  0.09914600  1
  Se  Se2  1  0.85936600  0.73223800  0.59914600  1
  Se  Se3  1  0.35936600  0.26776200  0.90085400  1
  O  O0  1  0.24665900  0.41677800  0.41295500  1
  O  O1  1  0.74665900  0.58322200  0.08704500  1
  O  O2  1  0.75334100  0.58322200  0.58704500  1
  O  O3  1  0.25334100  0.41677800  0.91295500  1
  O  O4  1  0.06942600  0.23003000  0.55476300  1
  O  O5  1  0.56942600  0.76997000  0.94523700  1
  O  O6  1  0.93057400  0.76997000  0.44523700  1
  O  O7  1  0.43057400  0.23003000  0.05476300  1
  O  O8  1  0.06617200  0.40387100  0.26013400  1
  O  O9  1  0.56617200  0.59612900  0.23986600  1
  O  O10  1  0.93382800  0.59612900  0.73986600  1
  O  O11  1  0.43382800  0.40387100  0.76013400  1
  O  O12  1  0.17903200  0.03236200  0.37040800  1
  O  O13  1  0.67903200  0.96763800  0.12959200  1
  O  O14  1  0.82096800  0.96763800  0.62959200  1
  O  O15  1  0.32096800  0.03236200  0.87040800  1
  O  O16  1  0.10882700  0.83987400  0.15474200  1
  O  O17  1  0.60882700  0.16012600  0.34525800  1
  O  O18  1  0.89117300  0.16012600  0.84525800  1
  O  O19  1  0.39117300  0.83987400  0.65474200  1
  O  O20  1  0.11021900  0.97201800  0.82631200  1
  O  O21  1  0.61021900  0.02798200  0.67368800  1
  O  O22  1  0.88978100  0.02798200  0.17368800  1
  O  O23  1  0.38978100  0.97201800  0.32631200  1
  O  O24  1  0.93979400  0.71738700  0.99552800  1
  O  O25  1  0.43979400  0.28261300  0.50447200  1
  O  O26  1  0.06020600  0.28261300  0.00447200  1
  O  O27  1  0.56020600  0.71738700  0.49552800  1
loop_
_geom_bond_atom_site_label_1
_geom_bond_atom_site_label_2
_geom_bond_distance
_geom_bond_site_symmetry_2
Co0 O26 1.989135 1_555
Co0 O24 1.989135 1_444
Co0 O16 2.085268 1_545
Co0 O18 2.085268 1_454
Co0 O22 2.190925 1_455
Co0 O20 2.190925 1_544
Co1 O27 1.989135 1_545
Co1 O25 1.989135 1_555
Co1 O19 2.085268 1_545
Co1 O17 2.085268 1_555
Co1 O21 2.190925 1_555
Co1 O23 2.190925 1_545
H0 O16 0.995432 1_555
H1 O17 0.995432 1_555
H2 O18 0.995432 1_555
H3 O19 0.995432 1_555
H4 O16 0.994671 1_555
H5 O17 0.994671 1_555
H6 O18 0.994671 1_555
H7 O19 0.994671 1_555
H8 O20 0.997450 1_545
H8 Rb3 3.134071 1_545
H9 O21 0.997450 1_565
H9 Rb2 3.134071 1_565
H10 O22 0.997450 1_565
H10 Rb1 3.134071 1_565
H11 O23 0.997450 1_545
H11 Rb0 3.134071 1_545
H12 O20 0.995728 1_555
H13 O21 0.995728 1_555
H14 O22 0.995728 1_555
H15 O23 0.995728 1_555
H16 O24 0.997868 1_555
H17 O25 0.997868 1_555
H18 O26 0.997868 1_555
H19 O27 0.997868 1_555
H20 O24 0.999050 1_554
H20 O1 1.691918 1_555
H21 O25 0.999050 1_555
H21 O0 1.691918 1_555
H22 O26 0.999050 1_556
H22 O3 1.691918 1_555
H23 O27 0.999050 1_555
H23 O2 1.691918 1_555
O0 Se0 1.677780 1_555
O0 Rb0 2.988904 1_555
O0 Rb3 3.091667 1_555
O1 Se1 1.677780 1_555
O1 Rb1 2.988904 1_555
O1 Rb2 3.091667 1_554
O2 Se2 1.677780 1_555
O2 Rb2 2.988904 1_555
O2 Rb1 3.091667 1_555
O3 Se3 1.677780 1_555
O3 Rb3 2.988904 1_555
O3 Rb0 3.091667 1_556
O4 Se0 1.670053 1_555
O4 Rb3 3.199523 1_555
O4 Rb1 3.322259 1_455
O5 Se1 1.670053 1_556
O5 Rb2 3.199523 1_555
O5 Rb0 3.322259 1_556
O6 Se2 1.670053 1_555
O6 Rb1 3.199523 1_555
O6 Rb3 3.322259 1_655
O7 Se3 1.670053 1_554
O7 Rb0 3.199523 1_555
O7 Rb2 3.322259 1_554
O8 Se0 1.683964 1_555
O8 Rb1 2.973684 1_455
O9 Se1 1.683964 1_555
O9 Rb0 2.973684 1_555
O10 Se2 1.683964 1_555
O10 Rb3 2.973684 1_655
O11 Se3 1.683964 1_555
O11 Rb2 2.973684 1_555
O12 Se0 1.686985 1_555
O12 Rb3 3.005191 1_545
O13 Se1 1.686985 1_555
O13 Rb2 3.005191 1_564
O14 Se2 1.686985 1_555
O14 Rb1 3.005191 1_565
O15 Se3 1.686985 1_555
O15 Rb0 3.005191 1_546
O16 Rb0 3.271288 1_555
O17 Rb1 3.271288 1_555
O18 Rb2 3.271288 1_555
O19 Rb3 3.271288 1_555
O20 Rb3 3.106505 1_555
O21 Rb2 3.106505 1_555
O22 Rb1 3.106505 1_555
O23 Rb0 3.106505 1_555
