# generated using pymatgen
data_HoCo3B2
_symmetry_space_group_name_H-M   'P 1'
_cell_length_a   9.93331408
_cell_length_b   9.93333015
_cell_length_c   5.93771100
_cell_angle_alpha   90.00000000
_cell_angle_beta   90.00000000
_cell_angle_gamma   119.99949197
_symmetry_Int_Tables_number   1
_chemical_formula_structural   HoCo3B2
_chemical_formula_sum   'Ho8 Co24 B16'
_cell_volume   507.38888404
_cell_formula_units_Z   8
loop_
 _symmetry_equiv_pos_site_id
 _symmetry_equiv_pos_as_xyz
  1  'x, y, z'
loop_
 _atom_site_type_symbol
 _atom_site_label
 _atom_site_symmetry_multiplicity
 _atom_site_fract_x
 _atom_site_fract_y
 _atom_site_fract_z
 _atom_site_occupancy
  Ho  Ho0_0  1  0.00000000  0.00000000  0.00000000  1
  Ho  Ho0_1  1  0.00000000  0.00000000  0.50000000  1
  Ho  Ho0_2  1  0.00000000  0.50000000  0.00000000  1
  Ho  Ho0_3  1  0.00000000  0.50000000  0.50000000  1
  Ho  Ho0_4  1  0.50000000  0.00000000  0.00000000  1
  Ho  Ho0_5  1  0.50000000  0.00000000  0.50000000  1
  Ho  Ho0_6  1  0.50000000  0.50000000  0.00000000  1
  Ho  Ho0_7  1  0.50000000  0.50000000  0.50000000  1
  Co  Co0_0  1  0.25000000  0.00000000  0.25000000  1
  Co  Co0_1  1  0.25000000  0.00000000  0.75000000  1
  Co  Co0_2  1  0.25000000  0.50000000  0.25000000  1
  Co  Co0_3  1  0.25000000  0.50000000  0.75000000  1
  Co  Co0_4  1  0.75000000  0.00000000  0.25000000  1
  Co  Co0_5  1  0.75000000  0.00000000  0.75000000  1
  Co  Co0_6  1  0.75000000  0.50000000  0.25000000  1
  Co  Co0_7  1  0.75000000  0.50000000  0.75000000  1
  Co  Co1_0  1  0.00000000  0.25000000  0.25000000  1
  Co  Co1_1  1  0.00000000  0.25000000  0.75000000  1
  Co  Co1_2  1  0.00000000  0.75000000  0.25000000  1
  Co  Co1_3  1  0.00000000  0.75000000  0.75000000  1
  Co  Co1_4  1  0.50000000  0.25000000  0.25000000  1
  Co  Co1_5  1  0.50000000  0.25000000  0.75000000  1
  Co  Co1_6  1  0.50000000  0.75000000  0.25000000  1
  Co  Co1_7  1  0.50000000  0.75000000  0.75000000  1
  Co  Co2_0  1  0.25000000  0.25000000  0.25000000  1
  Co  Co2_1  1  0.25000000  0.25000000  0.75000000  1
  Co  Co2_2  1  0.25000000  0.75000000  0.25000000  1
  Co  Co2_3  1  0.25000000  0.75000000  0.75000000  1
  Co  Co2_4  1  0.75000000  0.25000000  0.25000000  1
  Co  Co2_5  1  0.75000000  0.25000000  0.75000000  1
  Co  Co2_6  1  0.75000000  0.75000000  0.25000000  1
  Co  Co2_7  1  0.75000000  0.75000000  0.75000000  1
  B  B0_0  1  0.33333213  0.16666937  0.00000000  1
  B  B0_1  1  0.33333213  0.16666937  0.50000000  1
  B  B0_2  1  0.33333213  0.66666937  0.00000000  1
  B  B0_3  1  0.33333213  0.66666937  0.50000000  1
  B  B0_4  1  0.83333213  0.16666937  0.00000000  1
  B  B0_5  1  0.83333213  0.16666937  0.50000000  1
  B  B0_6  1  0.83333214  0.66666937  0.00000000  1
  B  B0_7  1  0.83333214  0.66666937  0.50000000  1
  B  B1_0  1  0.16666786  0.33333063  0.00000000  1
  B  B1_1  1  0.16666786  0.33333063  0.50000000  1
  B  B1_2  1  0.16666786  0.83333064  0.00000000  1
  B  B1_3  1  0.16666786  0.83333064  0.50000000  1
  B  B1_4  1  0.66666786  0.33333064  0.00000000  1
  B  B1_5  1  0.66666786  0.33333064  0.50000000  1
  B  B1_6  1  0.66666786  0.83333064  0.00000000  1
  B  B1_7  1  0.66666786  0.83333064  0.50000000  1
loop_
_geom_bond_atom_site_label_1
_geom_bond_atom_site_label_2
_geom_bond_distance
_geom_bond_site_symmetry_2
Ho0_0 Ho0_1 2.968856 1_555
Ho0_0 Ho0_1 2.968856 1_554
Ho0_2 Ho0_3 2.968856 1_554
Ho0_2 Ho0_3 2.968856 1_555
Ho0_4 Ho0_5 2.968856 1_554
Ho0_4 Ho0_5 2.968856 1_555
Ho0_6 Ho0_7 2.968856 1_555
Ho0_6 Ho0_7 2.968856 1_554
Co0_0 Ho0_0 2.893172 1_555
Co0_0 Ho0_4 2.893172 1_555
Co0_0 Ho0_1 2.893172 1_555
Co0_0 Ho0_5 2.893172 1_555
Co0_1 Ho0_0 2.893172 1_556
Co0_1 Ho0_4 2.893172 1_556
Co0_1 Ho0_1 2.893172 1_555
Co0_1 Ho0_5 2.893172 1_555
Co0_2 Ho0_7 2.893172 1_555
Co0_2 Ho0_6 2.893172 1_555
Co0_2 Ho0_3 2.893172 1_555
Co0_2 Ho0_2 2.893172 1_555
Co0_3 Ho0_6 2.893172 1_556
Co0_3 Ho0_7 2.893172 1_555
Co0_3 Ho0_2 2.893172 1_556
Co0_3 Ho0_3 2.893172 1_555
Co0_4 Ho0_5 2.893172 1_555
Co0_4 Ho0_4 2.893172 1_555
Co0_4 Ho0_1 2.893172 1_655
Co0_4 Ho0_0 2.893172 1_655
Co0_5 Ho0_5 2.893172 1_555
Co0_5 Ho0_4 2.893172 1_556
Co0_5 Ho0_1 2.893172 1_655
Co0_5 Ho0_0 2.893172 1_656
Co0_6 Ho0_3 2.893172 1_655
Co0_6 Ho0_2 2.893172 1_655
Co0_6 Ho0_7 2.893172 1_555
Co0_6 Ho0_6 2.893172 1_555
Co0_7 Ho0_2 2.893172 1_656
Co0_7 Ho0_3 2.893172 1_655
Co0_7 Ho0_6 2.893172 1_556
Co0_7 Ho0_7 2.893172 1_555
Co1_0 Ho0_0 2.893176 1_555
Co1_0 Ho0_2 2.893176 1_555
Co1_0 Ho0_3 2.893176 1_555
Co1_0 Ho0_1 2.893176 1_555
Co1_1 Ho0_0 2.893176 1_556
Co1_1 Ho0_2 2.893176 1_556
Co1_1 Ho0_3 2.893176 1_555
Co1_1 Ho0_1 2.893176 1_555
Co1_2 Ho0_3 2.893176 1_555
Co1_2 Ho0_0 2.893176 1_565
Co1_2 Ho0_1 2.893176 1_565
Co1_2 Ho0_2 2.893176 1_555
Co1_3 Ho0_3 2.893176 1_555
Co1_3 Ho0_2 2.893176 1_556
Co1_3 Ho0_0 2.893176 1_566
Co1_3 Ho0_1 2.893176 1_565
Co1_4 Ho0_7 2.893176 1_555
Co1_4 Ho0_6 2.893176 1_555
Co1_4 Ho0_5 2.893176 1_555
Co1_4 Ho0_4 2.893176 1_555
Co1_5 Ho0_7 2.893176 1_555
Co1_5 Ho0_6 2.893176 1_556
Co1_5 Ho0_5 2.893176 1_555
Co1_5 Ho0_4 2.893176 1_556
Co1_6 Ho0_4 2.893176 1_565
Co1_6 Ho0_5 2.893176 1_565
Co1_6 Ho0_7 2.893176 1_555
Co1_6 Ho0_6 2.893176 1_555
Co1_7 Ho0_4 2.893176 1_566
Co1_7 Ho0_5 2.893176 1_565
Co1_7 Ho0_7 2.893176 1_555
Co1_7 Ho0_6 2.893176 1_556
Co2_0 Ho0_6 2.893190 1_555
Co2_0 Ho0_0 2.893190 1_555
Co2_0 Ho0_1 2.893190 1_555
Co2_0 Ho0_7 2.893190 1_555
Co2_1 Ho0_1 2.893190 1_555
Co2_1 Ho0_6 2.893190 1_556
Co2_1 Ho0_0 2.893190 1_556
Co2_1 Ho0_7 2.893190 1_555
Co2_2 Ho0_2 2.893190 1_555
Co2_2 Ho0_3 2.893190 1_555
Co2_2 Ho0_4 2.893190 1_565
Co2_2 Ho0_5 2.893190 1_565
Co2_3 Ho0_3 2.893190 1_555
Co2_3 Ho0_2 2.893190 1_556
Co2_3 Ho0_4 2.893190 1_566
Co2_3 Ho0_5 2.893190 1_565
Co2_4 Ho0_4 2.893190 1_555
Co2_4 Ho0_5 2.893190 1_555
Co2_4 Ho0_3 2.893190 1_655
Co2_4 Ho0_2 2.893190 1_655
Co2_5 Ho0_2 2.893190 1_656
Co2_5 Ho0_5 2.893190 1_555
Co2_5 Ho0_3 2.893190 1_655
Co2_5 Ho0_4 2.893190 1_556
Co2_6 Ho0_6 2.893190 1_555
Co2_6 Ho0_7 2.893190 1_555
Co2_6 Ho0_1 2.893190 1_665
Co2_6 Ho0_0 2.893190 1_665
Co2_7 Ho0_6 2.893190 1_556
Co2_7 Ho0_7 2.893190 1_555
Co2_7 Ho0_0 2.893190 1_666
Co2_7 Ho0_1 2.893190 1_665
B0_0 Co2_0 2.063750 1_555
B0_0 Co2_1 2.063750 1_554
B0_0 Co1_4 2.063787 1_555
B0_0 Co1_5 2.063787 1_554
B0_0 Co0_0 2.063798 1_555
B0_0 Co0_1 2.063798 1_554
B0_0 Ho0_6 2.867497 1_555
B0_0 Ho0_0 2.867505 1_555
B0_0 Ho0_4 2.867529 1_555
B0_1 Co2_0 2.063750 1_555
B0_1 Co2_1 2.063750 1_555
B0_1 Co1_4 2.063787 1_555
B0_1 Co1_5 2.063787 1_555
B0_1 Co0_1 2.063798 1_555
B0_1 Co0_0 2.063798 1_555
B0_1 Ho0_7 2.867497 1_555
B0_1 Ho0_1 2.867505 1_555
B0_1 Ho0_5 2.867529 1_555
B0_2 Co2_2 2.063750 1_555
B0_2 Co2_3 2.063750 1_554
B0_2 Co1_7 2.063787 1_554
B0_2 Co1_6 2.063787 1_555
B0_2 Co0_3 2.063798 1_554
B0_2 Co0_2 2.063798 1_555
B0_2 Ho0_4 2.867497 1_565
B0_2 Ho0_2 2.867505 1_555
B0_2 Ho0_6 2.867529 1_555
B0_3 Co2_2 2.063750 1_555
B0_3 Co2_3 2.063750 1_555
B0_3 Co1_7 2.063787 1_555
B0_3 Co1_6 2.063787 1_555
B0_3 Co0_3 2.063798 1_555
B0_3 Co0_2 2.063798 1_555
B0_3 Ho0_5 2.867497 1_565
B0_3 Ho0_3 2.867505 1_555
B0_3 Ho0_7 2.867529 1_555
B0_4 Co2_5 2.063750 1_554
B0_4 Co2_4 2.063750 1_555
B0_4 Co1_0 2.063787 1_655
B0_4 Co1_1 2.063787 1_654
B0_4 Co0_4 2.063798 1_555
B0_4 Co0_5 2.063798 1_554
B0_4 Ho0_2 2.867497 1_655
B0_4 Ho0_4 2.867505 1_555
B0_4 Ho0_0 2.867529 1_655
B0_5 Co2_4 2.063750 1_555
B0_5 Co2_5 2.063750 1_555
B0_5 Co1_0 2.063787 1_655
B0_5 Co1_1 2.063787 1_655
B0_5 Co0_4 2.063798 1_555
B0_5 Co0_5 2.063798 1_555
B0_5 Ho0_3 2.867497 1_655
B0_5 Ho0_5 2.867505 1_555
B0_5 Ho0_1 2.867529 1_655
B0_6 Co2_6 2.063750 1_555
B0_6 Co2_7 2.063750 1_554
B0_6 Co1_2 2.063787 1_655
B0_6 Co1_3 2.063787 1_654
B0_6 Co0_6 2.063798 1_555
B0_6 Co0_7 2.063798 1_554
B0_6 Ho0_0 2.867497 1_665
B0_6 Ho0_6 2.867505 1_555
B0_6 Ho0_2 2.867529 1_655
B0_7 Co2_6 2.063750 1_555
B0_7 Co2_7 2.063750 1_555
B0_7 Co1_2 2.063787 1_655
B0_7 Co1_3 2.063787 1_655
B0_7 Co0_6 2.063798 1_555
B0_7 Co0_7 2.063798 1_555
B0_7 Ho0_1 2.867497 1_665
B0_7 Ho0_7 2.867505 1_555
B0_7 Ho0_3 2.867529 1_655
B1_0 Co2_0 2.063750 1_555
B1_0 Co2_1 2.063750 1_554
B1_0 Co1_0 2.063787 1_555
B1_0 Co1_1 2.063787 1_554
B1_0 Co0_2 2.063798 1_555
B1_0 Co0_3 2.063798 1_554
B1_0 Ho0_0 2.867497 1_555
B1_0 Ho0_6 2.867505 1_555
B1_0 Ho0_2 2.867529 1_555
B1_1 Co2_0 2.063750 1_555
B1_1 Co2_1 2.063750 1_555
B1_1 Co1_1 2.063787 1_555
B1_1 Co1_0 2.063787 1_555
B1_1 Co0_2 2.063798 1_555
B1_1 Co0_3 2.063798 1_555
B1_1 Ho0_1 2.867497 1_555
B1_1 Ho0_7 2.867505 1_555
B1_1 Ho0_3 2.867529 1_555
B1_2 Co2_2 2.063750 1_555
B1_2 Co2_3 2.063750 1_554
B1_2 Co1_2 2.063787 1_555
B1_2 Co1_3 2.063787 1_554
B1_2 Co0_0 2.063798 1_565
B1_2 Co0_1 2.063798 1_564
B1_2 Ho0_2 2.867497 1_555
B1_2 Ho0_4 2.867505 1_565
B1_2 Ho0_0 2.867529 1_565
B1_3 Co2_2 2.063750 1_555
B1_3 Co2_3 2.063750 1_555
B1_3 Co1_3 2.063787 1_555
B1_3 Co1_2 2.063787 1_555
B1_3 Co0_0 2.063798 1_565
B1_3 Co0_1 2.063798 1_565
B1_3 Ho0_3 2.867497 1_555
B1_3 Ho0_5 2.867505 1_565
B1_3 Ho0_1 2.867529 1_565
B1_4 Co2_5 2.063750 1_554
B1_4 Co2_4 2.063750 1_555
B1_4 Co1_5 2.063787 1_554
B1_4 Co1_4 2.063787 1_555
B1_4 Co0_6 2.063798 1_555
B1_4 Co0_7 2.063798 1_554
B1_4 Ho0_4 2.867497 1_555
B1_4 Ho0_2 2.867505 1_655
B1_4 Ho0_6 2.867529 1_555
B1_5 Co2_4 2.063750 1_555
B1_5 Co2_5 2.063750 1_555
B1_5 Co1_5 2.063787 1_555
B1_5 Co1_4 2.063787 1_555
B1_5 Co0_7 2.063798 1_555
B1_5 Co0_6 2.063798 1_555
B1_5 Ho0_5 2.867497 1_555
B1_5 Ho0_3 2.867505 1_655
B1_5 Ho0_7 2.867529 1_555
B1_6 Co2_7 2.063750 1_554
B1_6 Co2_6 2.063750 1_555
B1_6 Co1_7 2.063787 1_554
B1_6 Co1_6 2.063787 1_555
B1_6 Co0_4 2.063798 1_565
B1_6 Co0_5 2.063798 1_564
B1_6 Ho0_6 2.867497 1_555
B1_6 Ho0_0 2.867505 1_665
B1_6 Ho0_4 2.867529 1_565
B1_7 Co2_7 2.063750 1_555
B1_7 Co2_6 2.063750 1_555
B1_7 Co1_6 2.063787 1_555
B1_7 Co1_7 2.063787 1_555
B1_7 Co0_4 2.063798 1_565
B1_7 Co0_5 2.063798 1_565
B1_7 Ho0_7 2.867497 1_555
B1_7 Ho0_1 2.867505 1_665
B1_7 Ho0_5 2.867529 1_565
