# generated using pymatgen
data_Cs2MnBi2S5
_symmetry_space_group_name_H-M   'P 1'
_cell_length_a   4.19042800
_cell_length_b   16.04103300
_cell_length_c   18.47209300
_cell_angle_alpha   90.00000000
_cell_angle_beta   90.00000000
_cell_angle_gamma   90.00000000
_symmetry_Int_Tables_number   1
_chemical_formula_structural   Cs2MnBi2S5
_chemical_formula_sum   'Cs8 Mn4 Bi8 S20'
_cell_volume   1241.67181101
_cell_formula_units_Z   4
loop_
 _symmetry_equiv_pos_site_id
 _symmetry_equiv_pos_as_xyz
  1  'x, y, z'
loop_
 _atom_site_type_symbol
 _atom_site_label
 _atom_site_symmetry_multiplicity
 _atom_site_fract_x
 _atom_site_fract_y
 _atom_site_fract_z
 _atom_site_occupancy
  Cs  Cs0  1  0.25000000  0.50734700  0.12358800  1
  Cs  Cs1  1  0.75000000  0.53719400  0.38319100  1
  Cs  Cs2  1  0.25000000  0.96280600  0.88319100  1
  Cs  Cs3  1  0.75000000  0.99265300  0.62358800  1
  Cs  Cs4  1  0.75000000  0.49265300  0.87641200  1
  Cs  Cs5  1  0.75000000  0.03719400  0.11680900  1
  Cs  Cs6  1  0.25000000  0.46280600  0.61680900  1
  Cs  Cs7  1  0.25000000  0.00734700  0.37641200  1
  Mn  Mn0  1  0.75000000  0.79169600  0.35444400  1
  Mn  Mn1  1  0.75000000  0.29169600  0.14555600  1
  Mn  Mn2  1  0.25000000  0.20830400  0.64555600  1
  Mn  Mn3  1  0.25000000  0.70830400  0.85444400  1
  Bi  Bi0  1  0.25000000  0.25193900  0.98355300  1
  Bi  Bi1  1  0.75000000  0.24806100  0.48355300  1
  Bi  Bi2  1  0.75000000  0.70854900  0.69784600  1
  Bi  Bi3  1  0.75000000  0.74806100  0.01644700  1
  Bi  Bi4  1  0.25000000  0.79145100  0.19784600  1
  Bi  Bi5  1  0.75000000  0.20854900  0.80215400  1
  Bi  Bi6  1  0.25000000  0.75193900  0.51644700  1
  Bi  Bi7  1  0.25000000  0.29145100  0.30215400  1
  S  S0  1  0.25000000  0.10858100  0.74361900  1
  S  S1  1  0.25000000  0.36401200  0.43881100  1
  S  S2  1  0.25000000  0.86401200  0.06118900  1
  S  S3  1  0.75000000  0.89141900  0.25638100  1
  S  S4  1  0.75000000  0.39141900  0.24361900  1
  S  S5  1  0.75000000  0.78760500  0.84379600  1
  S  S6  1  0.25000000  0.31718200  0.85141100  1
  S  S7  1  0.25000000  0.71239500  0.34379600  1
  S  S8  1  0.75000000  0.68281800  0.14858900  1
  S  S9  1  0.25000000  0.81718200  0.64858900  1
  S  S10  1  0.25000000  0.14135500  0.52928900  1
  S  S11  1  0.25000000  0.21239500  0.15620400  1
  S  S12  1  0.75000000  0.28760500  0.65620400  1
  S  S13  1  0.75000000  0.85864500  0.47071100  1
  S  S14  1  0.75000000  0.63598800  0.56118900  1
  S  S15  1  0.25000000  0.64135500  0.97071100  1
  S  S16  1  0.25000000  0.60858100  0.75638100  1
  S  S17  1  0.75000000  0.13598800  0.93881100  1
  S  S18  1  0.75000000  0.18281800  0.35141100  1
  S  S19  1  0.75000000  0.35864500  0.02928900  1
loop_
_geom_bond_atom_site_label_1
_geom_bond_atom_site_label_2
_geom_bond_distance
_geom_bond_site_symmetry_2
Cs0 S8 3.539200 1_455
Cs0 S8 3.539200 1_555
Cs0 S15 3.549033 1_554
Cs0 S4 3.572693 1_455
Cs0 S4 3.572693 1_555
Cs0 S19 3.621319 1_455
Cs0 S19 3.621319 1_555
Cs1 S4 3.480672 1_555
Cs1 S7 3.580204 1_555
Cs1 S7 3.580204 1_655
Cs1 S1 3.628070 1_555
Cs1 S1 3.628070 1_655
Cs1 S14 3.649983 1_555
Cs2 S0 3.480672 1_565
Cs2 S5 3.580204 1_555
Cs2 S5 3.580204 1_455
Cs2 S17 3.628070 1_465
Cs2 S17 3.628070 1_565
Cs2 S2 3.649983 1_556
Cs3 S9 3.539200 1_555
Cs3 S9 3.539200 1_655
Cs3 S13 3.549033 1_555
Cs3 S0 3.572693 1_565
Cs3 S0 3.572693 1_665
Cs3 S10 3.621319 1_665
Cs3 S10 3.621319 1_565
Cs4 S6 3.539200 1_655
Cs4 S6 3.539200 1_555
Cs4 S19 3.549033 1_556
Cs4 S16 3.572693 1_555
Cs4 S16 3.572693 1_655
Cs4 S15 3.621319 1_555
Cs4 S15 3.621319 1_655
Cs5 S3 3.480672 1_545
Cs5 S11 3.580204 1_555
Cs5 S11 3.580204 1_655
Cs5 S2 3.628070 1_545
Cs5 S2 3.628070 1_645
Cs5 S17 3.649983 1_554
Cs6 S16 3.480672 1_555
Cs6 S12 3.580204 1_455
Cs6 S12 3.580204 1_555
Cs6 S14 3.628070 1_455
Cs6 S14 3.628070 1_555
Cs6 S1 3.649983 1_555
Cs7 S18 3.539200 1_455
Cs7 S18 3.539200 1_555
Cs7 S10 3.549033 1_555
Cs7 S3 3.572693 1_545
Cs7 S3 3.572693 1_445
Cs7 S13 3.621319 1_445
Cs7 S13 3.621319 1_545
Mn0 S13 2.401233 1_555
Mn0 S3 2.416648 1_555
Mn0 S7 2.459018 1_555
Mn0 S7 2.459018 1_655
Mn1 S19 2.401233 1_555
Mn1 S4 2.416648 1_555
Mn1 S11 2.459018 1_655
Mn1 S11 2.459018 1_555
Mn2 S10 2.401233 1_555
Mn2 S0 2.416648 1_555
Mn2 S12 2.459018 1_455
Mn2 S12 2.459018 1_555
Mn3 S15 2.401233 1_555
Mn3 S16 2.416648 1_555
Mn3 S5 2.459018 1_455
Mn3 S5 2.459018 1_555
Bi0 S6 2.655839 1_555
Bi0 S19 2.834344 1_456
Bi0 S19 2.834344 1_556
Bi0 S17 2.921043 1_455
Bi0 S17 2.921043 1_555
Bi1 S18 2.655839 1_555
Bi1 S10 2.834344 1_655
Bi1 S10 2.834344 1_555
Bi1 S1 2.921043 1_655
Bi1 S1 2.921043 1_555
Bi2 S14 2.779763 1_555
Bi2 S16 2.851413 1_555
Bi2 S16 2.851413 1_655
Bi2 S9 2.873048 1_555
Bi2 S9 2.873048 1_655
Bi2 S5 2.979363 1_555
Bi3 S8 2.655839 1_555
Bi3 S15 2.834344 1_554
Bi3 S15 2.834344 1_654
Bi3 S2 2.921043 1_555
Bi3 S2 2.921043 1_655
Bi4 S2 2.779763 1_555
Bi4 S3 2.851413 1_555
Bi4 S3 2.851413 1_455
Bi4 S8 2.873048 1_455
Bi4 S8 2.873048 1_555
Bi4 S7 2.979363 1_555
Bi5 S17 2.779763 1_555
Bi5 S0 2.851413 1_655
Bi5 S0 2.851413 1_555
Bi5 S6 2.873048 1_655
Bi5 S6 2.873048 1_555
Bi5 S12 2.979363 1_555
Bi6 S9 2.655839 1_555
Bi6 S13 2.834344 1_555
Bi6 S13 2.834344 1_455
Bi6 S14 2.921043 1_555
Bi6 S14 2.921043 1_455
Bi7 S1 2.779763 1_555
Bi7 S4 2.851413 1_455
Bi7 S4 2.851413 1_555
Bi7 S18 2.873048 1_455
Bi7 S18 2.873048 1_555
Bi7 S11 2.979363 1_555
