# generated using pymatgen
data_Na6Mo11O36
_symmetry_space_group_name_H-M   'P 1'
_cell_length_a   9.82751140
_cell_length_b   9.82751140
_cell_length_c   22.85616602
_cell_angle_alpha   89.91208759
_cell_angle_beta   89.91208759
_cell_angle_gamma   135.67002118
_symmetry_Int_Tables_number   1
_chemical_formula_structural   Na6Mo11O36
_chemical_formula_sum   'Na12 Mo22 O72'
_cell_volume   1542.52912781
_cell_formula_units_Z   2
loop_
 _symmetry_equiv_pos_site_id
 _symmetry_equiv_pos_as_xyz
  1  'x, y, z'
loop_
 _atom_site_type_symbol
 _atom_site_label
 _atom_site_symmetry_multiplicity
 _atom_site_fract_x
 _atom_site_fract_y
 _atom_site_fract_z
 _atom_site_occupancy
  Na  Na0  1  0.01921100  0.51413100  0.17037600  1
  Na  Na1  1  0.48646200  0.48396200  0.58850700  1
  Na  Na2  1  0.50000000  0.00000000  0.50000000  1
  Na  Na3  1  0.50302200  0.49697800  0.75000000  1
  Na  Na4  1  0.48586900  0.98078900  0.32962400  1
  Na  Na5  1  0.51353800  0.51603800  0.41149300  1
  Na  Na6  1  0.51413100  0.01921100  0.67037600  1
  Na  Na7  1  0.98078900  0.48586900  0.82962400  1
  Na  Na8  1  0.51603800  0.51353800  0.91149300  1
  Na  Na9  1  0.00000000  0.50000000  0.00000000  1
  Na  Na10  1  0.48396200  0.48646200  0.08850700  1
  Na  Na11  1  0.49697800  0.50302200  0.25000000  1
  Mo  Mo0  1  0.87305200  0.56091200  0.67662900  1
  Mo  Mo1  1  0.94260000  0.13374000  0.08511900  1
  Mo  Mo2  1  0.45200200  0.11602600  0.17071600  1
  Mo  Mo3  1  0.45082500  0.13956300  0.00178700  1
  Mo  Mo4  1  0.86626000  0.05740000  0.41488100  1
  Mo  Mo5  1  0.86043700  0.54917500  0.49821300  1
  Mo  Mo6  1  0.13956300  0.45082500  0.50178700  1
  Mo  Mo7  1  0.13374000  0.94260000  0.58511900  1
  Mo  Mo8  1  0.04172300  0.85999500  0.08354800  1
  Mo  Mo9  1  0.93049300  0.06950700  0.75000000  1
  Mo  Mo10  1  0.11602600  0.45200200  0.67071600  1
  Mo  Mo11  1  0.06950700  0.93049300  0.25000000  1
  Mo  Mo12  1  0.88397400  0.54799800  0.32928400  1
  Mo  Mo13  1  0.54799800  0.88397400  0.82928400  1
  Mo  Mo14  1  0.95827700  0.14000500  0.91645200  1
  Mo  Mo15  1  0.12694800  0.43908800  0.32337100  1
  Mo  Mo16  1  0.54917500  0.86043700  0.99821300  1
  Mo  Mo17  1  0.14000500  0.95827700  0.41645200  1
  Mo  Mo18  1  0.56091200  0.87305200  0.17662900  1
  Mo  Mo19  1  0.05740000  0.86626000  0.91488100  1
  Mo  Mo20  1  0.85999500  0.04172300  0.58354800  1
  Mo  Mo21  1  0.43908800  0.12694800  0.82337100  1
  O  O0  1  0.87088700  0.06219900  0.99832500  1
  O  O1  1  0.48425200  0.66579800  0.83448800  1
  O  O2  1  0.19357200  0.17228700  0.25674300  1
  O  O3  1  0.94060100  0.14645100  0.33887500  1
  O  O4  1  0.63256200  0.46357800  0.49721000  1
  O  O5  1  0.10256500  0.42817200  0.24773600  1
  O  O6  1  0.36523500  0.03775700  0.41804400  1
  O  O7  1  0.80790500  0.33510700  0.49890200  1
  O  O8  1  0.15015300  0.17051400  0.08397500  1
  O  O9  1  0.05951500  0.36249300  0.42327800  1
  O  O10  1  0.03775700  0.36523500  0.91804400  1
  O  O11  1  0.83118900  0.35053100  0.65733300  1
  O  O12  1  0.63652400  0.96159600  0.75409000  1
  O  O13  1  0.35775200  0.05380500  0.08240700  1
  O  O14  1  0.36249300  0.05951500  0.92327800  1
  O  O15  1  0.92686800  0.12129500  0.66505000  1
  O  O16  1  0.82948600  0.84984700  0.41602500  1
  O  O17  1  0.42817200  0.10256500  0.74773600  1
  O  O18  1  0.82771300  0.80642800  0.24325700  1
  O  O19  1  0.68182400  0.19559000  0.16969200  1
  O  O20  1  0.36694000  0.04099500  0.58096200  1
  O  O21  1  0.64946900  0.16881100  0.84266700  1
  O  O22  1  0.12129500  0.92686800  0.16505000  1
  O  O23  1  0.82221900  0.79636600  0.08218800  1
  O  O24  1  0.53642200  0.36743800  0.00279000  1
  O  O25  1  0.95900500  0.63306000  0.91903800  1
  O  O26  1  0.51574800  0.33420200  0.16551200  1
  O  O27  1  0.96159600  0.63652400  0.25409000  1
  O  O28  1  0.64224800  0.94619500  0.91759300  1
  O  O29  1  0.47514300  0.64542400  0.16569400  1
  O  O30  1  0.05939900  0.85354900  0.66112500  1
  O  O31  1  0.63476500  0.96224300  0.58195600  1
  O  O32  1  0.89743500  0.57182800  0.75226400  1
  O  O33  1  0.96224300  0.63476500  0.08195600  1
  O  O34  1  0.04099500  0.36694000  0.08096200  1
  O  O35  1  0.46357800  0.63256200  0.99721000  1
  O  O36  1  0.17051400  0.15015300  0.58397500  1
  O  O37  1  0.80642800  0.82771300  0.74325700  1
  O  O38  1  0.35053100  0.83118900  0.15733300  1
  O  O39  1  0.93780100  0.12911300  0.50167500  1
  O  O40  1  0.87870500  0.07313200  0.83495000  1
  O  O41  1  0.33420200  0.51574800  0.66551200  1
  O  O42  1  0.17228700  0.19357200  0.75674300  1
  O  O43  1  0.33510700  0.80790500  0.99890200  1
  O  O44  1  0.19559000  0.68182400  0.66969200  1
  O  O45  1  0.57182800  0.89743500  0.25226400  1
  O  O46  1  0.36347600  0.03840400  0.24591000  1
  O  O47  1  0.35457600  0.52485700  0.33430600  1
  O  O48  1  0.94619500  0.64224800  0.41759300  1
  O  O49  1  0.16881100  0.64946900  0.34266700  1
  O  O50  1  0.66579800  0.48425200  0.33448800  1
  O  O51  1  0.84984700  0.82948600  0.91602500  1
  O  O52  1  0.79636600  0.82221900  0.58218800  1
  O  O53  1  0.05380500  0.35775200  0.58240700  1
  O  O54  1  0.85354900  0.05939900  0.16112500  1
  O  O55  1  0.06219900  0.87088700  0.49832500  1
  O  O56  1  0.20363400  0.17778100  0.41781200  1
  O  O57  1  0.80441000  0.31817600  0.33030800  1
  O  O58  1  0.07313200  0.87870500  0.33495000  1
  O  O59  1  0.14645100  0.94060100  0.83887500  1
  O  O60  1  0.19209500  0.66489300  0.50109800  1
  O  O61  1  0.64542400  0.47514300  0.66569400  1
  O  O62  1  0.36743800  0.53642200  0.50279000  1
  O  O63  1  0.94048500  0.63750700  0.57672200  1
  O  O64  1  0.63306000  0.95900500  0.41903800  1
  O  O65  1  0.12911300  0.93780100  0.00167500  1
  O  O66  1  0.66489300  0.19209500  0.00109800  1
  O  O67  1  0.03840400  0.36347600  0.74591000  1
  O  O68  1  0.52485700  0.35457600  0.83430600  1
  O  O69  1  0.63750700  0.94048500  0.07672200  1
  O  O70  1  0.17778100  0.20363400  0.91781200  1
  O  O71  1  0.31817600  0.80441000  0.83030800  1
loop_
_geom_bond_atom_site_label_1
_geom_bond_atom_site_label_2
_geom_bond_distance
_geom_bond_site_symmetry_2
Na0 O5 2.345397 1_555
Na0 O38 2.424661 1_555
Na0 O19 2.438122 1_455
Na0 O27 2.531103 1_455
Na0 O33 2.597847 1_455
Na0 O34 2.601072 1_555
Na1 O61 2.400431 1_555
Na1 O36 2.417206 1_555
Na1 O52 2.420713 1_555
Na1 O41 2.469143 1_555
Na1 O62 2.517739 1_555
Na1 O4 2.619073 1_555
Na2 O60 2.396929 1_545
Na2 O7 2.396929 1_555
Na2 O20 2.458679 1_555
Na2 O64 2.458679 1_545
Na2 O31 2.471671 1_545
Na2 O6 2.471671 1_555
Na3 O37 2.368704 1_555
Na3 O42 2.368704 1_555
Na3 O61 2.477930 1_555
Na3 O68 2.477930 1_555
Na3 O41 2.638595 1_555
Na3 O1 2.638595 1_555
Na4 O45 2.345397 1_555
Na4 O49 2.424661 1_555
Na4 O57 2.438122 1_565
Na4 O46 2.531103 1_565
Na4 O6 2.597847 1_565
Na4 O64 2.601072 1_555
Na5 O47 2.400431 1_555
Na5 O16 2.417206 1_555
Na5 O56 2.420713 1_555
Na5 O50 2.469143 1_555
Na5 O4 2.517739 1_555
Na5 O62 2.619073 1_555
Na6 O17 2.345397 1_555
Na6 O11 2.424661 1_555
Na6 O44 2.438122 1_545
Na6 O12 2.531103 1_545
Na6 O31 2.597847 1_545
Na6 O20 2.601072 1_555
Na7 O32 2.345397 1_555
Na7 O21 2.424661 1_555
Na7 O71 2.438122 1_655
Na7 O67 2.531103 1_655
Na7 O10 2.597847 1_655
Na7 O25 2.601072 1_555
Na8 O68 2.400431 1_555
Na8 O51 2.417206 1_555
Na8 O70 2.420713 1_555
Na8 O1 2.469143 1_555
Na8 O35 2.517739 1_555
Na8 O24 2.619073 1_556
Na9 O43 2.396929 1_554
Na9 O66 2.396929 1_455
Na9 O34 2.458679 1_555
Na9 O25 2.458679 1_454
Na9 O10 2.471671 1_554
Na9 O33 2.471671 1_455
Na10 O29 2.400431 1_555
Na10 O8 2.417206 1_555
Na10 O23 2.420713 1_555
Na10 O26 2.469143 1_555
Na10 O24 2.517739 1_555
Na10 O35 2.619073 1_554
Na11 O18 2.368704 1_555
Na11 O2 2.368704 1_555
Na11 O47 2.477930 1_555
Na11 O29 2.477930 1_555
Na11 O26 2.638595 1_555
Na11 O50 2.638595 1_555
Mo0 O32 1.738530 1_555
Mo0 O61 1.755547 1_555
Mo0 O11 1.850637 1_555
Mo0 O30 2.051864 1_655
Mo0 O63 2.344468 1_555
Mo0 O44 2.468547 1_655
Mo1 O34 1.739221 1_655
Mo1 O8 1.799162 1_655
Mo1 O54 1.842348 1_555
Mo1 O0 2.055738 1_554
Mo1 O69 2.118918 1_545
Mo2 O26 1.755332 1_555
Mo2 O19 1.785031 1_555
Mo2 O46 1.826052 1_555
Mo2 O13 2.122504 1_555
Mo2 O38 2.221200 1_545
Mo2 O22 2.322428 1_545
Mo3 O24 1.740220 1_555
Mo3 O66 1.771616 1_555
Mo3 O14 1.903804 1_554
Mo3 O13 1.956920 1_555
Mo3 O65 2.226843 1_545
Mo3 O43 2.572765 1_544
Mo4 O64 1.739221 1_545
Mo4 O16 1.799162 1_545
Mo4 O3 1.842348 1_555
Mo4 O39 2.055738 1_555
Mo4 O9 2.118918 1_655
Mo5 O4 1.740220 1_555
Mo5 O7 1.771616 1_555
Mo5 O63 1.903804 1_555
Mo5 O48 1.956920 1_555
Mo5 O55 2.226843 1_655
Mo5 O60 2.572765 1_655
Mo6 O62 1.740220 1_555
Mo6 O60 1.771616 1_555
Mo6 O9 1.903804 1_555
Mo6 O53 1.956920 1_555
Mo6 O39 2.226843 1_455
Mo6 O7 2.572765 1_455
Mo7 O20 1.739221 1_565
Mo7 O36 1.799162 1_565
Mo7 O30 1.842348 1_555
Mo7 O55 2.055738 1_555
Mo7 O63 2.118918 1_455
Mo8 O33 1.742888 1_455
Mo8 O23 1.765173 1_455
Mo8 O22 1.945896 1_555
Mo8 O65 1.968555 1_555
Mo8 O13 2.193375 1_565
Mo8 O8 2.407477 1_565
Mo9 O42 1.735968 1_655
Mo9 O37 1.735968 1_545
Mo9 O15 2.013293 1_555
Mo9 O40 2.013293 1_555
Mo9 O67 2.257279 1_655
Mo9 O12 2.257279 1_545
Mo10 O41 1.755332 1_555
Mo10 O44 1.785031 1_555
Mo10 O67 1.826052 1_555
Mo10 O53 2.122504 1_555
Mo10 O11 2.221200 1_455
Mo10 O15 2.322428 1_455
Mo11 O18 1.735968 1_455
Mo11 O2 1.735968 1_565
Mo11 O58 2.013293 1_555
Mo11 O22 2.013293 1_555
Mo11 O46 2.257279 1_565
Mo11 O27 2.257279 1_455
Mo12 O50 1.755332 1_555
Mo12 O57 1.785031 1_555
Mo12 O27 1.826052 1_555
Mo12 O48 2.122504 1_555
Mo12 O49 2.221200 1_655
Mo12 O58 2.322428 1_655
Mo13 O1 1.755332 1_555
Mo13 O71 1.785031 1_555
Mo13 O12 1.826052 1_555
Mo13 O28 2.122504 1_555
Mo13 O21 2.221200 1_565
Mo13 O40 2.322428 1_565
Mo14 O10 1.742888 1_655
Mo14 O70 1.765173 1_655
Mo14 O40 1.945896 1_555
Mo14 O0 1.968555 1_555
Mo14 O28 2.193375 1_545
Mo14 O51 2.407477 1_545
Mo15 O5 1.738530 1_555
Mo15 O47 1.755547 1_555
Mo15 O49 1.850637 1_555
Mo15 O3 2.051864 1_455
Mo15 O9 2.344468 1_555
Mo15 O57 2.468547 1_455
Mo16 O35 1.740220 1_555
Mo16 O43 1.771616 1_555
Mo16 O69 1.903804 1_556
Mo16 O28 1.956920 1_555
Mo16 O0 2.226843 1_565
Mo16 O66 2.572765 1_566
Mo17 O6 1.742888 1_565
Mo17 O56 1.765173 1_565
Mo17 O58 1.945896 1_555
Mo17 O55 1.968555 1_555
Mo17 O48 2.193375 1_455
Mo17 O16 2.407477 1_455
Mo18 O45 1.738530 1_555
Mo18 O29 1.755547 1_555
Mo18 O38 1.850637 1_555
Mo18 O54 2.051864 1_565
Mo18 O69 2.344468 1_555
Mo18 O19 2.468547 1_565
Mo19 O25 1.739221 1_455
Mo19 O51 1.799162 1_455
Mo19 O59 1.842348 1_555
Mo19 O65 2.055738 1_556
Mo19 O14 2.118918 1_565
Mo20 O31 1.742888 1_545
Mo20 O52 1.765173 1_545
Mo20 O15 1.945896 1_555
Mo20 O39 1.968555 1_555
Mo20 O53 2.193375 1_655
Mo20 O36 2.407477 1_655
Mo21 O17 1.738530 1_555
Mo21 O68 1.755547 1_555
Mo21 O21 1.850637 1_555
Mo21 O59 2.051864 1_545
Mo21 O14 2.344468 1_555
Mo21 O71 2.468547 1_545
