# generated using pymatgen
data_TiP2Cl8O3
_symmetry_space_group_name_H-M   'P 1'
_cell_length_a   15.46476630
_cell_length_b   8.72284705
_cell_length_c   12.43818340
_cell_angle_alpha   54.89957651
_cell_angle_beta   90.00000000
_cell_angle_gamma   90.00000000
_symmetry_Int_Tables_number   1
_chemical_formula_structural   TiP2Cl8O3
_chemical_formula_sum   'Ti4 P8 Cl32 O12'
_cell_volume   1372.74257660
_cell_formula_units_Z   4
loop_
 _symmetry_equiv_pos_site_id
 _symmetry_equiv_pos_as_xyz
  1  'x, y, z'
loop_
 _atom_site_type_symbol
 _atom_site_label
 _atom_site_symmetry_multiplicity
 _atom_site_fract_x
 _atom_site_fract_y
 _atom_site_fract_z
 _atom_site_occupancy
  Ti  Ti0  1  0.63446757  0.21382006  0.36396676  1
  Ti  Ti1  1  0.86553243  0.21382006  0.86396676  1
  Ti  Ti2  1  0.36553243  0.78617994  0.63603324  1
  Ti  Ti3  1  0.13446757  0.78617994  0.13603324  1
  P  P0  1  0.42983501  0.01530073  0.78300304  1
  P  P1  1  0.41483803  0.22462833  0.37808909  1
  P  P2  1  0.57016499  0.98469927  0.21699696  1
  P  P3  1  0.08516197  0.22462833  0.87808909  1
  P  P4  1  0.91483803  0.77537167  0.12191091  1
  P  P5  1  0.07016499  0.01530073  0.28300304  1
  P  P6  1  0.92983501  0.98469927  0.71699696  1
  P  P7  1  0.58516197  0.77537167  0.62191091  1
  Cl  Cl0  1  0.88612941  0.66336544  0.30920710  1
  Cl  Cl1  1  0.15107455  0.37864373  0.92109845  1
  Cl  Cl2  1  0.26382270  0.88227738  0.15878602  1
  Cl  Cl3  1  0.82103714  0.88672008  0.69834219  1
  Cl  Cl4  1  0.87565387  0.46665565  0.65310805  1
  Cl  Cl5  1  0.37565387  0.53334435  0.84689195  1
  Cl  Cl6  1  0.03271822  0.81672629  0.46280576  1
  Cl  Cl7  1  0.38612941  0.33663456  0.19079290  1
  Cl  Cl8  1  0.61387059  0.66336544  0.80920710  1
  Cl  Cl9  1  0.46728178  0.81672629  0.96280576  1
  Cl  Cl10  1  0.81740463  0.36125333  0.95015131  1
  Cl  Cl11  1  0.32103714  0.11327992  0.80165781  1
  Cl  Cl12  1  0.12434613  0.53334435  0.34689195  1
  Cl  Cl13  1  0.48454951  0.78195276  0.28623199  1
  Cl  Cl14  1  0.01545049  0.78195276  0.78623199  1
  Cl  Cl15  1  0.11387059  0.33663456  0.69079290  1
  Cl  Cl16  1  0.18259537  0.63874667  0.04984869  1
  Cl  Cl17  1  0.67896286  0.88672008  0.19834219  1
  Cl  Cl18  1  0.98454951  0.21804724  0.21376801  1
  Cl  Cl19  1  0.73617730  0.11772262  0.84121398  1
  Cl  Cl20  1  0.65107455  0.62135627  0.57890155  1
  Cl  Cl21  1  0.76382270  0.11772262  0.34121398  1
  Cl  Cl22  1  0.51545049  0.21804724  0.71376801  1
  Cl  Cl23  1  0.23617730  0.88227738  0.65878602  1
  Cl  Cl24  1  0.68259537  0.36125333  0.45015131  1
  Cl  Cl25  1  0.17896286  0.11327992  0.30165781  1
  Cl  Cl26  1  0.53271822  0.18327371  0.03719424  1
  Cl  Cl27  1  0.96728178  0.18327371  0.53719424  1
  Cl  Cl28  1  0.31740463  0.63874667  0.54984869  1
  Cl  Cl29  1  0.84892545  0.62135627  0.07890155  1
  Cl  Cl30  1  0.62434613  0.46665565  0.15310805  1
  Cl  Cl31  1  0.34892545  0.37864373  0.42109845  1
  O  O0  1  0.07624419  0.94959990  0.19745762  1
  O  O1  1  0.37970032  0.02973606  0.45671679  1
  O  O2  1  0.00869608  0.74943415  0.10930352  1
  O  O3  1  0.12029968  0.02973606  0.95671679  1
  O  O4  1  0.62029968  0.97026394  0.54328321  1
  O  O5  1  0.57624419  0.05040010  0.30254238  1
  O  O6  1  0.87970032  0.97026394  0.04328321  1
  O  O7  1  0.92375581  0.05040010  0.80254238  1
  O  O8  1  0.42375581  0.94959990  0.69745762  1
  O  O9  1  0.49130392  0.74943415  0.60930352  1
  O  O10  1  0.99130392  0.25056585  0.89069648  1
  O  O11  1  0.50869608  0.25056585  0.39069648  1
loop_
_geom_bond_atom_site_label_1
_geom_bond_atom_site_label_2
_geom_bond_distance
_geom_bond_site_symmetry_2
Cl0 P4 1.990296 1_555
Cl1 P3 1.989114 1_555
Cl2 Ti3 2.248854 1_555
Cl3 P6 1.960422 1_555
Cl4 Ti1 2.261650 1_555
Cl5 Ti2 2.261650 1_555
Cl6 P5 1.970353 1_565
Cl7 P1 1.990296 1_555
Cl8 P7 1.990296 1_555
Cl9 P0 1.970353 1_565
Cl10 Ti1 2.223156 1_555
Cl11 P0 1.960422 1_555
Cl12 Ti3 2.261650 1_555
Cl13 P2 1.967449 1_555
Cl14 P6 1.967449 1_455
Cl15 P3 1.990296 1_555
Cl16 Ti3 2.223156 1_555
Cl17 P2 1.960422 1_555
Cl18 P5 1.967449 1_655
Cl19 Ti1 2.248854 1_555
Cl20 P7 1.989114 1_555
Cl21 Ti0 2.248854 1_555
Cl22 P0 1.967449 1_555
Cl23 Ti2 2.248854 1_555
Cl24 Ti0 2.223156 1_555
Cl25 P5 1.960422 1_555
Cl26 P2 1.970353 1_545
Cl27 P6 1.970353 1_545
Cl28 Ti2 2.223156 1_555
Cl29 P4 1.989114 1_555
Cl30 Ti0 2.261650 1_555
Cl31 P1 1.989114 1_555
O0 P5 1.473335 1_565
O0 Ti3 2.163084 1_555
O1 P1 1.493242 1_555
O1 Ti2 2.021577 1_545
O2 P4 1.491111 1_455
O2 Ti3 2.029521 1_555
O3 P3 1.493242 1_555
O3 Ti3 2.021577 1_546
O4 P7 1.493242 1_555
O4 Ti0 2.021577 1_565
O5 P2 1.473335 1_545
O5 Ti0 2.163084 1_555
O6 P4 1.493242 1_555
O6 Ti1 2.021577 1_564
O7 P6 1.473335 1_545
O7 Ti1 2.163084 1_555
O8 P0 1.473335 1_565
O8 Ti2 2.163084 1_555
O9 P7 1.491111 1_555
O9 Ti2 2.029521 1_555
O10 P3 1.491111 1_655
O10 Ti1 2.029521 1_555
O11 P1 1.491111 1_555
O11 Ti0 2.029521 1_555
