# generated using pymatgen
data_Hf5Sn4
_symmetry_space_group_name_H-M   'P 1'
_cell_length_a   8.72536216
_cell_length_b   8.72536288
_cell_length_c   5.86916984
_cell_angle_alpha   90.00000000
_cell_angle_beta   90.00000000
_cell_angle_gamma   120.00000115
_symmetry_Int_Tables_number   1
_chemical_formula_structural   Hf5Sn4
_chemical_formula_sum   'Hf10 Sn8'
_cell_volume   386.96729675
_cell_formula_units_Z   2
loop_
 _symmetry_equiv_pos_site_id
 _symmetry_equiv_pos_as_xyz
  1  'x, y, z'
loop_
 _atom_site_type_symbol
 _atom_site_label
 _atom_site_symmetry_multiplicity
 _atom_site_fract_x
 _atom_site_fract_y
 _atom_site_fract_z
 _atom_site_occupancy
  Hf  Hf0  1  0.33333300  0.66666700  0.00000000  1
  Hf  Hf1  1  0.66666700  0.33333300  0.50000000  1
  Hf  Hf2  1  0.66666700  0.33333300  0.00000000  1
  Hf  Hf3  1  0.33333300  0.66666700  0.50000000  1
  Hf  Hf4  1  0.28160531  0.00000000  0.25000000  1
  Hf  Hf5  1  0.28160531  0.28160531  0.75000000  1
  Hf  Hf6  1  0.00000000  0.71839469  0.75000000  1
  Hf  Hf7  1  -0.00000000  0.28160531  0.25000000  1
  Hf  Hf8  1  0.71839469  0.71839469  0.25000000  1
  Hf  Hf9  1  0.71839469  -0.00000000  0.75000000  1
  Sn  Sn0  1  -0.00000000  0.00000000  0.00000000  1
  Sn  Sn1  1  -0.00000000  0.00000000  0.50000000  1
  Sn  Sn2  1  0.61263654  0.00000000  0.25000000  1
  Sn  Sn3  1  0.61263654  0.61263654  0.75000000  1
  Sn  Sn4  1  0.00000000  0.38736346  0.75000000  1
  Sn  Sn5  1  -0.00000000  0.61263654  0.25000000  1
  Sn  Sn6  1  0.38736346  0.38736346  0.25000000  1
  Sn  Sn7  1  0.38736346  -0.00000000  0.75000000  1
loop_
_geom_bond_atom_site_label_1
_geom_bond_atom_site_label_2
_geom_bond_distance
_geom_bond_site_symmetry_2
Hf0 Hf3 2.934585 1_554
Hf0 Hf3 2.934585 1_555
Hf0 Sn5 3.076222 1_555
Hf0 Sn7 3.076222 1_564
Hf0 Sn4 3.076224 1_554
Hf0 Sn2 3.076225 1_565
Hf0 Sn3 3.076229 1_554
Hf0 Sn6 3.076229 1_555
Hf1 Hf2 2.934585 1_556
Hf1 Hf2 2.934585 1_555
Hf1 Sn4 3.076222 1_655
Hf1 Sn2 3.076222 1_555
Hf1 Sn5 3.076224 1_655
Hf1 Sn7 3.076225 1_555
Hf1 Sn6 3.076229 1_555
Hf1 Sn3 3.076229 1_555
Hf2 Sn4 3.076222 1_654
Hf2 Sn2 3.076222 1_555
Hf2 Sn5 3.076224 1_655
Hf2 Sn7 3.076225 1_554
Hf2 Sn6 3.076229 1_555
Hf2 Sn3 3.076229 1_554
Hf3 Sn5 3.076222 1_555
Hf3 Sn7 3.076222 1_565
Hf3 Sn4 3.076224 1_555
Hf3 Sn2 3.076225 1_565
Hf3 Sn3 3.076229 1_555
Hf3 Sn6 3.076229 1_555
Hf4 Sn0 2.861875 1_555
Hf4 Sn1 2.861875 1_555
Hf4 Sn2 2.888367 1_555
Hf4 Sn5 3.025933 1_545
Hf4 Sn6 3.025933 1_555
Hf4 Sn7 3.076249 1_554
Hf4 Sn7 3.076249 1_555
Hf5 Sn0 2.861875 1_556
Hf5 Sn1 2.861875 1_555
Hf5 Sn3 2.888367 1_555
Hf5 Sn4 3.025932 1_555
Hf5 Sn7 3.025933 1_555
Hf5 Sn6 3.076249 1_555
Hf5 Sn6 3.076249 1_556
Hf6 Sn1 2.861875 1_565
Hf6 Sn0 2.861875 1_566
Hf6 Sn4 2.888368 1_555
Hf6 Sn3 3.025932 1_455
Hf6 Sn7 3.025932 1_565
Hf6 Sn5 3.076249 1_555
Hf6 Sn5 3.076249 1_556
Hf7 Sn0 2.861875 1_555
Hf7 Sn1 2.861875 1_555
Hf7 Sn5 2.888368 1_555
Hf7 Sn6 3.025932 1_555
Hf7 Sn2 3.025932 1_455
Hf7 Sn4 3.076249 1_554
Hf7 Sn4 3.076249 1_555
Hf8 Sn0 2.861875 1_665
Hf8 Sn1 2.861875 1_665
Hf8 Sn6 2.888367 1_555
Hf8 Sn5 3.025932 1_655
Hf8 Sn2 3.025933 1_565
Hf8 Sn3 3.076249 1_555
Hf8 Sn3 3.076249 1_554
Hf9 Sn1 2.861875 1_655
Hf9 Sn0 2.861875 1_656
Hf9 Sn7 2.888367 1_555
Hf9 Sn4 3.025933 1_655
Hf9 Sn3 3.025933 1_545
Hf9 Sn2 3.076249 1_556
Hf9 Sn2 3.076249 1_555
Sn0 Sn1 2.934585 1_555
Sn0 Sn1 2.934585 1_554
