# generated using pymatgen
data_Co2P3O10
_symmetry_space_group_name_H-M   'P 1'
_cell_length_a   7.85606400
_cell_length_b   8.07739412
_cell_length_c   9.51111883
_cell_angle_alpha   97.69099810
_cell_angle_beta   111.20391397
_cell_angle_gamma   113.16003697
_symmetry_Int_Tables_number   1
_chemical_formula_structural   Co2P3O10
_chemical_formula_sum   'Co4 P6 O20'
_cell_volume   489.76656718
_cell_formula_units_Z   2
loop_
 _symmetry_equiv_pos_site_id
 _symmetry_equiv_pos_as_xyz
  1  'x, y, z'
loop_
 _atom_site_type_symbol
 _atom_site_label
 _atom_site_symmetry_multiplicity
 _atom_site_fract_x
 _atom_site_fract_y
 _atom_site_fract_z
 _atom_site_occupancy
  Co  Co0  1  0.17276000  0.25628100  0.45727300  1
  Co  Co1  1  0.29828500  0.70737100  0.03248200  1
  Co  Co2  1  0.70171500  0.29262900  0.96751800  1
  Co  Co3  1  0.82724000  0.74371900  0.54272700  1
  P  P0  1  0.86113700  0.44967200  0.73123500  1
  P  P1  1  0.83038100  0.08261100  0.75522800  1
  P  P2  1  0.22377400  0.13648100  0.76725600  1
  P  P3  1  0.77622600  0.86351900  0.23274400  1
  P  P4  1  0.16961900  0.91738900  0.24477200  1
  P  P5  1  0.13886300  0.55032800  0.26876500  1
  O  O0  1  0.77308400  0.50400200  0.58748100  1
  O  O1  1  0.10175300  0.56991200  0.82586000  1
  O  O2  1  0.81192700  0.23239100  0.66197500  1
  O  O3  1  0.23938400  0.89656300  0.11630600  1
  O  O4  1  0.25592500  0.28307500  0.68192900  1
  O  O5  1  0.87417900  0.06906600  0.33264700  1
  O  O6  1  0.76187300  0.45286800  0.84413500  1
  O  O7  1  0.07503400  0.15360500  0.84761800  1
  O  O8  1  0.57221900  0.80589900  0.08108500  1
  O  O9  1  0.28419700  0.11044400  0.36675500  1
  O  O10  1  0.71580300  0.88955600  0.63324500  1
  O  O11  1  0.42778100  0.19410100  0.91891500  1
  O  O12  1  0.92496600  0.84639500  0.15238200  1
  O  O13  1  0.23812700  0.54713200  0.15586500  1
  O  O14  1  0.12582100  0.93093400  0.66735300  1
  O  O15  1  0.74407500  0.71692500  0.31807100  1
  O  O16  1  0.76061600  0.10343700  0.88369400  1
  O  O17  1  0.18807300  0.76760900  0.33802500  1
  O  O18  1  0.89824700  0.43008800  0.17414000  1
  O  O19  1  0.22691600  0.49599800  0.41251900  1
loop_
_geom_bond_atom_site_label_1
_geom_bond_atom_site_label_2
_geom_bond_distance
_geom_bond_site_symmetry_2
Co0 O4 1.947937 1_555
Co0 O19 1.953207 1_555
Co0 O5 1.978061 1_455
Co0 O9 1.995050 1_555
Co1 O8 1.820176 1_555
Co1 O1 1.830653 1_554
Co1 O13 1.897974 1_555
Co1 O3 1.918870 1_555
Co2 O11 1.820176 1_555
Co2 O18 1.830653 1_556
Co2 O6 1.897974 1_555
Co2 O16 1.918870 1_555
Co3 O15 1.947937 1_555
Co3 O0 1.953207 1_555
Co3 O14 1.978061 1_655
Co3 O10 1.995050 1_555
O0 P0 1.501907 1_555
O1 P0 1.554911 1_455
O2 P1 1.613549 1_555
O2 P0 1.623658 1_555
O3 P4 1.524320 1_555
O4 P2 1.514840 1_555
O5 P3 1.515058 1_545
O6 P0 1.541430 1_555
O7 P1 1.603607 1_455
O7 P2 1.647319 1_555
O8 P3 1.557932 1_555
O9 P4 1.498051 1_545
O10 P1 1.498051 1_565
O11 P2 1.557932 1_555
O12 P4 1.603607 1_655
O12 P3 1.647319 1_555
O13 P5 1.541430 1_555
O14 P2 1.515058 1_565
O15 P3 1.514840 1_555
O16 P1 1.524320 1_555
O17 P4 1.613549 1_555
O17 P5 1.623658 1_555
O18 P5 1.554911 1_655
O19 P5 1.501907 1_555
