# generated using pymatgen
data_Ba11Bi10
_symmetry_space_group_name_H-M   'P 1'
_cell_length_a   13.40581292
_cell_length_b   13.40578025
_cell_length_c   13.74724772
_cell_angle_alpha   119.18285950
_cell_angle_beta   119.18289531
_cell_angle_gamma   89.99910488
_symmetry_Int_Tables_number   1
_chemical_formula_structural   Ba11Bi10
_chemical_formula_sum   'Ba22 Bi20'
_cell_volume   1789.26518700
_cell_formula_units_Z   2
loop_
 _symmetry_equiv_pos_site_id
 _symmetry_equiv_pos_as_xyz
  1  'x, y, z'
loop_
 _atom_site_type_symbol
 _atom_site_label
 _atom_site_symmetry_multiplicity
 _atom_site_fract_x
 _atom_site_fract_y
 _atom_site_fract_z
 _atom_site_occupancy
  Ba  Ba0  1  0.44222717  0.19133171  0.38258820  1
  Ba  Ba1  1  0.19132540  0.44222424  0.38258765  1
  Ba  Ba2  1  0.19133047  0.94034513  0.38258142  1
  Ba  Ba3  1  0.05966349  0.80867900  0.61742837  1
  Ba  Ba4  1  0.55777368  0.80868282  0.61742000  1
  Ba  Ba5  1  0.80867387  0.05965950  0.61742786  1
  Ba  Ba6  1  0.80867289  0.55777190  0.61741014  1
  Ba  Ba7  1  0.94033908  0.19133046  0.38257171  1
  Ba  Ba8  1  0.34689820  0.34689237  0.69374564  1
  Ba  Ba9  1  0.65310103  0.65309550  0.30624556  1
  Ba  Ba10  1  0.60465904  0.27500274  0.20933835  1
  Ba  Ba11  1  0.93430641  0.60468638  0.20938053  1
  Ba  Ba12  1  0.27500357  0.60465983  0.20934507  1
  Ba  Ba13  1  0.39534204  0.72499962  0.79065635  1
  Ba  Ba14  1  0.39531916  0.06569825  0.79062626  1
  Ba  Ba15  1  0.06569116  0.39530974  0.79061533  1
  Ba  Ba16  1  0.72499471  0.39534221  0.79066057  1
  Ba  Ba17  1  0.60469187  0.93431621  0.20938408  1
  Ba  Ba18  1  0.16789020  0.16789117  -0.00004526  1
  Ba  Ba19  1  0.83212589  0.16788053  0.00000501  1
  Ba  Ba20  1  0.16786817  0.83213605  0.00000384  1
  Ba  Ba21  1  0.83211970  0.83212057  0.00005793  1
  Bi  Bi0  1  0.74999600  0.25000729  0.50000293  1
  Bi  Bi1  1  0.25000515  0.74999391  0.49999928  1
  Bi  Bi2  1  0.11717962  0.11718200  0.23432728  1
  Bi  Bi3  1  0.88282420  0.88282739  0.76568372  1
  Bi  Bi4  1  0.53006923  0.53006848  0.63852078  1
  Bi  Bi5  1  0.10843834  0.53007307  0.63852122  1
  Bi  Bi6  1  0.53008037  0.10843993  0.63853295  1
  Bi  Bi7  1  0.89155897  0.46990488  0.36145888  1
  Bi  Bi8  1  0.46991532  0.89156319  0.36147079  1
  Bi  Bi9  1  0.89155088  0.89154926  0.36148165  1
  Bi  Bi10  1  0.46992341  0.46992237  0.36147347  1
  Bi  Bi11  1  0.10845393  0.10844814  0.63851875  1
  Bi  Bi12  1  0.36019976  -0.00002003  -0.00001836  1
  Bi  Bi13  1  0.99997985  0.36020369  -0.00001959  1
  Bi  Bi14  1  0.00001856  0.63979505  0.00001818  1
  Bi  Bi15  1  0.63979801  0.00001680  0.00001311  1
  Bi  Bi16  1  0.61899704  0.61899977  0.00000007  1
  Bi  Bi17  1  0.38099044  0.61900682  0.99999536  1
  Bi  Bi18  1  0.61901939  0.38097770  0.99999556  1
  Bi  Bi19  1  0.38098331  0.38097938  -0.00000863  1
loop_
_geom_bond_atom_site_label_1
_geom_bond_atom_site_label_2
_geom_bond_distance
_geom_bond_site_symmetry_2
Ba0 Bi0 3.537584 1_555
Ba0 Bi2 3.673355 1_555
Ba0 Bi4 3.842601 1_555
Ba0 Bi6 3.843661 1_555
Ba0 Bi10 3.915689 1_555
Ba0 Bi8 3.916476 1_545
Ba0 Bi12 4.081265 1_555
Ba1 Bi1 3.537596 1_555
Ba1 Bi2 3.673283 1_555
Ba1 Bi4 3.842674 1_555
Ba1 Bi5 3.843487 1_555
Ba1 Bi10 3.915794 1_555
Ba1 Bi7 3.916386 1_455
Ba1 Bi13 4.081306 1_455
Ba2 Bi1 3.537601 1_555
Ba2 Bi2 3.673933 1_565
Ba2 Bi6 3.842761 1_565
Ba2 Bi11 3.843435 1_565
Ba2 Bi8 3.915527 1_555
Ba2 Bi9 3.916754 1_455
Ba2 Bi14 4.080787 1_555
Ba3 Bi1 3.537595 1_555
Ba3 Bi3 3.673982 1_455
Ba3 Bi7 3.843025 1_455
Ba3 Bi9 3.843487 1_455
Ba3 Bi5 3.915674 1_555
Ba3 Bi11 3.916662 1_565
Ba3 Bi12 4.080655 1_566
Ba4 Bi1 3.537562 1_555
Ba4 Bi3 3.673386 1_555
Ba4 Bi10 3.842855 1_555
Ba4 Bi8 3.843594 1_555
Ba4 Bi4 3.915905 1_555
Ba4 Bi6 3.916357 1_565
Ba4 Bi15 4.081122 1_566
Ba5 Bi0 3.537626 1_555
Ba5 Bi3 3.673892 1_545
Ba5 Bi8 3.842853 1_545
Ba5 Bi9 3.843547 1_545
Ba5 Bi6 3.915605 1_555
Ba5 Bi11 3.916809 1_655
Ba5 Bi13 4.080685 1_556
Ba6 Bi0 3.537545 1_555
Ba6 Bi3 3.673417 1_555
Ba6 Bi10 3.842729 1_555
Ba6 Bi7 3.843664 1_555
Ba6 Bi4 3.915850 1_555
Ba6 Bi5 3.916497 1_655
Ba6 Bi14 4.081302 1_656
Ba7 Bi0 3.537633 1_555
Ba7 Bi2 3.673886 1_655
Ba7 Bi5 3.842690 1_655
Ba7 Bi11 3.843614 1_655
Ba7 Bi7 3.915390 1_555
Ba7 Bi9 3.916820 1_545
Ba7 Bi15 4.080714 1_555
Ba8 Bi16 3.792712 1_556
Ba8 Bi17 3.793085 1_555
Ba8 Bi18 3.793166 1_555
Ba8 Bi19 3.793401 1_556
Ba8 Bi4 4.033908 1_555
Ba8 Bi6 4.034407 1_555
Ba8 Bi5 4.034479 1_555
Ba8 Bi11 4.034731 1_555
Ba9 Bi19 3.792867 1_555
Ba9 Bi17 3.793089 1_554
Ba9 Bi18 3.793166 1_554
Ba9 Bi16 3.793242 1_555
Ba9 Bi10 4.033975 1_555
Ba9 Bi7 4.034540 1_555
Ba9 Bi8 4.034600 1_555
Ba9 Bi9 4.034799 1_555
Ba10 Bi10 3.580359 1_555
Ba10 Bi7 3.580630 1_555
Ba10 Bi15 3.615128 1_555
Ba10 Bi12 3.615351 1_555
Ba10 Bi0 3.686269 1_555
Ba10 Bi19 3.855359 1_555
Ba10 Bi18 3.855523 1_554
Ba11 Bi7 3.579970 1_555
Ba11 Bi9 3.580020 1_555
Ba11 Bi13 3.615858 1_555
Ba11 Bi14 3.615927 1_655
Ba11 Bi1 3.686376 1_655
Ba11 Bi18 3.855092 1_554
Ba11 Bi16 3.855227 1_555
Ba12 Bi10 3.580334 1_555
Ba12 Bi8 3.580698 1_555
Ba12 Bi14 3.615105 1_555
Ba12 Bi13 3.615323 1_455
Ba12 Bi1 3.686171 1_555
Ba12 Bi19 3.855467 1_555
Ba12 Bi17 3.855659 1_554
Ba13 Bi4 3.580341 1_555
Ba13 Bi5 3.580756 1_555
Ba13 Bi12 3.615104 1_566
Ba13 Bi15 3.615281 1_566
Ba13 Bi1 3.686169 1_555
Ba13 Bi16 3.855447 1_556
Ba13 Bi17 3.855600 1_555
Ba14 Bi6 3.579911 1_555
Ba14 Bi11 3.580029 1_555
Ba14 Bi15 3.615814 1_556
Ba14 Bi12 3.615959 1_556
Ba14 Bi1 3.686448 1_545
Ba14 Bi18 3.855003 1_555
Ba14 Bi19 3.855019 1_556
Ba15 Bi5 3.579973 1_555
Ba15 Bi11 3.580041 1_555
Ba15 Bi14 3.615887 1_556
Ba15 Bi13 3.615939 1_456
Ba15 Bi0 3.686323 1_455
Ba15 Bi19 3.855138 1_556
Ba15 Bi17 3.855159 1_555
Ba16 Bi4 3.580323 1_555
Ba16 Bi6 3.580694 1_555
Ba16 Bi13 3.615094 1_556
Ba16 Bi14 3.615315 1_656
Ba16 Bi0 3.686236 1_555
Ba16 Bi16 3.855410 1_556
Ba16 Bi18 3.855450 1_555
Ba17 Bi9 3.580046 1_555
Ba17 Bi8 3.580058 1_555
Ba17 Bi12 3.615858 1_565
Ba17 Bi15 3.615927 1_565
Ba17 Bi0 3.686308 1_565
Ba17 Bi16 3.855257 1_555
Ba17 Bi17 3.855259 1_554
Ba18 Bi12 3.422432 1_555
Ba18 Bi13 3.422454 1_455
Ba18 Bi3 3.946660 1_444
Ba18 Bi2 3.946824 1_555
Ba18 Bi19 4.039598 1_555
Ba18 Bi11 4.270391 1_554
Ba18 Bi10 4.270953 1_555
Ba19 Bi15 3.422345 1_555
Ba19 Bi13 3.422366 1_555
Ba19 Bi3 3.946131 1_544
Ba19 Bi2 3.946146 1_655
Ba19 Bi18 4.040094 1_554
Ba19 Bi7 4.270658 1_555
Ba19 Bi6 4.270883 1_554
Ba20 Bi12 3.422341 1_565
Ba20 Bi14 3.422411 1_555
Ba20 Bi3 3.946004 1_454
Ba20 Bi2 3.946015 1_565
Ba20 Bi17 4.040547 1_554
Ba20 Bi8 4.270917 1_555
Ba20 Bi5 4.271113 1_554
Ba21 Bi15 3.422411 1_565
Ba21 Bi14 3.422475 1_655
Ba21 Bi2 3.946599 1_665
Ba21 Bi3 3.946782 1_554
Ba21 Bi16 4.039985 1_555
Ba21 Bi9 4.270324 1_555
Ba21 Bi4 4.271208 1_554
Bi5 Bi7 3.133024 1_455
Bi6 Bi8 3.133024 1_545
Bi10 Bi4 3.133127 1_555
Bi11 Bi9 3.133029 1_445
Bi16 Bi17 3.190640 1_554
Bi16 Bi18 3.190841 1_554
Bi17 Bi19 3.190917 1_556
Bi18 Bi19 3.191039 1_556
