# generated using pymatgen
data_K2Ni12As7
_symmetry_space_group_name_H-M   'P 1'
_cell_length_a   9.54225454
_cell_length_b   9.54225454
_cell_length_c   3.83057800
_cell_angle_alpha   90.00000000
_cell_angle_beta   90.00000000
_cell_angle_gamma   120.00000376
_symmetry_Int_Tables_number   1
_chemical_formula_structural   K2Ni12As7
_chemical_formula_sum   'K2 Ni12 As7'
_cell_volume   302.06257474
_cell_formula_units_Z   1
loop_
 _symmetry_equiv_pos_site_id
 _symmetry_equiv_pos_as_xyz
  1  'x, y, z'
loop_
 _atom_site_type_symbol
 _atom_site_label
 _atom_site_symmetry_multiplicity
 _atom_site_fract_x
 _atom_site_fract_y
 _atom_site_fract_z
 _atom_site_occupancy
  K  K0  1  0.66666700  0.33333300  0.50000000  1
  K  K1  1  0.33333300  0.66666700  0.00000000  1
  Ni  Ni0  1  0.37431800  0.95415000  0.50000000  1
  Ni  Ni1  1  0.57983200  0.62568200  0.50000000  1
  Ni  Ni2  1  0.04585000  0.42016800  0.50000000  1
  Ni  Ni3  1  0.20531300  0.11120100  0.50000000  1
  Ni  Ni4  1  0.90588900  0.79468700  0.50000000  1
  Ni  Ni5  1  0.88879900  0.09411100  0.50000000  1
  Ni  Ni6  1  0.14984300  0.87472700  0.00000000  1
  Ni  Ni7  1  0.72488400  0.85015700  0.00000000  1
  Ni  Ni8  1  0.12527300  0.27511600  0.00000000  1
  Ni  Ni9  1  0.61635200  0.05090100  0.00000000  1
  Ni  Ni10  1  0.43455000  0.38364800  0.00000000  1
  Ni  Ni11  1  0.94909900  0.56545000  0.00000000  1
  As  As0  1  0.00000000  0.00000000  0.00000000  1
  As  As1  1  0.40060500  0.11390300  0.00000000  1
  As  As2  1  0.71329800  0.59939500  0.00000000  1
  As  As3  1  0.88609700  0.28670200  0.00000000  1
  As  As4  1  0.60154700  0.89883000  0.50000000  1
  As  As5  1  0.29728400  0.39845300  0.50000000  1
  As  As6  1  0.10117000  0.70271600  0.50000000  1
loop_
_geom_bond_atom_site_label_1
_geom_bond_atom_site_label_2
_geom_bond_distance
_geom_bond_site_symmetry_2
K0 Ni11 3.141359 1_555
K0 Ni11 3.141359 1_556
K0 Ni9 3.141359 1_555
K0 Ni9 3.141359 1_556
K0 Ni10 3.141359 1_556
K0 Ni10 3.141359 1_555
K0 Ni2 3.283336 1_655
K0 Ni0 3.283339 1_545
K0 Ni1 3.283345 1_555
K1 Ni0 3.205273 1_555
K1 Ni0 3.205273 1_554
K1 Ni2 3.205276 1_555
K1 Ni2 3.205276 1_554
K1 Ni1 3.205281 1_555
K1 Ni1 3.205281 1_554
K1 Ni6 3.237827 1_555
K1 Ni8 3.237835 1_555
K1 Ni7 3.237836 1_555
K1 Ni11 3.291589 1_455
K1 Ni9 3.291594 1_565
K1 Ni10 3.291607 1_555
As0 Ni7 2.276533 1_445
As0 Ni8 2.276533 1_555
As0 Ni6 2.276533 1_545
As0 Ni5 2.560010 1_455
As0 Ni5 2.560010 1_454
As0 Ni3 2.560015 1_554
As0 Ni3 2.560015 1_555
As0 Ni4 2.560016 1_445
As0 Ni4 2.560016 1_444
As1 Ni6 2.339516 1_545
As1 Ni0 2.381739 1_544
As1 Ni0 2.381739 1_545
As1 Ni9 2.416066 1_555
As1 Ni10 2.428277 1_555
As1 Ni3 2.663396 1_554
As1 Ni3 2.663396 1_555
As1 K0 3.030228 1_554
As1 K0 3.030228 1_555
As2 Ni7 2.339517 1_555
As2 Ni1 2.381739 1_555
As2 Ni1 2.381739 1_554
As2 Ni10 2.416060 1_555
As2 Ni11 2.428286 1_555
As2 Ni4 2.663399 1_554
As2 Ni4 2.663399 1_555
As2 K0 3.030231 1_554
As2 K0 3.030231 1_555
As3 Ni8 2.339517 1_655
As3 Ni2 2.381739 1_654
As3 Ni2 2.381739 1_655
As3 Ni11 2.416057 1_555
As3 Ni9 2.428280 1_555
As3 Ni5 2.663403 1_554
As3 Ni5 2.663403 1_555
As3 K0 3.030224 1_555
As3 K0 3.030224 1_554
As4 Ni9 2.364102 1_566
As4 Ni9 2.364102 1_565
As4 Ni7 2.411594 1_555
As4 Ni7 2.411594 1_556
As4 Ni5 2.424437 1_565
As4 Ni0 2.474806 1_555
As4 Ni1 2.509268 1_555
As4 K1 3.075156 1_556
As4 K1 3.075156 1_555
As5 Ni10 2.364102 1_556
As5 Ni10 2.364102 1_555
As5 Ni8 2.411599 1_556
As5 Ni8 2.411599 1_555
As5 Ni3 2.424437 1_555
As5 Ni1 2.474800 1_555
As5 Ni2 2.509277 1_555
As5 K1 3.075162 1_555
As5 K1 3.075162 1_556
As6 Ni11 2.364102 1_456
As6 Ni11 2.364102 1_455
As6 Ni6 2.411600 1_556
As6 Ni6 2.411600 1_555
As6 Ni4 2.424437 1_455
As6 Ni2 2.474797 1_555
As6 Ni0 2.509272 1_555
As6 K1 3.075147 1_556
As6 K1 3.075147 1_555
