# generated using pymatgen
data_U(Cr3P2)2
_symmetry_space_group_name_H-M   'P 1'
_cell_length_a   3.49447107
_cell_length_b   6.95491597
_cell_length_c   12.06777884
_cell_angle_alpha   90.00000000
_cell_angle_beta   90.00000000
_cell_angle_gamma   90.00000000
_symmetry_Int_Tables_number   1
_chemical_formula_structural   U(Cr3P2)2
_chemical_formula_sum   'U2 Cr12 P8'
_cell_volume   293.29231198
_cell_formula_units_Z   2
loop_
 _symmetry_equiv_pos_site_id
 _symmetry_equiv_pos_as_xyz
  1  'x, y, z'
loop_
 _atom_site_type_symbol
 _atom_site_label
 _atom_site_symmetry_multiplicity
 _atom_site_fract_x
 _atom_site_fract_y
 _atom_site_fract_z
 _atom_site_occupancy
  U  U0  1  0.50000000  0.00000000  0.67683514  1
  U  U1  1  0.00000000  0.50000000  0.32316486  1
  Cr  Cr0  1  0.50000000  0.80741742  0.42077328  1
  Cr  Cr1  1  -0.00000000  0.80334042  0.08851007  1
  Cr  Cr2  1  0.50000000  0.30334042  0.91148993  1
  Cr  Cr3  1  0.00000000  0.00000000  0.88124525  1
  Cr  Cr4  1  0.50000000  0.19258258  0.42077328  1
  Cr  Cr5  1  0.00000000  0.19665958  0.08851007  1
  Cr  Cr6  1  0.50000000  0.50000000  0.71692305  1
  Cr  Cr7  1  0.00000000  0.69258258  0.57922672  1
  Cr  Cr8  1  0.00000000  0.30741742  0.57922672  1
  Cr  Cr9  1  0.00000000  0.00000000  0.28307695  1
  Cr  Cr10  1  0.50000000  0.69665958  0.91148993  1
  Cr  Cr11  1  0.50000000  0.50000000  0.11875475  1
  P  P0  1  0.50000000  0.00000000  0.00517216  1
  P  P1  1  0.50000000  0.78000583  0.22621270  1
  P  P2  1  0.50000000  0.21999417  0.22621270  1
  P  P3  1  -0.00000000  0.00000000  0.48782735  1
  P  P4  1  0.00000000  0.50000000  0.99482784  1
  P  P5  1  0.50000000  0.50000000  0.51217265  1
  P  P6  1  0.00000000  0.71999417  0.77378730  1
  P  P7  1  -0.00000000  0.28000583  0.77378730  1
loop_
_geom_bond_atom_site_label_1
_geom_bond_atom_site_label_2
_geom_bond_distance
_geom_bond_site_symmetry_2
Cr0 P3 2.345551 1_565
Cr0 P3 2.345551 1_665
Cr0 P1 2.355641 1_555
Cr0 P5 2.405804 1_555
Cr0 U1 3.001938 1_555
Cr0 U1 3.001938 1_655
Cr1 P4 2.393528 1_554
Cr1 P1 2.416740 1_555
Cr1 P1 2.416740 1_455
Cr1 P0 2.436188 1_465
Cr1 P0 2.436188 1_565
Cr2 P0 2.393528 1_556
Cr2 P7 2.416740 1_655
Cr2 P7 2.416740 1_555
Cr2 P4 2.436188 1_555
Cr2 P4 2.436188 1_655
Cr3 P0 2.299874 1_556
Cr3 P0 2.299874 1_456
Cr3 P7 2.339673 1_555
Cr3 P6 2.339673 1_545
Cr3 U0 3.022882 1_455
Cr3 U0 3.022882 1_555
Cr4 P3 2.345551 1_555
Cr4 P3 2.345551 1_655
Cr4 P2 2.355641 1_555
Cr4 P5 2.405804 1_555
Cr4 U1 3.001938 1_655
Cr4 U1 3.001938 1_555
Cr5 P4 2.393528 1_554
Cr5 P2 2.416740 1_555
Cr5 P2 2.416740 1_455
Cr5 P0 2.436188 1_455
Cr5 P0 2.436188 1_555
Cr6 P6 2.421727 1_655
Cr6 P7 2.421727 1_555
Cr6 P7 2.421727 1_655
Cr6 P6 2.421727 1_555
Cr6 P5 2.470883 1_555
Cr7 P5 2.345551 1_555
Cr7 P5 2.345551 1_455
Cr7 P6 2.355641 1_555
Cr7 P3 2.405804 1_565
Cr7 U0 3.001938 1_465
Cr7 U0 3.001938 1_565
Cr8 P5 2.345551 1_555
Cr8 P5 2.345551 1_455
Cr8 P7 2.355641 1_555
Cr8 P3 2.405804 1_555
Cr8 U0 3.001938 1_555
Cr8 U0 3.001938 1_455
Cr9 P1 2.421727 1_545
Cr9 P2 2.421727 1_455
Cr9 P2 2.421727 1_555
Cr9 P1 2.421727 1_445
Cr9 P3 2.470883 1_555
Cr10 P0 2.393528 1_566
Cr10 P6 2.416740 1_555
Cr10 P6 2.416740 1_655
Cr10 P4 2.436188 1_555
Cr10 P4 2.436188 1_655
Cr11 P4 2.299874 1_654
Cr11 P4 2.299874 1_554
Cr11 P1 2.339673 1_555
Cr11 P2 2.339673 1_555
Cr11 U1 3.022882 1_655
Cr11 U1 3.022882 1_555
P1 U1 2.866035 1_655
P1 U1 2.866035 1_555
P2 U1 2.866035 1_655
P2 U1 2.866035 1_555
P3 U0 2.873214 1_555
P3 U0 2.873214 1_455
P5 U1 2.873214 1_555
P5 U1 2.873214 1_655
P6 U0 2.866035 1_465
P6 U0 2.866035 1_565
P7 U0 2.866035 1_555
P7 U0 2.866035 1_455
