# generated using pymatgen
data_K2PtN3(ClO2)3
_symmetry_space_group_name_H-M   'P 1'
_cell_length_a   7.76880300
_cell_length_b   6.76788300
_cell_length_c   11.08498384
_cell_angle_alpha   79.00055620
_cell_angle_beta   90.00000000
_cell_angle_gamma   90.00000000
_symmetry_Int_Tables_number   1
_chemical_formula_structural   K2PtN3(ClO2)3
_chemical_formula_sum   'K4 Pt2 N6 Cl6 O12'
_cell_volume   572.12300547
_cell_formula_units_Z   2
loop_
 _symmetry_equiv_pos_site_id
 _symmetry_equiv_pos_as_xyz
  1  'x, y, z'
loop_
 _atom_site_type_symbol
 _atom_site_label
 _atom_site_symmetry_multiplicity
 _atom_site_fract_x
 _atom_site_fract_y
 _atom_site_fract_z
 _atom_site_occupancy
  K  K0  1  0.25000000  0.78950200  0.46852200  1
  K  K1  1  0.25000000  0.38319600  0.11428900  1
  K  K2  1  0.75000000  0.21049800  0.53147800  1
  K  K3  1  0.75000000  0.61680400  0.88571100  1
  Pt  Pt0  1  0.25000000  0.12047900  0.75240300  1
  Pt  Pt1  1  0.75000000  0.87952100  0.24759700  1
  N  N0  1  0.75000000  0.05168800  0.06715500  1
  N  N1  1  0.44197600  0.31470900  0.79295600  1
  N  N2  1  0.55802400  0.68529100  0.20704400  1
  N  N3  1  0.25000000  0.94831200  0.93284500  1
  N  N4  1  0.94197600  0.68529100  0.20704400  1
  N  N5  1  0.05802400  0.31470900  0.79295600  1
  Cl  Cl0  1  0.46943700  0.90336000  0.69941700  1
  Cl  Cl1  1  0.25000000  0.29457100  0.54280800  1
  Cl  Cl2  1  0.53056300  0.09664000  0.30058300  1
  Cl  Cl3  1  0.96943700  0.09664000  0.30058300  1
  Cl  Cl4  1  0.75000000  0.70542900  0.45719200  1
  Cl  Cl5  1  0.03056300  0.90336000  0.69941700  1
  O  O0  1  0.93577400  0.62542200  0.10858600  1
  O  O1  1  0.94336900  0.36634800  0.71610200  1
  O  O2  1  0.06422600  0.37457800  0.89141400  1
  O  O3  1  0.25000000  0.76440600  0.94059900  1
  O  O4  1  0.75000000  0.23559400  0.05940100  1
  O  O5  1  0.25000000  0.03158600  0.02279500  1
  O  O6  1  0.05663100  0.63365200  0.28389800  1
  O  O7  1  0.43577400  0.37457800  0.89141400  1
  O  O8  1  0.55663100  0.36634800  0.71610200  1
  O  O9  1  0.44336900  0.63365200  0.28389800  1
  O  O10  1  0.56422600  0.62542200  0.10858600  1
  O  O11  1  0.75000000  0.96841400  0.97720500  1
loop_
_geom_bond_atom_site_label_1
_geom_bond_atom_site_label_2
_geom_bond_distance
_geom_bond_site_symmetry_2
K0 O9 2.895067 1_555
K0 O6 2.895067 1_555
K1 O5 2.759050 1_555
K1 O7 2.871416 1_554
K1 O2 2.871416 1_554
K1 O3 2.909940 1_554
K1 O0 2.934485 1_455
K1 O10 2.934485 1_555
K1 O9 3.143390 1_555
K1 O6 3.143390 1_555
K2 O1 2.895067 1_555
K2 O8 2.895067 1_555
K3 O11 2.759050 1_555
K3 O0 2.871416 1_556
K3 O10 2.871416 1_556
K3 O4 2.909940 1_556
K3 O2 2.934485 1_655
K3 O7 2.934485 1_555
K3 O1 3.143390 1_555
K3 O8 3.143390 1_555
N0 O4 1.231149 1_555
N0 O11 1.235423 1_544
N0 Pt1 2.114030 1_545
N1 O7 1.235482 1_555
N1 O8 1.236004 1_555
N1 Pt0 2.092819 1_555
N2 O10 1.235482 1_555
N2 O9 1.236004 1_555
N2 Pt1 2.092819 1_555
N3 O3 1.231149 1_555
N3 O5 1.235423 1_566
N3 Pt0 2.114030 1_565
N4 O0 1.235482 1_555
N4 O6 1.236004 1_655
N4 Pt1 2.092819 1_555
N5 O2 1.235482 1_555
N5 O1 1.236004 1_455
N5 Pt0 2.092819 1_555
Cl0 Pt0 2.395785 1_565
Cl0 K0 3.286867 1_555
Cl0 K2 3.325750 1_565
Cl0 K3 3.353837 1_555
Cl1 Pt0 2.396166 1_555
Cl1 K0 3.293263 1_555
Cl1 K0 3.665600 1_545
Cl2 Pt1 2.395785 1_545
Cl2 K2 3.286867 1_555
Cl2 K0 3.325750 1_545
Cl2 K1 3.353837 1_555
Cl3 Pt1 2.395785 1_545
Cl3 K2 3.286867 1_555
Cl3 K0 3.325750 1_645
Cl3 K1 3.353837 1_655
Cl4 Pt1 2.396166 1_555
Cl4 K2 3.293263 1_555
Cl4 K2 3.665600 1_565
Cl5 Pt0 2.395785 1_565
Cl5 K0 3.286867 1_555
Cl5 K2 3.325750 1_465
Cl5 K3 3.353837 1_455
