# generated using pymatgen
data_KVPbO4
_symmetry_space_group_name_H-M   'P 1'
_cell_length_a   5.89671800
_cell_length_b   7.85086500
_cell_length_c   10.33260300
_cell_angle_alpha   90.00000000
_cell_angle_beta   90.00000000
_cell_angle_gamma   90.00000000
_symmetry_Int_Tables_number   1
_chemical_formula_structural   KVPbO4
_chemical_formula_sum   'K4 V4 Pb4 O16'
_cell_volume   478.34100497
_cell_formula_units_Z   4
loop_
 _symmetry_equiv_pos_site_id
 _symmetry_equiv_pos_as_xyz
  1  'x, y, z'
loop_
 _atom_site_type_symbol
 _atom_site_label
 _atom_site_symmetry_multiplicity
 _atom_site_fract_x
 _atom_site_fract_y
 _atom_site_fract_z
 _atom_site_occupancy
  K  K0  1  0.25000000  0.17921400  0.91060000  1
  K  K1  1  0.75000000  0.82078600  0.08940000  1
  K  K2  1  0.25000000  0.67921400  0.58940000  1
  K  K3  1  0.75000000  0.32078600  0.41060000  1
  V  V0  1  0.75000000  0.25691300  0.07932900  1
  V  V1  1  0.25000000  0.74308700  0.92067100  1
  V  V2  1  0.75000000  0.75691300  0.42067100  1
  V  V3  1  0.25000000  0.24308700  0.57932900  1
  Pb  Pb0  1  0.75000000  0.47753400  0.78313400  1
  Pb  Pb1  1  0.25000000  0.52246600  0.21686600  1
  Pb  Pb2  1  0.75000000  0.97753400  0.71686600  1
  Pb  Pb3  1  0.25000000  0.02246600  0.28313400  1
  O  O0  1  0.25000000  0.52856200  0.89303300  1
  O  O1  1  0.75000000  0.47143800  0.10696700  1
  O  O2  1  0.25000000  0.02856200  0.60696700  1
  O  O3  1  0.75000000  0.97143800  0.39303300  1
  O  O4  1  0.75000000  0.21987000  0.90959800  1
  O  O5  1  0.25000000  0.78013000  0.09040200  1
  O  O6  1  0.75000000  0.71987000  0.59040200  1
  O  O7  1  0.25000000  0.28013000  0.40959800  1
  O  O8  1  0.99332300  0.16428500  0.14626000  1
  O  O9  1  0.49332300  0.83571500  0.85374000  1
  O  O10  1  0.50667700  0.66428500  0.35374000  1
  O  O11  1  0.00667700  0.33571500  0.64626000  1
  O  O12  1  0.00667700  0.83571500  0.85374000  1
  O  O13  1  0.50667700  0.16428500  0.14626000  1
  O  O14  1  0.49332300  0.33571500  0.64626000  1
  O  O15  1  0.99332300  0.66428500  0.35374000  1
loop_
_geom_bond_atom_site_label_1
_geom_bond_atom_site_label_2
_geom_bond_distance
_geom_bond_site_symmetry_2
K0 O0 2.748684 1_555
K0 O13 2.869444 1_556
K0 O8 2.869444 1_456
K0 O4 2.965604 1_455
K0 O4 2.965604 1_555
K0 O12 3.110688 1_545
K0 O9 3.110688 1_545
K1 O1 2.748684 1_555
K1 O12 2.869444 1_654
K1 O9 2.869444 1_554
K1 O5 2.965604 1_655
K1 O5 2.965604 1_555
K1 O8 3.110688 1_565
K1 O13 3.110688 1_565
K2 O2 2.748684 1_565
K2 O15 2.869444 1_455
K2 O10 2.869444 1_555
K2 O6 2.965604 1_455
K2 O6 2.965604 1_555
K2 O14 3.110688 1_555
K2 O11 3.110688 1_555
K3 O3 2.748684 1_545
K3 O14 2.869444 1_555
K3 O11 2.869444 1_655
K3 O7 2.965604 1_555
K3 O7 2.965604 1_655
K3 O10 3.110688 1_555
K3 O15 3.110688 1_555
O0 V1 1.708246 1_555
O1 V0 1.708246 1_555
O2 V3 1.708246 1_555
O3 V2 1.708246 1_555
O4 V0 1.777712 1_556
O4 Pb0 2.408223 1_555
O4 Pb2 2.754170 1_545
O5 V1 1.777712 1_554
O5 Pb1 2.408223 1_555
O5 Pb3 2.754170 1_565
O6 V2 1.777712 1_555
O6 Pb2 2.408223 1_555
O6 Pb0 2.754170 1_555
O7 V3 1.777712 1_555
O7 Pb3 2.408223 1_555
O7 Pb1 2.754170 1_555
O8 V0 1.750936 1_555
O8 Pb3 2.351733 1_655
O9 V1 1.750936 1_555
O9 Pb2 2.351733 1_555
O10 V2 1.750936 1_555
O10 Pb1 2.351733 1_555
O11 V3 1.750936 1_555
O11 Pb0 2.351733 1_455
O12 V1 1.750936 1_555
O12 Pb2 2.351733 1_455
O13 V0 1.750936 1_555
O13 Pb3 2.351733 1_555
O14 V3 1.750936 1_555
O14 Pb0 2.351733 1_555
O15 V2 1.750936 1_555
O15 Pb1 2.351733 1_655
