# generated using pymatgen
data_Mn3Nb2ZnO9
_symmetry_space_group_name_H-M   'P 1'
_cell_length_a   5.28813052
_cell_length_b   5.28813052
_cell_length_c   14.32012908
_cell_angle_alpha   90.00000000
_cell_angle_beta   90.00000000
_cell_angle_gamma   119.99999700
_symmetry_Int_Tables_number   1
_chemical_formula_structural   Mn3Nb2ZnO9
_chemical_formula_sum   'Mn6 Nb4 Zn2 O18'
_cell_volume   346.80225205
_cell_formula_units_Z   2
loop_
 _symmetry_equiv_pos_site_id
 _symmetry_equiv_pos_as_xyz
  1  'x, y, z'
loop_
 _atom_site_type_symbol
 _atom_site_label
 _atom_site_symmetry_multiplicity
 _atom_site_fract_x
 _atom_site_fract_y
 _atom_site_fract_z
 _atom_site_occupancy
  Mn  Mn0  1  0.66666700  0.33333300  0.69718224  1
  Mn  Mn1  1  0.66666700  0.33333300  0.98070037  1
  Mn  Mn2  1  0.66666700  0.33333300  0.48070037  1
  Mn  Mn3  1  0.33333300  0.66666700  0.51463338  1
  Mn  Mn4  1  0.33333300  0.66666700  0.01463338  1
  Mn  Mn5  1  0.66666700  0.33333300  0.19718224  1
  Nb  Nb0  1  -0.00000000  -0.00000000  0.85795991  1
  Nb  Nb1  1  -0.00000000  -0.00000000  0.14050228  1
  Nb  Nb2  1  -0.00000000  -0.00000000  0.64050228  1
  Nb  Nb3  1  -0.00000000  -0.00000000  0.35795991  1
  Zn  Zn0  1  0.33333300  0.66666700  0.79735535  1
  Zn  Zn1  1  0.33333300  0.66666700  0.29735535  1
  O  O0  1  0.34164597  0.31409940  0.08386804  1
  O  O1  1  0.65765667  0.68456480  0.91432618  1
  O  O2  1  0.00938020  0.28931925  0.24946027  1
  O  O3  1  0.27993904  0.99061980  0.24946027  1
  O  O4  1  0.97245343  0.65835403  0.08386804  1
  O  O5  1  0.68590060  0.65835403  0.58386804  1
  O  O6  1  0.71068075  0.99061980  0.74946027  1
  O  O7  1  0.02690813  0.34234333  0.91432618  1
  O  O8  1  0.02690813  0.68456480  0.41432618  1
  O  O9  1  0.34164597  0.02754657  0.58386804  1
  O  O10  1  0.27993904  0.28931925  0.74946027  1
  O  O11  1  0.97245343  0.31409940  0.58386804  1
  O  O12  1  0.71068075  0.72006096  0.24946027  1
  O  O13  1  0.31543520  0.97309187  0.91432618  1
  O  O14  1  0.68590060  0.02754657  0.08386804  1
  O  O15  1  0.65765667  0.97309187  0.41432618  1
  O  O16  1  0.31543520  0.34234333  0.41432618  1
  O  O17  1  0.00938020  0.72006096  0.74946027  1
loop_
_geom_bond_atom_site_label_1
_geom_bond_atom_site_label_2
_geom_bond_distance
_geom_bond_site_symmetry_2
Mn0 O6 2.078680 1_545
Mn0 O17 2.078683 1_655
Mn0 O10 2.078684 1_555
Mn0 O11 2.328669 1_555
Mn0 O9 2.328671 1_555
Mn0 O5 2.328673 1_555
Mn1 O7 2.108070 1_655
Mn1 O13 2.108072 1_545
Mn1 O1 2.108075 1_555
Mn1 O14 2.229857 1_556
Mn1 O4 2.229859 1_556
Mn1 O0 2.229861 1_556
Mn2 O15 2.108070 1_545
Mn2 O8 2.108072 1_655
Mn2 O16 2.108075 1_555
Mn2 O11 2.229857 1_555
Mn2 O9 2.229859 1_555
Mn2 O5 2.229861 1_555
Mn3 O9 2.131413 1_565
Mn3 O11 2.131415 1_455
Mn3 O5 2.131417 1_555
Mn3 O8 2.202577 1_555
Mn3 O15 2.202580 1_555
Mn3 O16 2.202581 1_555
Mn4 O4 2.131413 1_455
Mn4 O14 2.131415 1_565
Mn4 O0 2.131417 1_555
Mn4 O13 2.202577 1_554
Mn4 O7 2.202580 1_554
Mn4 O1 2.202581 1_554
Mn5 O2 2.078680 1_655
Mn5 O3 2.078683 1_545
Mn5 O12 2.078684 1_555
Mn5 O14 2.328669 1_555
Mn5 O4 2.328671 1_555
Mn5 O0 2.328673 1_555
Nb0 O13 1.921344 1_545
Nb0 O7 1.921344 1_555
Nb0 O1 1.921344 1_445
Nb0 O17 2.163657 1_545
Nb0 O6 2.163657 1_445
Nb0 O10 2.163657 1_555
Nb1 O14 1.918288 1_455
Nb1 O4 1.918288 1_445
Nb1 O0 1.918288 1_555
Nb1 O3 2.168376 1_545
Nb1 O2 2.168376 1_555
Nb1 O12 2.168376 1_445
Nb2 O11 1.918288 1_455
Nb2 O9 1.918288 1_555
Nb2 O5 1.918288 1_445
Nb2 O17 2.168376 1_545
Nb2 O6 2.168376 1_445
Nb2 O10 2.168376 1_555
Nb3 O8 1.921344 1_545
Nb3 O15 1.921344 1_445
Nb3 O16 1.921344 1_555
Nb3 O3 2.163657 1_545
Nb3 O2 2.163657 1_555
Nb3 O12 2.163657 1_445
O1 Zn0 2.365129 1_555
O2 Zn1 1.992128 1_555
O3 Zn1 1.992125 1_555
O6 Zn0 1.992128 1_555
O7 Zn0 2.365127 1_555
O8 Zn1 2.365125 1_555
O10 Zn0 1.992130 1_555
O12 Zn1 1.992130 1_555
O13 Zn0 2.365125 1_555
O15 Zn1 2.365127 1_555
O16 Zn1 2.365129 1_555
O17 Zn0 1.992125 1_555
