# generated using pymatgen
data_Cr2B(PO4)3
_symmetry_space_group_name_H-M   'P 1'
_cell_length_a   8.08600634
_cell_length_b   8.08600634
_cell_length_c   7.52777800
_cell_angle_alpha   90.00000000
_cell_angle_beta   90.00000000
_cell_angle_gamma   120.00000276
_symmetry_Int_Tables_number   1
_chemical_formula_structural   Cr2B(PO4)3
_chemical_formula_sum   'Cr4 B2 P6 O24'
_cell_volume   426.25116329
_cell_formula_units_Z   2
loop_
 _symmetry_equiv_pos_site_id
 _symmetry_equiv_pos_as_xyz
  1  'x, y, z'
loop_
 _atom_site_type_symbol
 _atom_site_label
 _atom_site_symmetry_multiplicity
 _atom_site_fract_x
 _atom_site_fract_y
 _atom_site_fract_z
 _atom_site_occupancy
  Cr  Cr0  1  0.66666700  0.33333300  0.56168800  1
  Cr  Cr1  1  0.33333300  0.66666700  0.43831200  1
  Cr  Cr2  1  0.33333300  0.66666700  0.06168800  1
  Cr  Cr3  1  0.66666700  0.33333300  0.93831200  1
  B  B0  1  0.00000000  0.00000000  0.75000000  1
  B  B1  1  0.00000000  0.00000000  0.25000000  1
  P  P0  1  0.68527400  0.04957000  0.25000000  1
  P  P1  1  0.04957000  0.36429600  0.75000000  1
  P  P2  1  0.31472600  0.95043000  0.75000000  1
  P  P3  1  0.63570400  0.68527400  0.75000000  1
  P  P4  1  0.95043000  0.63570400  0.25000000  1
  P  P5  1  0.36429600  0.31472600  0.25000000  1
  O  O0  1  0.86330300  0.81109600  0.75000000  1
  O  O1  1  0.94779300  0.13669700  0.75000000  1
  O  O2  1  0.27245800  0.83640600  0.92497400  1
  O  O3  1  0.16359400  0.43605200  0.92497400  1
  O  O4  1  0.81109600  0.94779300  0.25000000  1
  O  O5  1  0.43605200  0.27245800  0.42497400  1
  O  O6  1  0.16359400  0.43605200  0.57502600  1
  O  O7  1  0.39636600  0.52243600  0.25000000  1
  O  O8  1  0.43605200  0.27245800  0.07502600  1
  O  O9  1  0.56394800  0.72754200  0.57502600  1
  O  O10  1  0.47756400  0.87393000  0.25000000  1
  O  O11  1  0.87393000  0.39636600  0.75000000  1
  O  O12  1  0.52243600  0.12607000  0.75000000  1
  O  O13  1  0.27245800  0.83640600  0.57502600  1
  O  O14  1  0.83640600  0.56394800  0.42497400  1
  O  O15  1  0.83640600  0.56394800  0.07502600  1
  O  O16  1  0.05220700  0.86330300  0.25000000  1
  O  O17  1  0.18890400  0.05220700  0.75000000  1
  O  O18  1  0.56394800  0.72754200  0.92497400  1
  O  O19  1  0.72754200  0.16359400  0.42497400  1
  O  O20  1  0.60363400  0.47756400  0.75000000  1
  O  O21  1  0.12607000  0.60363400  0.25000000  1
  O  O22  1  0.13669700  0.18890400  0.25000000  1
  O  O23  1  0.72754200  0.16359400  0.07502600  1
loop_
_geom_bond_atom_site_label_1
_geom_bond_atom_site_label_2
_geom_bond_distance
_geom_bond_site_symmetry_2
Cr0 O19 1.964901 1_555
Cr0 O14 1.964906 1_555
Cr0 O5 1.964907 1_555
Cr0 O11 2.055196 1_555
Cr0 O12 2.055197 1_555
Cr0 O20 2.055202 1_555
Cr1 O13 1.964901 1_555
Cr1 O6 1.964906 1_555
Cr1 O9 1.964907 1_555
Cr1 O21 2.055196 1_555
Cr1 O10 2.055197 1_555
Cr1 O7 2.055202 1_555
Cr2 O2 1.964901 1_554
Cr2 O3 1.964906 1_554
Cr2 O18 1.964907 1_554
Cr2 O21 2.055196 1_555
Cr2 O10 2.055197 1_555
Cr2 O7 2.055202 1_555
Cr3 O23 1.964901 1_556
Cr3 O15 1.964906 1_556
Cr3 O8 1.964907 1_556
Cr3 O11 2.055196 1_555
Cr3 O12 2.055197 1_555
Cr3 O20 2.055202 1_555
B0 O0 1.366228 1_445
B0 O17 1.366228 1_555
B0 O1 1.366228 1_455
B1 O22 1.366228 1_555
B1 O4 1.366228 1_445
B1 O16 1.366228 1_545
O0 P3 1.596767 1_555
O1 P1 1.596767 1_655
O2 P2 1.544895 1_555
O3 P1 1.544895 1_555
O4 P0 1.596767 1_565
O5 P5 1.544895 1_555
O6 P1 1.544895 1_555
O7 P5 1.566071 1_555
O8 P5 1.544895 1_555
O9 P3 1.544895 1_555
O10 P0 1.566071 1_565
O11 P1 1.566071 1_655
O12 P2 1.566071 1_545
O13 P2 1.544895 1_555
O14 P4 1.544895 1_555
O15 P4 1.544895 1_555
O16 P4 1.596767 1_455
O17 P2 1.596767 1_545
O18 P3 1.544895 1_555
O19 P0 1.544895 1_555
O20 P3 1.566071 1_555
O21 P4 1.566071 1_455
O22 P5 1.596767 1_555
O23 P0 1.544895 1_555
