# generated using pymatgen
data_Ga2Pb2S5
_symmetry_space_group_name_H-M   'P 1'
_cell_length_a   11.21487800
_cell_length_b   12.12488200
_cell_length_c   12.57454900
_cell_angle_alpha   90.00000000
_cell_angle_beta   90.00000000
_cell_angle_gamma   90.00000000
_symmetry_Int_Tables_number   1
_chemical_formula_structural   Ga2Pb2S5
_chemical_formula_sum   'Ga16 Pb16 S40'
_cell_volume   1709.87550880
_cell_formula_units_Z   8
loop_
 _symmetry_equiv_pos_site_id
 _symmetry_equiv_pos_as_xyz
  1  'x, y, z'
loop_
 _atom_site_type_symbol
 _atom_site_label
 _atom_site_symmetry_multiplicity
 _atom_site_fract_x
 _atom_site_fract_y
 _atom_site_fract_z
 _atom_site_occupancy
  Ga  Ga0  1  0.26482900  0.54014900  0.52533300  1
  Ga  Ga1  1  0.43568800  0.80077800  0.04316600  1
  Ga  Ga2  1  0.26482900  0.04014900  0.97466700  1
  Ga  Ga3  1  0.56431200  0.69922200  0.54316600  1
  Ga  Ga4  1  0.93568800  0.69922200  0.04316600  1
  Ga  Ga5  1  0.56431200  0.19922200  0.95683400  1
  Ga  Ga6  1  0.23517100  0.54014900  0.02533300  1
  Ga  Ga7  1  0.06431200  0.30077800  0.95683400  1
  Ga  Ga8  1  0.93568800  0.19922200  0.45683400  1
  Ga  Ga9  1  0.76482900  0.45985100  0.97466700  1
  Ga  Ga10  1  0.43568800  0.30077800  0.45683400  1
  Ga  Ga11  1  0.73517100  0.95985100  0.02533300  1
  Ga  Ga12  1  0.23517100  0.04014900  0.47466700  1
  Ga  Ga13  1  0.06431200  0.80077800  0.54316600  1
  Ga  Ga14  1  0.73517100  0.45985100  0.47466700  1
  Ga  Ga15  1  0.76482900  0.95985100  0.52533300  1
  Pb  Pb0  1  0.23578100  0.75498900  0.80653900  1
  Pb  Pb1  1  0.49024500  0.98279900  0.70681000  1
  Pb  Pb2  1  0.00975500  0.98279900  0.20681000  1
  Pb  Pb3  1  0.26421900  0.75498900  0.30653900  1
  Pb  Pb4  1  0.50975500  0.01720100  0.29319000  1
  Pb  Pb5  1  0.73578100  0.24501100  0.69346100  1
  Pb  Pb6  1  0.76421900  0.74501100  0.30653900  1
  Pb  Pb7  1  0.99024500  0.51720100  0.70681000  1
  Pb  Pb8  1  0.49024500  0.48279900  0.79319000  1
  Pb  Pb9  1  0.26421900  0.25498900  0.19346100  1
  Pb  Pb10  1  0.00975500  0.48279900  0.29319000  1
  Pb  Pb11  1  0.76421900  0.24501100  0.19346100  1
  Pb  Pb12  1  0.50975500  0.51720100  0.20681000  1
  Pb  Pb13  1  0.99024500  0.01720100  0.79319000  1
  Pb  Pb14  1  0.73578100  0.74501100  0.80653900  1
  Pb  Pb15  1  0.23578100  0.25498900  0.69346100  1
  S  S0  1  0.74223300  0.13716200  0.46474200  1
  S  S1  1  0.24223300  0.36283800  0.46474200  1
  S  S2  1  0.00677400  0.78957000  0.71478000  1
  S  S3  1  0.58871100  0.37623500  0.02834400  1
  S  S4  1  0.07401400  0.11338900  0.56757200  1
  S  S5  1  0.42598600  0.11338900  0.06757200  1
  S  S6  1  0.25776700  0.86283800  0.53525800  1
  S  S7  1  0.99322600  0.71043000  0.21478000  1
  S  S8  1  0.24223300  0.86283800  0.03525800  1
  S  S9  1  0.99322600  0.21043000  0.28522000  1
  S  S10  1  0.75384300  0.47060700  0.79491600  1
  S  S11  1  0.74615700  0.47060700  0.29491600  1
  S  S12  1  0.57401400  0.88661100  0.93242800  1
  S  S13  1  0.08871100  0.12376500  0.02834400  1
  S  S14  1  0.25384300  0.52939300  0.70508400  1
  S  S15  1  0.75776700  0.63716200  0.53525800  1
  S  S16  1  0.91128900  0.87623500  0.97165600  1
  S  S17  1  0.24615700  0.02939300  0.29491600  1
  S  S18  1  0.50677400  0.21043000  0.78522000  1
  S  S19  1  0.74223300  0.63716200  0.03525800  1
  S  S20  1  0.41128900  0.62376500  0.97165600  1
  S  S21  1  0.25384300  0.02939300  0.79491600  1
  S  S22  1  0.24615700  0.52939300  0.20508400  1
  S  S23  1  0.57401400  0.38661100  0.56757200  1
  S  S24  1  0.92598600  0.88661100  0.43242800  1
  S  S25  1  0.91128900  0.37623500  0.52834400  1
  S  S26  1  0.92598600  0.38661100  0.06757200  1
  S  S27  1  0.07401400  0.61338900  0.93242800  1
  S  S28  1  0.25776700  0.36283800  0.96474200  1
  S  S29  1  0.42598600  0.61338900  0.43242800  1
  S  S30  1  0.74615700  0.97060700  0.20508400  1
  S  S31  1  0.41128900  0.12376500  0.52834400  1
  S  S32  1  0.75776700  0.13716200  0.96474200  1
  S  S33  1  0.50677400  0.71043000  0.71478000  1
  S  S34  1  0.00677400  0.28957000  0.78522000  1
  S  S35  1  0.08871100  0.62376500  0.47165600  1
  S  S36  1  0.49322600  0.28957000  0.28522000  1
  S  S37  1  0.58871100  0.87623500  0.47165600  1
  S  S38  1  0.49322600  0.78957000  0.21478000  1
  S  S39  1  0.75384300  0.97060700  0.70508400  1
loop_
_geom_bond_atom_site_label_1
_geom_bond_atom_site_label_2
_geom_bond_distance
_geom_bond_site_symmetry_2
Ga0 S14 2.267397 1_555
Ga0 S1 2.294924 1_555
Ga0 S35 2.320479 1_555
Ga0 S29 2.328070 1_555
Ga1 S38 2.256476 1_555
Ga1 S8 2.298511 1_555
Ga1 S12 2.329946 1_554
Ga1 S20 2.343050 1_554
Ga2 S21 2.267397 1_555
Ga2 S8 2.294924 1_546
Ga2 S13 2.320479 1_556
Ga2 S5 2.328070 1_556
Ga3 S33 2.256476 1_555
Ga3 S15 2.298511 1_555
Ga3 S29 2.329946 1_555
Ga3 S37 2.343050 1_555
Ga4 S7 2.256476 1_555
Ga4 S19 2.298511 1_555
Ga4 S27 2.329946 1_654
Ga4 S16 2.343050 1_554
Ga5 S18 2.256476 1_555
Ga5 S32 2.298511 1_555
Ga5 S5 2.329946 1_556
Ga5 S3 2.343050 1_556
Ga6 S22 2.267397 1_555
Ga6 S28 2.294924 1_554
Ga6 S20 2.320479 1_554
Ga6 S27 2.328070 1_554
Ga7 S34 2.256476 1_555
Ga7 S28 2.298511 1_555
Ga7 S26 2.329946 1_456
Ga7 S13 2.343050 1_556
Ga8 S9 2.256476 1_555
Ga8 S0 2.298511 1_555
Ga8 S4 2.329946 1_655
Ga8 S25 2.343050 1_555
Ga9 S10 2.267397 1_555
Ga9 S19 2.294924 1_556
Ga9 S3 2.320479 1_556
Ga9 S26 2.328070 1_556
Ga10 S36 2.256476 1_555
Ga10 S1 2.298511 1_555
Ga10 S23 2.329946 1_555
Ga10 S31 2.343050 1_555
Ga11 S30 2.267397 1_555
Ga11 S32 2.294924 1_564
Ga11 S16 2.320479 1_554
Ga11 S12 2.328070 1_554
Ga12 S17 2.267397 1_555
Ga12 S6 2.294924 1_545
Ga12 S31 2.320479 1_555
Ga12 S4 2.328070 1_555
Ga13 S2 2.256476 1_555
Ga13 S6 2.298511 1_555
Ga13 S24 2.329946 1_455
Ga13 S35 2.343050 1_555
Ga14 S11 2.267397 1_555
Ga14 S15 2.294924 1_555
Ga14 S25 2.320479 1_555
Ga14 S23 2.328070 1_555
Ga15 S39 2.267397 1_555
Ga15 S0 2.294924 1_565
Ga15 S37 2.320479 1_555
Ga15 S24 2.328070 1_555
Pb0 S2 2.846615 1_555
Pb0 S27 2.957174 1_555
Pb0 S14 3.024992 1_555
Pb0 S8 3.160189 1_556
Pb1 S21 2.928405 1_565
Pb1 S18 2.936681 1_565
Pb1 S31 2.956611 1_565
Pb1 S39 2.959993 1_555
Pb2 S17 2.928405 1_565
Pb2 S9 2.936681 1_465
Pb2 S13 2.956611 1_565
Pb2 S30 2.959993 1_455
Pb3 S38 2.846615 1_555
Pb3 S29 2.957174 1_555
Pb3 S22 3.024992 1_555
Pb3 S6 3.160189 1_555
Pb4 S30 2.928405 1_545
Pb4 S38 2.936681 1_545
Pb4 S37 2.956611 1_545
Pb4 S17 2.959993 1_555
Pb5 S18 2.846615 1_555
Pb5 S23 2.957174 1_555
Pb5 S10 3.024992 1_555
Pb5 S0 3.160189 1_555
Pb6 S7 2.846615 1_555
Pb6 S24 2.957174 1_555
Pb6 S30 3.024992 1_555
Pb6 S15 3.160189 1_555
Pb7 S10 2.928405 1_555
Pb7 S34 2.936681 1_655
Pb7 S25 2.956611 1_555
Pb7 S14 2.959993 1_655
Pb8 S14 2.928405 1_555
Pb8 S33 2.936681 1_555
Pb8 S20 2.956611 1_555
Pb8 S10 2.959993 1_555
Pb9 S36 2.846615 1_555
Pb9 S5 2.957174 1_555
Pb9 S17 3.024992 1_555
Pb9 S28 3.160189 1_554
Pb10 S22 2.928405 1_555
Pb10 S7 2.936681 1_455
Pb10 S35 2.956611 1_555
Pb10 S11 2.959993 1_455
Pb11 S9 2.846615 1_555
Pb11 S26 2.957174 1_555
Pb11 S11 3.024992 1_555
Pb11 S32 3.160189 1_554
Pb12 S11 2.928405 1_555
Pb12 S36 2.936681 1_555
Pb12 S3 2.956611 1_555
Pb12 S22 2.959993 1_555
Pb13 S39 2.928405 1_545
Pb13 S2 2.936681 1_645
Pb13 S16 2.956611 1_545
Pb13 S21 2.959993 1_655
Pb14 S33 2.846615 1_555
Pb14 S12 2.957174 1_555
Pb14 S39 3.024992 1_555
Pb14 S19 3.160189 1_556
Pb15 S34 2.846615 1_555
Pb15 S4 2.957174 1_555
Pb15 S21 3.024992 1_555
Pb15 S1 3.160189 1_555
