# generated using pymatgen
data_La2Ni22C3
_symmetry_space_group_name_H-M   'P 1'
_cell_length_a   9.42698316
_cell_length_b   9.42698308
_cell_length_c   14.70240261
_cell_angle_alpha   90.00000000
_cell_angle_beta   90.00000000
_cell_angle_gamma   105.59915260
_symmetry_Int_Tables_number   1
_chemical_formula_structural   La2Ni22C3
_chemical_formula_sum   'La8 Ni88 C12'
_cell_volume   1258.44766398
_cell_formula_units_Z   4
loop_
 _symmetry_equiv_pos_site_id
 _symmetry_equiv_pos_as_xyz
  1  'x, y, z'
loop_
 _atom_site_type_symbol
 _atom_site_label
 _atom_site_symmetry_multiplicity
 _atom_site_fract_x
 _atom_site_fract_y
 _atom_site_fract_z
 _atom_site_occupancy
  La  La0  1  0.31329960  0.18670040  0.75000000  1
  La  La1  1  0.79294686  0.20705314  0.97155129  1
  La  La2  1  0.20705314  0.79294686  0.02844871  1
  La  La3  1  0.68670040  0.81329960  0.25000000  1
  La  La4  1  0.81329960  0.68670040  0.75000000  1
  La  La5  1  0.29294686  0.70705314  0.52844871  1
  La  La6  1  0.70705314  0.29294686  0.47155129  1
  La  La7  1  0.18670040  0.31329960  0.25000000  1
  Ni  Ni0  1  0.36236990  0.28869954  0.07200356  1
  Ni  Ni1  1  0.57058209  0.06992222  0.31774116  1
  Ni  Ni2  1  0.25325352  0.10054644  0.95087648  1
  Ni  Ni3  1  0.09018736  0.46817083  0.95196167  1
  Ni  Ni4  1  0.21130046  0.13763010  0.42799644  1
  Ni  Ni5  1  0.82205974  0.39545977  0.65635762  1
  Ni  Ni6  1  0.89945356  0.74674648  0.95087648  1
  Ni  Ni7  1  0.76971119  0.00743505  0.42165103  1
  Ni  Ni8  1  0.84017132  0.15982868  0.28797046  1
  Ni  Ni9  1  0.93868589  0.06131411  0.15610502  1
  Ni  Ni10  1  0.32205974  0.89545977  0.84364238  1
  Ni  Ni11  1  0.53182917  0.90981264  0.95196167  1
  Ni  Ni12  1  0.54528036  0.79686086  0.79981470  1
  Ni  Ni13  1  0.67794026  0.10454023  0.15635762  1
  Ni  Ni14  1  0.86236990  0.78869954  0.42799644  1
  Ni  Ni15  1  0.56992222  0.07058209  0.81774116  1
  Ni  Ni16  1  0.44661541  0.29550782  0.36894447  1
  Ni  Ni17  1  0.78869954  0.86236990  0.57200356  1
  Ni  Ni18  1  0.29550782  0.44661541  0.63105553  1
  Ni  Ni19  1  0.14296325  0.85703675  0.41179880  1
  Ni  Ni20  1  0.00743505  0.76971119  0.57834897  1
  Ni  Ni21  1  0.04528036  0.29686086  0.70018530  1
  Ni  Ni22  1  0.24674648  0.39945356  0.45087648  1
  Ni  Ni23  1  0.06131411  0.93868589  0.84389498  1
  Ni  Ni24  1  0.03182917  0.40981264  0.54803833  1
  Ni  Ni25  1  0.06992222  0.57058209  0.68225884  1
  Ni  Ni26  1  0.20313914  0.45471964  0.79981470  1
  Ni  Ni27  1  0.65982868  0.34017132  0.78797046  1
  Ni  Ni28  1  0.67794506  0.32205494  0.26547483  1
  Ni  Ni29  1  0.17794026  0.60454023  0.34364238  1
  Ni  Ni30  1  0.50292609  0.49707391  0.17617189  1
  Ni  Ni31  1  0.00000000  0.00000000  0.00000000  1
  Ni  Ni32  1  0.15982868  0.84017132  0.71202954  1
  Ni  Ni33  1  0.07058209  0.56992222  0.18225884  1
  Ni  Ni34  1  0.23028881  0.99256495  0.57834897  1
  Ni  Ni35  1  0.05338459  0.20449218  0.86894447  1
  Ni  Ni36  1  0.43868589  0.56131411  0.34389498  1
  Ni  Ni37  1  0.60454023  0.17794026  0.65635762  1
  Ni  Ni38  1  0.39945356  0.24674648  0.54912352  1
  Ni  Ni39  1  0.59018736  0.96817083  0.54803833  1
  Ni  Ni40  1  0.26971119  0.50743505  0.07834897  1
  Ni  Ni41  1  0.49707391  0.50292609  0.82382811  1
  Ni  Ni42  1  0.93007778  0.42941791  0.31774116  1
  Ni  Ni43  1  0.64296325  0.35703675  0.08820120  1
  Ni  Ni44  1  0.35703675  0.64296325  0.91179880  1
  Ni  Ni45  1  0.56131411  0.43868589  0.65610502  1
  Ni  Ni46  1  0.17794506  0.82205494  0.23452517  1
  Ni  Ni47  1  0.94661541  0.79550782  0.13105553  1
  Ni  Ni48  1  0.60054644  0.75325352  0.45087648  1
  Ni  Ni49  1  0.70449218  0.55338459  0.36894447  1
  Ni  Ni50  1  0.55338459  0.70449218  0.63105553  1
  Ni  Ni51  1  0.45471964  0.20313914  0.20018530  1
  Ni  Ni52  1  0.75325352  0.60054644  0.54912352  1
  Ni  Ni53  1  0.39545977  0.82205974  0.34364238  1
  Ni  Ni54  1  0.99256495  0.23028881  0.42165103  1
  Ni  Ni55  1  0.90981264  0.53182917  0.04803833  1
  Ni  Ni56  1  0.10454023  0.67794026  0.84364238  1
  Ni  Ni57  1  0.50000000  0.50000000  0.00000000  1
  Ni  Ni58  1  0.50000000  0.50000000  0.50000000  1
  Ni  Ni59  1  0.82205494  0.17794506  0.76547483  1
  Ni  Ni60  1  0.79686086  0.54528036  0.20018530  1
  Ni  Ni61  1  0.89545977  0.32205974  0.15635762  1
  Ni  Ni62  1  0.96817083  0.59018736  0.45196167  1
  Ni  Ni63  1  0.40981264  0.03182917  0.45196167  1
  Ni  Ni64  1  0.49256495  0.73028881  0.07834897  1
  Ni  Ni65  1  0.50743505  0.26971119  0.92165103  1
  Ni  Ni66  1  0.73028881  0.49256495  0.92165103  1
  Ni  Ni67  1  0.20449218  0.05338459  0.13105553  1
  Ni  Ni68  1  0.42941791  0.93007778  0.68225884  1
  Ni  Ni69  1  0.34017132  0.65982868  0.21202954  1
  Ni  Ni70  1  0.28869954  0.36236990  0.92799644  1
  Ni  Ni71  1  0.74674648  0.89945356  0.04912352  1
  Ni  Ni72  1  0.71130046  0.63763010  0.07200356  1
  Ni  Ni73  1  0.29686086  0.04528036  0.29981470  1
  Ni  Ni74  1  0.92941791  0.43007778  0.81774116  1
  Ni  Ni75  1  0.95471964  0.70313914  0.29981470  1
  Ni  Ni76  1  0.32205494  0.67794506  0.73452517  1
  Ni  Ni77  1  0.43007778  0.92941791  0.18225884  1
  Ni  Ni78  1  0.63763010  0.71130046  0.92799644  1
  Ni  Ni79  1  0.85703675  0.14296325  0.58820120  1
  Ni  Ni80  1  0.00000000  0.00000000  0.50000000  1
  Ni  Ni81  1  0.00292609  0.99707391  0.32382811  1
  Ni  Ni82  1  0.10054644  0.25325352  0.04912352  1
  Ni  Ni83  1  0.13763010  0.21130046  0.57200356  1
  Ni  Ni84  1  0.46817083  0.09018736  0.04803833  1
  Ni  Ni85  1  0.79550782  0.94661541  0.86894447  1
  Ni  Ni86  1  0.70313914  0.95471964  0.70018530  1
  Ni  Ni87  1  0.99707391  0.00292609  0.67617189  1
  C  C0  1  0.05303223  0.94696777  0.20880975  1
  C  C1  1  0.94212199  0.56641609  0.91674780  1
  C  C2  1  0.55303223  0.44696777  0.29119025  1
  C  C3  1  0.06641609  0.44212199  0.41674780  1
  C  C4  1  0.43358391  0.05787801  0.91674780  1
  C  C5  1  0.05787801  0.43358391  0.08325220  1
  C  C6  1  0.44212199  0.06641609  0.58325220  1
  C  C7  1  0.44696777  0.55303223  0.70880975  1
  C  C8  1  0.94696777  0.05303223  0.79119025  1
  C  C9  1  0.56641609  0.94212199  0.08325220  1
  C  C10  1  0.93358391  0.55787801  0.58325220  1
  C  C11  1  0.55787801  0.93358391  0.41674780  1
loop_
_geom_bond_atom_site_label_1
_geom_bond_atom_site_label_2
_geom_bond_distance
_geom_bond_site_symmetry_2
La0 Ni18 3.051376 1_555
La0 Ni35 3.051376 1_555
La0 Ni26 3.067531 1_555
La0 Ni21 3.067531 1_555
La0 Ni2 3.074925 1_555
La0 Ni38 3.074925 1_555
La0 Ni68 3.076816 1_545
La0 Ni15 3.076816 1_555
La0 Ni34 3.091995 1_545
La0 Ni65 3.091995 1_555
La0 Ni10 3.092269 1_545
La0 Ni37 3.092269 1_555
La0 Ni70 3.138682 1_555
La0 Ni83 3.138683 1_555
La0 Ni45 3.166699 1_555
La0 Ni23 3.166699 1_545
La0 Ni41 3.207601 1_555
La0 Ni87 3.207601 1_455
La0 Ni32 3.245685 1_545
La0 Ni27 3.245685 1_555
La1 Ni43 2.831018 1_556
La1 Ni85 2.887206 1_545
La1 Ni35 2.887206 1_655
La1 Ni61 2.988053 1_556
La1 Ni13 2.988053 1_556
La1 Ni66 2.997736 1_555
La1 Ni65 2.997736 1_555
La1 Ni71 3.036392 1_546
La1 Ni82 3.036392 1_656
La1 Ni59 3.061191 1_555
La1 Ni74 3.120024 1_555
La1 Ni15 3.120024 1_555
La1 Ni31 3.137460 1_656
La1 Ni55 3.168286 1_556
La1 Ni84 3.168286 1_556
La1 Ni11 3.206917 1_545
La1 Ni3 3.206917 1_655
La1 Ni27 3.358798 1_555
La2 Ni44 2.831018 1_554
La2 Ni67 2.887206 1_565
La2 Ni47 2.887206 1_455
La2 Ni56 2.988053 1_554
La2 Ni10 2.988053 1_554
La2 Ni40 2.997736 1_555
La2 Ni64 2.997736 1_555
La2 Ni2 3.036392 1_564
La2 Ni6 3.036392 1_454
La2 Ni46 3.061191 1_555
La2 Ni33 3.120024 1_555
La2 Ni77 3.120024 1_555
La2 Ni31 3.137460 1_565
La2 Ni3 3.168286 1_554
La2 Ni11 3.168286 1_554
La2 Ni84 3.206917 1_565
La2 Ni55 3.206917 1_455
La2 Ni69 3.358798 1_555
La3 Ni49 3.051376 1_555
La3 Ni47 3.051376 1_555
La3 Ni60 3.067531 1_555
La3 Ni75 3.067531 1_555
La3 Ni71 3.074925 1_555
La3 Ni48 3.074925 1_555
La3 Ni1 3.076816 1_565
La3 Ni77 3.076816 1_555
La3 Ni7 3.091995 1_565
La3 Ni64 3.091995 1_555
La3 Ni13 3.092269 1_565
La3 Ni53 3.092269 1_555
La3 Ni72 3.138682 1_555
La3 Ni14 3.138683 1_555
La3 Ni36 3.166699 1_555
La3 Ni9 3.166699 1_565
La3 Ni30 3.207601 1_555
La3 Ni81 3.207601 1_655
La3 Ni8 3.245685 1_565
La3 Ni69 3.245685 1_555
La4 Ni85 3.051376 1_555
La4 Ni50 3.051376 1_555
La4 Ni86 3.067531 1_555
La4 Ni12 3.067531 1_555
La4 Ni52 3.074925 1_555
La4 Ni6 3.074925 1_555
La4 Ni74 3.076816 1_555
La4 Ni25 3.076816 1_655
La4 Ni66 3.091995 1_555
La4 Ni20 3.091995 1_655
La4 Ni5 3.092269 1_555
La4 Ni56 3.092269 1_655
La4 Ni17 3.138682 1_555
La4 Ni78 3.138683 1_555
La4 Ni23 3.166699 1_655
La4 Ni45 3.166699 1_555
La4 Ni87 3.207601 1_565
La4 Ni41 3.207601 1_555
La4 Ni27 3.245685 1_555
La4 Ni32 3.245685 1_655
La5 Ni19 2.831018 1_555
La5 Ni18 2.887206 1_555
La5 Ni50 2.887206 1_555
La5 Ni53 2.988053 1_555
La5 Ni29 2.988053 1_555
La5 Ni34 2.997736 1_555
La5 Ni20 2.997736 1_555
La5 Ni22 3.036392 1_555
La5 Ni48 3.036392 1_555
La5 Ni76 3.061191 1_555
La5 Ni68 3.120024 1_555
La5 Ni25 3.120024 1_555
La5 Ni58 3.137460 1_555
La5 Ni63 3.168286 1_565
La5 Ni62 3.168286 1_455
La5 Ni24 3.206917 1_555
La5 Ni39 3.206917 1_555
La5 Ni32 3.358798 1_555
La6 Ni79 2.831018 1_555
La6 Ni49 2.887206 1_555
La6 Ni16 2.887206 1_555
La6 Ni37 2.988053 1_555
La6 Ni5 2.988053 1_555
La6 Ni7 2.997736 1_555
La6 Ni54 2.997736 1_555
La6 Ni52 3.036392 1_555
La6 Ni38 3.036392 1_555
La6 Ni28 3.061191 1_555
La6 Ni1 3.120024 1_555
La6 Ni42 3.120024 1_555
La6 Ni58 3.137460 1_555
La6 Ni39 3.168286 1_545
La6 Ni24 3.168286 1_655
La6 Ni62 3.206917 1_555
La6 Ni63 3.206917 1_555
La6 Ni8 3.358798 1_555
La7 Ni67 3.051376 1_555
La7 Ni16 3.051376 1_555
La7 Ni73 3.067531 1_555
La7 Ni51 3.067531 1_555
La7 Ni22 3.074925 1_555
La7 Ni82 3.074925 1_555
La7 Ni33 3.076816 1_555
La7 Ni42 3.076816 1_455
La7 Ni40 3.091995 1_555
La7 Ni54 3.091995 1_455
La7 Ni29 3.092269 1_555
La7 Ni61 3.092269 1_455
La7 Ni4 3.138682 1_555
La7 Ni0 3.138683 1_555
La7 Ni9 3.166699 1_455
La7 Ni36 3.166699 1_555
La7 Ni81 3.207601 1_545
La7 Ni30 3.207601 1_555
La7 Ni69 3.245685 1_555
La7 Ni8 3.245685 1_455
Ni0 Ni51 2.310359 1_555
Ni0 Ni57 2.319888 1_555
Ni0 Ni84 2.371658 1_555
Ni0 Ni70 2.388886 1_554
Ni0 Ni82 2.423488 1_555
Ni0 Ni40 2.447914 1_555
Ni0 Ni67 2.472680 1_555
Ni0 Ni2 2.528711 1_554
Ni0 Ni43 2.559704 1_555
Ni0 Ni30 2.561264 1_555
Ni0 Ni65 2.630651 1_554
Ni1 Ni8 2.492042 1_555
Ni1 Ni73 2.541523 1_555
Ni1 Ni51 2.548528 1_555
Ni2 Ni70 2.423488 1_555
Ni2 Ni31 2.429564 1_556
Ni3 Ni70 2.371658 1_555
Ni3 Ni44 2.676322 1_555
Ni4 Ni73 2.310359 1_555
Ni4 Ni80 2.319888 1_555
Ni4 Ni63 2.371658 1_555
Ni4 Ni83 2.388886 1_555
Ni4 Ni54 2.447914 1_455
Ni4 Ni81 2.561264 1_545
Ni5 Ni79 2.683409 1_555
Ni6 Ni78 2.423488 1_555
Ni6 Ni72 2.528711 1_556
Ni7 Ni8 2.419659 1_555
Ni7 Ni80 2.475196 1_655
Ni7 Ni79 2.782162 1_555
Ni8 Ni9 2.438751 1_555
Ni8 Ni81 2.500406 1_645
Ni10 Ni32 2.434378 1_555
Ni10 Ni12 2.599837 1_555
Ni10 Ni44 2.683409 1_555
Ni11 Ni78 2.371658 1_555
Ni11 Ni12 2.495260 1_555
Ni11 Ni44 2.676322 1_555
Ni12 Ni76 2.310340 1_555
Ni12 Ni78 2.310359 1_555
Ni12 Ni86 2.320277 1_555
Ni12 Ni15 2.541523 1_565
Ni12 Ni68 2.548528 1_555
Ni12 Ni44 2.565157 1_555
Ni12 Ni85 2.607564 1_555
Ni12 Ni50 2.637426 1_555
Ni12 Ni41 2.707754 1_555
Ni13 Ni8 2.434378 1_555
Ni13 Ni51 2.599837 1_555
Ni13 Ni43 2.683409 1_555
Ni14 Ni75 2.310359 1_555
Ni14 Ni80 2.319888 1_665
Ni14 Ni62 2.371658 1_555
Ni14 Ni17 2.388886 1_555
Ni14 Ni48 2.423488 1_555
Ni14 Ni7 2.447914 1_565
Ni14 Ni49 2.472680 1_555
Ni14 Ni52 2.528711 1_555
Ni14 Ni19 2.559704 1_655
Ni14 Ni81 2.561264 1_655
Ni14 Ni20 2.630651 1_655
Ni15 Ni27 2.492042 1_555
Ni15 Ni86 2.548528 1_545
Ni16 Ni4 2.472680 1_555
Ni16 Ni73 2.607564 1_555
Ni16 Ni51 2.637426 1_555
Ni16 Ni58 2.675890 1_555
Ni17 Ni86 2.310359 1_555
Ni17 Ni80 2.319888 1_665
Ni17 Ni39 2.371658 1_555
Ni17 Ni52 2.423488 1_555
Ni17 Ni20 2.447914 1_655
Ni17 Ni50 2.472680 1_555
Ni17 Ni48 2.528711 1_555
Ni17 Ni79 2.559704 1_565
Ni17 Ni87 2.561264 1_565
Ni17 Ni7 2.630651 1_565
Ni18 Ni83 2.472680 1_555
Ni18 Ni21 2.607564 1_555
Ni18 Ni26 2.637426 1_555
Ni18 Ni58 2.675890 1_555
Ni19 Ni81 2.468921 1_555
Ni19 Ni80 2.508208 1_565
Ni19 Ni4 2.559704 1_565
Ni19 Ni73 2.565157 1_565
Ni19 Ni75 2.565157 1_455
Ni19 Ni46 2.658766 1_555
Ni19 Ni62 2.676322 1_455
Ni19 Ni63 2.676322 1_565
Ni19 Ni29 2.683409 1_555
Ni19 Ni53 2.683409 1_555
Ni19 Ni34 2.782162 1_555
Ni19 Ni20 2.782162 1_555
Ni20 Ni32 2.419659 1_555
Ni20 Ni80 2.475196 1_565
Ni21 Ni59 2.310340 1_455
Ni21 Ni83 2.310359 1_555
Ni21 Ni26 2.320277 1_555
Ni21 Ni24 2.495260 1_555
Ni21 Ni25 2.541523 1_555
Ni21 Ni74 2.548528 1_455
Ni21 Ni79 2.565157 1_455
Ni21 Ni5 2.599837 1_455
Ni21 Ni35 2.637426 1_555
Ni21 Ni87 2.707754 1_455
Ni22 Ni4 2.423488 1_555
Ni22 Ni58 2.429564 1_555
Ni22 Ni83 2.528711 1_555
Ni23 Ni32 2.438751 1_555
Ni23 Ni31 2.472940 1_566
Ni24 Ni83 2.371658 1_555
Ni24 Ni79 2.676322 1_455
Ni25 Ni32 2.492042 1_555
Ni25 Ni26 2.548528 1_555
Ni26 Ni76 2.310340 1_555
Ni26 Ni70 2.310359 1_555
Ni26 Ni3 2.495260 1_555
Ni26 Ni74 2.541523 1_455
Ni26 Ni44 2.565157 1_555
Ni26 Ni56 2.599837 1_555
Ni26 Ni35 2.607564 1_555
Ni26 Ni41 2.707754 1_555
Ni27 Ni66 2.419659 1_555
Ni27 Ni65 2.419659 1_555
Ni27 Ni37 2.434378 1_555
Ni27 Ni5 2.434378 1_555
Ni27 Ni45 2.438751 1_555
Ni27 Ni59 2.458607 1_555
Ni27 Ni74 2.492042 1_555
Ni27 Ni41 2.500406 1_555
Ni28 Ni60 2.310340 1_555
Ni28 Ni51 2.310340 1_555
Ni28 Ni8 2.458607 1_555
Ni28 Ni43 2.658766 1_555
Ni29 Ni69 2.434378 1_555
Ni29 Ni75 2.599837 1_455
Ni30 Ni43 2.468921 1_555
Ni30 Ni69 2.500406 1_555
Ni30 Ni72 2.561264 1_555
Ni30 Ni57 2.590523 1_555
Ni30 Ni51 2.707754 1_555
Ni30 Ni60 2.707754 1_555
Ni31 Ni6 2.429564 1_444
Ni31 Ni82 2.429564 1_555
Ni31 Ni71 2.429564 1_445
Ni31 Ni9 2.472940 1_455
Ni31 Ni47 2.675890 1_445
Ni31 Ni35 2.675890 1_554
Ni31 Ni67 2.675890 1_555
Ni31 Ni85 2.675890 1_444
Ni32 Ni34 2.419659 1_555
Ni32 Ni56 2.434378 1_555
Ni32 Ni76 2.458607 1_555
Ni32 Ni68 2.492042 1_555
Ni32 Ni87 2.500406 1_465
Ni33 Ni69 2.492042 1_555
Ni33 Ni60 2.541523 1_455
Ni33 Ni75 2.548528 1_455
Ni34 Ni83 2.447914 1_565
Ni34 Ni80 2.475196 1_565
Ni34 Ni4 2.630651 1_565
Ni35 Ni70 2.472680 1_555
Ni36 Ni69 2.438751 1_555
Ni36 Ni58 2.472940 1_555
Ni37 Ni86 2.599837 1_545
Ni37 Ni79 2.683409 1_555
Ni38 Ni83 2.423488 1_555
Ni38 Ni58 2.429564 1_555
Ni38 Ni4 2.528711 1_555
Ni39 Ni86 2.495260 1_555
Ni39 Ni79 2.676322 1_565
Ni40 Ni69 2.419659 1_555
Ni40 Ni57 2.475196 1_555
Ni40 Ni70 2.630651 1_554
Ni40 Ni44 2.782162 1_554
Ni41 Ni44 2.468921 1_555
Ni41 Ni78 2.561264 1_555
Ni41 Ni70 2.561264 1_555
Ni41 Ni57 2.590523 1_556
Ni42 Ni8 2.492042 1_555
Ni42 Ni75 2.541523 1_555
Ni42 Ni60 2.548528 1_555
Ni43 Ni57 2.508208 1_555
Ni43 Ni72 2.559704 1_555
Ni43 Ni60 2.565157 1_555
Ni43 Ni51 2.565157 1_555
Ni43 Ni84 2.676322 1_555
Ni43 Ni55 2.676322 1_555
Ni43 Ni61 2.683409 1_555
Ni43 Ni66 2.782162 1_554
Ni43 Ni65 2.782162 1_554
Ni44 Ni57 2.508208 1_556
Ni44 Ni70 2.559704 1_555
Ni44 Ni78 2.559704 1_555
Ni44 Ni76 2.658766 1_555
Ni44 Ni56 2.683409 1_555
Ni44 Ni64 2.782162 1_556
Ni45 Ni58 2.472940 1_555
Ni46 Ni73 2.310340 1_565
Ni46 Ni75 2.310340 1_455
Ni46 Ni69 2.458607 1_555
Ni47 Ni72 2.472680 1_555
Ni47 Ni60 2.607564 1_555
Ni47 Ni75 2.637426 1_555
Ni48 Ni58 2.429564 1_555
Ni49 Ni75 2.607564 1_555
Ni49 Ni60 2.637426 1_555
Ni49 Ni58 2.675890 1_555
Ni50 Ni86 2.607564 1_555
Ni50 Ni58 2.675890 1_555
Ni51 Ni73 2.320277 1_555
Ni51 Ni84 2.495260 1_555
Ni51 Ni77 2.541523 1_545
Ni51 Ni67 2.607564 1_555
Ni52 Ni58 2.429564 1_555
Ni53 Ni69 2.434378 1_555
Ni53 Ni73 2.599837 1_565
Ni54 Ni8 2.419659 1_555
Ni54 Ni80 2.475196 1_655
Ni54 Ni83 2.630651 1_655
Ni54 Ni79 2.782162 1_555
Ni55 Ni72 2.371658 1_555
Ni55 Ni60 2.495260 1_555
Ni57 Ni78 2.319888 1_554
Ni57 Ni72 2.319888 1_555
Ni57 Ni70 2.319888 1_554
Ni57 Ni65 2.475196 1_554
Ni57 Ni64 2.475196 1_555
Ni57 Ni66 2.475196 1_554
Ni59 Ni86 2.310340 1_545
Ni59 Ni79 2.658766 1_555
Ni60 Ni72 2.310359 1_555
Ni60 Ni75 2.320277 1_555
Ni60 Ni61 2.599837 1_555
Ni61 Ni8 2.434378 1_555
Ni62 Ni75 2.495260 1_555
Ni63 Ni73 2.495260 1_555
Ni64 Ni69 2.419659 1_555
Ni64 Ni72 2.447914 1_555
Ni64 Ni78 2.630651 1_554
Ni65 Ni70 2.447914 1_555
Ni66 Ni78 2.447914 1_555
Ni66 Ni72 2.630651 1_556
Ni67 Ni73 2.637426 1_555
Ni68 Ni86 2.541523 1_555
Ni69 Ni77 2.492042 1_555
Ni70 Ni82 2.528711 1_556
Ni71 Ni72 2.423488 1_555
Ni71 Ni78 2.528711 1_554
Ni72 Ni78 2.388886 1_554
Ni73 Ni77 2.548528 1_545
Ni73 Ni81 2.707754 1_545
Ni75 Ni81 2.707754 1_655
Ni78 Ni85 2.472680 1_555
Ni79 Ni87 2.468921 1_555
Ni79 Ni80 2.508208 1_655
Ni79 Ni83 2.559704 1_655
Ni79 Ni86 2.565157 1_545
Ni80 Ni83 2.319888 1_555
Ni80 Ni87 2.590523 1_455
Ni80 Ni81 2.590523 1_545
Ni83 Ni87 2.561264 1_455
Ni85 Ni86 2.637426 1_555
Ni86 Ni87 2.707754 1_565
C0 Ni81 1.850908 1_555
C0 Ni9 1.883952 1_465
C0 Ni47 1.892495 1_455
C0 Ni67 1.892495 1_565
C0 Ni46 1.913620 1_555
C0 Ni75 2.605165 1_455
C0 Ni73 2.605165 1_565
C1 Ni6 1.916043 1_555
C1 Ni74 1.924143 1_555
C1 Ni66 1.931317 1_555
C1 Ni56 1.933687 1_655
C1 Ni3 1.941479 1_655
C1 Ni55 1.967657 1_556
C1 La4 3.084064 1_555
C2 Ni30 1.850908 1_555
C2 Ni36 1.883952 1_555
C2 Ni16 1.892495 1_555
C2 Ni49 1.892495 1_555
C2 Ni28 1.913620 1_555
C2 Ni51 2.605165 1_555
C2 Ni60 2.605165 1_555
C3 Ni22 1.916043 1_555
C3 Ni42 1.924143 1_455
C3 Ni54 1.931317 1_455
C3 Ni29 1.933687 1_555
C3 Ni62 1.941479 1_455
C3 Ni24 1.967657 1_555
C3 La7 3.084064 1_555
C4 Ni2 1.916043 1_555
C4 Ni15 1.924143 1_555
C4 Ni65 1.931317 1_555
C4 Ni10 1.933687 1_545
C4 Ni11 1.941479 1_545
C4 Ni84 1.967657 1_556
C4 La0 3.084064 1_555
C5 Ni82 1.916043 1_555
C5 Ni33 1.924143 1_555
C5 Ni40 1.931317 1_555
C5 Ni61 1.933687 1_455
C5 Ni55 1.941479 1_455
C5 Ni3 1.967657 1_554
C5 La7 3.084064 1_555
C6 Ni38 1.916043 1_555
C6 Ni68 1.924143 1_545
C6 Ni34 1.931317 1_545
C6 Ni37 1.933687 1_555
C6 Ni39 1.941479 1_545
C6 Ni63 1.967657 1_555
C6 La0 3.084064 1_555
C7 Ni41 1.850908 1_555
C7 Ni45 1.883952 1_555
C7 Ni50 1.892495 1_555
C7 Ni18 1.892495 1_555
C7 Ni76 1.913620 1_555
C7 Ni12 2.605165 1_555
C7 Ni26 2.605165 1_555
C8 Ni87 1.850908 1_555
C8 Ni23 1.883952 1_645
C8 Ni35 1.892495 1_655
C8 Ni85 1.892495 1_545
C8 Ni59 1.913620 1_555
C8 Ni21 2.605165 1_655
C8 Ni86 2.605165 1_545
C9 Ni71 1.916043 1_555
C9 Ni77 1.924143 1_555
C9 Ni64 1.931317 1_555
C9 Ni13 1.933687 1_565
C9 Ni84 1.941479 1_565
C9 Ni11 1.967657 1_554
C9 La3 3.084064 1_555
C10 Ni52 1.916043 1_555
C10 Ni25 1.924143 1_655
C10 Ni20 1.931317 1_655
C10 Ni5 1.933687 1_555
C10 Ni24 1.941479 1_655
C10 Ni62 1.967657 1_555
C10 La4 3.084064 1_555
C11 Ni48 1.916043 1_555
C11 Ni1 1.924143 1_565
C11 Ni7 1.931317 1_565
C11 Ni53 1.933687 1_555
C11 Ni63 1.941479 1_565
C11 Ni39 1.967657 1_555
C11 La3 3.084064 1_555
