# generated using pymatgen
data_NdBC
_symmetry_space_group_name_H-M   'P 1'
_cell_length_a   8.44645864
_cell_length_b   8.49625291
_cell_length_c   12.27636444
_cell_angle_alpha   90.00000000
_cell_angle_beta   90.00000000
_cell_angle_gamma   90.00000000
_symmetry_Int_Tables_number   1
_chemical_formula_structural   NdBC
_chemical_formula_sum   'Nd20 B20 C20'
_cell_volume   880.99179566
_cell_formula_units_Z   20
loop_
 _symmetry_equiv_pos_site_id
 _symmetry_equiv_pos_as_xyz
  1  'x, y, z'
loop_
 _atom_site_type_symbol
 _atom_site_label
 _atom_site_symmetry_multiplicity
 _atom_site_fract_x
 _atom_site_fract_y
 _atom_site_fract_z
 _atom_site_occupancy
  Nd  Nd0  1  0.84219874  0.09344965  0.09544884  1
  Nd  Nd1  1  0.45163019  0.90322026  0.14019934  1
  Nd  Nd2  1  0.25483179  0.71106604  0.67399915  1
  Nd  Nd3  1  0.33939447  0.00888649  0.42070630  1
  Nd  Nd4  1  0.74516821  0.21106604  0.82600085  1
  Nd  Nd5  1  0.56310535  0.80102983  0.86560201  1
  Nd  Nd6  1  0.24516821  0.28893396  0.17399915  1
  Nd  Nd7  1  0.83939447  0.49111351  0.57929370  1
  Nd  Nd8  1  0.43689465  0.30102983  0.63439799  1
  Nd  Nd9  1  0.34219874  0.40655035  0.90455116  1
  Nd  Nd10  1  0.15780126  0.59344965  0.40455116  1
  Nd  Nd11  1  0.93689465  0.19897017  0.36560201  1
  Nd  Nd12  1  0.06310535  0.69897017  0.13439799  1
  Nd  Nd13  1  0.65780126  0.90655035  0.59544884  1
  Nd  Nd14  1  0.04836981  0.09677974  0.64019934  1
  Nd  Nd15  1  0.75483179  0.78893396  0.32600085  1
  Nd  Nd16  1  0.16060553  0.99111351  0.92070630  1
  Nd  Nd17  1  0.54836981  0.40322026  0.35980066  1
  Nd  Nd18  1  0.66060553  0.50888649  0.07929370  1
  Nd  Nd19  1  0.95163019  0.59677974  0.85980066  1
  B  B0  1  0.06157881  0.29732279  0.82109427  1
  B  B1  1  0.51788590  0.61025356  0.54082832  1
  B  B2  1  0.11620626  0.39643517  0.71341976  1
  B  B3  1  0.68302079  0.19156317  0.50828226  1
  B  B4  1  0.40500891  0.02324139  0.73995272  1
  B  B5  1  0.18302079  0.30843683  0.49171774  1
  B  B6  1  0.38379374  0.60356483  0.21341976  1
  B  B7  1  0.48211410  0.11025356  0.95917168  1
  B  B8  1  0.88379374  0.89643517  0.78658024  1
  B  B9  1  0.98211410  0.38974644  0.04082832  1
  B  B10  1  0.09499109  0.97675861  0.23995272  1
  B  B11  1  0.61620626  0.10356483  0.28658024  1
  B  B12  1  0.01788590  0.88974644  0.45917168  1
  B  B13  1  0.93842119  0.79732279  0.67890573  1
  B  B14  1  0.59499109  0.52324139  0.76004728  1
  B  B15  1  0.81697921  0.80843683  0.00828226  1
  B  B16  1  0.43842119  0.70267721  0.32109427  1
  B  B17  1  0.90500891  0.47675861  0.26004728  1
  B  B18  1  0.56157881  0.20267721  0.17890573  1
  B  B19  1  0.31697921  0.69156317  0.99171774  1
  C  C0  1  0.47550458  0.69497259  0.43939885  1
  C  C1  1  0.14486050  0.39549887  0.59304892  1
  C  C2  1  0.85437204  0.49712883  0.37325968  1
  C  C3  1  0.24438950  0.29870156  0.38077923  1
  C  C4  1  0.75561050  0.79870156  0.11922077  1
  C  C5  1  0.55579377  0.61007682  0.65866275  1
  C  C6  1  0.05579377  0.88992318  0.34133725  1
  C  C7  1  0.64486050  0.10450113  0.40695108  1
  C  C8  1  0.97550458  0.80502741  0.56060115  1
  C  C9  1  0.14562796  0.99712883  0.12674032  1
  C  C10  1  0.25561050  0.70129844  0.88077923  1
  C  C11  1  0.94420623  0.38992318  0.15866275  1
  C  C12  1  0.35513950  0.60450113  0.09304892  1
  C  C13  1  0.52449542  0.19497259  0.06060115  1
  C  C14  1  0.85513950  0.89549887  0.90695108  1
  C  C15  1  0.02449542  0.30502741  0.93939885  1
  C  C16  1  0.64562796  0.50287117  0.87325968  1
  C  C17  1  0.74438950  0.20129844  0.61922077  1
  C  C18  1  0.44420623  0.11007682  0.84133725  1
  C  C19  1  0.35437204  0.00287117  0.62674032  1
loop_
_geom_bond_atom_site_label_1
_geom_bond_atom_site_label_2
_geom_bond_distance
_geom_bond_site_symmetry_2
B0 C15 1.487184 1_555
B0 Nd9 2.743900 1_555
B0 Nd19 2.749818 1_455
B0 Nd4 2.771864 1_455
B0 Nd14 2.801295 1_555
B0 Nd16 2.993913 1_545
B1 C5 1.481591 1_555
B1 C0 1.482138 1_555
B1 Nd17 2.845926 1_555
B1 Nd13 2.860702 1_555
B1 Nd2 2.888446 1_555
B1 Nd7 2.936351 1_555
B1 Nd8 2.947861 1_555
B2 C1 1.497426 1_555
B2 Nd14 2.760098 1_555
B2 Nd19 2.838846 1_455
B2 Nd2 2.958226 1_555
B2 Nd7 2.970677 1_455
B2 Nd8 2.989164 1_555
B2 Nd9 3.025992 1_555
B3 C17 1.459574 1_555
B3 C7 1.482744 1_555
B3 Nd13 2.655998 1_545
B3 Nd8 2.753881 1_555
B3 Nd11 2.769516 1_555
B3 Nd17 2.801787 1_555
B3 Nd7 2.996965 1_555
B4 C19 1.464421 1_555
B4 C18 1.484264 1_555
B4 Nd8 2.705931 1_555
B4 Nd5 2.779738 1_545
B4 Nd13 2.947718 1_545
B4 Nd16 3.043020 1_545
B4 Nd2 3.049487 1_545
B5 C3 1.459574 1_555
B5 C1 1.482744 1_555
B5 Nd10 2.655998 1_555
B5 Nd11 2.753881 1_455
B5 Nd8 2.769516 1_555
B5 Nd14 2.801787 1_555
B5 Nd3 2.996965 1_555
B6 C12 1.497426 1_555
B6 Nd1 2.760098 1_555
B6 Nd17 2.838846 1_555
B6 Nd6 2.958226 1_555
B6 Nd18 2.970677 1_555
B6 Nd12 2.989164 1_555
B6 Nd10 3.025992 1_555
B7 C18 1.481591 1_555
B7 C13 1.482138 1_556
B7 Nd1 2.845926 1_546
B7 Nd9 2.860702 1_555
B7 Nd4 2.888446 1_555
B7 Nd16 2.936351 1_545
B7 Nd5 2.947861 1_545
B8 C14 1.497426 1_555
B8 Nd19 2.760098 1_555
B8 Nd14 2.838846 1_665
B8 Nd4 2.958226 1_565
B8 Nd16 2.970677 1_655
B8 Nd5 2.989164 1_555
B8 Nd13 3.025992 1_555
B9 C11 1.481591 1_555
B9 C15 1.482138 1_654
B9 Nd19 2.845926 1_554
B9 Nd0 2.860702 1_555
B9 Nd6 2.888446 1_655
B9 Nd18 2.936351 1_555
B9 Nd12 2.947861 1_655
B10 C9 1.464421 1_555
B10 C6 1.484264 1_555
B10 Nd12 2.705931 1_555
B10 Nd11 2.779738 1_465
B10 Nd0 2.947718 1_465
B10 Nd3 3.043020 1_565
B10 Nd6 3.049487 1_565
B11 C7 1.497426 1_555
B11 Nd17 2.760098 1_555
B11 Nd1 2.838846 1_545
B11 Nd15 2.958226 1_545
B11 Nd3 2.970677 1_555
B11 Nd11 2.989164 1_555
B11 Nd0 3.025992 1_555
B12 C6 1.481591 1_555
B12 C8 1.482138 1_455
B12 Nd14 2.845926 1_565
B12 Nd10 2.860702 1_555
B12 Nd15 2.888446 1_455
B12 Nd3 2.936351 1_565
B12 Nd11 2.947861 1_465
B13 C8 1.487184 1_555
B13 Nd13 2.743900 1_555
B13 Nd14 2.749818 1_665
B13 Nd2 2.771864 1_655
B13 Nd19 2.801295 1_555
B13 Nd7 2.993913 1_555
B14 C16 1.464421 1_555
B14 C5 1.484264 1_555
B14 Nd5 2.705931 1_555
B14 Nd8 2.779738 1_555
B14 Nd9 2.947718 1_555
B14 Nd7 3.043020 1_555
B14 Nd4 3.049487 1_555
B15 C4 1.459574 1_555
B15 C14 1.482744 1_554
B15 Nd0 2.655998 1_565
B15 Nd12 2.753881 1_655
B15 Nd5 2.769516 1_554
B15 Nd19 2.801787 1_554
B15 Nd18 2.996965 1_555
B16 C0 1.487184 1_555
B16 Nd10 2.743900 1_555
B16 Nd17 2.749818 1_555
B16 Nd15 2.771864 1_555
B16 Nd1 2.801295 1_555
B16 Nd3 2.993913 1_565
B17 C2 1.464421 1_555
B17 C11 1.484264 1_555
B17 Nd11 2.705931 1_555
B17 Nd12 2.779738 1_655
B17 Nd10 2.947718 1_655
B17 Nd18 3.043020 1_555
B17 Nd15 3.049487 1_555
B18 C13 1.487184 1_555
B18 Nd0 2.743900 1_555
B18 Nd1 2.749818 1_545
B18 Nd6 2.771864 1_555
B18 Nd17 2.801295 1_555
B18 Nd18 2.993913 1_555
B19 C10 1.459574 1_555
B19 C12 1.482744 1_556
B19 Nd9 2.655998 1_555
B19 Nd5 2.753881 1_555
B19 Nd12 2.769516 1_556
B19 Nd1 2.801787 1_556
B19 Nd16 2.996965 1_555
C0 Nd17 2.734614 1_555
C0 Nd10 2.850971 1_555
C0 Nd15 2.853369 1_555
C0 Nd3 2.913371 1_565
C0 Nd13 3.045046 1_555
C1 Nd8 2.643157 1_555
C1 Nd7 2.710240 1_455
C1 Nd14 2.727763 1_555
C1 Nd10 2.862768 1_555
C1 Nd2 3.006474 1_555
C2 Nd7 2.533026 1_555
C2 Nd11 2.629057 1_555
C2 Nd15 2.681447 1_555
C2 Nd17 2.710025 1_555
C2 Nd10 2.717675 1_655
C3 Nd6 2.539872 1_555
C3 Nd10 2.625138 1_555
C3 Nd3 2.635777 1_555
C3 Nd17 2.728965 1_555
C3 Nd11 2.738316 1_455
C4 Nd15 2.539872 1_555
C4 Nd0 2.625138 1_565
C4 Nd18 2.635777 1_555
C4 Nd1 2.728965 1_555
C4 Nd12 2.738316 1_655
C5 Nd2 2.689563 1_555
C5 Nd13 2.772998 1_555
C5 Nd7 2.776514 1_555
C5 Nd8 2.826981 1_555
C5 Nd5 3.014945 1_555
C6 Nd15 2.689563 1_455
C6 Nd10 2.772998 1_555
C6 Nd3 2.776514 1_565
C6 Nd11 2.826981 1_465
C6 Nd12 3.014945 1_555
C7 Nd11 2.643157 1_555
C7 Nd3 2.710240 1_555
C7 Nd17 2.727763 1_555
C7 Nd13 2.862768 1_545
C7 Nd15 3.006474 1_545
C8 Nd14 2.734614 1_665
C8 Nd13 2.850971 1_555
C8 Nd2 2.853369 1_655
C8 Nd7 2.913371 1_555
C8 Nd10 3.045046 1_655
C9 Nd16 2.533026 1_554
C9 Nd12 2.629057 1_555
C9 Nd6 2.681447 1_565
C9 Nd1 2.710025 1_555
C9 Nd0 2.717675 1_465
C10 Nd2 2.539872 1_555
C10 Nd9 2.625138 1_555
C10 Nd16 2.635777 1_555
C10 Nd19 2.728965 1_455
C10 Nd5 2.738316 1_555
C11 Nd6 2.689563 1_655
C11 Nd0 2.772998 1_555
C11 Nd18 2.776514 1_555
C11 Nd12 2.826981 1_655
C11 Nd11 3.014945 1_555
C12 Nd12 2.643157 1_555
C12 Nd18 2.710240 1_555
C12 Nd1 2.727763 1_555
C12 Nd9 2.862768 1_554
C12 Nd6 3.006474 1_555
C13 Nd1 2.734614 1_545
C13 Nd0 2.850971 1_555
C13 Nd6 2.853369 1_555
C13 Nd18 2.913371 1_555
C13 Nd9 3.045046 1_554
C14 Nd5 2.643157 1_555
C14 Nd16 2.710240 1_655
C14 Nd19 2.727763 1_555
C14 Nd0 2.862768 1_566
C14 Nd4 3.006474 1_565
C15 Nd19 2.734614 1_455
C15 Nd9 2.850971 1_555
C15 Nd4 2.853369 1_455
C15 Nd16 2.913371 1_545
C15 Nd0 3.045046 1_456
C16 Nd18 2.533026 1_556
C16 Nd5 2.629057 1_555
C16 Nd4 2.681447 1_555
C16 Nd19 2.710025 1_555
C16 Nd9 2.717675 1_555
C17 Nd4 2.539872 1_555
C17 Nd13 2.625138 1_545
C17 Nd7 2.635777 1_555
C17 Nd14 2.728965 1_655
C17 Nd8 2.738316 1_555
C18 Nd4 2.689563 1_555
C18 Nd9 2.772998 1_555
C18 Nd16 2.776514 1_545
C18 Nd5 2.826981 1_545
C18 Nd8 3.014945 1_555
C19 Nd3 2.533026 1_555
C19 Nd8 2.629057 1_555
C19 Nd2 2.681447 1_545
C19 Nd14 2.710025 1_555
C19 Nd13 2.717675 1_545
