# generated using pymatgen
data_TiSO5
_symmetry_space_group_name_H-M   'P 1'
_cell_length_a   5.25769338
_cell_length_b   10.97964504
_cell_length_c   26.04537353
_cell_angle_alpha   90.00000000
_cell_angle_beta   90.00000000
_cell_angle_gamma   90.00000000
_symmetry_Int_Tables_number   1
_chemical_formula_structural   TiSO5
_chemical_formula_sum   'Ti16 S16 O80'
_cell_volume   1503.53708839
_cell_formula_units_Z   16
loop_
 _symmetry_equiv_pos_site_id
 _symmetry_equiv_pos_as_xyz
  1  'x, y, z'
loop_
 _atom_site_type_symbol
 _atom_site_label
 _atom_site_symmetry_multiplicity
 _atom_site_fract_x
 _atom_site_fract_y
 _atom_site_fract_z
 _atom_site_occupancy
  Ti  Ti0  1  -0.00000000  0.05621455  0.15453905  1
  Ti  Ti1  1  0.50000000  0.17083723  0.98052757  1
  Ti  Ti2  1  -0.00000000  0.56454115  0.10063841  1
  Ti  Ti3  1  0.50000000  0.17399111  0.72806648  1
  Ti  Ti4  1  0.50000000  0.68932576  0.77042387  1
  Ti  Ti5  1  0.50000000  0.18932576  0.22957613  1
  Ti  Ti6  1  -0.00000000  0.55621455  0.84546095  1
  Ti  Ti7  1  0.50000000  0.18765437  0.47065829  1
  Ti  Ti8  1  -0.00000000  0.07707179  0.64341753  1
  Ti  Ti9  1  0.50000000  0.67399111  0.27193352  1
  Ti  Ti10  1  -0.00000000  0.06224813  0.39459917  1
  Ti  Ti11  1  -0.00000000  0.57707179  0.35658247  1
  Ti  Ti12  1  -0.00000000  0.06454115  0.89936159  1
  Ti  Ti13  1  0.50000000  0.68765437  0.52934171  1
  Ti  Ti14  1  0.50000000  0.67083723  0.01947243  1
  Ti  Ti15  1  -0.00000000  0.56224813  0.60540083  1
  S  S0  1  -0.00000000  0.76969237  0.94024907  1
  S  S1  1  -0.00000000  0.79031165  0.69610817  1
  S  S2  1  -0.00000000  0.26969237  0.05975093  1
  S  S3  1  -0.00000000  0.78611063  0.44811890  1
  S  S4  1  -0.00000000  0.76584386  0.19170601  1
  S  S5  1  0.50000000  0.45394617  0.92520149  1
  S  S6  1  0.50000000  0.96192703  0.32071223  1
  S  S7  1  0.50000000  0.98489647  0.56281509  1
  S  S8  1  -0.00000000  0.28611063  0.55188110  1
  S  S9  1  0.50000000  0.48489647  0.43718491  1
  S  S10  1  0.50000000  0.96869860  0.81883745  1
  S  S11  1  0.50000000  0.95394617  0.07479851  1
  S  S12  1  -0.00000000  0.26584386  0.80829399  1
  S  S13  1  -0.00000000  0.29031165  0.30389183  1
  S  S14  1  0.50000000  0.46192703  0.67928777  1
  S  S15  1  0.50000000  0.46869860  0.18116255  1
  O  O0  1  -0.00000000  0.68191875  0.66266993  1
  O  O1  1  0.50000000  0.83445666  0.81620813  1
  O  O2  1  0.75053711  0.60961097  0.05794341  1
  O  O3  1  0.77008690  0.75022204  0.47537410  1
  O  O4  1  0.75053711  0.10961097  0.94205659  1
  O  O5  1  0.27025331  0.50807874  0.15498120  1
  O  O6  1  -0.00000000  0.41973714  0.55782417  1
  O  O7  1  0.50000000  0.01595941  0.76571049  1
  O  O8  1  0.50000000  0.35150746  0.44055564  1
  O  O9  1  0.72975515  0.02378123  0.58896344  1
  O  O10  1  0.24989186  0.11671381  0.19409340  1
  O  O11  1  0.72958599  0.97628666  0.10452936  1
  O  O12  1  0.76977590  0.24809252  0.03035075  1
  O  O13  1  -0.00000000  0.89647047  0.92314006  1
  O  O14  1  0.50000000  0.57012427  0.71289649  1
  O  O15  1  0.50000000  0.82623985  0.05788828  1
  O  O16  1  0.72975515  0.52378123  0.41103656  1
  O  O17  1  0.75010814  0.61671381  0.80590660  1
  O  O18  1  -0.00000000  0.72362345  0.13784152  1
  O  O19  1  -0.00000000  0.23267715  0.60393072  1
  O  O20  1  0.77043457  0.22399581  0.78293711  1
  O  O21  1  0.75010814  0.11671381  0.19409340  1
  O  O22  1  0.73012274  0.96182906  0.35193390  1
  O  O23  1  0.22956543  0.22399581  0.78293711  1
  O  O24  1  -0.00000000  0.90063757  0.66378260  1
  O  O25  1  0.50000000  0.35185438  0.71162576  1
  O  O26  1  0.50000000  0.33445666  0.18379187  1
  O  O27  1  0.50000000  0.51595941  0.23428951  1
  O  O28  1  0.77043457  0.72399581  0.21706289  1
  O  O29  1  0.50000000  0.03008826  0.02828290  1
  O  O30  1  0.50000000  0.07012427  0.28710351  1
  O  O31  1  0.72974669  0.50807874  0.15498120  1
  O  O32  1  0.27024485  0.52378123  0.41103656  1
  O  O33  1  0.22991310  0.75022204  0.47537410  1
  O  O34  1  0.23022410  0.24809252  0.03035075  1
  O  O35  1  0.76997007  0.78997670  0.72735777  1
  O  O36  1  -0.00000000  0.39986496  0.80862916  1
  O  O37  1  0.25003897  0.12725934  0.68536504  1
  O  O38  1  0.72958599  0.47628666  0.89547064  1
  O  O39  1  0.27024485  0.02378123  0.58896344  1
  O  O40  1  0.50000000  0.03247421  0.50982642  1
  O  O41  1  0.72974669  0.00807874  0.84501880  1
  O  O42  1  -0.00000000  0.39647047  0.07685994  1
  O  O43  1  0.77008690  0.25022204  0.52462590  1
  O  O44  1  -0.00000000  0.69380630  0.89369554  1
  O  O45  1  -0.00000000  0.40063757  0.33621740  1
  O  O46  1  -0.00000000  0.89986496  0.19137084  1
  O  O47  1  0.24989186  0.61671381  0.80590660  1
  O  O48  1  0.74996103  0.62725934  0.31463496  1
  O  O49  1  0.50000000  0.85185438  0.28837424  1
  O  O50  1  0.50000000  0.85150746  0.55944436  1
  O  O51  1  0.23002993  0.78997670  0.72735777  1
  O  O52  1  0.50000000  0.32623985  0.94211172  1
  O  O53  1  0.22956543  0.72399581  0.21706289  1
  O  O54  1  0.76977590  0.74809252  0.96964925  1
  O  O55  1  0.23022410  0.74809252  0.96964925  1
  O  O56  1  0.24946289  0.60961097  0.05794341  1
  O  O57  1  -0.00000000  0.73267715  0.39606928  1
  O  O58  1  0.25013767  0.13672856  0.42906465  1
  O  O59  1  -0.00000000  0.18191875  0.33733007  1
  O  O60  1  0.24946289  0.10961097  0.94205659  1
  O  O61  1  -0.00000000  0.19380630  0.10630446  1
  O  O62  1  -0.00000000  0.22362345  0.86215848  1
  O  O63  1  0.23002993  0.28997670  0.27264223  1
  O  O64  1  0.27041401  0.47628666  0.89547064  1
  O  O65  1  0.73012274  0.46182906  0.64806610  1
  O  O66  1  0.74986233  0.63672856  0.57093535  1
  O  O67  1  0.74996103  0.12725934  0.68536504  1
  O  O68  1  -0.00000000  0.91973714  0.44217583  1
  O  O69  1  0.27025331  0.00807874  0.84501880  1
  O  O70  1  0.22991310  0.25022204  0.52462590  1
  O  O71  1  0.74986233  0.13672856  0.42906465  1
  O  O72  1  0.27041401  0.97628666  0.10452936  1
  O  O73  1  0.25013767  0.63672856  0.57093535  1
  O  O74  1  0.76997007  0.28997670  0.27264223  1
  O  O75  1  0.26987726  0.46182906  0.64806610  1
  O  O76  1  0.26987726  0.96182906  0.35193390  1
  O  O77  1  0.25003897  0.62725934  0.31463496  1
  O  O78  1  0.50000000  0.53008826  0.97171710  1
  O  O79  1  0.50000000  0.53247421  0.49017358  1
loop_
_geom_bond_atom_site_label_1
_geom_bond_atom_site_label_2
_geom_bond_distance
_geom_bond_site_symmetry_2
O0 S1 1.474741 1_555
O0 Ti15 1.987787 1_555
O1 S10 1.475519 1_555
O1 Ti4 1.990271 1_555
O2 Ti14 1.786347 1_555
O2 Ti2 1.789338 1_655
O3 S3 1.456165 1_655
O3 Ti13 2.112855 1_555
O4 Ti1 1.786347 1_555
O4 Ti12 1.789338 1_655
O5 S15 1.452948 1_555
O5 Ti2 2.099190 1_555
O6 S8 1.475314 1_555
O6 Ti15 1.995957 1_555
O7 S10 1.477810 1_545
O7 Ti3 1.992980 1_555
O8 S9 1.467193 1_555
O8 Ti7 1.962470 1_555
O9 S7 1.450972 1_545
O9 Ti8 2.091105 1_655
O10 Ti5 1.794127 1_555
O10 Ti0 1.796882 1_555
O11 S11 1.454943 1_555
O11 Ti0 2.118512 1_665
O12 S2 1.451821 1_655
O12 Ti1 2.101259 1_554
O13 S0 1.461565 1_555
O13 Ti12 1.946509 1_565
O14 S14 1.475638 1_555
O14 Ti4 1.989447 1_555
O15 S11 1.469715 1_555
O15 Ti14 1.977992 1_555
O16 S9 1.450972 1_555
O16 Ti11 2.091105 1_655
O17 Ti4 1.794127 1_555
O17 Ti6 1.796882 1_655
O18 S4 1.477525 1_555
O18 Ti2 1.997435 1_555
O19 S8 1.477155 1_555
O19 Ti8 1.994154 1_555
O20 S12 1.450551 1_655
O20 Ti3 2.089385 1_555
O21 Ti5 1.794127 1_555
O21 Ti0 1.796882 1_655
O22 S6 1.457792 1_555
O22 Ti10 2.112784 1_665
O23 S12 1.450551 1_555
O23 Ti3 2.089385 1_555
O24 S1 1.475192 1_555
O24 Ti8 2.008489 1_565
O25 S14 1.473095 1_555
O25 Ti3 1.999270 1_555
O26 S15 1.475519 1_555
O26 Ti5 1.990271 1_555
O27 S15 1.477810 1_555
O27 Ti9 1.992980 1_555
O28 S4 1.450551 1_655
O28 Ti9 2.089385 1_555
O29 S11 1.471968 1_545
O29 Ti1 1.983742 1_554
O30 S6 1.475638 1_545
O30 Ti5 1.989447 1_555
O31 S15 1.452948 1_555
O31 Ti2 2.099190 1_655
O32 S9 1.450972 1_555
O32 Ti11 2.091105 1_555
O33 S3 1.456165 1_555
O33 Ti13 2.112855 1_555
O34 S2 1.451821 1_555
O34 Ti1 2.101259 1_554
O35 S1 1.457797 1_655
O35 Ti4 2.119947 1_555
O36 S12 1.471530 1_555
O36 Ti6 1.966516 1_555
O37 Ti8 1.795977 1_555
O37 Ti3 1.796489 1_555
O38 S5 1.454943 1_555
O38 Ti6 2.118512 1_655
O39 S7 1.450972 1_545
O39 Ti8 2.091105 1_555
O40 S7 1.475666 1_545
O40 Ti7 1.985879 1_555
O41 S10 1.452948 1_545
O41 Ti12 2.099190 1_655
O42 S2 1.461565 1_555
O42 Ti2 1.946509 1_555
O43 S8 1.456165 1_655
O43 Ti7 2.112855 1_555
O44 S0 1.471187 1_555
O44 Ti6 1.964815 1_555
O45 S13 1.475192 1_555
O45 Ti11 2.008489 1_555
O46 S4 1.471530 1_555
O46 Ti0 1.966516 1_565
O47 Ti4 1.794127 1_555
O47 Ti6 1.796882 1_555
O48 Ti11 1.795977 1_655
O48 Ti9 1.796489 1_555
O49 S6 1.473095 1_555
O49 Ti9 1.999270 1_555
O50 S7 1.467193 1_555
O50 Ti13 1.962470 1_555
O51 S1 1.457797 1_555
O51 Ti4 2.119947 1_555
O52 S5 1.469715 1_555
O52 Ti1 1.977992 1_555
O53 S4 1.450551 1_555
O53 Ti9 2.089385 1_555
O54 S0 1.451821 1_655
O54 Ti14 2.101259 1_556
O55 S0 1.451821 1_555
O55 Ti14 2.101259 1_556
O56 Ti14 1.786347 1_555
O56 Ti2 1.789338 1_555
O57 S3 1.477155 1_555
O57 Ti11 1.994154 1_555
O58 Ti10 1.790017 1_555
O58 Ti7 1.792216 1_555
O59 S13 1.474741 1_555
O59 Ti10 1.987787 1_555
O60 Ti1 1.786347 1_555
O60 Ti12 1.789338 1_555
O61 S2 1.471187 1_555
O61 Ti0 1.964815 1_555
O62 S12 1.477525 1_555
O62 Ti12 1.997435 1_555
O63 S13 1.457797 1_555
O63 Ti5 2.119947 1_555
O64 S5 1.454943 1_555
O64 Ti6 2.118512 1_555
O65 S14 1.457792 1_555
O65 Ti15 2.112784 1_655
O66 Ti15 1.790017 1_655
O66 Ti13 1.792216 1_555
O67 Ti8 1.795977 1_655
O67 Ti3 1.796489 1_555
O68 S3 1.475314 1_555
O68 Ti10 1.995957 1_565
O69 S10 1.452948 1_545
O69 Ti12 2.099190 1_555
O70 S8 1.456165 1_555
O70 Ti7 2.112855 1_555
O71 Ti10 1.790017 1_655
O71 Ti7 1.792216 1_555
O72 S11 1.454943 1_555
O72 Ti0 2.118512 1_565
O73 Ti15 1.790017 1_555
O73 Ti13 1.792216 1_555
O74 S13 1.457797 1_655
O74 Ti5 2.119947 1_555
O75 S14 1.457792 1_555
O75 Ti15 2.112784 1_555
O76 S6 1.457792 1_555
O76 Ti10 2.112784 1_565
O77 Ti11 1.795977 1_555
O77 Ti9 1.796489 1_555
O78 S5 1.471968 1_555
O78 Ti14 1.983742 1_556
O79 S9 1.475666 1_555
O79 Ti13 1.985879 1_555
