# generated using pymatgen
data_Ni3P3O11
_symmetry_space_group_name_H-M   'P 1'
_cell_length_a   9.47269500
_cell_length_b   9.77824900
_cell_length_c   10.22452185
_cell_angle_alpha   59.37353870
_cell_angle_beta   90.00000000
_cell_angle_gamma   90.00000000
_symmetry_Int_Tables_number   1
_chemical_formula_structural   Ni3P3O11
_chemical_formula_sum   'Ni12 P12 O44'
_cell_volume   814.95190862
_cell_formula_units_Z   4
loop_
 _symmetry_equiv_pos_site_id
 _symmetry_equiv_pos_as_xyz
  1  'x, y, z'
loop_
 _atom_site_type_symbol
 _atom_site_label
 _atom_site_symmetry_multiplicity
 _atom_site_fract_x
 _atom_site_fract_y
 _atom_site_fract_z
 _atom_site_occupancy
  Ni  Ni0  1  0.12630600  0.08333700  0.73594000  1
  Ni  Ni1  1  0.36689500  0.26773200  0.87372600  1
  Ni  Ni2  1  0.87369400  0.91666300  0.26406000  1
  Ni  Ni3  1  0.13656000  0.90226600  0.10586300  1
  Ni  Ni4  1  0.37369400  0.08333700  0.23594000  1
  Ni  Ni5  1  0.63310500  0.73226800  0.12627400  1
  Ni  Ni6  1  0.36344000  0.90226600  0.60586300  1
  Ni  Ni7  1  0.63656000  0.09773400  0.39413700  1
  Ni  Ni8  1  0.86689500  0.73226800  0.62627400  1
  Ni  Ni9  1  0.86344000  0.09773400  0.89413700  1
  Ni  Ni10  1  0.13310500  0.26773200  0.37372600  1
  Ni  Ni11  1  0.62630600  0.91666300  0.76406000  1
  P  P0  1  0.58066300  0.76678400  0.42196800  1
  P  P1  1  0.33276100  0.88567400  0.93329900  1
  P  P2  1  0.91933700  0.76678400  0.92196800  1
  P  P3  1  0.16723900  0.88567400  0.43329900  1
  P  P4  1  0.66723900  0.11432600  0.06670100  1
  P  P5  1  0.94416100  0.59574400  0.24879800  1
  P  P6  1  0.05583900  0.40425600  0.75120200  1
  P  P7  1  0.41933700  0.23321600  0.57803200  1
  P  P8  1  0.08066300  0.23321600  0.07803200  1
  P  P9  1  0.55583900  0.59574400  0.74879800  1
  P  P10  1  0.44416100  0.40425600  0.25120200  1
  P  P11  1  0.83276100  0.11432600  0.56670100  1
  O  O0  1  0.50835800  0.75455100  0.73942200  1
  O  O1  1  0.73736200  0.24210300  0.91753300  1
  O  O2  1  0.52984600  0.54492300  0.14214400  1
  O  O3  1  0.23428300  0.04255400  0.42486500  1
  O  O4  1  0.74235100  0.77292200  0.43714300  1
  O  O5  1  0.23069900  0.89680000  0.28784700  1
  O  O6  1  0.24235100  0.22707800  0.06285700  1
  O  O7  1  0.03113100  0.25252200  0.20685900  1
  O  O8  1  0.26930100  0.89680000  0.78784700  1
  O  O9  1  0.98970300  0.92149600  0.91163500  1
  O  O10  1  0.71473500  0.58866600  0.77343900  1
  O  O11  1  0.23736200  0.75789700  0.58246700  1
  O  O12  1  0.49164200  0.24544900  0.26057800  1
  O  O13  1  0.97015400  0.54492300  0.64214400  1
  O  O14  1  0.76571700  0.95744600  0.57513500  1
  O  O15  1  0.02440200  0.37678200  0.92045500  1
  O  O16  1  0.26571700  0.04255400  0.92486500  1
  O  O17  1  0.00573000  0.88096400  0.43848900  1
  O  O18  1  0.53113100  0.74747800  0.29314100  1
  O  O19  1  0.50573000  0.11903600  0.06151100  1
  O  O20  1  0.00835800  0.24544900  0.76057800  1
  O  O21  1  0.28526500  0.41133400  0.22656100  1
  O  O22  1  0.75764900  0.77292200  0.93714300  1
  O  O23  1  0.48970300  0.07850400  0.58836500  1
  O  O24  1  0.02984600  0.45507700  0.35785600  1
  O  O25  1  0.99427000  0.11903600  0.56151100  1
  O  O26  1  0.47559800  0.37678200  0.42045500  1
  O  O27  1  0.25764900  0.22707800  0.56285700  1
  O  O28  1  0.73069900  0.10320000  0.21215300  1
  O  O29  1  0.97559800  0.62321800  0.07954500  1
  O  O30  1  0.52440200  0.62321800  0.57954500  1
  O  O31  1  0.01029700  0.07850400  0.08836500  1
  O  O32  1  0.47015400  0.45507700  0.85785600  1
  O  O33  1  0.73428300  0.95744600  0.07513500  1
  O  O34  1  0.78526500  0.58866600  0.27343900  1
  O  O35  1  0.76263800  0.24210300  0.41753300  1
  O  O36  1  0.49427000  0.88096400  0.93848900  1
  O  O37  1  0.99164200  0.75455100  0.23942200  1
  O  O38  1  0.46886900  0.25252200  0.70685900  1
  O  O39  1  0.76930100  0.10320000  0.71215300  1
  O  O40  1  0.96886900  0.74747800  0.79314100  1
  O  O41  1  0.26263800  0.75789700  0.08246700  1
  O  O42  1  0.21473500  0.41133400  0.72656100  1
  O  O43  1  0.51029700  0.92149600  0.41163500  1
loop_
_geom_bond_atom_site_label_1
_geom_bond_atom_site_label_2
_geom_bond_distance
_geom_bond_site_symmetry_2
Ni0 O27 2.030020 1_555
Ni0 O20 2.057041 1_555
Ni0 O25 2.057326 1_455
Ni0 O8 2.111195 1_545
Ni0 O9 2.123522 1_445
Ni0 O16 2.202155 1_555
Ni1 O32 2.009006 1_555
Ni1 O38 2.030924 1_555
Ni1 O42 2.039756 1_555
Ni1 O6 2.122763 1_556
Ni1 O19 2.164659 1_556
Ni1 O16 2.206148 1_555
Ni2 O4 2.030020 1_555
Ni2 O37 2.057041 1_555
Ni2 O17 2.057326 1_655
Ni2 O28 2.111195 1_565
Ni2 O31 2.123522 1_665
Ni2 O33 2.202155 1_555
Ni3 O41 1.954601 1_555
Ni3 O37 1.955988 1_455
Ni3 O31 2.029328 1_565
Ni3 O5 2.039350 1_555
Ni3 O16 2.053500 1_564
Ni3 O9 2.352422 1_454
Ni4 O6 2.030020 1_555
Ni4 O12 2.057041 1_555
Ni4 O19 2.057326 1_555
Ni4 O5 2.111195 1_545
Ni4 O43 2.123522 1_545
Ni4 O3 2.202155 1_555
Ni5 O2 2.009006 1_555
Ni5 O18 2.030924 1_555
Ni5 O34 2.039756 1_555
Ni5 O22 2.122763 1_554
Ni5 O36 2.164659 1_554
Ni5 O33 2.206148 1_555
Ni6 O11 1.954601 1_555
Ni6 O0 1.955988 1_555
Ni6 O23 2.029328 1_565
Ni6 O8 2.039350 1_555
Ni6 O3 2.053500 1_565
Ni6 O43 2.352422 1_555
Ni7 O35 1.954601 1_555
Ni7 O12 1.955988 1_555
Ni7 O43 2.029328 1_545
Ni7 O28 2.039350 1_555
Ni7 O14 2.053500 1_545
Ni7 O23 2.352422 1_555
Ni8 O13 2.009006 1_555
Ni8 O40 2.030924 1_555
Ni8 O10 2.039756 1_555
Ni8 O4 2.122763 1_555
Ni8 O17 2.164659 1_655
Ni8 O14 2.206148 1_555
Ni9 O1 1.954601 1_555
Ni9 O20 1.955988 1_655
Ni9 O9 2.029328 1_545
Ni9 O39 2.039350 1_555
Ni9 O33 2.053500 1_546
Ni9 O31 2.352422 1_656
Ni10 O24 2.009006 1_555
Ni10 O7 2.030924 1_555
Ni10 O21 2.039756 1_555
Ni10 O27 2.122763 1_555
Ni10 O25 2.164659 1_455
Ni10 O3 2.206148 1_555
Ni11 O22 2.030020 1_555
Ni11 O0 2.057041 1_555
Ni11 O36 2.057326 1_555
Ni11 O39 2.111195 1_565
Ni11 O23 2.123522 1_565
Ni11 O14 2.202155 1_555
O0 P9 1.571995 1_555
O1 P4 1.544957 1_556
O2 P10 1.493791 1_555
O3 P3 1.621476 1_545
O4 P0 1.543706 1_555
O5 P3 1.555651 1_555
O6 P8 1.543706 1_555
O7 P8 1.498046 1_555
O8 P1 1.555651 1_555
O9 P2 1.606616 1_555
O10 P9 1.521856 1_555
O11 P3 1.544957 1_555
O12 P10 1.571995 1_555
O13 P6 1.493791 1_655
O14 P11 1.621476 1_565
O15 P8 1.595646 1_556
O15 P6 1.637654 1_555
O16 P1 1.621476 1_545
O17 P3 1.530725 1_555
O18 P0 1.498046 1_555
O19 P4 1.530725 1_555
O20 P6 1.571995 1_555
O21 P10 1.521856 1_555
O22 P2 1.543706 1_555
O23 P7 1.606616 1_555
O24 P5 1.493791 1_455
O25 P11 1.530725 1_555
O26 P7 1.595646 1_555
O26 P10 1.637654 1_555
O27 P7 1.543706 1_555
O28 P4 1.555651 1_555
O29 P2 1.595646 1_554
O29 P5 1.637654 1_555
O30 P0 1.595646 1_555
O30 P9 1.637654 1_555
O31 P8 1.606616 1_555
O32 P9 1.493791 1_555
O33 P4 1.621476 1_565
O34 P5 1.521856 1_555
O35 P11 1.544957 1_555
O36 P1 1.530725 1_555
O37 P5 1.571995 1_555
O38 P7 1.498046 1_555
O39 P11 1.555651 1_555
O40 P2 1.498046 1_555
O41 P1 1.544957 1_554
O42 P6 1.521856 1_555
O43 P0 1.606616 1_555
