# generated using pymatgen
data_Ca7GeN6
_symmetry_space_group_name_H-M   'P 1'
_cell_length_a   6.21228366
_cell_length_b   10.90762008
_cell_length_c   13.19862571
_cell_angle_alpha   90.00000000
_cell_angle_beta   90.00000000
_cell_angle_gamma   90.00000000
_symmetry_Int_Tables_number   1
_chemical_formula_structural   Ca7GeN6
_chemical_formula_sum   'Ca28 Ge4 N24'
_cell_volume   894.35511232
_cell_formula_units_Z   4
loop_
 _symmetry_equiv_pos_site_id
 _symmetry_equiv_pos_as_xyz
  1  'x, y, z'
loop_
 _atom_site_type_symbol
 _atom_site_label
 _atom_site_symmetry_multiplicity
 _atom_site_fract_x
 _atom_site_fract_y
 _atom_site_fract_z
 _atom_site_occupancy
  Ca  Ca0  1  0.10867557  0.79535161  0.61695620  1
  Ca  Ca1  1  0.35615043  0.27162048  0.62625182  1
  Ca  Ca2  1  0.26917390  0.96202876  0.02102404  1
  Ca  Ca3  1  0.44179609  0.00000000  0.75000000  1
  Ca  Ca4  1  0.26917390  0.03797124  0.47897596  1
  Ca  Ca5  1  0.05820391  0.50000000  0.25000000  1
  Ca  Ca6  1  0.10867557  0.20464839  0.88304380  1
  Ca  Ca7  1  0.14384957  0.77162048  0.37374818  1
  Ca  Ca8  1  0.35615043  0.72837952  0.87374818  1
  Ca  Ca9  1  0.73082610  0.03797124  0.97897596  1
  Ca  Ca10  1  0.60867557  0.70464839  0.61695620  1
  Ca  Ca11  1  0.64384957  0.27162048  0.12625182  1
  Ca  Ca12  1  0.23082610  0.46202876  0.97897596  1
  Ca  Ca13  1  0.89132443  0.20464839  0.38304380  1
  Ca  Ca14  1  0.39132443  0.70464839  0.11695620  1
  Ca  Ca15  1  0.60867557  0.29535161  0.88304380  1
  Ca  Ca16  1  0.76917390  0.53797124  0.02102404  1
  Ca  Ca17  1  0.85615043  0.22837952  0.62625182  1
  Ca  Ca18  1  0.89132443  0.79535161  0.11695620  1
  Ca  Ca19  1  0.23082610  0.53797124  0.52102404  1
  Ca  Ca20  1  0.94179609  0.50000000  0.75000000  1
  Ca  Ca21  1  0.76917390  0.46202876  0.47897596  1
  Ca  Ca22  1  0.39132443  0.29535161  0.38304380  1
  Ca  Ca23  1  0.73082610  0.96202876  0.52102404  1
  Ca  Ca24  1  0.64384957  0.72837952  0.37374818  1
  Ca  Ca25  1  0.55820391  0.00000000  0.25000000  1
  Ca  Ca26  1  0.14384957  0.22837952  0.12625182  1
  Ca  Ca27  1  0.85615043  0.77162048  0.87374818  1
  Ge  Ge0  1  0.06642965  0.00000000  0.25000000  1
  Ge  Ge1  1  0.56642965  0.50000000  0.25000000  1
  Ge  Ge2  1  0.93357035  0.00000000  0.75000000  1
  Ge  Ge3  1  0.43357035  0.50000000  0.75000000  1
  N  N0  1  0.11179647  0.95120278  0.85945379  1
  N  N1  1  0.75351142  0.86733447  0.70654336  1
  N  N2  1  0.74648858  0.63266553  0.20654336  1
  N  N3  1  0.59361562  0.83358285  0.99410358  1
  N  N4  1  0.24648858  0.86733447  0.20654336  1
  N  N5  1  0.75351142  0.13266553  0.79345664  1
  N  N6  1  0.59361562  0.16641715  0.50589642  1
  N  N7  1  0.09361562  0.66641715  0.99410358  1
  N  N8  1  0.74648858  0.36733447  0.29345664  1
  N  N9  1  0.24648858  0.13266553  0.29345664  1
  N  N10  1  0.11179647  0.04879722  0.64054621  1
  N  N11  1  0.90638438  0.66641715  0.49410358  1
  N  N12  1  0.88820353  0.04879722  0.14054621  1
  N  N13  1  0.40638438  0.83358285  0.49410358  1
  N  N14  1  0.88820353  0.95120278  0.35945379  1
  N  N15  1  0.38820353  0.45120278  0.14054621  1
  N  N16  1  0.90638438  0.33358285  0.00589642  1
  N  N17  1  0.25351142  0.63266553  0.70654336  1
  N  N18  1  0.40638438  0.16641715  0.00589642  1
  N  N19  1  0.25351142  0.36733447  0.79345664  1
  N  N20  1  0.09361562  0.33358285  0.50589642  1
  N  N21  1  0.61179647  0.54879722  0.85945379  1
  N  N22  1  0.38820353  0.54879722  0.35945379  1
  N  N23  1  0.61179647  0.45120278  0.64054621  1
loop_
_geom_bond_atom_site_label_1
_geom_bond_atom_site_label_2
_geom_bond_distance
_geom_bond_site_symmetry_2
Ca0 N17 2.314437 1_555
Ca0 N11 2.487239 1_455
Ca0 N13 2.494712 1_555
Ca0 N1 2.623495 1_455
Ca0 N10 2.782034 1_565
Ca1 N20 2.374905 1_555
Ca1 N6 2.452841 1_555
Ca1 N19 2.523255 1_555
Ca1 N23 2.528786 1_555
Ca1 N10 2.871776 1_555
Ca2 N0 2.348908 1_554
Ca2 N18 2.395124 1_565
Ca2 N3 2.480221 1_554
Ca2 N4 2.661271 1_555
Ca2 N12 2.997597 1_465
Ca3 N1 2.484526 1_545
Ca3 N5 2.484526 1_555
Ca3 N0 2.563785 1_545
Ca3 N10 2.563785 1_555
Ca4 N10 2.348908 1_555
Ca4 N13 2.395124 1_545
Ca4 N6 2.480221 1_555
Ca4 N9 2.661271 1_555
Ca4 N14 2.997597 1_445
Ca5 N8 2.484526 1_455
Ca5 N2 2.484526 1_455
Ca5 N22 2.563785 1_555
Ca5 N15 2.563785 1_555
Ca6 N19 2.314437 1_555
Ca6 N16 2.487239 1_456
Ca6 N18 2.494712 1_556
Ca6 N5 2.623495 1_455
Ca6 N0 2.782034 1_545
Ca7 N13 2.374905 1_555
Ca7 N11 2.452841 1_455
Ca7 N4 2.523255 1_555
Ca7 N14 2.528786 1_455
Ca7 N22 2.871776 1_555
Ca8 N7 2.374905 1_555
Ca8 N3 2.452841 1_555
Ca8 N17 2.523255 1_555
Ca8 N21 2.528786 1_555
Ca8 N0 2.871776 1_555
Ca9 N12 2.348908 1_556
Ca9 N3 2.395124 1_545
Ca9 N18 2.480221 1_556
Ca9 N5 2.661271 1_555
Ca9 N0 2.997597 1_645
Ca10 N1 2.314437 1_555
Ca10 N13 2.487239 1_555
Ca10 N11 2.494712 1_555
Ca10 N17 2.623495 1_555
Ca10 N23 2.782034 1_555
Ca11 N16 2.374905 1_555
Ca11 N18 2.452841 1_555
Ca11 N8 2.523255 1_555
Ca11 N15 2.528786 1_555
Ca11 N12 2.871776 1_555
Ca12 N15 2.348908 1_556
Ca12 N7 2.395124 1_555
Ca12 N16 2.480221 1_456
Ca12 N19 2.661271 1_555
Ca12 N21 2.997597 1_555
Ca13 N8 2.314437 1_555
Ca13 N20 2.487239 1_655
Ca13 N6 2.494712 1_555
Ca13 N9 2.623495 1_655
Ca13 N14 2.782034 1_545
Ca14 N4 2.314437 1_555
Ca14 N3 2.487239 1_554
Ca14 N7 2.494712 1_554
Ca14 N2 2.623495 1_555
Ca14 N15 2.782034 1_555
Ca15 N5 2.314437 1_555
Ca15 N18 2.487239 1_556
Ca15 N16 2.494712 1_556
Ca15 N19 2.623495 1_555
Ca15 N21 2.782034 1_555
Ca16 N21 2.348908 1_554
Ca16 N16 2.395124 1_555
Ca16 N7 2.480221 1_654
Ca16 N2 2.661271 1_555
Ca16 N15 2.997597 1_555
Ca17 N6 2.374905 1_555
Ca17 N20 2.452841 1_655
Ca17 N5 2.523255 1_555
Ca17 N10 2.528786 1_655
Ca17 N23 2.871776 1_555
Ca18 N2 2.314437 1_555
Ca18 N7 2.487239 1_654
Ca18 N3 2.494712 1_554
Ca18 N4 2.623495 1_655
Ca18 N12 2.782034 1_565
Ca19 N22 2.348908 1_555
Ca19 N20 2.395124 1_555
Ca19 N11 2.480221 1_455
Ca19 N17 2.661271 1_555
Ca19 N23 2.997597 1_555
Ca20 N19 2.484526 1_655
Ca20 N17 2.484526 1_655
Ca20 N23 2.563785 1_555
Ca20 N21 2.563785 1_555
Ca21 N23 2.348908 1_555
Ca21 N11 2.395124 1_555
Ca21 N20 2.480221 1_655
Ca21 N8 2.661271 1_555
Ca21 N22 2.997597 1_555
Ca22 N9 2.314437 1_555
Ca22 N6 2.487239 1_555
Ca22 N20 2.494712 1_555
Ca22 N8 2.623495 1_555
Ca22 N22 2.782034 1_555
Ca23 N14 2.348908 1_555
Ca23 N6 2.395124 1_565
Ca23 N13 2.480221 1_555
Ca23 N1 2.661271 1_555
Ca23 N10 2.997597 1_665
Ca24 N11 2.374905 1_555
Ca24 N13 2.452841 1_555
Ca24 N2 2.523255 1_555
Ca24 N22 2.528786 1_555
Ca24 N14 2.871776 1_555
Ca25 N9 2.484526 1_555
Ca25 N4 2.484526 1_545
Ca25 N14 2.563785 1_545
Ca25 N12 2.563785 1_555
Ca26 N18 2.374905 1_555
Ca26 N16 2.452841 1_455
Ca26 N9 2.523255 1_555
Ca26 N12 2.528786 1_455
Ca26 N15 2.871776 1_555
Ca27 N3 2.374905 1_555
Ca27 N7 2.452841 1_655
Ca27 N1 2.523255 1_555
Ca27 N0 2.528786 1_655
Ca27 N21 2.871776 1_555
Ge0 N14 1.896354 1_445
Ge0 N12 1.896354 1_455
Ge0 N9 1.916818 1_555
Ge0 N4 1.916818 1_545
Ge1 N15 1.896354 1_555
Ge1 N22 1.896354 1_555
Ge1 N8 1.916818 1_555
Ge1 N2 1.916818 1_555
Ge2 N0 1.896354 1_645
Ge2 N10 1.896354 1_655
Ge2 N1 1.916818 1_545
Ge2 N5 1.916818 1_555
Ge3 N21 1.896354 1_555
Ge3 N23 1.896354 1_555
Ge3 N19 1.916818 1_555
Ge3 N17 1.916818 1_555
