# generated using pymatgen
data_Rb2NaAl3F12
_symmetry_space_group_name_H-M   'P 1'
_cell_length_a   7.10707400
_cell_length_b   7.20736800
_cell_length_c   10.02867022
_cell_angle_alpha   88.95680380
_cell_angle_beta   90.00000000
_cell_angle_gamma   90.00000000
_symmetry_Int_Tables_number   1
_chemical_formula_structural   Rb2NaAl3F12
_chemical_formula_sum   'Rb4 Na2 Al6 F24'
_cell_volume   513.61641604
_cell_formula_units_Z   2
loop_
 _symmetry_equiv_pos_site_id
 _symmetry_equiv_pos_as_xyz
  1  'x, y, z'
loop_
 _atom_site_type_symbol
 _atom_site_label
 _atom_site_symmetry_multiplicity
 _atom_site_fract_x
 _atom_site_fract_y
 _atom_site_fract_z
 _atom_site_occupancy
  Rb  Rb0  1  0.75000000  0.00414700  0.11650600  1
  Rb  Rb1  1  0.25000000  0.99585300  0.88349400  1
  Rb  Rb2  1  0.25000000  0.48018200  0.63820500  1
  Rb  Rb3  1  0.75000000  0.51981800  0.36179500  1
  Na  Na0  1  0.75000000  0.21855200  0.75519500  1
  Na  Na1  1  0.25000000  0.78144800  0.24480500  1
  Al  Al0  1  0.50000000  0.00000000  0.50000000  1
  Al  Al1  1  0.00000000  0.00000000  0.50000000  1
  Al  Al2  1  0.00000000  0.50000000  0.00000000  1
  Al  Al3  1  0.50000000  0.50000000  0.00000000  1
  Al  Al4  1  0.75000000  0.71124800  0.72901200  1
  Al  Al5  1  0.25000000  0.28875200  0.27098800  1
  F  F0  1  0.75000000  0.07680500  0.48959200  1
  F  F1  1  0.25000000  0.92319500  0.51040800  1
  F  F2  1  0.75000000  0.49990400  0.63908600  1
  F  F3  1  0.25000000  0.50009600  0.36091400  1
  F  F4  1  0.25000000  0.49312700  0.94358300  1
  F  F5  1  0.75000000  0.50687300  0.05641700  1
  F  F6  1  0.25000000  0.08493400  0.17714000  1
  F  F7  1  0.75000000  0.91506600  0.82286000  1
  F  F8  1  0.96866300  0.85511400  0.36068900  1
  F  F9  1  0.46866300  0.14488600  0.63931100  1
  F  F10  1  0.03133700  0.14488600  0.63931100  1
  F  F11  1  0.53133700  0.85511400  0.36068900  1
  F  F12  1  0.93663000  0.80207000  0.61471800  1
  F  F13  1  0.43663000  0.19793000  0.38528200  1
  F  F14  1  0.06337000  0.19793000  0.38528200  1
  F  F15  1  0.56337000  0.80207000  0.61471800  1
  F  F16  1  0.03632700  0.72198500  0.06946300  1
  F  F17  1  0.53632700  0.27801500  0.93053700  1
  F  F18  1  0.96367300  0.27801500  0.93053700  1
  F  F19  1  0.46367300  0.72198500  0.06946300  1
  F  F20  1  0.44020400  0.38842800  0.16321500  1
  F  F21  1  0.94020400  0.61157200  0.83678500  1
  F  F22  1  0.55979600  0.61157200  0.83678500  1
  F  F23  1  0.05979600  0.38842800  0.16321500  1
loop_
_geom_bond_atom_site_label_1
_geom_bond_atom_site_label_2
_geom_bond_distance
_geom_bond_site_symmetry_2
Al0 F9 1.773436 1_555
Al0 F11 1.773436 1_545
Al0 F1 1.863365 1_545
Al0 F0 1.863365 1_555
Al0 F13 1.871287 1_555
Al0 F15 1.871287 1_545
Al1 F10 1.773436 1_555
Al1 F8 1.773436 1_445
Al1 F1 1.863365 1_545
Al1 F0 1.863365 1_455
Al1 F14 1.871287 1_555
Al1 F12 1.871287 1_445
Al2 F16 1.775469 1_555
Al2 F18 1.775469 1_454
Al2 F23 1.859712 1_555
Al2 F21 1.859712 1_454
Al2 F4 1.865609 1_554
Al2 F5 1.865609 1_455
Al3 F19 1.775469 1_555
Al3 F17 1.775469 1_554
Al3 F20 1.859712 1_555
Al3 F22 1.859712 1_554
Al3 F5 1.865609 1_555
Al3 F4 1.865609 1_554
Al4 F7 1.759000 1_555
Al4 F2 1.784257 1_555
Al4 F15 1.863947 1_555
Al4 F12 1.863947 1_555
Al4 F22 1.866373 1_555
Al4 F21 1.866373 1_555
Al5 F6 1.759000 1_555
Al5 F3 1.784257 1_555
Al5 F14 1.863947 1_555
Al5 F13 1.863947 1_555
Al5 F23 1.866373 1_555
Al5 F20 1.866373 1_555
F2 Na0 2.319891 1_555
F2 Rb3 2.781951 1_555
F3 Na1 2.319891 1_555
F3 Rb2 2.781951 1_555
F4 Rb2 3.065653 1_555
F5 Rb3 3.065653 1_555
F6 Na1 2.278349 1_545
F6 Rb1 3.025454 1_544
F7 Na0 2.278349 1_565
F7 Rb0 3.025454 1_566
F8 Na1 2.377586 1_655
F8 Rb3 2.873011 1_555
F8 Rb0 3.077311 1_565
F9 Na0 2.377586 1_555
F9 Rb2 2.873011 1_555
F9 Rb1 3.077311 1_545
F10 Na0 2.377586 1_455
F10 Rb2 2.873011 1_555
F10 Rb1 3.077311 1_545
F11 Na1 2.377586 1_555
F11 Rb3 2.873011 1_555
F11 Rb0 3.077311 1_565
F12 Rb2 3.221489 1_655
F13 Rb3 3.221489 1_555
F14 Rb3 3.221489 1_455
F15 Rb2 3.221489 1_555
F16 Na1 2.368410 1_555
F16 Rb0 2.921341 1_465
F16 Rb1 3.089746 1_554
F17 Na0 2.368410 1_555
F17 Rb1 2.921341 1_545
F17 Rb0 3.089746 1_556
F18 Na0 2.368410 1_555
F18 Rb1 2.921341 1_645
F18 Rb0 3.089746 1_556
F19 Na1 2.368410 1_555
F19 Rb0 2.921341 1_565
F19 Rb1 3.089746 1_554
F20 Rb3 3.127164 1_555
F21 Rb2 3.127164 1_655
F22 Rb2 3.127164 1_555
F23 Rb3 3.127164 1_455
