# generated using pymatgen
data_ZnS
_symmetry_space_group_name_H-M   'P 1'
_cell_length_a   3.80767440
_cell_length_b   3.80767482
_cell_length_c   74.72250454
_cell_angle_alpha   90.00000173
_cell_angle_beta   89.99999923
_cell_angle_gamma   120.00051315
_symmetry_Int_Tables_number   1
_chemical_formula_structural   ZnS
_chemical_formula_sum   'Zn24 S24'
_cell_volume   938.20871319
_cell_formula_units_Z   24
loop_
 _symmetry_equiv_pos_site_id
 _symmetry_equiv_pos_as_xyz
  1  'x, y, z'
loop_
 _atom_site_type_symbol
 _atom_site_label
 _atom_site_symmetry_multiplicity
 _atom_site_fract_x
 _atom_site_fract_y
 _atom_site_fract_z
 _atom_site_occupancy
  Zn  Zn0  1  0.99999900  0.00000100  0.33337241  1
  Zn  Zn1  1  -0.00000000  -0.00000000  0.00000309  1
  Zn  Zn2  1  0.33333300  0.66666700  0.29167541  1
  Zn  Zn3  1  0.66666700  0.33333300  0.08333015  1
  Zn  Zn4  1  0.33333300  0.66666700  0.83335143  1
  Zn  Zn5  1  0.00000000  0.00000000  0.66667543  1
  Zn  Zn6  1  0.66666700  0.33333300  0.50001102  1
  Zn  Zn7  1  0.66666700  0.33333300  0.91668318  1
  Zn  Zn8  1  0.66666700  0.33333300  0.20833207  1
  Zn  Zn9  1  0.66666700  0.33333300  0.62501921  1
  Zn  Zn10  1  0.00000100  -0.00000000  0.54171483  1
  Zn  Zn11  1  0.33333300  0.66666700  0.04169539  1
  Zn  Zn12  1  -0.00000000  -0.00000000  0.12499804  1
  Zn  Zn13  1  0.33333300  0.66666700  0.16667126  1
  Zn  Zn14  1  0.33333300  0.66666700  0.41668195  1
  Zn  Zn15  1  0.33333300  0.66666700  0.70835245  1
  Zn  Zn16  1  0.33333300  0.66666700  0.95832778  1
  Zn  Zn17  1  0.00000000  0.00000000  0.45833601  1
  Zn  Zn18  1  0.33333300  0.66666700  0.58335118  1
  Zn  Zn19  1  0.00000000  0.00000000  0.87501718  1
  Zn  Zn20  1  0.66666700  0.33333300  0.79169116  1
  Zn  Zn21  1  0.66666700  0.33333300  0.37501245  1
  Zn  Zn22  1  0.99999900  0.00000100  0.75004272  1
  Zn  Zn23  1  0.00000000  0.00000000  0.24998858  1
  S  S0  1  0.66666600  0.33333400  0.94790033  1
  S  S1  1  -0.00000000  -0.00000000  0.57290999  1
  S  S2  1  0.33333400  0.66666600  0.19790089  1
  S  S3  1  0.33333300  0.66666700  0.98952936  1
  S  S4  1  -0.00000000  -0.00000000  0.36457868  1
  S  S5  1  -0.00000000  -0.00000000  0.48953424  1
  S  S6  1  0.66666700  0.33333300  0.53126903  1
  S  S7  1  -0.00000000  -0.00000000  0.78124689  1
  S  S8  1  0.66666600  0.33333400  0.82290659  1
  S  S9  1  0.33333300  0.66666700  0.44790270  1
  S  S10  1  0.66666700  0.33333300  0.23956015  1
  S  S11  1  0.66666700  0.33333300  0.11456150  1
  S  S12  1  0.00000000  0.00000000  0.03126351  1
  S  S13  1  0.33333300  0.66666700  0.73959998  1
  S  S14  1  0.00000000  0.00000000  0.15623408  1
  S  S15  1  0.33333300  0.66666700  0.86456790  1
  S  S16  1  0.66666700  0.33333300  0.65623537  1
  S  S17  1  0.33333400  0.66666600  0.61456727  1
  S  S18  1  0.00000000  0.00000000  0.28120250  1
  S  S19  1  0.33333400  0.66666600  0.07290381  1
  S  S20  1  0.00000000  0.00000000  0.69786704  1
  S  S21  1  0.66666600  0.33333400  0.40623843  1
  S  S22  1  0.33333300  0.66666700  0.32293850  1
  S  S23  1  -0.00000000  -0.00000000  0.90623884  1
loop_
_geom_bond_atom_site_label_1
_geom_bond_atom_site_label_2
_geom_bond_distance
_geom_bond_site_symmetry_2
S0 Zn16 2.332348 1_655
S0 Zn16 2.332348 1_545
S0 Zn16 2.332361 1_555
S0 Zn7 2.332624 1_555
S1 Zn10 2.330980 1_555
S1 Zn18 2.332691 1_445
S1 Zn18 2.332692 1_555
S1 Zn18 2.332704 1_545
S2 Zn8 2.332441 1_455
S2 Zn8 2.332442 1_565
S2 Zn8 2.332454 1_555
S2 Zn13 2.333556 1_555
S3 Zn16 2.331460 1_555
S3 Zn1 2.333506 1_666
S3 Zn1 2.333506 1_556
S3 Zn1 2.333519 1_566
S4 Zn0 2.331811 1_455
S4 Zn21 2.332506 1_555
S4 Zn21 2.332506 1_445
S4 Zn21 2.332519 1_455
S5 Zn17 2.331210 1_555
S5 Zn6 2.333582 1_555
S5 Zn6 2.333582 1_445
S5 Zn6 2.333595 1_455
S6 Zn10 2.332803 1_555
S6 Zn10 2.332807 1_665
S6 Zn10 2.332823 1_655
S6 Zn6 2.335677 1_555
S7 Zn22 2.331654 1_455
S7 Zn20 2.332768 1_555
S7 Zn20 2.332769 1_445
S7 Zn20 2.332781 1_455
S8 Zn20 2.332495 1_555
S8 Zn4 2.332783 1_655
S8 Zn4 2.332783 1_545
S8 Zn4 2.332796 1_555
S9 Zn17 2.332494 1_665
S9 Zn17 2.332495 1_555
S9 Zn17 2.332508 1_565
S9 Zn14 2.332893 1_555
S10 Zn23 2.332373 1_555
S10 Zn23 2.332373 1_665
S10 Zn23 2.332386 1_655
S10 Zn8 2.333440 1_555
S11 Zn12 2.332575 1_555
S11 Zn12 2.332575 1_665
S11 Zn12 2.332588 1_655
S11 Zn3 2.333685 1_555
S12 Zn11 2.332459 1_445
S12 Zn11 2.332459 1_555
S12 Zn11 2.332472 1_545
S12 Zn1 2.335857 1_555
S13 Zn22 2.332727 1_565
S13 Zn22 2.332727 1_455
S13 Zn22 2.332749 1_465
S13 Zn15 2.334894 1_555
S14 Zn13 2.332591 1_445
S14 Zn13 2.332591 1_555
S14 Zn13 2.332604 1_545
S14 Zn12 2.334035 1_555
S15 Zn4 2.332573 1_555
S15 Zn19 2.332894 1_665
S15 Zn19 2.332894 1_555
S15 Zn19 2.332907 1_565
S16 Zn9 2.332550 1_555
S16 Zn5 2.332663 1_555
S16 Zn5 2.332663 1_665
S16 Zn5 2.332676 1_655
S17 Zn18 2.332544 1_555
S17 Zn9 2.332960 1_455
S17 Zn9 2.332960 1_565
S17 Zn9 2.332973 1_555
S18 Zn23 2.332382 1_555
S18 Zn2 2.333485 1_445
S18 Zn2 2.333485 1_555
S18 Zn2 2.333498 1_545
S19 Zn11 2.331971 1_555
S19 Zn3 2.332320 1_455
S19 Zn3 2.332321 1_565
S19 Zn3 2.332334 1_555
S20 Zn5 2.330715 1_555
S20 Zn15 2.333799 1_445
S20 Zn15 2.333799 1_555
S20 Zn15 2.333812 1_545
S21 Zn14 2.332750 1_655
S21 Zn14 2.332750 1_545
S21 Zn14 2.332763 1_555
S21 Zn21 2.333283 1_555
S22 Zn0 2.332506 1_565
S22 Zn0 2.332507 1_455
S22 Zn0 2.332529 1_465
S22 Zn2 2.336056 1_555
S23 Zn7 2.332770 1_555
S23 Zn7 2.332770 1_445
S23 Zn7 2.332783 1_455
S23 Zn19 2.332961 1_555
