# generated using pymatgen
data_Ta5Si3
_symmetry_space_group_name_H-M   'P 1'
_cell_length_a   5.09808867
_cell_length_b   7.49313203
_cell_length_c   7.49313264
_cell_angle_alpha   83.34795697
_cell_angle_beta   70.11121586
_cell_angle_gamma   70.11123117
_symmetry_Int_Tables_number   1
_chemical_formula_structural   Ta5Si3
_chemical_formula_sum   'Ta10 Si6'
_cell_volume   253.11487254
_cell_formula_units_Z   2
loop_
 _symmetry_equiv_pos_site_id
 _symmetry_equiv_pos_as_xyz
  1  'x, y, z'
loop_
 _atom_site_type_symbol
 _atom_site_label
 _atom_site_symmetry_multiplicity
 _atom_site_fract_x
 _atom_site_fract_y
 _atom_site_fract_z
 _atom_site_occupancy
  Ta  Ta0  1  0.57496764  0.70497998  0.14477067  1
  Ta  Ta1  1  0.25000000  0.50003774  0.49996226  1
  Ta  Ta2  1  0.07496764  0.14477067  0.70497998  1
  Ta  Ta3  1  0.92503236  0.85522933  0.29502002  1
  Ta  Ta4  1  0.75000000  0.49996226  0.50003774  1
  Ta  Ta5  1  0.71975224  0.85518905  0.70496368  1
  Ta  Ta6  1  0.42503236  0.29502002  0.85522933  1
  Ta  Ta7  1  0.78024776  0.29503632  0.14481095  1
  Ta  Ta8  1  0.28024776  0.14481095  0.29503632  1
  Ta  Ta9  1  0.21975224  0.70496368  0.85518905  1
  Si  Si0  1  0.16536295  0.50004997  0.16925409  1
  Si  Si1  1  0.25000000  0.00002117  0.99997883  1
  Si  Si2  1  0.66536295  0.16925409  0.50004997  1
  Si  Si3  1  0.83463705  0.49995003  0.83074591  1
  Si  Si4  1  0.75000000  0.99997883  0.00002117  1
  Si  Si5  1  0.33463705  0.83074591  0.49995003  1
loop_
_geom_bond_atom_site_label_1
_geom_bond_atom_site_label_2
_geom_bond_distance
_geom_bond_site_symmetry_2
Ta1 Ta4 2.549044 1_455
Ta1 Ta4 2.549044 1_555
Si0 Ta9 2.642194 1_554
Si0 Ta6 2.642696 1_554
Si0 Ta3 2.655028 1_455
Si0 Ta8 2.655261 1_555
Si0 Ta1 2.655991 1_555
Si0 Ta4 2.656504 1_455
Si0 Ta0 2.933941 1_555
Si0 Ta7 2.934307 1_455
Si0 Ta0 2.935438 1_455
Si0 Ta7 2.935659 1_555
Si1 Si4 2.549044 1_446
Si1 Si4 2.549044 1_546
Si1 Ta3 2.642840 1_446
Si1 Ta0 2.642841 1_546
Si1 Ta5 2.642952 1_545
Si1 Ta7 2.642952 1_456
Si1 Ta6 2.643275 1_555
Si1 Ta2 2.643275 1_555
Si1 Ta9 2.643950 1_545
Si1 Ta8 2.643950 1_556
Si2 Ta5 2.642194 1_545
Si2 Ta3 2.642696 1_545
Si2 Ta6 2.655028 1_555
Si2 Ta7 2.655261 1_555
Si2 Ta4 2.655991 1_555
Si2 Ta1 2.656504 1_555
Si2 Ta2 2.933941 1_655
Si2 Ta8 2.934308 1_555
Si2 Ta2 2.935438 1_555
Si2 Ta8 2.935659 1_655
Si3 Ta7 2.642194 1_556
Si3 Ta0 2.642696 1_556
Si3 Ta2 2.655028 1_655
Si3 Ta5 2.655261 1_555
Si3 Ta4 2.655991 1_555
Si3 Ta1 2.656504 1_655
Si3 Ta6 2.933941 1_555
Si3 Ta9 2.934307 1_655
Si3 Ta6 2.935438 1_655
Si3 Ta9 2.935659 1_555
Si4 Ta2 2.642840 1_664
Si4 Ta6 2.642841 1_564
Si4 Ta8 2.642952 1_565
Si4 Ta9 2.642952 1_654
Si4 Ta0 2.643275 1_555
Si4 Ta3 2.643275 1_555
Si4 Ta7 2.643950 1_565
Si4 Ta5 2.643950 1_554
Si5 Ta8 2.642194 1_565
Si5 Ta2 2.642696 1_565
Si5 Ta0 2.655028 1_555
Si5 Ta9 2.655261 1_555
Si5 Ta1 2.655991 1_555
Si5 Ta4 2.656504 1_555
Si5 Ta3 2.933941 1_455
Si5 Ta5 2.934308 1_555
Si5 Ta3 2.935438 1_555
Si5 Ta5 2.935659 1_455
