# generated using pymatgen
data_CuP4I
_symmetry_space_group_name_H-M   'P 1'
_cell_length_a   13.95739300
_cell_length_b   9.84123600
_cell_length_c   13.16877860
_cell_angle_alpha   70.89667593
_cell_angle_beta   90.00000000
_cell_angle_gamma   90.00000000
_symmetry_Int_Tables_number   1
_chemical_formula_structural   CuP4I
_chemical_formula_sum   'Cu12 P48 I12'
_cell_volume   1709.22428094
_cell_formula_units_Z   12
loop_
 _symmetry_equiv_pos_site_id
 _symmetry_equiv_pos_as_xyz
  1  'x, y, z'
loop_
 _atom_site_type_symbol
 _atom_site_label
 _atom_site_symmetry_multiplicity
 _atom_site_fract_x
 _atom_site_fract_y
 _atom_site_fract_z
 _atom_site_occupancy
  Cu  Cu0  1  0.04043200  0.79079100  0.84808600  1
  Cu  Cu1  1  0.10763000  0.00574400  0.07643900  1
  Cu  Cu2  1  0.31740300  0.90440100  0.93873800  1
  Cu  Cu3  1  0.76368400  0.79508300  0.70993800  1
  Cu  Cu4  1  0.54043200  0.20920900  0.15191400  1
  Cu  Cu5  1  0.81740300  0.09559900  0.06126200  1
  Cu  Cu6  1  0.21371600  0.78902200  0.51231200  1
  Cu  Cu7  1  0.48972100  0.79358300  0.64226600  1
  Cu  Cu8  1  0.98972100  0.20641700  0.35773400  1
  Cu  Cu9  1  0.60763000  0.99425600  0.92356100  1
  Cu  Cu10  1  0.26368400  0.20491700  0.29006200  1
  Cu  Cu11  1  0.71371600  0.21097800  0.48768800  1
  P  P0  1  0.11899100  0.58932300  0.55823700  1
  P  P1  1  0.39356200  0.30837400  0.51192800  1
  P  P2  1  0.06017400  0.38585800  0.90254200  1
  P  P3  1  0.19716400  0.38543700  0.65218100  1
  P  P4  1  0.73004500  0.45046900  0.66251600  1
  P  P5  1  0.79823400  0.67588400  0.03142100  1
  P  P6  1  0.34469700  0.46704700  0.59030500  1
  P  P7  1  0.13508500  0.59072600  0.89838400  1
  P  P8  1  0.99450000  0.30774100  0.17476400  1
  P  P9  1  0.52285600  0.45630300  0.85997900  1
  P  P10  1  0.91237600  0.46672900  0.92351800  1
  P  P11  1  0.17143100  0.56394400  0.06836700  1
  P  P12  1  0.49450000  0.69225900  0.82523600  1
  P  P13  1  0.28137800  0.54640200  0.85067700  1
  P  P14  1  0.36323700  0.69527700  0.92225100  1
  P  P15  1  0.71935300  0.66700800  0.88161600  1
  P  P16  1  0.47342800  0.45863300  0.36996100  1
  P  P17  1  0.80769800  0.34961900  0.55375700  1
  P  P18  1  0.21935300  0.33299200  0.11838400  1
  P  P19  1  0.23004500  0.54953100  0.33748400  1
  P  P20  1  0.09191700  0.23346400  0.07046500  1
  P  P21  1  0.86323700  0.30472300  0.07774900  1
  P  P22  1  0.03770900  0.33003800  0.46766300  1
  P  P23  1  0.56017400  0.61414200  0.09745800  1
  P  P24  1  0.84469700  0.53295300  0.40969500  1
  P  P25  1  0.59191700  0.76653600  0.92953500  1
  P  P26  1  0.41237600  0.53327100  0.07648200  1
  P  P27  1  0.16707300  0.23140300  0.56000300  1
  P  P28  1  0.97342800  0.54136700  0.63003900  1
  P  P29  1  0.45582900  0.68102600  0.37957800  1
  P  P30  1  0.58167200  0.43592000  0.59810200  1
  P  P31  1  0.30769800  0.65038100  0.44624300  1
  P  P32  1  0.94714200  0.64874500  0.98107200  1
  P  P33  1  0.02285600  0.54369700  0.14002100  1
  P  P34  1  0.61899100  0.41067700  0.44176300  1
  P  P35  1  0.95582900  0.31897400  0.62042200  1
  P  P36  1  0.67143100  0.43605600  0.93163300  1
  P  P37  1  0.63508500  0.40927400  0.10161600  1
  P  P38  1  0.53770900  0.66996200  0.53233700  1
  P  P39  1  0.44714200  0.35125500  0.01892800  1
  P  P40  1  0.26032900  0.31434800  0.41770200  1
  P  P41  1  0.29823400  0.32411600  0.96857900  1
  P  P42  1  0.76032900  0.68565200  0.58229800  1
  P  P43  1  0.08167200  0.56408000  0.40189800  1
  P  P44  1  0.78137800  0.45359800  0.14932300  1
  P  P45  1  0.66707300  0.76859700  0.43999700  1
  P  P46  1  0.89356200  0.69162600  0.48807200  1
  P  P47  1  0.69716400  0.61456300  0.34781900  1
  I  I0  1  0.94128600  0.89678300  0.67509900  1
  I  I1  1  0.81471500  0.10389600  0.36972100  1
  I  I2  1  0.28195400  0.90176800  0.13773300  1
  I  I3  1  0.13872700  0.00301400  0.87191500  1
  I  I4  1  0.44128600  0.10321700  0.32490100  1
  I  I5  1  0.63872700  0.99698600  0.12808500  1
  I  I6  1  0.44132100  0.11064700  0.84690900  1
  I  I7  1  0.94132100  0.88935300  0.15309100  1
  I  I8  1  0.31471500  0.89610400  0.63027900  1
  I  I9  1  0.62653000  0.99739100  0.63309500  1
  I  I10  1  0.78195400  0.09823200  0.86226700  1
  I  I11  1  0.12653000  0.00260900  0.36690500  1
loop_
_geom_bond_atom_site_label_1
_geom_bond_atom_site_label_2
_geom_bond_distance
_geom_bond_site_symmetry_2
Cu0 P32 2.261438 1_455
Cu0 P7 2.281878 1_555
Cu0 I0 2.576253 1_455
Cu0 I3 2.602241 1_565
Cu1 P20 2.227370 1_555
Cu1 I7 2.638615 1_445
Cu1 I2 2.660445 1_545
Cu1 I3 2.736878 1_554
Cu2 P14 2.232572 1_555
Cu2 I6 2.639496 1_565
Cu2 I2 2.658601 1_556
Cu2 I3 2.715970 1_565
Cu3 P42 2.274232 1_555
Cu3 P15 2.284188 1_555
Cu3 I0 2.656387 1_555
Cu3 I9 2.708098 1_555
Cu4 P39 2.261438 1_555
Cu4 P37 2.281878 1_555
Cu4 I4 2.576253 1_555
Cu4 I5 2.602241 1_545
Cu5 P21 2.232572 1_555
Cu5 I7 2.639496 1_545
Cu5 I10 2.658601 1_554
Cu5 I5 2.715970 1_545
Cu6 P31 2.261912 1_555
Cu6 P0 2.279939 1_555
Cu6 I8 2.565657 1_555
Cu6 I11 2.632709 1_565
Cu7 P38 2.275321 1_555
Cu7 P12 2.287309 1_555
Cu7 I8 2.627746 1_555
Cu7 I9 2.743198 1_555
Cu8 P22 2.275321 1_655
Cu8 P8 2.287309 1_555
Cu8 I1 2.627746 1_555
Cu8 I11 2.743198 1_655
Cu9 P25 2.227370 1_555
Cu9 I6 2.638615 1_565
Cu9 I10 2.660445 1_565
Cu9 I5 2.736878 1_556
Cu10 P40 2.274232 1_555
Cu10 P18 2.284188 1_555
Cu10 I4 2.656387 1_555
Cu10 I11 2.708098 1_555
Cu11 P17 2.261912 1_555
Cu11 P34 2.279939 1_555
Cu11 I1 2.565657 1_555
Cu11 I9 2.632709 1_545
P0 P43 2.215045 1_555
P0 P28 2.225404 1_455
P0 P3 2.263228 1_555
P1 P40 2.225635 1_555
P1 P6 2.241382 1_555
P1 P16 2.261612 1_555
P2 P7 2.255841 1_555
P2 P20 2.272618 1_556
P3 P6 2.262928 1_555
P4 P42 2.247469 1_555
P10 P32 2.215208 1_555
P10 P21 2.240064 1_556
P10 P2 2.260323 1_655
P11 P7 2.225170 1_554
P11 P18 2.251044 1_555
P11 P33 2.259939 1_555
P12 P25 2.219620 1_555
P12 P14 2.239297 1_555
P12 P9 2.250047 1_555
P13 P7 2.221163 1_555
P13 P41 2.242389 1_555
P13 P14 2.290026 1_555
P14 P26 2.240064 1_556
P15 P25 2.219421 1_555
P15 P36 2.251044 1_555
P15 P5 2.285673 1_556
P16 P34 2.225404 1_555
P16 P29 2.246746 1_555
P17 P24 2.209206 1_555
P17 P35 2.227781 1_555
P17 P4 2.267467 1_555
P18 P20 2.219421 1_555
P18 P41 2.285673 1_554
P19 P40 2.247469 1_555
P19 P43 2.260124 1_555
P19 P31 2.267467 1_555
P20 P8 2.219620 1_455
P21 P8 2.239297 1_555
P21 P44 2.290026 1_555
P22 P27 2.215500 1_555
P22 P43 2.264051 1_555
P22 P35 2.285013 1_455
P23 P37 2.255841 1_555
P23 P26 2.260323 1_555
P23 P25 2.272618 1_554
P24 P46 2.241382 1_555
P24 P47 2.262928 1_555
P26 P39 2.215208 1_555
P27 P40 2.207010 1_555
P27 P3 2.269847 1_555
P28 P35 2.246746 1_555
P28 P46 2.261612 1_555
P29 P31 2.227781 1_555
P29 P38 2.285013 1_555
P30 P34 2.215045 1_555
P30 P4 2.260124 1_555
P30 P38 2.264051 1_555
P31 P6 2.209206 1_555
P32 P5 2.224066 1_556
P32 P33 2.269463 1_656
P33 P8 2.250047 1_455
P34 P47 2.263228 1_555
P36 P37 2.225170 1_556
P36 P9 2.259939 1_555
P37 P44 2.221163 1_555
P38 P45 2.215500 1_555
P39 P41 2.224066 1_554
P39 P9 2.269463 1_554
P42 P45 2.207010 1_555
P42 P46 2.225635 1_555
P44 P5 2.242389 1_555
P45 P47 2.269847 1_555
