# generated using pymatgen
data_Pr(AlBr4)3
_symmetry_space_group_name_H-M   'P 1'
_cell_length_a   10.61042192
_cell_length_b   10.61011511
_cell_length_c   18.61485616
_cell_angle_alpha   90.02119352
_cell_angle_beta   89.97837151
_cell_angle_gamma   120.00005254
_symmetry_Int_Tables_number   1
_chemical_formula_structural   Pr(AlBr4)3
_chemical_formula_sum   'Pr3 Al9 Br36'
_cell_volume   1814.85860687
_cell_formula_units_Z   3
loop_
 _symmetry_equiv_pos_site_id
 _symmetry_equiv_pos_as_xyz
  1  'x, y, z'
loop_
 _atom_site_type_symbol
 _atom_site_label
 _atom_site_symmetry_multiplicity
 _atom_site_fract_x
 _atom_site_fract_y
 _atom_site_fract_z
 _atom_site_occupancy
  Pr  Pr0  1  0.26743852  0.26741801  0.00000104  1
  Pr  Pr1  1  -0.00012939  0.73270005  0.66655454  1
  Pr  Pr2  1  0.73270786  -0.00019293  0.33345197  1
  Al  Al0  1  0.36520255  0.66718539  0.05534614  1
  Al  Al1  1  0.63437118  0.30106363  0.27762380  1
  Al  Al2  1  0.30110839  0.63443416  0.72239264  1
  Al  Al3  1  0.69822955  0.33343212  0.61053373  1
  Al  Al4  1  0.09798973  0.99991220  0.83319795  1
  Al  Al5  1  -0.00009153  0.09800202  0.16682293  1
  Al  Al6  1  0.66718972  0.36516157  0.94463054  1
  Al  Al7  1  0.33327695  0.69817987  0.38945352  1
  Al  Al8  1  0.90297789  0.90291338  0.50000713  1
  Br  Br0  1  0.49338238  0.41182681  0.88670079  1
  Br  Br1  1  0.79846873  0.76594419  0.39770180  1
  Br  Br2  1  0.14130525  0.71693724  0.35169705  1
  Br  Br3  1  0.47664065  0.70821949  0.29003773  1
  Br  Br4  1  0.22105563  0.71521040  0.12530725  1
  Br  Br5  1  0.28586977  0.50629250  0.45946874  1
  Br  Br6  1  0.03168116  0.23514389  0.26901719  1
  Br  Br7  1  0.96743209  0.20188112  0.06432879  1
  Br  Br8  1  0.29136808  0.76789981  0.62293421  1
  Br  Br9  1  0.87505962  0.80371181  0.80332698  1
  Br  Br10  1  0.77859289  0.49299264  0.20759073  1
  Br  Br11  1  0.23515147  0.03165278  0.73102482  1
  Br  Br12  1  0.92843880  0.12524456  0.47011826  1
  Br  Br13  1  0.23131413  0.52352438  0.95614656  1
  Br  Br14  1  0.50728149  0.91905122  0.44701944  1
  Br  Br15  1  0.08056238  0.58798835  0.78010660  1
  Br  Br16  1  0.58807313  0.08055126  0.21986928  1
  Br  Br17  1  0.12528485  0.92839027  0.52990624  1
  Br  Br18  1  0.49294641  0.77874798  0.79243480  1
  Br  Br19  1  0.80367207  0.87504910  0.19667202  1
  Br  Br20  1  0.07259981  0.19694863  0.86310650  1
  Br  Br21  1  0.28126786  0.42321570  0.68441095  1
  Br  Br22  1  0.71524945  0.22097393  0.87471528  1
  Br  Br23  1  0.19686181  0.07243617  0.13688033  1
  Br  Br24  1  0.50652917  0.28642461  0.54048952  1
  Br  Br25  1  0.91905375  0.50745091  0.55293152  1
  Br  Br26  1  0.76599083  0.79835841  0.60231768  1
  Br  Br27  1  0.76790578  0.29134386  0.37707260  1
  Br  Br28  1  0.57662885  0.85857462  0.01772054  1
  Br  Br29  1  0.85847879  0.57655603  0.98230644  1
  Br  Br30  1  0.42304056  0.28094819  0.31564303  1
  Br  Br31  1  0.71698940  0.14134960  0.64814973  1
  Br  Br32  1  0.41179223  0.49337884  0.11327916  1
  Br  Br33  1  0.20199720  0.96752083  0.93566705  1
  Br  Br34  1  0.70821835  0.47667643  0.71004108  1
  Br  Br35  1  0.52354079  0.23137196  0.04384139  1
loop_
_geom_bond_atom_site_label_1
_geom_bond_atom_site_label_2
_geom_bond_distance
_geom_bond_site_symmetry_2
Al0 Br4 2.252168 1_555
Al0 Br28 2.256339 1_555
Al0 Br13 2.363451 1_554
Al0 Br32 2.391979 1_555
Al1 Br10 2.252184 1_555
Al1 Br30 2.257146 1_555
Al1 Br27 2.365036 1_555
Al1 Br16 2.391726 1_555
Al2 Br18 2.251999 1_555
Al2 Br21 2.256917 1_555
Al2 Br8 2.364765 1_555
Al2 Br15 2.391309 1_555
Al3 Br24 2.252355 1_555
Al3 Br31 2.256162 1_555
Al3 Br34 2.364148 1_555
Al3 Br25 2.392086 1_555
Al4 Br9 2.305173 1_455
Al4 Br20 2.305490 1_565
Al4 Br33 2.314231 1_555
Al4 Br11 2.314536 1_565
Al5 Br19 2.305339 1_445
Al5 Br23 2.305907 1_555
Al5 Br7 2.314195 1_455
Al5 Br6 2.314670 1_555
Al6 Br22 2.252203 1_555
Al6 Br29 2.256016 1_555
Al6 Br35 2.363265 1_556
Al6 Br0 2.392477 1_555
Al7 Br5 2.252580 1_555
Al7 Br2 2.255905 1_555
Al7 Br3 2.363469 1_555
Al7 Br14 2.392027 1_555
Al8 Br17 2.304324 1_655
Al8 Br12 2.304519 1_565
Al8 Br1 2.314384 1_555
Al8 Br26 2.314613 1_555
Br0 Pr0 2.977997 1_556
Br1 Pr2 3.131829 1_565
Br3 Pr2 3.033251 1_565
Br6 Pr2 3.132876 1_455
Br7 Pr0 3.135989 1_655
Br8 Pr1 3.034487 1_555
Br9 Pr1 3.130075 1_655
Br11 Pr1 3.132803 1_545
Br12 Pr2 3.129518 1_555
Br13 Pr0 3.039830 1_556
Br14 Pr2 2.978668 1_565
Br15 Pr1 2.979399 1_555
Br16 Pr2 2.979588 1_555
Br17 Pr1 3.128983 1_555
Br19 Pr2 3.129648 1_565
Br20 Pr0 3.127842 1_556
Br23 Pr0 3.128278 1_555
Br25 Pr1 2.978059 1_655
Br26 Pr1 3.131283 1_655
Br27 Pr2 3.034812 1_555
Br32 Pr0 2.977727 1_555
Br33 Pr0 3.135197 1_566
Br34 Pr1 3.033833 1_655
Br35 Pr0 3.039315 1_555
