# generated using pymatgen
data_Ce3Si2BO10
_symmetry_space_group_name_H-M   'P 1'
_cell_length_a   7.22198535
_cell_length_b   9.93927085
_cell_length_c   23.42685527
_cell_angle_alpha   90.00000000
_cell_angle_beta   90.00000000
_cell_angle_gamma   90.00000000
_symmetry_Int_Tables_number   1
_chemical_formula_structural   Ce3Si2BO10
_chemical_formula_sum   'Ce24 Si16 B8 O80'
_cell_volume   1681.60938751
_cell_formula_units_Z   8
loop_
 _symmetry_equiv_pos_site_id
 _symmetry_equiv_pos_as_xyz
  1  'x, y, z'
loop_
 _atom_site_type_symbol
 _atom_site_label
 _atom_site_symmetry_multiplicity
 _atom_site_fract_x
 _atom_site_fract_y
 _atom_site_fract_z
 _atom_site_occupancy
  Ce  Ce0  1  0.90734604  0.73217262  0.81719485  1
  Ce  Ce1  1  0.82322329  0.36516270  0.33646316  1
  Ce  Ce2  1  0.09265396  0.76782738  0.31719485  1
  Ce  Ce3  1  0.67677671  0.86516270  0.66353684  1
  Ce  Ce4  1  0.09265396  0.26782738  0.18280515  1
  Ce  Ce5  1  0.67677671  0.36516270  0.83646316  1
  Ce  Ce6  1  0.13738198  0.99078223  0.57215219  1
  Ce  Ce7  1  0.40734604  0.76782738  0.81719485  1
  Ce  Ce8  1  0.82322329  0.86516270  0.16353684  1
  Ce  Ce9  1  0.59265396  0.23217262  0.18280515  1
  Ce  Ce10  1  0.17677671  0.63483730  0.66353684  1
  Ce  Ce11  1  0.40734604  0.26782738  0.68280515  1
  Ce  Ce12  1  0.36261802  0.99078223  0.07215219  1
  Ce  Ce13  1  0.32322329  0.63483730  0.16353684  1
  Ce  Ce14  1  0.63738198  0.00921777  0.92784781  1
  Ce  Ce15  1  0.90734604  0.23217262  0.68280515  1
  Ce  Ce16  1  0.63738198  0.50921777  0.57215219  1
  Ce  Ce17  1  0.13738198  0.49078223  0.92784781  1
  Ce  Ce18  1  0.17677671  0.13483730  0.83646316  1
  Ce  Ce19  1  0.86261802  0.00921777  0.42784781  1
  Ce  Ce20  1  0.86261802  0.50921777  0.07215219  1
  Ce  Ce21  1  0.36261802  0.49078223  0.42784781  1
  Ce  Ce22  1  0.59265396  0.73217262  0.31719485  1
  Ce  Ce23  1  0.32322329  0.13483730  0.33646316  1
  Si  Si0  1  0.14271983  0.87624985  0.92147823  1
  Si  Si1  1  0.68568286  0.56135069  0.72056384  1
  Si  Si2  1  0.85728017  0.12375015  0.07852177  1
  Si  Si3  1  0.81431714  0.06135069  0.27943616  1
  Si  Si4  1  0.14271983  0.37624985  0.57852177  1
  Si  Si5  1  0.31431714  0.93864931  0.22056384  1
  Si  Si6  1  0.85728017  0.62375015  0.42147823  1
  Si  Si7  1  0.81431714  0.56135069  0.22056384  1
  Si  Si8  1  0.64271983  0.62375015  0.92147823  1
  Si  Si9  1  0.31431714  0.43864931  0.27943616  1
  Si  Si10  1  0.35728017  0.37624985  0.07852177  1
  Si  Si11  1  0.18568286  0.93864931  0.72056384  1
  Si  Si12  1  0.64271983  0.12375015  0.57852177  1
  Si  Si13  1  0.18568286  0.43864931  0.77943616  1
  Si  Si14  1  0.35728017  0.87624985  0.42147823  1
  Si  Si15  1  0.68568286  0.06135069  0.77943616  1
  B  B0  1  0.65751120  0.25620827  0.47244886  1
  B  B1  1  0.34248880  0.24379173  0.97244886  1
  B  B2  1  0.15751120  0.74379173  0.02755114  1
  B  B3  1  0.34248880  0.74379173  0.52755114  1
  B  B4  1  0.84248880  0.75620827  0.52755114  1
  B  B5  1  0.15751120  0.24379173  0.47244886  1
  B  B6  1  0.84248880  0.25620827  0.97244886  1
  B  B7  1  0.65751120  0.75620827  0.02755114  1
  O  O0  1  0.53714543  0.10801325  0.82821871  1
  O  O1  1  0.29454782  0.10390750  0.22116133  1
  O  O2  1  0.33734960  0.86041107  0.49194537  1
  O  O3  1  0.03771222  0.03838891  0.09925104  1
  O  O4  1  0.03714543  0.89198675  0.67178129  1
  O  O5  1  0.79454782  0.39609250  0.22116133  1
  O  O6  1  0.82479882  0.54837407  0.89420711  1
  O  O7  1  0.96228778  0.96161109  0.90074896  1
  O  O8  1  0.73551255  0.73867761  0.08041375  1
  O  O9  1  0.03771222  0.53838891  0.40074896  1
  O  O10  1  0.16265040  0.36041107  0.50805463  1
  O  O11  1  0.12754945  0.34642942  0.28933803  1
  O  O12  1  0.35423352  0.72661468  0.39044299  1
  O  O13  1  0.37245055  0.84642942  0.71066197  1
  O  O14  1  0.76448745  0.73867761  0.58041375  1
  O  O15  1  0.63049739  0.09786635  0.71249863  1
  O  O16  1  0.85423352  0.77338532  0.39044299  1
  O  O17  1  0.26448745  0.76132239  0.58041375  1
  O  O18  1  0.20545218  0.10390750  0.72116133  1
  O  O19  1  0.46228778  0.53838891  0.90074896  1
  O  O20  1  0.53771222  0.46161109  0.09925104  1
  O  O21  1  0.16265040  0.86041107  0.99194537  1
  O  O22  1  0.79454782  0.89609250  0.27883867  1
  O  O23  1  0.46228778  0.03838891  0.59925104  1
  O  O24  1  0.36950261  0.40213365  0.21249863  1
  O  O25  1  0.57990195  0.87222460  0.00860495  1
  O  O26  1  0.42009805  0.62777540  0.50860495  1
  O  O27  1  0.37245055  0.34642942  0.78933803  1
  O  O28  1  0.14576648  0.72661468  0.89044299  1
  O  O29  1  0.73551255  0.23867761  0.41958625  1
  O  O30  1  0.63049739  0.59786635  0.78750137  1
  O  O31  1  0.53771222  0.96161109  0.40074896  1
  O  O32  1  0.46285457  0.89198675  0.17178129  1
  O  O33  1  0.64576648  0.77338532  0.89044299  1
  O  O34  1  0.96285457  0.10801325  0.32821871  1
  O  O35  1  0.96228778  0.46161109  0.59925104  1
  O  O36  1  0.82479882  0.04837407  0.60579289  1
  O  O37  1  0.92009805  0.37222460  0.99139505  1
  O  O38  1  0.14576648  0.22661468  0.60955701  1
  O  O39  1  0.86950261  0.09786635  0.21249863  1
  O  O40  1  0.87245055  0.65357058  0.71066197  1
  O  O41  1  0.29454782  0.60390750  0.27883867  1
  O  O42  1  0.67520118  0.04837407  0.10579289  1
  O  O43  1  0.35423352  0.22661468  0.10955701  1
  O  O44  1  0.87245055  0.15357058  0.78933803  1
  O  O45  1  0.70545218  0.39609250  0.72116133  1
  O  O46  1  0.92009805  0.87222460  0.50860495  1
  O  O47  1  0.17520118  0.95162593  0.39420711  1
  O  O48  1  0.67520118  0.54837407  0.39420711  1
  O  O49  1  0.64576648  0.27338532  0.60955701  1
  O  O50  1  0.96285457  0.60801325  0.17178129  1
  O  O51  1  0.13049739  0.40213365  0.71249863  1
  O  O52  1  0.23551255  0.26132239  0.41958625  1
  O  O53  1  0.76448745  0.23867761  0.91958625  1
  O  O54  1  0.42009805  0.12777540  0.99139505  1
  O  O55  1  0.26448745  0.26132239  0.91958625  1
  O  O56  1  0.85423352  0.27338532  0.10955701  1
  O  O57  1  0.36950261  0.90213365  0.28750137  1
  O  O58  1  0.70545218  0.89609250  0.77883867  1
  O  O59  1  0.03714543  0.39198675  0.82821871  1
  O  O60  1  0.57990195  0.37222460  0.49139505  1
  O  O61  1  0.46285457  0.39198675  0.32821871  1
  O  O62  1  0.32479882  0.45162593  0.60579289  1
  O  O63  1  0.83734960  0.13958893  0.00805463  1
  O  O64  1  0.07990195  0.12777540  0.49139505  1
  O  O65  1  0.13049739  0.90213365  0.78750137  1
  O  O66  1  0.53714543  0.60801325  0.67178129  1
  O  O67  1  0.86950261  0.59786635  0.28750137  1
  O  O68  1  0.20545218  0.60390750  0.77883867  1
  O  O69  1  0.66265040  0.13958893  0.50805463  1
  O  O70  1  0.17520118  0.45162593  0.10579289  1
  O  O71  1  0.62754945  0.65357058  0.21066197  1
  O  O72  1  0.12754945  0.84642942  0.21066197  1
  O  O73  1  0.33734960  0.36041107  0.00805463  1
  O  O74  1  0.23551255  0.76132239  0.08041375  1
  O  O75  1  0.62754945  0.15357058  0.28933803  1
  O  O76  1  0.32479882  0.95162593  0.89420711  1
  O  O77  1  0.83734960  0.63958893  0.49194537  1
  O  O78  1  0.66265040  0.63958893  0.99194537  1
  O  O79  1  0.07990195  0.62777540  0.00860495  1
loop_
_geom_bond_atom_site_label_1
_geom_bond_atom_site_label_2
_geom_bond_distance
_geom_bond_site_symmetry_2
Ce0 O58 2.363860 1_555
Ce0 O28 2.431553 1_655
Ce0 O65 2.436151 1_655
Ce0 O30 2.502690 1_555
Ce0 O33 2.584791 1_555
Ce0 O40 2.627266 1_555
Ce0 O6 2.635842 1_555
Ce0 O68 2.658524 1_655
Ce1 O29 2.402864 1_555
Ce1 O11 2.466570 1_655
Ce1 O48 2.507737 1_555
Ce1 O67 2.603247 1_555
Ce1 O61 2.623318 1_555
Ce1 O5 2.726473 1_555
Ce1 O34 2.754400 1_555
Ce1 O9 2.762605 1_655
Ce1 O75 2.763822 1_555
Ce2 O41 2.363860 1_555
Ce2 O16 2.431553 1_455
Ce2 O67 2.436151 1_455
Ce2 O57 2.502690 1_555
Ce2 O12 2.584791 1_555
Ce2 O72 2.627266 1_555
Ce2 O47 2.635842 1_555
Ce2 O22 2.658524 1_455
Ce3 O14 2.402864 1_555
Ce3 O13 2.466570 1_555
Ce3 O36 2.507737 1_565
Ce3 O15 2.603247 1_565
Ce3 O4 2.623318 1_655
Ce3 O58 2.726473 1_555
Ce3 O66 2.754400 1_555
Ce3 O23 2.762605 1_565
Ce3 O40 2.763822 1_555
Ce4 O1 2.363860 1_555
Ce4 O56 2.431553 1_455
Ce4 O39 2.436151 1_455
Ce4 O24 2.502690 1_555
Ce4 O43 2.584791 1_555
Ce4 O11 2.627266 1_555
Ce4 O70 2.635842 1_555
Ce4 O5 2.658524 1_455
Ce5 O53 2.402864 1_555
Ce5 O27 2.466570 1_555
Ce5 O6 2.507737 1_555
Ce5 O30 2.603247 1_555
Ce5 O59 2.623318 1_655
Ce5 O45 2.726473 1_555
Ce5 O0 2.754400 1_555
Ce5 O19 2.762605 1_555
Ce5 O44 2.763822 1_555
Ce6 O64 2.367603 1_565
Ce6 O36 2.458645 1_465
Ce6 O46 2.463187 1_455
Ce6 O17 2.466075 1_555
Ce6 O23 2.476452 1_565
Ce6 O38 2.503173 1_565
Ce6 O4 2.633594 1_555
Ce6 O2 2.700983 1_555
Ce7 O68 2.363860 1_555
Ce7 O33 2.431553 1_555
Ce7 O30 2.436151 1_555
Ce7 O65 2.502690 1_555
Ce7 O28 2.584791 1_555
Ce7 O13 2.627266 1_555
Ce7 O76 2.635842 1_555
Ce7 O58 2.658524 1_555
Ce8 O8 2.402864 1_555
Ce8 O72 2.466570 1_655
Ce8 O42 2.507737 1_565
Ce8 O39 2.603247 1_565
Ce8 O32 2.623318 1_555
Ce8 O22 2.726473 1_555
Ce8 O50 2.754400 1_555
Ce8 O3 2.762605 1_665
Ce8 O71 2.763822 1_555
Ce9 O5 2.363860 1_555
Ce9 O43 2.431553 1_555
Ce9 O24 2.436151 1_555
Ce9 O39 2.502690 1_555
Ce9 O56 2.584791 1_555
Ce9 O75 2.627266 1_555
Ce9 O42 2.635842 1_555
Ce9 O1 2.658524 1_555
Ce10 O17 2.402864 1_555
Ce10 O40 2.466570 1_455
Ce10 O62 2.507737 1_555
Ce10 O51 2.603247 1_555
Ce10 O66 2.623318 1_555
Ce10 O68 2.726473 1_555
Ce10 O4 2.754400 1_555
Ce10 O35 2.762605 1_455
Ce10 O13 2.763822 1_555
Ce11 O18 2.363860 1_555
Ce11 O49 2.431553 1_555
Ce11 O15 2.436151 1_555
Ce11 O51 2.502690 1_555
Ce11 O38 2.584791 1_555
Ce11 O27 2.627266 1_555
Ce11 O62 2.635842 1_555
Ce11 O45 2.658524 1_555
Ce12 O54 2.367603 1_564
Ce12 O42 2.458645 1_565
Ce12 O25 2.463187 1_555
Ce12 O74 2.466075 1_555
Ce12 O3 2.476452 1_565
Ce12 O43 2.503173 1_565
Ce12 O32 2.633594 1_555
Ce12 O21 2.700983 1_554
Ce13 O74 2.402864 1_555
Ce13 O71 2.466570 1_555
Ce13 O70 2.507737 1_555
Ce13 O24 2.603247 1_555
Ce13 O50 2.623318 1_455
Ce13 O41 2.726473 1_555
Ce13 O32 2.754400 1_555
Ce13 O20 2.762605 1_555
Ce13 O72 2.763822 1_555
Ce14 O25 2.367603 1_546
Ce14 O76 2.458645 1_545
Ce14 O54 2.463187 1_555
Ce14 O53 2.466075 1_555
Ce14 O7 2.476452 1_545
Ce14 O33 2.503173 1_545
Ce14 O0 2.633594 1_555
Ce14 O63 2.700983 1_556
Ce15 O45 2.363860 1_555
Ce15 O38 2.431553 1_655
Ce15 O51 2.436151 1_655
Ce15 O15 2.502690 1_555
Ce15 O49 2.584791 1_555
Ce15 O44 2.627266 1_555
Ce15 O36 2.635842 1_555
Ce15 O18 2.658524 1_655
Ce16 O60 2.367603 1_555
Ce16 O62 2.458645 1_555
Ce16 O26 2.463187 1_555
Ce16 O14 2.466075 1_555
Ce16 O35 2.476452 1_555
Ce16 O49 2.503173 1_555
Ce16 O66 2.633594 1_555
Ce16 O77 2.700983 1_555
Ce17 O79 2.367603 1_556
Ce17 O6 2.458645 1_455
Ce17 O37 2.463187 1_455
Ce17 O55 2.466075 1_555
Ce17 O19 2.476452 1_555
Ce17 O28 2.503173 1_555
Ce17 O59 2.633594 1_555
Ce17 O73 2.700983 1_556
Ce18 O55 2.402864 1_555
Ce18 O44 2.466570 1_455
Ce18 O76 2.507737 1_545
Ce18 O65 2.603247 1_545
Ce18 O0 2.623318 1_555
Ce18 O18 2.726473 1_555
Ce18 O59 2.754400 1_555
Ce18 O7 2.762605 1_445
Ce18 O27 2.763822 1_555
Ce19 O46 2.367603 1_545
Ce19 O47 2.458645 1_645
Ce19 O64 2.463187 1_655
Ce19 O29 2.466075 1_555
Ce19 O31 2.476452 1_545
Ce19 O16 2.503173 1_545
Ce19 O34 2.633594 1_555
Ce19 O69 2.700983 1_555
Ce20 O37 2.367603 1_554
Ce20 O70 2.458645 1_655
Ce20 O79 2.463187 1_655
Ce20 O8 2.466075 1_555
Ce20 O20 2.476452 1_555
Ce20 O56 2.503173 1_555
Ce20 O50 2.633594 1_555
Ce20 O78 2.700983 1_554
Ce21 O26 2.367603 1_555
Ce21 O48 2.458645 1_555
Ce21 O60 2.463187 1_555
Ce21 O52 2.466075 1_555
Ce21 O9 2.476452 1_555
Ce21 O12 2.503173 1_555
Ce21 O61 2.633594 1_555
Ce21 O10 2.700983 1_555
Ce22 O22 2.363860 1_555
Ce22 O12 2.431553 1_555
Ce22 O57 2.436151 1_555
Ce22 O67 2.502690 1_555
Ce22 O16 2.584791 1_555
Ce22 O71 2.627266 1_555
Ce22 O48 2.635842 1_555
Ce22 O41 2.658524 1_555
Ce23 O52 2.402864 1_555
Ce23 O75 2.466570 1_555
Ce23 O47 2.507737 1_545
Ce23 O57 2.603247 1_545
Ce23 O34 2.623318 1_455
Ce23 O1 2.726473 1_555
Ce23 O61 2.754400 1_555
Ce23 O31 2.762605 1_545
Ce23 O11 2.763822 1_555
B0 O60 1.356774 1_555
B0 O29 1.371620 1_555
B0 O69 1.428528 1_555
B1 O54 1.356774 1_555
B1 O55 1.371620 1_555
B1 O73 1.428528 1_556
B2 O79 1.356774 1_555
B2 O74 1.371620 1_555
B2 O21 1.428528 1_554
B3 O26 1.356774 1_555
B3 O17 1.371620 1_555
B3 O2 1.428528 1_555
B4 O46 1.356774 1_555
B4 O14 1.371620 1_555
B4 O77 1.428528 1_555
B5 O64 1.356774 1_555
B5 O52 1.371620 1_555
B5 O10 1.428528 1_555
B6 O37 1.356774 1_555
B6 O53 1.371620 1_555
B6 O63 1.428528 1_556
B7 O25 1.356774 1_555
B7 O8 1.371620 1_555
B7 O78 1.428528 1_554
O0 Si15 1.634596 1_555
O1 Si5 1.648799 1_545
O2 Si14 1.664548 1_555
O3 Si2 1.629009 1_455
O4 Si11 1.634596 1_555
O5 Si7 1.648799 1_555
O6 Si8 1.642738 1_555
O7 Si0 1.629009 1_655
O9 Si6 1.629009 1_455
O10 Si4 1.664548 1_555
O11 Si9 1.647214 1_555
O12 Si14 1.655613 1_555
O13 Si11 1.647214 1_555
O15 Si15 1.658197 1_555
O16 Si6 1.655613 1_555
O18 Si11 1.648799 1_545
O19 Si8 1.629009 1_555
O20 Si10 1.629009 1_555
O21 Si0 1.664548 1_555
O22 Si3 1.648799 1_565
O23 Si12 1.629009 1_555
O24 Si9 1.658197 1_555
O27 Si13 1.647214 1_555
O28 Si0 1.655613 1_555
O30 Si1 1.658197 1_555
O31 Si14 1.629009 1_555
O32 Si5 1.634596 1_555
O33 Si8 1.655613 1_555
O34 Si3 1.634596 1_555
O35 Si4 1.629009 1_655
O36 Si12 1.642738 1_555
O38 Si4 1.655613 1_555
O39 Si3 1.658197 1_555
O40 Si1 1.647214 1_555
O41 Si9 1.648799 1_555
O42 Si2 1.642738 1_555
O43 Si10 1.655613 1_555
O44 Si15 1.647214 1_555
O45 Si1 1.648799 1_555
O47 Si14 1.642738 1_555
O48 Si6 1.642738 1_555
O49 Si12 1.655613 1_555
O50 Si7 1.634596 1_555
O51 Si13 1.658197 1_555
O56 Si2 1.655613 1_555
O57 Si5 1.658197 1_555
O58 Si15 1.648799 1_565
O59 Si13 1.634596 1_555
O61 Si9 1.634596 1_555
O62 Si4 1.642738 1_555
O63 Si2 1.664548 1_555
O65 Si11 1.658197 1_555
O66 Si1 1.634596 1_555
O67 Si7 1.658197 1_555
O68 Si13 1.648799 1_555
O69 Si12 1.664548 1_555
O70 Si10 1.642738 1_555
O71 Si7 1.647214 1_555
O72 Si5 1.647214 1_555
O73 Si10 1.664548 1_555
O75 Si3 1.647214 1_555
O76 Si0 1.642738 1_555
O77 Si6 1.664548 1_555
O78 Si8 1.664548 1_555
