# generated using pymatgen
data_LiSb(PO3)4
_symmetry_space_group_name_H-M   'P 1'
_cell_length_a   14.20799900
_cell_length_b   5.57017700
_cell_length_c   7.50387477
_cell_angle_alpha   83.97712424
_cell_angle_beta   90.00000000
_cell_angle_gamma   90.00000000
_symmetry_Int_Tables_number   1
_chemical_formula_structural   LiSb(PO3)4
_chemical_formula_sum   'Li2 Sb2 P8 O24'
_cell_volume   590.58658876
_cell_formula_units_Z   2
loop_
 _symmetry_equiv_pos_site_id
 _symmetry_equiv_pos_as_xyz
  1  'x, y, z'
loop_
 _atom_site_type_symbol
 _atom_site_label
 _atom_site_symmetry_multiplicity
 _atom_site_fract_x
 _atom_site_fract_y
 _atom_site_fract_z
 _atom_site_occupancy
  Li  Li0  1  0.50281800  0.68130600  0.89157200  1
  Li  Li1  1  0.00281800  0.31869400  0.10842800  1
  Sb  Sb0  1  0.73922800  0.51421600  0.48380600  1
  Sb  Sb1  1  0.23922800  0.48578400  0.51619400  1
  P  P0  1  0.88362800  0.99451800  0.56373700  1
  P  P1  1  0.09785200  0.96887500  0.56616800  1
  P  P2  1  0.67014500  0.88477500  0.08498800  1
  P  P3  1  0.31598900  0.77855500  0.11269100  1
  P  P4  1  0.81598900  0.22144500  0.88730900  1
  P  P5  1  0.17014500  0.11522500  0.91501200  1
  P  P6  1  0.59785200  0.03112500  0.43383200  1
  P  P7  1  0.38362800  0.00548200  0.43626300  1
  O  O0  1  0.26060800  0.94713600  0.96272300  1
  O  O1  1  0.11716500  0.95096700  0.77688200  1
  O  O2  1  0.60654800  0.87035100  0.92912200  1
  O  O3  1  0.35925800  0.98345500  0.23033700  1
  O  O4  1  0.49272000  0.92734100  0.45301300  1
  O  O5  1  0.65768500  0.83917300  0.53737000  1
  O  O6  1  0.33270200  0.81798100  0.55997700  1
  O  O7  1  0.87358800  0.73326500  0.53143700  1
  O  O8  1  0.10281000  0.71719700  0.51030000  1
  O  O9  1  0.70564000  0.65494200  0.18700100  1
  O  O10  1  0.39399000  0.66035700  0.02333900  1
  O  O11  1  0.24677800  0.62209100  0.22707100  1
  O  O12  1  0.74677800  0.37790900  0.77292900  1
  O  O13  1  0.89399000  0.33964300  0.97666100  1
  O  O14  1  0.20564000  0.34505800  0.81299900  1
  O  O15  1  0.60281000  0.28280300  0.48970000  1
  O  O16  1  0.37358800  0.26673500  0.46856300  1
  O  O17  1  0.83270200  0.18201900  0.44002300  1
  O  O18  1  0.15768500  0.16082700  0.46263000  1
  O  O19  1  0.99272000  0.07265900  0.54698700  1
  O  O20  1  0.85925800  0.01654500  0.76966300  1
  O  O21  1  0.10654800  0.12964900  0.07087800  1
  O  O22  1  0.61716500  0.04903300  0.22311800  1
  O  O23  1  0.76060800  0.05286400  0.03727700  1
loop_
_geom_bond_atom_site_label_1
_geom_bond_atom_site_label_2
_geom_bond_distance
_geom_bond_site_symmetry_2
Li0 O10 1.832451 1_556
Li0 O2 1.850019 1_555
Li1 O13 1.832451 1_454
Li1 O21 1.850019 1_555
O0 P3 1.595477 1_556
O0 P5 1.608246 1_565
O1 P1 1.597576 1_555
O1 P5 1.636187 1_565
O2 P2 1.486810 1_556
O3 P7 1.600782 1_565
O3 P3 1.634425 1_555
O4 P6 1.602696 1_565
O4 P7 1.611274 1_565
O5 P6 1.514989 1_565
O5 Sb0 2.221000 1_555
O6 P7 1.507539 1_565
O6 Sb1 2.328792 1_555
O7 P0 1.506915 1_555
O7 Sb0 2.313491 1_555
O8 P1 1.506434 1_555
O8 Sb1 2.325568 1_555
O9 P2 1.507845 1_555
O9 Sb0 2.331564 1_555
O10 P3 1.484537 1_555
O11 P3 1.518630 1_555
O11 Sb1 2.224683 1_555
O12 P4 1.518630 1_555
O12 Sb0 2.224683 1_555
O13 P4 1.484537 1_555
O14 P5 1.507845 1_555
O14 Sb1 2.331564 1_555
O15 P6 1.506434 1_555
O15 Sb0 2.325568 1_555
O16 P7 1.506915 1_555
O16 Sb1 2.313491 1_555
O17 P0 1.507539 1_545
O17 Sb0 2.328792 1_555
O18 P1 1.514989 1_545
O18 Sb1 2.221000 1_555
O19 P1 1.602696 1_645
O19 P0 1.611274 1_545
O20 P0 1.600782 1_545
O20 P4 1.634425 1_555
O21 P5 1.486810 1_554
O22 P6 1.597576 1_555
O22 P2 1.636187 1_545
O23 P4 1.595477 1_554
O23 P2 1.608246 1_545
