# generated using pymatgen
data_NaNb2PS10
_symmetry_space_group_name_H-M   'P 1'
_cell_length_a   8.26447362
_cell_length_b   13.03100206
_cell_length_c   13.70606406
_cell_angle_alpha   90.39352608
_cell_angle_beta   107.54709884
_cell_angle_gamma   90.00000077
_symmetry_Int_Tables_number   1
_chemical_formula_structural   NaNb2PS10
_chemical_formula_sum   'Na4 Nb8 P4 S40'
_cell_volume   1407.34727975
_cell_formula_units_Z   4
loop_
 _symmetry_equiv_pos_site_id
 _symmetry_equiv_pos_as_xyz
  1  'x, y, z'
loop_
 _atom_site_type_symbol
 _atom_site_label
 _atom_site_symmetry_multiplicity
 _atom_site_fract_x
 _atom_site_fract_y
 _atom_site_fract_z
 _atom_site_occupancy
  Na  Na0  1  0.93818326  0.88037902  0.88437651  1
  Na  Na1  1  0.05380675  0.61962098  0.11562349  1
  Na  Na2  1  0.94619325  0.38037902  0.88437651  1
  Na  Na3  1  0.06181674  0.11962098  0.11562349  1
  Nb  Nb0  1  0.70379025  0.72298424  0.27931839  1
  Nb  Nb1  1  0.69806709  0.01387615  0.27967156  1
  Nb  Nb2  1  0.29620975  0.27701576  0.72068161  1
  Nb  Nb3  1  0.58160447  0.51387615  0.27967156  1
  Nb  Nb4  1  0.57552813  0.22298424  0.27931839  1
  Nb  Nb5  1  0.30193291  0.98612385  0.72032844  1
  Nb  Nb6  1  0.41839553  0.48612385  0.72032844  1
  Nb  Nb7  1  0.42447187  0.77701576  0.72068161  1
  P  P0  1  0.22533633  0.37115987  0.20502535  1
  P  P1  1  0.97968902  0.87115987  0.20502535  1
  P  P2  1  0.02031098  0.12884013  0.79497465  1
  P  P3  1  0.77466367  0.62884013  0.79497465  1
  S  S0  1  0.27389346  0.50336969  0.29234213  1
  S  S1  1  0.24055053  0.13055980  0.58721871  1
  S  S2  1  0.71488699  0.86805574  0.14409007  1
  S  S3  1  0.34666819  0.63055980  0.58721871  1
  S  S4  1  0.18073713  0.85649381  0.58349258  1
  S  S5  1  0.72610654  0.49663031  0.70765787  1
  S  S6  1  0.98155133  0.99663031  0.70765787  1
  S  S7  1  0.42920308  0.36805574  0.14409007  1
  S  S8  1  0.58612889  0.09461234  0.41556616  1
  S  S9  1  0.46210834  0.64877436  0.13983025  1
  S  S10  1  0.75944947  0.86944020  0.41278129  1
  S  S11  1  0.68810729  0.58399580  0.14138139  1
  S  S12  1  0.54672589  0.91600420  0.85861861  1
  S  S13  1  0.99060908  0.37268009  0.10538881  1
  S  S14  1  0.26781052  0.23948482  0.29154352  1
  S  S15  1  0.59724455  0.64350619  0.41650742  1
  S  S16  1  0.51676058  0.86705619  0.31477570  1
  S  S17  1  0.81926287  0.14350619  0.41650742  1
  S  S18  1  0.73218948  0.76051518  0.70845648  1
  S  S19  1  0.97626700  0.26051518  0.70845648  1
  S  S20  1  0.28511301  0.13194426  0.85590993  1
  S  S21  1  0.48323942  0.13294381  0.68522430  1
  S  S22  1  0.17056273  0.40538766  0.58443384  1
  S  S23  1  0.31189271  0.41600420  0.85861861  1
  S  S24  1  0.65333181  0.36944020  0.41278129  1
  S  S25  1  0.02373300  0.73948482  0.29154352  1
  S  S26  1  0.57079692  0.63194426  0.85590993  1
  S  S27  1  0.41387111  0.90538766  0.58443384  1
  S  S28  1  0.40275545  0.35649381  0.58349258  1
  S  S29  1  0.88522028  0.12731991  0.89461119  1
  S  S30  1  0.53789166  0.35122564  0.86016975  1
  S  S31  1  0.11477972  0.87268009  0.10538881  1
  S  S32  1  0.67772191  0.14877436  0.13983025  1
  S  S33  1  0.20198488  0.63294381  0.68522430  1
  S  S34  1  0.82943727  0.59461234  0.41556616  1
  S  S35  1  0.79801512  0.36705619  0.31477570  1
  S  S36  1  0.32227809  0.85122564  0.86016975  1
  S  S37  1  0.00939092  0.62731991  0.89461119  1
  S  S38  1  0.01844867  0.00336969  0.29234213  1
  S  S39  1  0.45327411  0.08399580  0.14138139  1
loop_
_geom_bond_atom_site_label_1
_geom_bond_atom_site_label_2
_geom_bond_distance
_geom_bond_site_symmetry_2
Na0 S18 2.936804 1_555
Na0 S31 2.941872 1_656
Na0 S6 2.977215 1_555
Na0 S12 3.181219 1_555
Na0 S29 3.255286 1_565
Na0 S36 3.311217 1_655
Na0 S37 3.346167 1_655
Na1 S25 2.936804 1_555
Na1 S37 2.941872 1_554
Na1 S0 2.977215 1_555
Na1 S11 3.181219 1_455
Na1 S13 3.255286 1_455
Na1 S9 3.311217 1_555
Na1 S31 3.346167 1_555
Na2 S19 2.936804 1_555
Na2 S13 2.941872 1_556
Na2 S5 2.977215 1_555
Na2 S23 3.181219 1_655
Na2 S37 3.255286 1_655
Na2 S30 3.311217 1_555
Na2 S29 3.346167 1_555
Na3 S14 2.936804 1_555
Na3 S29 2.941872 1_454
Na3 S38 2.977215 1_555
Na3 S39 3.181219 1_555
Na3 S31 3.255286 1_545
Na3 S32 3.311217 1_455
Na3 S13 3.346167 1_455
Nb0 S34 2.497500 1_555
Nb0 S9 2.500359 1_555
Nb0 S15 2.531542 1_555
Nb0 S16 2.567182 1_555
Nb0 S10 2.577727 1_555
Nb0 S11 2.583906 1_555
Nb0 S25 2.607343 1_655
Nb0 S2 2.677315 1_555
Nb1 S17 2.489553 1_555
Nb1 S39 2.496394 1_555
Nb1 S8 2.538496 1_555
Nb1 S16 2.566017 1_545
Nb1 S10 2.572430 1_545
Nb1 S32 2.577583 1_555
Nb1 S38 2.604368 1_655
Nb1 S2 2.681515 1_545
Nb2 S22 2.497500 1_555
Nb2 S30 2.500359 1_555
Nb2 S28 2.531542 1_555
Nb2 S21 2.567182 1_555
Nb2 S1 2.577727 1_555
Nb2 S23 2.583906 1_555
Nb2 S19 2.607343 1_455
Nb2 S20 2.677315 1_555
Nb3 S15 2.489553 1_555
Nb3 S11 2.496394 1_555
Nb3 S34 2.538496 1_555
Nb3 S35 2.566017 1_555
Nb3 S24 2.572430 1_555
Nb3 S9 2.577583 1_555
Nb3 S0 2.604368 1_555
Nb3 S7 2.681515 1_555
Nb4 S8 2.497500 1_555
Nb4 S32 2.500359 1_555
Nb4 S17 2.531542 1_555
Nb4 S35 2.567182 1_555
Nb4 S24 2.577727 1_555
Nb4 S39 2.583906 1_555
Nb4 S14 2.607343 1_555
Nb4 S7 2.677315 1_555
Nb5 S4 2.489553 1_555
Nb5 S12 2.496394 1_555
Nb5 S27 2.538496 1_555
Nb5 S21 2.566017 1_565
Nb5 S1 2.572430 1_565
Nb5 S36 2.577583 1_555
Nb5 S6 2.604368 1_455
Nb5 S20 2.681515 1_565
Nb6 S28 2.489553 1_555
Nb6 S23 2.496394 1_555
Nb6 S22 2.538496 1_555
Nb6 S33 2.566017 1_555
Nb6 S3 2.572430 1_555
Nb6 S30 2.577583 1_555
Nb6 S5 2.604368 1_555
Nb6 S26 2.681515 1_555
Nb7 S27 2.497500 1_555
Nb7 S36 2.500359 1_555
Nb7 S4 2.531542 1_555
Nb7 S33 2.567182 1_555
Nb7 S3 2.577727 1_555
Nb7 S12 2.583906 1_555
Nb7 S18 2.607343 1_555
Nb7 S26 2.677315 1_555
P0 S13 2.007860 1_455
P0 S0 2.059980 1_555
P0 S14 2.061679 1_555
P0 S7 2.094258 1_555
P1 S31 2.007860 1_655
P1 S38 2.059980 1_665
P1 S25 2.061679 1_655
P1 S2 2.094258 1_555
P2 S29 2.007860 1_455
P2 S6 2.059980 1_445
P2 S19 2.061679 1_455
P2 S20 2.094258 1_555
P3 S37 2.007860 1_655
P3 S5 2.059980 1_555
P3 S18 2.061679 1_555
P3 S26 2.094258 1_555
S1 S21 2.050132 1_555
S3 S33 2.050132 1_555
S10 S16 2.050132 1_555
S11 S9 2.043978 1_555
S12 S36 2.043978 1_555
S15 S34 2.025659 1_555
S17 S8 2.025659 1_555
S22 S28 2.025659 1_555
S23 S30 2.043978 1_555
S24 S35 2.050132 1_555
S27 S4 2.025659 1_555
S32 S39 2.043978 1_555
