# generated using pymatgen
data_HoCu(MoO4)2
_symmetry_space_group_name_H-M   'P 1'
_cell_length_a   9.83901400
_cell_length_b   10.26571400
_cell_length_c   14.68120700
_cell_angle_alpha   90.00000000
_cell_angle_beta   90.00000000
_cell_angle_gamma   90.00000000
_symmetry_Int_Tables_number   1
_chemical_formula_structural   HoCu(MoO4)2
_chemical_formula_sum   'Ho8 Cu8 Mo16 O64'
_cell_volume   1482.86802772
_cell_formula_units_Z   8
loop_
 _symmetry_equiv_pos_site_id
 _symmetry_equiv_pos_as_xyz
  1  'x, y, z'
loop_
 _atom_site_type_symbol
 _atom_site_label
 _atom_site_symmetry_multiplicity
 _atom_site_fract_x
 _atom_site_fract_y
 _atom_site_fract_z
 _atom_site_occupancy
  Ho  Ho0  1  0.72236400  0.03447100  0.39609700  1
  Ho  Ho1  1  0.22236400  0.96552900  0.10390300  1
  Ho  Ho2  1  0.27763600  0.46552900  0.89609700  1
  Ho  Ho3  1  0.77763600  0.03447100  0.89609700  1
  Ho  Ho4  1  0.72236400  0.53447100  0.10390300  1
  Ho  Ho5  1  0.22236400  0.46552900  0.39609700  1
  Ho  Ho6  1  0.27763600  0.96552900  0.60390300  1
  Ho  Ho7  1  0.77763600  0.53447100  0.60390300  1
  Cu  Cu0  1  0.31051100  0.81717400  0.80387300  1
  Cu  Cu1  1  0.68948900  0.68282600  0.30387300  1
  Cu  Cu2  1  0.81051100  0.68282600  0.80387300  1
  Cu  Cu3  1  0.68948900  0.18282600  0.19612700  1
  Cu  Cu4  1  0.18948900  0.81717400  0.30387300  1
  Cu  Cu5  1  0.31051100  0.31717400  0.69612700  1
  Cu  Cu6  1  0.81051100  0.18282600  0.69612700  1
  Cu  Cu7  1  0.18948900  0.31717400  0.19612700  1
  Mo  Mo0  1  0.00048600  0.21915300  0.55645500  1
  Mo  Mo1  1  0.83140200  0.39666600  0.34744400  1
  Mo  Mo2  1  0.66859800  0.39666600  0.84744400  1
  Mo  Mo3  1  0.33140200  0.60333400  0.15255600  1
  Mo  Mo4  1  0.50048600  0.28084700  0.55645500  1
  Mo  Mo5  1  0.99951400  0.28084700  0.05645500  1
  Mo  Mo6  1  0.00048600  0.71915300  0.94354500  1
  Mo  Mo7  1  0.83140200  0.89666600  0.15255600  1
  Mo  Mo8  1  0.99951400  0.78084700  0.44354500  1
  Mo  Mo9  1  0.66859800  0.89666600  0.65255600  1
  Mo  Mo10  1  0.16859800  0.10333400  0.84744400  1
  Mo  Mo11  1  0.33140200  0.10333400  0.34744400  1
  Mo  Mo12  1  0.50048600  0.78084700  0.94354500  1
  Mo  Mo13  1  0.16859800  0.60333400  0.65255600  1
  Mo  Mo14  1  0.49951400  0.71915300  0.44354500  1
  Mo  Mo15  1  0.49951400  0.21915300  0.05645500  1
  O  O0  1  0.89050600  0.32110200  0.63153100  1
  O  O1  1  0.89050600  0.82110200  0.86846900  1
  O  O2  1  0.74261200  0.01030600  0.22885500  1
  O  O3  1  0.10393600  0.61170900  0.87582900  1
  O  O4  1  0.24261200  0.48969400  0.22885500  1
  O  O5  1  0.72435300  0.23252700  0.82021500  1
  O  O6  1  0.90326600  0.62930300  0.02440200  1
  O  O7  1  0.22435300  0.76747300  0.67978500  1
  O  O8  1  0.75738800  0.51030600  0.77114500  1
  O  O9  1  0.88994000  0.17020600  0.99819400  1
  O  O10  1  0.77564700  0.23252700  0.32021500  1
  O  O11  1  0.25738800  0.98969400  0.77114500  1
  O  O12  1  0.40326600  0.87069700  0.02440200  1
  O  O13  1  0.10393600  0.11170900  0.62417100  1
  O  O14  1  0.75738800  0.01030600  0.72885500  1
  O  O15  1  0.51044200  0.58744100  0.16663800  1
  O  O16  1  0.60393600  0.38829100  0.62417100  1
  O  O17  1  0.10949400  0.67889800  0.36846900  1
  O  O18  1  0.61006000  0.67020600  0.00180600  1
  O  O19  1  0.60393600  0.88829100  0.87582900  1
  O  O20  1  0.70961400  0.42669800  0.96344800  1
  O  O21  1  0.72435300  0.73252700  0.67978500  1
  O  O22  1  0.48955800  0.91255900  0.66663800  1
  O  O23  1  0.24261200  0.98969400  0.27114500  1
  O  O24  1  0.74261200  0.51030600  0.27114500  1
  O  O25  1  0.77564700  0.73252700  0.17978500  1
  O  O26  1  0.29038600  0.57330200  0.03655200  1
  O  O27  1  0.48955800  0.41255900  0.83336200  1
  O  O28  1  0.40326600  0.37069700  0.47559800  1
  O  O29  1  0.51044200  0.08744100  0.33336200  1
  O  O30  1  0.29038600  0.07330200  0.46344800  1
  O  O31  1  0.27564700  0.76747300  0.17978500  1
  O  O32  1  0.01044200  0.41255900  0.33336200  1
  O  O33  1  0.88994000  0.67020600  0.50180600  1
  O  O34  1  0.70961400  0.92669800  0.53655200  1
  O  O35  1  0.60949400  0.32110200  0.13153100  1
  O  O36  1  0.01044200  0.91255900  0.16663800  1
  O  O37  1  0.10949400  0.17889800  0.13153100  1
  O  O38  1  0.27564700  0.26747300  0.32021500  1
  O  O39  1  0.89606400  0.38829100  0.12417100  1
  O  O40  1  0.90326600  0.12930300  0.47559800  1
  O  O41  1  0.98955800  0.58744100  0.66663800  1
  O  O42  1  0.89606400  0.88829100  0.37582800  1
  O  O43  1  0.39606400  0.61170900  0.37582800  1
  O  O44  1  0.38994000  0.32979400  0.99819400  1
  O  O45  1  0.39606400  0.11170900  0.12417100  1
  O  O46  1  0.59673400  0.12930300  0.97559800  1
  O  O47  1  0.79038600  0.42669800  0.46344800  1
  O  O48  1  0.09673400  0.87069700  0.52440200  1
  O  O49  1  0.11006000  0.32979400  0.49819400  1
  O  O50  1  0.20961400  0.57330200  0.53655200  1
  O  O51  1  0.98955800  0.08744100  0.83336200  1
  O  O52  1  0.11006000  0.82979400  0.00180600  1
  O  O53  1  0.79038600  0.92669800  0.03655200  1
  O  O54  1  0.61006000  0.17020600  0.49819400  1
  O  O55  1  0.60949400  0.82110200  0.36846900  1
  O  O56  1  0.38994000  0.82979400  0.50180600  1
  O  O57  1  0.39050600  0.67889800  0.86846900  1
  O  O58  1  0.25738800  0.48969400  0.72885500  1
  O  O59  1  0.39050600  0.17889800  0.63153100  1
  O  O60  1  0.59673400  0.62930300  0.52440200  1
  O  O61  1  0.20961400  0.07330200  0.96344800  1
  O  O62  1  0.22435300  0.26747300  0.82021500  1
  O  O63  1  0.09673400  0.37069700  0.97559800  1
loop_
_geom_bond_atom_site_label_1
_geom_bond_atom_site_label_2
_geom_bond_distance
_geom_bond_site_symmetry_2
Ho0 O42 2.293749 1_545
Ho0 O54 2.325784 1_555
Ho0 O40 2.340525 1_555
Ho0 O29 2.343424 1_555
Ho0 O34 2.343465 1_545
Ho0 O10 2.376925 1_555
Ho0 O2 2.475843 1_555
Ho0 O55 2.489093 1_545
Ho1 O45 2.293747 1_565
Ho1 O52 2.325784 1_555
Ho1 O12 2.340525 1_555
Ho1 O36 2.343424 1_555
Ho1 O61 2.343465 1_564
Ho1 O31 2.376925 1_555
Ho1 O23 2.475843 1_555
Ho1 O37 2.489093 1_565
Ho2 O3 2.293747 1_555
Ho2 O44 2.325784 1_555
Ho2 O63 2.340525 1_555
Ho2 O27 2.343424 1_555
Ho2 O26 2.343465 1_556
Ho2 O62 2.376925 1_555
Ho2 O58 2.475843 1_555
Ho2 O57 2.489093 1_555
Ho3 O19 2.293747 1_545
Ho3 O9 2.325784 1_555
Ho3 O46 2.340525 1_555
Ho3 O51 2.343424 1_555
Ho3 O53 2.343465 1_546
Ho3 O5 2.376925 1_555
Ho3 O14 2.475843 1_555
Ho3 O1 2.489093 1_545
Ho4 O39 2.293747 1_555
Ho4 O18 2.325784 1_555
Ho4 O6 2.340525 1_555
Ho4 O15 2.343424 1_555
Ho4 O20 2.343465 1_554
Ho4 O25 2.376925 1_555
Ho4 O24 2.475843 1_555
Ho4 O35 2.489093 1_555
Ho5 O43 2.293749 1_555
Ho5 O49 2.325784 1_555
Ho5 O28 2.340525 1_555
Ho5 O32 2.343424 1_555
Ho5 O50 2.343465 1_555
Ho5 O38 2.376925 1_555
Ho5 O4 2.475843 1_555
Ho5 O17 2.489093 1_555
Ho6 O13 2.293747 1_565
Ho6 O56 2.325784 1_555
Ho6 O48 2.340525 1_555
Ho6 O22 2.343424 1_555
Ho6 O30 2.343465 1_565
Ho6 O7 2.376925 1_555
Ho6 O11 2.475843 1_555
Ho6 O59 2.489093 1_565
Ho7 O16 2.293747 1_555
Ho7 O33 2.325784 1_555
Ho7 O60 2.340525 1_555
Ho7 O41 2.343424 1_555
Ho7 O47 2.343465 1_555
Ho7 O21 2.376925 1_555
Ho7 O8 2.475843 1_555
Ho7 O0 2.489093 1_555
Cu0 O57 1.879848 1_555
Cu0 O11 1.908048 1_555
Cu0 O7 2.073101 1_555
Cu1 O55 1.879848 1_555
Cu1 O24 1.908048 1_555
Cu1 O25 2.073101 1_555
Cu2 O1 1.879848 1_555
Cu2 O8 1.908048 1_555
Cu2 O21 2.073101 1_555
Cu3 O35 1.879848 1_555
Cu3 O2 1.908048 1_555
Cu3 O10 2.073101 1_555
Cu4 O17 1.879848 1_555
Cu4 O23 1.908048 1_555
Cu4 O31 2.073101 1_555
Cu5 O59 1.879848 1_555
Cu5 O58 1.908048 1_555
Cu5 O62 2.073101 1_555
Cu6 O0 1.879848 1_555
Cu6 O14 1.908048 1_555
Cu6 O5 2.073101 1_555
Cu7 O37 1.879848 1_555
Cu7 O4 1.908048 1_555
Cu7 O38 2.073101 1_555
Mo0 O40 1.781829 1_455
Mo0 O49 1.784369 1_555
Mo0 O13 1.800260 1_555
Mo0 O0 1.865775 1_455
Mo1 O47 1.777184 1_555
Mo1 O32 1.781155 1_655
Mo1 O10 1.816584 1_555
Mo1 O24 1.838177 1_555
Mo2 O20 1.777184 1_555
Mo2 O27 1.781155 1_555
Mo2 O5 1.816584 1_555
Mo2 O8 1.838177 1_555
Mo3 O26 1.777184 1_555
Mo3 O15 1.781155 1_555
Mo3 O31 1.816584 1_555
Mo3 O4 1.838177 1_555
Mo4 O28 1.781829 1_555
Mo4 O54 1.784369 1_555
Mo4 O16 1.800260 1_555
Mo4 O59 1.865775 1_555
Mo5 O63 1.781829 1_654
Mo5 O9 1.784369 1_554
Mo5 O39 1.800260 1_555
Mo5 O37 1.865775 1_655
Mo6 O6 1.781829 1_456
Mo6 O52 1.784369 1_556
Mo6 O3 1.800260 1_555
Mo6 O1 1.865775 1_455
Mo7 O53 1.777184 1_555
Mo7 O36 1.781155 1_655
Mo7 O25 1.816584 1_555
Mo7 O2 1.838177 1_565
Mo8 O48 1.781829 1_655
Mo8 O33 1.784369 1_555
Mo8 O42 1.800268 1_555
Mo8 O17 1.865775 1_655
Mo9 O34 1.777184 1_555
Mo9 O22 1.781155 1_555
Mo9 O21 1.816584 1_555
Mo9 O14 1.838177 1_565
Mo10 O61 1.777184 1_555
Mo10 O51 1.781155 1_455
Mo10 O62 1.816584 1_555
Mo10 O11 1.838177 1_545
Mo11 O30 1.777184 1_555
Mo11 O29 1.781155 1_555
Mo11 O38 1.816584 1_555
Mo11 O23 1.838177 1_545
Mo12 O12 1.781829 1_556
Mo12 O18 1.784369 1_556
Mo12 O19 1.800260 1_555
Mo12 O57 1.865775 1_555
Mo13 O50 1.777184 1_555
Mo13 O41 1.781155 1_455
Mo13 O7 1.816584 1_555
Mo13 O58 1.838177 1_555
Mo14 O60 1.781829 1_555
Mo14 O56 1.784369 1_555
Mo14 O43 1.800268 1_555
Mo14 O55 1.865775 1_555
Mo15 O46 1.781829 1_554
Mo15 O44 1.784369 1_554
Mo15 O45 1.800260 1_555
Mo15 O35 1.865775 1_555
