# generated using pymatgen
data_Al2BiS4
_symmetry_space_group_name_H-M   'P 1'
_cell_length_a   7.60782797
_cell_length_b   7.60782797
_cell_length_c   11.92363013
_cell_angle_alpha   90.00000000
_cell_angle_beta   90.00000000
_cell_angle_gamma   90.00000000
_symmetry_Int_Tables_number   1
_chemical_formula_structural   Al2BiS4
_chemical_formula_sum   'Al8 Bi4 S16'
_cell_volume   690.12834180
_cell_formula_units_Z   4
loop_
 _symmetry_equiv_pos_site_id
 _symmetry_equiv_pos_as_xyz
  1  'x, y, z'
loop_
 _atom_site_type_symbol
 _atom_site_label
 _atom_site_symmetry_multiplicity
 _atom_site_fract_x
 _atom_site_fract_y
 _atom_site_fract_z
 _atom_site_occupancy
  Al  Al0  1  0.00000000  0.50000000  0.75000000  1
  Al  Al1  1  0.00000000  0.50000000  -0.00000000  1
  Al  Al2  1  0.00000000  0.50000000  0.25000000  1
  Al  Al3  1  0.50000000  0.00000000  0.50000000  1
  Al  Al4  1  0.50000000  0.00000000  0.25000000  1
  Al  Al5  1  0.50000000  0.00000000  0.75000000  1
  Al  Al6  1  0.00000000  0.50000000  0.50000000  1
  Al  Al7  1  0.50000000  0.00000000  -0.00000000  1
  Bi  Bi0  1  0.50000000  0.50000000  0.63154567  1
  Bi  Bi1  1  0.00000000  0.00000000  0.86845433  1
  Bi  Bi2  1  0.50000000  0.50000000  0.36845433  1
  Bi  Bi3  1  0.00000000  0.00000000  0.13154567  1
  S  S0  1  0.84376238  0.33980133  0.87515458  1
  S  S1  1  0.65623762  0.83980133  0.37515458  1
  S  S2  1  0.33980133  0.84376238  0.12484542  1
  S  S3  1  0.83980133  0.65623762  0.62484542  1
  S  S4  1  0.34376238  0.16019867  0.37515458  1
  S  S5  1  0.15623762  0.66019867  0.87515458  1
  S  S6  1  0.83980133  0.34376238  0.37515458  1
  S  S7  1  0.66019867  0.15623762  0.12484542  1
  S  S8  1  0.65623762  0.16019867  0.62484542  1
  S  S9  1  0.16019867  0.34376238  0.62484542  1
  S  S10  1  0.66019867  0.84376238  0.87515458  1
  S  S11  1  0.33980133  0.15623762  0.87515458  1
  S  S12  1  0.16019867  0.65623762  0.37515458  1
  S  S13  1  0.15623762  0.33980133  0.12484542  1
  S  S14  1  0.84376238  0.66019867  0.12484542  1
  S  S15  1  0.34376238  0.83980133  0.62484542  1
loop_
_geom_bond_atom_site_label_1
_geom_bond_atom_site_label_2
_geom_bond_distance
_geom_bond_site_symmetry_2
Al0 S0 2.263885 1_455
Al0 S3 2.263885 1_455
Al0 S9 2.263885 1_555
Al0 S5 2.263885 1_555
Al1 S0 2.261457 1_454
Al1 S5 2.261457 1_554
Al1 S14 2.261457 1_455
Al1 S13 2.261457 1_555
Al2 S14 2.263885 1_455
Al2 S6 2.263885 1_455
Al2 S13 2.263885 1_555
Al2 S12 2.263885 1_555
Al3 S1 2.261457 1_545
Al3 S4 2.261457 1_555
Al3 S15 2.261457 1_545
Al3 S8 2.261457 1_555
Al4 S2 2.263885 1_545
Al4 S1 2.263885 1_545
Al4 S4 2.263885 1_555
Al4 S7 2.263885 1_555
Al5 S10 2.263885 1_545
Al5 S11 2.263885 1_555
Al5 S15 2.263885 1_545
Al5 S8 2.263885 1_555
Al6 S9 2.261457 1_555
Al6 S12 2.261457 1_555
Al6 S3 2.261457 1_455
Al6 S6 2.261457 1_455
Al7 S11 2.261457 1_554
Al7 S7 2.261457 1_555
Al7 S10 2.261457 1_544
Al7 S2 2.261457 1_545
Bi0 S8 2.846440 1_555
Bi0 S3 2.846440 1_555
Bi0 S9 2.846440 1_555
Bi0 S15 2.846440 1_555
Bi1 S0 2.846440 1_455
Bi1 S11 2.846440 1_555
Bi1 S5 2.846440 1_545
Bi1 S10 2.846440 1_445
Bi2 S6 2.846440 1_555
Bi2 S1 2.846440 1_555
Bi2 S12 2.846440 1_555
Bi2 S4 2.846440 1_555
Bi3 S14 2.846440 1_445
Bi3 S2 2.846440 1_545
Bi3 S7 2.846440 1_455
Bi3 S13 2.846440 1_555
