# generated using pymatgen
data_La4B4Br5
_symmetry_space_group_name_H-M   'P 1'
_cell_length_a   9.42254441
_cell_length_b   9.42254441
_cell_length_c   19.54959030
_cell_angle_alpha   64.44347001
_cell_angle_beta   64.44347001
_cell_angle_gamma   26.43183671
_symmetry_Int_Tables_number   1
_chemical_formula_structural   La4B4Br5
_chemical_formula_sum   'La8 B8 Br10'
_cell_volume   692.61429267
_cell_formula_units_Z   2
loop_
 _symmetry_equiv_pos_site_id
 _symmetry_equiv_pos_as_xyz
  1  'x, y, z'
loop_
 _atom_site_type_symbol
 _atom_site_label
 _atom_site_symmetry_multiplicity
 _atom_site_fract_x
 _atom_site_fract_y
 _atom_site_fract_z
 _atom_site_occupancy
  La  La0  1  0.61073026  0.61073026  0.72663496  1
  La  La1  1  0.38926974  0.38926974  0.27336504  1
  La  La2  1  0.99391535  0.99391535  0.62804790  1
  La  La3  1  0.00608465  0.00608465  0.37195210  1
  La  La4  1  0.31373871  0.31373871  0.80164662  1
  La  La5  1  0.68626129  0.68626129  0.19835338  1
  La  La6  1  0.93043425  0.93043425  0.91109570  1
  La  La7  1  0.06956575  0.06956575  0.08890430  1
  B  B0  1  0.14496382  0.77642914  0.76973963  1
  B  B1  1  0.22357086  0.85503618  0.23026037  1
  B  B2  1  0.85503618  0.22357086  0.23026037  1
  B  B3  1  0.77642914  0.14496382  0.76973963  1
  B  B4  1  0.44877847  0.44877847  0.82308340  1
  B  B5  1  0.55122153  0.55122153  0.17691660  1
  B  B6  1  0.47246312  0.47246312  0.71574689  1
  B  B7  1  0.52753688  0.52753688  0.28425311  1
  Br  Br0  1  0.17289180  0.17289180  0.59931146  1
  Br  Br1  1  0.82710820  0.82710820  0.40068854  1
  Br  Br2  1  0.12608648  0.12608648  0.83309646  1
  Br  Br3  1  0.87391352  0.87391352  0.16690354  1
  Br  Br4  1  0.74249315  0.74249315  0.92803795  1
  Br  Br5  1  0.25750685  0.25750685  0.07196205  1
  Br  Br6  1  0.80533011  0.80533011  0.68705096  1
  Br  Br7  1  0.19466989  0.19466989  0.31294904  1
  Br  Br8  1  0.50000000  0.50000000  0.50000000  1
  Br  Br9  1  0.50000000  0.50000000  0.00000000  1
loop_
_geom_bond_atom_site_label_1
_geom_bond_atom_site_label_2
_geom_bond_distance
_geom_bond_site_symmetry_2
B0 B3 1.587791 1_465
B0 B4 1.668433 1_555
B0 B6 1.676074 1_555
B0 La2 2.679274 1_455
B0 La6 2.686153 1_455
B0 La4 2.831589 1_555
B0 La0 2.842740 1_555
B1 B2 1.587791 1_465
B1 B5 1.668433 1_555
B1 B7 1.676074 1_555
B1 La3 2.679274 1_565
B1 La7 2.686153 1_565
B1 La5 2.831589 1_555
B1 La1 2.842740 1_555
B2 B5 1.668433 1_555
B2 B7 1.676074 1_555
B2 La3 2.679274 1_655
B2 La7 2.686153 1_655
B2 La5 2.831589 1_555
B2 La1 2.842740 1_555
B3 B4 1.668433 1_555
B3 B6 1.676074 1_555
B3 La2 2.679274 1_545
B3 La6 2.686153 1_545
B3 La4 2.831589 1_555
B3 La0 2.842740 1_555
B4 B6 1.945233 1_555
B4 La6 2.683485 1_455
B4 La6 2.683485 1_545
B4 La4 2.689516 1_555
B4 La0 2.723588 1_555
B5 B7 1.945233 1_555
B5 La7 2.683485 1_655
B5 La7 2.683485 1_565
B5 La5 2.689516 1_555
B5 La1 2.723588 1_555
B6 La0 2.637883 1_555
B6 La4 2.639244 1_555
B6 La2 2.671492 1_455
B6 La2 2.671492 1_545
B7 La1 2.637883 1_555
B7 La5 2.639244 1_555
B7 La3 2.671492 1_655
B7 La3 2.671492 1_565
Br0 La2 3.076057 1_445
Br0 La0 3.101777 1_545
Br0 La0 3.101777 1_455
Br1 La3 3.076057 1_665
Br1 La1 3.101777 1_565
Br1 La1 3.101777 1_655
Br2 La0 3.093754 1_545
Br2 La0 3.093754 1_455
Br2 La4 3.217766 1_555
Br2 La6 3.218432 1_445
Br3 La1 3.093754 1_565
Br3 La1 3.093754 1_655
Br3 La5 3.217766 1_555
Br3 La7 3.218432 1_665
Br4 La4 3.097092 1_565
Br4 La4 3.097092 1_655
Br4 La6 3.314517 1_555
Br5 La5 3.097092 1_545
Br5 La5 3.097092 1_455
Br5 La7 3.314517 1_555
Br6 La2 3.124686 1_555
Br6 La4 3.160630 1_565
Br6 La4 3.160630 1_655
Br6 La0 3.300923 1_555
Br7 La3 3.124686 1_555
Br7 La5 3.160630 1_545
Br7 La5 3.160630 1_455
Br7 La1 3.300923 1_555
Br8 La3 3.266770 1_565
Br8 La2 3.266770 1_545
Br8 La3 3.266770 1_655
Br8 La2 3.266770 1_455
Br9 La7 3.355009 1_655
Br9 La7 3.355009 1_565
Br9 La6 3.355009 1_544
Br9 La6 3.355009 1_454
