# generated using pymatgen
data_KBi6ClO9
_symmetry_space_group_name_H-M   'P 1'
_cell_length_a   14.85569360
_cell_length_b   14.85569360
_cell_length_c   14.85569360
_cell_angle_alpha   109.47122063
_cell_angle_beta   109.47122063
_cell_angle_gamma   109.47122063
_symmetry_Int_Tables_number   1
_chemical_formula_structural   KBi6ClO9
_chemical_formula_sum   'K8 Bi48 Cl8 O72'
_cell_volume   2523.81147016
_cell_formula_units_Z   8
loop_
 _symmetry_equiv_pos_site_id
 _symmetry_equiv_pos_as_xyz
  1  'x, y, z'
loop_
 _atom_site_type_symbol
 _atom_site_label
 _atom_site_symmetry_multiplicity
 _atom_site_fract_x
 _atom_site_fract_y
 _atom_site_fract_z
 _atom_site_occupancy
  K  K0  1  0.00000000  0.50000000  0.00000000  1
  K  K1  1  0.50000000  0.00000000  0.50000000  1
  K  K2  1  0.50000000  0.50000000  0.50000000  1
  K  K3  1  0.00000000  0.00000000  0.00000000  1
  K  K4  1  0.00000000  0.50000000  0.50000000  1
  K  K5  1  0.50000000  0.50000000  0.00000000  1
  K  K6  1  0.00000000  0.00000000  0.50000000  1
  K  K7  1  0.50000000  0.00000000  0.00000000  1
  Bi  Bi0  1  0.48497741  0.75000000  0.23497741  1
  Bi  Bi1  1  0.75000000  0.51502259  0.76502259  1
  Bi  Bi2  1  0.51502259  0.76502259  0.75000000  1
  Bi  Bi3  1  0.23497741  0.25000000  0.48497741  1
  Bi  Bi4  1  0.26776103  0.53552106  0.51776103  1
  Bi  Bi5  1  0.75000000  0.98223897  0.51776103  1
  Bi  Bi6  1  0.25000000  0.76502259  0.51502259  1
  Bi  Bi7  1  0.03552106  0.76776103  0.01776103  1
  Bi  Bi8  1  0.23497741  0.48497741  0.75000000  1
  Bi  Bi9  1  0.98497741  0.75000000  0.73497741  1
  Bi  Bi10  1  0.96447894  0.23223897  0.98223897  1
  Bi  Bi11  1  0.51776103  0.75000000  0.98223897  1
  Bi  Bi12  1  0.98223897  0.51776103  0.75000000  1
  Bi  Bi13  1  0.01502259  0.26502259  0.75000000  1
  Bi  Bi14  1  0.46447894  0.48223897  0.73223897  1
  Bi  Bi15  1  0.76776103  0.25000000  0.73223897  1
  Bi  Bi16  1  0.01776103  0.03552106  0.76776103  1
  Bi  Bi17  1  0.75000000  0.26776103  0.23223897  1
  Bi  Bi18  1  0.75000000  0.01502259  0.26502259  1
  Bi  Bi19  1  0.98223897  0.96447894  0.23223897  1
  Bi  Bi20  1  0.25000000  0.48497741  0.23497741  1
  Bi  Bi21  1  0.73223897  0.76776103  0.25000000  1
  Bi  Bi22  1  0.01776103  0.48223897  0.25000000  1
  Bi  Bi23  1  0.25000000  0.01776103  0.48223897  1
  Bi  Bi24  1  0.51776103  0.26776103  0.53552106  1
  Bi  Bi25  1  0.01502259  0.25000000  0.26502259  1
  Bi  Bi26  1  0.48223897  0.73223897  0.46447894  1
  Bi  Bi27  1  0.26776103  0.23223897  0.75000000  1
  Bi  Bi28  1  0.51502259  0.25000000  0.76502259  1
  Bi  Bi29  1  0.76502259  0.75000000  0.51502259  1
  Bi  Bi30  1  0.48223897  0.25000000  0.01776103  1
  Bi  Bi31  1  0.26502259  0.01502259  0.25000000  1
  Bi  Bi32  1  0.73497741  0.98497741  0.75000000  1
  Bi  Bi33  1  0.23223897  0.98223897  0.96447894  1
  Bi  Bi34  1  0.76776103  0.01776103  0.03552106  1
  Bi  Bi35  1  0.98497741  0.73497741  0.25000000  1
  Bi  Bi36  1  0.53552106  0.51776103  0.26776103  1
  Bi  Bi37  1  0.75000000  0.73497741  0.98497741  1
  Bi  Bi38  1  0.26502259  0.75000000  0.01502259  1
  Bi  Bi39  1  0.76502259  0.51502259  0.25000000  1
  Bi  Bi40  1  0.25000000  0.73223897  0.76776103  1
  Bi  Bi41  1  0.73497741  0.25000000  0.98497741  1
  Bi  Bi42  1  0.23223897  0.75000000  0.26776103  1
  Bi  Bi43  1  0.73223897  0.46447894  0.48223897  1
  Bi  Bi44  1  0.48497741  0.23497741  0.25000000  1
  Bi  Bi45  1  0.25000000  0.98497741  0.73497741  1
  Bi  Bi46  1  0.75000000  0.23497741  0.48497741  1
  Bi  Bi47  1  0.25000000  0.26502259  0.01502259  1
  Cl  Cl0  1  0.25000000  0.25000000  0.25000000  1
  Cl  Cl1  1  0.50000000  0.00000000  0.25000000  1
  Cl  Cl2  1  0.00000000  0.25000000  0.50000000  1
  Cl  Cl3  1  0.75000000  0.75000000  0.75000000  1
  Cl  Cl4  1  0.75000000  0.50000000  0.00000000  1
  Cl  Cl5  1  0.00000000  0.75000000  0.50000000  1
  Cl  Cl6  1  0.25000000  0.50000000  0.00000000  1
  Cl  Cl7  1  0.50000000  0.00000000  0.75000000  1
  O  O0  1  0.89460489  0.78920878  0.14460489  1
  O  O1  1  0.28920878  0.39460489  0.64460489  1
  O  O2  1  0.28692207  0.93700449  0.34736736  1
  O  O3  1  0.15263264  0.56299551  0.21307793  1
  O  O4  1  0.08963713  0.65008242  0.93700449  1
  O  O5  1  0.93955471  0.15263264  0.08963713  1
  O  O6  1  0.91036287  0.06044529  0.84736736  1
  O  O7  1  0.65263264  0.43955471  0.58963713  1
  O  O8  1  0.65263264  0.71307793  0.06299551  1
  O  O9  1  0.64460489  0.28920878  0.39460489  1
  O  O10  1  0.71307793  0.06299551  0.65263264  1
  O  O11  1  0.06044529  0.84736736  0.91036287  1
  O  O12  1  0.56299551  0.21307793  0.15263264  1
  O  O13  1  0.84991758  0.93955471  0.28692207  1
  O  O14  1  0.35539511  0.71079122  0.60539511  1
  O  O15  1  0.14460489  0.89460489  0.78920878  1
  O  O16  1  0.43955471  0.34991758  0.78692207  1
  O  O17  1  0.58963713  0.43700449  0.15008242  1
  O  O18  1  0.15008242  0.58963713  0.43700449  1
  O  O19  1  0.78692207  0.43955471  0.34991758  1
  O  O20  1  0.06044529  0.71307793  0.15008242  1
  O  O21  1  0.91036287  0.34991758  0.06299551  1
  O  O22  1  0.08963713  0.93955471  0.15263264  1
  O  O23  1  0.93700449  0.08963713  0.65008242  1
  O  O24  1  0.34991758  0.78692207  0.43955471  1
  O  O25  1  0.58963713  0.65263264  0.43955471  1
  O  O26  1  0.43700449  0.78692207  0.84736736  1
  O  O27  1  0.71307793  0.15008242  0.06044529  1
  O  O28  1  0.06299551  0.65263264  0.71307793  1
  O  O29  1  0.85539511  0.25000000  0.64460489  1
  O  O30  1  0.43955471  0.58963713  0.65263264  1
  O  O31  1  0.15263264  0.08963713  0.93955471  1
  O  O32  1  0.71079122  0.60539511  0.35539511  1
  O  O33  1  0.60539511  0.35539511  0.71079122  1
  O  O34  1  0.34736736  0.28692207  0.93700449  1
  O  O35  1  0.39460489  0.25000000  0.10539511  1
  O  O36  1  0.21307793  0.56044529  0.65008242  1
  O  O37  1  0.93700449  0.34736736  0.28692207  1
  O  O38  1  0.28692207  0.84991758  0.93955471  1
  O  O39  1  0.21307793  0.15263264  0.56299551  1
  O  O40  1  0.78692207  0.84736736  0.43700449  1
  O  O41  1  0.15008242  0.06044529  0.71307793  1
  O  O42  1  0.34736736  0.56044529  0.41036287  1
  O  O43  1  0.64460489  0.85539511  0.25000000  1
  O  O44  1  0.41036287  0.56299551  0.84991758  1
  O  O45  1  0.56044529  0.41036287  0.34736736  1
  O  O46  1  0.84991758  0.41036287  0.56299551  1
  O  O47  1  0.10539511  0.39460489  0.25000000  1
  O  O48  1  0.39460489  0.64460489  0.28920878  1
  O  O49  1  0.65008242  0.21307793  0.56044529  1
  O  O50  1  0.85539511  0.10539511  0.21079122  1
  O  O51  1  0.60539511  0.75000000  0.89460489  1
  O  O52  1  0.78920878  0.14460489  0.89460489  1
  O  O53  1  0.41036287  0.34736736  0.56044529  1
  O  O54  1  0.75000000  0.89460489  0.60539511  1
  O  O55  1  0.34991758  0.06299551  0.91036287  1
  O  O56  1  0.21079122  0.85539511  0.10539511  1
  O  O57  1  0.14460489  0.75000000  0.35539511  1
  O  O58  1  0.25000000  0.10539511  0.39460489  1
  O  O59  1  0.35539511  0.14460489  0.75000000  1
  O  O60  1  0.06299551  0.91036287  0.34991758  1
  O  O61  1  0.93955471  0.28692207  0.84991758  1
  O  O62  1  0.65008242  0.93700449  0.08963713  1
  O  O63  1  0.56299551  0.84991758  0.41036287  1
  O  O64  1  0.84736736  0.43700449  0.78692207  1
  O  O65  1  0.56044529  0.65008242  0.21307793  1
  O  O66  1  0.89460489  0.60539511  0.75000000  1
  O  O67  1  0.43700449  0.15008242  0.58963713  1
  O  O68  1  0.75000000  0.35539511  0.14460489  1
  O  O69  1  0.84736736  0.91036287  0.06044529  1
  O  O70  1  0.25000000  0.64460489  0.85539511  1
  O  O71  1  0.10539511  0.21079122  0.85539511  1
loop_
_geom_bond_atom_site_label_1
_geom_bond_atom_site_label_2
_geom_bond_distance
_geom_bond_site_symmetry_2
K0 O64 2.804023 1_454
K0 O61 2.804023 1_454
K0 O20 2.804023 1_555
K0 O21 2.804023 1_455
K0 O3 2.804023 1_555
K0 O4 2.804023 1_554
K1 O2 2.804023 1_545
K1 O63 2.804023 1_545
K1 O24 2.804023 1_545
K1 O67 2.804023 1_555
K1 O10 2.804023 1_555
K1 O49 2.804023 1_555
K2 O45 2.804023 1_555
K2 O42 2.804023 1_555
K2 O7 2.804023 1_555
K2 O30 2.804023 1_555
K2 O53 2.804023 1_555
K2 O25 2.804023 1_555
K3 O6 2.804023 1_454
K3 O5 2.804023 1_455
K3 O31 2.804023 1_554
K3 O11 2.804023 1_544
K3 O69 2.804023 1_445
K3 O22 2.804023 1_545
K4 O37 2.804023 1_455
K4 O19 2.804023 1_455
K4 O46 2.804023 1_455
K4 O28 2.804023 1_555
K4 O18 2.804023 1_555
K4 O36 2.804023 1_555
K5 O16 2.804023 1_554
K5 O44 2.804023 1_554
K5 O8 2.804023 1_555
K5 O34 2.804023 1_554
K5 O17 2.804023 1_555
K5 O65 2.804023 1_555
K6 O40 2.804023 1_445
K6 O41 2.804023 1_555
K6 O13 2.804023 1_445
K6 O39 2.804023 1_555
K6 O60 2.804023 1_545
K6 O23 2.804023 1_455
K7 O38 2.804023 1_544
K7 O27 2.804023 1_555
K7 O26 2.804023 1_544
K7 O12 2.804023 1_555
K7 O55 2.804023 1_554
K7 O62 2.804023 1_545
Bi0 O65 2.143991 1_555
Bi0 O63 2.143991 1_555
Bi0 O48 2.250248 1_555
Bi0 O43 2.250260 1_555
Bi1 O7 2.143991 1_555
Bi1 O64 2.143991 1_555
Bi1 O66 2.250260 1_555
Bi1 O33 2.250265 1_555
Bi2 O30 2.143991 1_555
Bi2 O26 2.143991 1_555
Bi2 O51 2.250260 1_555
Bi2 O14 2.250265 1_555
Bi3 O53 2.143991 1_555
Bi3 O39 2.143991 1_555
Bi3 O58 2.250260 1_555
Bi3 O1 2.250265 1_555
Bi4 O14 2.125961 1_555
Bi4 O30 2.307255 1_555
Bi4 O18 2.307271 1_555
Bi4 O36 2.332589 1_555
Bi4 O42 2.332593 1_555
Bi5 O54 2.125937 1_555
Bi5 O10 2.307260 1_565
Bi5 O40 2.307260 1_555
Bi5 O63 2.332589 1_555
Bi5 O23 2.332589 1_565
Bi6 O18 2.143991 1_555
Bi6 O24 2.143991 1_555
Bi6 O14 2.250248 1_555
Bi6 O57 2.250260 1_555
Bi7 O56 2.125961 1_555
Bi7 O22 2.307255 1_555
Bi7 O4 2.307271 1_554
Bi7 O20 2.332589 1_555
Bi7 O11 2.332593 1_554
Bi8 O36 2.143991 1_555
Bi8 O44 2.143991 1_555
Bi8 O1 2.250248 1_555
Bi8 O70 2.250260 1_555
Bi9 O28 2.143991 1_655
Bi9 O11 2.143991 1_655
Bi9 O66 2.250260 1_555
Bi9 O15 2.250265 1_655
Bi10 O52 2.125961 1_555
Bi10 O6 2.307255 1_555
Bi10 O21 2.307271 1_556
Bi10 O61 2.332589 1_555
Bi10 O5 2.332593 1_556
Bi11 O51 2.125937 1_555
Bi11 O26 2.307260 1_555
Bi11 O8 2.307260 1_556
Bi11 O62 2.332589 1_556
Bi11 O44 2.332589 1_555
Bi12 O66 2.125937 1_555
Bi12 O28 2.307260 1_655
Bi12 O64 2.307260 1_555
Bi12 O46 2.332589 1_555
Bi12 O4 2.332589 1_655
Bi13 O23 2.143991 1_455
Bi13 O61 2.143991 1_455
Bi13 O71 2.250248 1_555
Bi13 O29 2.250260 1_455
Bi14 O1 2.125961 1_555
Bi14 O53 2.307255 1_555
Bi14 O44 2.307271 1_555
Bi14 O16 2.332589 1_555
Bi14 O30 2.332593 1_555
Bi15 O29 2.125937 1_555
Bi15 O61 2.307260 1_555
Bi15 O49 2.307260 1_555
Bi15 O10 2.332589 1_555
Bi15 O64 2.332589 1_555
Bi16 O71 2.125961 1_555
Bi16 O31 2.307255 1_555
Bi16 O23 2.307271 1_455
Bi16 O41 2.332589 1_555
Bi16 O6 2.332593 1_455
Bi17 O68 2.125937 1_555
Bi17 O27 2.307260 1_555
Bi17 O19 2.307260 1_555
Bi17 O12 2.332589 1_555
Bi17 O37 2.332589 1_555
Bi18 O62 2.143991 1_545
Bi18 O13 2.143991 1_545
Bi18 O50 2.250248 1_555
Bi18 O43 2.250260 1_545
Bi19 O0 2.125961 1_555
Bi19 O69 2.307255 1_555
Bi19 O60 2.307271 1_655
Bi19 O13 2.332589 1_555
Bi19 O22 2.332593 1_655
Bi20 O42 2.143991 1_555
Bi20 O3 2.143991 1_555
Bi20 O47 2.250260 1_555
Bi20 O48 2.250265 1_555
Bi21 O43 2.125937 1_555
Bi21 O13 2.307260 1_555
Bi21 O65 2.307260 1_555
Bi21 O8 2.332589 1_555
Bi21 O40 2.332589 1_555
Bi22 O47 2.125937 1_555
Bi22 O37 2.307260 1_455
Bi22 O3 2.307260 1_555
Bi22 O21 2.332589 1_455
Bi22 O18 2.332589 1_555
Bi23 O58 2.125937 1_555
Bi23 O39 2.307260 1_555
Bi23 O2 2.307260 1_545
Bi23 O60 2.332589 1_545
Bi23 O67 2.332589 1_555
Bi24 O33 2.125961 1_555
Bi24 O7 2.307255 1_555
Bi24 O67 2.307271 1_555
Bi24 O49 2.332589 1_555
Bi24 O53 2.332593 1_555
Bi25 O5 2.143991 1_455
Bi25 O37 2.143991 1_455
Bi25 O47 2.250260 1_555
Bi25 O50 2.250265 1_455
Bi26 O48 2.125961 1_555
Bi26 O42 2.307255 1_555
Bi26 O63 2.307271 1_555
Bi26 O24 2.332589 1_555
Bi26 O25 2.332593 1_555
Bi27 O59 2.125937 1_555
Bi27 O41 2.307260 1_555
Bi27 O16 2.307260 1_555
Bi27 O34 2.332589 1_555
Bi27 O39 2.332589 1_555
Bi28 O67 2.143991 1_555
Bi28 O16 2.143991 1_555
Bi28 O33 2.250248 1_555
Bi28 O59 2.250260 1_555
Bi29 O25 2.143991 1_555
Bi29 O40 2.143991 1_555
Bi29 O54 2.250260 1_555
Bi29 O32 2.250265 1_555
Bi30 O35 2.125937 1_555
Bi30 O12 2.307260 1_555
Bi30 O34 2.307260 1_554
Bi30 O55 2.332589 1_554
Bi30 O17 2.332589 1_555
Bi31 O22 2.143991 1_545
Bi31 O2 2.143991 1_545
Bi31 O58 2.250260 1_555
Bi31 O56 2.250265 1_545
Bi32 O10 2.143991 1_565
Bi32 O6 2.143991 1_565
Bi32 O54 2.250260 1_555
Bi32 O52 2.250265 1_565
Bi33 O15 2.125961 1_555
Bi33 O11 2.307255 1_555
Bi33 O55 2.307271 1_565
Bi33 O38 2.332589 1_555
Bi33 O31 2.332593 1_565
Bi34 O50 2.125961 1_555
Bi34 O5 2.307255 1_555
Bi34 O62 2.307271 1_545
Bi34 O27 2.332589 1_555
Bi34 O69 2.332593 1_545
Bi35 O60 2.143991 1_655
Bi35 O20 2.143991 1_655
Bi35 O0 2.250248 1_555
Bi35 O57 2.250260 1_655
Bi36 O32 2.125961 1_555
Bi36 O25 2.307255 1_555
Bi36 O17 2.307271 1_555
Bi36 O65 2.332589 1_555
Bi36 O45 2.332593 1_555
Bi37 O8 2.143991 1_556
Bi37 O69 2.143991 1_556
Bi37 O51 2.250260 1_555
Bi37 O0 2.250265 1_556
Bi38 O4 2.143991 1_554
Bi38 O38 2.143991 1_554
Bi38 O56 2.250248 1_555
Bi38 O70 2.250260 1_554
Bi39 O17 2.143991 1_555
Bi39 O19 2.143991 1_555
Bi39 O32 2.250248 1_555
Bi39 O68 2.250260 1_555
Bi40 O70 2.125937 1_555
Bi40 O38 2.307260 1_555
Bi40 O36 2.307260 1_555
Bi40 O28 2.332589 1_555
Bi40 O26 2.332589 1_555
Bi41 O21 2.143991 1_556
Bi41 O27 2.143991 1_556
Bi41 O52 2.250248 1_555
Bi41 O68 2.250260 1_556
Bi42 O57 2.125937 1_555
Bi42 O24 2.307260 1_555
Bi42 O20 2.307260 1_555
Bi42 O3 2.332589 1_555
Bi42 O2 2.332589 1_555
Bi43 O9 2.125961 1_555
Bi43 O45 2.307255 1_555
Bi43 O46 2.307271 1_555
Bi43 O19 2.332589 1_555
Bi43 O7 2.332593 1_555
Bi44 O45 2.143991 1_555
Bi44 O12 2.143991 1_555
Bi44 O35 2.250260 1_555
Bi44 O9 2.250265 1_555
Bi45 O55 2.143991 1_565
Bi45 O41 2.143991 1_565
Bi45 O15 2.250248 1_555
Bi45 O59 2.250260 1_565
Bi46 O49 2.143991 1_555
Bi46 O46 2.143991 1_555
Bi46 O9 2.250248 1_555
Bi46 O29 2.250260 1_555
Bi47 O31 2.143991 1_554
Bi47 O34 2.143991 1_554
Bi47 O35 2.250260 1_555
Bi47 O71 2.250265 1_554
Cl0 K3 3.713923 1_555
Cl0 K2 3.713923 1_555
Cl1 K7 3.713923 1_555
Cl1 K1 3.713923 1_555
Cl2 K6 3.713923 1_555
Cl2 K4 3.713923 1_555
Cl3 K3 3.713923 1_666
Cl3 K2 3.713923 1_555
Cl4 K5 3.713923 1_555
Cl4 K0 3.713923 1_655
Cl5 K6 3.713923 1_565
Cl5 K4 3.713923 1_555
Cl6 K5 3.713923 1_555
Cl6 K0 3.713923 1_555
Cl7 K7 3.713923 1_556
Cl7 K1 3.713923 1_555
