# generated using pymatgen
data_Na2YbMoPO8
_symmetry_space_group_name_H-M   'P 1'
_cell_length_a   11.53277500
_cell_length_b   11.53277500
_cell_length_c   11.53277500
_cell_angle_alpha   144.77483444
_cell_angle_beta   115.58471329
_cell_angle_gamma   75.59722730
_symmetry_Int_Tables_number   1
_chemical_formula_structural   Na2YbMoPO8
_chemical_formula_sum   'Na8 Yb4 Mo4 P4 O32'
_cell_volume   781.87866417
_cell_formula_units_Z   4
loop_
 _symmetry_equiv_pos_site_id
 _symmetry_equiv_pos_as_xyz
  1  'x, y, z'
loop_
 _atom_site_type_symbol
 _atom_site_label
 _atom_site_symmetry_multiplicity
 _atom_site_fract_x
 _atom_site_fract_y
 _atom_site_fract_z
 _atom_site_occupancy
  Na  Na0  1  0.71575000  0.14307000  0.55771900  1
  Na  Na1  1  0.78425000  0.34196900  0.42732000  1
  Na  Na2  1  0.28425000  0.85693000  0.44228100  1
  Na  Na3  1  0.91465000  0.84196900  0.05771900  1
  Na  Na4  1  0.58535000  0.64307000  0.92732000  1
  Na  Na5  1  0.08535000  0.15803100  0.94228100  1
  Na  Na6  1  0.21575000  0.65803100  0.57268000  1
  Na  Na7  1  0.41465000  0.35693000  0.07268000  1
  Yb  Yb0  1  0.81909200  0.75000000  0.56909200  1
  Yb  Yb1  1  0.68090800  0.25000000  0.93090800  1
  Yb  Yb2  1  0.31909200  0.75000000  0.06909200  1
  Yb  Yb3  1  0.18090800  0.25000000  0.43090800  1
  Mo  Mo0  1  0.07171200  0.32171200  0.75000000  1
  Mo  Mo1  1  0.92828800  0.67828800  0.25000000  1
  Mo  Mo2  1  0.42828800  0.17828800  0.25000000  1
  Mo  Mo3  1  0.57171200  0.82171200  0.75000000  1
  P  P0  1  0.93227000  0.25000000  0.18227000  1
  P  P1  1  0.43227000  0.25000000  0.68227000  1
  P  P2  1  0.06773000  0.75000000  0.81773000  1
  P  P3  1  0.56773000  0.75000000  0.31773000  1
  O  O0  1  0.15487100  0.58580200  0.71885300  1
  O  O1  1  0.84512900  0.41419800  0.28114700  1
  O  O2  1  0.07398700  0.33606000  0.27261700  1
  O  O3  1  0.92601300  0.66394000  0.72738300  1
  O  O4  1  0.56344300  0.80137000  0.22738300  1
  O  O5  1  0.86694900  0.08580200  0.93093100  1
  O  O6  1  0.60232300  0.26934500  0.40700100  1
  O  O7  1  0.39456500  0.91240800  0.06245600  1
  O  O8  1  0.13305100  0.91419800  0.06906900  1
  O  O9  1  0.57398700  0.30137000  0.73792800  1
  O  O10  1  0.89767700  0.30467800  0.66702200  1
  O  O11  1  0.89456500  0.83210900  0.48215800  1
  O  O12  1  0.43655700  0.19863000  0.77261700  1
  O  O13  1  0.10543500  0.16789100  0.51784200  1
  O  O14  1  0.36694900  0.43601900  0.78114700  1
  O  O15  1  0.60543500  0.08759200  0.93754400  1
  O  O16  1  0.84995200  0.41240800  0.01784200  1
  O  O17  1  0.15004800  0.58759200  0.98215800  1
  O  O18  1  0.63765700  0.80467800  0.90700100  1
  O  O19  1  0.13765700  0.23065500  0.83297800  1
  O  O20  1  0.65004800  0.66789100  0.56245600  1
  O  O21  1  0.63305100  0.56398100  0.21885300  1
  O  O22  1  0.06344300  0.83606000  0.76207200  1
  O  O23  1  0.10232300  0.69532200  0.33297800  1
  O  O24  1  0.36234300  0.19532200  0.09299900  1
  O  O25  1  0.39767700  0.73065500  0.59299900  1
  O  O26  1  0.34512900  0.06398100  0.43093100  1
  O  O27  1  0.65487100  0.93601900  0.56906900  1
  O  O28  1  0.42601300  0.69863000  0.26207200  1
  O  O29  1  0.86234300  0.76934500  0.16702200  1
  O  O30  1  0.93655700  0.16394000  0.23792800  1
  O  O31  1  0.34995200  0.33210900  0.43754400  1
loop_
_geom_bond_atom_site_label_1
_geom_bond_atom_site_label_2
_geom_bond_distance
_geom_bond_site_symmetry_2
Na0 O10 2.299443 1_555
Na0 O9 2.361395 1_555
Na0 O4 2.502887 1_545
Na0 O27 2.763348 1_545
Na0 O6 2.842086 1_555
Na0 O16 2.927666 1_556
Na1 O6 2.299443 1_555
Na1 O3 2.361389 1_555
Na1 O30 2.502881 1_555
Na1 O1 2.763359 1_555
Na1 O10 2.842086 1_555
Na1 O20 2.927675 1_555
Na2 O23 2.299443 1_555
Na2 O28 2.361395 1_555
Na2 O12 2.502887 1_565
Na2 O26 2.763348 1_565
Na2 O25 2.842086 1_555
Na2 O17 2.927666 1_554
Na3 O29 2.299457 1_555
Na3 O30 2.361382 1_565
Na3 O3 2.502881 1_554
Na3 O8 2.763348 1_655
Na3 O18 2.842086 1_554
Na3 O13 2.927666 1_665
Na4 O18 2.299455 1_555
Na4 O4 2.361382 1_556
Na4 O9 2.502891 1_555
Na4 O14 2.763342 1_555
Na4 O29 2.842086 1_556
Na4 O7 2.927666 1_556
Na5 O19 2.299457 1_555
Na5 O22 2.361382 1_545
Na5 O2 2.502881 1_556
Na5 O5 2.763348 1_455
Na5 O24 2.842086 1_556
Na5 O11 2.927666 1_445
Na6 O25 2.299443 1_555
Na6 O2 2.361389 1_555
Na6 O22 2.502881 1_555
Na6 O0 2.763359 1_555
Na6 O23 2.842086 1_555
Na6 O31 2.927675 1_555
Na7 O24 2.299455 1_555
Na7 O12 2.361382 1_554
Na7 O28 2.502891 1_555
Na7 O21 2.763342 1_555
Na7 O19 2.842086 1_554
Na7 O15 2.927666 1_554
Mo0 O10 1.792468 1_455
Mo0 O19 1.792469 1_555
Mo0 O17 1.806375 1_555
Mo0 O13 1.806386 1_555
Mo1 O23 1.792468 1_655
Mo1 O29 1.792469 1_555
Mo1 O16 1.806375 1_555
Mo1 O11 1.806386 1_555
Mo2 O24 1.792468 1_555
Mo2 O6 1.792468 1_555
Mo2 O31 1.806377 1_555
Mo2 O7 1.806377 1_545
Mo3 O18 1.792468 1_555
Mo3 O25 1.792468 1_555
Mo3 O15 1.806377 1_565
Mo3 O20 1.806377 1_555
O0 P2 1.552852 1_555
O0 Yb3 2.321051 1_555
O0 Yb2 2.483650 1_556
O1 P0 1.552852 1_555
O1 Yb0 2.321051 1_555
O1 Yb1 2.483650 1_554
O2 P0 1.545493 1_455
O2 Yb3 2.499062 1_555
O3 P2 1.545493 1_655
O3 Yb0 2.499062 1_555
O4 P3 1.545493 1_555
O4 Yb2 2.499062 1_555
O5 P0 1.552852 1_556
O5 Yb0 2.321051 1_545
O5 Yb1 2.483650 1_555
O7 Yb2 2.318279 1_555
O8 P2 1.552852 1_554
O8 Yb3 2.321051 1_565
O8 Yb2 2.483650 1_555
O9 P1 1.545489 1_555
O9 Yb1 2.499052 1_555
O11 Yb0 2.318268 1_555
O12 P1 1.545493 1_555
O12 Yb1 2.499062 1_555
O13 Yb3 2.318268 1_555
O14 P1 1.552860 1_555
O14 Yb2 2.321047 1_556
O14 Yb3 2.483647 1_555
O15 Yb1 2.318279 1_555
O16 Yb1 2.318286 1_554
O17 Yb2 2.318286 1_556
O20 Yb0 2.318279 1_555
O21 P3 1.552860 1_555
O21 Yb1 2.321047 1_554
O21 Yb0 2.483647 1_555
O22 P2 1.545504 1_555
O22 Yb0 2.499062 1_455
O26 P1 1.552853 1_555
O26 Yb2 2.321050 1_545
O26 Yb3 2.483657 1_555
O27 P3 1.552853 1_555
O27 Yb1 2.321050 1_565
O27 Yb0 2.483657 1_555
O28 P3 1.545489 1_555
O28 Yb2 2.499052 1_555
O30 P0 1.545504 1_555
O30 Yb3 2.499062 1_655
O31 Yb3 2.318279 1_555
