# generated using pymatgen
data_Y(FeO2)2
_symmetry_space_group_name_H-M   'P 1'
_cell_length_a   3.54421333
_cell_length_b   3.54421333
_cell_length_c   25.20060559
_cell_angle_alpha   89.87440451
_cell_angle_beta   89.87440451
_cell_angle_gamma   59.83196942
_symmetry_Int_Tables_number   1
_chemical_formula_structural   Y(FeO2)2
_chemical_formula_sum   'Y3 Fe6 O12'
_cell_volume   273.67939146
_cell_formula_units_Z   3
loop_
 _symmetry_equiv_pos_site_id
 _symmetry_equiv_pos_as_xyz
  1  'x, y, z'
loop_
 _atom_site_type_symbol
 _atom_site_label
 _atom_site_symmetry_multiplicity
 _atom_site_fract_x
 _atom_site_fract_y
 _atom_site_fract_z
 _atom_site_occupancy
  Y  Y0  1  0.32699500  0.32699500  0.66629900  1
  Y  Y1  1  0.00000000  0.00000000  0.00000000  1
  Y  Y2  1  0.67300500  0.67300500  0.33370100  1
  Fe  Fe0  1  0.33439100  0.33439100  0.45377500  1
  Fe  Fe1  1  0.67228000  0.67228000  0.12055600  1
  Fe  Fe2  1  0.32772000  0.32772000  0.87944400  1
  Fe  Fe3  1  0.00922500  0.00922500  0.21347100  1
  Fe  Fe4  1  0.99077500  0.99077500  0.78652900  1
  Fe  Fe5  1  0.66560900  0.66560900  0.54622500  1
  O  O0  1  0.99178100  0.99178100  0.87100400  1
  O  O1  1  0.00726700  0.00726700  0.29202400  1
  O  O2  1  0.33294100  0.33294100  0.95816200  1
  O  O3  1  0.32737000  0.32737000  0.79460900  1
  O  O4  1  0.67030300  0.67030300  0.46178100  1
  O  O5  1  0.32969700  0.32969700  0.53821900  1
  O  O6  1  0.67263000  0.67263000  0.20539100  1
  O  O7  1  0.99273300  0.99273300  0.70797600  1
  O  O8  1  0.66705900  0.66705900  0.04183800  1
  O  O9  1  0.00821900  0.00821900  0.12899600  1
  O  O10  1  0.66107500  0.66107500  0.62472100  1
  O  O11  1  0.33892500  0.33892500  0.37527900  1
loop_
_geom_bond_atom_site_label_1
_geom_bond_atom_site_label_2
_geom_bond_distance
_geom_bond_site_symmetry_2
Fe0 O11 1.978272 1_555
Fe0 O4 2.044618 1_545
Fe0 O4 2.044618 1_455
Fe0 O4 2.074172 1_555
Fe0 O5 2.128162 1_555
Fe1 O8 1.984082 1_555
Fe1 O9 2.045631 1_565
Fe1 O9 2.045631 1_655
Fe1 O9 2.075457 1_665
Fe1 O6 2.137900 1_555
Fe2 O2 1.984082 1_555
Fe2 O0 2.045631 1_545
Fe2 O0 2.045631 1_455
Fe2 O0 2.075457 1_445
Fe2 O3 2.137900 1_555
Fe3 O1 1.979589 1_555
Fe3 O6 2.042736 1_545
Fe3 O6 2.042736 1_455
Fe3 O6 2.078535 1_445
Fe3 O9 2.128846 1_555
Fe4 O7 1.979589 1_555
Fe4 O3 2.042736 1_655
Fe4 O3 2.042736 1_565
Fe4 O3 2.078535 1_665
Fe4 O0 2.128846 1_555
Fe5 O10 1.978272 1_555
Fe5 O5 2.044618 1_565
Fe5 O5 2.044618 1_655
Fe5 O5 2.074172 1_555
Fe5 O4 2.128162 1_555
O1 Y2 2.295613 1_545
O1 Y2 2.295613 1_455
O1 Y2 2.304306 1_445
O2 Y1 2.298934 1_556
O2 Y1 2.301095 1_566
O2 Y1 2.301095 1_656
O7 Y0 2.295613 1_655
O7 Y0 2.295613 1_565
O7 Y0 2.304306 1_665
O8 Y1 2.298934 1_665
O8 Y1 2.301095 1_565
O8 Y1 2.301095 1_655
O10 Y0 2.294968 1_565
O10 Y0 2.294968 1_655
O10 Y0 2.302180 1_555
O11 Y2 2.294968 1_545
O11 Y2 2.294968 1_455
O11 Y2 2.302180 1_555
