# generated using pymatgen
data_Nd4Co3O10
_symmetry_space_group_name_H-M   'P 1'
_cell_length_a   5.58412800
_cell_length_b   5.43006300
_cell_length_c   27.73467910
_cell_angle_alpha   89.21018066
_cell_angle_beta   90.00000000
_cell_angle_gamma   90.00000000
_symmetry_Int_Tables_number   1
_chemical_formula_structural   Nd4Co3O10
_chemical_formula_sum   'Nd16 Co12 O40'
_cell_volume   840.89566498
_cell_formula_units_Z   4
loop_
 _symmetry_equiv_pos_site_id
 _symmetry_equiv_pos_as_xyz
  1  'x, y, z'
loop_
 _atom_site_type_symbol
 _atom_site_label
 _atom_site_symmetry_multiplicity
 _atom_site_fract_x
 _atom_site_fract_y
 _atom_site_fract_z
 _atom_site_occupancy
  Nd  Nd0  1  0.48182400  0.49876300  0.29979300  1
  Nd  Nd1  1  0.98182400  0.00123700  0.70020700  1
  Nd  Nd2  1  0.51817600  0.50123700  0.70020700  1
  Nd  Nd3  1  0.01817600  0.99876300  0.29979300  1
  Nd  Nd4  1  0.48221600  0.00592700  0.80043900  1
  Nd  Nd5  1  0.98221600  0.49407300  0.19956100  1
  Nd  Nd6  1  0.51778400  0.99407300  0.19956100  1
  Nd  Nd7  1  0.01778400  0.50592700  0.80043900  1
  Nd  Nd8  1  0.49448000  0.45477400  0.43149300  1
  Nd  Nd9  1  0.99448000  0.04522600  0.56850700  1
  Nd  Nd10  1  0.50552000  0.54522600  0.56850700  1
  Nd  Nd11  1  0.00552000  0.95477400  0.43149300  1
  Nd  Nd12  1  0.50063700  0.96471800  0.93214600  1
  Nd  Nd13  1  0.00063700  0.53528200  0.06785400  1
  Nd  Nd14  1  0.49936300  0.03528200  0.06785400  1
  Nd  Nd15  1  0.99936300  0.46471800  0.93214600  1
  Co  Co0  1  0.00000000  0.50000000  0.50000000  1
  Co  Co1  1  0.50000000  0.00000000  0.50000000  1
  Co  Co2  1  0.50000000  0.50000000  0.00000000  1
  Co  Co3  1  0.00000000  0.00000000  0.00000000  1
  Co  Co4  1  0.49701900  0.49953200  0.14028100  1
  Co  Co5  1  0.99701900  0.00046800  0.85971900  1
  Co  Co6  1  0.50298100  0.50046800  0.85971900  1
  Co  Co7  1  0.00298100  0.99953200  0.14028100  1
  Co  Co8  1  0.49567000  0.01303600  0.64035200  1
  Co  Co9  1  0.99567000  0.48696400  0.35964800  1
  Co  Co10  1  0.50433000  0.98696400  0.35964800  1
  Co  Co11  1  0.00433000  0.51303600  0.64035200  1
  O  O0  1  0.21064900  0.19936200  0.48706100  1
  O  O1  1  0.71064900  0.30063800  0.51293900  1
  O  O2  1  0.78935100  0.80063800  0.51293900  1
  O  O3  1  0.28935100  0.69936200  0.48706100  1
  O  O4  1  0.30627800  0.21046700  0.98845000  1
  O  O5  1  0.80627800  0.28953300  0.01155000  1
  O  O6  1  0.69372200  0.78953300  0.01155000  1
  O  O7  1  0.19372200  0.71046700  0.98845000  1
  O  O8  1  0.41854900  0.47897400  0.06826500  1
  O  O9  1  0.91854900  0.02102600  0.93173500  1
  O  O10  1  0.58145100  0.52102600  0.93173500  1
  O  O11  1  0.08145100  0.97897400  0.06826500  1
  O  O12  1  0.41488500  0.98891700  0.56777200  1
  O  O13  1  0.91488500  0.51108300  0.43222800  1
  O  O14  1  0.58511500  0.01108300  0.43222800  1
  O  O15  1  0.08511500  0.48891700  0.56777200  1
  O  O16  1  0.25116000  0.24677500  0.15172200  1
  O  O17  1  0.75116000  0.25322500  0.84827800  1
  O  O18  1  0.74884000  0.75322500  0.84827800  1
  O  O19  1  0.24884000  0.74677500  0.15172200  1
  O  O20  1  0.25730200  0.75444100  0.65252700  1
  O  O21  1  0.75730200  0.74555900  0.34747300  1
  O  O22  1  0.74269800  0.24555900  0.34747300  1
  O  O23  1  0.24269800  0.25444100  0.65252700  1
  O  O24  1  0.56706400  0.49056400  0.21815400  1
  O  O25  1  0.06706400  0.00943600  0.78184600  1
  O  O26  1  0.43293600  0.50943600  0.78184600  1
  O  O27  1  0.93293600  0.99056400  0.21815400  1
  O  O28  1  0.56867700  0.02271400  0.71884100  1
  O  O29  1  0.06867700  0.47728600  0.28115900  1
  O  O30  1  0.43132300  0.97728600  0.28115900  1
  O  O31  1  0.93132300  0.52271400  0.71884100  1
  O  O32  1  0.24747400  0.74823900  0.86839500  1
  O  O33  1  0.74747400  0.75176100  0.13160500  1
  O  O34  1  0.75252600  0.25176100  0.13160500  1
  O  O35  1  0.25252600  0.24823900  0.86839500  1
  O  O36  1  0.24197700  0.22739600  0.36890100  1
  O  O37  1  0.74197700  0.27260400  0.63109900  1
  O  O38  1  0.75802300  0.77260400  0.63109900  1
  O  O39  1  0.25802300  0.72739600  0.36890100  1
loop_
_geom_bond_atom_site_label_1
_geom_bond_atom_site_label_2
_geom_bond_distance
_geom_bond_site_symmetry_2
Nd0 O24 2.314751 1_555
Nd0 O29 2.367468 1_555
Nd0 O22 2.389792 1_555
Nd0 O21 2.441284 1_555
Nd0 O39 2.615804 1_555
Nd0 O30 2.657316 1_555
Nd0 O36 2.749722 1_555
Nd0 O30 2.899176 1_545
Nd1 O25 2.314751 1_655
Nd1 O28 2.367468 1_555
Nd1 O23 2.389792 1_655
Nd1 O20 2.441284 1_645
Nd1 O38 2.615804 1_545
Nd1 O31 2.657316 1_545
Nd1 O37 2.749722 1_555
Nd1 O31 2.899176 1_555
Nd2 O26 2.314751 1_555
Nd2 O31 2.367468 1_555
Nd2 O20 2.389792 1_555
Nd2 O23 2.441284 1_555
Nd2 O37 2.615804 1_555
Nd2 O28 2.657316 1_555
Nd2 O38 2.749722 1_555
Nd2 O28 2.899176 1_565
Nd3 O27 2.314751 1_455
Nd3 O30 2.367468 1_555
Nd3 O21 2.389792 1_455
Nd3 O22 2.441284 1_465
Nd3 O36 2.615804 1_565
Nd3 O29 2.657316 1_565
Nd3 O39 2.749722 1_555
Nd3 O29 2.899176 1_555
Nd4 O28 2.314589 1_555
Nd4 O25 2.374941 1_555
Nd4 O18 2.410356 1_545
Nd4 O17 2.422437 1_555
Nd4 O35 2.645177 1_555
Nd4 O32 2.675021 1_545
Nd4 O26 2.765550 1_545
Nd4 O26 2.788906 1_555
Nd5 O29 2.314589 1_655
Nd5 O24 2.374941 1_555
Nd5 O19 2.410356 1_655
Nd5 O16 2.422437 1_655
Nd5 O34 2.645177 1_555
Nd5 O33 2.675021 1_555
Nd5 O27 2.765550 1_555
Nd5 O27 2.788906 1_545
Nd6 O30 2.314589 1_555
Nd6 O27 2.374941 1_555
Nd6 O16 2.410356 1_565
Nd6 O19 2.422437 1_555
Nd6 O33 2.645177 1_555
Nd6 O34 2.675021 1_565
Nd6 O24 2.765550 1_565
Nd6 O24 2.788906 1_555
Nd7 O31 2.314589 1_455
Nd7 O26 2.374941 1_555
Nd7 O17 2.410356 1_455
Nd7 O18 2.422437 1_455
Nd7 O32 2.645177 1_555
Nd7 O35 2.675021 1_555
Nd7 O25 2.765550 1_555
Nd7 O25 2.788906 1_565
Nd8 O3 2.346833 1_555
Nd8 O13 2.367548 1_555
Nd8 O14 2.461666 1_555
Nd8 O36 2.566171 1_555
Nd8 O0 2.598425 1_555
Nd8 O39 2.622530 1_555
Nd8 O1 2.684782 1_555
Nd9 O2 2.346833 1_545
Nd9 O12 2.367548 1_645
Nd9 O15 2.461666 1_655
Nd9 O37 2.566171 1_555
Nd9 O1 2.598425 1_555
Nd9 O38 2.622530 1_545
Nd9 O0 2.684782 1_655
Nd10 O1 2.346833 1_555
Nd10 O15 2.367548 1_555
Nd10 O12 2.461666 1_555
Nd10 O38 2.566171 1_555
Nd10 O2 2.598425 1_555
Nd10 O37 2.622530 1_555
Nd10 O3 2.684782 1_555
Nd11 O0 2.346833 1_565
Nd11 O14 2.367548 1_465
Nd11 O13 2.461666 1_455
Nd11 O39 2.566171 1_555
Nd11 O3 2.598425 1_555
Nd11 O36 2.622530 1_565
Nd11 O2 2.684782 1_455
Nd12 O4 2.335509 1_565
Nd12 O9 2.353626 1_565
Nd12 O10 2.451356 1_555
Nd12 O32 2.562000 1_555
Nd12 O6 2.619078 1_556
Nd12 O7 2.687456 1_555
Nd12 O35 2.709413 1_565
Nd13 O5 2.335509 1_455
Nd13 O8 2.353626 1_555
Nd13 O11 2.451356 1_555
Nd13 O33 2.562000 1_455
Nd13 O7 2.619078 1_554
Nd13 O6 2.687456 1_455
Nd13 O34 2.709413 1_455
Nd14 O6 2.335509 1_545
Nd14 O11 2.353626 1_545
Nd14 O8 2.451356 1_555
Nd14 O34 2.562000 1_555
Nd14 O4 2.619078 1_554
Nd14 O5 2.687456 1_555
Nd14 O33 2.709413 1_545
Nd15 O7 2.335509 1_655
Nd15 O10 2.353626 1_555
Nd15 O9 2.451356 1_555
Nd15 O35 2.562000 1_655
Nd15 O5 2.619078 1_556
Nd15 O4 2.687456 1_655
Nd15 O32 2.709413 1_655
Co0 O15 1.938926 1_555
Co0 O13 1.938926 1_455
Co0 O3 1.975020 1_555
Co0 O1 1.975020 1_455
Co0 O2 2.047826 1_455
Co0 O0 2.047826 1_555
Co1 O12 1.938926 1_545
Co1 O14 1.938926 1_555
Co1 O2 1.975020 1_545
Co1 O0 1.975020 1_555
Co1 O1 2.047826 1_555
Co1 O3 2.047826 1_545
Co2 O6 1.938680 1_555
Co2 O4 1.938680 1_554
Co2 O8 1.948990 1_555
Co2 O10 1.948990 1_554
Co2 O5 2.079360 1_555
Co2 O7 2.079360 1_554
Co3 O7 1.938680 1_544
Co3 O5 1.938680 1_455
Co3 O11 1.948990 1_545
Co3 O9 1.948990 1_454
Co3 O4 2.079360 1_554
Co3 O6 2.079360 1_445
Co4 O19 1.958437 1_555
Co4 O16 1.963995 1_555
Co4 O33 1.969944 1_555
Co4 O34 1.978048 1_555
Co4 O8 2.049387 1_555
Co4 O24 2.194795 1_555
Co5 O18 1.958437 1_545
Co5 O17 1.963995 1_555
Co5 O32 1.969944 1_645
Co5 O35 1.978048 1_655
Co5 O9 2.049387 1_555
Co5 O25 2.194795 1_655
Co6 O17 1.958437 1_555
Co6 O18 1.963995 1_555
Co6 O35 1.969944 1_555
Co6 O32 1.978048 1_555
Co6 O10 2.049387 1_555
Co6 O26 2.194795 1_555
Co7 O16 1.958437 1_565
Co7 O19 1.963995 1_555
Co7 O34 1.969944 1_465
Co7 O33 1.978048 1_455
Co7 O11 2.049387 1_555
Co7 O27 2.194795 1_455
Co8 O23 1.959606 1_555
Co8 O20 1.960729 1_545
Co8 O38 1.981375 1_545
Co8 O37 1.983493 1_555
Co8 O12 2.068822 1_545
Co8 O28 2.216048 1_555
Co9 O22 1.959606 1_555
Co9 O21 1.960729 1_555
Co9 O39 1.981375 1_655
Co9 O36 1.983493 1_655
Co9 O13 2.068822 1_555
Co9 O29 2.216048 1_655
Co10 O21 1.959606 1_555
Co10 O22 1.960729 1_565
Co10 O36 1.981375 1_565
Co10 O39 1.983493 1_555
Co10 O14 2.068822 1_565
Co10 O30 2.216048 1_555
Co11 O20 1.959606 1_555
Co11 O23 1.960729 1_555
Co11 O37 1.981375 1_455
Co11 O38 1.983493 1_455
Co11 O15 2.068822 1_555
Co11 O31 2.216048 1_455
