# generated using pymatgen
data_Cs3Fe2F9
_symmetry_space_group_name_H-M   'P 1'
_cell_length_a   6.31799532
_cell_length_b   6.31799099
_cell_length_c   14.63083764
_cell_angle_alpha   90.00010565
_cell_angle_beta   89.99995161
_cell_angle_gamma   119.99682012
_symmetry_Int_Tables_number   1
_chemical_formula_structural   Cs3Fe2F9
_chemical_formula_sum   'Cs6 Fe4 F18'
_cell_volume   505.79209765
_cell_formula_units_Z   2
loop_
 _symmetry_equiv_pos_site_id
 _symmetry_equiv_pos_as_xyz
  1  'x, y, z'
loop_
 _atom_site_type_symbol
 _atom_site_label
 _atom_site_symmetry_multiplicity
 _atom_site_fract_x
 _atom_site_fract_y
 _atom_site_fract_z
 _atom_site_occupancy
  Cs  Cs0  1  0.33336550  0.66663345  0.74999946  1
  Cs  Cs1  1  0.66663345  0.33336640  0.24999994  1
  Cs  Cs2  1  0.33333348  0.66666735  0.42989496  1
  Cs  Cs3  1  0.66666559  0.33333415  0.92985450  1
  Cs  Cs4  1  0.66666595  0.33333294  0.57014506  1
  Cs  Cs5  1  0.33333381  0.66666739  0.07010430  1
  Fe  Fe0  1  -0.00000488  0.00000462  0.15048692  1
  Fe  Fe1  1  0.00000477  -0.00000524  0.65052793  1
  Fe  Fe2  1  0.00000461  -0.00000273  0.84947335  1
  Fe  Fe3  1  -0.00000469  0.00000436  0.34951324  1
  F  F0  1  0.13384728  0.26771604  0.24999996  1
  F  F1  1  0.86621466  0.13378562  0.75000006  1
  F  F2  1  0.26757287  0.13377726  0.75000029  1
  F  F3  1  0.73228337  0.86615128  0.24999995  1
  F  F4  1  0.13385598  0.86614489  0.24999989  1
  F  F5  1  0.86622114  0.73242673  0.75000020  1
  F  F6  1  0.15130211  0.30261424  0.59197997  1
  F  F7  1  0.84866320  0.15133456  0.09189775  1
  F  F8  1  0.30265159  0.15131746  0.09189637  1
  F  F9  1  0.69738478  0.84869884  0.59197970  1
  F  F10  1  0.15131672  0.84868133  0.59198248  1
  F  F11  1  0.84868524  0.69735020  0.40810327  1
  F  F12  1  0.84866375  0.15133370  0.40810245  1
  F  F13  1  0.84868344  0.69734741  0.09189682  1
  F  F14  1  0.30264939  0.15131640  0.40810318  1
  F  F15  1  0.69738639  0.84870328  0.90801929  1
  F  F16  1  0.15130348  0.30261676  0.90801870  1
  F  F17  1  0.15131603  0.84868230  0.90801801  1
loop_
_geom_bond_atom_site_label_1
_geom_bond_atom_site_label_2
_geom_bond_distance
_geom_bond_site_symmetry_2
Cs0 F16 3.051622 1_555
Cs0 F6 3.051629 1_555
Cs0 F9 3.051636 1_555
Cs0 F15 3.051642 1_555
Cs0 F10 3.051820 1_555
Cs0 F17 3.051839 1_555
Cs0 F5 3.179207 1_555
Cs0 F2 3.179210 1_555
Cs0 F1 3.179528 1_455
Cs0 F1 3.179537 1_565
Cs0 F2 3.179674 1_565
Cs0 F5 3.179682 1_455
Cs1 F13 3.052425 1_555
Cs1 F8 3.052431 1_555
Cs1 F11 3.052432 1_555
Cs1 F14 3.052435 1_555
Cs1 F7 3.052635 1_555
Cs1 F12 3.052648 1_555
Cs1 F3 3.179122 1_555
Cs1 F0 3.179131 1_555
Cs1 F4 3.179443 1_545
Cs1 F4 3.179449 1_655
Cs1 F0 3.179581 1_655
Cs1 F3 3.179586 1_545
Cs2 F10 3.096944 1_555
Cs2 F9 3.097050 1_555
Cs2 F6 3.097061 1_555
Cs2 F11 3.179408 1_455
Cs2 F14 3.179416 1_565
Cs2 F14 3.179545 1_555
Cs2 F11 3.179556 1_555
Cs2 F12 3.179617 1_565
Cs2 F12 3.179637 1_455
Cs2 F4 3.419418 1_555
Cs2 F3 3.419465 1_555
Cs2 F0 3.419466 1_555
Cs3 F7 3.096335 1_556
Cs3 F13 3.096437 1_556
Cs3 F8 3.096438 1_556
Cs3 F15 3.179490 1_545
Cs3 F16 3.179526 1_655
Cs3 F16 3.179588 1_555
Cs3 F15 3.179619 1_555
Cs3 F17 3.179697 1_655
Cs3 F17 3.179706 1_545
Cs3 F1 3.419454 1_555
Cs3 F2 3.419504 1_555
Cs3 F5 3.419506 1_555
Cs4 F12 3.096322 1_555
Cs4 F14 3.096447 1_555
Cs4 F11 3.096450 1_555
Cs4 F9 3.179504 1_545
Cs4 F6 3.179519 1_655
Cs4 F6 3.179593 1_555
Cs4 F9 3.179603 1_555
Cs4 F10 3.179700 1_655
Cs4 F10 3.179706 1_545
Cs4 F1 3.419460 1_555
Cs4 F5 3.419515 1_555
Cs4 F2 3.419517 1_555
Cs5 F17 3.096942 1_554
Cs5 F16 3.097054 1_554
Cs5 F15 3.097057 1_554
Cs5 F13 3.179412 1_455
Cs5 F8 3.179415 1_565
Cs5 F8 3.179545 1_555
Cs5 F13 3.179552 1_555
Cs5 F7 3.179617 1_565
Cs5 F7 3.179639 1_455
Cs5 F4 3.419420 1_555
Cs5 F3 3.419470 1_555
Cs5 F0 3.419479 1_555
F0 Fe0 2.065325 1_555
F0 Fe3 2.065332 1_555
F1 Fe1 2.064348 1_655
F1 Fe2 2.064352 1_655
F2 Fe1 2.064352 1_555
F2 Fe2 2.064360 1_555
F3 Fe0 2.065329 1_665
F3 Fe3 2.065332 1_665
F4 Fe3 2.065313 1_565
F4 Fe0 2.065314 1_565
F5 Fe1 2.064352 1_665
F5 Fe2 2.064367 1_665
F6 Fe1 1.864299 1_555
F7 Fe0 1.864712 1_655
F8 Fe0 1.864765 1_555
F9 Fe1 1.864303 1_665
F10 Fe1 1.864238 1_565
F11 Fe3 1.864750 1_665
F12 Fe3 1.864705 1_655
F13 Fe0 1.864763 1_665
F14 Fe3 1.864749 1_555
F15 Fe2 1.864279 1_665
F16 Fe2 1.864279 1_555
F17 Fe2 1.864240 1_565
