# generated using pymatgen
data_Th2Ru6C5
_symmetry_space_group_name_H-M   'P 1'
_cell_length_a   9.14905900
_cell_length_b   9.14905900
_cell_length_c   4.20164600
_cell_angle_alpha   90.00000000
_cell_angle_beta   90.00000000
_cell_angle_gamma   90.00000000
_symmetry_Int_Tables_number   1
_chemical_formula_structural   Th2Ru6C5
_chemical_formula_sum   'Th4 Ru12 C10'
_cell_volume   351.69995735
_cell_formula_units_Z   2
loop_
 _symmetry_equiv_pos_site_id
 _symmetry_equiv_pos_as_xyz
  1  'x, y, z'
loop_
 _atom_site_type_symbol
 _atom_site_label
 _atom_site_symmetry_multiplicity
 _atom_site_fract_x
 _atom_site_fract_y
 _atom_site_fract_z
 _atom_site_occupancy
  Th  Th0  1  0.32639000  0.82639000  0.50000000  1
  Th  Th1  1  0.82639000  0.67361000  0.50000000  1
  Th  Th2  1  0.17361000  0.32639000  0.50000000  1
  Th  Th3  1  0.67361000  0.17361000  0.50000000  1
  Ru  Ru0  1  0.71158400  0.42868100  0.00000000  1
  Ru  Ru1  1  0.42868100  0.28841600  0.00000000  1
  Ru  Ru2  1  0.50000000  0.00000000  0.00000000  1
  Ru  Ru3  1  0.00000000  0.50000000  0.00000000  1
  Ru  Ru4  1  0.00000000  0.00000000  0.50000000  1
  Ru  Ru5  1  0.50000000  0.50000000  0.50000000  1
  Ru  Ru6  1  0.78841600  0.92868100  0.00000000  1
  Ru  Ru7  1  0.92868100  0.21158400  0.00000000  1
  Ru  Ru8  1  0.07131900  0.78841600  0.00000000  1
  Ru  Ru9  1  0.21158400  0.07131900  0.00000000  1
  Ru  Ru10  1  0.57131900  0.71158400  0.00000000  1
  Ru  Ru11  1  0.28841600  0.57131900  0.00000000  1
  C  C0  1  0.50000000  0.50000000  0.00000000  1
  C  C1  1  0.00000000  0.00000000  0.00000000  1
  C  C2  1  0.87414300  0.37414300  0.67068800  1
  C  C3  1  0.12585700  0.62585700  0.67068800  1
  C  C4  1  0.87414300  0.37414300  0.32931200  1
  C  C5  1  0.37414300  0.12585700  0.32931200  1
  C  C6  1  0.62585700  0.87414300  0.32931200  1
  C  C7  1  0.12585700  0.62585700  0.32931200  1
  C  C8  1  0.62585700  0.87414300  0.67068800  1
  C  C9  1  0.37414300  0.12585700  0.67068800  1
loop_
_geom_bond_atom_site_label_1
_geom_bond_atom_site_label_2
_geom_bond_distance
_geom_bond_site_symmetry_2
Ru0 Th3 3.159134 1_554
Ru0 Th3 3.159134 1_555
Ru0 Th1 3.246263 1_555
Ru0 Th1 3.246263 1_554
Ru1 Th2 3.159134 1_555
Ru1 Th2 3.159134 1_554
Ru1 Th3 3.246263 1_555
Ru1 Th3 3.246263 1_554
Ru2 Th3 3.075595 1_554
Ru2 Th0 3.075595 1_544
Ru2 Th0 3.075595 1_545
Ru2 Th3 3.075595 1_555
Ru3 Th2 3.075595 1_555
Ru3 Th2 3.075595 1_554
Ru3 Th1 3.075595 1_455
Ru3 Th1 3.075595 1_454
Ru4 Th3 3.382318 1_455
Ru4 Th2 3.382318 1_555
Ru4 Th1 3.382318 1_445
Ru4 Th0 3.382318 1_545
Ru5 Th0 3.382318 1_555
Ru5 Th1 3.382318 1_555
Ru5 Th2 3.382318 1_555
Ru5 Th3 3.382318 1_555
Ru6 Th1 3.159134 1_555
Ru6 Th1 3.159134 1_554
Ru6 Th3 3.246263 1_564
Ru6 Th3 3.246263 1_565
Ru7 Th3 3.159134 1_555
Ru7 Th3 3.159134 1_554
Ru7 Th2 3.246263 1_654
Ru7 Th2 3.246263 1_655
Ru8 Th0 3.159134 1_554
Ru8 Th0 3.159134 1_555
Ru8 Th1 3.246263 1_455
Ru8 Th1 3.246263 1_454
Ru9 Th2 3.159134 1_555
Ru9 Th2 3.159134 1_554
Ru9 Th0 3.246263 1_544
Ru9 Th0 3.246263 1_545
Ru10 Th1 3.159134 1_554
Ru10 Th1 3.159134 1_555
Ru10 Th0 3.246263 1_554
Ru10 Th0 3.246263 1_555
Ru11 Th0 3.159134 1_555
Ru11 Th0 3.159134 1_554
Ru11 Th2 3.246263 1_555
Ru11 Th2 3.246263 1_554
C0 Ru11 2.042807 1_555
C0 Ru1 2.042807 1_555
C0 Ru0 2.042807 1_555
C0 Ru10 2.042807 1_555
C0 Ru5 2.100823 1_555
C0 Ru5 2.100823 1_554
C1 Ru6 2.042807 1_445
C1 Ru7 2.042807 1_455
C1 Ru8 2.042807 1_545
C1 Ru9 2.042807 1_555
C1 Ru4 2.100823 1_555
C1 Ru4 2.100823 1_554
C2 C4 1.434341 1_555
C2 Ru0 2.091749 1_556
C2 Ru7 2.091749 1_556
C2 Ru3 2.136884 1_656
C2 Th3 2.691932 1_555
C2 Th1 2.865648 1_555
C2 Th2 2.865648 1_655
C3 C7 1.434341 1_555
C3 Ru8 2.091749 1_556
C3 Ru11 2.091749 1_556
C3 Ru3 2.136884 1_556
C3 Th0 2.691932 1_555
C3 Th2 2.865648 1_555
C3 Th1 2.865648 1_455
C4 Ru0 2.091749 1_555
C4 Ru7 2.091749 1_555
C4 Ru3 2.136884 1_655
C4 Th3 2.691932 1_555
C4 Th1 2.865648 1_555
C4 Th2 2.865648 1_655
C5 C9 1.434341 1_555
C5 Ru1 2.091749 1_555
C5 Ru9 2.091749 1_555
C5 Ru2 2.136884 1_555
C5 Th2 2.691932 1_555
C5 Th0 2.865648 1_545
C5 Th3 2.865648 1_555
C6 C8 1.434341 1_555
C6 Ru6 2.091749 1_555
C6 Ru10 2.091749 1_555
C6 Ru2 2.136884 1_565
C6 Th1 2.691932 1_555
C6 Th0 2.865648 1_555
C6 Th3 2.865648 1_565
C7 Ru11 2.091749 1_555
C7 Ru8 2.091749 1_555
C7 Ru3 2.136884 1_555
C7 Th0 2.691932 1_555
C7 Th2 2.865648 1_555
C7 Th1 2.865648 1_455
C8 Ru6 2.091749 1_556
C8 Ru10 2.091749 1_556
C8 Ru2 2.136884 1_566
C8 Th1 2.691932 1_555
C8 Th0 2.865648 1_555
C8 Th3 2.865648 1_565
C9 Ru1 2.091749 1_556
C9 Ru9 2.091749 1_556
C9 Ru2 2.136884 1_556
C9 Th2 2.691932 1_555
C9 Th0 2.865648 1_545
C9 Th3 2.865648 1_555
