# generated using pymatgen
data_SiO2
_symmetry_space_group_name_H-M   'P 1'
_cell_length_a   7.78845454
_cell_length_b   7.78845391
_cell_length_c   14.71712592
_cell_angle_alpha   105.34829431
_cell_angle_beta   105.34829562
_cell_angle_gamma   90.00212441
_symmetry_Int_Tables_number   1
_chemical_formula_structural   SiO2
_chemical_formula_sum   'Si16 O32'
_cell_volume   827.83509046
_cell_formula_units_Z   16
loop_
 _symmetry_equiv_pos_site_id
 _symmetry_equiv_pos_as_xyz
  1  'x, y, z'
loop_
 _atom_site_type_symbol
 _atom_site_label
 _atom_site_symmetry_multiplicity
 _atom_site_fract_x
 _atom_site_fract_y
 _atom_site_fract_z
 _atom_site_occupancy
  Si  Si0  1  0.55699453  0.01086186  0.61405035  1
  Si  Si1  1  0.48913814  0.94300547  0.88594965  1
  Si  Si2  1  0.51086661  0.05700030  0.11405928  1
  Si  Si3  1  0.44297949  0.39676779  0.38594039  1
  Si  Si4  1  0.06684383  0.81688886  0.24999437  1
  Si  Si5  1  0.93315219  0.56684781  0.75000000  1
  Si  Si6  1  0.89677964  0.94298490  0.88594680  1
  Si  Si7  1  0.68311114  0.43315617  0.25000563  1
  Si  Si8  1  0.06684291  0.43315709  0.25000000  1
  Si  Si9  1  0.44299970  0.98913339  0.38594072  1
  Si  Si10  1  0.93315181  0.18310999  0.75000424  1
  Si  Si11  1  0.68312583  0.81687417  0.25000000  1
  Si  Si12  1  0.55701510  0.60322036  0.61405320  1
  Si  Si13  1  0.31687772  0.18312228  0.75000000  1
  Si  Si14  1  0.31689001  0.56684819  0.74999576  1
  Si  Si15  1  0.10323221  0.05702051  0.11405961  1
  O  O0  1  0.38663982  0.08906061  0.83662486  1
  O  O1  1  0.94995270  0.74760207  0.83659264  1
  O  O2  1  0.05005649  0.91096796  0.16338271  1
  O  O3  1  0.36103011  0.39710592  0.79421666  1
  O  O4  1  0.06660556  0.60288890  0.20575982  1
  O  O5  1  0.05004111  0.25240021  0.16341111  1
  O  O6  1  0.68499813  0.93508173  0.87002813  1
  O  O7  1  0.58906050  0.88662533  0.33662126  1
  O  O8  1  0.43507018  0.18498200  0.36999987  1
  O  O9  1  0.56491827  0.81500087  0.62997187  1
  O  O10  1  0.24761705  0.88659384  0.33658498  1
  O  O11  1  0.61337467  0.91093950  0.16337874  1
  O  O12  1  0.94993170  0.08903496  0.83661879  1
  O  O13  1  0.93337836  0.39710516  0.79422609  1
  O  O14  1  0.41093939  0.11336118  0.66337514  1
  O  O15  1  0.10289484  0.56662164  0.70577391  1
  O  O16  1  0.10289408  0.13896989  0.70578434  1
  O  O17  1  0.41096504  0.55006830  0.66338121  1
  O  O18  1  0.24760079  0.44995889  0.33658889  1
  O  O19  1  0.89711110  0.43339444  0.29424018  1
  O  O20  1  0.49999691  0.00000383  0.00000371  1
  O  O21  1  0.63896542  0.60288648  0.20577010  1
  O  O22  1  0.61340616  0.25238295  0.16341502  1
  O  O23  1  0.38660971  0.74762155  0.83658979  1
  O  O24  1  0.89711352  0.86103458  0.29422990  1
  O  O25  1  0.31501800  0.06492982  0.13000013  1
  O  O26  1  0.58903204  0.44994351  0.33661729  1
  O  O27  1  0.49999617  0.00000309  0.49999629  1
  O  O28  1  0.75239693  0.55004730  0.66340736  1
  O  O29  1  0.00001036  0.00000245  0.00000213  1
  O  O30  1  0.49999755  0.49998964  0.49999787  1
  O  O31  1  0.75237845  0.11339029  0.66341021  1
loop_
_geom_bond_atom_site_label_1
_geom_bond_atom_site_label_2
_geom_bond_distance
_geom_bond_site_symmetry_2
O0 Si13 1.607780 1_555
O0 Si1 1.608939 1_545
O1 Si5 1.607814 1_555
O1 Si6 1.609013 1_555
O2 Si4 1.607792 1_555
O2 Si15 1.608923 1_565
O3 Si14 1.620664 1_555
O3 Si13 1.620696 1_555
O4 Si8 1.620637 1_555
O4 Si4 1.620729 1_555
O5 Si8 1.607796 1_555
O5 Si15 1.609035 1_555
O6 Si6 1.602235 1_555
O6 Si1 1.602271 1_555
O7 Si11 1.607745 1_555
O7 Si9 1.608964 1_555
O8 Si3 1.602224 1_555
O8 Si9 1.602294 1_545
O9 Si12 1.602227 1_555
O9 Si0 1.602279 1_565
O10 Si4 1.607771 1_555
O10 Si9 1.608963 1_555
O11 Si11 1.607745 1_555
O11 Si2 1.608964 1_565
O12 Si10 1.607817 1_555
O12 Si6 1.608889 1_545
O13 Si5 1.620596 1_555
O13 Si10 1.620680 1_555
O14 Si13 1.607780 1_555
O14 Si0 1.608942 1_555
O15 Si5 1.620596 1_455
O15 Si14 1.620680 1_555
O16 Si10 1.620656 1_455
O16 Si13 1.620696 1_555
O17 Si14 1.607817 1_555
O17 Si12 1.608889 1_555
O18 Si8 1.607802 1_555
O18 Si3 1.609029 1_555
O19 Si8 1.620637 1_655
O19 Si7 1.620729 1_555
O20 Si1 1.597539 1_544
O20 Si2 1.597542 1_555
O21 Si7 1.620704 1_555
O21 Si11 1.620746 1_555
O22 Si7 1.607771 1_555
O22 Si2 1.608963 1_555
O23 Si14 1.607810 1_555
O23 Si1 1.608943 1_555
O24 Si4 1.620704 1_655
O24 Si11 1.620747 1_555
O25 Si15 1.602224 1_555
O25 Si2 1.602294 1_555
O26 Si7 1.607792 1_555
O26 Si3 1.608923 1_555
O27 Si0 1.597539 1_555
O27 Si9 1.597541 1_545
O28 Si5 1.607819 1_555
O28 Si12 1.609007 1_555
O29 Si6 1.597549 1_444
O29 Si15 1.597560 1_555
O30 Si12 1.597549 1_555
O30 Si3 1.597560 1_555
O31 Si10 1.607810 1_555
O31 Si0 1.608943 1_555
