# generated using pymatgen
data_Ba3(PS4)2
_symmetry_space_group_name_H-M   'P 1'
_cell_length_a   6.66580551
_cell_length_b   11.80887612
_cell_length_c   17.50034086
_cell_angle_alpha   89.81915446
_cell_angle_beta   90.00000000
_cell_angle_gamma   90.00000000
_symmetry_Int_Tables_number   1
_chemical_formula_structural   Ba3(PS4)2
_chemical_formula_sum   'Ba12 P8 S32'
_cell_volume   1377.54422105
_cell_formula_units_Z   4
loop_
 _symmetry_equiv_pos_site_id
 _symmetry_equiv_pos_as_xyz
  1  'x, y, z'
loop_
 _atom_site_type_symbol
 _atom_site_label
 _atom_site_symmetry_multiplicity
 _atom_site_fract_x
 _atom_site_fract_y
 _atom_site_fract_z
 _atom_site_occupancy
  Ba  Ba0  1  0.48524113  0.83032736  0.42635388  1
  Ba  Ba1  1  0.01475887  0.33032736  0.42635388  1
  Ba  Ba2  1  0.04915325  0.02279993  0.74813392  1
  Ba  Ba3  1  0.49178342  0.84154744  0.92606924  1
  Ba  Ba4  1  0.99178342  0.65845256  0.07393076  1
  Ba  Ba5  1  0.54915325  0.47720007  0.25186608  1
  Ba  Ba6  1  0.00821658  0.34154744  0.92606924  1
  Ba  Ba7  1  0.50821658  0.15845256  0.07393076  1
  Ba  Ba8  1  0.98524113  0.66967264  0.57364612  1
  Ba  Ba9  1  0.51475887  0.16967264  0.57364612  1
  Ba  Ba10  1  0.45084675  0.52279993  0.74813392  1
  Ba  Ba11  1  0.95084675  0.97720007  0.25186608  1
  P  P0  1  0.46413459  0.83814032  0.13984457  1
  P  P1  1  0.48161491  0.82955898  0.63950443  1
  P  P2  1  0.98161491  0.67044102  0.36049557  1
  P  P3  1  0.01838509  0.32955898  0.63950443  1
  P  P4  1  0.51838509  0.17044102  0.36049557  1
  P  P5  1  0.53586541  0.16185968  0.86015543  1
  P  P6  1  0.96413459  0.66185968  0.86015543  1
  P  P7  1  0.03586541  0.33814032  0.13984457  1
  S  S0  1  0.73311708  0.07536295  0.41398617  1
  S  S1  1  0.01200849  0.17548716  0.58564303  1
  S  S2  1  0.27644380  0.09844489  0.90702246  1
  S  S3  1  0.26944481  0.40483529  0.07920034  1
  S  S4  1  0.26688292  0.92463705  0.58601383  1
  S  S5  1  0.23311708  0.42463705  0.58601383  1
  S  S6  1  0.72355620  0.90155511  0.09297754  1
  S  S7  1  0.76688292  0.57536295  0.41398617  1
  S  S8  1  0.73055519  0.59516471  0.92079966  1
  S  S9  1  0.10677656  0.30264179  0.74867916  1
  S  S10  1  0.89322344  0.69735821  0.25132084  1
  S  S11  1  0.48799151  0.67548716  0.58564303  1
  S  S12  1  0.03504455  0.16822822  0.12004375  1
  S  S13  1  0.46495545  0.66822822  0.12004375  1
  S  S14  1  0.51200849  0.32451284  0.41435697  1
  S  S15  1  0.98799151  0.82451284  0.41435697  1
  S  S16  1  0.74937823  0.40468593  0.61911276  1
  S  S17  1  0.22355620  0.59844489  0.90702246  1
  S  S18  1  0.60677656  0.19735821  0.25132084  1
  S  S19  1  0.24937823  0.09531407  0.38088724  1
  S  S20  1  0.96495545  0.83177178  0.87995625  1
  S  S21  1  0.53504455  0.33177178  0.87995625  1
  S  S22  1  0.93616191  0.60682865  0.75125694  1
  S  S23  1  0.75062177  0.90468593  0.61911276  1
  S  S24  1  0.25062177  0.59531407  0.38088724  1
  S  S25  1  0.06383809  0.39317135  0.24874306  1
  S  S26  1  0.43616191  0.89317135  0.24874306  1
  S  S27  1  0.77644380  0.40155511  0.09297754  1
  S  S28  1  0.56383809  0.10682865  0.75125694  1
  S  S29  1  0.76944481  0.09516471  0.92079966  1
  S  S30  1  0.39322344  0.80264179  0.74867916  1
  S  S31  1  0.23055519  0.90483529  0.07920034  1
loop_
_geom_bond_atom_site_label_1
_geom_bond_atom_site_label_2
_geom_bond_distance
_geom_bond_site_symmetry_2
Ba0 S26 3.210050 1_555
Ba0 S24 3.285558 1_555
Ba0 S15 3.321935 1_455
Ba0 S11 3.329013 1_555
Ba0 S0 3.338541 1_565
Ba0 S4 3.344480 1_555
Ba0 S15 3.358522 1_555
Ba0 S7 3.555369 1_555
Ba0 S19 3.589027 1_565
Ba1 S25 3.210050 1_555
Ba1 S19 3.285558 1_555
Ba1 S14 3.321935 1_555
Ba1 S1 3.329013 1_555
Ba1 S7 3.338541 1_455
Ba1 S5 3.344480 1_555
Ba1 S14 3.358522 1_455
Ba1 S0 3.555369 1_455
Ba1 S24 3.589027 1_555
Ba2 S20 3.269993 1_445
Ba2 S2 3.292543 1_555
Ba2 S23 3.320153 1_445
Ba2 S9 3.326909 1_555
Ba2 S1 3.371395 1_555
Ba2 S28 3.384271 1_455
Ba2 S4 3.394164 1_545
Ba2 S30 3.466867 1_545
Ba2 S28 3.571872 1_555
Ba2 S29 3.654254 1_455
Ba3 S30 3.207635 1_555
Ba3 S20 3.257810 1_555
Ba3 S31 3.284034 1_556
Ba3 S8 3.317924 1_555
Ba3 S2 3.371689 1_565
Ba3 S6 3.381428 1_556
Ba3 S17 3.399297 1_555
Ba3 S29 3.521646 1_565
Ba3 S20 3.605193 1_455
Ba4 S10 3.207635 1_555
Ba4 S13 3.257810 1_655
Ba4 S8 3.284034 1_554
Ba4 S31 3.317924 1_655
Ba4 S27 3.371689 1_555
Ba4 S17 3.381428 1_654
Ba4 S6 3.399297 1_555
Ba4 S3 3.521646 1_655
Ba4 S13 3.605193 1_555
Ba5 S13 3.269993 1_555
Ba5 S27 3.292543 1_555
Ba5 S24 3.320153 1_555
Ba5 S18 3.326909 1_555
Ba5 S14 3.371395 1_555
Ba5 S25 3.384271 1_555
Ba5 S7 3.394164 1_555
Ba5 S10 3.466867 1_555
Ba5 S25 3.571872 1_655
Ba5 S3 3.654254 1_555
Ba6 S9 3.207635 1_555
Ba6 S21 3.257810 1_455
Ba6 S3 3.284034 1_556
Ba6 S29 3.317924 1_455
Ba6 S17 3.371689 1_555
Ba6 S27 3.381428 1_456
Ba6 S2 3.399297 1_555
Ba6 S8 3.521646 1_455
Ba6 S21 3.605193 1_555
Ba7 S18 3.207635 1_555
Ba7 S12 3.257810 1_555
Ba7 S29 3.284034 1_554
Ba7 S3 3.317924 1_555
Ba7 S6 3.371689 1_545
Ba7 S2 3.381428 1_554
Ba7 S27 3.399297 1_555
Ba7 S31 3.521646 1_545
Ba7 S12 3.605193 1_655
Ba8 S22 3.210050 1_555
Ba8 S23 3.285558 1_555
Ba8 S11 3.321935 1_555
Ba8 S15 3.329013 1_555
Ba8 S5 3.338541 1_655
Ba8 S7 3.344480 1_555
Ba8 S11 3.358522 1_655
Ba8 S4 3.555369 1_655
Ba8 S16 3.589027 1_555
Ba9 S28 3.210050 1_555
Ba9 S16 3.285558 1_555
Ba9 S1 3.321935 1_655
Ba9 S14 3.329013 1_555
Ba9 S4 3.338541 1_545
Ba9 S0 3.344480 1_555
Ba9 S1 3.358522 1_555
Ba9 S5 3.555369 1_555
Ba9 S23 3.589027 1_545
Ba10 S21 3.269993 1_555
Ba10 S17 3.292543 1_555
Ba10 S16 3.320153 1_555
Ba10 S30 3.326909 1_555
Ba10 S11 3.371395 1_555
Ba10 S22 3.384271 1_555
Ba10 S5 3.394164 1_555
Ba10 S9 3.466867 1_555
Ba10 S22 3.571872 1_455
Ba10 S8 3.654254 1_555
Ba11 S12 3.269993 1_665
Ba11 S6 3.292543 1_555
Ba11 S19 3.320153 1_665
Ba11 S10 3.326909 1_555
Ba11 S15 3.371395 1_555
Ba11 S26 3.384271 1_655
Ba11 S0 3.394164 1_565
Ba11 S18 3.466867 1_565
Ba11 S26 3.571872 1_555
Ba11 S31 3.654254 1_655
P0 S26 2.024060 1_555
P0 S13 2.037258 1_555
P0 S31 2.040981 1_555
P0 S6 2.054249 1_555
P1 S30 2.023545 1_555
P1 S23 2.031696 1_555
P1 S4 2.044273 1_555
P1 S11 2.052166 1_555
P2 S10 2.023545 1_555
P2 S24 2.031696 1_655
P2 S7 2.044273 1_555
P2 S15 2.052166 1_555
P3 S9 2.023545 1_555
P3 S16 2.031696 1_455
P3 S5 2.044273 1_555
P3 S1 2.052166 1_555
P4 S18 2.023545 1_555
P4 S19 2.031696 1_555
P4 S0 2.044273 1_555
P4 S14 2.052166 1_555
P5 S28 2.024060 1_555
P5 S21 2.037258 1_555
P5 S29 2.040981 1_555
P5 S2 2.054249 1_555
P6 S22 2.024060 1_555
P6 S20 2.037258 1_555
P6 S8 2.040981 1_555
P6 S17 2.054249 1_655
P7 S25 2.024060 1_555
P7 S12 2.037258 1_555
P7 S3 2.040981 1_555
P7 S27 2.054249 1_455
