# generated using pymatgen
data_ThRh2
_symmetry_space_group_name_H-M   'P 1'
_cell_length_a   4.71583251
_cell_length_b   4.71583297
_cell_length_c   5.91918306
_cell_angle_alpha   90.00000000
_cell_angle_beta   90.00000000
_cell_angle_gamma   119.99999669
_symmetry_Int_Tables_number   1
_chemical_formula_structural   ThRh2
_chemical_formula_sum   'Th2 Rh4'
_cell_volume   114.00114263
_cell_formula_units_Z   2
loop_
 _symmetry_equiv_pos_site_id
 _symmetry_equiv_pos_as_xyz
  1  'x, y, z'
loop_
 _atom_site_type_symbol
 _atom_site_label
 _atom_site_symmetry_multiplicity
 _atom_site_fract_x
 _atom_site_fract_y
 _atom_site_fract_z
 _atom_site_occupancy
  Th  Th0  1  0.66666700  0.33333300  0.75000000  1
  Th  Th1  1  0.33333300  0.66666700  0.25000000  1
  Rh  Rh0  1  0.33333300  0.66666700  0.75000000  1
  Rh  Rh1  1  -0.00000000  -0.00000000  -0.00000000  1
  Rh  Rh2  1  -0.00000000  -0.00000000  0.50000000  1
  Rh  Rh3  1  0.66666700  0.33333300  0.25000000  1
loop_
_geom_bond_atom_site_label_1
_geom_bond_atom_site_label_2
_geom_bond_distance
_geom_bond_site_symmetry_2
Rh0 Th0 2.722685 1_455
Rh0 Th0 2.722685 1_565
Rh0 Th0 2.722693 1_555
Rh0 Th1 2.959592 1_555
Rh0 Th1 2.959592 1_556
Rh0 Rh1 3.098840 1_566
Rh0 Rh2 3.098840 1_565
Rh0 Rh1 3.098843 1_666
Rh0 Rh2 3.098843 1_665
Rh0 Rh2 3.098843 1_555
Rh0 Rh1 3.098843 1_556
Rh1 Rh2 2.959592 1_554
Rh1 Rh2 2.959592 1_555
Rh1 Th0 3.098840 1_454
Rh1 Th1 3.098840 1_545
Rh1 Rh3 3.098840 1_455
Rh1 Th1 3.098843 1_445
Rh1 Th0 3.098843 1_554
Rh1 Rh3 3.098843 1_555
Rh1 Th0 3.098843 1_444
Rh1 Th1 3.098843 1_555
Rh1 Rh3 3.098843 1_445
Rh2 Th0 3.098840 1_455
Rh2 Th1 3.098840 1_545
Rh2 Rh3 3.098840 1_455
Rh2 Th0 3.098843 1_555
Rh2 Th1 3.098843 1_445
Rh2 Rh3 3.098843 1_555
Rh2 Th0 3.098843 1_445
Rh2 Th1 3.098843 1_555
Rh2 Rh3 3.098843 1_445
Rh3 Th1 2.722685 1_655
Rh3 Th1 2.722685 1_545
Rh3 Th1 2.722693 1_555
Rh3 Th0 2.959592 1_554
Rh3 Th0 2.959592 1_555
