# generated using pymatgen
data_CdHg4C6S6(Br2N3)2
_symmetry_space_group_name_H-M   'P 1'
_cell_length_a   15.24002789
_cell_length_b   12.39695364
_cell_length_c   10.00049776
_cell_angle_alpha   85.04045818
_cell_angle_beta   54.13516413
_cell_angle_gamma   40.82437769
_symmetry_Int_Tables_number   1
_chemical_formula_structural   CdHg4C6S6(Br2N3)2
_chemical_formula_sum   'Cd1 Hg4 C6 S6 Br4 N6'
_cell_volume   739.79234862
_cell_formula_units_Z   1
loop_
 _symmetry_equiv_pos_site_id
 _symmetry_equiv_pos_as_xyz
  1  'x, y, z'
loop_
 _atom_site_type_symbol
 _atom_site_label
 _atom_site_symmetry_multiplicity
 _atom_site_fract_x
 _atom_site_fract_y
 _atom_site_fract_z
 _atom_site_occupancy
  Cd  Cd0  1  0.01516900  0.98483100  0.98483100  1
  Hg  Hg0  1  0.18199400  0.43563100  0.52237800  1
  Hg  Hg1  1  0.56436900  0.81800600  0.14000400  1
  Hg  Hg2  1  0.47762200  0.14000400  0.81800600  1
  Hg  Hg3  1  0.85999600  0.52237800  0.43563100  1
  C  C0  1  0.67458400  0.47440500  0.07233400  1
  C  C1  1  0.52559500  0.32541600  0.22132300  1
  C  C2  1  0.77867700  0.07233400  0.47440500  1
  C  C3  1  0.24150200  0.53385300  0.75849800  1
  C  C4  1  0.46614700  0.75849800  0.53385300  1
  C  C5  1  0.92766600  0.22132300  0.32541600  1
  S  S0  1  0.46151600  0.72542300  0.16602000  1
  S  S1  1  0.27457700  0.53848400  0.35295900  1
  S  S2  1  0.83398000  0.35295900  0.53848400  1
  S  S3  1  0.30436200  0.35054500  0.69563800  1
  S  S4  1  0.64945500  0.69563800  0.35054500  1
  S  S5  1  0.64704100  0.16602000  0.72542300  1
  Br  Br0  1  0.39216700  0.01268000  0.91502100  1
  Br  Br1  1  0.08497900  0.31986800  0.60783300  1
  Br  Br2  1  0.98732000  0.60783300  0.31986800  1
  Br  Br3  1  0.68013200  0.91502100  0.01268000  1
  N  N0  1  0.19772800  0.66380200  0.80227200  1
  N  N1  1  0.82260500  0.29527100  0.00586500  1
  N  N2  1  0.99413500  0.12374200  0.17739500  1
  N  N3  1  0.87625800  0.00586500  0.29527100  1
  N  N4  1  0.33619800  0.80227200  0.66380200  1
  N  N5  1  0.70472900  0.17739500  0.12374200  1
loop_
_geom_bond_atom_site_label_1
_geom_bond_atom_site_label_2
_geom_bond_distance
_geom_bond_site_symmetry_2
Cd0 N4 2.336519 1_555
Cd0 N0 2.336519 1_555
Cd0 N5 2.406511 1_466
Cd0 N1 2.406516 1_466
Cd0 N3 2.406517 1_466
Cd0 N2 2.406524 1_466
Hg0 S1 2.456682 1_555
Hg0 S3 2.843554 1_555
Hg1 S0 2.456686 1_555
Hg1 S4 2.843544 1_555
Hg2 S5 2.456671 1_555
Hg2 S3 2.843552 1_555
Hg3 S2 2.456674 1_555
Hg3 S4 2.843543 1_555
C0 N1 1.174210 1_555
C0 S0 1.658920 1_555
C1 N5 1.174214 1_555
C1 S1 1.658920 1_555
C2 N3 1.174212 1_555
C2 S5 1.658920 1_555
C3 N0 1.176925 1_555
C3 S3 1.650337 1_555
C4 N4 1.176925 1_555
C4 S4 1.650337 1_555
C5 N2 1.174204 1_555
C5 S2 1.658920 1_555
Br0 Hg2 2.548445 1_555
Br0 Hg3 3.187834 1_545
Br1 Hg0 2.548433 1_555
Br1 Hg1 3.187830 1_545
Br2 Hg3 2.548445 1_555
Br2 Hg2 3.187830 1_654
Br3 Hg1 2.548433 1_555
Br3 Hg0 3.187832 1_654
