# generated using pymatgen
data_U3NbSb5
_symmetry_space_group_name_H-M   'P 1'
_cell_length_a   9.28017493
_cell_length_b   9.27996205
_cell_length_c   6.20162369
_cell_angle_alpha   90.00040095
_cell_angle_beta   89.99992142
_cell_angle_gamma   120.00307615
_symmetry_Int_Tables_number   1
_chemical_formula_structural   U3NbSb5
_chemical_formula_sum   'U6 Nb2 Sb10'
_cell_volume   462.51406264
_cell_formula_units_Z   2
loop_
 _symmetry_equiv_pos_site_id
 _symmetry_equiv_pos_as_xyz
  1  'x, y, z'
loop_
 _atom_site_type_symbol
 _atom_site_label
 _atom_site_symmetry_multiplicity
 _atom_site_fract_x
 _atom_site_fract_y
 _atom_site_fract_z
 _atom_site_occupancy
  U  U0  1  0.00000879  0.61408906  0.25295120  1
  U  U1  1  -0.00001399  0.38588513  0.74704010  1
  U  U2  1  0.38591868  0.00000129  0.74705946  1
  U  U3  1  0.38591103  0.38589696  0.25303066  1
  U  U4  1  0.61409620  -0.00000391  0.25296022  1
  U  U5  1  0.61407368  0.61409070  0.74697202  1
  Nb  Nb0  1  0.00001146  0.00001110  0.00001726  1
  Nb  Nb1  1  -0.00000247  0.00004580  0.49998898  1
  Sb  Sb0  1  0.66661478  0.33329287  0.00000815  1
  Sb  Sb1  1  0.73656519  -0.00002672  0.74937351  1
  Sb  Sb2  1  0.33335391  0.66670899  0.50000443  1
  Sb  Sb3  1  0.26339166  0.26335282  0.74937634  1
  Sb  Sb4  1  -0.00000690  0.73661317  0.74935851  1
  Sb  Sb5  1  0.26342574  0.00000558  0.25065290  1
  Sb  Sb6  1  0.66662991  0.33327474  0.50001171  1
  Sb  Sb7  1  0.73662360  0.73665179  0.25062242  1
  Sb  Sb8  1  0.33338281  0.66670325  -0.00000377  1
  Sb  Sb9  1  0.00001692  0.26340537  0.25057590  1
loop_
_geom_bond_atom_site_label_1
_geom_bond_atom_site_label_2
_geom_bond_distance
_geom_bond_site_symmetry_2
Nb0 Sb7 2.896316 1_445
Nb0 Sb3 2.896336 1_554
Nb0 Sb9 2.896357 1_555
Nb0 Sb4 2.896668 1_544
Nb0 Sb5 2.896871 1_555
Nb0 Sb1 2.896979 1_454
Nb1 Sb3 2.892075 1_555
Nb1 Sb9 2.892243 1_555
Nb1 Sb7 2.892268 1_445
Nb1 Sb1 2.892548 1_455
Nb1 Sb4 2.892731 1_545
Nb1 Sb5 2.892797 1_555
Sb0 Sb6 3.100790 1_554
Sb0 Sb6 3.100834 1_555
Sb0 U2 3.279477 1_554
Sb0 U4 3.279848 1_555
Sb0 U3 3.279971 1_555
Sb0 U0 3.280300 1_655
Sb0 U1 3.280329 1_654
Sb0 U5 3.280417 1_554
Sb1 U5 3.169348 1_545
Sb1 U1 3.169553 1_655
Sb1 U2 3.254223 1_555
Sb1 U4 3.281698 1_555
Sb1 U4 3.323464 1_556
Sb2 Sb8 3.100761 1_556
Sb2 Sb8 3.100863 1_555
Sb2 U4 3.262253 1_565
Sb2 U2 3.262319 1_565
Sb2 U5 3.262382 1_555
Sb2 U0 3.262651 1_555
Sb2 U3 3.262778 1_555
Sb2 U1 3.262903 1_555
Sb3 U2 3.169367 1_555
Sb3 U1 3.169916 1_555
Sb3 U5 3.254495 1_555
Sb3 U3 3.281452 1_555
Sb3 U3 3.323994 1_556
Sb4 U2 3.169634 1_565
Sb4 U5 3.169697 1_455
Sb4 U1 3.254742 1_555
Sb4 U0 3.281811 1_555
Sb4 U0 3.323663 1_556
Sb5 U3 3.169437 1_555
Sb5 U0 3.169577 1_545
Sb5 U4 3.254359 1_555
Sb5 U2 3.281706 1_555
Sb5 U2 3.323550 1_554
Sb6 U2 3.262101 1_555
Sb6 U4 3.262291 1_555
Sb6 U3 3.262434 1_555
Sb6 U1 3.262697 1_655
Sb6 U5 3.262767 1_555
Sb6 U0 3.263003 1_655
Sb7 U4 3.169307 1_565
Sb7 U0 3.169945 1_655
Sb7 U3 3.254716 1_555
Sb7 U5 3.281551 1_555
Sb7 U5 3.324047 1_554
Sb8 U4 3.279580 1_565
Sb8 U2 3.279761 1_564
Sb8 U5 3.279915 1_554
Sb8 U0 3.280247 1_555
Sb8 U3 3.280415 1_555
Sb8 U1 3.280419 1_554
Sb9 U3 3.169535 1_555
Sb9 U4 3.169644 1_455
Sb9 U0 3.254402 1_555
Sb9 U1 3.282024 1_555
Sb9 U1 3.323215 1_554
