# generated using pymatgen
data_Ba3NaRu2O9
_symmetry_space_group_name_H-M   'P 1'
_cell_length_a   5.94960296
_cell_length_b   5.94960296
_cell_length_c   14.72319900
_cell_angle_alpha   90.00000000
_cell_angle_beta   90.00000000
_cell_angle_gamma   119.99998838
_symmetry_Int_Tables_number   1
_chemical_formula_structural   Ba3NaRu2O9
_chemical_formula_sum   'Ba6 Na2 Ru4 O18'
_cell_volume   451.34520506
_cell_formula_units_Z   2
loop_
 _symmetry_equiv_pos_site_id
 _symmetry_equiv_pos_as_xyz
  1  'x, y, z'
loop_
 _atom_site_type_symbol
 _atom_site_label
 _atom_site_symmetry_multiplicity
 _atom_site_fract_x
 _atom_site_fract_y
 _atom_site_fract_z
 _atom_site_occupancy
  Ba  Ba0  1  0.66666700  0.33333300  0.09225000  1
  Ba  Ba1  1  0.33333300  0.66666700  0.59225000  1
  Ba  Ba2  1  0.33333300  0.66666700  0.90775000  1
  Ba  Ba3  1  0.66666700  0.33333300  0.40775000  1
  Ba  Ba4  1  0.00000000  0.00000000  0.25000000  1
  Ba  Ba5  1  0.00000000  0.00000000  0.75000000  1
  Na  Na0  1  0.00000000  0.00000000  0.00000000  1
  Na  Na1  1  0.00000000  0.00000000  0.50000000  1
  Ru  Ru0  1  0.33333300  0.66666700  0.15511600  1
  Ru  Ru1  1  0.66666700  0.33333300  0.65511600  1
  Ru  Ru2  1  0.66666700  0.33333300  0.84488400  1
  Ru  Ru3  1  0.33333300  0.66666700  0.34488400  1
  O  O0  1  0.17722400  0.35444900  0.09006800  1
  O  O1  1  0.82277600  0.17722400  0.59006800  1
  O  O2  1  0.35444900  0.17722400  0.59006800  1
  O  O3  1  0.64555100  0.82277600  0.09006800  1
  O  O4  1  0.17722400  0.82277600  0.09006800  1
  O  O5  1  0.82277600  0.64555100  0.90993200  1
  O  O6  1  0.82277600  0.17722400  0.90993200  1
  O  O7  1  0.82277600  0.64555100  0.59006800  1
  O  O8  1  0.35444900  0.17722400  0.90993200  1
  O  O9  1  0.64555100  0.82277600  0.40993200  1
  O  O10  1  0.17722400  0.35444900  0.40993200  1
  O  O11  1  0.17722400  0.82277600  0.40993200  1
  O  O12  1  0.03431500  0.51715800  0.25000000  1
  O  O13  1  0.51715800  0.03431500  0.75000000  1
  O  O14  1  0.51715800  0.48284200  0.75000000  1
  O  O15  1  0.48284200  0.51715800  0.25000000  1
  O  O16  1  0.48284200  0.96568500  0.25000000  1
  O  O17  1  0.96568500  0.48284200  0.75000000  1
loop_
_geom_bond_atom_site_label_1
_geom_bond_atom_site_label_2
_geom_bond_distance
_geom_bond_site_symmetry_2
Ba0 O3 2.976958 1_545
Ba0 O0 2.976958 1_655
Ba0 O4 2.976964 1_655
Ba0 O4 2.976964 1_545
Ba0 O3 2.976970 1_555
Ba0 O0 2.976970 1_555
Ba0 O16 2.997133 1_545
Ba0 O12 2.997133 1_655
Ba0 O15 2.997139 1_555
Ba0 O6 3.129444 1_554
Ba0 O5 3.129445 1_554
Ba0 O8 3.129445 1_554
Ba1 O7 2.976958 1_455
Ba1 O2 2.976958 1_565
Ba1 O1 2.976964 1_565
Ba1 O1 2.976964 1_455
Ba1 O7 2.976970 1_555
Ba1 O2 2.976970 1_555
Ba1 O17 2.997133 1_455
Ba1 O13 2.997133 1_565
Ba1 O14 2.997139 1_555
Ba1 O11 3.129444 1_555
Ba1 O10 3.129445 1_555
Ba1 O9 3.129445 1_555
Ba2 O8 2.976958 1_565
Ba2 O5 2.976958 1_455
Ba2 O6 2.976964 1_455
Ba2 O6 2.976964 1_565
Ba2 O5 2.976970 1_555
Ba2 O8 2.976970 1_555
Ba2 O17 2.997133 1_455
Ba2 O13 2.997133 1_565
Ba2 O14 2.997139 1_555
Ba2 O4 3.129444 1_556
Ba2 O3 3.129445 1_556
Ba2 O0 3.129445 1_556
Ba3 O10 2.976958 1_655
Ba3 O9 2.976958 1_545
Ba3 O11 2.976964 1_655
Ba3 O11 2.976964 1_545
Ba3 O9 2.976970 1_555
Ba3 O10 2.976970 1_555
Ba3 O16 2.997133 1_545
Ba3 O12 2.997133 1_655
Ba3 O15 2.997139 1_555
Ba3 O1 3.129444 1_555
Ba3 O7 3.129445 1_555
Ba3 O2 3.129445 1_555
Ba4 O4 2.979936 1_545
Ba4 O11 2.979936 1_545
Ba4 O0 2.979939 1_555
Ba4 O10 2.979939 1_555
Ba4 O9 2.979939 1_445
Ba4 O3 2.979939 1_445
Ba4 O16 2.980048 1_545
Ba4 O12 2.980048 1_545
Ba4 O15 2.980052 1_555
Ba4 O15 2.980052 1_445
Ba4 O16 2.980054 1_445
Ba4 O12 2.980054 1_555
Ba5 O6 2.979936 1_455
Ba5 O1 2.979936 1_455
Ba5 O8 2.979939 1_555
Ba5 O2 2.979939 1_555
Ba5 O5 2.979939 1_445
Ba5 O7 2.979939 1_445
Ba5 O13 2.980048 1_455
Ba5 O17 2.980048 1_455
Ba5 O14 2.980052 1_445
Ba5 O14 2.980052 1_555
Ba5 O17 2.980054 1_445
Ba5 O13 2.980054 1_555
Na0 O4 2.256960 1_545
Na0 O6 2.256960 1_454
Na0 O0 2.256964 1_555
Na0 O3 2.256964 1_445
Na0 O5 2.256964 1_444
Na0 O8 2.256964 1_554
Na1 O11 2.256960 1_545
Na1 O1 2.256960 1_455
Na1 O10 2.256964 1_555
Na1 O9 2.256964 1_445
Na1 O7 2.256964 1_445
Na1 O2 2.256964 1_555
O0 Ru0 1.872205 1_555
O1 Ru1 1.872205 1_555
O2 Ru1 1.872205 1_555
O3 Ru0 1.872205 1_555
O4 Ru0 1.872205 1_555
O5 Ru2 1.872205 1_555
O6 Ru2 1.872205 1_555
O7 Ru1 1.872205 1_555
O8 Ru2 1.872205 1_555
O9 Ru3 1.872205 1_555
O10 Ru3 1.872205 1_555
O11 Ru3 1.872205 1_555
O12 Ru0 2.079743 1_555
O12 Ru3 2.079743 1_555
O13 Ru1 2.079743 1_555
O13 Ru2 2.079743 1_555
O14 Ru1 2.079743 1_555
O14 Ru2 2.079743 1_555
O15 Ru0 2.079743 1_555
O15 Ru3 2.079743 1_555
O16 Ru0 2.079743 1_555
O16 Ru3 2.079743 1_555
O17 Ru1 2.079743 1_555
O17 Ru2 2.079743 1_555
