# generated using pymatgen
data_KNaMg2Si4(O5F)2
_symmetry_space_group_name_H-M   'P 1'
_cell_length_a   5.30965762
_cell_length_b   5.30965762
_cell_length_c   10.42862954
_cell_angle_alpha   84.30754394
_cell_angle_beta   84.30754394
_cell_angle_gamma   119.49131387
_symmetry_Int_Tables_number   1
_chemical_formula_structural   KNaMg2Si4(O5F)2
_chemical_formula_sum   'K1 Na1 Mg2 Si4 O10 F2'
_cell_volume   250.90602344
_cell_formula_units_Z   1
loop_
 _symmetry_equiv_pos_site_id
 _symmetry_equiv_pos_as_xyz
  1  'x, y, z'
loop_
 _atom_site_type_symbol
 _atom_site_label
 _atom_site_symmetry_multiplicity
 _atom_site_fract_x
 _atom_site_fract_y
 _atom_site_fract_z
 _atom_site_occupancy
  K  K0  1  0.50000000  0.50000000  0.00000000  1
  Na  Na0  1  0.00000000  0.00000000  0.50000000  1
  Mg  Mg0  1  0.33401800  0.66598200  0.50000000  1
  Mg  Mg1  1  0.66598200  0.33401800  0.50000000  1
  Si  Si0  1  0.91104000  0.25122700  0.77260500  1
  Si  Si1  1  0.74877300  0.08896000  0.22739500  1
  Si  Si2  1  0.25122700  0.91104000  0.77260500  1
  Si  Si3  1  0.08896000  0.74877300  0.22739500  1
  O  O0  1  0.32239700  0.95895900  0.61653800  1
  O  O1  1  0.05195800  0.05195800  0.82910600  1
  O  O2  1  0.06067800  0.55551100  0.83874200  1
  O  O3  1  0.93932200  0.44448900  0.16125800  1
  O  O4  1  0.67760300  0.04104100  0.38346200  1
  O  O5  1  0.94804200  0.94804200  0.17089400  1
  O  O6  1  0.95895900  0.32239700  0.61653800  1
  O  O7  1  0.44448900  0.93932200  0.16125800  1
  O  O8  1  0.04104100  0.67760300  0.38346200  1
  O  O9  1  0.55551100  0.06067800  0.83874200  1
  F  F0  1  0.40525900  0.40525900  0.39259500  1
  F  F1  1  0.59474100  0.59474100  0.60740500  1
loop_
_geom_bond_atom_site_label_1
_geom_bond_atom_site_label_2
_geom_bond_distance
_geom_bond_site_symmetry_2
K0 O7 3.116576 1_555
K0 O2 3.116576 1_554
K0 O9 3.116576 1_554
K0 O3 3.116576 1_555
K0 O2 3.134030 1_654
K0 O9 3.134030 1_564
K0 O7 3.134030 1_545
K0 O3 3.134030 1_455
K0 O5 3.134547 1_445
K0 O1 3.134547 1_664
K0 O5 3.256531 1_555
K0 O1 3.256531 1_554
Na0 O4 2.276464 1_455
Na0 O0 2.276464 1_545
Na0 O6 2.276464 1_455
Na0 O8 2.276464 1_545
Mg0 O6 2.067371 1_455
Mg0 O4 2.067371 1_565
Mg0 O8 2.086967 1_555
Mg0 O0 2.086967 1_555
Mg1 O0 2.067371 1_545
Mg1 O8 2.067371 1_655
Mg1 O4 2.086967 1_555
Mg1 O6 2.086967 1_555
O0 Si2 1.599275 1_555
O1 Si2 1.664255 1_545
O1 Si0 1.664255 1_455
O2 Si0 1.668286 1_455
O2 Si2 1.669044 1_555
O3 Si3 1.668286 1_655
O3 Si1 1.669044 1_555
O4 Si1 1.599275 1_555
O5 Si3 1.664255 1_655
O5 Si1 1.664255 1_565
O6 Si0 1.599275 1_555
O7 Si1 1.668286 1_565
O7 Si3 1.669044 1_555
O8 Si3 1.599275 1_555
O9 Si2 1.668286 1_545
O9 Si0 1.669044 1_555
F0 Mg0 2.013265 1_555
F0 Mg1 2.013265 1_555
F0 Na0 2.236048 1_555
F1 Mg0 2.013265 1_555
F1 Mg1 2.013265 1_555
F1 Na0 2.236048 1_665
