# generated using pymatgen
data_Ta3Bi7O18
_symmetry_space_group_name_H-M   'P 1'
_cell_length_a   16.74533072
_cell_length_b   16.74533072
_cell_length_c   6.71401782
_cell_angle_alpha   86.37297375
_cell_angle_beta   86.37297375
_cell_angle_gamma   26.52073050
_symmetry_Int_Tables_number   1
_chemical_formula_structural   Ta3Bi7O18
_chemical_formula_sum   'Ta6 Bi14 O36'
_cell_volume   838.86713631
_cell_formula_units_Z   2
loop_
 _symmetry_equiv_pos_site_id
 _symmetry_equiv_pos_as_xyz
  1  'x, y, z'
loop_
 _atom_site_type_symbol
 _atom_site_label
 _atom_site_symmetry_multiplicity
 _atom_site_fract_x
 _atom_site_fract_y
 _atom_site_fract_z
 _atom_site_occupancy
  Ta  Ta0  1  0.30633100  0.80562400  0.88274900  1
  Ta  Ta1  1  0.80562400  0.30633100  0.88274900  1
  Ta  Ta2  1  0.50000000  0.00000000  0.50000000  1
  Ta  Ta3  1  0.69366900  0.19437600  0.11725100  1
  Ta  Ta4  1  0.00000000  0.50000000  0.50000000  1
  Ta  Ta5  1  0.19437600  0.69366900  0.11725100  1
  Bi  Bi0  1  0.74796900  0.74796900  0.97382400  1
  Bi  Bi1  1  0.44849100  0.44849100  0.65187700  1
  Bi  Bi2  1  0.60409900  0.10530600  0.83632000  1
  Bi  Bi3  1  0.39590100  0.89469400  0.16368000  1
  Bi  Bi4  1  0.10530600  0.60409900  0.83632000  1
  Bi  Bi5  1  0.64665400  0.64665400  0.68254000  1
  Bi  Bi6  1  0.25203100  0.25203100  0.02617600  1
  Bi  Bi7  1  0.89469400  0.39590100  0.16368000  1
  Bi  Bi8  1  0.35334600  0.35334600  0.31746000  1
  Bi  Bi9  1  0.94367800  0.94367800  0.59253000  1
  Bi  Bi10  1  0.83836400  0.83836400  0.31131700  1
  Bi  Bi11  1  0.05632200  0.05632200  0.40747000  1
  Bi  Bi12  1  0.16163600  0.16163600  0.68868300  1
  Bi  Bi13  1  0.55150900  0.55150900  0.34812300  1
  O  O0  1  0.87951400  0.87951400  0.57706600  1
  O  O1  1  0.81816100  0.81816100  0.98230800  1
  O  O2  1  0.85860600  0.28428400  0.18556400  1
  O  O3  1  0.65023400  0.24987000  0.39381700  1
  O  O4  1  0.04784800  0.04784800  0.83070100  1
  O  O5  1  0.18183900  0.18183900  0.01769200  1
  O  O6  1  0.34976600  0.75013000  0.60618300  1
  O  O7  1  0.67036500  0.09235300  0.14530000  1
  O  O8  1  0.43129600  0.43129600  0.05996400  1
  O  O9  1  0.67073500  0.67073500  0.99380300  1
  O  O10  1  0.71571600  0.14139400  0.81443600  1
  O  O11  1  0.75013000  0.34976600  0.60618300  1
  O  O12  1  0.10231600  0.51845900  0.42824000  1
  O  O13  1  0.94527600  0.53592200  0.21357400  1
  O  O14  1  0.89768400  0.48154100  0.57176000  1
  O  O15  1  0.38338500  0.38338500  0.65532400  1
  O  O16  1  0.76409200  0.76409200  0.54096000  1
  O  O17  1  0.53592200  0.94527600  0.21357400  1
  O  O18  1  0.46407800  0.05472400  0.78642600  1
  O  O19  1  0.05472400  0.46407800  0.78642600  1
  O  O20  1  0.61661500  0.61661500  0.34467600  1
  O  O21  1  0.14139400  0.71571600  0.81443600  1
  O  O22  1  0.24987000  0.65023400  0.39381700  1
  O  O23  1  0.23590800  0.23590800  0.45904000  1
  O  O24  1  0.32963500  0.90764700  0.85470000  1
  O  O25  1  0.27940900  0.72059100  0.00000000  1
  O  O26  1  0.51845900  0.10231600  0.42824000  1
  O  O27  1  0.72059100  0.27940900  0.00000000  1
  O  O28  1  0.09235300  0.67036500  0.14530000  1
  O  O29  1  0.90764700  0.32963500  0.85470000  1
  O  O30  1  0.95215200  0.95215200  0.16929900  1
  O  O31  1  0.28428400  0.85860600  0.18556400  1
  O  O32  1  0.12048600  0.12048600  0.42293400  1
  O  O33  1  0.32926500  0.32926500  0.00619700  1
  O  O34  1  0.56870400  0.56870400  0.94003600  1
  O  O35  1  0.48154100  0.89768400  0.57176000  1
loop_
_geom_bond_atom_site_label_1
_geom_bond_atom_site_label_2
_geom_bond_distance
_geom_bond_site_symmetry_2
Bi0 O13 2.251829 1_556
Bi0 O17 2.251829 1_556
Bi0 O1 2.292507 1_555
Bi0 O9 2.512503 1_555
Bi0 O18 2.609177 1_565
Bi0 O19 2.609177 1_655
Bi1 O15 2.120929 1_555
Bi1 O3 2.314715 1_555
Bi1 O22 2.314715 1_555
Bi1 O10 2.527371 1_555
Bi1 O21 2.527371 1_555
Bi1 O8 2.760728 1_556
Bi2 O7 2.320669 1_556
Bi2 O33 2.352875 1_556
Bi2 O10 2.419805 1_555
Bi2 O15 2.423581 1_555
Bi2 O1 2.435973 1_545
Bi2 O0 2.684602 1_545
Bi3 O24 2.320669 1_554
Bi3 O9 2.352875 1_554
Bi3 O31 2.419805 1_555
Bi3 O20 2.423581 1_555
Bi3 O5 2.435973 1_565
Bi3 O32 2.684602 1_565
Bi4 O28 2.320669 1_556
Bi4 O33 2.352875 1_556
Bi4 O21 2.419805 1_555
Bi4 O15 2.423581 1_555
Bi4 O1 2.435973 1_455
Bi4 O0 2.684602 1_455
Bi5 O35 2.221188 1_555
Bi5 O14 2.221188 1_555
Bi5 O9 2.279653 1_555
Bi5 O20 2.528503 1_555
Bi5 O24 2.638509 1_555
Bi5 O29 2.638509 1_555
Bi6 O18 2.251829 1_554
Bi6 O19 2.251829 1_554
Bi6 O5 2.292507 1_555
Bi6 O33 2.512503 1_555
Bi6 O17 2.609177 1_545
Bi6 O13 2.609177 1_455
Bi7 O29 2.320669 1_554
Bi7 O9 2.352875 1_554
Bi7 O2 2.419805 1_555
Bi7 O20 2.423581 1_555
Bi7 O5 2.435973 1_655
Bi7 O32 2.684602 1_655
Bi8 O12 2.221188 1_555
Bi8 O26 2.221188 1_555
Bi8 O33 2.279653 1_555
Bi8 O15 2.528503 1_555
Bi8 O28 2.638509 1_555
Bi8 O7 2.638509 1_555
Bi9 O0 2.100905 1_555
Bi9 O10 2.245127 1_565
Bi9 O21 2.245127 1_655
Bi9 O3 2.663048 1_565
Bi9 O22 2.663048 1_655
Bi9 O30 2.837050 1_555
Bi10 O0 2.300865 1_555
Bi10 O1 2.345715 1_554
Bi10 O28 2.372935 1_655
Bi10 O7 2.372935 1_565
Bi10 O12 2.526674 1_655
Bi10 O26 2.526674 1_565
Bi10 O16 2.784549 1_555
Bi11 O32 2.100905 1_555
Bi11 O31 2.245127 1_545
Bi11 O2 2.245127 1_455
Bi11 O6 2.663048 1_545
Bi11 O11 2.663048 1_455
Bi11 O4 2.837050 1_555
Bi12 O32 2.300865 1_555
Bi12 O5 2.345715 1_556
Bi12 O29 2.372935 1_455
Bi12 O24 2.372935 1_545
Bi12 O35 2.526674 1_545
Bi12 O14 2.526674 1_455
Bi12 O23 2.784549 1_555
Bi13 O20 2.120929 1_555
Bi13 O11 2.314715 1_555
Bi13 O6 2.314715 1_555
Bi13 O31 2.527371 1_555
Bi13 O2 2.527371 1_555
Bi13 O34 2.760728 1_554
O2 Ta1 2.145703 1_554
O3 Ta3 1.917922 1_555
O4 Ta0 1.975629 1_545
O4 Ta1 1.975629 1_455
O6 Ta0 1.917922 1_555
O7 Ta3 2.061420 1_555
O8 Ta3 2.004657 1_555
O8 Ta5 2.004657 1_555
O10 Ta3 2.145703 1_556
O11 Ta1 1.917922 1_555
O12 Ta4 2.021772 1_555
O13 Ta4 1.997482 1_655
O14 Ta4 2.021772 1_655
O16 Ta4 1.997839 1_655
O16 Ta2 1.997839 1_565
O17 Ta2 1.997482 1_565
O18 Ta2 1.997482 1_555
O19 Ta4 1.997482 1_555
O21 Ta5 2.145703 1_556
O22 Ta5 1.917922 1_555
O23 Ta4 1.997839 1_555
O23 Ta2 1.997839 1_555
O24 Ta0 2.061420 1_555
O25 Ta5 1.952560 1_555
O25 Ta0 1.952560 1_554
O26 Ta2 2.021772 1_555
O27 Ta3 1.952560 1_555
O27 Ta1 1.952560 1_554
O28 Ta5 2.061420 1_555
O29 Ta1 2.061420 1_555
O30 Ta3 1.975629 1_565
O30 Ta5 1.975629 1_655
O31 Ta0 2.145703 1_554
O34 Ta1 2.004657 1_555
O34 Ta0 2.004657 1_555
O35 Ta2 2.021772 1_565
