# generated using pymatgen
data_Cu5Sn4
_symmetry_space_group_name_H-M   'P 1'
_cell_length_a   7.33147997
_cell_length_b   7.33147997
_cell_length_c   10.13205521
_cell_angle_alpha   89.43120675
_cell_angle_beta   89.43120675
_cell_angle_gamma   59.87633436
_symmetry_Int_Tables_number   1
_chemical_formula_structural   Cu5Sn4
_chemical_formula_sum   'Cu15 Sn12'
_cell_volume   471.02118936
_cell_formula_units_Z   3
loop_
 _symmetry_equiv_pos_site_id
 _symmetry_equiv_pos_as_xyz
  1  'x, y, z'
loop_
 _atom_site_type_symbol
 _atom_site_label
 _atom_site_symmetry_multiplicity
 _atom_site_fract_x
 _atom_site_fract_y
 _atom_site_fract_z
 _atom_site_occupancy
  Cu  Cu0  1  0.67931593  0.32068407  -0.00000000  1
  Cu  Cu1  1  0.02292861  0.99256236  0.37712476  1
  Cu  Cu2  1  0.00743764  0.97707139  0.62287524  1
  Cu  Cu3  1  0.00534107  0.00913348  0.12625954  1
  Cu  Cu4  1  0.99086652  0.99465893  0.87374046  1
  Cu  Cu5  1  0.02626125  0.31410042  0.25067953  1
  Cu  Cu6  1  0.68589958  0.97373875  0.74932047  1
  Cu  Cu7  1  0.33834630  0.31347044  0.37694635  1
  Cu  Cu8  1  0.68652956  0.66165370  0.62305365  1
  Cu  Cu9  1  0.35303497  0.31559809  0.12580018  1
  Cu  Cu10  1  0.68440191  0.64696503  0.87419982  1
  Cu  Cu11  1  0.70145002  0.61962735  0.12643418  1
  Cu  Cu12  1  0.38037265  0.29854998  0.87356582  1
  Cu  Cu13  1  0.70244739  0.63349120  0.37719874  1
  Cu  Cu14  1  0.36650880  0.29755261  0.62280126  1
  Sn  Sn0  1  0.32301070  0.67698930  -0.00000000  1
  Sn  Sn1  1  0.34996636  0.65003364  0.50000000  1
  Sn  Sn2  1  0.37721397  0.95140127  0.24840700  1
  Sn  Sn3  1  0.04859873  0.62278603  0.75159300  1
  Sn  Sn4  1  0.68573717  0.95688732  0.01926453  1
  Sn  Sn5  1  0.04311268  0.31426283  0.98073547  1
  Sn  Sn6  1  0.68740540  0.97574099  0.48013517  1
  Sn  Sn7  1  0.02425901  0.31259460  0.51986483  1
  Sn  Sn8  1  0.66179808  0.32007630  0.26924177  1
  Sn  Sn9  1  0.67992370  0.33820192  0.73075823  1
  Sn  Sn10  1  0.02672906  0.67119906  0.24894895  1
  Sn  Sn11  1  0.32880094  0.97327094  0.75105105  1
loop_
_geom_bond_atom_site_label_1
_geom_bond_atom_site_label_2
_geom_bond_distance
_geom_bond_site_symmetry_2
Cu0 Sn0 2.607360 1_555
Cu0 Cu12 2.624459 1_554
Cu0 Cu11 2.624459 1_555
Cu0 Sn5 2.649135 1_654
Cu0 Sn4 2.649135 1_545
Cu0 Cu4 2.662652 1_544
Cu0 Cu3 2.662652 1_655
Cu0 Cu9 2.715940 1_555
Cu0 Cu10 2.715940 1_554
Cu0 Sn9 2.729785 1_554
Cu0 Sn8 2.729785 1_555
Cu1 Cu2 2.495476 1_555
Cu1 Cu3 2.544933 1_565
Cu1 Cu5 2.682586 1_565
Cu1 Sn10 2.689341 1_555
Cu1 Sn6 2.721493 1_455
Cu1 Sn1 2.749309 1_555
Cu1 Sn8 2.755816 1_465
Cu1 Sn7 2.772639 1_565
Cu1 Sn2 2.773519 1_555
Cu2 Cu4 2.544933 1_455
Cu2 Cu6 2.682586 1_455
Cu2 Sn11 2.689341 1_555
Cu2 Sn7 2.721493 1_565
Cu2 Sn1 2.749309 1_555
Cu2 Sn9 2.755816 1_465
Cu2 Sn6 2.772639 1_455
Cu2 Sn3 2.773519 1_555
Cu3 Cu4 2.567240 1_444
Cu3 Cu5 2.648733 1_555
Cu3 Sn10 2.694615 1_545
Cu3 Sn0 2.701969 1_545
Cu3 Sn4 2.787823 1_445
Cu3 Sn5 2.793441 1_554
Cu3 Sn8 2.805227 1_455
Cu3 Sn2 2.835889 1_545
Cu4 Cu6 2.648733 1_555
Cu4 Sn11 2.694615 1_655
Cu4 Sn0 2.701969 1_656
Cu4 Sn5 2.787823 1_665
Cu4 Sn4 2.793441 1_556
Cu4 Sn9 2.805227 1_565
Cu4 Sn3 2.835889 1_655
Cu5 Sn2 2.612346 1_545
Cu5 Sn10 2.619669 1_555
Cu5 Cu7 2.630453 1_555
Cu5 Sn8 2.655155 1_455
Cu5 Cu9 2.703064 1_555
Cu5 Sn7 2.727237 1_555
Cu5 Sn5 2.736667 1_554
Cu6 Sn3 2.612346 1_655
Cu6 Sn11 2.619669 1_555
Cu6 Cu8 2.630453 1_555
Cu6 Sn9 2.655155 1_565
Cu6 Sn6 2.727237 1_555
Cu6 Sn4 2.736667 1_556
Cu7 Cu9 2.546060 1_555
Cu7 Sn8 2.622881 1_555
Cu7 Sn7 2.710702 1_555
Cu7 Sn6 2.722972 1_545
Cu7 Sn10 2.785122 1_555
Cu7 Sn1 2.815050 1_555
Cu7 Sn2 2.850574 1_545
Cu8 Sn9 2.622881 1_555
Cu8 Sn6 2.710702 1_555
Cu8 Sn7 2.722972 1_655
Cu8 Sn11 2.785122 1_555
Cu8 Sn1 2.815050 1_555
Cu8 Sn3 2.850574 1_655
Cu9 Sn8 2.716337 1_555
Cu9 Sn5 2.722532 1_554
Cu9 Sn4 2.756164 1_545
Cu9 Sn10 2.796777 1_555
Cu9 Sn0 2.836589 1_555
Cu9 Sn2 2.857884 1_545
Cu10 Cu8 2.546060 1_555
Cu10 Cu11 2.560894 1_556
Cu10 Cu6 2.703064 1_555
Cu10 Sn9 2.716337 1_555
Cu10 Sn4 2.722532 1_556
Cu10 Sn5 2.756164 1_655
Cu10 Sn11 2.796777 1_555
Cu10 Sn0 2.836589 1_556
Cu10 Sn3 2.857884 1_655
Cu11 Cu13 2.544030 1_555
Cu11 Cu5 2.631056 1_655
Cu11 Sn4 2.639968 1_555
Cu11 Sn2 2.700410 1_555
Cu11 Sn8 2.751472 1_555
Cu11 Sn5 2.798072 1_654
Cu11 Sn10 2.888624 1_655
Cu11 Sn0 2.899065 1_555
Cu12 Cu14 2.544030 1_555
Cu12 Cu9 2.560894 1_556
Cu12 Cu6 2.631056 1_545
Cu12 Sn5 2.639968 1_555
Cu12 Sn3 2.700410 1_555
Cu12 Sn9 2.751472 1_555
Cu12 Sn4 2.798072 1_546
Cu12 Sn11 2.888624 1_545
Cu12 Sn0 2.899065 1_556
Cu13 Cu8 2.498332 1_555
Cu13 Sn6 2.677297 1_555
Cu13 Cu5 2.679884 1_655
Cu13 Sn2 2.691446 1_555
Cu13 Sn8 2.703489 1_555
Cu13 Sn7 2.760381 1_655
Cu13 Sn1 2.804553 1_555
Cu13 Sn10 2.829936 1_655
Cu14 Cu7 2.498332 1_555
Cu14 Sn7 2.677297 1_555
Cu14 Cu6 2.679884 1_545
Cu14 Sn3 2.691446 1_555
Cu14 Sn9 2.703489 1_555
Cu14 Sn6 2.760381 1_545
Cu14 Sn1 2.804553 1_555
Cu14 Sn11 2.829936 1_545
Sn0 Sn10 3.326282 1_555
Sn0 Sn11 3.326282 1_554
Sn0 Sn2 3.385699 1_555
Sn0 Sn3 3.385699 1_554
Sn1 Sn8 3.316644 1_555
Sn1 Sn9 3.316644 1_555
Sn2 Sn4 3.239347 1_555
Sn3 Sn5 3.239347 1_555
Sn6 Sn8 3.224791 1_565
Sn7 Sn9 3.224791 1_455
Sn10 Sn4 3.288701 1_455
Sn11 Sn5 3.288701 1_565
