# generated using pymatgen
data_K2NiH12(C2O7)2
_symmetry_space_group_name_H-M   'P 1'
_cell_length_a   6.83107300
_cell_length_b   8.71140100
_cell_length_c   13.34211579
_cell_angle_alpha   62.49859340
_cell_angle_beta   90.00000000
_cell_angle_gamma   90.00000000
_symmetry_Int_Tables_number   1
_chemical_formula_structural   K2NiH12(C2O7)2
_chemical_formula_sum   'K4 Ni2 H24 C8 O28'
_cell_volume   704.24700877
_cell_formula_units_Z   2
loop_
 _symmetry_equiv_pos_site_id
 _symmetry_equiv_pos_as_xyz
  1  'x, y, z'
loop_
 _atom_site_type_symbol
 _atom_site_label
 _atom_site_symmetry_multiplicity
 _atom_site_fract_x
 _atom_site_fract_y
 _atom_site_fract_z
 _atom_site_occupancy
  K  K0  1  0.34500400  0.32010800  0.12081200  1
  K  K1  1  0.84500400  0.67989200  0.37918800  1
  K  K2  1  0.15499600  0.32010800  0.62081200  1
  K  K3  1  0.65499600  0.67989200  0.87918800  1
  Ni  Ni0  1  0.00000000  0.00000000  0.00000000  1
  Ni  Ni1  1  0.50000000  0.00000000  0.50000000  1
  H  H0  1  0.08551100  0.94468400  0.65681700  1
  H  H1  1  0.71545300  0.78940000  0.11778200  1
  H  H2  1  0.91151800  0.42941200  0.14803300  1
  H  H3  1  0.41448900  0.94468400  0.15681700  1
  H  H4  1  0.28454700  0.21060000  0.88221800  1
  H  H5  1  0.78454700  0.78940000  0.61778200  1
  H  H6  1  0.41151800  0.57058800  0.35196700  1
  H  H7  1  0.58848200  0.42941200  0.64803300  1
  H  H8  1  0.58551100  0.05531600  0.84318300  1
  H  H9  1  0.40979600  0.32216500  0.35146000  1
  H  H10  1  0.50886900  0.41470400  0.76489100  1
  H  H11  1  0.98657500  0.06052400  0.22905400  1
  H  H12  1  0.90979600  0.67783500  0.14854000  1
  H  H13  1  0.48657500  0.93947600  0.27094600  1
  H  H14  1  0.01342500  0.93947600  0.77094600  1
  H  H15  1  0.09020400  0.32216500  0.85146000  1
  H  H16  1  0.00886900  0.58529600  0.73510900  1
  H  H17  1  0.91448900  0.05531600  0.34318300  1
  H  H18  1  0.99113100  0.41470400  0.26489100  1
  H  H19  1  0.49113100  0.58529600  0.23510900  1
  H  H20  1  0.08848200  0.57058800  0.85196700  1
  H  H21  1  0.21545300  0.21060000  0.38221800  1
  H  H22  1  0.51342500  0.06052400  0.72905400  1
  H  H23  1  0.59020400  0.67783500  0.64854000  1
  C  C0  1  0.67999600  0.22796100  0.95560600  1
  C  C1  1  0.68842500  0.25595100  0.54165100  1
  C  C2  1  0.82000400  0.22796100  0.45560600  1
  C  C3  1  0.18842500  0.74404900  0.95834900  1
  C  C4  1  0.17999600  0.77203900  0.54439400  1
  C  C5  1  0.31157500  0.74404900  0.45834900  1
  C  C6  1  0.81157500  0.25595100  0.04165100  1
  C  C7  1  0.32000400  0.77203900  0.04439400  1
  O  O0  1  0.53362400  0.16263800  0.57469300  1
  O  O1  1  0.46637600  0.83736200  0.42530700  1
  O  O2  1  0.00517400  0.00037400  0.31155000  1
  O  O3  1  0.50296100  0.51698800  0.31823600  1
  O  O4  1  0.47204200  0.68103400  0.08227600  1
  O  O5  1  0.25996900  0.63231200  0.42883400  1
  O  O6  1  0.35447200  0.20691300  0.36434700  1
  O  O7  1  0.74003100  0.36768800  0.57116600  1
  O  O8  1  0.64552800  0.79308700  0.63565300  1
  O  O9  1  0.24003100  0.63231200  0.92883400  1
  O  O10  1  0.99703900  0.51698800  0.81823600  1
  O  O11  1  0.02795800  0.68103400  0.58227600  1
  O  O12  1  0.03362400  0.83736200  0.92530700  1
  O  O13  1  0.00296100  0.48301200  0.18176400  1
  O  O14  1  0.96637600  0.16263800  0.07469300  1
  O  O15  1  0.14552800  0.20691300  0.86434700  1
  O  O16  1  0.85447200  0.79308700  0.13565300  1
  O  O17  1  0.26066900  0.88657300  0.07185600  1
  O  O18  1  0.52795800  0.31896600  0.91772400  1
  O  O19  1  0.75996900  0.36768800  0.07116600  1
  O  O20  1  0.73933100  0.11342700  0.92814400  1
  O  O21  1  0.23933100  0.88657300  0.57185600  1
  O  O22  1  0.49482600  0.00037400  0.81155000  1
  O  O23  1  0.97204200  0.31896600  0.41772400  1
  O  O24  1  0.49703900  0.48301200  0.68176400  1
  O  O25  1  0.76066900  0.11342700  0.42814400  1
  O  O26  1  0.50517400  0.99962600  0.18845000  1
  O  O27  1  0.99482600  0.99962600  0.68845000  1
loop_
_geom_bond_atom_site_label_1
_geom_bond_atom_site_label_2
_geom_bond_distance
_geom_bond_site_symmetry_2
K0 O26 2.734795 1_545
K0 O9 2.835175 1_554
K0 O19 2.896941 1_555
K0 O6 2.928350 1_555
K0 O18 2.988141 1_554
K0 O13 3.033218 1_555
K0 O4 3.067617 1_555
K0 O14 3.119234 1_455
K1 O2 2.734795 1_665
K1 O7 2.835175 1_555
K1 O5 2.896941 1_655
K1 O16 2.928350 1_555
K1 O11 2.988141 1_655
K1 O3 3.033218 1_555
K1 O23 3.067617 1_555
K1 O1 3.119234 1_555
K2 O27 2.734795 1_445
K2 O5 2.835175 1_555
K2 O7 2.896941 1_455
K2 O15 2.928350 1_555
K2 O23 2.988141 1_455
K2 O24 3.033218 1_555
K2 O11 3.067617 1_555
K2 O0 3.119234 1_555
K3 O22 2.734795 1_565
K3 O19 2.835175 1_556
K3 O9 2.896941 1_555
K3 O8 2.928350 1_555
K3 O4 2.988141 1_556
K3 O10 3.033218 1_555
K3 O18 3.067617 1_555
K3 O12 3.119234 1_655
Ni0 O17 2.047270 1_545
Ni0 O20 2.047270 1_454
Ni0 O12 2.087393 1_544
Ni0 O14 2.087393 1_455
Ni0 O15 2.121343 1_554
Ni0 O16 2.121343 1_445
Ni1 O21 2.047270 1_545
Ni1 O25 2.047270 1_555
Ni1 O1 2.087393 1_545
Ni1 O0 2.087393 1_555
Ni1 O8 2.121343 1_545
Ni1 O6 2.121343 1_555
H0 O27 0.988693 1_455
H1 O16 0.983255 1_555
H2 O13 1.002411 1_655
H3 O26 0.988693 1_555
H4 O15 0.983255 1_555
H5 O8 0.983255 1_555
H6 O3 1.002411 1_555
H7 O24 1.002411 1_555
H8 O22 0.988693 1_555
H9 O6 1.010439 1_555
H10 O24 0.990552 1_555
H11 O2 0.984653 1_655
H12 O16 1.010439 1_555
H13 O26 0.984653 1_555
H14 O27 0.984653 1_455
H15 O15 1.010439 1_555
H16 O10 0.990552 1_455
H17 O2 0.988693 1_655
H18 O13 0.990552 1_655
H19 O3 0.990552 1_555
H20 O10 1.002411 1_455
H21 O6 0.983255 1_555
H22 O22 0.984653 1_555
H23 O8 1.010439 1_555
C0 O18 1.261965 1_555
C0 O20 1.277368 1_555
C1 O7 1.257311 1_555
C1 O0 1.281557 1_555
C2 O23 1.261965 1_555
C2 O25 1.277368 1_555
C3 O9 1.257311 1_555
C3 O12 1.281557 1_555
C4 O11 1.261965 1_555
C4 O21 1.277368 1_555
C5 O5 1.257311 1_555
C5 O1 1.281557 1_555
C6 O19 1.257311 1_555
C6 O14 1.281557 1_555
C7 O4 1.261965 1_555
C7 O17 1.277368 1_555
