# generated using pymatgen
data_EuTiAgO4
_symmetry_space_group_name_H-M   'P 1'
_cell_length_a   5.22888600
_cell_length_b   5.24580700
_cell_length_c   13.56216800
_cell_angle_alpha   90.00000000
_cell_angle_beta   90.00000000
_cell_angle_gamma   90.00000000
_symmetry_Int_Tables_number   1
_chemical_formula_structural   EuTiAgO4
_chemical_formula_sum   'Eu4 Ti4 Ag4 O16'
_cell_volume   372.00656280
_cell_formula_units_Z   4
loop_
 _symmetry_equiv_pos_site_id
 _symmetry_equiv_pos_as_xyz
  1  'x, y, z'
loop_
 _atom_site_type_symbol
 _atom_site_label
 _atom_site_symmetry_multiplicity
 _atom_site_fract_x
 _atom_site_fract_y
 _atom_site_fract_z
 _atom_site_occupancy
  Eu  Eu0  1  0.75000000  0.00737500  0.89680800  1
  Eu  Eu1  1  0.75000000  0.50737500  0.10319200  1
  Eu  Eu2  1  0.25000000  0.99262500  0.10319200  1
  Eu  Eu3  1  0.25000000  0.49262500  0.89680800  1
  Ti  Ti0  1  0.75000000  0.00234000  0.26624700  1
  Ti  Ti1  1  0.75000000  0.50234000  0.73375300  1
  Ti  Ti2  1  0.25000000  0.99766000  0.73375300  1
  Ti  Ti3  1  0.25000000  0.49766000  0.26624700  1
  Ag  Ag0  1  0.75000000  0.99086100  0.57351800  1
  Ag  Ag1  1  0.75000000  0.49086100  0.42648200  1
  Ag  Ag2  1  0.25000000  0.00913900  0.42648200  1
  Ag  Ag3  1  0.25000000  0.50913900  0.57351800  1
  O  O0  1  0.00000000  0.75000000  0.22901600  1
  O  O1  1  0.50000000  0.25000000  0.77098400  1
  O  O2  1  0.00000000  0.25000000  0.77098400  1
  O  O3  1  0.50000000  0.75000000  0.22901600  1
  O  O4  1  0.00000000  0.75000000  0.77714100  1
  O  O5  1  0.50000000  0.25000000  0.22285900  1
  O  O6  1  0.00000000  0.25000000  0.22285900  1
  O  O7  1  0.50000000  0.75000000  0.77714100  1
  O  O8  1  0.75000000  0.97981800  0.06548400  1
  O  O9  1  0.75000000  0.47981800  0.93451600  1
  O  O10  1  0.25000000  0.02018200  0.93451600  1
  O  O11  1  0.25000000  0.52018200  0.06548400  1
  O  O12  1  0.75000000  0.00882700  0.39902600  1
  O  O13  1  0.75000000  0.50882700  0.60097400  1
  O  O14  1  0.25000000  0.99117300  0.60097400  1
  O  O15  1  0.25000000  0.49117300  0.39902600  1
loop_
_geom_bond_atom_site_label_1
_geom_bond_atom_site_label_2
_geom_bond_distance
_geom_bond_site_symmetry_2
Eu0 O8 2.292175 1_546
Eu0 O7 2.483073 1_545
Eu0 O4 2.483073 1_645
Eu0 O1 2.498142 1_555
Eu0 O2 2.498142 1_655
Eu0 O9 2.530558 1_555
Eu0 O10 2.664837 1_555
Eu0 O10 2.664837 1_655
Eu0 O9 2.814317 1_545
Eu1 O9 2.292175 1_554
Eu1 O5 2.483073 1_555
Eu1 O6 2.483073 1_655
Eu1 O3 2.498142 1_555
Eu1 O0 2.498142 1_655
Eu1 O8 2.530558 1_555
Eu1 O11 2.664837 1_555
Eu1 O11 2.664837 1_655
Eu1 O8 2.814317 1_545
Eu2 O10 2.292175 1_564
Eu2 O5 2.483073 1_565
Eu2 O6 2.483073 1_565
Eu2 O3 2.498142 1_555
Eu2 O0 2.498142 1_555
Eu2 O11 2.530558 1_555
Eu2 O8 2.664837 1_555
Eu2 O8 2.664837 1_455
Eu2 O11 2.814317 1_565
Eu3 O11 2.292175 1_556
Eu3 O4 2.483073 1_555
Eu3 O7 2.483073 1_555
Eu3 O1 2.498142 1_555
Eu3 O2 2.498142 1_555
Eu3 O10 2.530558 1_555
Eu3 O9 2.664837 1_555
Eu3 O9 2.664837 1_455
Eu3 O10 2.814317 1_565
Ag0 O12 2.368366 1_565
Ag0 O13 2.555927 1_555
Ag0 O14 2.640827 1_655
Ag0 O14 2.640827 1_555
Ag0 O13 2.742546 1_565
Ag1 O13 2.368366 1_555
Ag1 O12 2.555927 1_555
Ag1 O15 2.640827 1_555
Ag1 O15 2.640827 1_655
Ag1 O12 2.742546 1_565
Ag2 O14 2.368366 1_545
Ag2 O15 2.555927 1_555
Ag2 O12 2.640827 1_555
Ag2 O12 2.640827 1_455
Ag2 O15 2.742546 1_545
Ag3 O15 2.368366 1_555
Ag3 O14 2.555927 1_555
Ag3 O13 2.640827 1_455
Ag3 O13 2.640827 1_555
Ag3 O14 2.742546 1_545
O0 Ti3 1.927703 1_555
O0 Ti0 1.927703 1_465
O1 Ti2 1.927703 1_545
O1 Ti1 1.927703 1_555
O2 Ti2 1.927703 1_545
O2 Ti1 1.927703 1_455
O3 Ti3 1.927703 1_555
O3 Ti0 1.927703 1_565
O4 Ti1 1.934669 1_455
O4 Ti2 1.934669 1_555
O5 Ti0 1.934669 1_555
O5 Ti3 1.934669 1_555
O6 Ti0 1.934669 1_455
O6 Ti3 1.934669 1_555
O7 Ti1 1.934669 1_555
O7 Ti2 1.934669 1_555
O8 Ti0 2.725344 1_565
O9 Ti1 2.725344 1_555
O10 Ti2 2.725344 1_545
O11 Ti3 2.725344 1_555
O12 Ti0 1.801093 1_555
O13 Ti1 1.801093 1_555
O14 Ti2 1.801093 1_555
O15 Ti3 1.801093 1_555
