# generated using pymatgen
data_Cs2ZnFe(CN)6
_symmetry_space_group_name_H-M   'P 1'
_cell_length_a   7.39086958
_cell_length_b   7.39086958
_cell_length_c   7.39086958
_cell_angle_alpha   60.00000000
_cell_angle_beta   60.00000000
_cell_angle_gamma   60.00000000
_symmetry_Int_Tables_number   1
_chemical_formula_structural   Cs2ZnFe(CN)6
_chemical_formula_sum   'Cs2 Zn1 Fe1 C6 N6'
_cell_volume   285.47732502
_cell_formula_units_Z   1
loop_
 _symmetry_equiv_pos_site_id
 _symmetry_equiv_pos_as_xyz
  1  'x, y, z'
loop_
 _atom_site_type_symbol
 _atom_site_label
 _atom_site_symmetry_multiplicity
 _atom_site_fract_x
 _atom_site_fract_y
 _atom_site_fract_z
 _atom_site_occupancy
  Cs  Cs0  1  0.25000000  0.25000000  0.25000000  1
  Cs  Cs1  1  0.75000000  0.75000000  0.75000000  1
  Zn  Zn0  1  0.50000000  0.50000000  0.50000000  1
  Fe  Fe0  1  0.00000000  0.00000000  0.00000000  1
  C  C0  1  0.81978200  0.18021800  0.81978200  1
  C  C1  1  0.18021800  0.81978200  0.81978200  1
  C  C2  1  0.18021800  0.81978200  0.18021800  1
  C  C3  1  0.18021800  0.18021800  0.81978200  1
  C  C4  1  0.81978200  0.18021800  0.18021800  1
  C  C5  1  0.81978200  0.81978200  0.18021800  1
  N  N0  1  0.70683200  0.29316800  0.29316800  1
  N  N1  1  0.70683200  0.70683200  0.29316800  1
  N  N2  1  0.29316800  0.29316800  0.70683200  1
  N  N3  1  0.70683200  0.29316800  0.70683200  1
  N  N4  1  0.29316800  0.70683200  0.29316800  1
  N  N5  1  0.29316800  0.70683200  0.70683200  1
loop_
_geom_bond_atom_site_label_1
_geom_bond_atom_site_label_2
_geom_bond_distance
_geom_bond_site_symmetry_2
Cs0 N5 3.722878 1_554
Cs0 N4 3.722878 1_545
Cs0 N5 3.722878 1_545
Cs0 N0 3.722878 1_555
Cs0 N0 3.722878 1_455
Cs0 N4 3.722878 1_555
Cs0 N3 3.722878 1_455
Cs0 N2 3.722878 1_554
Cs0 N1 3.722878 1_455
Cs0 N1 3.722878 1_545
Cs0 N3 3.722878 1_554
Cs0 N2 3.722878 1_555
Cs1 N5 3.722878 1_555
Cs1 N3 3.722878 1_555
Cs1 N0 3.722878 1_565
Cs1 N0 3.722878 1_556
Cs1 N4 3.722878 1_556
Cs1 N1 3.722878 1_555
Cs1 N2 3.722878 1_655
Cs1 N4 3.722878 1_655
Cs1 N2 3.722878 1_565
Cs1 N3 3.722878 1_565
Cs1 N1 3.722878 1_556
Cs1 N5 3.722878 1_655
C0 N3 1.180584 1_555
C0 Fe0 1.883687 1_656
C0 Cs0 3.766727 1_556
C0 Cs1 3.766727 1_555
C0 Cs1 3.766727 1_545
C0 Cs0 3.766727 1_655
C1 N5 1.180584 1_555
C1 Fe0 1.883687 1_566
C1 Cs0 3.766727 1_565
C1 Cs1 3.766727 1_555
C1 Cs0 3.766727 1_556
C1 Cs1 3.766727 1_455
C2 N4 1.180584 1_555
C2 Fe0 1.883687 1_565
C2 Cs1 3.766727 1_554
C2 Cs0 3.766727 1_565
C2 Cs0 3.766727 1_555
C2 Cs1 3.766727 1_455
C3 N2 1.180584 1_555
C3 Fe0 1.883687 1_556
C3 Cs0 3.766727 1_555
C3 Cs1 3.766727 1_545
C3 Cs0 3.766727 1_556
C3 Cs1 3.766727 1_455
C4 N0 1.180584 1_555
C4 Fe0 1.883687 1_655
C4 Cs1 3.766727 1_554
C4 Cs0 3.766727 1_555
C4 Cs1 3.766727 1_545
C4 Cs0 3.766727 1_655
C5 N1 1.180584 1_555
C5 Fe0 1.883687 1_665
C5 Cs1 3.766727 1_554
C5 Cs0 3.766727 1_565
C5 Cs1 3.766727 1_555
C5 Cs0 3.766727 1_655
N0 Zn0 2.161863 1_555
N1 Zn0 2.161863 1_555
N2 Zn0 2.161863 1_555
N3 Zn0 2.161863 1_555
N4 Zn0 2.161863 1_555
N5 Zn0 2.161863 1_555
