# generated using pymatgen
data_ThSe2O7
_symmetry_space_group_name_H-M   'P 1'
_cell_length_a   9.56827660
_cell_length_b   7.05997483
_cell_length_c   9.07830460
_cell_angle_alpha   76.78516763
_cell_angle_beta   90.00000000
_cell_angle_gamma   90.00000000
_symmetry_Int_Tables_number   1
_chemical_formula_structural   ThSe2O7
_chemical_formula_sum   'Th4 Se8 O28'
_cell_volume   597.01658225
_cell_formula_units_Z   4
loop_
 _symmetry_equiv_pos_site_id
 _symmetry_equiv_pos_as_xyz
  1  'x, y, z'
loop_
 _atom_site_type_symbol
 _atom_site_label
 _atom_site_symmetry_multiplicity
 _atom_site_fract_x
 _atom_site_fract_y
 _atom_site_fract_z
 _atom_site_occupancy
  Th  Th0  1  0.46037148  0.20899452  0.13411847  1
  Th  Th1  1  0.03962852  0.20899452  0.63411847  1
  Th  Th2  1  0.53962852  0.79100548  0.86588153  1
  Th  Th3  1  0.96037148  0.79100548  0.36588153  1
  Se  Se0  1  0.59567026  0.67161141  0.24917399  1
  Se  Se1  1  0.90432974  0.67161141  0.74917399  1
  Se  Se2  1  0.18096748  0.87898741  0.01763240  1
  Se  Se3  1  0.68096748  0.12101259  0.48236760  1
  Se  Se4  1  0.40432974  0.32838859  0.75082601  1
  Se  Se5  1  0.31903252  0.87898741  0.51763240  1
  Se  Se6  1  0.81903252  0.12101259  0.98236760  1
  Se  Se7  1  0.09567026  0.32838859  0.25082601  1
  O  O0  1  0.08445704  0.95413927  0.86623636  1
  O  O1  1  0.80922412  0.25280560  0.52523273  1
  O  O2  1  0.93923457  0.89465631  0.62575327  1
  O  O3  1  0.93978885  0.54965224  0.60851981  1
  O  O4  1  0.41554296  0.95413927  0.36623636  1
  O  O5  1  0.06021115  0.45034776  0.39148019  1
  O  O6  1  0.77244854  0.66207162  0.25440541  1
  O  O7  1  0.69077588  0.25280560  0.02523273  1
  O  O8  1  0.91239955  0.26980671  0.85211235  1
  O  O9  1  0.30922412  0.74719440  0.97476727  1
  O  O10  1  0.72755146  0.66207162  0.75440541  1
  O  O11  1  0.27244854  0.33792838  0.24559459  1
  O  O12  1  0.26616852  0.05916568  0.59255481  1
  O  O13  1  0.76616852  0.94083432  0.90744519  1
  O  O14  1  0.06076543  0.10534369  0.37424673  1
  O  O15  1  0.19077588  0.74719440  0.47476727  1
  O  O16  1  0.43978885  0.45034776  0.89148019  1
  O  O17  1  0.08760045  0.73019329  0.14788765  1
  O  O18  1  0.41239955  0.73019329  0.64788765  1
  O  O19  1  0.56076543  0.89465631  0.12575327  1
  O  O20  1  0.58760045  0.26980671  0.35211235  1
  O  O21  1  0.56021115  0.54965224  0.10851981  1
  O  O22  1  0.43923457  0.10534369  0.87424673  1
  O  O23  1  0.58445704  0.04586073  0.63376364  1
  O  O24  1  0.73383148  0.94083432  0.40744519  1
  O  O25  1  0.91554296  0.04586073  0.13376364  1
  O  O26  1  0.23383148  0.05916568  0.09255481  1
  O  O27  1  0.22755146  0.33792838  0.74559459  1
loop_
_geom_bond_atom_site_label_1
_geom_bond_atom_site_label_2
_geom_bond_distance
_geom_bond_site_symmetry_2
O0 Se2 1.640081 1_556
O0 Th1 2.475544 1_565
O1 Se3 1.639735 1_555
O1 Th1 2.406896 1_655
O2 Se1 1.743539 1_555
O2 Th1 2.435263 1_665
O2 Th3 2.632776 1_555
O3 Se1 1.729056 1_555
O3 Th3 2.465410 1_555
O3 Th1 2.548578 1_655
O4 Se5 1.640081 1_555
O4 Th0 2.475544 1_565
O5 Se7 1.729056 1_555
O5 Th1 2.465410 1_555
O5 Th3 2.548578 1_455
O6 Se0 1.693038 1_555
O6 Th3 2.346722 1_555
O7 Se6 1.639735 1_554
O7 Th0 2.406896 1_555
O8 Se6 1.652867 1_555
O8 Th1 2.443617 1_655
O9 Se2 1.639735 1_556
O9 Th2 2.406896 1_555
O10 Se1 1.693038 1_555
O10 Th2 2.346722 1_555
O11 Se7 1.693038 1_555
O11 Th0 2.346722 1_555
O12 Se5 1.652931 1_545
O12 Th1 2.478357 1_555
O13 Se6 1.652931 1_565
O13 Th2 2.478357 1_555
O14 Se7 1.743539 1_555
O14 Th3 2.435263 1_445
O14 Th1 2.632776 1_555
O15 Se5 1.639735 1_555
O15 Th3 2.406896 1_455
O16 Se4 1.729056 1_555
O16 Th0 2.465410 1_556
O16 Th2 2.548578 1_555
O17 Se2 1.652867 1_555
O17 Th3 2.443617 1_455
O18 Se5 1.652867 1_555
O18 Th2 2.443617 1_555
O19 Se0 1.743539 1_555
O19 Th0 2.435263 1_565
O19 Th2 2.632776 1_554
O20 Se3 1.652867 1_555
O20 Th0 2.443617 1_555
O21 Se0 1.729056 1_555
O21 Th2 2.465410 1_554
O21 Th0 2.548578 1_555
O22 Se4 1.743539 1_555
O22 Th2 2.435263 1_545
O22 Th0 2.632776 1_556
O23 Se3 1.640081 1_555
O23 Th2 2.475544 1_545
O24 Se3 1.652931 1_565
O24 Th3 2.478357 1_555
O25 Se6 1.640081 1_554
O25 Th3 2.475544 1_545
O26 Se2 1.652931 1_545
O26 Th0 2.478357 1_555
O27 Se4 1.693038 1_555
O27 Th1 2.346722 1_555
