# generated using pymatgen
data_LiBS4(ClO3)4
_symmetry_space_group_name_H-M   'P 1'
_cell_length_a   8.63371500
_cell_length_b   9.05573300
_cell_length_c   21.29179952
_cell_angle_alpha   88.42406641
_cell_angle_beta   90.00000000
_cell_angle_gamma   90.00000000
_symmetry_Int_Tables_number   1
_chemical_formula_structural   LiBS4(ClO3)4
_chemical_formula_sum   'Li4 B4 S16 Cl16 O48'
_cell_volume   1664.06154717
_cell_formula_units_Z   4
loop_
 _symmetry_equiv_pos_site_id
 _symmetry_equiv_pos_as_xyz
  1  'x, y, z'
loop_
 _atom_site_type_symbol
 _atom_site_label
 _atom_site_symmetry_multiplicity
 _atom_site_fract_x
 _atom_site_fract_y
 _atom_site_fract_z
 _atom_site_occupancy
  Li  Li0  1  0.75032200  0.08874400  0.43845700  1
  Li  Li1  1  0.24967800  0.91125600  0.56154300  1
  Li  Li2  1  0.25032200  0.91125600  0.06154300  1
  Li  Li3  1  0.74967800  0.08874400  0.93845700  1
  B  B0  1  0.25509600  0.34917700  0.08841300  1
  B  B1  1  0.74490400  0.65082300  0.91158700  1
  B  B2  1  0.24490400  0.34917700  0.58841300  1
  B  B3  1  0.75509600  0.65082300  0.41158700  1
  S  S0  1  0.01873600  0.81106000  0.43871500  1
  S  S1  1  0.82130800  0.39777200  0.35048600  1
  S  S2  1  0.10645000  0.22535800  0.98673800  1
  S  S3  1  0.98126400  0.18894000  0.56128500  1
  S  S4  1  0.67869200  0.39777200  0.85048600  1
  S  S5  1  0.62557100  0.85256200  0.32796800  1
  S  S6  1  0.60645000  0.77464200  0.51326200  1
  S  S7  1  0.89355000  0.77464200  0.01326200  1
  S  S8  1  0.39355000  0.22535800  0.48673800  1
  S  S9  1  0.17869200  0.60222800  0.64951400  1
  S  S10  1  0.87442900  0.85256200  0.82796800  1
  S  S11  1  0.37442900  0.14743800  0.67203200  1
  S  S12  1  0.12557100  0.14743800  0.17203200  1
  S  S13  1  0.48126400  0.81106000  0.93871500  1
  S  S14  1  0.32130800  0.60222800  0.14951400  1
  S  S15  1  0.51873600  0.18894000  0.06128500  1
  Cl  Cl0  1  0.32831500  0.75317300  0.87213100  1
  Cl  Cl1  1  0.17168500  0.75317300  0.37213100  1
  Cl  Cl2  1  0.79947000  0.64165100  0.08108300  1
  Cl  Cl3  1  0.25096300  0.06106500  0.74490100  1
  Cl  Cl4  1  0.74903700  0.93893500  0.25509900  1
  Cl  Cl5  1  0.24903700  0.06106500  0.24490100  1
  Cl  Cl6  1  0.29947000  0.35834900  0.41891700  1
  Cl  Cl7  1  0.82398000  0.42849600  0.77628300  1
  Cl  Cl8  1  0.75096300  0.93893500  0.75509900  1
  Cl  Cl9  1  0.17602000  0.57150400  0.22371700  1
  Cl  Cl10  1  0.82831500  0.24682700  0.62786900  1
  Cl  Cl11  1  0.32398000  0.57150400  0.72371700  1
  Cl  Cl12  1  0.70053000  0.64165100  0.58108300  1
  Cl  Cl13  1  0.67168500  0.24682700  0.12786900  1
  Cl  Cl14  1  0.67602000  0.42849600  0.27628300  1
  Cl  Cl15  1  0.20053000  0.35834900  0.91891700  1
  O  O0  1  0.59376900  0.67725200  0.94281400  1
  O  O1  1  0.75498600  0.73383400  0.85109800  1
  O  O2  1  0.80705700  0.24556500  0.37002900  1
  O  O3  1  0.90623100  0.67725200  0.44281400  1
  O  O4  1  0.44385000  0.05682000  0.08457800  1
  O  O5  1  0.96926600  0.45727400  0.33314600  1
  O  O6  1  0.70100000  0.90532500  0.50931400  1
  O  O7  1  0.20100000  0.09467500  0.99068600  1
  O  O8  1  0.79900000  0.90532500  0.00931400  1
  O  O9  1  0.39865500  0.81029600  0.99705200  1
  O  O10  1  0.05557300  0.78699000  0.02648900  1
  O  O11  1  0.25498600  0.26616600  0.64890200  1
  O  O12  1  0.30705700  0.75443500  0.12997100  1
  O  O13  1  0.51007000  0.21505700  0.69694800  1
  O  O14  1  0.01007000  0.78494300  0.80305200  1
  O  O15  1  0.24106800  0.50976200  0.09796100  1
  O  O16  1  0.69294300  0.24556500  0.87002900  1
  O  O17  1  0.74106800  0.49023800  0.40203900  1
  O  O18  1  0.94385000  0.94318000  0.41542200  1
  O  O19  1  0.29900000  0.09467500  0.49068600  1
  O  O20  1  0.48993000  0.78494300  0.30305200  1
  O  O21  1  0.46926600  0.54272600  0.16685400  1
  O  O22  1  0.19294300  0.75443500  0.62997100  1
  O  O23  1  0.44442700  0.78699000  0.52648900  1
  O  O24  1  0.89865500  0.18970400  0.50294800  1
  O  O25  1  0.53073400  0.45727400  0.83314600  1
  O  O26  1  0.25893200  0.50976200  0.59796100  1
  O  O27  1  0.05615000  0.05682000  0.58457800  1
  O  O28  1  0.74501400  0.73383400  0.35109800  1
  O  O29  1  0.60830700  0.96605400  0.37370900  1
  O  O30  1  0.03073400  0.54272600  0.66685400  1
  O  O31  1  0.37917300  0.31856300  0.54646300  1
  O  O32  1  0.10830700  0.03394600  0.12629100  1
  O  O33  1  0.09376900  0.32274800  0.55718600  1
  O  O34  1  0.60134500  0.18970400  0.00294800  1
  O  O35  1  0.39169300  0.03394600  0.62629100  1
  O  O36  1  0.12082700  0.31856300  0.04646300  1
  O  O37  1  0.75893200  0.49023800  0.90203900  1
  O  O38  1  0.62082700  0.68143700  0.45353700  1
  O  O39  1  0.24501400  0.26616600  0.14890200  1
  O  O40  1  0.89169300  0.96605400  0.87370900  1
  O  O41  1  0.55557300  0.21301000  0.47351100  1
  O  O42  1  0.98993000  0.21505700  0.19694800  1
  O  O43  1  0.55615000  0.94318000  0.91542200  1
  O  O44  1  0.10134500  0.81029600  0.49705200  1
  O  O45  1  0.40623100  0.32274800  0.05718600  1
  O  O46  1  0.87917300  0.68143700  0.95353700  1
  O  O47  1  0.94442700  0.21301000  0.97351100  1
loop_
_geom_bond_atom_site_label_1
_geom_bond_atom_site_label_2
_geom_bond_distance
_geom_bond_site_symmetry_2
Li0 O2 2.065337 1_555
Li0 O24 2.104881 1_555
Li0 O41 2.167194 1_555
Li0 O29 2.173150 1_545
Li0 O18 2.192150 1_545
Li0 O6 2.253551 1_545
Li1 O22 2.065337 1_555
Li1 O44 2.104881 1_555
Li1 O23 2.167194 1_555
Li1 O35 2.173150 1_565
Li1 O27 2.192150 1_565
Li1 O19 2.253551 1_565
Li2 O12 2.065337 1_555
Li2 O9 2.104881 1_554
Li2 O10 2.167194 1_555
Li2 O32 2.173150 1_565
Li2 O4 2.192150 1_565
Li2 O7 2.253551 1_564
Li3 O16 2.065337 1_555
Li3 O34 2.104881 1_556
Li3 O47 2.167194 1_555
Li3 O40 2.173150 1_545
Li3 O43 2.192150 1_545
Li3 O8 2.253551 1_546
B0 O39 1.475857 1_555
B0 O15 1.478851 1_555
B0 O45 1.486858 1_555
B0 O36 1.494023 1_555
B1 O1 1.475857 1_555
B1 O37 1.478851 1_555
B1 O0 1.486858 1_555
B1 O46 1.494023 1_555
B2 O11 1.475857 1_555
B2 O26 1.478851 1_555
B2 O33 1.486858 1_555
B2 O31 1.494023 1_555
B3 O28 1.475857 1_555
B3 O17 1.478851 1_555
B3 O3 1.486858 1_555
B3 O38 1.494023 1_555
Cl0 S13 2.017249 1_555
Cl1 S0 2.017249 1_555
Cl2 S7 2.024784 1_555
Cl3 S11 2.022010 1_555
Cl4 S5 2.022010 1_555
Cl5 S12 2.022010 1_555
Cl6 S8 2.024784 1_555
Cl7 S4 2.030473 1_555
Cl8 S10 2.022010 1_555
Cl9 S14 2.030473 1_555
Cl10 S3 2.017249 1_555
Cl11 S9 2.030473 1_555
Cl12 S6 2.024784 1_555
Cl13 S15 2.017249 1_555
Cl14 S1 2.030473 1_555
Cl15 S2 2.024784 1_555
O0 S13 1.553571 1_555
O1 S10 1.559759 1_555
O2 S1 1.434076 1_555
O3 S0 1.553571 1_655
O4 S15 1.436254 1_555
O5 S1 1.430919 1_555
O6 S6 1.438220 1_555
O7 S2 1.438220 1_555
O8 S7 1.438220 1_555
O9 S13 1.432157 1_555
O10 S7 1.431908 1_455
O11 S11 1.559759 1_555
O12 S14 1.434076 1_555
O13 S11 1.430282 1_555
O14 S10 1.430282 1_455
O15 S14 1.560924 1_555
O16 S4 1.434076 1_555
O17 S1 1.560924 1_555
O18 S0 1.436254 1_655
O19 S8 1.438220 1_555
O20 S5 1.430282 1_555
O21 S14 1.430919 1_555
O22 S9 1.434076 1_555
O23 S6 1.431908 1_555
O24 S3 1.432157 1_555
O25 S4 1.430919 1_555
O26 S9 1.560924 1_555
O27 S3 1.436254 1_455
O28 S5 1.559759 1_555
O29 S5 1.442930 1_555
O30 S9 1.430919 1_555
O31 S8 1.550467 1_555
O32 S12 1.442930 1_555
O33 S3 1.553571 1_455
O34 S15 1.432157 1_555
O35 S11 1.442930 1_555
O36 S2 1.550467 1_554
O37 S4 1.560924 1_555
O38 S6 1.550467 1_555
O39 S12 1.559759 1_555
O40 S10 1.442930 1_555
O41 S8 1.431908 1_555
O42 S12 1.430282 1_655
O43 S13 1.436254 1_555
O44 S0 1.432157 1_555
O45 S15 1.553571 1_555
O46 S7 1.550467 1_556
O47 S2 1.431908 1_655
