# generated using pymatgen
data_La10Si8O3
_symmetry_space_group_name_H-M   'P 1'
_cell_length_a   10.97844452
_cell_length_b   10.97844452
_cell_length_c   4.67379700
_cell_angle_alpha   90.00000000
_cell_angle_beta   90.00000000
_cell_angle_gamma   120.00000314
_symmetry_Int_Tables_number   1
_chemical_formula_structural   La10Si8O3
_chemical_formula_sum   'La10 Si8 O3'
_cell_volume   487.84525648
_cell_formula_units_Z   1
loop_
 _symmetry_equiv_pos_site_id
 _symmetry_equiv_pos_as_xyz
  1  'x, y, z'
loop_
 _atom_site_type_symbol
 _atom_site_label
 _atom_site_symmetry_multiplicity
 _atom_site_fract_x
 _atom_site_fract_y
 _atom_site_fract_z
 _atom_site_occupancy
  La  La0  1  0.20995900  0.79004100  0.00000000  1
  La  La1  1  0.00000000  0.50000000  0.50000000  1
  La  La2  1  0.58008300  0.79004100  0.00000000  1
  La  La3  1  0.79004100  0.58008300  0.00000000  1
  La  La4  1  0.00000000  0.00000000  0.00000000  1
  La  La5  1  0.20995900  0.41991700  0.00000000  1
  La  La6  1  0.41991700  0.20995900  0.00000000  1
  La  La7  1  0.50000000  0.50000000  0.50000000  1
  La  La8  1  0.79004100  0.20995900  0.00000000  1
  La  La9  1  0.50000000  0.00000000  0.50000000  1
  Si  Si0  1  0.00000000  0.78178600  0.50000000  1
  Si  Si1  1  0.00000000  0.21821400  0.50000000  1
  Si  Si2  1  0.21821400  0.21821400  0.50000000  1
  Si  Si3  1  0.78178600  0.00000000  0.50000000  1
  Si  Si4  1  0.33333300  0.66666700  0.50000000  1
  Si  Si5  1  0.21821400  0.00000000  0.50000000  1
  Si  Si6  1  0.66666700  0.33333300  0.50000000  1
  Si  Si7  1  0.78178600  0.78178600  0.50000000  1
  O  O0  1  0.00000000  0.50000000  0.00000000  1
  O  O1  1  0.50000000  0.50000000  0.00000000  1
  O  O2  1  0.50000000  0.00000000  0.00000000  1
loop_
_geom_bond_atom_site_label_1
_geom_bond_atom_site_label_2
_geom_bond_distance
_geom_bond_site_symmetry_2
La0 O0 2.848263 1_555
La0 O2 2.848263 1_565
La0 Si0 3.251698 1_555
La0 Si0 3.251698 1_554
La0 Si5 3.251698 1_564
La0 Si5 3.251698 1_565
La0 Si4 3.311304 1_555
La0 Si4 3.311304 1_554
La1 O0 2.336899 1_555
La1 O0 2.336899 1_556
La1 Si1 3.093572 1_555
La1 Si0 3.093572 1_555
La1 Si4 3.169201 1_555
La1 Si6 3.169201 1_455
La2 O1 2.848260 1_555
La2 O2 2.848271 1_565
La2 Si7 3.251691 1_555
La2 Si7 3.251691 1_554
La2 Si3 3.251695 1_565
La2 Si3 3.251695 1_564
La2 Si4 3.311318 1_555
La2 Si4 3.311318 1_554
La3 O1 2.848260 1_555
La3 O0 2.848271 1_655
La3 Si7 3.251691 1_555
La3 Si7 3.251691 1_554
La3 Si0 3.251695 1_655
La3 Si0 3.251695 1_654
La3 Si6 3.311318 1_555
La3 Si6 3.311318 1_554
La4 Si2 3.346675 1_554
La4 Si2 3.346675 1_555
La4 Si7 3.346675 1_444
La4 Si7 3.346675 1_445
La4 Si5 3.346675 1_554
La4 Si0 3.346675 1_545
La4 Si1 3.346675 1_555
La4 Si0 3.346675 1_544
La4 Si5 3.346675 1_555
La4 Si3 3.346675 1_455
La4 Si3 3.346675 1_454
La4 Si1 3.346675 1_554
La5 O1 2.848260 1_555
La5 O0 2.848271 1_555
La5 Si2 3.251691 1_555
La5 Si2 3.251691 1_554
La5 Si1 3.251695 1_554
La5 Si1 3.251695 1_555
La5 Si4 3.311318 1_555
La5 Si4 3.311318 1_554
La6 O1 2.848260 1_555
La6 O2 2.848271 1_555
La6 Si2 3.251691 1_555
La6 Si2 3.251691 1_554
La6 Si5 3.251695 1_555
La6 Si5 3.251695 1_554
La6 Si6 3.311318 1_555
La6 Si6 3.311318 1_554
La7 O1 2.336899 1_556
La7 O1 2.336899 1_555
La7 Si7 3.093572 1_555
La7 Si2 3.093572 1_555
La7 Si6 3.169210 1_555
La7 Si4 3.169210 1_555
La8 O2 2.848263 1_555
La8 O0 2.848263 1_655
La8 Si1 3.251698 1_654
La8 Si3 3.251698 1_554
La8 Si1 3.251698 1_655
La8 Si3 3.251698 1_555
La8 Si6 3.311304 1_555
La8 Si6 3.311304 1_554
La9 O2 2.336899 1_556
La9 O2 2.336899 1_555
La9 Si3 3.093572 1_555
La9 Si5 3.093572 1_555
La9 Si6 3.169201 1_555
La9 Si4 3.169201 1_545
Si0 Si5 2.395650 1_565
Si0 Si7 2.395650 1_455
Si1 Si3 2.395650 1_455
Si1 Si2 2.395650 1_555
Si2 Si5 2.395650 1_555
Si3 Si7 2.395650 1_545
