# generated using pymatgen
data_YbCu2
_symmetry_space_group_name_H-M   'P 1'
_cell_length_a   5.40212727
_cell_length_b   5.40212727
_cell_length_c   5.40212727
_cell_angle_alpha   133.84217671
_cell_angle_beta   102.18332773
_cell_angle_gamma   95.52530334
_symmetry_Int_Tables_number   1
_chemical_formula_structural   YbCu2
_chemical_formula_sum   'Yb2 Cu4'
_cell_volume   104.36429266
_cell_formula_units_Z   2
loop_
 _symmetry_equiv_pos_site_id
 _symmetry_equiv_pos_as_xyz
  1  'x, y, z'
loop_
 _atom_site_type_symbol
 _atom_site_label
 _atom_site_symmetry_multiplicity
 _atom_site_fract_x
 _atom_site_fract_y
 _atom_site_fract_z
 _atom_site_occupancy
  Yb  Yb0  1  0.20687700  0.45687700  0.75000000  1
  Yb  Yb1  1  0.79312300  0.54312300  0.25000000  1
  Cu  Cu0  1  0.39254700  0.83720200  0.55534500  1
  Cu  Cu1  1  0.60745300  0.16279800  0.44465500  1
  Cu  Cu2  1  0.21814300  0.16279800  0.05534500  1
  Cu  Cu3  1  0.78185700  0.83720200  0.94465500  1
loop_
_geom_bond_atom_site_label_1
_geom_bond_atom_site_label_2
_geom_bond_distance
_geom_bond_site_symmetry_2
Cu0 Cu2 2.467531 1_555
Cu0 Cu2 2.467531 1_566
Cu0 Cu1 2.481122 1_565
Cu0 Cu3 2.641817 1_555
Cu0 Yb1 2.909598 1_566
Cu0 Yb1 2.909598 1_555
Cu0 Yb1 2.975729 1_455
Cu0 Yb0 3.061761 1_555
Cu0 Yb0 3.087576 1_565
Cu0 Yb0 3.087576 1_554
Cu1 Cu3 2.467531 1_544
Cu1 Cu3 2.467531 1_555
Cu1 Cu2 2.641817 1_555
Cu1 Yb0 2.909598 1_544
Cu1 Yb0 2.909598 1_555
Cu1 Yb0 2.975729 1_655
Cu1 Yb1 3.061761 1_555
Cu1 Yb1 3.087576 1_556
Cu1 Yb1 3.087576 1_545
Cu2 Cu3 2.481122 1_444
Cu2 Yb0 2.909598 1_555
Cu2 Yb0 2.909598 1_544
Cu2 Yb0 2.975729 1_554
Cu2 Yb1 3.061761 1_555
Cu2 Yb1 3.087576 1_444
Cu2 Yb1 3.087576 1_455
Cu3 Yb1 2.909598 1_566
Cu3 Yb1 2.909598 1_555
Cu3 Yb1 2.975729 1_556
Cu3 Yb0 3.061761 1_555
Cu3 Yb0 3.087576 1_666
Cu3 Yb0 3.087576 1_655
