# generated using pymatgen
data_GdNi2
_symmetry_space_group_name_H-M   'P 1'
_cell_length_a   5.05313082
_cell_length_b   5.05310057
_cell_length_c   5.05302444
_cell_angle_alpha   59.99991958
_cell_angle_beta   59.99998526
_cell_angle_gamma   60.00059914
_symmetry_Int_Tables_number   1
_chemical_formula_structural   GdNi2
_chemical_formula_sum   'Gd2 Ni4'
_cell_volume   91.23396267
_cell_formula_units_Z   2
loop_
 _symmetry_equiv_pos_site_id
 _symmetry_equiv_pos_as_xyz
  1  'x, y, z'
loop_
 _atom_site_type_symbol
 _atom_site_label
 _atom_site_symmetry_multiplicity
 _atom_site_fract_x
 _atom_site_fract_y
 _atom_site_fract_z
 _atom_site_occupancy
  Gd  Gd0  1  0.87499214  0.87499314  0.87500786  1
  Gd  Gd1  1  0.12500786  0.12500686  0.12499214  1
  Ni  Ni0  1  0.50000000  0.50000000  0.50000000  1
  Ni  Ni1  1  0.50000000  0.50000000  0.00000000  1
  Ni  Ni2  1  -0.00000000  0.50000000  0.50000000  1
  Ni  Ni3  1  0.50000000  -0.00000000  0.50000000  1
loop_
_geom_bond_atom_site_label_1
_geom_bond_atom_site_label_2
_geom_bond_distance
_geom_bond_site_symmetry_2
Gd0 Ni0 2.962565 1_556
Gd0 Ni3 2.962587 1_566
Gd0 Ni2 2.962588 1_656
Gd0 Ni1 2.962598 1_556
Gd0 Ni2 2.962609 1_655
Gd0 Ni3 2.962617 1_565
Gd0 Ni0 2.962666 1_565
Gd0 Ni1 2.962670 1_566
Gd0 Ni0 2.962677 1_655
Gd0 Ni2 2.962682 1_665
Gd0 Ni1 2.962690 1_656
Gd0 Ni3 2.962701 1_665
Gd1 Ni0 2.962565 1_554
Gd1 Ni3 2.962587 1_554
Gd1 Ni2 2.962588 1_554
Gd1 Ni1 2.962598 1_555
Gd1 Ni2 2.962609 1_555
Gd1 Ni3 2.962617 1_555
Gd1 Ni0 2.962666 1_545
Gd1 Ni1 2.962670 1_545
Gd1 Ni0 2.962677 1_455
Gd1 Ni2 2.962682 1_545
Gd1 Ni1 2.962690 1_455
Gd1 Ni3 2.962701 1_455
Ni0 Ni1 2.526512 1_556
Ni0 Ni1 2.526512 1_555
Ni0 Ni3 2.526550 1_555
Ni0 Ni3 2.526550 1_565
Ni0 Ni2 2.526565 1_655
Ni0 Ni2 2.526565 1_555
Ni1 Ni3 2.526528 1_564
Ni1 Ni3 2.526528 1_555
Ni1 Ni2 2.526538 1_555
Ni1 Ni2 2.526538 1_654
Ni2 Ni3 2.526581 1_555
Ni2 Ni3 2.526581 1_465
