# generated using pymatgen
data_CaTeO3
_symmetry_space_group_name_H-M   'P 1'
_cell_length_a   5.74999300
_cell_length_b   8.67375000
_cell_length_c   22.94403208
_cell_angle_alpha   69.12707607
_cell_angle_beta   90.00000000
_cell_angle_gamma   90.00000000
_symmetry_Int_Tables_number   1
_chemical_formula_structural   CaTeO3
_chemical_formula_sum   'Ca12 Te12 O36'
_cell_volume   1069.21296458
_cell_formula_units_Z   12
loop_
 _symmetry_equiv_pos_site_id
 _symmetry_equiv_pos_as_xyz
  1  'x, y, z'
loop_
 _atom_site_type_symbol
 _atom_site_label
 _atom_site_symmetry_multiplicity
 _atom_site_fract_x
 _atom_site_fract_y
 _atom_site_fract_z
 _atom_site_occupancy
  Ca  Ca0  1  0.27046800  0.01989200  0.44063800  1
  Ca  Ca1  1  0.72953200  0.98010800  0.55936200  1
  Ca  Ca2  1  0.65701200  0.99338900  0.81639100  1
  Ca  Ca3  1  0.22953200  0.01989200  0.94063800  1
  Ca  Ca4  1  0.17359700  0.29993700  0.77493700  1
  Ca  Ca5  1  0.15701200  0.00661100  0.68360900  1
  Ca  Ca6  1  0.67359700  0.70006300  0.72506300  1
  Ca  Ca7  1  0.82640300  0.70006300  0.22506300  1
  Ca  Ca8  1  0.77046800  0.98010800  0.05936200  1
  Ca  Ca9  1  0.34298800  0.00661100  0.18360900  1
  Ca  Ca10  1  0.84298800  0.99338900  0.31639100  1
  Ca  Ca11  1  0.32640300  0.29993700  0.27493700  1
  Te  Te0  1  0.75585800  0.69288100  0.48808300  1
  Te  Te1  1  0.73576500  0.32234900  0.87483500  1
  Te  Te2  1  0.25585800  0.30711900  0.01191700  1
  Te  Te3  1  0.83765200  0.25536700  0.16379800  1
  Te  Te4  1  0.66234800  0.25536700  0.66379800  1
  Te  Te5  1  0.23576500  0.67765100  0.62516500  1
  Te  Te6  1  0.26423500  0.67765100  0.12516500  1
  Te  Te7  1  0.74414200  0.69288100  0.98808300  1
  Te  Te8  1  0.16234800  0.74463300  0.83620200  1
  Te  Te9  1  0.33765200  0.74463300  0.33620200  1
  Te  Te10  1  0.76423500  0.32234900  0.37483500  1
  Te  Te11  1  0.24414200  0.30711900  0.51191700  1
  O  O0  1  0.01165400  0.19005800  0.99144000  1
  O  O1  1  0.04606700  0.23871200  0.35369800  1
  O  O2  1  0.34965900  0.53008500  0.70301100  1
  O  O3  1  0.59978700  0.21259100  0.22463800  1
  O  O4  1  0.90021300  0.21259100  0.72463800  1
  O  O5  1  0.72712900  0.75324800  0.40121800  1
  O  O6  1  0.73555200  0.07805000  0.14088400  1
  O  O7  1  0.01561600  0.16450100  0.50140800  1
  O  O8  1  0.98438400  0.83549900  0.49859200  1
  O  O9  1  0.48438400  0.16450100  0.00140800  1
  O  O10  1  0.43168000  0.15064300  0.72465600  1
  O  O11  1  0.23555200  0.92195000  0.35911600  1
  O  O12  1  0.76444800  0.07805000  0.64088400  1
  O  O13  1  0.09978700  0.78740900  0.27536200  1
  O  O14  1  0.84965900  0.46991500  0.79698900  1
  O  O15  1  0.77287100  0.75324800  0.90121800  1
  O  O16  1  0.22712900  0.24675200  0.09878200  1
  O  O17  1  0.08348400  0.85469500  0.13041400  1
  O  O18  1  0.56832000  0.84935700  0.27534400  1
  O  O19  1  0.15034100  0.53008500  0.20301100  1
  O  O20  1  0.98834600  0.80994200  0.00856000  1
  O  O21  1  0.65034100  0.46991500  0.29698900  1
  O  O22  1  0.93168000  0.84935700  0.77534400  1
  O  O23  1  0.91651600  0.14530500  0.86958600  1
  O  O24  1  0.58348400  0.14530500  0.36958600  1
  O  O25  1  0.41651600  0.85469500  0.63041400  1
  O  O26  1  0.40021300  0.78740900  0.77536200  1
  O  O27  1  0.45393300  0.23871200  0.85369800  1
  O  O28  1  0.54606700  0.76128800  0.14630200  1
  O  O29  1  0.27287100  0.24675200  0.59878200  1
  O  O30  1  0.06832000  0.15064300  0.22465600  1
  O  O31  1  0.51165400  0.80994200  0.50856000  1
  O  O32  1  0.26444800  0.92195000  0.85911600  1
  O  O33  1  0.51561600  0.83549900  0.99859200  1
  O  O34  1  0.95393300  0.76128800  0.64630200  1
  O  O35  1  0.48834600  0.19005800  0.49144000  1
loop_
_geom_bond_atom_site_label_1
_geom_bond_atom_site_label_2
_geom_bond_distance
_geom_bond_site_symmetry_2
Ca0 O11 2.322253 1_545
Ca0 O8 2.348746 1_445
Ca0 O31 2.376096 1_545
Ca0 O24 2.411777 1_555
Ca0 O35 2.516463 1_555
Ca0 O1 2.558984 1_555
Ca0 O7 2.628879 1_555
Ca1 O12 2.322253 1_565
Ca1 O7 2.348746 1_665
Ca1 O35 2.376096 1_565
Ca1 O25 2.411777 1_555
Ca1 O31 2.516463 1_555
Ca1 O34 2.558984 1_555
Ca1 O8 2.628879 1_555
Ca2 O15 2.383600 1_555
Ca2 O22 2.404252 1_555
Ca2 O10 2.433819 1_565
Ca2 O32 2.450959 1_555
Ca2 O23 2.568744 1_565
Ca2 O4 2.673961 1_565
Ca2 O26 2.730751 1_555
Ca2 O27 2.814599 1_565
Ca3 O32 2.322253 1_545
Ca3 O33 2.348746 1_545
Ca3 O20 2.376096 1_446
Ca3 O23 2.411777 1_455
Ca3 O0 2.516463 1_555
Ca3 O27 2.558984 1_555
Ca3 O9 2.628879 1_556
Ca4 O4 2.236054 1_455
Ca4 O2 2.320718 1_555
Ca4 O27 2.337109 1_555
Ca4 O10 2.504895 1_555
Ca4 O14 2.535882 1_455
Ca4 O23 2.573803 1_455
Ca5 O29 2.383600 1_555
Ca5 O10 2.404252 1_555
Ca5 O22 2.433819 1_445
Ca5 O12 2.450959 1_455
Ca5 O25 2.568744 1_545
Ca5 O26 2.673961 1_545
Ca5 O4 2.730751 1_455
Ca5 O34 2.814599 1_445
Ca6 O26 2.236054 1_555
Ca6 O14 2.320718 1_555
Ca6 O34 2.337109 1_555
Ca6 O22 2.504895 1_555
Ca6 O2 2.535882 1_555
Ca6 O25 2.573803 1_555
Ca7 O13 2.236054 1_655
Ca7 O21 2.320718 1_555
Ca7 O28 2.337109 1_555
Ca7 O18 2.504895 1_555
Ca7 O19 2.535882 1_655
Ca7 O17 2.573803 1_655
Ca8 O6 2.322253 1_565
Ca8 O9 2.348746 1_565
Ca8 O0 2.376096 1_664
Ca8 O17 2.411777 1_655
Ca8 O20 2.516463 1_555
Ca8 O28 2.558984 1_555
Ca8 O33 2.628879 1_554
Ca9 O16 2.383600 1_555
Ca9 O30 2.404252 1_555
Ca9 O18 2.433819 1_545
Ca9 O6 2.450959 1_555
Ca9 O17 2.568744 1_545
Ca9 O13 2.673961 1_545
Ca9 O3 2.730751 1_555
Ca9 O28 2.814599 1_545
Ca10 O5 2.383600 1_555
Ca10 O18 2.404252 1_555
Ca10 O30 2.433819 1_665
Ca10 O11 2.450959 1_655
Ca10 O24 2.568744 1_565
Ca10 O3 2.673961 1_565
Ca10 O13 2.730751 1_655
Ca10 O1 2.814599 1_665
Ca11 O3 2.236054 1_555
Ca11 O19 2.320718 1_555
Ca11 O1 2.337109 1_555
Ca11 O30 2.504895 1_555
Ca11 O21 2.535882 1_555
Ca11 O24 2.573803 1_555
O0 Te2 1.887676 1_556
O1 Te10 1.907431 1_455
O2 Te5 1.904793 1_555
O3 Te3 1.894158 1_555
O4 Te4 1.894158 1_555
O5 Te0 1.878828 1_555
O6 Te3 1.887514 1_555
O7 Te11 1.878188 1_555
O8 Te0 1.878188 1_555
O9 Te2 1.878188 1_555
O10 Te4 1.905305 1_555
O11 Te9 1.887514 1_555
O12 Te4 1.887514 1_555
O13 Te9 1.894158 1_555
O14 Te1 1.904793 1_555
O15 Te7 1.878828 1_555
O16 Te2 1.878828 1_555
O17 Te6 1.893317 1_555
O18 Te9 1.905305 1_555
O19 Te6 1.904793 1_555
O20 Te7 1.887676 1_554
O21 Te10 1.904793 1_555
O22 Te8 1.905305 1_655
O23 Te1 1.893317 1_555
O24 Te10 1.893317 1_555
O25 Te5 1.893317 1_555
O26 Te8 1.894158 1_555
O27 Te1 1.907431 1_555
O28 Te6 1.907431 1_555
O29 Te11 1.878828 1_555
O30 Te3 1.905305 1_455
O31 Te0 1.887676 1_555
O32 Te8 1.887514 1_555
O33 Te7 1.878188 1_555
O34 Te5 1.907431 1_655
O35 Te11 1.887676 1_555
