# generated using pymatgen
data_BaFe4O7
_symmetry_space_group_name_H-M   'P 1'
_cell_length_a   5.11693055
_cell_length_b   5.11693055
_cell_length_c   13.93661600
_cell_angle_alpha   90.00000000
_cell_angle_beta   90.00000000
_cell_angle_gamma   120.00000706
_symmetry_Int_Tables_number   1
_chemical_formula_structural   BaFe4O7
_chemical_formula_sum   'Ba2 Fe8 O14'
_cell_volume   316.01447736
_cell_formula_units_Z   2
loop_
 _symmetry_equiv_pos_site_id
 _symmetry_equiv_pos_as_xyz
  1  'x, y, z'
loop_
 _atom_site_type_symbol
 _atom_site_label
 _atom_site_symmetry_multiplicity
 _atom_site_fract_x
 _atom_site_fract_y
 _atom_site_fract_z
 _atom_site_occupancy
  Ba  Ba0  1  0.66666700  0.33333300  0.25000000  1
  Ba  Ba1  1  0.33333300  0.66666700  0.75000000  1
  Fe  Fe0  1  0.00000000  0.00000000  0.11261600  1
  Fe  Fe1  1  0.00000000  0.00000000  0.61261600  1
  Fe  Fe2  1  0.00000000  0.00000000  0.88738400  1
  Fe  Fe3  1  0.00000000  0.00000000  0.38738400  1
  Fe  Fe4  1  0.33333300  0.66666700  0.00324700  1
  Fe  Fe5  1  0.66666700  0.33333300  0.50324700  1
  Fe  Fe6  1  0.66666700  0.33333300  0.99675300  1
  Fe  Fe7  1  0.33333300  0.66666700  0.49675300  1
  O  O0  1  0.00000000  0.00000000  0.25000000  1
  O  O1  1  0.00000000  0.00000000  0.75000000  1
  O  O2  1  0.36243800  0.00727100  0.07865800  1
  O  O3  1  0.35516800  0.36243800  0.57865800  1
  O  O4  1  0.00727100  0.64483200  0.57865800  1
  O  O5  1  0.99272900  0.35516800  0.07865800  1
  O  O6  1  0.64483200  0.63756200  0.07865800  1
  O  O7  1  0.63756200  0.99272900  0.57865800  1
  O  O8  1  0.63756200  0.99272900  0.92134200  1
  O  O9  1  0.64483200  0.63756200  0.42134200  1
  O  O10  1  0.99272900  0.35516800  0.42134200  1
  O  O11  1  0.00727100  0.64483200  0.92134200  1
  O  O12  1  0.35516800  0.36243800  0.92134200  1
  O  O13  1  0.36243800  0.00727100  0.42134200  1
loop_
_geom_bond_atom_site_label_1
_geom_bond_atom_site_label_2
_geom_bond_distance
_geom_bond_site_symmetry_2
Ba0 O5 2.883045 1_555
Ba0 O10 2.883045 1_555
Ba0 O2 2.883048 1_555
Ba0 O13 2.883048 1_555
Ba0 O9 2.883051 1_555
Ba0 O6 2.883051 1_555
Ba0 O0 2.954258 1_655
Ba0 O0 2.954262 1_665
Ba0 O0 2.954262 1_555
Ba1 O4 2.883045 1_555
Ba1 O11 2.883045 1_555
Ba1 O8 2.883048 1_555
Ba1 O7 2.883048 1_555
Ba1 O3 2.883051 1_555
Ba1 O12 2.883051 1_555
Ba1 O1 2.954258 1_565
Ba1 O1 2.954262 1_555
Ba1 O1 2.954262 1_665
Fe0 O2 1.896257 1_555
Fe0 O6 1.896259 1_445
Fe0 O5 1.896262 1_455
Fe0 O0 1.914668 1_555
Fe1 O7 1.896257 1_445
Fe1 O3 1.896259 1_555
Fe1 O4 1.896262 1_545
Fe1 O1 1.914668 1_555
Fe2 O8 1.896257 1_445
Fe2 O12 1.896259 1_555
Fe2 O11 1.896262 1_545
Fe2 O1 1.914668 1_555
Fe3 O13 1.896257 1_555
Fe3 O9 1.896259 1_445
Fe3 O10 1.896262 1_455
Fe3 O0 1.914668 1_555
Fe4 O5 1.976027 1_455
Fe4 O2 1.976027 1_565
Fe4 O6 1.976027 1_555
Fe4 O11 1.978061 1_554
Fe4 O8 1.978065 1_554
Fe4 O12 1.978069 1_554
Fe5 O4 1.976027 1_655
Fe5 O7 1.976027 1_545
Fe5 O3 1.976027 1_555
Fe5 O10 1.978061 1_555
Fe5 O13 1.978065 1_555
Fe5 O9 1.978069 1_555
Fe6 O11 1.976027 1_655
Fe6 O8 1.976027 1_545
Fe6 O12 1.976027 1_555
Fe6 O5 1.978061 1_556
Fe6 O2 1.978065 1_556
Fe6 O6 1.978069 1_556
Fe7 O10 1.976027 1_455
Fe7 O13 1.976027 1_565
Fe7 O9 1.976027 1_555
Fe7 O4 1.978061 1_555
Fe7 O7 1.978065 1_555
Fe7 O3 1.978069 1_555
