# generated using pymatgen
data_Sr16Fe16O45
_symmetry_space_group_name_H-M   'P 1'
_cell_length_a   5.55601300
_cell_length_b   9.59974675
_cell_length_c   18.36825513
_cell_angle_alpha   79.83942767
_cell_angle_beta   89.98810929
_cell_angle_gamma   89.96543660
_symmetry_Int_Tables_number   1
_chemical_formula_structural   Sr16Fe16O45
_chemical_formula_sum   'Sr16 Fe16 O45'
_cell_volume   964.33058284
_cell_formula_units_Z   1
loop_
 _symmetry_equiv_pos_site_id
 _symmetry_equiv_pos_as_xyz
  1  'x, y, z'
loop_
 _atom_site_type_symbol
 _atom_site_label
 _atom_site_symmetry_multiplicity
 _atom_site_fract_x
 _atom_site_fract_y
 _atom_site_fract_z
 _atom_site_occupancy
  Sr  Sr0  1  0.50019900  0.18759800  0.93754900  1
  Sr  Sr1  1  0.00039700  0.44014800  0.68735700  1
  Sr  Sr2  1  0.00008000  0.68696000  0.93439600  1
  Sr  Sr3  1  0.49831900  0.68463900  0.43869700  1
  Sr  Sr4  1  0.50449300  0.93275200  0.69081900  1
  Sr  Sr5  1  0.49966900  0.56628400  0.81149500  1
  Sr  Sr6  1  0.99558200  0.80112600  0.56266200  1
  Sr  Sr7  1  0.99426900  0.19277500  0.43291800  1
  Sr  Sr8  1  0.99492600  0.94918400  0.18916000  1
  Sr  Sr9  1  0.00162500  0.05659500  0.80893800  1
  Sr  Sr10  1  0.49844100  0.06583600  0.31196900  1
  Sr  Sr11  1  0.50466700  0.42483600  0.18926400  1
  Sr  Sr12  1  0.50376700  0.32291700  0.56215600  1
  Sr  Sr13  1  0.99981100  0.31461200  0.06728600  1
  Sr  Sr14  1  0.99326300  0.55705200  0.31773600  1
  Sr  Sr15  1  0.50677000  0.81391400  0.05751100  1
  Fe  Fe0  1  0.00283500  0.98617800  0.00542700  1
  Fe  Fe1  1  0.49463000  0.24875000  0.75199200  1
  Fe  Fe2  1  0.99675400  0.38625300  0.87111700  1
  Fe  Fe3  1  0.00127800  0.49962700  0.49959300  1
  Fe  Fe4  1  0.49458300  0.49684100  0.99998000  1
  Fe  Fe5  1  0.49780800  0.62570300  0.62620000  1
  Fe  Fe6  1  0.49910300  0.87667700  0.87385500  1
  Fe  Fe7  1  0.52277100  0.99585100  0.49579100  1
  Fe  Fe8  1  0.52007100  0.75494200  0.25377500  1
  Fe  Fe9  1  0.00186900  0.75412800  0.74723500  1
  Fe  Fe10  1  0.00962700  0.87486200  0.37534700  1
  Fe  Fe11  1  0.97999900  0.13122900  0.62819300  1
  Fe  Fe12  1  0.00144000  0.24816600  0.25166600  1
  Fe  Fe13  1  0.49619400  0.12461000  0.12301100  1
  Fe  Fe14  1  0.49500400  0.37499300  0.37525800  1
  Fe  Fe15  1  0.98157300  0.61816100  0.12213400  1
  O  O0  1  0.23732100  0.42465500  0.94112000  1
  O  O1  1  0.23754100  0.29770800  0.81919900  1
  O  O2  1  0.99929200  0.56541500  0.81130400  1
  O  O3  1  0.75936600  0.94511700  0.93822000  1
  O  O4  1  0.75865100  0.29748700  0.82194500  1
  O  O5  1  0.75599900  0.42127100  0.93896000  1
  O  O6  1  0.75071000  0.69008800  0.68683200  1
  O  O7  1  0.74967500  0.55950200  0.56344100  1
  O  O8  1  0.75569000  0.81782500  0.80925800  1
  O  O9  1  0.49529700  0.43680100  0.69379300  1
  O  O10  1  0.49404300  0.68699100  0.93616700  1
  O  O11  1  0.49688200  0.06123700  0.81118900  1
  O  O12  1  0.48427800  0.82338100  0.56485700  1
  O  O13  1  0.24122000  0.95185600  0.93577700  1
  O  O14  1  0.24943400  0.55985100  0.56381300  1
  O  O15  1  0.24872400  0.68654400  0.68841100  1
  O  O16  1  0.24722000  0.81449200  0.81102300  1
  O  O17  1  0.24665700  0.94355600  0.44336000  1
  O  O18  1  0.25990600  0.18133400  0.67876200  1
  O  O19  1  0.24307400  0.81069800  0.30724100  1
  O  O20  1  0.00761500  0.69050300  0.43762600  1
  O  O21  1  0.02326100  0.94037500  0.67691900  1
  O  O22  1  0.01722000  0.29937900  0.55757900  1
  O  O23  1  0.00631600  0.05951000  0.31391300  1
  O  O24  1  0.75923600  0.93671600  0.43638100  1
  O  O25  1  0.74596100  0.06406900  0.56366200  1
  O  O26  1  0.75137400  0.19256400  0.69056800  1
  O  O27  1  0.75112200  0.81616300  0.31397800  1
  O  O28  1  0.75112600  0.18536300  0.18864300  1
  O  O29  1  0.74731300  0.44239300  0.43560300  1
  O  O30  1  0.75918500  0.07470100  0.05519200  1
  O  O31  1  0.74663700  0.30852800  0.31455200  1
  O  O32  1  0.47818700  0.92532100  0.17821200  1
  O  O33  1  0.48220500  0.18600600  0.44602500  1
  O  O34  1  0.49887300  0.31458700  0.06404200  1
  O  O35  1  0.47473100  0.56347700  0.30318700  1
  O  O36  1  0.24846400  0.30678400  0.31415900  1
  O  O37  1  0.24955600  0.44124400  0.43636600  1
  O  O38  1  0.23821100  0.08271100  0.05183600  1
  O  O39  1  0.24909800  0.18580200  0.18790900  1
  O  O40  1  0.26266500  0.57001500  0.07163700  1
  O  O41  1  0.01440000  0.44708500  0.19078000  1
  O  O42  1  0.02744000  0.81083800  0.07388600  1
  O  O43  1  0.75347300  0.56278000  0.05752800  1
  O  O44  1  0.75353700  0.68557800  0.18716100  1
loop_
_geom_bond_atom_site_label_1
_geom_bond_atom_site_label_2
_geom_bond_distance
_geom_bond_site_symmetry_2
Fe0 O38 1.891107 1_565
Fe0 O13 1.909713 1_554
Fe0 O30 1.913755 1_465
Fe0 O3 1.918896 1_454
Fe0 O42 1.919942 1_555
Fe1 O9 1.928947 1_555
Fe1 O11 1.931882 1_555
Fe1 O26 1.952385 1_555
Fe1 O1 1.997065 1_555
Fe1 O4 2.058013 1_555
Fe1 O18 2.058588 1_555
Fe2 O2 1.870478 1_555
Fe2 O4 1.888221 1_555
Fe2 O5 1.897829 1_555
Fe2 O1 1.925044 1_655
Fe2 O0 1.935019 1_655
Fe3 O37 1.947766 1_555
Fe3 O14 1.966962 1_555
Fe3 O7 1.973858 1_455
Fe3 O29 1.975826 1_455
Fe3 O20 1.979536 1_555
Fe3 O22 2.028569 1_555
Fe4 O34 1.928700 1_556
Fe4 O43 1.955720 1_556
Fe4 O10 1.987730 1_555
Fe4 O0 1.989551 1_555
Fe4 O5 2.043778 1_555
Fe4 O40 2.051975 1_556
Fe5 O15 1.948323 1_555
Fe5 O6 1.959924 1_555
Fe5 O14 1.968354 1_555
Fe5 O7 1.986894 1_555
Fe5 O9 2.008933 1_555
Fe5 O12 2.030228 1_555
Fe6 O11 1.935093 1_565
Fe6 O10 1.972650 1_555
Fe6 O16 1.972713 1_555
Fe6 O8 1.998555 1_555
Fe6 O13 2.038415 1_555
Fe6 O3 2.048493 1_555
Fe7 O24 1.859100 1_555
Fe7 O33 1.905123 1_565
Fe7 O12 1.911971 1_555
Fe7 O17 1.924859 1_555
Fe7 O25 1.952033 1_565
Fe8 O27 1.856605 1_555
Fe8 O35 1.917659 1_555
Fe8 O19 1.950209 1_555
Fe8 O32 1.963287 1_555
Fe8 O44 1.977088 1_555
Fe9 O15 1.927467 1_555
Fe9 O8 1.945952 1_455
Fe9 O6 1.948977 1_455
Fe9 O16 1.951415 1_555
Fe9 O2 1.978603 1_455
Fe9 O21 2.016045 1_555
Fe10 O23 1.926131 1_565
Fe10 O20 1.930459 1_555
Fe10 O24 1.943709 1_455
Fe10 O27 1.968957 1_455
Fe10 O19 1.974057 1_555
Fe10 O17 2.005566 1_555
Fe11 O26 1.873334 1_555
Fe11 O22 1.895351 1_655
Fe11 O21 1.906989 1_645
Fe11 O18 1.916200 1_655
Fe11 O25 1.944929 1_555
Fe12 O36 1.935833 1_555
Fe12 O23 1.964003 1_555
Fe12 O39 1.966966 1_555
Fe12 O28 1.971209 1_455
Fe12 O31 1.977044 1_455
Fe12 O41 2.036924 1_555
Fe13 O34 1.950007 1_555
Fe13 O39 1.973895 1_555
Fe13 O32 2.003481 1_545
Fe13 O28 2.012324 1_555
Fe13 O38 2.027926 1_555
Fe13 O30 2.031104 1_555
Fe14 O37 1.942747 1_555
Fe14 O36 1.955901 1_555
Fe14 O31 1.963257 1_555
Fe14 O29 1.966511 1_555
Fe14 O33 2.038191 1_555
Fe14 O35 2.047882 1_555
Fe15 O43 1.876445 1_555
Fe15 O41 1.894569 1_655
Fe15 O40 1.913844 1_655
Fe15 O42 1.921897 1_655
Fe15 O44 1.929210 1_555
O0 Sr13 2.713774 1_456
O0 Sr0 2.713832 1_555
O0 Sr2 2.824827 1_555
O0 Sr5 2.915657 1_555
O1 Sr0 2.676091 1_555
O1 Sr9 2.696063 1_555
O1 Sr1 2.881190 1_555
O1 Sr5 2.943508 1_555
O2 Sr2 2.721080 1_655
O2 Sr1 2.755967 1_655
O2 Sr5 2.775923 1_555
O2 Sr5 2.780123 1_655
O3 Sr15 2.717417 1_556
O3 Sr0 2.734567 1_565
O3 Sr9 2.774865 1_665
O3 Sr2 2.827129 1_655
O4 Sr0 2.625657 1_555
O4 Sr9 2.723635 1_655
O4 Sr5 2.930284 1_555
O4 Sr1 2.932140 1_655
O5 Sr0 2.660242 1_555
O5 Sr13 2.754552 1_556
O5 Sr2 2.877509 1_655
O5 Sr5 2.880446 1_555
O6 Sr6 2.707749 1_555
O6 Sr4 2.712873 1_555
O6 Sr5 2.764383 1_555
O6 Sr1 2.769360 1_655
O7 Sr12 2.654819 1_555
O7 Sr6 2.690576 1_555
O7 Sr1 2.741037 1_655
O7 Sr3 2.769794 1_555
O8 Sr4 2.655280 1_555
O8 Sr9 2.668337 1_665
O8 Sr2 2.772324 1_655
O8 Sr5 2.797339 1_555
O9 Sr5 2.677313 1_555
O9 Sr1 2.752160 1_555
O9 Sr1 2.808771 1_655
O9 Sr12 2.824253 1_555
O10 Sr15 2.723193 1_556
O10 Sr5 2.742985 1_555
O10 Sr2 2.744665 1_555
O10 Sr2 2.811730 1_655
O11 Sr4 2.715444 1_545
O11 Sr9 2.752479 1_555
O11 Sr0 2.802191 1_555
O11 Sr9 2.805098 1_655
O12 Sr4 2.706569 1_555
O12 Sr6 2.724586 1_455
O12 Sr6 2.849516 1_555
O12 Sr3 2.870333 1_555
O13 Sr0 2.687538 1_565
O13 Sr9 2.717397 1_565
O13 Sr15 2.807943 1_556
O13 Sr2 2.879070 1_555
O14 Sr12 2.681720 1_555
O14 Sr6 2.707982 1_455
O14 Sr1 2.732256 1_555
O14 Sr3 2.767331 1_555
O15 Sr5 2.732512 1_555
O15 Sr1 2.742062 1_555
O15 Sr6 2.761569 1_455
O15 Sr4 2.765613 1_555
O16 Sr9 2.688823 1_565
O16 Sr4 2.706163 1_555
O16 Sr2 2.746198 1_555
O16 Sr5 2.762878 1_555
O17 Sr7 2.749743 1_465
O17 Sr6 2.749811 1_455
O17 Sr10 2.856671 1_565
O17 Sr3 2.865514 1_555
O18 Sr12 2.691562 1_555
O18 Sr4 2.720300 1_545
O18 Sr9 2.863741 1_555
O18 Sr1 2.900133 1_555
O19 Sr8 2.711872 1_455
O19 Sr14 2.780441 1_455
O19 Sr10 2.845833 1_565
O19 Sr3 2.876518 1_555
O20 Sr6 2.695806 1_455
O20 Sr3 2.726908 1_555
O20 Sr14 2.737275 1_455
O20 Sr3 2.830244 1_455
O21 Sr6 2.684269 1_455
O21 Sr4 2.685673 1_555
O21 Sr9 2.844974 1_565
O21 Sr4 2.893345 1_455
O22 Sr7 2.670916 1_455
O22 Sr12 2.715379 1_555
O22 Sr12 2.863938 1_455
O22 Sr1 2.941708 1_555
O23 Sr8 2.689432 1_445
O23 Sr7 2.721361 1_455
O23 Sr10 2.735050 1_555
O23 Sr10 2.822475 1_455
O24 Sr7 2.774926 1_565
O24 Sr6 2.780814 1_555
O24 Sr10 2.803224 1_565
O24 Sr3 2.815493 1_555
O25 Sr4 2.793963 1_545
O25 Sr12 2.820962 1_555
O25 Sr7 2.855008 1_555
O25 Sr6 2.882267 1_545
O26 Sr9 2.713315 1_655
O26 Sr1 2.742471 1_655
O26 Sr12 2.824864 1_555
O26 Sr4 2.846447 1_545
O27 Sr10 2.771586 1_565
O27 Sr8 2.773052 1_555
O27 Sr3 2.792021 1_555
O27 Sr14 2.817318 1_555
O28 Sr8 2.638954 1_545
O28 Sr11 2.676843 1_555
O28 Sr13 2.728095 1_555
O28 Sr10 2.739099 1_555
O29 Sr14 2.631721 1_555
O29 Sr3 2.714356 1_555
O29 Sr12 2.758615 1_555
O29 Sr7 2.768551 1_555
O30 Sr0 2.662276 1_554
O30 Sr13 2.706520 1_555
O30 Sr8 2.859377 1_545
O30 Sr15 2.864026 1_545
O31 Sr7 2.646088 1_555
O31 Sr10 2.715626 1_555
O31 Sr11 2.728189 1_555
O31 Sr14 2.761543 1_555
O32 Sr15 2.630703 1_555
O32 Sr8 2.705079 1_455
O32 Sr8 2.890137 1_555
O32 Sr10 3.006336 1_565
O33 Sr12 2.698412 1_555
O33 Sr7 2.721420 1_455
O33 Sr7 2.854965 1_555
O33 Sr10 2.899002 1_555
O34 Sr11 2.696408 1_555
O34 Sr13 2.773424 1_455
O34 Sr13 2.783869 1_555
O34 Sr0 2.807832 1_554
O35 Sr11 2.675824 1_555
O35 Sr14 2.687966 1_455
O35 Sr14 2.893009 1_555
O35 Sr3 2.930413 1_555
O36 Sr7 2.666309 1_455
O36 Sr10 2.703641 1_555
O36 Sr11 2.767092 1_555
O36 Sr14 2.799706 1_455
O37 Sr14 2.675157 1_455
O37 Sr3 2.722262 1_555
O37 Sr12 2.774383 1_555
O37 Sr7 2.786143 1_455
O38 Sr0 2.606575 1_554
O38 Sr13 2.647657 1_455
O38 Sr8 2.948321 1_445
O38 Sr15 2.965835 1_545
O39 Sr8 2.672044 1_445
O39 Sr11 2.703044 1_555
O39 Sr13 2.718272 1_455
O39 Sr10 2.740756 1_555
O40 Sr15 2.679196 1_555
O40 Sr11 2.712003 1_555
O40 Sr13 2.867762 1_455
O40 Sr2 2.957141 1_554
O41 Sr14 2.726631 1_455
O41 Sr11 2.732682 1_555
O41 Sr13 2.790569 1_455
O41 Sr11 2.840766 1_455
O42 Sr15 2.679629 1_555
O42 Sr8 2.696562 1_455
O42 Sr15 2.908099 1_455
O42 Sr2 3.012888 1_554
O43 Sr13 2.725152 1_555
O43 Sr2 2.731889 1_654
O43 Sr15 2.772470 1_555
O43 Sr11 2.896559 1_555
O44 Sr14 2.829150 1_555
O44 Sr15 2.834259 1_555
O44 Sr11 2.854603 1_555
O44 Sr8 2.870652 1_555
