# generated using pymatgen
data_NaI3O8
_symmetry_space_group_name_H-M   'P 1'
_cell_length_a   8.10161860
_cell_length_b   8.10161860
_cell_length_c   5.71008031
_cell_angle_alpha   90.00000000
_cell_angle_beta   90.00000000
_cell_angle_gamma   90.00000000
_symmetry_Int_Tables_number   1
_chemical_formula_structural   NaI3O8
_chemical_formula_sum   'Na2 I6 O16'
_cell_volume   374.78810994
_cell_formula_units_Z   2
loop_
 _symmetry_equiv_pos_site_id
 _symmetry_equiv_pos_as_xyz
  1  'x, y, z'
loop_
 _atom_site_type_symbol
 _atom_site_label
 _atom_site_symmetry_multiplicity
 _atom_site_fract_x
 _atom_site_fract_y
 _atom_site_fract_z
 _atom_site_occupancy
  Na  Na0  1  0.50000000  0.50000000  0.50000000  1
  Na  Na1  1  -0.00000000  0.00000000  0.50000000  1
  I  I0  1  0.50000000  0.00000000  0.60285066  1
  I  I1  1  0.73123154  0.74829387  0.10962148  1
  I  I2  1  -0.00000000  0.50000000  0.39714934  1
  I  I3  1  0.25170613  0.73123154  0.89037852  1
  I  I4  1  0.26876846  0.25170613  0.10962148  1
  I  I5  1  0.74829387  0.26876846  0.89037852  1
  O  O0  1  0.48660387  0.27429741  0.15717201  1
  O  O1  1  0.23166447  0.07173233  0.28630973  1
  O  O2  1  0.66784611  0.94686530  0.80179299  1
  O  O3  1  0.07173233  0.76833553  0.71369027  1
  O  O4  1  0.05313470  0.66784611  0.19820701  1
  O  O5  1  0.27429741  0.51339613  0.84282799  1
  O  O6  1  0.41038351  0.76605828  0.64044580  1
  O  O7  1  0.72570259  0.48660387  0.84282799  1
  O  O8  1  0.76605828  0.58961649  0.35955420  1
  O  O9  1  0.23394172  0.41038351  0.35955420  1
  O  O10  1  0.76833553  0.92826767  0.28630973  1
  O  O11  1  0.94686530  0.33215389  0.19820701  1
  O  O12  1  0.58961649  0.23394172  0.64044580  1
  O  O13  1  0.33215389  0.05313470  0.80179299  1
  O  O14  1  0.92826767  0.23166447  0.71369027  1
  O  O15  1  0.51339613  0.72570259  0.15717201  1
loop_
_geom_bond_atom_site_label_1
_geom_bond_atom_site_label_2
_geom_bond_distance
_geom_bond_site_symmetry_2
Na0 O9 2.411734 1_555
Na0 O8 2.411734 1_555
Na0 O12 2.411734 1_555
Na0 O6 2.411734 1_555
Na0 O0 2.680951 1_555
Na0 O5 2.680951 1_555
Na0 O7 2.680951 1_555
Na0 O15 2.680951 1_555
Na1 O14 2.312831 1_455
Na1 O3 2.312831 1_545
Na1 O10 2.312831 1_445
Na1 O1 2.312831 1_555
I0 O13 1.823425 1_555
I0 O2 1.823425 1_545
I0 O6 2.040932 1_545
I0 O12 2.040932 1_555
I1 O15 1.794939 1_555
I1 O10 1.798400 1_555
I1 O8 1.941378 1_555
I1 O7 2.611067 1_554
I2 O11 1.823425 1_455
I2 O4 1.823425 1_555
I2 O9 2.040932 1_555
I2 O8 2.040932 1_455
I3 O5 1.794939 1_555
I3 O3 1.798400 1_555
I3 O6 1.941378 1_555
I3 O15 2.611067 1_556
I4 O0 1.794939 1_555
I4 O1 1.798400 1_555
I4 O9 1.941378 1_555
I4 O5 2.611067 1_554
I5 O7 1.794939 1_555
I5 O14 1.798400 1_555
I5 O12 1.941378 1_555
I5 O0 2.611067 1_556
