# generated using pymatgen
data_Ta27S50
_symmetry_space_group_name_H-M   'P 1'
_cell_length_a   10.45110400
_cell_length_b   10.46631173
_cell_length_c   14.57967499
_cell_angle_alpha   100.59678371
_cell_angle_beta   90.07966966
_cell_angle_gamma   106.27705440
_symmetry_Int_Tables_number   1
_chemical_formula_structural   Ta27S50
_chemical_formula_sum   'Ta27 S50'
_cell_volume   1502.38991651
_cell_formula_units_Z   1
loop_
 _symmetry_equiv_pos_site_id
 _symmetry_equiv_pos_as_xyz
  1  'x, y, z'
loop_
 _atom_site_type_symbol
 _atom_site_label
 _atom_site_symmetry_multiplicity
 _atom_site_fract_x
 _atom_site_fract_y
 _atom_site_fract_z
 _atom_site_occupancy
  Ta  Ta0  1  0.00055200  0.99792200  0.99647900  1
  Ta  Ta1  1  0.59909000  0.39850300  0.99770500  1
  Ta  Ta2  1  0.08296300  0.91993800  0.20046200  1
  Ta  Ta3  1  0.21025200  0.80979600  0.00063600  1
  Ta  Ta4  1  0.56010400  0.44299600  0.39934300  1
  Ta  Ta5  1  0.67963500  0.31866900  0.20236400  1
  Ta  Ta6  1  0.79596900  0.19746500  0.99988600  1
  Ta  Ta7  1  0.03748800  0.96012900  0.59807500  1
  Ta  Ta8  1  0.15664900  0.83766200  0.39968500  1
  Ta  Ta9  1  0.28126600  0.72158300  0.20328700  1
  Ta  Ta10  1  0.40885600  0.61072400  0.00120600  1
  Ta  Ta11  1  0.52499400  0.48076100  0.79822700  1
  Ta  Ta12  1  0.65065000  0.36941500  0.60136200  1
  Ta  Ta13  1  0.77070400  0.24992700  0.40148600  1
  Ta  Ta14  1  0.87823300  0.12058500  0.20286400  1
  Ta  Ta15  1  0.11881400  0.88042900  0.80030800  1
  Ta  Ta16  1  0.23840400  0.75926000  0.60015000  1
  Ta  Ta17  1  0.35813400  0.63675700  0.39980300  1
  Ta  Ta18  1  0.47924700  0.52283200  0.20100800  1
  Ta  Ta19  1  0.71825500  0.28107500  0.80275000  1
  Ta  Ta20  1  0.84944000  0.16931300  0.60142000  1
  Ta  Ta21  1  0.96204900  0.04090100  0.39959200  1
  Ta  Ta22  1  0.97310100  0.48542000  0.56534900  1
  Ta  Ta23  1  0.32643600  0.68916200  0.80254900  1
  Ta  Ta24  1  0.44179100  0.55916900  0.59803000  1
  Ta  Ta25  1  0.91947500  0.07713300  0.79923700  1
  Ta  Ta26  1  0.53249200  0.92637900  0.96465300  1
  S  S0  1  0.97667400  0.78169100  0.04912900  1
  S  S1  1  0.21750400  0.03979300  0.08450300  1
  S  S2  1  0.44975300  0.30022300  0.25034200  1
  S  S3  1  0.56292700  0.17352400  0.04946400  1
  S  S4  1  0.69763100  0.55399900  0.28136700  1
  S  S5  1  0.81351600  0.42893900  0.08316100  1
  S  S6  1  0.92632500  0.82017000  0.44851100  1
  S  S7  1  0.04879800  0.69839600  0.24839200  1
  S  S8  1  0.17783700  0.58844100  0.04907700  1
  S  S9  1  0.17879000  0.07063300  0.48308200  1
  S  S10  1  0.29748400  0.95521000  0.28693400  1
  S  S11  1  0.42582800  0.84516200  0.09533300  1
  S  S12  1  0.41597900  0.34167900  0.64881300  1
  S  S13  1  0.54048500  0.22684600  0.45247400  1
  S  S14  1  0.65129000  0.10267400  0.25527800  1
  S  S15  1  0.76403100  0.97485600  0.04911000  1
  S  S16  1  0.66008200  0.60000700  0.68300300  1
  S  S17  1  0.78094700  0.49047000  0.48000100  1
  S  S18  1  0.90104600  0.35718000  0.28085500  1
  S  S19  1  0.88876800  0.85590600  0.84848200  1
  S  S20  1  0.01168700  0.22880300  0.08243500  1
  S  S21  1  0.00468600  0.73373800  0.64923200  1
  S  S22  1  0.12291200  0.61277000  0.45081200  1
  S  S23  1  0.24816500  0.49860200  0.24843300  1
  S  S24  1  0.13570600  0.11482000  0.88244500  1
  S  S25  1  0.37152900  0.38651000  0.04863900  1
  S  S26  1  0.25341900  0.99085900  0.68127700  1
  S  S27  1  0.37309200  0.86949600  0.48322800  1
  S  S28  1  0.49826800  0.75459900  0.28673600  1
  S  S29  1  0.48664700  0.26019200  0.84749800  1
  S  S30  1  0.62246300  0.63338900  0.08456400  1
  S  S31  1  0.61721600  0.14749700  0.64827700  1
  S  S32  1  0.73538400  0.03046100  0.45262100  1
  S  S33  1  0.85055900  0.90005300  0.25001400  1
  S  S34  1  0.73949200  0.51375100  0.88550500  1
  S  S35  1  0.86586000  0.40331700  0.69573400  1
  S  S36  1  0.99642800  0.27663800  0.48067800  1
  S  S37  1  0.09829800  0.15347800  0.28139700  1
  S  S38  1  0.09714600  0.66410300  0.85314700  1
  S  S39  1  0.20774800  0.53828000  0.65148400  1
  S  S40  1  0.33037500  0.41664900  0.44923600  1
  S  S41  1  0.33946000  0.93008500  0.87865700  1
  S  S42  1  0.45645100  0.79332700  0.68055500  1
  S  S43  1  0.57520300  0.67612300  0.48271700  1
  S  S44  1  0.68259500  0.05336300  0.84873300  1
  S  S45  1  0.80953300  0.94455800  0.64804300  1
  S  S46  1  0.93461900  0.30886200  0.88508400  1
  S  S47  1  0.06238400  0.19375500  0.68563300  1
  S  S48  1  0.29678200  0.46972100  0.85185200  1
  S  S49  1  0.55301200  0.71623900  0.87954500  1
loop_
_geom_bond_atom_site_label_1
_geom_bond_atom_site_label_2
_geom_bond_distance
_geom_bond_site_symmetry_2
S0 Ta0 2.469050 1_654
S0 Ta2 2.472595 1_655
S0 Ta3 2.494866 1_655
S1 Ta3 2.471938 1_545
S1 Ta2 2.491362 1_545
S1 Ta0 2.491619 1_544
S2 Ta5 2.468404 1_555
S2 Ta4 2.472920 1_555
S2 Ta18 2.501034 1_555
S3 Ta6 2.499313 1_554
S3 Ta1 2.532268 1_554
S3 Ta5 2.544248 1_555
S3 Ta26 2.585044 1_544
S4 Ta18 2.474443 1_555
S4 Ta5 2.474862 1_555
S4 Ta4 2.485958 1_555
S5 Ta6 2.458779 1_554
S5 Ta1 2.474250 1_554
S5 Ta5 2.479809 1_555
S6 Ta21 2.471545 1_565
S6 Ta7 2.472784 1_655
S6 Ta8 2.477954 1_655
S7 Ta2 2.474844 1_555
S7 Ta9 2.475213 1_555
S7 Ta8 2.479969 1_555
S8 Ta10 2.473816 1_555
S8 Ta3 2.478605 1_555
S8 Ta9 2.482306 1_555
S9 Ta8 2.463737 1_545
S9 Ta7 2.468189 1_545
S9 Ta21 2.483442 1_455
S10 Ta2 2.471682 1_555
S10 Ta8 2.473429 1_555
S10 Ta9 2.483024 1_555
S11 Ta26 2.380273 1_554
S11 Ta9 2.468347 1_555
S11 Ta10 2.540140 1_555
S11 Ta3 2.540700 1_555
S12 Ta11 2.461632 1_555
S12 Ta24 2.465520 1_555
S12 Ta12 2.501494 1_555
S13 Ta12 2.470416 1_555
S13 Ta4 2.478916 1_555
S13 Ta13 2.478957 1_555
S14 Ta14 2.460296 1_555
S14 Ta5 2.461753 1_555
S14 Ta13 2.486542 1_555
S15 Ta6 2.496914 1_564
S15 Ta14 2.547667 1_565
S15 Ta0 2.548784 1_654
S15 Ta26 2.589010 1_554
S16 Ta12 2.461911 1_555
S16 Ta11 2.482550 1_555
S16 Ta24 2.484549 1_555
S17 Ta22 2.379261 1_555
S17 Ta4 2.468112 1_555
S17 Ta13 2.539443 1_555
S17 Ta12 2.540571 1_555
S18 Ta13 2.466695 1_555
S18 Ta14 2.472739 1_555
S18 Ta5 2.475228 1_555
S19 Ta15 2.462644 1_655
S19 Ta0 2.463744 1_655
S19 Ta25 2.485000 1_565
S20 Ta6 2.464055 1_454
S20 Ta0 2.480236 1_544
S20 Ta14 2.482694 1_455
S21 Ta16 2.501839 1_555
S21 Ta15 2.520687 1_555
S21 Ta7 2.546293 1_555
S21 Ta22 2.590030 1_455
S22 Ta16 2.505150 1_555
S22 Ta17 2.527307 1_555
S22 Ta8 2.530041 1_555
S22 Ta22 2.583146 1_455
S23 Ta18 2.469968 1_555
S23 Ta9 2.472353 1_555
S23 Ta17 2.483935 1_555
S24 Ta0 2.458087 1_545
S24 Ta25 2.459867 1_455
S24 Ta15 2.481858 1_545
S25 Ta1 2.468846 1_554
S25 Ta18 2.482942 1_555
S25 Ta10 2.494366 1_555
S26 Ta16 2.455835 1_555
S26 Ta7 2.471790 1_555
S26 Ta15 2.481866 1_555
S27 Ta16 2.457278 1_555
S27 Ta8 2.476318 1_555
S27 Ta17 2.476661 1_555
S28 Ta18 2.469789 1_555
S28 Ta17 2.474984 1_555
S28 Ta9 2.478200 1_555
S29 Ta19 2.468357 1_555
S29 Ta11 2.469438 1_555
S29 Ta1 2.479066 1_555
S30 Ta10 2.471155 1_555
S30 Ta18 2.494032 1_555
S30 Ta1 2.494903 1_554
S31 Ta12 2.472803 1_555
S31 Ta19 2.479853 1_555
S31 Ta20 2.482035 1_555
S32 Ta20 2.470126 1_555
S32 Ta21 2.472336 1_555
S32 Ta13 2.474588 1_555
S33 Ta14 2.468544 1_565
S33 Ta21 2.476766 1_565
S33 Ta2 2.498302 1_655
S34 Ta1 2.454444 1_555
S34 Ta19 2.459898 1_555
S34 Ta11 2.482018 1_555
S35 Ta22 2.382251 1_555
S35 Ta19 2.466894 1_555
S35 Ta12 2.538173 1_555
S35 Ta20 2.538453 1_555
S36 Ta22 2.380272 1_555
S36 Ta21 2.458322 1_555
S36 Ta13 2.545671 1_555
S36 Ta20 2.547174 1_555
S37 Ta2 2.472200 1_545
S37 Ta14 2.474471 1_455
S37 Ta21 2.489702 1_455
S38 Ta23 2.465597 1_555
S38 Ta3 2.474475 1_556
S38 Ta15 2.475006 1_555
S39 Ta16 2.496796 1_555
S39 Ta24 2.531071 1_555
S39 Ta23 2.549212 1_555
S39 Ta22 2.621526 1_455
S40 Ta4 2.465180 1_555
S40 Ta24 2.473103 1_555
S40 Ta17 2.479377 1_555
S41 Ta26 2.387072 1_555
S41 Ta15 2.448486 1_555
S41 Ta23 2.527101 1_555
S41 Ta3 2.539377 1_556
S42 Ta16 2.465321 1_555
S42 Ta23 2.467378 1_555
S42 Ta24 2.486341 1_555
S43 Ta17 2.462299 1_555
S43 Ta24 2.464883 1_555
S43 Ta4 2.479673 1_555
S44 Ta6 2.510728 1_555
S44 Ta19 2.521695 1_555
S44 Ta25 2.537179 1_555
S44 Ta26 2.597779 1_545
S45 Ta7 2.462496 1_655
S45 Ta25 2.465572 1_565
S45 Ta20 2.491687 1_565
S46 Ta6 2.457244 1_555
S46 Ta19 2.476726 1_555
S46 Ta25 2.478247 1_555
S47 Ta20 2.466479 1_455
S47 Ta7 2.484094 1_545
S47 Ta25 2.488464 1_455
S48 Ta23 2.469124 1_555
S48 Ta10 2.476594 1_556
S48 Ta11 2.489395 1_555
S49 Ta26 2.384200 1_555
S49 Ta11 2.466851 1_555
S49 Ta10 2.535925 1_556
S49 Ta23 2.539132 1_555
