# generated using pymatgen
data_K3Np(H3O4)2
_symmetry_space_group_name_H-M   'P 1'
_cell_length_a   8.46462300
_cell_length_b   7.66479100
_cell_length_c   7.96821613
_cell_angle_alpha   62.88360406
_cell_angle_beta   90.00000000
_cell_angle_gamma   90.00000000
_symmetry_Int_Tables_number   1
_chemical_formula_structural   K3Np(H3O4)2
_chemical_formula_sum   'K6 Np2 H12 O16'
_cell_volume   460.14982397
_cell_formula_units_Z   2
loop_
 _symmetry_equiv_pos_site_id
 _symmetry_equiv_pos_as_xyz
  1  'x, y, z'
loop_
 _atom_site_type_symbol
 _atom_site_label
 _atom_site_symmetry_multiplicity
 _atom_site_fract_x
 _atom_site_fract_y
 _atom_site_fract_z
 _atom_site_occupancy
  K  K0  1  0.00000000  0.00000000  0.50000000  1
  K  K1  1  0.19036000  0.58705800  0.45772800  1
  K  K2  1  0.80964000  0.41294200  0.54227200  1
  K  K3  1  0.69036000  0.41294200  0.04227200  1
  K  K4  1  0.50000000  0.00000000  0.00000000  1
  K  K5  1  0.30964000  0.58705800  0.95772800  1
  Np  Np0  1  0.50000000  0.00000000  0.50000000  1
  Np  Np1  1  0.00000000  0.00000000  0.00000000  1
  H  H0  1  0.19779600  0.17050700  0.67688800  1
  H  H1  1  0.03210600  0.35448000  0.17050000  1
  H  H2  1  0.69779600  0.82949300  0.82311200  1
  H  H3  1  0.80220400  0.82949300  0.32311200  1
  H  H4  1  0.46789400  0.35448000  0.67050000  1
  H  H5  1  0.98174100  0.57268700  0.12747400  1
  H  H6  1  0.53210600  0.64552000  0.32950000  1
  H  H7  1  0.30220400  0.17050700  0.17688800  1
  H  H8  1  0.96789400  0.64552000  0.82950000  1
  H  H9  1  0.48174100  0.42731300  0.37252600  1
  H  H10  1  0.01825900  0.42731300  0.87252600  1
  H  H11  1  0.51825900  0.57268700  0.62747400  1
  O  O0  1  0.58752200  0.80630200  0.79965800  1
  O  O1  1  0.41247800  0.19369800  0.20034200  1
  O  O2  1  0.43110100  0.20383000  0.57544100  1
  O  O3  1  0.69697100  0.12798800  0.42527100  1
  O  O4  1  0.08752200  0.19369800  0.70034200  1
  O  O5  1  0.56889900  0.79617000  0.42455900  1
  O  O6  1  0.51063700  0.55827900  0.26874600  1
  O  O7  1  0.06889900  0.20383000  0.07544100  1
  O  O8  1  0.19697100  0.87201200  0.07472900  1
  O  O9  1  0.93110100  0.79617000  0.92455900  1
  O  O10  1  0.91247800  0.80630200  0.29965800  1
  O  O11  1  0.30302900  0.87201200  0.57472900  1
  O  O12  1  0.48936300  0.44172100  0.73125400  1
  O  O13  1  0.80302900  0.12798800  0.92527100  1
  O  O14  1  0.01063700  0.44172100  0.23125400  1
  O  O15  1  0.98936300  0.55827900  0.76874600  1
loop_
_geom_bond_atom_site_label_1
_geom_bond_atom_site_label_2
_geom_bond_distance
_geom_bond_site_symmetry_2
K0 O11 2.713630 1_545
K0 O3 2.713630 1_455
K0 O10 2.731662 1_445
K0 O4 2.731662 1_555
K0 O7 3.067155 1_555
K0 O9 3.067155 1_445
K0 O14 3.073674 1_555
K0 O15 3.073674 1_445
K1 O8 2.830335 1_555
K1 O10 2.830825 1_455
K1 O11 2.899186 1_555
K1 O15 2.930311 1_455
K1 O14 2.940134 1_555
K2 O13 2.830335 1_555
K2 O4 2.830825 1_655
K2 O3 2.899186 1_555
K2 O14 2.930311 1_655
K2 O15 2.940134 1_555
K3 O3 2.830335 1_555
K3 O1 2.830825 1_555
K3 O13 2.899186 1_554
K3 O12 2.930311 1_554
K3 O6 2.940134 1_555
K4 O13 2.713630 1_554
K4 O8 2.713630 1_545
K4 O1 2.731662 1_555
K4 O0 2.731662 1_544
K4 O2 3.067155 1_554
K4 O5 3.067155 1_545
K4 O6 3.073674 1_545
K4 O12 3.073674 1_554
K5 O11 2.830335 1_555
K5 O0 2.830825 1_555
K5 O8 2.899186 1_556
K5 O6 2.930311 1_556
K5 O12 2.940134 1_555
Np0 O11 1.887927 1_545
Np0 O3 1.887927 1_555
Np0 O5 1.999611 1_545
Np0 O2 1.999611 1_555
Np0 O1 2.285335 1_555
Np0 O0 2.285335 1_545
Np1 O13 1.887927 1_454
Np1 O8 1.887927 1_545
Np1 O9 1.999611 1_444
Np1 O7 1.999611 1_555
Np1 O4 2.285335 1_554
Np1 O10 2.285335 1_445
H0 O4 0.983918 1_555
H0 K0 2.859548 1_555
H1 O14 1.004794 1_555
H1 O7 1.673730 1_555
H1 K0 2.801150 1_555
H2 O0 0.983918 1_555
H2 K4 2.859548 1_566
H3 O10 0.983918 1_555
H3 K0 2.859548 1_665
H4 O12 1.004794 1_555
H4 O2 1.673730 1_555
H4 K4 2.801150 1_556
H5 O14 0.997298 1_655
H6 O6 1.004794 1_555
H6 O5 1.673730 1_555
H6 K4 2.801150 1_565
H7 O1 0.983918 1_555
H7 K4 2.859548 1_555
H8 O15 1.004794 1_555
H8 O9 1.673730 1_555
H8 K0 2.801150 1_665
H9 O6 0.997298 1_555
H10 O15 0.997298 1_455
H11 O12 0.997298 1_555
