# generated using pymatgen
data_Bi3Ru3O11
_symmetry_space_group_name_H-M   'P 1'
_cell_length_a   9.40169400
_cell_length_b   9.40169400
_cell_length_c   9.40169400
_cell_angle_alpha   90.00000000
_cell_angle_beta   90.00000000
_cell_angle_gamma   90.00000000
_symmetry_Int_Tables_number   1
_chemical_formula_structural   Bi3Ru3O11
_chemical_formula_sum   'Bi12 Ru12 O44'
_cell_volume   831.03312645
_cell_formula_units_Z   4
loop_
 _symmetry_equiv_pos_site_id
 _symmetry_equiv_pos_as_xyz
  1  'x, y, z'
loop_
 _atom_site_type_symbol
 _atom_site_label
 _atom_site_symmetry_multiplicity
 _atom_site_fract_x
 _atom_site_fract_y
 _atom_site_fract_z
 _atom_site_occupancy
  Bi  Bi0  1  0.75000000  0.75000000  0.75000000  1
  Bi  Bi1  1  0.25000000  0.25000000  0.75000000  1
  Bi  Bi2  1  0.75000000  0.25000000  0.25000000  1
  Bi  Bi3  1  0.25000000  0.75000000  0.25000000  1
  Bi  Bi4  1  0.13378500  0.13378500  0.13378500  1
  Bi  Bi5  1  0.86621500  0.86621500  0.13378500  1
  Bi  Bi6  1  0.13378500  0.86621500  0.86621500  1
  Bi  Bi7  1  0.86621500  0.13378500  0.86621500  1
  Bi  Bi8  1  0.36621500  0.36621500  0.36621500  1
  Bi  Bi9  1  0.63378500  0.63378500  0.36621500  1
  Bi  Bi10  1  0.36621500  0.63378500  0.63378500  1
  Bi  Bi11  1  0.63378500  0.36621500  0.63378500  1
  Ru  Ru0  1  0.13633500  0.50000000  0.00000000  1
  Ru  Ru1  1  0.00000000  0.13633500  0.50000000  1
  Ru  Ru2  1  0.50000000  0.00000000  0.13633500  1
  Ru  Ru3  1  0.00000000  0.86366500  0.50000000  1
  Ru  Ru4  1  0.50000000  0.00000000  0.86366500  1
  Ru  Ru5  1  0.86366500  0.50000000  0.00000000  1
  Ru  Ru6  1  0.36366500  0.00000000  0.50000000  1
  Ru  Ru7  1  0.50000000  0.36366500  0.00000000  1
  Ru  Ru8  1  0.00000000  0.50000000  0.36366500  1
  Ru  Ru9  1  0.50000000  0.63633500  0.00000000  1
  Ru  Ru10  1  0.00000000  0.50000000  0.63633500  1
  Ru  Ru11  1  0.63633500  0.00000000  0.50000000  1
  O  O0  1  0.33898200  0.00000000  0.00000000  1
  O  O1  1  0.00000000  0.33898200  0.00000000  1
  O  O2  1  0.00000000  0.00000000  0.33898200  1
  O  O3  1  0.00000000  0.66101800  0.00000000  1
  O  O4  1  0.00000000  0.00000000  0.66101800  1
  O  O5  1  0.66101800  0.00000000  0.00000000  1
  O  O6  1  0.16101800  0.50000000  0.50000000  1
  O  O7  1  0.50000000  0.16101800  0.50000000  1
  O  O8  1  0.50000000  0.50000000  0.16101800  1
  O  O9  1  0.50000000  0.83898200  0.50000000  1
  O  O10  1  0.50000000  0.50000000  0.83898200  1
  O  O11  1  0.83898200  0.50000000  0.50000000  1
  O  O12  1  0.89680700  0.89680700  0.89680700  1
  O  O13  1  0.10319300  0.10319300  0.89680700  1
  O  O14  1  0.89680700  0.10319300  0.10319300  1
  O  O15  1  0.10319300  0.89680700  0.10319300  1
  O  O16  1  0.60319300  0.60319300  0.60319300  1
  O  O17  1  0.39680700  0.39680700  0.60319300  1
  O  O18  1  0.60319300  0.39680700  0.39680700  1
  O  O19  1  0.39680700  0.60319300  0.39680700  1
  O  O20  1  0.34935100  0.99339200  0.28583800  1
  O  O21  1  0.28583800  0.34935100  0.99339200  1
  O  O22  1  0.99339200  0.28583800  0.34935100  1
  O  O23  1  0.00660800  0.71416200  0.34935100  1
  O  O24  1  0.28583800  0.65064900  0.00660800  1
  O  O25  1  0.00660800  0.28583800  0.65064900  1
  O  O26  1  0.71416200  0.65064900  0.99339200  1
  O  O27  1  0.71416200  0.34935100  0.00660800  1
  O  O28  1  0.99339200  0.71416200  0.65064900  1
  O  O29  1  0.34935100  0.00660800  0.71416200  1
  O  O30  1  0.65064900  0.99339200  0.71416200  1
  O  O31  1  0.65064900  0.00660800  0.28583800  1
  O  O32  1  0.15064900  0.50660800  0.21416200  1
  O  O33  1  0.21416200  0.15064900  0.50660800  1
  O  O34  1  0.50660800  0.21416200  0.15064900  1
  O  O35  1  0.49339200  0.78583800  0.15064900  1
  O  O36  1  0.21416200  0.84935100  0.49339200  1
  O  O37  1  0.49339200  0.21416200  0.84935100  1
  O  O38  1  0.78583800  0.84935100  0.50660800  1
  O  O39  1  0.78583800  0.15064900  0.49339200  1
  O  O40  1  0.50660800  0.78583800  0.84935100  1
  O  O41  1  0.15064900  0.49339200  0.78583800  1
  O  O42  1  0.84935100  0.50660800  0.78583800  1
  O  O43  1  0.84935100  0.49339200  0.21416200  1
loop_
_geom_bond_atom_site_label_1
_geom_bond_atom_site_label_2
_geom_bond_distance
_geom_bond_site_symmetry_2
Bi0 O12 2.390636 1_555
Bi0 O16 2.390636 1_555
Bi0 O30 2.494457 1_555
Bi0 O28 2.494457 1_555
Bi0 O26 2.494457 1_555
Bi0 O40 2.494457 1_555
Bi0 O38 2.494457 1_555
Bi0 O42 2.494457 1_555
Bi1 O17 2.390636 1_555
Bi1 O13 2.390636 1_555
Bi1 O21 2.494457 1_555
Bi1 O41 2.494457 1_555
Bi1 O37 2.494457 1_555
Bi1 O33 2.494457 1_555
Bi1 O29 2.494457 1_555
Bi1 O25 2.494457 1_555
Bi2 O18 2.390636 1_555
Bi2 O14 2.390636 1_555
Bi2 O22 2.494457 1_555
Bi2 O39 2.494457 1_555
Bi2 O43 2.494457 1_555
Bi2 O34 2.494457 1_555
Bi2 O27 2.494457 1_555
Bi2 O31 2.494457 1_555
Bi3 O19 2.390636 1_555
Bi3 O15 2.390636 1_555
Bi3 O20 2.494457 1_555
Bi3 O35 2.494457 1_555
Bi3 O36 2.494457 1_555
Bi3 O32 2.494457 1_555
Bi3 O23 2.494457 1_555
Bi3 O24 2.494457 1_555
Bi4 O13 2.264819 1_554
Bi4 O15 2.264819 1_545
Bi4 O14 2.264819 1_455
Bi4 O0 2.624111 1_555
Bi4 O1 2.624111 1_555
Bi4 O2 2.624111 1_555
Bi4 O22 2.809503 1_455
Bi4 O21 2.809503 1_554
Bi4 O20 2.809503 1_545
Bi5 O15 2.264819 1_655
Bi5 O14 2.264819 1_565
Bi5 O12 2.264819 1_554
Bi5 O5 2.624111 1_565
Bi5 O3 2.624111 1_655
Bi5 O2 2.624111 1_665
Bi5 O23 2.809503 1_655
Bi5 O31 2.809503 1_565
Bi5 O26 2.809503 1_554
Bi6 O15 2.264819 1_556
Bi6 O13 2.264819 1_565
Bi6 O12 2.264819 1_455
Bi6 O3 2.624111 1_556
Bi6 O4 2.624111 1_565
Bi6 O0 2.624111 1_566
Bi6 O29 2.809503 1_565
Bi6 O24 2.809503 1_556
Bi6 O28 2.809503 1_455
Bi7 O13 2.264819 1_655
Bi7 O14 2.264819 1_556
Bi7 O12 2.264819 1_545
Bi7 O5 2.624111 1_556
Bi7 O4 2.624111 1_655
Bi7 O1 2.624111 1_656
Bi7 O27 2.809503 1_556
Bi7 O25 2.809503 1_655
Bi7 O30 2.809503 1_545
Bi8 O19 2.264819 1_555
Bi8 O17 2.264819 1_555
Bi8 O18 2.264819 1_555
Bi8 O6 2.624111 1_555
Bi8 O7 2.624111 1_555
Bi8 O8 2.624111 1_555
Bi8 O33 2.809503 1_555
Bi8 O32 2.809503 1_555
Bi8 O34 2.809503 1_555
Bi9 O19 2.264819 1_555
Bi9 O18 2.264819 1_555
Bi9 O16 2.264819 1_555
Bi9 O8 2.624111 1_555
Bi9 O9 2.624111 1_555
Bi9 O11 2.624111 1_555
Bi9 O35 2.809503 1_555
Bi9 O43 2.809503 1_555
Bi9 O38 2.809503 1_555
Bi10 O19 2.264819 1_555
Bi10 O17 2.264819 1_555
Bi10 O16 2.264819 1_555
Bi10 O6 2.624111 1_555
Bi10 O9 2.624111 1_555
Bi10 O10 2.624111 1_555
Bi10 O41 2.809503 1_555
Bi10 O36 2.809503 1_555
Bi10 O40 2.809503 1_555
Bi11 O17 2.264819 1_555
Bi11 O18 2.264819 1_555
Bi11 O16 2.264819 1_555
Bi11 O7 2.624111 1_555
Bi11 O10 2.624111 1_555
Bi11 O11 2.624111 1_555
Bi11 O39 2.809503 1_555
Bi11 O37 2.809503 1_555
Bi11 O42 2.809503 1_555
O0 Ru2 1.983602 1_555
O0 Ru4 1.983602 1_554
O1 Ru0 1.983602 1_555
O1 Ru5 1.983602 1_455
O2 Ru1 1.983602 1_555
O2 Ru3 1.983602 1_545
O3 Ru0 1.983602 1_555
O3 Ru5 1.983602 1_455
O4 Ru1 1.983602 1_555
O4 Ru3 1.983602 1_545
O5 Ru2 1.983602 1_555
O5 Ru4 1.983602 1_554
O6 Ru10 1.983602 1_555
O6 Ru8 1.983602 1_555
O7 Ru11 1.983602 1_555
O7 Ru6 1.983602 1_555
O8 Ru9 1.983602 1_555
O8 Ru7 1.983602 1_555
O9 Ru11 1.983602 1_565
O9 Ru6 1.983602 1_565
O10 Ru9 1.983602 1_556
O10 Ru7 1.983602 1_556
O11 Ru10 1.983602 1_655
O11 Ru8 1.983602 1_655
O20 Ru2 1.996392 1_565
O20 Ru6 2.018934 1_565
O21 Ru0 1.996392 1_556
O21 Ru7 2.018934 1_556
O22 Ru1 1.996392 1_655
O22 Ru8 2.018934 1_655
O23 Ru3 1.996392 1_555
O23 Ru8 2.018934 1_555
O24 Ru0 1.996392 1_555
O24 Ru9 2.018934 1_555
O25 Ru1 1.996392 1_555
O25 Ru10 2.018934 1_555
O26 Ru5 1.996392 1_556
O26 Ru9 2.018934 1_556
O27 Ru5 1.996392 1_555
O27 Ru7 2.018934 1_555
O28 Ru3 1.996392 1_655
O28 Ru10 2.018934 1_655
O29 Ru4 1.996392 1_555
O29 Ru6 2.018934 1_555
O30 Ru4 1.996392 1_565
O30 Ru11 2.018934 1_565
O31 Ru2 1.996392 1_555
O31 Ru11 2.018934 1_555
O32 Ru8 1.996392 1_555
O32 Ru0 2.018934 1_555
O33 Ru6 1.996392 1_555
O33 Ru1 2.018934 1_555
O34 Ru7 1.996392 1_555
O34 Ru2 2.018934 1_555
O35 Ru9 1.996392 1_555
O35 Ru2 2.018934 1_565
O36 Ru6 1.996392 1_565
O36 Ru3 2.018934 1_555
O37 Ru7 1.996392 1_556
O37 Ru4 2.018934 1_555
O38 Ru11 1.996392 1_565
O38 Ru3 2.018934 1_655
O39 Ru11 1.996392 1_555
O39 Ru1 2.018934 1_655
O40 Ru9 1.996392 1_556
O40 Ru4 2.018934 1_565
O41 Ru10 1.996392 1_555
O41 Ru0 2.018934 1_556
O42 Ru10 1.996392 1_655
O42 Ru5 2.018934 1_556
O43 Ru8 1.996392 1_655
O43 Ru5 2.018934 1_555
