# generated using pymatgen
data_KHoBeF6
_symmetry_space_group_name_H-M   'P 1'
_cell_length_a   5.84194100
_cell_length_b   6.42386400
_cell_length_c   7.08613695
_cell_angle_alpha   66.98865324
_cell_angle_beta   90.00000000
_cell_angle_gamma   90.00000000
_symmetry_Int_Tables_number   1
_chemical_formula_structural   KHoBeF6
_chemical_formula_sum   'K2 Ho2 Be2 F12'
_cell_volume   244.76685663
_cell_formula_units_Z   2
loop_
 _symmetry_equiv_pos_site_id
 _symmetry_equiv_pos_as_xyz
  1  'x, y, z'
loop_
 _atom_site_type_symbol
 _atom_site_label
 _atom_site_symmetry_multiplicity
 _atom_site_fract_x
 _atom_site_fract_y
 _atom_site_fract_z
 _atom_site_occupancy
  K  K0  1  0.25000000  0.57139700  0.79544000  1
  K  K1  1  0.75000000  0.42860300  0.20456000  1
  Ho  Ho0  1  0.25000000  0.88810800  0.18023500  1
  Ho  Ho1  1  0.75000000  0.11189200  0.81976500  1
  Be  Be0  1  0.25000000  0.26689500  0.46404800  1
  Be  Be1  1  0.75000000  0.73310500  0.53595200  1
  F  F0  1  0.25000000  0.48861900  0.26263900  1
  F  F1  1  0.53446300  0.73273600  0.40454500  1
  F  F2  1  0.46553700  0.26726400  0.59545500  1
  F  F3  1  0.50152300  0.82179100  0.96523300  1
  F  F4  1  0.49847700  0.17820900  0.03476700  1
  F  F5  1  0.00152300  0.17820900  0.03476700  1
  F  F6  1  0.99847700  0.82179100  0.96523300  1
  F  F7  1  0.75000000  0.94278300  0.59116400  1
  F  F8  1  0.96553700  0.73273600  0.40454500  1
  F  F9  1  0.03446300  0.26726400  0.59545500  1
  F  F10  1  0.25000000  0.05721700  0.40883600  1
  F  F11  1  0.75000000  0.51138100  0.73736100  1
loop_
_geom_bond_atom_site_label_1
_geom_bond_atom_site_label_2
_geom_bond_distance
_geom_bond_site_symmetry_2
Be0 F10 1.542507 1_555
Be0 F2 1.566613 1_555
Be0 F9 1.566613 1_555
Be0 F0 1.573635 1_555
Be1 F7 1.542507 1_555
Be1 F1 1.566613 1_555
Be1 F8 1.566613 1_555
Be1 F11 1.573635 1_555
F0 Ho0 2.398979 1_555
F0 K1 2.995686 1_555
F0 K1 2.995686 1_455
F0 K0 3.141132 1_554
F1 Ho0 2.245877 1_555
F1 K0 3.043659 1_555
F1 K1 3.094395 1_555
F2 Ho1 2.245877 1_555
F2 K1 3.043659 1_555
F2 K0 3.094395 1_555
F3 Ho1 2.267308 1_565
F3 Ho0 2.273580 1_556
F3 K0 2.776158 1_555
F3 K1 2.830874 1_556
F4 Ho0 2.267308 1_545
F4 Ho1 2.273580 1_554
F4 K1 2.776158 1_555
F4 K0 2.830874 1_554
F5 Ho0 2.267308 1_545
F5 Ho1 2.273580 1_454
F5 K1 2.776158 1_455
F5 K0 2.830874 1_554
F6 Ho1 2.267308 1_565
F6 Ho0 2.273580 1_656
F6 K0 2.776158 1_655
F6 K1 2.830874 1_556
F7 Ho1 2.275963 1_565
F7 K1 3.249667 1_565
F8 Ho0 2.245877 1_655
F8 K0 3.043659 1_655
F8 K1 3.094395 1_555
F9 Ho1 2.245877 1_455
F9 K1 3.043659 1_455
F9 K0 3.094395 1_555
F10 Ho0 2.275963 1_545
F10 K0 3.249667 1_545
F11 Ho1 2.398979 1_555
F11 K0 2.995686 1_555
F11 K0 2.995686 1_655
F11 K1 3.141132 1_556
