# generated using pymatgen
data_BaSn5
_symmetry_space_group_name_H-M   'P 1'
_cell_length_a   5.38734558
_cell_length_b   5.38734707
_cell_length_c   7.31305726
_cell_angle_alpha   90.00000000
_cell_angle_beta   90.00000000
_cell_angle_gamma   120.00000350
_symmetry_Int_Tables_number   1
_chemical_formula_structural   BaSn5
_chemical_formula_sum   'Ba1 Sn5'
_cell_volume   183.81433615
_cell_formula_units_Z   1
loop_
 _symmetry_equiv_pos_site_id
 _symmetry_equiv_pos_as_xyz
  1  'x, y, z'
loop_
 _atom_site_type_symbol
 _atom_site_label
 _atom_site_symmetry_multiplicity
 _atom_site_fract_x
 _atom_site_fract_y
 _atom_site_fract_z
 _atom_site_occupancy
  Ba  Ba0  1  -0.00000000  -0.00000000  0.50000000  1
  Sn  Sn0  1  0.66666700  0.33333300  0.79599496  1
  Sn  Sn1  1  -0.00000000  -0.00000000  -0.00000000  1
  Sn  Sn2  1  0.66666700  0.33333300  0.20400504  1
  Sn  Sn3  1  0.33333300  0.66666700  0.20400504  1
  Sn  Sn4  1  0.33333300  0.66666700  0.79599496  1
loop_
_geom_bond_atom_site_label_1
_geom_bond_atom_site_label_2
_geom_bond_distance
_geom_bond_site_symmetry_2
Ba0 Sn1 3.656529 1_555
Ba0 Sn1 3.656529 1_556
Ba0 Sn3 3.789472 1_545
Ba0 Sn2 3.789472 1_455
Ba0 Sn0 3.789472 1_455
Ba0 Sn4 3.789472 1_545
Ba0 Sn4 3.789475 1_445
Ba0 Sn2 3.789475 1_555
Ba0 Sn3 3.789475 1_445
Ba0 Sn0 3.789475 1_555
Ba0 Sn2 3.789476 1_445
Ba0 Sn3 3.789476 1_555
Ba0 Sn0 3.789476 1_445
Ba0 Sn4 3.789476 1_555
Sn0 Sn2 2.983801 1_556
Sn0 Sn4 3.110382 1_655
Sn0 Sn4 3.110383 1_545
Sn0 Sn4 3.110392 1_555
Sn2 Sn3 3.110382 1_655
Sn2 Sn3 3.110383 1_545
Sn2 Sn3 3.110392 1_555
Sn3 Sn4 2.983801 1_554
