# generated using pymatgen
data_Ce(Ni2Sn)2
_symmetry_space_group_name_H-M   'P 1'
_cell_length_a   6.71216169
_cell_length_b   6.71216169
_cell_length_c   6.71216169
_cell_angle_alpha   110.77452946
_cell_angle_beta   110.77452946
_cell_angle_gamma   106.89491583
_symmetry_Int_Tables_number   1
_chemical_formula_structural   Ce(Ni2Sn)2
_chemical_formula_sum   'Ce2 Ni8 Sn4'
_cell_volume   232.43954171
_cell_formula_units_Z   2
loop_
 _symmetry_equiv_pos_site_id
 _symmetry_equiv_pos_as_xyz
  1  'x, y, z'
loop_
 _atom_site_type_symbol
 _atom_site_label
 _atom_site_symmetry_multiplicity
 _atom_site_fract_x
 _atom_site_fract_y
 _atom_site_fract_z
 _atom_site_occupancy
  Ce  Ce0  1  0.75000000  0.75000000  0.00000000  1
  Ce  Ce1  1  0.25000000  0.25000000  0.00000000  1
  Ni  Ni0  1  0.47440300  0.97440300  0.77997800  1
  Ni  Ni1  1  0.02559700  0.80557500  0.50000000  1
  Ni  Ni2  1  0.30557500  0.52559700  0.50000000  1
  Ni  Ni3  1  0.19442500  0.69442500  0.22002200  1
  Ni  Ni4  1  0.52559700  0.02559700  0.22002200  1
  Ni  Ni5  1  0.80557500  0.30557500  0.77997800  1
  Ni  Ni6  1  0.69442500  0.47440300  0.50000000  1
  Ni  Ni7  1  0.97440300  0.19442500  0.50000000  1
  Sn  Sn0  1  0.84125800  0.34125800  0.18251500  1
  Sn  Sn1  1  0.65874200  0.84125800  0.50000000  1
  Sn  Sn2  1  0.34125800  0.15874200  0.50000000  1
  Sn  Sn3  1  0.15874200  0.65874200  0.81748500  1
loop_
_geom_bond_atom_site_label_1
_geom_bond_atom_site_label_2
_geom_bond_distance
_geom_bond_site_symmetry_2
Ce0 Ni5 3.021786 1_554
Ce0 Ni4 3.021786 1_565
Ce0 Ni0 3.021786 1_554
Ce0 Ni2 3.021786 1_554
Ce0 Ni3 3.021786 1_655
Ce0 Ni7 3.021786 1_565
Ce0 Ni6 3.021786 1_554
Ce0 Ni1 3.021786 1_655
Ce0 Sn0 3.497390 1_555
Ce0 Sn3 3.497390 1_654
Ce0 Sn1 3.497394 1_554
Ce0 Sn2 3.497394 1_665
Ce0 Sn2 3.497394 1_554
Ce0 Sn1 3.497394 1_555
Ce0 Sn3 3.497395 1_554
Ce0 Sn0 3.497395 1_565
Ce1 Ni0 3.021786 1_544
Ce1 Ni3 3.021786 1_555
Ce1 Ni2 3.021786 1_555
Ce1 Ni7 3.021786 1_454
Ce1 Ni6 3.021786 1_555
Ce1 Ni1 3.021786 1_544
Ce1 Ni4 3.021786 1_555
Ce1 Ni5 3.021786 1_454
Ce1 Sn3 3.497390 1_554
Ce1 Sn0 3.497390 1_455
Ce1 Sn1 3.497394 1_555
Ce1 Sn2 3.497394 1_555
Ce1 Sn2 3.497394 1_554
Ce1 Sn1 3.497394 1_444
Ce1 Sn0 3.497395 1_555
Ce1 Sn3 3.497395 1_544
Ni0 Ni2 2.525838 1_555
Ni0 Ni1 2.525838 1_555
Ni0 Sn0 2.542343 1_566
Ni0 Sn1 2.638568 1_555
Ni0 Sn2 2.638568 1_565
Ni0 Ni5 2.647716 1_565
Ni0 Sn3 2.681277 1_555
Ni0 Ni4 2.729760 1_566
Ni1 Ni3 2.525838 1_555
Ni1 Sn1 2.542346 1_455
Ni1 Sn0 2.638569 1_455
Ni1 Sn3 2.638573 1_555
Ni1 Ni6 2.647716 1_455
Ni1 Sn2 2.681273 1_565
Ni1 Ni7 2.729760 1_465
Ni2 Ni3 2.525838 1_555
Ni2 Sn2 2.542346 1_555
Ni2 Sn0 2.638569 1_455
Ni2 Sn3 2.638573 1_555
Ni2 Ni7 2.647716 1_455
Ni2 Sn1 2.681273 1_555
Ni2 Ni6 2.729760 1_555
Ni3 Sn3 2.542339 1_554
Ni3 Sn1 2.638568 1_555
Ni3 Sn2 2.638568 1_565
Ni3 Ni4 2.647716 1_565
Ni3 Sn0 2.681269 1_455
Ni3 Ni5 2.729760 1_454
Ni4 Ni7 2.525838 1_555
Ni4 Ni6 2.525838 1_555
Ni4 Sn3 2.542343 1_544
Ni4 Sn1 2.638568 1_545
Ni4 Sn2 2.638568 1_555
Ni4 Sn0 2.681277 1_555
Ni5 Ni6 2.525838 1_555
Ni5 Ni7 2.525838 1_555
Ni5 Sn0 2.542339 1_556
Ni5 Sn2 2.638568 1_555
Ni5 Sn1 2.638568 1_545
Ni5 Sn3 2.681269 1_655
Ni6 Sn1 2.542346 1_555
Ni6 Sn3 2.638569 1_655
Ni6 Sn0 2.638573 1_555
Ni6 Sn2 2.681273 1_555
Ni7 Sn2 2.542346 1_655
Ni7 Sn3 2.638569 1_655
Ni7 Sn0 2.638573 1_555
Ni7 Sn1 2.681273 1_545
