# generated using pymatgen
data_W8O21
_symmetry_space_group_name_H-M   'P 1'
_cell_length_a   3.85741600
_cell_length_b   18.42037700
_cell_length_c   21.94028800
_cell_angle_alpha   90.00000000
_cell_angle_beta   90.00000000
_cell_angle_gamma   90.00000000
_symmetry_Int_Tables_number   1
_chemical_formula_structural   W8O21
_chemical_formula_sum   'W32 O84'
_cell_volume   1558.96841369
_cell_formula_units_Z   4
loop_
 _symmetry_equiv_pos_site_id
 _symmetry_equiv_pos_as_xyz
  1  'x, y, z'
loop_
 _atom_site_type_symbol
 _atom_site_label
 _atom_site_symmetry_multiplicity
 _atom_site_fract_x
 _atom_site_fract_y
 _atom_site_fract_z
 _atom_site_occupancy
  W  W0  1  0.00000000  0.41105200  0.27365300  1
  W  W1  1  0.00000000  0.91105200  0.22634700  1
  W  W2  1  0.00000000  0.90997900  0.75356800  1
  W  W3  1  0.00000000  0.14516400  0.94238400  1
  W  W4  1  0.00000000  0.64516400  0.55761600  1
  W  W5  1  0.00000000  0.77736000  0.65250500  1
  W  W6  1  0.00000000  0.85483600  0.05761600  1
  W  W7  1  0.00000000  0.34140900  0.01312000  1
  W  W8  1  0.00000000  0.08894800  0.77365300  1
  W  W9  1  0.00000000  0.55719300  0.40436700  1
  W  W10  1  0.00000000  0.58894800  0.72634700  1
  W  W11  1  0.00000000  0.65859100  0.98688000  1
  W  W12  1  0.00000000  0.98725600  0.61309200  1
  W  W13  1  0.00000000  0.25188800  0.66718800  1
  W  W14  1  0.00000000  0.09002100  0.24643200  1
  W  W15  1  0.00000000  0.51274400  0.11309200  1
  W  W16  1  0.00000000  0.44280700  0.59563300  1
  W  W17  1  0.00000000  0.27736000  0.84749500  1
  W  W18  1  0.00000000  0.74811200  0.33281200  1
  W  W19  1  0.00000000  0.35483600  0.44238400  1
  W  W20  1  0.00000000  0.94280700  0.90436700  1
  W  W21  1  0.00000000  0.72264000  0.15250500  1
  W  W22  1  0.00000000  0.22264000  0.34749500  1
  W  W23  1  0.00000000  0.24811200  0.16718800  1
  W  W24  1  0.00000000  0.01274400  0.38690800  1
  W  W25  1  0.00000000  0.84140900  0.48688000  1
  W  W26  1  0.00000000  0.15859100  0.51312000  1
  W  W27  1  0.00000000  0.48725600  0.88690800  1
  W  W28  1  0.00000000  0.05719300  0.09563300  1
  W  W29  1  0.00000000  0.40997900  0.74643200  1
  W  W30  1  0.00000000  0.59002100  0.25356800  1
  W  W31  1  0.00000000  0.75188800  0.83281200  1
  O  O0  1  0.00000000  0.99080500  0.81888000  1
  O  O1  1  0.00000000  0.57468900  0.04748000  1
  O  O2  1  0.00000000  0.26016700  0.94138100  1
  O  O3  1  0.00000000  0.33562900  0.20825800  1
  O  O4  1  0.00000000  0.53548500  0.56436900  1
  O  O5  1  0.50000000  0.51213200  0.11935200  1
  O  O6  1  0.50000000  0.08985700  0.24603500  1
  O  O7  1  0.50000000  0.44100900  0.59882100  1
  O  O8  1  0.00000000  0.36228700  0.66020800  1
  O  O9  1  0.00000000  0.49080500  0.68112000  1
  O  O10  1  0.00000000  0.27160900  0.08542200  1
  O  O11  1  0.00000000  0.16437100  0.70825800  1
  O  O12  1  0.50000000  0.75676300  0.83082100  1
  O  O13  1  0.50000000  0.27719400  0.84770400  1
  O  O14  1  0.00000000  0.79833800  0.74414800  1
  O  O15  1  0.50000000  0.14618600  0.94142000  1
  O  O16  1  0.50000000  0.74323700  0.33082100  1
  O  O17  1  0.50000000  0.22280600  0.34770400  1
  O  O18  1  0.00000000  0.87606500  0.96789000  1
  O  O19  1  0.00000000  0.37606500  0.53211000  1
  O  O20  1  0.50000000  0.55899100  0.40117900  1
  O  O21  1  0.00000000  0.77160900  0.41457800  1
  O  O22  1  0.00000000  0.92128200  0.42246700  1
  O  O23  1  0.50000000  0.94100900  0.90117900  1
  O  O24  1  0.00000000  0.83562900  0.29174200  1
  O  O25  1  0.00000000  0.42128200  0.07753300  1
  O  O26  1  0.00000000  0.73983300  0.05861900  1
  O  O27  1  0.50000000  0.72280600  0.15229600  1
  O  O28  1  0.50000000  0.40944400  0.27671400  1
  O  O29  1  0.00000000  0.00956700  0.70718500  1
  O  O30  1  0.00000000  0.13771300  0.16020800  1
  O  O31  1  0.50000000  0.25676300  0.66917900  1
  O  O32  1  0.50000000  0.01213200  0.38064800  1
  O  O33  1  0.00000000  0.12393500  0.03211000  1
  O  O34  1  0.50000000  0.24323700  0.16917900  1
  O  O35  1  0.50000000  0.48786800  0.88064800  1
  O  O36  1  0.50000000  0.58985700  0.25396500  1
  O  O37  1  0.00000000  0.62393500  0.46789000  1
  O  O38  1  0.00000000  0.88823400  0.66230600  1
  O  O39  1  0.50000000  0.64618600  0.55858000  1
  O  O40  1  0.50000000  0.85381400  0.05858000  1
  O  O41  1  0.00000000  0.86228700  0.83979200  1
  O  O42  1  0.00000000  0.22839100  0.58542200  1
  O  O43  1  0.00000000  0.29833800  0.75585200  1
  O  O44  1  0.50000000  0.16104100  0.51116800  1
  O  O45  1  0.00000000  0.66433200  0.65247000  1
  O  O46  1  0.50000000  0.41014300  0.74603500  1
  O  O47  1  0.00000000  0.00919500  0.18112000  1
  O  O48  1  0.50000000  0.33895900  0.01116800  1
  O  O49  1  0.00000000  0.57871800  0.92246700  1
  O  O50  1  0.50000000  0.90944400  0.22328600  1
  O  O51  1  0.00000000  0.07871800  0.57753300  1
  O  O52  1  0.00000000  0.42531100  0.95252000  1
  O  O53  1  0.00000000  0.92531100  0.54748000  1
  O  O54  1  0.50000000  0.77719400  0.65229600  1
  O  O55  1  0.00000000  0.38823400  0.83769400  1
  O  O56  1  0.50000000  0.09055600  0.77671400  1
  O  O57  1  0.00000000  0.07468900  0.45252000  1
  O  O58  1  0.00000000  0.16433200  0.84753000  1
  O  O59  1  0.00000000  0.33566800  0.34753000  1
  O  O60  1  0.00000000  0.66437100  0.79174200  1
  O  O61  1  0.00000000  0.50919500  0.31888000  1
  O  O62  1  0.00000000  0.99043300  0.29281500  1
  O  O63  1  0.00000000  0.72839100  0.91457800  1
  O  O64  1  0.00000000  0.63771300  0.33979200  1
  O  O65  1  0.00000000  0.83566800  0.15247000  1
  O  O66  1  0.00000000  0.11176600  0.33769400  1
  O  O67  1  0.00000000  0.23983300  0.44138100  1
  O  O68  1  0.00000000  0.70166200  0.24414800  1
  O  O69  1  0.50000000  0.66104100  0.98883200  1
  O  O70  1  0.50000000  0.98786800  0.61935200  1
  O  O71  1  0.50000000  0.83895900  0.48883200  1
  O  O72  1  0.00000000  0.03548500  0.93563100  1
  O  O73  1  0.00000000  0.50956700  0.79281500  1
  O  O74  1  0.00000000  0.46451500  0.43563100  1
  O  O75  1  0.50000000  0.35381400  0.44142000  1
  O  O76  1  0.00000000  0.61176600  0.16230600  1
  O  O77  1  0.00000000  0.20166200  0.25585200  1
  O  O78  1  0.00000000  0.76016700  0.55861900  1
  O  O79  1  0.00000000  0.49043300  0.20718500  1
  O  O80  1  0.00000000  0.96451500  0.06436900  1
  O  O81  1  0.50000000  0.05899100  0.09882100  1
  O  O82  1  0.50000000  0.91014300  0.75396500  1
  O  O83  1  0.50000000  0.59055600  0.72328600  1
loop_
_geom_bond_atom_site_label_1
_geom_bond_atom_site_label_2
_geom_bond_distance
_geom_bond_site_symmetry_2
O0 W8 2.062256 1_565
O0 W2 2.066409 1_555
O0 W20 2.073552 1_555
O1 W15 1.836924 1_555
O1 W11 2.038719 1_554
O2 W17 2.084090 1_555
O2 W3 2.118513 1_555
O2 W7 2.171850 1_556
O3 W23 1.846839 1_555
O3 W0 1.997203 1_555
O4 W16 1.839816 1_555
O4 W4 2.025754 1_555
O5 W15 1.933625 1_555
O5 W15 1.933625 1_655
O6 W14 1.928730 1_555
O6 W14 1.928730 1_655
O7 W16 1.930260 1_555
O7 W16 1.930260 1_655
O8 W13 2.039349 1_555
O8 W16 2.051149 1_555
O8 W29 2.085809 1_555
O9 W10 2.062256 1_555
O9 W29 2.066409 1_555
O9 W16 2.073552 1_555
O10 W23 1.845444 1_555
O10 W7 2.041951 1_555
O11 W13 1.846839 1_555
O11 W8 1.997203 1_555
O12 W31 1.931291 1_555
O12 W31 1.931291 1_655
O13 W17 1.928716 1_555
O13 W17 1.928716 1_655
O14 W5 2.047470 1_555
O14 W2 2.066829 1_555
O14 W31 2.125169 1_555
O15 W3 1.928916 1_555
O15 W3 1.928916 1_655
O16 W18 1.931291 1_655
O16 W18 1.931291 1_555
O17 W22 1.928716 1_655
O17 W22 1.928716 1_555
O18 W20 1.858465 1_555
O18 W6 2.007077 1_556
O19 W16 1.858465 1_555
O19 W19 2.007077 1_555
O20 W9 1.930260 1_655
O20 W9 1.930260 1_555
O21 W18 1.845444 1_555
O21 W25 2.041951 1_555
O22 W24 1.856638 1_565
O22 W25 2.040084 1_555
O23 W20 1.930260 1_555
O23 W20 1.930260 1_655
O24 W18 1.846839 1_555
O24 W1 1.997203 1_555
O25 W15 1.856638 1_555
O25 W7 2.040084 1_555
O26 W21 2.084090 1_555
O26 W6 2.118513 1_555
O26 W11 2.171850 1_554
O27 W21 1.928716 1_655
O27 W21 1.928716 1_555
O28 W0 1.930104 1_555
O28 W0 1.930104 1_655
O29 W8 2.065146 1_555
O29 W2 2.097815 1_545
O29 W12 2.104938 1_545
O30 W23 2.039349 1_555
O30 W28 2.051149 1_555
O30 W14 2.085809 1_555
O31 W13 1.931291 1_655
O31 W13 1.931291 1_555
O32 W24 1.933625 1_555
O32 W24 1.933625 1_655
O33 W28 1.858465 1_555
O33 W3 2.007077 1_554
O34 W23 1.931291 1_555
O34 W23 1.931291 1_655
O35 W27 1.933625 1_555
O35 W27 1.933625 1_655
O36 W30 1.928730 1_555
O36 W30 1.928730 1_655
O37 W9 1.858465 1_555
O37 W4 2.007077 1_555
O38 W2 2.041986 1_555
O38 W5 2.053630 1_555
O38 W12 2.119660 1_555
O39 W4 1.928916 1_655
O39 W4 1.928916 1_555
O40 W6 1.928916 1_655
O40 W6 1.928916 1_555
O41 W31 2.039349 1_555
O41 W20 2.051149 1_555
O41 W2 2.085809 1_555
O42 W13 1.845444 1_555
O42 W26 2.041951 1_555
O43 W17 2.047470 1_555
O43 W29 2.066829 1_555
O43 W13 2.125169 1_555
O44 W26 1.929711 1_555
O44 W26 1.929711 1_655
O45 W5 2.082019 1_555
O45 W4 2.110863 1_555
O45 W10 2.134356 1_555
O46 W29 1.928730 1_555
O46 W29 1.928730 1_655
O47 W1 2.062256 1_545
O47 W14 2.066409 1_555
O47 W28 2.073552 1_555
O48 W7 1.929711 1_555
O48 W7 1.929711 1_655
O49 W27 1.856638 1_555
O49 W11 2.040084 1_555
O50 W1 1.930104 1_555
O50 W1 1.930104 1_655
O51 W12 1.856638 1_545
O51 W26 2.040084 1_555
O52 W27 1.836924 1_555
O52 W7 2.038719 1_556
O53 W12 1.836924 1_555
O53 W25 2.038719 1_555
O54 W5 1.928716 1_555
O54 W5 1.928716 1_655
O55 W29 2.041986 1_555
O55 W17 2.053630 1_555
O55 W27 2.119660 1_555
O56 W8 1.930104 1_655
O56 W8 1.930104 1_555
O57 W24 1.836924 1_555
O57 W26 2.038719 1_555
O58 W17 2.082019 1_555
O58 W3 2.110863 1_555
O58 W8 2.134356 1_555
O59 W22 2.082019 1_555
O59 W19 2.110863 1_555
O59 W0 2.134356 1_555
O60 W31 1.846839 1_555
O60 W10 1.997203 1_555
O61 W0 2.062256 1_555
O61 W30 2.066409 1_555
O61 W9 2.073552 1_555
O62 W1 2.065146 1_555
O62 W14 2.097815 1_565
O62 W24 2.104938 1_565
O63 W31 1.845444 1_555
O63 W11 2.041951 1_555
O64 W18 2.039349 1_555
O64 W9 2.051149 1_555
O64 W30 2.085809 1_555
O65 W21 2.082019 1_555
O65 W6 2.110863 1_555
O65 W1 2.134356 1_555
O66 W14 2.041986 1_555
O66 W22 2.053630 1_555
O66 W24 2.119660 1_555
O67 W22 2.084090 1_555
O67 W19 2.118513 1_555
O67 W26 2.171850 1_555
O68 W21 2.047470 1_555
O68 W30 2.066829 1_555
O68 W18 2.125169 1_555
O69 W11 1.929711 1_655
O69 W11 1.929711 1_555
O70 W12 1.933625 1_555
O70 W12 1.933625 1_655
O71 W25 1.929711 1_655
O71 W25 1.929711 1_555
O72 W20 1.839816 1_545
O72 W3 2.025754 1_555
O73 W10 2.065146 1_555
O73 W29 2.097815 1_555
O73 W27 2.104938 1_555
O74 W9 1.839816 1_555
O74 W19 2.025754 1_555
O75 W19 1.928916 1_555
O75 W19 1.928916 1_655
O76 W30 2.041986 1_555
O76 W21 2.053630 1_555
O76 W15 2.119660 1_555
O77 W22 2.047470 1_555
O77 W14 2.066829 1_555
O77 W23 2.125169 1_555
O78 W5 2.084090 1_555
O78 W4 2.118513 1_555
O78 W25 2.171850 1_555
O79 W0 2.065146 1_555
O79 W30 2.097815 1_555
O79 W15 2.104938 1_555
O80 W28 1.839816 1_565
O80 W6 2.025754 1_555
O81 W28 1.930260 1_655
O81 W28 1.930260 1_555
O82 W2 1.928730 1_555
O82 W2 1.928730 1_655
O83 W10 1.930104 1_555
O83 W10 1.930104 1_655
