# generated using pymatgen
data_Ni2P2(C2O3)3
_symmetry_space_group_name_H-M   'P 1'
_cell_length_a   8.92973200
_cell_length_b   8.92973200
_cell_length_c   8.92973200
_cell_angle_alpha   90.00000000
_cell_angle_beta   90.00000000
_cell_angle_gamma   90.00000000
_symmetry_Int_Tables_number   1
_chemical_formula_structural   Ni2P2(C2O3)3
_chemical_formula_sum   'Ni4 P4 C12 O18'
_cell_volume   712.05784402
_cell_formula_units_Z   2
loop_
 _symmetry_equiv_pos_site_id
 _symmetry_equiv_pos_as_xyz
  1  'x, y, z'
loop_
 _atom_site_type_symbol
 _atom_site_label
 _atom_site_symmetry_multiplicity
 _atom_site_fract_x
 _atom_site_fract_y
 _atom_site_fract_z
 _atom_site_occupancy
  Ni  Ni0  1  0.74311700  0.74311700  0.25688300  1
  Ni  Ni1  1  0.74311700  0.25688300  0.74311700  1
  Ni  Ni2  1  0.25688300  0.74311700  0.74311700  1
  Ni  Ni3  1  0.25688300  0.25688300  0.25688300  1
  P  P0  1  0.88347000  0.88347000  0.11653000  1
  P  P1  1  0.88347000  0.11653000  0.88347000  1
  P  P2  1  0.11653000  0.88347000  0.88347000  1
  P  P3  1  0.11653000  0.11653000  0.11653000  1
  C  C0  1  0.55103200  0.78450100  0.21549900  1
  C  C1  1  0.78450100  0.78450100  0.44896800  1
  C  C2  1  0.78450100  0.55103200  0.21549900  1
  C  C3  1  0.55103200  0.21549900  0.78450100  1
  C  C4  1  0.78450100  0.21549900  0.55103200  1
  C  C5  1  0.78450100  0.44896800  0.78450100  1
  C  C6  1  0.44896800  0.78450100  0.78450100  1
  C  C7  1  0.21549900  0.78450100  0.55103200  1
  C  C8  1  0.21549900  0.55103200  0.78450100  1
  C  C9  1  0.44896800  0.21549900  0.21549900  1
  C  C10  1  0.21549900  0.21549900  0.44896800  1
  C  C11  1  0.21549900  0.44896800  0.21549900  1
  O  O0  1  0.00000000  0.00000000  0.20174300  1
  O  O1  1  0.00000000  0.79825700  0.00000000  1
  O  O2  1  0.79825700  0.00000000  0.00000000  1
  O  O3  1  0.00000000  0.00000000  0.79825700  1
  O  O4  1  0.00000000  0.20174300  0.00000000  1
  O  O5  1  0.20174300  0.00000000  0.00000000  1
  O  O6  1  0.42676200  0.80940700  0.19059300  1
  O  O7  1  0.80940700  0.80940700  0.57323800  1
  O  O8  1  0.80940700  0.42676200  0.19059300  1
  O  O9  1  0.42676200  0.19059300  0.80940700  1
  O  O10  1  0.80940700  0.19059300  0.42676200  1
  O  O11  1  0.80940700  0.57323800  0.80940700  1
  O  O12  1  0.57323800  0.80940700  0.80940700  1
  O  O13  1  0.19059300  0.80940700  0.42676200  1
  O  O14  1  0.19059300  0.42676200  0.80940700  1
  O  O15  1  0.57323800  0.19059300  0.19059300  1
  O  O16  1  0.19059300  0.19059300  0.57323800  1
  O  O17  1  0.19059300  0.57323800  0.19059300  1
loop_
_geom_bond_atom_site_label_1
_geom_bond_atom_site_label_2
_geom_bond_distance
_geom_bond_site_symmetry_2
Ni0 P0 2.170805 1_555
Ni1 P1 2.170805 1_555
Ni2 P2 2.170805 1_555
Ni3 P3 2.170805 1_555
C0 O6 1.153411 1_555
C0 Ni0 1.793119 1_555
C1 O7 1.153411 1_555
C1 Ni0 1.793119 1_555
C2 O8 1.153411 1_555
C2 Ni0 1.793119 1_555
C3 O9 1.153411 1_555
C3 Ni1 1.793119 1_555
C4 O10 1.153411 1_555
C4 Ni1 1.793119 1_555
C5 O11 1.153411 1_555
C5 Ni1 1.793119 1_555
C6 O12 1.153411 1_555
C6 Ni2 1.793119 1_555
C7 O13 1.153411 1_555
C7 Ni2 1.793119 1_555
C8 O14 1.153411 1_555
C8 Ni2 1.793119 1_555
C9 O15 1.153411 1_555
C9 Ni3 1.793119 1_555
C10 O16 1.153411 1_555
C10 Ni3 1.793119 1_555
C11 O17 1.153411 1_555
C11 Ni3 1.793119 1_555
O0 P3 1.656694 1_555
O0 P0 1.656694 1_445
O1 P0 1.656694 1_455
O1 P2 1.656694 1_554
O2 P1 1.656694 1_554
O2 P0 1.656694 1_545
O3 P2 1.656694 1_545
O3 P1 1.656694 1_455
O4 P3 1.656694 1_555
O4 P1 1.656694 1_454
O5 P3 1.656694 1_555
O5 P2 1.656694 1_544
