# generated using pymatgen
data_Tl3SiTe3
_symmetry_space_group_name_H-M   'P 1'
_cell_length_a   9.59537657
_cell_length_b   9.84358425
_cell_length_c   10.63762431
_cell_angle_alpha   89.27153350
_cell_angle_beta   96.16888098
_cell_angle_gamma   100.75966226
_symmetry_Int_Tables_number   1
_chemical_formula_structural   Tl3SiTe3
_chemical_formula_sum   'Tl12 Si4 Te12'
_cell_volume   981.34624373
_cell_formula_units_Z   4
loop_
 _symmetry_equiv_pos_site_id
 _symmetry_equiv_pos_as_xyz
  1  'x, y, z'
loop_
 _atom_site_type_symbol
 _atom_site_label
 _atom_site_symmetry_multiplicity
 _atom_site_fract_x
 _atom_site_fract_y
 _atom_site_fract_z
 _atom_site_occupancy
  Tl  Tl0  1  0.10488867  0.03995105  0.35407494  1
  Tl  Tl1  1  0.48487268  0.37406461  0.35617227  1
  Tl  Tl2  1  0.19106166  0.84562101  0.84000210  1
  Tl  Tl3  1  0.64451009  0.77572620  0.08614851  1
  Tl  Tl4  1  0.80893834  0.15437899  0.15999790  1
  Tl  Tl5  1  0.68407732  0.28699430  0.76110478  1
  Tl  Tl6  1  0.09757248  0.43501247  0.65753506  1
  Tl  Tl7  1  0.35548991  0.22427380  0.91385149  1
  Tl  Tl8  1  0.31592268  0.71300570  0.23889522  1
  Tl  Tl9  1  0.90242752  0.56498753  0.34246494  1
  Tl  Tl10  1  0.51512732  0.62593539  0.64382773  1
  Tl  Tl11  1  0.89511133  0.96004895  0.64592506  1
  Si  Si0  1  0.91291521  0.56992130  0.98706031  1
  Si  Si1  1  0.08708479  0.43007870  0.01293969  1
  Si  Si2  1  0.42542936  0.98289662  0.58153702  1
  Si  Si3  1  0.57457064  0.01710338  0.41846298  1
  Te  Te0  1  0.30653092  0.55716965  0.92149110  1
  Te  Te1  1  0.32026102  0.19886401  0.59421479  1
  Te  Te2  1  0.12747967  0.38077007  0.24556154  1
  Te  Te3  1  0.22609810  0.77860796  0.52687173  1
  Te  Te4  1  0.00112710  0.79167836  0.10837091  1
  Te  Te5  1  0.77390190  0.22139204  0.47312827  1
  Te  Te6  1  0.67973898  0.80113599  0.40578521  1
  Te  Te7  1  0.57648532  0.93397093  0.77918566  1
  Te  Te8  1  0.69346908  0.44283035  0.07850890  1
  Te  Te9  1  0.87252033  0.61922993  0.75443846  1
  Te  Te10  1  0.42351468  0.06602907  0.22081434  1
  Te  Te11  1  0.99887290  0.20832164  0.89162909  1
loop_
_geom_bond_atom_site_label_1
_geom_bond_atom_site_label_2
_geom_bond_distance
_geom_bond_site_symmetry_2
Si0 Si1 2.348217 1_656
Si0 Te4 2.508725 1_656
Si0 Te9 2.518483 1_555
Si0 Te8 2.524076 1_556
Si1 Te11 2.508725 1_454
Si1 Te2 2.518483 1_555
Si1 Te0 2.524076 1_554
Si2 Si3 2.347201 1_565
Si2 Te7 2.516606 1_555
Si2 Te1 2.528538 1_565
Si2 Te3 2.528806 1_555
Si3 Te10 2.516606 1_555
Si3 Te6 2.528538 1_545
Si3 Te5 2.528806 1_555
Te0 Tl2 3.308599 1_555
Te0 Tl6 3.365393 1_555
Te0 Tl7 3.399273 1_555
Te1 Tl0 3.317117 1_555
Te1 Tl7 3.388370 1_555
Te1 Tl1 3.407732 1_555
Te1 Tl6 3.553420 1_555
Te2 Tl9 3.316955 1_455
Te2 Tl8 3.432739 1_555
Te2 Tl4 3.470938 1_455
Te2 Tl0 3.509765 1_555
Te2 Tl1 3.516305 1_555
Te3 Tl8 3.371912 1_555
Te3 Tl0 3.447745 1_565
Te3 Tl2 3.467394 1_555
Te3 Tl10 3.502137 1_555
Te4 Tl3 3.378792 1_455
Te4 Tl8 3.405318 1_555
Te4 Tl9 3.413782 1_455
Te4 Tl2 3.531526 1_554
Te4 Tl0 3.534118 1_565
Te5 Tl5 3.371912 1_555
Te5 Tl11 3.447745 1_545
Te5 Tl4 3.467394 1_555
Te5 Tl1 3.502137 1_555
Te6 Tl11 3.317117 1_555
Te6 Tl3 3.388370 1_555
Te6 Tl10 3.407732 1_555
Te6 Tl9 3.553420 1_555
Te7 Tl10 3.297915 1_555
Te7 Tl5 3.444518 1_565
Te7 Tl11 3.471584 1_555
Te8 Tl4 3.308599 1_555
Te8 Tl9 3.365393 1_555
Te8 Tl3 3.399273 1_555
Te9 Tl6 3.316955 1_655
Te9 Tl5 3.432739 1_555
Te9 Tl2 3.470938 1_655
Te9 Tl11 3.509765 1_555
Te9 Tl10 3.516305 1_555
Te10 Tl1 3.297915 1_555
Te10 Tl8 3.444518 1_545
Te10 Tl0 3.471584 1_555
Te11 Tl7 3.378792 1_655
Te11 Tl5 3.405318 1_555
Te11 Tl6 3.413782 1_655
Te11 Tl4 3.531526 1_556
Te11 Tl11 3.534118 1_545
