# generated using pymatgen
data_PrRe2
_symmetry_space_group_name_H-M   'P 1'
_cell_length_a   5.54254195
_cell_length_b   5.54254195
_cell_length_c   5.54254195
_cell_angle_alpha   60.00000000
_cell_angle_beta   60.00000000
_cell_angle_gamma   60.00000000
_symmetry_Int_Tables_number   1
_chemical_formula_structural   PrRe2
_chemical_formula_sum   'Pr2 Re4'
_cell_volume   120.39597537
_cell_formula_units_Z   2
loop_
 _symmetry_equiv_pos_site_id
 _symmetry_equiv_pos_as_xyz
  1  'x, y, z'
loop_
 _atom_site_type_symbol
 _atom_site_label
 _atom_site_symmetry_multiplicity
 _atom_site_fract_x
 _atom_site_fract_y
 _atom_site_fract_z
 _atom_site_occupancy
  Pr  Pr0  1  0.50000000  0.50000000  0.50000000  1
  Pr  Pr1  1  0.75000000  0.75000000  0.75000000  1
  Re  Re0  1  0.12500000  0.12500000  0.62500000  1
  Re  Re1  1  0.12500000  0.12500000  0.12500000  1
  Re  Re2  1  0.12500000  0.62500000  0.12500000  1
  Re  Re3  1  0.62500000  0.12500000  0.12500000  1
loop_
_geom_bond_atom_site_label_1
_geom_bond_atom_site_label_2
_geom_bond_distance
_geom_bond_site_symmetry_2
Pr0 Re3 3.249603 1_556
Pr0 Re0 3.249603 1_655
Pr0 Re1 3.249603 1_565
Pr0 Re2 3.249603 1_555
Pr0 Re0 3.249603 1_555
Pr0 Re2 3.249603 1_655
Pr0 Re3 3.249603 1_565
Pr0 Re1 3.249603 1_556
Pr0 Re2 3.249603 1_556
Pr0 Re0 3.249603 1_565
Pr0 Re3 3.249603 1_555
Pr0 Re1 3.249603 1_655
Pr0 Pr1 3.394100 1_554
Pr0 Pr1 3.394100 1_455
Pr0 Pr1 3.394100 1_545
Pr0 Pr1 3.394100 1_555
Pr1 Re3 3.249603 1_556
Pr1 Re0 3.249603 1_665
Pr1 Re1 3.249603 1_656
Pr1 Re1 3.249603 1_665
Pr1 Re2 3.249603 1_556
Pr1 Re2 3.249603 1_656
Pr1 Re3 3.249603 1_565
Pr1 Re0 3.249603 1_565
Pr1 Re2 3.249603 1_655
Pr1 Re3 3.249603 1_566
Pr1 Re1 3.249603 1_566
Pr1 Re0 3.249603 1_655
Re0 Re3 2.771271 1_456
Re0 Re2 2.771271 1_555
Re0 Re1 2.771271 1_556
Re0 Re2 2.771271 1_546
Re0 Re3 2.771271 1_555
Re0 Re1 2.771271 1_555
Re1 Re2 2.771271 1_555
Re1 Re3 2.771271 1_455
Re1 Re3 2.771271 1_555
Re1 Re2 2.771271 1_545
Re2 Re3 2.771271 1_465
Re2 Re3 2.771271 1_555
