# generated using pymatgen
data_LiEu(PO3)4
_symmetry_space_group_name_H-M   'P 1'
_cell_length_a   9.07438442
_cell_length_b   9.07438442
_cell_length_c   9.88871565
_cell_angle_alpha   57.05020857
_cell_angle_beta   57.05020857
_cell_angle_gamma   46.67068170
_symmetry_Int_Tables_number   1
_chemical_formula_structural   LiEu(PO3)4
_chemical_formula_sum   'Li2 Eu2 P8 O24'
_cell_volume   477.22211142
_cell_formula_units_Z   2
loop_
 _symmetry_equiv_pos_site_id
 _symmetry_equiv_pos_as_xyz
  1  'x, y, z'
loop_
 _atom_site_type_symbol
 _atom_site_label
 _atom_site_symmetry_multiplicity
 _atom_site_fract_x
 _atom_site_fract_y
 _atom_site_fract_z
 _atom_site_occupancy
  Li  Li0  1  0.79764700  0.20235300  0.25000000  1
  Li  Li1  1  0.20235300  0.79764700  0.75000000  1
  Eu  Eu0  1  0.69955200  0.30044800  0.75000000  1
  Eu  Eu1  1  0.30044800  0.69955200  0.25000000  1
  P  P0  1  0.91681600  0.80613100  0.66224900  1
  P  P1  1  0.08318400  0.19386900  0.33775100  1
  P  P2  1  0.80466700  0.49055500  0.90243100  1
  P  P3  1  0.19533300  0.50944500  0.09756900  1
  P  P4  1  0.19386900  0.08318400  0.83775100  1
  P  P5  1  0.50944500  0.19533300  0.59756900  1
  P  P6  1  0.49055500  0.80466700  0.40243100  1
  P  P7  1  0.80613100  0.91681600  0.16224900  1
  O  O0  1  0.71936000  0.96155700  0.58747500  1
  O  O1  1  0.03844300  0.28064000  0.91252500  1
  O  O2  1  0.74365600  0.51218700  0.77576200  1
  O  O3  1  0.32911100  0.89937400  0.95398900  1
  O  O4  1  0.05948900  0.07473200  0.29639300  1
  O  O5  1  0.10062600  0.67088900  0.54601100  1
  O  O6  1  0.89937400  0.32911100  0.45398900  1
  O  O7  1  0.32983000  0.15987700  0.65842900  1
  O  O8  1  0.84012300  0.67017000  0.84157100  1
  O  O9  1  0.25634400  0.48781300  0.22423800  1
  O  O10  1  0.96155700  0.71936000  0.08747500  1
  O  O11  1  0.48781300  0.25634400  0.72423800  1
  O  O12  1  0.66957200  0.47838000  0.08142300  1
  O  O13  1  0.67017000  0.84012300  0.34157100  1
  O  O14  1  0.52162000  0.33042800  0.41857700  1
  O  O15  1  0.07473200  0.05948900  0.79639300  1
  O  O16  1  0.47838000  0.66957200  0.58142300  1
  O  O17  1  0.33042800  0.52162000  0.91857700  1
  O  O18  1  0.51218700  0.74365600  0.27576200  1
  O  O19  1  0.94051100  0.92526800  0.70360700  1
  O  O20  1  0.15987700  0.32983000  0.15842900  1
  O  O21  1  0.28064000  0.03844300  0.41252500  1
  O  O22  1  0.67088900  0.10062600  0.04601100  1
  O  O23  1  0.92526800  0.94051100  0.20360700  1
loop_
_geom_bond_atom_site_label_1
_geom_bond_atom_site_label_2
_geom_bond_distance
_geom_bond_site_symmetry_2
Li0 O14 1.993453 1_555
Li0 O12 1.993453 1_555
Li0 O4 2.007175 1_655
Li0 O23 2.007175 1_545
Li1 O17 1.993453 1_555
Li1 O16 1.993453 1_555
Li1 O19 2.007175 1_455
Li1 O15 2.007175 1_565
Eu0 O2 2.369716 1_555
Eu0 O11 2.369716 1_555
Eu0 O22 2.443184 1_556
Eu0 O6 2.443184 1_555
Eu0 O16 2.523102 1_555
Eu0 O17 2.523102 1_555
Eu0 O15 2.640808 1_655
Eu0 O19 2.640808 1_545
Eu1 O18 2.369716 1_555
Eu1 O9 2.369716 1_555
Eu1 O5 2.443184 1_555
Eu1 O3 2.443184 1_554
Eu1 O14 2.523102 1_555
Eu1 O12 2.523102 1_555
Eu1 O4 2.640808 1_565
Eu1 O23 2.640808 1_455
O0 P0 1.607811 1_555
O0 P5 1.617559 1_565
O1 P4 1.607811 1_555
O1 P2 1.617559 1_455
O2 P2 1.500599 1_555
O3 P4 1.499706 1_565
O4 P1 1.509273 1_555
O5 P0 1.499706 1_455
O6 P1 1.499706 1_655
O7 P5 1.601335 1_555
O7 P4 1.614618 1_555
O8 P2 1.601335 1_555
O8 P0 1.614618 1_555
O9 P3 1.500599 1_555
O10 P7 1.607811 1_555
O10 P3 1.617559 1_655
O11 P5 1.500599 1_555
O12 P2 1.503569 1_554
O13 P6 1.601335 1_555
O13 P7 1.614618 1_555
O14 P5 1.503569 1_555
O15 P4 1.509273 1_555
O16 P6 1.503569 1_555
O17 P3 1.503569 1_556
O18 P6 1.500599 1_555
O19 P0 1.509273 1_555
O20 P3 1.601335 1_555
O20 P1 1.614618 1_555
O21 P1 1.607811 1_555
O21 P6 1.617559 1_545
O22 P7 1.499706 1_545
O23 P7 1.509273 1_555
