# generated using pymatgen
data_Ta4Se9I8
_symmetry_space_group_name_H-M   'P 1'
_cell_length_a   13.66602300
_cell_length_b   15.04542100
_cell_length_c   15.52433100
_cell_angle_alpha   90.00000000
_cell_angle_beta   90.00000000
_cell_angle_gamma   90.00000000
_symmetry_Int_Tables_number   1
_chemical_formula_structural   Ta4Se9I8
_chemical_formula_sum   'Ta16 Se36 I32'
_cell_volume   3191.97429911
_cell_formula_units_Z   4
loop_
 _symmetry_equiv_pos_site_id
 _symmetry_equiv_pos_as_xyz
  1  'x, y, z'
loop_
 _atom_site_type_symbol
 _atom_site_label
 _atom_site_symmetry_multiplicity
 _atom_site_fract_x
 _atom_site_fract_y
 _atom_site_fract_z
 _atom_site_occupancy
  Ta  Ta0  1  0.26132100  0.31385600  0.49899900  1
  Ta  Ta1  1  0.38387900  0.82111000  0.19365500  1
  Ta  Ta2  1  0.26132100  0.81385600  0.00100100  1
  Ta  Ta3  1  0.88387900  0.17889000  0.80634500  1
  Ta  Ta4  1  0.88387900  0.67889000  0.69365500  1
  Ta  Ta5  1  0.04560300  0.79074300  0.10974000  1
  Ta  Ta6  1  0.16670200  0.79772200  0.29787500  1
  Ta  Ta7  1  0.66670200  0.70227800  0.79787500  1
  Ta  Ta8  1  0.16670200  0.29772200  0.20212500  1
  Ta  Ta9  1  0.76132100  0.18614400  0.99899900  1
  Ta  Ta10  1  0.04560300  0.29074300  0.39026000  1
  Ta  Ta11  1  0.38387900  0.32111000  0.30634500  1
  Ta  Ta12  1  0.66670200  0.20227800  0.70212500  1
  Ta  Ta13  1  0.54560300  0.20925700  0.89026000  1
  Ta  Ta14  1  0.76132100  0.68614400  0.50100100  1
  Ta  Ta15  1  0.54560300  0.70925700  0.60974000  1
  Se  Se0  1  0.58117400  0.71160700  0.43979200  1
  Se  Se1  1  0.08117400  0.78839300  0.93979200  1
  Se  Se2  1  0.97562300  0.77257900  0.26916600  1
  Se  Se3  1  0.10932800  0.42381600  0.48747300  1
  Se  Se4  1  0.28776000  0.93434200  0.29484000  1
  Se  Se5  1  0.35709100  0.94611800  0.07618200  1
  Se  Se6  1  0.34826700  0.80457100  0.36230800  1
  Se  Se7  1  0.84826700  0.69542900  0.86230800  1
  Se  Se8  1  0.22260400  0.73933500  0.14875700  1
  Se  Se9  1  0.97562300  0.27257900  0.23083400  1
  Se  Se10  1  0.72260400  0.26066500  0.85124300  1
  Se  Se11  1  0.84826700  0.19542900  0.63769200  1
  Se  Se12  1  0.35709100  0.44611800  0.42381800  1
  Se  Se13  1  0.78776000  0.06565800  0.70516000  1
  Se  Se14  1  0.54215200  0.58657400  0.73346000  1
  Se  Se15  1  0.47562300  0.72742100  0.76916600  1
  Se  Se16  1  0.78776000  0.56565800  0.79484000  1
  Se  Se17  1  0.85709100  0.05388200  0.92381800  1
  Se  Se18  1  0.85709100  0.55388200  0.57618200  1
  Se  Se19  1  0.45438500  0.32299300  0.46808900  1
  Se  Se20  1  0.95438500  0.17700700  0.96808900  1
  Se  Se21  1  0.08117400  0.28839300  0.56020800  1
  Se  Se22  1  0.04215200  0.41342600  0.26654000  1
  Se  Se23  1  0.54215200  0.08657400  0.76654000  1
  Se  Se24  1  0.95438500  0.67700700  0.53191100  1
  Se  Se25  1  0.45438500  0.82299300  0.03191100  1
  Se  Se26  1  0.60932800  0.07618400  0.98747300  1
  Se  Se27  1  0.10932800  0.92381600  0.01252700  1
  Se  Se28  1  0.22260400  0.23933500  0.35124300  1
  Se  Se29  1  0.60932800  0.57618400  0.51252700  1
  Se  Se30  1  0.04215200  0.91342600  0.23346000  1
  Se  Se31  1  0.58117400  0.21160700  0.06020800  1
  Se  Se32  1  0.72260400  0.76066500  0.64875700  1
  Se  Se33  1  0.47562300  0.22742100  0.73083400  1
  Se  Se34  1  0.28776000  0.43434200  0.20516000  1
  Se  Se35  1  0.34826700  0.30457100  0.13769200  1
  I  I0  1  0.85697600  0.33982400  0.43270300  1
  I  I1  1  0.05558900  0.59697900  0.74041000  1
  I  I2  1  0.67241400  0.88500700  0.84105700  1
  I  I3  1  0.29287200  0.64206100  0.94925200  1
  I  I4  1  0.11101000  0.34739600  0.03717500  1
  I  I5  1  0.80314100  0.10860400  0.15623900  1
  I  I6  1  0.17241400  0.11499300  0.15894300  1
  I  I7  1  0.55558900  0.90302100  0.24041000  1
  I  I8  1  0.01188000  0.11153000  0.40891900  1
  I  I9  1  0.80314100  0.60860400  0.34376100  1
  I  I10  1  0.51188000  0.88847000  0.59108100  1
  I  I11  1  0.61101000  0.65260400  0.96282500  1
  I  I12  1  0.55558900  0.40302100  0.25959000  1
  I  I13  1  0.95715900  0.84865800  0.70285100  1
  I  I14  1  0.67241400  0.38500700  0.65894300  1
  I  I15  1  0.79287200  0.85793900  0.44925200  1
  I  I16  1  0.35697600  0.66017600  0.56729700  1
  I  I17  1  0.51188000  0.38847000  0.90891900  1
  I  I18  1  0.30314100  0.39139600  0.65623900  1
  I  I19  1  0.79287200  0.35793900  0.05074800  1
  I  I20  1  0.30314100  0.89139600  0.84376100  1
  I  I21  1  0.35697600  0.16017600  0.93270300  1
  I  I22  1  0.45715900  0.65134200  0.20285100  1
  I  I23  1  0.05558900  0.09697900  0.75959000  1
  I  I24  1  0.11101000  0.84739600  0.46282500  1
  I  I25  1  0.61101000  0.15260400  0.53717500  1
  I  I26  1  0.45715900  0.15134200  0.29714900  1
  I  I27  1  0.29287200  0.14206100  0.55074800  1
  I  I28  1  0.95715900  0.34865800  0.79714900  1
  I  I29  1  0.85697600  0.83982400  0.06729700  1
  I  I30  1  0.01188000  0.61153000  0.09108100  1
  I  I31  1  0.17241400  0.61499300  0.34105700  1
loop_
_geom_bond_atom_site_label_1
_geom_bond_atom_site_label_2
_geom_bond_distance
_geom_bond_site_symmetry_2
Se0 Se29 2.361024 1_555
Se0 Ta14 2.666574 1_555
Se0 Ta15 2.682972 1_555
Se1 Se27 2.361024 1_556
Se1 Ta2 2.666574 1_556
Se1 Ta5 2.682972 1_556
Se2 Se30 2.371598 1_655
Se2 Ta5 2.667362 1_655
Se2 Ta6 2.675925 1_655
Se3 Ta10 2.654158 1_555
Se3 Ta0 2.661494 1_555
Se4 Se6 2.364927 1_555
Se4 Ta6 2.638996 1_555
Se4 Ta1 2.663698 1_555
Se5 Ta1 2.645234 1_555
Se5 Ta2 2.652357 1_555
Se6 Ta1 2.674673 1_555
Se6 Ta6 2.677291 1_555
Se7 Ta4 2.674673 1_555
Se7 Ta7 2.677291 1_555
Se8 Ta6 2.591205 1_555
Se8 Ta2 2.607417 1_555
Se8 Ta5 2.610785 1_555
Se8 Ta1 2.618611 1_555
Se9 Ta10 2.667362 1_655
Se9 Ta8 2.675925 1_655
Se10 Ta12 2.591205 1_555
Se10 Ta9 2.607417 1_555
Se10 Ta13 2.610785 1_555
Se10 Ta3 2.618611 1_555
Se11 Se13 2.364927 1_555
Se11 Ta3 2.674673 1_555
Se11 Ta12 2.677291 1_555
Se12 Se19 2.381571 1_555
Se12 Ta11 2.645234 1_555
Se12 Ta0 2.652357 1_555
Se13 Ta12 2.638996 1_555
Se13 Ta3 2.663698 1_555
Se14 Se15 2.371598 1_555
Se14 Ta7 2.632032 1_555
Se14 Ta15 2.664252 1_555
Se15 Ta15 2.667362 1_555
Se15 Ta7 2.675925 1_555
Se16 Se7 2.364927 1_555
Se16 Ta7 2.638996 1_555
Se16 Ta4 2.663698 1_555
Se17 Se20 2.381571 1_555
Se17 Ta3 2.645234 1_555
Se17 Ta9 2.652357 1_555
Se18 Se24 2.381571 1_555
Se18 Ta4 2.645234 1_555
Se18 Ta14 2.652357 1_555
Se19 Ta0 2.685220 1_555
Se19 Ta11 2.689640 1_555
Se20 Ta9 2.685220 1_555
Se20 Ta3 2.689640 1_555
Se21 Se3 2.361024 1_555
Se21 Ta0 2.666574 1_555
Se21 Ta10 2.682972 1_555
Se22 Se9 2.371598 1_455
Se22 Ta8 2.632032 1_555
Se22 Ta10 2.664252 1_555
Se23 Se33 2.371598 1_555
Se23 Ta12 2.632032 1_555
Se23 Ta13 2.664252 1_555
Se24 Ta14 2.685220 1_555
Se24 Ta4 2.689640 1_555
Se25 Se5 2.381571 1_555
Se25 Ta2 2.685220 1_555
Se25 Ta1 2.689640 1_555
Se26 Se31 2.361024 1_556
Se26 Ta13 2.654158 1_555
Se26 Ta9 2.661494 1_555
Se27 Ta5 2.654158 1_555
Se27 Ta2 2.661494 1_555
Se28 Ta8 2.591205 1_555
Se28 Ta0 2.607417 1_555
Se28 Ta10 2.610785 1_555
Se28 Ta11 2.618611 1_555
Se29 Ta15 2.654158 1_555
Se29 Ta14 2.661494 1_555
Se30 Ta6 2.632032 1_555
Se30 Ta5 2.664252 1_555
Se31 Ta9 2.666574 1_554
Se31 Ta13 2.682972 1_554
Se32 Ta7 2.591205 1_555
Se32 Ta14 2.607417 1_555
Se32 Ta15 2.610785 1_555
Se32 Ta4 2.618611 1_555
Se33 Ta13 2.667362 1_555
Se33 Ta12 2.675925 1_555
Se34 Se35 2.364927 1_555
Se34 Ta8 2.638996 1_555
Se34 Ta11 2.663698 1_555
Se35 Ta11 2.674673 1_555
Se35 Ta8 2.677291 1_555
I0 Ta10 2.761232 1_655
I1 Ta4 2.748111 1_455
I2 Ta7 2.830863 1_555
I3 Ta2 2.740827 1_556
I4 Ta8 2.774021 1_555
I5 Ta9 2.765201 1_554
I6 Ta8 2.830863 1_555
I7 Ta1 2.748111 1_555
I8 Ta10 2.750731 1_555
I9 Ta14 2.765201 1_555
I10 Ta15 2.750731 1_555
I11 Ta7 2.774021 1_555
I12 Ta11 2.748111 1_555
I13 Ta4 2.747248 1_555
I14 Ta12 2.830863 1_555
I15 Ta14 2.740827 1_555
I16 Ta15 2.761232 1_555
I17 Ta13 2.750731 1_555
I18 Ta0 2.765201 1_555
I19 Ta9 2.740827 1_554
I20 Ta2 2.765201 1_556
I21 Ta13 2.761232 1_555
I22 Ta1 2.747248 1_555
I23 Ta3 2.748111 1_455
I24 Ta6 2.774021 1_555
I25 Ta12 2.774021 1_555
I26 Ta11 2.747248 1_555
I27 Ta0 2.740827 1_555
I28 Ta3 2.747248 1_555
I29 Ta5 2.761232 1_655
I30 Ta5 2.750731 1_555
I31 Ta6 2.830863 1_555
