# generated using pymatgen
data_La3NbSe2(O2F)2
_symmetry_space_group_name_H-M   'P 1'
_cell_length_a   4.02929500
_cell_length_b   11.42458700
_cell_length_c   18.26168400
_cell_angle_alpha   90.00000000
_cell_angle_beta   90.00000000
_cell_angle_gamma   90.00000000
_symmetry_Int_Tables_number   1
_chemical_formula_structural   La3NbSe2(O2F)2
_chemical_formula_sum   'La12 Nb4 Se8 O16 F8'
_cell_volume   840.64067073
_cell_formula_units_Z   4
loop_
 _symmetry_equiv_pos_site_id
 _symmetry_equiv_pos_as_xyz
  1  'x, y, z'
loop_
 _atom_site_type_symbol
 _atom_site_label
 _atom_site_symmetry_multiplicity
 _atom_site_fract_x
 _atom_site_fract_y
 _atom_site_fract_z
 _atom_site_occupancy
  La  La0  1  0.75000000  0.70623600  0.53181000  1
  La  La1  1  0.75000000  0.49621600  0.10664400  1
  La  La2  1  0.25000000  0.79376400  0.03181000  1
  La  La3  1  0.25000000  0.06638300  0.19848000  1
  La  La4  1  0.75000000  0.43361700  0.69848000  1
  La  La5  1  0.75000000  0.99621600  0.39335600  1
  La  La6  1  0.25000000  0.29376400  0.46819000  1
  La  La7  1  0.25000000  0.50378400  0.89335600  1
  La  La8  1  0.75000000  0.93361700  0.80152000  1
  La  La9  1  0.25000000  0.56638300  0.30152000  1
  La  La10  1  0.75000000  0.20623600  0.96819000  1
  La  La11  1  0.25000000  0.00378400  0.60664400  1
  Nb  Nb0  1  0.25000000  0.69221800  0.69511700  1
  Nb  Nb1  1  0.75000000  0.30778200  0.30488300  1
  Nb  Nb2  1  0.25000000  0.19221800  0.80488300  1
  Nb  Nb3  1  0.75000000  0.80778200  0.19511700  1
  Se  Se0  1  0.25000000  0.78446700  0.40858000  1
  Se  Se1  1  0.75000000  0.99342400  0.07969600  1
  Se  Se2  1  0.75000000  0.49342400  0.42030400  1
  Se  Se3  1  0.75000000  0.21553300  0.59142000  1
  Se  Se4  1  0.75000000  0.71553300  0.90858000  1
  Se  Se5  1  0.25000000  0.50657600  0.57969600  1
  Se  Se6  1  0.25000000  0.28446700  0.09142000  1
  Se  Se7  1  0.25000000  0.00657600  0.92030400  1
  O  O0  1  0.25000000  0.83020800  0.17894200  1
  O  O1  1  0.75000000  0.94779000  0.25502300  1
  O  O2  1  0.25000000  0.05221000  0.74497700  1
  O  O3  1  0.25000000  0.33020800  0.32105800  1
  O  O4  1  0.75000000  0.18569000  0.23860100  1
  O  O5  1  0.25000000  0.81431000  0.76139900  1
  O  O6  1  0.75000000  0.21786800  0.40121300  1
  O  O7  1  0.75000000  0.71786800  0.09878700  1
  O  O8  1  0.25000000  0.31431000  0.73860100  1
  O  O9  1  0.25000000  0.28213200  0.90121300  1
  O  O10  1  0.75000000  0.68569000  0.26139900  1
  O  O11  1  0.75000000  0.16979200  0.82105800  1
  O  O12  1  0.75000000  0.44779000  0.24497700  1
  O  O13  1  0.25000000  0.78213200  0.59878700  1
  O  O14  1  0.75000000  0.66979200  0.67894200  1
  O  O15  1  0.25000000  0.55221000  0.75502300  1
  F  F0  1  0.75000000  0.43032100  0.97376800  1
  F  F1  1  0.25000000  0.56967900  0.02623200  1
  F  F2  1  0.25000000  0.06967900  0.47376800  1
  F  F3  1  0.75000000  0.93032100  0.52623200  1
  F  F4  1  0.25000000  0.06185400  0.33151500  1
  F  F5  1  0.75000000  0.43814600  0.83151500  1
  F  F6  1  0.75000000  0.93814600  0.66848500  1
  F  F7  1  0.25000000  0.56185400  0.16848500  1
loop_
_geom_bond_atom_site_label_1
_geom_bond_atom_site_label_2
_geom_bond_distance
_geom_bond_site_symmetry_2
La0 O13 2.511302 1_555
La0 O13 2.511302 1_655
La0 O14 2.718946 1_555
La0 Se0 3.149897 1_555
La0 Se0 3.149897 1_655
La0 Se5 3.166485 1_555
La0 Se5 3.166485 1_655
La0 Se2 3.171377 1_555
La1 O7 2.536344 1_555
La1 O12 2.586066 1_555
La1 Se6 3.160437 1_555
La1 Se6 3.160437 1_655
La2 O7 2.511302 1_455
La2 O7 2.511302 1_555
La2 O0 2.718946 1_555
La2 Se4 3.149897 1_454
La2 Se4 3.149897 1_554
La2 Se1 3.166485 1_455
La2 Se1 3.166485 1_555
La2 Se7 3.171377 1_564
La3 O4 2.540370 1_455
La3 O4 2.540370 1_555
La3 O1 2.638313 1_545
La3 O1 2.638313 1_445
La3 O0 2.721690 1_545
La3 Se1 3.075546 1_445
La3 Se1 3.075546 1_545
La3 Se6 3.167029 1_555
La4 O8 2.540370 1_655
La4 O8 2.540370 1_555
La4 O15 2.638313 1_555
La4 O15 2.638313 1_655
La4 O14 2.721690 1_555
La4 Se5 3.075546 1_555
La4 Se5 3.075546 1_655
La4 Se3 3.167029 1_555
La5 O6 2.536344 1_565
La5 O1 2.586066 1_555
La5 Se0 3.160437 1_555
La5 Se0 3.160437 1_655
La6 O6 2.511302 1_455
La6 O6 2.511302 1_555
La6 O3 2.718946 1_555
La6 Se3 3.149897 1_555
La6 Se3 3.149897 1_455
La6 Se2 3.166485 1_455
La6 Se2 3.166485 1_555
La6 Se5 3.171377 1_555
La7 O9 2.536344 1_555
La7 O15 2.586066 1_555
La7 Se4 3.160437 1_555
La7 Se4 3.160437 1_455
La8 O5 2.540370 1_655
La8 O5 2.540370 1_555
La8 O2 2.638313 1_565
La8 O2 2.638313 1_665
La8 O11 2.721690 1_565
La8 Se7 3.075546 1_665
La8 Se7 3.075546 1_565
La8 Se4 3.167029 1_555
La9 O10 2.540370 1_455
La9 O10 2.540370 1_555
La9 O12 2.638313 1_555
La9 O12 2.638313 1_455
La9 O3 2.721690 1_555
La9 Se2 3.075546 1_555
La9 Se2 3.075546 1_455
La9 Se0 3.167029 1_555
La10 O9 2.511302 1_655
La10 O9 2.511302 1_555
La10 O11 2.718946 1_555
La10 Se6 3.149897 1_556
La10 Se6 3.149897 1_656
La10 Se7 3.166485 1_655
La10 Se7 3.166485 1_555
La10 Se1 3.171377 1_546
La11 O13 2.536344 1_545
La11 O2 2.586066 1_555
La11 Se3 3.160437 1_555
La11 Se3 3.160437 1_455
Nb0 O5 1.846815 1_555
Nb0 O15 1.937862 1_555
Nb0 O13 2.037107 1_555
Nb0 O14 2.052242 1_455
Nb0 O14 2.052242 1_555
Nb0 Se5 2.990132 1_555
Nb1 O4 1.846815 1_555
Nb1 O12 1.937862 1_555
Nb1 O6 2.037107 1_555
Nb1 O3 2.052242 1_555
Nb1 O3 2.052242 1_655
Nb1 Se2 2.990132 1_555
Nb2 O8 1.846815 1_555
Nb2 O2 1.937862 1_555
Nb2 O9 2.037107 1_555
Nb2 O11 2.052242 1_455
Nb2 O11 2.052242 1_555
Nb2 Se7 2.990132 1_555
Nb3 O10 1.846815 1_555
Nb3 O1 1.937862 1_555
Nb3 O7 2.037107 1_555
Nb3 O0 2.052242 1_555
Nb3 O0 2.052242 1_655
Nb3 Se1 2.990132 1_555
F0 La1 2.540637 1_556
F0 La10 2.562104 1_555
F0 La7 2.630508 1_555
F0 La7 2.630508 1_655
F1 La7 2.540637 1_554
F1 La2 2.562104 1_555
F1 La1 2.630508 1_455
F1 La1 2.630508 1_555
F2 La11 2.540637 1_555
F2 La6 2.562104 1_555
F2 La5 2.630508 1_545
F2 La5 2.630508 1_445
F3 La5 2.540637 1_555
F3 La0 2.562104 1_555
F3 La11 2.630508 1_565
F3 La11 2.630508 1_665
F4 La5 2.428271 1_545
F4 La5 2.428271 1_445
F4 La3 2.429994 1_555
F5 La7 2.428271 1_555
F5 La7 2.428271 1_655
F5 La4 2.429994 1_555
F6 La11 2.428271 1_565
F6 La11 2.428271 1_665
F6 La8 2.429994 1_555
F7 La1 2.428271 1_555
F7 La1 2.428271 1_455
F7 La9 2.429994 1_555
