# generated using pymatgen
data_Cs3Sb2Cl9
_symmetry_space_group_name_H-M   'P 1'
_cell_length_a   7.64389182
_cell_length_b   7.64389202
_cell_length_c   9.33261564
_cell_angle_alpha   90.00000000
_cell_angle_beta   90.00000000
_cell_angle_gamma   119.99999914
_symmetry_Int_Tables_number   1
_chemical_formula_structural   Cs3Sb2Cl9
_chemical_formula_sum   'Cs3 Sb2 Cl9'
_cell_volume   472.24034872
_cell_formula_units_Z   1
loop_
 _symmetry_equiv_pos_site_id
 _symmetry_equiv_pos_as_xyz
  1  'x, y, z'
loop_
 _atom_site_type_symbol
 _atom_site_label
 _atom_site_symmetry_multiplicity
 _atom_site_fract_x
 _atom_site_fract_y
 _atom_site_fract_z
 _atom_site_occupancy
  Cs  Cs0  1  0.33333300  0.66666700  0.33135892  1
  Cs  Cs1  1  0.66666700  0.33333300  0.66864108  1
  Cs  Cs2  1  -0.00000000  0.00000000  0.00000000  1
  Sb  Sb0  1  0.33333300  0.66666700  0.81422035  1
  Sb  Sb1  1  0.66666700  0.33333300  0.18577965  1
  Cl  Cl0  1  0.51239818  0.51239818  0.00000000  1
  Cl  Cl1  1  0.35130986  0.18170089  0.33470315  1
  Cl  Cl2  1  0.00000000  0.48760182  0.00000000  1
  Cl  Cl3  1  0.83039203  0.64869014  0.33470315  1
  Cl  Cl4  1  0.16960797  0.81829911  0.66529685  1
  Cl  Cl5  1  0.48760182  0.00000000  0.00000000  1
  Cl  Cl6  1  0.18170089  0.35130986  0.66529685  1
  Cl  Cl7  1  0.81829911  0.16960797  0.33470315  1
  Cl  Cl8  1  0.64869014  0.83039203  0.66529685  1
loop_
_geom_bond_atom_site_label_1
_geom_bond_atom_site_label_2
_geom_bond_distance
_geom_bond_site_symmetry_2
Cl0 Sb0 2.807880 1_554
Cl0 Sb1 2.807880 1_555
Cl0 Cs2 3.727176 1_665
Cl0 Cs0 3.800172 1_555
Cl0 Cs1 3.800172 1_554
Cl0 Cs2 3.916716 1_555
Cl1 Sb1 2.508364 1_555
Cl1 Cs1 3.751384 1_555
Cl1 Cs0 3.777739 1_555
Cl1 Cs0 3.870113 1_545
Cl1 Cs2 3.894585 1_555
Cl2 Sb1 2.807874 1_455
Cl2 Sb0 2.807875 1_554
Cl2 Cs2 3.727176 1_555
Cl2 Cs1 3.800168 1_454
Cl2 Cs0 3.800169 1_555
Cl2 Cs2 3.916716 1_565
Cl3 Sb1 2.508364 1_555
Cl3 Cs1 3.751384 1_555
Cl3 Cs0 3.777724 1_655
Cl3 Cs0 3.870128 1_555
Cl3 Cs2 3.894585 1_665
Cl4 Sb0 2.508364 1_555
Cl4 Cs0 3.751384 1_555
Cl4 Cs1 3.777731 1_455
Cl4 Cs1 3.870120 1_565
Cl4 Cs2 3.894581 1_566
Cl5 Sb0 2.807874 1_544
Cl5 Sb1 2.807875 1_555
Cl5 Cs2 3.727176 1_555
Cl5 Cs0 3.800168 1_545
Cl5 Cs1 3.800169 1_554
Cl5 Cs2 3.916716 1_655
Cl6 Sb0 2.508364 1_555
Cl6 Cs0 3.751384 1_555
Cl6 Cs1 3.777739 1_555
Cl6 Cs1 3.870113 1_455
Cl6 Cs2 3.894585 1_556
Cl7 Sb1 2.508364 1_555
Cl7 Cs1 3.751384 1_555
Cl7 Cs0 3.777731 1_545
Cl7 Cs0 3.870120 1_655
Cl7 Cs2 3.894581 1_655
Cl8 Sb0 2.508364 1_555
Cl8 Cs0 3.751384 1_555
Cl8 Cs1 3.777724 1_565
Cl8 Cs1 3.870128 1_555
Cl8 Cs2 3.894585 1_666
