# generated using pymatgen
data_UCu5
_symmetry_space_group_name_H-M   'P 1'
_cell_length_a   4.97811094
_cell_length_b   4.97811094
_cell_length_c   4.97811094
_cell_angle_alpha   60.00000000
_cell_angle_beta   60.00000000
_cell_angle_gamma   60.00000000
_symmetry_Int_Tables_number   1
_chemical_formula_structural   UCu5
_chemical_formula_sum   'U1 Cu5'
_cell_volume   87.23257924
_cell_formula_units_Z   1
loop_
 _symmetry_equiv_pos_site_id
 _symmetry_equiv_pos_as_xyz
  1  'x, y, z'
loop_
 _atom_site_type_symbol
 _atom_site_label
 _atom_site_symmetry_multiplicity
 _atom_site_fract_x
 _atom_site_fract_y
 _atom_site_fract_z
 _atom_site_occupancy
  U  U0  1  0.00000000  0.00000000  0.00000000  1
  Cu  Cu0  1  0.25000000  0.25000000  0.25000000  1
  Cu  Cu1  1  0.62360800  0.62360800  0.62360800  1
  Cu  Cu2  1  0.12917500  0.62360800  0.62360800  1
  Cu  Cu3  1  0.62360800  0.12917500  0.62360800  1
  Cu  Cu4  1  0.62360800  0.62360800  0.12917500  1
loop_
_geom_bond_atom_site_label_1
_geom_bond_atom_site_label_2
_geom_bond_distance
_geom_bond_site_symmetry_2
Cu0 Cu3 2.915767 1_555
Cu0 Cu4 2.915767 1_555
Cu0 Cu2 2.915767 1_555
Cu0 Cu1 2.915769 1_545
Cu0 Cu1 2.915769 1_554
Cu0 Cu1 2.915769 1_455
Cu0 Cu4 2.915771 1_455
Cu0 Cu3 2.915771 1_455
Cu0 Cu3 2.915771 1_554
Cu0 Cu2 2.915771 1_545
Cu0 Cu2 2.915771 1_554
Cu0 Cu4 2.915771 1_545
Cu0 U0 3.048458 1_655
Cu0 U0 3.048458 1_565
Cu0 U0 3.048458 1_555
Cu0 U0 3.048458 1_556
Cu1 Cu3 2.461342 1_555
Cu1 Cu4 2.461342 1_555
Cu1 Cu2 2.461342 1_555
Cu1 Cu2 2.516769 1_655
Cu1 Cu3 2.516769 1_565
Cu1 Cu4 2.516769 1_556
Cu1 U0 2.921679 1_566
Cu1 U0 2.921679 1_656
Cu1 U0 2.921679 1_665
Cu2 Cu3 2.461342 1_555
Cu2 Cu4 2.461342 1_555
Cu2 Cu4 2.516769 1_456
Cu2 Cu3 2.516769 1_465
Cu2 U0 2.921677 1_556
Cu2 U0 2.921677 1_565
Cu2 U0 2.921681 1_566
Cu3 Cu4 2.461342 1_555
Cu3 Cu4 2.516769 1_546
Cu3 U0 2.921677 1_556
Cu3 U0 2.921677 1_655
Cu3 U0 2.921681 1_656
Cu4 U0 2.921677 1_655
Cu4 U0 2.921677 1_565
Cu4 U0 2.921681 1_665
