# generated using pymatgen
data_Sr2CuWO6
_symmetry_space_group_name_H-M   'P 1'
_cell_length_a   5.82365161
_cell_length_b   5.82365161
_cell_length_c   5.82365161
_cell_angle_alpha   124.13580565
_cell_angle_beta   124.13580565
_cell_angle_gamma   82.97440470
_symmetry_Int_Tables_number   1
_chemical_formula_structural   Sr2CuWO6
_chemical_formula_sum   'Sr2 Cu1 W1 O6'
_cell_volume   129.85775961
_cell_formula_units_Z   1
loop_
 _symmetry_equiv_pos_site_id
 _symmetry_equiv_pos_as_xyz
  1  'x, y, z'
loop_
 _atom_site_type_symbol
 _atom_site_label
 _atom_site_symmetry_multiplicity
 _atom_site_fract_x
 _atom_site_fract_y
 _atom_site_fract_z
 _atom_site_occupancy
  Sr  Sr0  1  0.25000000  0.75000000  0.50000000  1
  Sr  Sr1  1  0.75000000  0.25000000  0.50000000  1
  Cu  Cu0  1  0.50000000  0.50000000  0.00000000  1
  W  W0  1  0.00000000  0.00000000  0.00000000  1
  O  O0  1  0.30054400  0.19343500  0.49397800  1
  O  O1  1  0.69945600  0.80656500  0.50602200  1
  O  O2  1  0.19343500  0.69945600  0.89289100  1
  O  O3  1  0.80656500  0.30054400  0.10710900  1
  O  O4  1  0.22484200  0.22484200  0.00000000  1
  O  O5  1  0.77515800  0.77515800  0.00000000  1
loop_
_geom_bond_atom_site_label_1
_geom_bond_atom_site_label_2
_geom_bond_distance
_geom_bond_site_symmetry_2
Cu0 O2 1.995429 1_554
Cu0 O3 1.995429 1_555
Cu0 O1 1.995432 1_555
Cu0 O0 1.995432 1_554
Cu0 O4 2.400764 1_555
Cu0 O5 2.400764 1_555
O0 W0 1.949999 1_555
O0 Sr1 2.656286 1_555
O0 Sr0 2.656293 1_545
O1 W0 1.949999 1_666
O1 Sr0 2.656286 1_555
O1 Sr1 2.656293 1_565
O2 W0 1.950003 1_566
O2 Sr0 2.656290 1_555
O2 Sr1 2.656290 1_455
O3 W0 1.950003 1_655
O3 Sr1 2.656290 1_555
O3 Sr0 2.656290 1_655
O4 W0 1.961755 1_555
O4 Sr1 2.736760 1_454
O4 Sr0 2.736760 1_544
O4 Sr1 2.736760 1_555
O4 Sr0 2.736760 1_555
O5 W0 1.961755 1_665
O5 Sr1 2.736760 1_554
O5 Sr1 2.736760 1_565
O5 Sr0 2.736760 1_655
O5 Sr0 2.736760 1_554
