# generated using pymatgen
data_RbSb2F7
_symmetry_space_group_name_H-M   'P 1'
_cell_length_a   6.57137924
_cell_length_b   8.69073689
_cell_length_c   12.43197929
_cell_angle_alpha   77.83589476
_cell_angle_beta   90.00000000
_cell_angle_gamma   90.00000000
_symmetry_Int_Tables_number   1
_chemical_formula_structural   RbSb2F7
_chemical_formula_sum   'Rb4 Sb8 F28'
_cell_volume   694.05125651
_cell_formula_units_Z   4
loop_
 _symmetry_equiv_pos_site_id
 _symmetry_equiv_pos_as_xyz
  1  'x, y, z'
loop_
 _atom_site_type_symbol
 _atom_site_label
 _atom_site_symmetry_multiplicity
 _atom_site_fract_x
 _atom_site_fract_y
 _atom_site_fract_z
 _atom_site_occupancy
  Rb  Rb0  1  0.23427077  0.07402449  0.11150183  1
  Rb  Rb1  1  0.26572923  0.57402449  0.11150183  1
  Rb  Rb2  1  0.73427077  0.42597551  0.88849817  1
  Rb  Rb3  1  0.76572923  0.92597551  0.88849817  1
  Sb  Sb0  1  0.76093950  0.28506533  0.22190283  1
  Sb  Sb1  1  0.26093950  0.21493467  0.77809717  1
  Sb  Sb2  1  0.23906050  0.71493467  0.77809717  1
  Sb  Sb3  1  0.73906050  0.78506533  0.22190283  1
  Sb  Sb4  1  0.70952763  0.84394643  0.57986502  1
  Sb  Sb5  1  0.79047237  0.34394643  0.57986502  1
  Sb  Sb6  1  0.29047237  0.15605357  0.42013498  1
  Sb  Sb7  1  0.20952763  0.65605357  0.42013498  1
  F  F0  1  0.43010745  0.83965317  0.49832716  1
  F  F1  1  0.38180703  0.36960309  0.35498290  1
  F  F2  1  0.80087840  0.08228796  0.17606018  1
  F  F3  1  0.88180703  0.13039691  0.64501710  1
  F  F4  1  0.04307065  0.18065780  0.89143824  1
  F  F5  1  0.43968533  0.13315607  0.90317394  1
  F  F6  1  0.45692935  0.68065780  0.89143824  1
  F  F7  1  0.08961686  0.21297095  0.28518809  1
  F  F8  1  0.56031467  0.86684393  0.09682606  1
  F  F9  1  0.06031467  0.63315607  0.90317394  1
  F  F10  1  0.61819297  0.63039691  0.64501710  1
  F  F11  1  0.41038314  0.71297095  0.28518809  1
  F  F12  1  0.95692935  0.81934220  0.10856176  1
  F  F13  1  0.06989255  0.33965317  0.49832716  1
  F  F14  1  0.53149029  0.90475270  0.69380808  1
  F  F15  1  0.93968533  0.36684393  0.09682606  1
  F  F16  1  0.54307065  0.31934220  0.10856176  1
  F  F17  1  0.30087840  0.41771204  0.82393982  1
  F  F18  1  0.03149029  0.59524730  0.30619192  1
  F  F19  1  0.19912160  0.91771204  0.82393982  1
  F  F20  1  0.46850971  0.09524730  0.30619192  1
  F  F21  1  0.96850971  0.40475270  0.69380808  1
  F  F22  1  0.11819297  0.86960309  0.35498290  1
  F  F23  1  0.58961686  0.28702905  0.71481191  1
  F  F24  1  0.56989255  0.16034683  0.50167284  1
  F  F25  1  0.69912160  0.58228796  0.17606018  1
  F  F26  1  0.93010745  0.66034683  0.50167284  1
  F  F27  1  0.91038314  0.78702905  0.71481191  1
loop_
_geom_bond_atom_site_label_1
_geom_bond_atom_site_label_2
_geom_bond_distance
_geom_bond_site_symmetry_2
F0 Sb4 2.101527 1_555
F0 Sb7 2.499137 1_555
F1 Sb6 1.956314 1_555
F1 Rb1 3.261019 1_555
F2 Sb0 1.980553 1_555
F2 Sb3 2.557685 1_545
F2 Rb0 2.963886 1_655
F3 Sb5 1.956314 1_555
F3 Rb3 3.261019 1_545
F4 Sb1 1.986717 1_555
F4 Rb3 2.873331 1_445
F4 Rb2 2.937976 1_455
F4 Rb0 2.975527 1_556
F5 Sb1 1.958817 1_555
F5 Rb3 2.829182 1_545
F5 Rb0 2.869326 1_556
F5 Rb2 3.171933 1_555
F6 Sb2 1.986717 1_555
F6 Rb2 2.873331 1_555
F6 Rb3 2.937976 1_555
F6 Rb1 2.975527 1_556
F7 Sb6 2.109887 1_555
F7 Sb0 2.338553 1_455
F7 Rb0 2.850090 1_555
F8 Sb3 1.958817 1_555
F8 Rb0 2.829182 1_565
F8 Rb3 2.869326 1_554
F8 Rb1 3.171933 1_555
F9 Sb2 1.958817 1_555
F9 Rb2 2.829182 1_455
F9 Rb1 2.869326 1_556
F9 Rb3 3.171933 1_455
F10 Sb4 1.956314 1_555
F10 Rb2 3.261019 1_555
F11 Sb7 2.109887 1_555
F11 Sb3 2.338553 1_555
F11 Rb1 2.850090 1_555
F12 Sb3 1.986717 1_555
F12 Rb0 2.873331 1_665
F12 Rb1 2.937976 1_655
F12 Rb3 2.975527 1_554
F13 Sb5 2.101527 1_455
F13 Sb6 2.499137 1_555
F14 Sb4 1.992509 1_555
F14 Sb2 2.604561 1_555
F14 Rb3 2.906848 1_555
F15 Sb0 1.958817 1_555
F15 Rb1 2.829182 1_655
F15 Rb2 2.869326 1_554
F15 Rb0 3.171933 1_655
F16 Sb0 1.986717 1_555
F16 Rb1 2.873331 1_555
F16 Rb0 2.937976 1_555
F16 Rb2 2.975527 1_554
F17 Sb1 1.980553 1_555
F17 Sb2 2.557685 1_555
F17 Rb2 2.963886 1_555
F18 Sb7 1.992509 1_555
F18 Sb3 2.604561 1_455
F18 Rb1 2.906848 1_555
F19 Sb2 1.980553 1_555
F19 Sb1 2.557685 1_565
F19 Rb3 2.963886 1_455
F20 Sb6 1.992509 1_555
F20 Sb0 2.604561 1_555
F20 Rb0 2.906848 1_555
F21 Sb5 1.992509 1_555
F21 Sb1 2.604561 1_655
F21 Rb2 2.906848 1_555
F22 Sb7 1.956314 1_555
F22 Rb0 3.261019 1_565
F23 Sb5 2.109887 1_555
F23 Sb1 2.338553 1_555
F23 Rb2 2.850090 1_555
F24 Sb6 2.101527 1_555
F24 Sb5 2.499137 1_555
F25 Sb3 1.980553 1_555
F25 Sb0 2.557685 1_555
F25 Rb1 2.963886 1_555
F26 Sb7 2.101527 1_655
F26 Sb4 2.499137 1_555
F27 Sb4 2.109887 1_555
F27 Sb2 2.338553 1_655
F27 Rb3 2.850090 1_555
