# generated using pymatgen
data_Ba3In(BO2)9
_symmetry_space_group_name_H-M   'P 1'
_cell_length_a   7.23343794
_cell_length_b   7.23343794
_cell_length_c   17.14814600
_cell_angle_alpha   90.00000000
_cell_angle_beta   90.00000000
_cell_angle_gamma   119.99999949
_symmetry_Int_Tables_number   1
_chemical_formula_structural   Ba3In(BO2)9
_chemical_formula_sum   'Ba6 In2 B18 O36'
_cell_volume   777.02917653
_cell_formula_units_Z   2
loop_
 _symmetry_equiv_pos_site_id
 _symmetry_equiv_pos_as_xyz
  1  'x, y, z'
loop_
 _atom_site_type_symbol
 _atom_site_label
 _atom_site_symmetry_multiplicity
 _atom_site_fract_x
 _atom_site_fract_y
 _atom_site_fract_z
 _atom_site_occupancy
  Ba  Ba0  1  0.33333300  0.66666700  0.37004000  1
  Ba  Ba1  1  0.33333300  0.66666700  0.12996000  1
  Ba  Ba2  1  0.66666700  0.33333300  0.62996000  1
  Ba  Ba3  1  0.66666700  0.33333300  0.87004000  1
  Ba  Ba4  1  0.00000000  0.00000000  0.25000000  1
  Ba  Ba5  1  0.00000000  0.00000000  0.75000000  1
  In  In0  1  0.00000000  0.00000000  0.00000000  1
  In  In1  1  0.00000000  0.00000000  0.50000000  1
  B  B0  1  0.72066400  0.16739200  0.07818700  1
  B  B1  1  0.27933600  0.83260800  0.57818700  1
  B  B2  1  0.50540000  0.88379200  0.75000000  1
  B  B3  1  0.55327200  0.72066400  0.92181300  1
  B  B4  1  0.44672800  0.27933600  0.42181300  1
  B  B5  1  0.83260800  0.55327200  0.42181300  1
  B  B6  1  0.49460000  0.11620800  0.25000000  1
  B  B7  1  0.37839200  0.49460000  0.75000000  1
  B  B8  1  0.16739200  0.44672800  0.57818700  1
  B  B9  1  0.88379200  0.37839200  0.25000000  1
  B  B10  1  0.44672800  0.27933600  0.07818700  1
  B  B11  1  0.27933600  0.83260800  0.92181300  1
  B  B12  1  0.72066400  0.16739200  0.42181300  1
  B  B13  1  0.11620800  0.62160800  0.75000000  1
  B  B14  1  0.62160800  0.50540000  0.25000000  1
  B  B15  1  0.83260800  0.55327200  0.07818700  1
  B  B16  1  0.55327200  0.72066400  0.57818700  1
  B  B17  1  0.16739200  0.44672800  0.92181300  1
  O  O0  1  0.16640200  0.45694400  0.75000000  1
  O  O1  1  0.61525500  0.49422300  0.42127700  1
  O  O2  1  0.41375000  0.33123800  0.75000000  1
  O  O3  1  0.24524800  0.23930500  0.42225000  1
  O  O4  1  0.50577700  0.12103200  0.42127700  1
  O  O5  1  0.33123800  0.91748900  0.25000000  1
  O  O6  1  0.50577700  0.12103200  0.07872300  1
  O  O7  1  0.12103200  0.61525500  0.92127700  1
  O  O8  1  0.83359800  0.54305600  0.25000000  1
  O  O9  1  0.75475200  0.76069500  0.57775000  1
  O  O10  1  0.23930500  0.99405700  0.92225000  1
  O  O11  1  0.00594300  0.24524800  0.57775000  1
  O  O12  1  0.49422300  0.87896800  0.92127700  1
  O  O13  1  0.99405700  0.75475200  0.42225000  1
  O  O14  1  0.54305600  0.70945800  0.75000000  1
  O  O15  1  0.38474500  0.50577700  0.92127700  1
  O  O16  1  0.76069500  0.00594300  0.07775000  1
  O  O17  1  0.38474500  0.50577700  0.57872300  1
  O  O18  1  0.87896800  0.38474500  0.07872300  1
  O  O19  1  0.99405700  0.75475200  0.07775000  1
  O  O20  1  0.61525500  0.49422300  0.07872300  1
  O  O21  1  0.49422300  0.87896800  0.57872300  1
  O  O22  1  0.70945800  0.16640200  0.25000000  1
  O  O23  1  0.08251100  0.41375000  0.25000000  1
  O  O24  1  0.23930500  0.99405700  0.57775000  1
  O  O25  1  0.91748900  0.58625000  0.75000000  1
  O  O26  1  0.29054200  0.83359800  0.75000000  1
  O  O27  1  0.45694400  0.29054200  0.25000000  1
  O  O28  1  0.87896800  0.38474500  0.42127700  1
  O  O29  1  0.12103200  0.61525500  0.57872300  1
  O  O30  1  0.58625000  0.66876200  0.25000000  1
  O  O31  1  0.76069500  0.00594300  0.42225000  1
  O  O32  1  0.66876200  0.08251100  0.75000000  1
  O  O33  1  0.00594300  0.24524800  0.92225000  1
  O  O34  1  0.24524800  0.23930500  0.07775000  1
  O  O35  1  0.75475200  0.76069500  0.92225000  1
loop_
_geom_bond_atom_site_label_1
_geom_bond_atom_site_label_2
_geom_bond_distance
_geom_bond_site_symmetry_2
Ba0 O5 2.748945 1_555
Ba0 O30 2.748945 1_555
Ba0 O23 2.748945 1_555
Ba0 O13 2.965463 1_455
Ba0 O31 2.965468 1_565
Ba0 O3 2.965470 1_555
Ba0 O4 3.005022 1_565
Ba0 O28 3.005023 1_455
Ba0 O1 3.005028 1_555
Ba1 O5 2.748945 1_555
Ba1 O30 2.748945 1_555
Ba1 O23 2.748945 1_555
Ba1 O19 2.965463 1_455
Ba1 O16 2.965468 1_565
Ba1 O34 2.965470 1_555
Ba1 O6 3.005022 1_565
Ba1 O18 3.005023 1_455
Ba1 O20 3.005028 1_555
Ba2 O32 2.748945 1_555
Ba2 O2 2.748945 1_555
Ba2 O25 2.748945 1_555
Ba2 O11 2.965463 1_655
Ba2 O24 2.965468 1_545
Ba2 O9 2.965470 1_555
Ba2 O21 3.005022 1_545
Ba2 O29 3.005023 1_655
Ba2 O17 3.005028 1_555
Ba3 O32 2.748945 1_555
Ba3 O2 2.748945 1_555
Ba3 O25 2.748945 1_555
Ba3 O33 2.965463 1_655
Ba3 O10 2.965468 1_545
Ba3 O35 2.965470 1_555
Ba3 O12 3.005022 1_545
Ba3 O7 3.005023 1_655
Ba3 O15 3.005028 1_555
Ba4 O5 2.743538 1_545
Ba4 O30 2.743543 1_445
Ba4 O23 2.743545 1_555
Ba4 O22 2.897451 1_455
Ba4 O8 2.897451 1_445
Ba4 O27 2.897451 1_555
Ba4 O31 3.434729 1_455
Ba4 O16 3.434729 1_455
Ba4 O19 3.434729 1_445
Ba4 O13 3.434729 1_445
Ba4 O34 3.434729 1_555
Ba4 O3 3.434729 1_555
Ba5 O32 2.743538 1_455
Ba5 O2 2.743543 1_555
Ba5 O25 2.743545 1_445
Ba5 O26 2.897451 1_545
Ba5 O0 2.897451 1_555
Ba5 O14 2.897451 1_445
Ba5 O24 3.434729 1_545
Ba5 O10 3.434729 1_545
Ba5 O11 3.434729 1_555
Ba5 O33 3.434729 1_555
Ba5 O9 3.434729 1_445
Ba5 O35 3.434729 1_445
In0 O16 2.202321 1_455
In0 O10 2.202321 1_544
In0 O19 2.202321 1_445
In0 O33 2.202321 1_554
In0 O35 2.202321 1_444
In0 O34 2.202321 1_555
In1 O31 2.202321 1_455
In1 O24 2.202321 1_545
In1 O13 2.202321 1_445
In1 O11 2.202321 1_555
In1 O3 2.202321 1_555
In1 O9 2.202321 1_445
B0 O16 1.336372 1_555
B0 O18 1.408130 1_555
B0 O6 1.416815 1_555
B1 O24 1.336372 1_555
B1 O29 1.408130 1_555
B1 O21 1.416815 1_555
B2 O32 1.328144 1_565
B2 O26 1.408178 1_555
B2 O14 1.416998 1_555
B3 O35 1.336372 1_555
B3 O12 1.408130 1_555
B3 O15 1.416815 1_555
B4 O3 1.336372 1_555
B4 O4 1.408130 1_555
B4 O1 1.416815 1_555
B5 O13 1.336373 1_555
B5 O1 1.408130 1_555
B5 O28 1.416815 1_555
B6 O5 1.328144 1_545
B6 O22 1.408178 1_555
B6 O27 1.416998 1_555
B7 O2 1.328148 1_555
B7 O14 1.408178 1_555
B7 O0 1.416998 1_555
B8 O11 1.336373 1_555
B8 O17 1.408130 1_555
B8 O29 1.416815 1_555
B9 O23 1.328141 1_655
B9 O8 1.408178 1_555
B9 O22 1.416998 1_555
B10 O34 1.336372 1_555
B10 O6 1.408130 1_555
B10 O20 1.416815 1_555
B11 O10 1.336372 1_555
B11 O7 1.408130 1_555
B11 O12 1.416815 1_555
B12 O31 1.336372 1_555
B12 O28 1.408130 1_555
B12 O4 1.416815 1_555
B13 O25 1.328141 1_455
B13 O0 1.408178 1_555
B13 O26 1.416998 1_555
B14 O30 1.328148 1_555
B14 O27 1.408178 1_555
B14 O8 1.416998 1_555
B15 O19 1.336373 1_555
B15 O20 1.408130 1_555
B15 O18 1.416815 1_555
B16 O9 1.336372 1_555
B16 O21 1.408130 1_555
B16 O17 1.416815 1_555
B17 O33 1.336373 1_555
B17 O15 1.408130 1_555
B17 O7 1.416815 1_555
