# generated using pymatgen
data_GePb3O5
_symmetry_space_group_name_H-M   'P 1'
_cell_length_a   10.52342663
_cell_length_b   5.30256749
_cell_length_c   5.52704001
_cell_angle_alpha   86.86488918
_cell_angle_beta   90.00000000
_cell_angle_gamma   90.00000000
_symmetry_Int_Tables_number   1
_chemical_formula_structural   GePb3O5
_chemical_formula_sum   'Ge2 Pb6 O10'
_cell_volume   307.95376246
_cell_formula_units_Z   2
loop_
 _symmetry_equiv_pos_site_id
 _symmetry_equiv_pos_as_xyz
  1  'x, y, z'
loop_
 _atom_site_type_symbol
 _atom_site_label
 _atom_site_symmetry_multiplicity
 _atom_site_fract_x
 _atom_site_fract_y
 _atom_site_fract_z
 _atom_site_occupancy
  Ge  Ge0  1  0.24286719  0.97875084  0.45191033  1
  Ge  Ge1  1  0.74286719  0.02124916  0.54808967  1
  Pb  Pb0  1  0.00025123  0.97543525  0.95394935  1
  Pb  Pb1  1  0.50025123  0.02456475  0.04605065  1
  Pb  Pb2  1  0.74961309  0.49435046  0.01660345  1
  Pb  Pb3  1  0.51526141  0.51248946  0.50191737  1
  Pb  Pb4  1  0.01526141  0.48751054  0.49808263  1
  Pb  Pb5  1  0.24961309  0.50564954  0.98339655  1
  O  O0  1  0.40740850  0.92802008  0.47214642  1
  O  O1  1  0.05325054  0.37822286  0.90119648  1
  O  O2  1  0.16006940  0.83001995  0.69916570  1
  O  O3  1  0.66006940  0.16998005  0.30083430  1
  O  O4  1  0.90740850  0.07197992  0.52785358  1
  O  O5  1  0.55325054  0.62177714  0.09880352  1
  O  O6  1  0.20844783  0.30514635  0.41240966  1
  O  O7  1  0.18173181  0.83888074  0.19151734  1
  O  O8  1  0.70844783  0.69485365  0.58759034  1
  O  O9  1  0.68173181  0.16111926  0.80848266  1
loop_
_geom_bond_atom_site_label_1
_geom_bond_atom_site_label_2
_geom_bond_distance
_geom_bond_site_symmetry_2
Ge0 O0 1.754938 1_555
Ge0 O2 1.769421 1_555
Ge0 O6 1.770020 1_565
Ge0 O7 1.775398 1_555
Ge1 O4 1.754938 1_555
Ge1 O3 1.769421 1_555
Ge1 O8 1.770020 1_545
Ge1 O9 1.775398 1_555
O0 Pb3 2.475981 1_555
O0 Pb1 2.575079 1_565
O1 Pb0 2.211253 1_545
O1 Pb5 2.228582 1_555
O1 Pb4 2.306192 1_555
O2 Pb0 2.350515 1_555
O2 Pb5 2.453299 1_555
O2 Pb4 2.660205 1_555
O3 Pb1 2.350515 1_555
O3 Pb2 2.453299 1_555
O3 Pb3 2.660205 1_555
O4 Pb4 2.475981 1_655
O4 Pb0 2.575079 1_645
O5 Pb1 2.211253 1_565
O5 Pb2 2.228582 1_555
O5 Pb3 2.306192 1_555
O6 Pb4 2.311365 1_555
O6 Pb5 2.581613 1_554
O7 Pb5 2.275522 1_554
O7 Pb0 2.406602 1_554
O8 Pb3 2.311365 1_555
O8 Pb2 2.581613 1_556
O9 Pb2 2.275522 1_556
O9 Pb1 2.406602 1_556
