# generated using pymatgen
data_CeTe3
_symmetry_space_group_name_H-M   'P 1'
_cell_length_a   4.39065036
_cell_length_b   4.39251662
_cell_length_c   13.30806884
_cell_angle_alpha   90.00000000
_cell_angle_beta   99.44510508
_cell_angle_gamma   90.00000000
_symmetry_Int_Tables_number   1
_chemical_formula_structural   CeTe3
_chemical_formula_sum   'Ce2 Te6'
_cell_volume   253.18001726
_cell_formula_units_Z   2
loop_
 _symmetry_equiv_pos_site_id
 _symmetry_equiv_pos_as_xyz
  1  'x, y, z'
loop_
 _atom_site_type_symbol
 _atom_site_label
 _atom_site_symmetry_multiplicity
 _atom_site_fract_x
 _atom_site_fract_y
 _atom_site_fract_z
 _atom_site_occupancy
  Ce  Ce0  1  0.08957115  0.75000000  0.33770318  1
  Ce  Ce1  1  0.75199947  0.25000000  0.66230019  1
  Te  Te0  1  0.99503845  0.25000000  0.14788109  1
  Te  Te1  1  0.49475912  0.75000000  0.14812386  1
  Te  Te2  1  0.62575166  0.25000000  0.40990023  1
  Te  Te3  1  0.84697335  0.75000000  0.85209681  1
  Te  Te4  1  0.34722203  0.25000000  0.85186419  1
  Te  Te5  1  0.21568577  0.75000000  0.59013044  1
loop_
_geom_bond_atom_site_label_1
_geom_bond_atom_site_label_2
_geom_bond_distance
_geom_bond_site_symmetry_2
Ce0 Te2 3.245933 1_455
Ce0 Te2 3.245933 1_465
Ce0 Te2 3.247537 1_565
Ce0 Te2 3.247537 1_555
Ce0 Te5 3.313779 1_555
Ce0 Te1 3.317121 1_555
Ce0 Te1 3.320120 1_455
Ce0 Te0 3.321628 1_455
Ce0 Te0 3.321628 1_465
Ce1 Te5 3.245393 1_655
Ce1 Te5 3.245393 1_645
Ce1 Te5 3.247868 1_545
Ce1 Te5 3.247868 1_555
Ce1 Te2 3.313421 1_555
Ce1 Te4 3.315757 1_555
Ce1 Te4 3.321185 1_655
Ce1 Te3 3.321378 1_545
Ce1 Te3 3.321378 1_555
Te0 Te1 3.104079 1_655
Te0 Te1 3.104079 1_645
Te0 Te1 3.106562 1_545
Te0 Te1 3.106562 1_555
Te3 Te4 3.104189 1_565
Te3 Te4 3.104189 1_555
Te3 Te4 3.106451 1_665
Te3 Te4 3.106451 1_655
