# generated using pymatgen
data_Sr14MnSb11
_symmetry_space_group_name_H-M   'P 1'
_cell_length_a   17.08800931
_cell_length_b   17.08800931
_cell_length_c   17.08800931
_cell_angle_alpha   117.77309907
_cell_angle_beta   117.77309907
_cell_angle_gamma   93.90242179
_symmetry_Int_Tables_number   1
_chemical_formula_structural   Sr14MnSb11
_chemical_formula_sum   'Sr56 Mn4 Sb44'
_cell_volume   3637.88196826
_cell_formula_units_Z   4
loop_
 _symmetry_equiv_pos_site_id
 _symmetry_equiv_pos_as_xyz
  1  'x, y, z'
loop_
 _atom_site_type_symbol
 _atom_site_label
 _atom_site_symmetry_multiplicity
 _atom_site_fract_x
 _atom_site_fract_y
 _atom_site_fract_z
 _atom_site_occupancy
  Sr  Sr0  1  0.35084000  0.68779500  0.97523200  1
  Sr  Sr1  1  0.93779500  0.10084000  0.47523200  1
  Sr  Sr2  1  0.77544800  0.49655900  0.36663200  1
  Sr  Sr3  1  0.12500000  0.51909300  0.89409300  1
  Sr  Sr4  1  0.62500000  0.23090700  0.10590700  1
  Sr  Sr5  1  0.71256300  0.37560800  0.02476800  1
  Sr  Sr6  1  0.00344100  0.72455200  0.63336800  1
  Sr  Sr7  1  0.85084000  0.87560800  0.66304500  1
  Sr  Sr8  1  0.12560800  0.60084000  0.16304500  1
  Sr  Sr9  1  0.49727200  0.14429000  0.39624400  1
  Sr  Sr10  1  0.89429000  0.99804700  0.14701900  1
  Sr  Sr11  1  0.35571000  0.00272800  0.60375600  1
  Sr  Sr12  1  0.97455200  0.75344100  0.13336800  1
  Sr  Sr13  1  0.03743700  0.87439200  0.47523200  1
  Sr  Sr14  1  0.53743700  0.06220500  0.16304500  1
  Sr  Sr15  1  0.47455200  0.34118300  0.22111100  1
  Sr  Sr16  1  0.39897200  0.75195300  0.39624400  1
  Sr  Sr17  1  0.39429000  0.24727200  0.89624400  1
  Sr  Sr18  1  0.89916000  0.37439200  0.83695500  1
  Sr  Sr19  1  0.35102800  0.49804700  0.10375600  1
  Sr  Sr20  1  0.48090700  0.37500000  0.60590700  1
  Sr  Sr21  1  0.43779500  0.96256300  0.83695500  1
  Sr  Sr22  1  0.62992700  0.99655900  0.72111100  1
  Sr  Sr23  1  0.75272800  0.64897200  0.14701900  1
  Sr  Sr24  1  0.31220500  0.28743700  0.66304500  1
  Sr  Sr25  1  0.12439200  0.78743700  0.97523200  1
  Sr  Sr26  1  0.24655900  0.37992700  0.22111100  1
  Sr  Sr27  1  0.50195300  0.60571000  0.85298100  1
  Sr  Sr28  1  0.81220500  0.14916000  0.02476800  1
  Sr  Sr29  1  0.76909300  0.87500000  0.39409300  1
  Sr  Sr30  1  0.65881700  0.87992700  0.13336800  1
  Sr  Sr31  1  0.15881700  0.02544800  0.77888900  1
  Sr  Sr32  1  0.99727200  0.60102800  0.35298100  1
  Sr  Sr33  1  0.59118300  0.22455200  0.72111100  1
  Sr  Sr34  1  0.85102800  0.74727200  0.85298100  1
  Sr  Sr35  1  0.62007300  0.84118300  0.86663200  1
  Sr  Sr36  1  0.62560800  0.46256300  0.52476800  1
  Sr  Sr37  1  0.26909300  0.87500000  0.89409300  1
  Sr  Sr38  1  0.27544800  0.90881700  0.27888900  1
  Sr  Sr39  1  0.74655900  0.52544800  0.86663200  1
  Sr  Sr40  1  0.89897200  0.50272800  0.64701900  1
  Sr  Sr41  1  0.12500000  0.01909300  0.39409300  1
  Sr  Sr42  1  0.24804700  0.64429000  0.64701900  1
  Sr  Sr43  1  0.74804700  0.10102800  0.60375600  1
  Sr  Sr44  1  0.98090700  0.37500000  0.10590700  1
  Sr  Sr45  1  0.00195300  0.14897200  0.89624400  1
  Sr  Sr46  1  0.21256300  0.18779500  0.33695500  1
  Sr  Sr47  1  0.62500000  0.73090700  0.60590700  1
  Sr  Sr48  1  0.85571000  0.25195300  0.35298100  1
  Sr  Sr49  1  0.12007300  0.25344100  0.77888900  1
  Sr  Sr50  1  0.50344100  0.87007300  0.27888900  1
  Sr  Sr51  1  0.12992700  0.40881700  0.63336800  1
  Sr  Sr52  1  0.62439200  0.64916000  0.33695500  1
  Sr  Sr53  1  0.25272800  0.10571000  0.10375600  1
  Sr  Sr54  1  0.09118300  0.37007300  0.36663200  1
  Sr  Sr55  1  0.39916000  0.56220500  0.52476800  1
  Mn  Mn0  1  0.50000000  0.50000000  0.00000000  1
  Mn  Mn1  1  0.75000000  0.25000000  0.50000000  1
  Mn  Mn2  1  0.25000000  0.75000000  0.50000000  1
  Mn  Mn3  1  0.00000000  0.00000000  0.00000000  1
  Sb  Sb0  1  0.89706300  0.54122300  0.09426700  1
  Sb  Sb1  1  0.44673700  0.80856300  0.63186200  1
  Sb  Sb2  1  0.85293700  0.70877700  0.40573300  1
  Sb  Sb3  1  0.69143700  0.05326300  0.36813800  1
  Sb  Sb4  1  0.55279600  0.14706300  0.85583900  1
  Sb  Sb5  1  0.55856300  0.42670100  0.86182600  1
  Sb  Sb6  1  0.88267800  0.88267800  0.26535500  1
  Sb  Sb7  1  0.80304300  0.20877700  0.85583900  1
  Sb  Sb8  1  0.50000000  0.00000000  0.50000000  1
  Sb  Sb9  1  0.67670100  0.30856300  0.36182600  1
  Sb  Sb10  1  0.07329900  0.94143700  0.13817400  1
  Sb  Sb11  1  0.29122300  0.69695700  0.14416100  1
  Sb  Sb12  1  0.57329900  0.43512500  0.13186200  1
  Sb  Sb13  1  0.19720400  0.10293700  0.64416100  1
  Sb  Sb14  1  0.75000000  0.75000000  0.00000000  1
  Sb  Sb15  1  0.11732200  0.38267800  0.00000000  1
  Sb  Sb16  1  0.06487500  0.92670100  0.86813800  1
  Sb  Sb17  1  0.17670100  0.81487500  0.36813800  1
  Sb  Sb18  1  0.80326300  0.93512500  0.86182600  1
  Sb  Sb19  1  0.45877700  0.55304300  0.35583900  1
  Sb  Sb20  1  0.19143700  0.82329900  0.63817400  1
  Sb  Sb21  1  0.94695700  0.04122300  0.64416100  1
  Sb  Sb22  1  0.25000000  0.25000000  0.00000000  1
  Sb  Sb23  1  0.05856300  0.19673700  0.13186200  1
  Sb  Sb24  1  0.13267800  0.63267800  0.76535500  1
  Sb  Sb25  1  0.18512500  0.55326300  0.36182600  1
  Sb  Sb26  1  0.95877700  0.60293700  0.90573300  1
  Sb  Sb27  1  0.56487500  0.69673700  0.13817400  1
  Sb  Sb28  1  0.30304300  0.44720400  0.59426700  1
  Sb  Sb29  1  0.86732200  0.36732200  0.23464500  1
  Sb  Sb30  1  0.61732200  0.61732200  0.73464500  1
  Sb  Sb31  1  0.35293700  0.94720400  0.14416100  1
  Sb  Sb32  1  0.36732200  0.13267800  0.50000000  1
  Sb  Sb33  1  0.39706300  0.30279600  0.35583900  1
  Sb  Sb34  1  0.30326300  0.44143700  0.86813800  1
  Sb  Sb35  1  0.69720400  0.05304300  0.09426700  1
  Sb  Sb36  1  0.44695700  0.80279600  0.90573300  1
  Sb  Sb37  1  0.63267800  0.86732200  0.50000000  1
  Sb  Sb38  1  0.00000000  0.50000000  0.50000000  1
  Sb  Sb39  1  0.38267800  0.11732200  0.00000000  1
  Sb  Sb40  1  0.94673700  0.31487500  0.63817400  1
  Sb  Sb41  1  0.05279600  0.19695700  0.40573300  1
  Sb  Sb42  1  0.68512500  0.32329900  0.63186200  1
  Sb  Sb43  1  0.79122300  0.64706300  0.59426700  1
loop_
_geom_bond_atom_site_label_1
_geom_bond_atom_site_label_2
_geom_bond_distance
_geom_bond_site_symmetry_2
Mn0 Sb27 2.785982 1_555
Mn0 Sb5 2.785982 1_554
Mn0 Sb34 2.785982 1_554
Mn0 Sb12 2.785982 1_555
Mn0 Sr23 3.724865 1_555
Mn0 Sr19 3.724865 1_555
Mn0 Sr17 3.724868 1_554
Mn0 Sr27 3.724879 1_554
Mn1 Sb42 2.785982 1_555
Mn1 Sb40 2.785982 1_555
Mn1 Sb9 2.785982 1_555
Mn1 Sb3 2.785982 1_555
Mn1 Sr40 3.724865 1_555
Mn1 Sr43 3.724865 1_555
Mn1 Sr9 3.724868 1_555
Mn1 Sr48 3.724879 1_555
Mn2 Sb25 2.785982 1_555
Mn2 Sb1 2.785982 1_555
Mn2 Sb20 2.785982 1_555
Mn2 Sb17 2.785982 1_555
Mn2 Sr16 3.724865 1_555
Mn2 Sr32 3.724865 1_455
Mn2 Sr11 3.724868 1_565
Mn2 Sr42 3.724879 1_555
Mn3 Sb10 2.785982 1_545
Mn3 Sb23 2.785982 1_555
Mn3 Sb16 2.785982 1_544
Mn3 Sb18 2.785982 1_444
Mn3 Sr45 3.724865 1_554
Mn3 Sr34 3.724865 1_444
Mn3 Sr53 3.724868 1_555
Mn3 Sr10 3.724879 1_445
Sb0 Sr44 3.312872 1_555
Sb0 Sr39 3.379797 1_554
Sb0 Sr23 3.380693 1_555
Sb0 Sr5 3.394581 1_555
Sb0 Sr12 3.407962 1_555
Sb0 Sr8 3.425814 1_655
Sb0 Sr32 3.466603 1_555
Sb1 Sr16 3.318554 1_555
Sb1 Sr21 3.345101 1_555
Sb1 Sr35 3.434444 1_555
Sb1 Sr22 3.472922 1_555
Sb1 Sr47 3.535179 1_555
Sb1 Sr55 3.563710 1_555
Sb1 Sr11 3.892285 1_565
Sb2 Sr29 3.312872 1_555
Sb2 Sr6 3.379797 1_655
Sb2 Sr32 3.380693 1_555
Sb2 Sr13 3.394581 1_655
Sb2 Sr2 3.407962 1_555
Sb2 Sr52 3.425814 1_555
Sb2 Sr23 3.466603 1_555
Sb3 Sr43 3.318554 1_555
Sb3 Sr14 3.345101 1_555
Sb3 Sr30 3.434444 1_545
Sb3 Sr50 3.472922 1_545
Sb3 Sr29 3.535179 1_545
Sb3 Sr1 3.563710 1_555
Sb3 Sr9 3.892285 1_555
Sb4 Sr4 3.312888 1_556
Sb4 Sr22 3.379788 1_545
Sb4 Sr11 3.380679 1_555
Sb4 Sr21 3.394592 1_545
Sb4 Sr33 3.407938 1_555
Sb4 Sr5 3.425813 1_556
Sb4 Sr17 3.466624 1_555
Sb5 Sr27 3.318570 1_555
Sb5 Sr5 3.345101 1_556
Sb5 Sr33 3.434427 1_555
Sb5 Sr39 3.472922 1_555
Sb5 Sr20 3.535179 1_555
Sb5 Sr24 3.563710 1_555
Sb5 Sr23 3.892292 1_556
Sb6 Sr30 3.399776 1_555
Sb6 Sr12 3.399782 1_555
Sb6 Sr1 3.400155 1_565
Sb6 Sr13 3.400160 1_655
Sb6 Sr10 3.471418 1_555
Sb6 Sr23 3.471443 1_555
Sb6 Sr41 3.582924 1_665
Sb6 Sr29 3.582943 1_555
Sb7 Sr44 3.312885 1_556
Sb7 Sr33 3.379793 1_555
Sb7 Sr43 3.380684 1_555
Sb7 Sr18 3.394577 1_555
Sb7 Sr22 3.407958 1_545
Sb7 Sr28 3.425825 1_556
Sb7 Sr45 3.466616 1_655
Sb8 Sr22 3.408179 1_545
Sb8 Sr50 3.408179 1_545
Sb8 Sr33 3.408182 1_555
Sb8 Sr38 3.408182 1_545
Sb8 Sr11 3.638350 1_555
Sb8 Sr9 3.638350 1_555
Sb8 Sr43 3.638366 1_555
Sb8 Sr16 3.638366 1_545
Sb9 Sr48 3.318570 1_555
Sb9 Sr36 3.345101 1_555
Sb9 Sr15 3.434427 1_555
Sb9 Sr2 3.472922 1_555
Sb9 Sr4 3.535179 1_555
Sb9 Sr14 3.563710 1_555
Sb9 Sr40 3.892292 1_555
Sb10 Sr10 3.318570 1_455
Sb10 Sr25 3.345101 1_554
Sb10 Sr38 3.434427 1_555
Sb10 Sr12 3.472922 1_455
Sb10 Sr41 3.535179 1_565
Sb10 Sr46 3.563710 1_565
Sb10 Sr34 3.892292 1_454
Sb11 Sr3 3.312885 1_554
Sb11 Sr38 3.379793 1_555
Sb11 Sr16 3.380684 1_555
Sb11 Sr8 3.394577 1_555
Sb11 Sr50 3.407958 1_555
Sb11 Sr0 3.425825 1_554
Sb11 Sr19 3.466616 1_555
Sb12 Sr17 3.318559 1_554
Sb12 Sr52 3.345101 1_555
Sb12 Sr2 3.434436 1_555
Sb12 Sr15 3.472933 1_555
Sb12 Sr4 3.535179 1_555
Sb12 Sr5 3.563710 1_555
Sb12 Sr19 3.892292 1_555
Sb13 Sr41 3.312888 1_555
Sb13 Sr49 3.379788 1_555
Sb13 Sr17 3.380679 1_555
Sb13 Sr24 3.394592 1_555
Sb13 Sr31 3.407938 1_555
Sb13 Sr13 3.425813 1_545
Sb13 Sr11 3.466624 1_555
Sb14 Sb30 3.313607 1_554
Sb14 Sb6 3.313607 1_555
Sb14 Sr30 3.408166 1_555
Sb14 Sr35 3.408166 1_554
Sb14 Sr39 3.408179 1_554
Sb14 Sr12 3.408179 1_555
Sb14 Sr10 3.638361 1_555
Sb14 Sr27 3.638361 1_554
Sb14 Sr23 3.638366 1_555
Sb14 Sr34 3.638366 1_554
Sb15 Sb22 3.313620 1_555
Sb15 Sr26 3.399792 1_555
Sb15 Sr49 3.399792 1_554
Sb15 Sr18 3.400148 1_454
Sb15 Sr8 3.400148 1_555
Sb15 Sr45 3.471438 1_554
Sb15 Sr19 3.471438 1_555
Sb15 Sr44 3.582928 1_455
Sb15 Sr3 3.582928 1_554
Sb16 Sr53 3.318559 1_566
Sb16 Sr7 3.345101 1_455
Sb16 Sr6 3.434436 1_555
Sb16 Sr31 3.472933 1_565
Sb16 Sr37 3.535179 1_555
Sb16 Sr25 3.563710 1_555
Sb16 Sr45 3.892292 1_565
Sb17 Sr11 3.318559 1_565
Sb17 Sr8 3.345101 1_555
Sb17 Sr12 3.434436 1_455
Sb17 Sr38 3.472933 1_555
Sb17 Sr41 3.535179 1_565
Sb17 Sr13 3.563710 1_555
Sb17 Sr16 3.892292 1_555
Sb18 Sr34 3.318554 1_555
Sb18 Sr28 3.345101 1_566
Sb18 Sr22 3.434436 1_555
Sb18 Sr35 3.472929 1_555
Sb18 Sr47 3.535179 1_555
Sb18 Sr7 3.563710 1_555
Sb18 Sr10 3.892295 1_556
Sb19 Sr47 3.312885 1_555
Sb19 Sr15 3.379793 1_555
Sb19 Sr19 3.380684 1_555
Sb19 Sr52 3.394577 1_555
Sb19 Sr26 3.407958 1_555
Sb19 Sr55 3.425825 1_555
Sb19 Sr16 3.466616 1_555
Sb20 Sr42 3.318570 1_555
Sb20 Sr13 3.345101 1_555
Sb20 Sr31 3.434427 1_565
Sb20 Sr6 3.472922 1_555
Sb20 Sr37 3.535179 1_555
Sb20 Sr21 3.563710 1_555
Sb20 Sr32 3.892292 1_455
Sb21 Sr29 3.312885 1_545
Sb21 Sr31 3.379793 1_655
Sb21 Sr45 3.380684 1_655
Sb21 Sr7 3.394577 1_545
Sb21 Sr49 3.407958 1_655
Sb21 Sr1 3.425825 1_555
Sb21 Sr43 3.466616 1_555
Sb22 Sb39 3.313620 1_555
Sb22 Sr26 3.408179 1_555
Sb22 Sr49 3.408179 1_554
Sb22 Sr15 3.408182 1_555
Sb22 Sr31 3.408182 1_554
Sb22 Sr53 3.638350 1_555
Sb22 Sr17 3.638350 1_554
Sb22 Sr19 3.638366 1_555
Sb22 Sr45 3.638366 1_554
Sb23 Sr45 3.318554 1_554
Sb23 Sr46 3.345101 1_555
Sb23 Sr54 3.434444 1_555
Sb23 Sr26 3.472922 1_555
Sb23 Sr44 3.535179 1_455
Sb23 Sr28 3.563710 1_455
Sb23 Sr53 3.892285 1_555
Sb24 Sb38 3.313607 1_555
Sb24 Sr51 3.399776 1_555
Sb24 Sr6 3.399782 1_555
Sb24 Sr0 3.400155 1_555
Sb24 Sr25 3.400160 1_555
Sb24 Sr42 3.471418 1_555
Sb24 Sr40 3.471443 1_455
Sb24 Sr37 3.582924 1_555
Sb24 Sr3 3.582943 1_555
Sb25 Sr32 3.318554 1_455
Sb25 Sr55 3.345101 1_555
Sb25 Sr26 3.434436 1_555
Sb25 Sr54 3.472929 1_555
Sb25 Sr44 3.535179 1_455
Sb25 Sr8 3.563710 1_555
Sb25 Sr42 3.892295 1_555
Sb26 Sr3 3.312872 1_655
Sb26 Sr12 3.379797 1_556
Sb26 Sr34 3.380693 1_555
Sb26 Sr25 3.394581 1_655
Sb26 Sr39 3.407962 1_555
Sb26 Sr18 3.425814 1_555
Sb26 Sr40 3.466603 1_555
Sb27 Sr23 3.318554 1_555
Sb27 Sr0 3.345101 1_554
Sb27 Sr50 3.434436 1_555
Sb27 Sr30 3.472929 1_555
Sb27 Sr29 3.535179 1_555
Sb27 Sr52 3.563710 1_555
Sb27 Sr27 3.892295 1_554
Sb28 Sr20 3.312888 1_555
Sb28 Sr54 3.379797 1_555
Sb28 Sr42 3.380670 1_555
Sb28 Sr55 3.394592 1_555
Sb28 Sr51 3.407942 1_555
Sb28 Sr24 3.425813 1_555
Sb28 Sr27 3.466611 1_555
Sb29 Sb38 3.313607 1_655
Sb29 Sr54 3.399776 1_655
Sb29 Sr2 3.399782 1_555
Sb29 Sr28 3.400155 1_555
Sb29 Sr5 3.400160 1_555
Sb29 Sr48 3.471418 1_555
Sb29 Sr32 3.471443 1_555
Sb29 Sr4 3.582924 1_555
Sb29 Sr44 3.582943 1_555
Sb30 Sr35 3.399776 1_555
Sb30 Sr39 3.399782 1_555
Sb30 Sr55 3.400155 1_555
Sb30 Sr36 3.400160 1_555
Sb30 Sr27 3.471418 1_555
Sb30 Sr34 3.471443 1_555
Sb30 Sr20 3.582924 1_555
Sb30 Sr47 3.582943 1_555
Sb31 Sr37 3.312888 1_554
Sb31 Sr50 3.379788 1_555
Sb31 Sr9 3.380679 1_565
Sb31 Sr14 3.394592 1_565
Sb31 Sr38 3.407938 1_555
Sb31 Sr25 3.425813 1_554
Sb31 Sr53 3.466624 1_565
Sb32 Sb8 3.313620 1_555
Sb32 Sr38 3.399782 1_545
Sb32 Sr33 3.399782 1_555
Sb32 Sr46 3.400148 1_555
Sb32 Sr24 3.400148 1_555
Sb32 Sr11 3.471434 1_555
Sb32 Sr9 3.471434 1_555
Sb32 Sr41 3.582928 1_555
Sb32 Sr20 3.582928 1_555
Sb33 Sr20 3.312888 1_555
Sb33 Sr26 3.379788 1_555
Sb33 Sr53 3.380679 1_555
Sb33 Sr46 3.394592 1_555
Sb33 Sr15 3.407938 1_555
Sb33 Sr36 3.425813 1_555
Sb33 Sr9 3.466624 1_555
Sb34 Sr19 3.318554 1_556
Sb34 Sr24 3.345101 1_555
Sb34 Sr51 3.434444 1_555
Sb34 Sr49 3.472922 1_555
Sb34 Sr3 3.535179 1_555
Sb34 Sr0 3.563710 1_555
Sb34 Sr17 3.892285 1_555
Sb35 Sr4 3.312888 1_555
Sb35 Sr35 3.379797 1_544
Sb35 Sr10 3.380670 1_545
Sb35 Sr28 3.394592 1_555
Sb35 Sr30 3.407942 1_545
Sb35 Sr14 3.425813 1_555
Sb35 Sr48 3.466611 1_555
Sb36 Sr37 3.312888 1_555
Sb36 Sr30 3.379797 1_556
Sb36 Sr27 3.380670 1_555
Sb36 Sr0 3.394592 1_555
Sb36 Sr35 3.407942 1_555
Sb36 Sr21 3.425813 1_555
Sb36 Sr42 3.466611 1_555
Sb37 Sb8 3.313620 1_565
Sb37 Sr22 3.399792 1_555
Sb37 Sr50 3.399792 1_555
Sb37 Sr52 3.400148 1_555
Sb37 Sr7 3.400148 1_555
Sb37 Sr16 3.471438 1_555
Sb37 Sr43 3.471438 1_565
Sb37 Sr47 3.582928 1_555
Sb37 Sr29 3.582928 1_555
Sb38 Sr51 3.408166 1_555
Sb38 Sr54 3.408166 1_555
Sb38 Sr6 3.408179 1_555
Sb38 Sr2 3.408179 1_455
Sb38 Sr42 3.638361 1_555
Sb38 Sr48 3.638361 1_455
Sb38 Sr32 3.638366 1_455
Sb38 Sr40 3.638366 1_455
Sb39 Sr15 3.399782 1_555
Sb39 Sr31 3.399782 1_554
Sb39 Sr21 3.400148 1_544
Sb39 Sr14 3.400148 1_555
Sb39 Sr53 3.471434 1_555
Sb39 Sr17 3.471434 1_554
Sb39 Sr37 3.582928 1_544
Sb39 Sr4 3.582928 1_555
Sb40 Sr40 3.318554 1_555
Sb40 Sr1 3.345101 1_555
Sb40 Sr49 3.434436 1_655
Sb40 Sr51 3.472929 1_655
Sb40 Sr3 3.535179 1_655
Sb40 Sr18 3.563710 1_555
Sb40 Sr48 3.892295 1_555
Sb41 Sr41 3.312888 1_555
Sb41 Sr51 3.379797 1_555
Sb41 Sr48 3.380670 1_455
Sb41 Sr1 3.394592 1_455
Sb41 Sr54 3.407942 1_555
Sb41 Sr46 3.425813 1_555
Sb41 Sr10 3.466611 1_445
Sb42 Sr9 3.318559 1_555
Sb42 Sr18 3.345101 1_555
Sb42 Sr39 3.434436 1_555
Sb42 Sr33 3.472933 1_555
Sb42 Sr20 3.535179 1_555
Sb42 Sr36 3.563710 1_555
Sb42 Sr43 3.892292 1_555
Sb43 Sr47 3.312872 1_555
Sb43 Sr2 3.379797 1_555
Sb43 Sr40 3.380693 1_555
Sb43 Sr36 3.394581 1_555
Sb43 Sr6 3.407962 1_655
Sb43 Sr7 3.425814 1_555
Sb43 Sr34 3.466603 1_555
