# generated using pymatgen
data_ErCuTe2ClO6
_symmetry_space_group_name_H-M   'P 1'
_cell_length_a   14.95652800
_cell_length_b   5.41876900
_cell_length_c   9.28159398
_cell_angle_alpha   80.31718416
_cell_angle_beta   90.00000000
_cell_angle_gamma   90.00000000
_symmetry_Int_Tables_number   1
_chemical_formula_structural   ErCuTe2ClO6
_chemical_formula_sum   'Er4 Cu4 Te8 Cl4 O24'
_cell_volume   741.51940695
_cell_formula_units_Z   4
loop_
 _symmetry_equiv_pos_site_id
 _symmetry_equiv_pos_as_xyz
  1  'x, y, z'
loop_
 _atom_site_type_symbol
 _atom_site_label
 _atom_site_symmetry_multiplicity
 _atom_site_fract_x
 _atom_site_fract_y
 _atom_site_fract_z
 _atom_site_occupancy
  Er  Er0  1  0.41344000  0.74565300  0.02566500  1
  Er  Er1  1  0.91344000  0.25434700  0.47433500  1
  Er  Er2  1  0.58656000  0.25434700  0.97433500  1
  Er  Er3  1  0.08656000  0.74565300  0.52566500  1
  Cu  Cu0  1  0.77554600  0.27232200  0.17405000  1
  Cu  Cu1  1  0.27554600  0.72767800  0.32595000  1
  Cu  Cu2  1  0.72445400  0.27232200  0.67405000  1
  Cu  Cu3  1  0.22445400  0.72767800  0.82595000  1
  Te  Te0  1  0.34800000  0.25474600  0.78117600  1
  Te  Te1  1  0.65200000  0.74525400  0.21882400  1
  Te  Te2  1  0.58723900  0.78005800  0.70557000  1
  Te  Te3  1  0.15200000  0.25474600  0.28117600  1
  Te  Te4  1  0.08723900  0.21994200  0.79443000  1
  Te  Te5  1  0.84800000  0.74525400  0.71882400  1
  Te  Te6  1  0.41276100  0.21994200  0.29443000  1
  Te  Te7  1  0.91276100  0.78005800  0.20557000  1
  Cl  Cl0  1  0.89561100  0.26991200  0.94457000  1
  Cl  Cl1  1  0.10438900  0.73008800  0.05543000  1
  Cl  Cl2  1  0.60438900  0.26991200  0.44457000  1
  Cl  Cl3  1  0.39561100  0.73008800  0.55543000  1
  O  O0  1  0.01754800  0.37299800  0.63359000  1
  O  O1  1  0.63908800  0.03878700  0.79552900  1
  O  O2  1  0.48245200  0.37299800  0.13359000  1
  O  O3  1  0.51754800  0.62700200  0.86641000  1
  O  O4  1  0.67814500  0.53213700  0.77387700  1
  O  O5  1  0.78796900  0.01627700  0.59421400  1
  O  O6  1  0.67463300  0.49805300  0.09858900  1
  O  O7  1  0.82536700  0.49805300  0.59858900  1
  O  O8  1  0.86091200  0.03878700  0.29552900  1
  O  O9  1  0.32536700  0.50194700  0.90141100  1
  O  O10  1  0.71203100  0.01627700  0.09421400  1
  O  O11  1  0.28796900  0.98372300  0.90578600  1
  O  O12  1  0.32185500  0.46786300  0.22612300  1
  O  O13  1  0.17814500  0.46786300  0.72612300  1
  O  O14  1  0.36091200  0.96121300  0.20447100  1
  O  O15  1  0.95619300  0.87804100  0.62619700  1
  O  O16  1  0.13908800  0.96121300  0.70447100  1
  O  O17  1  0.45619300  0.12195900  0.87380300  1
  O  O18  1  0.82185500  0.53213700  0.27387700  1
  O  O19  1  0.54380700  0.87804100  0.12619700  1
  O  O20  1  0.21203100  0.98372300  0.40578600  1
  O  O21  1  0.98245200  0.62700200  0.36641000  1
  O  O22  1  0.04380700  0.12195900  0.37380300  1
  O  O23  1  0.17463300  0.50194700  0.40141100  1
loop_
_geom_bond_atom_site_label_1
_geom_bond_atom_site_label_2
_geom_bond_distance
_geom_bond_site_symmetry_2
Er0 O9 2.306838 1_554
Er0 O3 2.311386 1_554
Er0 O14 2.321206 1_555
Er0 O19 2.326445 1_555
Er0 O2 2.337966 1_555
Er0 O17 2.363638 1_564
Er0 O11 2.437431 1_554
Er0 O12 2.581048 1_555
Er1 O7 2.306838 1_555
Er1 O0 2.311386 1_655
Er1 O8 2.321206 1_555
Er1 O22 2.326445 1_655
Er1 O21 2.337966 1_555
Er1 O15 2.363638 1_545
Er1 O5 2.437431 1_555
Er1 O18 2.581048 1_555
Er2 O6 2.306838 1_556
Er2 O2 2.311386 1_556
Er2 O1 2.321206 1_555
Er2 O17 2.326445 1_555
Er2 O3 2.337966 1_555
Er2 O19 2.363638 1_546
Er2 O10 2.437431 1_556
Er2 O4 2.581048 1_555
Er3 O23 2.306838 1_555
Er3 O21 2.311386 1_455
Er3 O16 2.321206 1_555
Er3 O15 2.326445 1_455
Er3 O0 2.337966 1_555
Er3 O22 2.363638 1_565
Er3 O20 2.437431 1_555
Er3 O13 2.581048 1_555
Cu0 O10 1.929346 1_555
Cu0 O18 1.938854 1_555
Cu0 O6 1.994131 1_555
Cu0 O8 2.005719 1_555
Cu1 O20 1.929346 1_555
Cu1 O12 1.938854 1_555
Cu1 O23 1.994131 1_555
Cu1 O14 2.005719 1_555
Cu2 O5 1.929346 1_555
Cu2 O4 1.938854 1_555
Cu2 O7 1.994131 1_555
Cu2 O1 2.005719 1_555
Cu3 O11 1.929346 1_555
Cu3 O13 1.938854 1_555
Cu3 O9 1.994131 1_555
Cu3 O16 2.005719 1_555
Cl0 Cu0 2.787635 1_556
Cl1 Cu3 2.787635 1_554
Cl2 Cu2 2.787635 1_555
Cl3 Cu1 2.787635 1_555
O0 Te4 1.893790 1_555
O1 Te2 1.912563 1_545
O2 Te6 1.893790 1_555
O3 Te2 1.893790 1_555
O4 Te2 1.941353 1_555
O5 Te5 1.931130 1_545
O6 Te1 1.912372 1_555
O7 Te5 1.912372 1_555
O8 Te7 1.912563 1_545
O9 Te0 1.912372 1_555
O10 Te1 1.931130 1_545
O11 Te0 1.931130 1_565
O12 Te6 1.941353 1_555
O13 Te4 1.941353 1_555
O14 Te6 1.912563 1_565
O15 Te5 1.915025 1_555
O16 Te4 1.912563 1_565
O17 Te0 1.915025 1_555
O18 Te7 1.941353 1_555
O19 Te1 1.915025 1_555
O20 Te3 1.931130 1_565
O21 Te7 1.893790 1_555
O22 Te3 1.915025 1_555
O23 Te3 1.912372 1_555
