# generated using pymatgen
data_SrMgIn3
_symmetry_space_group_name_H-M   'P 1'
_cell_length_a   4.70640596
_cell_length_b   4.70640621
_cell_length_c   7.13632507
_cell_angle_alpha   109.25361564
_cell_angle_beta   109.25360317
_cell_angle_gamma   89.99999377
_symmetry_Int_Tables_number   1
_chemical_formula_structural   SrMgIn3
_chemical_formula_sum   'Sr1 Mg1 In3'
_cell_volume   139.83112270
_cell_formula_units_Z   1
loop_
 _symmetry_equiv_pos_site_id
 _symmetry_equiv_pos_as_xyz
  1  'x, y, z'
loop_
 _atom_site_type_symbol
 _atom_site_label
 _atom_site_symmetry_multiplicity
 _atom_site_fract_x
 _atom_site_fract_y
 _atom_site_fract_z
 _atom_site_occupancy
  Sr  Sr0  1  0.00000000  0.00000000  0.00000000  1
  Mg  Mg0  1  0.25000000  0.75000000  0.50000000  1
  In  In0  1  0.38888586  0.38888586  0.77777071  1
  In  In1  1  0.61111414  0.61111414  0.22222929  1
  In  In2  1  0.75000000  0.25000000  0.50000000  1
loop_
_geom_bond_atom_site_label_1
_geom_bond_atom_site_label_2
_geom_bond_distance
_geom_bond_site_symmetry_2
Mg0 Sr0 3.937075 1_555
Mg0 Sr0 3.937076 1_666
Mg0 Sr0 3.937076 1_566
Mg0 Sr0 3.937076 1_565
In0 In1 2.805798 1_556
In0 In2 2.934688 1_555
In0 Mg0 2.934689 1_555
In0 Mg0 2.934692 1_545
In0 In2 2.934692 1_455
In0 Sr0 3.611541 1_666
In0 Sr0 3.611544 1_566
In0 Sr0 3.611545 1_656
In0 Sr0 3.611548 1_556
In1 Mg0 2.934688 1_555
In1 In2 2.934689 1_555
In1 In2 2.934692 1_565
In1 Mg0 2.934692 1_655
In1 Sr0 3.611541 1_555
In1 Sr0 3.611544 1_655
In1 Sr0 3.611545 1_565
In1 Sr0 3.611548 1_665
In2 Mg0 3.327931 1_555
In2 Mg0 3.327931 1_645
In2 Mg0 3.327932 1_545
In2 Mg0 3.327932 1_655
In2 Sr0 3.937075 1_666
In2 Sr0 3.937076 1_555
In2 Sr0 3.937076 1_655
In2 Sr0 3.937076 1_656
