# generated using pymatgen
data_CuO
_symmetry_space_group_name_H-M   'P 1'
_cell_length_a   2.83003800
_cell_length_b   6.46151600
_cell_length_c   12.33154600
_cell_angle_alpha   90.00000000
_cell_angle_beta   90.00000000
_cell_angle_gamma   90.00000000
_symmetry_Int_Tables_number   1
_chemical_formula_structural   CuO
_chemical_formula_sum   'Cu8 O8'
_cell_volume   225.49879131
_cell_formula_units_Z   8
loop_
 _symmetry_equiv_pos_site_id
 _symmetry_equiv_pos_as_xyz
  1  'x, y, z'
loop_
 _atom_site_type_symbol
 _atom_site_label
 _atom_site_symmetry_multiplicity
 _atom_site_fract_x
 _atom_site_fract_y
 _atom_site_fract_z
 _atom_site_occupancy
  Cu  Cu0  1  0.25000000  0.10761600  0.25424100  1
  Cu  Cu1  1  0.75000000  0.39238400  0.75424100  1
  Cu  Cu2  1  0.25000000  0.60761600  0.24575900  1
  Cu  Cu3  1  0.75000000  0.89238400  0.74575900  1
  Cu  Cu4  1  0.25000000  0.15123400  0.59847300  1
  Cu  Cu5  1  0.75000000  0.34876600  0.09847300  1
  Cu  Cu6  1  0.25000000  0.65123400  0.90152700  1
  Cu  Cu7  1  0.75000000  0.84876600  0.40152700  1
  O  O0  1  0.25000000  0.15821000  0.10934200  1
  O  O1  1  0.25000000  0.04391200  0.39834900  1
  O  O2  1  0.75000000  0.45608800  0.89834900  1
  O  O3  1  0.75000000  0.34179000  0.60934200  1
  O  O4  1  0.25000000  0.65821000  0.39065800  1
  O  O5  1  0.25000000  0.54391200  0.10165100  1
  O  O6  1  0.75000000  0.95608800  0.60165100  1
  O  O7  1  0.75000000  0.84179000  0.89065800  1
loop_
_geom_bond_atom_site_label_1
_geom_bond_atom_site_label_2
_geom_bond_distance
_geom_bond_site_symmetry_2
Cu0 O0 1.816488 1_555
Cu0 O1 1.824124 1_555
Cu1 O3 1.816488 1_555
Cu1 O2 1.824124 1_555
Cu2 O4 1.816488 1_555
Cu2 O5 1.824124 1_555
Cu3 O7 1.816488 1_555
Cu3 O6 1.824124 1_555
Cu4 O3 1.880504 1_555
Cu4 O3 1.880504 1_455
Cu4 O6 1.895727 1_445
Cu4 O6 1.895727 1_545
Cu4 O1 2.563419 1_555
Cu5 O0 1.880504 1_655
Cu5 O0 1.880504 1_555
Cu5 O5 1.895727 1_555
Cu5 O5 1.895727 1_655
Cu5 O2 2.563419 1_554
Cu6 O7 1.880504 1_555
Cu6 O7 1.880504 1_455
Cu6 O2 1.895727 1_455
Cu6 O2 1.895727 1_555
Cu6 O5 2.563419 1_556
Cu7 O4 1.880504 1_655
Cu7 O4 1.880504 1_555
Cu7 O1 1.895727 1_565
Cu7 O1 1.895727 1_665
Cu7 O6 2.563419 1_555
