# generated using pymatgen
data_RbNiF3
_symmetry_space_group_name_H-M   'P 1'
_cell_length_a   5.83215167
_cell_length_b   5.83215355
_cell_length_c   14.27342523
_cell_angle_alpha   89.99999687
_cell_angle_beta   89.99999394
_cell_angle_gamma   119.99905358
_symmetry_Int_Tables_number   1
_chemical_formula_structural   RbNiF3
_chemical_formula_sum   'Rb6 Ni6 F18'
_cell_volume   420.45617693
_cell_formula_units_Z   6
loop_
 _symmetry_equiv_pos_site_id
 _symmetry_equiv_pos_as_xyz
  1  'x, y, z'
loop_
 _atom_site_type_symbol
 _atom_site_label
 _atom_site_symmetry_multiplicity
 _atom_site_fract_x
 _atom_site_fract_y
 _atom_site_fract_z
 _atom_site_occupancy
  Rb  Rb0  1  0.33333322  0.66666634  0.40736740  1
  Rb  Rb1  1  0.66666682  0.33333300  0.90736733  1
  Rb  Rb2  1  0.66666678  0.33333298  0.59263356  1
  Rb  Rb3  1  0.33333323  0.66666626  0.09263270  1
  Rb  Rb4  1  -0.00000019  -0.00000002  0.75000008  1
  Rb  Rb5  1  0.00000022  -0.00000015  0.25000001  1
  Ni  Ni0  1  0.33333278  0.66666581  0.65558477  1
  Ni  Ni1  1  0.66666705  0.33333366  0.15558466  1
  Ni  Ni2  1  0.66666716  0.33333398  0.34441543  1
  Ni  Ni3  1  0.33333340  0.66666643  0.84441549  1
  Ni  Ni4  1  0.00000005  -0.00000002  0.50000019  1
  Ni  Ni5  1  0.00000015  0.00000005  0.00000004  1
  F  F0  1  0.83458403  0.16541679  0.41993291  1
  F  F1  1  0.83458307  0.66916715  0.41993295  1
  F  F2  1  0.33083381  0.16541648  0.41993298  1
  F  F3  1  0.66916675  0.83458275  0.91993290  1
  F  F4  1  0.16541607  0.33083233  0.58006763  1
  F  F5  1  0.16541678  0.83458386  0.91993285  1
  F  F6  1  0.16541655  0.33083318  0.91993290  1
  F  F7  1  0.83458415  0.16541719  0.08006711  1
  F  F8  1  0.33083378  0.16541642  0.08006715  1
  F  F9  1  0.66916702  0.83458286  0.58006774  1
  F  F10  1  0.16541639  0.83458406  0.58006770  1
  F  F11  1  0.83458316  0.66916664  0.08006709  1
  F  F12  1  0.51739480  0.03478836  0.25000005  1
  F  F13  1  0.48260607  0.51739171  0.75000011  1
  F  F14  1  0.03478708  0.51739365  0.75000018  1
  F  F15  1  0.96521304  0.48260691  0.25000004  1
  F  F16  1  0.51739271  0.48260665  0.25000001  1
  F  F17  1  0.48260707  0.96521168  0.75000005  1
loop_
_geom_bond_atom_site_label_1
_geom_bond_atom_site_label_2
_geom_bond_distance
_geom_bond_site_symmetry_2
F0 Ni2 2.009730 1_555
F0 Ni4 2.024396 1_655
F0 Rb0 2.921652 1_655
F0 Rb0 2.921659 1_545
F0 Rb5 2.945383 1_655
F0 Rb2 2.992244 1_555
F1 Ni2 2.009748 1_555
F1 Ni4 2.024415 1_665
F1 Rb0 2.921610 1_555
F1 Rb0 2.921617 1_655
F1 Rb5 2.945396 1_665
F1 Rb2 2.992259 1_555
F2 Ni2 2.009748 1_555
F2 Ni4 2.024418 1_555
F2 Rb0 2.921613 1_545
F2 Rb0 2.921616 1_555
F2 Rb5 2.945399 1_555
F2 Rb2 2.992256 1_555
F3 Ni3 2.009747 1_555
F3 Ni5 2.024416 1_666
F3 Rb1 2.921613 1_555
F3 Rb1 2.921615 1_565
F3 Rb4 2.945395 1_665
F3 Rb3 2.992248 1_556
F4 Ni0 2.009746 1_555
F4 Ni4 2.024415 1_555
F4 Rb2 2.921611 1_455
F4 Rb2 2.921616 1_555
F4 Rb4 2.945389 1_555
F4 Rb0 2.992254 1_555
F5 Ni3 2.009729 1_555
F5 Ni5 2.024395 1_566
F5 Rb1 2.921653 1_565
F5 Rb1 2.921658 1_455
F5 Rb4 2.945381 1_565
F5 Rb3 2.992236 1_556
F6 Ni3 2.009747 1_555
F6 Ni5 2.024416 1_556
F6 Rb1 2.921611 1_455
F6 Rb1 2.921616 1_555
F6 Rb4 2.945396 1_555
F6 Rb3 2.992247 1_556
F7 Ni1 2.009729 1_555
F7 Ni5 2.024395 1_655
F7 Rb3 2.921650 1_655
F7 Rb3 2.921661 1_545
F7 Rb5 2.945384 1_655
F7 Rb1 2.992233 1_554
F8 Ni1 2.009748 1_555
F8 Ni5 2.024417 1_555
F8 Rb3 2.921614 1_545
F8 Rb3 2.921615 1_555
F8 Rb5 2.945397 1_555
F8 Rb1 2.992246 1_554
F9 Ni0 2.009748 1_555
F9 Ni4 2.024418 1_665
F9 Rb2 2.921613 1_555
F9 Rb2 2.921616 1_565
F9 Rb4 2.945389 1_665
F9 Rb0 2.992255 1_555
F10 Ni0 2.009730 1_555
F10 Ni4 2.024395 1_565
F10 Rb2 2.921654 1_565
F10 Rb2 2.921658 1_455
F10 Rb4 2.945375 1_565
F10 Rb0 2.992243 1_555
F11 Ni1 2.009747 1_555
F11 Ni5 2.024416 1_665
F11 Rb3 2.921612 1_555
F11 Rb3 2.921615 1_655
F11 Rb5 2.945397 1_665
F11 Rb1 2.992248 1_554
F12 Ni1 2.022347 1_555
F12 Ni2 2.022348 1_555
F12 Rb0 2.915883 1_545
F12 Rb3 2.915884 1_545
F12 Rb5 2.921360 1_655
F12 Rb5 2.921370 1_555
F13 Ni0 2.022338 1_555
F13 Ni3 2.022338 1_555
F13 Rb2 2.915849 1_555
F13 Rb1 2.915857 1_555
F13 Rb4 2.921400 1_555
F13 Rb4 2.921412 1_665
F14 Ni0 2.022348 1_555
F14 Ni3 2.022350 1_555
F14 Rb2 2.915870 1_455
F14 Rb1 2.915875 1_455
F14 Rb4 2.921362 1_565
F14 Rb4 2.921369 1_555
F15 Ni2 2.022348 1_555
F15 Ni1 2.022349 1_555
F15 Rb3 2.915877 1_655
F15 Rb0 2.915878 1_655
F15 Rb5 2.921365 1_665
F15 Rb5 2.921366 1_655
F16 Ni2 2.022338 1_555
F16 Ni1 2.022338 1_555
F16 Rb3 2.915857 1_555
F16 Rb0 2.915858 1_555
F16 Rb5 2.921404 1_555
F16 Rb5 2.921408 1_665
F17 Ni3 2.022347 1_555
F17 Ni0 2.022348 1_555
F17 Rb2 2.915872 1_565
F17 Rb1 2.915881 1_565
F17 Rb4 2.921359 1_665
F17 Rb4 2.921370 1_565
