# generated using pymatgen
data_NaAlAs2O7
_symmetry_space_group_name_H-M   'P 1'
_cell_length_a   8.28355600
_cell_length_b   7.03349200
_cell_length_c   9.70021349
_cell_angle_alpha   72.27433943
_cell_angle_beta   90.00000000
_cell_angle_gamma   90.00000000
_symmetry_Int_Tables_number   1
_chemical_formula_structural   NaAlAs2O7
_chemical_formula_sum   'Na4 Al4 As8 O28'
_cell_volume   538.32628646
_cell_formula_units_Z   4
loop_
 _symmetry_equiv_pos_site_id
 _symmetry_equiv_pos_as_xyz
  1  'x, y, z'
loop_
 _atom_site_type_symbol
 _atom_site_label
 _atom_site_symmetry_multiplicity
 _atom_site_fract_x
 _atom_site_fract_y
 _atom_site_fract_z
 _atom_site_occupancy
  Na  Na0  1  0.13873700  0.80629500  0.52883700  1
  Na  Na1  1  0.36126300  0.80629500  0.02883700  1
  Na  Na2  1  0.86126300  0.19370500  0.47116300  1
  Na  Na3  1  0.63873700  0.19370500  0.97116300  1
  Al  Al0  1  0.27542400  0.27954900  0.50595900  1
  Al  Al1  1  0.72457600  0.72045100  0.49404100  1
  Al  Al2  1  0.77542400  0.72045100  0.99404100  1
  Al  Al3  1  0.22457600  0.27954900  0.00595900  1
  As  As0  1  0.03681000  0.05753300  0.79827300  1
  As  As1  1  0.46319000  0.05753300  0.29827300  1
  As  As2  1  0.96319000  0.94246700  0.20172700  1
  As  As3  1  0.41243800  0.51399800  0.70803000  1
  As  As4  1  0.91243800  0.48600200  0.79197000  1
  As  As5  1  0.53681000  0.94246700  0.70172700  1
  As  As6  1  0.58756200  0.48600200  0.29197000  1
  As  As7  1  0.08756200  0.51399800  0.20803000  1
  O  O0  1  0.90178500  0.53223500  0.13460800  1
  O  O1  1  0.89356800  0.90132800  0.37453500  1
  O  O2  1  0.37435200  0.76768800  0.71283000  1
  O  O3  1  0.59180900  0.62633900  0.11505800  1
  O  O4  1  0.75646400  0.52105000  0.89753700  1
  O  O5  1  0.25646400  0.47895000  0.60246300  1
  O  O6  1  0.87435200  0.23231200  0.78717000  1
  O  O7  1  0.31570800  0.07275300  0.41711200  1
  O  O8  1  0.09180900  0.37366100  0.38494200  1
  O  O9  1  0.39356800  0.09867200  0.12546500  1
  O  O10  1  0.24353600  0.47895000  0.10246300  1
  O  O11  1  0.62564800  0.23231200  0.28717000  1
  O  O12  1  0.68429200  0.92724700  0.58288800  1
  O  O13  1  0.81570800  0.92724700  0.08288800  1
  O  O14  1  0.55850400  0.83363800  0.35341900  1
  O  O15  1  0.18429200  0.07275300  0.91711200  1
  O  O16  1  0.60643200  0.90132800  0.87453500  1
  O  O17  1  0.12564800  0.76768800  0.21283000  1
  O  O18  1  0.44149600  0.16636200  0.64658100  1
  O  O19  1  0.90819100  0.62633900  0.61505800  1
  O  O20  1  0.09821500  0.46776500  0.86539200  1
  O  O21  1  0.94149600  0.83363800  0.85341900  1
  O  O22  1  0.05850400  0.16636200  0.14658100  1
  O  O23  1  0.10643200  0.09867200  0.62546500  1
  O  O24  1  0.59821500  0.53223500  0.63460800  1
  O  O25  1  0.40819100  0.37366100  0.88494200  1
  O  O26  1  0.74353600  0.52105000  0.39753700  1
  O  O27  1  0.40178500  0.46776500  0.36539200  1
loop_
_geom_bond_atom_site_label_1
_geom_bond_atom_site_label_2
_geom_bond_distance
_geom_bond_site_symmetry_2
Na0 O19 2.303053 1_455
Na0 O7 2.366246 1_565
Na0 O5 2.400158 1_555
Na0 O1 2.490445 1_455
Na0 O23 2.520472 1_565
Na0 O2 2.602554 1_555
Na1 O3 2.303053 1_555
Na1 O15 2.366246 1_564
Na1 O10 2.400158 1_555
Na1 O16 2.490445 1_554
Na1 O9 2.520472 1_565
Na1 O17 2.602554 1_555
Na2 O8 2.303053 1_655
Na2 O12 2.366246 1_545
Na2 O26 2.400158 1_555
Na2 O23 2.490445 1_655
Na2 O1 2.520472 1_545
Na2 O11 2.602554 1_555
Na3 O25 2.303053 1_555
Na3 O13 2.366246 1_546
Na3 O4 2.400158 1_555
Na3 O9 2.490445 1_556
Na3 O16 2.520472 1_545
Na3 O6 2.602554 1_555
Al0 O27 1.899522 1_555
Al0 O8 1.912177 1_555
Al0 O5 1.915038 1_555
Al0 O18 1.930197 1_555
Al0 O7 1.932092 1_555
Al0 O23 2.005962 1_555
Al1 O24 1.899522 1_555
Al1 O19 1.912177 1_555
Al1 O26 1.915038 1_555
Al1 O14 1.930197 1_555
Al1 O12 1.932092 1_555
Al1 O1 2.005962 1_555
Al2 O0 1.899522 1_556
Al2 O3 1.912177 1_556
Al2 O4 1.915038 1_555
Al2 O21 1.930197 1_555
Al2 O13 1.932092 1_556
Al2 O16 2.005962 1_555
Al3 O20 1.899522 1_554
Al3 O25 1.912177 1_554
Al3 O10 1.915038 1_555
Al3 O22 1.930197 1_555
Al3 O15 1.932092 1_554
Al3 O9 2.005962 1_555
As0 O21 1.696012 1_445
As0 O15 1.705273 1_555
As0 O23 1.711981 1_555
As0 O6 1.803653 1_455
As1 O14 1.696012 1_545
As1 O7 1.705273 1_555
As1 O9 1.711981 1_555
As1 O11 1.803653 1_555
As2 O22 1.696012 1_665
As2 O13 1.705273 1_555
As2 O1 1.711981 1_555
As2 O17 1.803653 1_655
As3 O24 1.684121 1_555
As3 O25 1.699716 1_555
As3 O5 1.712429 1_555
As3 O2 1.826502 1_555
As4 O20 1.684121 1_655
As4 O19 1.699716 1_555
As4 O4 1.712429 1_555
As4 O6 1.826502 1_555
As5 O18 1.696012 1_565
As5 O12 1.705273 1_555
As5 O16 1.711981 1_555
As5 O2 1.803653 1_555
As6 O27 1.684121 1_555
As6 O3 1.699716 1_555
As6 O26 1.712429 1_555
As6 O11 1.826502 1_555
As7 O0 1.684121 1_455
As7 O8 1.699716 1_555
As7 O10 1.712429 1_555
As7 O17 1.826502 1_555
