# generated using pymatgen
data_Rb8Fe2O7
_symmetry_space_group_name_H-M   'P 1'
_cell_length_a   17.40947717
_cell_length_b   6.91011833
_cell_length_c   6.97264993
_cell_angle_alpha   61.04336821
_cell_angle_beta   90.00000000
_cell_angle_gamma   90.00000000
_symmetry_Int_Tables_number   1
_chemical_formula_structural   Rb8Fe2O7
_chemical_formula_sum   'Rb16 Fe4 O14'
_cell_volume   733.95660959
_cell_formula_units_Z   2
loop_
 _symmetry_equiv_pos_site_id
 _symmetry_equiv_pos_as_xyz
  1  'x, y, z'
loop_
 _atom_site_type_symbol
 _atom_site_label
 _atom_site_symmetry_multiplicity
 _atom_site_fract_x
 _atom_site_fract_y
 _atom_site_fract_z
 _atom_site_occupancy
  Rb  Rb0  1  0.71119800  0.55064033  0.23556221  1
  Rb  Rb1  1  0.58039134  0.00452855  0.63896305  1
  Rb  Rb2  1  0.78880200  0.05064033  0.23556221  1
  Rb  Rb3  1  0.28880200  0.44935967  0.76443779  1
  Rb  Rb4  1  0.69038606  0.45367094  0.78105866  1
  Rb  Rb5  1  0.41960866  0.99547145  0.36103695  1
  Rb  Rb6  1  0.30961394  0.54632906  0.21894134  1
  Rb  Rb7  1  0.50488689  0.54210148  0.22856182  1
  Rb  Rb8  1  0.80961394  0.95367094  0.78105866  1
  Rb  Rb9  1  0.99511311  0.04210148  0.22856182  1
  Rb  Rb10  1  0.08039134  0.49547145  0.36103695  1
  Rb  Rb11  1  0.00488689  0.95789852  0.77143818  1
  Rb  Rb12  1  0.49511311  0.45789852  0.77143818  1
  Rb  Rb13  1  0.91960866  0.50452855  0.63896305  1
  Rb  Rb14  1  0.19038606  0.04632906  0.21894134  1
  Rb  Rb15  1  0.21119800  0.94935967  0.76443779  1
  Fe  Fe0  1  0.09720075  0.50036838  0.85697245  1
  Fe  Fe1  1  0.40279925  0.00036838  0.85697245  1
  Fe  Fe2  1  0.59720075  0.99963162  0.14302755  1
  Fe  Fe3  1  0.90279925  0.49963162  0.14302755  1
  O  O0  1  0.32346852  0.00324276  0.04164531  1
  O  O1  1  0.39935947  0.25719569  0.58049069  1
  O  O2  1  0.89935947  0.24280431  0.41950931  1
  O  O3  1  0.10064053  0.75719569  0.58049069  1
  O  O4  1  0.17653148  0.50324276  0.04164531  1
  O  O5  1  0.39528043  0.73985056  0.83348087  1
  O  O6  1  0.89528043  0.76014944  0.16651913  1
  O  O7  1  0.60064053  0.74280431  0.41950931  1
  O  O8  1  -0.00000000  0.50000000  -0.00000000  1
  O  O9  1  0.60471957  0.26014944  0.16651913  1
  O  O10  1  0.67653148  0.99675724  0.95835469  1
  O  O11  1  0.82346852  0.49675724  0.95835469  1
  O  O12  1  0.50000000  0.00000000  -0.00000000  1
  O  O13  1  0.10471957  0.23985056  0.83348087  1
loop_
_geom_bond_atom_site_label_1
_geom_bond_atom_site_label_2
_geom_bond_distance
_geom_bond_site_symmetry_2
Fe0 O3 1.885948 1_555
Fe0 O13 1.889508 1_555
Fe0 O4 1.894909 1_556
Fe0 O8 1.963595 1_556
Fe1 O1 1.885948 1_555
Fe1 O5 1.889508 1_545
Fe1 O0 1.894909 1_556
Fe1 O12 1.963595 1_556
Fe2 O7 1.885948 1_555
Fe2 O9 1.889508 1_565
Fe2 O10 1.894909 1_554
Fe2 O12 1.963595 1_565
Fe3 O2 1.885948 1_555
Fe3 O6 1.889508 1_555
Fe3 O11 1.894909 1_554
Fe3 O8 1.963595 1_655
O0 Rb14 2.709482 1_555
O0 Rb5 2.765516 1_545
O0 Rb6 2.788500 1_545
O0 Rb3 2.798895 1_554
O0 Rb15 2.896867 1_544
O1 Rb6 2.812673 1_555
O1 Rb12 2.874545 1_555
O1 Rb5 2.901068 1_545
O1 Rb7 2.931686 1_555
O1 Rb3 2.960085 1_555
O2 Rb8 2.812673 1_545
O2 Rb9 2.874545 1_555
O2 Rb13 2.901068 1_555
O2 Rb11 2.931686 1_645
O2 Rb2 2.960085 1_555
O3 Rb14 2.812673 1_565
O3 Rb11 2.874545 1_555
O3 Rb10 2.901068 1_555
O3 Rb9 2.931686 1_465
O3 Rb15 2.960085 1_555
O4 Rb6 2.709482 1_555
O4 Rb10 2.765516 1_555
O4 Rb14 2.788500 1_555
O4 Rb15 2.798895 1_554
O4 Rb3 2.896867 1_554
O5 Rb6 2.784963 1_556
O5 Rb12 2.796425 1_555
O5 Rb5 2.918363 1_555
O5 Rb3 2.938224 1_555
O5 Rb7 3.074442 1_556
O6 Rb8 2.784963 1_554
O6 Rb9 2.796425 1_565
O6 Rb13 2.918363 1_555
O6 Rb2 2.938224 1_565
O6 Rb11 3.074442 1_654
O7 Rb4 2.812673 1_555
O7 Rb7 2.874545 1_555
O7 Rb1 2.901068 1_565
O7 Rb12 2.931686 1_555
O7 Rb0 2.960085 1_555
O8 Rb9 2.770569 1_455
O8 Rb11 2.770569 1_554
O8 Rb10 2.867180 1_555
O8 Rb13 2.867180 1_454
O9 Rb4 2.784963 1_554
O9 Rb7 2.796425 1_555
O9 Rb1 2.918363 1_555
O9 Rb0 2.938224 1_555
O9 Rb12 3.074442 1_554
O10 Rb8 2.709482 1_555
O10 Rb1 2.765516 1_565
O10 Rb4 2.788500 1_565
O10 Rb0 2.798895 1_556
O10 Rb2 2.896867 1_566
O11 Rb4 2.709482 1_555
O11 Rb13 2.765516 1_555
O11 Rb8 2.788500 1_555
O11 Rb2 2.798895 1_556
O11 Rb0 2.896867 1_556
O12 Rb7 2.770569 1_545
O12 Rb12 2.770569 1_554
O12 Rb5 2.867180 1_545
O12 Rb1 2.867180 1_554
O13 Rb14 2.784963 1_556
O13 Rb11 2.796425 1_545
O13 Rb10 2.918363 1_555
O13 Rb15 2.938224 1_545
O13 Rb9 3.074442 1_456
