# generated using pymatgen
data_C2S3N2
_symmetry_space_group_name_H-M   'P 1'
_cell_length_a   4.60895200
_cell_length_b   10.25677900
_cell_length_c   13.32080900
_cell_angle_alpha   90.00000000
_cell_angle_beta   90.00000000
_cell_angle_gamma   90.00000000
_symmetry_Int_Tables_number   1
_chemical_formula_structural   C2S3N2
_chemical_formula_sum   'C8 S12 N8'
_cell_volume   629.71463164
_cell_formula_units_Z   4
loop_
 _symmetry_equiv_pos_site_id
 _symmetry_equiv_pos_as_xyz
  1  'x, y, z'
loop_
 _atom_site_type_symbol
 _atom_site_label
 _atom_site_symmetry_multiplicity
 _atom_site_fract_x
 _atom_site_fract_y
 _atom_site_fract_z
 _atom_site_occupancy
  C  C0  1  0.47356500  0.29658700  0.11156000  1
  C  C1  1  0.97356500  0.20341300  0.88844000  1
  C  C2  1  0.02643500  0.79658700  0.38844000  1
  C  C3  1  0.52643500  0.70341300  0.61156000  1
  C  C4  1  0.52643500  0.70341300  0.88844000  1
  C  C5  1  0.02643500  0.79658700  0.11156000  1
  C  C6  1  0.97356500  0.20341300  0.61156000  1
  C  C7  1  0.47356500  0.29658700  0.38844000  1
  S  S0  1  0.47027400  0.51517200  0.25000000  1
  S  S1  1  0.97027400  0.98482800  0.75000000  1
  S  S2  1  0.02972600  0.01517200  0.25000000  1
  S  S3  1  0.52972600  0.48482800  0.75000000  1
  S  S4  1  0.27330600  0.43319500  0.12466800  1
  S  S5  1  0.77330600  0.06680500  0.87533200  1
  S  S6  1  0.22669400  0.93319500  0.37533200  1
  S  S7  1  0.72669400  0.56680500  0.62466800  1
  S  S8  1  0.72669400  0.56680500  0.87533200  1
  S  S9  1  0.22669400  0.93319500  0.12466800  1
  S  S10  1  0.77330600  0.06680500  0.62466800  1
  S  S11  1  0.27330600  0.43319500  0.37533200  1
  N  N0  1  0.60536900  0.19965200  0.10074400  1
  N  N1  1  0.10536900  0.30034800  0.89925600  1
  N  N2  1  0.89463100  0.69965200  0.39925600  1
  N  N3  1  0.39463100  0.80034800  0.60074400  1
  N  N4  1  0.39463100  0.80034800  0.89925600  1
  N  N5  1  0.89463100  0.69965200  0.10074400  1
  N  N6  1  0.10536900  0.30034800  0.60074400  1
  N  N7  1  0.60536900  0.19965200  0.39925600  1
loop_
_geom_bond_atom_site_label_1
_geom_bond_atom_site_label_2
_geom_bond_distance
_geom_bond_site_symmetry_2
C0 N0 1.174012 1_555
C0 S4 1.686900 1_555
C1 N1 1.174012 1_655
C1 S5 1.686900 1_555
C2 N2 1.174012 1_455
C2 S6 1.686900 1_555
C3 N3 1.174012 1_555
C3 S7 1.686900 1_555
C4 N4 1.174012 1_555
C4 S8 1.686900 1_555
C5 N5 1.174012 1_455
C5 S9 1.686900 1_555
C6 N6 1.174012 1_655
C6 S10 1.686900 1_555
C7 N7 1.174012 1_555
C7 S11 1.686900 1_555
S0 S11 2.078080 1_555
S0 S4 2.078080 1_555
S1 S10 2.078080 1_565
S1 S5 2.078080 1_565
S2 S6 2.078080 1_545
S2 S9 2.078080 1_545
S3 S8 2.078080 1_555
S3 S7 2.078080 1_555
