# generated using pymatgen
data_CdFeC5N6O
_symmetry_space_group_name_H-M   'P 1'
_cell_length_a   7.59733000
_cell_length_b   11.24654200
_cell_length_c   14.14039600
_cell_angle_alpha   90.00000000
_cell_angle_beta   90.00000000
_cell_angle_gamma   90.00000000
_symmetry_Int_Tables_number   1
_chemical_formula_structural   CdFeC5N6O
_chemical_formula_sum   'Cd4 Fe4 C20 N24 O4'
_cell_volume   1208.20762549
_cell_formula_units_Z   4
loop_
 _symmetry_equiv_pos_site_id
 _symmetry_equiv_pos_as_xyz
  1  'x, y, z'
loop_
 _atom_site_type_symbol
 _atom_site_label
 _atom_site_symmetry_multiplicity
 _atom_site_fract_x
 _atom_site_fract_y
 _atom_site_fract_z
 _atom_site_occupancy
  Cd  Cd0  1  0.25000000  0.36487400  0.32155700  1
  Cd  Cd1  1  0.75000000  0.63512600  0.67844300  1
  Cd  Cd2  1  0.75000000  0.86487400  0.17844300  1
  Cd  Cd3  1  0.25000000  0.13512600  0.82155700  1
  Fe  Fe0  1  0.25000000  0.81148800  0.44630400  1
  Fe  Fe1  1  0.75000000  0.18851200  0.55369600  1
  Fe  Fe2  1  0.75000000  0.31148800  0.05369600  1
  Fe  Fe3  1  0.25000000  0.68851200  0.94630400  1
  C  C0  1  0.25000000  0.65077500  0.39858400  1
  C  C1  1  0.75000000  0.34922500  0.60141600  1
  C  C2  1  0.75000000  0.15077500  0.10141600  1
  C  C3  1  0.25000000  0.84922500  0.89858400  1
  C  C4  1  0.42985300  0.75411700  0.53183000  1
  C  C5  1  0.92985300  0.24588300  0.46817000  1
  C  C6  1  0.57014700  0.25411700  0.96817000  1
  C  C7  1  0.07014700  0.74588300  0.03183000  1
  C  C8  1  0.57014700  0.24588300  0.46817000  1
  C  C9  1  0.07014700  0.75411700  0.53183000  1
  C  C10  1  0.42985300  0.74588300  0.03183000  1
  C  C11  1  0.92985300  0.25411700  0.96817000  1
  C  C12  1  0.42995600  0.83780200  0.35169100  1
  C  C13  1  0.92995600  0.16219800  0.64830900  1
  C  C14  1  0.57004400  0.33780200  0.14830900  1
  C  C15  1  0.07004400  0.66219800  0.85169100  1
  C  C16  1  0.57004400  0.16219800  0.64830900  1
  C  C17  1  0.07004400  0.83780200  0.35169100  1
  C  C18  1  0.42995600  0.66219800  0.85169100  1
  C  C19  1  0.92995600  0.33780200  0.14830900  1
  N  N0  1  0.25000000  0.55389100  0.36920200  1
  N  N1  1  0.75000000  0.44610900  0.63079800  1
  N  N2  1  0.75000000  0.05389100  0.13079800  1
  N  N3  1  0.25000000  0.94610900  0.86920200  1
  N  N4  1  0.54035100  0.72103500  0.58278900  1
  N  N5  1  0.04035100  0.27896500  0.41721100  1
  N  N6  1  0.45964900  0.22103500  0.91721100  1
  N  N7  1  0.95964900  0.77896500  0.08278900  1
  N  N8  1  0.45964900  0.27896500  0.41721100  1
  N  N9  1  0.95964900  0.72103500  0.58278900  1
  N  N10  1  0.54035100  0.77896500  0.08278900  1
  N  N11  1  0.04035100  0.22103500  0.91721100  1
  N  N12  1  0.54032400  0.85379200  0.29567300  1
  N  N13  1  0.04032400  0.14620800  0.70432700  1
  N  N14  1  0.45967600  0.35379200  0.20432700  1
  N  N15  1  0.95967600  0.64620800  0.79567300  1
  N  N16  1  0.45967600  0.14620800  0.70432700  1
  N  N17  1  0.95967600  0.85379200  0.29567300  1
  N  N18  1  0.54032400  0.64620800  0.79567300  1
  N  N19  1  0.04032400  0.35379200  0.20432700  1
  N  N20  1  0.25000000  0.95011400  0.48693400  1
  N  N21  1  0.75000000  0.04988600  0.51306600  1
  N  N22  1  0.75000000  0.45011400  0.01306600  1
  N  N23  1  0.25000000  0.54988600  0.98693400  1
  O  O0  1  0.25000000  0.04619800  0.51470600  1
  O  O1  1  0.75000000  0.95380200  0.48529400  1
  O  O2  1  0.75000000  0.54619800  0.98529400  1
  O  O3  1  0.25000000  0.45380200  0.01470600  1
loop_
_geom_bond_atom_site_label_1
_geom_bond_atom_site_label_2
_geom_bond_distance
_geom_bond_site_symmetry_2
Cd0 N0 2.229993 1_555
Cd0 N8 2.302154 1_555
Cd0 N5 2.302154 1_555
Cd0 N14 2.302392 1_555
Cd0 N19 2.302392 1_555
Cd1 N1 2.229993 1_555
Cd1 N9 2.302154 1_555
Cd1 N4 2.302154 1_555
Cd1 N15 2.302392 1_555
Cd1 N18 2.302392 1_555
Cd2 N2 2.229993 1_565
Cd2 N7 2.302154 1_555
Cd2 N10 2.302154 1_555
Cd2 N17 2.302392 1_555
Cd2 N12 2.302392 1_555
Cd3 N3 2.229993 1_545
Cd3 N6 2.302154 1_555
Cd3 N11 2.302154 1_555
Cd3 N13 2.302392 1_555
Cd3 N16 2.302392 1_555
Fe0 N20 1.661552 1_555
Fe1 N21 1.661552 1_555
Fe2 N22 1.661552 1_555
Fe3 N23 1.661552 1_555
C0 N0 1.166134 1_555
C0 Fe0 1.929316 1_555
C1 N1 1.166134 1_555
C1 Fe1 1.929316 1_555
C2 N2 1.166134 1_555
C2 Fe2 1.929316 1_555
C3 N3 1.166134 1_555
C3 Fe3 1.929316 1_555
C4 N4 1.167222 1_555
C4 Fe0 1.935446 1_555
C5 N5 1.167222 1_655
C5 Fe1 1.935446 1_555
C6 N6 1.167222 1_555
C6 Fe2 1.935446 1_556
C7 N7 1.167222 1_455
C7 Fe3 1.935446 1_554
C8 N8 1.167222 1_555
C8 Fe1 1.935446 1_555
C9 N9 1.167222 1_455
C9 Fe0 1.935446 1_555
C10 N10 1.167222 1_555
C10 Fe3 1.935446 1_554
C11 N11 1.167222 1_655
C11 Fe2 1.935446 1_556
C12 N12 1.167422 1_555
C12 Fe0 1.935629 1_555
C13 N13 1.167422 1_655
C13 Fe1 1.935629 1_555
C14 N14 1.167422 1_555
C14 Fe2 1.935629 1_555
C15 N15 1.167422 1_455
C15 Fe3 1.935629 1_555
C16 N16 1.167422 1_555
C16 Fe1 1.935629 1_555
C17 N17 1.167422 1_455
C17 Fe0 1.935629 1_555
C18 N18 1.167422 1_555
C18 Fe3 1.935629 1_555
C19 N19 1.167422 1_655
C19 Fe2 1.935629 1_555
N20 O0 1.149758 1_565
N21 O1 1.149758 1_545
N22 O2 1.149758 1_554
N23 O3 1.149758 1_556
