# generated using pymatgen
data_SiNi2P
_symmetry_space_group_name_H-M   'P 1'
_cell_length_a   4.98469100
_cell_length_b   5.87091300
_cell_length_c   13.66675300
_cell_angle_alpha   90.00000000
_cell_angle_beta   90.00000000
_cell_angle_gamma   90.00000000
_symmetry_Int_Tables_number   1
_chemical_formula_structural   SiNi2P
_chemical_formula_sum   'Si8 Ni16 P8'
_cell_volume   399.95325149
_cell_formula_units_Z   8
loop_
 _symmetry_equiv_pos_site_id
 _symmetry_equiv_pos_as_xyz
  1  'x, y, z'
loop_
 _atom_site_type_symbol
 _atom_site_label
 _atom_site_symmetry_multiplicity
 _atom_site_fract_x
 _atom_site_fract_y
 _atom_site_fract_z
 _atom_site_occupancy
  Si  Si0  1  0.81942000  0.92167300  0.05974900  1
  Si  Si1  1  0.31942000  0.07832700  0.44025100  1
  Si  Si2  1  0.68058000  0.42167300  0.94025100  1
  Si  Si3  1  0.18058000  0.57832700  0.55974900  1
  Si  Si4  1  0.18058000  0.07832700  0.94025100  1
  Si  Si5  1  0.68058000  0.92167300  0.55974900  1
  Si  Si6  1  0.31942000  0.57832700  0.05974900  1
  Si  Si7  1  0.81942000  0.42167300  0.44025100  1
  Ni  Ni0  1  0.98803700  0.80342500  0.43480100  1
  Ni  Ni1  1  0.48803700  0.19657500  0.06519900  1
  Ni  Ni2  1  0.51196300  0.30342500  0.56519900  1
  Ni  Ni3  1  0.01196300  0.69657500  0.93480100  1
  Ni  Ni4  1  0.01196300  0.19657500  0.56519900  1
  Ni  Ni5  1  0.51196300  0.80342500  0.93480100  1
  Ni  Ni6  1  0.48803700  0.69657500  0.43480100  1
  Ni  Ni7  1  0.98803700  0.30342500  0.06519900  1
  Ni  Ni8  1  0.98459400  0.80305900  0.67755600  1
  Ni  Ni9  1  0.48459400  0.19694100  0.82244400  1
  Ni  Ni10  1  0.51540600  0.30305900  0.32244400  1
  Ni  Ni11  1  0.01540600  0.69694100  0.17755600  1
  Ni  Ni12  1  0.01540600  0.19694100  0.32244400  1
  Ni  Ni13  1  0.51540600  0.80305900  0.17755600  1
  Ni  Ni14  1  0.48459400  0.69694100  0.67755600  1
  Ni  Ni15  1  0.98459400  0.30305900  0.82244400  1
  P  P0  1  0.68416800  0.93848500  0.31913400  1
  P  P1  1  0.18416800  0.06151500  0.18086600  1
  P  P2  1  0.81583200  0.43848500  0.68086600  1
  P  P3  1  0.31583200  0.56151500  0.81913400  1
  P  P4  1  0.31583200  0.06151500  0.68086600  1
  P  P5  1  0.81583200  0.93848500  0.81913400  1
  P  P6  1  0.18416800  0.56151500  0.31913400  1
  P  P7  1  0.68416800  0.43848500  0.18086600  1
loop_
_geom_bond_atom_site_label_1
_geom_bond_atom_site_label_2
_geom_bond_distance
_geom_bond_site_symmetry_2
Si0 Si4 2.598847 1_664
Si1 Si5 2.598847 1_545
Si2 Si6 2.598847 1_556
Si3 Si7 2.598847 1_455
Ni0 Si1 2.310603 1_665
Ni0 P0 2.328504 1_555
Ni0 P6 2.339181 1_655
Ni0 Si3 2.362966 1_655
Ni0 Si7 2.394811 1_555
Ni0 Si5 2.397239 1_555
Ni1 Si0 2.310603 1_545
Ni1 P1 2.328504 1_555
Ni1 P7 2.339181 1_555
Ni1 Si2 2.362966 1_554
Ni1 Si6 2.394811 1_555
Ni1 Si4 2.397239 1_554
Ni2 Si3 2.310603 1_555
Ni2 P2 2.328504 1_555
Ni2 P4 2.339181 1_555
Ni2 Si1 2.362966 1_555
Ni2 Si5 2.394811 1_545
Ni2 Si7 2.397239 1_555
Ni3 Si2 2.310603 1_455
Ni3 P3 2.328504 1_555
Ni3 P5 2.339181 1_455
Ni3 Si0 2.362966 1_456
Ni3 Si4 2.394811 1_565
Ni3 Si6 2.397239 1_556
Ni4 Si5 2.310603 1_445
Ni4 P4 2.328504 1_555
Ni4 P2 2.339181 1_455
Ni4 Si7 2.362966 1_455
Ni4 Si3 2.394811 1_555
Ni4 Si1 2.397239 1_555
Ni5 Si4 2.310603 1_565
Ni5 P5 2.328504 1_555
Ni5 P3 2.339181 1_555
Ni5 Si6 2.362966 1_556
Ni5 Si2 2.394811 1_555
Ni5 Si0 2.397239 1_556
Ni6 Si7 2.310603 1_555
Ni6 P6 2.328504 1_555
Ni6 P0 2.339181 1_555
Ni6 Si5 2.362966 1_555
Ni6 Si1 2.394811 1_565
Ni6 Si3 2.397239 1_555
Ni7 Si6 2.310603 1_655
Ni7 P7 2.328504 1_555
Ni7 P1 2.339181 1_655
Ni7 Si4 2.362966 1_654
Ni7 Si0 2.394811 1_545
Ni7 Si2 2.397239 1_554
Ni8 P4 2.242913 1_665
Ni8 P5 2.254703 1_555
Ni8 Si3 2.299432 1_655
Ni8 P2 2.300205 1_555
Ni8 Si5 2.318113 1_555
Ni8 P3 2.912222 1_655
Ni9 P5 2.242913 1_545
Ni9 P4 2.254703 1_555
Ni9 Si2 2.299432 1_555
Ni9 P3 2.300205 1_555
Ni9 Si4 2.318113 1_555
Ni9 P2 2.912222 1_555
Ni10 P6 2.242913 1_555
Ni10 P7 2.254703 1_555
Ni10 Si1 2.299432 1_555
Ni10 P0 2.300205 1_545
Ni10 Si7 2.318113 1_555
Ni10 P1 2.912222 1_555
Ni11 P7 2.242913 1_455
Ni11 P6 2.254703 1_555
Ni11 Si0 2.299432 1_455
Ni11 P1 2.300205 1_565
Ni11 Si6 2.318113 1_555
Ni11 P0 2.912222 1_455
Ni12 P0 2.242913 1_445
Ni12 P1 2.254703 1_555
Ni12 Si7 2.299432 1_455
Ni12 P6 2.300205 1_555
Ni12 Si1 2.318113 1_555
Ni12 P7 2.912222 1_455
Ni13 P1 2.242913 1_565
Ni13 P0 2.254703 1_555
Ni13 Si6 2.299432 1_555
Ni13 P7 2.300205 1_555
Ni13 Si0 2.318113 1_555
Ni13 P6 2.912222 1_555
Ni14 P2 2.242913 1_555
Ni14 P3 2.254703 1_555
Ni14 Si5 2.299432 1_555
Ni14 P4 2.300205 1_565
Ni14 Si3 2.318113 1_555
Ni14 P5 2.912222 1_555
Ni15 P3 2.242913 1_655
Ni15 P2 2.254703 1_555
Ni15 Si4 2.299432 1_655
Ni15 P5 2.300205 1_545
Ni15 Si2 2.318113 1_555
Ni15 P4 2.912222 1_655
P0 Si1 2.592233 1_565
P1 Si0 2.592233 1_445
P2 Si3 2.592233 1_655
P3 Si2 2.592233 1_555
P4 Si5 2.592233 1_545
P5 Si4 2.592233 1_665
P6 Si7 2.592233 1_455
P7 Si6 2.592233 1_555
