# generated using pymatgen
data_Tl2Ni4P4O15
_symmetry_space_group_name_H-M   'P 1'
_cell_length_a   8.75320536
_cell_length_b   8.75320536
_cell_length_c   18.40634365
_cell_angle_alpha   82.09039851
_cell_angle_beta   82.09039851
_cell_angle_gamma   106.28228202
_symmetry_Int_Tables_number   1
_chemical_formula_structural   Tl2Ni4P4O15
_chemical_formula_sum   'Tl8 Ni16 P16 O60'
_cell_volume   1317.60193869
_cell_formula_units_Z   4
loop_
 _symmetry_equiv_pos_site_id
 _symmetry_equiv_pos_as_xyz
  1  'x, y, z'
loop_
 _atom_site_type_symbol
 _atom_site_label
 _atom_site_symmetry_multiplicity
 _atom_site_fract_x
 _atom_site_fract_y
 _atom_site_fract_z
 _atom_site_occupancy
  Tl  Tl0  1  0.41233200  0.88855600  0.29987600  1
  Tl  Tl1  1  0.45033200  0.64947800  0.05120700  1
  Tl  Tl2  1  0.35052200  0.54966800  0.44879300  1
  Tl  Tl3  1  0.58766800  0.11144400  0.70012400  1
  Tl  Tl4  1  0.54966800  0.35052200  0.94879300  1
  Tl  Tl5  1  0.88855600  0.41233200  0.79987600  1
  Tl  Tl6  1  0.11144400  0.58766800  0.20012400  1
  Tl  Tl7  1  0.64947800  0.45033200  0.55120700  1
  Ni  Ni0  1  0.73005700  0.08641800  0.06824200  1
  Ni  Ni1  1  0.03887800  0.15134100  0.93250500  1
  Ni  Ni2  1  0.53955700  0.46044300  0.25000000  1
  Ni  Ni3  1  0.82793800  0.17206200  0.25000000  1
  Ni  Ni4  1  0.46044300  0.53955700  0.75000000  1
  Ni  Ni5  1  0.50000000  0.00000000  0.50000000  1
  Ni  Ni6  1  0.96112200  0.84865900  0.06749500  1
  Ni  Ni7  1  0.08641800  0.73005700  0.56824200  1
  Ni  Ni8  1  0.84865900  0.96112200  0.56749500  1
  Ni  Ni9  1  0.04644300  0.95355700  0.25000000  1
  Ni  Ni10  1  0.17206200  0.82793800  0.75000000  1
  Ni  Ni11  1  0.15134100  0.03887800  0.43250500  1
  Ni  Ni12  1  0.95355700  0.04644300  0.75000000  1
  Ni  Ni13  1  0.00000000  0.50000000  0.00000000  1
  Ni  Ni14  1  0.91358200  0.26994300  0.43175800  1
  Ni  Ni15  1  0.26994300  0.91358200  0.93175800  1
  P  P0  1  0.22757900  0.55782600  0.87884000  1
  P  P1  1  0.77955200  0.89772100  0.40251400  1
  P  P2  1  0.31250500  0.01303600  0.09794800  1
  P  P3  1  0.98696400  0.68749500  0.40205200  1
  P  P4  1  0.10227900  0.22044800  0.09748600  1
  P  P5  1  0.72325400  0.83982100  0.17888300  1
  P  P6  1  0.16017900  0.27674600  0.32111700  1
  P  P7  1  0.77242100  0.44217400  0.12116000  1
  P  P8  1  0.89772100  0.77955200  0.90251400  1
  P  P9  1  0.83982100  0.72325400  0.67888300  1
  P  P10  1  0.27674600  0.16017900  0.82111700  1
  P  P11  1  0.22044800  0.10227900  0.59748600  1
  P  P12  1  0.68749500  0.98696400  0.90205200  1
  P  P13  1  0.55782600  0.22757900  0.37884000  1
  P  P14  1  0.01303600  0.31250500  0.59794800  1
  P  P15  1  0.44217400  0.77242100  0.62116000  1
  O  O0  1  0.60075200  0.86809100  0.42924800  1
  O  O1  1  0.66945300  0.21832300  0.43845400  1
  O  O2  1  0.40910600  0.29702300  0.76734400  1
  O  O3  1  0.94941900  0.25155200  0.68130700  1
  O  O4  1  0.05058100  0.74844800  0.31869300  1
  O  O5  1  0.54237300  0.39909600  0.35910000  1
  O  O6  1  0.25155200  0.94941900  0.18130700  1
  O  O7  1  0.82746700  0.38566100  0.19324300  1
  O  O8  1  0.49159200  0.05406600  0.07104500  1
  O  O9  1  0.61433900  0.17253300  0.30675700  1
  O  O10  1  0.38566100  0.82746700  0.69324300  1
  O  O11  1  0.16348800  0.03982600  0.68159800  1
  O  O12  1  0.70283800  0.00931600  0.18747100  1
  O  O13  1  0.50840800  0.94593400  0.92895500  1
  O  O14  1  0.74844800  0.05058100  0.81869300  1
  O  O15  1  0.03982600  0.16348800  0.18159800  1
  O  O16  1  0.00793000  0.88867100  0.94871200  1
  O  O17  1  0.96017400  0.83651200  0.81840200  1
  O  O18  1  0.09547900  0.39496700  0.92043400  1
  O  O19  1  0.99068400  0.29716200  0.31252900  1
  O  O20  1  0.21275100  0.90055700  0.05068900  1
  O  O21  1  0.72435900  0.81168300  0.92088900  1
  O  O22  1  0.09944300  0.78724900  0.44931100  1
  O  O23  1  0.21832300  0.66945300  0.93845400  1
  O  O24  1  0.89757800  0.82970200  0.18363200  1
  O  O25  1  0.17253300  0.61433900  0.80675700  1
  O  O26  1  0.83907100  0.71573000  0.59297800  1
  O  O27  1  0.29716200  0.99068400  0.81252900  1
  O  O28  1  0.81168300  0.72435900  0.42088900  1
  O  O29  1  0.39496700  0.09547900  0.42043400  1
  O  O30  1  0.99207000  0.11132900  0.05128800  1
  O  O31  1  0.90055700  0.21275100  0.55069000  1
  O  O32  1  0.27564100  0.18831700  0.07911100  1
  O  O33  1  0.33054700  0.78167700  0.56154600  1
  O  O34  1  0.00931600  0.70283800  0.68747100  1
  O  O35  1  0.82970200  0.89757800  0.68363200  1
  O  O36  1  0.86809100  0.60075200  0.92924800  1
  O  O37  1  0.16092900  0.28427000  0.40702200  1
  O  O38  1  0.59089400  0.70297700  0.23265600  1
  O  O39  1  0.28427000  0.16092900  0.90702200  1
  O  O40  1  0.18831700  0.27564100  0.57911100  1
  O  O41  1  0.60503300  0.90452100  0.57956600  1
  O  O42  1  0.78167700  0.33054700  0.06154600  1
  O  O43  1  0.29702300  0.40910600  0.26734400  1
  O  O44  1  0.11132900  0.99207000  0.55128800  1
  O  O45  1  0.90452100  0.60503300  0.07956600  1
  O  O46  1  0.39924800  0.13190900  0.57075200  1
  O  O47  1  0.10242200  0.17029800  0.81636800  1
  O  O48  1  0.71573000  0.83907100  0.09297800  1
  O  O49  1  0.05406600  0.49159200  0.57104500  1
  O  O50  1  0.13190900  0.39924800  0.07075200  1
  O  O51  1  0.83651200  0.96017400  0.31840200  1
  O  O52  1  0.39909600  0.54237300  0.85910000  1
  O  O53  1  0.94593400  0.50840800  0.42895500  1
  O  O54  1  0.88867100  0.00793000  0.44871200  1
  O  O55  1  0.60090400  0.45762700  0.14090000  1
  O  O56  1  0.45762700  0.60090400  0.64090000  1
  O  O57  1  0.70297700  0.59089400  0.73265600  1
  O  O58  1  0.17029800  0.10242200  0.31636800  1
  O  O59  1  0.78724900  0.09944300  0.94931000  1
loop_
_geom_bond_atom_site_label_1
_geom_bond_atom_site_label_2
_geom_bond_distance
_geom_bond_site_symmetry_2
Ni0 O8 2.018589 1_555
Ni0 O42 2.038752 1_555
Ni0 O48 2.114551 1_545
Ni0 O59 2.157192 1_554
Ni0 O12 2.164875 1_555
Ni0 O30 2.215566 1_555
Ni1 O18 2.022197 1_555
Ni1 O59 2.089516 1_455
Ni1 O47 2.104727 1_555
Ni1 O39 2.109883 1_555
Ni1 O30 2.129073 1_456
Ni1 O16 2.210985 1_545
Ni2 O55 2.011422 1_555
Ni2 O5 2.011422 1_555
Ni2 O43 2.012416 1_555
Ni2 O38 2.012416 1_555
Ni3 O9 2.013707 1_555
Ni3 O7 2.013707 1_555
Ni3 O19 2.115764 1_555
Ni3 O12 2.115764 1_555
Ni3 O51 2.119453 1_545
Ni3 O15 2.119453 1_655
Ni4 O56 2.011422 1_555
Ni4 O52 2.011422 1_555
Ni4 O2 2.012416 1_555
Ni4 O57 2.012416 1_555
Ni5 O41 2.037916 1_545
Ni5 O29 2.037916 1_555
Ni5 O46 2.115560 1_555
Ni5 O0 2.115560 1_545
Ni5 O33 2.118414 1_545
Ni5 O1 2.118414 1_555
Ni6 O45 2.022197 1_555
Ni6 O20 2.089516 1_655
Ni6 O24 2.104727 1_555
Ni6 O48 2.109883 1_555
Ni6 O16 2.129073 1_654
Ni6 O30 2.210985 1_565
Ni7 O49 2.018589 1_555
Ni7 O33 2.038752 1_555
Ni7 O26 2.114551 1_455
Ni7 O22 2.157174 1_555
Ni7 O34 2.164875 1_555
Ni7 O44 2.215566 1_555
Ni8 O41 2.022197 1_555
Ni8 O31 2.089516 1_565
Ni8 O35 2.104727 1_555
Ni8 O26 2.109883 1_555
Ni8 O54 2.129073 1_565
Ni8 O44 2.210985 1_655
Ni9 O4 2.060975 1_555
Ni9 O6 2.060975 1_555
Ni9 O58 2.091888 1_565
Ni9 O24 2.091888 1_455
Ni9 O51 2.099568 1_455
Ni9 O15 2.099568 1_565
Ni10 O25 2.013707 1_555
Ni10 O10 2.013707 1_555
Ni10 O27 2.115764 1_555
Ni10 O34 2.115764 1_555
Ni10 O17 2.119453 1_455
Ni10 O11 2.119453 1_565
Ni11 O29 2.022197 1_555
Ni11 O22 2.089516 1_545
Ni11 O58 2.104727 1_555
Ni11 O37 2.109883 1_555
Ni11 O44 2.129073 1_545
Ni11 O54 2.210985 1_455
Ni12 O14 2.060975 1_555
Ni12 O3 2.060975 1_555
Ni12 O47 2.091888 1_655
Ni12 O35 2.091888 1_545
Ni12 O17 2.099568 1_545
Ni12 O11 2.099568 1_655
Ni13 O45 2.037916 1_455
Ni13 O18 2.037916 1_554
Ni13 O50 2.115560 1_555
Ni13 O36 2.115560 1_454
Ni13 O23 2.118414 1_554
Ni13 O42 2.118414 1_455
Ni14 O53 2.018589 1_555
Ni14 O1 2.038752 1_555
Ni14 O37 2.114551 1_655
Ni14 O31 2.157192 1_555
Ni14 O19 2.164875 1_555
Ni14 O54 2.215566 1_555
Ni15 O13 2.018589 1_555
Ni15 O23 2.038752 1_555
Ni15 O39 2.114551 1_565
Ni15 O20 2.157174 1_556
Ni15 O27 2.164875 1_555
Ni15 O16 2.215566 1_555
O0 P1 1.511345 1_555
O1 P13 1.574894 1_555
O2 P10 1.528607 1_555
O3 P14 1.523772 1_655
O4 P3 1.523772 1_455
O5 P13 1.543228 1_555
O6 P2 1.523772 1_565
O7 P7 1.538238 1_555
O7 Tl6 2.646704 1_655
O8 P2 1.501080 1_555
O9 P13 1.538238 1_555
O9 Tl0 2.646704 1_545
O10 P15 1.538238 1_555
O10 Tl3 2.646704 1_565
O11 P11 1.531706 1_555
O12 P5 1.569556 1_545
O13 P12 1.501080 1_555
O14 P12 1.523772 1_545
O15 P4 1.531706 1_555
O16 P8 1.580698 1_455
O17 P8 1.531706 1_555
O18 P0 1.577026 1_555
O19 P6 1.569556 1_655
O20 P2 1.565606 1_565
O21 P8 1.618784 1_555
O21 P12 1.655390 1_555
O22 P3 1.565606 1_455
O23 P0 1.574894 1_555
O24 P5 1.566589 1_555
O25 P0 1.538238 1_555
O25 Tl5 2.646704 1_455
O26 P9 1.592432 1_555
O26 Tl7 2.724497 1_555
O27 P10 1.569556 1_565
O28 P1 1.618784 1_555
O28 P3 1.655390 1_555
O29 P13 1.577026 1_555
O30 P4 1.580698 1_655
O31 P14 1.565592 1_655
O32 P4 1.618784 1_555
O32 P2 1.655390 1_555
O33 P15 1.574894 1_555
O34 P9 1.569556 1_455
O35 P9 1.566589 1_555
O36 P8 1.511345 1_555
O37 P6 1.592432 1_555
O37 Tl2 2.724497 1_555
O38 P5 1.528607 1_555
O39 P10 1.592432 1_555
O39 Tl4 2.724497 1_555
O40 P11 1.618784 1_555
O40 P14 1.655390 1_555
O41 P15 1.577026 1_555
O42 P7 1.574894 1_555
O43 P6 1.528607 1_555
O44 P11 1.580698 1_565
O45 P7 1.577026 1_555
O46 P11 1.511345 1_555
O47 P10 1.566589 1_555
O48 P5 1.592432 1_555
O48 Tl1 2.724497 1_555
O49 P14 1.501080 1_555
O50 P4 1.511345 1_555
O51 P1 1.531706 1_555
O52 P0 1.543228 1_555
O53 P3 1.501080 1_555
O54 P1 1.580698 1_545
O55 P7 1.543228 1_555
O56 P15 1.543228 1_555
O57 P9 1.528607 1_555
O58 P6 1.566589 1_555
O59 P12 1.565592 1_545
