# generated using pymatgen
data_ThBi2
_symmetry_space_group_name_H-M   'P 1'
_cell_length_a   4.54793935
_cell_length_b   4.54793935
_cell_length_c   9.37700095
_cell_angle_alpha   90.00000000
_cell_angle_beta   90.00000000
_cell_angle_gamma   90.00000000
_symmetry_Int_Tables_number   1
_chemical_formula_structural   ThBi2
_chemical_formula_sum   'Th2 Bi4'
_cell_volume   193.95156526
_cell_formula_units_Z   2
loop_
 _symmetry_equiv_pos_site_id
 _symmetry_equiv_pos_as_xyz
  1  'x, y, z'
loop_
 _atom_site_type_symbol
 _atom_site_label
 _atom_site_symmetry_multiplicity
 _atom_site_fract_x
 _atom_site_fract_y
 _atom_site_fract_z
 _atom_site_occupancy
  Th  Th0  1  0.75000000  0.75000000  0.72133131  1
  Th  Th1  1  0.25000000  0.25000000  0.27866869  1
  Bi  Bi0  1  0.25000000  0.75000000  0.00000000  1
  Bi  Bi1  1  0.75000000  0.75000000  0.36259452  1
  Bi  Bi2  1  0.25000000  0.25000000  0.63740548  1
  Bi  Bi3  1  0.75000000  0.25000000  0.00000000  1
loop_
_geom_bond_atom_site_label_1
_geom_bond_atom_site_label_2
_geom_bond_distance
_geom_bond_site_symmetry_2
Bi0 Bi3 3.215879 1_465
Bi0 Bi3 3.215879 1_555
Bi0 Bi3 3.215879 1_565
Bi0 Bi3 3.215879 1_455
Bi0 Th1 3.463973 1_565
Bi0 Th1 3.463973 1_555
Bi0 Th0 3.463973 1_454
Bi0 Th0 3.463973 1_554
Bi1 Th1 3.310771 1_565
Bi1 Th1 3.310771 1_555
Bi1 Th1 3.310771 1_655
Bi1 Th1 3.310771 1_665
Bi1 Th0 3.363875 1_555
Bi2 Th0 3.310771 1_455
Bi2 Th0 3.310771 1_555
Bi2 Th0 3.310771 1_445
Bi2 Th0 3.310771 1_545
Bi2 Th1 3.363875 1_555
Bi3 Th1 3.463973 1_555
Bi3 Th1 3.463973 1_655
Bi3 Th0 3.463973 1_544
Bi3 Th0 3.463973 1_554
