# generated using pymatgen
data_CdI2
_symmetry_space_group_name_H-M   'P 1'
_cell_length_a   4.33697926
_cell_length_b   4.33697926
_cell_length_c   116.34162600
_cell_angle_alpha   90.00000000
_cell_angle_beta   90.00000000
_cell_angle_gamma   119.99998870
_symmetry_Int_Tables_number   1
_chemical_formula_structural   CdI2
_chemical_formula_sum   'Cd15 I30'
_cell_volume   1895.13652036
_cell_formula_units_Z   15
loop_
 _symmetry_equiv_pos_site_id
 _symmetry_equiv_pos_as_xyz
  1  'x, y, z'
loop_
 _atom_site_type_symbol
 _atom_site_label
 _atom_site_symmetry_multiplicity
 _atom_site_fract_x
 _atom_site_fract_y
 _atom_site_fract_z
 _atom_site_occupancy
  Cd  Cd0  1  0.00000000  0.00000000  0.01673900  1
  Cd  Cd1  1  0.33333300  0.66666700  0.48310800  1
  Cd  Cd2  1  0.33333300  0.66666700  0.95010400  1
  Cd  Cd3  1  0.00000000  0.00000000  0.61660400  1
  Cd  Cd4  1  0.33333300  0.66666700  0.81679700  1
  Cd  Cd5  1  0.33333300  0.66666700  0.35011500  1
  Cd  Cd6  1  0.00000000  0.00000000  0.28332000  1
  Cd  Cd7  1  0.33333300  0.66666700  0.68330200  1
  Cd  Cd8  1  0.33333300  0.66666700  0.21660000  1
  Cd  Cd9  1  0.00000000  0.00000000  0.55009100  1
  Cd  Cd10  1  0.00000000  0.00000000  0.14985300  1
  Cd  Cd11  1  0.33333300  0.66666700  0.08324000  1
  Cd  Cd12  1  0.33333300  0.66666700  0.88343200  1
  Cd  Cd13  1  0.00000000  0.00000000  0.41663400  1
  Cd  Cd14  1  0.00000000  0.00000000  0.75007000  1
  I  I0  1  0.33333300  0.66666700  0.73527000  1
  I  I1  1  0.66666700  0.33333300  0.56487300  1
  I  I2  1  0.33333300  0.66666700  0.40182700  1
  I  I3  1  0.66666700  0.33333300  0.43143000  1
  I  I4  1  0.00000000  0.00000000  0.33532500  1
  I  I5  1  0.66666700  0.33333300  0.36489800  1
  I  I6  1  0.66666700  0.33333300  0.89820800  1
  I  I7  1  0.66666700  0.33333300  0.96488400  1
  I  I8  1  0.66666700  0.33333300  0.23138600  1
  I  I9  1  0.33333300  0.66666700  0.53530600  1
  I  I10  1  0.00000000  0.00000000  0.80200900  1
  I  I11  1  0.66666700  0.33333300  0.69809000  1
  I  I12  1  0.33333300  0.66666700  0.60181500  1
  I  I13  1  0.00000000  0.00000000  0.86864900  1
  I  I14  1  0.66666700  0.33333300  0.76487500  1
  I  I15  1  0.00000000  0.00000000  0.46833300  1
  I  I16  1  0.66666700  0.33333300  0.63139200  1
  I  I17  1  0.00000000  0.00000000  0.20181700  1
  I  I18  1  0.66666700  0.33333300  0.09802800  1
  I  I19  1  0.33333300  0.66666700  0.00194900  1
  I  I20  1  0.33333300  0.66666700  0.13505800  1
  I  I21  1  0.00000000  0.00000000  0.06845800  1
  I  I22  1  0.66666700  0.33333300  0.03152300  1
  I  I23  1  0.33333300  0.66666700  0.26852900  1
  I  I24  1  0.66666700  0.33333300  0.29810600  1
  I  I25  1  0.00000000  0.00000000  0.93531200  1
  I  I26  1  0.66666700  0.33333300  0.83157500  1
  I  I27  1  0.00000000  0.00000000  0.66851900  1
  I  I28  1  0.66666700  0.33333300  0.16464200  1
  I  I29  1  0.66666700  0.33333300  0.49790300  1
loop_
_geom_bond_atom_site_label_1
_geom_bond_atom_site_label_2
_geom_bond_distance
_geom_bond_site_symmetry_2
Cd0 I22 3.037789 1_455
Cd0 I22 3.037793 1_555
Cd0 I22 3.037793 1_445
Cd0 I19 3.038185 1_545
Cd0 I19 3.038188 1_445
Cd0 I19 3.038188 1_555
Cd1 I15 3.037197 1_565
Cd1 I15 3.037200 1_665
Cd1 I15 3.037200 1_555
Cd1 I29 3.038515 1_455
Cd1 I29 3.038515 1_565
Cd1 I29 3.038520 1_555
Cd2 I7 3.037526 1_455
Cd2 I7 3.037526 1_565
Cd2 I7 3.037532 1_555
Cd2 I25 3.038316 1_565
Cd2 I25 3.038320 1_665
Cd2 I25 3.038320 1_555
Cd3 I16 3.038053 1_455
Cd3 I16 3.038056 1_445
Cd3 I16 3.038056 1_555
Cd3 I12 3.038119 1_545
Cd3 I12 3.038122 1_445
Cd3 I12 3.038122 1_555
Cd4 I26 3.037395 1_455
Cd4 I26 3.037395 1_565
Cd4 I26 3.037400 1_555
Cd4 I10 3.038053 1_565
Cd4 I10 3.038056 1_555
Cd4 I10 3.038056 1_665
Cd5 I5 3.037724 1_455
Cd5 I5 3.037724 1_565
Cd5 I5 3.037730 1_555
Cd5 I4 3.038185 1_565
Cd5 I4 3.038188 1_555
Cd5 I4 3.038188 1_665
Cd6 I24 3.037921 1_455
Cd6 I24 3.037925 1_555
Cd6 I24 3.037925 1_445
Cd6 I23 3.038251 1_545
Cd6 I23 3.038254 1_445
Cd6 I23 3.038254 1_555
Cd7 I27 3.037724 1_565
Cd7 I27 3.037727 1_555
Cd7 I27 3.037727 1_665
Cd7 I11 3.038053 1_455
Cd7 I11 3.038053 1_565
Cd7 I11 3.038059 1_555
Cd8 I17 3.037724 1_565
Cd8 I17 3.037727 1_665
Cd8 I17 3.037727 1_555
Cd8 I8 3.037922 1_455
Cd8 I8 3.037922 1_565
Cd8 I8 3.037927 1_555
Cd9 I1 3.037658 1_455
Cd9 I1 3.037661 1_445
Cd9 I1 3.037661 1_555
Cd9 I9 3.037855 1_545
Cd9 I9 3.037859 1_445
Cd9 I9 3.037859 1_555
Cd10 I28 3.038119 1_455
Cd10 I28 3.038122 1_555
Cd10 I28 3.038122 1_445
Cd10 I20 3.038514 1_545
Cd10 I20 3.038518 1_445
Cd10 I20 3.038518 1_555
Cd11 I21 3.037658 1_565
Cd11 I21 3.037661 1_665
Cd11 I21 3.037661 1_555
Cd11 I18 3.038053 1_455
Cd11 I18 3.038053 1_565
Cd11 I18 3.038059 1_555
Cd12 I6 3.037263 1_455
Cd12 I6 3.037263 1_565
Cd12 I6 3.037269 1_555
Cd12 I13 3.037724 1_565
Cd12 I13 3.037727 1_555
Cd12 I13 3.037727 1_665
Cd13 I3 3.038580 1_455
Cd13 I3 3.038584 1_555
Cd13 I3 3.038584 1_445
Cd13 I2 3.039305 1_545
Cd13 I2 3.039309 1_555
Cd13 I2 3.039309 1_445
Cd14 I0 3.038844 1_545
Cd14 I0 3.038847 1_555
Cd14 I0 3.038847 1_445
Cd14 I14 3.039173 1_455
Cd14 I14 3.039177 1_445
Cd14 I14 3.039177 1_555
