# generated using pymatgen
data_Ba3LuIr2O9
_symmetry_space_group_name_H-M   'P 1'
_cell_length_a   5.86585260
_cell_length_b   5.86585870
_cell_length_c   14.44491455
_cell_angle_alpha   90.00000543
_cell_angle_beta   90.00001453
_cell_angle_gamma   119.99995048
_symmetry_Int_Tables_number   1
_chemical_formula_structural   Ba3LuIr2O9
_chemical_formula_sum   'Ba6 Lu2 Ir4 O18'
_cell_volume   430.43598156
_cell_formula_units_Z   2
loop_
 _symmetry_equiv_pos_site_id
 _symmetry_equiv_pos_as_xyz
  1  'x, y, z'
loop_
 _atom_site_type_symbol
 _atom_site_label
 _atom_site_symmetry_multiplicity
 _atom_site_fract_x
 _atom_site_fract_y
 _atom_site_fract_z
 _atom_site_occupancy
  Ba  Ba0  1  0.66666803  0.33333070  0.09026428  1
  Ba  Ba1  1  0.33333177  0.66666897  0.59031427  1
  Ba  Ba2  1  0.66666469  0.33333460  0.40965637  1
  Ba  Ba3  1  0.00000102  0.00000179  0.24998462  1
  Ba  Ba4  1  0.33333497  0.66666289  0.90973777  1
  Ba  Ba5  1  0.00000314  0.00000355  0.75004219  1
  Lu  Lu0  1  -0.00001190  -0.00000175  0.00003490  1
  Lu  Lu1  1  0.00000563  0.00000868  0.49999269  1
  Ir  Ir0  1  0.66666554  0.33333466  0.66329276  1
  Ir  Ir1  1  0.33333193  0.66666771  0.33668717  1
  Ir  Ir2  1  0.33333443  0.66666476  0.16325158  1
  Ir  Ir3  1  0.66666789  0.33333146  0.83676899  1
  O  O0  1  0.17414743  0.34829947  0.41508270  1
  O  O1  1  0.17413734  0.34826957  0.08485100  1
  O  O2  1  0.82588501  0.17411566  0.91512695  1
  O  O3  1  0.49188755  0.50811538  0.24996822  1
  O  O4  1  0.17414735  0.82585199  0.41508229  1
  O  O5  1  0.98362097  0.49181156  0.75004875  1
  O  O6  1  0.34824058  0.17411830  0.91512596  1
  O  O7  1  0.82585938  0.65172216  0.58491431  1
  O  O8  1  0.17413989  0.82586016  0.08485248  1
  O  O9  1  0.50818882  0.01637856  0.75004867  1
  O  O10  1  0.82588239  0.65175924  0.91512538  1
  O  O11  1  0.50819144  0.49181150  0.75004928  1
  O  O12  1  0.34827575  0.17413916  0.58491362  1
  O  O13  1  0.65169741  0.82585070  0.41508208  1
  O  O14  1  0.82585823  0.17414047  0.58491476  1
  O  O15  1  0.49188523  0.98377054  0.24996745  1
  O  O16  1  0.65172932  0.82586259  0.08485111  1
  O  O17  1  0.01622877  0.50811498  0.24996741  1
loop_
_geom_bond_atom_site_label_1
_geom_bond_atom_site_label_2
_geom_bond_distance
_geom_bond_site_symmetry_2
Ba0 O17 2.911203 1_655
Ba0 O15 2.911204 1_545
Ba0 O3 2.911227 1_555
Ba0 O16 2.934946 1_545
Ba0 O1 2.934949 1_655
Ba0 O8 2.934950 1_545
Ba0 O1 2.934950 1_555
Ba0 O8 2.934957 1_655
Ba0 O16 2.934960 1_555
Ba0 O6 3.002803 1_554
Ba0 O2 3.002804 1_554
Ba0 O10 3.002815 1_554
Ba1 O9 2.912024 1_565
Ba1 O5 2.912028 1_455
Ba1 O11 2.912053 1_555
Ba1 O12 2.934938 1_565
Ba1 O7 2.934940 1_455
Ba1 O14 2.934943 1_565
Ba1 O7 2.934952 1_555
Ba1 O14 2.934955 1_455
Ba1 O12 2.934959 1_555
Ba1 O13 3.003777 1_555
Ba1 O4 3.003779 1_555
Ba1 O0 3.003780 1_555
Ba2 O3 2.911023 1_555
Ba2 O15 2.911052 1_545
Ba2 O17 2.911052 1_655
Ba2 O0 2.934956 1_555
Ba2 O13 2.934960 1_555
Ba2 O0 2.934960 1_655
Ba2 O4 2.934962 1_545
Ba2 O4 2.934962 1_655
Ba2 O13 2.934963 1_545
Ba2 O12 3.004146 1_555
Ba2 O7 3.004151 1_555
Ba2 O14 3.004156 1_555
Ba3 O17 2.934084 1_555
Ba3 O15 2.934084 1_545
Ba3 O15 2.934086 1_445
Ba3 O3 2.934088 1_445
Ba3 O3 2.934089 1_555
Ba3 O17 2.934092 1_545
Ba3 O4 2.969499 1_545
Ba3 O0 2.969510 1_555
Ba3 O13 2.969521 1_445
Ba3 O1 2.969833 1_555
Ba3 O16 2.969841 1_445
Ba3 O8 2.969852 1_545
Ba4 O11 2.911492 1_555
Ba4 O5 2.911517 1_455
Ba4 O9 2.911525 1_565
Ba4 O6 2.934923 1_555
Ba4 O10 2.934931 1_555
Ba4 O2 2.934931 1_455
Ba4 O10 2.934940 1_455
Ba4 O2 2.934948 1_565
Ba4 O6 2.934954 1_565
Ba4 O1 3.002406 1_556
Ba4 O16 3.002408 1_556
Ba4 O8 3.002420 1_556
Ba5 O9 2.934095 1_555
Ba5 O11 2.934099 1_555
Ba5 O5 2.934104 1_455
Ba5 O5 2.934115 1_445
Ba5 O9 2.934116 1_455
Ba5 O11 2.934121 1_445
Ba5 O2 2.969151 1_455
Ba5 O6 2.969160 1_555
Ba5 O10 2.969176 1_445
Ba5 O12 2.969788 1_555
Ba5 O14 2.969801 1_455
Ba5 O7 2.969806 1_445
Lu0 O16 2.151955 1_445
Lu0 O1 2.152007 1_555
Lu0 O8 2.152095 1_545
Lu0 O2 2.152549 1_454
Lu0 O10 2.152641 1_444
Lu0 O6 2.152691 1_554
Lu1 O0 2.152861 1_555
Lu1 O12 2.152863 1_555
Lu1 O4 2.152894 1_545
Lu1 O14 2.152910 1_455
Lu1 O13 2.152937 1_445
Lu1 O7 2.152939 1_445
Ir0 O14 1.974278 1_555
Ir0 O7 1.974286 1_555
Ir0 O12 1.974299 1_555
Ir0 O11 2.040324 1_555
Ir0 O5 2.040337 1_555
Ir0 O9 2.040341 1_555
Ir1 O13 1.974329 1_555
Ir1 O4 1.974345 1_555
Ir1 O0 1.974347 1_555
Ir1 O17 2.040608 1_555
Ir1 O15 2.040608 1_555
Ir1 O3 2.040620 1_555
Ir2 O8 1.974465 1_555
Ir2 O16 1.974498 1_555
Ir2 O1 1.974501 1_555
Ir2 O3 2.040578 1_555
Ir2 O17 2.040584 1_555
Ir2 O15 2.040586 1_555
Ir3 O10 1.974270 1_555
Ir3 O6 1.974272 1_555
Ir3 O2 1.974303 1_555
Ir3 O5 2.040011 1_555
Ir3 O9 2.040012 1_555
Ir3 O11 2.040019 1_555
