# generated using pymatgen
data_MgH8C2S2(NO2)2
_symmetry_space_group_name_H-M   'P 1'
_cell_length_a   9.09245300
_cell_length_b   7.59296600
_cell_length_c   7.97918075
_cell_angle_alpha   64.69062461
_cell_angle_beta   90.00000000
_cell_angle_gamma   90.00000000
_symmetry_Int_Tables_number   1
_chemical_formula_structural   MgH8C2S2(NO2)2
_chemical_formula_sum   'Mg2 H16 C4 S4 N4 O8'
_cell_volume   497.99537645
_cell_formula_units_Z   2
loop_
 _symmetry_equiv_pos_site_id
 _symmetry_equiv_pos_as_xyz
  1  'x, y, z'
loop_
 _atom_site_type_symbol
 _atom_site_label
 _atom_site_symmetry_multiplicity
 _atom_site_fract_x
 _atom_site_fract_y
 _atom_site_fract_z
 _atom_site_occupancy
  Mg  Mg0  1  0.00000000  0.00000000  0.00000000  1
  Mg  Mg1  1  0.50000000  0.50000000  0.00000000  1
  H  H0  1  0.05756100  0.15543300  0.24616700  1
  H  H1  1  0.55756100  0.34456700  0.75383300  1
  H  H2  1  0.46247100  0.10749600  0.20852500  1
  H  H3  1  0.96247100  0.39250400  0.79147500  1
  H  H4  1  0.94243900  0.84456700  0.75383300  1
  H  H5  1  0.87946700  0.05487600  0.67477200  1
  H  H6  1  0.80581000  0.32002800  0.87590300  1
  H  H7  1  0.62053300  0.55487600  0.67477200  1
  H  H8  1  0.69419000  0.82002800  0.87590300  1
  H  H9  1  0.53752900  0.89250400  0.79147500  1
  H  H10  1  0.30581000  0.17997200  0.12409700  1
  H  H11  1  0.37946700  0.44512400  0.32522800  1
  H  H12  1  0.03752900  0.60749600  0.20852500  1
  H  H13  1  0.19419000  0.67997200  0.12409700  1
  H  H14  1  0.12053300  0.94512400  0.32522800  1
  H  H15  1  0.44243900  0.65543300  0.24616700  1
  C  C0  1  0.29079900  0.14077300  0.73096700  1
  C  C1  1  0.70920100  0.85922700  0.26903300  1
  C  C2  1  0.79079900  0.35922700  0.26903300  1
  C  C3  1  0.20920100  0.64077300  0.73096700  1
  S  S0  1  0.43943300  0.18916900  0.60350300  1
  S  S1  1  0.56056700  0.81083100  0.39649700  1
  S  S2  1  0.93943300  0.31083100  0.39649700  1
  S  S3  1  0.06056700  0.68916900  0.60350300  1
  N  N0  1  0.18388800  0.10280500  0.82354800  1
  N  N1  1  0.31611200  0.60280500  0.82354800  1
  N  N2  1  0.81611200  0.89719500  0.17645200  1
  N  N3  1  0.68388800  0.39719500  0.17645200  1
  O  O0  1  0.38620800  0.56588300  0.20822700  1
  O  O1  1  0.40962900  0.22039700  0.11524400  1
  O  O2  1  0.88620800  0.93411700  0.79177300  1
  O  O3  1  0.90962900  0.27960300  0.88475600  1
  O  O4  1  0.09037100  0.72039700  0.11524400  1
  O  O5  1  0.59037100  0.77960300  0.88475600  1
  O  O6  1  0.61379200  0.43411700  0.79177300  1
  O  O7  1  0.11379200  0.06588300  0.20822700  1
loop_
_geom_bond_atom_site_label_1
_geom_bond_atom_site_label_2
_geom_bond_distance
_geom_bond_site_symmetry_2
Mg0 O3 2.087769 1_454
Mg0 O4 2.087769 1_545
Mg0 N2 2.108911 1_445
Mg0 N0 2.108911 1_554
Mg0 O7 2.189043 1_555
Mg0 O2 2.189043 1_444
Mg1 O1 2.087769 1_555
Mg1 O5 2.087769 1_554
Mg1 N1 2.108911 1_554
Mg1 N3 2.108911 1_555
Mg1 O0 2.189043 1_555
Mg1 O6 2.189043 1_554
H0 O7 0.995680 1_555
H1 O6 0.995680 1_555
H2 O1 0.987002 1_555
H3 O3 0.987002 1_555
H4 O2 0.995680 1_555
H5 O2 0.992046 1_545
H6 O3 0.985771 1_555
H7 O6 0.992046 1_555
H8 O5 0.985771 1_555
H9 O5 0.987002 1_555
H10 O1 0.985771 1_555
H11 O0 0.992046 1_555
H12 O4 0.987002 1_555
H13 O4 0.985771 1_555
H14 O7 0.992046 1_565
H15 O0 0.995680 1_555
C0 N0 1.179694 1_555
C0 S0 1.635941 1_555
C1 N2 1.179694 1_555
C1 S1 1.635941 1_555
C2 N3 1.179694 1_555
C2 S2 1.635941 1_555
C3 N1 1.179694 1_555
C3 S3 1.635941 1_555
