# generated using pymatgen
data_YbAu2F9
_symmetry_space_group_name_H-M   'P 1'
_cell_length_a   9.33264700
_cell_length_b   11.35603100
_cell_length_c   22.22209300
_cell_angle_alpha   90.00000000
_cell_angle_beta   90.00000000
_cell_angle_gamma   90.00000000
_symmetry_Int_Tables_number   1
_chemical_formula_structural   YbAu2F9
_chemical_formula_sum   'Yb12 Au24 F108'
_cell_volume   2355.13805244
_cell_formula_units_Z   12
loop_
 _symmetry_equiv_pos_site_id
 _symmetry_equiv_pos_as_xyz
  1  'x, y, z'
loop_
 _atom_site_type_symbol
 _atom_site_label
 _atom_site_symmetry_multiplicity
 _atom_site_fract_x
 _atom_site_fract_y
 _atom_site_fract_z
 _atom_site_occupancy
  Yb  Yb0  1  0.04245900  0.40452400  0.91545100  1
  Yb  Yb1  1  0.54245900  0.09547600  0.91545100  1
  Yb  Yb2  1  0.31497300  0.00000000  0.75000000  1
  Yb  Yb3  1  0.95754100  0.40452400  0.41545100  1
  Yb  Yb4  1  0.04245900  0.59547600  0.58454900  1
  Yb  Yb5  1  0.45754100  0.09547600  0.41545100  1
  Yb  Yb6  1  0.68502700  0.00000000  0.25000000  1
  Yb  Yb7  1  0.95754100  0.59547600  0.08454900  1
  Yb  Yb8  1  0.81497300  0.50000000  0.75000000  1
  Yb  Yb9  1  0.54245900  0.90452400  0.58454900  1
  Yb  Yb10  1  0.18502700  0.50000000  0.25000000  1
  Yb  Yb11  1  0.45754100  0.90452400  0.08454900  1
  Au  Au0  1  0.66052000  0.60955200  0.49078100  1
  Au  Au1  1  0.86190100  0.28682600  0.17119500  1
  Au  Au2  1  0.16052000  0.10955200  0.00921900  1
  Au  Au3  1  0.93269700  0.92602300  0.66488500  1
  Au  Au4  1  0.33948000  0.39044800  0.50921900  1
  Au  Au5  1  0.56730300  0.57397700  0.16488500  1
  Au  Au6  1  0.63809900  0.21317400  0.67119500  1
  Au  Au7  1  0.86190100  0.71317400  0.32880500  1
  Au  Au8  1  0.13809900  0.28682600  0.67119500  1
  Au  Au9  1  0.36190100  0.21317400  0.17119500  1
  Au  Au10  1  0.13809900  0.71317400  0.82880500  1
  Au  Au11  1  0.06730300  0.92602300  0.16488500  1
  Au  Au12  1  0.93269700  0.07397700  0.83511500  1
  Au  Au13  1  0.43269700  0.42602300  0.83511500  1
  Au  Au14  1  0.66052000  0.39044800  0.00921900  1
  Au  Au15  1  0.33948000  0.60955200  0.99078100  1
  Au  Au16  1  0.43269700  0.57397700  0.66488500  1
  Au  Au17  1  0.16052000  0.89044800  0.49078100  1
  Au  Au18  1  0.63809900  0.78682600  0.82880500  1
  Au  Au19  1  0.56730300  0.42602300  0.33511500  1
  Au  Au20  1  0.83948000  0.89044800  0.99078100  1
  Au  Au21  1  0.83948000  0.10955200  0.50921900  1
  Au  Au22  1  0.36190100  0.78682600  0.32880500  1
  Au  Au23  1  0.06730300  0.07397700  0.33511500  1
  F  F0  1  0.91311500  0.39415300  0.10605100  1
  F  F1  1  0.22163000  0.28514200  0.11924200  1
  F  F2  1  0.50747400  0.41507500  0.06690800  1
  F  F3  1  0.26761500  0.88000500  0.15233200  1
  F  F4  1  0.30303600  0.31859900  0.23621900  1
  F  F5  1  0.63113600  0.52579400  0.67721800  1
  F  F6  1  0.99252600  0.08492500  0.56690800  1
  F  F7  1  0.00364100  0.35846100  0.22441200  1
  F  F8  1  0.86886400  0.02579400  0.32278200  1
  F  F9  1  0.27837000  0.21485800  0.61924200  1
  F  F10  1  0.69696400  0.68140100  0.76378100  1
  F  F11  1  0.26761500  0.11999500  0.34766800  1
  F  F12  1  0.99716900  0.22168000  0.87102100  1
  F  F13  1  0.19154100  0.63433800  0.05152100  1
  F  F14  1  0.92130100  0.26155500  0.48815700  1
  F  F15  1  0.69154100  0.13433800  0.44847900  1
  F  F16  1  0.42130100  0.76155500  0.01184300  1
  F  F17  1  0.57869900  0.76155500  0.51184300  1
  F  F18  1  0.00283100  0.22168000  0.37102100  1
  F  F19  1  0.07869900  0.73844500  0.51184300  1
  F  F20  1  0.50283100  0.72168000  0.12897900  1
  F  F21  1  0.76100600  0.95692700  0.53278800  1
  F  F22  1  0.99635900  0.35846100  0.72441200  1
  F  F23  1  0.22163000  0.71485800  0.38075800  1
  F  F24  1  0.13113600  0.02579400  0.82278200  1
  F  F25  1  0.99716900  0.77832000  0.62897900  1
  F  F26  1  0.30845900  0.13433800  0.94847900  1
  F  F27  1  0.27837000  0.78514200  0.88075800  1
  F  F28  1  0.19696400  0.81859900  0.76378100  1
  F  F29  1  0.37250100  0.57510700  0.80028800  1
  F  F30  1  0.76761500  0.38000500  0.34766800  1
  F  F31  1  0.77837000  0.28514200  0.61924200  1
  F  F32  1  0.08688500  0.39415300  0.60605100  1
  F  F33  1  0.91844700  0.55000700  0.66497600  1
  F  F34  1  0.08688500  0.60584700  0.89394900  1
  F  F35  1  0.91311500  0.60584700  0.39394900  1
  F  F36  1  0.41311500  0.10584700  0.10605100  1
  F  F37  1  0.19696400  0.18140100  0.73621900  1
  F  F38  1  0.76761500  0.61999500  0.15233200  1
  F  F39  1  0.41844700  0.05000700  0.83502400  1
  F  F40  1  0.50364100  0.85846100  0.27558800  1
  F  F41  1  0.08155300  0.55000700  0.16497600  1
  F  F42  1  0.49716900  0.27832000  0.87102100  1
  F  F43  1  0.26100600  0.54307300  0.53278800  1
  F  F44  1  0.23238500  0.38000500  0.84766800  1
  F  F45  1  0.80845900  0.36566200  0.94847900  1
  F  F46  1  0.76100600  0.04307300  0.96721200  1
  F  F47  1  0.72163000  0.78514200  0.38075800  1
  F  F48  1  0.23899400  0.04307300  0.46721200  1
  F  F49  1  0.12749900  0.92489300  0.30028800  1
  F  F50  1  0.49635900  0.14153900  0.72441200  1
  F  F51  1  0.50000000  0.00000000  0.00000000  1
  F  F52  1  0.77837000  0.71485800  0.88075800  1
  F  F53  1  0.63113600  0.47420600  0.82278200  1
  F  F54  1  0.49252600  0.41507500  0.56690800  1
  F  F55  1  0.23899400  0.95692700  0.03278800  1
  F  F56  1  0.69696400  0.31859900  0.73621900  1
  F  F57  1  0.00747400  0.08492500  0.06690800  1
  F  F58  1  0.13113600  0.97420600  0.67721800  1
  F  F59  1  0.80303600  0.81859900  0.26378100  1
  F  F60  1  0.73899400  0.54307300  0.03278800  1
  F  F61  1  0.99252600  0.91507500  0.93309200  1
  F  F62  1  0.50283100  0.27832000  0.37102100  1
  F  F63  1  0.00364100  0.64153900  0.27558800  1
  F  F64  1  0.69154100  0.86566200  0.05152100  1
  F  F65  1  0.80303600  0.18140100  0.23621900  1
  F  F66  1  0.73238500  0.88000500  0.65233200  1
  F  F67  1  0.57869900  0.23844500  0.98815700  1
  F  F68  1  0.50747400  0.58492500  0.43309200  1
  F  F69  1  0.37250100  0.42489300  0.69971200  1
  F  F70  1  0.30845900  0.86566200  0.55152100  1
  F  F71  1  0.36886400  0.52579400  0.17721800  1
  F  F72  1  0.86886400  0.97420600  0.17721800  1
  F  F73  1  0.42130100  0.23844500  0.48815700  1
  F  F74  1  0.80845900  0.63433800  0.55152100  1
  F  F75  1  0.87250100  0.07510700  0.69971200  1
  F  F76  1  0.36886400  0.47420600  0.32278200  1
  F  F77  1  0.73238500  0.11999500  0.84766800  1
  F  F78  1  0.26100600  0.45692700  0.96721200  1
  F  F79  1  0.99635900  0.64153900  0.77558800  1
  F  F80  1  0.00000000  0.50000000  0.00000000  1
  F  F81  1  0.50000000  0.00000000  0.50000000  1
  F  F82  1  0.58688500  0.10584700  0.60605100  1
  F  F83  1  0.23238500  0.61999500  0.65233200  1
  F  F84  1  0.62749900  0.42489300  0.19971200  1
  F  F85  1  0.58155300  0.05000700  0.33502400  1
  F  F86  1  0.00283100  0.77832000  0.12897900  1
  F  F87  1  0.41844700  0.94999300  0.66497600  1
  F  F88  1  0.49716900  0.72168000  0.62897900  1
  F  F89  1  0.62749900  0.57510700  0.30028800  1
  F  F90  1  0.49635900  0.85846100  0.77558800  1
  F  F91  1  0.12749900  0.07510700  0.19971200  1
  F  F92  1  0.00747400  0.91507500  0.43309200  1
  F  F93  1  0.58155300  0.94999300  0.16497600  1
  F  F94  1  0.58688500  0.89415300  0.89394900  1
  F  F95  1  0.50364100  0.14153900  0.22441200  1
  F  F96  1  0.73899400  0.45692700  0.46721200  1
  F  F97  1  0.00000000  0.50000000  0.50000000  1
  F  F98  1  0.08155300  0.44999300  0.33502400  1
  F  F99  1  0.91844700  0.44999300  0.83502400  1
  F  F100  1  0.92130100  0.73844500  0.01184300  1
  F  F101  1  0.87250100  0.92489300  0.80028800  1
  F  F102  1  0.41311500  0.89415300  0.39394900  1
  F  F103  1  0.49252600  0.58492500  0.93309200  1
  F  F104  1  0.72163000  0.21485800  0.11924200  1
  F  F105  1  0.19154100  0.36566200  0.44847900  1
  F  F106  1  0.30303600  0.68140100  0.26378100  1
  F  F107  1  0.07869900  0.26155500  0.98815700  1
loop_
_geom_bond_atom_site_label_1
_geom_bond_atom_site_label_2
_geom_bond_distance
_geom_bond_site_symmetry_2
Au0 F68 1.939528 1_555
Au0 F17 1.944673 1_555
Au0 F74 1.951239 1_555
Au0 F96 1.953129 1_555
Au1 F104 1.927318 1_555
Au1 F0 1.951818 1_555
Au1 F7 1.951952 1_655
Au1 F65 1.955262 1_555
Au2 F57 1.939528 1_555
Au2 F107 1.944673 1_554
Au2 F26 1.951239 1_554
Au2 F55 1.953129 1_545
Au3 F75 1.944435 1_565
Au3 F58 1.950452 1_655
Au3 F25 1.952458 1_555
Au3 F66 1.961050 1_555
Au4 F54 1.939528 1_555
Au4 F73 1.944673 1_555
Au4 F105 1.951239 1_555
Au4 F43 1.953129 1_555
Au5 F84 1.944435 1_555
Au5 F71 1.950452 1_555
Au5 F20 1.952458 1_555
Au5 F38 1.961050 1_555
Au6 F31 1.927318 1_555
Au6 F82 1.951818 1_555
Au6 F50 1.951952 1_555
Au6 F56 1.955262 1_555
Au7 F47 1.927318 1_555
Au7 F35 1.951818 1_555
Au7 F63 1.951952 1_655
Au7 F59 1.955262 1_555
Au8 F9 1.927318 1_555
Au8 F32 1.951818 1_555
Au8 F22 1.951952 1_455
Au8 F37 1.955262 1_555
Au9 F1 1.927318 1_555
Au9 F36 1.951818 1_555
Au9 F95 1.951952 1_555
Au9 F4 1.955262 1_555
Au10 F27 1.927318 1_555
Au10 F34 1.951818 1_555
Au10 F79 1.951952 1_455
Au10 F28 1.955262 1_555
Au11 F91 1.944435 1_565
Au11 F72 1.950452 1_455
Au11 F86 1.952458 1_555
Au11 F3 1.961050 1_555
Au12 F101 1.944435 1_545
Au12 F24 1.950452 1_655
Au12 F12 1.952458 1_555
Au12 F77 1.961050 1_555
Au13 F29 1.944435 1_555
Au13 F53 1.950452 1_555
Au13 F42 1.952458 1_555
Au13 F44 1.961050 1_555
Au14 F2 1.939528 1_555
Au14 F67 1.944673 1_554
Au14 F45 1.951239 1_554
Au14 F60 1.953129 1_555
Au15 F103 1.939528 1_555
Au15 F16 1.944673 1_556
Au15 F13 1.951239 1_556
Au15 F78 1.953129 1_555
Au16 F69 1.944435 1_555
Au16 F5 1.950452 1_555
Au16 F88 1.952458 1_555
Au16 F83 1.961050 1_555
Au17 F92 1.939528 1_555
Au17 F19 1.944673 1_555
Au17 F70 1.951239 1_555
Au17 F48 1.953129 1_565
Au18 F52 1.927318 1_555
Au18 F94 1.951818 1_555
Au18 F90 1.951952 1_555
Au18 F10 1.955262 1_555
Au19 F89 1.944435 1_555
Au19 F76 1.950452 1_555
Au19 F62 1.952458 1_555
Au19 F30 1.961050 1_555
Au20 F61 1.939528 1_555
Au20 F100 1.944673 1_556
Au20 F64 1.951239 1_556
Au20 F46 1.953129 1_565
Au21 F6 1.939528 1_555
Au21 F14 1.944673 1_555
Au21 F15 1.951239 1_555
Au21 F21 1.953129 1_545
Au22 F23 1.927318 1_555
Au22 F102 1.951818 1_555
Au22 F40 1.951952 1_555
Au22 F106 1.955262 1_555
Au23 F49 1.944435 1_545
Au23 F8 1.950452 1_455
Au23 F18 1.952458 1_555
Au23 F11 1.961050 1_555
F0 Yb7 2.372143 1_555
F3 Yb11 2.342692 1_555
F4 Yb10 2.355909 1_555
F5 Yb8 2.375975 1_555
F7 Yb10 2.402586 1_555
F8 Yb6 2.375975 1_555
F10 Yb8 2.355909 1_555
F11 Yb5 2.342692 1_555
F12 Yb0 2.337698 1_655
F13 Yb7 2.345762 1_455
F14 Yb3 2.315331 1_555
F15 Yb5 2.345762 1_555
F16 Yb11 2.315331 1_555
F17 Yb9 2.315331 1_555
F18 Yb3 2.337698 1_455
F19 Yb4 2.315331 1_555
F20 Yb11 2.337698 1_555
F21 Yb9 2.416037 1_555
F22 Yb8 2.402586 1_555
F24 Yb2 2.375975 1_555
F25 Yb4 2.337698 1_655
F26 Yb1 2.345762 1_555
F28 Yb2 2.355909 1_565
F30 Yb3 2.342692 1_555
F32 Yb4 2.372143 1_555
F33 Yb4 2.190977 1_655
F33 Yb8 2.196569 1_555
F34 Yb0 2.372143 1_555
F35 Yb3 2.372143 1_555
F36 Yb11 2.372143 1_545
F37 Yb2 2.355909 1_555
F38 Yb7 2.342692 1_555
F39 Yb1 2.190977 1_555
F39 Yb2 2.196569 1_555
F40 Yb6 2.402586 1_565
F41 Yb7 2.190977 1_455
F41 Yb10 2.196569 1_555
F42 Yb1 2.337698 1_555
F43 Yb4 2.416037 1_555
F44 Yb0 2.342692 1_555
F45 Yb0 2.345762 1_655
F46 Yb1 2.416037 1_555
F48 Yb5 2.416037 1_555
F50 Yb2 2.402586 1_555
F51 Yb1 2.205146 1_554
F51 Yb11 2.205146 1_545
F53 Yb8 2.375975 1_555
F55 Yb11 2.416037 1_555
F56 Yb8 2.355909 1_555
F58 Yb2 2.375975 1_565
F59 Yb6 2.355909 1_565
F60 Yb7 2.416037 1_555
F62 Yb5 2.337698 1_555
F63 Yb10 2.402586 1_555
F64 Yb11 2.345762 1_555
F65 Yb6 2.355909 1_555
F66 Yb9 2.342692 1_555
F67 Yb1 2.315331 1_555
F70 Yb9 2.345762 1_555
F71 Yb10 2.375975 1_555
F72 Yb6 2.375975 1_565
F73 Yb5 2.315331 1_555
F74 Yb4 2.345762 1_655
F76 Yb10 2.375975 1_555
F77 Yb1 2.342692 1_555
F78 Yb0 2.416037 1_555
F79 Yb8 2.402586 1_555
F80 Yb0 2.205146 1_554
F80 Yb7 2.205146 1_455
F81 Yb9 2.205146 1_545
F81 Yb5 2.205146 1_555
F82 Yb9 2.372143 1_545
F83 Yb4 2.342692 1_555
F85 Yb5 2.190977 1_555
F85 Yb6 2.196569 1_555
F86 Yb7 2.337698 1_455
F87 Yb9 2.190977 1_555
F87 Yb2 2.196569 1_565
F88 Yb9 2.337698 1_555
F90 Yb2 2.402586 1_565
F93 Yb11 2.190977 1_555
F93 Yb6 2.196569 1_565
F94 Yb1 2.372143 1_565
F95 Yb6 2.402586 1_555
F96 Yb3 2.416037 1_555
F97 Yb4 2.205146 1_555
F97 Yb3 2.205146 1_455
F98 Yb3 2.190977 1_455
F98 Yb10 2.196569 1_555
F99 Yb0 2.190977 1_655
F99 Yb8 2.196569 1_555
F100 Yb7 2.315331 1_555
F102 Yb5 2.372143 1_565
F105 Yb3 2.345762 1_455
F106 Yb10 2.355909 1_555
F107 Yb0 2.315331 1_555
