# generated using pymatgen
data_Nd2AlNO3
_symmetry_space_group_name_H-M   'P 1'
_cell_length_a   3.73607400
_cell_length_b   3.73607400
_cell_length_c   6.82553542
_cell_angle_alpha   105.88357974
_cell_angle_beta   105.88357974
_cell_angle_gamma   90.00000000
_symmetry_Int_Tables_number   1
_chemical_formula_structural   Nd2AlNO3
_chemical_formula_sum   'Nd2 Al1 N1 O3'
_cell_volume   87.84697945
_cell_formula_units_Z   1
loop_
 _symmetry_equiv_pos_site_id
 _symmetry_equiv_pos_as_xyz
  1  'x, y, z'
loop_
 _atom_site_type_symbol
 _atom_site_label
 _atom_site_symmetry_multiplicity
 _atom_site_fract_x
 _atom_site_fract_y
 _atom_site_fract_z
 _atom_site_occupancy
  Nd  Nd0  1  0.63838700  0.63838700  0.27677400  1
  Nd  Nd1  1  0.34958700  0.34958700  0.69917400  1
  Al  Al0  1  0.98753900  0.98753900  0.97507800  1
  N  N0  1  0.82678500  0.82678500  0.65357000  1
  O  O0  1  0.16001000  0.16001000  0.32002000  1
  O  O1  1  0.50019600  0.00019600  0.00039200  1
  O  O2  1  0.00019600  0.50019600  0.00039200  1
loop_
_geom_bond_atom_site_label_1
_geom_bond_atom_site_label_2
_geom_bond_distance
_geom_bond_site_symmetry_2
Nd0 O2 2.552481 1_555
Nd0 O1 2.552481 1_555
Nd0 O2 2.552481 1_655
Nd0 O1 2.552481 1_565
Nd0 O0 2.655786 1_555
Nd0 O0 2.655786 1_655
Nd0 O0 2.655786 1_565
Nd0 O0 2.655786 1_665
Nd1 O0 2.386226 1_555
Nd1 O1 2.661458 1_556
Nd1 O2 2.661458 1_556
Nd1 O2 2.661458 1_656
Nd1 O1 2.661458 1_566
Al0 O2 1.874818 1_656
Al0 O1 1.874818 1_666
Al0 O2 1.874818 1_666
Al0 O1 1.874818 1_566
Al0 N0 2.023428 1_555
Al0 O0 2.170911 1_666
N0 Nd0 2.371386 1_555
N0 Nd1 2.657348 1_555
N0 Nd1 2.657348 1_655
N0 Nd1 2.657348 1_565
N0 Nd1 2.657348 1_665
