# generated using pymatgen
data_Cd2SiO4
_symmetry_space_group_name_H-M   'P 1'
_cell_length_a   6.23562539
_cell_length_b   6.23562539
_cell_length_c   6.23562539
_cell_angle_alpha   60.00000000
_cell_angle_beta   60.00000000
_cell_angle_gamma   60.00000000
_symmetry_Int_Tables_number   1
_chemical_formula_structural   Cd2SiO4
_chemical_formula_sum   'Cd4 Si2 O8'
_cell_volume   171.44509038
_cell_formula_units_Z   2
loop_
 _symmetry_equiv_pos_site_id
 _symmetry_equiv_pos_as_xyz
  1  'x, y, z'
loop_
 _atom_site_type_symbol
 _atom_site_label
 _atom_site_symmetry_multiplicity
 _atom_site_fract_x
 _atom_site_fract_y
 _atom_site_fract_z
 _atom_site_occupancy
  Cd  Cd0  1  0.62500000  0.62500000  0.12500000  1
  Cd  Cd1  1  0.62500000  0.12500000  0.62500000  1
  Cd  Cd2  1  0.62500000  0.62500000  0.62500000  1
  Cd  Cd3  1  0.12500000  0.62500000  0.62500000  1
  Si  Si0  1  0.00000000  0.00000000  0.00000000  1
  Si  Si1  1  0.25000000  0.25000000  0.25000000  1
  O  O0  1  0.89012400  0.89012400  0.32962900  1
  O  O1  1  0.92037100  0.35987600  0.35987600  1
  O  O2  1  0.35987600  0.35987600  0.92037100  1
  O  O3  1  0.89012400  0.89012400  0.89012400  1
  O  O4  1  0.35987600  0.92037100  0.35987600  1
  O  O5  1  0.32962900  0.89012400  0.89012400  1
  O  O6  1  0.35987600  0.35987600  0.35987600  1
  O  O7  1  0.89012400  0.32962900  0.89012400  1
loop_
_geom_bond_atom_site_label_1
_geom_bond_atom_site_label_2
_geom_bond_distance
_geom_bond_site_symmetry_2
Cd0 O5 2.345589 1_554
Cd0 O7 2.345589 1_554
Cd0 O1 2.345589 1_555
Cd0 O4 2.345589 1_555
Cd0 O6 2.345593 1_555
Cd0 O3 2.345593 1_554
Cd1 O5 2.345589 1_545
Cd1 O0 2.345589 1_545
Cd1 O1 2.345589 1_555
Cd1 O2 2.345589 1_555
Cd1 O3 2.345593 1_545
Cd1 O6 2.345593 1_555
Cd2 O0 2.345593 1_555
Cd2 O1 2.345593 1_555
Cd2 O5 2.345593 1_555
Cd2 O2 2.345593 1_555
Cd2 O7 2.345593 1_555
Cd2 O4 2.345593 1_555
Cd3 O0 2.345589 1_455
Cd3 O7 2.345589 1_455
Cd3 O4 2.345589 1_555
Cd3 O2 2.345589 1_555
Cd3 O3 2.345593 1_455
Cd3 O6 2.345593 1_555
O0 Si0 1.678262 1_665
O1 Si1 1.678262 1_655
O2 Si1 1.678262 1_556
O3 Si0 1.678257 1_666
O4 Si1 1.678262 1_565
O5 Si0 1.678262 1_566
O6 Si1 1.678257 1_555
O7 Si0 1.678262 1_656
