# generated using pymatgen
data_K2NbS7
_symmetry_space_group_name_H-M   'P 1'
_cell_length_a   8.02238700
_cell_length_b   12.79974400
_cell_length_c   22.16107920
_cell_angle_alpha   80.47755785
_cell_angle_beta   90.00000000
_cell_angle_gamma   90.00000000
_symmetry_Int_Tables_number   1
_chemical_formula_structural   K2NbS7
_chemical_formula_sum   'K16 Nb8 S56'
_cell_volume   2244.24357479
_cell_formula_units_Z   8
loop_
 _symmetry_equiv_pos_site_id
 _symmetry_equiv_pos_as_xyz
  1  'x, y, z'
loop_
 _atom_site_type_symbol
 _atom_site_label
 _atom_site_symmetry_multiplicity
 _atom_site_fract_x
 _atom_site_fract_y
 _atom_site_fract_z
 _atom_site_occupancy
  K  K0  1  0.55738200  0.66013700  0.55540900  1
  K  K1  1  0.05738200  0.83986300  0.44459100  1
  K  K2  1  0.92662800  0.98792900  0.16294200  1
  K  K3  1  0.07337200  0.01207100  0.83705800  1
  K  K4  1  0.52390600  0.06879700  0.30576500  1
  K  K5  1  0.35795900  0.14013800  0.97438200  1
  K  K6  1  0.85795900  0.35986200  0.02561800  1
  K  K7  1  0.44261800  0.33986300  0.44459100  1
  K  K8  1  0.57337200  0.48792900  0.16294200  1
  K  K9  1  0.94261800  0.16013700  0.55540900  1
  K  K10  1  0.64204100  0.85986200  0.02561800  1
  K  K11  1  0.02390600  0.43120300  0.69423500  1
  K  K12  1  0.14204100  0.64013800  0.97438200  1
  K  K13  1  0.42662800  0.51207100  0.83705800  1
  K  K14  1  0.47609400  0.93120300  0.69423500  1
  K  K15  1  0.97609400  0.56879700  0.30576500  1
  Nb  Nb0  1  0.45837100  0.81461400  0.21261900  1
  Nb  Nb1  1  0.54162900  0.18538600  0.78738100  1
  Nb  Nb2  1  0.97891500  0.83438900  0.63160200  1
  Nb  Nb3  1  0.02108500  0.16561100  0.36839800  1
  Nb  Nb4  1  0.04162900  0.31461400  0.21261900  1
  Nb  Nb5  1  0.47891500  0.66561100  0.36839800  1
  Nb  Nb6  1  0.52108500  0.33438900  0.63160200  1
  Nb  Nb7  1  0.95837100  0.68538600  0.78738100  1
  S  S0  1  0.61344400  0.81175600  0.41137400  1
  S  S1  1  0.27476900  0.27155200  0.80830600  1
  S  S2  1  0.72523100  0.72844800  0.19169400  1
  S  S3  1  0.86497400  0.24525000  0.90503800  1
  S  S4  1  0.28650200  0.60149500  0.43802200  1
  S  S5  1  0.12004800  0.89921300  0.03726900  1
  S  S6  1  0.38655600  0.18824400  0.58862600  1
  S  S7  1  0.26596000  0.89624800  0.96111200  1
  S  S8  1  0.88674800  0.90371000  0.72280100  1
  S  S9  1  0.63502600  0.74525000  0.90503800  1
  S  S10  1  0.11344400  0.68824400  0.58862600  1
  S  S11  1  0.68307000  0.17101000  0.68595500  1
  S  S12  1  0.75714900  0.16860500  0.42786400  1
  S  S13  1  0.71349800  0.39850500  0.56197800  1
  S  S14  1  0.21349800  0.10149500  0.43802200  1
  S  S15  1  0.21094100  0.71748600  0.72458100  1
  S  S16  1  0.78905900  0.28251400  0.27541900  1
  S  S17  1  0.76596000  0.60375200  0.03888800  1
  S  S18  1  0.87995200  0.10078700  0.96273100  1
  S  S19  1  0.83696700  0.20969500  0.75471800  1
  S  S20  1  0.25714900  0.33139500  0.57213600  1
  S  S21  1  0.31693000  0.82899000  0.31404500  1
  S  S22  1  0.02204400  0.48369300  0.17001200  1
  S  S23  1  0.62004800  0.60078700  0.96273100  1
  S  S24  1  0.23404000  0.39624800  0.96111200  1
  S  S25  1  0.28905900  0.21748600  0.72458100  1
  S  S26  1  0.37995200  0.39921300  0.03726900  1
  S  S27  1  0.61325200  0.40371000  0.72280100  1
  S  S28  1  0.16303300  0.79030500  0.24528200  1
  S  S29  1  0.18307000  0.32899000  0.31404500  1
  S  S30  1  0.97795600  0.51630700  0.82998800  1
  S  S31  1  0.13502600  0.75475000  0.09496200  1
  S  S32  1  0.38179000  0.72680000  0.12348300  1
  S  S33  1  0.38674800  0.59629000  0.27719900  1
  S  S34  1  0.52204400  0.01630700  0.82998800  1
  S  S35  1  0.07885200  0.98919100  0.67399200  1
  S  S36  1  0.74285100  0.66860500  0.42786400  1
  S  S37  1  0.47795600  0.98369300  0.17001200  1
  S  S38  1  0.81693000  0.67101000  0.68595500  1
  S  S39  1  0.92114800  0.01080900  0.32600800  1
  S  S40  1  0.33696700  0.29030500  0.24528200  1
  S  S41  1  0.66303300  0.70969500  0.75471800  1
  S  S42  1  0.11821000  0.22680000  0.12348300  1
  S  S43  1  0.88655600  0.31175600  0.41137400  1
  S  S44  1  0.24285100  0.83139500  0.57213600  1
  S  S45  1  0.57885200  0.51080900  0.32600800  1
  S  S46  1  0.61821000  0.27320000  0.87651700  1
  S  S47  1  0.36497400  0.25475000  0.09496200  1
  S  S48  1  0.77476900  0.22844800  0.19169400  1
  S  S49  1  0.42114800  0.48919100  0.67399200  1
  S  S50  1  0.88179000  0.77320000  0.87651700  1
  S  S51  1  0.22523100  0.77155200  0.80830600  1
  S  S52  1  0.11325200  0.09629000  0.27719900  1
  S  S53  1  0.71094100  0.78251400  0.27541900  1
  S  S54  1  0.78650200  0.89850500  0.56197800  1
  S  S55  1  0.73404000  0.10375200  0.03888800  1
loop_
_geom_bond_atom_site_label_1
_geom_bond_atom_site_label_2
_geom_bond_distance
_geom_bond_site_symmetry_2
K0 S36 3.180179 1_555
K0 S49 3.314452 1_555
K0 S44 3.402701 1_555
K0 S0 3.479600 1_555
K0 S13 3.555709 1_555
K0 S4 3.563601 1_555
K0 S54 3.585474 1_555
K0 S38 3.585778 1_555
K0 S10 3.666443 1_555
K1 S44 3.180179 1_555
K1 S39 3.314452 1_465
K1 S36 3.402701 1_455
K1 S10 3.479600 1_555
K1 S14 3.555709 1_565
K1 S54 3.563601 1_455
K1 S4 3.585474 1_555
K1 S21 3.585778 1_555
K1 S0 3.666443 1_455
K2 S55 3.285472 1_565
K2 S42 3.404480 1_665
K2 S52 3.426161 1_665
K2 S28 3.434803 1_655
K2 S48 3.466536 1_565
K2 S5 3.535545 1_655
K2 S37 3.602847 1_555
K2 S2 3.653382 1_555
K2 S39 3.673802 1_565
K2 S53 3.735201 1_555
K3 S7 3.285472 1_545
K3 S50 3.404480 1_445
K3 S8 3.426161 1_445
K3 S19 3.434803 1_455
K3 S51 3.466536 1_545
K3 S18 3.535545 1_455
K3 S34 3.602847 1_555
K3 S1 3.653382 1_555
K3 S35 3.673802 1_545
K3 S25 3.735201 1_555
K4 S39 3.286011 1_555
K4 S40 3.290427 1_555
K4 S52 3.362160 1_555
K4 S37 3.384884 1_545
K4 S16 3.442597 1_555
K4 S21 3.467855 1_545
K4 S48 3.592681 1_555
K4 S12 3.687634 1_555
K4 S0 3.777600 1_545
K5 S47 3.254668 1_556
K5 S7 3.268049 1_545
K5 S46 3.277394 1_555
K5 S55 3.338091 1_556
K5 S24 3.391463 1_555
K6 S3 3.254668 1_554
K6 S17 3.268049 1_555
K6 S42 3.277394 1_655
K6 S24 3.338091 1_654
K6 S55 3.391463 1_555
K7 S20 3.180179 1_555
K7 S45 3.314452 1_555
K7 S12 3.402701 1_555
K7 S6 3.479600 1_555
K7 S4 3.555709 1_555
K7 S13 3.563601 1_555
K7 S14 3.585474 1_555
K7 S29 3.585778 1_555
K7 S43 3.666443 1_555
K8 S17 3.285472 1_555
K8 S32 3.404480 1_555
K8 S33 3.426161 1_555
K8 S40 3.434803 1_555
K8 S2 3.466536 1_555
K8 S26 3.535545 1_555
K8 S22 3.602847 1_655
K8 S48 3.653382 1_555
K8 S45 3.673802 1_555
K8 S16 3.735201 1_555
K9 S12 3.180179 1_555
K9 S35 3.314452 1_645
K9 S20 3.402701 1_655
K9 S43 3.479600 1_555
K9 S54 3.555709 1_545
K9 S14 3.563601 1_655
K9 S13 3.585474 1_555
K9 S11 3.585778 1_555
K9 S6 3.666443 1_655
K10 S9 3.254668 1_554
K10 S55 3.268049 1_565
K10 S32 3.277394 1_555
K10 S7 3.338091 1_554
K10 S17 3.391463 1_555
K11 S49 3.286011 1_555
K11 S19 3.290427 1_455
K11 S27 3.362160 1_455
K11 S30 3.384884 1_455
K11 S25 3.442597 1_555
K11 S38 3.467855 1_455
K11 S1 3.592681 1_555
K11 S20 3.687634 1_555
K11 S10 3.777600 1_555
K12 S31 3.254668 1_556
K12 S24 3.268049 1_555
K12 S50 3.277394 1_455
K12 S17 3.338091 1_456
K12 S7 3.391463 1_555
K13 S24 3.285472 1_555
K13 S46 3.404480 1_555
K13 S27 3.426161 1_555
K13 S41 3.434803 1_555
K13 S1 3.466536 1_555
K13 S23 3.535545 1_555
K13 S30 3.602847 1_455
K13 S51 3.653382 1_555
K13 S49 3.673802 1_555
K13 S15 3.735201 1_555
K14 S35 3.286011 1_555
K14 S41 3.290427 1_555
K14 S8 3.362160 1_555
K14 S34 3.384884 1_565
K14 S15 3.442597 1_555
K14 S11 3.467855 1_565
K14 S51 3.592681 1_555
K14 S44 3.687634 1_555
K14 S6 3.777600 1_565
K15 S45 3.286011 1_555
K15 S28 3.290427 1_655
K15 S33 3.362160 1_655
K15 S22 3.384884 1_655
K15 S53 3.442597 1_555
K15 S29 3.467855 1_655
K15 S2 3.592681 1_555
K15 S36 3.687634 1_555
K15 S43 3.777600 1_555
Nb0 S37 2.218951 1_555
Nb0 S53 2.453984 1_555
Nb0 S28 2.481916 1_555
Nb0 S2 2.486746 1_555
Nb0 S32 2.505482 1_555
Nb0 S21 2.551556 1_555
Nb0 S33 2.977297 1_555
Nb1 S34 2.218951 1_555
Nb1 S25 2.453984 1_555
Nb1 S19 2.481916 1_555
Nb1 S1 2.486746 1_555
Nb1 S46 2.505482 1_555
Nb1 S11 2.551556 1_555
Nb1 S27 2.977297 1_555
Nb2 S54 2.240077 1_555
Nb2 S8 2.451948 1_555
Nb2 S35 2.463165 1_655
Nb2 S10 2.482035 1_655
Nb2 S44 2.497644 1_655
Nb2 S38 2.584438 1_555
Nb2 S15 2.988211 1_655
Nb3 S14 2.240077 1_555
Nb3 S52 2.451948 1_555
Nb3 S39 2.463165 1_455
Nb3 S43 2.482035 1_455
Nb3 S12 2.497644 1_455
Nb3 S29 2.584438 1_555
Nb3 S16 2.988211 1_455
Nb4 S22 2.218951 1_555
Nb4 S16 2.453984 1_455
Nb4 S40 2.481916 1_555
Nb4 S48 2.486746 1_455
Nb4 S42 2.505482 1_555
Nb4 S29 2.551556 1_555
Nb4 S52 2.977297 1_555
Nb5 S4 2.240077 1_555
Nb5 S33 2.451948 1_555
Nb5 S45 2.463165 1_555
Nb5 S0 2.482035 1_555
Nb5 S36 2.497644 1_555
Nb5 S21 2.584438 1_555
Nb5 S53 2.988211 1_555
Nb6 S13 2.240077 1_555
Nb6 S27 2.451948 1_555
Nb6 S49 2.463165 1_555
Nb6 S6 2.482035 1_555
Nb6 S20 2.497644 1_555
Nb6 S11 2.584438 1_555
Nb6 S25 2.988211 1_555
Nb7 S30 2.218951 1_555
Nb7 S15 2.453984 1_655
Nb7 S41 2.481916 1_555
Nb7 S51 2.486746 1_655
Nb7 S50 2.505482 1_555
Nb7 S38 2.551556 1_555
Nb7 S8 2.977297 1_555
S0 S36 2.084963 1_555
S1 S25 2.087950 1_555
S2 S53 2.087950 1_555
S3 S46 2.090843 1_555
S5 S7 2.059430 1_554
S10 S44 2.084963 1_555
S11 S19 2.083575 1_555
S12 S43 2.084963 1_555
S15 S51 2.087950 1_555
S16 S48 2.087950 1_555
S17 S23 2.059430 1_554
S18 S55 2.059430 1_556
S18 S3 2.070270 1_555
S20 S6 2.084963 1_555
S21 S28 2.083575 1_555
S23 S9 2.070270 1_555
S24 S26 2.059430 1_556
S26 S47 2.070270 1_555
S27 S49 2.085817 1_555
S29 S40 2.083575 1_555
S31 S5 2.070270 1_555
S31 S32 2.090843 1_555
S33 S45 2.085817 1_555
S35 S8 2.085817 1_455
S38 S41 2.083575 1_555
S39 S52 2.085817 1_655
S42 S47 2.090843 1_555
S50 S9 2.090843 1_555
