# generated using pymatgen
data_RbAuCl4
_symmetry_space_group_name_H-M   'P 1'
_cell_length_a   5.88056476
_cell_length_b   6.90008214
_cell_length_c   9.92933226
_cell_angle_alpha   100.86018339
_cell_angle_beta   90.00000000
_cell_angle_gamma   115.22175883
_symmetry_Int_Tables_number   1
_chemical_formula_structural   RbAuCl4
_chemical_formula_sum   'Rb2 Au2 Cl8'
_cell_volume   356.49380562
_cell_formula_units_Z   2
loop_
 _symmetry_equiv_pos_site_id
 _symmetry_equiv_pos_as_xyz
  1  'x, y, z'
loop_
 _atom_site_type_symbol
 _atom_site_label
 _atom_site_symmetry_multiplicity
 _atom_site_fract_x
 _atom_site_fract_y
 _atom_site_fract_z
 _atom_site_occupancy
  Rb  Rb0  1  0.72698315  0.50000000  0.25000000  1
  Rb  Rb1  1  0.27301685  0.50000000  0.75000000  1
  Au  Au0  1  -0.00000000  -0.00000000  -0.00000000  1
  Au  Au1  1  0.50000000  -0.00000000  0.50000000  1
  Cl  Cl0  1  0.83032615  0.62593651  0.93037158  1
  Cl  Cl1  1  0.31245273  0.03761127  0.85255174  1
  Cl  Cl2  1  0.70438864  0.37406349  0.56962842  1
  Cl  Cl3  1  0.16967385  0.37406349  0.06962842  1
  Cl  Cl4  1  0.68754727  0.96238873  0.14744826  1
  Cl  Cl5  1  0.77484146  0.96238873  0.64744826  1
  Cl  Cl6  1  0.22515854  0.03761127  0.35255174  1
  Cl  Cl7  1  0.29561136  0.62593651  0.43037158  1
loop_
_geom_bond_atom_site_label_1
_geom_bond_atom_site_label_2
_geom_bond_distance
_geom_bond_site_symmetry_2
Au0 Cl0 2.295259 1_444
Au0 Cl3 2.295259 1_555
Au0 Cl4 2.307304 1_445
Au0 Cl1 2.307304 1_554
Au1 Cl7 2.295259 1_545
Au1 Cl2 2.295259 1_555
Au1 Cl5 2.307304 1_545
Au1 Cl6 2.307304 1_555
Cl0 Rb1 3.419033 1_555
Cl0 Rb0 3.433068 1_556
Cl0 Rb1 3.475799 1_655
Cl1 Rb1 3.562997 1_545
Cl1 Rb1 3.622828 1_555
Cl2 Rb1 3.419029 1_555
Cl2 Rb0 3.433067 1_555
Cl2 Rb1 3.475803 1_655
Cl3 Rb0 3.419033 1_555
Cl3 Rb1 3.433068 1_554
Cl3 Rb0 3.475799 1_455
Cl4 Rb0 3.562997 1_565
Cl4 Rb0 3.622828 1_555
Cl5 Rb1 3.562997 1_665
Cl5 Rb1 3.622828 1_555
Cl6 Rb0 3.562997 1_445
Cl6 Rb0 3.622828 1_555
Cl7 Rb0 3.419029 1_555
Cl7 Rb1 3.433067 1_555
Cl7 Rb0 3.475803 1_455
