# generated using pymatgen
data_Rb3Mn2Cl7
_symmetry_space_group_name_H-M   'P 1'
_cell_length_a   18.06763716
_cell_length_b   18.06763716
_cell_length_c   18.06763716
_cell_angle_alpha   164.57474995
_cell_angle_beta   164.57474995
_cell_angle_gamma   21.88151171
_symmetry_Int_Tables_number   1
_chemical_formula_structural   Rb3Mn2Cl7
_chemical_formula_sum   'Rb3 Mn2 Cl7'
_cell_volume   417.18831546
_cell_formula_units_Z   1
loop_
 _symmetry_equiv_pos_site_id
 _symmetry_equiv_pos_as_xyz
  1  'x, y, z'
loop_
 _atom_site_type_symbol
 _atom_site_label
 _atom_site_symmetry_multiplicity
 _atom_site_fract_x
 _atom_site_fract_y
 _atom_site_fract_z
 _atom_site_occupancy
  Rb  Rb0  1  0.17692000  0.17692000  0.00000000  1
  Rb  Rb1  1  0.82308000  0.82308000  0.00000000  1
  Rb  Rb2  1  0.50000000  0.50000000  0.00000000  1
  Mn  Mn0  1  0.37639600  0.37639600  0.00000000  1
  Mn  Mn1  1  0.62360400  0.62360400  0.00000000  1
  Cl  Cl0  1  0.69195100  0.69195100  0.00000000  1
  Cl  Cl1  1  0.60997000  0.10997000  0.50000000  1
  Cl  Cl2  1  0.89003000  0.39003000  0.50000000  1
  Cl  Cl3  1  0.39003000  0.89003000  0.50000000  1
  Cl  Cl4  1  0.30804900  0.30804900  0.00000000  1
  Cl  Cl5  1  0.00000000  0.00000000  0.00000000  1
  Cl  Cl6  1  0.10997000  0.60997000  0.50000000  1
loop_
_geom_bond_atom_site_label_1
_geom_bond_atom_site_label_2
_geom_bond_distance
_geom_bond_site_symmetry_2
Cl0 Mn1 2.424848 1_555
Cl0 Rb0 3.470345 1_666
Cl0 Rb0 3.470345 1_565
Cl0 Rb0 3.470345 1_655
Cl0 Rb0 3.470345 1_554
Cl1 Mn1 2.472536 1_545
Cl1 Mn1 2.472536 1_556
Cl1 Rb0 3.394323 1_555
Cl1 Rb0 3.394323 1_656
Cl2 Mn0 2.472536 1_555
Cl2 Mn0 2.472536 1_656
Cl2 Rb1 3.394323 1_556
Cl2 Rb1 3.394323 1_545
Cl3 Mn0 2.472536 1_555
Cl3 Mn0 2.472536 1_566
Cl3 Rb1 3.394323 1_556
Cl3 Rb1 3.394323 1_455
Cl4 Mn0 2.424848 1_555
Cl4 Rb1 3.470345 1_455
Cl4 Rb1 3.470345 1_556
Cl4 Rb1 3.470345 1_545
Cl4 Rb1 3.470345 1_444
Cl5 Rb2 3.429127 1_455
Cl5 Rb2 3.429127 1_556
Cl5 Rb2 3.429127 1_545
Cl5 Rb2 3.429127 1_444
Cl6 Mn1 2.472536 1_556
Cl6 Mn1 2.472536 1_455
Cl6 Rb0 3.394323 1_555
Cl6 Rb0 3.394323 1_566
