# generated using pymatgen
data_Ba(GaPt)2
_symmetry_space_group_name_H-M   'P 1'
_cell_length_a   6.67144926
_cell_length_b   8.21917164
_cell_length_c   8.44832125
_cell_angle_alpha   84.34962270
_cell_angle_beta   90.00000000
_cell_angle_gamma   90.00000000
_symmetry_Int_Tables_number   1
_chemical_formula_structural   Ba(GaPt)2
_chemical_formula_sum   'Ba4 Ga8 Pt8'
_cell_volume   461.00259539
_cell_formula_units_Z   4
loop_
 _symmetry_equiv_pos_site_id
 _symmetry_equiv_pos_as_xyz
  1  'x, y, z'
loop_
 _atom_site_type_symbol
 _atom_site_label
 _atom_site_symmetry_multiplicity
 _atom_site_fract_x
 _atom_site_fract_y
 _atom_site_fract_z
 _atom_site_occupancy
  Ba  Ba0  1  0.88904867  0.50085974  0.76577554  1
  Ba  Ba1  1  0.38904867  0.99914026  0.23422446  1
  Ba  Ba2  1  0.61095133  0.00085974  0.76577554  1
  Ba  Ba3  1  0.11095133  0.49914026  0.23422446  1
  Ga  Ga0  1  0.84621965  0.80947127  0.44058697  1
  Ga  Ga1  1  0.07598504  0.87471230  0.92562102  1
  Ga  Ga2  1  0.65378035  0.30947127  0.44058697  1
  Ga  Ga3  1  0.15378035  0.19052873  0.55941303  1
  Ga  Ga4  1  0.57598504  0.62528770  0.07437898  1
  Ga  Ga5  1  0.92401496  0.12528770  0.07437898  1
  Ga  Ga6  1  0.34621965  0.69052873  0.55941303  1
  Ga  Ga7  1  0.42401496  0.37471230  0.92562102  1
  Pt  Pt0  1  0.90111653  0.10714942  0.37409449  1
  Pt  Pt1  1  0.09888347  0.89285058  0.62590551  1
  Pt  Pt2  1  0.17171007  0.17516124  0.85667107  1
  Pt  Pt3  1  0.40111653  0.39285058  0.62590551  1
  Pt  Pt4  1  0.32828993  0.67516124  0.85667107  1
  Pt  Pt5  1  0.82828993  0.82483876  0.14332893  1
  Pt  Pt6  1  0.67171007  0.32483876  0.14332893  1
  Pt  Pt7  1  0.59888347  0.60714942  0.37409449  1
loop_
_geom_bond_atom_site_label_1
_geom_bond_atom_site_label_2
_geom_bond_distance
_geom_bond_site_symmetry_2
Ba0 Pt2 3.302600 1_655
Ba0 Pt4 3.383166 1_655
Ba0 Ga7 3.499734 1_555
Ba0 Ga0 3.562450 1_555
Ba0 Ga4 3.567989 1_556
Ba0 Pt1 3.603697 1_655
Ba0 Pt3 3.603806 1_555
Ba0 Ga2 3.651949 1_555
Ba0 Pt6 3.668910 1_556
Ba0 Ga3 3.679716 1_655
Ba0 Ga1 3.692960 1_655
Ba0 Pt3 3.749888 1_655
Ba0 Ga6 3.773196 1_655
Ba0 Ga5 3.846545 1_556
Ba0 Pt7 3.858906 1_555
Ba0 Ba3 4.224152 1_656
Ba1 Pt6 3.302600 1_565
Ba1 Pt5 3.383166 1_555
Ba1 Ga5 3.499734 1_465
Ba1 Ga6 3.562450 1_555
Ba1 Ga1 3.567989 1_554
Ba1 Pt7 3.603697 1_555
Ba1 Pt0 3.603806 1_465
Ba1 Ga3 3.651949 1_565
Ba1 Pt2 3.668910 1_564
Ba1 Ga2 3.679716 1_565
Ba1 Ga4 3.692960 1_555
Ba1 Pt0 3.749888 1_565
Ba1 Ga0 3.773196 1_555
Ba1 Ga7 3.846545 1_564
Ba1 Pt1 3.858906 1_555
Ba1 Ba2 4.224152 1_564
Ba2 Pt4 3.302600 1_545
Ba2 Pt2 3.383166 1_555
Ba2 Ga1 3.499734 1_645
Ba2 Ga2 3.562450 1_555
Ba2 Ga5 3.567989 1_556
Ba2 Pt3 3.603697 1_555
Ba2 Pt1 3.603806 1_645
Ba2 Ga0 3.651949 1_545
Ba2 Pt5 3.668910 1_546
Ba2 Ga6 3.679716 1_545
Ba2 Ga7 3.692960 1_555
Ba2 Pt1 3.749888 1_545
Ba2 Ga3 3.773196 1_555
Ba2 Ga4 3.846545 1_546
Ba2 Pt0 3.858906 1_555
Ba3 Pt5 3.302600 1_455
Ba3 Pt6 3.383166 1_455
Ba3 Ga4 3.499734 1_555
Ba3 Ga3 3.562450 1_555
Ba3 Ga7 3.567989 1_554
Ba3 Pt0 3.603697 1_455
Ba3 Pt7 3.603806 1_555
Ba3 Ga6 3.651949 1_555
Ba3 Pt4 3.668910 1_554
Ba3 Ga0 3.679716 1_455
Ba3 Ga5 3.692960 1_455
Ba3 Pt7 3.749888 1_455
Ba3 Ga2 3.773196 1_455
Ba3 Ga1 3.846545 1_554
Ba3 Pt3 3.858906 1_555
Ga0 Pt1 2.444072 1_655
Ga0 Pt7 2.446959 1_555
Ga0 Pt0 2.482989 1_565
Ga0 Pt5 2.504912 1_555
Ga1 Pt4 2.459842 1_555
Ga1 Pt5 2.476525 1_456
Ga1 Pt1 2.526405 1_555
Ga1 Pt2 2.561648 1_565
Ga1 Ga5 2.712685 1_466
Ga2 Pt3 2.444072 1_555
Ga2 Pt0 2.446959 1_555
Ga2 Pt7 2.482989 1_555
Ga2 Pt6 2.504912 1_555
Ga3 Pt0 2.444072 1_455
Ga3 Pt3 2.446959 1_555
Ga3 Pt1 2.482989 1_545
Ga3 Pt2 2.504912 1_555
Ga4 Pt5 2.459842 1_555
Ga4 Pt4 2.476525 1_554
Ga4 Pt7 2.526405 1_555
Ga4 Pt6 2.561648 1_555
Ga4 Ga7 2.712685 1_554
Ga5 Pt6 2.459842 1_555
Ga5 Pt2 2.476525 1_654
Ga5 Pt0 2.526405 1_555
Ga5 Pt5 2.561648 1_545
Ga6 Pt7 2.444072 1_555
Ga6 Pt1 2.446959 1_555
Ga6 Pt3 2.482989 1_555
Ga6 Pt4 2.504912 1_555
Ga7 Pt2 2.459842 1_555
Ga7 Pt6 2.476525 1_556
Ga7 Pt3 2.526405 1_555
Ga7 Pt4 2.561648 1_555
