# generated using pymatgen
data_La10Os2I15
_symmetry_space_group_name_H-M   'P 1'
_cell_length_a   10.09928374
_cell_length_b   11.21275021
_cell_length_c   11.95051541
_cell_angle_alpha   91.46885876
_cell_angle_beta   114.14866486
_cell_angle_gamma   110.44296496
_symmetry_Int_Tables_number   1
_chemical_formula_structural   La10Os2I15
_chemical_formula_sum   'La10 Os2 I15'
_cell_volume   1134.38650782
_cell_formula_units_Z   1
loop_
 _symmetry_equiv_pos_site_id
 _symmetry_equiv_pos_as_xyz
  1  'x, y, z'
loop_
 _atom_site_type_symbol
 _atom_site_label
 _atom_site_symmetry_multiplicity
 _atom_site_fract_x
 _atom_site_fract_y
 _atom_site_fract_z
 _atom_site_occupancy
  La  La0  1  0.22435629  0.58303971  0.05339983  1
  La  La1  1  0.77564371  0.41696029  0.94660017  1
  La  La2  1  0.30201307  0.90801565  0.27650077  1
  La  La3  1  0.69798693  0.09198435  0.72349923  1
  La  La4  1  0.08726449  0.54772902  0.33012843  1
  La  La5  1  0.91273551  0.45227098  0.66987157  1
  La  La6  1  0.83521887  0.74943987  0.17800791  1
  La  La7  1  0.16478113  0.25056013  0.82199209  1
  La  La8  1  0.97659758  0.79556120  0.90670046  1
  La  La9  1  0.02340242  0.20443880  0.09329954  1
  Os  Os0  1  0.03368881  0.67724624  0.12196090  1
  Os  Os1  1  0.96631119  0.32275376  0.87803910  1
  I  I0  1  0.34042979  0.44289570  0.29958426  1
  I  I1  1  0.65957021  0.55710430  0.70041574  1
  I  I2  1  0.21080661  0.73714333  0.81455237  1
  I  I3  1  0.78919339  0.26285667  0.18544763  1
  I  I4  1  0.14583857  0.38523654  0.58036975  1
  I  I5  1  0.85416143  0.61476346  0.41963025  1
  I  I6  1  0.39065575  0.79948301  0.53443804  1
  I  I7  1  0.60934425  0.20051699  0.46556196  1
  I  I8  1  0.26930622  0.08916327  0.05531460  1
  I  I9  1  0.73069378  0.91083673  0.94468540  1
  I  I10  1  0.56682912  0.84587803  0.22787123  1
  I  I11  1  0.43317088  0.15412197  0.77212877  1
  I  I12  1  0.09133821  0.03905593  0.33988187  1
  I  I13  1  0.90866179  0.96094407  0.66011813  1
  I  I14  1  0.50000000  0.50000000  0.00000000  1
loop_
_geom_bond_atom_site_label_1
_geom_bond_atom_site_label_2
_geom_bond_distance
_geom_bond_site_symmetry_2
La0 Os0 2.857008 1_555
La0 Os1 3.099338 1_454
La1 Os1 2.857008 1_555
La1 Os0 3.099338 1_656
La2 Os0 2.865590 1_555
La3 Os1 2.865590 1_555
La4 Os0 2.867621 1_555
La5 Os1 2.867621 1_555
La6 Os0 2.706591 1_655
La7 Os1 2.706591 1_455
La8 Os0 2.864562 1_656
La9 Os1 2.864562 1_454
I0 La9 3.271286 1_555
I0 La4 3.300484 1_555
I0 La0 3.346785 1_555
I1 La8 3.271286 1_555
I1 La5 3.300484 1_555
I1 La1 3.346785 1_555
I2 La8 3.226942 1_455
I2 La5 3.315964 1_455
I2 La0 3.354133 1_556
I3 La9 3.226942 1_655
I3 La4 3.315964 1_655
I3 La1 3.354133 1_554
I4 La5 3.241335 1_455
I4 La7 3.260072 1_555
I4 La4 3.492495 1_555
I5 La4 3.241335 1_655
I5 La6 3.260072 1_555
I5 La5 3.492495 1_555
I6 La2 3.237217 1_555
I6 La4 3.286601 1_555
I6 La3 3.502342 1_565
I7 La3 3.237217 1_555
I7 La5 3.286601 1_555
I7 La2 3.502342 1_545
I8 La9 3.343495 1_555
I8 La2 3.354286 1_545
I8 La8 3.367072 1_444
I8 La7 3.368822 1_554
I9 La8 3.343495 1_555
I9 La3 3.354286 1_565
I9 La9 3.367072 1_666
I9 La6 3.368822 1_556
I10 La2 3.244762 1_555
I10 La0 3.414618 1_555
I10 La6 3.493912 1_555
I11 La3 3.244762 1_555
I11 La1 3.414618 1_555
I11 La7 3.493912 1_555
I12 La6 3.270247 1_445
I12 La2 3.271842 1_545
I12 La9 3.479617 1_555
I13 La7 3.270247 1_665
I13 La3 3.271842 1_565
I13 La8 3.479617 1_555
I14 La7 3.316219 1_554
I14 La6 3.316219 1_555
I14 La1 3.501071 1_554
I14 La0 3.501071 1_555
