# generated using pymatgen
data_La4As3
_symmetry_space_group_name_H-M   'P 1'
_cell_length_a   7.98143851
_cell_length_b   7.98143932
_cell_length_c   7.98143947
_cell_angle_alpha   109.47122756
_cell_angle_beta   109.47121507
_cell_angle_gamma   109.47121120
_symmetry_Int_Tables_number   1
_chemical_formula_structural   La4As3
_chemical_formula_sum   'La8 As6'
_cell_volume   391.40085042
_cell_formula_units_Z   2
loop_
 _symmetry_equiv_pos_site_id
 _symmetry_equiv_pos_as_xyz
  1  'x, y, z'
loop_
 _atom_site_type_symbol
 _atom_site_label
 _atom_site_symmetry_multiplicity
 _atom_site_fract_x
 _atom_site_fract_y
 _atom_site_fract_z
 _atom_site_occupancy
  La  La0  1  -0.00000000  0.36507899  0.50000000  1
  La  La1  1  0.50000000  0.00000000  0.36507899  1
  La  La2  1  0.86507899  0.50000000  -0.00000000  1
  La  La3  1  0.13492101  0.13492101  0.13492101  1
  La  La4  1  0.50000000  0.00000000  0.86507899  1
  La  La5  1  0.63492101  0.63492101  0.63492101  1
  La  La6  1  -0.00000000  0.86507899  0.50000000  1
  La  La7  1  0.36507899  0.50000000  -0.00000000  1
  As  As0  1  0.75000000  0.87500000  0.12500000  1
  As  As1  1  0.87500000  0.12500000  0.75000000  1
  As  As2  1  0.62500000  0.37500000  0.25000000  1
  As  As3  1  0.25000000  0.62500000  0.37500000  1
  As  As4  1  0.12500000  0.75000000  0.87500000  1
  As  As5  1  0.37500000  0.25000000  0.62500000  1
loop_
_geom_bond_atom_site_label_1
_geom_bond_atom_site_label_2
_geom_bond_distance
_geom_bond_site_symmetry_2
As0 La4 3.037744 1_564
As0 La3 3.037744 1_665
As0 La6 3.037745 1_655
As0 La7 3.037745 1_555
As0 La1 3.354131 1_565
As0 La2 3.354131 1_555
As0 La5 3.354131 1_554
As0 La0 3.354131 1_665
As1 La6 3.037744 1_645
As1 La2 3.037744 1_556
As1 La3 3.037745 1_656
As1 La1 3.037745 1_555
As1 La4 3.354131 1_555
As1 La0 3.354131 1_655
As1 La5 3.354132 1_545
As1 La7 3.354132 1_656
As2 La5 3.037744 1_555
As2 La0 3.037744 1_655
As2 La4 3.037744 1_554
As2 La7 3.037744 1_555
As2 La2 3.354131 1_555
As2 La3 3.354131 1_555
As2 La1 3.354131 1_555
As2 La6 3.354132 1_655
As3 La5 3.037744 1_555
As3 La0 3.037745 1_555
As3 La2 3.037745 1_455
As3 La1 3.037745 1_565
As3 La6 3.354131 1_555
As3 La7 3.354131 1_555
As3 La3 3.354131 1_555
As3 La4 3.354131 1_565
As4 La3 3.037744 1_566
As4 La0 3.037744 1_555
As4 La4 3.037744 1_565
As4 La2 3.037745 1_456
As4 La7 3.354131 1_556
As4 La5 3.354131 1_455
As4 La6 3.354131 1_555
As4 La1 3.354132 1_566
As5 La1 3.037744 1_555
As5 La7 3.037744 1_556
As5 La5 3.037745 1_555
As5 La6 3.037745 1_545
As5 La0 3.354131 1_555
As5 La4 3.354131 1_555
As5 La3 3.354131 1_555
As5 La2 3.354131 1_556
