# generated using pymatgen
data_Zr2SbP
_symmetry_space_group_name_H-M   'P 1'
_cell_length_a   3.84457582
_cell_length_b   3.84457441
_cell_length_c   13.32371423
_cell_angle_alpha   90.00000000
_cell_angle_beta   90.00000000
_cell_angle_gamma   120.00001212
_symmetry_Int_Tables_number   1
_chemical_formula_structural   Zr2SbP
_chemical_formula_sum   'Zr4 Sb2 P2'
_cell_volume   170.55033983
_cell_formula_units_Z   2
loop_
 _symmetry_equiv_pos_site_id
 _symmetry_equiv_pos_as_xyz
  1  'x, y, z'
loop_
 _atom_site_type_symbol
 _atom_site_label
 _atom_site_symmetry_multiplicity
 _atom_site_fract_x
 _atom_site_fract_y
 _atom_site_fract_z
 _atom_site_occupancy
  Zr  Zr0  1  0.66666700  0.33333300  0.60275231  1
  Zr  Zr1  1  0.33333300  0.66666700  0.39724769  1
  Zr  Zr2  1  0.33333300  0.66666700  0.10275231  1
  Zr  Zr3  1  0.66666700  0.33333300  0.89724769  1
  Sb  Sb0  1  0.66666700  0.33333300  0.25000000  1
  Sb  Sb1  1  0.33333300  0.66666700  0.75000000  1
  P  P0  1  0.00000000  0.00000000  0.50000000  1
  P  P1  1  0.00000000  0.00000000  0.00000000  1
loop_
_geom_bond_atom_site_label_1
_geom_bond_atom_site_label_2
_geom_bond_distance
_geom_bond_site_symmetry_2
Sb0 Zr2 2.962415 1_545
Sb0 Zr1 2.962415 1_545
Sb0 Zr1 2.962416 1_655
Sb0 Zr2 2.962416 1_655
Sb0 Zr2 2.962421 1_555
Sb0 Zr1 2.962421 1_555
Sb1 Zr3 2.962415 1_565
Sb1 Zr0 2.962415 1_565
Sb1 Zr3 2.962416 1_455
Sb1 Zr0 2.962416 1_455
Sb1 Zr3 2.962421 1_555
Sb1 Zr0 2.962421 1_555
P0 Zr0 2.607909 1_455
P0 Zr1 2.607909 1_545
P0 Zr0 2.607911 1_445
P0 Zr1 2.607911 1_555
P0 Zr0 2.607911 1_555
P0 Zr1 2.607911 1_445
P1 Zr2 2.607909 1_545
P1 Zr3 2.607909 1_454
P1 Zr2 2.607911 1_555
P1 Zr3 2.607911 1_444
P1 Zr3 2.607911 1_554
P1 Zr2 2.607911 1_445
