# generated using pymatgen
data_LiBi(PO3)4
_symmetry_space_group_name_H-M   'P 1'
_cell_length_a   8.89481013
_cell_length_b   8.89481013
_cell_length_c   9.70472856
_cell_angle_alpha   57.25944698
_cell_angle_beta   57.25944698
_cell_angle_gamma   46.50765016
_symmetry_Int_Tables_number   1
_chemical_formula_structural   LiBi(PO3)4
_chemical_formula_sum   'Li2 Bi2 P8 O24'
_cell_volume   450.28945710
_cell_formula_units_Z   2
loop_
 _symmetry_equiv_pos_site_id
 _symmetry_equiv_pos_as_xyz
  1  'x, y, z'
loop_
 _atom_site_type_symbol
 _atom_site_label
 _atom_site_symmetry_multiplicity
 _atom_site_fract_x
 _atom_site_fract_y
 _atom_site_fract_z
 _atom_site_occupancy
  Li  Li0  1  0.70027569  0.29972431  0.75000000  1
  Li  Li1  1  0.29972431  0.70027569  0.25000000  1
  Bi  Bi0  1  0.19291414  0.80708586  0.75000000  1
  Bi  Bi1  1  0.80708586  0.19291414  0.25000000  1
  P  P0  1  0.00624044  0.69985235  0.19616998  1
  P  P1  1  0.41862155  0.30299583  0.11530671  1
  P  P2  1  0.69700417  0.58137845  0.38469329  1
  P  P3  1  0.30014765  0.99375956  0.30383002  1
  P  P4  1  0.69985235  0.00624044  0.69616998  1
  P  P5  1  0.30299583  0.41862155  0.61530671  1
  P  P6  1  0.58137845  0.69700417  0.88469329  1
  P  P7  1  0.99375956  0.30014765  0.80383002  1
  O  O0  1  0.60265928  0.15770956  0.18834660  1
  O  O1  1  0.22009115  0.46528169  0.22889266  1
  O  O2  1  0.97791809  0.76019072  0.03216865  1
  O  O3  1  0.82724464  0.66538002  0.35324972  1
  O  O4  1  0.97596037  0.16337825  0.77671659  1
  O  O5  1  0.33461998  0.17275536  0.14675028  1
  O  O6  1  0.23980928  0.02208191  0.46783135  1
  O  O7  1  0.57871884  0.55215842  0.56959456  1
  O  O8  1  0.44784158  0.42128116  0.93040544  1
  O  O9  1  0.53471831  0.77990885  0.27110734  1
  O  O10  1  0.84229044  0.39734072  0.31165340  1
  O  O11  1  0.83662175  0.02403963  0.72328341  1
  O  O12  1  0.16337825  0.97596037  0.27671659  1
  O  O13  1  0.15770956  0.60265928  0.68834660  1
  O  O14  1  0.46528169  0.22009115  0.72889266  1
  O  O15  1  0.55215842  0.57871884  0.06959456  1
  O  O16  1  0.42128116  0.44784158  0.43040544  1
  O  O17  1  0.76019072  0.97791809  0.53216865  1
  O  O18  1  0.66538002  0.82724464  0.85324972  1
  O  O19  1  0.02403963  0.83662175  0.22328341  1
  O  O20  1  0.17275536  0.33461998  0.64675028  1
  O  O21  1  0.02208191  0.23980928  0.96783135  1
  O  O22  1  0.77990885  0.53471831  0.77110734  1
  O  O23  1  0.39734072  0.84229044  0.81165340  1
loop_
_geom_bond_atom_site_label_1
_geom_bond_atom_site_label_2
_geom_bond_distance
_geom_bond_site_symmetry_2
Li0 O8 1.931192 1_555
Li0 O7 1.931192 1_555
Li0 O4 1.950665 1_555
Li0 O11 1.950665 1_555
Li1 O16 1.931192 1_555
Li1 O15 1.931192 1_555
Li1 O19 1.950665 1_555
Li1 O12 1.950665 1_555
Bi0 O6 2.351134 1_565
Bi0 O2 2.351134 1_456
Bi0 O11 2.400824 1_465
Bi0 O4 2.400824 1_465
Bi0 O23 2.434267 1_555
Bi0 O13 2.434267 1_555
Bi0 O7 2.658463 1_555
Bi0 O8 2.658463 1_555
Bi1 O21 2.351134 1_654
Bi1 O17 2.351134 1_545
Bi1 O19 2.400824 1_645
Bi1 O12 2.400824 1_645
Bi1 O10 2.434267 1_555
Bi1 O0 2.434267 1_555
Bi1 O15 2.658463 1_555
Bi1 O16 2.658463 1_555
O0 P1 1.484752 1_555
O1 P1 1.588694 1_555
O1 P0 1.595614 1_555
O2 P0 1.486030 1_655
O3 P0 1.579194 1_655
O3 P2 1.598722 1_555
O4 P7 1.493552 1_555
O5 P3 1.579194 1_545
O5 P1 1.598722 1_555
O6 P3 1.486030 1_545
O7 P2 1.491392 1_555
O8 P1 1.491392 1_556
O9 P2 1.588694 1_555
O9 P3 1.595614 1_555
O10 P2 1.484752 1_555
O11 P4 1.493552 1_555
O12 P3 1.493552 1_555
O13 P5 1.484752 1_555
O14 P5 1.588694 1_555
O14 P4 1.595614 1_555
O15 P6 1.491392 1_554
O16 P5 1.491392 1_555
O17 P4 1.486030 1_565
O18 P4 1.579194 1_565
O18 P6 1.598722 1_555
O19 P0 1.493552 1_555
O20 P7 1.579194 1_455
O20 P5 1.598722 1_555
O21 P7 1.486030 1_455
O22 P6 1.588694 1_555
O22 P7 1.595614 1_555
O23 P6 1.484752 1_555
