# generated using pymatgen
data_Ba3Ta6Si4O23
_symmetry_space_group_name_H-M   'P 1'
_cell_length_a   9.15382389
_cell_length_b   9.15382389
_cell_length_c   7.66247500
_cell_angle_alpha   90.00000000
_cell_angle_beta   90.00000000
_cell_angle_gamma   119.99999921
_symmetry_Int_Tables_number   1
_chemical_formula_structural   Ba3Ta6Si4O23
_chemical_formula_sum   'Ba3 Ta6 Si4 O23'
_cell_volume   556.03843384
_cell_formula_units_Z   1
loop_
 _symmetry_equiv_pos_site_id
 _symmetry_equiv_pos_as_xyz
  1  'x, y, z'
loop_
 _atom_site_type_symbol
 _atom_site_label
 _atom_site_symmetry_multiplicity
 _atom_site_fract_x
 _atom_site_fract_y
 _atom_site_fract_z
 _atom_site_occupancy
  Ba  Ba0  1  0.00000000  0.58975700  0.50000000  1
  Ba  Ba1  1  0.41024300  0.41024300  0.50000000  1
  Ba  Ba2  1  0.58975700  0.00000000  0.50000000  1
  Ta  Ta0  1  0.23761100  0.00000000  0.75052500  1
  Ta  Ta1  1  0.00000000  0.23761100  0.24947500  1
  Ta  Ta2  1  0.76238900  0.76238900  0.24947500  1
  Ta  Ta3  1  0.76238900  0.76238900  0.75052500  1
  Ta  Ta4  1  0.23761100  0.00000000  0.24947500  1
  Ta  Ta5  1  0.00000000  0.23761100  0.75052500  1
  Si  Si0  1  0.66666700  0.33333300  0.79010500  1
  Si  Si1  1  0.33333300  0.66666700  0.79010500  1
  Si  Si2  1  0.66666700  0.33333300  0.20989500  1
  Si  Si3  1  0.33333300  0.66666700  0.20989500  1
  O  O0  1  0.17280200  0.17280200  0.73413100  1
  O  O1  1  0.18652700  0.48505400  0.71273400  1
  O  O2  1  0.29852700  0.81347300  0.71273400  1
  O  O3  1  0.18652700  0.48505400  0.28726600  1
  O  O4  1  0.82719800  0.00000000  0.73413100  1
  O  O5  1  0.72013800  0.72013800  0.00000000  1
  O  O6  1  0.82719800  0.00000000  0.26586900  1
  O  O7  1  0.51494600  0.70147300  0.71273400  1
  O  O8  1  0.81347300  0.29852700  0.28726600  1
  O  O9  1  0.27986200  0.00000000  0.00000000  1
  O  O10  1  0.48505400  0.18652700  0.71273400  1
  O  O11  1  0.48505400  0.18652700  0.28726600  1
  O  O12  1  0.70147300  0.51494600  0.28726600  1
  O  O13  1  0.17280200  0.17280200  0.26586900  1
  O  O14  1  0.70147300  0.51494600  0.71273400  1
  O  O15  1  0.00000000  0.27986200  0.00000000  1
  O  O16  1  0.66666700  0.33333300  0.00000000  1
  O  O17  1  0.51494600  0.70147300  0.28726600  1
  O  O18  1  0.00000000  0.82719800  0.73413100  1
  O  O19  1  0.00000000  0.82719800  0.26586900  1
  O  O20  1  0.81347300  0.29852700  0.71273400  1
  O  O21  1  0.33333300  0.66666700  0.00000000  1
  O  O22  1  0.29852700  0.81347300  0.28726600  1
loop_
_geom_bond_atom_site_label_1
_geom_bond_atom_site_label_2
_geom_bond_distance
_geom_bond_site_symmetry_2
Ba0 O19 2.818260 1_555
Ba0 O18 2.818260 1_555
Ba0 O1 2.850880 1_555
Ba0 O3 2.850880 1_555
Ba0 O20 2.850880 1_455
Ba0 O8 2.850880 1_455
Ba0 O12 2.953335 1_455
Ba0 O14 2.953335 1_455
Ba0 O2 2.953335 1_555
Ba0 O22 2.953335 1_555
Ba1 O0 2.818260 1_555
Ba1 O13 2.818260 1_555
Ba1 O12 2.850880 1_555
Ba1 O14 2.850880 1_555
Ba1 O7 2.850880 1_555
Ba1 O17 2.850880 1_555
Ba1 O1 2.953335 1_555
Ba1 O11 2.953335 1_555
Ba1 O10 2.953335 1_555
Ba1 O3 2.953335 1_555
Ba2 O6 2.818260 1_555
Ba2 O4 2.818260 1_555
Ba2 O11 2.850880 1_555
Ba2 O10 2.850880 1_555
Ba2 O22 2.850880 1_545
Ba2 O2 2.850880 1_545
Ba2 O17 2.953335 1_545
Ba2 O7 2.953335 1_545
Ba2 O20 2.953335 1_555
Ba2 O8 2.953335 1_555
O0 Ta5 1.951465 1_555
O0 Ta0 1.951465 1_555
O1 Si1 1.639225 1_555
O1 Ta5 2.064513 1_555
O2 Si1 1.639219 1_555
O2 Ta0 2.064512 1_565
O3 Si3 1.639225 1_555
O3 Ta1 2.064513 1_555
O4 Ta3 1.951465 1_545
O4 Ta5 1.951465 1_655
O5 Ta2 1.950328 1_555
O5 Ta3 1.950328 1_554
O6 Ta2 1.951465 1_545
O6 Ta1 1.951465 1_655
O7 Si1 1.639227 1_555
O7 Ta3 2.064512 1_555
O8 Si2 1.639219 1_555
O8 Ta1 2.064512 1_655
O9 Ta0 1.950328 1_554
O9 Ta4 1.950328 1_555
O10 Si0 1.639225 1_555
O10 Ta0 2.064513 1_555
O11 Si2 1.639225 1_555
O11 Ta4 2.064513 1_555
O12 Si2 1.639227 1_555
O12 Ta2 2.064512 1_555
O13 Ta4 1.951465 1_555
O13 Ta1 1.951465 1_555
O14 Si0 1.639227 1_555
O14 Ta3 2.064512 1_555
O15 Ta5 1.950328 1_554
O15 Ta1 1.950328 1_555
O16 Si2 1.608315 1_555
O16 Si0 1.608315 1_554
O17 Si3 1.639227 1_555
O17 Ta2 2.064512 1_555
O18 Ta3 1.951465 1_455
O18 Ta0 1.951465 1_565
O19 Ta2 1.951465 1_455
O19 Ta4 1.951465 1_565
O20 Si0 1.639219 1_555
O20 Ta5 2.064512 1_655
O21 Si3 1.608315 1_555
O21 Si1 1.608315 1_554
O22 Si3 1.639219 1_555
O22 Ta4 2.064512 1_565
