# generated using pymatgen
data_K3V(PO4)2
_symmetry_space_group_name_H-M   'P 1'
_cell_length_a   11.29016700
_cell_length_b   9.73015400
_cell_length_c   18.42018260
_cell_angle_alpha   58.32977541
_cell_angle_beta   90.00000000
_cell_angle_gamma   90.00000000
_symmetry_Int_Tables_number   1
_chemical_formula_structural   K3V(PO4)2
_chemical_formula_sum   'K24 V8 P16 O64'
_cell_volume   1722.21145402
_cell_formula_units_Z   8
loop_
 _symmetry_equiv_pos_site_id
 _symmetry_equiv_pos_as_xyz
  1  'x, y, z'
loop_
 _atom_site_type_symbol
 _atom_site_label
 _atom_site_symmetry_multiplicity
 _atom_site_fract_x
 _atom_site_fract_y
 _atom_site_fract_z
 _atom_site_occupancy
  K  K0  1  0.07746100  0.43354600  0.68093900  1
  K  K1  1  0.61991600  0.70973400  0.99274600  1
  K  K2  1  0.36092500  0.44379700  0.74038500  1
  K  K3  1  0.09979100  0.74025800  0.99872300  1
  K  K4  1  0.13907500  0.44379700  0.24038500  1
  K  K5  1  0.11812400  0.98269000  0.42091400  1
  K  K6  1  0.38008400  0.29026600  0.00725400  1
  K  K7  1  0.59787500  0.96121000  0.74564100  1
  K  K8  1  0.42253900  0.43354600  0.18093900  1
  K  K9  1  0.40212500  0.03879000  0.25435900  1
  K  K10  1  0.88008400  0.70973400  0.49274600  1
  K  K11  1  0.40020900  0.74025800  0.49872300  1
  K  K12  1  0.86092500  0.55620300  0.75961500  1
  K  K13  1  0.63907500  0.55620300  0.25961500  1
  K  K14  1  0.59979100  0.25974200  0.50127700  1
  K  K15  1  0.38187600  0.98269000  0.92091400  1
  K  K16  1  0.90212500  0.96121000  0.24564100  1
  K  K17  1  0.92253900  0.56645400  0.31906100  1
  K  K18  1  0.57746100  0.56645400  0.81906100  1
  K  K19  1  0.11991600  0.29026600  0.50725400  1
  K  K20  1  0.09787500  0.03879000  0.75435900  1
  K  K21  1  0.90020900  0.25974200  0.00127700  1
  K  K22  1  0.61812400  0.01731000  0.07908600  1
  K  K23  1  0.88187600  0.01731000  0.57908600  1
  V  V0  1  0.13122000  0.55350100  0.86820400  1
  V  V1  1  0.36878000  0.55350100  0.36820400  1
  V  V2  1  0.84404300  0.03871400  0.88620600  1
  V  V3  1  0.34404300  0.96128600  0.61379400  1
  V  V4  1  0.15595700  0.96128600  0.11379400  1
  V  V5  1  0.63122000  0.44649900  0.63179600  1
  V  V6  1  0.65595700  0.03871400  0.38620600  1
  V  V7  1  0.86878000  0.44649900  0.13179600  1
  P  P0  1  0.86115000  0.21026900  0.35398200  1
  P  P1  1  0.37668100  0.17672100  0.39995600  1
  P  P2  1  0.36115000  0.78973100  0.14601800  1
  P  P3  1  0.12331900  0.17672100  0.89995600  1
  P  P4  1  0.36011800  0.32805000  0.59167200  1
  P  P5  1  0.86011800  0.67195000  0.90832800  1
  P  P6  1  0.87668100  0.82327900  0.10004400  1
  P  P7  1  0.63988200  0.67195000  0.40832800  1
  P  P8  1  0.13988200  0.32805000  0.09167200  1
  P  P9  1  0.63885000  0.21026900  0.85398200  1
  P  P10  1  0.62331900  0.82327900  0.60004400  1
  P  P11  1  0.33650000  0.72172500  0.83563300  1
  P  P12  1  0.83650000  0.27827500  0.66436700  1
  P  P13  1  0.13885000  0.78973100  0.64601800  1
  P  P14  1  0.16350000  0.72172500  0.33563300  1
  P  P15  1  0.66350000  0.27827500  0.16436700  1
  O  O0  1  0.45678400  0.78642500  0.08754600  1
  O  O1  1  0.74226100  0.68481600  0.86458500  1
  O  O2  1  0.65556100  0.55374400  0.50663000  1
  O  O3  1  0.31632300  0.54612200  0.85230200  1
  O  O4  1  0.51816800  0.93125700  0.59323400  1
  O  O5  1  0.93235700  0.27464400  0.60669700  1
  O  O6  1  0.20971400  0.76477900  0.85289900  1
  O  O7  1  0.95678400  0.21357500  0.41245400  1
  O  O8  1  0.04250900  0.39927600  0.12243500  1
  O  O9  1  0.81632300  0.45387800  0.64769800  1
  O  O10  1  0.84647200  0.04001400  0.36518400  1
  O  O11  1  0.95749100  0.60072400  0.87756500  1
  O  O12  1  0.30661800  0.08898500  0.48711800  1
  O  O13  1  0.12312400  0.83433900  0.24148600  1
  O  O14  1  0.87687600  0.16566100  0.75851400  1
  O  O15  1  0.54250900  0.60072400  0.37756500  1
  O  O16  1  0.98183200  0.93125700  0.09323400  1
  O  O17  1  0.07333700  0.34223200  0.88047900  1
  O  O18  1  0.56764300  0.27464400  0.10669700  1
  O  O19  1  0.29028600  0.76477900  0.35289900  1
  O  O20  1  0.73323400  0.24361700  0.37649200  1
  O  O21  1  0.20910000  0.19997800  0.82951100  1
  O  O22  1  0.54321600  0.21357500  0.91245400  1
  O  O23  1  0.15556100  0.44625600  0.99337000  1
  O  O24  1  0.92666300  0.65776800  0.11952100  1
  O  O25  1  0.59598200  0.83879800  0.39040500  1
  O  O26  1  0.70910000  0.80002200  0.67048900  1
  O  O27  1  0.48183200  0.06874300  0.40676600  1
  O  O28  1  0.37687600  0.83433900  0.74148600  1
  O  O29  1  0.89367600  0.34426500  0.26065600  1
  O  O30  1  0.04321600  0.78642500  0.58754600  1
  O  O31  1  0.42666300  0.34223200  0.38047900  1
  O  O32  1  0.06764300  0.72535600  0.39330300  1
  O  O33  1  0.70971400  0.23522100  0.64710100  1
  O  O34  1  0.76676600  0.24361700  0.87649200  1
  O  O35  1  0.62312400  0.16566100  0.25851400  1
  O  O36  1  0.34443900  0.44625600  0.49337000  1
  O  O37  1  0.90401800  0.83879800  0.89040500  1
  O  O38  1  0.75773900  0.68481600  0.36458500  1
  O  O39  1  0.10632400  0.65573500  0.73934400  1
  O  O40  1  0.19338200  0.08898500  0.98711800  1
  O  O41  1  0.25773900  0.31518400  0.13541500  1
  O  O42  1  0.60632400  0.34426500  0.76065600  1
  O  O43  1  0.43235700  0.72535600  0.89330300  1
  O  O44  1  0.40401800  0.16120200  0.60959500  1
  O  O45  1  0.26676600  0.75638300  0.62350800  1
  O  O46  1  0.34647200  0.95998600  0.13481600  1
  O  O47  1  0.65352800  0.04001400  0.86518400  1
  O  O48  1  0.18367700  0.54612200  0.35230200  1
  O  O49  1  0.80661800  0.91101500  0.01288200  1
  O  O50  1  0.69338200  0.91101500  0.51288200  1
  O  O51  1  0.23323400  0.75638300  0.12350800  1
  O  O52  1  0.68367700  0.45387800  0.14769800  1
  O  O53  1  0.01816800  0.06874300  0.90676600  1
  O  O54  1  0.57333700  0.65776800  0.61952100  1
  O  O55  1  0.24226100  0.31518400  0.63541500  1
  O  O56  1  0.15352800  0.95998600  0.63481600  1
  O  O57  1  0.09598200  0.16120200  0.10959500  1
  O  O58  1  0.39367600  0.65573500  0.23934400  1
  O  O59  1  0.45749100  0.39927600  0.62243500  1
  O  O60  1  0.79090000  0.80002200  0.17048900  1
  O  O61  1  0.84443900  0.55374400  0.00663000  1
  O  O62  1  0.29090000  0.19997800  0.32951100  1
  O  O63  1  0.79028600  0.23522100  0.14710100  1
loop_
_geom_bond_atom_site_label_1
_geom_bond_atom_site_label_2
_geom_bond_distance
_geom_bond_site_symmetry_2
K0 O55 2.550599 1_555
K0 O21 2.886608 1_555
K0 O39 2.894799 1_555
K0 O30 2.948872 1_555
K0 O9 2.996545 1_455
K0 O5 3.027355 1_455
K0 O14 3.170734 1_455
K0 O17 3.297294 1_555
K1 O52 2.720520 1_556
K1 O43 2.751397 1_555
K1 O47 2.839657 1_565
K1 O1 2.853231 1_555
K1 O0 2.892515 1_556
K1 O61 2.896078 1_556
K1 O49 3.029735 1_556
K2 O59 2.661776 1_555
K2 O21 2.678053 1_555
K2 O3 2.765876 1_555
K2 O45 2.853072 1_555
K2 O42 2.893756 1_555
K2 O55 3.104912 1_555
K2 O54 3.189856 1_555
K3 O24 2.746025 1_456
K3 O37 2.788716 1_455
K3 O51 2.820732 1_556
K3 O6 2.852949 1_555
K3 O53 2.872142 1_565
K3 O8 2.946172 1_556
K3 O23 2.980922 1_555
K4 O8 2.661776 1_555
K4 O62 2.678053 1_555
K4 O48 2.765876 1_555
K4 O51 2.853072 1_555
K4 O29 2.893756 1_455
K4 O41 3.104912 1_555
K4 O24 3.189856 1_455
K5 O62 2.715142 1_565
K5 O30 2.761941 1_555
K5 O7 2.832262 1_465
K5 O32 2.861861 1_555
K5 O12 2.900036 1_565
K5 O10 3.189067 1_465
K6 O3 2.720520 1_554
K6 O18 2.751397 1_555
K6 O46 2.839657 1_545
K6 O41 2.853231 1_555
K6 O22 2.892515 1_554
K6 O23 2.896078 1_554
K6 O40 3.029735 1_554
K7 O33 2.629793 1_565
K7 O47 2.757631 1_565
K7 O28 2.802606 1_555
K7 O26 2.869299 1_555
K7 O1 2.916006 1_555
K7 O43 3.098770 1_555
K7 O4 3.104066 1_555
K7 O44 3.120318 1_565
K8 O41 2.550599 1_555
K8 O62 2.886608 1_555
K8 O58 2.894799 1_555
K8 O0 2.948872 1_555
K8 O52 2.996545 1_555
K8 O18 3.027355 1_555
K8 O35 3.170734 1_555
K8 O31 3.297294 1_555
K9 O19 2.629793 1_545
K9 O46 2.757631 1_545
K9 O35 2.802606 1_555
K9 O62 2.869299 1_555
K9 O41 2.916006 1_555
K9 O18 3.098770 1_555
K9 O27 3.104066 1_555
K9 O25 3.120318 1_545
K10 O9 2.720520 1_555
K10 O32 2.751397 1_655
K10 O10 2.839657 1_565
K10 O38 2.853231 1_555
K10 O30 2.892515 1_655
K10 O2 2.896078 1_555
K10 O50 3.029735 1_555
K11 O54 2.746025 1_555
K11 O25 2.788716 1_555
K11 O45 2.820732 1_555
K11 O19 2.852949 1_555
K11 O27 2.872142 1_565
K11 O59 2.946172 1_555
K11 O36 2.980922 1_555
K12 O11 2.661776 1_555
K12 O26 2.678053 1_555
K12 O9 2.765876 1_555
K12 O34 2.853072 1_555
K12 O39 2.893756 1_655
K12 O1 3.104912 1_555
K12 O17 3.189856 1_655
K13 O15 2.661776 1_555
K13 O60 2.678053 1_555
K13 O52 2.765876 1_555
K13 O20 2.853072 1_555
K13 O58 2.893756 1_555
K13 O38 3.104912 1_555
K13 O31 3.189856 1_555
K14 O31 2.746025 1_555
K14 O44 2.788716 1_555
K14 O20 2.820732 1_555
K14 O33 2.852949 1_555
K14 O4 2.872142 1_545
K14 O15 2.946172 1_555
K14 O2 2.980922 1_555
K15 O21 2.715142 1_565
K15 O0 2.761941 1_556
K15 O22 2.832262 1_565
K15 O43 2.861861 1_555
K15 O40 2.900036 1_565
K15 O47 3.189067 1_565
K16 O63 2.629793 1_565
K16 O10 2.757631 1_565
K16 O13 2.802606 1_655
K16 O60 2.869299 1_555
K16 O38 2.916006 1_555
K16 O32 3.098770 1_655
K16 O16 3.104066 1_555
K16 O57 3.120318 1_665
K17 O38 2.550599 1_555
K17 O60 2.886608 1_555
K17 O29 2.894799 1_555
K17 O7 2.948872 1_555
K17 O48 2.996545 1_655
K17 O32 3.027355 1_655
K17 O13 3.170734 1_655
K17 O24 3.297294 1_555
K18 O1 2.550599 1_555
K18 O26 2.886608 1_555
K18 O42 2.894799 1_555
K18 O22 2.948872 1_555
K18 O3 2.996545 1_555
K18 O43 3.027355 1_555
K18 O28 3.170734 1_555
K18 O54 3.297294 1_555
K19 O48 2.720520 1_555
K19 O5 2.751397 1_455
K19 O56 2.839657 1_545
K19 O55 2.853231 1_555
K19 O7 2.892515 1_455
K19 O36 2.896078 1_555
K19 O12 3.029735 1_555
K20 O6 2.629793 1_545
K20 O56 2.757631 1_545
K20 O14 2.802606 1_455
K20 O21 2.869299 1_555
K20 O55 2.916006 1_555
K20 O5 3.098770 1_455
K20 O53 3.104066 1_555
K20 O37 3.120318 1_445
K21 O17 2.746025 1_654
K21 O57 2.788716 1_655
K21 O34 2.820732 1_554
K21 O63 2.852949 1_555
K21 O16 2.872142 1_545
K21 O11 2.946172 1_554
K21 O61 2.980922 1_555
K22 O60 2.715142 1_545
K22 O22 2.761941 1_554
K22 O0 2.832262 1_545
K22 O18 2.861861 1_555
K22 O49 2.900036 1_545
K22 O46 3.189067 1_545
K23 O26 2.715142 1_545
K23 O7 2.761941 1_555
K23 O30 2.832262 1_645
K23 O5 2.861861 1_555
K23 O50 2.900036 1_545
K23 O56 3.189067 1_645
O0 P2 1.537299 1_555
O1 P5 1.526288 1_555
O2 P7 1.563998 1_555
O2 V5 1.988418 1_555
O3 P11 1.585794 1_555
O3 V0 2.116716 1_555
O4 P10 1.546147 1_555
O4 V3 2.051770 1_555
O5 P12 1.529826 1_555
O6 P11 1.570210 1_555
O6 V0 2.117180 1_555
O7 P0 1.537299 1_555
O8 P8 1.556397 1_555
O8 V7 2.042367 1_455
O9 P12 1.585794 1_555
O9 V5 2.116716 1_555
O10 P0 1.566987 1_555
O10 V6 2.184384 1_555
O11 P5 1.556397 1_555
O11 V0 2.042367 1_655
O12 P1 1.578929 1_555
O12 V3 2.030443 1_545
O13 P14 1.555814 1_555
O13 V4 2.035875 1_555
O14 P12 1.555814 1_555
O14 V2 2.035875 1_555
O15 P7 1.556397 1_555
O15 V1 2.042367 1_555
O16 P6 1.546147 1_555
O16 V4 2.051770 1_655
O17 P3 1.560126 1_555
O17 V0 2.053277 1_555
O18 P15 1.529826 1_555
O19 P14 1.570210 1_555
O19 V1 2.117180 1_555
O20 P0 1.582461 1_555
O20 V6 2.096093 1_555
O21 P3 1.537731 1_555
O22 P9 1.537299 1_555
O23 P8 1.563998 1_556
O23 V0 1.988418 1_555
O24 P6 1.560126 1_555
O24 V7 2.053277 1_555
O25 P7 1.558030 1_555
O25 V6 2.022462 1_565
O26 P10 1.537731 1_555
O27 P1 1.546147 1_555
O27 V6 2.051770 1_555
O28 P11 1.555814 1_555
O28 V3 2.035875 1_555
O29 P0 1.560915 1_555
O29 V7 2.055059 1_555
O30 P13 1.537299 1_555
O31 P1 1.560126 1_555
O31 V1 2.053277 1_555
O32 P14 1.529826 1_555
O33 P12 1.570210 1_555
O33 V5 2.117180 1_555
O34 P9 1.582461 1_555
O34 V2 2.096093 1_555
O35 P15 1.555814 1_555
O35 V6 2.035875 1_555
O36 P4 1.563998 1_555
O36 V1 1.988418 1_555
O37 P5 1.558030 1_555
O37 V2 2.022462 1_565
O38 P7 1.526288 1_555
O39 P13 1.560915 1_555
O39 V0 2.055059 1_555
O40 P3 1.578929 1_555
O40 V4 2.030443 1_546
O41 P8 1.526288 1_555
O42 P9 1.560915 1_555
O42 V5 2.055059 1_555
O43 P11 1.529826 1_555
O44 P4 1.558030 1_555
O44 V3 2.022462 1_545
O45 P13 1.582461 1_555
O45 V3 2.096093 1_555
O46 P2 1.566987 1_555
O46 V4 2.184384 1_555
O47 P9 1.566987 1_555
O47 V2 2.184384 1_555
O48 P14 1.585794 1_555
O48 V1 2.116716 1_555
O49 P6 1.578929 1_555
O49 V2 2.030443 1_564
O50 P10 1.578929 1_555
O50 V6 2.030443 1_565
O51 P2 1.582461 1_555
O51 V4 2.096093 1_555
O52 P15 1.585794 1_555
O52 V7 2.116716 1_555
O53 P3 1.546147 1_555
O53 V2 2.051770 1_455
O54 P10 1.560126 1_555
O54 V5 2.053277 1_555
O55 P4 1.526288 1_555
O56 P13 1.566987 1_555
O56 V3 2.184384 1_555
O57 P8 1.558030 1_555
O57 V4 2.022462 1_545
O58 P2 1.560915 1_555
O58 V1 2.055059 1_555
O59 P4 1.556397 1_555
O59 V5 2.042367 1_555
O60 P6 1.537731 1_555
O61 P5 1.563998 1_554
O61 V7 1.988418 1_555
O62 P1 1.537731 1_555
O63 P15 1.570210 1_555
O63 V7 2.117180 1_555
