# generated using pymatgen
data_Bi6As9Se4S10(O4F13)5
_symmetry_space_group_name_H-M   'P 1'
_cell_length_a   10.56819800
_cell_length_b   13.82006473
_cell_length_c   15.34688899
_cell_angle_alpha   69.83926070
_cell_angle_beta   72.37141801
_cell_angle_gamma   69.84237383
_symmetry_Int_Tables_number   1
_chemical_formula_structural   Bi6As9Se4S10(O4F13)5
_chemical_formula_sum   'Bi6 As9 Se4 S10 O20 F65'
_cell_volume   1931.67111361
_cell_formula_units_Z   1
loop_
 _symmetry_equiv_pos_site_id
 _symmetry_equiv_pos_as_xyz
  1  'x, y, z'
loop_
 _atom_site_type_symbol
 _atom_site_label
 _atom_site_symmetry_multiplicity
 _atom_site_fract_x
 _atom_site_fract_y
 _atom_site_fract_z
 _atom_site_occupancy
  Bi  Bi0  1  0.54006200  0.32978500  0.57436700  1
  Bi  Bi1  1  0.81146900  0.44339800  0.31627600  1
  Bi  Bi2  1  0.18853100  0.55660200  0.68372400  1
  Bi  Bi3  1  0.45993800  0.67021500  0.42563300  1
  Bi  Bi4  1  0.39582700  0.44985600  0.31392900  1
  Bi  Bi5  1  0.60417300  0.55014400  0.68607100  1
  As  As0  1  0.71415300  0.14759000  0.37068800  1
  As  As1  1  0.20529800  0.20602300  0.33692000  1
  As  As2  1  0.07887000  0.65231700  0.15971200  1
  As  As3  1  0.58065500  0.70053300  0.11729000  1
  As  As4  1  0.00000000  0.50000000  0.50000000  1
  As  As5  1  0.41934500  0.29946700  0.88271000  1
  As  As6  1  0.28584700  0.85241000  0.62931200  1
  As  As7  1  0.79470200  0.79397700  0.66308000  1
  As  As8  1  0.92113000  0.34768300  0.84028800  1
  Se  Se0  1  0.08909100  0.99736700  0.89251400  1
  Se  Se1  1  0.13972700  0.99463700  0.03012800  1
  Se  Se2  1  0.86027300  0.00536300  0.96987200  1
  Se  Se3  1  0.91090900  0.00263300  0.10748600  1
  S  S0  1  0.70626300  0.83755000  0.39616000  1
  S  S1  1  0.10980600  0.89898700  0.33429500  1
  S  S2  1  0.03678700  0.32433800  0.08861200  1
  S  S3  1  0.96321300  0.67566200  0.91138800  1
  S  S4  1  0.89019400  0.10101300  0.66570500  1
  S  S5  1  0.56961300  0.33878000  0.07755800  1
  S  S6  1  0.50999700  0.99681400  0.83141600  1
  S  S7  1  0.43038700  0.66122000  0.92244200  1
  S  S8  1  0.49000300  0.00318600  0.16858400  1
  S  S9  1  0.29373700  0.16245000  0.60384000  1
  O  O0  1  0.06753800  0.60519000  0.85657500  1
  O  O1  1  0.36585200  0.00046000  0.87525300  1
  O  O2  1  0.09645100  0.95109400  0.23657300  1
  O  O3  1  0.39515600  0.17992900  0.63994300  1
  O  O4  1  0.50108000  0.59459600  0.85653300  1
  O  O5  1  0.60279600  0.97566800  0.89200800  1
  O  O6  1  0.75226200  0.16318800  0.65097400  1
  O  O7  1  0.60484400  0.82007100  0.36005700  1
  O  O8  1  0.97500900  0.78285500  0.88968000  1
  O  O9  1  0.49892000  0.40540400  0.14346700  1
  O  O10  1  0.18211800  0.12635900  0.67495400  1
  O  O11  1  0.39305200  0.77543800  0.88278600  1
  O  O12  1  0.81788200  0.87364100  0.32504600  1
  O  O13  1  0.63414800  0.99954000  0.12474700  1
  O  O14  1  0.93246200  0.39481000  0.14342500  1
  O  O15  1  0.60694800  0.22456200  0.11721400  1
  O  O16  1  0.02499100  0.21714500  0.11032000  1
  O  O17  1  0.90354900  0.04890600  0.76342700  1
  O  O18  1  0.24773800  0.83681200  0.34902600  1
  O  O19  1  0.39720400  0.02433200  0.10799200  1
  F  F0  1  0.91747400  0.63029800  0.44437700  1
  F  F1  1  0.06819100  0.55184300  0.56213800  1
  F  F2  1  0.18855300  0.72777200  0.07513300  1
  F  F3  1  0.42893600  0.75204700  0.67488900  1
  F  F4  1  0.22077200  0.88445000  0.73844300  1
  F  F5  1  0.57106400  0.24795300  0.32511100  1
  F  F6  1  0.26492400  0.64328300  0.53864100  1
  F  F7  1  0.63856700  0.65698900  0.01268600  1
  F  F8  1  0.41495900  0.36320700  0.46090000  1
  F  F9  1  0.92742700  0.28965900  0.75326300  1
  F  F10  1  0.97058700  0.57012800  0.24568600  1
  F  F11  1  0.61664100  0.05406400  0.41490500  1
  F  F12  1  0.43840900  0.79751900  0.07516700  1
  F  F13  1  0.12247000  0.18381300  0.45705800  1
  F  F14  1  0.87753000  0.81618700  0.54294200  1
  F  F15  1  0.80815000  0.24778800  0.32662700  1
  F  F16  1  0.28097400  0.24059700  0.21469700  1
  F  F17  1  0.35468400  0.81527000  0.51876300  1
  F  F18  1  0.19185000  0.75221200  0.67337300  1
  F  F19  1  0.27063300  0.30465600  0.35134500  1
  F  F20  1  0.52069900  0.39454800  0.83245500  1
  F  F21  1  0.31853200  0.20881700  0.93020300  1
  F  F22  1  0.07257300  0.71034100  0.24673700  1
  F  F23  1  0.63307200  0.40647600  0.64346800  1
  F  F24  1  0.35463200  0.10612200  0.36240100  1
  F  F25  1  0.27713200  0.40142000  0.83627500  1
  F  F26  1  0.68220600  0.58771200  0.35984300  1
  F  F27  1  0.14865900  0.50506000  0.40506800  1
  F  F28  1  0.85415400  0.05465500  0.41787600  1
  F  F29  1  0.02941300  0.42987200  0.75431400  1
  F  F30  1  0.58504100  0.63679300  0.53910000  1
  F  F31  1  0.73507600  0.35671700  0.46135900  1
  F  F32  1  0.22624600  0.54671700  0.19728100  1
  F  F33  1  0.90948900  0.41306300  0.92456400  1
  F  F34  1  0.52250600  0.73917200  0.22639900  1
  F  F35  1  0.56159100  0.20248100  0.92483300  1
  F  F36  1  0.38335900  0.94593600  0.58509500  1
  F  F37  1  0.77375400  0.45328300  0.80271900  1
  F  F38  1  0.31779400  0.41228800  0.64015700  1
  F  F39  1  0.36143300  0.34301100  0.98731400  1
  F  F40  1  0.06818500  0.24899500  0.87344900  1
  F  F41  1  0.64531600  0.18473000  0.48123700  1
  F  F42  1  0.86404600  0.88317900  0.68034800  1
  F  F43  1  0.81144700  0.27222800  0.92486700  1
  F  F44  1  0.85134100  0.49494000  0.59493200  1
  F  F45  1  0.61283100  0.44150000  0.29926200  1
  F  F46  1  0.47930100  0.60545200  0.16754500  1
  F  F47  1  0.09051100  0.58693700  0.07543600  1
  F  F48  1  0.72936700  0.69534400  0.64865500  1
  F  F49  1  0.05336900  0.31489700  0.30945300  1
  F  F50  1  0.64536800  0.89387800  0.63759900  1
  F  F51  1  0.93181500  0.75100500  0.12655100  1
  F  F52  1  0.08252600  0.36970200  0.55562300  1
  F  F53  1  0.77922800  0.11555000  0.26155700  1
  F  F54  1  0.93180900  0.44815700  0.43786200  1
  F  F55  1  0.94663100  0.68510300  0.69054700  1
  F  F56  1  0.72286800  0.59858000  0.16372500  1
  F  F57  1  0.71902600  0.75940300  0.78530300  1
  F  F58  1  0.14584600  0.94534500  0.58212400  1
  F  F59  1  0.38716900  0.55850000  0.70073800  1
  F  F60  1  0.50000000  0.50000000  0.50000000  1
  F  F61  1  0.47749400  0.26082800  0.77360100  1
  F  F62  1  0.13595400  0.11682100  0.31965200  1
  F  F63  1  0.68146800  0.79118300  0.06979700  1
  F  F64  1  0.36692800  0.59352400  0.35653200  1
loop_
_geom_bond_atom_site_label_1
_geom_bond_atom_site_label_2
_geom_bond_distance
_geom_bond_site_symmetry_2
Bi0 F60 2.184292 1_555
Bi0 F31 2.304925 1_555
Bi0 F23 2.310479 1_555
Bi0 F38 2.312638 1_555
Bi0 F8 2.326551 1_555
Bi0 F41 2.602689 1_555
Bi0 O3 2.731812 1_555
Bi0 O6 2.807991 1_555
Bi0 F61 2.809915 1_555
Bi1 F26 2.186129 1_555
Bi1 F31 2.187156 1_555
Bi1 F45 2.202356 1_555
Bi1 F49 2.556802 1_655
Bi1 F54 2.585184 1_555
Bi1 F10 2.585996 1_555
Bi1 F15 2.664674 1_555
Bi1 F56 2.727650 1_555
Bi1 O14 2.775691 1_555
Bi2 F38 2.186129 1_555
Bi2 F6 2.187156 1_555
Bi2 F59 2.202356 1_555
Bi2 F55 2.556802 1_455
Bi2 F1 2.585184 1_555
Bi2 F29 2.585996 1_555
Bi2 F18 2.664674 1_555
Bi2 F25 2.727650 1_555
Bi2 O0 2.775691 1_555
Bi3 F60 2.184292 1_555
Bi3 F6 2.304925 1_555
Bi3 F64 2.310479 1_555
Bi3 F26 2.312638 1_555
Bi3 F30 2.326551 1_555
Bi3 F17 2.602689 1_555
Bi3 O7 2.731812 1_555
Bi3 O18 2.807991 1_555
Bi3 F34 2.809915 1_555
Bi4 F8 2.193147 1_555
Bi4 F64 2.195208 1_555
Bi4 F45 2.201395 1_555
Bi4 F27 2.551613 1_555
Bi4 F19 2.585032 1_555
Bi4 F32 2.616579 1_555
Bi4 F46 2.688167 1_555
Bi4 O9 2.707095 1_555
Bi4 F5 2.746984 1_555
Bi5 F30 2.193147 1_555
Bi5 F23 2.195208 1_555
Bi5 F59 2.201395 1_555
Bi5 F44 2.551613 1_555
Bi5 F48 2.585032 1_555
Bi5 F37 2.616579 1_555
Bi5 F20 2.688167 1_555
Bi5 O4 2.707095 1_555
Bi5 F3 2.746984 1_555
As0 F28 1.749652 1_555
As0 F53 1.754346 1_555
As0 F11 1.755841 1_555
As0 F5 1.796146 1_555
As0 F15 1.804804 1_555
As0 F41 1.807326 1_555
As1 F24 1.746338 1_555
As1 F13 1.754247 1_555
As1 F62 1.758552 1_555
As1 F16 1.767281 1_555
As1 F49 1.824102 1_555
As1 F19 1.825682 1_555
As2 F51 1.753324 1_455
As2 F22 1.754657 1_555
As2 F2 1.762000 1_555
As2 F47 1.771138 1_555
As2 F32 1.812566 1_555
As2 F10 1.813528 1_455
As3 F63 1.748135 1_555
As3 F12 1.754124 1_555
As3 F7 1.769416 1_555
As3 F34 1.798225 1_555
As3 F46 1.799978 1_555
As3 F56 1.802506 1_555
As4 F52 1.743821 1_555
As4 F0 1.743821 1_455
As4 F54 1.784702 1_455
As4 F1 1.784702 1_555
As4 F27 1.792995 1_555
As4 F44 1.792995 1_455
As5 F21 1.748135 1_555
As5 F35 1.754124 1_555
As5 F39 1.769416 1_555
As5 F61 1.798225 1_555
As5 F20 1.799978 1_555
As5 F25 1.802506 1_555
As6 F58 1.749652 1_555
As6 F4 1.754346 1_555
As6 F36 1.755841 1_555
As6 F3 1.796146 1_555
As6 F18 1.804804 1_555
As6 F17 1.807326 1_555
As7 F50 1.746338 1_555
As7 F14 1.754247 1_555
As7 F42 1.758552 1_555
As7 F57 1.767281 1_555
As7 F55 1.824102 1_555
As7 F48 1.825682 1_555
As8 F40 1.753324 1_655
As8 F9 1.754657 1_555
As8 F43 1.762000 1_555
As8 F33 1.771138 1_555
As8 F37 1.812566 1_555
As8 F29 1.813528 1_655
Se0 Se1 2.315988 1_556
Se0 Se2 2.331677 1_465
Se1 Se3 2.331677 1_465
Se2 Se3 2.315988 1_556
O0 S3 1.461047 1_455
O1 S6 1.457900 1_545
O2 S1 1.449618 1_555
O3 S9 1.464421 1_555
O4 S7 1.462610 1_555
O5 S6 1.442027 1_555
O6 S4 1.454905 1_555
O7 S0 1.464421 1_555
O8 S3 1.443276 1_555
O9 S5 1.462610 1_555
O10 S9 1.442872 1_555
O11 S7 1.439349 1_555
O12 S0 1.442872 1_555
O13 S8 1.457900 1_565
O14 S2 1.461047 1_655
O15 S5 1.439349 1_555
O16 S2 1.443276 1_555
O17 S4 1.449618 1_555
O18 S1 1.454905 1_555
O19 S8 1.442027 1_555
