# generated using pymatgen
data_Cu2Te2Cl2O5
_symmetry_space_group_name_H-M   'P 1'
_cell_length_a   7.75237300
_cell_length_b   7.75237300
_cell_length_c   6.39190300
_cell_angle_alpha   90.00000000
_cell_angle_beta   90.00000000
_cell_angle_gamma   90.00000000
_symmetry_Int_Tables_number   1
_chemical_formula_structural   Cu2Te2Cl2O5
_chemical_formula_sum   'Cu4 Te4 Cl4 O10'
_cell_volume   384.14881371
_cell_formula_units_Z   2
loop_
 _symmetry_equiv_pos_site_id
 _symmetry_equiv_pos_as_xyz
  1  'x, y, z'
loop_
 _atom_site_type_symbol
 _atom_site_label
 _atom_site_symmetry_multiplicity
 _atom_site_fract_x
 _atom_site_fract_y
 _atom_site_fract_z
 _atom_site_occupancy
  Cu  Cu0  1  0.45557300  0.73212300  0.84472900  1
  Cu  Cu1  1  0.54442700  0.26787700  0.84472900  1
  Cu  Cu2  1  0.73212300  0.54442700  0.15527100  1
  Cu  Cu3  1  0.26787700  0.45557300  0.15527100  1
  Te  Te0  1  0.64687400  0.17347000  0.36159100  1
  Te  Te1  1  0.17347000  0.35312600  0.63840900  1
  Te  Te2  1  0.82653000  0.64687400  0.63840900  1
  Te  Te3  1  0.35312600  0.82653000  0.36159100  1
  Cl  Cl0  1  0.77507700  0.09667100  0.80456500  1
  Cl  Cl1  1  0.22492300  0.90332900  0.80456500  1
  Cl  Cl2  1  0.90332900  0.77507700  0.19543500  1
  Cl  Cl3  1  0.09667100  0.22492300  0.19543500  1
  O  O0  1  0.50000000  0.00000000  0.22243700  1
  O  O1  1  0.33183700  0.41390700  0.86092800  1
  O  O2  1  0.53222600  0.76988800  0.55599900  1
  O  O3  1  0.76988800  0.46777400  0.44400100  1
  O  O4  1  0.46777400  0.23011200  0.55599900  1
  O  O5  1  0.41390700  0.66816300  0.13907200  1
  O  O6  1  0.00000000  0.50000000  0.77756300  1
  O  O7  1  0.23011200  0.53222600  0.44400100  1
  O  O8  1  0.66816300  0.58609300  0.86092800  1
  O  O9  1  0.58609300  0.33183700  0.13907200  1
loop_
_geom_bond_atom_site_label_1
_geom_bond_atom_site_label_2
_geom_bond_distance
_geom_bond_site_symmetry_2
Cu0 O2 1.960825 1_555
Cu0 O5 1.972284 1_556
Cu0 O8 2.002119 1_555
Cu1 O4 1.960825 1_555
Cu1 O9 1.972284 1_556
Cu1 O1 2.002119 1_555
Cu2 O3 1.960825 1_555
Cu2 O8 1.972284 1_554
Cu2 O9 2.002119 1_555
Cu3 O7 1.960825 1_555
Cu3 O1 1.972284 1_554
Cu3 O5 2.002119 1_555
Cl0 Cu1 2.241596 1_555
Cl1 Cu0 2.241596 1_555
Cl2 Cu2 2.241596 1_555
Cl3 Cu3 2.241596 1_555
O0 Te3 1.973853 1_545
O0 Te0 1.973853 1_555
O1 Te1 1.937090 1_555
O2 Te3 1.914356 1_555
O2 Te2 2.528322 1_555
O3 Te2 1.914356 1_555
O3 Te0 2.528322 1_555
O4 Te0 1.914356 1_555
O4 Te1 2.528322 1_555
O5 Te3 1.937090 1_555
O6 Te2 1.973853 1_455
O6 Te1 1.973853 1_555
O7 Te1 1.914356 1_555
O7 Te3 2.528322 1_555
O8 Te2 1.937090 1_555
O9 Te0 1.937090 1_555
