# generated using pymatgen
data_Rb6U2Mo4O21
_symmetry_space_group_name_H-M   'P 1'
_cell_length_a   10.35353500
_cell_length_b   10.36330020
_cell_length_c   13.63263292
_cell_angle_alpha   76.86496712
_cell_angle_beta   76.35909544
_cell_angle_gamma   64.84506463
_symmetry_Int_Tables_number   1
_chemical_formula_structural   Rb6U2Mo4O21
_chemical_formula_sum   'Rb12 U4 Mo8 O42'
_cell_volume   1273.18629758
_cell_formula_units_Z   2
loop_
 _symmetry_equiv_pos_site_id
 _symmetry_equiv_pos_as_xyz
  1  'x, y, z'
loop_
 _atom_site_type_symbol
 _atom_site_label
 _atom_site_symmetry_multiplicity
 _atom_site_fract_x
 _atom_site_fract_y
 _atom_site_fract_z
 _atom_site_occupancy
  Rb  Rb0  1  0.58982300  0.86741600  0.27683900  1
  Rb  Rb1  1  0.11938900  0.33529800  0.27690100  1
  Rb  Rb2  1  0.29996700  0.54711600  0.56175700  1
  Rb  Rb3  1  0.02881900  0.27769400  0.93532500  1
  Rb  Rb4  1  0.97118100  0.72230600  0.06467500  1
  Rb  Rb5  1  0.79870700  0.05352900  0.55806700  1
  Rb  Rb6  1  0.88061100  0.66470200  0.72309900  1
  Rb  Rb7  1  0.55462200  0.27350400  0.06749700  1
  Rb  Rb8  1  0.20129300  0.94647100  0.44193300  1
  Rb  Rb9  1  0.70003300  0.45288400  0.43824300  1
  Rb  Rb10  1  0.44537800  0.72649600  0.93250300  1
  Rb  Rb11  1  0.41017700  0.13258400  0.72316100  1
  U  U0  1  0.29738400  0.66473500  0.23189300  1
  U  U1  1  0.91514700  0.05526200  0.23220800  1
  U  U2  1  0.70261600  0.33526500  0.76810700  1
  U  U3  1  0.08485300  0.94473800  0.76779200  1
  Mo  Mo0  1  0.73962500  0.49829500  0.12786100  1
  Mo  Mo1  1  0.51694900  0.76213900  0.63957600  1
  Mo  Mo2  1  0.26037500  0.50170500  0.87213900  1
  Mo  Mo3  1  0.48305100  0.23786100  0.36042400  1
  Mo  Mo4  1  0.95175300  0.71210000  0.40450000  1
  Mo  Mo5  1  0.69387100  0.95640500  0.90282200  1
  Mo  Mo6  1  0.04824700  0.28790000  0.59550000  1
  Mo  Mo7  1  0.30612900  0.04359500  0.09717800  1
  O  O0  1  0.38701000  0.12285900  0.39455300  1
  O  O1  1  0.99067100  0.24567000  0.49747800  1
  O  O2  1  0.07736100  0.87605800  0.65558400  1
  O  O3  1  0.36559100  0.66981900  0.34513400  1
  O  O4  1  0.65511600  0.91384300  0.03710100  1
  O  O5  1  0.52188000  0.27358400  0.47015600  1
  O  O6  1  0.37769100  0.12007900  0.16472700  1
  O  O7  1  0.34848800  0.84855900  0.72187400  1
  O  O8  1  0.15653800  0.38579200  0.53773700  1
  O  O9  1  0.00932900  0.75433000  0.50252200  1
  O  O10  1  0.21252900  0.43807500  0.77974700  1
  O  O11  1  0.62230900  0.87992100  0.83527300  1
  O  O12  1  0.54473600  0.55574700  0.14088000  1
  O  O13  1  0.11050000  0.86432600  0.26117000  1
  O  O14  1  0.92263900  0.12394200  0.34441600  1
  O  O15  1  0.37271300  0.84921000  0.13597500  1
  O  O16  1  0.82049400  0.30274100  0.14473700  1
  O  O17  1  0.88882200  0.87901500  0.86491600  1
  O  O18  1  0.61929900  0.59602600  0.71573600  1
  O  O19  1  0.88950000  0.13567400  0.73883000  1
  O  O20  1  0.47812000  0.72641600  0.52984400  1
  O  O21  1  0.10709300  0.99796300  0.88050000  1
  O  O22  1  0.18986100  0.43726600  0.99564400  1
  O  O23  1  0.17950600  0.69725900  0.85526300  1
  O  O24  1  0.62728700  0.15079000  0.86402500  1
  O  O25  1  0.81013900  0.56273400  0.00435600  1
  O  O26  1  0.34488400  0.08615700  0.96289900  1
  O  O27  1  0.84346200  0.61420800  0.46226300  1
  O  O28  1  0.10208500  0.59865400  0.31949100  1
  O  O29  1  0.38070100  0.40397400  0.28426400  1
  O  O30  1  0.24879600  0.64967700  0.11414400  1
  O  O31  1  0.45526400  0.44425300  0.85912000  1
  O  O32  1  0.83385900  0.87704600  0.33452800  1
  O  O33  1  0.89290700  0.00203700  0.11950000  1
  O  O34  1  0.16614100  0.12295400  0.66547200  1
  O  O35  1  0.63440900  0.33018100  0.65486600  1
  O  O36  1  0.61299000  0.87714100  0.60544700  1
  O  O37  1  0.11117800  0.12098500  0.13508400  1
  O  O38  1  0.78747100  0.56192500  0.22025300  1
  O  O39  1  0.75120400  0.35032300  0.88585600  1
  O  O40  1  0.65151200  0.15144100  0.27812600  1
  O  O41  1  0.89791500  0.40134600  0.68050900  1
loop_
_geom_bond_atom_site_label_1
_geom_bond_atom_site_label_2
_geom_bond_distance
_geom_bond_site_symmetry_2
Mo0 O25 1.771289 1_555
Mo0 O38 1.793369 1_555
Mo0 O16 1.815886 1_555
Mo0 O12 1.820782 1_555
Mo1 O36 1.778445 1_555
Mo1 O20 1.788403 1_555
Mo1 O7 1.818976 1_555
Mo1 O18 1.822136 1_555
Mo2 O22 1.771289 1_555
Mo2 O10 1.793369 1_555
Mo2 O23 1.815886 1_555
Mo2 O31 1.820782 1_555
Mo3 O0 1.778445 1_555
Mo3 O5 1.788403 1_555
Mo3 O40 1.818976 1_555
Mo3 O29 1.822136 1_555
Mo4 O27 1.758922 1_555
Mo4 O9 1.787705 1_655
Mo4 O32 1.831973 1_555
Mo4 O28 1.833202 1_655
Mo5 O4 1.773020 1_556
Mo5 O11 1.782705 1_555
Mo5 O17 1.817833 1_555
Mo5 O24 1.822140 1_565
Mo6 O8 1.758922 1_555
Mo6 O1 1.787705 1_455
Mo6 O34 1.831973 1_555
Mo6 O41 1.833202 1_455
Mo7 O26 1.773020 1_554
Mo7 O6 1.782705 1_555
Mo7 O37 1.817833 1_555
Mo7 O15 1.822140 1_545
O0 Rb8 3.053127 1_545
O0 Rb0 3.099684 1_545
O0 Rb1 3.225250 1_555
O1 Rb9 3.030335 1_555
O1 Rb8 3.079449 1_645
O1 Rb1 3.094161 1_655
O1 Rb5 3.231097 1_555
O2 U3 1.857497 1_555
O2 Rb8 2.954582 1_555
O2 Rb5 3.108110 1_465
O2 Rb6 3.433211 1_455
O3 U0 1.862126 1_555
O3 Rb2 2.980107 1_555
O3 Rb8 3.060966 1_555
O3 Rb0 3.550423 1_555
O4 Rb4 3.083648 1_555
O4 Rb0 3.144795 1_555
O4 Rb7 3.514050 1_565
O5 Rb9 3.035127 1_555
O5 Rb2 3.097170 1_555
O5 Rb5 3.110152 1_555
O5 Rb11 3.554397 1_555
O6 Rb7 2.830853 1_555
O6 Rb0 2.981831 1_545
O6 Rb1 3.002586 1_555
O7 U3 2.449600 1_555
O7 Rb10 3.079055 1_555
O7 Rb11 3.270940 1_565
O8 Rb2 2.774225 1_555
O9 Rb2 3.030335 1_555
O9 Rb5 3.079449 1_465
O9 Rb6 3.094161 1_455
O9 Rb8 3.231097 1_555
O10 Rb2 3.000406 1_555
O10 Rb11 3.108585 1_555
O10 Rb3 3.171953 1_555
O10 Rb6 3.389395 1_455
O11 Rb10 2.830853 1_555
O11 Rb11 2.981831 1_565
O11 Rb6 3.002586 1_555
O12 U0 2.460253 1_555
O12 Rb10 3.131357 1_554
O12 Rb7 3.254816 1_555
O13 U1 2.186630 1_465
O13 U0 2.188625 1_555
O13 Rb8 3.226049 1_555
O14 U1 1.857497 1_555
O14 Rb5 2.954582 1_555
O14 Rb8 3.108110 1_645
O14 Rb1 3.433211 1_655
O15 U0 2.371366 1_555
O15 Rb10 3.111775 1_554
O15 Rb0 3.367115 1_555
O16 U1 2.446330 1_555
O16 Rb3 3.134670 1_654
O16 Rb7 3.316512 1_555
O17 U3 2.415402 1_655
O17 Rb4 2.947636 1_556
O17 Rb6 3.296578 1_555
O18 U2 2.447115 1_555
O18 Rb6 3.103849 1_555
O18 Rb10 3.322586 1_555
O19 U3 2.186630 1_645
O19 U2 2.188625 1_555
O19 Rb5 3.226049 1_555
O20 Rb2 3.035127 1_555
O20 Rb9 3.097170 1_555
O20 Rb8 3.110152 1_555
O20 Rb0 3.554397 1_555
O21 U3 1.837979 1_555
O21 Rb3 2.884618 1_565
O21 Rb10 3.545746 1_555
O22 Rb4 3.051287 1_456
O22 Rb3 3.130458 1_555
O23 U3 2.446330 1_555
O23 Rb4 3.134670 1_456
O23 Rb10 3.316512 1_555
O24 U2 2.371366 1_555
O24 Rb7 3.111775 1_556
O24 Rb11 3.367115 1_555
O25 Rb3 3.051287 1_654
O25 Rb4 3.130458 1_555
O26 Rb3 3.083648 1_555
O26 Rb11 3.144795 1_555
O26 Rb10 3.514050 1_545
O27 Rb9 2.774225 1_555
O28 U0 2.377029 1_555
O28 Rb1 2.841373 1_555
O29 U0 2.447115 1_555
O29 Rb1 3.103849 1_555
O29 Rb7 3.322586 1_555
O30 U0 1.848148 1_555
O30 Rb4 2.850843 1_455
O30 Rb10 3.002067 1_554
O31 U2 2.460253 1_555
O31 Rb7 3.131357 1_556
O31 Rb10 3.254816 1_555
O32 U1 2.379482 1_565
O32 Rb0 2.863501 1_555
O33 U1 1.837979 1_555
O33 Rb4 2.884618 1_545
O33 Rb7 3.545746 1_555
O34 U3 2.379482 1_545
O34 Rb11 2.863501 1_555
O35 U2 1.862126 1_555
O35 Rb9 2.980107 1_555
O35 Rb5 3.060966 1_555
O35 Rb11 3.550423 1_555
O36 Rb5 3.053127 1_565
O36 Rb11 3.099684 1_565
O36 Rb6 3.225250 1_555
O37 U1 2.415402 1_455
O37 Rb3 2.947636 1_554
O37 Rb1 3.296578 1_555
O38 Rb9 3.000406 1_555
O38 Rb0 3.108585 1_555
O38 Rb4 3.171953 1_555
O38 Rb1 3.389395 1_655
O39 U2 1.848148 1_555
O39 Rb3 2.850843 1_655
O39 Rb7 3.002067 1_556
O40 U1 2.449600 1_555
O40 Rb7 3.079055 1_555
O40 Rb0 3.270940 1_545
O41 U2 2.377029 1_555
O41 Rb6 2.841373 1_555
