# generated using pymatgen
data_GaBPbO4
_symmetry_space_group_name_H-M   'P 1'
_cell_length_a   5.98794200
_cell_length_b   7.12029700
_cell_length_c   8.39606700
_cell_angle_alpha   90.00000000
_cell_angle_beta   90.00000000
_cell_angle_gamma   90.00000000
_symmetry_Int_Tables_number   1
_chemical_formula_structural   GaBPbO4
_chemical_formula_sum   'Ga4 B4 Pb4 O16'
_cell_volume   357.97408676
_cell_formula_units_Z   4
loop_
 _symmetry_equiv_pos_site_id
 _symmetry_equiv_pos_as_xyz
  1  'x, y, z'
loop_
 _atom_site_type_symbol
 _atom_site_label
 _atom_site_symmetry_multiplicity
 _atom_site_fract_x
 _atom_site_fract_y
 _atom_site_fract_z
 _atom_site_occupancy
  Ga  Ga0  1  0.00000000  0.00000000  0.00000000  1
  Ga  Ga1  1  0.50000000  0.00000000  0.00000000  1
  Ga  Ga2  1  0.50000000  0.50000000  0.50000000  1
  Ga  Ga3  1  0.00000000  0.50000000  0.50000000  1
  B  B0  1  0.75000000  0.22225900  0.73583500  1
  B  B1  1  0.25000000  0.77774100  0.26416500  1
  B  B2  1  0.75000000  0.72225900  0.76416500  1
  B  B3  1  0.25000000  0.27774100  0.23583500  1
  Pb  Pb0  1  0.75000000  0.93606600  0.35707900  1
  Pb  Pb1  1  0.25000000  0.06393400  0.64292100  1
  Pb  Pb2  1  0.75000000  0.43606600  0.14292100  1
  Pb  Pb3  1  0.25000000  0.56393400  0.85707900  1
  O  O0  1  0.25000000  0.17944700  0.09298000  1
  O  O1  1  0.75000000  0.82055300  0.90702000  1
  O  O2  1  0.25000000  0.67944700  0.40702000  1
  O  O3  1  0.75000000  0.32055300  0.59298000  1
  O  O4  1  0.25000000  0.89952000  0.88697100  1
  O  O5  1  0.75000000  0.10048000  0.11302900  1
  O  O6  1  0.25000000  0.39952000  0.61302900  1
  O  O7  1  0.75000000  0.60048000  0.38697100  1
  O  O8  1  0.04845400  0.82845800  0.19328200  1
  O  O9  1  0.54845400  0.17154200  0.80671800  1
  O  O10  1  0.45154600  0.32845800  0.30671800  1
  O  O11  1  0.95154600  0.67154200  0.69328200  1
  O  O12  1  0.95154600  0.17154200  0.80671800  1
  O  O13  1  0.45154600  0.82845800  0.19328200  1
  O  O14  1  0.54845400  0.67154200  0.69328200  1
  O  O15  1  0.04845400  0.32845800  0.30671800  1
loop_
_geom_bond_atom_site_label_1
_geom_bond_atom_site_label_2
_geom_bond_distance
_geom_bond_site_symmetry_2
Ga0 O5 1.911395 1_455
Ga0 O4 1.911395 1_544
Ga0 O12 2.051726 1_454
Ga0 O8 2.051726 1_545
Ga0 O0 2.117301 1_555
Ga0 O1 2.117301 1_444
Ga1 O5 1.911395 1_555
Ga1 O4 1.911395 1_544
Ga1 O9 2.051726 1_554
Ga1 O13 2.051726 1_545
Ga1 O0 2.117301 1_555
Ga1 O1 2.117301 1_544
Ga2 O7 1.911395 1_555
Ga2 O6 1.911395 1_555
Ga2 O14 2.051726 1_555
Ga2 O10 2.051726 1_555
Ga2 O3 2.117301 1_555
Ga2 O2 2.117301 1_555
Ga3 O7 1.911395 1_455
Ga3 O6 1.911395 1_555
Ga3 O11 2.051726 1_455
Ga3 O15 2.051726 1_555
Ga3 O2 2.117301 1_555
Ga3 O3 2.117301 1_455
B0 O3 1.388684 1_555
B0 O12 1.393224 1_555
B0 O9 1.393224 1_555
B1 O2 1.388684 1_555
B1 O8 1.393224 1_555
B1 O13 1.393224 1_555
B2 O1 1.388684 1_555
B2 O14 1.393224 1_555
B2 O11 1.393224 1_555
B3 O0 1.388684 1_555
B3 O15 1.393224 1_555
B3 O10 1.393224 1_555
O4 Pb1 2.359901 1_565
O4 Pb3 2.402616 1_555
O5 Pb0 2.359901 1_545
O5 Pb2 2.402616 1_555
O6 Pb3 2.359901 1_555
O6 Pb1 2.402616 1_555
O7 Pb2 2.359901 1_555
O7 Pb0 2.402616 1_555
O8 Pb0 2.381637 1_455
O9 Pb1 2.381637 1_555
O10 Pb2 2.381637 1_555
O11 Pb3 2.381637 1_655
O12 Pb1 2.381637 1_655
O13 Pb0 2.381637 1_555
O14 Pb3 2.381637 1_555
O15 Pb2 2.381637 1_455
