# generated using pymatgen
data_NaBi2Sb3O11
_symmetry_space_group_name_H-M   'P 1'
_cell_length_a   9.64539700
_cell_length_b   9.64539700
_cell_length_c   9.64539700
_cell_angle_alpha   90.00000000
_cell_angle_beta   90.00000000
_cell_angle_gamma   90.00000000
_symmetry_Int_Tables_number   1
_chemical_formula_structural   NaBi2Sb3O11
_chemical_formula_sum   'Na4 Bi8 Sb12 O44'
_cell_volume   897.34680968
_cell_formula_units_Z   4
loop_
 _symmetry_equiv_pos_site_id
 _symmetry_equiv_pos_as_xyz
  1  'x, y, z'
loop_
 _atom_site_type_symbol
 _atom_site_label
 _atom_site_symmetry_multiplicity
 _atom_site_fract_x
 _atom_site_fract_y
 _atom_site_fract_z
 _atom_site_occupancy
  Na  Na0  1  0.25000000  0.25000000  0.75000000  1
  Na  Na1  1  0.75000000  0.75000000  0.75000000  1
  Na  Na2  1  0.75000000  0.25000000  0.25000000  1
  Na  Na3  1  0.25000000  0.75000000  0.25000000  1
  Bi  Bi0  1  0.87397000  0.87397000  0.12603000  1
  Bi  Bi1  1  0.37397000  0.62603000  0.62603000  1
  Bi  Bi2  1  0.37397000  0.37397000  0.37397000  1
  Bi  Bi3  1  0.87397000  0.12603000  0.87397000  1
  Bi  Bi4  1  0.62603000  0.37397000  0.62603000  1
  Bi  Bi5  1  0.12603000  0.12603000  0.12603000  1
  Bi  Bi6  1  0.12603000  0.87397000  0.87397000  1
  Bi  Bi7  1  0.62603000  0.62603000  0.37397000  1
  Sb  Sb0  1  0.50000000  0.83936300  0.00000000  1
  Sb  Sb1  1  0.00000000  0.33936300  0.50000000  1
  Sb  Sb2  1  0.33936300  0.50000000  0.00000000  1
  Sb  Sb3  1  0.50000000  0.00000000  0.66063700  1
  Sb  Sb4  1  0.66063700  0.50000000  0.00000000  1
  Sb  Sb5  1  0.16063700  0.00000000  0.50000000  1
  Sb  Sb6  1  0.00000000  0.66063700  0.50000000  1
  Sb  Sb7  1  0.50000000  0.00000000  0.33936300  1
  Sb  Sb8  1  0.00000000  0.50000000  0.16063700  1
  Sb  Sb9  1  0.00000000  0.50000000  0.83936300  1
  Sb  Sb10  1  0.83936300  0.00000000  0.50000000  1
  Sb  Sb11  1  0.50000000  0.16063700  0.00000000  1
  O  O0  1  0.00000000  0.63708800  0.00000000  1
  O  O1  1  0.83850700  0.21091000  0.50010800  1
  O  O2  1  0.71091000  0.99989200  0.33850700  1
  O  O3  1  0.50000000  0.86291200  0.50000000  1
  O  O4  1  0.00000000  0.00000000  0.63708800  1
  O  O5  1  0.66149300  0.71091000  0.00010800  1
  O  O6  1  0.28909000  0.99989200  0.66149300  1
  O  O7  1  0.86291200  0.50000000  0.50000000  1
  O  O8  1  0.78909000  0.50010800  0.16149300  1
  O  O9  1  0.50000000  0.50000000  0.13708800  1
  O  O10  1  0.21091000  0.50010800  0.83850700  1
  O  O11  1  0.99989200  0.66149300  0.28909000  1
  O  O12  1  0.63708800  0.00000000  0.00000000  1
  O  O13  1  0.83850700  0.78909000  0.49989200  1
  O  O14  1  0.39716500  0.60283500  0.39716500  1
  O  O15  1  0.50000000  0.13708800  0.50000000  1
  O  O16  1  0.50010800  0.83850700  0.21091000  1
  O  O17  1  0.89716500  0.10283500  0.10283500  1
  O  O18  1  0.13708800  0.50000000  0.50000000  1
  O  O19  1  0.50000000  0.50000000  0.86291200  1
  O  O20  1  0.33850700  0.28909000  0.00010800  1
  O  O21  1  0.00010800  0.33850700  0.28909000  1
  O  O22  1  0.36291200  0.00000000  0.00000000  1
  O  O23  1  0.66149300  0.28909000  0.99989200  1
  O  O24  1  0.10283500  0.89716500  0.10283500  1
  O  O25  1  0.28909000  0.00010800  0.33850700  1
  O  O26  1  0.71091000  0.00010800  0.66149300  1
  O  O27  1  0.33850700  0.71091000  0.99989200  1
  O  O28  1  0.89716500  0.89716500  0.89716500  1
  O  O29  1  0.99989200  0.33850700  0.71091000  1
  O  O30  1  0.60283500  0.39716500  0.39716500  1
  O  O31  1  0.16149300  0.21091000  0.49989200  1
  O  O32  1  0.16149300  0.78909000  0.50010800  1
  O  O33  1  0.49989200  0.83850700  0.78909000  1
  O  O34  1  0.00000000  0.36291200  0.00000000  1
  O  O35  1  0.50010800  0.16149300  0.78909000  1
  O  O36  1  0.00010800  0.66149300  0.71091000  1
  O  O37  1  0.21091000  0.49989200  0.16149300  1
  O  O38  1  0.78909000  0.49989200  0.83850700  1
  O  O39  1  0.39716500  0.39716500  0.60283500  1
  O  O40  1  0.60283500  0.60283500  0.60283500  1
  O  O41  1  0.10283500  0.10283500  0.89716500  1
  O  O42  1  0.00000000  0.00000000  0.36291200  1
  O  O43  1  0.49989200  0.16149300  0.21091000  1
loop_
_geom_bond_atom_site_label_1
_geom_bond_atom_site_label_2
_geom_bond_distance
_geom_bond_site_symmetry_2
Na0 O39 2.458585 1_555
Na0 O41 2.458585 1_555
Na0 O31 2.586613 1_555
Na0 O29 2.586613 1_455
Na0 O35 2.586613 1_555
Na0 O10 2.586613 1_555
Na0 O20 2.586613 1_556
Na0 O6 2.586613 1_545
Na1 O40 2.458585 1_555
Na1 O28 2.458585 1_555
Na1 O5 2.586613 1_556
Na1 O36 2.586613 1_655
Na1 O38 2.586613 1_555
Na1 O13 2.586613 1_555
Na1 O33 2.586613 1_555
Na1 O26 2.586613 1_565
Na2 O17 2.458585 1_555
Na2 O30 2.458585 1_555
Na2 O43 2.586613 1_555
Na2 O21 2.586613 1_655
Na2 O23 2.586613 1_554
Na2 O2 2.586613 1_545
Na2 O8 2.586613 1_555
Na2 O1 2.586613 1_555
Na3 O24 2.458585 1_555
Na3 O14 2.458585 1_555
Na3 O27 2.586613 1_554
Na3 O37 2.586613 1_555
Na3 O25 2.586613 1_565
Na3 O11 2.586613 1_455
Na3 O16 2.586613 1_555
Na3 O32 2.586613 1_555
Bi0 O17 2.230053 1_565
Bi0 O24 2.230053 1_655
Bi0 O28 2.230053 1_554
Bi1 O39 2.230053 1_555
Bi1 O14 2.230053 1_555
Bi1 O40 2.230053 1_555
Bi2 O39 2.230053 1_555
Bi2 O14 2.230053 1_555
Bi2 O30 2.230053 1_555
Bi3 O28 2.230053 1_545
Bi3 O17 2.230053 1_556
Bi3 O41 2.230053 1_655
Bi4 O39 2.230053 1_555
Bi4 O40 2.230053 1_555
Bi4 O30 2.230053 1_555
Bi5 O17 2.230053 1_455
Bi5 O24 2.230053 1_545
Bi5 O41 2.230053 1_554
Bi6 O41 2.230053 1_565
Bi6 O24 2.230053 1_556
Bi6 O28 2.230053 1_455
Bi7 O14 2.230053 1_555
Bi7 O40 2.230053 1_555
Bi7 O30 2.230053 1_555
O0 Sb9 2.036923 1_554
O0 Sb8 2.036923 1_555
O1 Sb1 1.990324 1_655
O1 Sb10 2.034328 1_555
O2 Sb10 1.990324 1_565
O2 Sb7 2.034328 1_565
O3 Sb7 2.036923 1_565
O3 Sb3 2.036923 1_565
O4 Sb5 2.036923 1_555
O4 Sb10 2.036923 1_455
O5 Sb0 1.990324 1_555
O5 Sb4 2.034328 1_555
O6 Sb5 1.990324 1_565
O6 Sb3 2.034328 1_565
O7 Sb1 2.036923 1_655
O7 Sb6 2.036923 1_655
O8 Sb4 1.990324 1_555
O8 Sb8 2.034328 1_655
O9 Sb2 2.036923 1_555
O9 Sb4 2.036923 1_555
O10 Sb2 1.990324 1_556
O10 Sb9 2.034328 1_555
O11 Sb8 1.990324 1_655
O11 Sb6 2.034328 1_655
O12 Sb11 2.036923 1_555
O12 Sb0 2.036923 1_545
O13 Sb6 1.990324 1_655
O13 Sb10 2.034328 1_565
O15 Sb7 2.036923 1_555
O15 Sb3 2.036923 1_555
O16 Sb7 1.990324 1_565
O16 Sb0 2.034328 1_555
O18 Sb1 2.036923 1_555
O18 Sb6 2.036923 1_555
O19 Sb2 2.036923 1_556
O19 Sb4 2.036923 1_556
O20 Sb11 1.990324 1_555
O20 Sb2 2.034328 1_555
O21 Sb8 1.990324 1_555
O21 Sb1 2.034328 1_555
O22 Sb11 2.036923 1_555
O22 Sb0 2.036923 1_545
O23 Sb11 1.990324 1_556
O23 Sb4 2.034328 1_556
O25 Sb5 1.990324 1_555
O25 Sb7 2.034328 1_555
O26 Sb10 1.990324 1_555
O26 Sb3 2.034328 1_555
O27 Sb0 1.990324 1_556
O27 Sb2 2.034328 1_556
O29 Sb9 1.990324 1_655
O29 Sb1 2.034328 1_655
O31 Sb1 1.990324 1_555
O31 Sb5 2.034328 1_555
O32 Sb6 1.990324 1_555
O32 Sb5 2.034328 1_565
O33 Sb3 1.990324 1_565
O33 Sb0 2.034328 1_556
O34 Sb9 2.036923 1_554
O34 Sb8 2.036923 1_555
O35 Sb3 1.990324 1_555
O35 Sb11 2.034328 1_556
O36 Sb9 1.990324 1_555
O36 Sb6 2.034328 1_555
O37 Sb2 1.990324 1_555
O37 Sb8 2.034328 1_555
O38 Sb4 1.990324 1_556
O38 Sb9 2.034328 1_655
O42 Sb5 2.036923 1_555
O42 Sb10 2.036923 1_455
O43 Sb7 1.990324 1_555
O43 Sb11 2.034328 1_555
