# generated using pymatgen
data_BaV2(P2O7)2
_symmetry_space_group_name_H-M   'P 1'
_cell_length_a   6.26197366
_cell_length_b   12.58012869
_cell_length_c   8.06332339
_cell_angle_alpha   102.16835845
_cell_angle_beta   101.24456567
_cell_angle_gamma   77.31123211
_symmetry_Int_Tables_number   1
_chemical_formula_structural   BaV2(P2O7)2
_chemical_formula_sum   'Ba2 V4 P8 O28'
_cell_volume   598.35496302
_cell_formula_units_Z   2
loop_
 _symmetry_equiv_pos_site_id
 _symmetry_equiv_pos_as_xyz
  1  'x, y, z'
loop_
 _atom_site_type_symbol
 _atom_site_label
 _atom_site_symmetry_multiplicity
 _atom_site_fract_x
 _atom_site_fract_y
 _atom_site_fract_z
 _atom_site_occupancy
  Ba  Ba0  1  0.99998700  0.00005400  0.00006300  1
  Ba  Ba1  1  0.50006800  0.49997900  0.00009600  1
  V  V0  1  0.53333600  0.84617900  0.23062800  1
  V  V1  1  0.46668000  0.15379600  0.76935300  1
  V  V2  1  0.03347900  0.34626500  0.23049100  1
  V  V3  1  0.96670600  0.65369100  0.76951200  1
  P  P0  1  0.94977300  0.23610600  0.81006300  1
  P  P1  1  0.44986300  0.73597300  0.81026300  1
  P  P2  1  0.55020200  0.26405000  0.18979700  1
  P  P3  1  0.05009800  0.76394800  0.18992100  1
  P  P4  1  0.35714700  0.12291500  0.33361300  1
  P  P5  1  0.85734700  0.62268800  0.33371400  1
  P  P6  1  0.14268400  0.37726900  0.66628400  1
  P  P7  1  0.64289600  0.87705300  0.66638300  1
  O  O0  1  0.60145500  0.17673600  0.03176300  1
  O  O1  1  0.10146400  0.67667900  0.03201100  1
  O  O2  1  0.89833900  0.32336400  0.96801700  1
  O  O3  1  0.39855200  0.82325400  0.96834900  1
  O  O4  1  0.41865100  0.01034400  0.21919900  1
  O  O5  1  0.91920300  0.51019900  0.21908300  1
  O  O6  1  0.08112200  0.48976600  0.78086900  1
  O  O7  1  0.58162800  0.98972800  0.78055100  1
  O  O8  1  0.77307900  0.16511800  0.73954800  1
  O  O9  1  0.27308900  0.66506900  0.73952000  1
  O  O10  1  0.72694000  0.33499200  0.26042800  1
  O  O11  1  0.22679200  0.83494400  0.26028000  1
  O  O12  1  0.54138300  0.19735400  0.33827100  1
  O  O13  1  0.04137600  0.69721700  0.33843700  1
  O  O14  1  0.95848300  0.30285900  0.66160500  1
  O  O15  1  0.45843500  0.80278400  0.66190200  1
  O  O16  1  0.35664200  0.11678600  0.51845700  1
  O  O17  1  0.85654100  0.61634900  0.51849600  1
  O  O18  1  0.14347400  0.38357800  0.48153200  1
  O  O19  1  0.64323300  0.88297000  0.48146400  1
  O  O20  1  0.36550600  0.32052700  0.75870100  1
  O  O21  1  0.86575400  0.82020600  0.75858100  1
  O  O22  1  0.13421600  0.17978200  0.24147600  1
  O  O23  1  0.63443600  0.67937700  0.24122200  1
  O  O24  1  0.32567200  0.34345500  0.15763800  1
  O  O25  1  0.82551300  0.84337800  0.15801200  1
  O  O26  1  0.17436100  0.15667200  0.84208700  1
  O  O27  1  0.67439400  0.65655000  0.84232200  1
loop_
_geom_bond_atom_site_label_1
_geom_bond_atom_site_label_2
_geom_bond_distance
_geom_bond_site_symmetry_2
Ba0 O22 2.819433 1_655
Ba0 O21 2.820789 1_544
Ba0 O7 2.873509 1_544
Ba0 O4 2.873690 1_655
Ba0 O0 2.967508 1_555
Ba0 O3 2.968473 1_644
Ba0 O26 3.040147 1_654
Ba0 O25 3.040971 1_545
Ba0 O11 3.180113 1_645
Ba0 O8 3.181531 1_554
Ba1 O23 2.815661 1_555
Ba1 O20 2.817569 1_554
Ba1 O6 2.875309 1_554
Ba1 O5 2.875442 1_555
Ba1 O2 2.966198 1_554
Ba1 O1 2.968105 1_555
Ba1 O24 3.037075 1_555
Ba1 O27 3.038471 1_554
Ba1 O10 3.179771 1_555
Ba1 O9 3.182185 1_554
O0 P2 1.532279 1_555
O0 V1 2.103739 1_554
O1 P3 1.531429 1_555
O1 V3 2.104367 1_454
O2 P0 1.531708 1_555
O2 V2 2.104735 1_656
O3 P1 1.532454 1_555
O3 V0 2.102801 1_556
O4 P4 1.533992 1_555
O4 V0 2.047492 1_545
O5 P5 1.534394 1_555
O5 V2 2.044417 1_655
O6 P6 1.533992 1_555
O6 V3 2.044338 1_455
O7 P7 1.533817 1_555
O7 V1 2.046191 1_565
O8 P0 1.523062 1_555
O8 V1 2.018322 1_555
O9 P1 1.522949 1_555
O9 V3 2.018920 1_455
O10 P2 1.522993 1_555
O10 V2 2.019342 1_655
O11 P3 1.522994 1_555
O11 V0 2.018494 1_555
O12 P2 1.615526 1_555
O12 P4 1.628565 1_555
O13 P3 1.615939 1_555
O13 P5 1.628187 1_455
O14 P0 1.615706 1_555
O14 P6 1.628078 1_655
O15 P1 1.615282 1_555
O15 P7 1.628522 1_555
O16 P4 1.509241 1_555
O16 V1 1.996129 1_555
O17 P5 1.509820 1_555
O17 V3 1.997557 1_555
O18 P6 1.509459 1_555
O18 V2 1.997491 1_555
O19 P7 1.508939 1_555
O19 V0 1.995258 1_555
O20 P6 1.546905 1_555
O20 V1 2.068622 1_555
O21 P7 1.546836 1_555
O21 V3 2.066363 1_555
O22 P4 1.547053 1_555
O22 V2 2.065963 1_555
O23 P5 1.547300 1_555
O23 V0 2.069349 1_555
O24 P2 1.546589 1_555
O24 V2 2.018951 1_555
O25 P3 1.546739 1_655
O25 V0 2.017997 1_555
O26 P0 1.546894 1_455
O26 V1 2.019062 1_555
O27 P1 1.546600 1_555
O27 V3 2.019355 1_555
