# generated using pymatgen
data_Cs2NaVF6
_symmetry_space_group_name_H-M   'P 1'
_cell_length_a   11.06308821
_cell_length_b   11.06308839
_cell_length_c   11.06308824
_cell_angle_alpha   33.48535604
_cell_angle_beta   33.48535692
_cell_angle_gamma   33.48535471
_symmetry_Int_Tables_number   1
_chemical_formula_structural   Cs2NaVF6
_chemical_formula_sum   'Cs4 Na2 V2 F12'
_cell_volume   367.08295659
_cell_formula_units_Z   2
loop_
 _symmetry_equiv_pos_site_id
 _symmetry_equiv_pos_as_xyz
  1  'x, y, z'
loop_
 _atom_site_type_symbol
 _atom_site_label
 _atom_site_symmetry_multiplicity
 _atom_site_fract_x
 _atom_site_fract_y
 _atom_site_fract_z
 _atom_site_occupancy
  Cs  Cs0  1  0.71761700  0.71761700  0.71761700  1
  Cs  Cs1  1  0.28238300  0.28238300  0.28238300  1
  Cs  Cs2  1  0.12800000  0.12800000  0.12800000  1
  Cs  Cs3  1  0.87200000  0.87200000  0.87200000  1
  Na  Na0  1  0.59707000  0.59707000  0.59707000  1
  Na  Na1  1  0.40293000  0.40293000  0.40293000  1
  V  V0  1  0.00000000  0.00000000  0.00000000  1
  V  V1  1  0.50000000  0.50000000  0.50000000  1
  F  F0  1  0.18495100  0.73864800  0.18495100  1
  F  F1  1  0.60432800  0.60432800  0.17556300  1
  F  F2  1  0.26135200  0.81504900  0.81504900  1
  F  F3  1  0.17556300  0.60432800  0.60432800  1
  F  F4  1  0.81504900  0.26135200  0.81504900  1
  F  F5  1  0.60432800  0.17556300  0.60432800  1
  F  F6  1  0.73864800  0.18495100  0.18495100  1
  F  F7  1  0.18495100  0.18495100  0.73864800  1
  F  F8  1  0.82443700  0.39567200  0.39567200  1
  F  F9  1  0.81504900  0.81504900  0.26135200  1
  F  F10  1  0.39567200  0.39567200  0.82443700  1
  F  F11  1  0.39567200  0.82443700  0.39567200  1
loop_
_geom_bond_atom_site_label_1
_geom_bond_atom_site_label_2
_geom_bond_distance
_geom_bond_site_symmetry_2
Cs0 F3 3.200919 1_655
Cs0 F1 3.200919 1_556
Cs0 F5 3.200919 1_565
Cs0 F7 3.226385 1_565
Cs0 F7 3.226385 1_655
Cs0 F6 3.226385 1_565
Cs0 F6 3.226385 1_556
Cs0 F0 3.226385 1_556
Cs0 F0 3.226385 1_655
Cs0 F2 3.404350 1_555
Cs0 F9 3.404350 1_555
Cs0 F4 3.404350 1_555
Cs1 F8 3.200919 1_455
Cs1 F10 3.200919 1_554
Cs1 F11 3.200919 1_545
Cs1 F9 3.226385 1_545
Cs1 F9 3.226385 1_455
Cs1 F2 3.226385 1_545
Cs1 F2 3.226385 1_554
Cs1 F4 3.226385 1_554
Cs1 F4 3.226385 1_455
Cs1 F6 3.404350 1_555
Cs1 F7 3.404350 1_555
Cs1 F0 3.404350 1_555
Cs2 F1 3.197751 1_545
Cs2 F1 3.197751 1_455
Cs2 F3 3.197751 1_545
Cs2 F3 3.197751 1_554
Cs2 F5 3.197751 1_455
Cs2 F5 3.197751 1_554
Cs2 F11 3.204170 1_545
Cs2 F8 3.204170 1_455
Cs2 F10 3.204170 1_554
Cs2 F6 3.310013 1_455
Cs2 F7 3.310013 1_554
Cs2 F0 3.310013 1_545
Cs3 F10 3.197751 1_565
Cs3 F10 3.197751 1_655
Cs3 F8 3.197751 1_565
Cs3 F8 3.197751 1_556
Cs3 F11 3.197751 1_655
Cs3 F11 3.197751 1_556
Cs3 F5 3.204170 1_565
Cs3 F3 3.204170 1_655
Cs3 F1 3.204170 1_556
Cs3 F2 3.310013 1_655
Cs3 F9 3.310013 1_556
Cs3 F4 3.310013 1_565
F0 V0 1.995011 1_565
F0 Na1 2.290326 1_555
F1 V1 1.987159 1_555
F1 Na1 2.416511 1_555
F2 V0 1.995011 1_566
F2 Na0 2.290326 1_555
F3 V1 1.987159 1_555
F3 Na1 2.416511 1_555
F4 V0 1.995011 1_656
F4 Na0 2.290326 1_555
F5 V1 1.987159 1_555
F5 Na1 2.416511 1_555
F6 V0 1.995011 1_655
F6 Na1 2.290326 1_555
F7 V0 1.995011 1_556
F7 Na1 2.290326 1_555
F8 V1 1.987159 1_555
F8 Na0 2.416511 1_555
F9 V0 1.995011 1_665
F9 Na0 2.290326 1_555
F10 V1 1.987159 1_555
F10 Na0 2.416511 1_555
F11 V1 1.987159 1_555
F11 Na0 2.416511 1_555
