# generated using pymatgen
data_Ga2Te2Br7
_symmetry_space_group_name_H-M   'P 1'
_cell_length_a   11.15550191
_cell_length_b   10.25533316
_cell_length_c   14.18768155
_cell_angle_alpha   81.38424347
_cell_angle_beta   90.00000000
_cell_angle_gamma   90.00000000
_symmetry_Int_Tables_number   1
_chemical_formula_structural   Ga2Te2Br7
_chemical_formula_sum   'Ga8 Te8 Br28'
_cell_volume   1604.80230874
_cell_formula_units_Z   4
loop_
 _symmetry_equiv_pos_site_id
 _symmetry_equiv_pos_as_xyz
  1  'x, y, z'
loop_
 _atom_site_type_symbol
 _atom_site_label
 _atom_site_symmetry_multiplicity
 _atom_site_fract_x
 _atom_site_fract_y
 _atom_site_fract_z
 _atom_site_occupancy
  Ga  Ga0  1  0.31464095  0.90520588  0.68165917  1
  Ga  Ga1  1  0.10720284  0.28345867  0.16314689  1
  Ga  Ga2  1  0.81464095  0.09479412  0.81834083  1
  Ga  Ga3  1  0.60720284  0.71654133  0.33685311  1
  Ga  Ga4  1  0.89279716  0.71654133  0.83685311  1
  Ga  Ga5  1  0.39279716  0.28345867  0.66314689  1
  Ga  Ga6  1  0.68535905  0.09479412  0.31834083  1
  Ga  Ga7  1  0.18535905  0.90520588  0.18165917  1
  Te  Te0  1  0.53574061  0.41878103  0.12726286  1
  Te  Te1  1  0.44286418  0.65344247  0.04812847  1
  Te  Te2  1  0.46425939  0.58121897  0.87273714  1
  Te  Te3  1  0.55713582  0.34655753  0.95187153  1
  Te  Te4  1  0.05713582  0.65344247  0.54812847  1
  Te  Te5  1  0.03574061  0.58121897  0.37273714  1
  Te  Te6  1  0.94286418  0.34655753  0.45187153  1
  Te  Te7  1  0.96425939  0.41878103  0.62726286  1
  Br  Br0  1  0.17525215  0.38628783  0.01868839  1
  Br  Br1  1  0.13762069  0.98886916  0.61482294  1
  Br  Br2  1  0.06831569  0.61604105  0.78913535  1
  Br  Br3  1  0.11890247  0.72005727  0.12194240  1
  Br  Br4  1  0.63762069  0.01113084  0.88517706  1
  Br  Br5  1  0.93168431  0.38395895  0.21086465  1
  Br  Br6  1  0.61890247  0.27994273  0.37805760  1
  Br  Br7  1  0.52783364  0.93166753  0.36787838  1
  Br  Br8  1  0.02783364  0.06833247  0.13212162  1
  Br  Br9  1  0.24551359  0.25556525  0.28448407  1
  Br  Br10  1  0.56831569  0.38395895  0.71086465  1
  Br  Br11  1  0.75448641  0.74443475  0.71551593  1
  Br  Br12  1  0.68173243  0.12705348  0.15129685  1
  Br  Br13  1  0.25448641  0.25556525  0.78448407  1
  Br  Br14  1  0.74551359  0.74443475  0.21551593  1
  Br  Br15  1  0.31826757  0.87294652  0.84870315  1
  Br  Br16  1  0.18173243  0.87294652  0.34870315  1
  Br  Br17  1  0.43168431  0.61604105  0.28913535  1
  Br  Br18  1  0.67525215  0.61371217  0.48131161  1
  Br  Br19  1  0.32474785  0.38628783  0.51868839  1
  Br  Br20  1  0.81826757  0.12705348  0.65129685  1
  Br  Br21  1  0.36237931  0.98886916  0.11482294  1
  Br  Br22  1  0.82474785  0.61371217  0.98131161  1
  Br  Br23  1  0.97216636  0.93166753  0.86787838  1
  Br  Br24  1  0.38109753  0.72005727  0.62194240  1
  Br  Br25  1  0.88109753  0.27994273  0.87805760  1
  Br  Br26  1  0.86237931  0.01113084  0.38517706  1
  Br  Br27  1  0.47216636  0.06833247  0.63212162  1
loop_
_geom_bond_atom_site_label_1
_geom_bond_atom_site_label_2
_geom_bond_distance
_geom_bond_site_symmetry_2
Te0 Te1 2.704786 1_555
Te0 Te3 2.711070 1_554
Te1 Te2 2.711070 1_554
Te2 Te3 2.704786 1_555
Te4 Te7 2.704786 1_455
Te4 Te5 2.711070 1_555
Te5 Te6 2.704786 1_455
Te6 Te7 2.711070 1_555
Br0 Ga1 2.289400 1_555
Br1 Ga0 2.300263 1_555
Br2 Ga4 2.358690 1_455
Br3 Ga7 2.314026 1_555
Br4 Ga2 2.300263 1_555
Br5 Ga1 2.358690 1_655
Br6 Ga6 2.314026 1_555
Br7 Ga6 2.455270 1_565
Br7 Ga3 2.477081 1_555
Br8 Ga7 2.455270 1_545
Br8 Ga1 2.477081 1_555
Br9 Ga1 2.297486 1_555
Br10 Ga5 2.358690 1_555
Br11 Ga4 2.297486 1_555
Br12 Ga6 2.343696 1_555
Br13 Ga5 2.297486 1_555
Br14 Ga3 2.297486 1_555
Br15 Ga0 2.343696 1_555
Br16 Ga7 2.343696 1_555
Br17 Ga3 2.358690 1_555
Br18 Ga3 2.289400 1_555
Br19 Ga5 2.289400 1_555
Br20 Ga2 2.343696 1_555
Br21 Ga7 2.300263 1_555
Br22 Ga4 2.289400 1_555
Br23 Ga2 2.455270 1_565
Br23 Ga4 2.477081 1_555
Br24 Ga0 2.314026 1_555
Br25 Ga2 2.314026 1_555
Br26 Ga6 2.300263 1_555
Br27 Ga0 2.455270 1_545
Br27 Ga5 2.477081 1_555
