# generated using pymatgen
data_RbMoPClO5
_symmetry_space_group_name_H-M   'P 1'
_cell_length_a   6.57377400
_cell_length_b   6.57377400
_cell_length_c   7.63772600
_cell_angle_alpha   90.00000000
_cell_angle_beta   90.00000000
_cell_angle_gamma   90.00000000
_symmetry_Int_Tables_number   1
_chemical_formula_structural   RbMoPClO5
_chemical_formula_sum   'Rb2 Mo2 P2 Cl2 O10'
_cell_volume   330.06054538
_cell_formula_units_Z   2
loop_
 _symmetry_equiv_pos_site_id
 _symmetry_equiv_pos_as_xyz
  1  'x, y, z'
loop_
 _atom_site_type_symbol
 _atom_site_label
 _atom_site_symmetry_multiplicity
 _atom_site_fract_x
 _atom_site_fract_y
 _atom_site_fract_z
 _atom_site_occupancy
  Rb  Rb0  1  0.00000000  0.00000000  0.50000000  1
  Rb  Rb1  1  0.50000000  0.50000000  0.50000000  1
  Mo  Mo0  1  0.50000000  0.00000000  0.09075200  1
  Mo  Mo1  1  0.00000000  0.50000000  0.90924800  1
  P  P0  1  0.50000000  0.50000000  0.00000000  1
  P  P1  1  0.00000000  0.00000000  0.00000000  1
  Cl  Cl0  1  0.00000000  0.50000000  0.56739200  1
  Cl  Cl1  1  0.50000000  0.00000000  0.43260800  1
  O  O0  1  0.18687700  0.00000000  0.12380600  1
  O  O1  1  0.50000000  0.31312300  0.12380600  1
  O  O2  1  0.50000000  0.00000000  0.86784600  1
  O  O3  1  0.81312300  0.00000000  0.12380600  1
  O  O4  1  0.31312300  0.50000000  0.87619400  1
  O  O5  1  0.68687700  0.50000000  0.87619400  1
  O  O6  1  0.00000000  0.18687700  0.87619400  1
  O  O7  1  0.50000000  0.68687700  0.12380600  1
  O  O8  1  0.00000000  0.50000000  0.13215400  1
  O  O9  1  0.00000000  0.81312300  0.87619400  1
loop_
_geom_bond_atom_site_label_1
_geom_bond_atom_site_label_2
_geom_bond_distance
_geom_bond_site_symmetry_2
Mo0 O2 1.702495 1_554
Mo0 O3 2.073824 1_555
Mo0 O0 2.073824 1_555
Mo0 O1 2.073824 1_555
Mo0 O7 2.073824 1_545
Mo1 O8 1.702495 1_556
Mo1 O9 2.073824 1_555
Mo1 O5 2.073824 1_455
Mo1 O4 2.073824 1_555
Mo1 O6 2.073824 1_555
Cl0 Mo1 2.611002 1_555
Cl0 Rb0 3.326945 1_565
Cl0 Rb0 3.326945 1_555
Cl0 Rb1 3.326945 1_555
Cl0 Rb1 3.326945 1_455
Cl1 Mo0 2.611002 1_555
Cl1 Rb0 3.326945 1_655
Cl1 Rb1 3.326945 1_545
Cl1 Rb0 3.326945 1_555
Cl1 Rb1 3.326945 1_555
O0 P1 1.550269 1_555
O0 Rb0 3.124875 1_555
O1 P0 1.550269 1_555
O1 Rb1 3.124875 1_555
O3 P1 1.550269 1_655
O3 Rb0 3.124875 1_655
O4 P0 1.550269 1_556
O4 Rb1 3.124875 1_555
O5 P0 1.550269 1_556
O5 Rb1 3.124875 1_555
O6 P1 1.550269 1_556
O6 Rb0 3.124875 1_555
O7 P0 1.550269 1_555
O7 Rb1 3.124875 1_555
O9 P1 1.550269 1_566
O9 Rb0 3.124875 1_565
