# generated using pymatgen
data_BaSiF6
_symmetry_space_group_name_H-M   'P 1'
_cell_length_a   4.76330568
_cell_length_b   4.76330451
_cell_length_c   4.76330531
_cell_angle_alpha   98.12969973
_cell_angle_beta   98.12968872
_cell_angle_gamma   98.12968764
_symmetry_Int_Tables_number   1
_chemical_formula_structural   BaSiF6
_chemical_formula_sum   'Ba1 Si1 F6'
_cell_volume   104.46721476
_cell_formula_units_Z   1
loop_
 _symmetry_equiv_pos_site_id
 _symmetry_equiv_pos_as_xyz
  1  'x, y, z'
loop_
 _atom_site_type_symbol
 _atom_site_label
 _atom_site_symmetry_multiplicity
 _atom_site_fract_x
 _atom_site_fract_y
 _atom_site_fract_z
 _atom_site_occupancy
  Ba  Ba0  1  0.50000000  0.50000000  0.50000000  1
  Si  Si0  1  0.00000000  -0.00000000  0.00000000  1
  F  F0  1  0.74664929  0.74664929  0.07689650  1
  F  F1  1  0.74664929  0.07689650  0.74664929  1
  F  F2  1  0.25335071  0.92310350  0.25335071  1
  F  F3  1  0.25335071  0.25335071  0.92310350  1
  F  F4  1  0.92310350  0.25335071  0.25335071  1
  F  F5  1  0.07689650  0.74664929  0.74664929  1
loop_
_geom_bond_atom_site_label_1
_geom_bond_atom_site_label_2
_geom_bond_distance
_geom_bond_site_symmetry_2
Ba0 F2 2.787706 1_555
Ba0 F1 2.787706 1_555
Ba0 F5 2.787706 1_555
Ba0 F4 2.787706 1_555
Ba0 F3 2.787706 1_555
Ba0 F0 2.787706 1_555
Ba0 F1 2.845201 1_565
Ba0 F2 2.845201 1_545
Ba0 F0 2.845202 1_556
Ba0 F3 2.845202 1_554
Ba0 F5 2.845202 1_655
Ba0 F4 2.845202 1_455
F0 Si0 1.698520 1_665
F1 Si0 1.698521 1_656
F2 Si0 1.698521 1_565
F3 Si0 1.698520 1_556
F4 Si0 1.698520 1_655
F5 Si0 1.698520 1_566
