# generated using pymatgen
data_Hg3AsSe4I
_symmetry_space_group_name_H-M   'P 1'
_cell_length_a   7.88910359
_cell_length_b   7.88910359
_cell_length_c   10.69636900
_cell_angle_alpha   90.00000000
_cell_angle_beta   90.00000000
_cell_angle_gamma   119.99999654
_symmetry_Int_Tables_number   1
_chemical_formula_structural   Hg3AsSe4I
_chemical_formula_sum   'Hg6 As2 Se8 I2'
_cell_volume   576.53057041
_cell_formula_units_Z   2
loop_
 _symmetry_equiv_pos_site_id
 _symmetry_equiv_pos_as_xyz
  1  'x, y, z'
loop_
 _atom_site_type_symbol
 _atom_site_label
 _atom_site_symmetry_multiplicity
 _atom_site_fract_x
 _atom_site_fract_y
 _atom_site_fract_z
 _atom_site_occupancy
  Hg  Hg0  1  0.49811500  0.99623100  0.24138700  1
  Hg  Hg1  1  0.50188500  0.00376900  0.74138700  1
  Hg  Hg2  1  0.00376900  0.50188500  0.24138700  1
  Hg  Hg3  1  0.99623100  0.49811500  0.74138700  1
  Hg  Hg4  1  0.49811500  0.50188500  0.24138700  1
  Hg  Hg5  1  0.50188500  0.49811500  0.74138700  1
  As  As0  1  0.00000000  0.00000000  0.23726100  1
  As  As1  1  0.00000000  0.00000000  0.73726100  1
  Se  Se0  1  0.30269900  0.15134900  0.35911800  1
  Se  Se1  1  0.84865100  0.69730100  0.35911800  1
  Se  Se2  1  0.84865100  0.15134900  0.35911800  1
  Se  Se3  1  0.15134900  0.30269900  0.85911800  1
  Se  Se4  1  0.33333300  0.66666700  0.11486800  1
  Se  Se5  1  0.15134900  0.84865100  0.85911800  1
  Se  Se6  1  0.66666700  0.33333300  0.61486800  1
  Se  Se7  1  0.69730100  0.84865100  0.85911800  1
  I  I0  1  0.33333300  0.66666700  0.53097800  1
  I  I1  1  0.66666700  0.33333300  0.03097800  1
loop_
_geom_bond_atom_site_label_1
_geom_bond_atom_site_label_2
_geom_bond_distance
_geom_bond_site_symmetry_2
Hg0 Se4 2.627026 1_555
Hg0 Se0 2.710473 1_565
Hg0 Se2 2.710485 1_565
Hg0 I1 3.220201 1_565
Hg1 Se6 2.627026 1_555
Hg1 Se7 2.710473 1_545
Hg1 Se5 2.710485 1_545
Hg1 I0 3.220201 1_545
Hg2 Se4 2.627026 1_555
Hg2 Se1 2.710473 1_455
Hg2 Se2 2.710485 1_455
Hg2 I1 3.220201 1_455
Hg3 Se6 2.627026 1_555
Hg3 Se3 2.710473 1_655
Hg3 Se5 2.710485 1_655
Hg3 I0 3.220201 1_655
Hg4 Se4 2.627026 1_555
Hg4 Se0 2.710485 1_555
Hg4 Se1 2.710485 1_555
Hg4 I1 3.220210 1_555
Hg5 Se6 2.627026 1_555
Hg5 Se3 2.710485 1_555
Hg5 Se7 2.710485 1_555
Hg5 I0 3.220210 1_555
As0 Se2 2.444563 1_455
As0 Se0 2.444569 1_555
As0 Se1 2.444569 1_445
As1 Se5 2.444563 1_545
As1 Se3 2.444569 1_555
As1 Se7 2.444569 1_445
