# generated using pymatgen
data_Na2Li3FeO4
_symmetry_space_group_name_H-M   'P 1'
_cell_length_a   6.65344400
_cell_length_b   8.03145900
_cell_length_c   8.38611700
_cell_angle_alpha   90.00000000
_cell_angle_beta   90.00000000
_cell_angle_gamma   90.00000000
_symmetry_Int_Tables_number   1
_chemical_formula_structural   Na2Li3FeO4
_chemical_formula_sum   'Na8 Li12 Fe4 O16'
_cell_volume   448.12778267
_cell_formula_units_Z   4
loop_
 _symmetry_equiv_pos_site_id
 _symmetry_equiv_pos_as_xyz
  1  'x, y, z'
loop_
 _atom_site_type_symbol
 _atom_site_label
 _atom_site_symmetry_multiplicity
 _atom_site_fract_x
 _atom_site_fract_y
 _atom_site_fract_z
 _atom_site_occupancy
  Na  Na0  1  0.00000000  0.25835100  0.75157500  1
  Na  Na1  1  0.00000000  0.74164900  0.24842500  1
  Na  Na2  1  0.50000000  0.75835100  0.74842500  1
  Na  Na3  1  0.50000000  0.24164900  0.25157500  1
  Na  Na4  1  0.74002500  0.50000000  0.00000000  1
  Na  Na5  1  0.75997500  0.00000000  0.50000000  1
  Na  Na6  1  0.25997500  0.50000000  0.00000000  1
  Na  Na7  1  0.24002500  0.00000000  0.50000000  1
  Li  Li0  1  0.75589000  0.48618100  0.35185300  1
  Li  Li1  1  0.75589000  0.51381900  0.64814700  1
  Li  Li2  1  0.74411000  0.98618100  0.14814700  1
  Li  Li3  1  0.74411000  0.01381900  0.85185300  1
  Li  Li4  1  0.24411000  0.51381900  0.64814700  1
  Li  Li5  1  0.24411000  0.48618100  0.35185300  1
  Li  Li6  1  0.25589000  0.01381900  0.85185300  1
  Li  Li7  1  0.25589000  0.98618100  0.14814700  1
  Li  Li8  1  0.00000000  0.26786900  0.41545600  1
  Li  Li9  1  0.00000000  0.73213100  0.58454400  1
  Li  Li10  1  0.50000000  0.76786900  0.08454400  1
  Li  Li11  1  0.50000000  0.23213100  0.91545600  1
  Fe  Fe0  1  0.00000000  0.77393400  0.87690700  1
  Fe  Fe1  1  0.00000000  0.22606600  0.12309300  1
  Fe  Fe2  1  0.50000000  0.27393400  0.62309300  1
  Fe  Fe3  1  0.50000000  0.72606600  0.37690700  1
  O  O0  1  0.00000000  0.56041400  0.77473100  1
  O  O1  1  0.00000000  0.43958600  0.22526900  1
  O  O2  1  0.50000000  0.06041400  0.72526900  1
  O  O3  1  0.50000000  0.93958600  0.27473100  1
  O  O4  1  0.75585200  0.80369400  0.98976000  1
  O  O5  1  0.75585200  0.19630600  0.01024000  1
  O  O6  1  0.74414800  0.30369400  0.51024000  1
  O  O7  1  0.74414800  0.69630600  0.48976000  1
  O  O8  1  0.24414800  0.19630600  0.01024000  1
  O  O9  1  0.24414800  0.80369400  0.98976000  1
  O  O10  1  0.25585200  0.69630600  0.48976000  1
  O  O11  1  0.25585200  0.30369400  0.51024000  1
  O  O12  1  0.00000000  0.95168200  0.72264700  1
  O  O13  1  0.00000000  0.04831800  0.27735300  1
  O  O14  1  0.50000000  0.45168200  0.77735300  1
  O  O15  1  0.50000000  0.54831800  0.22264700  1
loop_
_geom_bond_atom_site_label_1
_geom_bond_atom_site_label_2
_geom_bond_distance
_geom_bond_site_symmetry_2
Na0 O0 2.433766 1_555
Na0 O12 2.474918 1_545
Na0 O6 2.669543 1_455
Na0 O11 2.669543 1_555
Na0 O8 2.755445 1_556
Na0 O5 2.755445 1_456
Na1 O1 2.433766 1_555
Na1 O13 2.474918 1_565
Na1 O7 2.669543 1_455
Na1 O10 2.669543 1_555
Na1 O9 2.755445 1_554
Na1 O4 2.755445 1_454
Na2 O2 2.433766 1_565
Na2 O14 2.474918 1_555
Na2 O9 2.669543 1_555
Na2 O4 2.669543 1_555
Na2 O10 2.755445 1_555
Na2 O7 2.755445 1_555
Na3 O3 2.433766 1_545
Na3 O15 2.474918 1_555
Na3 O8 2.669543 1_555
Na3 O5 2.669543 1_555
Na3 O11 2.755445 1_555
Na3 O6 2.755445 1_555
Na4 O4 2.442888 1_554
Na4 O5 2.442888 1_555
Na4 O15 2.487409 1_555
Na4 O14 2.487409 1_554
Na4 O0 2.606955 1_654
Na4 O1 2.606955 1_655
Na5 O7 2.442888 1_545
Na5 O6 2.442888 1_555
Na5 O13 2.487409 1_655
Na5 O12 2.487409 1_645
Na5 O2 2.606955 1_555
Na5 O3 2.606955 1_545
Na6 O8 2.442888 1_555
Na6 O9 2.442888 1_554
Na6 O15 2.487409 1_555
Na6 O14 2.487409 1_554
Na6 O1 2.606955 1_555
Na6 O0 2.606955 1_554
Na7 O11 2.442888 1_555
Na7 O10 2.442888 1_545
Na7 O12 2.487409 1_545
Na7 O13 2.487409 1_555
Na7 O3 2.606955 1_545
Na7 O2 2.606955 1_555
Li0 O1 1.976073 1_655
Li0 O6 1.979507 1_555
Li0 O7 2.047348 1_555
Li0 O15 2.078889 1_555
Li1 O0 1.976073 1_655
Li1 O7 1.979507 1_555
Li1 O6 2.047348 1_555
Li1 O14 2.078889 1_555
Li2 O3 1.976073 1_555
Li2 O4 1.979507 1_554
Li2 O5 2.047348 1_565
Li2 O13 2.078889 1_665
Li3 O2 1.976073 1_555
Li3 O5 1.979507 1_556
Li3 O4 2.047348 1_545
Li3 O12 2.078889 1_645
Li4 O0 1.976073 1_555
Li4 O10 1.979507 1_555
Li4 O11 2.047348 1_555
Li4 O14 2.078889 1_555
Li5 O1 1.976073 1_555
Li5 O11 1.979507 1_555
Li5 O10 2.047348 1_555
Li5 O15 2.078889 1_555
Li6 O2 1.976073 1_555
Li6 O8 1.979507 1_556
Li6 O9 2.047348 1_545
Li6 O12 2.078889 1_545
Li7 O3 1.976073 1_555
Li7 O9 1.979507 1_554
Li7 O8 2.047348 1_565
Li7 O13 2.078889 1_565
Li8 O6 1.900637 1_455
Li8 O11 1.900637 1_555
Li8 O1 2.108512 1_555
Li8 O13 2.109641 1_555
Li9 O7 1.900637 1_455
Li9 O10 1.900637 1_555
Li9 O0 2.108512 1_555
Li9 O12 2.109641 1_555
Li10 O4 1.900637 1_554
Li10 O9 1.900637 1_554
Li10 O3 2.108512 1_555
Li10 O15 2.109641 1_555
Li11 O8 1.900637 1_556
Li11 O5 1.900637 1_556
Li11 O2 2.108512 1_555
Li11 O14 2.109641 1_555
Fe0 O4 1.895140 1_455
Fe0 O9 1.895140 1_555
Fe0 O0 1.917032 1_555
Fe0 O12 1.926521 1_555
Fe1 O5 1.895140 1_455
Fe1 O8 1.895140 1_555
Fe1 O1 1.917032 1_555
Fe1 O13 1.926521 1_555
Fe2 O11 1.895140 1_555
Fe2 O6 1.895140 1_555
Fe2 O2 1.917032 1_555
Fe2 O14 1.926521 1_555
Fe3 O7 1.895140 1_555
Fe3 O10 1.895140 1_555
Fe3 O3 1.917032 1_555
Fe3 O15 1.926521 1_555
