# generated using pymatgen
data_CaCO3
_symmetry_space_group_name_H-M   'P 1'
_cell_length_a   7.28334989
_cell_length_b   7.28334989
_cell_length_c   25.56781900
_cell_angle_alpha   90.00000000
_cell_angle_beta   90.00000000
_cell_angle_gamma   119.99999902
_symmetry_Int_Tables_number   1
_chemical_formula_structural   CaCO3
_chemical_formula_sum   'Ca18 C18 O54'
_cell_volume   1174.59099522
_cell_formula_units_Z   18
loop_
 _symmetry_equiv_pos_site_id
 _symmetry_equiv_pos_as_xyz
  1  'x, y, z'
loop_
 _atom_site_type_symbol
 _atom_site_label
 _atom_site_symmetry_multiplicity
 _atom_site_fract_x
 _atom_site_fract_y
 _atom_site_fract_z
 _atom_site_occupancy
  Ca  Ca0  1  0.61276400  0.30638200  0.91666700  1
  Ca  Ca1  1  0.99059600  0.00940400  0.58333300  1
  Ca  Ca2  1  0.69361800  0.38723600  0.25000000  1
  Ca  Ca3  1  0.33797500  0.66202500  0.58333300  1
  Ca  Ca4  1  0.69361800  0.30638200  0.58333300  1
  Ca  Ca5  1  0.98119200  0.99059600  0.41666700  1
  Ca  Ca6  1  0.01880800  0.00940400  0.91666700  1
  Ca  Ca7  1  0.99059600  0.98119200  0.25000000  1
  Ca  Ca8  1  0.30638200  0.69361800  0.08333300  1
  Ca  Ca9  1  0.00940400  0.01880800  0.75000000  1
  Ca  Ca10  1  0.66202500  0.32405000  0.75000000  1
  Ca  Ca11  1  0.66202500  0.33797500  0.08333300  1
  Ca  Ca12  1  0.32405000  0.66202500  0.91666700  1
  Ca  Ca13  1  0.00940400  0.99059600  0.08333300  1
  Ca  Ca14  1  0.33797500  0.67595000  0.25000000  1
  Ca  Ca15  1  0.38723600  0.69361800  0.41666700  1
  Ca  Ca16  1  0.67595000  0.33797500  0.41666700  1
  Ca  Ca17  1  0.30638200  0.61276400  0.75000000  1
  C  C0  1  0.04975700  0.67756200  0.33846200  1
  C  C1  1  0.00000000  0.69091200  0.66666700  1
  C  C2  1  0.00000000  0.30908800  0.16666700  1
  C  C3  1  0.32243800  0.37219500  0.00512900  1
  C  C4  1  0.30908800  0.30908800  0.33333300  1
  C  C5  1  0.37219500  0.32243800  0.66153800  1
  C  C6  1  0.67756200  0.04975700  0.32820500  1
  C  C7  1  0.62780500  0.67756200  0.16153800  1
  C  C8  1  0.62780500  0.95024300  0.67179500  1
  C  C9  1  0.69091200  0.00000000  0.00000000  1
  C  C10  1  0.69091200  0.69091200  0.83333300  1
  C  C11  1  0.32243800  0.95024300  0.82820500  1
  C  C12  1  0.04975700  0.37219500  0.49487100  1
  C  C13  1  0.37219500  0.04975700  0.17179500  1
  C  C14  1  0.67756200  0.62780500  0.50512900  1
  C  C15  1  0.95024300  0.62780500  0.99487100  1
  C  C16  1  0.95024300  0.32243800  0.83846200  1
  C  C17  1  0.30908800  0.00000000  0.50000000  1
  O  O0  1  0.68155800  0.96098800  0.37185300  1
  O  O1  1  0.22749000  0.55017600  0.49676500  1
  O  O2  1  0.00000000  0.13074800  0.16666700  1
  O  O3  1  0.13074800  0.13074800  0.33333300  1
  O  O4  1  0.39123900  0.40005200  0.28878900  1
  O  O5  1  0.32268600  0.55017600  0.00323500  1
  O  O6  1  0.72057000  0.68155800  0.20518600  1
  O  O7  1  0.67380500  0.96590300  0.28314500  1
  O  O8  1  0.40005200  0.00881300  0.45545600  1
  O  O9  1  0.44982400  0.67731400  0.16343200  1
  O  O10  1  0.59994800  0.60876100  0.87787800  1
  O  O11  1  0.77251000  0.44982400  0.99676500  1
  O  O12  1  0.44982400  0.77251000  0.66990200  1
  O  O13  1  0.22749000  0.67731400  0.33656800  1
  O  O14  1  0.32268600  0.77251000  0.83009800  1
  O  O15  1  0.55017600  0.22749000  0.16990200  1
  O  O16  1  0.68155800  0.72057000  0.46148000  1
  O  O17  1  0.31844200  0.03901200  0.87185300  1
  O  O18  1  0.59994800  0.99118700  0.95545600  1
  O  O19  1  0.29209800  0.32619500  0.61647800  1
  O  O20  1  0.03409700  0.32619500  0.88352200  1
  O  O21  1  0.67380500  0.70790200  0.55018800  1
  O  O22  1  0.00881300  0.60876100  0.62212200  1
  O  O23  1  0.13074800  0.00000000  0.50000000  1
  O  O24  1  0.27943000  0.96098800  0.12814700  1
  O  O25  1  0.86925200  0.00000000  0.00000000  1
  O  O26  1  0.03901200  0.31844200  0.79481400  1
  O  O27  1  0.67731400  0.44982400  0.50323500  1
  O  O28  1  0.60876100  0.00881300  0.04454400  1
  O  O29  1  0.60876100  0.59994800  0.78878900  1
  O  O30  1  0.00000000  0.86925200  0.66666700  1
  O  O31  1  0.96098800  0.27943000  0.53852000  1
  O  O32  1  0.99118700  0.39123900  0.12212200  1
  O  O33  1  0.39123900  0.99118700  0.54454400  1
  O  O34  1  0.77251000  0.32268600  0.83656800  1
  O  O35  1  0.96590300  0.29209800  0.44981200  1
  O  O36  1  0.32619500  0.03409700  0.78314500  1
  O  O37  1  0.00881300  0.40005200  0.21121100  1
  O  O38  1  0.99118700  0.59994800  0.71121100  1
  O  O39  1  0.96098800  0.68155800  0.29481400  1
  O  O40  1  0.03409700  0.70790200  0.94981200  1
  O  O41  1  0.70790200  0.03409700  0.71685500  1
  O  O42  1  0.29209800  0.96590300  0.21685500  1
  O  O43  1  0.31844200  0.27943000  0.96148000  1
  O  O44  1  0.27943000  0.31844200  0.70518600  1
  O  O45  1  0.86925200  0.86925200  0.83333300  1
  O  O46  1  0.32619500  0.29209800  0.05018800  1
  O  O47  1  0.55017600  0.32268600  0.66343200  1
  O  O48  1  0.70790200  0.67380500  0.11647800  1
  O  O49  1  0.72057000  0.03901200  0.62814700  1
  O  O50  1  0.40005200  0.39123900  0.37787800  1
  O  O51  1  0.96590300  0.67380500  0.38352200  1
  O  O52  1  0.03901200  0.72057000  0.03852000  1
  O  O53  1  0.67731400  0.22749000  0.33009800  1
loop_
_geom_bond_atom_site_label_1
_geom_bond_atom_site_label_2
_geom_bond_distance
_geom_bond_site_symmetry_2
Ca0 O11 2.328876 1_555
Ca0 O34 2.328898 1_555
Ca0 O43 2.350693 1_555
Ca0 O17 2.350706 1_555
Ca0 O10 2.459293 1_555
Ca0 O18 2.459293 1_545
Ca1 O31 2.377243 1_555
Ca1 O49 2.377256 1_555
Ca1 O23 2.378283 1_655
Ca1 O30 2.378306 1_645
Ca1 O21 2.407751 1_545
Ca1 O19 2.407751 1_655
Ca2 O53 2.328876 1_555
Ca2 O15 2.328876 1_555
Ca2 O6 2.350706 1_555
Ca2 O39 2.350706 1_555
Ca2 O4 2.459293 1_555
Ca2 O37 2.459293 1_655
Ca3 O1 2.356815 1_555
Ca3 O12 2.356839 1_555
Ca3 O33 2.439581 1_555
Ca3 O22 2.439581 1_555
Ca3 O19 2.448526 1_555
Ca3 O21 2.448526 1_555
Ca4 O27 2.328876 1_555
Ca4 O47 2.328898 1_555
Ca4 O31 2.350693 1_555
Ca4 O49 2.350706 1_555
Ca4 O22 2.459293 1_655
Ca4 O33 2.459293 1_545
Ca5 O16 2.377244 1_555
Ca5 O0 2.377256 1_555
Ca5 O23 2.378283 1_665
Ca5 O3 2.378306 1_665
Ca5 O35 2.407751 1_565
Ca5 O51 2.407751 1_555
Ca6 O43 2.377244 1_555
Ca6 O17 2.377256 1_555
Ca6 O25 2.378283 1_456
Ca6 O45 2.378306 1_445
Ca6 O40 2.407751 1_545
Ca6 O20 2.407751 1_555
Ca7 O39 2.377256 1_555
Ca7 O6 2.377256 1_555
Ca7 O2 2.378283 1_665
Ca7 O3 2.378283 1_665
Ca7 O42 2.407751 1_655
Ca7 O7 2.407751 1_555
Ca8 O5 2.328876 1_555
Ca8 O9 2.328898 1_555
Ca8 O52 2.350693 1_555
Ca8 O24 2.350706 1_555
Ca8 O28 2.459293 1_565
Ca8 O32 2.459293 1_455
Ca9 O26 2.377256 1_555
Ca9 O44 2.377256 1_555
Ca9 O30 2.378283 1_545
Ca9 O45 2.378283 1_445
Ca9 O41 2.407751 1_455
Ca9 O36 2.407751 1_555
Ca10 O34 2.356815 1_555
Ca10 O47 2.356815 1_555
Ca10 O29 2.439581 1_555
Ca10 O38 2.439581 1_555
Ca10 O41 2.448526 1_555
Ca10 O36 2.448526 1_555
Ca11 O11 2.356815 1_554
Ca11 O15 2.356839 1_555
Ca11 O28 2.439581 1_555
Ca11 O32 2.439581 1_555
Ca11 O46 2.448526 1_555
Ca11 O48 2.448526 1_555
Ca12 O5 2.356815 1_556
Ca12 O14 2.356839 1_555
Ca12 O10 2.439581 1_555
Ca12 O18 2.439581 1_555
Ca12 O40 2.448526 1_555
Ca12 O20 2.448526 1_555
Ca13 O52 2.377243 1_555
Ca13 O24 2.377256 1_555
Ca13 O25 2.378283 1_465
Ca13 O2 2.378306 1_565
Ca13 O46 2.407751 1_565
Ca13 O48 2.407751 1_455
Ca14 O13 2.356815 1_555
Ca14 O9 2.356815 1_555
Ca14 O4 2.439581 1_555
Ca14 O37 2.439581 1_555
Ca14 O42 2.448526 1_555
Ca14 O7 2.448526 1_555
Ca15 O1 2.328876 1_555
Ca15 O13 2.328898 1_555
Ca15 O16 2.350693 1_555
Ca15 O0 2.350706 1_555
Ca15 O50 2.459293 1_555
Ca15 O8 2.459293 1_565
Ca16 O27 2.356815 1_555
Ca16 O53 2.356839 1_555
Ca16 O50 2.439581 1_555
Ca16 O8 2.439581 1_555
Ca16 O35 2.448526 1_555
Ca16 O51 2.448526 1_555
Ca17 O14 2.328876 1_555
Ca17 O12 2.328876 1_555
Ca17 O44 2.350706 1_555
Ca17 O26 2.350706 1_555
Ca17 O29 2.459293 1_555
Ca17 O38 2.459293 1_455
C0 O13 1.296301 1_555
C0 O39 1.297341 1_455
C0 O51 1.297821 1_455
C1 O30 1.298913 1_555
C1 O38 1.302923 1_455
C1 O22 1.302945 1_555
C2 O2 1.298913 1_555
C2 O37 1.302923 1_555
C2 O32 1.302945 1_455
C3 O5 1.296301 1_555
C3 O43 1.297363 1_554
C3 O46 1.297798 1_555
C4 O3 1.298913 1_555
C4 O4 1.302923 1_555
C4 O50 1.302945 1_555
C5 O47 1.296301 1_555
C5 O44 1.297341 1_555
C5 O19 1.297821 1_555
C6 O53 1.296300 1_555
C6 O0 1.297341 1_545
C6 O7 1.297821 1_545
C7 O9 1.296301 1_555
C7 O6 1.297341 1_555
C7 O48 1.297821 1_555
C8 O12 1.296300 1_555
C8 O49 1.297341 1_565
C8 O41 1.297821 1_565
C9 O25 1.298913 1_555
C9 O28 1.302923 1_555
C9 O18 1.302923 1_544
C10 O45 1.298913 1_555
C10 O29 1.302923 1_555
C10 O10 1.302945 1_555
C11 O14 1.296300 1_555
C11 O17 1.297341 1_565
C11 O36 1.297821 1_565
C12 O1 1.296301 1_555
C12 O31 1.297363 1_455
C12 O35 1.297798 1_455
C13 O15 1.296300 1_555
C13 O24 1.297341 1_545
C13 O42 1.297821 1_545
C14 O27 1.296301 1_555
C14 O16 1.297363 1_555
C14 O21 1.297798 1_555
C15 O11 1.296301 1_555
C15 O52 1.297363 1_656
C15 O40 1.297798 1_655
C16 O34 1.296301 1_555
C16 O26 1.297341 1_655
C16 O20 1.297821 1_655
C17 O23 1.298913 1_555
C17 O33 1.302923 1_545
C17 O8 1.302923 1_555
