# generated using pymatgen
data_Na
_symmetry_space_group_name_H-M   'P 1'
_cell_length_a   7.33179338
_cell_length_b   7.33179338
_cell_length_c   7.33179338
_cell_angle_alpha   109.47122063
_cell_angle_beta   109.47122063
_cell_angle_gamma   109.47122063
_symmetry_Int_Tables_number   1
_chemical_formula_structural   Na
_chemical_formula_sum   Na8
_cell_volume   303.39523881
_cell_formula_units_Z   8
loop_
 _symmetry_equiv_pos_site_id
 _symmetry_equiv_pos_as_xyz
  1  'x, y, z'
loop_
 _atom_site_type_symbol
 _atom_site_label
 _atom_site_symmetry_multiplicity
 _atom_site_fract_x
 _atom_site_fract_y
 _atom_site_fract_z
 _atom_site_occupancy
  Na  Na0  1  0.50000000  -0.00000000  0.45133010  1
  Na  Na1  1  0.45133010  0.50000000  -0.00000000  1
  Na  Na2  1  0.00000000  0.95133010  0.50000000  1
  Na  Na3  1  0.95133010  0.50000000  0.00000000  1
  Na  Na4  1  0.00000000  0.45133010  0.50000000  1
  Na  Na5  1  0.50000000  0.00000000  0.95133010  1
  Na  Na6  1  0.54866990  0.54866990  0.54866990  1
  Na  Na7  1  0.04866990  0.04866990  0.04866990  1
loop_
_geom_bond_atom_site_label_1
_geom_bond_atom_site_label_2
_geom_bond_distance
_geom_bond_site_symmetry_2
Na0 Na5 3.665897 1_555
Na0 Na5 3.665897 1_554
Na0 Na2 3.711920 1_545
Na0 Na6 3.711920 1_545
Na0 Na3 3.711920 1_556
Na0 Na3 3.711920 1_445
Na0 Na6 3.711920 1_555
Na0 Na2 3.711920 1_645
Na0 Na7 3.843125 1_555
Na0 Na4 3.843125 1_655
Na0 Na1 3.843125 1_545
Na1 Na3 3.665897 1_555
Na1 Na3 3.665897 1_455
Na1 Na6 3.711920 1_554
Na1 Na5 3.711920 1_554
Na1 Na2 3.711920 1_655
Na1 Na2 3.711920 1_544
Na1 Na6 3.711920 1_555
Na1 Na5 3.711920 1_564
Na1 Na7 3.843125 1_555
Na1 Na4 3.843125 1_554
Na2 Na4 3.665897 1_555
Na2 Na4 3.665897 1_565
Na2 Na7 3.711920 1_565
Na2 Na7 3.711920 1_566
Na2 Na5 3.843125 1_565
Na2 Na6 3.843125 1_455
Na2 Na3 3.843125 1_455
Na3 Na7 3.711920 1_665
Na3 Na4 3.711920 1_655
Na3 Na7 3.711920 1_655
Na3 Na4 3.711920 1_654
Na3 Na5 3.843125 1_554
Na3 Na6 3.843125 1_554
Na4 Na5 3.711920 1_565
Na4 Na6 3.711920 1_455
Na4 Na5 3.711920 1_454
Na4 Na6 3.711920 1_555
Na4 Na7 3.843125 1_555
Na5 Na7 3.711920 1_656
Na5 Na7 3.711920 1_556
Na5 Na6 3.843125 1_545
Na6 Na7 3.665897 1_666
Na6 Na7 3.665897 1_555
