# generated using pymatgen
data_ZrF4
_symmetry_space_group_name_H-M   'P 1'
_cell_length_a   7.72817380
_cell_length_b   7.90661134
_cell_length_c   7.90661134
_cell_angle_alpha   90.00000000
_cell_angle_beta   90.00000000
_cell_angle_gamma   90.00000000
_symmetry_Int_Tables_number   1
_chemical_formula_structural   ZrF4
_chemical_formula_sum   'Zr8 F32'
_cell_volume   483.12294335
_cell_formula_units_Z   8
loop_
 _symmetry_equiv_pos_site_id
 _symmetry_equiv_pos_as_xyz
  1  'x, y, z'
loop_
 _atom_site_type_symbol
 _atom_site_label
 _atom_site_symmetry_multiplicity
 _atom_site_fract_x
 _atom_site_fract_y
 _atom_site_fract_z
 _atom_site_occupancy
  Zr  Zr0  1  0.76967847  0.18263160  0.31932868  1
  Zr  Zr1  1  0.23032153  0.81736840  0.68067132  1
  Zr  Zr2  1  0.23032153  0.18263160  0.31932868  1
  Zr  Zr3  1  0.73032153  0.31932868  0.81736840  1
  Zr  Zr4  1  0.76967847  0.81736840  0.68067132  1
  Zr  Zr5  1  0.73032153  0.68067132  0.18263160  1
  Zr  Zr6  1  0.26967847  0.68067132  0.18263160  1
  Zr  Zr7  1  0.26967847  0.31932868  0.81736840  1
  F  F0  1  0.50000000  0.29107038  0.67118753  1
  F  F1  1  0.80775548  0.71149887  0.44019458  1
  F  F2  1  0.21231847  0.20309587  0.06259749  1
  F  F3  1  0.19224452  0.28850113  0.55980542  1
  F  F4  1  0.28768153  0.06259749  0.79690413  1
  F  F5  1  0.69224452  0.44019458  0.28850113  1
  F  F6  1  0.70095423  -0.00000000  0.50000000  1
  F  F7  1  0.71231847  0.93740251  0.20309587  1
  F  F8  1  -0.00000000  0.96216844  0.66450228  1
  F  F9  1  0.78768153  0.20309587  0.06259749  1
  F  F10  1  0.79904577  0.50000000  0.00000000  1
  F  F11  1  0.78768153  0.79690413  0.93740251  1
  F  F12  1  0.28768153  0.93740251  0.20309587  1
  F  F13  1  0.20095423  0.50000000  0.00000000  1
  F  F14  1  -0.00000000  0.03783156  0.33549772  1
  F  F15  1  0.69224452  0.55980542  0.71149887  1
  F  F16  1  0.71231847  0.06259749  0.79690413  1
  F  F17  1  0.80775548  0.28850113  0.55980542  1
  F  F18  1  -0.00000000  0.69550906  0.18160340  1
  F  F19  1  0.50000000  0.33549772  0.96216844  1
  F  F20  1  -0.00000000  0.67118753  0.70892962  1
  F  F21  1  0.50000000  0.66450228  0.03783156  1
  F  F22  1  0.50000000  0.18160340  0.30449094  1
  F  F23  1  0.21231847  0.79690413  0.93740251  1
  F  F24  1  -0.00000000  0.30449094  0.81839660  1
  F  F25  1  0.30775548  0.44019458  0.28850113  1
  F  F26  1  -0.00000000  0.32881247  0.29107038  1
  F  F27  1  0.29904577  -0.00000000  0.50000000  1
  F  F28  1  0.30775548  0.55980542  0.71149887  1
  F  F29  1  0.50000000  0.81839660  0.69550906  1
  F  F30  1  0.19224452  0.71149887  0.44019458  1
  F  F31  1  0.50000000  0.70892962  0.32881247  1
loop_
_geom_bond_atom_site_label_1
_geom_bond_atom_site_label_2
_geom_bond_distance
_geom_bond_site_symmetry_2
F0 Zr3 2.134024 1_555
F0 Zr7 2.134024 1_555
F1 Zr4 2.098197 1_555
F1 Zr5 2.136504 1_555
F2 Zr2 2.041060 1_555
F2 Zr7 2.191012 1_554
F3 Zr2 2.098197 1_555
F3 Zr7 2.136504 1_555
F4 Zr7 2.041060 1_555
F4 Zr1 2.191012 1_545
F5 Zr5 2.098197 1_555
F5 Zr0 2.136504 1_555
F6 Zr4 2.099480 1_545
F6 Zr0 2.099480 1_555
F7 Zr5 2.041060 1_555
F7 Zr0 2.191012 1_565
F8 Zr1 2.120227 1_555
F8 Zr4 2.120227 1_455
F9 Zr0 2.041060 1_555
F9 Zr3 2.191012 1_554
F10 Zr3 2.099480 1_554
F10 Zr5 2.099480 1_555
F11 Zr4 2.041060 1_555
F11 Zr5 2.191012 1_556
F12 Zr6 2.041060 1_555
F12 Zr2 2.191012 1_565
F13 Zr7 2.099480 1_554
F13 Zr6 2.099480 1_555
F14 Zr0 2.120227 1_455
F14 Zr2 2.120227 1_555
F15 Zr3 2.098197 1_555
F15 Zr4 2.136504 1_555
F16 Zr3 2.041060 1_555
F16 Zr4 2.191012 1_545
F17 Zr0 2.098197 1_555
F17 Zr3 2.136504 1_555
F18 Zr5 2.087437 1_455
F18 Zr6 2.087437 1_555
F19 Zr3 2.120227 1_555
F19 Zr7 2.120227 1_555
F20 Zr1 2.134024 1_555
F20 Zr4 2.134024 1_455
F21 Zr5 2.120227 1_555
F21 Zr6 2.120227 1_555
F22 Zr0 2.087437 1_555
F22 Zr2 2.087437 1_555
F23 Zr1 2.041060 1_555
F23 Zr6 2.191012 1_556
F24 Zr7 2.087437 1_555
F24 Zr3 2.087437 1_455
F25 Zr6 2.098197 1_555
F25 Zr2 2.136504 1_555
F26 Zr0 2.134024 1_455
F26 Zr2 2.134024 1_555
F27 Zr2 2.099480 1_555
F27 Zr1 2.099480 1_545
F28 Zr7 2.098197 1_555
F28 Zr1 2.136504 1_555
F29 Zr4 2.087437 1_555
F29 Zr1 2.087437 1_555
F30 Zr1 2.098197 1_555
F30 Zr6 2.136504 1_555
F31 Zr5 2.134024 1_555
F31 Zr6 2.134024 1_555
