# generated using pymatgen
data_Na2FeNiF7
_symmetry_space_group_name_H-M   'P 1'
_cell_length_a   7.40564777
_cell_length_b   7.40564777
_cell_length_c   7.40564777
_cell_angle_alpha   120.92559149
_cell_angle_beta   118.56861352
_cell_angle_gamma   90.45061935
_symmetry_Int_Tables_number   1
_chemical_formula_structural   Na2FeNiF7
_chemical_formula_sum   'Na4 Fe2 Ni2 F14'
_cell_volume   288.13035650
_cell_formula_units_Z   2
loop_
 _symmetry_equiv_pos_site_id
 _symmetry_equiv_pos_as_xyz
  1  'x, y, z'
loop_
 _atom_site_type_symbol
 _atom_site_label
 _atom_site_symmetry_multiplicity
 _atom_site_fract_x
 _atom_site_fract_y
 _atom_site_fract_z
 _atom_site_occupancy
  Na  Na0  1  0.48985300  0.75040200  0.24025500  1
  Na  Na1  1  0.99543700  0.24629700  0.74913900  1
  Na  Na2  1  0.48985300  0.24959800  0.73945100  1
  Na  Na3  1  0.50284200  0.75370300  0.74913900  1
  Fe  Fe0  1  0.99761900  0.74986500  0.24775400  1
  Fe  Fe1  1  0.49788900  0.25013500  0.24775400  1
  Ni  Ni0  1  0.99819100  0.74946300  0.74765400  1
  Ni  Ni1  1  0.99819100  0.25053700  0.24872700  1
  F  F0  1  0.31833100  0.93489300  0.98445400  1
  F  F1  1  0.63412100  0.15728300  0.47683900  1
  F  F2  1  0.10093700  0.50000000  0.60093700  1
  F  F3  1  0.94781800  0.83367600  0.51210900  1
  F  F4  1  0.35924600  0.34128000  0.01796500  1
  F  F5  1  0.04956000  0.66612200  0.98445400  1
  F  F6  1  0.94781800  0.43570900  0.11414300  1
  F  F7  1  0.04956000  0.06510700  0.38343800  1
  F  F8  1  0.31833100  0.33387800  0.38343800  1
  F  F9  1  0.31955600  0.84271700  0.47683900  1
  F  F10  1  0.67668500  0.65872000  0.01796500  1
  F  F11  1  0.89669300  0.00000000  0.89669300  1
  F  F12  1  0.67843400  0.16632400  0.11414300  1
  F  F13  1  0.67843400  0.56429100  0.51210900  1
loop_
_geom_bond_atom_site_label_1
_geom_bond_atom_site_label_2
_geom_bond_distance
_geom_bond_site_symmetry_2
F0 Fe1 1.952663 1_566
F0 Ni0 2.019668 1_455
F0 Na3 2.570465 1_555
F0 Na0 2.730389 1_556
F1 Fe1 1.985408 1_555
F1 Na1 2.259655 1_555
F1 Na2 2.454245 1_555
F1 Na0 2.454251 1_545
F2 Ni0 1.980446 1_455
F2 Ni1 1.980451 1_455
F2 Na1 2.874294 1_455
F2 Na3 2.874298 1_555
F3 Fe0 1.949138 1_555
F3 Ni0 2.017516 1_555
F3 Na1 2.533936 1_565
F3 Na0 2.845429 1_555
F4 Fe1 1.981452 1_555
F4 Na1 2.262281 1_454
F4 Na2 2.475825 1_554
F4 Na0 2.475830 1_555
F5 Fe0 1.952657 1_456
F5 Ni0 2.019676 1_455
F5 Na1 2.570462 1_455
F5 Na0 2.730394 1_556
F6 Fe0 1.949139 1_555
F6 Ni1 2.017505 1_555
F6 Na1 2.533949 1_554
F6 Na2 2.845431 1_554
F7 Fe0 1.952664 1_445
F7 Ni1 2.019674 1_455
F7 Na1 2.570456 1_455
F7 Na2 2.730395 1_555
F8 Fe1 1.952664 1_555
F8 Ni1 2.019667 1_455
F8 Na3 2.570460 1_555
F8 Na2 2.730395 1_555
F9 Fe0 1.985408 1_455
F9 Na3 2.259643 1_555
F9 Na2 2.454251 1_565
F9 Na0 2.454251 1_555
F10 Fe0 1.981453 1_555
F10 Na3 2.262281 1_554
F10 Na2 2.475831 1_554
F10 Na0 2.475831 1_555
F11 Ni1 1.983984 1_556
F11 Ni0 1.983988 1_545
F11 Na3 2.801364 1_545
F11 Na1 2.801367 1_555
F12 Fe1 1.949140 1_555
F12 Ni1 2.017512 1_555
F12 Na3 2.533939 1_544
F12 Na2 2.845436 1_554
F13 Fe1 1.949139 1_555
F13 Ni0 2.017510 1_555
F13 Na3 2.533944 1_555
F13 Na0 2.845431 1_555
