# generated using pymatgen
data_Dy2Zn17
_symmetry_space_group_name_H-M   'P 1'
_cell_length_a   8.84631122
_cell_length_b   8.84631075
_cell_length_c   8.65683410
_cell_angle_alpha   90.00000000
_cell_angle_beta   90.00000000
_cell_angle_gamma   120.00000177
_symmetry_Int_Tables_number   1
_chemical_formula_structural   Dy2Zn17
_chemical_formula_sum   'Dy4 Zn34'
_cell_volume   586.69734611
_cell_formula_units_Z   2
loop_
 _symmetry_equiv_pos_site_id
 _symmetry_equiv_pos_as_xyz
  1  'x, y, z'
loop_
 _atom_site_type_symbol
 _atom_site_label
 _atom_site_symmetry_multiplicity
 _atom_site_fract_x
 _atom_site_fract_y
 _atom_site_fract_z
 _atom_site_occupancy
  Dy  Dy0  1  -0.00000000  -0.00000000  0.25000000  1
  Dy  Dy1  1  -0.00000000  -0.00000000  0.75000000  1
  Dy  Dy2  1  0.66666700  0.33333300  0.25000000  1
  Dy  Dy3  1  0.33333300  0.66666700  0.75000000  1
  Zn  Zn0  1  0.03960204  0.67123785  0.25000000  1
  Zn  Zn1  1  0.96039796  0.63163580  0.75000000  1
  Zn  Zn2  1  0.50000000  -0.00000000  0.50000000  1
  Zn  Zn3  1  0.50000000  0.50000000  0.50000000  1
  Zn  Zn4  1  0.63163580  0.67123785  0.25000000  1
  Zn  Zn5  1  0.32399291  0.16199595  0.02052069  1
  Zn  Zn6  1  0.16199595  0.32399291  0.52052069  1
  Zn  Zn7  1  0.03960204  0.36836420  0.25000000  1
  Zn  Zn8  1  0.83800405  0.16199595  0.02052069  1
  Zn  Zn9  1  0.33333300  0.66666700  0.39818874  1
  Zn  Zn10  1  0.67123785  0.03960204  0.75000000  1
  Zn  Zn11  1  0.66666700  0.33333300  0.89818774  1
  Zn  Zn12  1  0.32876215  0.36836420  0.25000000  1
  Zn  Zn13  1  0.67600709  0.83800405  0.97947931  1
  Zn  Zn14  1  0.36836420  0.03960204  0.75000000  1
  Zn  Zn15  1  0.83800405  0.16199595  0.47947931  1
  Zn  Zn16  1  0.32399291  0.16199595  0.47947931  1
  Zn  Zn17  1  0.36836420  0.32876215  0.75000000  1
  Zn  Zn18  1  0.96039796  0.32876215  0.75000000  1
  Zn  Zn19  1  0.67123785  0.63163580  0.75000000  1
  Zn  Zn20  1  0.83800405  0.67600709  0.47947931  1
  Zn  Zn21  1  0.16199595  0.32399291  0.97947931  1
  Zn  Zn22  1  0.83800405  0.67600709  0.02052069  1
  Zn  Zn23  1  0.66666700  0.33333300  0.60181226  1
  Zn  Zn24  1  0.67600709  0.83800405  0.52052069  1
  Zn  Zn25  1  -0.00000000  0.50000000  0.00000000  1
  Zn  Zn26  1  0.33333300  0.66666700  0.10181126  1
  Zn  Zn27  1  0.63163580  0.96039796  0.25000000  1
  Zn  Zn28  1  0.16199595  0.83800405  0.97947931  1
  Zn  Zn29  1  0.32876215  0.96039796  0.25000000  1
  Zn  Zn30  1  0.50000000  0.50000000  0.00000000  1
  Zn  Zn31  1  0.16199595  0.83800405  0.52052069  1
  Zn  Zn32  1  -0.00000000  0.50000000  0.50000000  1
  Zn  Zn33  1  0.50000000  -0.00000000  0.00000000  1
loop_
_geom_bond_atom_site_label_1
_geom_bond_atom_site_label_2
_geom_bond_distance
_geom_bond_site_symmetry_2
Dy0 Zn0 3.098388 1_545
Dy0 Zn12 3.098388 1_555
Dy0 Zn7 3.098388 1_555
Dy0 Zn4 3.098388 1_445
Dy0 Zn29 3.098388 1_545
Dy0 Zn27 3.098389 1_445
Dy0 Zn8 3.179226 1_455
Dy0 Zn15 3.179226 1_455
Dy0 Zn20 3.179232 1_445
Dy0 Zn22 3.179232 1_445
Dy0 Zn5 3.179232 1_555
Dy0 Zn16 3.179232 1_555
Dy0 Zn31 3.412523 1_545
Dy0 Zn28 3.412523 1_544
Dy0 Zn21 3.412529 1_554
Dy0 Zn6 3.412529 1_555
Dy0 Zn13 3.412529 1_444
Dy0 Zn24 3.412529 1_445
Dy1 Zn18 3.098388 1_455
Dy1 Zn19 3.098388 1_445
Dy1 Zn1 3.098388 1_445
Dy1 Zn17 3.098388 1_555
Dy1 Zn10 3.098388 1_455
Dy1 Zn14 3.098389 1_555
Dy1 Zn31 3.179226 1_545
Dy1 Zn28 3.179226 1_545
Dy1 Zn6 3.179232 1_555
Dy1 Zn21 3.179232 1_555
Dy1 Zn13 3.179232 1_445
Dy1 Zn24 3.179232 1_445
Dy1 Zn8 3.412523 1_456
Dy1 Zn15 3.412523 1_455
Dy1 Zn22 3.412529 1_446
Dy1 Zn20 3.412529 1_445
Dy1 Zn5 3.412529 1_556
Dy1 Zn16 3.412529 1_555
Dy2 Zn11 3.045580 1_554
Dy2 Zn23 3.045580 1_555
Dy2 Zn27 3.155584 1_545
Dy2 Zn7 3.155584 1_655
Dy2 Zn29 3.155588 1_545
Dy2 Zn0 3.155588 1_655
Dy2 Zn4 3.155593 1_555
Dy2 Zn12 3.155593 1_555
Dy2 Zn22 3.292185 1_555
Dy2 Zn20 3.292185 1_555
Dy2 Zn16 3.292185 1_555
Dy2 Zn5 3.292185 1_555
Dy2 Zn8 3.292185 1_555
Dy2 Zn15 3.292185 1_555
Dy2 Zn33 3.347420 1_555
Dy2 Zn2 3.347420 1_555
Dy2 Zn25 3.347420 1_655
Dy2 Zn32 3.347420 1_655
Dy2 Zn30 3.347426 1_555
Dy2 Zn3 3.347426 1_555
Dy3 Zn9 3.045572 1_555
Dy3 Zn26 3.045572 1_556
Dy3 Zn14 3.155584 1_565
Dy3 Zn1 3.155584 1_455
Dy3 Zn10 3.155588 1_565
Dy3 Zn18 3.155588 1_455
Dy3 Zn17 3.155593 1_555
Dy3 Zn19 3.155593 1_555
Dy3 Zn6 3.292185 1_555
Dy3 Zn21 3.292185 1_555
Dy3 Zn13 3.292185 1_555
Dy3 Zn24 3.292185 1_555
Dy3 Zn28 3.292185 1_555
Dy3 Zn31 3.292185 1_555
Dy3 Zn2 3.347420 1_565
Dy3 Zn33 3.347420 1_566
Dy3 Zn32 3.347420 1_555
Dy3 Zn25 3.347420 1_556
Dy3 Zn30 3.347426 1_556
Dy3 Zn3 3.347426 1_555
Zn0 Zn29 2.558000 1_555
Zn0 Zn25 2.563304 1_555
Zn0 Zn32 2.563304 1_555
Zn0 Zn7 2.679314 1_555
Zn0 Zn20 2.684021 1_455
Zn0 Zn22 2.684021 1_455
Zn0 Zn28 2.689921 1_554
Zn0 Zn31 2.689921 1_555
Zn0 Zn9 2.916207 1_555
Zn0 Zn26 2.916207 1_555
Zn1 Zn19 2.558000 1_555
Zn1 Zn25 2.563304 1_656
Zn1 Zn32 2.563304 1_655
Zn1 Zn18 2.679314 1_555
Zn1 Zn31 2.684024 1_655
Zn1 Zn28 2.684024 1_655
Zn1 Zn22 2.689918 1_556
Zn1 Zn20 2.689918 1_555
Zn1 Zn23 2.916207 1_555
Zn1 Zn11 2.916207 1_555
Zn2 Zn27 2.563304 1_545
Zn2 Zn29 2.563304 1_545
Zn2 Zn24 2.596311 1_545
Zn2 Zn31 2.596319 1_545
Zn2 Zn9 2.701522 1_545
Zn2 Zn23 2.701525 1_555
Zn3 Zn4 2.563304 1_555
Zn3 Zn6 2.596319 1_555
Zn3 Zn9 2.701530 1_555
Zn4 Zn9 2.916215 1_555
Zn6 Zn7 2.689918 1_555
Zn6 Zn9 2.830820 1_555
Zn7 Zn8 2.684024 1_455
Zn7 Zn9 2.916211 1_555
Zn10 Zn18 2.558000 1_555
Zn10 Zn33 2.563304 1_556
Zn10 Zn2 2.563304 1_555
Zn10 Zn14 2.679315 1_555
Zn10 Zn24 2.684021 1_545
Zn10 Zn13 2.684021 1_545
Zn10 Zn8 2.689921 1_556
Zn10 Zn15 2.689921 1_555
Zn10 Zn11 2.916203 1_555
Zn10 Zn23 2.916203 1_555
Zn11 Zn23 2.565673 1_555
Zn11 Zn33 2.701525 1_556
Zn11 Zn25 2.701525 1_656
Zn11 Zn30 2.701532 1_556
Zn11 Zn22 2.830823 1_556
Zn11 Zn5 2.830824 1_556
Zn11 Zn8 2.830824 1_556
Zn11 Zn18 2.916203 1_555
Zn11 Zn14 2.916207 1_555
Zn11 Zn19 2.916211 1_555
Zn11 Zn17 2.916211 1_555
Zn12 Zn7 2.558000 1_555
Zn12 Zn30 2.563304 1_555
Zn12 Zn3 2.563304 1_555
Zn12 Zn4 2.679314 1_555
Zn12 Zn5 2.684027 1_555
Zn12 Zn16 2.684027 1_555
Zn12 Zn21 2.689922 1_554
Zn12 Zn6 2.689922 1_555
Zn12 Zn9 2.916215 1_555
Zn12 Zn26 2.916215 1_555
Zn13 Zn8 2.507443 1_566
Zn13 Zn22 2.507458 1_556
Zn13 Zn33 2.596311 1_566
Zn13 Zn30 2.596319 1_556
Zn13 Zn19 2.684027 1_555
Zn13 Zn27 2.689918 1_556
Zn13 Zn4 2.689922 1_556
Zn13 Zn26 2.830820 1_556
Zn14 Zn17 2.558000 1_555
Zn14 Zn33 2.563304 1_556
Zn14 Zn2 2.563304 1_555
Zn14 Zn28 2.684024 1_545
Zn14 Zn31 2.684024 1_545
Zn14 Zn5 2.689918 1_556
Zn14 Zn16 2.689918 1_555
Zn14 Zn23 2.916207 1_555
Zn15 Zn24 2.507443 1_545
Zn15 Zn6 2.507443 1_655
Zn15 Zn32 2.596319 1_655
Zn15 Zn2 2.596319 1_555
Zn15 Zn7 2.684024 1_655
Zn15 Zn27 2.684024 1_545
Zn15 Zn18 2.689921 1_555
Zn15 Zn23 2.830824 1_555
Zn16 Zn31 2.507443 1_545
Zn16 Zn6 2.507458 1_555
Zn16 Zn2 2.596311 1_555
Zn16 Zn3 2.596319 1_555
Zn16 Zn29 2.684021 1_545
Zn16 Zn17 2.689922 1_555
Zn16 Zn23 2.830824 1_555
Zn17 Zn30 2.563304 1_556
Zn17 Zn3 2.563304 1_555
Zn17 Zn19 2.679314 1_555
Zn17 Zn21 2.684027 1_555
Zn17 Zn6 2.684027 1_555
Zn17 Zn5 2.689922 1_556
Zn17 Zn23 2.916211 1_555
Zn18 Zn32 2.563304 1_655
Zn18 Zn25 2.563304 1_656
Zn18 Zn6 2.684021 1_655
Zn18 Zn21 2.684021 1_655
Zn18 Zn8 2.689921 1_556
Zn18 Zn23 2.916203 1_555
Zn19 Zn3 2.563304 1_555
Zn19 Zn30 2.563304 1_556
Zn19 Zn24 2.684027 1_555
Zn19 Zn22 2.689922 1_556
Zn19 Zn20 2.689922 1_555
Zn19 Zn23 2.916211 1_555
Zn20 Zn31 2.507443 1_655
Zn20 Zn24 2.507458 1_555
Zn20 Zn32 2.596311 1_655
Zn20 Zn3 2.596319 1_555
Zn20 Zn4 2.684027 1_555
Zn20 Zn23 2.830823 1_555
Zn21 Zn8 2.507443 1_456
Zn21 Zn5 2.507458 1_556
Zn21 Zn25 2.596311 1_556
Zn21 Zn30 2.596319 1_556
Zn21 Zn7 2.689918 1_556
Zn21 Zn26 2.830820 1_556
Zn22 Zn28 2.507443 1_654
Zn22 Zn25 2.596311 1_655
Zn22 Zn30 2.596319 1_555
Zn22 Zn4 2.684027 1_555
Zn23 Zn32 2.701525 1_655
Zn23 Zn3 2.701532 1_555
Zn24 Zn3 2.596319 1_555
Zn24 Zn27 2.689918 1_555
Zn24 Zn4 2.689922 1_555
Zn24 Zn9 2.830820 1_555
Zn25 Zn7 2.563304 1_555
Zn25 Zn8 2.596319 1_455
Zn25 Zn28 2.596319 1_554
Zn25 Zn26 2.701522 1_555
Zn26 Zn9 2.565691 1_555
Zn26 Zn33 2.701522 1_565
Zn26 Zn30 2.701530 1_555
Zn26 Zn28 2.830820 1_554
Zn26 Zn29 2.916207 1_555
Zn26 Zn7 2.916211 1_555
Zn26 Zn27 2.916211 1_555
Zn26 Zn4 2.916215 1_555
Zn27 Zn4 2.558000 1_555
Zn27 Zn33 2.563304 1_565
Zn27 Zn29 2.679315 1_555
Zn27 Zn8 2.684024 1_565
Zn27 Zn9 2.916211 1_555
Zn28 Zn5 2.507443 1_566
Zn28 Zn33 2.596319 1_566
Zn28 Zn29 2.689921 1_556
Zn29 Zn33 2.563304 1_565
Zn29 Zn5 2.684021 1_565
Zn29 Zn31 2.689921 1_555
Zn29 Zn9 2.916207 1_555
Zn30 Zn4 2.563304 1_555
Zn30 Zn5 2.596319 1_555
Zn31 Zn32 2.596319 1_555
Zn31 Zn9 2.830820 1_555
Zn32 Zn7 2.563304 1_555
Zn32 Zn6 2.596311 1_555
Zn32 Zn9 2.701522 1_555
Zn33 Zn5 2.596311 1_555
Zn33 Zn8 2.596319 1_555
