# generated using pymatgen
data_GdNiSb
_symmetry_space_group_name_H-M   'P 1'
_cell_length_a   4.50746409
_cell_length_b   4.50746409
_cell_length_c   4.50746393
_cell_angle_alpha   60.00000881
_cell_angle_beta   60.00000885
_cell_angle_gamma   60.00000162
_symmetry_Int_Tables_number   1
_chemical_formula_structural   GdNiSb
_chemical_formula_sum   'Gd1 Ni1 Sb1'
_cell_volume   64.75627769
_cell_formula_units_Z   1
loop_
 _symmetry_equiv_pos_site_id
 _symmetry_equiv_pos_as_xyz
  1  'x, y, z'
loop_
 _atom_site_type_symbol
 _atom_site_label
 _atom_site_symmetry_multiplicity
 _atom_site_fract_x
 _atom_site_fract_y
 _atom_site_fract_z
 _atom_site_occupancy
  Gd  Gd0  1  0.50000000  0.50000000  0.50000000  1
  Ni  Ni0  1  0.25000000  0.25000000  0.25000000  1
  Sb  Sb0  1  -0.00000000  -0.00000000  -0.00000000  1
loop_
_geom_bond_atom_site_label_1
_geom_bond_atom_site_label_2
_geom_bond_distance
_geom_bond_site_symmetry_2
Gd0 Ni0 2.760247 1_555
Gd0 Ni0 2.760247 1_655
Gd0 Ni0 2.760247 1_565
Gd0 Ni0 2.760247 1_556
Gd0 Sb0 3.187258 1_565
Gd0 Sb0 3.187258 1_656
Gd0 Sb0 3.187258 1_655
Gd0 Sb0 3.187258 1_566
Gd0 Sb0 3.187259 1_556
Gd0 Sb0 3.187259 1_665
Ni0 Sb0 2.760247 1_555
Ni0 Sb0 2.760247 1_655
Ni0 Sb0 2.760247 1_565
Ni0 Sb0 2.760247 1_556
