# generated using pymatgen
data_ScH24C3S3(N3O5)3
_symmetry_space_group_name_H-M   'P 1'
_cell_length_a   11.76330566
_cell_length_b   11.76330566
_cell_length_c   11.76330538
_cell_angle_alpha   112.72751294
_cell_angle_beta   112.72751294
_cell_angle_gamma   112.72750697
_symmetry_Int_Tables_number   1
_chemical_formula_structural   ScH24C3S3(N3O5)3
_chemical_formula_sum   'Sc2 H48 C6 S6 N18 O30'
_cell_volume   1075.87644757
_cell_formula_units_Z   2
loop_
 _symmetry_equiv_pos_site_id
 _symmetry_equiv_pos_as_xyz
  1  'x, y, z'
loop_
 _atom_site_type_symbol
 _atom_site_label
 _atom_site_symmetry_multiplicity
 _atom_site_fract_x
 _atom_site_fract_y
 _atom_site_fract_z
 _atom_site_occupancy
  Sc  Sc0  1  0.50000000  0.50000000  0.50000000  1
  Sc  Sc1  1  0.00000000  0.00000000  0.00000000  1
  H  H0  1  0.00063600  0.77041600  0.40467700  1
  H  H1  1  0.34564100  0.20570000  0.56454600  1
  H  H2  1  0.01619100  0.66948200  0.05205600  1
  H  H3  1  0.43545400  0.65435900  0.79430000  1
  H  H4  1  0.25347400  0.17223800  0.64827500  1
  H  H5  1  0.18579800  0.84052900  0.18770700  1
  H  H6  1  0.33570600  0.46375700  0.95100400  1
  H  H7  1  0.35172500  0.74652600  0.82776200  1
  H  H8  1  0.66429400  0.53624300  0.04899600  1
  H  H9  1  0.05205600  0.01619100  0.66948200  1
  H  H10  1  0.98380900  0.33051800  0.94794400  1
  H  H11  1  0.12325000  0.56342400  0.49475800  1
  H  H12  1  0.20570000  0.56454600  0.34564100  1
  H  H13  1  0.99936400  0.22958400  0.59532300  1
  H  H14  1  0.64827500  0.25347400  0.17223800  1
  H  H15  1  0.84052900  0.18770700  0.18579800  1
  H  H16  1  0.93396300  0.23213900  0.70750100  1
  H  H17  1  0.46375700  0.95100400  0.33570600  1
  H  H18  1  0.79430000  0.43545400  0.65435900  1
  H  H19  1  0.04899600  0.66429400  0.53624300  1
  H  H20  1  0.23213900  0.70750100  0.93396300  1
  H  H21  1  0.94794400  0.98380900  0.33051800  1
  H  H22  1  0.66948200  0.05205600  0.01619100  1
  H  H23  1  0.56342400  0.49475800  0.12325000  1
  H  H24  1  0.29249900  0.06603700  0.76786100  1
  H  H25  1  0.76786100  0.29249900  0.06603700  1
  H  H26  1  0.81229300  0.81420200  0.15947100  1
  H  H27  1  0.06603700  0.76786100  0.29249900  1
  H  H28  1  0.50524200  0.87675000  0.43657600  1
  H  H29  1  0.87675000  0.43657600  0.50524200  1
  H  H30  1  0.15947100  0.81229300  0.81420200  1
  H  H31  1  0.33051800  0.94794400  0.98380900  1
  H  H32  1  0.43657600  0.50524200  0.87675000  1
  H  H33  1  0.18770700  0.18579800  0.84052900  1
  H  H34  1  0.95100400  0.33570600  0.46375700  1
  H  H35  1  0.56454600  0.34564100  0.20570000  1
  H  H36  1  0.77041600  0.40467700  0.00063600  1
  H  H37  1  0.17223800  0.64827500  0.25347400  1
  H  H38  1  0.74652600  0.82776200  0.35172500  1
  H  H39  1  0.82776200  0.35172500  0.74652600  1
  H  H40  1  0.65435900  0.79430000  0.43545400  1
  H  H41  1  0.22958400  0.59532300  0.99936400  1
  H  H42  1  0.70750100  0.93396300  0.23213900  1
  H  H43  1  0.53624300  0.04899600  0.66429400  1
  H  H44  1  0.49475800  0.12325000  0.56342400  1
  H  H45  1  0.81420200  0.15947100  0.81229300  1
  H  H46  1  0.59532300  0.99936400  0.22958400  1
  H  H47  1  0.40467700  0.00063600  0.77041600  1
  C  C0  1  0.39632200  0.11095200  0.67148700  1
  C  C1  1  0.88904800  0.32851300  0.60367800  1
  C  C2  1  0.60367800  0.88904800  0.32851300  1
  C  C3  1  0.32851300  0.60367800  0.88904800  1
  C  C4  1  0.67148700  0.39632200  0.11095200  1
  C  C5  1  0.11095200  0.67148700  0.39632200  1
  S  S0  1  0.12335500  0.25472700  0.37999200  1
  S  S1  1  0.74527300  0.62000800  0.87664500  1
  S  S2  1  0.25472700  0.37999200  0.12335500  1
  S  S3  1  0.87664500  0.74527300  0.62000800  1
  S  S4  1  0.62000800  0.87664500  0.74527300  1
  S  S5  1  0.37999200  0.12335500  0.25472700  1
  N  N0  1  0.66572900  0.82347200  0.36764000  1
  N  N1  1  0.63236000  0.33427100  0.17652800  1
  N  N2  1  0.75124600  0.37030300  0.06288500  1
  N  N3  1  0.36764000  0.66572900  0.82347200  1
  N  N4  1  0.06288500  0.75124600  0.37030300  1
  N  N5  1  0.48812700  0.09869800  0.63569100  1
  N  N6  1  0.33427100  0.17652800  0.63236000  1
  N  N7  1  0.17652800  0.63236000  0.33427100  1
  N  N8  1  0.51187300  0.90130200  0.36430900  1
  N  N9  1  0.63569100  0.48812700  0.09869800  1
  N  N10  1  0.09869800  0.63569100  0.48812700  1
  N  N11  1  0.62969700  0.93711500  0.24875400  1
  N  N12  1  0.90130200  0.36430900  0.51187300  1
  N  N13  1  0.36430900  0.51187300  0.90130200  1
  N  N14  1  0.82347200  0.36764000  0.66572900  1
  N  N15  1  0.37030300  0.06288500  0.75124600  1
  N  N16  1  0.24875400  0.62969700  0.93711500  1
  N  N17  1  0.93711500  0.24875400  0.62969700  1
  O  O0  1  0.95552900  0.88683500  0.78195300  1
  O  O1  1  0.21804700  0.04447100  0.11316500  1
  O  O2  1  0.11316500  0.21804700  0.04447100  1
  O  O3  1  0.91984400  0.80206900  0.54017900  1
  O  O4  1  0.14012600  0.12829200  0.72812600  1
  O  O5  1  0.47326400  0.30032800  0.35345600  1
  O  O6  1  0.80206900  0.54017900  0.91984400  1
  O  O7  1  0.65176900  0.63504300  0.92827400  1
  O  O8  1  0.27187400  0.85987400  0.87170800  1
  O  O9  1  0.36495700  0.07172600  0.34823100  1
  O  O10  1  0.12829200  0.72812600  0.14012600  1
  O  O11  1  0.78195300  0.95552900  0.88683500  1
  O  O12  1  0.07172600  0.34823100  0.36495700  1
  O  O13  1  0.85987400  0.87170800  0.27187400  1
  O  O14  1  0.52673600  0.69967200  0.64654400  1
  O  O15  1  0.54017900  0.91984400  0.80206900  1
  O  O16  1  0.64654400  0.52673600  0.69967200  1
  O  O17  1  0.34823100  0.36495700  0.07172600  1
  O  O18  1  0.63504300  0.92827400  0.65176900  1
  O  O19  1  0.04447100  0.11316500  0.21804700  1
  O  O20  1  0.88683500  0.78195300  0.95552900  1
  O  O21  1  0.87170800  0.27187400  0.85987400  1
  O  O22  1  0.30032800  0.35345600  0.47326400  1
  O  O23  1  0.08015600  0.19793100  0.45982100  1
  O  O24  1  0.72812600  0.14012600  0.12829200  1
  O  O25  1  0.35345600  0.47326400  0.30032800  1
  O  O26  1  0.69967200  0.64654400  0.52673600  1
  O  O27  1  0.45982100  0.08015600  0.19793100  1
  O  O28  1  0.92827400  0.65176900  0.63504300  1
  O  O29  1  0.19793100  0.45982100  0.08015600  1
loop_
_geom_bond_atom_site_label_1
_geom_bond_atom_site_label_2
_geom_bond_distance
_geom_bond_site_symmetry_2
H0 N4 1.018072 1_555
H1 N6 1.015134 1_555
H2 O10 0.988598 1_555
H3 N3 1.015134 1_555
H4 N6 1.024041 1_555
H5 O10 0.981647 1_555
H6 N13 1.017815 1_555
H7 N3 1.024041 1_555
H8 N9 1.017815 1_555
H9 O4 0.988598 1_555
H10 O21 0.988598 1_555
H11 N10 1.017697 1_555
H12 N7 1.015134 1_555
H13 N17 1.018072 1_555
H14 N1 1.024041 1_555
H15 O24 0.981647 1_555
H16 N17 1.017873 1_555
H17 N8 1.017815 1_555
H18 N14 1.015134 1_555
H19 N10 1.017815 1_555
H20 N16 1.017873 1_555
H21 O13 0.988598 1_555
H22 O24 0.988598 1_555
H23 N9 1.017697 1_555
H24 N15 1.017873 1_555
H25 N2 1.017873 1_555
H26 O13 0.981647 1_555
H27 N4 1.017873 1_555
H28 N8 1.017697 1_555
H29 N12 1.017697 1_555
H30 O8 0.981647 1_555
H31 O8 0.988598 1_555
H32 N13 1.017697 1_555
H33 O4 0.981647 1_555
H34 N12 1.017815 1_555
H35 N1 1.015134 1_555
H36 N2 1.018072 1_555
H37 N7 1.024041 1_555
H38 N0 1.024041 1_555
H39 N14 1.024041 1_555
H40 N0 1.015134 1_555
H41 N16 1.018072 1_555
H42 N11 1.017873 1_555
H43 N5 1.017815 1_555
H44 N5 1.017697 1_555
H45 O21 0.981647 1_555
H46 N11 1.018072 1_555
H47 N15 1.018072 1_555
C0 N5 1.337570 1_555
C0 N6 1.337720 1_555
C0 N15 1.338561 1_555
C1 N12 1.337570 1_555
C1 N14 1.337720 1_555
C1 N17 1.338561 1_555
C2 N8 1.337570 1_555
C2 N0 1.337720 1_555
C2 N11 1.338561 1_555
C3 N13 1.337570 1_555
C3 N3 1.337720 1_555
C3 N16 1.338561 1_555
C4 N9 1.337570 1_555
C4 N1 1.337720 1_555
C4 N2 1.338561 1_555
C5 N10 1.337570 1_555
C5 N7 1.337720 1_555
C5 N4 1.338561 1_555
O0 S3 1.500666 1_555
O0 Sc1 2.100355 1_666
O1 S5 1.500666 1_555
O1 Sc1 2.100355 1_555
O2 S2 1.500666 1_555
O2 Sc1 2.100355 1_555
O3 S3 1.475666 1_555
O5 S5 1.506232 1_555
O5 Sc0 2.114018 1_555
O6 S1 1.475666 1_555
O7 S1 1.481023 1_555
O9 S5 1.481023 1_555
O11 S4 1.500666 1_555
O11 Sc1 2.100355 1_666
O12 S0 1.481023 1_555
O14 S4 1.506232 1_555
O14 Sc0 2.114018 1_555
O15 S4 1.475666 1_555
O16 S1 1.506232 1_555
O16 Sc0 2.114018 1_555
O17 S2 1.481023 1_555
O18 S4 1.481023 1_555
O19 S0 1.500666 1_555
O19 Sc1 2.100355 1_555
O20 S1 1.500666 1_555
O20 Sc1 2.100355 1_666
O22 S0 1.506232 1_555
O22 Sc0 2.114018 1_555
O23 S0 1.475666 1_555
O25 S2 1.506232 1_555
O25 Sc0 2.114018 1_555
O26 S3 1.506232 1_555
O26 Sc0 2.114018 1_555
O27 S5 1.475666 1_555
O28 S3 1.481023 1_555
O29 S2 1.475666 1_555
