# generated using pymatgen
data_TiTlPS5
_symmetry_space_group_name_H-M   'P 1'
_cell_length_a   6.74694400
_cell_length_b   7.11729269
_cell_length_c   9.40704604
_cell_angle_alpha   106.78025896
_cell_angle_beta   99.71960459
_cell_angle_gamma   91.61313930
_symmetry_Int_Tables_number   1
_chemical_formula_structural   TiTlPS5
_chemical_formula_sum   'Ti2 Tl2 P2 S10'
_cell_volume   424.86566906
_cell_formula_units_Z   2
loop_
 _symmetry_equiv_pos_site_id
 _symmetry_equiv_pos_as_xyz
  1  'x, y, z'
loop_
 _atom_site_type_symbol
 _atom_site_label
 _atom_site_symmetry_multiplicity
 _atom_site_fract_x
 _atom_site_fract_y
 _atom_site_fract_z
 _atom_site_occupancy
  Ti  Ti0  1  0.50308400  0.27696500  0.00053800  1
  Ti  Ti1  1  0.49691600  0.72303500  0.99946200  1
  Tl  Tl0  1  0.72725600  0.69233000  0.44196300  1
  Tl  Tl1  1  0.27274400  0.30767000  0.55803700  1
  P  P0  1  0.28380300  0.89414600  0.73281600  1
  P  P1  1  0.71619700  0.10585400  0.26718400  1
  S  S0  1  0.17457600  0.69254000  0.82644400  1
  S  S1  1  0.34529900  0.54268100  0.12537500  1
  S  S2  1  0.41015500  0.06122300  0.16930000  1
  S  S3  1  0.58984500  0.93877700  0.83070000  1
  S  S4  1  0.17738000  0.16174400  0.83032100  1
  S  S5  1  0.77272100  0.19000400  0.49178000  1
  S  S6  1  0.65470100  0.45731900  0.87462500  1
  S  S7  1  0.22727900  0.80999600  0.50822000  1
  S  S8  1  0.82262000  0.83825600  0.16967900  1
  S  S9  1  0.82542400  0.30746000  0.17355600  1
loop_
_geom_bond_atom_site_label_1
_geom_bond_atom_site_label_2
_geom_bond_distance
_geom_bond_site_symmetry_2
P0 S7 1.988075 1_555
P0 S0 2.065694 1_555
P0 S4 2.067600 1_565
P0 S3 2.089156 1_555
P1 S5 1.988075 1_555
P1 S9 2.065694 1_555
P1 S8 2.067600 1_545
P1 S2 2.089156 1_555
S0 Ti1 2.449533 1_555
S1 Ti1 2.304386 1_554
S1 Ti0 2.311292 1_555
S2 Ti1 2.619819 1_544
S2 Ti0 2.638296 1_555
S3 Ti0 2.619819 1_566
S3 Ti1 2.638296 1_555
S4 Ti0 2.453107 1_556
S4 Tl1 3.179349 1_555
S6 Ti0 2.304386 1_556
S6 Ti1 2.311292 1_555
S8 Ti1 2.453107 1_554
S8 Tl0 3.179349 1_555
S9 Ti0 2.449533 1_555
