# generated using pymatgen
data_InAg(WO4)2
_symmetry_space_group_name_H-M   'P 1'
_cell_length_a   5.83823876
_cell_length_b   5.05952771
_cell_length_c   10.25708301
_cell_angle_alpha   89.16646862
_cell_angle_beta   90.00000000
_cell_angle_gamma   90.00000000
_symmetry_Int_Tables_number   1
_chemical_formula_structural   InAg(WO4)2
_chemical_formula_sum   'In2 Ag2 W4 O16'
_cell_volume   302.94915261
_cell_formula_units_Z   2
loop_
 _symmetry_equiv_pos_site_id
 _symmetry_equiv_pos_as_xyz
  1  'x, y, z'
loop_
 _atom_site_type_symbol
 _atom_site_label
 _atom_site_symmetry_multiplicity
 _atom_site_fract_x
 _atom_site_fract_y
 _atom_site_fract_z
 _atom_site_occupancy
  In  In0  1  0.31491313  0.25000000  0.50000000  1
  In  In1  1  0.68508687  0.75000000  0.50000000  1
  Ag  Ag0  1  0.31612140  0.25000000  -0.00000000  1
  Ag  Ag1  1  0.68387860  0.75000000  -0.00000000  1
  W  W0  1  0.17653984  0.74422034  0.25904806  1
  W  W1  1  0.17653984  0.75577966  0.74095194  1
  W  W2  1  0.82346016  0.25577966  0.74095194  1
  W  W3  1  0.82346016  0.24422034  0.25904806  1
  O  O0  1  0.89634526  0.95075952  0.63143227  1
  O  O1  1  0.36901161  0.87948453  0.14634969  1
  O  O2  1  0.10365474  0.04924048  0.36856773  1
  O  O3  1  0.09557858  0.06484611  0.82974216  1
  O  O4  1  0.62318710  0.39636392  0.61504043  1
  O  O5  1  0.90442142  0.93515389  0.17025784  1
  O  O6  1  0.09557858  0.43515389  0.17025784  1
  O  O7  1  0.90442142  0.56484611  0.82974216  1
  O  O8  1  0.89634526  0.54924048  0.36856773  1
  O  O9  1  0.10365474  0.45075952  0.63143227  1
  O  O10  1  0.63098839  0.37948453  0.14634969  1
  O  O11  1  0.37681290  0.89636392  0.61504043  1
  O  O12  1  0.37681290  0.60363608  0.38495957  1
  O  O13  1  0.62318710  0.10363608  0.38495957  1
  O  O14  1  0.63098839  0.12051547  0.85365031  1
  O  O15  1  0.36901161  0.62051547  0.85365031  1
loop_
_geom_bond_atom_site_label_1
_geom_bond_atom_site_label_2
_geom_bond_distance
_geom_bond_site_symmetry_2
In0 O2 2.100050 1_555
In0 O9 2.100050 1_555
In0 O12 2.159369 1_555
In0 O11 2.159369 1_545
In0 O4 2.281526 1_555
In0 O13 2.281526 1_555
In1 O0 2.100050 1_555
In1 O8 2.100050 1_555
In1 O13 2.159369 1_565
In1 O4 2.159369 1_555
In1 O11 2.281526 1_555
In1 O12 2.281526 1_555
Ag0 O6 2.373347 1_555
Ag0 O3 2.373347 1_554
Ag0 O1 2.404389 1_545
Ag0 O15 2.404389 1_554
Ag0 O14 2.467874 1_554
Ag0 O10 2.467874 1_555
Ag1 O5 2.373347 1_555
Ag1 O7 2.373347 1_554
Ag1 O14 2.404389 1_564
Ag1 O10 2.404389 1_555
Ag1 O1 2.467874 1_555
Ag1 O15 2.467874 1_554
O0 W2 1.968520 1_565
O0 W1 2.208813 1_655
O1 W0 1.744786 1_555
O2 W0 1.968520 1_545
O2 W3 2.208813 1_455
O3 W1 1.881364 1_545
O3 W2 2.064217 1_455
O4 W2 1.874638 1_555
O5 W3 1.881364 1_565
O5 W0 2.064217 1_655
O6 W0 1.881364 1_555
O6 W3 2.064217 1_455
O7 W2 1.881364 1_555
O7 W1 2.064217 1_655
O8 W3 1.968520 1_555
O8 W0 2.208813 1_655
O9 W1 1.968520 1_555
O9 W2 2.208813 1_455
O10 W3 1.744786 1_555
O11 W1 1.874638 1_555
O12 W0 1.874638 1_555
O13 W3 1.874638 1_555
O14 W2 1.744786 1_555
O15 W1 1.744786 1_555
