# generated using pymatgen
data_NaCu(IO3)3
_symmetry_space_group_name_H-M   'P 1'
_cell_length_a   7.40736800
_cell_length_b   7.89768580
_cell_length_c   8.31379000
_cell_angle_alpha   70.35897100
_cell_angle_beta   73.09093869
_cell_angle_gamma   80.82789966
_symmetry_Int_Tables_number   1
_chemical_formula_structural   NaCu(IO3)3
_chemical_formula_sum   'Na2 Cu2 I6 O18'
_cell_volume   437.23752390
_cell_formula_units_Z   2
loop_
 _symmetry_equiv_pos_site_id
 _symmetry_equiv_pos_as_xyz
  1  'x, y, z'
loop_
 _atom_site_type_symbol
 _atom_site_label
 _atom_site_symmetry_multiplicity
 _atom_site_fract_x
 _atom_site_fract_y
 _atom_site_fract_z
 _atom_site_occupancy
  Na  Na0  1  0.69291100  0.79003200  0.86436600  1
  Na  Na1  1  0.30708900  0.20996800  0.13563400  1
  Cu  Cu0  1  0.00000000  0.00000000  0.50000000  1
  Cu  Cu1  1  0.00000000  0.00000000  0.00000000  1
  I  I0  1  0.29750600  0.21931900  0.59226900  1
  I  I1  1  0.70249400  0.78068100  0.40773100  1
  I  I2  1  0.26567100  0.73202700  0.23701200  1
  I  I3  1  0.23859400  0.64033300  0.79182200  1
  I  I4  1  0.76140600  0.35966700  0.20817800  1
  I  I5  1  0.73432900  0.26797300  0.76298800  1
  O  O0  1  0.45121500  0.77009800  0.70670000  1
  O  O1  1  0.47574500  0.29212800  0.82053500  1
  O  O2  1  0.70514900  0.53786200  0.48821700  1
  O  O3  1  0.77017300  0.45490100  0.97228700  1
  O  O4  1  0.22982700  0.54509900  0.02771300  1
  O  O5  1  0.52425500  0.70787200  0.17946500  1
  O  O6  1  0.15761600  0.19543500  0.44884900  1
  O  O7  1  0.84238400  0.80456500  0.55115100  1
  O  O8  1  0.76223500  0.13959200  0.60331200  1
  O  O9  1  0.25121800  0.93630300  0.04462000  1
  O  O10  1  0.23776500  0.86040800  0.39668800  1
  O  O11  1  0.94541000  0.17405000  0.20571700  1
  O  O12  1  0.90577900  0.78948100  0.20939800  1
  O  O13  1  0.09422100  0.21051900  0.79060200  1
  O  O14  1  0.54878500  0.22990200  0.29330000  1
  O  O15  1  0.74878200  0.06369700  0.95538000  1
  O  O16  1  0.05459000  0.82595000  0.79428300  1
  O  O17  1  0.29485100  0.46213800  0.51178300  1
loop_
_geom_bond_atom_site_label_1
_geom_bond_atom_site_label_2
_geom_bond_distance
_geom_bond_site_symmetry_2
Na0 O5 2.460970 1_556
Na0 O7 2.486432 1_555
Na0 O3 2.521360 1_555
Na0 O0 2.557731 1_555
Na0 O16 2.611630 1_655
Na0 O15 2.642322 1_565
Na0 O8 2.893328 1_565
Na1 O1 2.460970 1_554
Na1 O6 2.486432 1_555
Na1 O4 2.521360 1_555
Na1 O14 2.557731 1_555
Na1 O11 2.611630 1_455
Na1 O9 2.642322 1_545
Na1 O10 2.893328 1_545
Cu0 O6 1.941833 1_555
Cu0 O7 1.941833 1_445
Cu0 O8 2.047585 1_455
Cu0 O10 2.047585 1_545
Cu0 O11 2.485228 1_455
Cu0 O16 2.485228 1_545
Cu1 O9 1.957336 1_545
Cu1 O15 1.957336 1_454
Cu1 O13 1.999863 1_554
Cu1 O12 1.999863 1_445
Cu1 O11 2.445205 1_455
Cu1 O16 2.445205 1_544
I0 O17 1.805195 1_555
I0 O6 1.860993 1_555
I0 O13 1.871668 1_555
I0 O14 2.620732 1_555
I1 O2 1.805195 1_555
I1 O7 1.860993 1_555
I1 O12 1.871668 1_555
I1 O0 2.620732 1_555
I2 O5 1.829191 1_555
I2 O9 1.866132 1_555
I2 O10 1.873882 1_555
I3 O4 1.834641 1_556
I3 O16 1.836872 1_555
I3 O0 1.846695 1_555
I4 O3 1.834641 1_554
I4 O11 1.836872 1_555
I4 O14 1.846695 1_555
I5 O1 1.829191 1_555
I5 O15 1.866132 1_555
I5 O8 1.873882 1_555
