# generated using pymatgen
data_BaZnSO
_symmetry_space_group_name_H-M   'P 1'
_cell_length_a   3.99171200
_cell_length_b   6.19643500
_cell_length_c   6.81844131
_cell_angle_alpha   90.00000000
_cell_angle_beta   107.02053365
_cell_angle_gamma   90.00000000
_symmetry_Int_Tables_number   1
_chemical_formula_structural   BaZnSO
_chemical_formula_sum   'Ba2 Zn2 S2 O2'
_cell_volume   161.26306332
_cell_formula_units_Z   2
loop_
 _symmetry_equiv_pos_site_id
 _symmetry_equiv_pos_as_xyz
  1  'x, y, z'
loop_
 _atom_site_type_symbol
 _atom_site_label
 _atom_site_symmetry_multiplicity
 _atom_site_fract_x
 _atom_site_fract_y
 _atom_site_fract_z
 _atom_site_occupancy
  Ba  Ba0  1  0.89208800  0.25000000  0.78417600  1
  Ba  Ba1  1  0.10791200  0.75000000  0.21582400  1
  Zn  Zn0  1  0.40151200  0.75000000  0.80302400  1
  Zn  Zn1  1  0.59848800  0.25000000  0.19697600  1
  S  S0  1  0.80650800  0.75000000  0.61301600  1
  S  S1  1  0.19349200  0.25000000  0.38698400  1
  O  O0  1  0.50000000  0.50000000  0.00000000  1
  O  O1  1  0.50000000  0.00000000  0.00000000  1
loop_
_geom_bond_atom_site_label_1
_geom_bond_atom_site_label_2
_geom_bond_distance
_geom_bond_site_symmetry_2
Ba0 O1 2.891918 1_656
Ba0 O0 2.891918 1_556
Ba0 O0 2.891918 1_656
Ba0 O1 2.891918 1_556
Ba0 S1 3.269483 1_555
Ba0 S1 3.269483 1_655
Ba0 S0 3.293060 1_555
Ba0 S0 3.293060 1_545
Ba1 O0 2.891918 1_455
Ba1 O1 2.891918 1_465
Ba1 O1 2.891918 1_565
Ba1 O0 2.891918 1_555
Ba1 S0 3.269483 1_455
Ba1 S0 3.269483 1_555
Ba1 S1 3.293060 1_565
Ba1 S1 3.293060 1_555
S0 Zn0 2.349063 1_655
S0 Zn0 2.349063 1_555
S1 Zn1 2.349063 1_455
S1 Zn1 2.349063 1_555
O0 Zn0 2.012217 1_554
O0 Zn1 2.012217 1_555
O1 Zn0 2.012217 1_544
O1 Zn1 2.012217 1_555
