# generated using pymatgen
data_CsGa3S5
_symmetry_space_group_name_H-M   'P 1'
_cell_length_a   12.83058619
_cell_length_b   6.97339220
_cell_length_c   10.80969582
_cell_angle_alpha   88.92175470
_cell_angle_beta   90.00000000
_cell_angle_gamma   90.00000000
_symmetry_Int_Tables_number   1
_chemical_formula_structural   CsGa3S5
_chemical_formula_sum   'Cs4 Ga12 S20'
_cell_volume   967.00151733
_cell_formula_units_Z   4
loop_
 _symmetry_equiv_pos_site_id
 _symmetry_equiv_pos_as_xyz
  1  'x, y, z'
loop_
 _atom_site_type_symbol
 _atom_site_label
 _atom_site_symmetry_multiplicity
 _atom_site_fract_x
 _atom_site_fract_y
 _atom_site_fract_z
 _atom_site_occupancy
  Cs  Cs0  1  0.41721047  0.86580138  0.36071234  1
  Cs  Cs1  1  0.08278953  0.36580138  0.36071234  1
  Cs  Cs2  1  0.91721047  0.63419862  0.63928766  1
  Cs  Cs3  1  0.58278953  0.13419862  0.63928766  1
  Ga  Ga0  1  0.79996304  0.98437005  0.32972994  1
  Ga  Ga1  1  0.20003696  0.01562995  0.67027006  1
  Ga  Ga2  1  0.29996304  0.51562995  0.67027006  1
  Ga  Ga3  1  0.46289855  0.39627704  0.12884649  1
  Ga  Ga4  1  0.70003696  0.48437005  0.32972994  1
  Ga  Ga5  1  0.72486455  0.26444408  0.01493920  1
  Ga  Ga6  1  0.96289855  0.10372296  0.87115351  1
  Ga  Ga7  1  0.03710145  0.89627704  0.12884649  1
  Ga  Ga8  1  0.77513545  0.76444408  0.01493920  1
  Ga  Ga9  1  0.27513545  0.73555592  0.98506080  1
  Ga  Ga10  1  0.53710145  0.60372296  0.87115351  1
  Ga  Ga11  1  0.22486455  0.23555592  0.98506080  1
  S  S0  1  0.28963087  0.00337333  0.86021816  1
  S  S1  1  0.55246856  0.29108460  0.95491405  1
  S  S2  1  0.71036913  0.99662667  0.13978184  1
  S  S3  1  0.20091985  0.73571725  0.56657233  1
  S  S4  1  0.70091985  0.76428275  0.43342767  1
  S  S5  1  0.29908015  0.23571725  0.56657233  1
  S  S6  1  0.78963087  0.49662667  0.13978184  1
  S  S7  1  0.21036913  0.50337333  0.86021816  1
  S  S8  1  0.96541083  0.87310305  0.31600672  1
  S  S9  1  0.53458917  0.37310305  0.31600672  1
  S  S10  1  0.03458917  0.12689695  0.68399328  1
  S  S11  1  0.44753144  0.70891540  0.04508595  1
  S  S12  1  0.94753144  0.79108460  0.95491405  1
  S  S13  1  0.05246856  0.20891540  0.04508595  1
  S  S14  1  0.79908015  0.26428275  0.43342767  1
  S  S15  1  0.81133933  0.25340374  0.83759019  1
  S  S16  1  0.68866067  0.75340374  0.83759019  1
  S  S17  1  0.31133933  0.24659626  0.16240981  1
  S  S18  1  0.18866067  0.74659626  0.16240981  1
  S  S19  1  0.46541083  0.62689695  0.68399328  1
loop_
_geom_bond_atom_site_label_1
_geom_bond_atom_site_label_2
_geom_bond_distance
_geom_bond_site_symmetry_2
Cs0 S11 3.623434 1_555
Cs0 S17 3.643802 1_565
Cs0 S3 3.660625 1_555
Cs0 S18 3.735261 1_555
Cs0 S5 3.757578 1_565
Cs0 S4 3.787983 1_555
Cs0 S9 3.790613 1_555
Cs0 S9 3.866788 1_565
Cs0 S19 3.892408 1_555
Cs1 S13 3.623434 1_555
Cs1 S18 3.643802 1_555
Cs1 S5 3.660625 1_555
Cs1 S17 3.735261 1_555
Cs1 S3 3.757578 1_555
Cs1 S14 3.787983 1_455
Cs1 S8 3.790613 1_445
Cs1 S8 3.866788 1_455
Cs1 S10 3.892408 1_555
Cs2 S12 3.623434 1_555
Cs2 S15 3.643802 1_555
Cs2 S4 3.660625 1_555
Cs2 S16 3.735261 1_555
Cs2 S14 3.757578 1_555
Cs2 S3 3.787983 1_655
Cs2 S10 3.790613 1_665
Cs2 S10 3.866788 1_655
Cs2 S8 3.892408 1_555
Cs3 S1 3.623434 1_555
Cs3 S16 3.643802 1_545
Cs3 S14 3.660625 1_555
Cs3 S15 3.735261 1_555
Cs3 S4 3.757578 1_545
Cs3 S5 3.787983 1_555
Cs3 S19 3.790613 1_555
Cs3 S19 3.866788 1_545
Cs3 S9 3.892408 1_555
Ga0 S8 2.265970 1_555
Ga0 S14 2.269154 1_565
Ga0 S4 2.272030 1_555
Ga0 S2 2.353319 1_555
Ga1 S10 2.265970 1_555
Ga1 S3 2.269154 1_545
Ga1 S5 2.272030 1_555
Ga1 S0 2.353319 1_555
Ga2 S19 2.265970 1_555
Ga2 S5 2.269154 1_555
Ga2 S3 2.272030 1_555
Ga2 S7 2.353319 1_555
Ga3 S9 2.225538 1_555
Ga3 S17 2.233451 1_555
Ga3 S1 2.333609 1_554
Ga3 S11 2.353175 1_555
Ga4 S9 2.265970 1_555
Ga4 S4 2.269154 1_555
Ga4 S14 2.272030 1_555
Ga4 S6 2.353319 1_555
Ga5 S15 2.217600 1_554
Ga5 S6 2.283734 1_555
Ga5 S2 2.291032 1_545
Ga5 S1 2.311638 1_554
Ga6 S10 2.225538 1_655
Ga6 S15 2.233451 1_555
Ga6 S13 2.333609 1_656
Ga6 S12 2.353175 1_545
Ga7 S8 2.225538 1_455
Ga7 S18 2.233451 1_555
Ga7 S12 2.333609 1_454
Ga7 S13 2.353175 1_565
Ga8 S16 2.217600 1_554
Ga8 S2 2.283734 1_555
Ga8 S6 2.291032 1_555
Ga8 S12 2.311638 1_554
Ga9 S18 2.217600 1_556
Ga9 S7 2.283734 1_555
Ga9 S0 2.291032 1_565
Ga9 S11 2.311638 1_556
Ga10 S19 2.225538 1_555
Ga10 S16 2.233451 1_555
Ga10 S11 2.333609 1_556
Ga10 S1 2.353175 1_555
Ga11 S17 2.217600 1_556
Ga11 S0 2.283734 1_555
Ga11 S7 2.291032 1_555
Ga11 S13 2.311638 1_556
