# generated using pymatgen
data_NaMo2(PO4)3
_symmetry_space_group_name_H-M   'P 1'
_cell_length_a   9.06579485
_cell_length_b   9.06579485
_cell_length_c   9.06579552
_cell_angle_alpha   58.22501190
_cell_angle_beta   58.22501190
_cell_angle_gamma   58.22501635
_symmetry_Int_Tables_number   1
_chemical_formula_structural   NaMo2(PO4)3
_chemical_formula_sum   'Na2 Mo4 P6 O24'
_cell_volume   505.44320974
_cell_formula_units_Z   2
loop_
 _symmetry_equiv_pos_site_id
 _symmetry_equiv_pos_as_xyz
  1  'x, y, z'
loop_
 _atom_site_type_symbol
 _atom_site_label
 _atom_site_symmetry_multiplicity
 _atom_site_fract_x
 _atom_site_fract_y
 _atom_site_fract_z
 _atom_site_occupancy
  Na  Na0  1  0.00000000  0.00000000  0.00000000  1
  Na  Na1  1  0.50000000  0.50000000  0.50000000  1
  Mo  Mo0  1  0.14433900  0.14433900  0.14433900  1
  Mo  Mo1  1  0.35566100  0.35566100  0.35566100  1
  Mo  Mo2  1  0.85566100  0.85566100  0.85566100  1
  Mo  Mo3  1  0.64433900  0.64433900  0.64433900  1
  P  P0  1  0.25000000  0.53940000  0.96060000  1
  P  P1  1  0.53940000  0.96060000  0.25000000  1
  P  P2  1  0.96060000  0.25000000  0.53940000  1
  P  P3  1  0.75000000  0.46060000  0.03940000  1
  P  P4  1  0.46060000  0.03940000  0.75000000  1
  P  P5  1  0.03940000  0.75000000  0.46060000  1
  O  O0  1  0.91742700  0.27934200  0.06215400  1
  O  O1  1  0.27934200  0.06215400  0.91742700  1
  O  O2  1  0.06215400  0.91742700  0.27934200  1
  O  O3  1  0.22065800  0.58257300  0.43784600  1
  O  O4  1  0.58257300  0.43784600  0.22065800  1
  O  O5  1  0.43784600  0.22065800  0.58257300  1
  O  O6  1  0.08257300  0.72065800  0.93784600  1
  O  O7  1  0.72065800  0.93784600  0.08257300  1
  O  O8  1  0.93784600  0.08257300  0.72065800  1
  O  O9  1  0.77934200  0.41742700  0.56215400  1
  O  O10  1  0.41742700  0.56215400  0.77934200  1
  O  O11  1  0.56215400  0.77934200  0.41742700  1
  O  O12  1  0.99094800  0.21216000  0.37710000  1
  O  O13  1  0.21216000  0.37710000  0.99094800  1
  O  O14  1  0.37710000  0.99094800  0.21216000  1
  O  O15  1  0.28784000  0.50905200  0.12290000  1
  O  O16  1  0.50905200  0.12290000  0.28784000  1
  O  O17  1  0.12290000  0.28784000  0.50905200  1
  O  O18  1  0.00905200  0.78784000  0.62290000  1
  O  O19  1  0.78784000  0.62290000  0.00905200  1
  O  O20  1  0.62290000  0.00905200  0.78784000  1
  O  O21  1  0.71216000  0.49094800  0.87710000  1
  O  O22  1  0.49094800  0.87710000  0.71216000  1
  O  O23  1  0.87710000  0.71216000  0.49094800  1
loop_
_geom_bond_atom_site_label_1
_geom_bond_atom_site_label_2
_geom_bond_distance
_geom_bond_site_symmetry_2
Na0 O1 2.520570 1_554
Na0 O7 2.520570 1_445
Na0 O6 2.520570 1_544
Na0 O0 2.520570 1_455
Na0 O2 2.520570 1_545
Na0 O8 2.520570 1_454
Na1 O5 2.520570 1_555
Na1 O11 2.520570 1_555
Na1 O3 2.520570 1_555
Na1 O9 2.520570 1_555
Na1 O4 2.520570 1_555
Na1 O10 2.520570 1_555
Mo0 O13 2.034732 1_554
Mo0 O14 2.034732 1_545
Mo0 O12 2.034732 1_455
Mo0 O2 2.070533 1_545
Mo0 O0 2.070533 1_455
Mo0 O1 2.070534 1_554
Mo1 O17 2.034732 1_555
Mo1 O16 2.034732 1_555
Mo1 O15 2.034732 1_555
Mo1 O4 2.070533 1_555
Mo1 O3 2.070533 1_555
Mo1 O5 2.070534 1_555
Mo2 O19 2.034732 1_556
Mo2 O20 2.034732 1_565
Mo2 O18 2.034732 1_655
Mo2 O8 2.070533 1_565
Mo2 O6 2.070533 1_655
Mo2 O7 2.070534 1_556
Mo3 O23 2.034732 1_555
Mo3 O22 2.034732 1_555
Mo3 O21 2.034732 1_555
Mo3 O10 2.070533 1_555
Mo3 O9 2.070533 1_555
Mo3 O11 2.070534 1_555
O0 P3 1.546815 1_555
O1 P4 1.546815 1_555
O2 P5 1.546815 1_555
O3 P5 1.546815 1_555
O4 P3 1.546815 1_555
O5 P4 1.546815 1_555
O6 P0 1.546815 1_555
O7 P1 1.546815 1_555
O8 P2 1.546815 1_555
O9 P2 1.546815 1_555
O10 P0 1.546815 1_555
O11 P1 1.546815 1_555
O12 P2 1.537590 1_555
O13 P0 1.537590 1_555
O14 P1 1.537590 1_555
O15 P0 1.537590 1_554
O16 P1 1.537590 1_545
O17 P2 1.537590 1_455
O18 P5 1.537590 1_555
O19 P3 1.537590 1_555
O20 P4 1.537590 1_555
O21 P3 1.537590 1_556
O22 P4 1.537590 1_565
O23 P5 1.537590 1_655
