# generated using pymatgen
data_Pr(AsPd)2
_symmetry_space_group_name_H-M   'P 1'
_cell_length_a   4.29343238
_cell_length_b   4.29343214
_cell_length_c   6.04656891
_cell_angle_alpha   110.79530797
_cell_angle_beta   110.79531513
_cell_angle_gamma   90.00000258
_symmetry_Int_Tables_number   1
_chemical_formula_structural   Pr(AsPd)2
_chemical_formula_sum   'Pr1 As2 Pd2'
_cell_volume   96.39221424
_cell_formula_units_Z   1
loop_
 _symmetry_equiv_pos_site_id
 _symmetry_equiv_pos_as_xyz
  1  'x, y, z'
loop_
 _atom_site_type_symbol
 _atom_site_label
 _atom_site_symmetry_multiplicity
 _atom_site_fract_x
 _atom_site_fract_y
 _atom_site_fract_z
 _atom_site_occupancy
  Pr  Pr0  1  -0.00000000  -0.00000000  -0.00000000  1
  As  As0  1  0.38016060  0.38016060  0.76032120  1
  As  As1  1  0.61983940  0.61983940  0.23967880  1
  Pd  Pd0  1  0.75000000  0.25000000  0.50000000  1
  Pd  Pd1  1  0.25000000  0.75000000  0.50000000  1
loop_
_geom_bond_atom_site_label_1
_geom_bond_atom_site_label_2
_geom_bond_distance
_geom_bond_site_symmetry_2
As0 As1 2.506642 1_556
As0 Pd1 2.541934 1_555
As0 Pd0 2.541934 1_455
As0 Pd1 2.541934 1_545
As0 Pd0 2.541934 1_555
As0 Pr0 3.284447 1_666
As0 Pr0 3.284447 1_656
As0 Pr0 3.284447 1_556
As0 Pr0 3.284447 1_566
As1 Pd0 2.541934 1_555
As1 Pd1 2.541934 1_655
As1 Pd0 2.541934 1_565
As1 Pd1 2.541934 1_555
As1 Pr0 3.284447 1_555
As1 Pr0 3.284447 1_565
As1 Pr0 3.284447 1_665
As1 Pr0 3.284447 1_655
Pd0 Pr0 3.382964 1_555
Pd0 Pr0 3.382964 1_656
Pd0 Pr0 3.382964 1_666
Pd0 Pr0 3.382964 1_655
Pd1 Pr0 3.382964 1_666
Pd1 Pr0 3.382964 1_565
Pd1 Pr0 3.382964 1_555
Pd1 Pr0 3.382964 1_566
