# generated using pymatgen
data_Sm26Ga6Co11
_symmetry_space_group_name_H-M   'P 1'
_cell_length_a   11.67061400
_cell_length_b   11.67061400
_cell_length_c   15.25585900
_cell_angle_alpha   90.00000000
_cell_angle_beta   90.00000000
_cell_angle_gamma   90.00000000
_symmetry_Int_Tables_number   1
_chemical_formula_structural   Sm26Ga6Co11
_chemical_formula_sum   'Sm52 Ga12 Co22'
_cell_volume   2077.89728957
_cell_formula_units_Z   2
loop_
 _symmetry_equiv_pos_site_id
 _symmetry_equiv_pos_as_xyz
  1  'x, y, z'
loop_
 _atom_site_type_symbol
 _atom_site_label
 _atom_site_symmetry_multiplicity
 _atom_site_fract_x
 _atom_site_fract_y
 _atom_site_fract_z
 _atom_site_occupancy
  Sm  Sm0  1  0.92039800  0.79505100  0.31101400  1
  Sm  Sm1  1  0.20494900  0.92039800  0.31101400  1
  Sm  Sm2  1  0.65756800  0.15756800  0.00000000  1
  Sm  Sm3  1  0.92744000  0.20101600  0.88494600  1
  Sm  Sm4  1  0.34243200  0.84243200  0.00000000  1
  Sm  Sm5  1  0.57256000  0.70101600  0.88494600  1
  Sm  Sm6  1  0.57960200  0.29505100  0.68898600  1
  Sm  Sm7  1  0.42744000  0.29898400  0.88494600  1
  Sm  Sm8  1  0.29629900  0.58359100  0.50000000  1
  Sm  Sm9  1  0.41640900  0.29629900  0.50000000  1
  Sm  Sm10  1  0.20494900  0.92039800  0.68898600  1
  Sm  Sm11  1  0.58359100  0.70370100  0.50000000  1
  Sm  Sm12  1  0.50000000  0.00000000  0.15686600  1
  Sm  Sm13  1  0.42039800  0.70494900  0.31101400  1
  Sm  Sm14  1  0.50000000  0.00000000  0.84313400  1
  Sm  Sm15  1  0.00000000  0.50000000  0.38388800  1
  Sm  Sm16  1  0.08359100  0.79629900  0.50000000  1
  Sm  Sm17  1  0.79505100  0.07960200  0.31101400  1
  Sm  Sm18  1  0.29505100  0.42039800  0.68898600  1
  Sm  Sm19  1  0.84243200  0.65756800  0.00000000  1
  Sm  Sm20  1  0.07960200  0.20494900  0.68898600  1
  Sm  Sm21  1  0.00000000  0.50000000  0.15686600  1
  Sm  Sm22  1  0.70101600  0.42744000  0.11505400  1
  Sm  Sm23  1  0.00000000  0.50000000  0.61611200  1
  Sm  Sm24  1  0.07256000  0.79898400  0.11505400  1
  Sm  Sm25  1  0.91640900  0.20370100  0.50000000  1
  Sm  Sm26  1  0.70494900  0.57960200  0.31101400  1
  Sm  Sm27  1  0.42744000  0.29898400  0.11505400  1
  Sm  Sm28  1  0.20101600  0.07256000  0.11505400  1
  Sm  Sm29  1  0.70494900  0.57960200  0.68898600  1
  Sm  Sm30  1  0.92744000  0.20101600  0.11505400  1
  Sm  Sm31  1  0.79629900  0.91640900  0.50000000  1
  Sm  Sm32  1  0.57960200  0.29505100  0.31101400  1
  Sm  Sm33  1  0.20101600  0.07256000  0.88494600  1
  Sm  Sm34  1  0.70370100  0.41640900  0.50000000  1
  Sm  Sm35  1  0.07256000  0.79898400  0.88494600  1
  Sm  Sm36  1  0.00000000  0.50000000  0.84313400  1
  Sm  Sm37  1  0.79898400  0.92744000  0.88494600  1
  Sm  Sm38  1  0.57256000  0.70101600  0.11505400  1
  Sm  Sm39  1  0.50000000  0.00000000  0.38388800  1
  Sm  Sm40  1  0.29898400  0.57256000  0.11505400  1
  Sm  Sm41  1  0.07960200  0.20494900  0.31101400  1
  Sm  Sm42  1  0.29505100  0.42039800  0.31101400  1
  Sm  Sm43  1  0.79505100  0.07960200  0.68898600  1
  Sm  Sm44  1  0.92039800  0.79505100  0.68898600  1
  Sm  Sm45  1  0.70101600  0.42744000  0.88494600  1
  Sm  Sm46  1  0.15756800  0.34243200  0.00000000  1
  Sm  Sm47  1  0.20370100  0.08359100  0.50000000  1
  Sm  Sm48  1  0.50000000  0.00000000  0.61611200  1
  Sm  Sm49  1  0.42039800  0.70494900  0.68898600  1
  Sm  Sm50  1  0.29898400  0.57256000  0.88494600  1
  Sm  Sm51  1  0.79898400  0.92744000  0.11505400  1
  Ga  Ga0  1  0.83756400  0.33756400  0.29063600  1
  Ga  Ga1  1  0.15163600  0.34836400  0.50000000  1
  Ga  Ga2  1  0.33756400  0.16243600  0.29063600  1
  Ga  Ga3  1  0.16243600  0.66243600  0.29063600  1
  Ga  Ga4  1  0.16243600  0.66243600  0.70936400  1
  Ga  Ga5  1  0.33756400  0.16243600  0.70936400  1
  Ga  Ga6  1  0.34836400  0.84836400  0.50000000  1
  Ga  Ga7  1  0.65163600  0.15163600  0.50000000  1
  Ga  Ga8  1  0.66243600  0.83756400  0.70936400  1
  Ga  Ga9  1  0.66243600  0.83756400  0.29063600  1
  Ga  Ga10  1  0.84836400  0.65163600  0.50000000  1
  Ga  Ga11  1  0.83756400  0.33756400  0.70936400  1
  Co  Co0  1  0.09443700  0.59443700  0.00000000  1
  Co  Co1  1  0.80627700  0.69372300  0.17934100  1
  Co  Co2  1  0.59443700  0.90556300  0.00000000  1
  Co  Co3  1  0.50000000  0.50000000  0.58955700  1
  Co  Co4  1  0.50000000  0.50000000  0.22576900  1
  Co  Co5  1  0.00000000  0.00000000  0.58955700  1
  Co  Co6  1  0.00000000  0.00000000  0.41044300  1
  Co  Co7  1  0.00000000  0.00000000  0.22576900  1
  Co  Co8  1  0.50000000  0.50000000  0.41044300  1
  Co  Co9  1  0.50000000  0.50000000  0.77423100  1
  Co  Co10  1  0.69372300  0.19372300  0.82065900  1
  Co  Co11  1  0.69372300  0.19372300  0.17934100  1
  Co  Co12  1  0.40556300  0.09443700  0.00000000  1
  Co  Co13  1  0.00000000  0.00000000  0.00000000  1
  Co  Co14  1  0.19372300  0.30627700  0.82065900  1
  Co  Co15  1  0.00000000  0.00000000  0.77423100  1
  Co  Co16  1  0.90556300  0.40556300  0.00000000  1
  Co  Co17  1  0.19372300  0.30627700  0.17934100  1
  Co  Co18  1  0.50000000  0.50000000  0.00000000  1
  Co  Co19  1  0.30627700  0.80627700  0.82065900  1
  Co  Co20  1  0.80627700  0.69372300  0.82065900  1
  Co  Co21  1  0.30627700  0.80627700  0.17934100  1
loop_
_geom_bond_atom_site_label_1
_geom_bond_atom_site_label_2
_geom_bond_distance
_geom_bond_site_symmetry_2
Sm0 Sm16 3.455443 1_655
Sm0 Sm31 3.523648 1_555
Sm1 Sm47 3.455443 1_565
Sm1 Sm16 3.523648 1_555
Sm3 Sm36 3.646833 1_655
Sm6 Sm9 3.455443 1_555
Sm8 Sm9 3.634101 1_555
Sm10 Sm47 3.455443 1_565
Sm10 Sm16 3.523648 1_555
Sm11 Sm49 3.455443 1_555
Sm11 Sm13 3.455443 1_555
Sm11 Sm31 3.510690 1_555
Sm11 Sm29 3.523648 1_555
Sm11 Sm26 3.523648 1_555
Sm11 Sm8 3.634101 1_555
Sm11 Sm34 3.634101 1_555
Sm11 Sm39 4.005900 1_565
Sm11 Sm48 4.005900 1_565
Sm12 Sm39 3.463416 1_555
Sm12 Sm2 3.534157 1_555
Sm12 Sm4 3.534157 1_545
Sm12 Sm27 3.646833 1_555
Sm12 Sm51 3.646833 1_545
Sm12 Sm38 3.646833 1_545
Sm12 Sm28 3.646833 1_555
Sm13 Sm8 3.523648 1_555
Sm14 Sm48 3.463416 1_555
Sm14 Sm2 3.534157 1_556
Sm14 Sm4 3.534157 1_546
Sm14 Sm7 3.646833 1_555
Sm14 Sm37 3.646833 1_545
Sm14 Sm33 3.646833 1_555
Sm14 Sm5 3.646833 1_545
Sm15 Sm21 3.463416 1_555
Sm15 Sm16 4.005900 1_555
Sm15 Sm34 4.005900 1_455
Sm15 Sm8 4.005900 1_555
Sm15 Sm25 4.005900 1_455
Sm16 Sm44 3.455443 1_455
Sm16 Sm8 3.510690 1_555
Sm16 Sm31 3.634101 1_455
Sm16 Sm47 3.634101 1_565
Sm16 Sm23 4.005900 1_555
Sm17 Sm31 3.455443 1_545
Sm17 Sm25 3.523648 1_555
Sm18 Sm8 3.455443 1_555
Sm18 Sm9 3.523648 1_555
Sm19 Sm21 3.534157 1_655
Sm19 Sm36 3.534157 1_654
Sm20 Sm25 3.455443 1_455
Sm20 Sm47 3.523648 1_555
Sm21 Sm46 3.534157 1_555
Sm21 Sm24 3.646833 1_555
Sm21 Sm40 3.646833 1_555
Sm21 Sm22 3.646833 1_455
Sm21 Sm30 3.646833 1_455
Sm23 Sm36 3.463416 1_555
Sm23 Sm34 4.005900 1_455
Sm23 Sm8 4.005900 1_555
Sm23 Sm25 4.005900 1_455
Sm25 Sm41 3.455443 1_655
Sm25 Sm34 3.510690 1_555
Sm25 Sm43 3.523648 1_555
Sm25 Sm31 3.634101 1_545
Sm25 Sm47 3.634101 1_655
Sm26 Sm34 3.455443 1_555
Sm29 Sm34 3.455443 1_555
Sm31 Sm43 3.455443 1_565
Sm31 Sm44 3.523648 1_555
Sm31 Sm48 4.005900 1_565
Sm31 Sm39 4.005900 1_565
Sm32 Sm9 3.455443 1_555
Sm32 Sm34 3.523648 1_555
Sm34 Sm6 3.523648 1_555
Sm34 Sm9 3.634101 1_555
Sm35 Sm36 3.646833 1_555
Sm36 Sm46 3.534157 1_556
Sm36 Sm50 3.646833 1_555
Sm36 Sm45 3.646833 1_455
Sm39 Sm47 4.005900 1_555
Sm39 Sm9 4.005900 1_555
Sm41 Sm47 3.523648 1_555
Sm42 Sm8 3.455443 1_555
Sm42 Sm9 3.523648 1_555
Sm47 Sm9 3.510690 1_555
Sm47 Sm48 4.005900 1_555
Sm48 Sm9 4.005900 1_555
Sm49 Sm8 3.523648 1_555
Ga0 Sm15 3.035041 1_655
Ga0 Sm32 3.066982 1_555
Ga0 Sm17 3.066982 1_555
Ga0 Sm41 3.235913 1_655
Ga0 Sm26 3.235913 1_555
Ga0 Sm30 3.288610 1_555
Ga0 Sm22 3.288610 1_555
Ga0 Sm21 3.369323 1_655
Ga0 Sm25 3.672763 1_555
Ga0 Sm34 3.672763 1_555
Ga1 Sm23 3.066168 1_555
Ga1 Sm15 3.066168 1_555
Ga1 Sm9 3.149239 1_555
Ga1 Sm47 3.149239 1_555
Ga1 Sm8 3.222846 1_555
Ga1 Sm25 3.222846 1_455
Ga1 Sm42 3.438120 1_555
Ga1 Sm18 3.438120 1_555
Ga1 Sm20 3.438120 1_555
Ga1 Sm41 3.438120 1_555
Ga2 Sm39 3.035041 1_555
Ga2 Sm42 3.066982 1_555
Ga2 Sm41 3.066982 1_555
Ga2 Sm32 3.235913 1_555
Ga2 Sm1 3.235913 1_545
Ga2 Sm27 3.288610 1_555
Ga2 Sm28 3.288610 1_555
Ga2 Sm12 3.369323 1_555
Ga2 Sm47 3.672763 1_555
Ga2 Sm9 3.672763 1_555
Ga3 Sm15 3.035041 1_555
Ga3 Sm1 3.066982 1_555
Ga3 Sm13 3.066982 1_555
Ga3 Sm42 3.235913 1_555
Ga3 Sm0 3.235913 1_455
Ga3 Sm24 3.288610 1_555
Ga3 Sm40 3.288610 1_555
Ga3 Sm21 3.369323 1_555
Ga3 Sm16 3.672763 1_555
Ga3 Sm8 3.672763 1_555
Ga4 Sm23 3.035041 1_555
Ga4 Sm10 3.066982 1_555
Ga4 Sm49 3.066982 1_555
Ga4 Sm18 3.235913 1_555
Ga4 Sm44 3.235913 1_455
Ga4 Sm50 3.288610 1_555
Ga4 Sm35 3.288610 1_555
Ga4 Sm36 3.369323 1_555
Ga4 Sm16 3.672763 1_555
Ga4 Sm8 3.672763 1_555
Ga5 Sm48 3.035041 1_555
Ga5 Sm18 3.066982 1_555
Ga5 Sm20 3.066982 1_555
Ga5 Sm6 3.235913 1_555
Ga5 Sm10 3.235913 1_545
Ga5 Sm7 3.288610 1_555
Ga5 Sm33 3.288610 1_555
Ga5 Sm14 3.369323 1_555
Ga5 Sm47 3.672763 1_555
Ga5 Sm9 3.672763 1_555
Ga6 Sm39 3.066168 1_565
Ga6 Sm48 3.066168 1_565
Ga6 Sm16 3.149239 1_555
Ga6 Sm8 3.149239 1_555
Ga6 Sm47 3.222846 1_565
Ga6 Sm11 3.222846 1_555
Ga6 Sm1 3.438120 1_555
Ga6 Sm10 3.438120 1_555
Ga6 Sm13 3.438120 1_555
Ga6 Sm49 3.438120 1_555
Ga7 Sm39 3.066168 1_555
Ga7 Sm48 3.066168 1_555
Ga7 Sm25 3.149239 1_555
Ga7 Sm34 3.149239 1_555
Ga7 Sm9 3.222846 1_555
Ga7 Sm31 3.222846 1_545
Ga7 Sm6 3.438120 1_555
Ga7 Sm32 3.438120 1_555
Ga7 Sm17 3.438120 1_555
Ga7 Sm43 3.438120 1_555
Ga8 Sm48 3.035041 1_565
Ga8 Sm44 3.066982 1_555
Ga8 Sm29 3.066982 1_555
Ga8 Sm43 3.235913 1_565
Ga8 Sm49 3.235913 1_555
Ga8 Sm37 3.288610 1_555
Ga8 Sm5 3.288610 1_555
Ga8 Sm14 3.369323 1_565
Ga8 Sm31 3.672763 1_555
Ga8 Sm11 3.672763 1_555
Ga9 Sm39 3.035041 1_565
Ga9 Sm0 3.066982 1_555
Ga9 Sm26 3.066982 1_555
Ga9 Sm17 3.235913 1_565
Ga9 Sm13 3.235913 1_555
Ga9 Sm51 3.288610 1_555
Ga9 Sm38 3.288610 1_555
Ga9 Sm12 3.369323 1_565
Ga9 Sm31 3.672763 1_555
Ga9 Sm11 3.672763 1_555
Ga10 Sm15 3.066168 1_655
Ga10 Sm23 3.066168 1_655
Ga10 Sm31 3.149239 1_555
Ga10 Sm11 3.149239 1_555
Ga10 Sm16 3.222846 1_655
Ga10 Sm34 3.222846 1_555
Ga10 Sm0 3.438120 1_555
Ga10 Sm44 3.438120 1_555
Ga10 Sm29 3.438120 1_555
Ga10 Sm26 3.438120 1_555
Ga11 Sm23 3.035041 1_655
Ga11 Sm6 3.066982 1_555
Ga11 Sm43 3.066982 1_555
Ga11 Sm20 3.235913 1_655
Ga11 Sm29 3.235913 1_555
Ga11 Sm3 3.288610 1_555
Ga11 Sm45 3.288610 1_555
Ga11 Sm36 3.369323 1_655
Ga11 Sm25 3.672763 1_555
Ga11 Sm34 3.672763 1_555
Co0 Sm21 2.855953 1_555
Co0 Sm36 2.855953 1_554
Co0 Sm40 2.974013 1_555
Co0 Sm24 2.974013 1_555
Co0 Sm50 2.974013 1_554
Co0 Sm35 2.974013 1_554
Co0 Sm19 3.031936 1_455
Co0 Sm46 3.031936 1_555
Co0 Co16 3.117316 1_455
Co1 Sm0 2.684683 1_555
Co1 Sm26 2.684683 1_555
Co1 Sm19 2.800319 1_555
Co1 Sm38 2.899834 1_555
Co1 Sm51 2.899834 1_555
Co1 Ga9 2.918736 1_555
Co1 Sm21 3.215680 1_655
Co1 Sm22 3.482629 1_555
Co1 Sm24 3.482629 1_655
Co2 Sm12 2.855953 1_565
Co2 Sm14 2.855953 1_564
Co2 Sm51 2.974013 1_555
Co2 Sm37 2.974013 1_554
Co2 Sm38 2.974013 1_555
Co2 Sm5 2.974013 1_554
Co2 Sm2 3.031936 1_565
Co2 Sm4 3.031936 1_555
Co3 Co8 2.732538 1_555
Co3 Co9 2.817361 1_555
Co3 Sm11 2.910332 1_555
Co3 Sm8 2.910332 1_555
Co3 Sm9 2.910332 1_555
Co3 Sm34 2.910332 1_555
Co3 Sm29 2.980780 1_555
Co3 Sm49 2.980780 1_555
Co3 Sm6 2.980780 1_555
Co3 Sm18 2.980780 1_555
Co4 Co8 2.817361 1_555
Co4 Sm13 2.876700 1_555
Co4 Sm26 2.876700 1_555
Co4 Sm42 2.876700 1_555
Co4 Sm32 2.876700 1_555
Co4 Sm22 3.012246 1_555
Co4 Sm38 3.012246 1_555
Co4 Sm27 3.012246 1_555
Co4 Sm40 3.012246 1_555
Co5 Co6 2.732538 1_555
Co5 Sm47 2.910332 1_555
Co5 Sm16 2.910332 1_545
Co5 Sm31 2.910332 1_445
Co5 Sm25 2.910332 1_455
Co5 Sm20 2.980780 1_555
Co5 Sm43 2.980780 1_455
Co5 Sm10 2.980780 1_545
Co5 Sm44 2.980780 1_445
Co6 Co7 2.817361 1_555
Co6 Sm47 2.910332 1_555
Co6 Sm16 2.910332 1_545
Co6 Sm31 2.910332 1_445
Co6 Sm25 2.910332 1_455
Co6 Sm41 2.980780 1_555
Co6 Sm17 2.980780 1_455
Co6 Sm1 2.980780 1_545
Co6 Sm0 2.980780 1_445
Co7 Sm41 2.876700 1_555
Co7 Sm17 2.876700 1_455
Co7 Sm1 2.876700 1_545
Co7 Sm0 2.876700 1_445
Co7 Sm30 3.012246 1_455
Co7 Sm28 3.012246 1_555
Co7 Sm51 3.012246 1_445
Co7 Sm24 3.012246 1_545
Co8 Sm11 2.910332 1_555
Co8 Sm8 2.910332 1_555
Co8 Sm9 2.910332 1_555
Co8 Sm34 2.910332 1_555
Co8 Sm26 2.980780 1_555
Co8 Sm13 2.980780 1_555
Co8 Sm42 2.980780 1_555
Co8 Sm32 2.980780 1_555
Co9 Sm29 2.876700 1_555
Co9 Sm49 2.876700 1_555
Co9 Sm18 2.876700 1_555
Co9 Sm6 2.876700 1_555
Co9 Sm45 3.012246 1_555
Co9 Sm5 3.012246 1_555
Co9 Sm50 3.012246 1_555
Co9 Sm7 3.012246 1_555
Co10 Sm43 2.684683 1_555
Co10 Sm6 2.684683 1_555
Co10 Sm2 2.800319 1_556
Co10 Sm3 2.899834 1_555
Co10 Sm45 2.899834 1_555
Co10 Ga11 2.918736 1_555
Co10 Sm14 3.215680 1_555
Co10 Sm37 3.482629 1_545
Co10 Sm7 3.482629 1_555
Co11 Sm17 2.684683 1_555
Co11 Sm32 2.684683 1_555
Co11 Sm2 2.800319 1_555
Co11 Sm30 2.899834 1_555
Co11 Sm22 2.899834 1_555
Co11 Ga0 2.918736 1_555
Co11 Sm12 3.215680 1_555
Co11 Sm51 3.482629 1_545
Co11 Sm27 3.482629 1_555
Co12 Sm12 2.855953 1_555
Co12 Sm14 2.855953 1_554
Co12 Sm27 2.974013 1_555
Co12 Sm28 2.974013 1_555
Co12 Sm7 2.974013 1_554
Co12 Sm33 2.974013 1_554
Co12 Sm2 3.031936 1_555
Co12 Sm4 3.031936 1_545
Co12 Co2 3.117316 1_545
Co13 Sm30 3.049856 1_455
Co13 Sm28 3.049856 1_555
Co13 Sm33 3.049856 1_554
Co13 Sm51 3.049856 1_445
Co13 Sm24 3.049856 1_545
Co13 Sm3 3.049856 1_454
Co13 Sm37 3.049856 1_444
Co13 Sm35 3.049856 1_544
Co14 Sm20 2.684683 1_555
Co14 Sm18 2.684683 1_555
Co14 Sm46 2.800319 1_556
Co14 Sm33 2.899834 1_555
Co14 Sm7 2.899834 1_555
Co14 Ga5 2.918736 1_555
Co14 Sm36 3.215680 1_555
Co14 Sm3 3.482629 1_455
Co14 Sm50 3.482629 1_555
Co15 Co5 2.817361 1_555
Co15 Sm20 2.876700 1_555
Co15 Sm43 2.876700 1_455
Co15 Sm10 2.876700 1_545
Co15 Sm44 2.876700 1_445
Co15 Sm33 3.012246 1_555
Co15 Sm3 3.012246 1_455
Co15 Sm37 3.012246 1_445
Co15 Sm35 3.012246 1_545
Co16 Sm21 2.855953 1_655
Co16 Sm36 2.855953 1_654
Co16 Sm30 2.974013 1_555
Co16 Sm22 2.974013 1_555
Co16 Sm3 2.974013 1_554
Co16 Sm45 2.974013 1_554
Co16 Sm19 3.031936 1_555
Co16 Sm46 3.031936 1_655
Co17 Sm41 2.684683 1_555
Co17 Sm42 2.684683 1_555
Co17 Sm46 2.800319 1_555
Co17 Sm28 2.899834 1_555
Co17 Sm27 2.899834 1_555
Co17 Ga2 2.918736 1_555
Co17 Sm21 3.215680 1_555
Co17 Sm30 3.482629 1_455
Co17 Sm40 3.482629 1_555
Co18 Sm22 3.049856 1_555
Co18 Sm38 3.049856 1_555
Co18 Sm45 3.049856 1_554
Co18 Sm5 3.049856 1_554
Co18 Sm27 3.049856 1_555
Co18 Sm40 3.049856 1_555
Co18 Sm7 3.049856 1_554
Co18 Sm50 3.049856 1_554
Co19 Sm10 2.684683 1_555
Co19 Sm49 2.684683 1_555
Co19 Sm4 2.800319 1_556
Co19 Sm50 2.899834 1_555
Co19 Sm35 2.899834 1_555
Co19 Ga4 2.918736 1_555
Co19 Sm14 3.215680 1_565
Co19 Sm33 3.482629 1_565
Co19 Sm5 3.482629 1_555
Co20 Sm44 2.684683 1_555
Co20 Sm29 2.684683 1_555
Co20 Sm19 2.800319 1_556
Co20 Sm5 2.899834 1_555
Co20 Sm37 2.899834 1_555
Co20 Ga8 2.918736 1_555
Co20 Sm36 3.215680 1_655
Co20 Sm45 3.482629 1_555
Co20 Sm35 3.482629 1_655
Co21 Sm1 2.684683 1_555
Co21 Sm13 2.684683 1_555
Co21 Sm4 2.800319 1_555
Co21 Sm40 2.899834 1_555
Co21 Sm24 2.899834 1_555
Co21 Ga3 2.918736 1_555
Co21 Sm12 3.215680 1_565
Co21 Sm28 3.482629 1_565
Co21 Sm38 3.482629 1_555
