# generated using pymatgen
data_KAl2P2H5O11
_symmetry_space_group_name_H-M   'P 1'
_cell_length_a   9.58943700
_cell_length_b   9.58815300
_cell_length_c   11.91518469
_cell_angle_alpha   51.77460335
_cell_angle_beta   90.00000000
_cell_angle_gamma   90.00000000
_symmetry_Int_Tables_number   1
_chemical_formula_structural   KAl2P2H5O11
_chemical_formula_sum   'K4 Al8 P8 H20 O44'
_cell_volume   860.63847438
_cell_formula_units_Z   4
loop_
 _symmetry_equiv_pos_site_id
 _symmetry_equiv_pos_as_xyz
  1  'x, y, z'
loop_
 _atom_site_type_symbol
 _atom_site_label
 _atom_site_symmetry_multiplicity
 _atom_site_fract_x
 _atom_site_fract_y
 _atom_site_fract_z
 _atom_site_occupancy
  K  K0  1  0.20338400  0.38028300  0.09802600  1
  K  K1  1  0.70338400  0.61971700  0.40197400  1
  K  K2  1  0.79661600  0.61971700  0.90197400  1
  K  K3  1  0.29661600  0.38028300  0.59802600  1
  Al  Al0  1  0.54360300  0.98162700  0.62848000  1
  Al  Al1  1  0.04360300  0.01837300  0.87152000  1
  Al  Al2  1  0.45639700  0.01837300  0.37152000  1
  Al  Al3  1  0.95639700  0.98162700  0.12848000  1
  Al  Al4  1  0.22523100  0.70811600  0.69013000  1
  Al  Al5  1  0.72523100  0.29188400  0.80987000  1
  Al  Al6  1  0.77476900  0.29188400  0.30987000  1
  Al  Al7  1  0.27476900  0.70811600  0.19013000  1
  P  P0  1  0.02714200  0.35152800  0.85206500  1
  P  P1  1  0.52714200  0.64847200  0.64793500  1
  P  P2  1  0.97285800  0.64847200  0.14793500  1
  P  P3  1  0.47285800  0.35152800  0.35206500  1
  P  P4  1  0.18565800  0.84154400  0.36752400  1
  P  P5  1  0.68565800  0.15845600  0.13247600  1
  P  P6  1  0.81434200  0.15845600  0.63247600  1
  P  P7  1  0.31434200  0.84154400  0.86752400  1
  H  H0  1  0.30021300  0.04525700  0.52297400  1
  H  H1  1  0.80021300  0.95474300  0.97702600  1
  H  H2  1  0.69978700  0.95474300  0.47702600  1
  H  H3  1  0.19978700  0.04525700  0.02297400  1
  H  H4  1  0.98054200  0.83893000  0.60595400  1
  H  H5  1  0.48054200  0.16107000  0.89404600  1
  H  H6  1  0.01945800  0.16107000  0.39404600  1
  H  H7  1  0.51945800  0.83893000  0.10595400  1
  H  H8  1  0.03348400  0.92070600  0.68582000  1
  H  H9  1  0.53348400  0.07929400  0.81418000  1
  H  H10  1  0.96651600  0.07929400  0.31418000  1
  H  H11  1  0.46651600  0.92070600  0.18582000  1
  H  H12  1  0.07942100  0.19636600  0.53577200  1
  H  H13  1  0.57942100  0.80363400  0.96422800  1
  H  H14  1  0.92057900  0.80363400  0.46422800  1
  H  H15  1  0.42057900  0.19636600  0.03577200  1
  H  H16  1  0.13248000  0.35432600  0.37822700  1
  H  H17  1  0.63248000  0.64567400  0.12177300  1
  H  H18  1  0.86752000  0.64567400  0.62177300  1
  H  H19  1  0.36752000  0.35432600  0.87822700  1
  O  O0  1  0.08685200  0.25337200  0.79688400  1
  O  O1  1  0.58685200  0.74662800  0.70311600  1
  O  O2  1  0.91314800  0.74662800  0.20311600  1
  O  O3  1  0.41314800  0.25337200  0.29688400  1
  O  O4  1  0.12212700  0.50192300  0.81599200  1
  O  O5  1  0.62212700  0.49807700  0.68400800  1
  O  O6  1  0.87787300  0.49807700  0.18400800  1
  O  O7  1  0.37787300  0.50192300  0.31599200  1
  O  O8  1  0.01106200  0.22157000  0.01771800  1
  O  O9  1  0.51106200  0.77843000  0.48228200  1
  O  O10  1  0.98893800  0.77843000  0.98228200  1
  O  O11  1  0.48893800  0.22157000  0.51771800  1
  O  O12  1  0.38118300  0.57001400  0.71765200  1
  O  O13  1  0.88118300  0.42998600  0.78234800  1
  O  O14  1  0.61881700  0.42998600  0.28234800  1
  O  O15  1  0.11881700  0.57001400  0.21765200  1
  O  O16  1  0.22994400  0.71306700  0.33792900  1
  O  O17  1  0.72994400  0.28693300  0.16207100  1
  O  O18  1  0.77005600  0.28693300  0.66207100  1
  O  O19  1  0.27005600  0.71306700  0.83792900  1
  O  O20  1  0.03923100  0.92241600  0.29759800  1
  O  O21  1  0.53923100  0.07758400  0.20240200  1
  O  O22  1  0.96076900  0.07758400  0.70240200  1
  O  O23  1  0.46076900  0.92241600  0.79759800  1
  O  O24  1  0.28809100  0.99783700  0.30456800  1
  O  O25  1  0.78809100  0.00216300  0.19543200  1
  O  O26  1  0.71190900  0.00216300  0.69543200  1
  O  O27  1  0.21190900  0.99783700  0.80456800  1
  O  O28  1  0.17042800  0.73299400  0.52977200  1
  O  O29  1  0.67042800  0.26700600  0.97022800  1
  O  O30  1  0.82957200  0.26700600  0.47022800  1
  O  O31  1  0.32957200  0.73299400  0.02977200  1
  O  O32  1  0.36359300  0.94542300  0.55603800  1
  O  O33  1  0.86359300  0.05457700  0.94396200  1
  O  O34  1  0.63640700  0.05457700  0.44396200  1
  O  O35  1  0.13640700  0.94542300  0.05603800  1
  O  O36  1  0.06163000  0.85221400  0.65246100  1
  O  O37  1  0.56163000  0.14778600  0.84753900  1
  O  O38  1  0.93837000  0.14778600  0.34753900  1
  O  O39  1  0.43837000  0.85221400  0.15246100  1
  O  O40  1  0.13910700  0.22389700  0.45693900  1
  O  O41  1  0.63910700  0.77610300  0.04306100  1
  O  O42  1  0.86089300  0.77610300  0.54306100  1
  O  O43  1  0.36089300  0.22389700  0.95693900  1
loop_
_geom_bond_atom_site_label_1
_geom_bond_atom_site_label_2
_geom_bond_distance
_geom_bond_site_symmetry_2
K0 O3 2.751924 1_555
K0 O19 2.820828 1_554
K0 O4 2.900010 1_554
K0 O8 2.904255 1_555
K0 O24 2.999181 1_545
K0 O15 3.034392 1_555
K0 O31 3.187318 1_555
K1 O2 2.751924 1_555
K1 O18 2.820828 1_555
K1 O5 2.900010 1_555
K1 O9 2.904255 1_555
K1 O25 2.999181 1_565
K1 O14 3.034392 1_555
K1 O30 3.187318 1_555
K2 O1 2.751924 1_555
K2 O17 2.820828 1_556
K2 O6 2.900010 1_556
K2 O10 2.904255 1_555
K2 O26 2.999181 1_565
K2 O13 3.034392 1_555
K2 O29 3.187318 1_555
K3 O0 2.751924 1_555
K3 O16 2.820828 1_555
K3 O7 2.900010 1_555
K3 O11 2.904255 1_555
K3 O27 2.999181 1_545
K3 O12 3.034392 1_555
K3 O28 3.187318 1_555
Al0 O26 1.863980 1_565
Al0 O11 1.884666 1_565
Al0 O1 1.886822 1_555
Al0 O23 1.896857 1_555
Al0 O34 2.052285 1_565
Al0 O32 2.053311 1_555
Al1 O27 1.863980 1_545
Al1 O10 1.884666 1_445
Al1 O0 1.886822 1_555
Al1 O22 1.896857 1_455
Al1 O35 2.052285 1_546
Al1 O33 2.053311 1_455
Al2 O24 1.863980 1_545
Al2 O9 1.884666 1_545
Al2 O3 1.886822 1_555
Al2 O21 1.896857 1_555
Al2 O32 2.052285 1_545
Al2 O34 2.053311 1_555
Al3 O25 1.863980 1_565
Al3 O8 1.884666 1_665
Al3 O2 1.886822 1_555
Al3 O20 1.896857 1_655
Al3 O33 2.052285 1_564
Al3 O35 2.053311 1_655
Al4 O19 1.841679 1_555
Al4 O28 1.849276 1_555
Al4 O4 1.861738 1_555
Al4 O12 1.886804 1_555
Al4 O36 1.950440 1_555
Al4 O32 2.234168 1_555
Al5 O18 1.841679 1_555
Al5 O29 1.849276 1_555
Al5 O5 1.861738 1_555
Al5 O13 1.886804 1_555
Al5 O37 1.950440 1_555
Al5 O33 2.234168 1_555
Al6 O17 1.841679 1_555
Al6 O30 1.849276 1_555
Al6 O6 1.861738 1_555
Al6 O14 1.886804 1_555
Al6 O38 1.950440 1_555
Al6 O34 2.234168 1_555
Al7 O16 1.841679 1_555
Al7 O31 1.849276 1_555
Al7 O7 1.861738 1_555
Al7 O15 1.886804 1_555
Al7 O39 1.950440 1_555
Al7 O35 2.234168 1_555
H0 O32 0.987015 1_545
H1 O33 0.987015 1_565
H2 O34 0.987015 1_565
H3 O35 0.987015 1_545
H4 O36 1.007611 1_655
H5 O37 1.007611 1_555
H6 O38 1.007611 1_455
H7 O39 1.007611 1_555
H8 O36 0.992540 1_555
H9 O37 0.992540 1_555
H10 O38 0.992540 1_555
H11 O39 0.992540 1_555
H12 O40 0.986272 1_555
H13 O41 0.986272 1_556
H14 O42 0.986272 1_555
H15 O43 0.986272 1_554
H16 O40 0.998059 1_555
H17 O41 0.998059 1_555
H18 O42 0.998059 1_555
H19 O43 0.998059 1_555
O0 P0 1.552947 1_555
O1 P1 1.552947 1_555
O2 P2 1.552947 1_555
O3 P3 1.552947 1_555
O4 P0 1.525378 1_555
O5 P1 1.525378 1_555
O6 P2 1.525378 1_555
O7 P3 1.525378 1_555
O8 P0 1.558417 1_554
O9 P1 1.558417 1_555
O10 P2 1.558417 1_556
O11 P3 1.558417 1_555
O12 P1 1.562591 1_555
O13 P0 1.562591 1_655
O14 P3 1.562591 1_555
O15 P2 1.562591 1_455
O16 P4 1.536143 1_555
O17 P5 1.536143 1_555
O18 P6 1.536143 1_555
O19 P7 1.536143 1_555
O20 P4 1.570857 1_555
O21 P5 1.570857 1_555
O22 P6 1.570857 1_555
O23 P7 1.570857 1_555
O24 P4 1.543417 1_555
O25 P5 1.543417 1_555
O26 P6 1.543417 1_555
O27 P7 1.543417 1_555
O28 P4 1.533600 1_555
O29 P5 1.533600 1_556
O30 P6 1.533600 1_555
O31 P7 1.533600 1_554
