# generated using pymatgen
data_ErCuPbSe3
_symmetry_space_group_name_H-M   'P 1'
_cell_length_a   4.04935400
_cell_length_b   10.56782600
_cell_length_c   13.63375100
_cell_angle_alpha   90.00000000
_cell_angle_beta   90.00000000
_cell_angle_gamma   90.00000000
_symmetry_Int_Tables_number   1
_chemical_formula_structural   ErCuPbSe3
_chemical_formula_sum   'Er4 Cu4 Pb4 Se12'
_cell_volume   583.42731349
_cell_formula_units_Z   4
loop_
 _symmetry_equiv_pos_site_id
 _symmetry_equiv_pos_as_xyz
  1  'x, y, z'
loop_
 _atom_site_type_symbol
 _atom_site_label
 _atom_site_symmetry_multiplicity
 _atom_site_fract_x
 _atom_site_fract_y
 _atom_site_fract_z
 _atom_site_occupancy
  Er  Er0  1  0.25000000  0.51112800  0.74432200  1
  Er  Er1  1  0.25000000  0.01112800  0.75567800  1
  Er  Er2  1  0.75000000  0.98887200  0.24432200  1
  Er  Er3  1  0.75000000  0.48887200  0.25567800  1
  Cu  Cu0  1  0.75000000  0.75677900  0.71844200  1
  Cu  Cu1  1  0.25000000  0.74322100  0.21844200  1
  Cu  Cu2  1  0.75000000  0.25677900  0.78155800  1
  Cu  Cu3  1  0.25000000  0.24322100  0.28155800  1
  Pb  Pb0  1  0.25000000  0.26912600  0.99382700  1
  Pb  Pb1  1  0.25000000  0.76912600  0.50617300  1
  Pb  Pb2  1  0.75000000  0.23087400  0.49382700  1
  Pb  Pb3  1  0.75000000  0.73087400  0.00617300  1
  Se  Se0  1  0.25000000  0.25820200  0.67150600  1
  Se  Se1  1  0.75000000  0.44856400  0.88612500  1
  Se  Se2  1  0.75000000  0.07600400  0.89331600  1
  Se  Se3  1  0.75000000  0.74179800  0.32849400  1
  Se  Se4  1  0.25000000  0.92399600  0.10668400  1
  Se  Se5  1  0.25000000  0.42399600  0.39331600  1
  Se  Se6  1  0.25000000  0.55143600  0.11387500  1
  Se  Se7  1  0.75000000  0.94856400  0.61387500  1
  Se  Se8  1  0.25000000  0.05143600  0.38612500  1
  Se  Se9  1  0.75000000  0.24179800  0.17150600  1
  Se  Se10  1  0.25000000  0.75820200  0.82849400  1
  Se  Se11  1  0.75000000  0.57600400  0.60668400  1
loop_
_geom_bond_atom_site_label_1
_geom_bond_atom_site_label_2
_geom_bond_distance
_geom_bond_site_symmetry_2
Er0 Se11 2.844415 1_555
Er0 Se11 2.844415 1_455
Er0 Se0 2.851287 1_555
Er0 Se10 2.852095 1_555
Er0 Se1 2.876479 1_555
Er0 Se1 2.876479 1_455
Er1 Se2 2.844415 1_555
Er1 Se2 2.844415 1_455
Er1 Se10 2.851287 1_545
Er1 Se0 2.852095 1_555
Er1 Se7 2.876479 1_545
Er1 Se7 2.876479 1_445
Er2 Se4 2.844415 1_655
Er2 Se4 2.844415 1_555
Er2 Se9 2.851287 1_565
Er2 Se3 2.852095 1_555
Er2 Se8 2.876479 1_565
Er2 Se8 2.876479 1_665
Er3 Se5 2.844415 1_655
Er3 Se5 2.844415 1_555
Er3 Se3 2.851287 1_555
Er3 Se9 2.852095 1_555
Er3 Se6 2.876479 1_655
Er3 Se6 2.876479 1_555
Cu0 Se11 2.443609 1_555
Cu0 Se7 2.477936 1_555
Cu0 Se10 2.520081 1_655
Cu0 Se10 2.520081 1_555
Cu1 Se4 2.443609 1_555
Cu1 Se6 2.477936 1_555
Cu1 Se3 2.520081 1_555
Cu1 Se3 2.520081 1_455
Cu2 Se2 2.443609 1_555
Cu2 Se1 2.477936 1_555
Cu2 Se0 2.520081 1_555
Cu2 Se0 2.520081 1_655
Cu3 Se5 2.443609 1_555
Cu3 Se8 2.477936 1_555
Cu3 Se9 2.520081 1_555
Cu3 Se9 2.520081 1_455
Pb0 Se1 3.138678 1_555
Pb0 Se1 3.138678 1_455
Pb0 Se9 3.170315 1_556
Pb0 Se9 3.170315 1_456
Pb0 Se2 3.184705 1_555
Pb0 Se2 3.184705 1_455
Pb1 Se7 3.138678 1_555
Pb1 Se7 3.138678 1_455
Pb1 Se3 3.170315 1_555
Pb1 Se3 3.170315 1_455
Pb1 Se11 3.184705 1_555
Pb1 Se11 3.184705 1_455
Pb2 Se8 3.138678 1_655
Pb2 Se8 3.138678 1_555
Pb2 Se0 3.170315 1_655
Pb2 Se0 3.170315 1_555
Pb2 Se5 3.184705 1_655
Pb2 Se5 3.184705 1_555
Pb3 Se6 3.138678 1_655
Pb3 Se6 3.138678 1_555
Pb3 Se10 3.170315 1_654
Pb3 Se10 3.170315 1_554
Pb3 Se4 3.184705 1_555
Pb3 Se4 3.184705 1_655
