# generated using pymatgen
data_Hg9(PO4)4
_symmetry_space_group_name_H-M   'P 1'
_cell_length_a   10.39894170
_cell_length_b   10.39894170
_cell_length_c   10.39894093
_cell_angle_alpha   108.46393720
_cell_angle_beta   108.46393720
_cell_angle_gamma   108.46393568
_symmetry_Int_Tables_number   1
_chemical_formula_structural   Hg9(PO4)4
_chemical_formula_sum   'Hg18 P8 O32'
_cell_volume   896.48677076
_cell_formula_units_Z   2
loop_
 _symmetry_equiv_pos_site_id
 _symmetry_equiv_pos_as_xyz
  1  'x, y, z'
loop_
 _atom_site_type_symbol
 _atom_site_label
 _atom_site_symmetry_multiplicity
 _atom_site_fract_x
 _atom_site_fract_y
 _atom_site_fract_z
 _atom_site_occupancy
  Hg  Hg0  1  0.45619300  0.40461900  0.17919100  1
  Hg  Hg1  1  0.40461900  0.17919100  0.45619300  1
  Hg  Hg2  1  0.17919100  0.45619300  0.40461900  1
  Hg  Hg3  1  0.90461900  0.95619300  0.67919100  1
  Hg  Hg4  1  0.95619300  0.67919100  0.90461900  1
  Hg  Hg5  1  0.67919100  0.90461900  0.95619300  1
  Hg  Hg6  1  0.28083600  0.18073800  0.65214700  1
  Hg  Hg7  1  0.18073800  0.65214700  0.28083600  1
  Hg  Hg8  1  0.65214700  0.28083600  0.18073800  1
  Hg  Hg9  1  0.68073800  0.78083600  0.15214700  1
  Hg  Hg10  1  0.78083600  0.15214700  0.68073800  1
  Hg  Hg11  1  0.15214700  0.68073800  0.78083600  1
  Hg  Hg12  1  0.98258200  0.34767600  0.09334700  1
  Hg  Hg13  1  0.34767600  0.09334700  0.98258200  1
  Hg  Hg14  1  0.09334700  0.98258200  0.34767600  1
  Hg  Hg15  1  0.84767600  0.48258200  0.59334700  1
  Hg  Hg16  1  0.48258200  0.59334700  0.84767600  1
  Hg  Hg17  1  0.59334700  0.84767600  0.48258200  1
  P  P0  1  0.17372700  0.37866800  0.88187700  1
  P  P1  1  0.37866800  0.88187700  0.17372700  1
  P  P2  1  0.88187700  0.17372700  0.37866800  1
  P  P3  1  0.87866800  0.67372700  0.38187700  1
  P  P4  1  0.67372700  0.38187700  0.87866800  1
  P  P5  1  0.38187700  0.87866800  0.67372700  1
  P  P6  1  0.05581000  0.05581000  0.05581000  1
  P  P7  1  0.55581000  0.55581000  0.55581000  1
  O  O0  1  0.91722300  0.09004300  0.99160100  1
  O  O1  1  0.09004300  0.99160100  0.91722300  1
  O  O2  1  0.99160100  0.91722300  0.09004300  1
  O  O3  1  0.59004300  0.41722300  0.49160100  1
  O  O4  1  0.41722300  0.49160100  0.59004300  1
  O  O5  1  0.49160100  0.59004300  0.41722300  1
  O  O6  1  0.15773000  0.21582400  0.79354300  1
  O  O7  1  0.21582400  0.79354300  0.15773000  1
  O  O8  1  0.79354300  0.15773000  0.21582400  1
  O  O9  1  0.71582400  0.65773000  0.29354300  1
  O  O10  1  0.65773000  0.29354300  0.71582400  1
  O  O11  1  0.29354300  0.71582400  0.65773000  1
  O  O12  1  0.27970200  0.45391700  0.05626500  1
  O  O13  1  0.45391700  0.05626500  0.27970200  1
  O  O14  1  0.05626500  0.27970200  0.45391700  1
  O  O15  1  0.95391700  0.77970200  0.55626500  1
  O  O16  1  0.77970200  0.55626500  0.95391700  1
  O  O17  1  0.55626500  0.95391700  0.77970200  1
  O  O18  1  0.01327900  0.36255700  0.86695100  1
  O  O19  1  0.36255700  0.86695100  0.01327900  1
  O  O20  1  0.86695100  0.01327900  0.36255700  1
  O  O21  1  0.86255700  0.51327900  0.36695100  1
  O  O22  1  0.51327900  0.36695100  0.86255700  1
  O  O23  1  0.36695100  0.86255700  0.51327900  1
  O  O24  1  0.73238200  0.31175900  0.98229500  1
  O  O25  1  0.31175900  0.98229500  0.73238200  1
  O  O26  1  0.98229500  0.73238200  0.31175900  1
  O  O27  1  0.81175900  0.23238200  0.48229500  1
  O  O28  1  0.23238200  0.48229500  0.81175900  1
  O  O29  1  0.48229500  0.81175900  0.23238200  1
  O  O30  1  0.19548900  0.19548900  0.19548900  1
  O  O31  1  0.69548900  0.69548900  0.69548900  1
loop_
_geom_bond_atom_site_label_1
_geom_bond_atom_site_label_2
_geom_bond_distance
_geom_bond_site_symmetry_2
Hg0 O12 2.188666 1_555
Hg0 O5 2.435236 1_555
Hg1 O13 2.188666 1_555
Hg1 O3 2.435236 1_555
Hg2 O14 2.188666 1_555
Hg2 O4 2.435236 1_555
Hg3 O15 2.188666 1_555
Hg3 O1 2.435236 1_655
Hg4 O16 2.188666 1_555
Hg4 O2 2.435236 1_556
Hg5 O17 2.188666 1_555
Hg5 O0 2.435236 1_565
Hg6 O6 2.254392 1_555
Hg6 O22 2.319769 1_555
Hg6 O25 2.529619 1_545
Hg7 O7 2.254392 1_555
Hg7 O23 2.319769 1_555
Hg7 O26 2.529619 1_455
Hg8 O8 2.254392 1_555
Hg8 O21 2.319769 1_555
Hg8 O24 2.529619 1_554
Hg9 O9 2.254392 1_555
Hg9 O20 2.319769 1_565
Hg9 O29 2.529619 1_555
Hg10 O10 2.254392 1_555
Hg10 O18 2.319769 1_655
Hg10 O27 2.529619 1_555
Hg11 O11 2.254392 1_555
Hg11 O19 2.319769 1_556
Hg11 O28 2.529619 1_555
Hg12 O0 2.314014 1_554
Hg12 O24 2.334659 1_554
Hg12 O18 2.518725 1_654
Hg13 O1 2.314014 1_545
Hg13 O25 2.334659 1_545
Hg13 O19 2.518725 1_546
Hg14 O2 2.314014 1_455
Hg14 O26 2.334659 1_455
Hg14 O20 2.518725 1_465
Hg15 O3 2.314014 1_555
Hg15 O27 2.334659 1_555
Hg15 O21 2.518725 1_555
Hg16 O4 2.314014 1_555
Hg16 O28 2.334659 1_555
Hg16 O22 2.518725 1_555
Hg17 O5 2.314014 1_555
Hg17 O29 2.334659 1_555
Hg17 O23 2.518725 1_555
O0 P6 1.586033 1_656
O1 P6 1.586033 1_566
O2 P6 1.586033 1_665
O3 P7 1.586033 1_555
O4 P7 1.586033 1_555
O5 P7 1.586033 1_555
O6 P0 1.574345 1_555
O7 P1 1.574345 1_555
O8 P2 1.574345 1_555
O9 P3 1.574345 1_555
O10 P4 1.574345 1_555
O11 P5 1.574345 1_555
O12 P0 1.550632 1_554
O13 P1 1.550632 1_545
O14 P2 1.550632 1_455
O15 P3 1.550632 1_555
O16 P4 1.550632 1_555
O17 P5 1.550632 1_555
O18 P0 1.574308 1_555
O19 P1 1.574308 1_555
O20 P2 1.574308 1_555
O21 P3 1.574308 1_555
O22 P4 1.574308 1_555
O23 P5 1.574308 1_555
O24 P4 1.558212 1_555
O25 P5 1.558212 1_555
O26 P3 1.558212 1_555
O27 P2 1.558212 1_555
O28 P0 1.558212 1_555
O29 P1 1.558212 1_555
O30 P6 1.523239 1_555
O31 P7 1.523239 1_555
