# generated using pymatgen
data_Ba(CrAs)2
_symmetry_space_group_name_H-M   'P 1'
_cell_length_a   4.13020800
_cell_length_b   4.13020800
_cell_length_c   7.12294202
_cell_angle_alpha   106.85334016
_cell_angle_beta   106.85334016
_cell_angle_gamma   90.00000000
_symmetry_Int_Tables_number   1
_chemical_formula_structural   Ba(CrAs)2
_chemical_formula_sum   'Ba1 Cr2 As2'
_cell_volume   110.82457083
_cell_formula_units_Z   1
loop_
 _symmetry_equiv_pos_site_id
 _symmetry_equiv_pos_as_xyz
  1  'x, y, z'
loop_
 _atom_site_type_symbol
 _atom_site_label
 _atom_site_symmetry_multiplicity
 _atom_site_fract_x
 _atom_site_fract_y
 _atom_site_fract_z
 _atom_site_occupancy
  Ba  Ba0  1  0.00000000  0.00000000  0.00000000  1
  Cr  Cr0  1  0.25000000  0.75000000  0.50000000  1
  Cr  Cr1  1  0.75000000  0.25000000  0.50000000  1
  As  As0  1  0.35178800  0.35178800  0.70357600  1
  As  As1  1  0.64821200  0.64821200  0.29642400  1
loop_
_geom_bond_atom_site_label_1
_geom_bond_atom_site_label_2
_geom_bond_distance
_geom_bond_site_symmetry_2
As0 Cr1 2.452315 1_455
As0 Cr1 2.452315 1_555
As0 Cr0 2.452315 1_555
As0 Cr0 2.452315 1_545
As0 Ba0 3.498274 1_666
As0 Ba0 3.498274 1_656
As0 Ba0 3.498274 1_556
As0 Ba0 3.498274 1_566
As1 Cr1 2.452315 1_555
As1 Cr0 2.452315 1_655
As1 Cr0 2.452315 1_555
As1 Cr1 2.452315 1_565
As1 Ba0 3.498274 1_565
As1 Ba0 3.498274 1_665
As1 Ba0 3.498274 1_655
As1 Ba0 3.498274 1_555
