# generated using pymatgen
data_Ba2CuWO6
_symmetry_space_group_name_H-M   'P 1'
_cell_length_a   6.00131412
_cell_length_b   6.00131412
_cell_length_c   6.00131412
_cell_angle_alpha   124.23566381
_cell_angle_beta   124.23566381
_cell_angle_gamma   82.80791539
_symmetry_Int_Tables_number   1
_chemical_formula_structural   Ba2CuWO6
_chemical_formula_sum   'Ba2 Cu1 W1 O6'
_cell_volume   141.82372128
_cell_formula_units_Z   1
loop_
 _symmetry_equiv_pos_site_id
 _symmetry_equiv_pos_as_xyz
  1  'x, y, z'
loop_
 _atom_site_type_symbol
 _atom_site_label
 _atom_site_symmetry_multiplicity
 _atom_site_fract_x
 _atom_site_fract_y
 _atom_site_fract_z
 _atom_site_occupancy
  Ba  Ba0  1  0.75000000  0.25000000  0.50000000  1
  Ba  Ba1  1  0.25000000  0.75000000  0.50000000  1
  Cu  Cu0  1  0.00000000  0.00000000  0.00000000  1
  W  W0  1  0.50000000  0.50000000  0.00000000  1
  O  O0  1  0.75802300  0.73653900  0.49456100  1
  O  O1  1  0.73653900  0.24197700  0.97851600  1
  O  O2  1  0.26346100  0.75802300  0.02148400  1
  O  O3  1  0.24197700  0.26346100  0.50543900  1
  O  O4  1  0.28353100  0.28353100  0.00000000  1
  O  O5  1  0.71646900  0.71646900  0.00000000  1
loop_
_geom_bond_atom_site_label_1
_geom_bond_atom_site_label_2
_geom_bond_distance
_geom_bond_site_symmetry_2
Ba0 O5 2.822731 1_545
Ba0 O4 2.822731 1_555
Ba0 O4 2.822731 1_656
Ba0 O5 2.822731 1_556
Ba0 O3 2.945032 1_655
Ba0 O2 2.945036 1_545
Ba0 O1 2.945036 1_555
Ba0 O0 2.945039 1_555
Ba0 O0 3.057794 1_545
Ba0 O2 3.057797 1_656
Ba0 O1 3.057797 1_554
Ba0 O3 3.057801 1_555
Ba1 O5 2.822731 1_455
Ba1 O4 2.822731 1_555
Ba1 O5 2.822731 1_556
Ba1 O4 2.822731 1_566
Ba1 O0 2.945032 1_455
Ba1 O2 2.945036 1_555
Ba1 O1 2.945036 1_565
Ba1 O3 2.945039 1_555
Ba1 O3 3.057794 1_565
Ba1 O1 3.057797 1_454
Ba1 O2 3.057797 1_556
Ba1 O0 3.057801 1_555
Cu0 O1 2.007921 1_454
Cu0 O2 2.007921 1_545
Cu0 O0 2.007925 1_444
Cu0 O3 2.007925 1_555
Cu0 O5 2.552560 1_445
Cu0 O4 2.552560 1_555
O0 W0 1.964789 1_555
O1 W0 1.964793 1_556
O2 W0 1.964793 1_555
O3 W0 1.964789 1_556
O4 W0 1.948818 1_555
O5 W0 1.948818 1_555
