# generated using pymatgen
data_SrMo2(PO4)4
_symmetry_space_group_name_H-M   'P 1'
_cell_length_a   7.87013700
_cell_length_b   8.04400900
_cell_length_c   12.48220465
_cell_angle_alpha   50.96527266
_cell_angle_beta   90.00000000
_cell_angle_gamma   90.00000000
_symmetry_Int_Tables_number   1
_chemical_formula_structural   SrMo2(PO4)4
_chemical_formula_sum   'Sr2 Mo4 P8 O32'
_cell_volume   613.81209653
_cell_formula_units_Z   2
loop_
 _symmetry_equiv_pos_site_id
 _symmetry_equiv_pos_as_xyz
  1  'x, y, z'
loop_
 _atom_site_type_symbol
 _atom_site_label
 _atom_site_symmetry_multiplicity
 _atom_site_fract_x
 _atom_site_fract_y
 _atom_site_fract_z
 _atom_site_occupancy
  Sr  Sr0  1  0.00000000  0.50000000  0.00000000  1
  Sr  Sr1  1  0.50000000  0.50000000  0.50000000  1
  Mo  Mo0  1  0.27976800  0.11207800  0.33595800  1
  Mo  Mo1  1  0.72023200  0.88792200  0.66404200  1
  Mo  Mo2  1  0.22023200  0.11207800  0.83595800  1
  Mo  Mo3  1  0.77976800  0.88792200  0.16404200  1
  P  P0  1  0.40138400  0.15468200  0.06341400  1
  P  P1  1  0.38476000  0.53679900  0.78817900  1
  P  P2  1  0.90138400  0.84531800  0.43658600  1
  P  P3  1  0.61524000  0.46320100  0.21182100  1
  P  P4  1  0.09861600  0.15468200  0.56341400  1
  P  P5  1  0.11524000  0.53679900  0.28817900  1
  P  P6  1  0.88476000  0.46320100  0.71182100  1
  P  P7  1  0.59861600  0.84531800  0.93658600  1
  O  O0  1  0.14961500  0.41693100  0.22986400  1
  O  O1  1  0.98836800  0.71744900  0.19142700  1
  O  O2  1  0.23095200  0.59698800  0.82712700  1
  O  O3  1  0.64961500  0.58306900  0.27013600  1
  O  O4  1  0.79447500  0.77899600  0.36499600  1
  O  O5  1  0.26904800  0.59698800  0.32712700  1
  O  O6  1  0.29447500  0.22100400  0.13500400  1
  O  O7  1  0.76904800  0.40301200  0.17287300  1
  O  O8  1  0.50597300  0.63743400  0.06776300  1
  O  O9  1  0.53971600  0.99746100  0.15985800  1
  O  O10  1  0.37852000  0.86929700  0.41523300  1
  O  O11  1  0.00597300  0.36256600  0.43223700  1
  O  O12  1  0.46028400  0.00253900  0.84014200  1
  O  O13  1  0.22014800  0.07201300  0.51036400  1
  O  O14  1  0.99402700  0.63743400  0.56776300  1
  O  O15  1  0.20552500  0.22100400  0.63500400  1
  O  O16  1  0.03971600  0.00253900  0.34014200  1
  O  O17  1  0.51163200  0.71744900  0.69142700  1
  O  O18  1  0.35038500  0.41693100  0.72986400  1
  O  O19  1  0.72014800  0.92798700  0.98963600  1
  O  O20  1  0.96028400  0.99746100  0.65985800  1
  O  O21  1  0.73095200  0.40301200  0.67287300  1
  O  O22  1  0.85038500  0.58306900  0.77013600  1
  O  O23  1  0.62148000  0.13070300  0.58476700  1
  O  O24  1  0.01163200  0.28255100  0.80857300  1
  O  O25  1  0.77985200  0.92798700  0.48963600  1
  O  O26  1  0.48836800  0.28255100  0.30857300  1
  O  O27  1  0.70552500  0.77899600  0.86499600  1
  O  O28  1  0.27985200  0.07201300  0.01036400  1
  O  O29  1  0.87852000  0.13070300  0.08476700  1
  O  O30  1  0.49402700  0.36256600  0.93223700  1
  O  O31  1  0.12148000  0.86929700  0.91523300  1
loop_
_geom_bond_atom_site_label_1
_geom_bond_atom_site_label_2
_geom_bond_distance
_geom_bond_site_symmetry_2
Mo0 O10 1.721342 1_545
Mo0 O26 2.025356 1_555
Mo0 O13 2.044385 1_555
Mo0 O16 2.071327 1_555
Mo0 O6 2.074754 1_555
Mo0 O0 2.173936 1_555
Mo1 O23 1.721342 1_565
Mo1 O17 2.025356 1_555
Mo1 O25 2.044385 1_555
Mo1 O20 2.071327 1_555
Mo1 O27 2.074754 1_555
Mo1 O22 2.173936 1_555
Mo2 O31 1.721342 1_545
Mo2 O24 2.025356 1_555
Mo2 O28 2.044385 1_556
Mo2 O12 2.071327 1_555
Mo2 O15 2.074754 1_555
Mo2 O18 2.173936 1_555
Mo3 O29 1.721342 1_565
Mo3 O1 2.025356 1_555
Mo3 O19 2.044385 1_554
Mo3 O9 2.071327 1_555
Mo3 O4 2.074754 1_555
Mo3 O3 2.173936 1_555
O0 P5 1.554603 1_555
O0 Sr0 2.765943 1_555
O1 P5 1.535137 1_655
O2 P1 1.494164 1_555
O2 Sr0 2.539330 1_556
O3 P3 1.554603 1_555
O3 Sr1 2.765943 1_555
O4 P2 1.546466 1_555
O4 Sr1 2.912704 1_555
O5 P5 1.494164 1_555
O5 Sr1 2.539330 1_555
O6 P0 1.546466 1_555
O6 Sr0 2.912704 1_555
O7 P3 1.494164 1_555
O7 Sr0 2.539330 1_655
O8 P7 1.600039 1_554
O8 P3 1.662170 1_555
O9 P0 1.521913 1_565
O10 Sr1 2.626624 1_555
O11 P4 1.600039 1_555
O11 P5 1.662170 1_555
O12 P7 1.521913 1_545
O13 P4 1.533032 1_555
O14 P2 1.600039 1_555
O14 P6 1.662170 1_555
O15 P4 1.546466 1_555
O15 Sr1 2.912704 1_555
O16 P2 1.521913 1_445
O17 P1 1.535137 1_555
O18 P1 1.554603 1_555
O18 Sr1 2.765943 1_555
O19 P7 1.533032 1_555
O20 P4 1.521913 1_665
O21 P6 1.494164 1_555
O21 Sr1 2.539330 1_555
O22 P6 1.554603 1_555
O22 Sr0 2.765943 1_656
O23 Sr1 2.626624 1_555
O24 P6 1.535137 1_455
O25 P2 1.533032 1_555
O26 P3 1.535137 1_555
O27 P7 1.546466 1_555
O27 Sr0 2.912704 1_656
O28 P0 1.533032 1_555
O29 Sr0 2.626624 1_655
O30 P0 1.600039 1_556
O30 P1 1.662170 1_555
O31 Sr0 2.626624 1_556
