# generated using pymatgen
data_RbNa5Be8O11
_symmetry_space_group_name_H-M   'P 1'
_cell_length_a   6.48690122
_cell_length_b   9.50995502
_cell_length_c   10.76093729
_cell_angle_alpha   64.45628926
_cell_angle_beta   89.11190287
_cell_angle_gamma   70.23980957
_symmetry_Int_Tables_number   1
_chemical_formula_structural   RbNa5Be8O11
_chemical_formula_sum   'Rb2 Na10 Be16 O22'
_cell_volume   557.01391730
_cell_formula_units_Z   2
loop_
 _symmetry_equiv_pos_site_id
 _symmetry_equiv_pos_as_xyz
  1  'x, y, z'
loop_
 _atom_site_type_symbol
 _atom_site_label
 _atom_site_symmetry_multiplicity
 _atom_site_fract_x
 _atom_site_fract_y
 _atom_site_fract_z
 _atom_site_occupancy
  Rb  Rb0  1  0.74989500  0.23613000  0.06068300  1
  Rb  Rb1  1  0.25010500  0.76387000  0.93931700  1
  Na  Na0  1  0.87283700  0.13944600  0.37294400  1
  Na  Na1  1  0.75351200  0.44679100  0.48349900  1
  Na  Na2  1  0.09298800  0.36283600  0.14277400  1
  Na  Na3  1  0.26387400  0.26007000  0.46063100  1
  Na  Na4  1  0.25143700  0.05448700  0.02425300  1
  Na  Na5  1  0.24648800  0.55320900  0.51650100  1
  Na  Na6  1  0.73612600  0.73993000  0.53936900  1
  Na  Na7  1  0.90701200  0.63716400  0.85722600  1
  Na  Na8  1  0.12716300  0.86055400  0.62705600  1
  Na  Na9  1  0.74856300  0.94551300  0.97574700  1
  Be  Be0  1  0.90883200  0.84302800  0.29855500  1
  Be  Be1  1  0.54971000  0.91299700  0.72478900  1
  Be  Be2  1  0.45029000  0.08700300  0.27521100  1
  Be  Be3  1  0.72590000  0.61291000  0.14920400  1
  Be  Be4  1  0.78038400  0.11042300  0.64637400  1
  Be  Be5  1  0.38338700  0.21540200  0.72814700  1
  Be  Be6  1  0.61661300  0.78459800  0.27185300  1
  Be  Be7  1  0.49580200  0.40823000  0.25089600  1
  Be  Be8  1  0.21961600  0.88957700  0.35362600  1
  Be  Be9  1  0.50419800  0.59177000  0.74910400  1
  Be  Be10  1  0.33531800  0.71807500  0.23945200  1
  Be  Be11  1  0.09116800  0.15697200  0.70144500  1
  Be  Be12  1  0.66468200  0.28192500  0.76054800  1
  Be  Be13  1  0.95854400  0.34329200  0.78577500  1
  Be  Be14  1  0.04145600  0.65670800  0.21422500  1
  Be  Be15  1  0.27410000  0.38709000  0.85079600  1
  O  O0  1  0.48123900  0.23113600  0.86188300  1
  O  O1  1  0.07372600  0.84713700  0.17800900  1
  O  O2  1  0.47222900  0.24167800  0.27903500  1
  O  O3  1  0.02011500  0.85061000  0.42674100  1
  O  O4  1  0.35791300  0.04061700  0.75440100  1
  O  O5  1  0.12264200  0.34247000  0.66676400  1
  O  O6  1  0.64208700  0.95938300  0.24559900  1
  O  O7  1  0.87735800  0.65753000  0.33323600  1
  O  O8  1  0.52777100  0.75832200  0.72096500  1
  O  O9  1  0.22032000  0.07017800  0.28719200  1
  O  O10  1  0.93259700  0.64523000  0.08584900  1
  O  O11  1  0.77968000  0.92982200  0.71280800  1
  O  O12  1  0.51876100  0.76886400  0.13811700  1
  O  O13  1  0.56384100  0.26578100  0.62589400  1
  O  O14  1  0.71256400  0.43659800  0.20707200  1
  O  O15  1  0.28743600  0.56340200  0.79292800  1
  O  O16  1  0.30539800  0.54097900  0.27555800  1
  O  O17  1  0.92627400  0.15286300  0.82199100  1
  O  O18  1  0.69460200  0.45902100  0.72444200  1
  O  O19  1  0.06740300  0.35477000  0.91415100  1
  O  O20  1  0.43615900  0.73421900  0.37410600  1
  O  O21  1  0.97988500  0.14939000  0.57325900  1
loop_
_geom_bond_atom_site_label_1
_geom_bond_atom_site_label_2
_geom_bond_distance
_geom_bond_site_symmetry_2
Na0 O21 2.324707 1_555
Na0 O3 2.379969 1_645
Na0 O9 2.412900 1_655
Na0 O14 2.444093 1_555
Na0 O2 2.499092 1_555
Na1 O7 2.351640 1_555
Na1 O13 2.433906 1_555
Na1 O21 2.442996 1_555
Na1 O20 2.567221 1_555
Na1 O18 2.661076 1_555
Na1 O5 2.731287 1_655
Na2 O10 2.319844 1_455
Na2 O9 2.366156 1_555
Na2 O14 2.501168 1_455
Na2 O2 2.503574 1_555
Na2 O19 2.504000 1_554
Na3 O2 2.393548 1_555
Na3 O21 2.472301 1_455
Na3 O16 2.656522 1_555
Na3 O13 2.685886 1_555
Na3 O5 2.706354 1_555
Na4 O19 2.409290 1_554
Na4 O12 2.428417 1_545
Na4 O1 2.572762 1_545
Na4 O17 2.667135 1_454
Na4 O0 2.679261 1_554
Na4 O9 2.897406 1_555
Na5 O5 2.351640 1_555
Na5 O20 2.433906 1_555
Na5 O3 2.442996 1_555
Na5 O13 2.567221 1_555
Na5 O16 2.661076 1_555
Na5 O7 2.731287 1_455
Na6 O8 2.393548 1_555
Na6 O3 2.472301 1_655
Na6 O18 2.656522 1_555
Na6 O20 2.685886 1_555
Na6 O7 2.706354 1_555
Na7 O19 2.319844 1_655
Na7 O11 2.366156 1_555
Na7 O15 2.501168 1_655
Na7 O8 2.503574 1_555
Na7 O10 2.504000 1_556
Na8 O3 2.324707 1_555
Na8 O21 2.379969 1_465
Na8 O11 2.412900 1_455
Na8 O15 2.444093 1_555
Na8 O8 2.499092 1_555
Na9 O10 2.409290 1_556
Na9 O0 2.428417 1_565
Na9 O17 2.572762 1_565
Na9 O1 2.667135 1_656
Na9 O12 2.679261 1_556
Na9 O11 2.897406 1_555
Be0 O3 1.606518 1_655
Be0 O6 1.653896 1_555
Be0 O1 1.664305 1_655
Be0 O7 1.722307 1_555
Be1 O8 1.542588 1_555
Be1 O11 1.550907 1_555
Be1 O4 1.556498 1_565
Be2 O2 1.542588 1_555
Be2 O9 1.550907 1_555
Be2 O6 1.556498 1_545
Be3 O14 1.550035 1_555
Be3 O10 1.557782 1_555
Be3 O12 1.588786 1_555
Be4 O11 1.551530 1_545
Be4 O21 1.572397 1_555
Be4 O13 1.590624 1_555
Be5 O4 1.627673 1_555
Be5 O13 1.641710 1_555
Be5 O5 1.649761 1_555
Be5 O0 1.665722 1_555
Be6 O6 1.627673 1_555
Be6 O20 1.641710 1_555
Be6 O7 1.649761 1_555
Be6 O12 1.665722 1_555
Be7 O2 1.540305 1_555
Be7 O14 1.548727 1_555
Be7 O16 1.553759 1_555
Be8 O9 1.551530 1_565
Be8 O3 1.572397 1_555
Be8 O20 1.590624 1_555
Be9 O8 1.540305 1_555
Be9 O15 1.548727 1_555
Be9 O18 1.553759 1_555
Be10 O16 1.636900 1_555
Be10 O12 1.653066 1_555
Be10 O1 1.658248 1_555
Be10 O20 1.685298 1_555
Be11 O21 1.606518 1_455
Be11 O4 1.653896 1_555
Be11 O17 1.664305 1_455
Be11 O5 1.722307 1_555
Be12 O18 1.636900 1_555
Be12 O0 1.653066 1_555
Be12 O17 1.658248 1_555
Be12 O13 1.685298 1_555
Be13 O19 1.622150 1_655
Be13 O18 1.647067 1_555
Be13 O5 1.653499 1_655
Be13 O17 1.766484 1_555
Be14 O10 1.622150 1_455
Be14 O16 1.647067 1_555
Be14 O7 1.653499 1_455
Be14 O1 1.766484 1_555
Be15 O15 1.550035 1_555
Be15 O19 1.557782 1_555
Be15 O0 1.588786 1_555
O0 Rb0 2.806255 1_556
O2 Rb0 2.946098 1_555
O4 Rb1 2.839061 1_545
O6 Rb0 2.839061 1_565
O8 Rb1 2.946098 1_555
O10 Rb1 2.817413 1_654
O12 Rb1 2.806255 1_554
O14 Rb0 2.905276 1_555
O15 Rb1 2.905276 1_555
O19 Rb0 2.817413 1_456
