# generated using pymatgen
data_K2FeSn(PO4)3
_symmetry_space_group_name_H-M   'P 1'
_cell_length_a   10.09479400
_cell_length_b   10.09479400
_cell_length_c   10.09479400
_cell_angle_alpha   90.00000000
_cell_angle_beta   90.00000000
_cell_angle_gamma   90.00000000
_symmetry_Int_Tables_number   1
_chemical_formula_structural   K2FeSn(PO4)3
_chemical_formula_sum   'K8 Fe4 Sn4 P12 O48'
_cell_volume   1028.70862888
_cell_formula_units_Z   4
loop_
 _symmetry_equiv_pos_site_id
 _symmetry_equiv_pos_as_xyz
  1  'x, y, z'
loop_
 _atom_site_type_symbol
 _atom_site_label
 _atom_site_symmetry_multiplicity
 _atom_site_fract_x
 _atom_site_fract_y
 _atom_site_fract_z
 _atom_site_occupancy
  K  K0  1  0.06284700  0.43715300  0.56284700  1
  K  K1  1  0.20187800  0.79812200  0.29812200  1
  K  K2  1  0.29812200  0.20187800  0.79812200  1
  K  K3  1  0.43715300  0.56284700  0.06284700  1
  K  K4  1  0.56284700  0.06284700  0.43715300  1
  K  K5  1  0.70187800  0.70187800  0.70187800  1
  K  K6  1  0.79812200  0.29812200  0.20187800  1
  K  K7  1  0.93715300  0.93715300  0.93715300  1
  Fe  Fe0  1  0.14660000  0.14660000  0.14660000  1
  Fe  Fe1  1  0.35340000  0.85340000  0.64660000  1
  Fe  Fe2  1  0.64660000  0.35340000  0.85340000  1
  Fe  Fe3  1  0.85340000  0.64660000  0.35340000  1
  Sn  Sn0  1  0.08613800  0.58613800  0.91386200  1
  Sn  Sn1  1  0.41386200  0.41386200  0.41386200  1
  Sn  Sn2  1  0.58613800  0.91386200  0.08613800  1
  Sn  Sn3  1  0.91386200  0.08613800  0.58613800  1
  P  P0  1  0.04050100  0.77089300  0.62423100  1
  P  P1  1  0.12423100  0.45949900  0.22910700  1
  P  P2  1  0.22910700  0.12423100  0.45949900  1
  P  P3  1  0.27089300  0.87576900  0.95949900  1
  P  P4  1  0.37576900  0.54050100  0.72910700  1
  P  P5  1  0.45949900  0.22910700  0.12423100  1
  P  P6  1  0.54050100  0.72910700  0.37576900  1
  P  P7  1  0.62423100  0.04050100  0.77089300  1
  P  P8  1  0.72910700  0.37576900  0.54050100  1
  P  P9  1  0.77089300  0.62423100  0.04050100  1
  P  P10  1  0.87576900  0.95949900  0.27089300  1
  P  P11  1  0.95949900  0.27089300  0.87576900  1
  O  O0  1  0.99803900  0.41675800  0.84369300  1
  O  O1  1  0.01257100  0.69255100  0.75526900  1
  O  O2  1  0.01897200  0.54920500  0.29196500  1
  O  O3  1  0.04920500  0.20803500  0.98102800  1
  O  O4  1  0.08186200  0.31344300  0.23856600  1
  O  O5  1  0.08324200  0.15630700  0.49803900  1
  O  O6  1  0.15630700  0.49803900  0.08324200  1
  O  O7  1  0.18655700  0.76143400  0.58186200  1
  O  O8  1  0.19255100  0.74473100  0.98742900  1
  O  O9  1  0.20803500  0.98102800  0.04920500  1
  O  O10  1  0.23856600  0.08186200  0.31344300  1
  O  O11  1  0.24473100  0.51257100  0.80744900  1
  O  O12  1  0.25526900  0.48742900  0.30744900  1
  O  O13  1  0.26143400  0.91813800  0.81344300  1
  O  O14  1  0.29196500  0.01897200  0.54920500  1
  O  O15  1  0.30744900  0.25526900  0.48742900  1
  O  O16  1  0.31344300  0.23856600  0.08186200  1
  O  O17  1  0.34369300  0.50196100  0.58324200  1
  O  O18  1  0.41675800  0.84369300  0.99803900  1
  O  O19  1  0.41813800  0.68655700  0.73856600  1
  O  O20  1  0.45079500  0.79196500  0.48102800  1
  O  O21  1  0.48102800  0.45079500  0.79196500  1
  O  O22  1  0.48742900  0.30744900  0.25526900  1
  O  O23  1  0.50196100  0.58324200  0.34369300  1
  O  O24  1  0.49803900  0.08324200  0.15630700  1
  O  O25  1  0.51257100  0.80744900  0.24473100  1
  O  O26  1  0.51897200  0.95079500  0.70803500  1
  O  O27  1  0.54920500  0.29196500  0.01897200  1
  O  O28  1  0.58186200  0.18655700  0.76143400  1
  O  O29  1  0.58324200  0.34369300  0.50196100  1
  O  O30  1  0.65630700  0.00196100  0.91675800  1
  O  O31  1  0.68655700  0.73856600  0.41813800  1
  O  O32  1  0.69255100  0.75526900  0.01257100  1
  O  O33  1  0.70803500  0.51897200  0.95079500  1
  O  O34  1  0.73856600  0.41813800  0.68655700  1
  O  O35  1  0.74473100  0.98742900  0.19255100  1
  O  O36  1  0.75526900  0.01257100  0.69255100  1
  O  O37  1  0.76143400  0.58186200  0.18655700  1
  O  O38  1  0.79196500  0.48102800  0.45079500  1
  O  O39  1  0.80744900  0.24473100  0.51257100  1
  O  O40  1  0.81344300  0.26143400  0.91813800  1
  O  O41  1  0.84369300  0.99803900  0.41675800  1
  O  O42  1  0.91675800  0.65630700  0.00196100  1
  O  O43  1  0.91813800  0.81344300  0.26143400  1
  O  O44  1  0.95079500  0.70803500  0.51897200  1
  O  O45  1  0.98102800  0.04920500  0.20803500  1
  O  O46  1  0.98742900  0.19255100  0.74473100  1
  O  O47  1  0.00196100  0.91675800  0.65630700  1
loop_
_geom_bond_atom_site_label_1
_geom_bond_atom_site_label_2
_geom_bond_distance
_geom_bond_site_symmetry_2
K0 O0 2.916863 1_455
K0 O17 2.916863 1_555
K0 O5 2.916863 1_555
K0 O38 2.992178 1_455
K0 O44 2.992178 1_455
K0 O2 2.992178 1_555
K0 O15 3.169826 1_555
K0 O11 3.169826 1_555
K0 O46 3.169826 1_455
K0 O12 3.267690 1_555
K0 O1 3.267690 1_555
K0 O39 3.267690 1_455
K1 O7 2.892280 1_555
K1 O43 2.892280 1_455
K1 O10 2.892280 1_565
K1 O2 3.118821 1_555
K1 O9 3.118821 1_555
K1 O20 3.118821 1_555
K1 O8 3.183747 1_554
K1 O12 3.183747 1_555
K1 O25 3.183747 1_555
K2 O28 2.892280 1_555
K2 O13 2.892280 1_545
K2 O16 2.892280 1_556
K2 O14 3.118821 1_555
K2 O21 3.118821 1_555
K2 O3 3.118821 1_555
K2 O11 3.183747 1_555
K2 O15 3.183747 1_555
K2 O46 3.183747 1_455
K3 O18 2.916863 1_554
K3 O6 2.916863 1_555
K3 O23 2.916863 1_555
K3 O21 2.992178 1_554
K3 O33 2.992178 1_554
K3 O27 2.992178 1_555
K3 O12 3.169826 1_555
K3 O25 3.169826 1_555
K3 O8 3.169826 1_554
K3 O22 3.267690 1_555
K3 O32 3.267690 1_555
K3 O11 3.267690 1_554
K4 O24 2.916863 1_555
K4 O29 2.916863 1_555
K4 O41 2.916863 1_545
K4 O20 2.992178 1_545
K4 O26 2.992178 1_545
K4 O14 2.992178 1_555
K4 O22 3.169826 1_555
K4 O39 3.169826 1_555
K4 O35 3.169826 1_545
K4 O36 3.267690 1_555
K4 O25 3.267690 1_545
K4 O15 3.267690 1_555
K5 O19 2.892280 1_555
K5 O34 2.892280 1_555
K5 O31 2.892280 1_555
K5 O44 3.118821 1_555
K5 O26 3.118821 1_555
K5 O33 3.118821 1_555
K5 O32 3.183747 1_556
K5 O36 3.183747 1_565
K5 O1 3.183747 1_655
K6 O40 2.892280 1_554
K6 O37 2.892280 1_555
K6 O4 2.892280 1_655
K6 O27 3.118821 1_555
K6 O38 3.118821 1_555
K6 O45 3.118821 1_555
K6 O35 3.183747 1_545
K6 O22 3.183747 1_555
K6 O39 3.183747 1_555
K7 O47 2.916863 1_655
K7 O30 2.916863 1_565
K7 O42 2.916863 1_556
K7 O9 2.992178 1_656
K7 O3 2.992178 1_665
K7 O45 2.992178 1_566
K7 O36 3.169826 1_565
K7 O1 3.169826 1_655
K7 O32 3.169826 1_556
K7 O35 3.267690 1_556
K7 O46 3.267690 1_565
K7 O8 3.267690 1_655
Fe0 O4 2.031170 1_555
Fe0 O10 2.031170 1_555
Fe0 O16 2.031170 1_555
Fe0 O3 2.035901 1_554
Fe0 O45 2.035901 1_455
Fe0 O9 2.035901 1_545
Fe1 O7 2.031170 1_555
Fe1 O13 2.031170 1_555
Fe1 O19 2.031170 1_555
Fe1 O14 2.035901 1_565
Fe1 O20 2.035901 1_555
Fe1 O26 2.035901 1_555
Fe2 O28 2.031170 1_555
Fe2 O34 2.031170 1_555
Fe2 O40 2.031170 1_555
Fe2 O27 2.035901 1_556
Fe2 O33 2.035901 1_555
Fe2 O21 2.035901 1_555
Fe3 O37 2.031170 1_555
Fe3 O31 2.031170 1_555
Fe3 O43 2.031170 1_555
Fe3 O2 2.035901 1_655
Fe3 O38 2.035901 1_555
Fe3 O44 2.035901 1_555
O0 P11 1.557048 1_555
O0 Sn0 2.053359 1_655
O1 P0 1.566760 1_555
O1 Sn0 2.066046 1_555
O2 P1 1.533537 1_555
O3 P11 1.533537 1_455
O4 P1 1.538155 1_555
O5 P2 1.557048 1_555
O5 Sn3 2.053359 1_455
O6 P1 1.557048 1_555
O6 Sn0 2.053359 1_554
O7 P0 1.538155 1_555
O8 P3 1.566760 1_555
O8 Sn0 2.066046 1_555
O9 P3 1.533537 1_554
O10 P2 1.538155 1_555
O11 P4 1.566760 1_555
O11 Sn0 2.066046 1_555
O12 P1 1.566760 1_555
O12 Sn1 2.066046 1_555
O13 P3 1.538155 1_555
O14 P2 1.533537 1_555
O15 P2 1.566760 1_555
O15 Sn1 2.066046 1_555
O16 P5 1.538155 1_555
O17 P4 1.557048 1_555
O17 Sn1 2.053359 1_555
O18 P3 1.557048 1_555
O18 Sn2 2.053359 1_556
O19 P4 1.538155 1_555
O20 P6 1.533537 1_555
O21 P4 1.533537 1_555
O22 P5 1.566760 1_555
O22 Sn1 2.066046 1_555
O23 P6 1.557048 1_555
O23 Sn1 2.053359 1_555
O24 P5 1.557048 1_555
O24 Sn2 2.053359 1_545
O25 P6 1.566760 1_555
O25 Sn2 2.066046 1_555
O26 P7 1.533537 1_565
O27 P5 1.533537 1_555
O28 P7 1.538155 1_555
O29 P8 1.557048 1_555
O29 Sn1 2.053359 1_555
O30 P7 1.557048 1_555
O30 Sn2 2.053359 1_546
O31 P6 1.538155 1_555
O32 P9 1.566760 1_555
O32 Sn2 2.066046 1_555
O33 P9 1.533537 1_556
O34 P8 1.538155 1_555
O35 P10 1.566760 1_555
O35 Sn2 2.066046 1_555
O36 P7 1.566760 1_555
O36 Sn3 2.066046 1_555
O37 P9 1.538155 1_555
O38 P8 1.533537 1_555
O39 P8 1.566760 1_555
O39 Sn3 2.066046 1_555
O40 P11 1.538155 1_555
O41 P10 1.557048 1_555
O41 Sn3 2.053359 1_565
O42 P9 1.557048 1_555
O42 Sn0 2.053359 1_654
O43 P10 1.538155 1_555
O44 P0 1.533537 1_655
O45 P10 1.533537 1_545
O46 P11 1.566760 1_555
O46 Sn3 2.066046 1_555
O47 P0 1.557048 1_555
O47 Sn3 2.053359 1_465
