# generated using pymatgen
data_Bi2Te2W3O16
_symmetry_space_group_name_H-M   'P 1'
_cell_length_a   11.25080595
_cell_length_b   11.25080595
_cell_length_c   13.08626277
_cell_angle_alpha   57.05538719
_cell_angle_beta   57.05538719
_cell_angle_gamma   28.91180841
_symmetry_Int_Tables_number   1
_chemical_formula_structural   Bi2Te2W3O16
_chemical_formula_sum   'Bi4 Te4 W6 O32'
_cell_volume   662.61780037
_cell_formula_units_Z   2
loop_
 _symmetry_equiv_pos_site_id
 _symmetry_equiv_pos_as_xyz
  1  'x, y, z'
loop_
 _atom_site_type_symbol
 _atom_site_label
 _atom_site_symmetry_multiplicity
 _atom_site_fract_x
 _atom_site_fract_y
 _atom_site_fract_z
 _atom_site_occupancy
  Bi  Bi0  1  0.10939700  0.44495600  0.84328700  1
  Bi  Bi1  1  0.44495600  0.10939700  0.34328700  1
  Bi  Bi2  1  0.55504400  0.89060300  0.65671300  1
  Bi  Bi3  1  0.89060300  0.55504400  0.15671300  1
  Te  Te0  1  0.90021900  0.29084200  0.84388800  1
  Te  Te1  1  0.09978100  0.70915800  0.15611200  1
  Te  Te2  1  0.70915800  0.09978100  0.65611200  1
  Te  Te3  1  0.29084200  0.90021900  0.34388800  1
  W  W0  1  0.23781900  0.51008800  0.46235700  1
  W  W1  1  0.76218100  0.48991200  0.53764300  1
  W  W2  1  0.48991200  0.76218100  0.03764300  1
  W  W3  1  0.12907800  0.87092200  0.75000000  1
  W  W4  1  0.51008800  0.23781900  0.96235700  1
  W  W5  1  0.87092200  0.12907800  0.25000000  1
  O  O0  1  0.80566500  0.11104200  0.87648900  1
  O  O1  1  0.68256400  0.56909400  0.40006000  1
  O  O2  1  0.88895800  0.19433500  0.62351100  1
  O  O3  1  0.70415400  0.90724700  0.72186900  1
  O  O4  1  0.90724700  0.70415400  0.22186900  1
  O  O5  1  0.39598400  0.70008700  0.62424800  1
  O  O6  1  0.41737600  0.18935900  0.49225900  1
  O  O7  1  0.18935900  0.41737600  0.99225900  1
  O  O8  1  0.00015400  0.82757800  0.74018200  1
  O  O9  1  0.31743600  0.43090600  0.59994000  1
  O  O10  1  0.67792000  0.93393300  0.02965500  1
  O  O11  1  0.29991300  0.60401600  0.87575200  1
  O  O12  1  0.32208000  0.06606700  0.97034500  1
  O  O13  1  0.58262400  0.81064100  0.50774100  1
  O  O14  1  0.29584600  0.09275300  0.27813100  1
  O  O15  1  0.43090600  0.31743600  0.09994000  1
  O  O16  1  0.06606700  0.32208000  0.47034500  1
  O  O17  1  0.50892900  0.73297800  0.20467400  1
  O  O18  1  0.70008700  0.39598400  0.12424800  1
  O  O19  1  0.09275300  0.29584600  0.77813100  1
  O  O20  1  0.11104200  0.80566500  0.37648900  1
  O  O21  1  0.56909400  0.68256400  0.90006000  1
  O  O22  1  0.60401600  0.29991300  0.37575200  1
  O  O23  1  0.26702200  0.49107100  0.29532600  1
  O  O24  1  0.81064100  0.58262400  0.00774100  1
  O  O25  1  0.73297800  0.50892900  0.70467400  1
  O  O26  1  0.17242200  0.99984600  0.75981800  1
  O  O27  1  0.19433500  0.88895800  0.12351100  1
  O  O28  1  0.49107100  0.26702200  0.79532600  1
  O  O29  1  0.93393300  0.67792000  0.52965500  1
  O  O30  1  0.99984600  0.17242200  0.25981800  1
  O  O31  1  0.82757800  0.00015400  0.24018200  1
loop_
_geom_bond_atom_site_label_1
_geom_bond_atom_site_label_2
_geom_bond_distance
_geom_bond_site_symmetry_2
Bi0 O24 2.229716 1_456
Bi0 O12 2.328568 1_555
Bi0 O7 2.338167 1_555
Bi0 O19 2.419893 1_555
Bi0 O28 2.495261 1_555
Bi0 O9 2.727126 1_555
Bi0 O3 2.781811 1_455
Bi0 O8 2.843550 1_555
Bi1 O13 2.229716 1_545
Bi1 O16 2.328568 1_555
Bi1 O6 2.338167 1_555
Bi1 O14 2.419893 1_555
Bi1 O23 2.495261 1_555
Bi1 O15 2.727126 1_555
Bi1 O4 2.781811 1_545
Bi1 O31 2.843550 1_555
Bi2 O6 2.229716 1_565
Bi2 O29 2.328568 1_555
Bi2 O13 2.338167 1_555
Bi2 O3 2.419893 1_555
Bi2 O25 2.495261 1_555
Bi2 O21 2.727126 1_555
Bi2 O19 2.781811 1_565
Bi2 O26 2.843550 1_555
Bi3 O7 2.229716 1_654
Bi3 O10 2.328568 1_555
Bi3 O24 2.338167 1_555
Bi3 O4 2.419893 1_555
Bi3 O17 2.495261 1_555
Bi3 O1 2.727126 1_555
Bi3 O14 2.781811 1_655
Bi3 O30 2.843550 1_555
O0 W4 1.931490 1_555
O0 W3 2.093149 1_645
O1 W1 1.857454 1_555
O1 Te3 2.375481 1_555
O2 W1 1.931490 1_555
O2 W3 2.093149 1_645
O3 Te2 1.889265 1_565
O4 Te1 1.889265 1_655
O5 W3 1.838600 1_555
O5 W1 2.151847 1_555
O6 W0 1.953694 1_555
O7 W4 1.953694 1_555
O8 W3 1.966589 1_555
O8 Te2 2.001840 1_465
O9 W0 1.857454 1_555
O9 Te2 2.375481 1_555
O10 W4 1.806018 1_564
O11 W3 1.838600 1_555
O11 W4 2.151847 1_555
O12 W2 1.806018 1_546
O13 W1 1.953694 1_555
O14 Te3 1.889265 1_545
O15 W4 1.857454 1_554
O15 Te1 2.375481 1_555
O16 W1 1.806018 1_455
O17 Te3 1.914021 1_555
O17 W2 2.129783 1_555
O18 W5 1.838600 1_555
O18 W2 2.151847 1_555
O19 Te0 1.889265 1_455
O20 W0 1.931490 1_555
O20 W5 2.093149 1_465
O21 W2 1.857454 1_556
O21 Te0 2.375481 1_555
O22 W5 1.838600 1_555
O22 W0 2.151847 1_555
O23 Te1 1.914021 1_555
O23 W0 2.129783 1_555
O24 W2 1.953694 1_555
O25 Te0 1.914021 1_555
O25 W1 2.129783 1_555
O26 W3 1.966589 1_555
O26 Te0 2.001840 1_465
O27 W2 1.931490 1_555
O27 W5 2.093149 1_465
O28 Te2 1.914021 1_555
O28 W4 2.129783 1_555
O29 W0 1.806018 1_655
O30 W5 1.966589 1_555
O30 Te3 2.001840 1_645
O31 W5 1.966589 1_555
O31 Te1 2.001840 1_645
