# generated using pymatgen
data_Ca3(Cu2Sn)4
_symmetry_space_group_name_H-M   'P 1'
_cell_length_a   9.08342401
_cell_length_b   9.08342385
_cell_length_c   7.71485749
_cell_angle_alpha   90.00000888
_cell_angle_beta   89.99999932
_cell_angle_gamma   119.99674104
_symmetry_Int_Tables_number   1
_chemical_formula_structural   Ca3(Cu2Sn)4
_chemical_formula_sum   'Ca6 Cu16 Sn8'
_cell_volume   551.27965873
_cell_formula_units_Z   2
loop_
 _symmetry_equiv_pos_site_id
 _symmetry_equiv_pos_as_xyz
  1  'x, y, z'
loop_
 _atom_site_type_symbol
 _atom_site_label
 _atom_site_symmetry_multiplicity
 _atom_site_fract_x
 _atom_site_fract_y
 _atom_site_fract_z
 _atom_site_occupancy
  Ca  Ca0  1  0.47580521  0.52419459  0.49742559  1
  Ca  Ca1  1  0.95160717  0.47580812  0.99742069  1
  Ca  Ca2  1  0.52419220  0.04839285  0.99742046  1
  Ca  Ca3  1  0.04839251  0.52419198  0.49742017  1
  Ca  Ca4  1  0.47580773  0.95160761  0.49742054  1
  Ca  Ca5  1  0.52419478  0.47580510  0.99742592  1
  Cu  Cu0  1  0.79944685  0.89972565  0.47171646  1
  Cu  Cu1  1  -0.00000065  0.00000069  0.72011639  1
  Cu  Cu2  1  0.67506215  0.83753469  0.16251856  1
  Cu  Cu3  1  0.89972564  0.79944684  0.97171656  1
  Cu  Cu4  1  0.83753004  0.16246985  0.66252008  1
  Cu  Cu5  1  0.16246984  0.83753010  0.16251917  1
  Cu  Cu6  1  0.20055354  0.10027459  0.97171672  1
  Cu  Cu7  1  0.16246532  0.32493792  0.16251827  1
  Cu  Cu8  1  0.00000036  -0.00000053  0.22011618  1
  Cu  Cu9  1  0.33333716  0.66666274  0.83636130  1
  Cu  Cu10  1  0.83753478  0.67506217  0.66251855  1
  Cu  Cu11  1  0.89971576  0.10028427  0.97171317  1
  Cu  Cu12  1  0.10027444  0.20055324  0.47171651  1
  Cu  Cu13  1  0.10028396  0.89971578  0.47171316  1
  Cu  Cu14  1  0.32493782  0.16246523  0.66251877  1
  Cu  Cu15  1  0.66666273  0.33333725  0.33636163  1
  Sn  Sn0  1  0.33333364  0.66666645  0.19210666  1
  Sn  Sn1  1  0.16837113  0.33673886  0.78811566  1
  Sn  Sn2  1  0.66326112  0.83162878  0.78811540  1
  Sn  Sn3  1  0.33673860  0.16837111  0.28811549  1
  Sn  Sn4  1  0.83162883  0.66326133  0.28811546  1
  Sn  Sn5  1  0.66666642  0.33333380  0.69210706  1
  Sn  Sn6  1  0.16837180  0.83162818  0.78811564  1
  Sn  Sn7  1  0.83162815  0.16837176  0.28811576  1
loop_
_geom_bond_atom_site_label_1
_geom_bond_atom_site_label_2
_geom_bond_distance
_geom_bond_site_symmetry_2
Ca0 Cu14 3.129536 1_555
Ca0 Cu10 3.129537 1_555
Ca0 Cu12 3.207858 1_555
Ca0 Cu0 3.207861 1_555
Ca0 Cu15 3.249651 1_555
Ca0 Sn3 3.250739 1_555
Ca0 Sn4 3.250740 1_555
Ca0 Sn0 3.251539 1_555
Ca0 Sn2 3.312484 1_555
Ca0 Sn1 3.312485 1_555
Ca0 Sn5 3.357436 1_555
Ca0 Cu9 3.444023 1_555
Ca0 Cu7 3.591881 1_555
Ca0 Cu2 3.591881 1_555
Ca1 Cu7 3.129428 1_656
Ca1 Cu5 3.129531 1_656
Ca1 Cu3 3.207613 1_555
Ca1 Cu11 3.207659 1_555
Ca1 Cu9 3.249885 1_655
Ca1 Sn1 3.250688 1_655
Ca1 Sn6 3.250741 1_655
Ca1 Sn5 3.251570 1_555
Ca1 Sn4 3.312395 1_556
Ca1 Sn7 3.312499 1_556
Ca1 Sn0 3.357615 1_656
Ca1 Cu15 3.444168 1_556
Ca1 Cu10 3.591688 1_555
Ca1 Cu4 3.591810 1_555
Ca2 Cu2 3.129428 1_546
Ca2 Cu5 3.129535 1_546
Ca2 Cu6 3.207614 1_555
Ca2 Cu11 3.207656 1_555
Ca2 Cu9 3.249885 1_545
Ca2 Sn2 3.250687 1_545
Ca2 Sn6 3.250742 1_545
Ca2 Sn5 3.251571 1_555
Ca2 Sn3 3.312399 1_556
Ca2 Sn7 3.312498 1_556
Ca2 Sn0 3.357616 1_546
Ca2 Cu15 3.444169 1_556
Ca2 Cu14 3.591687 1_555
Ca2 Cu4 3.591807 1_555
Ca3 Cu10 3.129427 1_455
Ca3 Cu4 3.129537 1_455
Ca3 Cu12 3.207615 1_555
Ca3 Cu13 3.207658 1_555
Ca3 Cu15 3.249881 1_455
Ca3 Sn4 3.250686 1_455
Ca3 Sn7 3.250739 1_455
Ca3 Sn0 3.251572 1_555
Ca3 Sn1 3.312401 1_555
Ca3 Sn6 3.312500 1_555
Ca3 Sn5 3.357616 1_455
Ca3 Cu9 3.444170 1_555
Ca3 Cu7 3.591688 1_555
Ca3 Cu5 3.591812 1_555
Ca4 Cu14 3.129424 1_565
Ca4 Cu4 3.129537 1_565
Ca4 Cu0 3.207619 1_555
Ca4 Cu13 3.207657 1_555
Ca4 Cu15 3.249881 1_565
Ca4 Sn3 3.250684 1_565
Ca4 Sn7 3.250741 1_565
Ca4 Sn0 3.251574 1_555
Ca4 Sn2 3.312400 1_555
Ca4 Sn6 3.312496 1_555
Ca4 Sn5 3.357615 1_565
Ca4 Cu9 3.444169 1_555
Ca4 Cu2 3.591691 1_555
Ca4 Cu5 3.591812 1_555
Ca5 Cu7 3.129534 1_556
Ca5 Cu2 3.129536 1_556
Ca5 Cu6 3.207856 1_555
Ca5 Cu3 3.207860 1_555
Ca5 Cu9 3.249656 1_555
Ca5 Sn1 3.250741 1_555
Ca5 Sn2 3.250743 1_555
Ca5 Sn5 3.251535 1_555
Ca5 Sn4 3.312482 1_556
Ca5 Sn3 3.312483 1_556
Ca5 Sn0 3.357437 1_556
Ca5 Cu15 3.444021 1_556
Ca5 Cu14 3.591880 1_555
Ca5 Cu10 3.591883 1_555
Cu0 Cu1 2.482255 1_665
Cu0 Cu8 2.501371 1_665
Cu0 Cu2 2.578310 1_555
Cu0 Sn2 2.665729 1_555
Cu0 Cu4 2.675247 1_565
Cu0 Cu10 2.675253 1_555
Cu0 Sn4 2.707973 1_555
Cu0 Sn7 2.707997 1_565
Cu0 Cu13 2.732676 1_655
Cu0 Cu12 2.732679 1_665
Cu1 Cu12 2.482255 1_555
Cu1 Cu13 2.482310 1_545
Cu1 Cu11 2.501369 1_455
Cu1 Cu3 2.501372 1_445
Cu1 Cu6 2.501374 1_555
Cu1 Cu4 2.594414 1_455
Cu1 Cu14 2.594540 1_555
Cu1 Cu10 2.594540 1_445
Cu1 Sn6 2.700400 1_545
Cu1 Sn1 2.700475 1_555
Cu1 Sn2 2.700476 1_445
Cu2 Cu8 2.594538 1_665
Cu2 Cu3 2.675252 1_554
Cu2 Sn0 2.697961 1_555
Cu2 Sn4 2.778196 1_555
Cu2 Sn7 2.778291 1_565
Cu2 Sn2 2.889959 1_554
Cu3 Cu8 2.482254 1_666
Cu3 Sn4 2.665728 1_556
Cu3 Cu5 2.675242 1_656
Cu3 Sn2 2.707975 1_555
Cu3 Sn6 2.707998 1_655
Cu3 Cu6 2.732681 1_665
Cu4 Sn5 2.697821 1_555
Cu4 Sn2 2.778323 1_545
Cu4 Sn1 2.778323 1_655
Cu4 Sn7 2.889968 1_555
Cu5 Cu8 2.594418 1_565
Cu5 Cu6 2.675243 1_564
Cu5 Sn0 2.697821 1_555
Cu5 Sn3 2.778325 1_565
Cu5 Sn4 2.778325 1_455
Cu5 Sn6 2.889962 1_554
Cu6 Cu8 2.482256 1_556
Cu6 Sn3 2.665726 1_556
Cu6 Cu7 2.675250 1_556
Cu6 Sn1 2.707975 1_555
Cu6 Sn6 2.707999 1_545
Cu7 Cu8 2.594540 1_555
Cu7 Sn0 2.697962 1_555
Cu7 Sn3 2.778198 1_555
Cu7 Sn7 2.778292 1_455
Cu7 Sn1 2.889954 1_554
Cu8 Sn7 2.700397 1_455
Cu8 Sn4 2.700475 1_445
Cu8 Sn3 2.700476 1_555
Cu9 Sn6 2.621904 1_555
Cu9 Sn1 2.621977 1_555
Cu9 Sn2 2.621978 1_555
Cu9 Sn0 2.744525 1_556
Cu10 Cu3 2.578311 1_555
Cu10 Cu13 2.675331 1_655
Cu10 Sn5 2.697960 1_555
Cu10 Sn2 2.778198 1_555
Cu10 Sn6 2.778290 1_655
Cu10 Sn4 2.889958 1_555
Cu11 Cu8 2.482309 1_656
Cu11 Cu4 2.578218 1_555
Cu11 Sn7 2.665700 1_556
Cu11 Cu7 2.675331 1_656
Cu11 Cu2 2.675333 1_546
Cu11 Sn1 2.708077 1_655
Cu11 Sn2 2.708078 1_545
Cu11 Cu3 2.732679 1_545
Cu11 Cu6 2.732681 1_655
Cu12 Cu8 2.501372 1_555
Cu12 Cu7 2.578313 1_555
Cu12 Sn1 2.665730 1_555
Cu12 Cu4 2.675247 1_455
Cu12 Cu14 2.675253 1_555
Cu12 Sn3 2.707972 1_555
Cu12 Sn7 2.707998 1_455
Cu12 Cu13 2.732677 1_545
Cu13 Cu8 2.501371 1_565
Cu13 Cu5 2.578225 1_555
Cu13 Sn6 2.665700 1_555
Cu13 Cu14 2.675333 1_565
Cu13 Sn4 2.708076 1_455
Cu13 Sn3 2.708078 1_565
Cu14 Cu6 2.578309 1_555
Cu14 Sn5 2.697962 1_555
Cu14 Sn1 2.778198 1_555
Cu14 Sn6 2.778290 1_545
Cu14 Sn3 2.889959 1_555
Cu15 Sn7 2.621905 1_555
Cu15 Sn4 2.621979 1_555
Cu15 Sn3 2.621979 1_555
Cu15 Sn5 2.744525 1_555
