# generated using pymatgen
data_Ni7Te6(ClO9)2
_symmetry_space_group_name_H-M   'P 1'
_cell_length_a   7.94917139
_cell_length_b   7.94917139
_cell_length_c   7.94917231
_cell_angle_alpha   90.59977681
_cell_angle_beta   90.59977681
_cell_angle_gamma   90.59977784
_symmetry_Int_Tables_number   1
_chemical_formula_structural   Ni7Te6(ClO9)2
_chemical_formula_sum   'Ni7 Te6 Cl2 O18'
_cell_volume   502.21969420
_cell_formula_units_Z   1
loop_
 _symmetry_equiv_pos_site_id
 _symmetry_equiv_pos_as_xyz
  1  'x, y, z'
loop_
 _atom_site_type_symbol
 _atom_site_label
 _atom_site_symmetry_multiplicity
 _atom_site_fract_x
 _atom_site_fract_y
 _atom_site_fract_z
 _atom_site_occupancy
  Ni  Ni0  1  0.45901200  0.13099700  0.38004900  1
  Ni  Ni1  1  0.38004900  0.45901200  0.13099700  1
  Ni  Ni2  1  0.86900300  0.61995100  0.54098800  1
  Ni  Ni3  1  0.13099700  0.38004900  0.45901200  1
  Ni  Ni4  1  0.50000000  0.50000000  0.50000000  1
  Ni  Ni5  1  0.61995100  0.54098800  0.86900300  1
  Ni  Ni6  1  0.54098800  0.86900300  0.61995100  1
  Te  Te0  1  0.79398000  0.30626100  0.20502400  1
  Te  Te1  1  0.30626100  0.20502400  0.79398000  1
  Te  Te2  1  0.69373900  0.79497600  0.20602000  1
  Te  Te3  1  0.20502400  0.79398000  0.30626100  1
  Te  Te4  1  0.79497600  0.20602000  0.69373900  1
  Te  Te5  1  0.20602000  0.69373900  0.79497600  1
  Cl  Cl0  1  0.79548900  0.79548900  0.79548900  1
  Cl  Cl1  1  0.20451100  0.20451100  0.20451100  1
  O  O0  1  0.08278500  0.53312100  0.66119000  1
  O  O1  1  0.42745100  0.00572200  0.80114100  1
  O  O2  1  0.19885900  0.57254900  0.99427800  1
  O  O3  1  0.33881000  0.91721500  0.46687900  1
  O  O4  1  0.71103900  0.43352600  0.64521100  1
  O  O5  1  0.80114100  0.42745100  0.00572200  1
  O  O6  1  0.00572200  0.80114100  0.42745100  1
  O  O7  1  0.46687900  0.33881000  0.91721500  1
  O  O8  1  0.64521100  0.71103900  0.43352600  1
  O  O9  1  0.28896100  0.56647400  0.35478900  1
  O  O10  1  0.66119000  0.08278500  0.53312100  1
  O  O11  1  0.57254900  0.99427800  0.19885900  1
  O  O12  1  0.35478900  0.28896100  0.56647400  1
  O  O13  1  0.53312100  0.66119000  0.08278500  1
  O  O14  1  0.91721500  0.46687900  0.33881000  1
  O  O15  1  0.99427800  0.19885900  0.57254900  1
  O  O16  1  0.43352600  0.64521100  0.71103900  1
  O  O17  1  0.56647400  0.35478900  0.28896100  1
loop_
_geom_bond_atom_site_label_1
_geom_bond_atom_site_label_2
_geom_bond_distance
_geom_bond_site_symmetry_2
Ni0 O11 2.021179 1_545
Ni0 O10 2.047464 1_555
Ni0 O3 2.069227 1_545
Ni0 O17 2.103997 1_555
Ni0 O12 2.113707 1_555
Ni1 O2 2.021179 1_554
Ni1 O13 2.047464 1_555
Ni1 O7 2.069227 1_554
Ni1 O9 2.103997 1_555
Ni1 O17 2.113707 1_555
Ni2 O6 2.021179 1_655
Ni2 O14 2.047464 1_555
Ni2 O0 2.069227 1_655
Ni2 O8 2.103997 1_555
Ni2 O4 2.113706 1_555
Ni3 O15 2.021179 1_455
Ni3 O0 2.047464 1_555
Ni3 O14 2.069227 1_455
Ni3 O12 2.103997 1_555
Ni3 O9 2.113706 1_555
Ni4 O8 2.101601 1_555
Ni4 O12 2.101601 1_555
Ni4 O4 2.101601 1_555
Ni4 O9 2.101601 1_555
Ni4 O16 2.101601 1_555
Ni4 O17 2.101601 1_555
Ni5 O5 2.021179 1_556
Ni5 O7 2.047464 1_555
Ni5 O13 2.069227 1_556
Ni5 O4 2.103997 1_555
Ni5 O16 2.113707 1_555
Ni6 O1 2.021179 1_565
Ni6 O3 2.047464 1_555
Ni6 O10 2.069227 1_565
Ni6 O16 2.103997 1_555
Ni6 O8 2.113707 1_555
Cl0 Ni5 2.522722 1_555
Cl0 Ni6 2.522722 1_555
Cl0 Ni2 2.522722 1_555
Cl1 Ni1 2.522722 1_555
Cl1 Ni0 2.522722 1_555
Cl1 Ni3 2.522722 1_555
O0 Te5 1.909031 1_555
O1 Te1 1.863856 1_555
O2 Te5 1.863856 1_555
O3 Te3 1.909031 1_555
O4 Te4 1.974614 1_555
O5 Te0 1.863856 1_555
O6 Te3 1.863856 1_555
O7 Te1 1.909031 1_555
O8 Te2 1.974614 1_555
O9 Te3 1.974614 1_555
O10 Te4 1.909031 1_555
O11 Te2 1.863856 1_555
O12 Te1 1.974614 1_555
O13 Te2 1.909031 1_555
O14 Te0 1.909031 1_555
O15 Te4 1.863856 1_555
O16 Te5 1.974614 1_555
O17 Te0 1.974614 1_555
