# generated using pymatgen
data_Al2Si2Pb2O9
_symmetry_space_group_name_H-M   'P 1'
_cell_length_a   6.97168600
_cell_length_b   9.86720200
_cell_length_c   10.84560400
_cell_angle_alpha   90.00000000
_cell_angle_beta   90.00000000
_cell_angle_gamma   90.00000000
_symmetry_Int_Tables_number   1
_chemical_formula_structural   Al2Si2Pb2O9
_chemical_formula_sum   'Al8 Si8 Pb8 O36'
_cell_volume   746.08031398
_cell_formula_units_Z   4
loop_
 _symmetry_equiv_pos_site_id
 _symmetry_equiv_pos_as_xyz
  1  'x, y, z'
loop_
 _atom_site_type_symbol
 _atom_site_label
 _atom_site_symmetry_multiplicity
 _atom_site_fract_x
 _atom_site_fract_y
 _atom_site_fract_z
 _atom_site_occupancy
  Al  Al0  1  0.50000000  0.50000000  0.00000000  1
  Al  Al1  1  0.50000000  0.25000000  0.85357600  1
  Al  Al2  1  0.00000000  0.25000000  0.35357600  1
  Al  Al3  1  0.50000000  0.75000000  0.14642400  1
  Al  Al4  1  0.00000000  0.50000000  0.50000000  1
  Al  Al5  1  0.00000000  0.75000000  0.64642400  1
  Al  Al6  1  0.50000000  0.00000000  0.00000000  1
  Al  Al7  1  0.00000000  0.00000000  0.50000000  1
  Si  Si0  1  0.71699500  0.25131500  0.58825600  1
  Si  Si1  1  0.21699500  0.24868500  0.08825600  1
  Si  Si2  1  0.28300500  0.74868500  0.41174400  1
  Si  Si3  1  0.21699500  0.74868500  0.91174400  1
  Si  Si4  1  0.71699500  0.75131500  0.41174400  1
  Si  Si5  1  0.28300500  0.24868500  0.58825600  1
  Si  Si6  1  0.78300500  0.75131500  0.91174400  1
  Si  Si7  1  0.78300500  0.25131500  0.08825600  1
  Pb  Pb0  1  0.04973900  0.54897000  0.19616400  1
  Pb  Pb1  1  0.04973900  0.04897000  0.80383600  1
  Pb  Pb2  1  0.45026100  0.04897000  0.30383600  1
  Pb  Pb3  1  0.54973900  0.95103000  0.69616400  1
  Pb  Pb4  1  0.95026100  0.95103000  0.19616400  1
  Pb  Pb5  1  0.54973900  0.45103000  0.30383600  1
  Pb  Pb6  1  0.95026100  0.45103000  0.80383600  1
  Pb  Pb7  1  0.45026100  0.54897000  0.69616400  1
  O  O0  1  0.69246400  0.90371600  0.89428500  1
  O  O1  1  0.39086200  0.57784600  0.14074700  1
  O  O2  1  0.30753600  0.59628400  0.89428500  1
  O  O3  1  0.60913800  0.42215400  0.85925300  1
  O  O4  1  0.50000000  0.75000000  0.47739100  1
  O  O5  1  0.89086200  0.42215400  0.35925300  1
  O  O6  1  0.34747300  0.83683700  0.00723000  1
  O  O7  1  0.30753600  0.09628400  0.10571500  1
  O  O8  1  0.68478000  0.18382200  0.72595400  1
  O  O9  1  0.18478000  0.81617800  0.77404600  1
  O  O10  1  0.34747300  0.33683700  0.99277000  1
  O  O11  1  0.15252700  0.83683700  0.50723000  1
  O  O12  1  0.10913800  0.07784600  0.35925300  1
  O  O13  1  0.84747300  0.66316300  0.50723000  1
  O  O14  1  0.68478000  0.68382200  0.27404600  1
  O  O15  1  0.31522000  0.31617800  0.72595400  1
  O  O16  1  0.19246400  0.09628400  0.60571500  1
  O  O17  1  0.31522000  0.81617800  0.27404600  1
  O  O18  1  0.18478000  0.31617800  0.22595400  1
  O  O19  1  0.39086200  0.07784600  0.85925300  1
  O  O20  1  0.00000000  0.75000000  0.97739100  1
  O  O21  1  0.89086200  0.92215400  0.64074700  1
  O  O22  1  0.84747300  0.16316300  0.49277000  1
  O  O23  1  0.10913800  0.57784600  0.64074700  1
  O  O24  1  0.80753600  0.40371600  0.60571500  1
  O  O25  1  0.15252700  0.33683700  0.49277000  1
  O  O26  1  0.60913800  0.92215400  0.14074700  1
  O  O27  1  0.19246400  0.59628400  0.39428500  1
  O  O28  1  0.69246400  0.40371600  0.10571500  1
  O  O29  1  0.81522000  0.68382200  0.77404600  1
  O  O30  1  0.80753600  0.90371600  0.39428500  1
  O  O31  1  0.65252700  0.16316300  0.99277000  1
  O  O32  1  0.65252700  0.66316300  0.00723000  1
  O  O33  1  0.00000000  0.25000000  0.02260900  1
  O  O34  1  0.81522000  0.18382200  0.22595400  1
  O  O35  1  0.50000000  0.25000000  0.52260900  1
loop_
_geom_bond_atom_site_label_1
_geom_bond_atom_site_label_2
_geom_bond_distance
_geom_bond_site_symmetry_2
Al0 O3 1.870589 1_554
Al0 O1 1.870589 1_555
Al0 O32 1.931032 1_555
Al0 O10 1.931032 1_554
Al0 O28 2.004392 1_555
Al0 O2 2.004392 1_554
Al1 O3 1.862319 1_555
Al1 O19 1.862319 1_555
Al1 O15 2.000442 1_555
Al1 O8 2.000442 1_555
Al1 O10 2.035669 1_555
Al1 O31 2.035669 1_555
Al2 O5 1.862319 1_455
Al2 O12 1.862319 1_555
Al2 O34 2.000442 1_455
Al2 O18 2.000442 1_555
Al2 O22 2.035669 1_455
Al2 O25 2.035669 1_555
Al3 O26 1.862319 1_555
Al3 O1 1.862319 1_555
Al3 O17 2.000442 1_555
Al3 O14 2.000442 1_555
Al3 O32 2.035669 1_555
Al3 O6 2.035669 1_555
Al4 O23 1.870589 1_555
Al4 O5 1.870589 1_455
Al4 O13 1.931032 1_455
Al4 O25 1.931032 1_555
Al4 O24 2.004392 1_455
Al4 O27 2.004392 1_555
Al5 O23 1.862319 1_555
Al5 O21 1.862319 1_455
Al5 O29 2.000442 1_455
Al5 O9 2.000442 1_555
Al5 O13 2.035669 1_455
Al5 O11 2.035669 1_555
Al6 O19 1.870589 1_554
Al6 O26 1.870589 1_545
Al6 O6 1.931032 1_545
Al6 O31 1.931032 1_554
Al6 O0 2.004392 1_544
Al6 O7 2.004392 1_555
Al7 O21 1.870589 1_445
Al7 O12 1.870589 1_555
Al7 O11 1.931032 1_545
Al7 O22 1.931032 1_455
Al7 O30 2.004392 1_445
Al7 O16 2.004392 1_555
O0 Si6 1.641836 1_555
O0 Pb3 2.413533 1_555
O1 Pb5 2.433375 1_555
O1 Pb0 2.469467 1_555
O2 Si3 1.641836 1_555
O2 Pb7 2.413533 1_555
O3 Pb7 2.433375 1_555
O3 Pb6 2.469467 1_555
O4 Si4 1.672039 1_555
O4 Si2 1.672039 1_555
O5 Pb0 2.433375 1_655
O5 Pb5 2.469467 1_555
O6 Si3 1.629882 1_554
O7 Si1 1.641836 1_555
O7 Pb2 2.413533 1_555
O8 Si0 1.650531 1_555
O8 Pb3 2.503393 1_545
O9 Si3 1.650531 1_555
O9 Pb1 2.503393 1_565
O10 Si1 1.629882 1_556
O11 Si2 1.629882 1_555
O12 Pb4 2.433375 1_445
O12 Pb2 2.469467 1_555
O13 Si4 1.629882 1_555
O14 Si4 1.650531 1_555
O14 Pb5 2.503393 1_555
O15 Si5 1.650531 1_555
O15 Pb7 2.503393 1_555
O16 Si5 1.641836 1_555
O16 Pb1 2.413533 1_555
O17 Si2 1.650531 1_555
O17 Pb2 2.503393 1_565
O18 Si1 1.650531 1_555
O18 Pb0 2.503393 1_555
O19 Pb3 2.433375 1_545
O19 Pb1 2.469467 1_555
O20 Si6 1.672039 1_455
O20 Si3 1.672039 1_555
O21 Pb1 2.433375 1_665
O21 Pb3 2.469467 1_555
O22 Si0 1.629882 1_555
O23 Pb6 2.433375 1_455
O23 Pb7 2.469467 1_555
O24 Si0 1.641836 1_555
O24 Pb6 2.413533 1_555
O25 Si5 1.629882 1_555
O26 Pb2 2.433375 1_565
O26 Pb4 2.469467 1_555
O27 Si2 1.641836 1_555
O27 Pb0 2.413533 1_555
O28 Si7 1.641836 1_555
O28 Pb5 2.413533 1_555
O29 Si6 1.650531 1_555
O29 Pb6 2.503393 1_555
O30 Si4 1.641836 1_555
O30 Pb4 2.413533 1_555
O31 Si7 1.629882 1_556
O32 Si6 1.629882 1_554
O33 Si7 1.672039 1_455
O33 Si1 1.672039 1_555
O34 Si7 1.650531 1_555
O34 Pb4 2.503393 1_545
O35 Si5 1.672039 1_555
O35 Si0 1.672039 1_555
