# generated using pymatgen
data_UTiNb2O10
_symmetry_space_group_name_H-M   'P 1'
_cell_length_a   10.69763202
_cell_length_b   9.38300323
_cell_length_c   7.28526177
_cell_angle_alpha   78.74802085
_cell_angle_beta   59.34477231
_cell_angle_gamma   41.90720684
_symmetry_Int_Tables_number   1
_chemical_formula_structural   UTiNb2O10
_chemical_formula_sum   'U2 Ti2 Nb4 O20'
_cell_volume   397.96346825
_cell_formula_units_Z   2
loop_
 _symmetry_equiv_pos_site_id
 _symmetry_equiv_pos_as_xyz
  1  'x, y, z'
loop_
 _atom_site_type_symbol
 _atom_site_label
 _atom_site_symmetry_multiplicity
 _atom_site_fract_x
 _atom_site_fract_y
 _atom_site_fract_z
 _atom_site_occupancy
  U  U0  1  0.75000000  0.75000000  0.75000000  1
  U  U1  1  0.50000000  0.50000000  0.50000000  1
  Ti  Ti0  1  0.25000000  0.25000000  0.25000000  1
  Ti  Ti1  1  0.00000000  0.00000000  0.00000000  1
  Nb  Nb0  1  0.02941800  0.02941800  0.47058200  1
  Nb  Nb1  1  0.77941800  0.77941800  0.22058200  1
  Nb  Nb2  1  0.47058200  0.47058200  0.02941800  1
  Nb  Nb3  1  0.22058200  0.22058200  0.77941800  1
  O  O0  1  0.70336400  0.29663600  0.70336400  1
  O  O1  1  0.95336400  0.54663600  0.95336400  1
  O  O2  1  0.95096300  0.55169400  0.34685500  1
  O  O3  1  0.60443800  0.60443800  0.39556200  1
  O  O4  1  0.09951200  0.90314500  0.69830600  1
  O  O5  1  0.69830600  0.29903700  0.09951200  1
  O  O6  1  0.29663600  0.70336400  0.29663600  1
  O  O7  1  0.55169400  0.95096300  0.15048800  1
  O  O8  1  0.54663600  0.95336400  0.54663600  1
  O  O9  1  0.90314500  0.09951200  0.29903700  1
  O  O10  1  0.15048800  0.34685500  0.55169400  1
  O  O11  1  0.13427900  0.13427900  0.36572100  1
  O  O12  1  0.36572100  0.36572100  0.13427900  1
  O  O13  1  0.85443800  0.85443800  0.64556200  1
  O  O14  1  0.39556200  0.39556200  0.60443800  1
  O  O15  1  0.11572100  0.11572100  0.88427900  1
  O  O16  1  0.64556200  0.64556200  0.85443800  1
  O  O17  1  0.88427900  0.88427900  0.11572100  1
  O  O18  1  0.34685500  0.15048800  0.95096300  1
  O  O19  1  0.29903700  0.69830600  0.90314500  1
loop_
_geom_bond_atom_site_label_1
_geom_bond_atom_site_label_2
_geom_bond_distance
_geom_bond_site_symmetry_2
Nb0 O11 1.812640 1_555
Nb0 O4 1.974216 1_545
Nb0 O9 1.974216 1_455
Nb0 O0 1.984654 1_455
Nb0 O6 1.984654 1_545
Nb1 O17 1.812640 1_555
Nb1 O2 1.974216 1_555
Nb1 O7 1.974216 1_555
Nb1 O8 1.984654 1_555
Nb1 O1 1.984654 1_554
Nb2 O12 1.812640 1_555
Nb2 O5 1.974216 1_555
Nb2 O19 1.974216 1_554
Nb2 O6 1.984654 1_555
Nb2 O0 1.984654 1_554
Nb3 O15 1.812640 1_555
Nb3 O18 1.974216 1_555
Nb3 O10 1.974216 1_555
Nb3 O1 1.984654 1_455
Nb3 O8 1.984654 1_545
O0 U1 2.563897 1_555
O1 U0 2.563897 1_555
O2 Ti0 1.934821 1_655
O2 U0 2.539663 1_555
O3 U1 1.805328 1_555
O4 Ti1 1.934821 1_566
O4 U1 2.539663 1_555
O5 Ti1 1.934821 1_655
O5 U1 2.539663 1_555
O6 U1 2.563897 1_555
O7 Ti0 1.934821 1_565
O7 U0 2.539663 1_554
O8 U0 2.563897 1_555
O9 Ti1 1.934821 1_655
O9 U1 2.539663 1_555
O10 Ti0 1.934821 1_555
O10 U0 2.539663 1_455
O11 Ti0 2.000368 1_555
O12 Ti0 2.000368 1_555
O13 U0 1.805328 1_555
O14 U1 1.805328 1_555
O15 Ti1 2.000368 1_556
O16 U0 1.805328 1_555
O17 Ti1 2.000368 1_665
O18 Ti0 1.934821 1_556
O18 U0 2.539663 1_545
O19 Ti1 1.934821 1_566
O19 U1 2.539663 1_555
