# generated using pymatgen
data_LaH4C4NO8
_symmetry_space_group_name_H-M   'P 1'
_cell_length_a   15.95645600
_cell_length_b   5.88515400
_cell_length_c   8.89035191
_cell_angle_alpha   87.90720657
_cell_angle_beta   90.00000000
_cell_angle_gamma   90.00000000
_symmetry_Int_Tables_number   1
_chemical_formula_structural   LaH4C4NO8
_chemical_formula_sum   'La4 H16 C16 N4 O32'
_cell_volume   834.30231681
_cell_formula_units_Z   4
loop_
 _symmetry_equiv_pos_site_id
 _symmetry_equiv_pos_as_xyz
  1  'x, y, z'
loop_
 _atom_site_type_symbol
 _atom_site_label
 _atom_site_symmetry_multiplicity
 _atom_site_fract_x
 _atom_site_fract_y
 _atom_site_fract_z
 _atom_site_occupancy
  La  La0  1  0.59962100  0.92430800  0.82136400  1
  La  La1  1  0.90037900  0.92430800  0.32136400  1
  La  La2  1  0.40037900  0.07569200  0.17863600  1
  La  La3  1  0.09962100  0.07569200  0.67863600  1
  H  H0  1  0.09102800  0.68293900  0.17374400  1
  H  H1  1  0.88886600  0.55051000  0.92407800  1
  H  H2  1  0.36322200  0.45344200  0.76119600  1
  H  H3  1  0.11113400  0.44949000  0.07592200  1
  H  H4  1  0.69111500  0.37931300  0.36530200  1
  H  H5  1  0.59102800  0.31706100  0.32625600  1
  H  H6  1  0.90897200  0.31706100  0.82625600  1
  H  H7  1  0.80888500  0.37931300  0.86530200  1
  H  H8  1  0.40897200  0.68293900  0.67374400  1
  H  H9  1  0.13677800  0.45344200  0.26119600  1
  H  H10  1  0.63677800  0.54655800  0.23880400  1
  H  H11  1  0.38886600  0.44949000  0.57592200  1
  H  H12  1  0.86322200  0.54655800  0.73880400  1
  H  H13  1  0.30888500  0.62068700  0.63469800  1
  H  H14  1  0.61113400  0.55051000  0.42407800  1
  H  H15  1  0.19111500  0.62068700  0.13469800  1
  C  C0  1  0.47491600  0.09520300  0.53866200  1
  C  C1  1  0.72706800  0.83687100  0.12213600  1
  C  C2  1  0.77293200  0.83687100  0.62213600  1
  C  C3  1  0.97491600  0.90479700  0.96133800  1
  C  C4  1  0.27293200  0.16312900  0.87786400  1
  C  C5  1  0.97170400  0.41928000  0.45547100  1
  C  C6  1  0.47170400  0.58072000  0.04452900  1
  C  C7  1  0.23732500  0.94063900  0.95277200  1
  C  C8  1  0.73732500  0.05936100  0.54722800  1
  C  C9  1  0.02829600  0.58072000  0.54452900  1
  C  C10  1  0.52508400  0.90479700  0.46133800  1
  C  C11  1  0.22706800  0.16312900  0.37786400  1
  C  C12  1  0.26267500  0.94063900  0.45277200  1
  C  C13  1  0.02508400  0.09520300  0.03866200  1
  C  C14  1  0.76267500  0.05936100  0.04722800  1
  C  C15  1  0.52829600  0.41928000  0.95547100  1
  N  N0  1  0.36726800  0.55217800  0.66187100  1
  N  N1  1  0.86726800  0.44782200  0.83812900  1
  N  N2  1  0.63273200  0.44782200  0.33812900  1
  N  N3  1  0.13273200  0.55217800  0.16187100  1
  O  O0  1  0.65942200  0.75757600  0.06972900  1
  O  O1  1  0.43267100  0.50042000  0.15725100  1
  O  O2  1  0.97428400  0.91094800  0.81861700  1
  O  O3  1  0.34057800  0.24242400  0.93027100  1
  O  O4  1  0.72419100  0.14424700  0.93345300  1
  O  O5  1  0.84057800  0.75757600  0.56972900  1
  O  O6  1  0.82844900  0.13898100  0.10492100  1
  O  O7  1  0.96970100  0.21252600  0.50429100  1
  O  O8  1  0.56155900  0.75904200  0.54721000  1
  O  O9  1  0.26791500  0.25088000  0.26870200  1
  O  O10  1  0.27580900  0.85575300  0.06654700  1
  O  O11  1  0.93267100  0.49958000  0.34274900  1
  O  O12  1  0.93844100  0.75904200  0.04721000  1
  O  O13  1  0.47428400  0.08905200  0.68138300  1
  O  O14  1  0.15942200  0.24242400  0.43027100  1
  O  O15  1  0.03029900  0.78747400  0.49570900  1
  O  O16  1  0.06732900  0.50042000  0.65725100  1
  O  O17  1  0.52571600  0.91094800  0.31861700  1
  O  O18  1  0.77580900  0.14424700  0.43345300  1
  O  O19  1  0.32844900  0.86101900  0.39507900  1
  O  O20  1  0.73208500  0.74912000  0.73129800  1
  O  O21  1  0.02571600  0.08905200  0.18138300  1
  O  O22  1  0.06155900  0.24095800  0.95279000  1
  O  O23  1  0.46970100  0.78747400  0.99570900  1
  O  O24  1  0.43844100  0.24095800  0.45279000  1
  O  O25  1  0.22419100  0.85575300  0.56654700  1
  O  O26  1  0.67155100  0.13898100  0.60492100  1
  O  O27  1  0.56732900  0.49958000  0.84274900  1
  O  O28  1  0.53029900  0.21252600  0.00429100  1
  O  O29  1  0.23208500  0.25088000  0.76870200  1
  O  O30  1  0.76791500  0.74912000  0.23129800  1
  O  O31  1  0.17155100  0.86101900  0.89507900  1
loop_
_geom_bond_atom_site_label_1
_geom_bond_atom_site_label_2
_geom_bond_distance
_geom_bond_site_symmetry_2
La0 O20 2.496390 1_555
La0 O13 2.529893 1_565
La0 O26 2.537452 1_565
La0 O27 2.552427 1_555
La0 O0 2.567219 1_556
La0 O4 2.591058 1_565
La0 O28 2.635702 1_566
La0 O23 2.693953 1_555
La0 O8 2.725533 1_555
La1 O30 2.496390 1_555
La1 O21 2.529893 1_665
La1 O6 2.537452 1_565
La1 O11 2.552427 1_555
La1 O5 2.567219 1_555
La1 O18 2.591058 1_565
La1 O7 2.635702 1_565
La1 O15 2.693953 1_655
La1 O12 2.725533 1_555
La2 O9 2.496390 1_555
La2 O17 2.529893 1_545
La2 O19 2.537452 1_545
La2 O1 2.552427 1_555
La2 O3 2.567219 1_554
La2 O10 2.591058 1_545
La2 O23 2.635702 1_544
La2 O28 2.693953 1_555
La2 O24 2.725533 1_555
La3 O29 2.496390 1_555
La3 O2 2.529893 1_445
La3 O31 2.537452 1_545
La3 O16 2.552427 1_555
La3 O14 2.567219 1_555
La3 O25 2.591058 1_545
La3 O15 2.635702 1_545
La3 O7 2.693953 1_455
La3 O22 2.725533 1_555
H0 N3 1.025720 1_555
H1 N1 1.049567 1_555
H2 N0 1.041197 1_555
H3 N3 1.049567 1_555
H4 N2 1.040027 1_555
H5 N2 1.025720 1_555
H6 N1 1.025720 1_555
H7 N1 1.040027 1_555
H8 N0 1.025720 1_555
H9 N3 1.041197 1_555
H10 N2 1.041197 1_555
H11 N0 1.049567 1_555
H12 N1 1.041197 1_555
H13 N0 1.040027 1_555
H14 N2 1.049567 1_555
H15 N3 1.040027 1_555
C0 O13 1.268074 1_555
C0 O24 1.268677 1_555
C1 O30 1.263626 1_555
C1 O0 1.271148 1_555
C2 O20 1.263626 1_555
C2 O5 1.271148 1_555
C3 O2 1.268074 1_555
C3 O12 1.268677 1_556
C4 O29 1.263626 1_555
C4 O3 1.271148 1_555
C5 O11 1.257353 1_555
C5 O7 1.277255 1_555
C6 O1 1.257353 1_555
C6 O23 1.277255 1_554
C7 O31 1.265578 1_555
C7 O10 1.269989 1_556
C8 O26 1.265578 1_555
C8 O18 1.269989 1_555
C9 O16 1.257353 1_555
C9 O15 1.277255 1_555
C10 O17 1.268074 1_555
C10 O8 1.268677 1_555
C11 O9 1.263626 1_555
C11 O14 1.271148 1_555
C12 O19 1.265578 1_555
C12 O25 1.269989 1_555
C13 O21 1.268074 1_555
C13 O22 1.268677 1_554
C14 O6 1.265578 1_555
C14 O4 1.269989 1_554
C15 O27 1.257353 1_555
C15 O28 1.277255 1_556
