# generated using pymatgen
data_ZrHg3(SCl3)2
_symmetry_space_group_name_H-M   'P 1'
_cell_length_a   7.54457600
_cell_length_b   6.78409000
_cell_length_c   13.28434328
_cell_angle_alpha   88.52742530
_cell_angle_beta   90.00000000
_cell_angle_gamma   90.00000000
_symmetry_Int_Tables_number   1
_chemical_formula_structural   ZrHg3(SCl3)2
_chemical_formula_sum   'Zr2 Hg6 S4 Cl12'
_cell_volume   679.70908482
_cell_formula_units_Z   2
loop_
 _symmetry_equiv_pos_site_id
 _symmetry_equiv_pos_as_xyz
  1  'x, y, z'
loop_
 _atom_site_type_symbol
 _atom_site_label
 _atom_site_symmetry_multiplicity
 _atom_site_fract_x
 _atom_site_fract_y
 _atom_site_fract_z
 _atom_site_occupancy
  Zr  Zr0  1  0.50000000  0.50000000  0.50000000  1
  Zr  Zr1  1  0.00000000  0.50000000  0.00000000  1
  Hg  Hg0  1  0.79472500  0.99156600  0.75952400  1
  Hg  Hg1  1  0.20527500  0.00843400  0.24047600  1
  Hg  Hg2  1  0.29472500  0.00843400  0.74047600  1
  Hg  Hg3  1  0.70527500  0.99156600  0.25952400  1
  Hg  Hg4  1  0.00000000  0.00000000  0.50000000  1
  Hg  Hg5  1  0.50000000  0.00000000  0.00000000  1
  S  S0  1  0.96095800  0.15260800  0.33200700  1
  S  S1  1  0.46095800  0.84739200  0.16799300  1
  S  S2  1  0.53904200  0.15260800  0.83200700  1
  S  S3  1  0.03904200  0.84739200  0.66799300  1
  Cl  Cl0  1  0.95055900  0.64751600  0.16726800  1
  Cl  Cl1  1  0.28700000  0.36694700  0.06376800  1
  Cl  Cl2  1  0.71300000  0.63305300  0.93623200  1
  Cl  Cl3  1  0.54944100  0.64751600  0.66726800  1
  Cl  Cl4  1  0.78700000  0.63305300  0.43623200  1
  Cl  Cl5  1  0.85317200  0.18654900  0.05941700  1
  Cl  Cl6  1  0.45055900  0.35248400  0.33273200  1
  Cl  Cl7  1  0.04944100  0.35248400  0.83273200  1
  Cl  Cl8  1  0.14682800  0.81345100  0.94058300  1
  Cl  Cl9  1  0.21300000  0.36694700  0.56376800  1
  Cl  Cl10  1  0.64682800  0.18654900  0.55941700  1
  Cl  Cl11  1  0.35317200  0.81345100  0.44058300  1
loop_
_geom_bond_atom_site_label_1
_geom_bond_atom_site_label_2
_geom_bond_distance
_geom_bond_site_symmetry_2
Hg0 S3 2.427737 1_655
Hg0 S2 2.428157 1_565
Hg1 S0 2.427737 1_455
Hg1 S1 2.428157 1_545
Hg2 S2 2.427737 1_555
Hg2 S3 2.428157 1_545
Hg3 S1 2.427737 1_555
Hg3 S0 2.428157 1_565
Hg4 S3 2.453620 1_545
Hg4 S0 2.453620 1_455
Hg5 S2 2.453620 1_554
Hg5 S1 2.453620 1_545
Cl0 Zr1 2.488462 1_655
Cl1 Zr1 2.486275 1_555
Cl2 Zr1 2.486275 1_656
Cl3 Zr0 2.488462 1_555
Cl4 Zr0 2.486275 1_555
Cl5 Zr1 2.507148 1_655
Cl6 Zr0 2.488462 1_555
Cl7 Zr1 2.488462 1_556
Cl8 Zr1 2.507148 1_556
Cl9 Zr0 2.486275 1_555
Cl10 Zr0 2.507148 1_555
Cl11 Zr0 2.507148 1_555
