# generated using pymatgen
data_CaMg2TiAl2SiO10
_symmetry_space_group_name_H-M   'P 1'
_cell_length_a   9.02116600
_cell_length_b   9.91280088
_cell_length_c   10.48400297
_cell_angle_alpha   115.44562406
_cell_angle_beta   84.28916677
_cell_angle_gamma   114.25785974
_symmetry_Int_Tables_number   1
_chemical_formula_structural   CaMg2TiAl2SiO10
_chemical_formula_sum   'Ca4 Mg8 Ti4 Al8 Si4 O40'
_cell_volume   768.45223406
_cell_formula_units_Z   4
loop_
 _symmetry_equiv_pos_site_id
 _symmetry_equiv_pos_as_xyz
  1  'x, y, z'
loop_
 _atom_site_type_symbol
 _atom_site_label
 _atom_site_symmetry_multiplicity
 _atom_site_fract_x
 _atom_site_fract_y
 _atom_site_fract_z
 _atom_site_occupancy
  Ca  Ca0  1  0.60358600  0.36805300  0.57848400  1
  Ca  Ca1  1  0.63098600  0.39258000  0.05165000  1
  Ca  Ca2  1  0.37469700  0.61956200  0.95874200  1
  Ca  Ca3  1  0.39604700  0.63133900  0.41927300  1
  Mg  Mg0  1  0.94415000  0.05578600  0.65476100  1
  Mg  Mg1  1  0.94535900  0.05785400  0.15173300  1
  Mg  Mg2  1  0.73402200  0.26104200  0.25445000  1
  Mg  Mg3  1  0.49888000  0.99845600  0.00655400  1
  Mg  Mg4  1  0.17725900  0.85819900  0.53979100  1
  Mg  Mg5  1  0.14871600  0.82852400  0.05720900  1
  Mg  Mg6  1  0.05039200  0.94282700  0.84640300  1
  Mg  Mg7  1  0.06336800  0.94489000  0.34731700  1
  Ti  Ti0  1  0.84637000  0.17014400  0.95597100  1
  Ti  Ti1  1  0.82020400  0.14410200  0.45916400  1
  Ti  Ti2  1  0.25923200  0.75101200  0.75531800  1
  Ti  Ti3  1  0.01139000  0.50121500  0.49185500  1
  Al  Al0  1  0.95287500  0.43317100  0.79637800  1
  Al  Al1  1  0.56022300  0.05104600  0.69807500  1
  Al  Al2  1  0.65395300  0.77092300  0.74451900  1
  Al  Al3  1  0.67171600  0.76823300  0.23971500  1
  Al  Al4  1  0.23070900  0.33514500  0.55443300  1
  Al  Al5  1  0.22569500  0.34090300  0.06727000  1
  Al  Al6  1  0.43205700  0.94024300  0.30417400  1
  Al  Al7  1  0.04741000  0.56744700  0.19461700  1
  Si  Si0  1  0.77549800  0.66076600  0.93048400  1
  Si  Si1  1  0.76724300  0.66012300  0.44355800  1
  Si  Si2  1  0.33450400  0.23265800  0.76364000  1
  Si  Si3  1  0.34485600  0.23336600  0.25628300  1
  O  O0  1  0.95507600  0.27180400  0.82678900  1
  O  O1  1  0.94190700  0.28194500  0.34883500  1
  O  O2  1  0.87767500  0.37437700  0.61514800  1
  O  O3  1  0.72325300  0.04993200  0.58457600  1
  O  O4  1  0.86333800  0.37667900  0.12228300  1
  O  O5  1  0.73901200  0.06385100  0.07442700  1
  O  O6  1  0.93764100  0.83231700  0.98155800  1
  O  O7  1  0.80524600  0.49781000  0.89848100  1
  O  O8  1  0.62808100  0.12436500  0.88128800  1
  O  O9  1  0.93376200  0.82906000  0.48949800  1
  O  O10  1  0.79041200  0.49699300  0.43292600  1
  O  O11  1  0.62588800  0.13238300  0.38267600  1
  O  O12  1  0.83456900  0.95073800  0.79085400  1
  O  O13  1  0.68291500  0.62581100  0.78510700  1
  O  O14  1  0.49741400  0.20139500  0.70199300  1
  O  O15  1  0.84149700  0.95717000  0.29251700  1
  O  O16  1  0.50765500  0.21600600  0.17719700  1
  O  O17  1  0.67766200  0.62003400  0.29289000  1
  O  O18  1  0.62635300  0.67832300  0.55641500  1
  O  O19  1  0.64208100  0.66248700  0.05132000  1
  O  O20  1  0.37087500  0.33052000  0.93806600  1
  O  O21  1  0.38198600  0.31845800  0.43132400  1
  O  O22  1  0.33199300  0.36624700  0.70936000  1
  O  O23  1  0.47245400  0.77711200  0.82180500  1
  O  O24  1  0.16755700  0.06491400  0.71758100  1
  O  O25  1  0.49684300  0.79384200  0.30600000  1
  O  O26  1  0.32197700  0.37210400  0.22157300  1
  O  O27  1  0.17246900  0.06902600  0.21101500  1
  O  O28  1  0.38523000  0.85994400  0.62830800  1
  O  O29  1  0.21021000  0.51239900  0.56489400  1
  O  O30  1  0.04492600  0.16317300  0.51712200  1
  O  O31  1  0.38073900  0.87354200  0.12036100  1
  O  O32  1  0.20021800  0.51451800  0.09632300  1
  O  O33  1  0.04923400  0.15955400  0.01274900  1
  O  O34  1  0.26234000  0.93194800  0.90815900  1
  O  O35  1  0.14213000  0.61007300  0.85319800  1
  O  O36  1  0.27843100  0.96713300  0.41508700  1
  O  O37  1  0.11339600  0.60817600  0.37556100  1
  O  O38  1  0.06327900  0.71870300  0.65987800  1
  O  O39  1  0.02087900  0.72552200  0.18303400  1
loop_
_geom_bond_atom_site_label_1
_geom_bond_atom_site_label_2
_geom_bond_distance
_geom_bond_site_symmetry_2
Ca0 O14 2.369502 1_555
Ca0 O21 2.402675 1_555
Ca0 O13 2.404803 1_555
Ca0 O11 2.428010 1_555
Ca0 O10 2.489406 1_555
Ca0 O2 2.511279 1_555
Ca0 O22 2.683641 1_555
Ca1 O4 2.376442 1_555
Ca1 O7 2.393249 1_554
Ca1 O20 2.458258 1_554
Ca1 O16 2.474298 1_555
Ca1 O8 2.476124 1_554
Ca1 O17 2.487825 1_555
Ca1 O19 2.637491 1_555
Ca2 O32 2.265908 1_556
Ca2 O31 2.335047 1_556
Ca2 O23 2.412658 1_555
Ca2 O35 2.417721 1_555
Ca2 O19 2.491803 1_556
Ca2 O22 2.655860 1_555
Ca2 O20 2.764823 1_555
Ca3 O25 2.248855 1_555
Ca3 O26 2.373585 1_555
Ca3 O28 2.412298 1_555
Ca3 O18 2.413439 1_555
Ca3 O29 2.438171 1_555
Ca3 O37 2.534856 1_555
Ca3 O17 2.767440 1_555
Mg0 O12 2.060948 1_545
Mg0 O30 2.075002 1_655
Mg0 O0 2.095502 1_555
Mg0 O24 2.137022 1_655
Mg0 O9 2.138931 1_545
Mg0 O3 2.162395 1_555
Mg1 O33 2.057160 1_655
Mg1 O15 2.067553 1_545
Mg1 O5 2.134979 1_555
Mg1 O27 2.145681 1_655
Mg1 O6 2.157668 1_544
Mg1 O1 2.303281 1_555
Mg2 O5 2.066460 1_555
Mg2 O16 2.072385 1_555
Mg2 O1 2.100698 1_555
Mg2 O4 2.130554 1_555
Mg2 O11 2.139017 1_555
Mg2 O10 2.163699 1_555
Mg3 O31 2.006203 1_555
Mg3 O5 2.091845 1_565
Mg3 O16 2.104785 1_565
Mg3 O8 2.132969 1_564
Mg3 O23 2.152408 1_554
Mg3 O34 2.179423 1_554
Mg4 O36 1.968300 1_555
Mg4 O24 2.124543 1_565
Mg4 O38 2.150467 1_555
Mg4 O28 2.165053 1_555
Mg4 O9 2.182863 1_455
Mg4 O37 2.190040 1_555
Mg5 O39 1.999935 1_555
Mg5 O31 2.067135 1_555
Mg5 O6 2.154352 1_454
Mg5 O27 2.162254 1_565
Mg5 O34 2.176692 1_554
Mg5 O35 2.281894 1_554
Mg6 O6 2.091380 1_455
Mg6 O33 2.110045 1_566
Mg6 O24 2.115472 1_565
Mg6 O12 2.127530 1_455
Mg6 O34 2.135984 1_555
Mg6 O38 2.281925 1_555
Mg7 O39 2.017467 1_555
Mg7 O36 2.026254 1_555
Mg7 O27 2.181945 1_565
Mg7 O30 2.192184 1_565
Mg7 O15 2.200043 1_455
Mg7 O9 2.219942 1_455
Al0 O0 1.768153 1_555
Al0 O7 1.777118 1_555
Al0 O35 1.785924 1_655
Al0 O2 1.841205 1_555
Al1 O14 1.783428 1_555
Al1 O28 1.788174 1_545
Al1 O3 1.798006 1_555
Al1 O8 1.805899 1_555
Al2 O12 1.759276 1_555
Al2 O23 1.765488 1_555
Al2 O18 1.774281 1_555
Al2 O13 1.781978 1_555
Al3 O25 1.730710 1_555
Al3 O15 1.755220 1_555
Al3 O19 1.779642 1_555
Al3 O17 1.801746 1_555
Al4 O30 1.754375 1_555
Al4 O22 1.789322 1_555
Al4 O21 1.790833 1_555
Al4 O29 1.797478 1_555
Al5 O32 1.722819 1_555
Al5 O33 1.743315 1_555
Al5 O26 1.759554 1_555
Al5 O20 1.788478 1_554
Al6 O36 1.749383 1_555
Al6 O25 1.780754 1_555
Al6 O31 1.787824 1_555
Al6 O11 1.888224 1_565
Al7 O39 1.733458 1_555
Al7 O32 1.756272 1_555
Al7 O4 1.829377 1_455
Al7 O37 1.866853 1_555
O0 Ti0 1.976846 1_555
O1 Ti3 1.905933 1_655
O1 Ti1 2.069571 1_555
O2 Ti1 2.035255 1_555
O2 Ti3 2.132319 1_655
O3 Ti1 1.876184 1_555
O4 Ti0 1.995820 1_554
O5 Ti0 1.907104 1_554
O6 Si0 1.627162 1_555
O7 Si0 1.632942 1_555
O8 Ti0 1.990996 1_555
O9 Si1 1.636097 1_555
O10 Si1 1.670101 1_555
O10 Ti3 2.124085 1_655
O11 Ti1 1.939530 1_555
O12 Ti0 2.085532 1_565
O13 Si0 1.643881 1_555
O14 Si2 1.639109 1_555
O15 Ti1 1.991667 1_565
O16 Si3 1.648239 1_555
O17 Si1 1.660389 1_555
O18 Si1 1.659402 1_555
O19 Si0 1.657901 1_554
O20 Si2 1.651145 1_555
O21 Si3 1.658739 1_555
O22 Si2 1.659141 1_555
O23 Ti2 1.988884 1_555
O24 Si2 1.631975 1_555
O26 Si3 1.656702 1_555
O27 Si3 1.642674 1_555
O28 Ti2 2.038848 1_555
O29 Ti3 1.962805 1_555
O29 Ti2 2.243742 1_555
O30 Ti1 2.084766 1_455
O33 Ti0 2.035404 1_454
O34 Ti2 1.811994 1_555
O35 Ti2 1.981009 1_555
O37 Ti3 1.882382 1_555
O38 Ti2 1.959604 1_555
O38 Ti3 2.010369 1_555
