# generated using pymatgen
data_ZnB4O7
_symmetry_space_group_name_H-M   'P 1'
_cell_length_a   6.36384396
_cell_length_b   6.36384396
_cell_length_c   5.22112800
_cell_angle_alpha   90.00000000
_cell_angle_beta   90.00000000
_cell_angle_gamma   118.06880590
_symmetry_Int_Tables_number   1
_chemical_formula_structural   ZnB4O7
_chemical_formula_sum   'Zn2 B8 O14'
_cell_volume   186.57807286
_cell_formula_units_Z   2
loop_
 _symmetry_equiv_pos_site_id
 _symmetry_equiv_pos_as_xyz
  1  'x, y, z'
loop_
 _atom_site_type_symbol
 _atom_site_label
 _atom_site_symmetry_multiplicity
 _atom_site_fract_x
 _atom_site_fract_y
 _atom_site_fract_z
 _atom_site_occupancy
  Zn  Zn0  1  0.76610300  0.76610300  0.75000000  1
  Zn  Zn1  1  0.23389700  0.23389700  0.25000000  1
  B  B0  1  0.70242900  0.29757100  0.50000000  1
  B  B1  1  0.29757100  0.70242900  0.00000000  1
  B  B2  1  0.70242900  0.29757100  0.00000000  1
  B  B3  1  0.68956400  0.92463100  0.25000000  1
  B  B4  1  0.92463100  0.68956400  0.25000000  1
  B  B5  1  0.29757100  0.70242900  0.50000000  1
  B  B6  1  0.07536900  0.31043600  0.75000000  1
  B  B7  1  0.31043600  0.07536900  0.75000000  1
  O  O0  1  0.92034100  0.92034100  0.25000000  1
  O  O1  1  0.44580600  0.18930700  0.97694100  1
  O  O2  1  0.07965900  0.07965900  0.75000000  1
  O  O3  1  0.55419400  0.81069300  0.02305900  1
  O  O4  1  0.81069300  0.55419400  0.47694100  1
  O  O5  1  0.19550300  0.75492600  0.25000000  1
  O  O6  1  0.44580600  0.18930700  0.52305900  1
  O  O7  1  0.18930700  0.44580600  0.97694100  1
  O  O8  1  0.24507400  0.80449700  0.75000000  1
  O  O9  1  0.81069300  0.55419400  0.02305900  1
  O  O10  1  0.75492600  0.19550300  0.25000000  1
  O  O11  1  0.18930700  0.44580600  0.52305900  1
  O  O12  1  0.80449700  0.24507400  0.75000000  1
  O  O13  1  0.55419400  0.81069300  0.47694100  1
loop_
_geom_bond_atom_site_label_1
_geom_bond_atom_site_label_2
_geom_bond_distance
_geom_bond_site_symmetry_2
B0 O6 1.448229 1_555
B0 O4 1.448229 1_555
B0 O10 1.562528 1_555
B0 O12 1.562528 1_555
B1 O7 1.448229 1_554
B1 O3 1.448229 1_555
B1 O5 1.562528 1_555
B1 O8 1.562528 1_554
B2 O1 1.448229 1_554
B2 O9 1.448229 1_555
B2 O10 1.562528 1_555
B2 O12 1.562528 1_554
B3 O13 1.443612 1_555
B3 O3 1.443612 1_555
B3 O0 1.481671 1_555
B3 O10 1.571529 1_565
B4 O4 1.443612 1_555
B4 O9 1.443612 1_555
B4 O0 1.481671 1_555
B4 O5 1.571529 1_655
B5 O11 1.448229 1_555
B5 O13 1.448229 1_555
B5 O5 1.562528 1_555
B5 O8 1.562528 1_555
B6 O11 1.443612 1_555
B6 O7 1.443612 1_555
B6 O2 1.481671 1_555
B6 O12 1.571529 1_455
B7 O6 1.443612 1_555
B7 O1 1.443612 1_555
B7 O2 1.481671 1_555
B7 O8 1.571529 1_545
O0 Zn1 2.053382 1_665
O1 Zn1 2.071665 1_556
O2 Zn0 2.053382 1_445
O3 Zn0 2.071665 1_554
O4 Zn0 2.071665 1_555
O6 Zn1 2.071665 1_555
O7 Zn1 2.071665 1_556
O9 Zn0 2.071665 1_554
O11 Zn1 2.071665 1_555
O13 Zn0 2.071665 1_555
