# generated using pymatgen
data_Ba(BiPd)2
_symmetry_space_group_name_H-M   'P 1'
_cell_length_a   4.91345421
_cell_length_b   4.96896073
_cell_length_c   10.91708396
_cell_angle_alpha   91.15083838
_cell_angle_beta   90.00000000
_cell_angle_gamma   90.00000000
_symmetry_Int_Tables_number   1
_chemical_formula_structural   Ba(BiPd)2
_chemical_formula_sum   'Ba2 Bi4 Pd4'
_cell_volume   266.48423087
_cell_formula_units_Z   2
loop_
 _symmetry_equiv_pos_site_id
 _symmetry_equiv_pos_as_xyz
  1  'x, y, z'
loop_
 _atom_site_type_symbol
 _atom_site_label
 _atom_site_symmetry_multiplicity
 _atom_site_fract_x
 _atom_site_fract_y
 _atom_site_fract_z
 _atom_site_occupancy
  Ba  Ba0  1  0.75000000  0.74307757  0.24109761  1
  Ba  Ba1  1  0.25000000  0.25692243  0.75890239  1
  Bi  Bi0  1  0.75000000  0.78206885  0.88053158  1
  Bi  Bi1  1  0.25000000  0.75212797  0.49904705  1
  Bi  Bi2  1  0.75000000  0.24787203  0.50095295  1
  Bi  Bi3  1  0.25000000  0.21793115  0.11946842  1
  Pd  Pd0  1  0.25000000  0.24912168  0.37552409  1
  Pd  Pd1  1  0.25000000  0.69827076  0.99861249  1
  Pd  Pd2  1  0.75000000  0.75087832  0.62447591  1
  Pd  Pd3  1  0.75000000  0.30172924  0.00138751  1
loop_
_geom_bond_atom_site_label_1
_geom_bond_atom_site_label_2
_geom_bond_distance
_geom_bond_site_symmetry_2
Ba0 Pd3 3.380422 1_555
Ba0 Pd1 3.615139 1_654
Ba0 Pd1 3.615139 1_554
Ba0 Bi3 3.673130 1_565
Ba0 Bi3 3.673130 1_665
Ba0 Bi1 3.736658 1_655
Ba0 Bi1 3.736658 1_555
Ba0 Bi2 3.748806 1_565
Ba0 Pd0 3.789221 1_555
Ba0 Pd0 3.789221 1_655
Ba0 Pd0 3.789953 1_565
Ba0 Pd0 3.789953 1_665
Ba0 Bi2 3.792496 1_555
Ba0 Bi3 3.803763 1_655
Ba0 Bi3 3.803763 1_555
Ba0 Pd3 3.853035 1_565
Ba1 Pd1 3.380422 1_555
Ba1 Pd3 3.615139 1_456
Ba1 Pd3 3.615139 1_556
Ba1 Bi0 3.673130 1_545
Ba1 Bi0 3.673130 1_445
Ba1 Bi2 3.736658 1_555
Ba1 Bi2 3.736658 1_455
Ba1 Bi1 3.748806 1_545
Ba1 Pd2 3.789221 1_455
Ba1 Pd2 3.789221 1_555
Ba1 Pd2 3.789953 1_445
Ba1 Pd2 3.789953 1_545
Ba1 Bi1 3.792496 1_555
Ba1 Bi0 3.803763 1_455
Ba1 Bi0 3.803763 1_555
Ba1 Pd1 3.853035 1_545
Bi0 Pd3 2.750283 1_556
Bi0 Pd2 2.796565 1_555
Bi0 Pd1 2.809311 1_555
Bi0 Pd1 2.809311 1_655
Bi0 Pd3 2.876032 1_566
Bi1 Pd2 2.812635 1_555
Bi1 Pd2 2.812635 1_455
Bi1 Pd0 2.816058 1_555
Bi1 Pd0 2.837409 1_565
Bi2 Pd0 2.812635 1_655
Bi2 Pd0 2.812635 1_555
Bi2 Pd2 2.816058 1_555
Bi2 Pd2 2.837409 1_545
Bi3 Pd1 2.750283 1_554
Bi3 Pd0 2.796565 1_555
Bi3 Pd3 2.809311 1_455
Bi3 Pd3 2.809311 1_555
Bi3 Pd1 2.876032 1_544
Pd1 Pd3 3.149809 1_456
Pd1 Pd3 3.149809 1_556
