# generated using pymatgen
data_Ba4AgAuO6
_symmetry_space_group_name_H-M   'P 1'
_cell_length_a   7.32453392
_cell_length_b   7.32453392
_cell_length_c   11.63172500
_cell_angle_alpha   90.00000000
_cell_angle_beta   90.00000000
_cell_angle_gamma   132.49996222
_symmetry_Int_Tables_number   1
_chemical_formula_structural   Ba4AgAuO6
_chemical_formula_sum   'Ba8 Ag2 Au2 O12'
_cell_volume   460.08201999
_cell_formula_units_Z   2
loop_
 _symmetry_equiv_pos_site_id
 _symmetry_equiv_pos_as_xyz
  1  'x, y, z'
loop_
 _atom_site_type_symbol
 _atom_site_label
 _atom_site_symmetry_multiplicity
 _atom_site_fract_x
 _atom_site_fract_y
 _atom_site_fract_z
 _atom_site_occupancy
  Ba  Ba0  1  0.21283400  0.92137500  0.75000000  1
  Ba  Ba1  1  0.64625000  0.35375000  0.50000000  1
  Ba  Ba2  1  0.78716600  0.07862500  0.25000000  1
  Ba  Ba3  1  0.92137500  0.21283400  0.75000000  1
  Ba  Ba4  1  0.07862500  0.78716600  0.25000000  1
  Ba  Ba5  1  0.35375000  0.64625000  0.00000000  1
  Ba  Ba6  1  0.35375000  0.64625000  0.50000000  1
  Ba  Ba7  1  0.64625000  0.35375000  0.00000000  1
  Ag  Ag0  1  0.40310700  0.40310700  0.25000000  1
  Ag  Ag1  1  0.59689300  0.59689300  0.75000000  1
  Au  Au0  1  0.00000000  0.00000000  0.00000000  1
  Au  Au1  1  0.00000000  0.00000000  0.50000000  1
  O  O0  1  0.23932000  0.55934800  0.25000000  1
  O  O1  1  0.15468000  0.84532000  0.50000000  1
  O  O2  1  0.55934800  0.23932000  0.25000000  1
  O  O3  1  0.72960800  0.72960800  0.39100000  1
  O  O4  1  0.15468000  0.84532000  0.00000000  1
  O  O5  1  0.84532000  0.15468000  0.00000000  1
  O  O6  1  0.44065200  0.76068000  0.75000000  1
  O  O7  1  0.76068000  0.44065200  0.75000000  1
  O  O8  1  0.72960800  0.72960800  0.10900000  1
  O  O9  1  0.84532000  0.15468000  0.50000000  1
  O  O10  1  0.27039200  0.27039200  0.60900000  1
  O  O11  1  0.27039200  0.27039200  0.89100000  1
loop_
_geom_bond_atom_site_label_1
_geom_bond_atom_site_label_2
_geom_bond_distance
_geom_bond_site_symmetry_2
Ba0 O6 2.612196 1_555
Ba0 O7 2.758583 1_455
Ba0 O11 2.818949 1_565
Ba0 O10 2.818949 1_565
Ba0 O4 2.937211 1_556
Ba0 O1 2.937211 1_555
Ba0 O7 3.153764 1_565
Ba1 O9 2.669222 1_555
Ba1 O3 2.699635 1_555
Ba1 O10 2.699635 1_555
Ba1 O1 2.952099 1_655
Ba1 O1 2.952099 1_545
Ba1 O7 2.973695 1_555
Ba1 O2 2.973695 1_555
Ba2 O2 2.612196 1_555
Ba2 O0 2.758583 1_655
Ba2 O3 2.818949 1_545
Ba2 O8 2.818949 1_545
Ba2 O5 2.937211 1_555
Ba2 O9 2.937211 1_555
Ba2 O0 3.153764 1_545
Ba3 O7 2.612196 1_555
Ba3 O6 2.758583 1_545
Ba3 O11 2.818949 1_655
Ba3 O10 2.818949 1_655
Ba3 O5 2.937211 1_556
Ba3 O9 2.937211 1_555
Ba3 O6 3.153764 1_655
Ba4 O0 2.612196 1_555
Ba4 O2 2.758583 1_565
Ba4 O3 2.818949 1_455
Ba4 O8 2.818949 1_455
Ba4 O4 2.937211 1_555
Ba4 O1 2.937211 1_555
Ba4 O2 3.153764 1_455
Ba5 O4 2.669222 1_555
Ba5 O11 2.699635 1_554
Ba5 O8 2.699635 1_555
Ba5 O5 2.952099 1_565
Ba5 O5 2.952099 1_455
Ba5 O6 2.973695 1_554
Ba5 O0 2.973695 1_555
Ba6 O1 2.669222 1_555
Ba6 O3 2.699635 1_555
Ba6 O10 2.699635 1_555
Ba6 O9 2.952099 1_565
Ba6 O9 2.952099 1_455
Ba6 O6 2.973695 1_555
Ba6 O0 2.973695 1_555
Ba7 O5 2.669222 1_555
Ba7 O11 2.699635 1_554
Ba7 O8 2.699635 1_555
Ba7 O4 2.952099 1_655
Ba7 O4 2.952099 1_545
Ba7 O2 2.973695 1_555
Ba7 O7 2.973695 1_554
Ag0 O0 2.145656 1_555
Ag0 O2 2.145656 1_555
Ag0 O8 2.529925 1_555
Ag0 O3 2.529925 1_555
Ag1 O6 2.145656 1_555
Ag1 O7 2.145656 1_555
Ag1 O11 2.529925 1_555
Ag1 O10 2.529925 1_555
Au0 O11 2.037737 1_554
Au0 O8 2.037737 1_445
Au0 O5 2.074020 1_455
Au0 O4 2.074020 1_545
Au1 O3 2.037737 1_445
Au1 O10 2.037737 1_555
Au1 O9 2.074020 1_455
Au1 O1 2.074020 1_545
