# generated using pymatgen
data_Cs(OsO3)2
_symmetry_space_group_name_H-M   'P 1'
_cell_length_a   7.20582565
_cell_length_b   7.20582165
_cell_length_c   7.20587043
_cell_angle_alpha   59.99977154
_cell_angle_beta   59.99978986
_cell_angle_gamma   59.99956565
_symmetry_Int_Tables_number   1
_chemical_formula_structural   Cs(OsO3)2
_chemical_formula_sum   'Cs2 Os4 O12'
_cell_volume   264.56710452
_cell_formula_units_Z   2
loop_
 _symmetry_equiv_pos_site_id
 _symmetry_equiv_pos_as_xyz
  1  'x, y, z'
loop_
 _atom_site_type_symbol
 _atom_site_label
 _atom_site_symmetry_multiplicity
 _atom_site_fract_x
 _atom_site_fract_y
 _atom_site_fract_z
 _atom_site_occupancy
  Cs  Cs0  1  0.37500244  0.37500140  0.37499808  1
  Cs  Cs1  1  0.62499756  0.62499860  0.62500192  1
  Os  Os0  1  0.50000000  -0.00000000  0.00000000  1
  Os  Os1  1  0.00000000  -0.00000000  0.50000000  1
  Os  Os2  1  0.00000000  0.50000000  0.00000000  1
  Os  Os3  1  0.00000000  -0.00000000  0.00000000  1
  O  O0  1  0.31398089  0.31397350  0.93602331  1
  O  O1  1  0.06398110  0.06398109  0.68601890  1
  O  O2  1  0.93602110  0.31398944  0.31396920  1
  O  O3  1  0.93601890  0.93601891  0.31398110  1
  O  O4  1  0.68600776  0.06397902  0.68603531  1
  O  O5  1  0.06397890  0.68601056  0.68603080  1
  O  O6  1  0.68600776  0.06397902  0.06397891  1
  O  O7  1  0.68601911  0.68602650  0.06397669  1
  O  O8  1  0.31399224  0.93602098  0.31396469  1
  O  O9  1  0.93602110  0.31398944  0.93602127  1
  O  O10  1  0.06397890  0.68601056  0.06397873  1
  O  O11  1  0.31399224  0.93602098  0.93602109  1
loop_
_geom_bond_atom_site_label_1
_geom_bond_atom_site_label_2
_geom_bond_distance
_geom_bond_site_symmetry_2
Cs0 O6 3.169480 1_555
Cs0 O1 3.169480 1_555
Cs0 O7 3.169481 1_555
Cs0 O5 3.169482 1_555
Cs0 O4 3.169485 1_555
Cs0 O10 3.169487 1_555
Cs1 O11 3.169480 1_555
Cs1 O3 3.169480 1_555
Cs1 O0 3.169481 1_555
Cs1 O2 3.169482 1_555
Cs1 O8 3.169485 1_555
Cs1 O9 3.169487 1_555
O0 Os0 1.915766 1_556
O0 Os2 1.915817 1_556
O1 Os3 1.915827 1_556
O1 Os1 1.915827 1_555
O2 Os2 1.915747 1_655
O2 Os1 1.915872 1_655
O3 Os3 1.915827 1_665
O3 Os1 1.915827 1_665
O4 Os0 1.915720 1_556
O4 Os1 1.915896 1_655
O5 Os2 1.915747 1_556
O5 Os1 1.915872 1_565
O6 Os0 1.915725 1_555
O6 Os3 1.915894 1_655
O7 Os0 1.915766 1_565
O7 Os2 1.915817 1_655
O8 Os0 1.915720 1_565
O8 Os1 1.915896 1_565
O9 Os2 1.915742 1_656
O9 Os3 1.915874 1_656
O10 Os2 1.915742 1_555
O10 Os3 1.915874 1_565
O11 Os0 1.915725 1_566
O11 Os3 1.915894 1_566
