# generated using pymatgen
data_FeTeO3F
_symmetry_space_group_name_H-M   'P 1'
_cell_length_a   5.18151000
_cell_length_b   5.14890600
_cell_length_c   12.90956489
_cell_angle_alpha   74.23151262
_cell_angle_beta   90.00000000
_cell_angle_gamma   90.00000000
_symmetry_Int_Tables_number   1
_chemical_formula_structural   FeTeO3F
_chemical_formula_sum   'Fe4 Te4 O12 F4'
_cell_volume   331.45448708
_cell_formula_units_Z   4
loop_
 _symmetry_equiv_pos_site_id
 _symmetry_equiv_pos_as_xyz
  1  'x, y, z'
loop_
 _atom_site_type_symbol
 _atom_site_label
 _atom_site_symmetry_multiplicity
 _atom_site_fract_x
 _atom_site_fract_y
 _atom_site_fract_z
 _atom_site_occupancy
  Fe  Fe0  1  0.75762300  0.10556800  0.92932500  1
  Fe  Fe1  1  0.24237700  0.89443200  0.07067500  1
  Fe  Fe2  1  0.25762300  0.89443200  0.57067500  1
  Fe  Fe3  1  0.74237700  0.10556800  0.42932500  1
  Te  Te0  1  0.80442700  0.32363000  0.17000500  1
  Te  Te1  1  0.69557300  0.32363000  0.67000500  1
  Te  Te2  1  0.30442700  0.67637000  0.32999500  1
  Te  Te3  1  0.19557300  0.67637000  0.82999500  1
  O  O0  1  0.39472500  0.54904200  0.66275900  1
  O  O1  1  0.93616400  0.13203000  0.06902700  1
  O  O2  1  0.91643900  0.06654000  0.29806500  1
  O  O3  1  0.60527500  0.45095800  0.33724100  1
  O  O4  1  0.06383600  0.86797000  0.93097300  1
  O  O5  1  0.89472500  0.45095800  0.83724100  1
  O  O6  1  0.41643900  0.93346000  0.20193500  1
  O  O7  1  0.10527500  0.54904200  0.16275900  1
  O  O8  1  0.56383600  0.13203000  0.56902700  1
  O  O9  1  0.43616400  0.86797000  0.43097300  1
  O  O10  1  0.08356100  0.93346000  0.70193500  1
  O  O11  1  0.58356100  0.06654000  0.79806500  1
  F  F0  1  0.43531600  0.24081100  0.98525400  1
  F  F1  1  0.56468400  0.75918900  0.01474600  1
  F  F2  1  0.06468400  0.24081100  0.48525400  1
  F  F3  1  0.93531600  0.75918900  0.51474600  1
loop_
_geom_bond_atom_site_label_1
_geom_bond_atom_site_label_2
_geom_bond_distance
_geom_bond_site_symmetry_2
Fe0 O11 1.977434 1_555
Fe0 O5 1.982790 1_555
Fe0 O4 2.000096 1_645
Fe0 O1 2.064106 1_556
Fe1 O6 1.977434 1_555
Fe1 O7 1.982790 1_555
Fe1 O1 2.000096 1_465
Fe1 O4 2.064106 1_554
Fe2 O10 1.977434 1_555
Fe2 O0 1.982790 1_555
Fe2 O8 2.000096 1_565
Fe2 O9 2.064106 1_555
Fe3 O2 1.977434 1_555
Fe3 O3 1.982790 1_555
Fe3 O9 2.000096 1_545
Fe3 O8 2.064106 1_555
O0 Te1 1.930492 1_555
O1 Te0 1.958944 1_555
O2 Te0 1.905988 1_555
O3 Te2 1.930492 1_555
O4 Te3 1.958944 1_555
O5 Te3 1.930492 1_655
O6 Te2 1.905988 1_555
O7 Te0 1.930492 1_455
O8 Te1 1.958944 1_555
O9 Te2 1.958944 1_555
O10 Te3 1.905988 1_555
O11 Te1 1.905988 1_555
F0 Fe0 2.017054 1_555
F0 Fe1 2.080227 1_546
F1 Fe1 2.017054 1_555
F1 Fe0 2.080227 1_564
F2 Fe3 2.017054 1_455
F2 Fe2 2.080227 1_545
F3 Fe2 2.017054 1_655
F3 Fe3 2.080227 1_565
