# generated using pymatgen
data_DyNiSn
_symmetry_space_group_name_H-M   'P 1'
_cell_length_a   4.44614434
_cell_length_b   7.10029802
_cell_length_c   7.63110389
_cell_angle_alpha   90.00023453
_cell_angle_beta   90.00000000
_cell_angle_gamma   90.00000000
_symmetry_Int_Tables_number   1
_chemical_formula_structural   DyNiSn
_chemical_formula_sum   'Dy4 Ni4 Sn4'
_cell_volume   240.90593603
_cell_formula_units_Z   4
loop_
 _symmetry_equiv_pos_site_id
 _symmetry_equiv_pos_as_xyz
  1  'x, y, z'
loop_
 _atom_site_type_symbol
 _atom_site_label
 _atom_site_symmetry_multiplicity
 _atom_site_fract_x
 _atom_site_fract_y
 _atom_site_fract_z
 _atom_site_occupancy
  Dy  Dy0  1  0.75000000  0.01347817  0.70207028  1
  Dy  Dy1  1  0.25000000  0.98651076  0.29793101  1
  Dy  Dy2  1  0.75000000  0.51349193  0.79792977  1
  Dy  Dy3  1  0.25000000  0.48651906  0.20206777  1
  Ni  Ni0  1  0.75000000  0.79930101  0.08477785  1
  Ni  Ni1  1  0.25000000  0.20069119  0.91518815  1
  Ni  Ni2  1  0.75000000  0.29931781  0.41521238  1
  Ni  Ni3  1  0.25000000  0.70068230  0.58482119  1
  Sn  Sn0  1  0.75000000  0.68935092  0.41343398  1
  Sn  Sn1  1  0.25000000  0.31065328  0.58659113  1
  Sn  Sn2  1  0.75000000  0.18935405  0.08656093  1
  Sn  Sn3  1  0.25000000  0.81064952  0.91341653  1
loop_
_geom_bond_atom_site_label_1
_geom_bond_atom_site_label_2
_geom_bond_distance
_geom_bond_site_symmetry_2
Dy0 Ni2 2.985130 1_555
Dy0 Ni1 3.058418 1_555
Dy0 Ni1 3.058418 1_655
Dy0 Sn3 3.101165 1_645
Dy0 Sn3 3.101165 1_545
Dy0 Sn0 3.185578 1_545
Dy0 Sn2 3.188773 1_556
Dy0 Sn1 3.189180 1_655
Dy0 Sn1 3.189180 1_555
Dy0 Ni3 3.267290 1_645
Dy0 Ni3 3.267290 1_545
Dy0 Ni0 3.292695 1_546
Dy0 Dy2 3.624638 1_545
Dy0 Dy2 3.624823 1_555
Dy0 Dy1 3.806566 1_545
Dy0 Dy1 3.806566 1_645
Dy1 Ni3 2.985257 1_555
Dy1 Ni0 3.058551 1_555
Dy1 Ni0 3.058551 1_455
Dy1 Sn2 3.101308 1_565
Dy1 Sn2 3.101308 1_465
Dy1 Sn1 3.185782 1_565
Dy1 Sn3 3.188899 1_554
Dy1 Sn0 3.189159 1_455
Dy1 Sn0 3.189159 1_555
Dy1 Ni2 3.267412 1_465
Dy1 Ni2 3.267412 1_565
Dy1 Ni1 3.292945 1_564
Dy1 Dy3 3.624676 1_555
Dy1 Dy3 3.624797 1_565
Dy2 Ni0 2.984916 1_556
Dy2 Ni3 3.058316 1_655
Dy2 Ni3 3.058316 1_555
Dy2 Sn1 3.101162 1_655
Dy2 Sn1 3.101162 1_555
Dy2 Sn2 3.185618 1_556
Dy2 Sn0 3.188771 1_555
Dy2 Sn3 3.189109 1_655
Dy2 Sn3 3.189109 1_555
Dy2 Ni1 3.267338 1_555
Dy2 Ni1 3.267338 1_655
Dy2 Ni2 3.292741 1_555
Dy2 Dy3 3.806561 1_656
Dy2 Dy3 3.806561 1_556
Dy3 Ni1 2.985183 1_554
Dy3 Ni2 3.058496 1_455
Dy3 Ni2 3.058496 1_555
Dy3 Sn0 3.101249 1_455
Dy3 Sn0 3.101249 1_555
Dy3 Sn3 3.185686 1_554
Dy3 Sn1 3.188984 1_555
Dy3 Sn2 3.189187 1_555
Dy3 Sn2 3.189187 1_455
Dy3 Ni0 3.267313 1_455
Dy3 Ni0 3.267313 1_555
Dy3 Ni3 3.292949 1_555
Ni0 Sn3 2.580419 1_554
Ni0 Sn3 2.580419 1_654
Ni0 Sn0 2.626706 1_555
Ni0 Sn2 2.769526 1_565
Ni1 Sn2 2.580460 1_556
Ni1 Sn2 2.580460 1_456
Ni1 Sn1 2.626301 1_555
Ni1 Sn3 2.769445 1_545
Ni2 Sn1 2.580483 1_655
Ni2 Sn1 2.580483 1_555
Ni2 Sn2 2.626695 1_555
Ni2 Sn0 2.769385 1_555
Ni3 Sn0 2.580515 1_455
Ni3 Sn0 2.580515 1_555
Ni3 Sn3 2.626293 1_555
Ni3 Sn1 2.769355 1_555
