# generated using pymatgen
data_Na2VPO6
_symmetry_space_group_name_H-M   'P 1'
_cell_length_a   12.57701500
_cell_length_b   6.28335300
_cell_length_c   8.27543598
_cell_angle_alpha   61.23147779
_cell_angle_beta   90.00000000
_cell_angle_gamma   90.00000000
_symmetry_Int_Tables_number   1
_chemical_formula_structural   Na2VPO6
_chemical_formula_sum   'Na8 V4 P4 O24'
_cell_volume   573.25404528
_cell_formula_units_Z   4
loop_
 _symmetry_equiv_pos_site_id
 _symmetry_equiv_pos_as_xyz
  1  'x, y, z'
loop_
 _atom_site_type_symbol
 _atom_site_label
 _atom_site_symmetry_multiplicity
 _atom_site_fract_x
 _atom_site_fract_y
 _atom_site_fract_z
 _atom_site_occupancy
  Na  Na0  1  0.07351200  0.73768000  0.06854100  1
  Na  Na1  1  0.14186100  0.88645000  0.42506400  1
  Na  Na2  1  0.64186100  0.11355000  0.07493600  1
  Na  Na3  1  0.35813900  0.88645000  0.92506400  1
  Na  Na4  1  0.57351200  0.26232000  0.43145900  1
  Na  Na5  1  0.85813900  0.11355000  0.57493600  1
  Na  Na6  1  0.92648800  0.26232000  0.93145900  1
  Na  Na7  1  0.42648800  0.73768000  0.56854100  1
  V  V0  1  0.78223000  0.59245100  0.12280500  1
  V  V1  1  0.28223000  0.40754900  0.37719500  1
  V  V2  1  0.21777000  0.40754900  0.87719500  1
  V  V3  1  0.71777000  0.59245100  0.62280500  1
  P  P0  1  0.88667500  0.78905200  0.30378400  1
  P  P1  1  0.11332500  0.21094800  0.69621600  1
  P  P2  1  0.61332500  0.78905200  0.80378400  1
  P  P3  1  0.38667500  0.21094800  0.19621600  1
  O  O0  1  0.65582100  0.77759100  0.98458200  1
  O  O1  1  0.89115400  0.52663800  0.32154200  1
  O  O2  1  0.30178300  0.09728800  0.35488900  1
  O  O3  1  0.80178300  0.90271200  0.14511100  1
  O  O4  1  0.27716600  0.67814200  0.76268900  1
  O  O5  1  0.10884600  0.47336200  0.67845800  1
  O  O6  1  0.00855700  0.07611700  0.75532900  1
  O  O7  1  0.72283400  0.32185800  0.23731100  1
  O  O8  1  0.35941100  0.40925000  0.53948700  1
  O  O9  1  0.69821700  0.90271200  0.64511100  1
  O  O10  1  0.14058900  0.40925000  0.03948700  1
  O  O11  1  0.64058900  0.59075000  0.46051300  1
  O  O12  1  0.85941100  0.59075000  0.96051300  1
  O  O13  1  0.34417900  0.22240900  0.01541800  1
  O  O14  1  0.22283400  0.67814200  0.26268900  1
  O  O15  1  0.50855700  0.92388300  0.74467100  1
  O  O16  1  0.15582100  0.22240900  0.51541800  1
  O  O17  1  0.77716600  0.32185800  0.73731100  1
  O  O18  1  0.49144300  0.07611700  0.25532900  1
  O  O19  1  0.19821700  0.09728800  0.85488900  1
  O  O20  1  0.60884600  0.52663800  0.82154200  1
  O  O21  1  0.99144300  0.92388300  0.24467100  1
  O  O22  1  0.39115400  0.47336200  0.17845800  1
  O  O23  1  0.84417900  0.77759100  0.48458200  1
loop_
_geom_bond_atom_site_label_1
_geom_bond_atom_site_label_2
_geom_bond_distance
_geom_bond_site_symmetry_2
Na0 O10 2.346427 1_555
Na0 O14 2.381123 1_555
Na0 O21 2.490009 1_455
Na0 O6 2.569503 1_564
Na0 O19 2.616512 1_564
Na1 O2 2.323196 1_565
Na1 O21 2.350497 1_455
Na1 O5 2.463270 1_555
Na1 O14 2.499753 1_555
Na1 O16 2.562283 1_565
Na2 O3 2.323196 1_545
Na2 O18 2.350497 1_555
Na2 O20 2.463270 1_554
Na2 O7 2.499753 1_555
Na2 O0 2.562283 1_544
Na3 O19 2.323196 1_565
Na3 O15 2.350497 1_555
Na3 O22 2.463270 1_556
Na3 O4 2.499753 1_555
Na3 O13 2.562283 1_566
Na4 O11 2.346427 1_555
Na4 O7 2.381123 1_555
Na4 O18 2.490009 1_555
Na4 O15 2.569503 1_545
Na4 O9 2.616512 1_545
Na5 O9 2.323196 1_545
Na5 O6 2.350497 1_655
Na5 O1 2.463270 1_555
Na5 O17 2.499753 1_555
Na5 O23 2.562283 1_545
Na6 O12 2.346427 1_555
Na6 O17 2.381123 1_555
Na6 O6 2.490009 1_655
Na6 O21 2.569503 1_546
Na6 O3 2.616512 1_546
Na7 O8 2.346427 1_555
Na7 O4 2.381123 1_555
Na7 O15 2.490009 1_555
Na7 O18 2.569503 1_565
Na7 O2 2.616512 1_565
O0 P2 1.557466 1_555
O0 V0 1.976988 1_556
O1 P0 1.584365 1_555
O1 V0 2.024336 1_555
O2 P3 1.572117 1_555
O2 V1 2.059466 1_555
O3 P0 1.572117 1_555
O3 V0 2.059466 1_555
O4 V2 1.672119 1_555
O5 P1 1.584365 1_555
O5 V2 2.024336 1_555
O6 P1 1.514719 1_555
O7 V0 1.672119 1_555
O8 V1 1.661310 1_555
O9 P2 1.572117 1_555
O9 V3 2.059466 1_555
O10 V2 1.661310 1_554
O11 V3 1.661310 1_555
O12 V0 1.661310 1_556
O13 P3 1.557466 1_555
O13 V2 1.976988 1_554
O14 V1 1.672119 1_555
O15 P2 1.514719 1_555
O16 P1 1.557466 1_555
O16 V1 1.976988 1_555
O17 V3 1.672119 1_555
O18 P3 1.514719 1_555
O19 P1 1.572117 1_555
O19 V2 2.059466 1_555
O20 P2 1.584365 1_555
O20 V3 2.024336 1_555
O21 P0 1.514719 1_555
O22 P3 1.584365 1_555
O22 V1 2.024336 1_555
O23 P0 1.557466 1_555
O23 V3 1.976988 1_555
