# generated using pymatgen
data_Ho7Co6Sn23
_symmetry_space_group_name_H-M   'P 1'
_cell_length_a   9.65213982
_cell_length_b   9.65214956
_cell_length_c   9.83069130
_cell_angle_alpha   90.00026962
_cell_angle_beta   89.99981414
_cell_angle_gamma   119.99990286
_symmetry_Int_Tables_number   1
_chemical_formula_structural   Ho7Co6Sn23
_chemical_formula_sum   'Ho7 Co6 Sn23'
_cell_volume   793.16357667
_cell_formula_units_Z   1
loop_
 _symmetry_equiv_pos_site_id
 _symmetry_equiv_pos_as_xyz
  1  'x, y, z'
loop_
 _atom_site_type_symbol
 _atom_site_label
 _atom_site_symmetry_multiplicity
 _atom_site_fract_x
 _atom_site_fract_y
 _atom_site_fract_z
 _atom_site_occupancy
  Ho  Ho0  1  0.00000189  -0.00000037  -0.00002595  1
  Ho  Ho1  1  0.52147004  0.47852596  0.69342124  1
  Ho  Ho2  1  0.52146980  0.04294376  0.69342190  1
  Ho  Ho3  1  0.95705925  0.47852969  0.69342259  1
  Ho  Ho4  1  0.04295810  0.52148155  0.30658932  1
  Ho  Ho5  1  0.47851842  0.95704146  0.30658991  1
  Ho  Ho6  1  0.47852262  0.52147720  0.30658946  1
  Co  Co0  1  0.16741063  0.83259122  0.80311757  1
  Co  Co1  1  0.16740491  0.33481411  0.80312134  1
  Co  Co2  1  0.66518732  0.83259660  0.80312167  1
  Co  Co3  1  0.33482551  0.16741250  0.19687759  1
  Co  Co4  1  0.83258644  0.66517438  0.19687693  1
  Co  Co5  1  0.83258276  0.16741509  0.19687987  1
  Sn  Sn0  1  0.66667967  0.33332470  0.17984343  1
  Sn  Sn1  1  0.66666601  0.33333314  0.88424266  1
  Sn  Sn2  1  0.33333169  0.66666681  0.11575250  1
  Sn  Sn3  1  0.34698492  0.34697855  0.00000035  1
  Sn  Sn4  1  -0.00000644  0.65301444  -0.00000051  1
  Sn  Sn5  1  0.65302108  0.00000746  0.00000116  1
  Sn  Sn6  1  0.65302092  0.65301420  0.00000086  1
  Sn  Sn7  1  0.33334501  0.66667304  0.82015947  1
  Sn  Sn8  1  0.43866012  0.21932965  0.45144742  1
  Sn  Sn9  1  0.21932608  0.78067353  0.54855688  1
  Sn  Sn10  1  0.21932539  0.43865303  0.54855716  1
  Sn  Sn11  1  0.56135046  0.78067613  0.54855841  1
  Sn  Sn12  1  0.11699459  0.88300442  0.27541929  1
  Sn  Sn13  1  0.78067034  0.56134034  0.45144762  1
  Sn  Sn14  1  0.78067193  0.21932786  0.45145034  1
  Sn  Sn15  1  0.34698477  0.00000629  -0.00000029  1
  Sn  Sn16  1  0.11699428  0.23399294  0.27541581  1
  Sn  Sn17  1  0.76600304  0.88300277  0.27541526  1
  Sn  Sn18  1  0.23399358  0.11699523  0.72457294  1
  Sn  Sn19  1  0.88300025  0.76600044  0.72457688  1
  Sn  Sn20  1  0.88299394  0.11700428  0.72457576  1
  Sn  Sn21  1  -0.00000142  0.00000049  0.50000277  1
  Sn  Sn22  1  -0.00000690  0.34697912  0.00000037  1
loop_
_geom_bond_atom_site_label_1
_geom_bond_atom_site_label_2
_geom_bond_distance
_geom_bond_site_symmetry_2
Ho0 Sn18 3.340001 1_554
Ho0 Sn19 3.340004 1_444
Ho0 Sn20 3.340089 1_454
Ho0 Sn16 3.340330 1_555
Ho0 Sn12 3.340342 1_545
Ho0 Sn17 3.340356 1_445
Ho0 Sn15 3.349095 1_555
Ho0 Sn4 3.349113 1_545
Ho0 Sn3 3.349116 1_555
Ho0 Sn6 3.349137 1_445
Ho0 Sn22 3.349140 1_555
Ho0 Sn5 3.349145 1_455
Ho1 Sn1 3.067758 1_555
Ho1 Sn10 3.091749 1_555
Ho1 Sn11 3.091770 1_555
Ho1 Sn19 3.207391 1_555
Ho1 Sn18 3.207399 1_555
Ho1 Sn8 3.249110 1_555
Ho1 Sn13 3.249129 1_555
Ho1 Sn3 3.375451 1_556
Ho1 Sn6 3.375465 1_556
Ho1 Sn7 3.383037 1_555
Ho2 Sn1 3.067750 1_555
Ho2 Sn9 3.091743 1_545
Ho2 Sn11 3.091743 1_545
Ho2 Sn20 3.207314 1_555
Ho2 Sn18 3.207369 1_555
Ho2 Sn8 3.249123 1_555
Ho2 Sn14 3.249126 1_555
Ho2 Sn15 3.375435 1_556
Ho2 Sn5 3.375468 1_556
Ho2 Sn7 3.383039 1_545
Ho3 Sn1 3.067773 1_555
Ho3 Sn10 3.091718 1_655
Ho3 Sn9 3.091740 1_655
Ho3 Sn20 3.207314 1_555
Ho3 Sn19 3.207370 1_555
Ho3 Sn14 3.249130 1_555
Ho3 Sn13 3.249148 1_555
Ho3 Sn4 3.375427 1_656
Ho3 Sn22 3.375446 1_656
Ho3 Sn7 3.383148 1_655
Ho4 Sn2 3.067744 1_555
Ho4 Sn13 3.091778 1_455
Ho4 Sn14 3.091834 1_455
Ho4 Sn12 3.207395 1_555
Ho4 Sn16 3.207412 1_555
Ho4 Sn9 3.249022 1_555
Ho4 Sn10 3.249050 1_555
Ho4 Sn4 3.375569 1_555
Ho4 Sn22 3.375570 1_555
Ho4 Sn0 3.383123 1_455
Ho5 Sn2 3.067753 1_555
Ho5 Sn8 3.091776 1_565
Ho5 Sn14 3.091827 1_565
Ho5 Sn17 3.207390 1_555
Ho5 Sn12 3.207399 1_555
Ho5 Sn9 3.249023 1_555
Ho5 Sn11 3.249061 1_555
Ho5 Sn5 3.375570 1_565
Ho5 Sn15 3.375575 1_565
Ho5 Sn0 3.383169 1_565
Ho6 Sn2 3.067797 1_555
Ho6 Sn13 3.091781 1_555
Ho6 Sn8 3.091786 1_555
Ho6 Sn17 3.207400 1_555
Ho6 Sn16 3.207426 1_555
Ho6 Sn10 3.249054 1_555
Ho6 Sn11 3.249067 1_555
Ho6 Sn6 3.375561 1_555
Ho6 Sn3 3.375564 1_555
Ho6 Sn0 3.383356 1_555
Co0 Sn15 2.561388 1_566
Co0 Sn4 2.561406 1_556
Co0 Sn18 2.603976 1_565
Co0 Sn19 2.603996 1_455
Co0 Sn9 2.648744 1_555
Co0 Sn7 2.779010 1_555
Co0 Ho2 3.166306 1_565
Co0 Ho3 3.166320 1_455
Co0 Ho0 3.402647 1_566
Co1 Sn22 2.561360 1_556
Co1 Sn3 2.561390 1_556
Co1 Sn20 2.603989 1_455
Co1 Sn18 2.603994 1_555
Co1 Sn10 2.648800 1_555
Co1 Sn7 2.779065 1_555
Co1 Ho3 3.166326 1_455
Co1 Ho1 3.166363 1_555
Co1 Ho0 3.402625 1_556
Co2 Sn5 2.561362 1_566
Co2 Sn6 2.561405 1_556
Co2 Sn20 2.603964 1_565
Co2 Sn19 2.603976 1_555
Co2 Sn11 2.648783 1_555
Co2 Sn7 2.778924 1_555
Co2 Ho2 3.166357 1_565
Co2 Ho1 3.166405 1_555
Co2 Ho0 3.402618 1_666
Co3 Sn15 2.561296 1_555
Co3 Sn3 2.561307 1_555
Co3 Sn12 2.604020 1_545
Co3 Sn16 2.604023 1_555
Co3 Sn8 2.648838 1_555
Co3 Sn0 2.779021 1_555
Co3 Ho6 3.166414 1_555
Co3 Ho5 3.166418 1_545
Co3 Ho0 3.402966 1_555
Co4 Sn6 2.561289 1_555
Co4 Sn4 2.561301 1_655
Co4 Sn12 2.604017 1_655
Co4 Sn17 2.604017 1_555
Co4 Sn13 2.648847 1_555
Co4 Sn0 2.778985 1_555
Co4 Ho6 3.166408 1_555
Co4 Ho4 3.166421 1_655
Co4 Ho0 3.402980 1_665
Co5 Sn5 2.561299 1_555
Co5 Sn22 2.561324 1_655
Co5 Sn16 2.604028 1_655
Co5 Sn17 2.604033 1_545
Co5 Sn14 2.648809 1_555
Co5 Sn0 2.778674 1_555
Co5 Ho5 3.166413 1_545
Co5 Ho4 3.166428 1_655
Co5 Ho0 3.403043 1_655
Sn0 Sn1 2.905960 1_554
Sn0 Sn14 3.280445 1_555
Sn0 Sn13 3.280541 1_555
Sn0 Sn8 3.280561 1_555
Sn1 Sn3 3.352563 1_556
Sn1 Sn6 3.352565 1_556
Sn1 Sn5 3.352573 1_556
Sn1 Sn22 3.352574 1_656
Sn1 Sn4 3.352575 1_656
Sn1 Sn15 3.352575 1_556
Sn2 Sn7 2.905884 1_554
Sn2 Sn4 3.352631 1_555
Sn2 Sn22 3.352639 1_555
Sn2 Sn3 3.352649 1_555
Sn2 Sn6 3.352652 1_555
Sn2 Sn5 3.352657 1_565
Sn3 Sn6 2.953906 1_555
Sn7 Sn9 3.280557 1_555
Sn10 Sn16 3.183832 1_555
Sn10 Sn7 3.280547 1_555
Sn10 Sn9 3.301230 1_555
Sn10 Sn11 3.301271 1_555
Sn11 Sn17 3.183816 1_555
Sn11 Sn7 3.280470 1_555
Sn11 Sn9 3.301255 1_555
Sn12 Sn21 2.949591 1_565
Sn12 Sn9 3.183821 1_555
Sn12 Sn4 3.320726 1_555
Sn12 Sn15 3.320729 1_565
Sn12 Sn16 3.387795 1_565
Sn12 Sn17 3.387812 1_455
Sn13 Sn19 3.183732 1_555
Sn13 Sn8 3.301139 1_555
Sn13 Sn14 3.301163 1_555
Sn14 Sn20 3.183645 1_555
Sn14 Sn8 3.301154 1_555
Sn15 Sn5 2.953900 1_555
Sn15 Sn18 3.320745 1_554
Sn15 Sn2 3.352644 1_545
Sn16 Sn21 2.949633 1_555
Sn16 Sn22 3.320689 1_555
Sn16 Sn3 3.320698 1_555
Sn16 Sn17 3.387818 1_445
Sn17 Sn21 2.949650 1_665
Sn17 Sn5 3.320675 1_565
Sn17 Sn6 3.320677 1_555
Sn18 Sn21 2.949519 1_555
Sn18 Sn8 3.183732 1_555
Sn18 Sn3 3.320755 1_556
Sn18 Sn19 3.387850 1_445
Sn18 Sn20 3.387941 1_455
Sn19 Sn21 2.949581 1_665
Sn19 Sn4 3.320708 1_656
Sn19 Sn6 3.320711 1_556
Sn19 Sn20 3.387972 1_565
Sn20 Sn21 2.949605 1_655
Sn20 Sn5 3.320692 1_556
Sn20 Sn22 3.320692 1_656
Sn22 Sn4 2.953896 1_555
