# generated using pymatgen
data_ScNbO4
_symmetry_space_group_name_H-M   'P 1'
_cell_length_a   4.84276548
_cell_length_b   5.12754786
_cell_length_c   5.72821920
_cell_angle_alpha   90.00000000
_cell_angle_beta   90.00000000
_cell_angle_gamma   90.88261831
_symmetry_Int_Tables_number   1
_chemical_formula_structural   ScNbO4
_chemical_formula_sum   'Sc2 Nb2 O8'
_cell_volume   142.22346586
_cell_formula_units_Z   2
loop_
 _symmetry_equiv_pos_site_id
 _symmetry_equiv_pos_as_xyz
  1  'x, y, z'
loop_
 _atom_site_type_symbol
 _atom_site_label
 _atom_site_symmetry_multiplicity
 _atom_site_fract_x
 _atom_site_fract_y
 _atom_site_fract_z
 _atom_site_occupancy
  Sc  Sc0  1  0.50000000  0.75000000  0.68038646  1
  Sc  Sc1  1  0.50000000  0.25000000  0.31961354  1
  Nb  Nb0  1  0.00000000  0.25000000  0.81623399  1
  Nb  Nb1  1  0.00000000  0.75000000  0.18376601  1
  O  O0  1  0.78082266  0.56484335  0.89323544  1
  O  O1  1  0.21917734  0.93515665  0.89323544  1
  O  O2  1  0.78082266  0.06484335  0.10676456  1
  O  O3  1  0.26545937  0.90807128  0.38648021  1
  O  O4  1  0.73454063  0.09192872  0.61351979  1
  O  O5  1  0.21917734  0.43515665  0.10676456  1
  O  O6  1  0.26545937  0.40807128  0.61351979  1
  O  O7  1  0.73454063  0.59192872  0.38648021  1
loop_
_geom_bond_atom_site_label_1
_geom_bond_atom_site_label_2
_geom_bond_distance
_geom_bond_site_symmetry_2
Nb0 O4 1.904170 1_455
Nb0 O6 1.904170 1_555
Nb0 O1 1.995036 1_545
Nb0 O0 1.995036 1_455
Nb0 O2 2.183248 1_456
Nb0 O5 2.183248 1_556
Nb1 O7 1.904170 1_455
Nb1 O3 1.904170 1_555
Nb1 O5 1.995036 1_555
Nb1 O2 1.995036 1_465
Nb1 O0 2.183248 1_454
Nb1 O1 2.183248 1_554
O0 Sc0 2.068135 1_555
O1 Sc0 2.068135 1_555
O2 Sc1 2.068135 1_555
O3 Sc1 2.109352 1_565
O3 Sc0 2.193119 1_555
O4 Sc0 2.109352 1_545
O4 Sc1 2.193119 1_555
O5 Sc1 2.068135 1_555
O6 Sc0 2.109352 1_555
O6 Sc1 2.193119 1_555
O7 Sc1 2.109352 1_555
O7 Sc0 2.193119 1_555
