# generated using pymatgen
data_KBC4NF9
_symmetry_space_group_name_H-M   'P 1'
_cell_length_a   9.47843600
_cell_length_b   9.89086600
_cell_length_c   10.67891200
_cell_angle_alpha   90.00000000
_cell_angle_beta   90.00000000
_cell_angle_gamma   90.00000000
_symmetry_Int_Tables_number   1
_chemical_formula_structural   KBC4NF9
_chemical_formula_sum   'K4 B4 C16 N4 F36'
_cell_volume   1001.14736317
_cell_formula_units_Z   4
loop_
 _symmetry_equiv_pos_site_id
 _symmetry_equiv_pos_as_xyz
  1  'x, y, z'
loop_
 _atom_site_type_symbol
 _atom_site_label
 _atom_site_symmetry_multiplicity
 _atom_site_fract_x
 _atom_site_fract_y
 _atom_site_fract_z
 _atom_site_occupancy
  K  K0  1  0.50856300  0.22260100  0.25000000  1
  K  K1  1  0.00856300  0.27739900  0.75000000  1
  K  K2  1  0.49143700  0.77739900  0.75000000  1
  K  K3  1  0.99143700  0.72260100  0.25000000  1
  B  B0  1  0.97882700  0.28717200  0.25000000  1
  B  B1  1  0.47882700  0.21282800  0.75000000  1
  B  B2  1  0.52117300  0.78717200  0.25000000  1
  B  B3  1  0.02117300  0.71282800  0.75000000  1
  C  C0  1  0.85863400  0.65359200  0.75000000  1
  C  C1  1  0.10610400  0.66234100  0.87628100  1
  C  C2  1  0.39389600  0.16234100  0.62371900  1
  C  C3  1  0.51161200  0.51665700  0.25000000  1
  C  C4  1  0.14136600  0.34640800  0.25000000  1
  C  C5  1  0.89389600  0.33765900  0.12371900  1
  C  C6  1  0.48838800  0.48334300  0.75000000  1
  C  C7  1  0.60610400  0.83765900  0.37628100  1
  C  C8  1  0.98838800  0.01665700  0.25000000  1
  C  C9  1  0.64136600  0.15359200  0.75000000  1
  C  C10  1  0.35863400  0.84640800  0.25000000  1
  C  C11  1  0.01161200  0.98334300  0.75000000  1
  C  C12  1  0.39389600  0.16234100  0.87628100  1
  C  C13  1  0.10610400  0.66234100  0.62371900  1
  C  C14  1  0.60610400  0.83765900  0.12371900  1
  C  C15  1  0.89389600  0.33765900  0.37628100  1
  N  N0  1  0.48442300  0.36461700  0.75000000  1
  N  N1  1  0.51557700  0.63538300  0.25000000  1
  N  N2  1  0.98442300  0.13538300  0.25000000  1
  N  N3  1  0.01557700  0.86461700  0.75000000  1
  F  F0  1  0.78096100  0.69408500  0.85223500  1
  F  F1  1  0.37934200  0.02401100  0.88569200  1
  F  F2  1  0.14866600  0.48656800  0.25000000  1
  F  F3  1  0.71903900  0.19408500  0.64776500  1
  F  F4  1  0.62065800  0.97598900  0.11430800  1
  F  F5  1  0.04144400  0.70262200  0.51412200  1
  F  F6  1  0.85133400  0.51343200  0.75000000  1
  F  F7  1  0.78096100  0.69408500  0.64776500  1
  F  F8  1  0.74149100  0.78664800  0.38381500  1
  F  F9  1  0.12065800  0.52401100  0.88569200  1
  F  F10  1  0.25850900  0.21335200  0.61618500  1
  F  F11  1  0.45855600  0.20262200  0.51412200  1
  F  F12  1  0.35133400  0.98656800  0.25000000  1
  F  F13  1  0.24149100  0.71335200  0.88381500  1
  F  F14  1  0.54144400  0.79737800  0.48587800  1
  F  F15  1  0.75850900  0.28664800  0.38381500  1
  F  F16  1  0.87934200  0.47598900  0.11430800  1
  F  F17  1  0.64866600  0.01343200  0.75000000  1
  F  F18  1  0.54144400  0.79737800  0.01412200  1
  F  F19  1  0.75850900  0.28664800  0.11618500  1
  F  F20  1  0.74149100  0.78664800  0.11618500  1
  F  F21  1  0.28096100  0.80591500  0.14776500  1
  F  F22  1  0.62065800  0.97598900  0.38569200  1
  F  F23  1  0.24149100  0.71335200  0.61618500  1
  F  F24  1  0.37934200  0.02401100  0.61430800  1
  F  F25  1  0.45855600  0.20262200  0.98587800  1
  F  F26  1  0.25850900  0.21335200  0.88381500  1
  F  F27  1  0.28096100  0.80591500  0.35223500  1
  F  F28  1  0.12065800  0.52401100  0.61430800  1
  F  F29  1  0.87934200  0.47598900  0.38569200  1
  F  F30  1  0.04144400  0.70262200  0.98587800  1
  F  F31  1  0.95855600  0.29737800  0.48587800  1
  F  F32  1  0.95855600  0.29737800  0.01412200  1
  F  F33  1  0.71903900  0.19408500  0.85223500  1
  F  F34  1  0.21903900  0.30591500  0.35223500  1
  F  F35  1  0.21903900  0.30591500  0.14776500  1
loop_
_geom_bond_atom_site_label_1
_geom_bond_atom_site_label_2
_geom_bond_distance
_geom_bond_site_symmetry_2
B0 N2 1.502261 1_555
B0 C15 1.648022 1_555
B0 C5 1.648022 1_555
B0 C4 1.648263 1_655
B1 N0 1.502261 1_555
B1 C12 1.648022 1_555
B1 C2 1.648022 1_555
B1 C9 1.648263 1_555
B2 N1 1.502261 1_555
B2 C7 1.648022 1_555
B2 C14 1.648022 1_555
B2 C10 1.648263 1_555
B3 N3 1.502261 1_555
B3 C13 1.648022 1_555
B3 C1 1.648022 1_555
B3 C0 1.648263 1_455
C0 F0 1.376359 1_555
C0 F7 1.376359 1_555
C0 F6 1.388029 1_555
C1 F9 1.378808 1_555
C1 F30 1.379903 1_555
C1 F13 1.381226 1_555
C2 F24 1.378808 1_555
C2 F11 1.379903 1_555
C2 F10 1.381226 1_555
C3 N1 1.174904 1_555
C3 K0 2.908612 1_555
C4 F35 1.376359 1_555
C4 F34 1.376359 1_555
C4 F2 1.388029 1_555
C5 F16 1.378808 1_555
C5 F32 1.379903 1_555
C5 F19 1.381226 1_555
C6 N0 1.174904 1_555
C6 K2 2.908612 1_555
C7 F22 1.378808 1_555
C7 F14 1.379903 1_555
C7 F8 1.381226 1_555
C8 N2 1.174904 1_555
C8 K3 2.908612 1_545
C9 F33 1.376359 1_555
C9 F3 1.376359 1_555
C9 F17 1.388029 1_555
C10 F27 1.376359 1_555
C10 F21 1.376359 1_555
C10 F12 1.388029 1_555
C11 N3 1.174904 1_555
C11 K1 2.908612 1_565
C12 F1 1.378808 1_555
C12 F25 1.379903 1_555
C12 F26 1.381226 1_555
C13 F28 1.378808 1_555
C13 F5 1.379903 1_555
C13 F23 1.381226 1_555
C14 F4 1.378808 1_555
C14 F18 1.379903 1_555
C14 F20 1.381226 1_555
C15 F29 1.378808 1_555
C15 F31 1.379903 1_555
C15 F15 1.381226 1_555
F0 K2 3.066238 1_555
F1 K2 3.029575 1_545
F2 K3 2.769688 1_455
F3 K1 3.066238 1_655
F4 K0 3.029575 1_565
F5 K3 2.866903 1_455
F6 K1 2.769688 1_655
F7 K2 3.066238 1_555
F8 K3 2.838302 1_555
F9 K1 3.029575 1_555
F10 K1 2.838302 1_555
F11 K0 2.866903 1_555
F12 K0 2.769688 1_565
F13 K2 2.838302 1_555
F14 K2 2.866903 1_555
F15 K0 2.838302 1_555
F16 K3 3.029575 1_555
F17 K2 2.769688 1_545
F18 K2 2.866903 1_554
F19 K0 2.838302 1_555
F20 K3 2.838302 1_555
F21 K3 3.066238 1_455
F22 K0 3.029575 1_565
F23 K2 2.838302 1_555
F24 K2 3.029575 1_545
F25 K0 2.866903 1_556
F26 K1 2.838302 1_555
F27 K3 3.066238 1_455
F28 K1 3.029575 1_555
F29 K3 3.029575 1_555
F30 K3 2.866903 1_456
F31 K1 2.866903 1_655
F32 K1 2.866903 1_654
F33 K1 3.066238 1_655
F34 K0 3.066238 1_555
F35 K0 3.066238 1_555
