# generated using pymatgen
data_SiO2
_symmetry_space_group_name_H-M   'P 1'
_cell_length_a   15.80455000
_cell_length_b   15.80455000
_cell_length_c   9.95923700
_cell_angle_alpha   90.00000000
_cell_angle_beta   90.00000000
_cell_angle_gamma   90.00000000
_symmetry_Int_Tables_number   1
_chemical_formula_structural   SiO2
_chemical_formula_sum   'Si32 O64'
_cell_volume   2487.65606996
_cell_formula_units_Z   32
loop_
 _symmetry_equiv_pos_site_id
 _symmetry_equiv_pos_as_xyz
  1  'x, y, z'
loop_
 _atom_site_type_symbol
 _atom_site_label
 _atom_site_symmetry_multiplicity
 _atom_site_fract_x
 _atom_site_fract_y
 _atom_site_fract_z
 _atom_site_occupancy
  Si  Si0  1  0.70764200  0.08136200  0.64234900  1
  Si  Si1  1  0.57199200  0.07199200  0.15638600  1
  Si  Si2  1  0.92800800  0.57199200  0.84361400  1
  Si  Si3  1  0.07199200  0.42800800  0.15638600  1
  Si  Si4  1  0.29235800  0.91863800  0.64234900  1
  Si  Si5  1  0.79235800  0.58136200  0.64234900  1
  Si  Si6  1  0.70764200  0.08136200  0.35765100  1
  Si  Si7  1  0.79235800  0.58136200  0.35765100  1
  Si  Si8  1  0.04833100  0.13383000  0.50000000  1
  Si  Si9  1  0.95166900  0.86617000  0.50000000  1
  Si  Si10  1  0.91863800  0.70764200  0.64234900  1
  Si  Si11  1  0.29235800  0.91863800  0.35765100  1
  Si  Si12  1  0.57199200  0.07199200  0.84361400  1
  Si  Si13  1  0.20764200  0.41863800  0.35765100  1
  Si  Si14  1  0.08136200  0.29235800  0.35765100  1
  Si  Si15  1  0.54833100  0.36617000  0.50000000  1
  Si  Si16  1  0.58136200  0.20764200  0.35765100  1
  Si  Si17  1  0.92800800  0.57199200  0.15638600  1
  Si  Si18  1  0.86617000  0.04833100  0.50000000  1
  Si  Si19  1  0.41863800  0.79235800  0.35765100  1
  Si  Si20  1  0.36617000  0.45166900  0.50000000  1
  Si  Si21  1  0.20764200  0.41863800  0.64234900  1
  Si  Si22  1  0.13383000  0.95166900  0.50000000  1
  Si  Si23  1  0.58136200  0.20764200  0.64234900  1
  Si  Si24  1  0.08136200  0.29235800  0.64234900  1
  Si  Si25  1  0.91863800  0.70764200  0.35765100  1
  Si  Si26  1  0.42800800  0.92800800  0.15638600  1
  Si  Si27  1  0.07199200  0.42800800  0.84361400  1
  Si  Si28  1  0.45166900  0.63383000  0.50000000  1
  Si  Si29  1  0.42800800  0.92800800  0.84361400  1
  Si  Si30  1  0.41863800  0.79235800  0.64234900  1
  Si  Si31  1  0.63383000  0.54833100  0.50000000  1
  O  O0  1  0.45867000  0.82810500  0.50000000  1
  O  O1  1  0.31023200  0.43129100  0.36369700  1
  O  O2  1  0.81023200  0.06870900  0.63630300  1
  O  O3  1  0.17189500  0.45867000  0.50000000  1
  O  O4  1  0.00000000  0.50000000  0.16819200  1
  O  O5  1  0.68976800  0.56870900  0.63630300  1
  O  O6  1  0.82810500  0.54133000  0.50000000  1
  O  O7  1  0.96194900  0.65921100  0.77005900  1
  O  O8  1  0.00000000  0.50000000  0.83180800  1
  O  O9  1  0.84078900  0.53805100  0.22994100  1
  O  O10  1  0.18283500  0.31716500  0.64858800  1
  O  O11  1  0.15921100  0.46194900  0.22994100  1
  O  O12  1  0.93129100  0.81023200  0.36369700  1
  O  O13  1  0.96194900  0.65921100  0.22994100  1
  O  O14  1  0.68283500  0.18283500  0.35141200  1
  O  O15  1  0.31716500  0.81716500  0.35141200  1
  O  O16  1  0.46194900  0.84078900  0.22994100  1
  O  O17  1  0.39223000  0.55079000  0.50000000  1
  O  O18  1  0.60777000  0.44921000  0.50000000  1
  O  O19  1  0.43129100  0.68976800  0.36369700  1
  O  O20  1  0.18283500  0.31716500  0.35141200  1
  O  O21  1  0.53805100  0.15921100  0.22994100  1
  O  O22  1  0.50000000  0.00000000  0.16819200  1
  O  O23  1  0.56870900  0.31023200  0.36369700  1
  O  O24  1  0.03805100  0.34078900  0.22994100  1
  O  O25  1  0.84078900  0.53805100  0.77005900  1
  O  O26  1  0.89223000  0.94921000  0.50000000  1
  O  O27  1  0.15921100  0.46194900  0.77005900  1
  O  O28  1  0.53805100  0.15921100  0.77005900  1
  O  O29  1  0.44921000  0.39223000  0.50000000  1
  O  O30  1  0.34078900  0.96194900  0.22994100  1
  O  O31  1  0.65921100  0.03805100  0.22994100  1
  O  O32  1  0.81716500  0.68283500  0.64858800  1
  O  O33  1  0.10777000  0.05079000  0.50000000  1
  O  O34  1  0.34078900  0.96194900  0.77005900  1
  O  O35  1  0.81023200  0.06870900  0.36369700  1
  O  O36  1  0.05079000  0.89223000  0.50000000  1
  O  O37  1  0.50000000  0.00000000  0.83180800  1
  O  O38  1  0.06870900  0.18976800  0.63630300  1
  O  O39  1  0.46194900  0.84078900  0.77005900  1
  O  O40  1  0.40783100  0.90783100  0.00000000  1
  O  O41  1  0.59216900  0.09216900  0.00000000  1
  O  O42  1  0.18976800  0.93129100  0.63630300  1
  O  O43  1  0.56870900  0.31023200  0.63630300  1
  O  O44  1  0.90783100  0.59216900  0.00000000  1
  O  O45  1  0.93129100  0.81023200  0.63630300  1
  O  O46  1  0.43129100  0.68976800  0.63630300  1
  O  O47  1  0.68283500  0.18283500  0.64858800  1
  O  O48  1  0.31023200  0.43129100  0.63630300  1
  O  O49  1  0.06870900  0.18976800  0.36369700  1
  O  O50  1  0.65921100  0.03805100  0.77005900  1
  O  O51  1  0.18976800  0.93129100  0.36369700  1
  O  O52  1  0.04133000  0.32810500  0.50000000  1
  O  O53  1  0.03805100  0.34078900  0.77005900  1
  O  O54  1  0.32810500  0.95867000  0.50000000  1
  O  O55  1  0.09216900  0.40783100  0.00000000  1
  O  O56  1  0.31716500  0.81716500  0.64858800  1
  O  O57  1  0.94921000  0.10777000  0.50000000  1
  O  O58  1  0.67189500  0.04133000  0.50000000  1
  O  O59  1  0.68976800  0.56870900  0.36369700  1
  O  O60  1  0.54133000  0.17189500  0.50000000  1
  O  O61  1  0.81716500  0.68283500  0.35141200  1
  O  O62  1  0.55079000  0.60777000  0.50000000  1
  O  O63  1  0.95867000  0.67189500  0.50000000  1
loop_
_geom_bond_atom_site_label_1
_geom_bond_atom_site_label_2
_geom_bond_distance
_geom_bond_site_symmetry_2
O0 Si30 1.652065 1_555
O0 Si19 1.652065 1_555
O1 Si13 1.634784 1_555
O1 Si20 1.651681 1_555
O2 Si0 1.634784 1_555
O2 Si18 1.651681 1_555
O3 Si21 1.652065 1_555
O3 Si13 1.652065 1_555
O4 Si3 1.613384 1_555
O4 Si17 1.613384 1_455
O5 Si5 1.634784 1_555
O5 Si31 1.651681 1_555
O6 Si5 1.652065 1_555
O6 Si7 1.652065 1_555
O7 Si10 1.634672 1_555
O7 Si2 1.650613 1_555
O8 Si27 1.613384 1_555
O8 Si2 1.613384 1_455
O9 Si7 1.634672 1_555
O9 Si17 1.650613 1_555
O10 Si21 1.652132 1_555
O10 Si24 1.652132 1_555
O11 Si13 1.634672 1_555
O11 Si3 1.650613 1_555
O12 Si25 1.634784 1_555
O12 Si9 1.651681 1_555
O13 Si25 1.634672 1_555
O13 Si17 1.650613 1_555
O14 Si16 1.652132 1_555
O14 Si6 1.652132 1_555
O15 Si19 1.652132 1_555
O15 Si11 1.652132 1_555
O16 Si19 1.634672 1_555
O16 Si26 1.650613 1_555
O17 Si28 1.613972 1_555
O17 Si20 1.619800 1_555
O18 Si15 1.613972 1_555
O18 Si31 1.619800 1_555
O19 Si19 1.634784 1_555
O19 Si28 1.651681 1_555
O20 Si13 1.652132 1_555
O20 Si14 1.652132 1_555
O21 Si16 1.634672 1_555
O21 Si1 1.650613 1_555
O22 Si1 1.613384 1_555
O22 Si26 1.613384 1_545
O23 Si16 1.634784 1_555
O23 Si15 1.651681 1_555
O24 Si14 1.634672 1_555
O24 Si3 1.650613 1_555
O25 Si5 1.634672 1_555
O25 Si2 1.650613 1_555
O26 Si9 1.613972 1_555
O26 Si18 1.619800 1_565
O27 Si21 1.634672 1_555
O27 Si27 1.650613 1_555
O28 Si23 1.634672 1_555
O28 Si12 1.650613 1_555
O29 Si20 1.613972 1_555
O29 Si15 1.619800 1_555
O30 Si11 1.634672 1_555
O30 Si26 1.650613 1_555
O31 Si6 1.634672 1_555
O31 Si1 1.650613 1_555
O32 Si5 1.652132 1_555
O32 Si10 1.652132 1_555
O33 Si8 1.613972 1_555
O33 Si22 1.619800 1_545
O34 Si4 1.634672 1_555
O34 Si29 1.650613 1_555
O35 Si6 1.634784 1_555
O35 Si18 1.651681 1_555
O36 Si22 1.613972 1_555
O36 Si9 1.619800 1_455
O37 Si12 1.613384 1_555
O37 Si29 1.613384 1_545
O38 Si24 1.634784 1_555
O38 Si8 1.651681 1_555
O39 Si30 1.634672 1_555
O39 Si29 1.650613 1_555
O40 Si26 1.621462 1_555
O40 Si29 1.621462 1_554
O41 Si1 1.621462 1_555
O41 Si12 1.621462 1_554
O42 Si4 1.634784 1_555
O42 Si22 1.651681 1_555
O43 Si23 1.634784 1_555
O43 Si15 1.651681 1_555
O44 Si17 1.621462 1_555
O44 Si2 1.621462 1_554
O45 Si10 1.634784 1_555
O45 Si9 1.651681 1_555
O46 Si30 1.634784 1_555
O46 Si28 1.651681 1_555
O47 Si23 1.652132 1_555
O47 Si0 1.652132 1_555
O48 Si21 1.634784 1_555
O48 Si20 1.651681 1_555
O49 Si14 1.634784 1_555
O49 Si8 1.651681 1_555
O50 Si0 1.634672 1_555
O50 Si12 1.650613 1_555
O51 Si11 1.634784 1_555
O51 Si22 1.651681 1_555
O52 Si24 1.652065 1_555
O52 Si14 1.652065 1_555
O53 Si24 1.634672 1_555
O53 Si27 1.650613 1_555
O54 Si4 1.652065 1_555
O54 Si11 1.652065 1_555
O55 Si3 1.621462 1_555
O55 Si27 1.621462 1_554
O56 Si30 1.652132 1_555
O56 Si4 1.652132 1_555
O57 Si18 1.613972 1_555
O57 Si8 1.619800 1_655
O58 Si0 1.652065 1_555
O58 Si6 1.652065 1_555
O59 Si7 1.634784 1_555
O59 Si31 1.651681 1_555
O60 Si23 1.652065 1_555
O60 Si16 1.652065 1_555
O61 Si7 1.652132 1_555
O61 Si25 1.652132 1_555
O62 Si31 1.613972 1_555
O62 Si28 1.619800 1_555
O63 Si10 1.652065 1_555
O63 Si25 1.652065 1_555
