# generated using pymatgen
data_La4Al5Br2
_symmetry_space_group_name_H-M   'P 1'
_cell_length_a   11.87300235
_cell_length_b   11.87300235
_cell_length_c   4.35861937
_cell_angle_alpha   90.00000000
_cell_angle_beta   90.00000000
_cell_angle_gamma   93.59629734
_symmetry_Int_Tables_number   1
_chemical_formula_structural   La4Al5Br2
_chemical_formula_sum   'La8 Al10 Br4'
_cell_volume   613.21672158
_cell_formula_units_Z   2
loop_
 _symmetry_equiv_pos_site_id
 _symmetry_equiv_pos_as_xyz
  1  'x, y, z'
loop_
 _atom_site_type_symbol
 _atom_site_label
 _atom_site_symmetry_multiplicity
 _atom_site_fract_x
 _atom_site_fract_y
 _atom_site_fract_z
 _atom_site_occupancy
  La  La0  1  0.73498906  0.73498906  -0.00000000  1
  La  La1  1  0.04019135  0.67640156  0.50000000  1
  La  La2  1  0.36438778  0.63561222  -0.00000000  1
  La  La3  1  0.95980865  0.32359844  0.50000000  1
  La  La4  1  0.26501094  0.26501094  -0.00000000  1
  La  La5  1  0.63561222  0.36438778  -0.00000000  1
  La  La6  1  0.67640156  0.04019135  0.50000000  1
  La  La7  1  0.32359844  0.95980865  0.50000000  1
  Al  Al0  1  0.57926744  0.57926744  0.50000000  1
  Al  Al1  1  0.42073256  0.42073256  0.50000000  1
  Al  Al2  1  0.21576949  0.47973540  0.50000000  1
  Al  Al3  1  0.78423051  0.52026460  0.50000000  1
  Al  Al4  1  0.52893556  0.89810504  0.00000000  1
  Al  Al5  1  0.52026460  0.78423051  0.50000000  1
  Al  Al6  1  0.47106444  0.10189496  0.00000000  1
  Al  Al7  1  0.10189496  0.47106444  0.00000000  1
  Al  Al8  1  0.47973540  0.21576949  0.50000000  1
  Al  Al9  1  0.89810504  0.52893556  -0.00000000  1
  Br  Br0  1  0.87760349  0.87760349  0.50000000  1
  Br  Br1  1  0.17262597  0.82737403  -0.00000000  1
  Br  Br2  1  0.12239651  0.12239651  0.50000000  1
  Br  Br3  1  0.82737403  0.17262597  -0.00000000  1
loop_
_geom_bond_atom_site_label_1
_geom_bond_atom_site_label_2
_geom_bond_distance
_geom_bond_site_symmetry_2
Al0 Al5 2.574234 1_555
Al0 Al3 2.574234 1_555
Al0 Al1 2.577114 1_555
Al0 La0 3.340253 1_555
Al0 La0 3.340253 1_556
Al0 La2 3.452536 1_556
Al0 La2 3.452536 1_555
Al0 La5 3.452536 1_555
Al0 La5 3.452536 1_556
Al1 Al8 2.574234 1_555
Al1 Al2 2.574234 1_555
Al1 La4 3.340253 1_556
Al1 La4 3.340253 1_555
Al1 La5 3.452536 1_556
Al1 La2 3.452536 1_556
Al1 La2 3.452536 1_555
Al1 La5 3.452536 1_555
Al2 Al7 2.563302 1_556
Al2 Al7 2.563302 1_555
Al2 La1 3.226250 1_555
Al2 La2 3.298259 1_555
Al2 La2 3.298259 1_556
Al2 La4 3.431873 1_555
Al2 La4 3.431873 1_556
Al2 La3 3.459122 1_455
Al3 Al9 2.563302 1_555
Al3 Al9 2.563302 1_556
Al3 La3 3.226250 1_555
Al3 La5 3.298259 1_555
Al3 La5 3.298259 1_556
Al3 La0 3.431873 1_556
Al3 La0 3.431873 1_555
Al3 La1 3.459122 1_655
Al4 Al6 2.556391 1_565
Al4 Al5 2.563302 1_555
Al4 Al5 2.563302 1_554
Al4 La6 3.207851 1_565
Al4 La6 3.207851 1_564
Al4 La0 3.214085 1_555
Al4 La7 3.384355 1_554
Al4 La7 3.384355 1_555
Al4 La2 3.572962 1_555
Al5 La7 3.226250 1_555
Al5 La2 3.298259 1_556
Al5 La2 3.298259 1_555
Al5 La0 3.431873 1_556
Al5 La0 3.431873 1_555
Al5 La6 3.459122 1_565
Al6 Al8 2.563302 1_555
Al6 Al8 2.563302 1_554
Al6 La7 3.207851 1_544
Al6 La7 3.207851 1_545
Al6 La4 3.214085 1_555
Al6 La6 3.384355 1_554
Al6 La6 3.384355 1_555
Al6 La5 3.572962 1_555
Al7 Al9 2.556391 1_455
Al7 La3 3.207851 1_455
Al7 La3 3.207851 1_454
Al7 La4 3.214085 1_555
Al7 La1 3.384355 1_555
Al7 La1 3.384355 1_554
Al7 La2 3.572962 1_555
Al8 La6 3.226250 1_555
Al8 La5 3.298259 1_555
Al8 La5 3.298259 1_556
Al8 La4 3.431873 1_555
Al8 La4 3.431873 1_556
Al8 La7 3.459122 1_545
Al9 La1 3.207851 1_655
Al9 La1 3.207851 1_654
Al9 La0 3.214085 1_555
Al9 La3 3.384355 1_554
Al9 La3 3.384355 1_555
Al9 La5 3.572962 1_555
Br0 La1 3.164126 1_655
Br0 La6 3.164126 1_565
Br0 La0 3.181819 1_555
Br0 La0 3.181819 1_556
Br1 La1 3.175103 1_554
Br1 La1 3.175103 1_555
Br1 La7 3.175103 1_554
Br1 La7 3.175103 1_555
Br1 La2 3.319314 1_555
Br2 La3 3.164126 1_455
Br2 La7 3.164126 1_545
Br2 La4 3.181819 1_555
Br2 La4 3.181819 1_556
Br3 La6 3.175103 1_555
Br3 La6 3.175103 1_554
Br3 La3 3.175103 1_555
Br3 La3 3.175103 1_554
Br3 La5 3.319314 1_555
