# generated using pymatgen
data_Tl3AsS4
_symmetry_space_group_name_H-M   'P 1'
_cell_length_a   9.06200029
_cell_length_b   9.22778934
_cell_length_c   10.95771963
_cell_angle_alpha   90.00000000
_cell_angle_beta   90.00000000
_cell_angle_gamma   90.00000000
_symmetry_Int_Tables_number   1
_chemical_formula_structural   Tl3AsS4
_chemical_formula_sum   'Tl12 As4 S16'
_cell_volume   916.30894762
_cell_formula_units_Z   4
loop_
 _symmetry_equiv_pos_site_id
 _symmetry_equiv_pos_as_xyz
  1  'x, y, z'
loop_
 _atom_site_type_symbol
 _atom_site_label
 _atom_site_symmetry_multiplicity
 _atom_site_fract_x
 _atom_site_fract_y
 _atom_site_fract_z
 _atom_site_occupancy
  Tl  Tl0  1  0.93045560  0.19507391  0.44842535  1
  Tl  Tl1  1  0.43045560  0.30492609  0.05157465  1
  Tl  Tl2  1  0.56954440  0.69507391  0.55157465  1
  Tl  Tl3  1  0.06954440  0.80492609  0.94842535  1
  Tl  Tl4  1  0.06954440  0.80492609  0.55157465  1
  Tl  Tl5  1  0.56954440  0.69507391  0.94842535  1
  Tl  Tl6  1  0.43045560  0.30492609  0.44842535  1
  Tl  Tl7  1  0.93045560  0.19507391  0.05157465  1
  Tl  Tl8  1  0.39578242  0.10671123  0.75000000  1
  Tl  Tl9  1  0.89578242  0.39328877  0.75000000  1
  Tl  Tl10  1  0.10421758  0.60671123  0.25000000  1
  Tl  Tl11  1  0.60421758  0.89328877  0.25000000  1
  As  As0  1  0.28133539  0.52687593  0.75000000  1
  As  As1  1  0.21866461  0.02687593  0.25000000  1
  As  As2  1  0.78133539  0.97312407  0.75000000  1
  As  As3  1  0.71866461  0.47312407  0.25000000  1
  S  S0  1  0.99961109  0.93218298  0.25000000  1
  S  S1  1  0.50038891  0.43218298  0.75000000  1
  S  S2  1  0.49961109  0.56781702  0.25000000  1
  S  S3  1  0.00038891  0.06781702  0.75000000  1
  S  S4  1  0.84228431  0.53366519  0.41177769  1
  S  S5  1  0.34228431  0.96633481  0.08822231  1
  S  S6  1  0.65771569  0.03366519  0.58822231  1
  S  S7  1  0.15771569  0.46633481  0.91177769  1
  S  S8  1  0.15771569  0.46633481  0.58822231  1
  S  S9  1  0.65771569  0.03366519  0.91177769  1
  S  S10  1  0.34228431  0.96633481  0.41177769  1
  S  S11  1  0.84228431  0.53366519  0.08822231  1
  S  S12  1  0.69129056  0.23699941  0.25000000  1
  S  S13  1  0.19129056  0.26300059  0.25000000  1
  S  S14  1  0.80870944  0.73699941  0.75000000  1
  S  S15  1  0.30870944  0.76300059  0.75000000  1
loop_
_geom_bond_atom_site_label_1
_geom_bond_atom_site_label_2
_geom_bond_distance
_geom_bond_site_symmetry_2
As0 S1 2.168874 1_555
As0 S8 2.170152 1_555
As0 S7 2.170152 1_555
As0 S15 2.192984 1_555
As1 S0 2.168874 1_445
As1 S10 2.170152 1_545
As1 S5 2.170152 1_545
As1 S13 2.192984 1_555
As2 S3 2.168874 1_665
As2 S9 2.170152 1_565
As2 S6 2.170152 1_565
As2 S14 2.192984 1_555
As3 S2 2.168874 1_555
As3 S4 2.170152 1_555
As3 S11 2.170152 1_555
As3 S12 2.192984 1_555
S0 Tl10 3.149431 1_655
S1 Tl8 3.149431 1_555
S2 Tl11 3.149431 1_555
S3 Tl9 3.149431 1_455
S4 Tl10 3.038261 1_655
S5 Tl11 3.038261 1_555
S6 Tl8 3.038261 1_555
S7 Tl9 3.038261 1_455
S8 Tl9 3.038261 1_455
S9 Tl8 3.038261 1_555
S10 Tl11 3.038261 1_555
S11 Tl10 3.038261 1_655
S12 Tl0 3.094262 1_555
S12 Tl7 3.094262 1_555
S12 Tl11 3.268367 1_545
S13 Tl6 3.094262 1_555
S13 Tl1 3.094262 1_555
S13 Tl10 3.268367 1_555
S14 Tl2 3.094262 1_555
S14 Tl5 3.094262 1_555
S14 Tl9 3.268367 1_555
S15 Tl4 3.094262 1_555
S15 Tl3 3.094262 1_555
S15 Tl8 3.268367 1_565
