# generated using pymatgen
data_AsPbClO2
_symmetry_space_group_name_H-M   'P 1'
_cell_length_a   7.14967700
_cell_length_b   10.08999400
_cell_length_c   11.67317500
_cell_angle_alpha   90.00000000
_cell_angle_beta   90.00000000
_cell_angle_gamma   90.00000000
_symmetry_Int_Tables_number   1
_chemical_formula_structural   AsPbClO2
_chemical_formula_sum   'As8 Pb8 Cl8 O16'
_cell_volume   842.10515616
_cell_formula_units_Z   8
loop_
 _symmetry_equiv_pos_site_id
 _symmetry_equiv_pos_as_xyz
  1  'x, y, z'
loop_
 _atom_site_type_symbol
 _atom_site_label
 _atom_site_symmetry_multiplicity
 _atom_site_fract_x
 _atom_site_fract_y
 _atom_site_fract_z
 _atom_site_occupancy
  As  As0  1  0.91886000  0.88170400  0.46544000  1
  As  As1  1  0.58114000  0.11829600  0.96544000  1
  As  As2  1  0.69950100  0.80783200  0.69756800  1
  As  As3  1  0.08114000  0.38170400  0.03456000  1
  As  As4  1  0.30049900  0.30783200  0.80243200  1
  As  As5  1  0.19950100  0.69216800  0.30243200  1
  As  As6  1  0.80049900  0.19216800  0.19756800  1
  As  As7  1  0.41886000  0.61829600  0.53456000  1
  Pb  Pb0  1  0.93064300  0.49656900  0.49341300  1
  Pb  Pb1  1  0.06935700  0.99656900  0.00658700  1
  Pb  Pb2  1  0.43064300  0.00343100  0.50658700  1
  Pb  Pb3  1  0.16543400  0.66488600  0.78467100  1
  Pb  Pb4  1  0.83456600  0.16488600  0.71532900  1
  Pb  Pb5  1  0.56935700  0.50343100  0.99341300  1
  Pb  Pb6  1  0.33456600  0.33511400  0.28467100  1
  Pb  Pb7  1  0.66543400  0.83511400  0.21532900  1
  Cl  Cl0  1  0.06186300  0.23369000  0.46768600  1
  Cl  Cl1  1  0.56186300  0.26631000  0.53231400  1
  Cl  Cl2  1  0.34976700  0.01635100  0.23948900  1
  Cl  Cl3  1  0.43813700  0.76631000  0.96768600  1
  Cl  Cl4  1  0.65023300  0.51635100  0.26051100  1
  Cl  Cl5  1  0.93813700  0.73369000  0.03231400  1
  Cl  Cl6  1  0.15023300  0.98364900  0.73948900  1
  Cl  Cl7  1  0.84976700  0.48364900  0.76051100  1
  O  O0  1  0.03298200  0.25470800  0.14744600  1
  O  O1  1  0.53298200  0.24529200  0.85255400  1
  O  O2  1  0.16492500  0.25405400  0.93019800  1
  O  O3  1  0.33507500  0.74594600  0.43019800  1
  O  O4  1  0.16115100  0.52464100  0.34476900  1
  O  O5  1  0.96701800  0.75470800  0.35255400  1
  O  O6  1  0.79674900  0.07181300  0.90306500  1
  O  O7  1  0.83884900  0.02464100  0.15523100  1
  O  O8  1  0.33884900  0.47535900  0.84476900  1
  O  O9  1  0.66492500  0.24594600  0.06980200  1
  O  O10  1  0.66115100  0.97535900  0.65523100  1
  O  O11  1  0.70325100  0.92818700  0.40306500  1
  O  O12  1  0.83507500  0.75405400  0.56980200  1
  O  O13  1  0.29674900  0.42818700  0.09693500  1
  O  O14  1  0.46701800  0.74529200  0.64744600  1
  O  O15  1  0.20325100  0.57181300  0.59693500  1
loop_
_geom_bond_atom_site_label_1
_geom_bond_atom_site_label_2
_geom_bond_distance
_geom_bond_site_symmetry_2
As0 O11 1.768178 1_555
As0 O5 1.870012 1_555
As0 O12 1.871324 1_555
As1 O6 1.768178 1_555
As1 O1 1.870012 1_555
As1 O9 1.871324 1_556
As2 O10 1.782328 1_555
As2 O12 1.859671 1_555
As2 O14 1.871725 1_555
As3 O13 1.768178 1_555
As3 O0 1.870012 1_555
As3 O2 1.871324 1_554
As4 O8 1.782328 1_555
As4 O2 1.859671 1_555
As4 O1 1.871725 1_555
As5 O4 1.782328 1_555
As5 O3 1.859671 1_555
As5 O5 1.871725 1_455
As6 O7 1.782328 1_555
As6 O9 1.859671 1_555
As6 O0 1.871725 1_655
As7 O15 1.768178 1_555
As7 O14 1.870012 1_555
As7 O3 1.871324 1_555
Cl0 Pb0 2.829461 1_455
Cl0 Pb6 3.068032 1_555
Cl1 Pb2 2.829461 1_555
Cl1 Pb4 3.068032 1_555
Cl2 Pb7 2.918439 1_545
Cl2 Pb2 3.173726 1_555
Cl3 Pb5 2.829461 1_555
Cl3 Pb3 3.068032 1_555
Cl4 Pb6 2.918439 1_555
Cl4 Pb5 3.173726 1_554
Cl5 Pb1 2.829461 1_655
Cl5 Pb7 3.068032 1_555
Cl6 Pb4 2.918439 1_465
Cl6 Pb1 3.173726 1_556
Cl7 Pb3 2.918439 1_655
Cl7 Pb0 3.173726 1_555
O2 Pb1 2.830499 1_546
O3 Pb2 2.830499 1_565
O4 Pb6 2.384617 1_555
O4 Pb0 2.409784 1_455
O6 Pb4 2.399498 1_555
O6 Pb1 2.415686 1_646
O7 Pb7 2.384617 1_545
O7 Pb1 2.409784 1_645
O8 Pb3 2.384617 1_555
O8 Pb5 2.409784 1_555
O9 Pb5 2.830499 1_554
O10 Pb4 2.384617 1_565
O10 Pb2 2.409784 1_565
O11 Pb7 2.399498 1_555
O11 Pb2 2.415686 1_565
O12 Pb0 2.830499 1_555
O13 Pb6 2.399498 1_555
O13 Pb5 2.415686 1_554
O15 Pb3 2.399498 1_555
O15 Pb0 2.415686 1_455
