# generated using pymatgen
data_Cr11Ge19
_symmetry_space_group_name_H-M   'P 1'
_cell_length_a   5.80288777
_cell_length_b   5.80288777
_cell_length_c   52.37109513
_cell_angle_alpha   90.00000000
_cell_angle_beta   90.00000000
_cell_angle_gamma   90.00000000
_symmetry_Int_Tables_number   1
_chemical_formula_structural   Cr11Ge19
_chemical_formula_sum   'Cr44 Ge76'
_cell_volume   1763.51841076
_cell_formula_units_Z   4
loop_
 _symmetry_equiv_pos_site_id
 _symmetry_equiv_pos_as_xyz
  1  'x, y, z'
loop_
 _atom_site_type_symbol
 _atom_site_label
 _atom_site_symmetry_multiplicity
 _atom_site_fract_x
 _atom_site_fract_y
 _atom_site_fract_z
 _atom_site_occupancy
  Cr  Cr0  1  0.00000000  0.50000000  0.52377061  1
  Cr  Cr1  1  0.50000000  0.00000000  0.38766835  1
  Cr  Cr2  1  0.50000000  0.50000000  0.86491185  1
  Cr  Cr3  1  0.00000000  0.00000000  0.54685400  1
  Cr  Cr4  1  0.50000000  0.50000000  0.40945955  1
  Cr  Cr5  1  0.00000000  0.50000000  0.06890765  1
  Cr  Cr6  1  0.50000000  0.00000000  0.93109235  1
  Cr  Cr7  1  0.00000000  0.50000000  0.88766835  1
  Cr  Cr8  1  0.50000000  0.00000000  0.47622939  1
  Cr  Cr9  1  0.00000000  0.50000000  0.15870873  1
  Cr  Cr10  1  0.50000000  0.50000000  0.59054045  1
  Cr  Cr11  1  0.50000000  0.50000000  0.04685400  1
  Cr  Cr12  1  0.00000000  0.00000000  0.90945955  1
  Cr  Cr13  1  0.00000000  0.00000000  0.45314600  1
  Cr  Cr14  1  0.00000000  0.00000000  0.36491185  1
  Cr  Cr15  1  0.00000000  0.50000000  0.61233165  1
  Cr  Cr16  1  0.50000000  0.00000000  0.56890765  1
  Cr  Cr17  1  0.50000000  0.50000000  0.95314600  1
  Cr  Cr18  1  0.00000000  0.00000000  0.63508815  1
  Cr  Cr19  1  0.00000000  0.50000000  0.97622939  1
  Cr  Cr20  1  0.50000000  0.50000000  0.77173187  1
  Cr  Cr21  1  0.50000000  0.00000000  0.75000000  1
  Cr  Cr22  1  0.00000000  0.50000000  0.79404219  1
  Cr  Cr23  1  0.50000000  0.50000000  0.22826813  1
  Cr  Cr24  1  0.00000000  0.50000000  0.34129127  1
  Cr  Cr25  1  0.50000000  0.00000000  0.02377061  1
  Cr  Cr26  1  0.50000000  0.00000000  0.11233165  1
  Cr  Cr27  1  0.00000000  0.00000000  0.81748732  1
  Cr  Cr28  1  0.00000000  0.50000000  0.43109235  1
  Cr  Cr29  1  0.50000000  0.00000000  0.84129127  1
  Cr  Cr30  1  0.00000000  0.00000000  0.00000000  1
  Cr  Cr31  1  0.50000000  0.50000000  0.50000000  1
  Cr  Cr32  1  0.50000000  0.00000000  0.20595781  1
  Cr  Cr33  1  0.50000000  0.50000000  0.13508815  1
  Cr  Cr34  1  0.50000000  0.00000000  0.65870873  1
  Cr  Cr35  1  0.50000000  0.00000000  0.29404219  1
  Cr  Cr36  1  0.50000000  0.50000000  0.68251268  1
  Cr  Cr37  1  0.00000000  0.50000000  0.25000000  1
  Cr  Cr38  1  0.00000000  0.00000000  0.27173187  1
  Cr  Cr39  1  0.00000000  0.50000000  0.70595781  1
  Cr  Cr40  1  0.50000000  0.50000000  0.31748732  1
  Cr  Cr41  1  0.00000000  0.00000000  0.18251268  1
  Cr  Cr42  1  0.00000000  0.00000000  0.72826813  1
  Cr  Cr43  1  0.00000000  0.00000000  0.09054045  1
  Ge  Ge0  1  0.83809337  0.81006343  0.22395710  1
  Ge  Ge1  1  0.82900233  0.67099767  0.75000000  1
  Ge  Ge2  1  0.83603887  0.31738836  0.93399973  1
  Ge  Ge3  1  0.72479590  0.65840233  0.64439169  1
  Ge  Ge4  1  0.65770301  0.74454871  0.17116301  1
  Ge  Ge5  1  0.66190663  0.31006343  0.72395710  1
  Ge  Ge6  1  0.68261164  0.83603887  0.06600027  1
  Ge  Ge7  1  0.34176372  0.76510536  0.98664543  1
  Ge  Ge8  1  0.74454871  0.34229699  0.82883699  1
  Ge  Ge9  1  0.79362928  0.84040803  0.96015257  1
  Ge  Ge10  1  0.16060787  0.30211032  0.11808944  1
  Ge  Ge11  1  0.66060787  0.19788968  0.61808944  1
  Ge  Ge12  1  0.65932908  0.78464202  0.80229111  1
  Ge  Ge13  1  0.16190663  0.18993657  0.22395710  1
  Ge  Ge14  1  0.34040803  0.29362928  0.53984743  1
  Ge  Ge15  1  0.15823628  0.26510536  0.48664543  1
  Ge  Ge16  1  0.83321297  0.17626839  0.40801605  1
  Ge  Ge17  1  0.81006343  0.16190663  0.77604290  1
  Ge  Ge18  1  0.80211032  0.66060787  0.38191056  1
  Ge  Ge19  1  0.15959197  0.79362928  0.03984743  1
  Ge  Ge20  1  0.25545129  0.65770301  0.82883699  1
  Ge  Ge21  1  0.65959197  0.70637072  0.53984743  1
  Ge  Ge22  1  0.76510536  0.65823628  0.01335457  1
  Ge  Ge23  1  0.84159767  0.77520410  0.85560831  1
  Ge  Ge24  1  0.15770301  0.75545129  0.67116301  1
  Ge  Ge25  1  0.33321297  0.32373161  0.90801605  1
  Ge  Ge26  1  0.29362928  0.65959197  0.46015257  1
  Ge  Ge27  1  0.33603887  0.18261164  0.43399973  1
  Ge  Ge28  1  0.18993657  0.83809337  0.77604290  1
  Ge  Ge29  1  0.18261164  0.66396113  0.56600027  1
  Ge  Ge30  1  0.83939213  0.69788968  0.11808944  1
  Ge  Ge31  1  0.65840233  0.27520410  0.35560831  1
  Ge  Ge32  1  0.70637072  0.34040803  0.46015257  1
  Ge  Ge33  1  0.66678703  0.67626839  0.90801605  1
  Ge  Ge34  1  0.65823628  0.23489464  0.98664543  1
  Ge  Ge35  1  0.34067092  0.21535798  0.80229111  1
  Ge  Ge36  1  0.77520410  0.15840233  0.14439169  1
  Ge  Ge37  1  0.15840233  0.22479590  0.85560831  1
  Ge  Ge38  1  0.84229699  0.24454871  0.67116301  1
  Ge  Ge39  1  0.34229699  0.25545129  0.17116301  1
  Ge  Ge40  1  0.69788968  0.16060787  0.88191056  1
  Ge  Ge41  1  0.31738836  0.16396113  0.06600027  1
  Ge  Ge42  1  0.84067092  0.28464202  0.30229111  1
  Ge  Ge43  1  0.27520410  0.34159767  0.64439169  1
  Ge  Ge44  1  0.34159767  0.72479590  0.35560831  1
  Ge  Ge45  1  0.32373161  0.66678703  0.09198395  1
  Ge  Ge46  1  0.15932908  0.71535798  0.30229111  1
  Ge  Ge47  1  0.16678703  0.82373161  0.40801605  1
  Ge  Ge48  1  0.75545129  0.84229699  0.32883699  1
  Ge  Ge49  1  0.31006343  0.33809337  0.27604290  1
  Ge  Ge50  1  0.28464202  0.15932908  0.69770889  1
  Ge  Ge51  1  0.20637072  0.15959197  0.96015257  1
  Ge  Ge52  1  0.73489464  0.15823628  0.51335457  1
  Ge  Ge53  1  0.32900233  0.82900233  0.25000000  1
  Ge  Ge54  1  0.16396113  0.68261164  0.93399973  1
  Ge  Ge55  1  0.68993657  0.66190663  0.27604290  1
  Ge  Ge56  1  0.67626839  0.33321297  0.09198395  1
  Ge  Ge57  1  0.23489464  0.34176372  0.01335457  1
  Ge  Ge58  1  0.30211032  0.83939213  0.88191056  1
  Ge  Ge59  1  0.82373161  0.83321297  0.59198395  1
  Ge  Ge60  1  0.81738836  0.33603887  0.56600027  1
  Ge  Ge61  1  0.67099767  0.17099767  0.25000000  1
  Ge  Ge62  1  0.33809337  0.68993657  0.72395710  1
  Ge  Ge63  1  0.26510536  0.84176372  0.51335457  1
  Ge  Ge64  1  0.84176372  0.73489464  0.48664543  1
  Ge  Ge65  1  0.21535798  0.65932908  0.19770889  1
  Ge  Ge66  1  0.33939213  0.80211032  0.61808944  1
  Ge  Ge67  1  0.24454871  0.15770301  0.32883699  1
  Ge  Ge68  1  0.84040803  0.20637072  0.03984743  1
  Ge  Ge69  1  0.22479590  0.84159767  0.14439169  1
  Ge  Ge70  1  0.78464202  0.34067092  0.19770889  1
  Ge  Ge71  1  0.17626839  0.16678703  0.59198395  1
  Ge  Ge72  1  0.71535798  0.84067092  0.69770889  1
  Ge  Ge73  1  0.19788968  0.33939213  0.38191056  1
  Ge  Ge74  1  0.66396113  0.81738836  0.43399973  1
  Ge  Ge75  1  0.17099767  0.32900233  0.75000000  1
loop_
_geom_bond_atom_site_label_1
_geom_bond_atom_site_label_2
_geom_bond_distance
_geom_bond_site_symmetry_2
Cr0 Ge14 2.458662 1_555
Cr0 Ge21 2.458662 1_455
Cr0 Ge15 2.545848 1_555
Cr0 Ge64 2.545848 1_455
Cr0 Ge63 2.568525 1_555
Cr0 Ge52 2.568525 1_455
Cr0 Ge60 2.630475 1_455
Cr0 Ge29 2.630475 1_555
Cr1 Ge47 2.433233 1_545
Cr1 Ge16 2.433233 1_555
Cr1 Ge44 2.492862 1_545
Cr1 Ge31 2.492862 1_555
Cr1 Ge73 2.653880 1_555
Cr1 Ge18 2.653880 1_545
Cr1 Ge27 2.813486 1_555
Cr1 Ge74 2.813486 1_545
Cr2 Ge40 2.447436 1_555
Cr2 Ge58 2.447436 1_555
Cr2 Ge8 2.533902 1_555
Cr2 Ge20 2.533902 1_555
Cr2 Ge23 2.591730 1_555
Cr2 Ge37 2.591730 1_555
Cr2 Ge33 2.660620 1_555
Cr2 Ge25 2.660620 1_555
Cr3 Ge60 2.435328 1_455
Cr3 Ge29 2.435328 1_545
Cr3 Ge52 2.507523 1_455
Cr3 Ge63 2.507523 1_545
Cr3 Ge21 2.634373 1_445
Cr3 Ge14 2.634373 1_555
Cr3 Ge59 2.751206 1_445
Cr3 Ge71 2.751206 1_555
Cr4 Ge27 2.439077 1_555
Cr4 Ge74 2.439077 1_555
Cr4 Ge73 2.454301 1_555
Cr4 Ge18 2.454301 1_555
Cr4 Ge47 2.696956 1_555
Cr4 Ge16 2.696956 1_555
Cr5 Ge56 2.434406 1_455
Cr5 Ge45 2.434406 1_555
Cr5 Ge19 2.465187 1_555
Cr5 Ge68 2.465187 1_455
Cr5 Ge41 2.686593 1_555
Cr5 Ge6 2.686593 1_455
Cr6 Ge33 2.434406 1_545
Cr6 Ge25 2.434406 1_555
Cr6 Ge51 2.465187 1_555
Cr6 Ge9 2.465187 1_545
Cr6 Ge2 2.686593 1_555
Cr6 Ge54 2.686593 1_545
Cr7 Ge25 2.433233 1_555
Cr7 Ge33 2.433233 1_455
Cr7 Ge23 2.492862 1_455
Cr7 Ge37 2.492862 1_555
Cr7 Ge58 2.653880 1_555
Cr7 Ge40 2.653880 1_455
Cr7 Ge54 2.813486 1_555
Cr7 Ge2 2.813486 1_455
Cr8 Ge26 2.458662 1_545
Cr8 Ge32 2.458662 1_555
Cr8 Ge52 2.545848 1_555
Cr8 Ge63 2.545848 1_545
Cr8 Ge64 2.568525 1_545
Cr8 Ge15 2.568525 1_555
Cr8 Ge74 2.630475 1_545
Cr8 Ge27 2.630475 1_555
Cr9 Ge69 2.488605 1_555
Cr9 Ge36 2.488605 1_455
Cr9 Ge4 2.526790 1_455
Cr9 Ge39 2.526790 1_555
Cr9 Ge70 2.566769 1_455
Cr9 Ge65 2.566769 1_555
Cr9 Ge10 2.590864 1_555
Cr9 Ge30 2.590864 1_455
Cr10 Ge60 2.439077 1_555
Cr10 Ge29 2.439077 1_555
Cr10 Ge11 2.454301 1_555
Cr10 Ge66 2.454301 1_555
Cr10 Ge59 2.696956 1_555
Cr10 Ge71 2.696956 1_555
Cr11 Ge6 2.435328 1_555
Cr11 Ge41 2.435328 1_555
Cr11 Ge22 2.507523 1_555
Cr11 Ge57 2.507523 1_555
Cr11 Ge19 2.634373 1_555
Cr11 Ge68 2.634373 1_555
Cr11 Ge45 2.751206 1_555
Cr11 Ge56 2.751206 1_555
Cr12 Ge2 2.439077 1_455
Cr12 Ge54 2.439077 1_545
Cr12 Ge58 2.454301 1_545
Cr12 Ge40 2.454301 1_455
Cr12 Ge33 2.696956 1_445
Cr12 Ge25 2.696956 1_555
Cr13 Ge74 2.435328 1_445
Cr13 Ge27 2.435328 1_555
Cr13 Ge64 2.507523 1_445
Cr13 Ge15 2.507523 1_555
Cr13 Ge32 2.634373 1_455
Cr13 Ge26 2.634373 1_545
Cr13 Ge16 2.751206 1_455
Cr13 Ge47 2.751206 1_545
Cr14 Ge18 2.447436 1_445
Cr14 Ge73 2.447436 1_555
Cr14 Ge67 2.533902 1_555
Cr14 Ge48 2.533902 1_445
Cr14 Ge31 2.591730 1_455
Cr14 Ge44 2.591730 1_545
Cr14 Ge16 2.660620 1_455
Cr14 Ge47 2.660620 1_545
Cr15 Ge71 2.433233 1_555
Cr15 Ge59 2.433233 1_455
Cr15 Ge43 2.492862 1_555
Cr15 Ge3 2.492862 1_455
Cr15 Ge11 2.653880 1_455
Cr15 Ge66 2.653880 1_555
Cr15 Ge29 2.813486 1_555
Cr15 Ge60 2.813486 1_455
Cr16 Ge59 2.434406 1_545
Cr16 Ge71 2.434406 1_555
Cr16 Ge14 2.465187 1_555
Cr16 Ge21 2.465187 1_545
Cr16 Ge29 2.686593 1_545
Cr16 Ge60 2.686593 1_555
Cr17 Ge54 2.435328 1_555
Cr17 Ge2 2.435328 1_555
Cr17 Ge7 2.507523 1_555
Cr17 Ge34 2.507523 1_555
Cr17 Ge51 2.634373 1_555
Cr17 Ge9 2.634373 1_555
Cr17 Ge25 2.751206 1_555
Cr17 Ge33 2.751206 1_555
Cr18 Ge66 2.447436 1_545
Cr18 Ge11 2.447436 1_455
Cr18 Ge38 2.533902 1_455
Cr18 Ge24 2.533902 1_545
Cr18 Ge3 2.591730 1_445
Cr18 Ge43 2.591730 1_555
Cr18 Ge59 2.660620 1_445
Cr18 Ge71 2.660620 1_555
Cr19 Ge51 2.458662 1_555
Cr19 Ge9 2.458662 1_455
Cr19 Ge22 2.545848 1_456
Cr19 Ge57 2.545848 1_556
Cr19 Ge7 2.568525 1_555
Cr19 Ge34 2.568525 1_455
Cr19 Ge54 2.630475 1_555
Cr19 Ge2 2.630475 1_455
Cr20 Ge1 2.434101 1_555
Cr20 Ge75 2.434101 1_555
Cr20 Ge35 2.478798 1_555
Cr20 Ge12 2.478798 1_555
Cr20 Ge28 2.671599 1_555
Cr20 Ge17 2.671599 1_555
Cr20 Ge5 2.890951 1_555
Cr20 Ge62 2.890951 1_555
Cr21 Ge5 2.445459 1_555
Cr21 Ge28 2.445459 1_545
Cr21 Ge62 2.445459 1_545
Cr21 Ge17 2.445459 1_555
Cr21 Ge75 2.699965 1_555
Cr21 Ge1 2.699965 1_545
Cr22 Ge28 2.439774 1_555
Cr22 Ge17 2.439774 1_455
Cr22 Ge8 2.520994 1_455
Cr22 Ge20 2.520994 1_555
Cr22 Ge35 2.612073 1_555
Cr22 Ge12 2.612073 1_455
Cr22 Ge1 2.699881 1_455
Cr22 Ge75 2.699881 1_555
Cr23 Ge61 2.434101 1_555
Cr23 Ge53 2.434101 1_555
Cr23 Ge70 2.478798 1_555
Cr23 Ge65 2.478798 1_555
Cr23 Ge0 2.671599 1_555
Cr23 Ge13 2.671599 1_555
Cr23 Ge49 2.890951 1_555
Cr23 Ge55 2.890951 1_555
Cr24 Ge31 2.488605 1_455
Cr24 Ge44 2.488605 1_555
Cr24 Ge48 2.526790 1_455
Cr24 Ge67 2.526790 1_555
Cr24 Ge46 2.566769 1_555
Cr24 Ge42 2.566769 1_455
Cr24 Ge18 2.590864 1_455
Cr24 Ge73 2.590864 1_555
Cr25 Ge19 2.458662 1_545
Cr25 Ge68 2.458662 1_555
Cr25 Ge34 2.545848 1_554
Cr25 Ge7 2.545848 1_544
Cr25 Ge22 2.568525 1_545
Cr25 Ge57 2.568525 1_555
Cr25 Ge6 2.630475 1_545
Cr25 Ge41 2.630475 1_555
Cr26 Ge56 2.433233 1_555
Cr26 Ge45 2.433233 1_545
Cr26 Ge36 2.492862 1_555
Cr26 Ge69 2.492862 1_545
Cr26 Ge10 2.653880 1_555
Cr26 Ge30 2.653880 1_545
Cr26 Ge41 2.813486 1_555
Cr26 Ge6 2.813486 1_545
Cr27 Ge35 2.470455 1_555
Cr27 Ge12 2.470455 1_445
Cr27 Ge20 2.548747 1_545
Cr27 Ge8 2.548747 1_455
Cr27 Ge37 2.555838 1_555
Cr27 Ge23 2.555838 1_445
Cr27 Ge17 2.609317 1_455
Cr27 Ge28 2.609317 1_545
Cr28 Ge47 2.434406 1_555
Cr28 Ge16 2.434406 1_455
Cr28 Ge26 2.465187 1_555
Cr28 Ge32 2.465187 1_455
Cr28 Ge74 2.686593 1_455
Cr28 Ge27 2.686593 1_555
Cr29 Ge37 2.488605 1_555
Cr29 Ge23 2.488605 1_545
Cr29 Ge20 2.526790 1_545
Cr29 Ge8 2.526790 1_555
Cr29 Ge12 2.566769 1_545
Cr29 Ge35 2.566769 1_555
Cr29 Ge40 2.590864 1_555
Cr29 Ge58 2.590864 1_545
Cr30 Ge34 2.506043 1_454
Cr30 Ge7 2.506043 1_544
Cr30 Ge22 2.506043 1_445
Cr30 Ge57 2.506043 1_555
Cr30 Ge19 2.578124 1_545
Cr30 Ge68 2.578124 1_455
Cr30 Ge51 2.578124 1_554
Cr30 Ge9 2.578124 1_444
Cr31 Ge63 2.506043 1_555
Cr31 Ge52 2.506043 1_555
Cr31 Ge15 2.506043 1_555
Cr31 Ge64 2.506043 1_555
Cr31 Ge32 2.578124 1_555
Cr31 Ge14 2.578124 1_555
Cr31 Ge26 2.578124 1_555
Cr31 Ge21 2.578124 1_555
Cr32 Ge0 2.439774 1_545
Cr32 Ge13 2.439774 1_555
Cr32 Ge4 2.520994 1_545
Cr32 Ge39 2.520994 1_555
Cr32 Ge65 2.612073 1_545
Cr32 Ge70 2.612073 1_555
Cr32 Ge53 2.699881 1_545
Cr32 Ge61 2.699881 1_555
Cr33 Ge30 2.447436 1_555
Cr33 Ge10 2.447436 1_555
Cr33 Ge4 2.533902 1_555
Cr33 Ge39 2.533902 1_555
Cr33 Ge36 2.591730 1_555
Cr33 Ge69 2.591730 1_555
Cr33 Ge45 2.660620 1_555
Cr33 Ge56 2.660620 1_555
Cr34 Ge43 2.488605 1_555
Cr34 Ge3 2.488605 1_545
Cr34 Ge24 2.526790 1_545
Cr34 Ge38 2.526790 1_555
Cr34 Ge72 2.566769 1_545
Cr34 Ge50 2.566769 1_555
Cr34 Ge66 2.590864 1_545
Cr34 Ge11 2.590864 1_555
Cr35 Ge55 2.439774 1_545
Cr35 Ge49 2.439774 1_555
Cr35 Ge67 2.520994 1_555
Cr35 Ge48 2.520994 1_545
Cr35 Ge42 2.612073 1_555
Cr35 Ge46 2.612073 1_545
Cr35 Ge53 2.699881 1_545
Cr35 Ge61 2.699881 1_555
Cr36 Ge72 2.470455 1_555
Cr36 Ge50 2.470455 1_555
Cr36 Ge38 2.548747 1_555
Cr36 Ge24 2.548747 1_555
Cr36 Ge43 2.555838 1_555
Cr36 Ge3 2.555838 1_555
Cr36 Ge62 2.609317 1_555
Cr36 Ge5 2.609317 1_555
Cr37 Ge55 2.445459 1_455
Cr37 Ge49 2.445459 1_555
Cr37 Ge0 2.445459 1_455
Cr37 Ge13 2.445459 1_555
Cr37 Ge61 2.699965 1_455
Cr37 Ge53 2.699965 1_555
Cr38 Ge61 2.434101 1_455
Cr38 Ge53 2.434101 1_545
Cr38 Ge42 2.478798 1_455
Cr38 Ge46 2.478798 1_545
Cr38 Ge49 2.671599 1_555
Cr38 Ge55 2.671599 1_445
Cr38 Ge13 2.890951 1_555
Cr38 Ge0 2.890951 1_445
Cr39 Ge5 2.439774 1_455
Cr39 Ge62 2.439774 1_555
Cr39 Ge24 2.520994 1_555
Cr39 Ge38 2.520994 1_455
Cr39 Ge50 2.612073 1_555
Cr39 Ge72 2.612073 1_455
Cr39 Ge1 2.699881 1_455
Cr39 Ge75 2.699881 1_555
Cr40 Ge42 2.470455 1_555
Cr40 Ge46 2.470455 1_555
Cr40 Ge48 2.548747 1_555
Cr40 Ge67 2.548747 1_555
Cr40 Ge44 2.555838 1_555
Cr40 Ge31 2.555838 1_555
Cr40 Ge49 2.609317 1_555
Cr40 Ge55 2.609317 1_555
Cr41 Ge65 2.470455 1_545
Cr41 Ge70 2.470455 1_455
Cr41 Ge39 2.548747 1_555
Cr41 Ge4 2.548747 1_445
Cr41 Ge69 2.555838 1_545
Cr41 Ge36 2.555838 1_455
Cr41 Ge13 2.609317 1_555
Cr41 Ge0 2.609317 1_445
Cr42 Ge1 2.434101 1_445
Cr42 Ge75 2.434101 1_555
Cr42 Ge50 2.478798 1_555
Cr42 Ge72 2.478798 1_445
Cr42 Ge5 2.671599 1_455
Cr42 Ge62 2.671599 1_545
Cr42 Ge28 2.890951 1_545
Cr42 Ge17 2.890951 1_455
Cr43 Ge41 2.439077 1_555
Cr43 Ge6 2.439077 1_445
Cr43 Ge10 2.454301 1_555
Cr43 Ge30 2.454301 1_445
Cr43 Ge56 2.696956 1_455
Cr43 Ge45 2.696956 1_545
