# generated using pymatgen
data_Na6Si8O19
_symmetry_space_group_name_H-M   'P 1'
_cell_length_a   23.76076100
_cell_length_b   4.96282500
_cell_length_c   15.58733954
_cell_angle_alpha   89.88473451
_cell_angle_beta   90.00000000
_cell_angle_gamma   90.00000000
_symmetry_Int_Tables_number   1
_chemical_formula_structural   Na6Si8O19
_chemical_formula_sum   'Na24 Si32 O76'
_cell_volume   1838.06313290
_cell_formula_units_Z   4
loop_
 _symmetry_equiv_pos_site_id
 _symmetry_equiv_pos_as_xyz
  1  'x, y, z'
loop_
 _atom_site_type_symbol
 _atom_site_label
 _atom_site_symmetry_multiplicity
 _atom_site_fract_x
 _atom_site_fract_y
 _atom_site_fract_z
 _atom_site_occupancy
  Na  Na0  1  0.77093800  0.26041100  0.50761200  1
  Na  Na1  1  0.51663200  0.76603000  0.57241800  1
  Na  Na2  1  0.95005700  0.26074200  0.47209200  1
  Na  Na3  1  0.59957700  0.23719900  0.60529500  1
  Na  Na4  1  0.36113300  0.26443100  0.04317100  1
  Na  Na5  1  0.01663200  0.23397000  0.92758200  1
  Na  Na6  1  0.45005700  0.73925800  0.02790800  1
  Na  Na7  1  0.27093800  0.73958900  0.99238800  1
  Na  Na8  1  0.18005800  0.26506100  0.96797100  1
  Na  Na9  1  0.54994300  0.26074200  0.97209200  1
  Na  Na10  1  0.09957700  0.76280100  0.89470500  1
  Na  Na11  1  0.72906200  0.26041100  0.00761200  1
  Na  Na12  1  0.40042300  0.76280100  0.39470500  1
  Na  Na13  1  0.13886700  0.26443100  0.54317100  1
  Na  Na14  1  0.04994300  0.73925800  0.52790800  1
  Na  Na15  1  0.90042300  0.23719900  0.10529500  1
  Na  Na16  1  0.48336800  0.23397000  0.42758200  1
  Na  Na17  1  0.81994200  0.73493900  0.03202900  1
  Na  Na18  1  0.22906200  0.73958900  0.49238800  1
  Na  Na19  1  0.31994200  0.26506100  0.46797100  1
  Na  Na20  1  0.68005800  0.73493900  0.53202900  1
  Na  Na21  1  0.98336800  0.76603000  0.07241800  1
  Na  Na22  1  0.63886700  0.73556900  0.95682900  1
  Na  Na23  1  0.86113300  0.73556900  0.45682900  1
  Si  Si0  1  0.71600000  0.29517700  0.25215200  1
  Si  Si1  1  0.19410400  0.20261100  0.36192300  1
  Si  Si2  1  0.60505100  0.69866100  0.73381300  1
  Si  Si3  1  0.28400000  0.70482300  0.74784800  1
  Si  Si4  1  0.36456100  0.80309900  0.58850900  1
  Si  Si5  1  0.50685800  0.78988200  0.85662800  1
  Si  Si6  1  0.99314200  0.78988200  0.35662800  1
  Si  Si7  1  0.43401000  0.29958600  0.82582600  1
  Si  Si8  1  0.93401000  0.70041400  0.67417400  1
  Si  Si9  1  0.93835500  0.69742900  0.87989200  1
  Si  Si10  1  0.06599000  0.29958600  0.32582600  1
  Si  Si11  1  0.34144900  0.80175800  0.17713100  1
  Si  Si12  1  0.63543900  0.19690100  0.41149100  1
  Si  Si13  1  0.00685800  0.21011800  0.64337200  1
  Si  Si14  1  0.49314200  0.21011800  0.14337200  1
  Si  Si15  1  0.30589600  0.20261100  0.86192300  1
  Si  Si16  1  0.06164500  0.30257100  0.12010800  1
  Si  Si17  1  0.69410400  0.79738900  0.13807700  1
  Si  Si18  1  0.10505100  0.30133900  0.76618700  1
  Si  Si19  1  0.43835500  0.30257100  0.62010800  1
  Si  Si20  1  0.56164500  0.69742900  0.37989200  1
  Si  Si21  1  0.39494900  0.30133900  0.26618700  1
  Si  Si22  1  0.65855100  0.19824200  0.82286900  1
  Si  Si23  1  0.13543900  0.80309900  0.08850900  1
  Si  Si24  1  0.15855100  0.80175800  0.67713100  1
  Si  Si25  1  0.86456100  0.19690100  0.91149100  1
  Si  Si26  1  0.84144900  0.19824200  0.32286900  1
  Si  Si27  1  0.56599000  0.70041400  0.17417400  1
  Si  Si28  1  0.80589600  0.79738900  0.63807700  1
  Si  Si29  1  0.78400000  0.29517700  0.75215200  1
  Si  Si30  1  0.89494900  0.69866100  0.23381300  1
  Si  Si31  1  0.21600000  0.70482300  0.24784800  1
  O  O0  1  0.82631100  0.26468100  0.99297300  1
  O  O1  1  0.92891800  0.72915600  0.77666400  1
  O  O2  1  0.48546900  0.10853300  0.85986500  1
  O  O3  1  0.04217100  0.26654400  0.55844800  1
  O  O4  1  0.14572900  0.12088800  0.70219400  1
  O  O5  1  0.67368900  0.26468100  0.49297300  1
  O  O6  1  0.03888600  0.26102400  0.73536800  1
  O  O7  1  0.77800600  0.72976600  0.54740300  1
  O  O8  1  0.57108200  0.72915600  0.27666400  1
  O  O9  1  0.98546900  0.89146700  0.64013500  1
  O  O10  1  0.66479800  0.22243600  0.31670000  1
  O  O11  1  0.39105500  0.24158400  0.36680800  1
  O  O12  1  0.72199400  0.72976600  0.04740300  1
  O  O13  1  0.12208900  0.62130000  0.74749300  1
  O  O14  1  0.57741400  0.38254600  0.40712500  1
  O  O15  1  0.42891800  0.27084400  0.72333600  1
  O  O16  1  0.22199400  0.27023400  0.45259700  1
  O  O17  1  0.14519200  0.74831200  0.57802700  1
  O  O18  1  0.37791100  0.62130000  0.24749300  1
  O  O19  1  0.32631100  0.73531900  0.50702700  1
  O  O20  1  0.28780400  0.39254100  0.77988200  1
  O  O21  1  0.16479800  0.77756400  0.18330000  1
  O  O22  1  0.44783300  0.60918800  0.85524900  1
  O  O23  1  0.42258600  0.61745400  0.59287500  1
  O  O24  1  0.35480800  0.74831200  0.07802700  1
  O  O25  1  0.07108200  0.27084400  0.22333600  1
  O  O26  1  0.46111400  0.26102400  0.23536800  1
  O  O27  1  0.72570200  0.24987900  0.80370100  1
  O  O28  1  0.37541300  0.21244500  0.87312500  1
  O  O29  1  0.28835800  0.89036000  0.83471600  1
  O  O30  1  0.17368900  0.73531900  0.00702700  1
  O  O31  1  0.33520200  0.77756400  0.68330000  1
  O  O32  1  0.88785700  0.88362200  0.92377600  1
  O  O33  1  0.71219600  0.60745900  0.22011800  1
  O  O34  1  0.53888600  0.73897600  0.76463200  1
  O  O35  1  0.00032500  0.23800700  0.08373800  1
  O  O36  1  0.60894500  0.75841600  0.63319200  1
  O  O37  1  0.62208900  0.37870000  0.75250700  1
  O  O38  1  0.22570200  0.75012100  0.69629900  1
  O  O39  1  0.64572900  0.87911200  0.79780600  1
  O  O40  1  0.87791100  0.37870000  0.25250700  1
  O  O41  1  0.61214300  0.88362200  0.42377600  1
  O  O42  1  0.99967500  0.76199300  0.91626200  1
  O  O43  1  0.49967500  0.23800700  0.58373800  1
  O  O44  1  0.27429800  0.75012100  0.19629900  1
  O  O45  1  0.85427100  0.87911200  0.29780600  1
  O  O46  1  0.05216700  0.60918800  0.35524900  1
  O  O47  1  0.27800600  0.27023400  0.95259700  1
  O  O48  1  0.11214300  0.11637800  0.07622400  1
  O  O49  1  0.21164200  0.89036000  0.33471600  1
  O  O50  1  0.83520200  0.22243600  0.81670000  1
  O  O51  1  0.54217100  0.73345600  0.94155200  1
  O  O52  1  0.92258600  0.38254600  0.90712500  1
  O  O53  1  0.35427100  0.12088800  0.20219400  1
  O  O54  1  0.89105500  0.75841600  0.13319200  1
  O  O55  1  0.01453100  0.10853300  0.35986500  1
  O  O56  1  0.85480800  0.25168800  0.42197300  1
  O  O57  1  0.78835800  0.10964000  0.66528400  1
  O  O58  1  0.12458700  0.21244500  0.37312500  1
  O  O59  1  0.21219600  0.39254100  0.27988200  1
  O  O60  1  0.87541300  0.78755500  0.62687500  1
  O  O61  1  0.62458700  0.78755500  0.12687500  1
  O  O62  1  0.45782900  0.26654400  0.05844800  1
  O  O63  1  0.95782900  0.73345600  0.44155200  1
  O  O64  1  0.64519200  0.25168800  0.92197300  1
  O  O65  1  0.50032500  0.76199300  0.41626200  1
  O  O66  1  0.77429800  0.24987900  0.30370100  1
  O  O67  1  0.55216700  0.39081200  0.14475100  1
  O  O68  1  0.10894500  0.24158400  0.86680800  1
  O  O69  1  0.38785700  0.11637800  0.57622400  1
  O  O70  1  0.51453100  0.89146700  0.14013500  1
  O  O71  1  0.71164200  0.10964000  0.16528400  1
  O  O72  1  0.78780400  0.60745900  0.72011800  1
  O  O73  1  0.94783300  0.39081200  0.64475100  1
  O  O74  1  0.07741400  0.61745400  0.09287500  1
  O  O75  1  0.96111400  0.73897600  0.26463200  1
loop_
_geom_bond_atom_site_label_1
_geom_bond_atom_site_label_2
_geom_bond_distance
_geom_bond_site_symmetry_2
Na0 O5 2.322042 1_555
Na0 O56 2.399028 1_555
Na0 O7 2.417534 1_555
Na0 O57 2.600774 1_555
Na0 O7 2.709546 1_545
Na1 O23 2.374423 1_555
Na1 O43 2.383629 1_565
Na1 O36 2.389517 1_555
Na1 O65 2.464824 1_555
Na1 O43 2.656794 1_555
Na2 O56 2.394680 1_555
Na2 O63 2.399984 1_555
Na2 O55 2.446001 1_655
Na2 O3 2.569682 1_655
Na2 O63 2.667117 1_545
Na2 O73 2.769393 1_555
Na3 O43 2.397414 1_555
Na3 O36 2.424954 1_545
Na3 O37 2.459907 1_555
Na3 O5 2.486748 1_555
Na3 O36 2.633291 1_555
Na4 O62 2.309904 1_555
Na4 O47 2.427988 1_554
Na4 O24 2.467757 1_555
Na4 O53 2.582855 1_555
Na4 O24 2.621638 1_545
Na4 O28 2.685132 1_554
Na5 O52 2.374423 1_455
Na5 O42 2.383629 1_445
Na5 O68 2.389517 1_555
Na5 O35 2.464824 1_556
Na5 O42 2.656794 1_455
Na6 O24 2.394680 1_555
Na6 O62 2.399984 1_555
Na6 O70 2.446001 1_555
Na6 O51 2.569682 1_554
Na6 O62 2.667117 1_565
Na6 O22 2.769393 1_554
Na7 O30 2.322042 1_556
Na7 O24 2.399028 1_556
Na7 O47 2.417534 1_555
Na7 O29 2.600774 1_555
Na7 O47 2.709546 1_565
Na8 O68 2.314280 1_555
Na8 O47 2.339760 1_555
Na8 O30 2.417828 1_556
Na8 O48 2.447606 1_556
Na8 O30 2.701630 1_546
Na9 O64 2.394680 1_555
Na9 O51 2.399984 1_555
Na9 O2 2.446001 1_555
Na9 O62 2.569682 1_556
Na9 O51 2.667117 1_545
Na9 O67 2.769393 1_556
Na10 O42 2.397414 1_455
Na10 O68 2.424954 1_565
Na10 O13 2.459907 1_555
Na10 O30 2.486748 1_556
Na10 O68 2.633291 1_555
Na11 O0 2.322042 1_554
Na11 O64 2.399028 1_554
Na11 O12 2.417534 1_555
Na11 O71 2.600774 1_555
Na11 O12 2.709546 1_545
Na12 O65 2.397414 1_555
Na12 O11 2.424954 1_565
Na12 O18 2.459907 1_555
Na12 O19 2.486748 1_555
Na12 O11 2.633291 1_555
Na13 O3 2.309904 1_555
Na13 O16 2.427988 1_555
Na13 O17 2.467757 1_555
Na13 O4 2.582855 1_555
Na13 O17 2.621638 1_545
Na13 O58 2.685132 1_555
Na14 O17 2.394680 1_555
Na14 O3 2.399984 1_555
Na14 O9 2.446001 1_455
Na14 O63 2.569682 1_455
Na14 O3 2.667117 1_565
Na14 O46 2.769393 1_555
Na15 O35 2.397414 1_655
Na15 O54 2.424954 1_545
Na15 O40 2.459907 1_555
Na15 O0 2.486748 1_554
Na15 O54 2.633291 1_555
Na16 O14 2.374423 1_555
Na16 O65 2.383629 1_545
Na16 O11 2.389517 1_555
Na16 O43 2.464824 1_555
Na16 O65 2.656794 1_555
Na17 O54 2.314280 1_555
Na17 O12 2.339760 1_555
Na17 O0 2.417828 1_554
Na17 O32 2.447606 1_554
Na17 O0 2.701630 1_564
Na18 O19 2.322042 1_555
Na18 O17 2.399028 1_555
Na18 O16 2.417534 1_555
Na18 O49 2.600774 1_555
Na18 O16 2.709546 1_565
Na19 O11 2.314280 1_555
Na19 O16 2.339760 1_555
Na19 O19 2.417828 1_555
Na19 O69 2.447606 1_555
Na19 O19 2.701630 1_545
Na20 O36 2.314280 1_555
Na20 O7 2.339760 1_555
Na20 O5 2.417828 1_555
Na20 O41 2.447606 1_555
Na20 O5 2.701630 1_565
Na21 O74 2.374423 1_655
Na21 O35 2.383629 1_665
Na21 O54 2.389517 1_555
Na21 O42 2.464824 1_554
Na21 O35 2.656794 1_655
Na22 O51 2.309904 1_555
Na22 O12 2.427988 1_556
Na22 O64 2.467757 1_555
Na22 O39 2.582855 1_555
Na22 O64 2.621638 1_565
Na22 O61 2.685132 1_556
Na23 O63 2.309904 1_555
Na23 O7 2.427988 1_555
Na23 O56 2.467757 1_555
Na23 O45 2.582855 1_555
Na23 O56 2.621638 1_565
Na23 O60 2.685132 1_555
O0 Si25 1.598124 1_555
O1 Si8 1.608744 1_555
O1 Si9 1.631899 1_555
O2 Si7 1.635087 1_555
O2 Si5 1.661929 1_545
O3 Si13 1.591616 1_555
O4 Si18 1.653713 1_555
O4 Si24 1.660213 1_545
O5 Si12 1.598124 1_555
O6 Si13 1.643380 1_555
O6 Si18 1.656135 1_555
O7 Si28 1.597278 1_555
O8 Si27 1.608744 1_555
O8 Si20 1.631899 1_555
O9 Si8 1.635087 1_555
O9 Si13 1.661929 1_665
O10 Si0 1.619035 1_555
O10 Si12 1.638616 1_555
O11 Si21 1.598298 1_555
O12 Si17 1.597278 1_555
O13 Si24 1.658788 1_555
O13 Si18 1.663850 1_555
O14 Si12 1.659542 1_555
O14 Si20 1.661316 1_555
O15 Si7 1.608744 1_555
O15 Si19 1.631899 1_555
O16 Si1 1.597278 1_555
O17 Si24 1.599708 1_555
O18 Si11 1.658788 1_555
O18 Si21 1.663850 1_555
O19 Si4 1.598124 1_555
O20 Si3 1.629805 1_555
O20 Si15 1.644309 1_555
O21 Si31 1.619035 1_555
O21 Si23 1.638616 1_555
O22 Si7 1.637646 1_555
O22 Si5 1.664828 1_555
O23 Si4 1.659542 1_555
O23 Si19 1.661316 1_555
O24 Si11 1.599708 1_555
O25 Si10 1.608744 1_555
O25 Si16 1.631899 1_555
O26 Si14 1.643380 1_555
O26 Si21 1.656135 1_555
O27 Si29 1.616859 1_555
O27 Si22 1.643302 1_555
O28 Si7 1.633349 1_555
O28 Si15 1.661707 1_555
O29 Si3 1.642259 1_555
O29 Si15 1.660587 1_565
O30 Si23 1.598124 1_555
O31 Si3 1.619035 1_555
O31 Si4 1.638616 1_555
O32 Si25 1.661057 1_565
O32 Si9 1.662526 1_555
O33 Si0 1.629805 1_555
O33 Si17 1.644309 1_555
O34 Si5 1.643380 1_555
O34 Si2 1.656135 1_555
O35 Si16 1.596141 1_555
O36 Si2 1.598298 1_555
O37 Si22 1.658788 1_555
O37 Si2 1.663850 1_555
O38 Si3 1.616859 1_555
O38 Si24 1.643302 1_555
O39 Si2 1.653713 1_555
O39 Si22 1.660213 1_565
O40 Si26 1.658788 1_555
O40 Si30 1.663850 1_555
O41 Si12 1.661057 1_565
O41 Si20 1.662526 1_555
O42 Si9 1.596141 1_555
O43 Si19 1.596141 1_555
O44 Si31 1.616859 1_555
O44 Si11 1.643302 1_555
O45 Si30 1.653713 1_555
O45 Si26 1.660213 1_565
O46 Si10 1.637646 1_555
O46 Si6 1.664828 1_455
O47 Si15 1.597278 1_555
O48 Si23 1.661057 1_545
O48 Si16 1.662526 1_555
O49 Si31 1.642259 1_555
O49 Si1 1.660587 1_565
O50 Si29 1.619035 1_555
O50 Si25 1.638616 1_555
O51 Si5 1.591616 1_555
O52 Si25 1.659542 1_555
O52 Si9 1.661316 1_555
O53 Si21 1.653713 1_555
O53 Si11 1.660213 1_545
O54 Si30 1.598298 1_555
O55 Si10 1.635087 1_555
O55 Si6 1.661929 1_445
O56 Si26 1.599708 1_555
O57 Si29 1.642259 1_555
O57 Si28 1.660587 1_545
O58 Si10 1.633349 1_555
O58 Si1 1.661707 1_555
O59 Si31 1.629805 1_555
O59 Si1 1.644309 1_555
O60 Si8 1.633349 1_555
O60 Si28 1.661707 1_555
O61 Si27 1.633349 1_555
O61 Si17 1.661707 1_555
O62 Si14 1.591616 1_555
O63 Si6 1.591616 1_555
O64 Si22 1.599708 1_555
O65 Si20 1.596141 1_555
O66 Si0 1.616859 1_555
O66 Si26 1.643302 1_555
O67 Si27 1.637646 1_555
O67 Si14 1.664828 1_555
O68 Si18 1.598298 1_555
O69 Si4 1.661057 1_545
O69 Si19 1.662526 1_555
O70 Si27 1.635087 1_555
O70 Si14 1.661929 1_565
O71 Si0 1.642259 1_555
O71 Si17 1.660587 1_545
O72 Si29 1.629805 1_555
O72 Si28 1.644309 1_555
O73 Si8 1.637646 1_555
O73 Si13 1.664828 1_655
O74 Si23 1.659542 1_555
O74 Si16 1.661316 1_555
O75 Si6 1.643380 1_555
O75 Si30 1.656135 1_555
