# generated using pymatgen
data_Cs2MnO4
_symmetry_space_group_name_H-M   'P 1'
_cell_length_a   6.29820319
_cell_length_b   8.42348227
_cell_length_c   11.13372632
_cell_angle_alpha   90.00109878
_cell_angle_beta   89.99756990
_cell_angle_gamma   90.00612819
_symmetry_Int_Tables_number   1
_chemical_formula_structural   Cs2MnO4
_chemical_formula_sum   'Cs8 Mn4 O16'
_cell_volume   590.67538439
_cell_formula_units_Z   4
loop_
 _symmetry_equiv_pos_site_id
 _symmetry_equiv_pos_as_xyz
  1  'x, y, z'
loop_
 _atom_site_type_symbol
 _atom_site_label
 _atom_site_symmetry_multiplicity
 _atom_site_fract_x
 _atom_site_fract_y
 _atom_site_fract_z
 _atom_site_occupancy
  Cs  Cs0  1  0.75000076  0.66729793  0.59000097  1
  Cs  Cs1  1  0.25000205  0.33271882  0.40997552  1
  Cs  Cs2  1  0.75000062  0.16727853  0.91001810  1
  Cs  Cs3  1  0.25000109  0.83273166  0.09003756  1
  Cs  Cs4  1  0.74991412  0.98591706  0.30623870  1
  Cs  Cs5  1  0.24997542  0.01404573  0.69376178  1
  Cs  Cs6  1  0.74991323  0.48592108  0.19379662  1
  Cs  Cs7  1  0.24995499  0.51407496  0.80622326  1
  Mn  Mn0  1  0.75000825  0.23612021  0.58074057  1
  Mn  Mn1  1  0.25000178  0.76388475  0.41918470  1
  Mn  Mn2  1  0.75002192  0.73611967  0.91929852  1
  Mn  Mn3  1  0.25003142  0.26388034  0.08074407  1
  O  O0  1  0.75002138  0.04119299  0.58509464  1
  O  O1  1  0.24999823  0.95880336  0.41482377  1
  O  O2  1  0.75005360  0.54117275  0.91496926  1
  O  O3  1  0.25004243  0.45878813  0.08510768  1
  O  O4  1  0.74997298  0.29299915  0.43875972  1
  O  O5  1  0.24996910  0.70704283  0.56116460  1
  O  O6  1  0.74994506  0.79301826  0.06130069  1
  O  O7  1  0.24996227  0.20700296  0.93874755  1
  O  O8  1  0.96232053  0.30755203  0.64818650  1
  O  O9  1  0.46230245  0.69244734  0.35175076  1
  O  O10  1  0.53772220  0.80757396  0.85191057  1
  O  O11  1  0.03773818  0.19241631  0.14814123  1
  O  O12  1  0.03772590  0.69241570  0.35179611  1
  O  O13  1  0.53771152  0.30757306  0.64816163  1
  O  O14  1  0.46232776  0.19243349  0.14819376  1
  O  O15  1  0.96235976  0.80757797  0.85187314  1
loop_
_geom_bond_atom_site_label_1
_geom_bond_atom_site_label_2
_geom_bond_distance
_geom_bond_site_symmetry_2
Cs0 O0 3.149973 1_565
Cs0 O5 3.182835 1_655
Cs0 O5 3.183327 1_555
Cs0 O12 3.218985 1_655
Cs0 O9 3.219476 1_555
Cs0 O13 3.374589 1_555
Cs0 O8 3.375156 1_555
Cs0 O15 3.418450 1_555
Cs0 O10 3.418598 1_555
Cs0 O4 3.574355 1_555
Cs1 O1 3.150134 1_545
Cs1 O4 3.182868 1_555
Cs1 O4 3.183133 1_455
Cs1 O8 3.218914 1_455
Cs1 O13 3.218925 1_555
Cs1 O12 3.374663 1_555
Cs1 O9 3.374782 1_555
Cs1 O14 3.417527 1_555
Cs1 O11 3.417921 1_555
Cs1 O5 3.574269 1_555
Cs2 O2 3.149973 1_555
Cs2 O7 3.182681 1_655
Cs2 O7 3.183203 1_555
Cs2 O11 3.218411 1_656
Cs2 O14 3.218571 1_556
Cs2 O10 3.374295 1_545
Cs2 O15 3.374781 1_545
Cs2 O8 3.417891 1_555
Cs2 O13 3.418309 1_555
Cs2 O6 3.574343 1_546
Cs3 O3 3.150384 1_555
Cs3 O6 3.182613 1_555
Cs3 O6 3.183268 1_455
Cs3 O10 3.218298 1_554
Cs3 O15 3.218457 1_454
Cs3 O11 3.374332 1_565
Cs3 O14 3.374498 1_565
Cs3 O9 3.416949 1_555
Cs3 O12 3.417211 1_555
Cs3 O7 3.574464 1_564
Cs4 O4 2.977891 1_565
Cs4 O14 3.066634 1_565
Cs4 O11 3.067464 1_665
Cs4 O9 3.106130 1_555
Cs4 O12 3.107494 1_655
Cs4 O0 3.139417 1_565
Cs4 O6 3.174427 1_555
Cs4 O1 3.380352 1_555
Cs4 O1 3.381479 1_655
Cs5 O5 2.977732 1_545
Cs5 O15 3.066627 1_445
Cs5 O10 3.067682 1_545
Cs5 O8 3.106983 1_455
Cs5 O13 3.107134 1_555
Cs5 O1 3.140279 1_545
Cs5 O7 3.175136 1_555
Cs5 O0 3.381062 1_455
Cs5 O0 3.381461 1_555
Cs6 O6 2.977912 1_555
Cs6 O9 3.066066 1_555
Cs6 O12 3.066824 1_655
Cs6 O14 3.106329 1_555
Cs6 O11 3.107702 1_655
Cs6 O2 3.139090 1_554
Cs6 O4 3.174821 1_555
Cs6 O3 3.380604 1_555
Cs6 O3 3.382070 1_655
Cs7 O7 2.977884 1_555
Cs7 O8 3.066534 1_455
Cs7 O13 3.067178 1_555
Cs7 O15 3.106837 1_455
Cs7 O10 3.107226 1_555
Cs7 O3 3.139762 1_556
Cs7 O5 3.175933 1_555
Cs7 O2 3.380941 1_455
Cs7 O2 3.382148 1_555
Mn0 O0 1.642682 1_555
Mn0 O13 1.647303 1_555
Mn0 O8 1.647391 1_555
Mn0 O4 1.651798 1_555
Mn1 O1 1.642612 1_555
Mn1 O12 1.647029 1_555
Mn1 O9 1.647341 1_555
Mn1 O5 1.651697 1_555
Mn2 O2 1.642838 1_555
Mn2 O10 1.647217 1_555
Mn2 O15 1.647458 1_555
Mn2 O6 1.652056 1_556
Mn3 O3 1.642520 1_555
Mn3 O11 1.647104 1_555
Mn3 O14 1.647490 1_555
Mn3 O7 1.651944 1_554
