# generated using pymatgen
data_DyZnPO
_symmetry_space_group_name_H-M   'P 1'
_cell_length_a   3.89993958
_cell_length_b   3.89993958
_cell_length_c   10.37485443
_cell_angle_alpha   79.16673949
_cell_angle_beta   79.16673949
_cell_angle_gamma   60.00000706
_symmetry_Int_Tables_number   1
_chemical_formula_structural   DyZnPO
_chemical_formula_sum   'Dy2 Zn2 P2 O2'
_cell_volume   133.39878132
_cell_formula_units_Z   2
loop_
 _symmetry_equiv_pos_site_id
 _symmetry_equiv_pos_as_xyz
  1  'x, y, z'
loop_
 _atom_site_type_symbol
 _atom_site_label
 _atom_site_symmetry_multiplicity
 _atom_site_fract_x
 _atom_site_fract_y
 _atom_site_fract_z
 _atom_site_occupancy
  Dy  Dy0  1  0.37969400  0.37969400  0.86091800  1
  Dy  Dy1  1  0.62030600  0.62030600  0.13908200  1
  Zn  Zn0  1  0.19629400  0.19629400  0.41111800  1
  Zn  Zn1  1  0.80370600  0.80370600  0.58888200  1
  P  P0  1  0.11170200  0.11170200  0.66489400  1
  P  P1  1  0.88829800  0.88829800  0.33510600  1
  O  O0  1  0.30540500  0.30540500  0.08378500  1
  O  O1  1  0.69459500  0.69459500  0.91621500  1
loop_
_geom_bond_atom_site_label_1
_geom_bond_atom_site_label_2
_geom_bond_distance
_geom_bond_site_symmetry_2
Dy0 O0 2.257102 1_556
Dy0 O1 2.320231 1_555
Dy0 O1 2.320231 1_455
Dy0 O1 2.320231 1_545
Dy0 P0 3.001841 1_555
Dy0 P0 3.001841 1_565
Dy0 P0 3.001841 1_655
Dy1 O1 2.257102 1_554
Dy1 O0 2.320231 1_555
Dy1 O0 2.320231 1_655
Dy1 O0 2.320231 1_565
Dy1 P1 3.001841 1_555
Dy1 P1 3.001841 1_545
Dy1 P1 3.001841 1_455
P0 Zn1 2.379593 1_445
P0 Zn1 2.379593 1_455
P0 Zn1 2.379593 1_545
P0 Zn0 2.570135 1_555
P1 Zn0 2.379593 1_665
P1 Zn0 2.379593 1_565
P1 Zn0 2.379593 1_655
P1 Zn1 2.570135 1_555
