# generated using pymatgen
data_KCuPO4
_symmetry_space_group_name_H-M   'P 1'
_cell_length_a   9.69380800
_cell_length_b   5.08520100
_cell_length_c   8.23467486
_cell_angle_alpha   86.75002559
_cell_angle_beta   90.00000000
_cell_angle_gamma   90.00000000
_symmetry_Int_Tables_number   1
_chemical_formula_structural   KCuPO4
_chemical_formula_sum   'K4 Cu4 P4 O16'
_cell_volume   405.27512984
_cell_formula_units_Z   4
loop_
 _symmetry_equiv_pos_site_id
 _symmetry_equiv_pos_as_xyz
  1  'x, y, z'
loop_
 _atom_site_type_symbol
 _atom_site_label
 _atom_site_symmetry_multiplicity
 _atom_site_fract_x
 _atom_site_fract_y
 _atom_site_fract_z
 _atom_site_occupancy
  K  K0  1  0.22973300  0.22750400  0.74140700  1
  K  K1  1  0.72973300  0.77249600  0.25859300  1
  K  K2  1  0.38692100  0.20041600  0.22221400  1
  K  K3  1  0.88692100  0.79958400  0.77778600  1
  Cu  Cu0  1  0.08951100  0.76818500  0.42581500  1
  Cu  Cu1  1  0.58951100  0.23181500  0.57418500  1
  Cu  Cu2  1  0.99464400  0.36103400  0.09459000  1
  Cu  Cu3  1  0.49464400  0.63896600  0.90541000  1
  P  P0  1  0.40781400  0.74074500  0.54011600  1
  P  P1  1  0.90781400  0.25925500  0.45988400  1
  P  P2  1  0.18941700  0.73122000  0.07051400  1
  P  P3  1  0.68941700  0.26878000  0.92948600  1
  O  O0  1  0.42565500  0.44133600  0.51038600  1
  O  O1  1  0.92565500  0.55866400  0.48961400  1
  O  O2  1  0.38441200  0.77776500  0.72465200  1
  O  O3  1  0.88441200  0.22223500  0.27534800  1
  O  O4  1  0.28033200  0.85482900  0.44869600  1
  O  O5  1  0.78033200  0.14517100  0.55130400  1
  O  O6  1  0.03410400  0.10043600  0.52826500  1
  O  O7  1  0.53410400  0.89956400  0.47173500  1
  O  O8  1  0.34713000  0.68793800  0.07274300  1
  O  O9  1  0.84713000  0.31206200  0.92725700  1
  O  O10  1  0.15317800  0.02297100  0.06345900  1
  O  O11  1  0.65317800  0.97702900  0.93654100  1
  O  O12  1  0.12241900  0.57533300  0.22843600  1
  O  O13  1  0.62241900  0.42466700  0.77156400  1
  O  O14  1  0.11319100  0.57709300  0.93764600  1
  O  O15  1  0.61319100  0.42290700  0.06235400  1
loop_
_geom_bond_atom_site_label_1
_geom_bond_atom_site_label_2
_geom_bond_distance
_geom_bond_site_symmetry_2
K0 O6 2.687562 1_555
K0 O14 2.715455 1_555
K0 O2 2.744728 1_545
K0 O0 2.859017 1_555
K0 O10 2.890127 1_556
K1 O7 2.687562 1_555
K1 O15 2.715455 1_555
K1 O3 2.744728 1_565
K1 O1 2.859017 1_555
K1 O11 2.890127 1_554
K2 O4 2.694925 1_545
K2 O8 2.732023 1_555
K2 O0 2.757299 1_555
K2 O15 2.766803 1_555
K2 O10 2.791258 1_555
K2 O7 2.870835 1_545
K2 O8 2.969676 1_545
K2 O12 3.197313 1_555
K3 O5 2.694925 1_565
K3 O9 2.732023 1_555
K3 O1 2.757299 1_555
K3 O14 2.766803 1_655
K3 O11 2.791258 1_555
K3 O6 2.870835 1_665
K3 O9 2.969676 1_565
K3 O13 3.197313 1_555
Cu0 O4 1.913306 1_555
Cu0 O1 1.967413 1_455
Cu0 O12 1.971299 1_555
Cu0 O6 2.004109 1_565
Cu1 O5 1.913306 1_555
Cu1 O0 1.967413 1_555
Cu1 O13 1.971299 1_555
Cu1 O7 2.004109 1_545
Cu2 O3 1.932998 1_555
Cu2 O14 2.009228 1_654
Cu2 O9 2.011081 1_554
Cu2 O12 2.018103 1_655
Cu2 O10 2.330837 1_655
Cu3 O2 1.932998 1_555
Cu3 O15 2.009228 1_556
Cu3 O8 2.011081 1_556
Cu3 O13 2.018103 1_555
Cu3 O11 2.330837 1_555
O0 P0 1.565338 1_555
O1 P1 1.565338 1_555
O2 P0 1.558366 1_555
O3 P1 1.558366 1_555
O4 P0 1.543029 1_555
O5 P1 1.543029 1_555
O6 P1 1.554514 1_455
O7 P0 1.554514 1_555
O8 P2 1.544562 1_555
O9 P3 1.544562 1_555
O10 P2 1.522536 1_545
O11 P3 1.522536 1_565
O12 P2 1.620017 1_555
O13 P3 1.620017 1_555
O14 P2 1.566727 1_556
O15 P3 1.566727 1_554
