# generated using pymatgen
data_KAl11O17
_symmetry_space_group_name_H-M   'P 1'
_cell_length_a   5.64933404
_cell_length_b   5.64933404
_cell_length_c   23.20832425
_cell_angle_alpha   83.22372680
_cell_angle_beta   83.22372680
_cell_angle_gamma   60.13413613
_symmetry_Int_Tables_number   1
_chemical_formula_structural   KAl11O17
_chemical_formula_sum   'K2 Al22 O34'
_cell_volume   636.32646938
_cell_formula_units_Z   2
loop_
 _symmetry_equiv_pos_site_id
 _symmetry_equiv_pos_as_xyz
  1  'x, y, z'
loop_
 _atom_site_type_symbol
 _atom_site_label
 _atom_site_symmetry_multiplicity
 _atom_site_fract_x
 _atom_site_fract_y
 _atom_site_fract_z
 _atom_site_occupancy
  K  K0  1  0.91432800  0.91432800  0.25560600  1
  K  K1  1  0.33560100  0.33560100  0.75204700  1
  Al  Al0  1  0.99932600  0.99932600  0.00004200  1
  Al  Al1  1  0.80167700  0.29601900  0.60656000  1
  Al  Al2  1  0.50049200  0.50049200  0.50024500  1
  Al  Al3  1  0.79624700  0.30152900  0.10572800  1
  Al  Al4  1  0.79620800  0.79620800  0.10580500  1
  Al  Al5  1  0.30152900  0.79624700  0.10572800  1
  Al  Al6  1  0.67484800  0.67484800  0.97508400  1
  Al  Al7  1  0.72283700  0.72283700  0.82494900  1
  Al  Al8  1  0.77408900  0.77408900  0.67497300  1
  Al  Al9  1  0.29601900  0.80167700  0.60656000  1
  Al  Al10  1  0.29697100  0.29697100  0.60486600  1
  Al  Al11  1  0.82508700  0.82508700  0.52527300  1
  Al  Al12  1  0.17500900  0.17500900  0.47534000  1
  Al  Al13  1  0.70261100  0.70261100  0.39447300  1
  Al  Al14  1  0.70255600  0.20065600  0.39457300  1
  Al  Al15  1  0.22492000  0.22492000  0.32480600  1
  Al  Al16  1  0.27520500  0.27520500  0.17500200  1
  Al  Al17  1  0.32485300  0.32485300  0.02511900  1
  Al  Al18  1  0.69984900  0.20224000  0.89360400  1
  Al  Al19  1  0.20160600  0.20160600  0.89564400  1
  Al  Al20  1  0.20224000  0.69984900  0.89360400  1
  Al  Al21  1  0.20065600  0.70255600  0.39457300  1
  O  O0  1  0.83065300  0.35965200  0.45076700  1
  O  O1  1  0.54634500  0.54634500  0.35985100  1
  O  O2  1  0.94975300  0.45373700  0.14392600  1
  O  O3  1  0.64825600  0.64825600  0.05478900  1
  O  O4  1  0.85916300  0.85916300  0.95033400  1
  O  O5  1  0.85943000  0.33002500  0.95075700  1
  O  O6  1  0.33002500  0.85943000  0.95075700  1
  O  O7  1  0.54347300  0.05054500  0.85566100  1
  O  O8  1  0.54449300  0.54449300  0.85536700  1
  O  O9  1  0.04681100  0.04681100  0.85950900  1
  O  O10  1  0.75314600  0.75314600  0.74999800  1
  O  O11  1  0.95243800  0.95243800  0.64363900  1
  O  O12  1  0.95634200  0.44821700  0.64433100  1
  O  O13  1  0.44821700  0.95634200  0.64433100  1
  O  O14  1  0.63966800  0.17067300  0.54921500  1
  O  O15  1  0.64060400  0.64060400  0.54966800  1
  O  O16  1  0.14824000  0.14824000  0.55495700  1
  O  O17  1  0.85178100  0.85178100  0.44521800  1
  O  O18  1  0.35965200  0.83065300  0.45076700  1
  O  O19  1  0.35939100  0.35939100  0.45065200  1
  O  O20  1  0.55265700  0.04542500  0.35551900  1
  O  O21  1  0.04542500  0.55265700  0.35551900  1
  O  O22  1  0.04579500  0.04579500  0.35562900  1
  O  O23  1  0.24996500  0.24996500  0.24997400  1
  O  O24  1  0.95358300  0.95358300  0.14045500  1
  O  O25  1  0.45336900  0.45336900  0.14382500  1
  O  O26  1  0.45373700  0.94975300  0.14392600  1
  O  O27  1  0.67017000  0.13993100  0.04925900  1
  O  O28  1  0.13993100  0.67017000  0.04925900  1
  O  O29  1  0.14017400  0.14017400  0.04933200  1
  O  O30  1  0.35139400  0.35139400  0.94512100  1
  O  O31  1  0.05054500  0.54347300  0.85566100  1
  O  O32  1  0.45341900  0.45341900  0.64066200  1
  O  O33  1  0.17067300  0.63966800  0.54921500  1
loop_
_geom_bond_atom_site_label_1
_geom_bond_atom_site_label_2
_geom_bond_distance
_geom_bond_site_symmetry_2
K0 O24 2.647579 1_555
K0 O22 2.802683 1_665
K0 O20 2.807170 1_565
K0 O21 2.807170 1_655
K0 O23 3.266276 1_565
K0 O23 3.266276 1_655
K0 O23 3.266711 1_665
K1 O32 2.682854 1_555
K1 O31 2.761178 1_555
K1 O7 2.761178 1_555
K1 O10 2.945150 1_545
K1 O10 2.945150 1_455
Al0 O29 1.906576 1_665
Al0 O27 1.906639 1_565
Al0 O28 1.906639 1_655
Al0 O4 1.907996 1_554
Al0 O5 1.913571 1_564
Al0 O6 1.913571 1_654
Al1 O32 1.828693 1_555
Al1 O11 1.834602 1_545
Al1 O12 1.837933 1_555
Al1 O16 2.004790 1_655
Al1 O14 2.065350 1_555
Al1 O15 2.067295 1_555
Al2 O15 1.902955 1_555
Al2 O14 1.906222 1_555
Al2 O33 1.906222 1_555
Al2 O19 1.913480 1_555
Al2 O0 1.913830 1_555
Al2 O18 1.913830 1_555
Al3 O24 1.832637 1_545
Al3 O2 1.838833 1_555
Al3 O25 1.841098 1_555
Al3 O3 1.997296 1_555
Al3 O27 2.051458 1_555
Al3 O29 2.058307 1_655
Al4 O24 1.830908 1_555
Al4 O2 1.839591 1_555
Al4 O26 1.839591 1_555
Al4 O3 1.990457 1_555
Al4 O27 2.059602 1_565
Al4 O28 2.059602 1_655
Al5 O24 1.832637 1_455
Al5 O26 1.838833 1_555
Al5 O25 1.841098 1_555
Al5 O3 1.997296 1_555
Al5 O28 2.051458 1_555
Al5 O29 2.058307 1_565
Al6 O4 1.815462 1_555
Al6 O5 1.816158 1_555
Al6 O6 1.816158 1_555
Al6 O3 1.832563 1_556
Al7 O10 1.724261 1_555
Al7 O8 1.789936 1_555
Al7 O7 1.798575 1_565
Al7 O31 1.798575 1_655
Al8 O10 1.725254 1_555
Al8 O12 1.789789 1_555
Al8 O13 1.789789 1_555
Al8 O11 1.795659 1_555
Al9 O32 1.828693 1_555
Al9 O11 1.834602 1_455
Al9 O13 1.837933 1_555
Al9 O16 2.004790 1_565
Al9 O33 2.065350 1_555
Al9 O15 2.067295 1_555
Al10 O32 1.837661 1_555
Al10 O13 1.844778 1_545
Al10 O12 1.844778 1_455
Al10 O16 1.978917 1_555
Al10 O33 2.043774 1_555
Al10 O14 2.043774 1_555
Al11 O15 1.815551 1_555
Al11 O14 1.816447 1_565
Al11 O33 1.816447 1_655
Al11 O17 1.840610 1_555
Al12 O19 1.815825 1_555
Al12 O18 1.816107 1_545
Al12 O0 1.816107 1_455
Al12 O16 1.830550 1_555
Al13 O1 1.820789 1_555
Al13 O21 1.849119 1_655
Al13 O20 1.849119 1_565
Al13 O17 1.995749 1_555
Al13 O18 2.052775 1_555
Al13 O0 2.052775 1_555
Al14 O1 1.822647 1_555
Al14 O20 1.848243 1_555
Al14 O22 1.850881 1_655
Al14 O17 2.002269 1_545
Al14 O0 2.043985 1_555
Al14 O19 2.050610 1_555
Al15 O23 1.720527 1_555
Al15 O21 1.798719 1_555
Al15 O20 1.798719 1_555
Al15 O22 1.799435 1_555
Al16 O23 1.723754 1_555
Al16 O26 1.792268 1_545
Al16 O2 1.792268 1_455
Al16 O25 1.793011 1_555
Al17 O29 1.816635 1_555
Al17 O28 1.816864 1_555
Al17 O27 1.816864 1_555
Al17 O30 1.839294 1_554
Al18 O9 1.822903 1_655
Al18 O8 1.839848 1_555
Al18 O7 1.845521 1_555
Al18 O30 2.011216 1_555
Al18 O4 2.059149 1_545
Al18 O5 2.061462 1_555
Al19 O9 1.827710 1_555
Al19 O31 1.855213 1_555
Al19 O7 1.855213 1_555
Al19 O30 1.980509 1_555
Al19 O6 2.034183 1_545
Al19 O5 2.034183 1_455
Al20 O9 1.822903 1_565
Al20 O8 1.839848 1_555
Al20 O31 1.845521 1_555
Al20 O30 2.011216 1_555
Al20 O4 2.059149 1_455
Al20 O6 2.061462 1_555
Al21 O1 1.822647 1_555
Al21 O21 1.848243 1_555
Al21 O22 1.850881 1_565
Al21 O17 2.002269 1_455
Al21 O18 2.043985 1_555
Al21 O19 2.050610 1_555
