# generated using pymatgen
data_Tb4CdRh
_symmetry_space_group_name_H-M   'P 1'
_cell_length_a   9.61120341
_cell_length_b   9.61120253
_cell_length_c   9.61120754
_cell_angle_alpha   59.99994906
_cell_angle_beta   59.99994836
_cell_angle_gamma   59.99993904
_symmetry_Int_Tables_number   1
_chemical_formula_structural   Tb4CdRh
_chemical_formula_sum   'Tb16 Cd4 Rh4'
_cell_volume   627.79509580
_cell_formula_units_Z   4
loop_
 _symmetry_equiv_pos_site_id
 _symmetry_equiv_pos_as_xyz
  1  'x, y, z'
loop_
 _atom_site_type_symbol
 _atom_site_label
 _atom_site_symmetry_multiplicity
 _atom_site_fract_x
 _atom_site_fract_y
 _atom_site_fract_z
 _atom_site_occupancy
  Tb  Tb0  1  0.29762670  0.90078308  0.90079563  1
  Tb  Tb1  1  0.68679440  0.31320856  0.68679689  1
  Tb  Tb2  1  0.31320889  0.68679469  0.31319951  1
  Tb  Tb3  1  0.06032633  0.43968031  0.43966252  1
  Tb  Tb4  1  0.68679473  0.31320846  0.31319974  1
  Tb  Tb5  1  0.43968082  0.06032638  0.43966220  1
  Tb  Tb6  1  0.43968023  0.06032641  0.06033087  1
  Tb  Tb7  1  0.90078853  0.90078907  0.90080150  1
  Tb  Tb8  1  0.06032638  0.43967969  0.06033108  1
  Tb  Tb9  1  0.90078294  0.29762628  0.90079593  1
  Tb  Tb10  1  0.31320904  0.68679433  0.68679670  1
  Tb  Tb11  1  0.90078880  0.90078927  0.29762114  1
  Tb  Tb12  1  0.43967296  0.43967210  0.06032761  1
  Tb  Tb13  1  0.31320887  0.31320816  0.68679156  1
  Tb  Tb14  1  0.68679993  0.68680003  0.31319987  1
  Tb  Tb15  1  0.06032962  0.06032989  0.43966982  1
  Cd  Cd0  1  0.99134998  0.66955272  0.66954898  1
  Cd  Cd1  1  0.66955272  0.99135038  0.66954877  1
  Cd  Cd2  1  0.66954846  0.66954822  0.99135946  1
  Cd  Cd3  1  0.66954886  0.66954866  0.66954491  1
  Rh  Rh0  1  0.10777177  0.10777243  0.67667353  1
  Rh  Rh1  1  0.10776914  0.67667057  0.10778048  1
  Rh  Rh2  1  0.10777179  0.10777254  0.10778287  1
  Rh  Rh3  1  0.67667012  0.10776976  0.10778045  1
loop_
_geom_bond_atom_site_label_1
_geom_bond_atom_site_label_2
_geom_bond_distance
_geom_bond_site_symmetry_2
Tb0 Tb2 3.478046 1_556
Tb0 Tb10 3.478060 1_555
Tb0 Tb13 3.478220 1_565
Tb1 Tb9 3.478060 1_555
Tb1 Tb7 3.478164 1_545
Tb1 Tb10 3.590603 1_555
Tb1 Tb13 3.590634 1_555
Tb1 Tb14 3.590688 1_555
Tb1 Tb4 3.590719 1_555
Tb1 Tb12 3.599597 1_556
Tb1 Tb6 3.599616 1_556
Tb1 Tb3 3.599644 1_655
Tb1 Tb15 3.599664 1_655
Tb2 Tb4 3.590608 1_555
Tb2 Tb3 3.599621 1_555
Tb2 Tb6 3.599640 1_565
Tb4 Tb9 3.478045 1_554
Tb4 Tb5 3.599615 1_555
Tb4 Tb8 3.599640 1_655
Tb10 Tb7 3.478172 1_455
Tb10 Tb13 3.590638 1_555
Tb10 Tb14 3.590685 1_555
Tb10 Tb2 3.590719 1_555
Tb10 Tb12 3.599600 1_556
Tb10 Tb8 3.599622 1_556
Tb10 Tb5 3.599645 1_565
Tb10 Tb15 3.599668 1_565
Tb11 Tb14 3.477999 1_555
Tb11 Tb4 3.478160 1_565
Tb11 Tb2 3.478167 1_655
Tb12 Tb4 3.599595 1_555
Tb12 Tb2 3.599598 1_555
Tb13 Tb9 3.478227 1_455
Tb13 Tb4 3.590636 1_555
Tb13 Tb2 3.590641 1_555
Tb13 Tb6 3.599703 1_556
Tb13 Tb8 3.599706 1_556
Tb13 Tb5 3.599706 1_555
Tb13 Tb3 3.599709 1_555
Tb14 Tb7 3.477990 1_554
Tb14 Tb2 3.590687 1_555
Tb14 Tb4 3.590690 1_555
Tb14 Tb6 3.599554 1_565
Tb14 Tb5 3.599554 1_565
Tb14 Tb8 3.599556 1_655
Tb14 Tb3 3.599557 1_655
Tb15 Tb4 3.599660 1_455
Tb15 Tb2 3.599664 1_545
Cd0 Cd1 3.092858 1_555
Cd0 Cd3 3.092935 1_555
Cd0 Cd2 3.092941 1_555
Cd0 Tb13 3.267588 1_655
Cd0 Tb10 3.267613 1_655
Cd0 Tb2 3.267616 1_655
Cd0 Tb7 3.421639 1_555
Cd0 Tb11 3.421640 1_555
Cd0 Tb9 3.421653 1_555
Cd0 Tb15 3.486317 1_665
Cd0 Tb8 3.486346 1_656
Cd0 Tb3 3.486350 1_655
Cd1 Cd3 3.092939 1_555
Cd1 Cd2 3.092945 1_555
Cd1 Tb13 3.267580 1_565
Cd1 Tb1 3.267607 1_565
Cd1 Tb4 3.267610 1_565
Cd1 Tb7 3.421637 1_555
Cd1 Tb11 3.421638 1_555
Cd1 Tb0 3.421651 1_555
Cd1 Tb15 3.486314 1_665
Cd1 Tb6 3.486344 1_566
Cd1 Tb5 3.486349 1_565
Cd2 Cd3 3.093022 1_555
Cd2 Tb2 3.267482 1_556
Cd2 Tb4 3.267484 1_556
Cd2 Tb14 3.267509 1_556
Cd2 Tb7 3.421587 1_555
Cd2 Tb9 3.421601 1_555
Cd2 Tb0 3.421601 1_555
Cd2 Tb8 3.486291 1_656
Cd2 Tb6 3.486292 1_566
Cd2 Tb12 3.486325 1_556
Cd3 Tb10 3.267495 1_555
Cd3 Tb1 3.267497 1_555
Cd3 Tb14 3.267525 1_555
Cd3 Tb11 3.421586 1_555
Cd3 Tb0 3.421599 1_555
Cd3 Tb9 3.421600 1_555
Cd3 Tb3 3.486293 1_655
Cd3 Tb5 3.486294 1_565
Cd3 Tb12 3.486323 1_556
Rh0 Tb15 2.808893 1_555
Rh0 Tb3 2.809034 1_555
Rh0 Tb5 2.809042 1_555
Rh0 Tb7 2.818198 1_445
Rh0 Tb9 2.818258 1_455
Rh0 Tb0 2.818263 1_545
Rh0 Tb1 3.476843 1_455
Rh0 Tb10 3.476849 1_545
Rh0 Tb13 3.476972 1_555
Rh1 Tb3 2.808809 1_555
Rh1 Tb8 2.808819 1_555
Rh1 Tb12 2.808969 1_555
Rh1 Tb11 2.818146 1_455
Rh1 Tb7 2.818148 1_454
Rh1 Tb0 2.818212 1_554
Rh1 Tb14 3.476759 1_455
Rh1 Tb2 3.476891 1_555
Rh1 Tb10 3.476897 1_554
Rh2 Tb15 2.808878 1_555
Rh2 Tb8 2.809027 1_555
Rh2 Tb6 2.809036 1_555
Rh2 Tb11 2.818196 1_445
Rh2 Tb9 2.818255 1_454
Rh2 Tb0 2.818261 1_544
Rh2 Tb4 3.476837 1_455
Rh2 Tb2 3.476844 1_545
Rh2 Tb13 3.476972 1_554
Rh3 Tb5 2.808804 1_555
Rh3 Tb6 2.808814 1_555
Rh3 Tb12 2.808955 1_555
Rh3 Tb11 2.818146 1_545
Rh3 Tb7 2.818148 1_544
Rh3 Tb9 2.818208 1_554
Rh3 Tb14 3.476762 1_545
Rh3 Tb4 3.476887 1_555
Rh3 Tb1 3.476894 1_554
