# generated using pymatgen
data_Sr6Li2Cr2N8O
_symmetry_space_group_name_H-M   'P 1'
_cell_length_a   6.21138600
_cell_length_b   6.87008165
_cell_length_c   7.60088734
_cell_angle_alpha   82.29921121
_cell_angle_beta   75.07817667
_cell_angle_gamma   69.95756503
_symmetry_Int_Tables_number   1
_chemical_formula_structural   Sr6Li2Cr2N8O
_chemical_formula_sum   'Sr6 Li2 Cr2 N8 O1'
_cell_volume   294.05812111
_cell_formula_units_Z   1
loop_
 _symmetry_equiv_pos_site_id
 _symmetry_equiv_pos_as_xyz
  1  'x, y, z'
loop_
 _atom_site_type_symbol
 _atom_site_label
 _atom_site_symmetry_multiplicity
 _atom_site_fract_x
 _atom_site_fract_y
 _atom_site_fract_z
 _atom_site_occupancy
  Sr  Sr0  1  0.19987200  0.37940200  0.30197900  1
  Sr  Sr1  1  0.29282500  0.86455600  0.07038200  1
  Sr  Sr2  1  0.70005700  0.18800400  0.46800900  1
  Sr  Sr3  1  0.29994300  0.81199600  0.53199100  1
  Sr  Sr4  1  0.70717500  0.13544400  0.92961800  1
  Sr  Sr5  1  0.80012800  0.62059800  0.69802100  1
  Li  Li0  1  0.22539500  0.50966000  0.90831100  1
  Li  Li1  1  0.77460500  0.49034000  0.09168900  1
  Cr  Cr0  1  0.78823600  0.78796100  0.25078300  1
  Cr  Cr1  1  0.21176400  0.21203900  0.74921700  1
  N  N0  1  0.53355000  0.01138400  0.26546600  1
  N  N1  1  0.98701100  0.82008400  0.36485200  1
  N  N2  1  0.71508300  0.56859600  0.35754900  1
  N  N3  1  0.92253700  0.74467800  0.02051800  1
  N  N4  1  0.28491700  0.43140400  0.64245100  1
  N  N5  1  0.46645000  0.98861600  0.73453400  1
  N  N6  1  0.07746300  0.25532200  0.97948200  1
  N  N7  1  0.01298900  0.17991600  0.63514800  1
  O  O0  1  0.50000000  0.50000000  0.00000000  1
loop_
_geom_bond_atom_site_label_1
_geom_bond_atom_site_label_2
_geom_bond_distance
_geom_bond_site_symmetry_2
Li0 O0 1.980314 1_556
Li0 N4 2.068672 1_555
Li0 N3 2.081826 1_456
Li0 N6 2.186611 1_555
Li1 O0 1.980314 1_555
Li1 N2 2.068672 1_555
Li1 N6 2.081826 1_654
Li1 N3 2.186611 1_555
Cr0 N3 1.750745 1_555
Cr0 N2 1.757254 1_555
Cr0 N1 1.764707 1_555
Cr0 N0 1.778111 1_565
Cr1 N6 1.750745 1_555
Cr1 N4 1.757254 1_555
Cr1 N7 1.764707 1_555
Cr1 N5 1.778111 1_545
N0 Sr4 2.652377 1_554
N0 Sr0 2.658025 1_555
N0 Sr2 2.663242 1_555
N0 Sr3 2.681539 1_545
N0 Sr1 2.833460 1_545
N1 Sr3 2.563964 1_655
N1 Sr1 2.595418 1_655
N1 Sr2 2.627552 1_565
N1 Sr5 2.878377 1_555
N1 Sr0 2.908784 1_655
N2 Sr3 2.661070 1_555
N2 Sr2 2.662490 1_555
N2 Sr0 2.782916 1_655
N2 Sr5 2.860946 1_555
N3 Sr4 2.644094 1_564
N3 Sr1 2.818311 1_655
N3 Sr5 3.045906 1_554
N4 Sr2 2.661070 1_555
N4 Sr3 2.662490 1_555
N4 Sr5 2.782916 1_455
N4 Sr0 2.860946 1_555
N5 Sr1 2.652377 1_556
N5 Sr5 2.658025 1_555
N5 Sr3 2.663242 1_555
N5 Sr2 2.681539 1_565
N5 Sr4 2.833460 1_565
N6 Sr1 2.644094 1_546
N6 Sr4 2.818311 1_455
N6 Sr0 3.045906 1_556
N7 Sr2 2.563964 1_455
N7 Sr4 2.595418 1_455
N7 Sr3 2.627552 1_545
N7 Sr0 2.878377 1_555
N7 Sr5 2.908784 1_455
O0 Sr1 2.451583 1_555
O0 Sr4 2.451583 1_554
O0 Sr5 2.788462 1_554
O0 Sr0 2.788462 1_555
