# generated using pymatgen
data_Er2Fe14C
_symmetry_space_group_name_H-M   'P 1'
_cell_length_a   8.70963000
_cell_length_b   8.70963000
_cell_length_c   11.66237900
_cell_angle_alpha   90.00000000
_cell_angle_beta   90.00000000
_cell_angle_gamma   90.00000000
_symmetry_Int_Tables_number   1
_chemical_formula_structural   Er2Fe14C
_chemical_formula_sum   'Er8 Fe56 C4'
_cell_volume   884.68071959
_cell_formula_units_Z   4
loop_
 _symmetry_equiv_pos_site_id
 _symmetry_equiv_pos_as_xyz
  1  'x, y, z'
loop_
 _atom_site_type_symbol
 _atom_site_label
 _atom_site_symmetry_multiplicity
 _atom_site_fract_x
 _atom_site_fract_y
 _atom_site_fract_z
 _atom_site_occupancy
  Er  Er0  1  0.85607800  0.14392200  0.00000000  1
  Er  Er1  1  0.14392200  0.85607800  0.00000000  1
  Er  Er2  1  0.64392200  0.64392200  0.50000000  1
  Er  Er3  1  0.75868000  0.24132000  0.50000000  1
  Er  Er4  1  0.25868000  0.25868000  0.00000000  1
  Er  Er5  1  0.24132000  0.75868000  0.50000000  1
  Er  Er6  1  0.35607800  0.35607800  0.50000000  1
  Er  Er7  1  0.74132000  0.74132000  0.00000000  1
  Fe  Fe0  1  0.72529000  0.93589500  0.62012000  1
  Fe  Fe1  1  0.03572900  0.35762200  0.17498500  1
  Fe  Fe2  1  0.03572900  0.35762200  0.82501500  1
  Fe  Fe3  1  0.53572900  0.14237800  0.32501500  1
  Fe  Fe4  1  0.35762200  0.03572900  0.17498500  1
  Fe  Fe5  1  0.43589500  0.77471000  0.12012000  1
  Fe  Fe6  1  0.64237800  0.96427100  0.17498500  1
  Fe  Fe7  1  0.50000000  0.50000000  0.89189400  1
  Fe  Fe8  1  0.77471000  0.43589500  0.12012000  1
  Fe  Fe9  1  0.27471000  0.06410500  0.37988000  1
  Fe  Fe10  1  0.09692200  0.09692200  0.20291300  1
  Fe  Fe11  1  0.85762200  0.46427100  0.67498500  1
  Fe  Fe12  1  0.93589500  0.72529000  0.62012000  1
  Fe  Fe13  1  0.81570400  0.18429600  0.25468000  1
  Fe  Fe14  1  0.96427100  0.64237800  0.82501500  1
  Fe  Fe15  1  0.22529000  0.56410500  0.87988000  1
  Fe  Fe16  1  0.56410500  0.22529000  0.87988000  1
  Fe  Fe17  1  0.14237800  0.53572900  0.32501500  1
  Fe  Fe18  1  0.18429600  0.81570400  0.25468000  1
  Fe  Fe19  1  0.31570400  0.31570400  0.75468000  1
  Fe  Fe20  1  0.68429600  0.68429600  0.24532000  1
  Fe  Fe21  1  0.35762200  0.03572900  0.82501500  1
  Fe  Fe22  1  0.31570400  0.31570400  0.24532000  1
  Fe  Fe23  1  0.90307800  0.90307800  0.20291300  1
  Fe  Fe24  1  0.06410500  0.27471000  0.37988000  1
  Fe  Fe25  1  0.72529000  0.93589500  0.37988000  1
  Fe  Fe26  1  0.85762200  0.46427100  0.32501500  1
  Fe  Fe27  1  0.64237800  0.96427100  0.82501500  1
  Fe  Fe28  1  0.46427100  0.85762200  0.32501500  1
  Fe  Fe29  1  0.59692200  0.40307800  0.70291300  1
  Fe  Fe30  1  0.90307800  0.90307800  0.79708700  1
  Fe  Fe31  1  0.00000000  0.50000000  0.50000000  1
  Fe  Fe32  1  0.27471000  0.06410500  0.62012000  1
  Fe  Fe33  1  0.14237800  0.53572900  0.67498500  1
  Fe  Fe34  1  0.46427100  0.85762200  0.67498500  1
  Fe  Fe35  1  0.50000000  0.50000000  0.10810600  1
  Fe  Fe36  1  0.93589500  0.72529000  0.37988000  1
  Fe  Fe37  1  0.53572900  0.14237800  0.67498500  1
  Fe  Fe38  1  0.43589500  0.77471000  0.87988000  1
  Fe  Fe39  1  0.96427100  0.64237800  0.17498500  1
  Fe  Fe40  1  0.81570400  0.18429600  0.74532000  1
  Fe  Fe41  1  0.22529000  0.56410500  0.12012000  1
  Fe  Fe42  1  0.59692200  0.40307800  0.29708700  1
  Fe  Fe43  1  0.06410500  0.27471000  0.62012000  1
  Fe  Fe44  1  0.68429600  0.68429600  0.75468000  1
  Fe  Fe45  1  0.56410500  0.22529000  0.12012000  1
  Fe  Fe46  1  0.00000000  0.00000000  0.60810600  1
  Fe  Fe47  1  0.18429600  0.81570400  0.74532000  1
  Fe  Fe48  1  0.09692200  0.09692200  0.79708700  1
  Fe  Fe49  1  0.77471000  0.43589500  0.87988000  1
  Fe  Fe50  1  0.00000000  0.50000000  0.00000000  1
  Fe  Fe51  1  0.40307800  0.59692200  0.70291300  1
  Fe  Fe52  1  0.00000000  0.00000000  0.39189400  1
  Fe  Fe53  1  0.50000000  0.00000000  0.50000000  1
  Fe  Fe54  1  0.50000000  0.00000000  0.00000000  1
  Fe  Fe55  1  0.40307800  0.59692200  0.29708700  1
  C  C0  1  0.12757900  0.12757900  0.50000000  1
  C  C1  1  0.87242100  0.87242100  0.50000000  1
  C  C2  1  0.62757900  0.37242100  0.00000000  1
  C  C3  1  0.37242100  0.62757900  0.00000000  1
loop_
_geom_bond_atom_site_label_1
_geom_bond_atom_site_label_2
_geom_bond_distance
_geom_bond_site_symmetry_2
Er0 Fe49 2.988552 1_554
Er0 Fe16 2.988552 1_554
Er0 Fe8 2.988552 1_555
Er0 Fe45 2.988552 1_555
Er0 Fe40 3.011518 1_554
Er0 Fe13 3.011518 1_555
Er0 Fe1 3.174450 1_655
Er0 Fe6 3.174450 1_545
Er0 Fe2 3.174450 1_654
Er0 Fe27 3.174450 1_544
Er0 Fe10 3.188704 1_655
Er0 Fe23 3.188704 1_545
Er0 Fe48 3.188704 1_654
Er0 Fe30 3.188704 1_544
Er0 Fe54 3.345055 1_555
Er0 Fe50 3.345055 1_655
Er1 Fe38 2.988552 1_554
Er1 Fe15 2.988552 1_554
Er1 Fe41 2.988552 1_555
Er1 Fe5 2.988552 1_555
Er1 Fe47 3.011518 1_554
Er1 Fe18 3.011518 1_555
Er1 Fe4 3.174450 1_565
Er1 Fe39 3.174450 1_455
Er1 Fe21 3.174450 1_564
Er1 Fe14 3.174450 1_454
Er1 Fe10 3.188704 1_565
Er1 Fe23 3.188704 1_455
Er1 Fe48 3.188704 1_564
Er1 Fe30 3.188704 1_454
Er1 Fe54 3.345055 1_565
Er1 Fe50 3.345055 1_555
Er2 Fe36 2.988552 1_555
Er2 Fe25 2.988552 1_555
Er2 Fe0 2.988552 1_555
Er2 Fe12 2.988552 1_555
Er2 Fe20 3.011518 1_555
Er2 Fe44 3.011518 1_555
Er2 Fe34 3.174450 1_555
Er2 Fe11 3.174450 1_555
Er2 Fe26 3.174450 1_555
Er2 Fe28 3.174450 1_555
Er2 Fe51 3.188704 1_555
Er2 Fe42 3.188704 1_555
Er2 Fe55 3.188704 1_555
Er2 Fe29 3.188704 1_555
Er2 Fe31 3.345055 1_655
Er2 Fe53 3.345055 1_565
Er3 Fe11 2.945828 1_555
Er3 Fe26 2.945828 1_555
Er3 Fe37 2.945828 1_555
Er3 Fe3 2.945828 1_555
Er3 Fe13 2.945971 1_555
Er3 Fe40 2.945971 1_555
Er3 Fe24 3.020495 1_655
Er3 Fe43 3.020495 1_655
Er3 Fe25 3.020495 1_545
Er3 Fe0 3.020495 1_545
Er3 Fe31 3.081175 1_655
Er3 Fe53 3.081175 1_555
Er3 Fe29 3.093511 1_555
Er3 Fe42 3.093511 1_555
Er3 Fe46 3.228737 1_655
Er3 Fe52 3.228737 1_655
Er4 Fe4 2.945828 1_555
Er4 Fe1 2.945828 1_555
Er4 Fe21 2.945828 1_554
Er4 Fe2 2.945828 1_554
Er4 Fe19 2.945971 1_554
Er4 Fe22 2.945971 1_555
Er4 Fe16 3.020495 1_554
Er4 Fe15 3.020495 1_554
Er4 Fe41 3.020495 1_555
Er4 Fe45 3.020495 1_555
Er4 Fe50 3.081175 1_555
Er4 Fe54 3.081175 1_555
Er4 Fe10 3.093511 1_555
Er4 Fe48 3.093511 1_554
Er4 Fe7 3.228737 1_554
Er4 Fe35 3.228737 1_555
Er5 Fe34 2.945828 1_555
Er5 Fe33 2.945828 1_555
Er5 Fe28 2.945828 1_555
Er5 Fe17 2.945828 1_555
Er5 Fe18 2.945971 1_555
Er5 Fe47 2.945971 1_555
Er5 Fe9 3.020495 1_565
Er5 Fe32 3.020495 1_565
Er5 Fe36 3.020495 1_455
Er5 Fe12 3.020495 1_455
Er5 Fe53 3.081175 1_565
Er5 Fe31 3.081175 1_555
Er5 Fe55 3.093511 1_555
Er5 Fe51 3.093511 1_555
Er5 Fe46 3.228737 1_565
Er5 Fe52 3.228737 1_565
Er6 Fe43 2.988552 1_555
Er6 Fe9 2.988552 1_555
Er6 Fe32 2.988552 1_555
Er6 Fe24 2.988552 1_555
Er6 Fe19 3.011518 1_555
Er6 Fe22 3.011518 1_555
Er6 Fe37 3.174450 1_555
Er6 Fe33 3.174450 1_555
Er6 Fe3 3.174450 1_555
Er6 Fe17 3.174450 1_555
Er6 Fe51 3.188704 1_555
Er6 Fe42 3.188704 1_555
Er6 Fe55 3.188704 1_555
Er6 Fe29 3.188704 1_555
Er6 Fe31 3.345055 1_555
Er6 Fe53 3.345055 1_555
Er7 Fe39 2.945828 1_555
Er7 Fe6 2.945828 1_555
Er7 Fe14 2.945828 1_554
Er7 Fe27 2.945828 1_554
Er7 Fe44 2.945971 1_554
Er7 Fe20 2.945971 1_555
Er7 Fe49 3.020495 1_554
Er7 Fe38 3.020495 1_554
Er7 Fe5 3.020495 1_555
Er7 Fe8 3.020495 1_555
Er7 Fe54 3.081175 1_565
Er7 Fe50 3.081175 1_655
Er7 Fe23 3.093511 1_555
Er7 Fe30 3.093511 1_554
Er7 Fe35 3.228737 1_555
Er7 Fe7 3.228737 1_554
Fe0 Fe34 2.458134 1_555
Fe0 Fe53 2.474755 1_565
Fe0 Fe27 2.508499 1_555
Fe0 Fe37 2.523776 1_565
Fe0 Fe30 2.595949 1_555
Fe0 Fe44 2.718841 1_555
Fe0 Fe40 2.726305 1_565
Fe1 Fe10 2.354945 1_555
Fe1 Fe50 2.408155 1_555
Fe1 Fe8 2.458134 1_455
Fe1 Fe24 2.508499 1_555
Fe1 Fe17 2.516077 1_555
Fe1 Fe26 2.516077 1_455
Fe1 Fe41 2.523776 1_555
Fe1 Fe39 2.557018 1_455
Fe1 Fe22 2.598522 1_555
Fe1 Fe13 2.610575 1_455
Fe2 Fe48 2.354945 1_555
Fe2 Fe50 2.408155 1_556
Fe2 Fe49 2.458134 1_455
Fe2 Fe43 2.508499 1_555
Fe2 Fe33 2.516077 1_555
Fe2 Fe40 2.610575 1_455
Fe3 Fe42 2.354945 1_555
Fe3 Fe53 2.408155 1_555
Fe3 Fe9 2.458134 1_555
Fe3 Fe45 2.508499 1_555
Fe3 Fe4 2.516077 1_555
Fe3 Fe6 2.516077 1_545
Fe4 Fe54 2.408155 1_555
Fe4 Fe5 2.458134 1_545
Fe4 Fe9 2.508499 1_555
Fe4 Fe45 2.523776 1_555
Fe4 Fe6 2.557018 1_545
Fe5 Fe54 2.474755 1_565
Fe5 Fe6 2.523776 1_555
Fe5 Fe55 2.595949 1_555
Fe10 Fe4 2.354945 1_555
Fe10 Fe23 2.387630 1_445
Fe10 Fe52 2.506525 1_555
Fe10 Fe9 2.595949 1_555
Fe10 Fe24 2.595949 1_555
Fe10 Fe13 2.634899 1_455
Fe10 Fe18 2.634899 1_545
Fe10 Fe22 2.739806 1_555
Fe11 Fe29 2.354945 1_555
Fe11 Fe31 2.408155 1_655
Fe11 Fe12 2.458134 1_555
Fe11 Fe49 2.508499 1_555
Fe11 Fe2 2.516077 1_655
Fe11 Fe14 2.516077 1_555
Fe11 Fe43 2.523776 1_655
Fe11 Fe33 2.557018 1_655
Fe11 Fe40 2.598522 1_555
Fe11 Fe44 2.610575 1_555
Fe12 Fe31 2.474755 1_655
Fe12 Fe14 2.508499 1_555
Fe12 Fe33 2.523776 1_655
Fe12 Fe30 2.595949 1_555
Fe12 Fe44 2.718841 1_555
Fe12 Fe47 2.726305 1_655
Fe13 Fe3 2.598522 1_555
Fe13 Fe26 2.598522 1_555
Fe13 Fe6 2.610575 1_545
Fe13 Fe23 2.634899 1_545
Fe13 Fe8 2.718841 1_555
Fe13 Fe45 2.718841 1_555
Fe13 Fe24 2.726305 1_655
Fe13 Fe25 2.726305 1_545
Fe13 Fe42 2.739806 1_555
Fe13 Fe52 2.777370 1_655
Fe14 Fe30 2.354945 1_555
Fe14 Fe50 2.408155 1_656
Fe14 Fe15 2.458134 1_655
Fe14 Fe33 2.516077 1_655
Fe14 Fe49 2.523776 1_555
Fe14 Fe2 2.557018 1_655
Fe14 Fe44 2.598522 1_555
Fe14 Fe47 2.610575 1_655
Fe15 Fe50 2.474755 1_556
Fe15 Fe33 2.508499 1_555
Fe15 Fe2 2.523776 1_555
Fe15 Fe51 2.595949 1_555
Fe15 Fe47 2.718841 1_555
Fe15 Fe19 2.726305 1_555
Fe16 Fe27 2.458134 1_545
Fe16 Fe54 2.474755 1_556
Fe16 Fe37 2.508499 1_555
Fe16 Fe21 2.523776 1_555
Fe16 Fe29 2.595949 1_555
Fe16 Fe40 2.718841 1_555
Fe16 Fe19 2.726305 1_555
Fe17 Fe55 2.354945 1_555
Fe17 Fe31 2.408155 1_555
Fe17 Fe24 2.458134 1_555
Fe17 Fe41 2.508499 1_555
Fe17 Fe39 2.516077 1_455
Fe17 Fe36 2.523776 1_455
Fe17 Fe26 2.557018 1_455
Fe17 Fe18 2.598522 1_555
Fe17 Fe22 2.610575 1_555
Fe18 Fe28 2.598522 1_555
Fe18 Fe4 2.610575 1_565
Fe18 Fe39 2.610575 1_455
Fe18 Fe23 2.634899 1_455
Fe18 Fe5 2.718841 1_555
Fe18 Fe41 2.718841 1_555
Fe18 Fe9 2.726305 1_565
Fe18 Fe36 2.726305 1_455
Fe18 Fe55 2.739806 1_555
Fe18 Fe52 2.777370 1_565
Fe19 Fe2 2.598522 1_555
Fe19 Fe21 2.598522 1_555
Fe19 Fe33 2.610575 1_555
Fe19 Fe37 2.610575 1_555
Fe19 Fe51 2.634899 1_555
Fe19 Fe29 2.634899 1_555
Fe19 Fe32 2.718841 1_555
Fe19 Fe43 2.718841 1_555
Fe19 Fe48 2.739806 1_555
Fe19 Fe7 2.777370 1_555
Fe20 Fe6 2.598522 1_555
Fe20 Fe39 2.598522 1_555
Fe20 Fe28 2.610575 1_555
Fe20 Fe26 2.610575 1_555
Fe20 Fe42 2.634899 1_555
Fe20 Fe55 2.634899 1_555
Fe20 Fe36 2.718841 1_555
Fe20 Fe25 2.718841 1_555
Fe20 Fe8 2.726305 1_555
Fe20 Fe5 2.726305 1_555
Fe20 Fe23 2.739806 1_555
Fe20 Fe35 2.777370 1_555
Fe21 Fe48 2.354945 1_555
Fe21 Fe54 2.408155 1_556
Fe21 Fe38 2.458134 1_545
Fe21 Fe32 2.508499 1_555
Fe21 Fe34 2.516077 1_545
Fe21 Fe37 2.516077 1_555
Fe21 Fe27 2.557018 1_545
Fe21 Fe47 2.610575 1_545
Fe22 Fe4 2.598522 1_555
Fe22 Fe3 2.610575 1_555
Fe22 Fe55 2.634899 1_555
Fe22 Fe42 2.634899 1_555
Fe22 Fe9 2.718841 1_555
Fe22 Fe24 2.718841 1_555
Fe22 Fe41 2.726305 1_555
Fe22 Fe45 2.726305 1_555
Fe22 Fe35 2.777370 1_555
Fe23 Fe6 2.354945 1_555
Fe23 Fe39 2.354945 1_555
Fe23 Fe52 2.506525 1_665
Fe23 Fe36 2.595949 1_555
Fe23 Fe25 2.595949 1_555
Fe24 Fe31 2.474755 1_555
Fe24 Fe26 2.523776 1_455
Fe25 Fe28 2.458134 1_555
Fe25 Fe53 2.474755 1_565
Fe25 Fe6 2.508499 1_555
Fe25 Fe3 2.523776 1_565
Fe26 Fe42 2.354945 1_555
Fe26 Fe31 2.408155 1_655
Fe26 Fe36 2.458134 1_555
Fe26 Fe8 2.508499 1_555
Fe26 Fe39 2.516077 1_555
Fe27 Fe30 2.354945 1_555
Fe27 Fe54 2.408155 1_566
Fe27 Fe37 2.516077 1_565
Fe27 Fe34 2.516077 1_555
Fe27 Fe38 2.523776 1_555
Fe27 Fe44 2.598522 1_555
Fe27 Fe40 2.610575 1_565
Fe28 Fe55 2.354945 1_555
Fe28 Fe53 2.408155 1_565
Fe28 Fe5 2.508499 1_555
Fe28 Fe4 2.516077 1_565
Fe28 Fe6 2.516077 1_555
Fe28 Fe9 2.523776 1_565
Fe28 Fe3 2.557018 1_565
Fe29 Fe37 2.354945 1_555
Fe29 Fe51 2.387630 1_555
Fe29 Fe7 2.506525 1_555
Fe29 Fe49 2.595949 1_555
Fe29 Fe44 2.634899 1_555
Fe29 Fe40 2.739806 1_555
Fe30 Fe48 2.387630 1_665
Fe30 Fe46 2.506525 1_665
Fe30 Fe40 2.634899 1_565
Fe30 Fe47 2.634899 1_655
Fe30 Fe44 2.739806 1_555
Fe31 Fe33 2.408155 1_555
Fe31 Fe43 2.474755 1_555
Fe31 Fe36 2.474755 1_455
Fe32 Fe37 2.458134 1_555
Fe32 Fe53 2.474755 1_555
Fe32 Fe34 2.523776 1_545
Fe32 Fe48 2.595949 1_555
Fe32 Fe47 2.726305 1_545
Fe33 Fe51 2.354945 1_555
Fe33 Fe43 2.458134 1_555
Fe33 Fe47 2.598522 1_555
Fe34 Fe51 2.354945 1_555
Fe34 Fe53 2.408155 1_565
Fe34 Fe38 2.508499 1_555
Fe34 Fe37 2.557018 1_565
Fe34 Fe47 2.598522 1_555
Fe34 Fe44 2.610575 1_555
Fe35 Fe42 2.506525 1_555
Fe35 Fe55 2.506525 1_555
Fe36 Fe39 2.508499 1_555
Fe37 Fe53 2.408155 1_555
Fe37 Fe40 2.598522 1_555
Fe38 Fe54 2.474755 1_566
Fe38 Fe51 2.595949 1_555
Fe38 Fe47 2.718841 1_555
Fe38 Fe44 2.726305 1_555
Fe39 Fe50 2.408155 1_655
Fe39 Fe41 2.458134 1_655
Fe39 Fe8 2.523776 1_555
Fe40 Fe48 2.634899 1_655
Fe40 Fe49 2.718841 1_555
Fe40 Fe43 2.726305 1_655
Fe40 Fe46 2.777370 1_655
Fe41 Fe50 2.474755 1_555
Fe41 Fe55 2.595949 1_555
Fe42 Fe55 2.387630 1_555
Fe42 Fe45 2.595949 1_555
Fe42 Fe8 2.595949 1_555
Fe43 Fe48 2.595949 1_555
Fe44 Fe51 2.634899 1_555
Fe44 Fe49 2.726305 1_555
Fe44 Fe7 2.777370 1_555
Fe45 Fe6 2.458134 1_545
Fe45 Fe54 2.474755 1_555
Fe46 Fe48 2.506525 1_555
Fe46 Fe47 2.777370 1_545
Fe47 Fe48 2.634899 1_565
Fe47 Fe51 2.739806 1_555
Fe49 Fe50 2.474755 1_656
Fe50 Fe8 2.474755 1_455
Fe51 Fe7 2.506525 1_555
Fe53 Fe9 2.474755 1_555
Fe54 Fe6 2.408155 1_545
C0 Fe24 1.977432 1_555
C0 Fe9 1.977432 1_555
C0 Fe32 1.977432 1_555
C0 Fe43 1.977432 1_555
C0 Fe46 2.014678 1_555
C0 Fe52 2.014678 1_555
C0 Er6 2.814485 1_555
C1 Fe36 1.977432 1_555
C1 Fe25 1.977432 1_555
C1 Fe0 1.977432 1_555
C1 Fe12 1.977432 1_555
C1 Fe46 2.014678 1_665
C1 Fe52 2.014678 1_665
C1 Er2 2.814485 1_555
C2 Fe16 1.977432 1_554
C2 Fe49 1.977432 1_554
C2 Fe45 1.977432 1_555
C2 Fe8 1.977432 1_555
C2 Fe35 2.014678 1_555
C2 Fe7 2.014678 1_554
C2 Er0 2.814485 1_555
C3 Fe15 1.977432 1_554
C3 Fe38 1.977432 1_554
C3 Fe41 1.977432 1_555
C3 Fe5 1.977432 1_555
C3 Fe35 2.014678 1_555
C3 Fe7 2.014678 1_554
C3 Er1 2.814485 1_555
