# generated using pymatgen
data_NdBi2IO4
_symmetry_space_group_name_H-M   'P 1'
_cell_length_a   4.01302800
_cell_length_b   4.01302800
_cell_length_c   9.75808600
_cell_angle_alpha   90.00000000
_cell_angle_beta   90.00000000
_cell_angle_gamma   90.00000000
_symmetry_Int_Tables_number   1
_chemical_formula_structural   NdBi2IO4
_chemical_formula_sum   'Nd1 Bi2 I1 O4'
_cell_volume   157.14805898
_cell_formula_units_Z   1
loop_
 _symmetry_equiv_pos_site_id
 _symmetry_equiv_pos_as_xyz
  1  'x, y, z'
loop_
 _atom_site_type_symbol
 _atom_site_label
 _atom_site_symmetry_multiplicity
 _atom_site_fract_x
 _atom_site_fract_y
 _atom_site_fract_z
 _atom_site_occupancy
  Nd  Nd0  1  0.00000000  0.00000000  0.00000000  1
  Bi  Bi0  1  0.50000000  0.50000000  0.26073900  1
  Bi  Bi1  1  0.50000000  0.50000000  0.73926100  1
  I  I0  1  0.00000000  0.00000000  0.50000000  1
  O  O0  1  0.00000000  0.50000000  0.15001700  1
  O  O1  1  0.50000000  0.00000000  0.84998300  1
  O  O2  1  0.00000000  0.50000000  0.84998300  1
  O  O3  1  0.50000000  0.00000000  0.15001700  1
loop_
_geom_bond_atom_site_label_1
_geom_bond_atom_site_label_2
_geom_bond_distance
_geom_bond_site_symmetry_2
Nd0 O2 2.483755 1_544
Nd0 O1 2.483755 1_554
Nd0 O2 2.483755 1_554
Nd0 O1 2.483755 1_454
Nd0 O3 2.483755 1_455
Nd0 O0 2.483755 1_555
Nd0 O3 2.483755 1_555
Nd0 O0 2.483755 1_545
Bi0 O3 2.278912 1_565
Bi0 O0 2.278912 1_655
Bi0 O3 2.278912 1_555
Bi0 O0 2.278912 1_555
Bi1 O2 2.278912 1_655
Bi1 O1 2.278912 1_555
Bi1 O1 2.278912 1_565
Bi1 O2 2.278912 1_555
