# generated using pymatgen
data_Ce(BO2)3
_symmetry_space_group_name_H-M   'P 1'
_cell_length_a   4.31622300
_cell_length_b   4.49978500
_cell_length_c   18.61514000
_cell_angle_alpha   90.00000000
_cell_angle_beta   90.00000000
_cell_angle_gamma   90.00000000
_symmetry_Int_Tables_number   1
_chemical_formula_structural   Ce(BO2)3
_chemical_formula_sum   'Ce4 B12 O24'
_cell_volume   361.54465475
_cell_formula_units_Z   4
loop_
 _symmetry_equiv_pos_site_id
 _symmetry_equiv_pos_as_xyz
  1  'x, y, z'
loop_
 _atom_site_type_symbol
 _atom_site_label
 _atom_site_symmetry_multiplicity
 _atom_site_fract_x
 _atom_site_fract_y
 _atom_site_fract_z
 _atom_site_occupancy
  Ce  Ce0  1  0.86254700  0.19783900  0.34060300  1
  Ce  Ce1  1  0.86254700  0.80216100  0.84060300  1
  Ce  Ce2  1  0.36254700  0.19783900  0.15939700  1
  Ce  Ce3  1  0.36254700  0.80216100  0.65939700  1
  B  B0  1  0.31823300  0.17704800  0.50152300  1
  B  B1  1  0.86205500  0.64628600  0.21261800  1
  B  B2  1  0.34359200  0.32509100  0.92669100  1
  B  B3  1  0.84359200  0.67490900  0.07330900  1
  B  B4  1  0.34359200  0.67490900  0.42669100  1
  B  B5  1  0.81823300  0.82295200  0.49847700  1
  B  B6  1  0.36205500  0.35371400  0.78738200  1
  B  B7  1  0.36205500  0.64628600  0.28738200  1
  B  B8  1  0.86205500  0.35371400  0.71261800  1
  B  B9  1  0.31823300  0.82295200  0.00152300  1
  B  B10  1  0.84359200  0.32509100  0.57330900  1
  B  B11  1  0.81823300  0.17704800  0.99847700  1
  O  O0  1  0.23351700  0.23221100  0.85575000  1
  O  O1  1  0.26877700  0.36210100  0.43937000  1
  O  O2  1  0.17801700  0.26738900  0.56811700  1
  O  O3  1  0.76877700  0.63789900  0.56063000  1
  O  O4  1  0.85565400  0.32337700  0.20940400  1
  O  O5  1  0.18210900  0.24619500  0.72389300  1
  O  O6  1  0.76877700  0.36210100  0.06063000  1
  O  O7  1  0.17445600  0.12878800  0.98368900  1
  O  O8  1  0.67801700  0.26738900  0.93188300  1
  O  O9  1  0.73351700  0.23221100  0.64425000  1
  O  O10  1  0.18210900  0.75380500  0.22389300  1
  O  O11  1  0.17445600  0.87121200  0.48368900  1
  O  O12  1  0.26877700  0.63789900  0.93937000  1
  O  O13  1  0.68210900  0.24619500  0.77610700  1
  O  O14  1  0.35565400  0.67662300  0.79059600  1
  O  O15  1  0.35565400  0.32337700  0.29059600  1
  O  O16  1  0.23351700  0.76778900  0.35575000  1
  O  O17  1  0.85565400  0.67662300  0.70940400  1
  O  O18  1  0.73351700  0.76778900  0.14425000  1
  O  O19  1  0.67445600  0.12878800  0.51631100  1
  O  O20  1  0.67801700  0.73261100  0.43188300  1
  O  O21  1  0.67445600  0.87121200  0.01631100  1
  O  O22  1  0.68210900  0.75380500  0.27610700  1
  O  O23  1  0.17801700  0.73261100  0.06811700  1
loop_
_geom_bond_atom_site_label_1
_geom_bond_atom_site_label_2
_geom_bond_distance
_geom_bond_site_symmetry_2
Ce0 O15 2.390726 1_655
Ce0 O15 2.443850 1_555
Ce0 O22 2.457687 1_545
Ce0 O4 2.506942 1_555
Ce0 O16 2.527459 1_645
Ce0 O1 2.645937 1_655
Ce0 O20 2.811414 1_545
Ce1 O14 2.390726 1_655
Ce1 O14 2.443850 1_555
Ce1 O13 2.457687 1_565
Ce1 O17 2.506942 1_555
Ce1 O0 2.527459 1_665
Ce1 O12 2.645937 1_655
Ce1 O8 2.811414 1_565
Ce2 O4 2.390726 1_555
Ce2 O4 2.443850 1_455
Ce2 O10 2.457687 1_545
Ce2 O15 2.506942 1_555
Ce2 O18 2.527459 1_545
Ce2 O6 2.645937 1_555
Ce2 O23 2.811414 1_545
Ce3 O17 2.390726 1_555
Ce3 O17 2.443850 1_455
Ce3 O5 2.457687 1_565
Ce3 O14 2.506942 1_555
Ce3 O9 2.527459 1_565
Ce3 O3 2.645937 1_555
Ce3 O2 2.811414 1_565
B0 O2 1.438150 1_555
B0 O1 1.441379 1_555
B0 O11 1.545717 1_545
B0 O19 1.577010 1_555
B1 O4 1.454515 1_555
B1 O10 1.478668 1_655
B1 O18 1.492125 1_555
B1 O22 1.494691 1_555
B2 O12 1.463295 1_555
B2 O0 1.464351 1_555
B2 O8 1.469801 1_555
B2 O7 1.561722 1_555
B3 O6 1.463295 1_555
B3 O18 1.464351 1_555
B3 O23 1.469801 1_655
B3 O21 1.561722 1_555
B4 O1 1.463295 1_555
B4 O16 1.464351 1_555
B4 O20 1.469801 1_555
B4 O11 1.561722 1_555
B5 O20 1.438150 1_555
B5 O3 1.441379 1_555
B5 O19 1.545717 1_565
B5 O11 1.577010 1_655
B6 O14 1.454515 1_555
B6 O13 1.478668 1_555
B6 O0 1.492125 1_555
B6 O5 1.494691 1_555
B7 O15 1.454515 1_555
B7 O22 1.478668 1_555
B7 O16 1.492125 1_555
B7 O10 1.494691 1_555
B8 O17 1.454515 1_555
B8 O5 1.478668 1_655
B8 O9 1.492125 1_555
B8 O13 1.494691 1_555
B9 O23 1.438150 1_555
B9 O12 1.441379 1_554
B9 O7 1.545717 1_564
B9 O21 1.577010 1_555
B10 O3 1.463295 1_555
B10 O9 1.464351 1_555
B10 O2 1.469801 1_655
B10 O19 1.561722 1_555
B11 O8 1.438150 1_555
B11 O6 1.441379 1_556
B11 O21 1.545717 1_546
B11 O7 1.577010 1_655
