# generated using pymatgen
data_Er(Ni2As)2
_symmetry_space_group_name_H-M   'P 1'
_cell_length_a   3.72570018
_cell_length_b   7.17272629
_cell_length_c   7.17272629
_cell_angle_alpha   90.00000000
_cell_angle_beta   90.00000000
_cell_angle_gamma   90.00000000
_symmetry_Int_Tables_number   1
_chemical_formula_structural   Er(Ni2As)2
_chemical_formula_sum   'Er2 Ni8 As4'
_cell_volume   191.67983192
_cell_formula_units_Z   2
loop_
 _symmetry_equiv_pos_site_id
 _symmetry_equiv_pos_as_xyz
  1  'x, y, z'
loop_
 _atom_site_type_symbol
 _atom_site_label
 _atom_site_symmetry_multiplicity
 _atom_site_fract_x
 _atom_site_fract_y
 _atom_site_fract_z
 _atom_site_occupancy
  Er  Er0  1  0.50000000  -0.00000000  0.00000000  1
  Er  Er1  1  0.00000000  0.50000000  0.50000000  1
  Ni  Ni0  1  -0.00000000  0.34522003  0.08775882  1
  Ni  Ni1  1  0.50000000  0.41224118  0.84522003  1
  Ni  Ni2  1  0.50000000  0.58775882  0.15477997  1
  Ni  Ni3  1  -0.00000000  0.65477997  0.91224118  1
  Ni  Ni4  1  0.50000000  0.84522003  0.41224118  1
  Ni  Ni5  1  0.50000000  0.15477997  0.58775882  1
  Ni  Ni6  1  0.00000000  0.08775882  0.34522003  1
  Ni  Ni7  1  -0.00000000  0.91224118  0.65477997  1
  As  As0  1  -0.00000000  0.21827202  0.78172798  1
  As  As1  1  0.50000000  0.71827202  0.71827202  1
  As  As2  1  0.50000000  0.28172798  0.28172798  1
  As  As3  1  -0.00000000  0.78172798  0.21827202  1
loop_
_geom_bond_atom_site_label_1
_geom_bond_atom_site_label_2
_geom_bond_distance
_geom_bond_site_symmetry_2
As0 Ni1 2.369239 1_555
As0 Ni5 2.369239 1_455
As0 Ni5 2.369239 1_555
As0 Ni1 2.369239 1_455
As0 Ni0 2.376443 1_556
As0 Ni7 2.376443 1_545
As0 Er1 2.857783 1_555
As0 Er0 2.893519 1_556
As0 Er0 2.893519 1_456
As1 Ni3 2.369239 1_655
As1 Ni7 2.369239 1_655
As1 Ni3 2.369239 1_555
As1 Ni7 2.369239 1_555
As1 Ni1 2.376443 1_555
As1 Ni4 2.376443 1_555
As1 Er0 2.857783 1_566
As1 Er1 2.893519 1_555
As1 Er1 2.893519 1_655
As2 Ni6 2.369239 1_655
As2 Ni0 2.369239 1_655
As2 Ni0 2.369239 1_555
As2 Ni6 2.369239 1_555
As2 Ni5 2.376443 1_555
As2 Ni2 2.376443 1_555
As2 Er0 2.857783 1_555
As2 Er1 2.893519 1_555
As2 Er1 2.893519 1_655
As3 Ni4 2.369239 1_555
As3 Ni2 2.369239 1_455
As3 Ni2 2.369239 1_555
As3 Ni4 2.369239 1_455
As3 Ni6 2.376443 1_565
As3 Ni3 2.376443 1_554
As3 Er1 2.857783 1_555
As3 Er0 2.893519 1_565
As3 Er0 2.893519 1_465
