# generated using pymatgen
data_Nd10S19
_symmetry_space_group_name_H-M   'P 1'
_cell_length_a   8.96474174
_cell_length_b   8.96474174
_cell_length_c   16.20806906
_cell_angle_alpha   90.00000000
_cell_angle_beta   90.00000000
_cell_angle_gamma   90.00000000
_symmetry_Int_Tables_number   1
_chemical_formula_structural   Nd10S19
_chemical_formula_sum   'Nd20 S38'
_cell_volume   1302.58731349
_cell_formula_units_Z   2
loop_
 _symmetry_equiv_pos_site_id
 _symmetry_equiv_pos_as_xyz
  1  'x, y, z'
loop_
 _atom_site_type_symbol
 _atom_site_label
 _atom_site_symmetry_multiplicity
 _atom_site_fract_x
 _atom_site_fract_y
 _atom_site_fract_z
 _atom_site_occupancy
  Nd  Nd0  1  0.34811946  0.45909937  0.37739282  1
  Nd  Nd1  1  0.75000000  0.25000000  0.88588952  1
  Nd  Nd2  1  0.14564441  0.05567117  0.89725557  1
  Nd  Nd3  1  0.44432883  0.14564441  0.60274443  1
  Nd  Nd4  1  0.65188054  0.54090063  0.62260718  1
  Nd  Nd5  1  0.15188054  0.04090063  0.37739282  1
  Nd  Nd6  1  0.05567117  0.35435559  0.60274443  1
  Nd  Nd7  1  0.54090063  0.84811946  0.87739282  1
  Nd  Nd8  1  0.94432883  0.64564441  0.39725557  1
  Nd  Nd9  1  0.75000000  0.25000000  0.38588952  1
  Nd  Nd10  1  0.35435559  0.44432883  0.89725557  1
  Nd  Nd11  1  0.95909937  0.65188054  0.87739282  1
  Nd  Nd12  1  0.04090063  0.34811946  0.12260718  1
  Nd  Nd13  1  0.85435559  0.94432883  0.10274443  1
  Nd  Nd14  1  0.45909937  0.15188054  0.12260718  1
  Nd  Nd15  1  0.84811946  0.95909937  0.62260718  1
  Nd  Nd16  1  0.25000000  0.75000000  0.61411048  1
  Nd  Nd17  1  0.64564441  0.55567117  0.10274443  1
  Nd  Nd18  1  0.55567117  0.85435559  0.39725557  1
  Nd  Nd19  1  0.25000000  0.75000000  0.11411048  1
  S  S0  1  0.14816362  0.05317805  0.56197810  1
  S  S1  1  0.25000000  0.75000000  0.43414913  1
  S  S2  1  0.42127216  0.61159858  0.74995241  1
  S  S3  1  0.54904320  0.84823293  0.57361103  1
  S  S4  1  0.95095680  0.65176707  0.57361103  1
  S  S5  1  0.53009868  0.30224444  0.75092183  1
  S  S6  1  0.25000000  0.75000000  0.93414913  1
  S  S7  1  0.03009868  0.80224444  0.24907817  1
  S  S8  1  0.46990132  0.69775556  0.24907817  1
  S  S9  1  0.19775556  0.53009868  0.74907817  1
  S  S10  1  0.61159858  0.07872784  0.75004759  1
  S  S11  1  0.75000000  0.25000000  0.06585087  1
  S  S12  1  0.96990132  0.19775556  0.75092183  1
  S  S13  1  0.04904320  0.34823293  0.42638897  1
  S  S14  1  0.69775556  0.03009868  0.25092183  1
  S  S15  1  0.38840142  0.92127216  0.24995241  1
  S  S16  1  0.57872784  0.38840142  0.25004759  1
  S  S17  1  0.35183638  0.44682195  0.56197810  1
  S  S18  1  0.80224444  0.46990132  0.25092183  1
  S  S19  1  0.75000000  0.75000000  0.75000000  1
  S  S20  1  0.55317805  0.85183638  0.06197810  1
  S  S21  1  0.65176707  0.54904320  0.92638897  1
  S  S22  1  0.07872784  0.88840142  0.74995241  1
  S  S23  1  0.34823293  0.45095680  0.07361103  1
  S  S24  1  0.15176707  0.04904320  0.07361103  1
  S  S25  1  0.30224444  0.96990132  0.74907817  1
  S  S26  1  0.85183638  0.94682195  0.43802190  1
  S  S27  1  0.84823293  0.95095680  0.92638897  1
  S  S28  1  0.75000000  0.25000000  0.56585087  1
  S  S29  1  0.11159858  0.57872784  0.24995241  1
  S  S30  1  0.64816362  0.55317805  0.43802190  1
  S  S31  1  0.88840142  0.42127216  0.75004759  1
  S  S32  1  0.94682195  0.64816362  0.06197810  1
  S  S33  1  0.25000000  0.25000000  0.25000000  1
  S  S34  1  0.92127216  0.11159858  0.25004759  1
  S  S35  1  0.05317805  0.35183638  0.93802190  1
  S  S36  1  0.45095680  0.15176707  0.42638897  1
  S  S37  1  0.44682195  0.14816362  0.93802190  1
loop_
_geom_bond_atom_site_label_1
_geom_bond_atom_site_label_2
_geom_bond_distance
_geom_bond_site_symmetry_2
Nd0 S1 2.901867 1_555
Nd0 S33 2.924196 1_555
Nd0 S13 2.967656 1_555
Nd0 S30 2.985313 1_555
Nd0 S16 2.989278 1_555
Nd0 S17 2.993980 1_555
Nd0 S36 3.011884 1_555
Nd0 S29 3.148421 1_555
Nd0 S8 3.177202 1_555
Nd1 S21 2.897124 1_555
Nd1 S27 2.897124 1_545
Nd1 S11 2.916826 1_556
Nd1 S10 2.957117 1_555
Nd1 S31 2.957117 1_555
Nd1 S5 2.981788 1_555
Nd1 S12 2.981788 1_555
Nd1 S37 2.989058 1_555
Nd1 S35 2.989058 1_655
Nd2 S35 2.858843 1_555
Nd2 S24 2.859526 1_556
Nd2 S27 2.865818 1_445
Nd2 S22 2.882467 1_545
Nd2 S25 2.886192 1_545
Nd2 S37 2.900688 1_555
Nd2 S6 2.956656 1_545
Nd2 S12 3.119293 1_455
Nd3 S0 2.858843 1_555
Nd3 S36 2.859526 1_555
Nd3 S3 2.865818 1_545
Nd3 S10 2.882467 1_555
Nd3 S5 2.886192 1_555
Nd3 S17 2.900688 1_555
Nd3 S28 2.956656 1_555
Nd3 S25 3.119293 1_545
Nd4 S28 2.901867 1_555
Nd4 S19 2.924196 1_555
Nd4 S4 2.967656 1_555
Nd4 S17 2.985313 1_555
Nd4 S2 2.989278 1_555
Nd4 S30 2.993980 1_555
Nd4 S3 3.011884 1_555
Nd4 S31 3.148421 1_555
Nd4 S5 3.177202 1_555
Nd5 S1 2.901867 1_545
Nd5 S33 2.924196 1_555
Nd5 S36 2.967656 1_555
Nd5 S26 2.985313 1_445
Nd5 S34 2.989278 1_455
Nd5 S0 2.993980 1_555
Nd5 S13 3.011884 1_555
Nd5 S15 3.148421 1_545
Nd5 S7 3.177202 1_545
Nd6 S17 2.858843 1_555
Nd6 S13 2.859526 1_555
Nd6 S4 2.865818 1_455
Nd6 S31 2.882467 1_455
Nd6 S12 2.886192 1_455
Nd6 S0 2.900688 1_555
Nd6 S28 2.956656 1_455
Nd6 S9 3.119293 1_555
Nd7 S6 2.901867 1_555
Nd7 S19 2.924196 1_555
Nd7 S21 2.967656 1_555
Nd7 S37 2.985313 1_565
Nd7 S10 2.989278 1_565
Nd7 S20 2.993980 1_556
Nd7 S27 3.011884 1_555
Nd7 S2 3.148421 1_555
Nd7 S25 3.177202 1_555
Nd8 S30 2.858843 1_555
Nd8 S4 2.859526 1_555
Nd8 S13 2.865818 1_655
Nd8 S29 2.882467 1_655
Nd8 S7 2.886192 1_655
Nd8 S26 2.900688 1_555
Nd8 S1 2.956656 1_655
Nd8 S18 3.119293 1_555
Nd9 S36 2.897124 1_555
Nd9 S13 2.897124 1_655
Nd9 S28 2.916826 1_555
Nd9 S34 2.957117 1_555
Nd9 S16 2.957117 1_555
Nd9 S14 2.981788 1_555
Nd9 S18 2.981788 1_555
Nd9 S30 2.989058 1_555
Nd9 S26 2.989058 1_545
Nd10 S37 2.858843 1_555
Nd10 S23 2.859526 1_556
Nd10 S21 2.865818 1_555
Nd10 S2 2.882467 1_555
Nd10 S9 2.886192 1_555
Nd10 S35 2.900688 1_555
Nd10 S6 2.956656 1_555
Nd10 S5 3.119293 1_555
Nd11 S6 2.901867 1_655
Nd11 S19 2.924196 1_555
Nd11 S27 2.967656 1_555
Nd11 S35 2.985313 1_655
Nd11 S31 2.989278 1_555
Nd11 S32 2.993980 1_556
Nd11 S21 3.011884 1_555
Nd11 S22 3.148421 1_655
Nd11 S9 3.177202 1_655
Nd12 S11 2.901867 1_455
Nd12 S33 2.924196 1_555
Nd12 S24 2.967656 1_555
Nd12 S32 2.985313 1_455
Nd12 S29 2.989278 1_555
Nd12 S35 2.993980 1_554
Nd12 S23 3.011884 1_555
Nd12 S34 3.148421 1_455
Nd12 S18 3.177202 1_455
Nd13 S32 2.858843 1_555
Nd13 S27 2.859526 1_554
Nd13 S24 2.865818 1_665
Nd13 S34 2.882467 1_565
Nd13 S14 2.886192 1_565
Nd13 S20 2.900688 1_555
Nd13 S11 2.956656 1_565
Nd13 S7 3.119293 1_655
Nd14 S11 2.901867 1_555
Nd14 S33 2.924196 1_555
Nd14 S23 2.967656 1_555
Nd14 S20 2.985313 1_545
Nd14 S15 2.989278 1_545
Nd14 S37 2.993980 1_554
Nd14 S24 3.011884 1_555
Nd14 S16 3.148421 1_555
Nd14 S14 3.177202 1_555
Nd15 S28 2.901867 1_565
Nd15 S19 2.924196 1_555
Nd15 S3 2.967656 1_555
Nd15 S0 2.985313 1_665
Nd15 S22 2.989278 1_655
Nd15 S26 2.993980 1_555
Nd15 S4 3.011884 1_555
Nd15 S10 3.148421 1_565
Nd15 S12 3.177202 1_565
Nd16 S3 2.897124 1_555
Nd16 S4 2.897124 1_455
Nd16 S1 2.916826 1_555
Nd16 S2 2.957117 1_555
Nd16 S22 2.957117 1_555
Nd16 S25 2.981788 1_555
Nd16 S9 2.981788 1_555
Nd16 S17 2.989058 1_555
Nd16 S0 2.989058 1_565
Nd17 S20 2.858843 1_555
Nd17 S21 2.859526 1_554
Nd17 S23 2.865818 1_555
Nd17 S16 2.882467 1_555
Nd17 S18 2.886192 1_555
Nd17 S32 2.900688 1_555
Nd17 S11 2.956656 1_555
Nd17 S8 3.119293 1_555
Nd18 S26 2.858843 1_555
Nd18 S3 2.859526 1_555
Nd18 S36 2.865818 1_565
Nd18 S15 2.882467 1_555
Nd18 S8 2.886192 1_555
Nd18 S30 2.900688 1_555
Nd18 S1 2.956656 1_555
Nd18 S14 3.119293 1_565
Nd19 S23 2.897124 1_555
Nd19 S24 2.897124 1_565
Nd19 S6 2.916826 1_554
Nd19 S15 2.957117 1_555
Nd19 S29 2.957117 1_555
Nd19 S7 2.981788 1_555
Nd19 S8 2.981788 1_555
Nd19 S32 2.989058 1_455
Nd19 S20 2.989058 1_555
S2 S9 2.132863 1_555
S10 S5 2.132863 1_555
S12 S31 2.132863 1_555
S14 S34 2.132863 1_555
S15 S8 2.132863 1_555
S16 S18 2.132863 1_555
S22 S25 2.132863 1_555
S29 S7 2.132863 1_555
