# generated using pymatgen
data_Ho5Ga3
_symmetry_space_group_name_H-M   'P 1'
_cell_length_a   8.52107296
_cell_length_b   8.52107401
_cell_length_c   6.51030646
_cell_angle_alpha   90.00001499
_cell_angle_beta   90.00000000
_cell_angle_gamma   120.00007403
_symmetry_Int_Tables_number   1
_chemical_formula_structural   Ho5Ga3
_chemical_formula_sum   'Ho10 Ga6'
_cell_volume   409.37409911
_cell_formula_units_Z   2
loop_
 _symmetry_equiv_pos_site_id
 _symmetry_equiv_pos_as_xyz
  1  'x, y, z'
loop_
 _atom_site_type_symbol
 _atom_site_label
 _atom_site_symmetry_multiplicity
 _atom_site_fract_x
 _atom_site_fract_y
 _atom_site_fract_z
 _atom_site_occupancy
  Ho  Ho0  1  0.74664049  0.74664113  0.24999900  1
  Ho  Ho1  1  0.00000064  0.25335851  0.25000000  1
  Ho  Ho2  1  0.33333300  0.66666700  -0.00000146  1
  Ho  Ho3  1  0.25335065  0.25335165  0.75000000  1
  Ho  Ho4  1  0.74664935  -0.00000100  0.75000000  1
  Ho  Ho5  1  0.25335887  -0.00000064  0.25000000  1
  Ho  Ho6  1  0.66666700  0.33333300  -0.00000164  1
  Ho  Ho7  1  -0.00000000  0.74665035  0.75000000  1
  Ho  Ho8  1  0.33333300  0.66666700  0.50000146  1
  Ho  Ho9  1  0.66666700  0.33333300  0.50000164  1
  Ga  Ga0  1  -0.00000006  0.39431638  0.75000000  1
  Ga  Ga1  1  0.60569081  0.00000038  0.25000000  1
  Ga  Ga2  1  0.60568362  0.60568256  0.75000000  1
  Ga  Ga3  1  0.39431744  0.00000006  0.75000000  1
  Ga  Ga4  1  -0.00000038  0.60569043  0.25000000  1
  Ga  Ga5  1  0.39430957  0.39430919  0.25000000  1
loop_
_geom_bond_atom_site_label_1
_geom_bond_atom_site_label_2
_geom_bond_distance
_geom_bond_site_symmetry_2
Ho0 Ho2 3.621691 1_555
Ho0 Ho8 3.621697 1_555
Ho0 Ho6 3.621698 1_555
Ho0 Ho9 3.621704 1_555
Ho1 Ho8 3.621694 1_555
Ho1 Ho2 3.621694 1_555
Ho1 Ho9 3.621699 1_455
Ho1 Ho6 3.621700 1_455
Ho2 Ho8 3.255134 1_554
Ho2 Ho8 3.255172 1_555
Ho2 Ho5 3.621687 1_565
Ho2 Ho3 3.621723 1_554
Ho2 Ho4 3.621724 1_564
Ho2 Ho7 3.621729 1_554
Ho3 Ho8 3.621724 1_555
Ho3 Ho6 3.621732 1_556
Ho3 Ho9 3.621733 1_555
Ho4 Ho8 3.621723 1_545
Ho4 Ho6 3.621731 1_556
Ho4 Ho9 3.621732 1_555
Ho5 Ho8 3.621688 1_545
Ho5 Ho9 3.621695 1_555
Ho5 Ho6 3.621696 1_555
Ho6 Ho9 3.255132 1_554
Ho6 Ho9 3.255175 1_555
Ho6 Ho7 3.621731 1_654
Ho7 Ho8 3.621729 1_555
Ho7 Ho9 3.621730 1_455
Ga0 Ho3 2.948971 1_555
Ga0 Ho4 2.948980 1_455
Ga0 Ho7 3.002264 1_555
Ga0 Ho9 3.083932 1_455
Ga0 Ho6 3.083932 1_456
Ga0 Ho2 3.083934 1_556
Ga0 Ho8 3.083934 1_555
Ga0 Ho1 3.469683 1_555
Ga0 Ho1 3.469683 1_556
Ga1 Ho0 2.948940 1_545
Ga1 Ho1 2.948941 1_655
Ga1 Ho5 3.002242 1_555
Ga1 Ho9 3.083959 1_555
Ga1 Ho6 3.083960 1_555
Ga1 Ho2 3.083963 1_545
Ga1 Ho8 3.083964 1_545
Ga1 Ho4 3.469686 1_554
Ga1 Ho4 3.469686 1_555
Ga2 Ho7 2.948972 1_655
Ga2 Ho4 2.948976 1_565
Ga2 Ho3 3.002243 1_555
Ga2 Ho9 3.083933 1_555
Ga2 Ho6 3.083934 1_556
Ga2 Ho2 3.083946 1_556
Ga2 Ho8 3.083946 1_555
Ga2 Ho0 3.469675 1_556
Ga2 Ho0 3.469688 1_555
Ga3 Ho7 2.948979 1_545
Ga3 Ho3 2.948992 1_555
Ga3 Ho4 3.002250 1_555
Ga3 Ho6 3.083930 1_556
Ga3 Ho9 3.083931 1_555
Ga3 Ho8 3.083931 1_545
Ga3 Ho2 3.083932 1_546
Ga3 Ho5 3.469683 1_555
Ga3 Ho5 3.469683 1_556
Ga4 Ho5 2.948937 1_565
Ga4 Ho0 2.948946 1_455
Ga4 Ho1 3.002251 1_555
Ga4 Ho6 3.083959 1_455
Ga4 Ho9 3.083960 1_455
Ga4 Ho8 3.083963 1_555
Ga4 Ho2 3.083963 1_555
Ga4 Ho7 3.469687 1_555
Ga4 Ho7 3.469688 1_554
Ga5 Ho1 2.948936 1_555
Ga5 Ho5 2.948944 1_555
Ga5 Ho0 3.002239 1_555
Ga5 Ho6 3.083967 1_555
Ga5 Ho9 3.083967 1_555
Ga5 Ho8 3.083971 1_555
Ga5 Ho2 3.083972 1_555
Ga5 Ho3 3.469682 1_554
Ga5 Ho3 3.469683 1_555
