# generated using pymatgen
data_Zr2Rh
_symmetry_space_group_name_H-M   'P 1'
_cell_length_a   5.39606627
_cell_length_b   5.39351850
_cell_length_c   5.39606612
_cell_angle_alpha   105.96458748
_cell_angle_beta   106.23017556
_cell_angle_gamma   116.47455873
_symmetry_Int_Tables_number   1
_chemical_formula_structural   Zr2Rh
_chemical_formula_sum   'Zr4 Rh2'
_cell_volume   119.49474130
_cell_formula_units_Z   2
loop_
 _symmetry_equiv_pos_site_id
 _symmetry_equiv_pos_as_xyz
  1  'x, y, z'
loop_
 _atom_site_type_symbol
 _atom_site_label
 _atom_site_symmetry_multiplicity
 _atom_site_fract_x
 _atom_site_fract_y
 _atom_site_fract_z
 _atom_site_occupancy
  Zr  Zr0  1  0.16790017  0.33200073  0.49978563  1
  Zr  Zr1  1  0.83209983  0.66799927  0.50021437  1
  Zr  Zr2  1  0.33221409  0.83200073  0.16409856  1
  Zr  Zr3  1  0.66778591  0.16799927  0.83590144  1
  Rh  Rh0  1  0.24989615  0.25000000  0.99989615  1
  Rh  Rh1  1  0.75010385  0.75000000  0.00010385  1
loop_
_geom_bond_atom_site_label_1
_geom_bond_atom_site_label_2
_geom_bond_distance
_geom_bond_site_symmetry_2
Zr0 Zr1 3.081443 1_455
Zr0 Zr1 3.214048 1_445
Zr0 Zr1 3.214293 1_555
Zr0 Zr3 3.409244 1_454
Zr0 Zr3 3.409263 1_555
Zr0 Zr2 3.417939 1_556
Zr0 Zr2 3.417945 1_545
Zr0 Zr2 3.576696 1_445
Zr0 Zr2 3.576701 1_555
Zr0 Zr3 3.580350 1_565
Zr0 Zr3 3.583972 1_455
Zr1 Zr2 3.409244 1_656
Zr1 Zr2 3.409263 1_555
Zr1 Zr3 3.417939 1_554
Zr1 Zr3 3.417945 1_565
Zr1 Zr3 3.576696 1_665
Zr1 Zr3 3.576701 1_555
Zr1 Zr2 3.580350 1_545
Zr1 Zr2 3.583972 1_655
Zr2 Zr3 3.081461 1_565
Zr2 Zr3 3.214044 1_454
Zr2 Zr3 3.214279 1_564
Rh0 Zr2 2.799430 1_546
Rh0 Zr1 2.799437 1_556
Rh0 Zr3 2.799556 1_455
Rh0 Zr0 2.799561 1_555
Rh0 Zr1 2.800486 1_445
Rh0 Zr2 2.800489 1_556
Rh0 Zr3 2.802305 1_555
Rh0 Zr0 2.802305 1_556
Rh0 Rh1 2.839834 1_556
Rh0 Rh1 2.839834 1_446
Rh1 Zr3 2.799430 1_564
Rh1 Zr0 2.799437 1_554
Rh1 Zr2 2.799556 1_655
Rh1 Zr1 2.799561 1_555
Rh1 Zr0 2.800486 1_665
Rh1 Zr3 2.800489 1_554
Rh1 Zr2 2.802305 1_555
Rh1 Zr1 2.802305 1_554
