# generated using pymatgen
data_NiPS
_symmetry_space_group_name_H-M   'P 1'
_cell_length_a   5.52880283
_cell_length_b   5.52879842
_cell_length_c   5.52878933
_cell_angle_alpha   89.99824656
_cell_angle_beta   89.99831040
_cell_angle_gamma   90.00075453
_symmetry_Int_Tables_number   1
_chemical_formula_structural   NiPS
_chemical_formula_sum   'Ni4 P4 S4'
_cell_volume   169.00202162
_cell_formula_units_Z   4
loop_
 _symmetry_equiv_pos_site_id
 _symmetry_equiv_pos_as_xyz
  1  'x, y, z'
loop_
 _atom_site_type_symbol
 _atom_site_label
 _atom_site_symmetry_multiplicity
 _atom_site_fract_x
 _atom_site_fract_y
 _atom_site_fract_z
 _atom_site_occupancy
  Ni  Ni0  1  0.00624252  0.00624450  0.00624623  1
  Ni  Ni1  1  0.49375320  0.99375700  0.50624603  1
  Ni  Ni2  1  0.50624183  0.49374965  0.99375655  1
  Ni  Ni3  1  0.99375197  0.50624262  0.49375687  1
  P  P0  1  0.61109225  0.61109855  0.61108927  1
  P  P1  1  0.88891022  0.38890742  0.11109249  1
  P  P2  1  0.11110009  0.88891185  0.38890816  1
  P  P3  1  0.38891158  0.11109114  0.88890014  1
  S  S0  1  0.38886674  0.38885474  0.38886889  1
  S  S1  1  0.11115047  0.61114476  0.88884873  1
  S  S2  1  0.88884767  0.11113746  0.61113285  1
  S  S3  1  0.61113246  0.88886031  0.11115179  1
loop_
_geom_bond_atom_site_label_1
_geom_bond_atom_site_label_2
_geom_bond_distance
_geom_bond_site_symmetry_2
Ni0 P2 2.287558 1_545
Ni0 P1 2.287569 1_455
Ni0 P3 2.287575 1_554
Ni0 S3 2.351475 1_445
Ni0 S1 2.351494 1_544
Ni0 S2 2.351519 1_454
Ni1 P3 2.287503 1_565
Ni1 P2 2.287524 1_555
Ni1 P0 2.287530 1_555
Ni1 S0 2.351396 1_565
Ni1 S3 2.351399 1_555
Ni1 S2 2.351405 1_565
Ni2 P3 2.287552 1_555
Ni2 P0 2.287565 1_555
Ni2 P1 2.287599 1_556
Ni2 S0 2.351446 1_556
Ni2 S1 2.351447 1_555
Ni2 S3 2.351518 1_556
Ni3 P0 2.287543 1_555
Ni3 P2 2.287581 1_655
Ni3 P1 2.287585 1_555
Ni3 S2 2.351433 1_555
Ni3 S1 2.351455 1_655
Ni3 S0 2.351507 1_655
P0 S0 2.128142 1_555
P1 S1 2.128157 1_654
P2 S2 2.128160 1_465
P3 S3 2.128161 1_546
