# generated using pymatgen
data_Mg(GaO2)2
_symmetry_space_group_name_H-M   'P 1'
_cell_length_a   5.93022949
_cell_length_b   5.93022949
_cell_length_c   28.98331373
_cell_angle_alpha   89.87551805
_cell_angle_beta   89.87551805
_cell_angle_gamma   60.56344265
_symmetry_Int_Tables_number   1
_chemical_formula_structural   Mg(GaO2)2
_chemical_formula_sum   'Mg12 Ga24 O48'
_cell_volume   887.68352747
_cell_formula_units_Z   12
loop_
 _symmetry_equiv_pos_site_id
 _symmetry_equiv_pos_as_xyz
  1  'x, y, z'
loop_
 _atom_site_type_symbol
 _atom_site_label
 _atom_site_symmetry_multiplicity
 _atom_site_fract_x
 _atom_site_fract_y
 _atom_site_fract_z
 _atom_site_occupancy
  Mg  Mg0  1  0.99461900  0.99461900  0.99914000  1
  Mg  Mg1  1  0.66096300  0.66096300  0.16811600  1
  Mg  Mg2  1  0.16446100  0.16446100  0.10436400  1
  Mg  Mg3  1  0.83251200  0.83251200  0.27170600  1
  Mg  Mg4  1  0.50003800  0.50003800  0.43771700  1
  Mg  Mg5  1  0.66693800  0.66693800  0.35453500  1
  Mg  Mg6  1  0.16664300  0.16664300  0.60415600  1
  Mg  Mg7  1  0.33338400  0.33338400  0.52087800  1
  Mg  Mg8  1  0.83324500  0.83324500  0.77070400  1
  Mg  Mg9  1  0.00003200  0.00003200  0.68745400  1
  Mg  Mg10  1  0.49880500  0.49880500  0.93688000  1
  Mg  Mg11  1  0.66691300  0.66691300  0.85422000  1
  Ga  Ga0  1  0.67358800  0.67358800  0.04112900  1
  Ga  Ga1  1  0.34049800  0.34049800  0.20775700  1
  Ga  Ga2  1  0.33348000  0.33348000  0.01871500  1
  Ga  Ga3  1  0.32633700  0.32633700  0.33316200  1
  Ga  Ga4  1  0.16269200  0.67577200  0.10443900  1
  Ga  Ga5  1  0.67577200  0.16269200  0.10443900  1
  Ga  Ga6  1  0.83143100  0.33766600  0.27196700  1
  Ga  Ga7  1  0.00049800  0.00049800  0.18561300  1
  Ga  Ga8  1  0.00683000  0.00683000  0.37692900  1
  Ga  Ga9  1  0.99315400  0.99315400  0.49847000  1
  Ga  Ga10  1  0.33766600  0.83143100  0.27196700  1
  Ga  Ga11  1  0.67336600  0.67336600  0.54341600  1
  Ga  Ga12  1  0.65999800  0.65999800  0.66494100  1
  Ga  Ga13  1  0.49992300  0.99983800  0.43781000  1
  Ga  Ga14  1  0.99983800  0.49992300  0.43781000  1
  Ga  Ga15  1  0.32678100  0.32678100  0.83082100  1
  Ga  Ga16  1  0.34006900  0.34006900  0.70989500  1
  Ga  Ga17  1  0.16662100  0.66670800  0.60416000  1
  Ga  Ga18  1  0.66670800  0.16662100  0.60416000  1
  Ga  Ga19  1  0.83315600  0.33373300  0.77069400  1
  Ga  Ga20  1  0.00675300  0.00675300  0.87641200  1
  Ga  Ga21  1  0.33373300  0.83315600  0.77069400  1
  Ga  Ga22  1  0.49787600  0.00442700  0.93693900  1
  Ga  Ga23  1  0.00442700  0.49787600  0.93693900  1
  O  O0  1  0.02186400  0.49452600  0.06307300  1
  O  O1  1  0.33752600  0.33752600  0.14216800  1
  O  O2  1  0.49452600  0.02186400  0.06307300  1
  O  O3  1  0.49307700  0.49307700  0.06332200  1
  O  O4  1  0.84330300  0.84330300  0.14450500  1
  O  O5  1  0.68900900  0.16072900  0.22974600  1
  O  O6  1  0.99396000  0.99396000  0.06708300  1
  O  O7  1  0.00499600  0.00499600  0.30957900  1
  O  O8  1  0.83983300  0.30413200  0.14504800  1
  O  O9  1  0.16072900  0.68900900  0.22974600  1
  O  O10  1  0.15955000  0.15955000  0.22985300  1
  O  O11  1  0.30413200  0.83983300  0.14504800  1
  O  O12  1  0.35070000  0.83208500  0.39787800  1
  O  O13  1  0.50255600  0.50255600  0.31128000  1
  O  O14  1  0.65999500  0.65999500  0.23659600  1
  O  O15  1  0.67060000  0.67060000  0.47677800  1
  O  O16  1  0.50034500  0.98621300  0.31124400  1
  O  O17  1  0.83208500  0.35070000  0.39787800  1
  O  O18  1  0.98621300  0.50034500  0.31124400  1
  O  O19  1  0.82839700  0.82839700  0.39798700  1
  O  O20  1  0.01733400  0.49883400  0.56454200  1
  O  O21  1  0.17156400  0.17156400  0.47719600  1
  O  O22  1  0.32911600  0.32911600  0.39922000  1
  O  O23  1  0.33727900  0.33727900  0.64337200  1
  O  O24  1  0.16760800  0.64946100  0.47728200  1
  O  O25  1  0.49883400  0.01733400  0.56454200  1
  O  O26  1  0.64946100  0.16760800  0.47728200  1
  O  O27  1  0.49481900  0.49481900  0.56466000  1
  O  O28  1  0.83856200  0.83856200  0.64366300  1
  O  O29  1  0.68396200  0.16559900  0.73113300  1
  O  O30  1  0.99599300  0.99599300  0.56500200  1
  O  O31  1  0.00391600  0.00391600  0.80997200  1
  O  O32  1  0.83446400  0.31594800  0.64377800  1
  O  O33  1  0.16559900  0.68396200  0.73113300  1
  O  O34  1  0.31594800  0.83446400  0.64377800  1
  O  O35  1  0.16154300  0.16154300  0.73125800  1
  O  O36  1  0.50576300  0.50576300  0.81003700  1
  O  O37  1  0.34979300  0.83302900  0.89799100  1
  O  O38  1  0.66278000  0.66278000  0.73135600  1
  O  O39  1  0.66998100  0.66998100  0.97600500  1
  O  O40  1  0.50155000  0.98173900  0.81020000  1
  O  O41  1  0.83302900  0.34979300  0.89799100  1
  O  O42  1  0.98173900  0.50155000  0.81020000  1
  O  O43  1  0.82894700  0.82894700  0.89830400  1
  O  O44  1  0.17922100  0.17922100  0.97672500  1
  O  O45  1  0.17450200  0.63341000  0.97738800  1
  O  O46  1  0.33013600  0.33013600  0.89632600  1
  O  O47  1  0.63341000  0.17450200  0.97738800  1
loop_
_geom_bond_atom_site_label_1
_geom_bond_atom_site_label_2
_geom_bond_distance
_geom_bond_site_symmetry_2
Mg0 O6 1.969208 1_556
Mg0 O47 1.969961 1_565
Mg0 O45 1.969961 1_655
Mg0 O44 1.997680 1_665
Mg1 O11 1.961326 1_555
Mg1 O8 1.961326 1_555
Mg1 O14 1.984777 1_555
Mg1 O4 1.987371 1_555
Mg2 O8 2.051736 1_455
Mg2 O11 2.051736 1_545
Mg2 O6 2.055870 1_445
Mg2 O0 2.084670 1_555
Mg2 O2 2.084670 1_555
Mg2 O1 2.086211 1_555
Mg3 O14 2.041244 1_555
Mg3 O16 2.062556 1_555
Mg3 O18 2.062556 1_555
Mg3 O7 2.082207 1_665
Mg3 O9 2.087533 1_655
Mg3 O5 2.087533 1_565
Mg4 O24 2.064969 1_555
Mg4 O26 2.064969 1_555
Mg4 O12 2.067718 1_555
Mg4 O17 2.067718 1_555
Mg4 O22 2.078321 1_555
Mg4 O15 2.084080 1_555
Mg5 O12 2.060111 1_555
Mg5 O17 2.060111 1_555
Mg5 O18 2.071637 1_555
Mg5 O16 2.071637 1_555
Mg5 O19 2.081158 1_555
Mg5 O13 2.101648 1_555
Mg6 O25 2.064731 1_555
Mg6 O20 2.064731 1_555
Mg6 O32 2.064808 1_455
Mg6 O34 2.064808 1_545
Mg6 O30 2.086308 1_445
Mg6 O23 2.087169 1_555
Mg7 O24 2.064054 1_555
Mg7 O26 2.064054 1_555
Mg7 O25 2.065092 1_555
Mg7 O20 2.065092 1_555
Mg7 O27 2.086784 1_555
Mg7 O21 2.088152 1_555
Mg8 O40 2.060841 1_555
Mg8 O42 2.060841 1_555
Mg8 O29 2.064763 1_565
Mg8 O33 2.064763 1_655
Mg8 O38 2.087796 1_555
Mg8 O31 2.088294 1_665
Mg9 O32 2.064792 1_455
Mg9 O34 2.064792 1_545
Mg9 O29 2.065459 1_455
Mg9 O33 2.065459 1_545
Mg9 O28 2.087228 1_445
Mg9 O35 2.087791 1_555
Mg10 O47 2.049286 1_555
Mg10 O45 2.049286 1_555
Mg10 O37 2.062232 1_555
Mg10 O41 2.062232 1_555
Mg10 O39 2.090373 1_555
Mg10 O46 2.091923 1_555
Mg11 O40 2.066544 1_555
Mg11 O42 2.066544 1_555
Mg11 O37 2.071379 1_555
Mg11 O41 2.071379 1_555
Mg11 O36 2.091586 1_555
Mg11 O43 2.096997 1_555
Ga0 O39 1.887964 1_554
Ga0 O2 1.909154 1_565
Ga0 O0 1.909154 1_655
Ga0 O3 1.955994 1_555
Ga1 O1 1.901307 1_555
Ga1 O9 1.910821 1_555
Ga1 O5 1.910821 1_555
Ga1 O10 1.959307 1_555
Ga2 O47 1.958204 1_554
Ga2 O45 1.958204 1_554
Ga2 O44 1.996753 1_554
Ga2 O2 2.059174 1_555
Ga2 O0 2.059174 1_555
Ga2 O3 2.086648 1_555
Ga3 O16 1.869124 1_545
Ga3 O18 1.869124 1_455
Ga3 O13 1.911546 1_555
Ga3 O22 1.914863 1_555
Ga4 O11 1.961322 1_555
Ga4 O6 1.968238 1_455
Ga4 O4 2.017131 1_455
Ga4 O0 2.045091 1_555
Ga4 O1 2.060458 1_555
Ga4 O3 2.083670 1_555
Ga5 O8 1.961322 1_555
Ga5 O6 1.968238 1_545
Ga5 O4 2.017131 1_545
Ga5 O2 2.045091 1_555
Ga5 O1 2.060458 1_555
Ga5 O3 2.083670 1_555
Ga6 O14 1.955561 1_555
Ga6 O18 1.987165 1_555
Ga6 O7 2.034551 1_655
Ga6 O13 2.044214 1_555
Ga6 O5 2.047663 1_555
Ga6 O10 2.089707 1_655
Ga7 O8 1.960022 1_455
Ga7 O11 1.960022 1_545
Ga7 O4 2.005332 1_445
Ga7 O5 2.054499 1_455
Ga7 O9 2.054499 1_545
Ga7 O10 2.075661 1_555
Ga8 O12 1.877902 1_545
Ga8 O17 1.877902 1_455
Ga8 O19 1.925306 1_445
Ga8 O7 1.952164 1_555
Ga9 O24 1.879276 1_655
Ga9 O26 1.879276 1_565
Ga9 O21 1.927061 1_665
Ga9 O30 1.928610 1_555
Ga10 O14 1.955561 1_555
Ga10 O16 1.987165 1_555
Ga10 O7 2.034551 1_565
Ga10 O13 2.044214 1_555
Ga10 O9 2.047663 1_555
Ga10 O10 2.089707 1_565
Ga11 O20 1.880025 1_655
Ga11 O25 1.880025 1_565
Ga11 O27 1.928115 1_555
Ga11 O15 1.931669 1_555
Ga12 O32 1.880765 1_555
Ga12 O34 1.880765 1_555
Ga12 O38 1.925209 1_555
Ga12 O28 1.928592 1_555
Ga13 O26 1.990385 1_565
Ga13 O12 1.996745 1_555
Ga13 O22 2.035014 1_565
Ga13 O15 2.040855 1_555
Ga13 O21 2.044063 1_565
Ga13 O19 2.051579 1_555
Ga14 O24 1.990385 1_655
Ga14 O17 1.996745 1_555
Ga14 O22 2.035014 1_655
Ga14 O15 2.040855 1_555
Ga14 O21 2.044063 1_655
Ga14 O19 2.051579 1_555
Ga15 O40 1.880521 1_545
Ga15 O42 1.880521 1_455
Ga15 O46 1.898949 1_555
Ga15 O36 1.928163 1_555
Ga16 O29 1.880720 1_555
Ga16 O33 1.880720 1_555
Ga16 O23 1.928341 1_555
Ga16 O35 1.929007 1_555
Ga17 O34 1.991904 1_555
Ga17 O20 1.992243 1_555
Ga17 O30 2.044093 1_455
Ga17 O28 2.044724 1_455
Ga17 O27 2.045264 1_555
Ga17 O23 2.045572 1_555
Ga18 O32 1.991904 1_555
Ga18 O25 1.992243 1_555
Ga18 O30 2.044093 1_545
Ga18 O28 2.044724 1_545
Ga18 O27 2.045264 1_555
Ga18 O23 2.045572 1_555
Ga19 O42 1.987238 1_555
Ga19 O29 1.992017 1_555
Ga19 O36 2.039383 1_555
Ga19 O35 2.045076 1_655
Ga19 O38 2.045947 1_555
Ga19 O31 2.048285 1_655
Ga20 O41 1.879804 1_455
Ga20 O37 1.879804 1_545
Ga20 O31 1.925944 1_555
Ga20 O43 1.926982 1_445
Ga21 O40 1.987238 1_555
Ga21 O33 1.992017 1_555
Ga21 O36 2.039383 1_555
Ga21 O35 2.045076 1_565
Ga21 O38 2.045947 1_555
Ga21 O31 2.048285 1_565
Ga22 O47 1.960530 1_555
Ga22 O37 1.991289 1_545
Ga22 O44 2.011348 1_555
Ga22 O43 2.044202 1_545
Ga22 O46 2.052446 1_555
Ga22 O39 2.064686 1_545
Ga23 O45 1.960530 1_555
Ga23 O41 1.991289 1_455
Ga23 O44 2.011348 1_555
Ga23 O43 2.044202 1_455
Ga23 O46 2.052446 1_555
Ga23 O39 2.064686 1_455
