# generated using pymatgen
data_CdI2
_symmetry_space_group_name_H-M   'P 1'
_cell_length_a   4.33645149
_cell_length_b   4.33645149
_cell_length_c   88.90417200
_cell_angle_alpha   90.00000000
_cell_angle_beta   90.00000000
_cell_angle_gamma   119.99999215
_symmetry_Int_Tables_number   1
_chemical_formula_structural   CdI2
_chemical_formula_sum   'Cd12 I24'
_cell_volume   1447.84406984
_cell_formula_units_Z   12
loop_
 _symmetry_equiv_pos_site_id
 _symmetry_equiv_pos_as_xyz
  1  'x, y, z'
loop_
 _atom_site_type_symbol
 _atom_site_label
 _atom_site_symmetry_multiplicity
 _atom_site_fract_x
 _atom_site_fract_y
 _atom_site_fract_z
 _atom_site_occupancy
  Cd  Cd0  1  0.33333300  0.66666700  0.93748100  1
  Cd  Cd1  1  0.33333300  0.66666700  0.60414600  1
  Cd  Cd2  1  0.66666700  0.33333300  0.02084800  1
  Cd  Cd3  1  0.66666700  0.33333300  0.18751000  1
  Cd  Cd4  1  0.00000000  0.00000000  0.85415900  1
  Cd  Cd5  1  0.66666700  0.33333300  0.35417700  1
  Cd  Cd6  1  0.33333300  0.66666700  0.27081600  1
  Cd  Cd7  1  0.00000000  0.00000000  0.52082400  1
  Cd  Cd8  1  0.66666700  0.33333300  0.68751500  1
  Cd  Cd9  1  0.33333300  0.66666700  0.10415000  1
  Cd  Cd10  1  0.33333300  0.66666700  0.77081500  1
  Cd  Cd11  1  0.33333300  0.66666700  0.43748300  1
  I  I0  1  0.00000000  0.00000000  0.16813200  1
  I  I1  1  0.66666700  0.33333300  0.95688400  1
  I  I2  1  0.66666700  0.33333300  0.45688400  1
  I  I3  1  0.00000000  0.00000000  0.41810600  1
  I  I4  1  0.33333300  0.66666700  0.20690900  1
  I  I5  1  0.33333300  0.66666700  0.70691300  1
  I  I6  1  0.00000000  0.00000000  0.66813800  1
  I  I7  1  0.66666700  0.33333300  0.62355000  1
  I  I8  1  0.66666700  0.33333300  0.79021700  1
  I  I9  1  0.66666700  0.33333300  0.87356500  1
  I  I10  1  0.00000000  0.00000000  0.91809600  1
  I  I11  1  0.00000000  0.00000000  0.58476300  1
  I  I12  1  0.33333300  0.66666700  0.04024400  1
  I  I13  1  0.00000000  0.00000000  0.75143400  1
  I  I14  1  0.00000000  0.00000000  0.08477200  1
  I  I15  1  0.00000000  0.00000000  0.33480000  1
  I  I16  1  0.33333300  0.66666700  0.37357500  1
  I  I17  1  0.66666700  0.33333300  0.29021800  1
  I  I18  1  0.33333300  0.66666700  0.83476200  1
  I  I19  1  0.00000000  0.00000000  0.00147000  1
  I  I20  1  0.66666700  0.33333300  0.54022900  1
  I  I21  1  0.66666700  0.33333300  0.12355200  1
  I  I22  1  0.33333300  0.66666700  0.50142800  1
  I  I23  1  0.00000000  0.00000000  0.25143400  1
loop_
_geom_bond_atom_site_label_1
_geom_bond_atom_site_label_2
_geom_bond_distance
_geom_bond_site_symmetry_2
Cd0 I10 3.039472 1_565
Cd0 I10 3.039475 1_665
Cd0 I10 3.039475 1_555
Cd0 I1 3.040380 1_455
Cd0 I1 3.040380 1_565
Cd0 I1 3.040386 1_555
Cd1 I11 3.039371 1_565
Cd1 I11 3.039375 1_555
Cd1 I11 3.039375 1_665
Cd1 I7 3.040430 1_455
Cd1 I7 3.040430 1_565
Cd1 I7 3.040436 1_555
Cd2 I19 3.039119 1_655
Cd2 I19 3.039123 1_665
Cd2 I19 3.039123 1_555
Cd2 I12 3.040027 1_545
Cd2 I12 3.040027 1_655
Cd2 I12 3.040033 1_555
Cd3 I0 3.039119 1_655
Cd3 I0 3.039123 1_665
Cd3 I0 3.039123 1_555
Cd3 I4 3.040178 1_545
Cd3 I4 3.040178 1_655
Cd3 I4 3.040184 1_555
Cd4 I18 3.040077 1_545
Cd4 I18 3.040080 1_445
Cd4 I18 3.040080 1_555
Cd4 I9 3.040531 1_455
Cd4 I9 3.040534 1_445
Cd4 I9 3.040534 1_555
Cd5 I15 3.039069 1_655
Cd5 I15 3.039072 1_555
Cd5 I15 3.039072 1_665
Cd5 I16 3.040128 1_545
Cd5 I16 3.040128 1_655
Cd5 I16 3.040134 1_555
Cd6 I23 3.039321 1_565
Cd6 I23 3.039324 1_665
Cd6 I23 3.039324 1_555
Cd6 I17 3.040330 1_455
Cd6 I17 3.040330 1_565
Cd6 I17 3.040335 1_555
Cd7 I22 3.040027 1_545
Cd7 I22 3.040030 1_445
Cd7 I22 3.040030 1_555
Cd7 I20 3.040481 1_455
Cd7 I20 3.040484 1_555
Cd7 I20 3.040484 1_445
Cd8 I6 3.039069 1_655
Cd8 I6 3.039072 1_665
Cd8 I6 3.039072 1_555
Cd8 I5 3.040128 1_545
Cd8 I5 3.040128 1_655
Cd8 I5 3.040134 1_555
Cd9 I14 3.039119 1_565
Cd9 I14 3.039123 1_665
Cd9 I14 3.039123 1_555
Cd9 I21 3.040330 1_455
Cd9 I21 3.040330 1_565
Cd9 I21 3.040335 1_555
Cd10 I13 3.039270 1_565
Cd10 I13 3.039274 1_555
Cd10 I13 3.039274 1_665
Cd10 I8 3.040330 1_455
Cd10 I8 3.040330 1_565
Cd10 I8 3.040335 1_555
Cd11 I3 3.039069 1_565
Cd11 I3 3.039072 1_665
Cd11 I3 3.039072 1_555
Cd11 I2 3.040279 1_565
Cd11 I2 3.040279 1_455
Cd11 I2 3.040285 1_555
