# generated using pymatgen
data_La2Hf2O7
_symmetry_space_group_name_H-M   'P 1'
_cell_length_a   7.54241671
_cell_length_b   7.54241671
_cell_length_c   7.54241671
_cell_angle_alpha   60.00000000
_cell_angle_beta   60.00000000
_cell_angle_gamma   60.00000000
_symmetry_Int_Tables_number   1
_chemical_formula_structural   La2Hf2O7
_chemical_formula_sum   'La4 Hf4 O14'
_cell_volume   303.40069457
_cell_formula_units_Z   2
loop_
 _symmetry_equiv_pos_site_id
 _symmetry_equiv_pos_as_xyz
  1  'x, y, z'
loop_
 _atom_site_type_symbol
 _atom_site_label
 _atom_site_symmetry_multiplicity
 _atom_site_fract_x
 _atom_site_fract_y
 _atom_site_fract_z
 _atom_site_occupancy
  La  La0  1  0.62500000  0.62500000  0.12500000  1
  La  La1  1  0.62500000  0.62500000  0.62500000  1
  La  La2  1  0.12500000  0.62500000  0.62500000  1
  La  La3  1  0.62500000  0.12500000  0.62500000  1
  Hf  Hf0  1  0.12500000  0.12500000  0.12500000  1
  Hf  Hf1  1  0.62500000  0.12500000  0.12500000  1
  Hf  Hf2  1  0.12500000  0.62500000  0.12500000  1
  Hf  Hf3  1  0.12500000  0.12500000  0.62500000  1
  O  O0  1  0.76161500  0.76161500  0.23838500  1
  O  O1  1  0.76161500  0.23838500  0.23838500  1
  O  O2  1  0.23838500  0.76161500  0.23838500  1
  O  O3  1  0.23838500  0.23838500  0.76161500  1
  O  O4  1  0.01161500  0.48838500  0.01161500  1
  O  O5  1  0.48838500  0.01161500  0.01161500  1
  O  O6  1  0.48838500  0.01161500  0.48838500  1
  O  O7  1  0.25000000  0.25000000  0.25000000  1
  O  O8  1  0.01161500  0.48838500  0.48838500  1
  O  O9  1  0.23838500  0.76161500  0.76161500  1
  O  O10  1  0.76161500  0.23838500  0.76161500  1
  O  O11  1  0.00000000  0.00000000  0.00000000  1
  O  O12  1  0.48838500  0.48838500  0.01161500  1
  O  O13  1  0.01161500  0.01161500  0.48838500  1
loop_
_geom_bond_atom_site_label_1
_geom_bond_atom_site_label_2
_geom_bond_distance
_geom_bond_site_symmetry_2
La0 O1 2.383061 1_555
La0 O4 2.383061 1_655
La0 O12 2.383061 1_555
La0 O2 2.383061 1_555
La0 O5 2.383061 1_565
La0 O0 2.383061 1_555
La1 O12 2.383061 1_556
La1 O9 2.383061 1_555
La1 O6 2.383061 1_565
La1 O10 2.383061 1_555
La1 O8 2.383061 1_655
La1 O0 2.383061 1_555
La2 O13 2.383061 1_565
La2 O4 2.383061 1_556
La2 O8 2.383061 1_555
La2 O2 2.383061 1_555
La2 O3 2.383061 1_555
La2 O9 2.383061 1_555
La3 O5 2.383061 1_556
La3 O6 2.383061 1_555
La3 O1 2.383061 1_555
La3 O13 2.383061 1_655
La3 O3 2.383061 1_555
La3 O10 2.383061 1_555
Hf0 O1 2.240140 1_455
Hf0 O2 2.240140 1_545
Hf0 O3 2.240140 1_554
Hf0 O13 2.240140 1_555
Hf0 O4 2.240140 1_555
Hf0 O5 2.240140 1_555
Hf0 O11 2.309384 1_555
Hf0 O7 2.309384 1_555
Hf1 O0 2.240140 1_545
Hf1 O5 2.240140 1_555
Hf1 O6 2.240140 1_555
Hf1 O10 2.240140 1_554
Hf1 O12 2.240140 1_555
Hf1 O1 2.240140 1_555
Hf1 O11 2.309384 1_655
Hf1 O7 2.309384 1_555
Hf2 O0 2.240140 1_455
Hf2 O9 2.240140 1_554
Hf2 O8 2.240140 1_555
Hf2 O4 2.240140 1_555
Hf2 O12 2.240140 1_555
Hf2 O2 2.240140 1_555
Hf2 O11 2.309384 1_565
Hf2 O7 2.309384 1_555
Hf3 O10 2.240140 1_455
Hf3 O9 2.240140 1_545
Hf3 O13 2.240140 1_555
Hf3 O8 2.240140 1_555
Hf3 O3 2.240140 1_555
Hf3 O6 2.240140 1_555
Hf3 O11 2.309384 1_556
Hf3 O7 2.309384 1_555
