# generated using pymatgen
data_LaBC
_symmetry_space_group_name_H-M   'P 1'
_cell_length_a   8.68048596
_cell_length_b   8.72256032
_cell_length_c   12.39301543
_cell_angle_alpha   90.00000000
_cell_angle_beta   90.00000000
_cell_angle_gamma   90.00000000
_symmetry_Int_Tables_number   1
_chemical_formula_structural   LaBC
_chemical_formula_sum   'La20 B20 C20'
_cell_volume   938.35032954
_cell_formula_units_Z   20
loop_
 _symmetry_equiv_pos_site_id
 _symmetry_equiv_pos_as_xyz
  1  'x, y, z'
loop_
 _atom_site_type_symbol
 _atom_site_label
 _atom_site_symmetry_multiplicity
 _atom_site_fract_x
 _atom_site_fract_y
 _atom_site_fract_z
 _atom_site_occupancy
  La  La0  1  0.16187823  0.59307881  0.40375749  1
  La  La1  1  0.75497392  0.79021412  0.32523610  1
  La  La2  1  0.84159239  0.49316435  0.57863766  1
  La  La3  1  0.44842858  0.90339174  0.14225495  1
  La  La4  1  0.34159239  0.00683565  0.42136234  1
  La  La5  1  0.25497392  0.70978588  0.67476390  1
  La  La6  1  0.74502608  0.20978588  0.82523610  1
  La  La7  1  0.55157142  0.40339174  0.35774505  1
  La  La8  1  0.93880763  0.19590285  0.36963789  1
  La  La9  1  0.94842858  0.59660826  0.85774505  1
  La  La10  1  0.33812177  0.40692119  0.90375749  1
  La  La11  1  0.65840761  0.50683565  0.07863766  1
  La  La12  1  0.24502608  0.29021412  0.17476390  1
  La  La13  1  0.15840761  0.99316435  0.92136234  1
  La  La14  1  0.05157142  0.09660826  0.64225495  1
  La  La15  1  0.66187823  0.90692119  0.59624251  1
  La  La16  1  0.43880763  0.30409715  0.63036211  1
  La  La17  1  0.83812177  0.09307881  0.09624251  1
  La  La18  1  0.06119237  0.69590285  0.13036211  1
  La  La19  1  0.56119237  0.80409715  0.86963789  1
  B  B0  1  0.56037997  0.19980341  0.17904917  1
  B  B1  1  0.48125748  0.11321678  0.96129240  1
  B  B2  1  0.81608582  0.81073050  0.00598229  1
  B  B3  1  0.61834458  0.10484163  0.28587271  1
  B  B4  1  0.51874252  0.61321678  0.53870760  1
  B  B5  1  0.90298969  0.46812438  0.25617752  1
  B  B6  1  0.88165542  0.89515837  0.78587271  1
  B  B7  1  0.40298969  0.03187562  0.74382248  1
  B  B8  1  0.01874252  0.88678322  0.46129240  1
  B  B9  1  0.18391418  0.31073050  0.49401771  1
  B  B10  1  0.98125748  0.38678322  0.03870760  1
  B  B11  1  0.93962003  0.80019659  0.67904917  1
  B  B12  1  0.43962003  0.69980341  0.32095083  1
  B  B13  1  0.59701031  0.53187562  0.75617752  1
  B  B14  1  0.06037997  0.30019659  0.82095083  1
  B  B15  1  0.68391418  0.18926950  0.50598229  1
  B  B16  1  0.31608582  0.68926950  0.99401771  1
  B  B17  1  0.11834458  0.39515837  0.71412729  1
  B  B18  1  0.38165542  0.60484163  0.21412729  1
  B  B19  1  0.09701031  0.96812438  0.24382248  1
  C  C0  1  0.02404862  0.30716058  0.93772245  1
  C  C1  1  0.05566094  0.88995138  0.34496584  1
  C  C2  1  0.55566094  0.61004862  0.65503416  1
  C  C3  1  0.13932218  0.99928972  0.13218845  1
  C  C4  1  0.94433906  0.38995138  0.15503416  1
  C  C5  1  0.24740648  0.29723332  0.38539944  1
  C  C6  1  0.35439216  0.60840065  0.09509545  1
  C  C7  1  0.25259352  0.70276668  0.88539944  1
  C  C8  1  0.97595138  0.80716058  0.56227755  1
  C  C9  1  0.44433906  0.11004862  0.84496584  1
  C  C10  1  0.47595138  0.69283942  0.43772245  1
  C  C11  1  0.85439216  0.89159935  0.90490455  1
  C  C12  1  0.36067782  0.00071028  0.63218845  1
  C  C13  1  0.52404862  0.19283942  0.06227755  1
  C  C14  1  0.74740648  0.20276668  0.61460056  1
  C  C15  1  0.75259352  0.79723332  0.11460056  1
  C  C16  1  0.63932218  0.50071028  0.86781155  1
  C  C17  1  0.14560784  0.39159935  0.59509545  1
  C  C18  1  0.64560784  0.10840065  0.40490455  1
  C  C19  1  0.86067782  0.49928972  0.36781155  1
loop_
_geom_bond_atom_site_label_1
_geom_bond_atom_site_label_2
_geom_bond_distance
_geom_bond_site_symmetry_2
B0 C13 1.482363 1_555
B0 La17 2.780708 1_555
B0 La3 2.799457 1_545
B0 La7 2.839669 1_555
B0 La12 2.849250 1_555
B0 La11 3.073251 1_555
B1 C9 1.477085 1_555
B1 C13 1.478716 1_556
B1 La3 2.908687 1_546
B1 La10 2.935181 1_555
B1 La6 2.965647 1_555
B1 La19 3.006956 1_545
B1 La13 3.032393 1_545
B2 C15 1.459324 1_555
B2 C11 1.475563 1_554
B2 La17 2.711684 1_565
B2 La19 2.784617 1_554
B2 La18 2.811778 1_655
B2 La9 2.860591 1_554
B2 La11 3.116182 1_555
B3 C18 1.494349 1_555
B3 La7 2.812612 1_555
B3 La3 2.903616 1_545
B3 La17 3.028704 1_555
B3 La1 3.029207 1_545
B3 La4 3.053114 1_555
B3 La8 3.073568 1_555
B4 C2 1.477085 1_555
B4 C10 1.478716 1_555
B4 La7 2.908687 1_555
B4 La15 2.935181 1_555
B4 La5 2.965647 1_555
B4 La16 3.006956 1_555
B4 La2 3.032393 1_555
B5 C19 1.456990 1_555
B5 C4 1.471383 1_555
B5 La8 2.777037 1_555
B5 La18 2.874807 1_655
B5 La11 3.076142 1_555
B5 La0 3.095689 1_655
B6 C11 1.494349 1_555
B6 La9 2.812612 1_555
B6 La14 2.903616 1_665
B6 La15 3.028704 1_555
B6 La6 3.029207 1_565
B6 La13 3.053114 1_655
B6 La19 3.073568 1_555
B7 C12 1.456990 1_555
B7 C9 1.471383 1_555
B7 La16 2.777037 1_555
B7 La19 2.874807 1_545
B7 La13 3.076142 1_545
B7 La15 3.095689 1_545
B8 C1 1.477085 1_555
B8 C8 1.478716 1_455
B8 La14 2.908687 1_565
B8 La0 2.935181 1_555
B8 La1 2.965647 1_455
B8 La8 3.006956 1_465
B8 La4 3.032393 1_565
B9 C5 1.459324 1_555
B9 C17 1.475563 1_555
B9 La0 2.711684 1_555
B9 La16 2.784617 1_555
B9 La8 2.811778 1_455
B9 La14 2.860591 1_555
B9 La4 3.116182 1_555
B10 C4 1.477085 1_555
B10 C0 1.478716 1_654
B10 La9 2.908687 1_554
B10 La17 2.935181 1_555
B10 La12 2.965647 1_655
B10 La18 3.006956 1_655
B10 La11 3.032393 1_555
B11 C8 1.482363 1_555
B11 La15 2.780708 1_555
B11 La14 2.799457 1_665
B11 La9 2.839669 1_555
B11 La5 2.849250 1_655
B11 La2 3.073251 1_555
B12 C10 1.482363 1_555
B12 La0 2.780708 1_555
B12 La7 2.799457 1_555
B12 La3 2.839669 1_555
B12 La1 2.849250 1_555
B12 La4 3.073251 1_565
B13 C16 1.456990 1_555
B13 C2 1.471383 1_555
B13 La19 2.777037 1_555
B13 La16 2.874807 1_555
B13 La2 3.076142 1_555
B13 La10 3.095689 1_555
B14 C0 1.482363 1_555
B14 La10 2.780708 1_555
B14 La9 2.799457 1_455
B14 La14 2.839669 1_555
B14 La6 2.849250 1_455
B14 La13 3.073251 1_545
B15 C14 1.459324 1_555
B15 C18 1.475563 1_555
B15 La15 2.711684 1_545
B15 La8 2.784617 1_555
B15 La16 2.811778 1_555
B15 La7 2.860591 1_555
B15 La2 3.116182 1_555
B16 C7 1.459324 1_555
B16 C6 1.475563 1_556
B16 La10 2.711684 1_555
B16 La18 2.784617 1_556
B16 La19 2.811778 1_555
B16 La3 2.860591 1_556
B16 La13 3.116182 1_555
B17 C17 1.494349 1_555
B17 La14 2.812612 1_555
B17 La9 2.903616 1_455
B17 La10 3.028704 1_555
B17 La5 3.029207 1_555
B17 La2 3.053114 1_455
B17 La16 3.073568 1_555
B18 C6 1.494349 1_555
B18 La3 2.812612 1_555
B18 La7 2.903616 1_555
B18 La0 3.028704 1_555
B18 La12 3.029207 1_555
B18 La11 3.053114 1_555
B18 La18 3.073568 1_555
B19 C3 1.456990 1_555
B19 C1 1.471383 1_555
B19 La18 2.777037 1_555
B19 La8 2.874807 1_465
B19 La4 3.076142 1_565
B19 La17 3.095689 1_465
C0 La9 2.790613 1_455
C0 La10 2.892598 1_555
C0 La6 2.920805 1_455
C0 La13 2.983735 1_545
C0 La17 3.154548 1_456
C1 La1 2.762118 1_455
C1 La0 2.843666 1_555
C1 La4 2.845397 1_565
C1 La8 2.871278 1_465
C1 La18 3.152873 1_555
C2 La5 2.762118 1_555
C2 La15 2.843666 1_555
C2 La2 2.845397 1_555
C2 La16 2.871278 1_555
C2 La19 3.152873 1_555
C3 La13 2.618564 1_554
C3 La18 2.731928 1_555
C3 La12 2.749502 1_565
C3 La17 2.775547 1_465
C3 La3 2.813323 1_555
C4 La12 2.762118 1_655
C4 La17 2.843666 1_555
C4 La11 2.845397 1_555
C4 La18 2.871278 1_655
C4 La8 3.152873 1_555
C5 La12 2.611209 1_555
C5 La0 2.694827 1_555
C5 La4 2.698744 1_555
C5 La7 2.818877 1_555
C5 La8 2.827591 1_455
C6 La18 2.692802 1_555
C6 La3 2.761996 1_555
C6 La11 2.791194 1_555
C6 La10 2.954879 1_554
C6 La12 3.094987 1_555
C7 La5 2.611209 1_555
C7 La10 2.694827 1_555
C7 La13 2.698744 1_555
C7 La9 2.818877 1_455
C7 La19 2.827591 1_555
C8 La14 2.790613 1_665
C8 La15 2.892598 1_555
C8 La5 2.920805 1_655
C8 La2 2.983735 1_555
C8 La0 3.154548 1_655
C9 La6 2.762118 1_555
C9 La10 2.843666 1_555
C9 La13 2.845397 1_545
C9 La19 2.871278 1_545
C9 La16 3.152873 1_555
C10 La7 2.790613 1_555
C10 La0 2.892598 1_555
C10 La1 2.920805 1_555
C10 La4 2.983735 1_565
C10 La15 3.154548 1_555
C11 La19 2.692802 1_555
C11 La9 2.761996 1_555
C11 La13 2.791194 1_655
C11 La17 2.954879 1_566
C11 La6 3.094987 1_565
C12 La4 2.618564 1_555
C12 La16 2.731928 1_555
C12 La5 2.749502 1_545
C12 La15 2.775547 1_545
C12 La14 2.813323 1_555
C13 La3 2.790613 1_545
C13 La17 2.892598 1_555
C13 La12 2.920805 1_555
C13 La11 2.983735 1_555
C13 La10 3.154548 1_554
C14 La6 2.611209 1_555
C14 La15 2.694827 1_545
C14 La2 2.698744 1_555
C14 La14 2.818877 1_655
C14 La16 2.827591 1_555
C15 La1 2.611209 1_555
C15 La17 2.694827 1_565
C15 La11 2.698744 1_555
C15 La3 2.818877 1_555
C15 La18 2.827591 1_655
C16 La11 2.618564 1_556
C16 La19 2.731928 1_555
C16 La6 2.749502 1_555
C16 La10 2.775547 1_555
C16 La9 2.813323 1_555
C17 La16 2.692802 1_555
C17 La14 2.761996 1_555
C17 La2 2.791194 1_455
C17 La0 2.954879 1_555
C17 La5 3.094987 1_555
C18 La8 2.692802 1_555
C18 La7 2.761996 1_555
C18 La4 2.791194 1_555
C18 La15 2.954879 1_545
C18 La1 3.094987 1_545
C19 La2 2.618564 1_555
C19 La8 2.731928 1_555
C19 La1 2.749502 1_555
C19 La0 2.775547 1_655
C19 La7 2.813323 1_555
