# generated using pymatgen
data_Ce3S3N
_symmetry_space_group_name_H-M   'P 1'
_cell_length_a   4.08421106
_cell_length_b   12.10286801
_cell_length_c   13.03522584
_cell_angle_alpha   90.00000000
_cell_angle_beta   90.00000000
_cell_angle_gamma   90.00000000
_symmetry_Int_Tables_number   1
_chemical_formula_structural   Ce3S3N
_chemical_formula_sum   'Ce12 S12 N4'
_cell_volume   644.33991277
_cell_formula_units_Z   4
loop_
 _symmetry_equiv_pos_site_id
 _symmetry_equiv_pos_as_xyz
  1  'x, y, z'
loop_
 _atom_site_type_symbol
 _atom_site_label
 _atom_site_symmetry_multiplicity
 _atom_site_fract_x
 _atom_site_fract_y
 _atom_site_fract_z
 _atom_site_occupancy
  Ce  Ce0  1  0.75000000  0.40676668  0.87447696  1
  Ce  Ce1  1  0.25000000  0.59323332  0.12552304  1
  Ce  Ce2  1  0.75000000  0.90676668  0.62552304  1
  Ce  Ce3  1  0.25000000  0.09323332  0.37447696  1
  Ce  Ce4  1  0.75000000  0.77042338  0.86924755  1
  Ce  Ce5  1  0.25000000  0.22957662  0.13075245  1
  Ce  Ce6  1  0.75000000  0.27042338  0.63075245  1
  Ce  Ce7  1  0.25000000  0.72957662  0.36924755  1
  Ce  Ce8  1  0.75000000  0.96547018  0.15237078  1
  Ce  Ce9  1  0.25000000  0.03452982  0.84762922  1
  Ce  Ce10  1  0.75000000  0.46547018  0.34762922  1
  Ce  Ce11  1  0.25000000  0.53452982  0.65237078  1
  S  S0  1  0.75000000  0.64208197  0.50236336  1
  S  S1  1  0.25000000  0.35791803  0.49763664  1
  S  S2  1  0.75000000  0.14208197  0.99763664  1
  S  S3  1  0.25000000  0.85791803  0.00236336  1
  S  S4  1  0.75000000  0.42582496  0.10663671  1
  S  S5  1  0.25000000  0.57417504  0.89336329  1
  S  S6  1  0.75000000  0.92582496  0.39336329  1
  S  S7  1  0.25000000  0.07417504  0.60663671  1
  S  S8  1  0.75000000  0.73368216  0.20494652  1
  S  S9  1  0.25000000  0.26631784  0.79505348  1
  S  S10  1  0.75000000  0.23368216  0.29505348  1
  S  S11  1  0.25000000  0.76631784  0.70494652  1
  N  N0  1  0.75000000  0.44666638  0.70236865  1
  N  N1  1  0.25000000  0.55333362  0.29763135  1
  N  N2  1  0.75000000  0.94666638  0.79763135  1
  N  N3  1  0.25000000  0.05333362  0.20236865  1
loop_
_geom_bond_atom_site_label_1
_geom_bond_atom_site_label_2
_geom_bond_distance
_geom_bond_site_symmetry_2
Ce0 N0 2.294854 1_555
Ce0 S9 2.851575 1_555
Ce0 S9 2.851575 1_655
Ce0 S5 2.887208 1_555
Ce0 S5 2.887208 1_655
Ce0 S4 3.035032 1_556
Ce0 S2 3.583212 1_555
Ce1 N1 2.294854 1_555
Ce1 S8 2.851575 1_555
Ce1 S8 2.851575 1_455
Ce1 S4 2.887208 1_555
Ce1 S4 2.887208 1_455
Ce1 S5 3.035032 1_554
Ce1 S3 3.583212 1_555
Ce2 N2 2.294854 1_555
Ce2 S11 2.851575 1_655
Ce2 S11 2.851575 1_555
Ce2 S7 2.887208 1_565
Ce2 S7 2.887208 1_665
Ce2 S6 3.035032 1_555
Ce2 S0 3.583212 1_555
Ce3 N3 2.294854 1_555
Ce3 S10 2.851575 1_555
Ce3 S10 2.851575 1_455
Ce3 S6 2.887208 1_445
Ce3 S6 2.887208 1_545
Ce3 S7 3.035032 1_555
Ce3 S1 3.583212 1_555
Ce4 N2 2.328383 1_555
Ce4 S3 2.881396 1_556
Ce4 S3 2.881396 1_656
Ce4 S11 2.959653 1_555
Ce4 S11 2.959653 1_655
Ce4 S5 3.148084 1_555
Ce4 S5 3.148084 1_655
Ce5 N3 2.328383 1_555
Ce5 S2 2.881396 1_554
Ce5 S2 2.881396 1_454
Ce5 S10 2.959653 1_555
Ce5 S10 2.959653 1_455
Ce5 S4 3.148084 1_555
Ce5 S4 3.148084 1_455
Ce6 N0 2.328383 1_555
Ce6 S1 2.881396 1_555
Ce6 S1 2.881396 1_655
Ce6 S9 2.959653 1_555
Ce6 S9 2.959653 1_655
Ce6 S7 3.148084 1_555
Ce6 S7 3.148084 1_655
Ce7 N1 2.328383 1_555
Ce7 S0 2.881396 1_455
Ce7 S0 2.881396 1_555
Ce7 S8 2.959653 1_455
Ce7 S8 2.959653 1_555
Ce7 S6 3.148084 1_455
Ce7 S6 3.148084 1_555
Ce8 N3 2.392858 1_665
Ce8 N3 2.392858 1_565
Ce8 S8 2.887801 1_555
Ce8 S2 2.938913 1_564
Ce8 S3 3.112572 1_555
Ce8 S3 3.112572 1_655
Ce8 S6 3.177825 1_555
Ce9 N2 2.392858 1_445
Ce9 N2 2.392858 1_545
Ce9 S9 2.887801 1_555
Ce9 S3 2.938913 1_546
Ce9 S2 3.112572 1_555
Ce9 S2 3.112572 1_455
Ce9 S7 3.177825 1_555
Ce10 N1 2.392858 1_555
Ce10 N1 2.392858 1_655
Ce10 S10 2.887801 1_555
Ce10 S0 2.938913 1_555
Ce10 S1 3.112572 1_555
Ce10 S1 3.112572 1_655
Ce10 S4 3.177825 1_555
Ce11 N0 2.392858 1_555
Ce11 N0 2.392858 1_455
Ce11 S11 2.887801 1_555
Ce11 S1 2.938913 1_555
Ce11 S0 3.112572 1_555
Ce11 S0 3.112572 1_455
Ce11 S5 3.177825 1_555
