# generated using pymatgen
data_K2Cu3(SeO3)4
_symmetry_space_group_name_H-M   'P 1'
_cell_length_a   5.50064700
_cell_length_b   7.48346842
_cell_length_c   8.57585969
_cell_angle_alpha   96.21050133
_cell_angle_beta   108.39239691
_cell_angle_gamma   93.18858607
_symmetry_Int_Tables_number   1
_chemical_formula_structural   K2Cu3(SeO3)4
_chemical_formula_sum   'K2 Cu3 Se4 O12'
_cell_volume   331.50641222
_cell_formula_units_Z   1
loop_
 _symmetry_equiv_pos_site_id
 _symmetry_equiv_pos_as_xyz
  1  'x, y, z'
loop_
 _atom_site_type_symbol
 _atom_site_label
 _atom_site_symmetry_multiplicity
 _atom_site_fract_x
 _atom_site_fract_y
 _atom_site_fract_z
 _atom_site_occupancy
  K  K0  1  0.84774600  0.41625800  0.70035100  1
  K  K1  1  0.15225400  0.58374200  0.29964900  1
  Cu  Cu0  1  0.59923900  0.25176400  0.21862500  1
  Cu  Cu1  1  0.40076100  0.74823600  0.78137500  1
  Cu  Cu2  1  0.00000000  0.00000000  0.00000000  1
  Se  Se0  1  0.42423000  0.18546700  0.87059800  1
  Se  Se1  1  0.19524000  0.13573200  0.41253800  1
  Se  Se2  1  0.80476000  0.86426800  0.58746200  1
  Se  Se3  1  0.57577000  0.81453300  0.12940200  1
  O  O0  1  0.55769000  0.72336100  0.60717800  1
  O  O1  1  0.72473500  0.23754200  0.02778000  1
  O  O2  1  0.94576300  0.27349500  0.38394100  1
  O  O3  1  0.37249000  0.36912200  0.77349200  1
  O  O4  1  0.88722000  0.02873000  0.75961500  1
  O  O5  1  0.62751000  0.63087800  0.22650800  1
  O  O6  1  0.05423700  0.72650500  0.61605900  1
  O  O7  1  0.27526500  0.76245800  0.97222000  1
  O  O8  1  0.73174900  0.79028900  0.97151000  1
  O  O9  1  0.26825100  0.20971100  0.02849000  1
  O  O10  1  0.44231000  0.27663900  0.39282200  1
  O  O11  1  0.11278000  0.97127000  0.24038500  1
loop_
_geom_bond_atom_site_label_1
_geom_bond_atom_site_label_2
_geom_bond_distance
_geom_bond_site_symmetry_2
K0 O6 2.791230 1_655
K0 O3 2.804991 1_655
K0 O3 2.886527 1_555
K0 O10 2.907535 1_555
K0 O0 2.909725 1_555
K0 O4 3.005841 1_555
K0 O2 3.025751 1_555
K1 O2 2.791230 1_455
K1 O5 2.804991 1_455
K1 O5 2.886527 1_555
K1 O0 2.907535 1_555
K1 O10 2.909725 1_555
K1 O11 3.005841 1_555
K1 O6 3.025751 1_555
Cu0 O10 1.944983 1_555
Cu0 O1 1.962129 1_555
Cu0 O2 1.969764 1_555
Cu0 O9 2.006093 1_555
Cu1 O0 1.944983 1_555
Cu1 O7 1.962129 1_555
Cu1 O6 1.969764 1_555
Cu1 O8 2.006093 1_555
Cu2 O4 1.996144 1_454
Cu2 O11 1.996144 1_545
Cu2 O8 2.032681 1_444
Cu2 O9 2.032681 1_555
Cu2 O1 2.438194 1_455
Cu2 O7 2.438194 1_544
O0 Se2 1.735415 1_555
O1 Se0 1.763468 1_554
O2 Se1 1.733745 1_655
O3 Se0 1.674813 1_555
O4 Se2 1.738474 1_545
O5 Se3 1.674813 1_555
O6 Se2 1.733745 1_455
O7 Se3 1.763468 1_556
O8 Se3 1.816542 1_556
O9 Se0 1.816542 1_554
O10 Se1 1.735415 1_555
O11 Se1 1.738474 1_565
