# generated using pymatgen
data_AlPO4
_symmetry_space_group_name_H-M   'P 1'
_cell_length_a   14.09720642
_cell_length_b   14.09720642
_cell_length_c   8.71598800
_cell_angle_alpha   90.00000000
_cell_angle_beta   90.00000000
_cell_angle_gamma   120.00000196
_symmetry_Int_Tables_number   1
_chemical_formula_structural   AlPO4
_chemical_formula_sum   'Al12 P12 O48'
_cell_volume   1500.07635176
_cell_formula_units_Z   12
loop_
 _symmetry_equiv_pos_site_id
 _symmetry_equiv_pos_as_xyz
  1  'x, y, z'
loop_
 _atom_site_type_symbol
 _atom_site_label
 _atom_site_symmetry_multiplicity
 _atom_site_fract_x
 _atom_site_fract_y
 _atom_site_fract_z
 _atom_site_occupancy
  Al  Al0  1  0.54404900  0.87847000  0.93692900  1
  Al  Al1  1  0.12153000  0.66557900  0.93692900  1
  Al  Al2  1  0.33442100  0.45595100  0.93692900  1
  Al  Al3  1  0.66557900  0.54404900  0.93692900  1
  Al  Al4  1  0.45595100  0.12153000  0.93692900  1
  Al  Al5  1  0.87847000  0.33442100  0.93692900  1
  Al  Al6  1  0.54404900  0.66557900  0.43692900  1
  Al  Al7  1  0.87847000  0.54404900  0.43692900  1
  Al  Al8  1  0.66557900  0.12153000  0.43692900  1
  Al  Al9  1  0.33442100  0.87847000  0.43692900  1
  Al  Al10  1  0.12153000  0.45595100  0.43692900  1
  Al  Al11  1  0.45595100  0.33442100  0.43692900  1
  P  P0  1  0.54618500  0.87724600  0.56213300  1
  P  P1  1  0.12275400  0.66893900  0.56213300  1
  P  P2  1  0.33106100  0.45381500  0.56213300  1
  P  P3  1  0.66893900  0.54618500  0.56213300  1
  P  P4  1  0.45381500  0.12275400  0.56213300  1
  P  P5  1  0.87724600  0.33106100  0.56213300  1
  P  P6  1  0.54618500  0.66893900  0.06213300  1
  P  P7  1  0.87724600  0.54618500  0.06213300  1
  P  P8  1  0.66893900  0.12275400  0.06213300  1
  P  P9  1  0.33106100  0.87724600  0.06213300  1
  P  P10  1  0.12275400  0.45381500  0.06213300  1
  P  P11  1  0.45381500  0.33106100  0.06213300  1
  O  O0  1  0.43132500  0.84377100  0.50009300  1
  O  O1  1  0.15622900  0.58755400  0.50009300  1
  O  O2  1  0.41244600  0.56867500  0.50009300  1
  O  O3  1  0.58755400  0.43132500  0.50009300  1
  O  O4  1  0.56867500  0.15622900  0.50009300  1
  O  O5  1  0.84377100  0.41244600  0.50009300  1
  O  O6  1  0.43132500  0.58755400  0.00009300  1
  O  O7  1  0.84377100  0.43132500  0.00009300  1
  O  O8  1  0.58755400  0.15622900  0.00009300  1
  O  O9  1  0.41244600  0.84377100  0.00009300  1
  O  O10  1  0.15622900  0.56867500  0.00009300  1
  O  O11  1  0.56867500  0.41244600  0.00009300  1
  O  O12  1  0.63139600  0.99116900  0.50311400  1
  O  O13  1  0.00883100  0.64022700  0.50311400  1
  O  O14  1  0.35977300  0.36860400  0.50311400  1
  O  O15  1  0.64022700  0.63139600  0.50311400  1
  O  O16  1  0.36860400  0.00883100  0.50311400  1
  O  O17  1  0.54400400  0.87844000  0.73756300  1
  O  O18  1  0.99116900  0.35977300  0.50311400  1
  O  O19  1  0.99116900  0.63139600  0.00311400  1
  O  O20  1  0.64022700  0.00883100  0.00311400  1
  O  O21  1  0.35977300  0.99116900  0.00311400  1
  O  O22  1  0.00883100  0.36860400  0.00311400  1
  O  O23  1  0.36860400  0.35977300  0.00311400  1
  O  O24  1  0.42044000  0.21520200  0.00747000  1
  O  O25  1  0.20523800  0.42044000  0.00747000  1
  O  O26  1  0.21520200  0.79476200  0.00747000  1
  O  O27  1  0.78479800  0.20523800  0.00747000  1
  O  O28  1  0.79476200  0.57956000  0.00747000  1
  O  O29  1  0.57956000  0.78479800  0.00747000  1
  O  O30  1  0.79476200  0.21520200  0.50747000  1
  O  O31  1  0.42044000  0.20523800  0.50747000  1
  O  O32  1  0.78479800  0.57956000  0.50747000  1
  O  O33  1  0.21520200  0.42044000  0.50747000  1
  O  O34  1  0.20523800  0.78479800  0.50747000  1
  O  O35  1  0.57956000  0.79476200  0.50747000  1
  O  O36  1  0.45599600  0.33443600  0.23756300  1
  O  O37  1  0.12156000  0.45599600  0.23756300  1
  O  O38  1  0.33443600  0.87844000  0.23756300  1
  O  O39  1  0.66556400  0.12156000  0.23756300  1
  O  O40  1  0.87844000  0.54400400  0.23756300  1
  O  O41  1  0.54400400  0.66556400  0.23756300  1
  O  O42  1  0.87844000  0.33443600  0.73756300  1
  O  O43  1  0.45599600  0.12156000  0.73756300  1
  O  O44  1  0.66556400  0.54400400  0.73756300  1
  O  O45  1  0.33443600  0.45599600  0.73756300  1
  O  O46  1  0.12156000  0.66556400  0.73756300  1
  O  O47  1  0.63139600  0.64022700  0.00311400  1
loop_
_geom_bond_atom_site_label_1
_geom_bond_atom_site_label_2
_geom_bond_distance
_geom_bond_site_symmetry_2
Al0 O17 1.737672 1_555
Al0 O29 1.741678 1_556
Al0 O20 1.748329 1_566
Al0 O9 1.754069 1_556
Al1 O46 1.737672 1_555
Al1 O26 1.741677 1_556
Al1 O19 1.748329 1_456
Al1 O10 1.754069 1_556
Al2 O45 1.737672 1_555
Al2 O25 1.741677 1_556
Al2 O23 1.748329 1_556
Al2 O6 1.754069 1_556
Al3 O44 1.737672 1_555
Al3 O28 1.741677 1_556
Al3 O47 1.748329 1_556
Al3 O11 1.754069 1_556
Al4 O43 1.737672 1_555
Al4 O24 1.741678 1_556
Al4 O21 1.748329 1_546
Al4 O8 1.754069 1_556
Al5 O42 1.737672 1_555
Al5 O27 1.741677 1_556
Al5 O22 1.748329 1_656
Al5 O7 1.754069 1_556
Al6 O41 1.737672 1_555
Al6 O35 1.741677 1_555
Al6 O15 1.748329 1_555
Al6 O2 1.754069 1_555
Al7 O40 1.737672 1_555
Al7 O32 1.741678 1_555
Al7 O13 1.748329 1_655
Al7 O5 1.754069 1_555
Al8 O39 1.737672 1_555
Al8 O30 1.741677 1_555
Al8 O12 1.748329 1_545
Al8 O4 1.754069 1_555
Al9 O38 1.737672 1_555
Al9 O34 1.741677 1_555
Al9 O16 1.748329 1_565
Al9 O0 1.754069 1_555
Al10 O37 1.737672 1_555
Al10 O33 1.741678 1_555
Al10 O18 1.748329 1_455
Al10 O1 1.754069 1_555
Al11 O36 1.737672 1_555
Al11 O31 1.741677 1_555
Al11 O14 1.748329 1_555
Al11 O3 1.754069 1_555
O0 P0 1.540392 1_555
O1 P1 1.540392 1_555
O2 P2 1.540392 1_555
O3 P3 1.540392 1_555
O4 P4 1.540392 1_555
O5 P5 1.540392 1_555
O6 P6 1.540392 1_555
O7 P7 1.540392 1_555
O8 P8 1.540392 1_555
O9 P9 1.540392 1_555
O10 P10 1.540392 1_555
O11 P11 1.540392 1_555
O12 P0 1.535457 1_555
O13 P1 1.535457 1_555
O14 P2 1.535457 1_555
O15 P3 1.535457 1_555
O16 P4 1.535457 1_555
O17 P0 1.529617 1_555
O18 P5 1.535457 1_555
O19 P7 1.535457 1_555
O20 P8 1.535457 1_555
O21 P9 1.535457 1_555
O22 P10 1.535457 1_555
O23 P11 1.535457 1_555
O24 P11 1.532168 1_555
O25 P10 1.532168 1_555
O26 P9 1.532168 1_555
O27 P8 1.532168 1_555
O28 P7 1.532168 1_555
O29 P6 1.532168 1_555
O30 P5 1.532168 1_555
O31 P4 1.532168 1_555
O32 P3 1.532168 1_555
O33 P2 1.532168 1_555
O34 P1 1.532168 1_555
O35 P0 1.532168 1_555
O36 P11 1.529617 1_555
O37 P10 1.529617 1_555
O38 P9 1.529617 1_555
O39 P8 1.529617 1_555
O40 P7 1.529617 1_555
O41 P6 1.529617 1_555
O42 P5 1.529617 1_555
O43 P4 1.529617 1_555
O44 P3 1.529617 1_555
O45 P2 1.529617 1_555
O46 P1 1.529617 1_555
O47 P6 1.535457 1_555
