# generated using pymatgen
data_Rb4Nb11O30
_symmetry_space_group_name_H-M   'P 1'
_cell_length_a   15.35941134
_cell_length_b   15.35941134
_cell_length_c   15.35941114
_cell_angle_alpha   28.70454193
_cell_angle_beta   28.70454193
_cell_angle_gamma   28.70454123
_symmetry_Int_Tables_number   1
_chemical_formula_structural   Rb4Nb11O30
_chemical_formula_sum   'Rb4 Nb11 O30'
_cell_volume   739.00265611
_cell_formula_units_Z   1
loop_
 _symmetry_equiv_pos_site_id
 _symmetry_equiv_pos_as_xyz
  1  'x, y, z'
loop_
 _atom_site_type_symbol
 _atom_site_label
 _atom_site_symmetry_multiplicity
 _atom_site_fract_x
 _atom_site_fract_y
 _atom_site_fract_z
 _atom_site_occupancy
  Rb  Rb0  1  0.73270600  0.73270600  0.73270600  1
  Rb  Rb1  1  0.26729400  0.26729400  0.26729400  1
  Rb  Rb2  1  0.45225500  0.45225500  0.45225500  1
  Rb  Rb3  1  0.54774500  0.54774500  0.54774500  1
  Nb  Nb0  1  0.19588400  0.19588400  0.69598200  1
  Nb  Nb1  1  0.19588400  0.69598200  0.19588400  1
  Nb  Nb2  1  0.69598200  0.19588400  0.19588400  1
  Nb  Nb3  1  0.80411600  0.80411600  0.30401800  1
  Nb  Nb4  1  0.80411600  0.30401800  0.80411600  1
  Nb  Nb5  1  0.30401800  0.80411600  0.80411600  1
  Nb  Nb6  1  0.10013500  0.10013500  0.10013500  1
  Nb  Nb7  1  0.89986500  0.89986500  0.89986500  1
  Nb  Nb8  1  0.00000000  0.50000000  0.00000000  1
  Nb  Nb9  1  0.50000000  0.00000000  0.00000000  1
  Nb  Nb10  1  0.00000000  0.00000000  0.50000000  1
  O  O0  1  0.19315200  0.19315200  0.82176300  1
  O  O1  1  0.19315200  0.82176300  0.19315200  1
  O  O2  1  0.82176300  0.19315200  0.19315200  1
  O  O3  1  0.80684800  0.80684800  0.17823700  1
  O  O4  1  0.80684800  0.17823700  0.80684800  1
  O  O5  1  0.17823700  0.80684800  0.80684800  1
  O  O6  1  0.99826800  0.37135200  0.99826800  1
  O  O7  1  0.37135200  0.99826800  0.99826800  1
  O  O8  1  0.99826800  0.99826800  0.37135200  1
  O  O9  1  0.62864800  0.00173200  0.00173200  1
  O  O10  1  0.00173200  0.00173200  0.62864800  1
  O  O11  1  0.00173200  0.62864800  0.00173200  1
  O  O12  1  0.87714600  0.30382800  0.87714600  1
  O  O13  1  0.30382800  0.87714600  0.87714600  1
  O  O14  1  0.87714600  0.87714600  0.30382800  1
  O  O15  1  0.69617200  0.12285400  0.12285400  1
  O  O16  1  0.12285400  0.12285400  0.69617200  1
  O  O17  1  0.12285400  0.69617200  0.12285400  1
  O  O18  1  0.48064400  0.48064400  0.13208100  1
  O  O19  1  0.48064400  0.13208100  0.48064400  1
  O  O20  1  0.13208100  0.48064400  0.48064400  1
  O  O21  1  0.51935600  0.51935600  0.86791900  1
  O  O22  1  0.51935600  0.86791900  0.51935600  1
  O  O23  1  0.86791900  0.51935600  0.51935600  1
  O  O24  1  0.29838500  0.29838500  0.92706900  1
  O  O25  1  0.29838500  0.92706900  0.29838500  1
  O  O26  1  0.92706900  0.29838500  0.29838500  1
  O  O27  1  0.70161500  0.70161500  0.07293100  1
  O  O28  1  0.70161500  0.07293100  0.70161500  1
  O  O29  1  0.07293100  0.70161500  0.70161500  1
loop_
_geom_bond_atom_site_label_1
_geom_bond_atom_site_label_2
_geom_bond_distance
_geom_bond_site_symmetry_2
Nb0 O0 1.858633 1_555
Nb0 O19 1.954427 1_555
Nb0 O20 1.954427 1_555
Nb0 O13 2.101513 1_545
Nb0 O12 2.101513 1_455
Nb0 O16 2.170737 1_555
Nb1 O1 1.858633 1_555
Nb1 O18 1.954427 1_555
Nb1 O20 1.954428 1_555
Nb1 O14 2.101513 1_455
Nb1 O13 2.101513 1_554
Nb1 O17 2.170737 1_555
Nb2 O2 1.858633 1_555
Nb2 O18 1.954427 1_555
Nb2 O19 1.954428 1_555
Nb2 O14 2.101513 1_545
Nb2 O12 2.101513 1_554
Nb2 O15 2.170737 1_555
Nb3 O3 1.858633 1_555
Nb3 O22 1.954427 1_555
Nb3 O23 1.954427 1_555
Nb3 O15 2.101513 1_565
Nb3 O17 2.101513 1_655
Nb3 O14 2.170737 1_555
Nb4 O4 1.858633 1_555
Nb4 O21 1.954427 1_555
Nb4 O23 1.954428 1_555
Nb4 O16 2.101513 1_655
Nb4 O15 2.101513 1_556
Nb4 O12 2.170737 1_555
Nb5 O5 1.858633 1_555
Nb5 O21 1.954427 1_555
Nb5 O22 1.954428 1_555
Nb5 O16 2.101513 1_565
Nb5 O17 2.101513 1_556
Nb5 O13 2.170737 1_555
Nb6 O8 1.917439 1_445
Nb6 O7 1.917439 1_544
Nb6 O6 1.917439 1_454
Nb6 O0 2.124272 1_554
Nb6 O1 2.124272 1_545
Nb6 O2 2.124272 1_455
Nb7 O10 1.917439 1_665
Nb7 O9 1.917439 1_566
Nb7 O11 1.917439 1_656
Nb7 O3 2.124272 1_556
Nb7 O4 2.124272 1_565
Nb7 O5 2.124272 1_655
Nb8 O24 2.007858 1_554
Nb8 O27 2.007858 1_455
Nb8 O26 2.007858 1_455
Nb8 O29 2.007858 1_554
Nb8 O11 2.022743 1_555
Nb8 O6 2.022743 1_454
Nb9 O24 2.007858 1_554
Nb9 O27 2.007858 1_545
Nb9 O25 2.007858 1_545
Nb9 O28 2.007858 1_554
Nb9 O9 2.022743 1_555
Nb9 O7 2.022743 1_544
Nb10 O25 2.007858 1_545
Nb10 O26 2.007858 1_455
Nb10 O28 2.007858 1_455
Nb10 O29 2.007858 1_545
Nb10 O10 2.022742 1_555
Nb10 O8 2.022742 1_445
O0 Rb2 3.525095 1_555
O1 Rb2 3.525095 1_555
O2 Rb2 3.525095 1_555
O3 Rb3 3.525095 1_555
O4 Rb3 3.525095 1_555
O5 Rb3 3.525095 1_555
O12 Rb0 3.255430 1_555
O13 Rb0 3.255430 1_555
O14 Rb0 3.255430 1_555
O15 Rb1 3.255430 1_555
O16 Rb1 3.255430 1_555
O17 Rb1 3.255430 1_555
O18 Rb0 3.252469 1_554
O19 Rb0 3.252468 1_545
O20 Rb0 3.252468 1_455
O21 Rb1 3.252469 1_556
O22 Rb1 3.252468 1_565
O23 Rb1 3.252468 1_655
O24 Rb3 3.275157 1_555
O25 Rb3 3.275157 1_555
O26 Rb3 3.275157 1_555
O27 Rb2 3.275157 1_555
O28 Rb2 3.275157 1_555
O29 Rb2 3.275157 1_555
