# generated using pymatgen
data_Nd2As6Xe5F46
_symmetry_space_group_name_H-M   'P 1'
_cell_length_a   18.02208802
_cell_length_b   18.02208802
_cell_length_c   10.36895077
_cell_angle_alpha   76.54849460
_cell_angle_beta   76.54849460
_cell_angle_gamma   19.11591392
_symmetry_Int_Tables_number   1
_chemical_formula_structural   Nd2As6Xe5F46
_chemical_formula_sum   'Nd2 As6 Xe5 F46'
_cell_volume   1071.75954940
_cell_formula_units_Z   1
loop_
 _symmetry_equiv_pos_site_id
 _symmetry_equiv_pos_as_xyz
  1  'x, y, z'
loop_
 _atom_site_type_symbol
 _atom_site_label
 _atom_site_symmetry_multiplicity
 _atom_site_fract_x
 _atom_site_fract_y
 _atom_site_fract_z
 _atom_site_occupancy
  Nd  Nd0  1  0.38352000  0.38352000  0.79428500  1
  Nd  Nd1  1  0.61648000  0.61648000  0.20571500  1
  As  As0  1  0.82285500  0.82285500  0.04414100  1
  As  As1  1  0.17714500  0.17714500  0.95585900  1
  As  As2  1  0.86867100  0.86867100  0.52314600  1
  As  As3  1  0.96671800  0.96671800  0.81936000  1
  As  As4  1  0.03328200  0.03328200  0.18064000  1
  As  As5  1  0.13132900  0.13132900  0.47685400  1
  Xe  Xe0  1  0.58875700  0.58875700  0.80929900  1
  Xe  Xe1  1  0.72303300  0.72303300  0.36623000  1
  Xe  Xe2  1  0.27696700  0.27696700  0.63377000  1
  Xe  Xe3  1  0.41124300  0.41124300  0.19070100  1
  Xe  Xe4  1  0.50000000  0.50000000  0.50000000  1
  F  F0  1  0.97983100  0.40835400  0.84225200  1
  F  F1  1  0.86812400  0.86812400  0.08398800  1
  F  F2  1  0.63894500  0.06735500  0.43275800  1
  F  F3  1  0.78398400  0.21477700  0.19306700  1
  F  F4  1  0.56959200  0.56959200  0.64110400  1
  F  F5  1  0.21477700  0.78398400  0.19306700  1
  F  F6  1  0.13696500  0.71945200  0.83131900  1
  F  F7  1  0.06735500  0.63894500  0.43275800  1
  F  F8  1  0.82408700  0.82408700  0.64061600  1
  F  F9  1  0.05184000  0.63296000  0.91472500  1
  F  F10  1  0.78046700  0.78046700  0.98712400  1
  F  F11  1  0.21953300  0.21953300  0.01287600  1
  F  F12  1  0.36704000  0.94816000  0.08527500  1
  F  F13  1  0.04332800  0.04332800  0.00761900  1
  F  F14  1  0.55536500  0.55536500  0.37779300  1
  F  F15  1  0.02827600  0.02827600  0.35346200  1
  F  F16  1  0.36105500  0.93264500  0.56724200  1
  F  F17  1  0.23380200  0.23380200  0.53651000  1
  F  F18  1  0.28054800  0.86303500  0.16868100  1
  F  F19  1  0.91493600  0.91493600  0.41836200  1
  F  F20  1  0.21601600  0.78522300  0.80693300  1
  F  F21  1  0.95667200  0.95667200  0.99238100  1
  F  F22  1  0.67664800  0.67664800  0.26542300  1
  F  F23  1  0.76619800  0.76619800  0.46349000  1
  F  F24  1  0.93264500  0.36105500  0.56724200  1
  F  F25  1  0.61081000  0.61081000  0.98489800  1
  F  F26  1  0.71945200  0.13696500  0.83131900  1
  F  F27  1  0.63296000  0.05184000  0.91472500  1
  F  F28  1  0.59164600  0.02016900  0.15774800  1
  F  F29  1  0.32335200  0.32335200  0.73457700  1
  F  F30  1  0.43040800  0.43040800  0.35889600  1
  F  F31  1  0.44463500  0.44463500  0.62220700  1
  F  F32  1  0.86303500  0.28054800  0.16868100  1
  F  F33  1  0.17591300  0.17591300  0.35938400  1
  F  F34  1  0.02016900  0.59164600  0.15774800  1
  F  F35  1  0.67604500  0.09504200  0.62582000  1
  F  F36  1  0.08506400  0.08506400  0.58163800  1
  F  F37  1  0.40835400  0.97983100  0.84225200  1
  F  F38  1  0.90495800  0.32395500  0.37418000  1
  F  F39  1  0.32395500  0.90495800  0.37418000  1
  F  F40  1  0.97172400  0.97172400  0.64653800  1
  F  F41  1  0.78522300  0.21601600  0.80693300  1
  F  F42  1  0.13187600  0.13187600  0.91601200  1
  F  F43  1  0.38919000  0.38919000  0.01510200  1
  F  F44  1  0.09504200  0.67604500  0.62582000  1
  F  F45  1  0.94816000  0.36704000  0.08527500  1
loop_
_geom_bond_atom_site_label_1
_geom_bond_atom_site_label_2
_geom_bond_distance
_geom_bond_site_symmetry_2
As0 F10 1.743475 1_554
As0 F34 1.749326 1_655
As0 F28 1.749326 1_565
As0 F1 1.753097 1_555
As0 F27 1.847904 1_564
As0 F9 1.847904 1_654
As1 F11 1.743475 1_556
As1 F0 1.749326 1_455
As1 F37 1.749326 1_545
As1 F42 1.753097 1_555
As1 F12 1.847904 1_546
As1 F45 1.847904 1_456
As2 F19 1.744048 1_555
As2 F2 1.752207 1_565
As2 F7 1.752207 1_655
As2 F8 1.756186 1_555
As2 F35 1.834780 1_565
As2 F44 1.834780 1_655
As3 F21 1.744669 1_555
As3 F20 1.748493 1_655
As3 F41 1.748493 1_565
As3 F40 1.758531 1_555
As3 F26 1.835713 1_565
As3 F6 1.835713 1_655
As4 F13 1.744669 1_555
As4 F5 1.748493 1_545
As4 F3 1.748493 1_455
As4 F15 1.758531 1_555
As4 F32 1.835713 1_455
As4 F18 1.835713 1_545
As5 F36 1.744048 1_555
As5 F24 1.752207 1_455
As5 F16 1.752207 1_545
As5 F33 1.756186 1_555
As5 F38 1.834780 1_455
As5 F39 1.834780 1_545
F4 Xe0 2.016453 1_555
F6 Nd0 2.448791 1_555
F9 Nd0 2.420475 1_555
F12 Nd1 2.420475 1_555
F14 Xe4 2.074073 1_555
F14 Nd1 2.464489 1_555
F17 Xe2 2.025080 1_555
F18 Nd1 2.448791 1_555
F22 Xe1 2.150312 1_555
F22 Nd1 2.362536 1_555
F23 Xe1 2.025080 1_555
F25 Xe0 2.145460 1_555
F25 Nd1 2.345373 1_556
F26 Nd0 2.448791 1_555
F27 Nd0 2.420475 1_555
F29 Xe2 2.150312 1_555
F29 Nd0 2.362536 1_555
F30 Xe3 2.016453 1_555
F31 Xe4 2.074073 1_555
F31 Nd0 2.464489 1_555
F32 Nd1 2.448791 1_555
F35 Nd0 2.453589 1_555
F38 Nd1 2.453589 1_555
F39 Nd1 2.453589 1_555
F43 Xe3 2.145460 1_555
F43 Nd0 2.345373 1_554
F44 Nd0 2.453589 1_555
F45 Nd1 2.420475 1_555
