# generated using pymatgen
data_CsCO2
_symmetry_space_group_name_H-M   'P 1'
_cell_length_a   10.94528629
_cell_length_b   6.57283937
_cell_length_c   8.62807719
_cell_angle_alpha   82.60590180
_cell_angle_beta   90.00000000
_cell_angle_gamma   90.00000000
_symmetry_Int_Tables_number   1
_chemical_formula_structural   CsCO2
_chemical_formula_sum   'Cs8 C8 O16'
_cell_volume   615.55612707
_cell_formula_units_Z   8
loop_
 _symmetry_equiv_pos_site_id
 _symmetry_equiv_pos_as_xyz
  1  'x, y, z'
loop_
 _atom_site_type_symbol
 _atom_site_label
 _atom_site_symmetry_multiplicity
 _atom_site_fract_x
 _atom_site_fract_y
 _atom_site_fract_z
 _atom_site_occupancy
  Cs  Cs0  1  0.79813485  0.28576755  0.51768486  1
  Cs  Cs1  1  0.70186515  0.28576755  0.01768486  1
  Cs  Cs2  1  0.20186515  0.71423245  0.48231514  1
  Cs  Cs3  1  0.91058271  0.76982360  0.83457914  1
  Cs  Cs4  1  0.58941729  0.76982360  0.33457914  1
  Cs  Cs5  1  0.29813485  0.71423245  0.98231514  1
  Cs  Cs6  1  0.08941729  0.23017640  0.16542086  1
  Cs  Cs7  1  0.41058271  0.23017640  0.66542086  1
  C  C0  1  0.89099713  0.83366067  0.33342807  1
  C  C1  1  0.94353658  0.68959154  0.22497826  1
  C  C2  1  0.60900287  0.83366067  0.83342807  1
  C  C3  1  0.10900287  0.16633933  0.66657193  1
  C  C4  1  0.44353658  0.31040846  0.27502174  1
  C  C5  1  0.39099713  0.16633933  0.16657193  1
  C  C6  1  0.05646342  0.31040846  0.77502174  1
  C  C7  1  0.55646342  0.68959154  0.72497826  1
  O  O0  1  0.95001293  0.27270160  0.82952700  1
  O  O1  1  0.54998707  0.27270160  0.32952700  1
  O  O2  1  0.45001293  0.72729840  0.67047300  1
  O  O3  1  0.04998707  0.72729840  0.17047300  1
  O  O4  1  0.89223615  0.77531054  0.47876353  1
  O  O5  1  0.62532342  0.54533448  0.69440853  1
  O  O6  1  0.84672691  0.00019254  0.26587027  1
  O  O7  1  0.15327309  -0.00019254  0.73412973  1
  O  O8  1  0.12532342  0.45466552  0.80559147  1
  O  O9  1  0.39223615  0.22468946  0.02123647  1
  O  O10  1  0.60776385  0.77531054  0.97876353  1
  O  O11  1  0.10776385  0.22468946  0.52123647  1
  O  O12  1  0.65327309  0.00019254  0.76587027  1
  O  O13  1  0.37467658  0.45466552  0.30559147  1
  O  O14  1  0.34672691  -0.00019254  0.23412973  1
  O  O15  1  0.87467658  0.54533448  0.19440853  1
loop_
_geom_bond_atom_site_label_1
_geom_bond_atom_site_label_2
_geom_bond_distance
_geom_bond_site_symmetry_2
Cs0 O5 3.079440 1_555
Cs0 O6 3.094566 1_555
Cs0 O12 3.096473 1_555
Cs0 O0 3.154461 1_555
Cs0 O1 3.171079 1_555
Cs0 O15 3.188685 1_555
Cs0 O4 3.353952 1_555
Cs0 O11 3.412347 1_655
Cs0 O4 3.566602 1_545
Cs1 O15 3.079440 1_555
Cs1 O12 3.094566 1_554
Cs1 O6 3.096473 1_555
Cs1 O1 3.154461 1_555
Cs1 O0 3.171079 1_554
Cs1 O5 3.188685 1_554
Cs1 O10 3.353952 1_554
Cs1 O9 3.412347 1_555
Cs1 O10 3.566602 1_544
Cs2 O13 3.079440 1_555
Cs2 O7 3.094566 1_565
Cs2 O14 3.096473 1_565
Cs2 O3 3.154461 1_555
Cs2 O2 3.171079 1_555
Cs2 O8 3.188685 1_555
Cs2 O11 3.353952 1_555
Cs2 O4 3.412347 1_455
Cs2 O11 3.566602 1_565
Cs3 O4 3.072142 1_555
Cs3 O7 3.123303 1_665
Cs3 O8 3.164067 1_655
Cs3 O12 3.216339 1_565
Cs3 O3 3.255280 1_656
Cs3 O15 3.285014 1_556
Cs3 O0 3.301726 1_555
Cs3 O0 3.328111 1_565
Cs4 O10 3.072142 1_554
Cs4 O14 3.123303 1_565
Cs4 O13 3.164067 1_555
Cs4 O6 3.216339 1_565
Cs4 O2 3.255280 1_555
Cs4 O5 3.285014 1_555
Cs4 O1 3.301726 1_555
Cs4 O1 3.328111 1_565
Cs5 O8 3.079440 1_555
Cs5 O14 3.094566 1_566
Cs5 O7 3.096473 1_565
Cs5 O2 3.154461 1_555
Cs5 O3 3.171079 1_556
Cs5 O13 3.188685 1_556
Cs5 O9 3.353952 1_556
Cs5 O10 3.412347 1_555
Cs5 O9 3.566602 1_566
Cs6 O11 3.072142 1_555
Cs6 O6 3.123303 1_455
Cs6 O15 3.164067 1_455
Cs6 O14 3.216339 1_555
Cs6 O0 3.255280 1_454
Cs6 O8 3.285014 1_554
Cs6 O3 3.301726 1_555
Cs6 O3 3.328111 1_545
Cs7 O9 3.072142 1_556
Cs7 O12 3.123303 1_555
Cs7 O5 3.164067 1_555
Cs7 O7 3.216339 1_555
Cs7 O1 3.255280 1_555
Cs7 O13 3.285014 1_555
Cs7 O2 3.301726 1_555
Cs7 O2 3.328111 1_545
C0 O4 1.263298 1_555
C0 O6 1.268249 1_565
C1 O15 1.265319 1_555
C1 O3 1.268903 1_655
C2 O10 1.263298 1_555
C2 O12 1.268249 1_565
C3 O11 1.263298 1_555
C3 O7 1.268249 1_555
C4 O13 1.265319 1_555
C4 O1 1.268903 1_555
C5 O9 1.263298 1_555
C5 O14 1.268249 1_555
C6 O8 1.265319 1_555
C6 O0 1.268903 1_455
C7 O5 1.265319 1_555
C7 O2 1.268903 1_555
