# generated using pymatgen
data_Cs2Ga3As5O18
_symmetry_space_group_name_H-M   'P 1'
_cell_length_a   14.02768233
_cell_length_b   14.02768233
_cell_length_c   12.72945883
_cell_angle_alpha   86.08360448
_cell_angle_beta   86.08360448
_cell_angle_gamma   21.38116771
_symmetry_Int_Tables_number   1
_chemical_formula_structural   Cs2Ga3As5O18
_chemical_formula_sum   'Cs4 Ga6 As10 O36'
_cell_volume   910.98653967
_cell_formula_units_Z   2
loop_
 _symmetry_equiv_pos_site_id
 _symmetry_equiv_pos_as_xyz
  1  'x, y, z'
loop_
 _atom_site_type_symbol
 _atom_site_label
 _atom_site_symmetry_multiplicity
 _atom_site_fract_x
 _atom_site_fract_y
 _atom_site_fract_z
 _atom_site_occupancy
  Cs  Cs0  1  0.68313100  0.57414400  0.66057200  1
  Cs  Cs1  1  0.31686900  0.42585600  0.33942800  1
  Cs  Cs2  1  0.42585600  0.31686900  0.83942800  1
  Cs  Cs3  1  0.57414400  0.68313100  0.16057200  1
  Ga  Ga0  1  0.73214800  0.86902300  0.11397400  1
  Ga  Ga1  1  0.26785200  0.13097700  0.88602600  1
  Ga  Ga2  1  0.86902300  0.73214800  0.61397400  1
  Ga  Ga3  1  0.50000000  0.50000000  0.50000000  1
  Ga  Ga4  1  0.13097700  0.26785200  0.38602600  1
  Ga  Ga5  1  0.50000000  0.50000000  0.00000000  1
  As  As0  1  0.92856900  0.93285300  0.58442500  1
  As  As1  1  0.16211700  0.29661900  0.12677500  1
  As  As2  1  0.74667700  0.25332300  0.25000000  1
  As  As3  1  0.83788300  0.70338100  0.87322500  1
  As  As4  1  0.70338100  0.83788300  0.37322500  1
  As  As5  1  0.07143100  0.06714700  0.41557500  1
  As  As6  1  0.25332300  0.74667700  0.75000000  1
  As  As7  1  0.29661900  0.16211700  0.62677500  1
  As  As8  1  0.06714700  0.07143100  0.91557500  1
  As  As9  1  0.93285300  0.92856900  0.08442500  1
  O  O0  1  0.77107700  0.14824400  0.99101900  1
  O  O1  1  0.21152600  0.36036900  0.62022300  1
  O  O2  1  0.95655800  0.78808400  0.61136900  1
  O  O3  1  0.78847400  0.63963100  0.37977700  1
  O  O4  1  0.21587800  0.16250500  0.03614500  1
  O  O5  1  0.84469800  0.63148600  0.11537200  1
  O  O6  1  0.38305600  0.73872900  0.43747000  1
  O  O7  1  0.26127100  0.61694400  0.06253000  1
  O  O8  1  0.78808400  0.95655800  0.11136900  1
  O  O9  1  0.85175600  0.22892300  0.50898100  1
  O  O10  1  0.79912900  0.81359500  0.76105000  1
  O  O11  1  0.20087100  0.18640500  0.23895000  1
  O  O12  1  0.78412200  0.83749500  0.96385500  1
  O  O13  1  0.39941500  0.55546000  0.85522300  1
  O  O14  1  0.90414900  0.00109600  0.21570400  1
  O  O15  1  0.36851400  0.15530200  0.38462800  1
  O  O16  1  0.15530200  0.36851400  0.88462800  1
  O  O17  1  0.36036900  0.21152600  0.12022300  1
  O  O18  1  0.16250500  0.21587800  0.53614500  1
  O  O19  1  0.04344200  0.21191600  0.38863100  1
  O  O20  1  0.81359500  0.79912900  0.26105000  1
  O  O21  1  0.14824400  0.77107700  0.49101900  1
  O  O22  1  0.00109600  0.90414900  0.71570400  1
  O  O23  1  0.18640500  0.20087100  0.73895000  1
  O  O24  1  0.99890400  0.09585100  0.28429600  1
  O  O25  1  0.61694400  0.26127100  0.56253000  1
  O  O26  1  0.09585100  0.99890400  0.78429600  1
  O  O27  1  0.44454000  0.60058500  0.64477700  1
  O  O28  1  0.63963100  0.78847400  0.87977700  1
  O  O29  1  0.60058500  0.44454000  0.14477700  1
  O  O30  1  0.55546000  0.39941500  0.35522300  1
  O  O31  1  0.63148600  0.84469800  0.61537200  1
  O  O32  1  0.83749500  0.78412200  0.46385500  1
  O  O33  1  0.22892300  0.85175600  0.00898100  1
  O  O34  1  0.73872900  0.38305600  0.93747000  1
  O  O35  1  0.21191600  0.04344200  0.88863100  1
loop_
_geom_bond_atom_site_label_1
_geom_bond_atom_site_label_2
_geom_bond_distance
_geom_bond_site_symmetry_2
Cs0 O27 3.024806 1_555
Cs0 O23 3.107708 1_655
Cs0 O18 3.111126 1_655
Cs0 O31 3.146091 1_555
Cs1 O30 3.024806 1_555
Cs1 O20 3.107708 1_455
Cs1 O32 3.111126 1_455
Cs1 O15 3.146091 1_555
Cs2 O13 3.024806 1_555
Cs2 O10 3.107708 1_545
Cs2 O12 3.111126 1_545
Cs2 O16 3.146091 1_555
Cs3 O29 3.024806 1_555
Cs3 O11 3.107708 1_565
Cs3 O4 3.111126 1_565
Cs3 O5 3.146091 1_555
Ga0 O17 1.902503 1_565
Ga0 O12 1.924433 1_554
Ga0 O20 1.930551 1_555
Ga0 O5 1.947864 1_555
Ga0 O8 1.977317 1_555
Ga1 O28 1.902503 1_545
Ga1 O4 1.924433 1_556
Ga1 O23 1.930551 1_555
Ga1 O16 1.947864 1_555
Ga1 O35 1.977317 1_555
Ga2 O1 1.902503 1_655
Ga2 O32 1.924433 1_555
Ga2 O10 1.930551 1_555
Ga2 O31 1.947864 1_555
Ga2 O2 1.977317 1_555
Ga3 O9 1.973398 1_555
Ga3 O21 1.973398 1_555
Ga3 O27 2.026707 1_555
Ga3 O30 2.026707 1_555
Ga3 O6 2.030395 1_555
Ga3 O25 2.030395 1_555
Ga4 O3 1.902503 1_455
Ga4 O18 1.924433 1_555
Ga4 O11 1.930551 1_555
Ga4 O15 1.947864 1_555
Ga4 O19 1.977317 1_555
Ga5 O33 1.973398 1_555
Ga5 O0 1.973398 1_554
Ga5 O29 2.026707 1_555
Ga5 O13 2.026707 1_554
Ga5 O34 2.030395 1_554
Ga5 O7 2.030395 1_555
As0 O2 1.683503 1_555
As0 O25 1.701842 1_565
As0 O21 1.704130 1_655
As0 O22 1.835001 1_655
As1 O5 1.719061 1_455
As1 O11 1.721621 1_555
As1 O17 1.722067 1_555
As1 O4 1.724641 1_555
As2 O30 1.683924 1_555
As2 O29 1.683924 1_555
As2 O14 1.764209 1_555
As2 O24 1.764209 1_555
As3 O16 1.719061 1_655
As3 O10 1.721621 1_555
As3 O28 1.722067 1_555
As3 O12 1.724641 1_555
As4 O15 1.719061 1_565
As4 O20 1.721621 1_555
As4 O3 1.722067 1_555
As4 O32 1.724641 1_555
As5 O19 1.683503 1_555
As5 O6 1.701842 1_545
As5 O9 1.704130 1_455
As5 O24 1.835001 1_455
As6 O13 1.683924 1_555
As6 O27 1.683924 1_555
As6 O22 1.764209 1_555
As6 O26 1.764209 1_555
As7 O31 1.719061 1_545
As7 O23 1.721621 1_555
As7 O1 1.722067 1_555
As7 O18 1.724641 1_555
As8 O35 1.683503 1_555
As8 O34 1.701842 1_455
As8 O33 1.704130 1_546
As8 O26 1.835001 1_545
As9 O8 1.683503 1_555
As9 O7 1.701842 1_655
As9 O0 1.704130 1_564
As9 O14 1.835001 1_565
