# generated using pymatgen
data_Ba(AlSi)2
_symmetry_space_group_name_H-M   'P 1'
_cell_length_a   4.24273618
_cell_length_b   10.15010470
_cell_length_c   10.91187713
_cell_angle_alpha   90.00000000
_cell_angle_beta   90.00000000
_cell_angle_gamma   90.00000000
_symmetry_Int_Tables_number   1
_chemical_formula_structural   Ba(AlSi)2
_chemical_formula_sum   'Ba4 Al8 Si8'
_cell_volume   469.91143851
_cell_formula_units_Z   4
loop_
 _symmetry_equiv_pos_site_id
 _symmetry_equiv_pos_as_xyz
  1  'x, y, z'
loop_
 _atom_site_type_symbol
 _atom_site_label
 _atom_site_symmetry_multiplicity
 _atom_site_fract_x
 _atom_site_fract_y
 _atom_site_fract_z
 _atom_site_occupancy
  Ba  Ba0  1  0.25000000  0.24728971  0.82519286  1
  Ba  Ba1  1  0.75000000  0.75271029  0.17480714  1
  Ba  Ba2  1  0.25000000  0.74728971  0.67480714  1
  Ba  Ba3  1  0.75000000  0.25271029  0.32519286  1
  Al  Al0  1  0.25000000  0.60036232  0.95308895  1
  Al  Al1  1  0.75000000  0.39963768  0.04691105  1
  Al  Al2  1  0.25000000  0.10036232  0.54691105  1
  Al  Al3  1  0.75000000  0.89963768  0.45308895  1
  Al  Al4  1  0.25000000  0.54103684  0.38216333  1
  Al  Al5  1  0.75000000  0.45896316  0.61783667  1
  Al  Al6  1  0.25000000  0.04103684  0.11783667  1
  Al  Al7  1  0.75000000  0.95896316  0.88216333  1
  Si  Si0  1  0.25000000  0.97638791  0.34436007  1
  Si  Si1  1  0.75000000  0.02361209  0.65563993  1
  Si  Si2  1  0.25000000  0.47638791  0.15563993  1
  Si  Si3  1  0.75000000  0.52361209  0.84436007  1
  Si  Si4  1  0.25000000  0.35440341  0.54123033  1
  Si  Si5  1  0.75000000  0.64559659  0.45876967  1
  Si  Si6  1  0.25000000  0.85440341  0.95876967  1
  Si  Si7  1  0.75000000  0.14559659  0.04123033  1
loop_
_geom_bond_atom_site_label_1
_geom_bond_atom_site_label_2
_geom_bond_distance
_geom_bond_site_symmetry_2
Ba0 Si4 3.283769 1_555
Ba0 Si7 3.335093 1_556
Ba0 Si7 3.335093 1_456
Ba0 Si3 3.522825 1_455
Ba0 Si3 3.522825 1_555
Ba0 Si1 3.616313 1_455
Ba0 Si1 3.616313 1_555
Ba1 Si5 3.283769 1_555
Ba1 Si6 3.335093 1_654
Ba1 Si6 3.335093 1_554
Ba1 Si2 3.522825 1_555
Ba1 Si2 3.522825 1_655
Ba1 Si0 3.616313 1_655
Ba1 Si0 3.616313 1_555
Ba2 Si6 3.283769 1_555
Ba2 Si5 3.335093 1_455
Ba2 Si5 3.335093 1_555
Ba2 Si1 3.522825 1_465
Ba2 Si1 3.522825 1_565
Ba2 Si3 3.616313 1_555
Ba2 Si3 3.616313 1_455
Ba3 Si7 3.283769 1_555
Ba3 Si4 3.335093 1_555
Ba3 Si4 3.335093 1_655
Ba3 Si0 3.522825 1_645
Ba3 Si0 3.522825 1_545
Ba3 Si2 3.616313 1_555
Ba3 Si2 3.616313 1_655
Al0 Si2 2.543322 1_556
Al0 Si3 2.552393 1_455
Al0 Si3 2.552393 1_555
Al0 Si6 2.579289 1_555
Al0 Ba2 3.383025 1_555
Al0 Ba1 3.569973 1_456
Al0 Ba1 3.569973 1_556
Al0 Ba0 3.845873 1_555
Al1 Si3 2.543322 1_554
Al1 Si2 2.552393 1_555
Al1 Si2 2.552393 1_655
Al1 Si7 2.579289 1_555
Al1 Ba3 3.383025 1_555
Al1 Ba0 3.569973 1_554
Al1 Ba0 3.569973 1_654
Al1 Ba1 3.845873 1_555
Al2 Si0 2.543322 1_545
Al2 Si1 2.552393 1_455
Al2 Si1 2.552393 1_555
Al2 Si4 2.579289 1_555
Al2 Ba0 3.383025 1_555
Al2 Ba3 3.569973 1_555
Al2 Ba3 3.569973 1_455
Al2 Ba2 3.845873 1_545
Al3 Si1 2.543322 1_565
Al3 Si0 2.552393 1_655
Al3 Si0 2.552393 1_555
Al3 Si5 2.579289 1_555
Al3 Ba1 3.383025 1_555
Al3 Ba2 3.569973 1_555
Al3 Ba2 3.569973 1_655
Al3 Ba3 3.845873 1_565
Al4 Si5 2.515016 1_455
Al4 Si5 2.515016 1_555
Al4 Si2 2.557413 1_555
Al4 Si4 2.569296 1_555
Al4 Ba3 3.667604 1_455
Al4 Ba3 3.667604 1_555
Al4 Ba1 3.773043 1_555
Al4 Ba1 3.773043 1_455
Al4 Ba2 3.818352 1_555
Al5 Si4 2.515016 1_655
Al5 Si4 2.515016 1_555
Al5 Si3 2.557413 1_555
Al5 Si5 2.569296 1_555
Al5 Ba2 3.667604 1_555
Al5 Ba2 3.667604 1_655
Al5 Ba0 3.773043 1_555
Al5 Ba0 3.773043 1_655
Al5 Ba3 3.818352 1_555
Al6 Si7 2.515016 1_455
Al6 Si7 2.515016 1_555
Al6 Si0 2.557413 1_545
Al6 Si6 2.569296 1_544
Al6 Ba1 3.667604 1_445
Al6 Ba1 3.667604 1_545
Al6 Ba3 3.773043 1_555
Al6 Ba3 3.773043 1_455
Al6 Ba0 3.818352 1_554
Al7 Si6 2.515016 1_655
Al7 Si6 2.515016 1_555
Al7 Si1 2.557413 1_565
Al7 Si7 2.569296 1_566
Al7 Ba0 3.667604 1_665
Al7 Ba0 3.667604 1_565
Al7 Ba2 3.773043 1_655
Al7 Ba2 3.773043 1_555
Al7 Ba1 3.818352 1_556
