# generated using pymatgen
data_LiFe2F6
_symmetry_space_group_name_H-M   'P 1'
_cell_length_a   4.75622000
_cell_length_b   4.75622000
_cell_length_c   9.41684100
_cell_angle_alpha   90.00000000
_cell_angle_beta   90.00000000
_cell_angle_gamma   90.00000000
_symmetry_Int_Tables_number   1
_chemical_formula_structural   LiFe2F6
_chemical_formula_sum   'Li2 Fe4 F12'
_cell_volume   213.02428052
_cell_formula_units_Z   2
loop_
 _symmetry_equiv_pos_site_id
 _symmetry_equiv_pos_as_xyz
  1  'x, y, z'
loop_
 _atom_site_type_symbol
 _atom_site_label
 _atom_site_symmetry_multiplicity
 _atom_site_fract_x
 _atom_site_fract_y
 _atom_site_fract_z
 _atom_site_occupancy
  Li  Li0  1  0.00000000  0.00000000  0.66587500  1
  Li  Li1  1  0.50000000  0.50000000  0.16587500  1
  Fe  Fe0  1  0.00000000  0.00000000  0.33518400  1
  Fe  Fe1  1  0.50000000  0.50000000  0.83518400  1
  Fe  Fe2  1  0.00000000  0.00000000  0.00157700  1
  Fe  Fe3  1  0.50000000  0.50000000  0.50157700  1
  F  F0  1  0.69527600  0.69527600  0.65667000  1
  F  F1  1  0.80472400  0.19527600  0.15667000  1
  F  F2  1  0.19527600  0.80472400  0.15667000  1
  F  F3  1  0.30472400  0.30472400  0.65667000  1
  F  F4  1  0.29084500  0.29084500  0.00295100  1
  F  F5  1  0.20915500  0.79084500  0.50295100  1
  F  F6  1  0.79084500  0.20915500  0.50295100  1
  F  F7  1  0.70915500  0.70915500  0.00295100  1
  F  F8  1  0.30625800  0.30625800  0.34261100  1
  F  F9  1  0.19374200  0.80625800  0.84261100  1
  F  F10  1  0.80625800  0.19374200  0.84261100  1
  F  F11  1  0.69374200  0.69374200  0.34261100  1
loop_
_geom_bond_atom_site_label_1
_geom_bond_atom_site_label_2
_geom_bond_distance
_geom_bond_site_symmetry_2
F0 Fe3 1.964247 1_555
F0 Li0 2.051500 1_665
F0 Fe1 2.133339 1_555
F1 Fe2 1.964247 1_655
F1 Li1 2.051500 1_555
F1 Fe0 2.133339 1_655
F2 Fe2 1.964247 1_565
F2 Li1 2.051500 1_555
F2 Fe0 2.133339 1_565
F3 Fe3 1.964247 1_555
F3 Li0 2.051500 1_555
F3 Fe1 2.133339 1_555
F4 Fe2 1.956357 1_555
F4 Li1 2.081601 1_555
F4 Fe1 2.115439 1_554
F5 Fe3 1.956357 1_555
F5 Li0 2.081601 1_565
F5 Fe0 2.115439 1_565
F6 Fe3 1.956357 1_555
F6 Li0 2.081601 1_655
F6 Fe0 2.115439 1_655
F7 Fe2 1.956357 1_665
F7 Li1 2.081601 1_555
F7 Fe1 2.115439 1_554
F8 Fe3 1.984724 1_555
F8 Fe0 2.061173 1_555
F8 Li1 2.113794 1_555
F9 Fe2 1.984724 1_566
F9 Fe1 2.061173 1_555
F9 Li0 2.113794 1_565
F10 Fe2 1.984724 1_656
F10 Fe1 2.061173 1_555
F10 Li0 2.113794 1_655
F11 Fe3 1.984724 1_555
F11 Fe0 2.061173 1_665
F11 Li1 2.113794 1_555
