# generated using pymatgen
data_Eu(CuSb)2
_symmetry_space_group_name_H-M   'P 1'
_cell_length_a   4.53240065
_cell_length_b   4.53240065
_cell_length_c   10.64077835
_cell_angle_alpha   90.00000000
_cell_angle_beta   90.00000000
_cell_angle_gamma   90.00000000
_symmetry_Int_Tables_number   1
_chemical_formula_structural   Eu(CuSb)2
_chemical_formula_sum   'Eu2 Cu4 Sb4'
_cell_volume   218.58984551
_cell_formula_units_Z   2
loop_
 _symmetry_equiv_pos_site_id
 _symmetry_equiv_pos_as_xyz
  1  'x, y, z'
loop_
 _atom_site_type_symbol
 _atom_site_label
 _atom_site_symmetry_multiplicity
 _atom_site_fract_x
 _atom_site_fract_y
 _atom_site_fract_z
 _atom_site_occupancy
  Eu  Eu0  1  0.25000000  0.25000000  0.23705797  1
  Eu  Eu1  1  0.75000000  0.75000000  0.76294203  1
  Cu  Cu0  1  0.75000000  0.25000000  -0.00000000  1
  Cu  Cu1  1  0.25000000  0.75000000  -0.00000000  1
  Cu  Cu2  1  0.25000000  0.25000000  0.63265517  1
  Cu  Cu3  1  0.75000000  0.75000000  0.36734483  1
  Sb  Sb0  1  0.75000000  0.25000000  0.50000000  1
  Sb  Sb1  1  0.25000000  0.75000000  0.50000000  1
  Sb  Sb2  1  0.25000000  0.25000000  0.87027921  1
  Sb  Sb3  1  0.75000000  0.75000000  0.12972079  1
loop_
_geom_bond_atom_site_label_1
_geom_bond_atom_site_label_2
_geom_bond_distance
_geom_bond_site_symmetry_2
Eu0 Sb3 3.402328 1_545
Eu0 Sb3 3.402328 1_445
Eu0 Sb3 3.402328 1_455
Eu0 Sb3 3.402328 1_555
Eu0 Sb0 3.600549 1_555
Eu0 Sb1 3.600549 1_545
Eu0 Sb1 3.600549 1_555
Eu0 Sb0 3.600549 1_455
Eu1 Sb2 3.402328 1_565
Eu1 Sb2 3.402328 1_655
Eu1 Sb2 3.402328 1_665
Eu1 Sb2 3.402328 1_555
Eu1 Sb1 3.600549 1_555
Eu1 Sb1 3.600549 1_655
Eu1 Sb0 3.600549 1_555
Eu1 Sb0 3.600549 1_565
Cu0 Sb2 2.653484 1_654
Cu0 Sb3 2.653484 1_555
Cu0 Sb2 2.653484 1_554
Cu0 Sb3 2.653484 1_545
Cu0 Eu1 3.390955 1_554
Cu0 Eu1 3.390955 1_544
Cu0 Eu0 3.390955 1_655
Cu0 Eu0 3.390955 1_555
Cu1 Sb3 2.653484 1_455
Cu1 Sb3 2.653484 1_555
Cu1 Sb2 2.653484 1_554
Cu1 Sb2 2.653484 1_564
Cu1 Eu1 3.390955 1_554
Cu1 Eu1 3.390955 1_454
Cu1 Eu0 3.390955 1_565
Cu1 Eu0 3.390955 1_555
Cu2 Sb2 2.528505 1_555
Cu2 Sb1 2.669859 1_545
Cu2 Sb1 2.669859 1_555
Cu2 Sb0 2.669859 1_455
Cu2 Sb0 2.669859 1_555
Cu2 Eu1 3.491891 1_455
Cu2 Eu1 3.491891 1_445
Cu2 Eu1 3.491891 1_555
Cu2 Eu1 3.491891 1_545
Cu3 Sb3 2.528505 1_555
Cu3 Sb0 2.669859 1_565
Cu3 Sb1 2.669859 1_555
Cu3 Sb1 2.669859 1_655
Cu3 Sb0 2.669859 1_555
Cu3 Eu0 3.491891 1_555
Cu3 Eu0 3.491891 1_655
Cu3 Eu0 3.491891 1_665
Cu3 Eu0 3.491891 1_565
