# generated using pymatgen
data_LiIO3
_symmetry_space_group_name_H-M   'P 1'
_cell_length_a   9.97705600
_cell_length_b   9.97705600
_cell_length_c   6.77233800
_cell_angle_alpha   90.00000000
_cell_angle_beta   90.00000000
_cell_angle_gamma   90.00000000
_symmetry_Int_Tables_number   1
_chemical_formula_structural   LiIO3
_chemical_formula_sum   'Li8 I8 O24'
_cell_volume   674.12967468
_cell_formula_units_Z   8
loop_
 _symmetry_equiv_pos_site_id
 _symmetry_equiv_pos_as_xyz
  1  'x, y, z'
loop_
 _atom_site_type_symbol
 _atom_site_label
 _atom_site_symmetry_multiplicity
 _atom_site_fract_x
 _atom_site_fract_y
 _atom_site_fract_z
 _atom_site_occupancy
  Li  Li0  1  0.50000000  0.50000000  0.50000000  1
  Li  Li1  1  0.00000000  0.00000000  0.00000000  1
  Li  Li2  1  0.75000000  0.75000000  0.25000000  1
  Li  Li3  1  0.50000000  0.50000000  0.00000000  1
  Li  Li4  1  0.25000000  0.25000000  0.25000000  1
  Li  Li5  1  0.75000000  0.25000000  0.75000000  1
  Li  Li6  1  0.25000000  0.75000000  0.75000000  1
  Li  Li7  1  0.00000000  0.00000000  0.50000000  1
  I  I0  1  0.71596100  0.01140700  0.14590000  1
  I  I1  1  0.21596100  0.51140700  0.35410000  1
  I  I2  1  0.28403900  0.98859300  0.14590000  1
  I  I3  1  0.78403900  0.48859300  0.35410000  1
  I  I4  1  0.01140700  0.28403900  0.85410000  1
  I  I5  1  0.51140700  0.78403900  0.64590000  1
  I  I6  1  0.48859300  0.21596100  0.64590000  1
  I  I7  1  0.98859300  0.71596100  0.85410000  1
  O  O0  1  0.19232300  0.08014700  0.95248200  1
  O  O1  1  0.91985300  0.19232300  0.04751800  1
  O  O2  1  0.12093500  0.59601600  0.79352000  1
  O  O3  1  0.62093500  0.09601600  0.70648000  1
  O  O4  1  0.97112200  0.16780900  0.65583600  1
  O  O5  1  0.69232300  0.58014700  0.54751800  1
  O  O6  1  0.47112200  0.66780900  0.84416400  1
  O  O7  1  0.83219100  0.97112200  0.34416400  1
  O  O8  1  0.52887800  0.33219100  0.84416400  1
  O  O9  1  0.37906500  0.90398400  0.70648000  1
  O  O10  1  0.02887800  0.83219100  0.65583600  1
  O  O11  1  0.08014700  0.80767700  0.04751800  1
  O  O12  1  0.40398400  0.12093500  0.20648000  1
  O  O13  1  0.59601600  0.87906500  0.20648000  1
  O  O14  1  0.41985300  0.69232300  0.45248200  1
  O  O15  1  0.16780900  0.02887800  0.34416400  1
  O  O16  1  0.09601600  0.37906500  0.29352000  1
  O  O17  1  0.33219100  0.47112200  0.15583600  1
  O  O18  1  0.87906500  0.40398400  0.79352000  1
  O  O19  1  0.80767700  0.91985300  0.95248200  1
  O  O20  1  0.66780900  0.52887800  0.15583600  1
  O  O21  1  0.30767700  0.41985300  0.54751800  1
  O  O22  1  0.58014700  0.30767700  0.45248200  1
  O  O23  1  0.90398400  0.62093500  0.29352000  1
loop_
_geom_bond_atom_site_label_1
_geom_bond_atom_site_label_2
_geom_bond_distance
_geom_bond_site_symmetry_2
Li0 O21 2.103528 1_555
Li0 O22 2.103528 1_555
Li0 O5 2.103528 1_555
Li0 O14 2.103528 1_555
Li1 O11 2.103528 1_545
Li1 O0 2.103528 1_554
Li1 O1 2.103528 1_455
Li1 O19 2.103528 1_444
Li2 O13 2.026141 1_555
Li2 O23 2.026141 1_555
Li2 O7 2.438483 1_555
Li2 O20 2.438483 1_555
Li3 O20 1.999976 1_555
Li3 O6 1.999976 1_554
Li3 O17 1.999976 1_555
Li3 O8 1.999976 1_554
Li4 O12 2.026141 1_555
Li4 O16 2.026141 1_555
Li4 O17 2.438483 1_555
Li4 O15 2.438483 1_555
Li5 O18 2.026141 1_555
Li5 O3 2.026141 1_555
Li5 O4 2.438483 1_555
Li5 O8 2.438483 1_555
Li6 O2 2.026141 1_555
Li6 O9 2.026141 1_555
Li6 O6 2.438483 1_555
Li6 O10 2.438483 1_555
Li7 O4 1.999976 1_455
Li7 O15 1.999976 1_555
Li7 O10 1.999976 1_545
Li7 O7 1.999976 1_445
I0 O7 1.819111 1_545
I0 O13 1.828611 1_545
I0 O19 1.840520 1_544
I1 O17 1.819111 1_555
I1 O16 1.828611 1_555
I1 O21 1.840520 1_555
I2 O15 1.819111 1_565
I2 O12 1.828611 1_565
I2 O0 1.840520 1_564
I3 O20 1.819111 1_555
I3 O23 1.828611 1_555
I3 O5 1.840520 1_555
I4 O4 1.819111 1_455
I4 O18 1.828611 1_455
I4 O1 1.840520 1_456
I5 O6 1.819111 1_555
I5 O9 1.828611 1_555
I5 O14 1.840520 1_555
I6 O8 1.819111 1_555
I6 O3 1.828611 1_555
I6 O22 1.840520 1_555
I7 O10 1.819111 1_655
I7 O2 1.828611 1_655
I7 O11 1.840520 1_656
