# generated using pymatgen
data_SrBi6(PO5)4
_symmetry_space_group_name_H-M   'P 1'
_cell_length_a   6.96594112
_cell_length_b   7.61112091
_cell_length_c   9.14701203
_cell_angle_alpha   107.14877840
_cell_angle_beta   93.45929597
_cell_angle_gamma   112.00609274
_symmetry_Int_Tables_number   1
_chemical_formula_structural   SrBi6(PO5)4
_chemical_formula_sum   'Sr1 Bi6 P4 O20'
_cell_volume   421.57766569
_cell_formula_units_Z   1
loop_
 _symmetry_equiv_pos_site_id
 _symmetry_equiv_pos_as_xyz
  1  'x, y, z'
loop_
 _atom_site_type_symbol
 _atom_site_label
 _atom_site_symmetry_multiplicity
 _atom_site_fract_x
 _atom_site_fract_y
 _atom_site_fract_z
 _atom_site_occupancy
  Sr  Sr0  1  -0.00000000  0.50000000  0.00000000  1
  Bi  Bi0  1  0.19185568  0.19650771  0.67114847  1
  Bi  Bi1  1  0.56329237  0.71016374  0.91411755  1
  Bi  Bi2  1  0.33074433  0.62659636  0.50728244  1
  Bi  Bi3  1  0.80814432  0.80349229  0.32885153  1
  Bi  Bi4  1  0.43670763  0.28983626  0.08588245  1
  Bi  Bi5  1  0.66925567  0.37340364  0.49271756  1
  P  P0  1  0.04814740  0.76930432  0.75620457  1
  P  P1  1  0.65347238  0.10057345  0.74148421  1
  P  P2  1  0.95185260  0.23069568  0.24379543  1
  P  P3  1  0.34652762  0.89942655  0.25851579  1
  O  O0  1  0.35266960  0.82795850  0.08446433  1
  O  O1  1  0.44591479  0.47201586  0.63628978  1
  O  O2  1  0.86938293  0.23759256  0.71982479  1
  O  O3  1  0.21386659  0.67948250  0.75876416  1
  O  O4  1  0.62599654  0.87950288  0.68450530  1
  O  O5  1  0.87665521  0.67184796  0.84054900  1
  O  O6  1  0.85187248  -0.00057609  0.16803097  1
  O  O7  1  0.32012567  0.40702361  0.90255347  1
  O  O8  1  0.12334479  0.32815204  0.15945100  1
  O  O9  1  0.52040167  0.87866429  0.35558037  1
  O  O10  1  0.37400346  0.12049712  0.31549470  1
  O  O11  1  0.67987433  0.59297639  0.09744653  1
  O  O12  1  0.95410696  0.71094088  0.58199666  1
  O  O13  1  0.14812752  0.00057609  0.83196903  1
  O  O14  1  0.13061707  0.76240744  0.28017521  1
  O  O15  1  0.55408521  0.52798414  0.36371022  1
  O  O16  1  0.64733040  0.17204150  0.91553567  1
  O  O17  1  0.78613341  0.32051750  0.24123584  1
  O  O18  1  0.47959833  0.12133571  0.64441963  1
  O  O19  1  0.04589304  0.28905912  0.41800334  1
loop_
_geom_bond_atom_site_label_1
_geom_bond_atom_site_label_2
_geom_bond_distance
_geom_bond_site_symmetry_2
Bi0 O7 2.131852 1_555
Bi0 O18 2.289282 1_555
Bi0 O1 2.304799 1_555
Bi0 O13 2.342616 1_555
Bi0 O2 2.430434 1_455
Bi1 O7 2.260396 1_555
Bi1 O11 2.351080 1_556
Bi1 O0 2.412917 1_556
Bi1 O5 2.416898 1_555
Bi1 O1 2.516817 1_555
Bi1 O3 2.638087 1_555
Bi1 O6 2.717870 1_566
Bi1 O4 2.747398 1_555
Bi2 O1 2.198221 1_555
Bi2 O15 2.291027 1_555
Bi2 O4 2.313825 1_555
Bi2 O19 2.439501 1_555
Bi2 O3 2.458023 1_555
Bi2 O9 2.691335 1_555
Bi3 O11 2.131852 1_555
Bi3 O9 2.289282 1_555
Bi3 O15 2.304799 1_555
Bi3 O6 2.342616 1_565
Bi3 O14 2.430434 1_655
Bi4 O11 2.260396 1_555
Bi4 O7 2.351080 1_554
Bi4 O16 2.412917 1_554
Bi4 O8 2.416898 1_555
Bi4 O15 2.516817 1_555
Bi4 O17 2.638087 1_555
Bi4 O13 2.717870 1_554
Bi4 O10 2.747398 1_555
Bi5 O15 2.198221 1_555
Bi5 O1 2.291027 1_555
Bi5 O10 2.313825 1_555
Bi5 O12 2.439501 1_555
Bi5 O17 2.458023 1_555
Bi5 O18 2.691335 1_555
O0 P3 1.532095 1_555
O0 Sr0 2.626977 1_555
O2 P1 1.539888 1_555
O2 Sr0 2.592858 1_656
O3 P0 1.548593 1_555
O4 P1 1.539114 1_565
O5 P0 1.535293 1_655
O5 Sr0 2.528268 1_656
O6 P2 1.538642 1_555
O7 Sr0 2.705287 1_556
O8 P2 1.535293 1_455
O8 Sr0 2.528268 1_555
O9 P3 1.541638 1_555
O10 P3 1.539114 1_545
O11 Sr0 2.705287 1_655
O12 P0 1.550539 1_655
O13 P0 1.538642 1_545
O14 P3 1.539888 1_555
O14 Sr0 2.592858 1_555
O16 P1 1.532095 1_555
O16 Sr0 2.626977 1_656
O17 P2 1.548593 1_555
O18 P1 1.541638 1_555
O19 P2 1.550539 1_455
