# generated using pymatgen
data_TaPt3
_symmetry_space_group_name_H-M   'P 1'
_cell_length_a   4.89638324
_cell_length_b   5.56866565
_cell_length_c   27.53183597
_cell_angle_alpha   90.00000000
_cell_angle_beta   90.52622913
_cell_angle_gamma   90.00000000
_symmetry_Int_Tables_number   1
_chemical_formula_structural   TaPt3
_chemical_formula_sum   'Ta12 Pt36'
_cell_volume   750.66022010
_cell_formula_units_Z   12
loop_
 _symmetry_equiv_pos_site_id
 _symmetry_equiv_pos_as_xyz
  1  'x, y, z'
loop_
 _atom_site_type_symbol
 _atom_site_label
 _atom_site_symmetry_multiplicity
 _atom_site_fract_x
 _atom_site_fract_y
 _atom_site_fract_z
 _atom_site_occupancy
  Ta  Ta0  1  0.32858480  0.75000000  0.29251872  1
  Ta  Ta1  1  0.99543717  0.75000000  0.62590980  1
  Ta  Ta2  1  0.66981955  0.25000000  0.54245585  1
  Ta  Ta3  1  0.99694399  0.75000000  0.79092890  1
  Ta  Ta4  1  0.00305601  0.25000000  0.20907110  1
  Ta  Ta5  1  0.66205810  0.75000000  0.95922449  1
  Ta  Ta6  1  0.33794190  0.25000000  0.04077551  1
  Ta  Ta7  1  0.00456283  0.25000000  0.37409020  1
  Ta  Ta8  1  0.66353416  0.75000000  0.12419954  1
  Ta  Ta9  1  0.67141520  0.25000000  0.70748128  1
  Ta  Ta10  1  0.33018045  0.75000000  0.45754415  1
  Ta  Ta11  1  0.33646584  0.25000000  0.87580046  1
  Pt  Pt0  1  0.00210082  0.25000000  0.79072161  1
  Pt  Pt1  1  0.16587648  0.00131023  0.12569465  1
  Pt  Pt2  1  0.17142120  0.49880293  0.70863955  1
  Pt  Pt3  1  0.83795468  0.49880817  0.04192427  1
  Pt  Pt4  1  0.49927115  0.49868945  0.79243368  1
  Pt  Pt5  1  0.50072885  0.50131055  0.20756632  1
  Pt  Pt6  1  0.01760570  0.75000000  0.37475375  1
  Pt  Pt7  1  0.83254030  0.00132140  0.45904533  1
  Pt  Pt8  1  0.16204532  0.50119183  0.95807573  1
  Pt  Pt9  1  0.99789918  0.75000000  0.20927839  1
  Pt  Pt10  1  0.33534284  0.25000000  0.45733754  1
  Pt  Pt11  1  0.16587648  0.49868977  0.12569465  1
  Pt  Pt12  1  0.83254030  0.49867860  0.45904533  1
  Pt  Pt13  1  0.64897402  0.25000000  0.95856292  1
  Pt  Pt14  1  0.16745970  0.50132140  0.54095467  1
  Pt  Pt15  1  0.66465716  0.75000000  0.54266246  1
  Pt  Pt16  1  0.82857880  0.50119707  0.29136045  1
  Pt  Pt17  1  0.16204532  0.99880817  0.95807573  1
  Pt  Pt18  1  0.83412352  0.99868977  0.87430535  1
  Pt  Pt19  1  0.50458006  0.00119810  0.37523600  1
  Pt  Pt20  1  0.16745970  0.99867860  0.54095467  1
  Pt  Pt21  1  0.17142120  0.00119707  0.70863955  1
  Pt  Pt22  1  0.50458006  0.49880190  0.37523600  1
  Pt  Pt23  1  0.33130759  0.75000000  0.87601067  1
  Pt  Pt24  1  0.31551486  0.25000000  0.29184757  1
  Pt  Pt25  1  0.83795468  0.00119183  0.04192427  1
  Pt  Pt26  1  0.35102598  0.75000000  0.04143708  1
  Pt  Pt27  1  0.68448514  0.75000000  0.70815243  1
  Pt  Pt28  1  0.82857880  0.99880293  0.29136045  1
  Pt  Pt29  1  0.66869241  0.25000000  0.12398933  1
  Pt  Pt30  1  0.83412352  0.50131023  0.87430535  1
  Pt  Pt31  1  0.50072885  0.99868945  0.20756632  1
  Pt  Pt32  1  0.49927115  0.00131055  0.79243368  1
  Pt  Pt33  1  0.98239430  0.25000000  0.62524725  1
  Pt  Pt34  1  0.49541994  0.50119810  0.62476400  1
  Pt  Pt35  1  0.49541994  0.99880190  0.62476400  1
loop_
_geom_bond_atom_site_label_1
_geom_bond_atom_site_label_2
_geom_bond_distance
_geom_bond_site_symmetry_2
Pt0 Pt21 2.783590 1_555
Pt0 Pt2 2.783590 1_555
Pt0 Ta3 2.784454 1_455
Pt0 Ta3 2.784454 1_445
Pt0 Ta9 2.793866 1_455
Pt0 Pt32 2.800709 1_555
Pt0 Pt4 2.800709 1_555
Pt0 Pt18 2.822290 1_445
Pt0 Pt30 2.822290 1_455
Pt0 Pt32 2.825578 1_455
Pt0 Pt4 2.825578 1_455
Pt0 Ta11 2.845460 1_555
Pt1 Pt11 2.769740 1_555
Pt1 Pt31 2.775134 1_545
Pt1 Pt25 2.798087 1_455
Pt1 Pt11 2.798925 1_545
Pt1 Pt29 2.800766 1_455
Pt1 Ta4 2.802929 1_555
Pt1 Ta8 2.810632 1_545
Pt1 Pt9 2.822290 1_445
Pt1 Pt29 2.825515 1_555
Pt1 Ta8 2.829887 1_445
Pt1 Ta6 2.851315 1_555
Pt1 Pt26 2.863616 1_545
Pt2 Pt27 2.764210 1_455
Pt2 Pt21 2.771001 1_555
Pt2 Pt21 2.797665 1_565
Pt2 Pt4 2.798423 1_555
Pt2 Ta1 2.801983 1_455
Pt2 Ta3 2.802671 1_455
Pt2 Ta9 2.813002 1_455
Pt2 Ta9 2.813461 1_555
Pt2 Pt34 2.813686 1_555
Pt2 Pt33 2.829942 1_455
Pt2 Pt27 2.875494 1_555
Pt3 Ta5 2.801172 1_554
Pt3 Ta8 2.802255 1_555
Pt3 Ta6 2.813044 1_555
Pt3 Pt8 2.813329 1_654
Pt3 Ta6 2.813441 1_655
Pt4 Ta11 2.802688 1_555
Pt4 Ta3 2.810703 1_555
Pt4 Ta3 2.829825 1_455
Pt4 Ta9 2.852185 1_555
Pt5 Pt9 2.800709 1_555
Pt5 Ta8 2.802688 1_555
Pt5 Ta4 2.810703 1_555
Pt5 Pt9 2.825578 1_455
Pt5 Ta4 2.829825 1_655
Pt5 Ta0 2.852185 1_555
Pt6 Ta10 2.733833 1_555
Pt6 Ta0 2.740059 1_555
Pt6 Ta7 2.785121 1_555
Pt6 Ta7 2.785121 1_565
Pt6 Pt7 2.864274 1_465
Pt7 Ta2 2.803526 1_555
Pt7 Ta10 2.810592 1_645
Pt7 Ta10 2.829993 1_545
Pt7 Ta7 2.852037 1_655
Pt8 Ta6 2.801172 1_556
Pt8 Ta11 2.802255 1_555
Pt8 Ta5 2.813044 1_555
Pt8 Ta5 2.813441 1_455
Pt9 Ta4 2.784454 1_665
Pt9 Ta4 2.784454 1_655
Pt9 Ta0 2.793866 1_655
Pt9 Ta8 2.845460 1_555
Pt10 Pt22 2.783900 1_555
Pt10 Pt19 2.783900 1_555
Pt10 Ta10 2.784454 1_555
Pt10 Ta10 2.784454 1_545
Pt10 Ta7 2.794288 1_555
Pt10 Pt12 2.800793 1_555
Pt10 Pt7 2.800793 1_555
Pt10 Pt14 2.822935 1_555
Pt10 Pt20 2.822935 1_545
Pt10 Pt12 2.825429 1_455
Pt10 Pt7 2.825429 1_455
Pt10 Ta2 2.846659 1_555
Pt11 Pt5 2.775134 1_555
Pt11 Pt3 2.798087 1_455
Pt11 Pt29 2.800766 1_455
Pt11 Ta4 2.802929 1_555
Pt11 Ta8 2.810632 1_555
Pt11 Pt9 2.822290 1_455
Pt11 Pt29 2.825515 1_555
Pt11 Ta8 2.829887 1_455
Pt11 Ta6 2.851315 1_555
Pt11 Pt26 2.863616 1_555
Pt12 Pt7 2.769616 1_555
Pt12 Pt14 2.776163 1_655
Pt12 Pt7 2.799050 1_565
Pt12 Pt22 2.799072 1_555
Pt12 Ta2 2.803526 1_555
Pt12 Ta10 2.810592 1_655
Pt12 Pt15 2.822935 1_555
Pt12 Ta10 2.829993 1_555
Pt12 Ta7 2.852037 1_655
Pt12 Pt6 2.864274 1_655
Pt13 Ta11 2.733016 1_555
Pt13 Ta6 2.739691 1_556
Pt13 Pt17 2.764164 1_545
Pt13 Pt8 2.764164 1_555
Pt13 Ta5 2.785125 1_555
Pt13 Ta5 2.785125 1_545
Pt13 Pt25 2.829195 1_556
Pt13 Pt3 2.829195 1_556
Pt13 Pt30 2.863616 1_555
Pt13 Pt18 2.863616 1_545
Pt13 Pt17 2.875512 1_645
Pt13 Pt8 2.875512 1_655
Pt14 Pt20 2.769616 1_555
Pt14 Pt20 2.799050 1_545
Pt14 Pt34 2.799072 1_555
Pt14 Pt15 2.800793 1_555
Pt14 Ta10 2.803526 1_555
Pt14 Ta2 2.810592 1_455
Pt14 Pt15 2.825429 1_455
Pt14 Ta2 2.829993 1_555
Pt14 Ta1 2.852037 1_455
Pt14 Pt33 2.864296 1_455
Pt15 Pt35 2.783900 1_555
Pt15 Pt34 2.783900 1_555
Pt15 Ta2 2.784454 1_565
Pt15 Ta2 2.784454 1_555
Pt15 Ta1 2.794288 1_555
Pt15 Pt20 2.800793 1_555
Pt15 Pt7 2.822935 1_565
Pt15 Pt20 2.825429 1_655
Pt15 Ta10 2.846659 1_555
Pt16 Pt24 2.764210 1_655
Pt16 Pt28 2.771001 1_555
Pt16 Pt9 2.783590 1_555
Pt16 Pt28 2.797665 1_545
Pt16 Pt5 2.798423 1_555
Pt16 Ta7 2.801983 1_655
Pt16 Ta4 2.802671 1_655
Pt16 Ta0 2.813002 1_655
Pt16 Ta0 2.813461 1_555
Pt16 Pt22 2.813686 1_555
Pt16 Pt6 2.829964 1_655
Pt16 Pt24 2.875494 1_555
Pt17 Pt8 2.771059 1_555
Pt17 Pt23 2.783136 1_555
Pt17 Pt8 2.797607 1_565
Pt17 Pt18 2.798087 1_455
Pt17 Ta6 2.801172 1_566
Pt17 Ta11 2.802255 1_565
Pt17 Ta5 2.813044 1_555
Pt17 Pt25 2.813329 1_466
Pt17 Ta5 2.813441 1_455
Pt17 Pt26 2.829195 1_556
Pt18 Pt30 2.769740 1_555
Pt18 Pt32 2.775134 1_565
Pt18 Pt30 2.798925 1_565
Pt18 Pt23 2.800766 1_655
Pt18 Ta3 2.802929 1_555
Pt18 Ta11 2.810632 1_565
Pt18 Pt23 2.825515 1_555
Pt18 Ta11 2.829887 1_665
Pt18 Ta5 2.851315 1_555
Pt19 Pt6 2.764375 1_545
Pt19 Pt22 2.770989 1_555
Pt19 Pt22 2.797676 1_545
Pt19 Pt7 2.799072 1_555
Pt19 Ta0 2.801724 1_545
Pt19 Ta10 2.802975 1_545
Pt19 Ta7 2.813046 1_555
Pt19 Ta7 2.813403 1_655
Pt19 Pt28 2.813686 1_545
Pt19 Pt24 2.829913 1_555
Pt19 Pt6 2.875332 1_645
Pt20 Pt7 2.776163 1_465
Pt20 Pt35 2.799072 1_555
Pt20 Ta10 2.803526 1_555
Pt20 Ta2 2.810592 1_465
Pt20 Ta2 2.829993 1_565
Pt20 Ta1 2.852037 1_455
Pt20 Pt33 2.864296 1_465
Pt21 Pt27 2.764210 1_445
Pt21 Pt32 2.798423 1_555
Pt21 Ta1 2.801983 1_445
Pt21 Ta3 2.802671 1_445
Pt21 Ta9 2.813002 1_455
Pt21 Ta9 2.813461 1_555
Pt21 Pt35 2.813686 1_545
Pt21 Pt33 2.829942 1_455
Pt21 Pt27 2.875494 1_545
Pt22 Pt6 2.764375 1_555
Pt22 Ta0 2.801724 1_555
Pt22 Ta10 2.802975 1_555
Pt22 Ta7 2.813046 1_555
Pt22 Ta7 2.813403 1_655
Pt22 Pt24 2.829913 1_555
Pt22 Pt6 2.875332 1_655
Pt23 Pt8 2.783136 1_555
Pt23 Ta11 2.784454 1_555
Pt23 Ta11 2.784454 1_565
Pt23 Ta5 2.793453 1_555
Pt23 Pt30 2.800766 1_455
Pt23 Pt4 2.822119 1_555
Pt23 Pt32 2.822119 1_565
Pt23 Pt30 2.825515 1_555
Pt23 Ta3 2.845522 1_455
Pt24 Ta4 2.733202 1_555
Pt24 Ta7 2.740158 1_555
Pt24 Pt28 2.764210 1_445
Pt24 Ta0 2.785126 1_545
Pt24 Ta0 2.785126 1_555
Pt24 Pt5 2.864249 1_555
Pt24 Pt31 2.864249 1_545
Pt24 Pt28 2.875494 1_545
Pt25 Pt26 2.764164 1_545
Pt25 Pt3 2.771059 1_555
Pt25 Pt29 2.783136 1_555
Pt25 Pt3 2.797607 1_545
Pt25 Ta5 2.801172 1_544
Pt25 Ta8 2.802255 1_545
Pt25 Ta6 2.813044 1_555
Pt25 Ta6 2.813441 1_655
Pt25 Pt26 2.875512 1_645
Pt26 Ta8 2.733016 1_555
Pt26 Ta5 2.739691 1_554
Pt26 Pt3 2.764164 1_555
Pt26 Ta6 2.785125 1_565
Pt26 Ta6 2.785125 1_555
Pt26 Pt8 2.829195 1_554
Pt26 Pt3 2.875512 1_455
Pt27 Ta3 2.733202 1_555
Pt27 Ta1 2.740158 1_555
Pt27 Ta9 2.785126 1_565
Pt27 Ta9 2.785126 1_555
Pt27 Pt34 2.829913 1_555
Pt27 Pt35 2.829913 1_555
Pt27 Pt32 2.864249 1_565
Pt27 Pt4 2.864249 1_555
Pt28 Pt9 2.783590 1_555
Pt28 Pt31 2.798423 1_555
Pt28 Ta7 2.801983 1_665
Pt28 Ta4 2.802671 1_665
Pt28 Ta0 2.813002 1_655
Pt28 Ta0 2.813461 1_555
Pt28 Pt6 2.829964 1_655
Pt29 Pt3 2.783136 1_555
Pt29 Ta8 2.784454 1_545
Pt29 Ta8 2.784454 1_555
Pt29 Ta6 2.793453 1_555
Pt29 Pt5 2.822119 1_555
Pt29 Pt31 2.822119 1_545
Pt29 Ta4 2.845522 1_655
Pt30 Pt4 2.775134 1_555
Pt30 Pt8 2.798087 1_655
Pt30 Ta3 2.802929 1_555
Pt30 Ta11 2.810632 1_555
Pt30 Ta11 2.829887 1_655
Pt30 Ta5 2.851315 1_555
Pt31 Pt5 2.769737 1_555
Pt31 Pt5 2.798929 1_565
Pt31 Pt9 2.800709 1_555
Pt31 Ta8 2.802688 1_555
Pt31 Ta4 2.810703 1_565
Pt31 Pt9 2.825578 1_455
Pt31 Ta4 2.829825 1_665
Pt31 Ta0 2.852185 1_555
Pt32 Pt4 2.769737 1_555
Pt32 Pt4 2.798929 1_545
Pt32 Ta11 2.802688 1_555
Pt32 Ta3 2.810703 1_545
Pt32 Ta3 2.829825 1_445
Pt32 Ta9 2.852185 1_555
Pt33 Ta2 2.733856 1_555
Pt33 Ta9 2.740036 1_555
Pt33 Pt34 2.764375 1_555
Pt33 Pt35 2.764375 1_545
Pt33 Ta1 2.785121 1_555
Pt33 Ta1 2.785121 1_545
Pt33 Pt35 2.875332 1_645
Pt33 Pt34 2.875332 1_655
Pt34 Pt35 2.770989 1_555
Pt34 Pt35 2.797676 1_545
Pt34 Ta9 2.801724 1_555
Pt34 Ta2 2.802975 1_555
Pt34 Ta1 2.813046 1_555
Pt34 Ta1 2.813403 1_455
Pt35 Ta9 2.801724 1_565
Pt35 Ta2 2.802975 1_565
Pt35 Ta1 2.813046 1_555
Pt35 Ta1 2.813403 1_455
