# generated using pymatgen
data_Zn(FeO2)2
_symmetry_space_group_name_H-M   'P 1'
_cell_length_a   6.01214537
_cell_length_b   6.01387883
_cell_length_c   36.20429384
_cell_angle_alpha   60.00454654
_cell_angle_beta   60.02791442
_cell_angle_gamma   60.07991624
_symmetry_Int_Tables_number   1
_chemical_formula_structural   Zn(FeO2)2
_chemical_formula_sum   'Zn12 Fe24 O48'
_cell_volume   926.39762967
_cell_formula_units_Z   12
loop_
 _symmetry_equiv_pos_site_id
 _symmetry_equiv_pos_as_xyz
  1  'x, y, z'
loop_
 _atom_site_type_symbol
 _atom_site_label
 _atom_site_symmetry_multiplicity
 _atom_site_fract_x
 _atom_site_fract_y
 _atom_site_fract_z
 _atom_site_occupancy
  Zn  Zn0  1  0.12293900  0.12293200  0.02169200  1
  Zn  Zn1  1  0.50008100  0.50016500  0.00014800  1
  Zn  Zn2  1  0.12279900  0.12291600  0.18990200  1
  Zn  Zn3  1  0.50052500  0.50044800  0.16744700  1
  Zn  Zn4  1  0.12735500  0.12740200  0.35406000  1
  Zn  Zn5  1  0.12581100  0.12582500  0.52042500  1
  Zn  Zn6  1  0.87376200  0.87366600  0.31118000  1
  Zn  Zn7  1  0.12543200  0.12543700  0.68726200  1
  Zn  Zn8  1  0.87524300  0.87521100  0.47913000  1
  Zn  Zn9  1  0.12574600  0.12575300  0.85375500  1
  Zn  Zn10  1  0.87521800  0.87520000  0.64578600  1
  Zn  Zn11  1  0.87445800  0.87444000  0.81277200  1
  Fe  Fe0  1  0.00505200  0.49639200  0.08335300  1
  Fe  Fe1  1  0.49676900  0.49679600  0.08367600  1
  Fe  Fe2  1  0.00216100  0.49794300  0.25001900  1
  Fe  Fe3  1  0.49790900  0.00219700  0.25003400  1
  Fe  Fe4  1  0.49639800  0.00500600  0.08335700  1
  Fe  Fe5  1  0.50224200  0.50221400  0.24997600  1
  Fe  Fe6  1  0.49747300  0.49758000  0.33364400  1
  Fe  Fe7  1  0.87625800  0.87630000  0.14422400  1
  Fe  Fe8  1  0.50142900  0.50138000  0.41607200  1
  Fe  Fe9  1  0.49981400  0.49980700  0.49975600  1
  Fe  Fe10  1  0.50156200  0.99949500  0.41650100  1
  Fe  Fe11  1  0.99947600  0.50152500  0.41650900  1
  Fe  Fe12  1  0.50039400  0.50038500  0.58310400  1
  Fe  Fe13  1  0.50033700  0.50032600  0.66648400  1
  Fe  Fe14  1  0.50044500  0.00044900  0.58319100  1
  Fe  Fe15  1  0.00044800  0.50043900  0.58319200  1
  Fe  Fe16  1  0.50037000  0.50037500  0.74978200  1
  Fe  Fe17  1  0.50131700  0.50130200  0.83267600  1
  Fe  Fe18  1  0.50038600  0.00052700  0.74977700  1
  Fe  Fe19  1  0.49952500  0.49951100  0.91620000  1
  Fe  Fe20  1  0.00054200  0.50038800  0.74977400  1
  Fe  Fe21  1  0.49940200  0.00357200  0.91621400  1
  Fe  Fe22  1  0.00360100  0.49940500  0.91620500  1
  Fe  Fe23  1  0.87629000  0.87632100  0.97847600  1
  O  O0  1  0.25221500  0.25166800  0.04621700  1
  O  O1  1  0.25205800  0.71853900  0.04613300  1
  O  O2  1  0.25444500  0.25459400  0.12252700  1
  O  O3  1  0.71839400  0.25172600  0.04617700  1
  O  O4  1  0.25282000  0.25352900  0.21379800  1
  O  O5  1  0.26833300  0.74594100  0.12369200  1
  O  O6  1  0.74293900  0.74278600  0.04495000  1
  O  O7  1  0.26284400  0.71417500  0.21455300  1
  O  O8  1  0.74548300  0.26820500  0.12375900  1
  O  O9  1  0.27136700  0.27102400  0.28640900  1
  O  O10  1  0.71413200  0.26311600  0.21453100  1
  O  O11  1  0.74568600  0.74635100  0.12254000  1
  O  O12  1  0.26063500  0.26053600  0.37670400  1
  O  O13  1  0.28564600  0.73078100  0.28808000  1
  O  O14  1  0.73413300  0.73447900  0.21097400  1
  O  O15  1  0.73101500  0.28562600  0.28806900  1
  O  O16  1  0.26129700  0.26138500  0.45303400  1
  O  O17  1  0.26060100  0.72366400  0.37539500  1
  O  O18  1  0.72367500  0.26046600  0.37542100  1
  O  O19  1  0.73857300  0.73780800  0.28841500  1
  O  O20  1  0.25978300  0.25966400  0.54332500  1
  O  O21  1  0.27995100  0.74139600  0.45637300  1
  O  O22  1  0.74265800  0.74257100  0.37859300  1
  O  O23  1  0.74143900  0.27990100  0.45636400  1
  O  O24  1  0.25993800  0.72079500  0.54329500  1
  O  O25  1  0.25998900  0.26012400  0.61989800  1
  O  O26  1  0.74113500  0.74115100  0.45626300  1
  O  O27  1  0.72079400  0.25993300  0.54327800  1
  O  O28  1  0.28022300  0.73992200  0.62333800  1
  O  O29  1  0.26041900  0.26032500  0.70976800  1
  O  O30  1  0.74056500  0.74042400  0.54650400  1
  O  O31  1  0.26003900  0.26015300  0.78646300  1
  O  O32  1  0.73993700  0.28020700  0.62331600  1
  O  O33  1  0.26098400  0.72059500  0.70966600  1
  O  O34  1  0.72058600  0.26100600  0.70964500  1
  O  O35  1  0.74032600  0.74043800  0.62322200  1
  O  O36  1  0.26068800  0.26064400  0.87626700  1
  O  O37  1  0.27930400  0.74093500  0.78971300  1
  O  O38  1  0.74069700  0.74056900  0.71315500  1
  O  O39  1  0.74092800  0.27930700  0.78969900  1
  O  O40  1  0.25851100  0.25858600  0.95395400  1
  O  O41  1  0.26119300  0.72093600  0.87615900  1
  O  O42  1  0.74148500  0.74157700  0.78959200  1
  O  O43  1  0.72092800  0.26120200  0.87615100  1
  O  O44  1  0.26721800  0.74753800  0.95619600  1
  O  O45  1  0.74753600  0.26723900  0.95619300  1
  O  O46  1  0.73935900  0.73929900  0.88043900  1
  O  O47  1  0.74812400  0.74813400  0.95604000  1
loop_
_geom_bond_atom_site_label_1
_geom_bond_atom_site_label_2
_geom_bond_distance
_geom_bond_site_symmetry_2
Fe0 O0 1.995587 1_555
Fe0 O1 1.996418 1_555
Fe0 O2 2.064407 1_555
Fe0 O11 2.070659 1_455
Fe0 O8 2.075264 1_455
Fe0 O6 2.100452 1_455
Fe1 O1 2.004708 1_555
Fe1 O3 2.006204 1_555
Fe1 O2 2.059982 1_555
Fe1 O8 2.086739 1_555
Fe1 O5 2.087974 1_555
Fe1 O6 2.093249 1_555
Fe2 O4 1.973375 1_555
Fe2 O19 2.011971 1_455
Fe2 O7 2.036904 1_555
Fe2 O15 2.063845 1_455
Fe2 O9 2.084971 1_555
Fe2 O14 2.144097 1_455
Fe3 O4 1.975832 1_555
Fe3 O19 2.014264 1_545
Fe3 O10 2.037889 1_555
Fe3 O13 2.064899 1_545
Fe3 O9 2.084003 1_555
Fe3 O14 2.144230 1_545
Fe4 O0 1.992293 1_555
Fe4 O3 1.994563 1_555
Fe4 O2 2.066175 1_555
Fe4 O11 2.066541 1_545
Fe4 O5 2.072566 1_545
Fe4 O6 2.102067 1_545
Fe5 O7 1.928903 1_555
Fe5 O10 1.929098 1_555
Fe5 O15 1.949956 1_555
Fe5 O13 1.950315 1_555
Fe5 O9 1.965151 1_555
Fe5 O14 1.972885 1_555
Fe6 O12 2.018662 1_555
Fe6 O17 2.033232 1_555
Fe6 O18 2.033396 1_555
Fe6 O19 2.054701 1_555
Fe6 O13 2.077044 1_555
Fe6 O15 2.078815 1_555
Fe7 O11 1.919506 1_555
Fe7 O8 1.925985 1_565
Fe7 O5 1.926665 1_655
Fe7 O14 1.975004 1_555
Fe8 O16 2.043371 1_555
Fe8 O22 2.052535 1_555
Fe8 O23 2.056045 1_555
Fe8 O21 2.057334 1_555
Fe8 O17 2.069646 1_555
Fe8 O18 2.070372 1_555
Fe9 O20 2.045315 1_555
Fe9 O21 2.049878 1_555
Fe9 O23 2.051298 1_555
Fe9 O26 2.055235 1_555
Fe9 O27 2.058121 1_555
Fe9 O24 2.059619 1_555
Fe10 O26 2.040542 1_555
Fe10 O21 2.041882 1_555
Fe10 O12 2.047876 1_565
Fe10 O16 2.054478 1_565
Fe10 O18 2.056902 1_565
Fe10 O22 2.066487 1_555
Fe11 O26 2.041564 1_555
Fe11 O23 2.041649 1_555
Fe11 O12 2.049372 1_655
Fe11 O16 2.052955 1_655
Fe11 O17 2.057688 1_655
Fe11 O22 2.065192 1_555
Fe12 O30 2.044450 1_555
Fe12 O24 2.045528 1_555
Fe12 O25 2.046067 1_555
Fe12 O27 2.046983 1_555
Fe12 O32 2.052307 1_555
Fe12 O28 2.053890 1_555
Fe13 O29 2.043627 1_555
Fe13 O35 2.044318 1_555
Fe13 O28 2.044571 1_555
Fe13 O34 2.045521 1_555
Fe13 O32 2.046181 1_555
Fe13 O33 2.047167 1_555
Fe14 O27 2.042850 1_555
Fe14 O28 2.046959 1_545
Fe14 O20 2.047833 1_555
Fe14 O25 2.048934 1_555
Fe14 O35 2.048972 1_545
Fe14 O30 2.049989 1_545
Fe15 O24 2.042891 1_555
Fe15 O32 2.046912 1_455
Fe15 O25 2.047297 1_555
Fe15 O30 2.048366 1_455
Fe15 O20 2.049366 1_555
Fe15 O35 2.050472 1_455
Fe16 O38 2.045767 1_555
Fe16 O31 2.045797 1_555
Fe16 O39 2.048624 1_555
Fe16 O33 2.049037 1_555
Fe16 O37 2.050025 1_555
Fe16 O34 2.050543 1_555
Fe17 O42 2.045331 1_555
Fe17 O37 2.047457 1_555
Fe17 O39 2.048762 1_555
Fe17 O36 2.049869 1_555
Fe17 O43 2.051290 1_555
Fe17 O41 2.052604 1_555
Fe18 O37 2.046309 1_545
Fe18 O34 2.046656 1_555
Fe18 O38 2.048100 1_545
Fe18 O31 2.048201 1_555
Fe18 O42 2.048278 1_545
Fe18 O29 2.048707 1_555
Fe19 O41 2.041995 1_555
Fe19 O43 2.043129 1_555
Fe19 O46 2.043808 1_555
Fe19 O40 2.050009 1_555
Fe19 O45 2.080404 1_555
Fe19 O44 2.081583 1_555
Fe20 O39 2.046389 1_455
Fe20 O33 2.046505 1_555
Fe20 O38 2.046508 1_455
Fe20 O31 2.046686 1_555
Fe20 O42 2.049763 1_455
Fe20 O29 2.050058 1_555
Fe21 O43 2.039495 1_555
Fe21 O36 2.041169 1_555
Fe21 O46 2.046624 1_545
Fe21 O40 2.053940 1_555
Fe21 O44 2.076419 1_545
Fe21 O47 2.079173 1_545
Fe22 O41 2.039334 1_555
Fe22 O36 2.042147 1_555
Fe22 O46 2.045251 1_455
Fe22 O40 2.052687 1_555
Fe22 O45 2.076469 1_455
Fe22 O47 2.080462 1_455
Fe23 O44 1.920672 1_655
Fe23 O45 1.920710 1_565
Fe23 O47 1.921432 1_555
Fe23 O6 1.965103 1_556
O0 Zn0 1.992231 1_555
O0 Zn1 2.117054 1_555
O1 Zn0 1.987814 1_565
O1 Zn1 2.114725 1_555
O2 Zn2 1.992091 1_555
O3 Zn0 1.988532 1_655
O3 Zn1 2.114645 1_555
O4 Zn2 1.986010 1_555
O4 Zn3 2.111035 1_555
O5 Zn3 2.110200 1_555
O7 Zn2 2.010077 1_565
O7 Zn3 2.127692 1_555
O8 Zn3 2.109696 1_555
O9 Zn4 2.001631 1_555
O10 Zn2 2.009684 1_655
O10 Zn3 2.125632 1_555
O11 Zn3 2.092573 1_555
O12 Zn4 1.976834 1_555
O13 Zn6 2.023978 1_455
O15 Zn6 2.024418 1_545
O16 Zn5 1.992213 1_555
O17 Zn4 1.984036 1_565
O18 Zn4 1.983603 1_655
O19 Zn6 2.003126 1_555
O20 Zn5 1.991275 1_555
O21 Zn8 1.988294 1_455
O22 Zn6 1.993351 1_555
O23 Zn8 1.988305 1_545
O24 Zn5 1.989995 1_565
O25 Zn7 1.991424 1_555
O26 Zn8 1.992043 1_555
O27 Zn5 1.989832 1_655
O28 Zn10 1.989730 1_455
O29 Zn7 1.989710 1_555
O30 Zn8 1.991716 1_555
O31 Zn9 1.989300 1_555
O32 Zn10 1.989844 1_545
O33 Zn7 1.989037 1_565
O34 Zn7 1.988952 1_655
O35 Zn10 1.990342 1_555
O36 Zn9 1.989682 1_555
O37 Zn11 1.989050 1_455
O38 Zn10 1.991573 1_555
O39 Zn11 1.989247 1_545
O40 Zn0 2.002473 1_556
O41 Zn9 1.988912 1_565
O42 Zn11 1.989947 1_555
O43 Zn9 1.988813 1_655
O44 Zn1 2.118135 1_556
O45 Zn1 2.119517 1_556
O46 Zn11 2.000385 1_555
O47 Zn1 2.110889 1_556
