# generated using pymatgen
data_Na5Bi2As5O18
_symmetry_space_group_name_H-M   'P 1'
_cell_length_a   7.18485500
_cell_length_b   10.24580154
_cell_length_c   12.31278032
_cell_angle_alpha   97.39371933
_cell_angle_beta   92.21293820
_cell_angle_gamma   90.91536877
_symmetry_Int_Tables_number   1
_chemical_formula_structural   Na5Bi2As5O18
_chemical_formula_sum   'Na10 Bi4 As10 O36'
_cell_volume   897.99290951
_cell_formula_units_Z   2
loop_
 _symmetry_equiv_pos_site_id
 _symmetry_equiv_pos_as_xyz
  1  'x, y, z'
loop_
 _atom_site_type_symbol
 _atom_site_label
 _atom_site_symmetry_multiplicity
 _atom_site_fract_x
 _atom_site_fract_y
 _atom_site_fract_z
 _atom_site_occupancy
  Na  Na0  1  0.01507300  0.06494700  0.87320100  1
  Na  Na1  1  0.77228000  0.12346900  0.35813900  1
  Na  Na2  1  0.98492700  0.93505300  0.12679900  1
  Na  Na3  1  0.47101200  0.72992000  0.40258800  1
  Na  Na4  1  0.66471400  0.60798100  0.11947500  1
  Na  Na5  1  0.91153700  0.77638800  0.34483800  1
  Na  Na6  1  0.52898800  0.27008000  0.59741200  1
  Na  Na7  1  0.22772000  0.87653100  0.64186100  1
  Na  Na8  1  0.08846300  0.22361200  0.65516200  1
  Na  Na9  1  0.33528600  0.39201900  0.88052500  1
  Bi  Bi0  1  0.23035700  0.37287200  0.39437600  1
  Bi  Bi1  1  0.67357600  0.23499800  0.06073000  1
  Bi  Bi2  1  0.76964300  0.62712800  0.60562400  1
  Bi  Bi3  1  0.32642400  0.76500200  0.93927000  1
  As  As0  1  0.16946900  0.58128900  0.15900400  1
  As  As1  1  0.51031000  0.93614100  0.19577100  1
  As  As2  1  0.82316700  0.73551500  0.89200700  1
  As  As3  1  0.17683300  0.26448500  0.10799300  1
  As  As4  1  0.71667700  0.42577200  0.34066100  1
  As  As5  1  0.28332300  0.57422800  0.65933900  1
  As  As6  1  0.77485300  0.97949700  0.60832700  1
  As  As7  1  0.83053100  0.41871100  0.84099600  1
  As  As8  1  0.22514700  0.02050300  0.39167300  1
  As  As9  1  0.48969000  0.06385900  0.80422900  1
  O  O0  1  0.35485900  0.25141700  0.01864900  1
  O  O1  1  0.98771600  0.68338800  0.16220200  1
  O  O2  1  0.39413500  0.19677900  0.75774900  1
  O  O3  1  0.23028900  0.17543900  0.46881300  1
  O  O4  1  0.76971100  0.82456100  0.53118700  1
  O  O5  1  0.93418700  0.58075300  0.89157600  1
  O  O6  1  0.73433100  0.75452500  0.76526700  1
  O  O7  1  0.24244400  0.41352700  0.60217100  1
  O  O8  1  0.26611300  0.56773700  0.28640100  1
  O  O9  1  0.97156300  0.00827300  0.68837400  1
  O  O10  1  0.01228400  0.31661200  0.83779800  1
  O  O11  1  0.06581300  0.41924700  0.10842400  1
  O  O12  1  0.67202400  0.39874800  0.93995700  1
  O  O13  1  0.26246000  0.89429000  0.46451500  1
  O  O14  1  0.00278900  0.84168300  0.93843300  1
  O  O15  1  0.73388700  0.43226300  0.71359900  1
  O  O16  1  0.67516800  0.09186200  0.89691000  1
  O  O17  1  0.99721100  0.15831700  0.06156700  1
  O  O18  1  0.90915500  0.32972000  0.35313100  1
  O  O19  1  0.73754000  0.10571000  0.53548500  1
  O  O20  1  0.55097200  0.35661100  0.41664200  1
  O  O21  1  0.35115500  0.58337800  0.79574700  1
  O  O22  1  0.64884500  0.41662200  0.20425300  1
  O  O23  1  0.56686700  0.96465200  0.68425400  1
  O  O24  1  0.75755600  0.58647300  0.39782900  1
  O  O25  1  0.43313300  0.03534800  0.31574600  1
  O  O26  1  0.09084500  0.67028000  0.64686900  1
  O  O27  1  0.02843700  0.99172700  0.31162600  1
  O  O28  1  0.26566900  0.24547500  0.23473300  1
  O  O29  1  0.32483200  0.90813800  0.10309000  1
  O  O30  1  0.32453100  0.95630400  0.84148700  1
  O  O31  1  0.44902800  0.64338900  0.58335800  1
  O  O32  1  0.60586500  0.80322100  0.24225100  1
  O  O33  1  0.32797600  0.60125200  0.06004300  1
  O  O34  1  0.67546900  0.04369600  0.15851300  1
  O  O35  1  0.64514100  0.74858300  0.98135100  1
loop_
_geom_bond_atom_site_label_1
_geom_bond_atom_site_label_2
_geom_bond_distance
_geom_bond_site_symmetry_2
Na0 O9 2.283205 1_455
Na0 O17 2.401396 1_456
Na0 O16 2.486223 1_455
Na0 O14 2.521416 1_545
Na0 O30 2.523759 1_545
Na0 O10 2.670093 1_555
Na1 O19 2.237524 1_555
Na1 O18 2.325595 1_555
Na1 O27 2.345001 1_645
Na1 O34 2.554629 1_555
Na1 O25 2.595271 1_555
Na1 O20 2.918931 1_555
Na2 O27 2.283205 1_655
Na2 O14 2.401396 1_654
Na2 O29 2.486223 1_655
Na2 O17 2.521416 1_565
Na2 O34 2.523759 1_565
Na2 O1 2.670093 1_555
Na3 O13 2.345466 1_555
Na3 O32 2.430293 1_555
Na3 O8 2.474359 1_555
Na3 O31 2.509110 1_555
Na3 O24 2.546749 1_555
Na3 O4 2.707240 1_555
Na4 O22 2.339973 1_555
Na4 O35 2.367691 1_554
Na4 O32 2.400771 1_555
Na4 O1 2.450154 1_555
Na4 O33 2.497752 1_555
Na4 O12 2.877009 1_554
Na5 O24 2.397846 1_555
Na5 O1 2.413432 1_555
Na5 O27 2.437222 1_655
Na5 O32 2.527618 1_555
Na5 O4 2.540028 1_555
Na6 O19 2.345466 1_555
Na6 O2 2.430293 1_555
Na6 O15 2.474359 1_555
Na6 O20 2.509110 1_555
Na6 O7 2.546749 1_555
Na6 O3 2.707240 1_555
Na7 O13 2.237524 1_555
Na7 O26 2.325595 1_555
Na7 O9 2.345001 1_465
Na7 O30 2.554629 1_555
Na7 O23 2.595271 1_555
Na7 O31 2.918931 1_555
Na8 O7 2.397846 1_555
Na8 O10 2.413432 1_555
Na8 O9 2.437222 1_455
Na8 O2 2.527618 1_555
Na8 O3 2.540028 1_555
Na9 O21 2.339973 1_555
Na9 O0 2.367691 1_556
Na9 O2 2.400771 1_555
Na9 O10 2.450154 1_555
Na9 O12 2.497752 1_555
Na9 O33 2.877009 1_556
Bi0 O28 2.240682 1_555
Bi0 O20 2.320477 1_555
Bi0 O3 2.325759 1_555
Bi0 O18 2.366088 1_455
Bi0 O7 2.536639 1_555
Bi0 O8 2.552029 1_555
Bi1 O16 2.336763 1_554
Bi1 O0 2.341726 1_555
Bi1 O12 2.380700 1_554
Bi1 O22 2.409519 1_555
Bi1 O34 2.428677 1_555
Bi1 O17 2.466344 1_555
Bi2 O6 2.240682 1_555
Bi2 O31 2.320477 1_555
Bi2 O4 2.325759 1_555
Bi2 O26 2.366088 1_655
Bi2 O24 2.536639 1_555
Bi2 O15 2.552029 1_555
Bi3 O29 2.336763 1_556
Bi3 O35 2.341726 1_555
Bi3 O33 2.380700 1_556
Bi3 O21 2.409519 1_555
Bi3 O30 2.428677 1_555
Bi3 O14 2.466344 1_555
As0 O1 1.684683 1_455
As0 O8 1.713767 1_555
As0 O33 1.728406 1_555
As0 O11 1.832348 1_555
As1 O32 1.689289 1_555
As1 O29 1.716552 1_555
As1 O34 1.721430 1_565
As1 O25 1.793785 1_565
As2 O6 1.698775 1_555
As2 O14 1.706956 1_655
As2 O35 1.714757 1_555
As2 O5 1.785830 1_555
As3 O28 1.698775 1_555
As3 O17 1.706956 1_455
As3 O0 1.714757 1_555
As3 O11 1.785830 1_555
As4 O22 1.721058 1_555
As4 O24 1.721344 1_555
As4 O18 1.723528 1_555
As4 O20 1.739106 1_555
As5 O21 1.721058 1_555
As5 O7 1.721344 1_555
As5 O26 1.723528 1_555
As5 O31 1.739106 1_555
As6 O19 1.685093 1_565
As6 O9 1.691203 1_565
As6 O4 1.740929 1_555
As6 O23 1.807601 1_555
As7 O10 1.684683 1_655
As7 O15 1.713767 1_555
As7 O12 1.728406 1_555
As7 O5 1.832348 1_555
As8 O13 1.685093 1_545
As8 O27 1.691203 1_545
As8 O3 1.740929 1_555
As8 O25 1.807601 1_555
As9 O2 1.689289 1_555
As9 O16 1.716552 1_555
As9 O30 1.721430 1_545
As9 O23 1.793785 1_545
