# generated using pymatgen
data_KSmP3HO10
_symmetry_space_group_name_H-M   'P 1'
_cell_length_a   7.04099400
_cell_length_b   7.81925390
_cell_length_c   8.66897241
_cell_angle_alpha   73.73011374
_cell_angle_beta   73.58332162
_cell_angle_gamma   82.56454930
_symmetry_Int_Tables_number   1
_chemical_formula_structural   KSmP3HO10
_chemical_formula_sum   'K2 Sm2 P6 H2 O20'
_cell_volume   438.82683194
_cell_formula_units_Z   2
loop_
 _symmetry_equiv_pos_site_id
 _symmetry_equiv_pos_as_xyz
  1  'x, y, z'
loop_
 _atom_site_type_symbol
 _atom_site_label
 _atom_site_symmetry_multiplicity
 _atom_site_fract_x
 _atom_site_fract_y
 _atom_site_fract_z
 _atom_site_occupancy
  K  K0  1  0.78872100  0.28495700  0.46406400  1
  K  K1  1  0.21127900  0.71504300  0.53593600  1
  Sm  Sm0  1  0.77300600  0.36938600  0.98921900  1
  Sm  Sm1  1  0.22699400  0.63061400  0.01078100  1
  P  P0  1  0.67244000  0.69221200  0.15750700  1
  P  P1  1  0.32756000  0.30778800  0.84249300  1
  P  P2  1  0.85534700  0.96079200  0.86115000  1
  P  P3  1  0.14465300  0.03920800  0.13885000  1
  P  P4  1  0.67316600  0.76940200  0.68620300  1
  P  P5  1  0.32683400  0.23059800  0.31379700  1
  H  H0  1  0.68862300  0.80054400  0.42132600  1
  H  H1  1  0.31137700  0.19945600  0.57867400  1
  O  O0  1  0.58934800  0.70214800  0.33535000  1
  O  O1  1  0.41065200  0.29785200  0.66465000  1
  O  O2  1  0.53421200  0.62985000  0.07741100  1
  O  O3  1  0.46578800  0.37015000  0.92258900  1
  O  O4  1  0.86588100  0.57230500  0.12728100  1
  O  O5  1  0.13411900  0.42769500  0.87271900  1
  O  O6  1  0.72291000  0.89663900  0.04966900  1
  O  O7  1  0.27709000  0.10336100  0.95033100  1
  O  O8  1  0.95545000  0.15335500  0.16350900  1
  O  O9  1  0.04455000  0.84664500  0.83649100  1
  O  O10  1  0.86423000  0.15996800  0.82636900  1
  O  O11  1  0.13577000  0.84003200  0.17363100  1
  O  O12  1  0.72146100  0.93539400  0.74717200  1
  O  O13  1  0.27853900  0.06460600  0.25282800  1
  O  O14  1  0.54813800  0.25121300  0.25575800  1
  O  O15  1  0.45186200  0.74878700  0.74424200  1
  O  O16  1  0.80521800  0.60682500  0.74091200  1
  O  O17  1  0.19478200  0.39317500  0.25908800  1
  O  O18  1  0.74594400  0.85416000  0.49341300  1
  O  O19  1  0.25405600  0.14584000  0.50658700  1
loop_
_geom_bond_atom_site_label_1
_geom_bond_atom_site_label_2
_geom_bond_distance
_geom_bond_site_symmetry_2
K0 O1 2.744513 1_555
K0 O14 2.882994 1_555
K0 O8 2.947274 1_555
K0 O17 2.993296 1_655
K0 O4 3.100174 1_555
K0 O12 3.104504 1_545
K0 O10 3.192481 1_555
K1 O0 2.744513 1_555
K1 O15 2.882994 1_555
K1 O9 2.947274 1_555
K1 O16 2.993296 1_455
K1 O5 3.100174 1_555
K1 O13 3.104504 1_565
K1 O11 3.192481 1_555
H0 O18 1.030694 1_555
H0 O0 1.546296 1_555
H1 O19 1.030694 1_555
H1 O1 1.546296 1_555
O0 P0 1.506892 1_555
O1 P1 1.506892 1_555
O2 P0 1.536772 1_555
O2 Sm1 2.390340 1_555
O2 Sm0 2.611308 1_554
O3 P1 1.536772 1_555
O3 Sm0 2.390340 1_555
O3 Sm1 2.611308 1_556
O4 P0 1.551847 1_555
O4 Sm0 2.480450 1_554
O4 Sm1 2.506631 1_655
O5 P1 1.551847 1_555
O5 Sm1 2.480450 1_556
O5 Sm0 2.506631 1_455
O6 P2 1.610067 1_554
O6 P0 1.636230 1_555
O7 P3 1.610067 1_556
O7 P1 1.636230 1_555
O8 P3 1.501741 1_655
O8 Sm0 2.427305 1_554
O9 P2 1.501741 1_455
O9 Sm1 2.427305 1_556
O10 P2 1.507241 1_545
O10 Sm0 2.365905 1_555
O11 P3 1.507241 1_565
O11 Sm1 2.365905 1_555
O12 P2 1.609126 1_555
O12 P4 1.637016 1_555
O13 P3 1.609126 1_555
O13 P5 1.637016 1_555
O14 P5 1.511139 1_555
O14 Sm0 2.411234 1_554
O15 P4 1.511139 1_555
O15 Sm1 2.411234 1_556
O16 P4 1.520185 1_555
O16 Sm0 2.392833 1_555
O17 P5 1.520185 1_555
O17 Sm1 2.392833 1_555
O18 P4 1.574232 1_555
O19 P5 1.574232 1_555
