# generated using pymatgen
data_Sr2TbGaCu2O7
_symmetry_space_group_name_H-M   'P 1'
_cell_length_a   12.22917468
_cell_length_b   12.22917468
_cell_length_c   12.22917468
_cell_angle_alpha   154.41175450
_cell_angle_beta   153.83495495
_cell_angle_gamma   36.92250995
_symmetry_Int_Tables_number   1
_chemical_formula_structural   Sr2TbGaCu2O7
_chemical_formula_sum   'Sr4 Tb2 Ga2 Cu4 O14'
_cell_volume   347.83029453
_cell_formula_units_Z   2
loop_
 _symmetry_equiv_pos_site_id
 _symmetry_equiv_pos_as_xyz
  1  'x, y, z'
loop_
 _atom_site_type_symbol
 _atom_site_label
 _atom_site_symmetry_multiplicity
 _atom_site_fract_x
 _atom_site_fract_y
 _atom_site_fract_z
 _atom_site_occupancy
  Sr  Sr0  1  0.63324200  0.65303600  0.98324800  1
  Sr  Sr1  1  0.36675800  0.35000600  0.01979300  1
  Sr  Sr2  1  0.16978800  0.15303600  0.01979300  1
  Sr  Sr3  1  0.83021200  0.85000600  0.98324800  1
  Tb  Tb0  1  0.50000000  0.49950600  0.99950600  1
  Tb  Tb1  1  0.00000000  0.99950600  0.99950600  1
  Ga  Ga0  1  0.81914300  0.28801900  0.60716200  1
  Ga  Ga1  1  0.18085700  0.78801900  0.46887600  1
  Cu  Cu0  1  0.57262600  0.07074200  0.50020500  1
  Cu  Cu1  1  0.42737400  0.92757900  0.49811600  1
  Cu  Cu2  1  0.07053700  0.57074200  0.49811600  1
  Cu  Cu3  1  0.92946300  0.42757900  0.50020500  1
  O  O0  1  0.13349100  0.14033300  0.77382400  1
  O  O1  1  0.86650900  0.64033300  0.00684200  1
  O  O2  1  0.81408600  0.81308000  0.49912000  1
  O  O3  1  0.18591400  0.68503400  0.99899400  1
  O  O4  1  0.81396000  0.31308000  0.99899400  1
  O  O5  1  0.18604000  0.18503400  0.49912000  1
  O  O6  1  0.31328300  0.31214700  0.50173900  1
  O  O7  1  0.68671700  0.18845600  0.99886400  1
  O  O8  1  0.31040800  0.81214700  0.99886400  1
  O  O9  1  0.68959200  0.68845600  0.50173900  1
  O  O10  1  0.22375400  0.64777100  0.51763400  1
  O  O11  1  0.77624600  0.29388000  0.42401700  1
  O  O12  1  0.63013700  0.14777100  0.42401700  1
  O  O13  1  0.36986300  0.79388000  0.51763400  1
loop_
_geom_bond_atom_site_label_1
_geom_bond_atom_site_label_2
_geom_bond_distance
_geom_bond_site_symmetry_2
Ga0 O12 1.848518 1_555
Ga0 O11 1.848518 1_555
Ga0 O0 1.915340 1_655
Ga0 O1 1.926159 1_556
Ga1 O13 1.848518 1_555
Ga1 O10 1.848518 1_555
Ga1 O1 1.915340 1_455
Ga1 O0 1.926159 1_565
Cu0 O4 1.939438 1_555
Cu0 O2 1.940716 1_545
Cu0 O6 1.952152 1_555
Cu0 O8 1.954909 1_544
Cu0 O12 2.463510 1_555
Cu1 O5 1.939438 1_565
Cu1 O3 1.940716 1_554
Cu1 O7 1.952152 1_565
Cu1 O9 1.954909 1_555
Cu1 O13 2.463510 1_555
Cu2 O2 1.939438 1_455
Cu2 O4 1.940716 1_454
Cu2 O8 1.952152 1_555
Cu2 O6 1.954909 1_555
Cu2 O10 2.463510 1_555
Cu3 O3 1.939438 1_655
Cu3 O5 1.940716 1_655
Cu3 O9 1.952152 1_555
Cu3 O7 1.954909 1_554
Cu3 O11 2.463510 1_555
O0 Sr2 2.477864 1_556
O0 Sr1 2.477885 1_556
O1 Sr3 2.477876 1_554
O1 Sr0 2.477876 1_554
O2 Tb0 2.439193 1_554
O2 Tb1 2.441496 1_655
O2 Sr0 2.850350 1_554
O2 Sr2 2.862645 1_666
O3 Tb0 2.439193 1_555
O3 Tb1 2.441496 1_555
O3 Sr1 2.850342 1_556
O3 Sr3 2.862640 1_455
O4 Tb1 2.439193 1_645
O4 Tb0 2.441496 1_555
O4 Sr2 2.850358 1_656
O4 Sr0 2.862640 1_555
O5 Tb1 2.439193 1_544
O5 Tb0 2.441496 1_555
O5 Sr3 2.850350 1_444
O5 Sr1 2.862629 1_556
O6 Tb0 2.402945 1_555
O6 Tb1 2.416928 1_544
O6 Sr0 2.793664 1_555
O6 Sr2 2.794582 1_555
O7 Tb0 2.402945 1_555
O7 Tb1 2.416928 1_645
O7 Sr1 2.793656 1_556
O7 Sr3 2.794570 1_545
O8 Tb1 2.402945 1_555
O8 Tb0 2.416928 1_555
O8 Sr2 2.793673 1_566
O8 Sr0 2.794570 1_555
O9 Tb1 2.402945 1_655
O9 Tb0 2.416928 1_554
O9 Sr3 2.793664 1_555
O9 Sr1 2.794564 1_555
O10 Sr0 2.484613 1_555
O10 Sr2 2.614225 1_555
O10 Sr2 2.938555 1_566
O10 Sr0 3.187916 1_454
O11 Sr1 2.484618 1_555
O11 Sr3 2.614225 1_544
O11 Sr3 2.938560 1_555
O11 Sr1 3.187915 1_656
O12 Sr2 2.484613 1_555
O12 Sr0 2.614225 1_544
O12 Sr0 2.938560 1_555
O12 Sr2 3.187911 1_656
O13 Sr3 2.484613 1_555
O13 Sr1 2.614230 1_555
O13 Sr1 2.938560 1_566
O13 Sr3 3.187916 1_454
