# generated using pymatgen
data_Mg21Zn25
_symmetry_space_group_name_H-M   'P 1'
_cell_length_a   15.04242842
_cell_length_b   15.04242874
_cell_length_c   15.04242855
_cell_angle_alpha   116.40747498
_cell_angle_beta   116.40747556
_cell_angle_gamma   116.40747560
_symmetry_Int_Tables_number   1
_chemical_formula_structural   Mg21Zn25
_chemical_formula_sum   'Mg42 Zn50'
_cell_volume   1634.63319926
_cell_formula_units_Z   2
loop_
 _symmetry_equiv_pos_site_id
 _symmetry_equiv_pos_as_xyz
  1  'x, y, z'
loop_
 _atom_site_type_symbol
 _atom_site_label
 _atom_site_symmetry_multiplicity
 _atom_site_fract_x
 _atom_site_fract_y
 _atom_site_fract_z
 _atom_site_occupancy
  Mg  Mg0  1  0.55719738  0.25000000  0.94280262  1
  Mg  Mg1  1  0.43686365  0.95494517  0.85876590  1
  Mg  Mg2  1  0.04505483  0.14123410  0.56313635  1
  Mg  Mg3  1  0.56529080  0.68133156  0.44786649  1
  Mg  Mg4  1  0.25000000  0.94280262  0.55719738  1
  Mg  Mg5  1  0.64123410  0.54505483  0.06313635  1
  Mg  Mg6  1  0.44280262  0.75000000  0.05719738  1
  Mg  Mg7  1  0.72359925  0.18382319  0.95173193  1
  Mg  Mg8  1  0.04826807  0.27640075  0.81617681  1
  Mg  Mg9  1  0.68133156  0.44786649  0.56529080  1
  Mg  Mg10  1  0.85876590  0.43686365  0.95494517  1
  Mg  Mg11  1  0.93686365  0.35876590  0.45494517  1
  Mg  Mg12  1  0.94786649  0.18133156  0.06529080  1
  Mg  Mg13  1  0.27640075  0.81617681  0.04826807  1
  Mg  Mg14  1  0.75000000  0.05719738  0.44280262  1
  Mg  Mg15  1  0.35876590  0.45494517  0.93686365  1
  Mg  Mg16  1  0.06313635  0.64123410  0.54505483  1
  Mg  Mg17  1  0.45494517  0.93686365  0.35876590  1
  Mg  Mg18  1  0.22359925  0.45173193  0.68382319  1
  Mg  Mg19  1  0.05213351  0.81866844  0.93470920  1
  Mg  Mg20  1  0.18382319  0.95173193  0.72359925  1
  Mg  Mg21  1  0.95494517  0.85876590  0.43686365  1
  Mg  Mg22  1  0.31866844  0.55213351  0.43470920  1
  Mg  Mg23  1  0.55213351  0.43470920  0.31866844  1
  Mg  Mg24  1  0.68382319  0.22359925  0.45173193  1
  Mg  Mg25  1  0.05719738  0.44280262  0.75000000  1
  Mg  Mg26  1  0.31617681  0.77640075  0.54826807  1
  Mg  Mg27  1  0.95173193  0.72359925  0.18382319  1
  Mg  Mg28  1  0.94280262  0.55719738  0.25000000  1
  Mg  Mg29  1  0.45173193  0.68382319  0.22359925  1
  Mg  Mg30  1  0.81866844  0.93470920  0.05213351  1
  Mg  Mg31  1  0.14123410  0.56313635  0.04505483  1
  Mg  Mg32  1  0.93470920  0.05213351  0.81866844  1
  Mg  Mg33  1  0.18133156  0.06529080  0.94786649  1
  Mg  Mg34  1  0.56313635  0.04505483  0.14123410  1
  Mg  Mg35  1  0.06529080  0.94786649  0.18133156  1
  Mg  Mg36  1  0.81617681  0.04826807  0.27640075  1
  Mg  Mg37  1  0.54826807  0.31617681  0.77640075  1
  Mg  Mg38  1  0.77640075  0.54826807  0.31617681  1
  Mg  Mg39  1  0.54505483  0.06313635  0.64123410  1
  Mg  Mg40  1  0.44786649  0.56529080  0.68133156  1
  Mg  Mg41  1  0.43470920  0.31866844  0.55213351  1
  Zn  Zn0  1  0.51915086  0.81091894  0.92771495  1
  Zn  Zn1  1  0.19191743  0.75000000  0.30808257  1
  Zn  Zn2  1  0.26398016  0.61925199  0.61897651  1
  Zn  Zn3  1  0.88074801  0.23601984  0.88102349  1
  Zn  Zn4  1  0.07228505  0.48084914  0.18908106  1
  Zn  Zn5  1  0.87287914  0.80859749  0.57146673  1
  Zn  Zn6  1  0.31079127  0.18920873  0.25000000  1
  Zn  Zn7  1  0.42771495  0.31091894  0.01915086  1
  Zn  Zn8  1  0.38074801  0.38102349  0.73601984  1
  Zn  Zn9  1  0.68908106  0.98084914  0.57228505  1
  Zn  Zn10  1  0.98084914  0.57228505  0.68908106  1
  Zn  Zn11  1  0.18920873  0.25000000  0.31079127  1
  Zn  Zn12  1  0.57146673  0.87287914  0.80859749  1
  Zn  Zn13  1  0.38102349  0.73601984  0.38074801  1
  Zn  Zn14  1  0.61925199  0.61897651  0.26398016  1
  Zn  Zn15  1  0.80808257  0.25000000  0.69191743  1
  Zn  Zn16  1  0.30808257  0.19191743  0.75000000  1
  Zn  Zn17  1  0.31091894  0.01915086  0.42771495  1
  Zn  Zn18  1  0.92853327  0.69140251  0.62712086  1
  Zn  Zn19  1  0.01915086  0.42771495  0.31091894  1
  Zn  Zn20  1  0.68920873  0.81079127  0.75000000  1
  Zn  Zn21  1  0.69140251  0.62712086  0.92853327  1
  Zn  Zn22  1  0.18908106  0.07228505  0.48084914  1
  Zn  Zn23  1  0.23601984  0.88102349  0.88074801  1
  Zn  Zn24  1  0.25000000  0.31079127  0.18920873  1
  Zn  Zn25  1  0.00000000  0.00000000  0.00000000  1
  Zn  Zn26  1  0.75000000  0.30808257  0.19191743  1
  Zn  Zn27  1  0.37287914  0.07146673  0.30859749  1
  Zn  Zn28  1  0.30859749  0.37287914  0.07146673  1
  Zn  Zn29  1  0.62712086  0.92853327  0.69140251  1
  Zn  Zn30  1  0.81079127  0.75000000  0.68920873  1
  Zn  Zn31  1  0.19140251  0.42853327  0.12712086  1
  Zn  Zn32  1  0.61897651  0.26398016  0.61925199  1
  Zn  Zn33  1  0.69191743  0.80808257  0.25000000  1
  Zn  Zn34  1  0.75000000  0.68920873  0.81079127  1
  Zn  Zn35  1  0.81091894  0.92771495  0.51915086  1
  Zn  Zn36  1  0.50000000  0.50000000  0.50000000  1
  Zn  Zn37  1  0.73601984  0.38074801  0.38102349  1
  Zn  Zn38  1  0.11925199  0.76398016  0.11897651  1
  Zn  Zn39  1  0.42853327  0.12712086  0.19140251  1
  Zn  Zn40  1  0.92771495  0.51915086  0.81091894  1
  Zn  Zn41  1  0.88102349  0.88074801  0.23601984  1
  Zn  Zn42  1  0.12712086  0.19140251  0.42853327  1
  Zn  Zn43  1  0.48084914  0.18908106  0.07228505  1
  Zn  Zn44  1  0.25000000  0.69191743  0.80808257  1
  Zn  Zn45  1  0.57228505  0.68908106  0.98084914  1
  Zn  Zn46  1  0.07146673  0.30859749  0.37287914  1
  Zn  Zn47  1  0.76398016  0.11897651  0.11925199  1
  Zn  Zn48  1  0.11897651  0.11925199  0.76398016  1
  Zn  Zn49  1  0.80859749  0.57146673  0.87287914  1
loop_
_geom_bond_atom_site_label_1
_geom_bond_atom_site_label_2
_geom_bond_distance
_geom_bond_site_symmetry_2
Mg0 Zn16 2.895432 1_555
Mg0 Zn26 2.895432 1_556
Mg0 Zn7 2.931480 1_556
Mg0 Zn43 2.931480 1_556
Mg0 Mg7 3.051345 1_555
Mg0 Mg37 3.051345 1_555
Mg0 Mg28 3.110305 1_556
Mg0 Mg4 3.110305 1_545
Mg0 Mg1 3.225089 1_545
Mg0 Mg5 3.225089 1_556
Mg0 Mg20 3.240369 1_545
Mg0 Mg38 3.240369 1_556
Mg1 Zn26 2.930206 1_566
Mg1 Zn23 2.949704 1_555
Mg1 Mg34 2.984480 1_566
Mg1 Zn12 2.991134 1_555
Mg1 Zn2 3.007670 1_555
Mg1 Zn47 3.017325 1_566
Mg1 Zn43 3.022054 1_566
Mg1 Mg16 3.022966 1_555
Mg1 Mg26 3.047379 1_555
Mg1 Mg7 3.091256 1_565
Mg1 Zn44 3.107219 1_555
Mg1 Zn0 3.247115 1_555
Mg1 Mg20 3.389619 1_555
Mg2 Zn33 2.930206 1_445
Mg2 Zn48 2.949704 1_555
Mg2 Mg21 2.984480 1_445
Mg2 Zn42 2.991134 1_555
Mg2 Zn8 3.007670 1_555
Mg2 Zn41 3.017326 1_445
Mg2 Zn35 3.022054 1_445
Mg2 Mg36 3.091256 1_455
Mg2 Zn16 3.107219 1_555
Mg2 Zn22 3.247115 1_555
Mg2 Mg8 3.389619 1_555
Mg3 Zn9 3.034193 1_555
Mg3 Zn36 3.037209 1_555
Mg3 Zn30 3.038137 1_555
Mg3 Zn20 3.047174 1_555
Mg3 Zn35 3.049218 1_555
Mg3 Zn24 3.079081 1_555
Mg3 Zn14 3.091362 1_555
Mg3 Zn13 3.107554 1_555
Mg3 Zn28 3.121669 1_555
Mg3 Zn5 3.135723 1_555
Mg3 Zn29 3.144602 1_555
Mg3 Zn31 3.144775 1_555
Mg3 Mg32 3.207466 1_565
Mg4 Zn1 2.895432 1_555
Mg4 Zn16 2.895432 1_565
Mg4 Zn17 2.931480 1_565
Mg4 Zn22 2.931480 1_565
Mg5 Zn16 2.930206 1_554
Mg5 Zn14 2.949704 1_555
Mg5 Zn21 2.991134 1_554
Mg5 Zn41 3.007670 1_555
Mg5 Zn8 3.017325 1_554
Mg5 Zn7 3.022054 1_555
Mg5 Zn33 3.107219 1_555
Mg5 Zn45 3.247115 1_554
Mg6 Zn33 2.895432 1_555
Mg6 Zn44 2.895432 1_554
Mg6 Zn45 2.931480 1_554
Mg6 Zn0 2.931480 1_554
Mg7 Zn4 2.920378 1_656
Mg7 Zn3 2.943496 1_555
Mg7 Zn26 2.959977 1_556
Mg7 Zn29 2.966338 1_545
Mg7 Zn12 2.981361 1_545
Mg7 Zn19 2.985088 1_656
Mg7 Zn47 3.003727 1_556
Mg8 Zn35 2.920378 1_445
Mg8 Zn48 2.943496 1_555
Mg8 Zn15 2.959977 1_455
Mg8 Zn28 2.966338 1_556
Mg8 Zn31 2.981361 1_556
Mg8 Zn9 2.985088 1_445
Mg8 Zn3 3.003726 1_455
Mg9 Zn10 3.034192 1_555
Mg9 Zn36 3.037209 1_555
Mg9 Zn34 3.038137 1_555
Mg9 Zn30 3.047174 1_555
Mg9 Zn40 3.049218 1_555
Mg9 Zn6 3.079081 1_555
Mg9 Zn32 3.091362 1_555
Mg9 Zn37 3.107554 1_555
Mg9 Zn27 3.121669 1_555
Mg9 Zn49 3.135723 1_555
Mg9 Zn18 3.144602 1_555
Mg9 Zn39 3.144775 1_555
Mg10 Zn1 2.930206 1_656
Mg10 Zn3 2.949704 1_555
Mg10 Mg31 2.984480 1_656
Mg10 Zn49 2.991134 1_555
Mg10 Zn32 3.007670 1_555
Mg10 Zn38 3.017326 1_656
Mg10 Zn4 3.022054 1_656
Mg10 Mg39 3.022966 1_555
Mg10 Mg37 3.047379 1_555
Mg10 Mg27 3.091256 1_556
Mg10 Zn15 3.107219 1_555
Mg10 Mg28 3.225089 1_556
Mg10 Zn40 3.247115 1_555
Mg10 Mg7 3.389619 1_555
Mg11 Zn44 2.930206 1_655
Mg11 Zn37 2.949704 1_555
Mg11 Mg16 2.984480 1_655
Mg11 Zn46 2.991134 1_655
Mg11 Zn47 3.007670 1_555
Mg11 Zn2 3.017325 1_655
Mg11 Zn10 3.022054 1_555
Mg11 Mg34 3.022966 1_555
Mg11 Mg36 3.047379 1_555
Mg11 Mg18 3.091256 1_655
Mg11 Zn26 3.107219 1_555
Mg11 Mg25 3.225089 1_655
Mg11 Zn19 3.247115 1_655
Mg11 Mg24 3.389619 1_555
Mg12 Zn4 3.034193 1_655
Mg12 Zn25 3.037209 1_655
Mg12 Zn11 3.038137 1_655
Mg12 Zn24 3.047174 1_655
Mg12 Zn19 3.049218 1_655
Mg12 Mg7 3.056719 1_554
Mg12 Zn20 3.079081 1_544
Mg12 Zn47 3.091361 1_555
Mg12 Zn3 3.107554 1_554
Mg12 Zn12 3.121669 1_544
Mg12 Zn46 3.135723 1_655
Mg12 Zn31 3.144602 1_655
Mg12 Zn29 3.144775 1_544
Mg12 Mg32 3.189103 1_554
Mg12 Mg30 3.189103 1_545
Mg12 Mg22 3.207466 1_655
Mg13 Zn40 2.920378 1_454
Mg13 Zn38 2.943496 1_555
Mg13 Zn44 2.959977 1_554
Mg13 Zn27 2.966338 1_565
Mg13 Zn39 2.981361 1_565
Mg13 Zn10 2.985088 1_454
Mg13 Zn23 3.003727 1_554
Mg13 Mg17 3.047379 1_555
Mg13 Mg6 3.051345 1_555
Mg13 Mg19 3.056719 1_554
Mg13 Mg34 3.091256 1_565
Mg13 Mg25 3.240369 1_554
Mg13 Mg31 3.389619 1_555
Mg13 Mg24 3.517611 1_565
Mg14 Zn15 2.895432 1_555
Mg14 Zn33 2.895432 1_545
Mg14 Zn9 2.931480 1_545
Mg14 Zn35 2.931480 1_545
Mg14 Mg36 3.051345 1_555
Mg14 Mg24 3.051345 1_555
Mg14 Mg6 3.110305 1_545
Mg14 Mg25 3.110305 1_655
Mg14 Mg2 3.225089 1_655
Mg14 Mg17 3.225089 1_545
Mg14 Mg8 3.240369 1_655
Mg14 Mg29 3.240369 1_545
Mg15 Zn33 2.930206 1_556
Mg15 Zn8 2.949704 1_555
Mg15 Mg5 2.984480 1_556
Mg15 Zn28 2.991134 1_556
Mg15 Zn48 3.007670 1_555
Mg15 Zn14 3.017325 1_556
Mg15 Zn45 3.022054 1_555
Mg15 Mg2 3.022966 1_555
Mg15 Mg8 3.047379 1_555
Mg15 Mg29 3.091256 1_556
Mg15 Zn16 3.107219 1_555
Mg15 Mg6 3.225089 1_556
Mg15 Zn7 3.247115 1_556
Mg15 Mg18 3.389619 1_555
Mg16 Zn26 2.930206 1_455
Mg16 Zn2 2.949704 1_555
Mg16 Zn18 2.991134 1_455
Mg16 Zn23 3.007670 1_555
Mg16 Zn37 3.017325 1_455
Mg16 Zn19 3.022054 1_555
Mg16 Mg20 3.047379 1_555
Mg16 Mg38 3.091256 1_455
Mg16 Zn44 3.107219 1_555
Mg16 Mg28 3.225089 1_455
Mg16 Zn10 3.247115 1_455
Mg16 Mg26 3.389619 1_555
Mg17 Zn15 2.930206 1_565
Mg17 Zn13 2.949704 1_555
Mg17 Mg39 2.984480 1_565
Mg17 Zn27 2.991134 1_565
Mg17 Zn38 3.007670 1_555
Mg17 Zn32 3.017326 1_565
Mg17 Zn9 3.022054 1_555
Mg17 Mg31 3.022966 1_555
Mg17 Mg24 3.091256 1_565
Mg17 Zn1 3.107219 1_555
Mg17 Zn17 3.247115 1_565
Mg17 Mg29 3.389619 1_555
Mg18 Zn45 2.920378 1_555
Mg18 Zn8 2.943496 1_555
Mg18 Zn44 2.959977 1_555
Mg18 Zn42 2.966338 1_555
Mg18 Zn46 2.981361 1_555
Mg18 Zn0 2.985088 1_555
Mg18 Zn2 3.003727 1_555
Mg18 Mg2 3.047379 1_555
Mg18 Mg25 3.051345 1_555
Mg18 Mg40 3.056719 1_555
Mg18 Mg6 3.240369 1_556
Mg18 Mg36 3.517611 1_455
Mg19 Zn40 3.034193 1_455
Mg19 Zn25 3.037209 1_566
Mg19 Zn30 3.038137 1_455
Mg19 Zn34 3.047174 1_455
Mg19 Zn10 3.049218 1_455
Mg19 Zn6 3.079081 1_566
Mg19 Zn23 3.091361 1_555
Mg19 Zn38 3.107554 1_556
Mg19 Zn39 3.121669 1_566
Mg19 Zn18 3.135723 1_455
Mg19 Zn49 3.144602 1_455
Mg19 Zn27 3.144775 1_566
Mg19 Mg35 3.189103 1_556
Mg19 Mg33 3.189103 1_565
Mg19 Mg9 3.207466 1_455
Mg20 Zn43 2.920378 1_566
Mg20 Zn23 2.943496 1_555
Mg20 Zn16 2.959977 1_565
Mg20 Zn18 2.966338 1_455
Mg20 Zn5 2.981361 1_455
Mg20 Zn7 2.985088 1_566
Mg20 Zn48 3.003727 1_565
Mg20 Mg4 3.051345 1_555
Mg20 Mg33 3.056719 1_565
Mg20 Mg21 3.091256 1_455
Mg20 Mg38 3.517611 1_455
Mg21 Zn16 2.930206 1_665
Mg21 Zn41 2.949704 1_555
Mg21 Zn5 2.991134 1_555
Mg21 Zn14 3.007670 1_555
Mg21 Zn48 3.017326 1_665
Mg21 Zn22 3.022054 1_665
Mg21 Mg5 3.022966 1_555
Mg21 Mg38 3.047379 1_555
Mg21 Zn33 3.107219 1_555
Mg21 Mg4 3.225089 1_655
Mg21 Zn35 3.247115 1_555
Mg21 Mg27 3.389619 1_555
Mg22 Zn19 3.034192 1_555
Mg22 Zn36 3.037209 1_555
Mg22 Zn24 3.038137 1_555
Mg22 Zn11 3.047174 1_555
Mg22 Zn4 3.049218 1_555
Mg22 Mg26 3.056719 1_555
Mg22 Zn20 3.079081 1_555
Mg22 Zn13 3.091362 1_555
Mg22 Zn2 3.107554 1_555
Mg22 Zn29 3.121669 1_555
Mg22 Zn31 3.135723 1_555
Mg22 Zn46 3.144602 1_555
Mg22 Zn12 3.144775 1_555
Mg22 Mg3 3.189103 1_555
Mg22 Mg40 3.189103 1_555
Mg23 Zn7 3.034192 1_555
Mg23 Zn36 3.037209 1_555
Mg23 Zn6 3.038137 1_555
Mg23 Zn24 3.047174 1_555
Mg23 Zn43 3.049218 1_555
Mg23 Mg38 3.056719 1_555
Mg23 Zn30 3.079081 1_555
Mg23 Zn37 3.091361 1_555
Mg23 Zn14 3.107555 1_555
Mg23 Zn18 3.121669 1_555
Mg23 Zn39 3.135723 1_555
Mg23 Zn28 3.144602 1_555
Mg23 Zn5 3.144775 1_555
Mg23 Mg9 3.189103 1_555
Mg23 Mg3 3.189103 1_555
Mg23 Mg33 3.207466 1_554
Mg24 Zn10 2.920378 1_555
Mg24 Zn37 2.943496 1_555
Mg24 Zn15 2.959977 1_555
Mg24 Zn39 2.966338 1_555
Mg24 Zn27 2.981361 1_555
Mg24 Zn40 2.985088 1_555
Mg24 Zn32 3.003727 1_555
Mg24 Mg34 3.047379 1_555
Mg24 Mg9 3.056719 1_555
Mg24 Mg25 3.240369 1_655
Mg25 Zn15 2.895432 1_455
Mg25 Zn44 2.895432 1_555
Mg25 Zn40 2.931480 1_455
Mg25 Zn10 2.931480 1_455
Mg25 Mg8 3.051345 1_555
Mg25 Mg6 3.110305 1_556
Mg25 Mg31 3.225089 1_556
Mg26 Zn19 2.920378 1_555
Mg26 Zn2 2.943496 1_555
Mg26 Zn1 2.959977 1_555
Mg26 Zn12 2.966338 1_555
Mg26 Zn29 2.981361 1_555
Mg26 Zn4 2.985088 1_555
Mg26 Zn13 3.003727 1_555
Mg26 Mg4 3.051345 1_555
Mg26 Mg39 3.091256 1_565
Mg26 Mg28 3.240369 1_455
Mg26 Mg7 3.517611 1_565
Mg27 Zn22 2.920378 1_665
Mg27 Zn41 2.943496 1_555
Mg27 Zn1 2.959977 1_655
Mg27 Zn21 2.966338 1_554
Mg27 Zn49 2.981361 1_554
Mg27 Zn17 2.985088 1_665
Mg27 Zn38 3.003726 1_655
Mg27 Mg5 3.047379 1_555
Mg27 Mg28 3.051345 1_555
Mg27 Mg35 3.056719 1_655
Mg27 Mg4 3.240369 1_655
Mg27 Mg37 3.517611 1_554
Mg28 Zn1 2.895432 1_655
Mg28 Zn26 2.895432 1_555
Mg28 Zn4 2.931480 1_655
Mg28 Zn19 2.931480 1_655
Mg28 Mg38 3.051345 1_555
Mg28 Mg4 3.110305 1_655
Mg28 Mg7 3.240369 1_554
Mg29 Zn9 2.920378 1_555
Mg29 Zn13 2.943496 1_555
Mg29 Zn33 2.959977 1_555
Mg29 Zn31 2.966338 1_555
Mg29 Zn28 2.981361 1_555
Mg29 Zn35 2.985088 1_555
Mg29 Zn14 3.003727 1_555
Mg29 Mg31 3.047379 1_555
Mg29 Mg6 3.051345 1_555
Mg29 Mg3 3.056719 1_555
Mg29 Mg8 3.517611 1_554
Mg30 Zn0 3.034192 1_554
Mg30 Zn25 3.037209 1_665
Mg30 Zn34 3.038137 1_554
Mg30 Zn20 3.047174 1_554
Mg30 Zn45 3.049218 1_554
Mg30 Mg36 3.056719 1_565
Mg30 Zn11 3.079081 1_665
Mg30 Zn41 3.091362 1_555
Mg30 Zn47 3.107555 1_565
Mg30 Zn42 3.121669 1_665
Mg30 Zn21 3.135723 1_554
Mg30 Zn12 3.144602 1_554
Mg30 Zn46 3.144775 1_665
Mg30 Mg35 3.189103 1_655
Mg30 Mg40 3.207466 1_554
Mg31 Zn15 2.930206 1_454
Mg31 Zn38 2.949704 1_555
Mg31 Zn31 2.991134 1_555
Mg31 Zn13 3.007670 1_555
Mg31 Zn3 3.017326 1_454
Mg31 Zn40 3.022054 1_454
Mg31 Mg8 3.091256 1_554
Mg31 Zn1 3.107219 1_555
Mg31 Zn4 3.247115 1_555
Mg32 Zn35 3.034192 1_545
Mg32 Zn25 3.037209 1_656
Mg32 Zn20 3.038137 1_545
Mg32 Zn30 3.047174 1_545
Mg32 Zn9 3.049218 1_545
Mg32 Mg8 3.056719 1_655
Mg32 Zn24 3.079081 1_656
Mg32 Zn3 3.091362 1_555
Mg32 Zn48 3.107554 1_655
Mg32 Zn31 3.121669 1_656
Mg32 Zn29 3.135723 1_545
Mg32 Zn5 3.144602 1_545
Mg32 Zn28 3.144775 1_656
Mg32 Mg33 3.189103 1_655
Mg33 Zn43 3.034192 1_556
Mg33 Zn25 3.037209 1_556
Mg33 Zn24 3.038137 1_556
Mg33 Zn6 3.047174 1_556
Mg33 Zn7 3.049218 1_556
Mg33 Zn30 3.079081 1_445
Mg33 Zn48 3.091362 1_555
Mg33 Zn23 3.107555 1_545
Mg33 Zn5 3.121669 1_445
Mg33 Zn28 3.135723 1_556
Mg33 Zn39 3.144602 1_556
Mg33 Zn18 3.144775 1_445
Mg34 Zn44 2.930206 1_544
Mg34 Zn47 2.949704 1_555
Mg34 Zn39 2.991134 1_555
Mg34 Zn37 3.007670 1_555
Mg34 Zn23 3.017325 1_544
Mg34 Zn0 3.022054 1_544
Mg34 Zn26 3.107219 1_555
Mg34 Mg6 3.225089 1_545
Mg34 Zn43 3.247115 1_555
Mg34 Mg36 3.389619 1_555
Mg35 Zn22 3.034192 1_565
Mg35 Zn25 3.037209 1_565
Mg35 Zn6 3.038137 1_565
Mg35 Zn11 3.047174 1_565
Mg35 Zn17 3.049218 1_565
Mg35 Zn34 3.079081 1_454
Mg35 Zn38 3.091362 1_555
Mg35 Zn41 3.107554 1_455
Mg35 Zn49 3.121669 1_454
Mg35 Zn27 3.135723 1_565
Mg35 Zn42 3.144602 1_565
Mg35 Zn21 3.144775 1_454
Mg35 Mg41 3.207466 1_565
Mg36 Zn0 2.920378 1_544
Mg36 Zn47 2.943496 1_555
Mg36 Zn33 2.959977 1_545
Mg36 Zn46 2.966338 1_655
Mg36 Zn42 2.981361 1_655
Mg36 Zn45 2.985088 1_544
Mg36 Zn41 3.003727 1_545
Mg36 Mg6 3.240369 1_545
Mg37 Zn17 2.920378 1_555
Mg37 Zn32 2.943496 1_555
Mg37 Zn16 2.959977 1_555
Mg37 Zn49 2.966338 1_555
Mg37 Zn21 2.981361 1_555
Mg37 Zn22 2.985088 1_555
Mg37 Zn8 3.003727 1_555
Mg37 Mg41 3.056719 1_555
Mg37 Mg5 3.091256 1_556
Mg37 Mg4 3.240369 1_545
Mg37 Mg39 3.389619 1_555
Mg38 Zn7 2.920378 1_555
Mg38 Zn14 2.943496 1_555
Mg38 Zn26 2.959977 1_555
Mg38 Zn5 2.966338 1_555
Mg38 Zn18 2.981361 1_555
Mg38 Zn43 2.985088 1_555
Mg38 Zn37 3.003727 1_555
Mg38 Mg5 3.389619 1_555
Mg39 Zn1 2.930206 1_545
Mg39 Zn32 2.949704 1_555
Mg39 Zn29 2.991134 1_545
Mg39 Zn3 3.007670 1_555
Mg39 Zn13 3.017326 1_545
Mg39 Zn17 3.022054 1_555
Mg39 Mg7 3.047379 1_555
Mg39 Zn15 3.107219 1_555
Mg39 Mg4 3.225089 1_545
Mg39 Zn9 3.247115 1_545
Mg40 Zn45 3.034192 1_555
Mg40 Zn36 3.037209 1_555
Mg40 Zn20 3.038137 1_555
Mg40 Zn34 3.047174 1_555
Mg40 Zn0 3.049218 1_555
Mg40 Zn11 3.079081 1_555
Mg40 Zn2 3.091361 1_555
Mg40 Zn8 3.107555 1_555
Mg40 Zn46 3.121669 1_555
Mg40 Zn12 3.135723 1_555
Mg40 Zn21 3.144602 1_555
Mg40 Zn42 3.144775 1_555
Mg40 Mg41 3.189103 1_555
Mg41 Zn17 3.034193 1_555
Mg41 Zn36 3.037209 1_555
Mg41 Zn11 3.038137 1_555
Mg41 Zn6 3.047174 1_555
Mg41 Zn22 3.049218 1_555
Mg41 Zn34 3.079081 1_555
Mg41 Zn8 3.091362 1_555
Mg41 Zn32 3.107554 1_555
Mg41 Zn21 3.121669 1_555
Mg41 Zn42 3.135723 1_555
Mg41 Zn27 3.144602 1_555
Mg41 Zn49 3.144775 1_555
Mg41 Mg9 3.189103 1_555
Zn0 Zn45 2.583470 1_555
Zn0 Zn12 2.604983 1_555
Zn0 Zn47 2.615937 1_566
Zn0 Zn2 2.646427 1_555
Zn0 Zn44 2.653638 1_555
Zn1 Zn4 2.653638 1_555
Zn1 Zn17 2.653638 1_565
Zn1 Zn13 2.702156 1_555
Zn1 Zn38 2.702156 1_555
Zn2 Zn46 2.639457 1_555
Zn2 Zn44 2.702156 1_555
Zn3 Zn4 2.615937 1_656
Zn3 Zn31 2.639457 1_656
Zn3 Zn9 2.646427 1_545
Zn10 Zn40 2.583470 1_555
Zn10 Zn18 2.604983 1_555
Zn10 Zn37 2.615937 1_555
Zn10 Zn23 2.646427 1_655
Zn10 Zn44 2.653638 1_655
Zn11 Zn46 2.629422 1_555
Zn11 Zn42 2.629422 1_555
Zn11 Zn36 2.665371 1_555
Zn11 Zn25 2.665371 1_555
Zn11 Zn6 2.692350 1_555
Zn11 Zn24 2.692350 1_555
Zn12 Zn29 2.551795 1_555
Zn12 Zn20 2.629422 1_555
Zn12 Zn47 2.639457 1_566
Zn12 Zn2 2.640743 1_555
Zn13 Zn9 2.615937 1_555
Zn13 Zn29 2.639457 1_555
Zn13 Zn31 2.640743 1_555
Zn13 Zn4 2.646427 1_555
Zn14 Zn7 2.615937 1_555
Zn14 Zn28 2.639457 1_555
Zn14 Zn5 2.640743 1_555
Zn14 Zn35 2.646427 1_555
Zn14 Zn33 2.702156 1_555
Zn15 Zn40 2.653638 1_555
Zn15 Zn9 2.653638 1_545
Zn15 Zn32 2.702156 1_555
Zn15 Zn3 2.702156 1_555
Zn16 Zn7 2.653638 1_556
Zn16 Zn22 2.653638 1_555
Zn16 Zn48 2.702156 1_555
Zn16 Zn8 2.702156 1_555
Zn17 Zn22 2.583470 1_555
Zn17 Zn27 2.604983 1_555
Zn17 Zn32 2.615937 1_555
Zn17 Zn38 2.646427 1_545
Zn18 Zn5 2.551795 1_555
Zn18 Zn30 2.629422 1_555
Zn18 Zn37 2.639457 1_555
Zn18 Zn23 2.640743 1_655
Zn19 Zn4 2.583470 1_555
Zn19 Zn46 2.604983 1_555
Zn19 Zn2 2.615937 1_555
Zn19 Zn47 2.646427 1_455
Zn19 Zn26 2.653638 1_455
Zn20 Zn29 2.629422 1_555
Zn20 Zn25 2.665371 1_666
Zn20 Zn36 2.665371 1_555
Zn20 Zn30 2.692350 1_555
Zn20 Zn34 2.692350 1_555
Zn21 Zn49 2.551795 1_555
Zn21 Zn45 2.604983 1_555
Zn21 Zn34 2.629422 1_555
Zn21 Zn8 2.639457 1_555
Zn21 Zn41 2.640743 1_556
Zn22 Zn42 2.604983 1_555
Zn22 Zn41 2.615937 1_445
Zn22 Zn8 2.646427 1_555
Zn23 Zn43 2.615937 1_566
Zn23 Zn39 2.639457 1_566
Zn23 Zn44 2.702156 1_555
Zn24 Zn28 2.629422 1_555
Zn24 Zn31 2.629422 1_555
Zn24 Zn36 2.665371 1_555
Zn24 Zn25 2.665371 1_555
Zn24 Zn6 2.692350 1_555
Zn25 Zn6 2.665371 1_555
Zn25 Zn34 2.665371 1_444
Zn25 Zn30 2.665371 1_444
Zn26 Zn43 2.653638 1_555
Zn26 Zn37 2.702156 1_555
Zn26 Zn47 2.702156 1_555
Zn27 Zn39 2.551795 1_555
Zn27 Zn6 2.629422 1_555
Zn27 Zn32 2.639457 1_555
Zn27 Zn38 2.640743 1_545
Zn28 Zn31 2.551795 1_555
Zn28 Zn7 2.604983 1_555
Zn28 Zn48 2.640743 1_554
Zn29 Zn9 2.604983 1_555
Zn29 Zn3 2.640743 1_565
Zn30 Zn5 2.629422 1_555
Zn30 Zn36 2.665371 1_555
Zn30 Zn34 2.692350 1_555
Zn31 Zn4 2.604983 1_555
Zn32 Zn49 2.640743 1_555
Zn32 Zn40 2.646427 1_555
Zn33 Zn45 2.653638 1_554
Zn33 Zn35 2.653638 1_555
Zn33 Zn41 2.702156 1_555
Zn34 Zn49 2.629422 1_555
Zn34 Zn36 2.665371 1_555
Zn35 Zn9 2.583470 1_555
Zn35 Zn5 2.604983 1_555
Zn35 Zn48 2.615937 1_665
Zn36 Zn6 2.665371 1_555
Zn37 Zn39 2.640743 1_555
Zn37 Zn43 2.646427 1_555
Zn38 Zn40 2.615937 1_454
Zn38 Zn49 2.639457 1_454
Zn39 Zn43 2.604983 1_555
Zn39 Zn6 2.629422 1_555
Zn40 Zn49 2.604983 1_555
Zn41 Zn42 2.639457 1_665
Zn41 Zn45 2.646427 1_554
Zn42 Zn46 2.551795 1_555
Zn42 Zn8 2.640743 1_555
Zn43 Zn7 2.583470 1_555
Zn45 Zn8 2.615937 1_555
Zn46 Zn47 2.640743 1_455
Zn48 Zn5 2.639457 1_445
Zn48 Zn7 2.646427 1_556
