# generated using pymatgen
data_Te2As2Se8S(OF6)2
_symmetry_space_group_name_H-M   'P 1'
_cell_length_a   8.82929400
_cell_length_b   7.48448000
_cell_length_c   36.84331146
_cell_angle_alpha   88.41708902
_cell_angle_beta   90.00000000
_cell_angle_gamma   90.00000000
_symmetry_Int_Tables_number   1
_chemical_formula_structural   Te2As2Se8S(OF6)2
_chemical_formula_sum   'Te8 As8 Se32 S4 O8 F48'
_cell_volume   2433.77546673
_cell_formula_units_Z   4
loop_
 _symmetry_equiv_pos_site_id
 _symmetry_equiv_pos_as_xyz
  1  'x, y, z'
loop_
 _atom_site_type_symbol
 _atom_site_label
 _atom_site_symmetry_multiplicity
 _atom_site_fract_x
 _atom_site_fract_y
 _atom_site_fract_z
 _atom_site_occupancy
  Te  Te0  1  0.46158900  0.15253400  0.68559800  1
  Te  Te1  1  0.96158900  0.84746600  0.81440200  1
  Te  Te2  1  0.03841100  0.15253400  0.18559800  1
  Te  Te3  1  0.32937700  0.30360000  0.07256100  1
  Te  Te4  1  0.17062300  0.30360000  0.57256100  1
  Te  Te5  1  0.82937700  0.69640000  0.42743900  1
  Te  Te6  1  0.67062300  0.69640000  0.92743900  1
  Te  Te7  1  0.53841100  0.84746600  0.31440200  1
  As  As0  1  0.12124300  0.22372000  0.45435800  1
  As  As1  1  0.87875700  0.77628000  0.54564200  1
  As  As2  1  0.25685100  0.39529200  0.29258700  1
  As  As3  1  0.74314900  0.60470800  0.70741300  1
  As  As4  1  0.75685100  0.60470800  0.20741300  1
  As  As5  1  0.24314900  0.39529200  0.79258700  1
  As  As6  1  0.37875700  0.22372000  0.95435800  1
  As  As7  1  0.62124300  0.77628000  0.04564200  1
  Se  Se0  1  0.75320800  0.07894800  0.29830700  1
  Se  Se1  1  0.03473700  0.10221800  0.70381600  1
  Se  Se2  1  0.05741400  0.66214700  0.38287700  1
  Se  Se3  1  0.22745400  0.99184000  0.09782100  1
  Se  Se4  1  0.94258600  0.33785300  0.61712300  1
  Se  Se5  1  0.44258600  0.66214700  0.88287700  1
  Se  Se6  1  0.78683400  0.57221800  0.83180600  1
  Se  Se7  1  0.25320800  0.92105200  0.20169300  1
  Se  Se8  1  0.46526300  0.10221800  0.20381600  1
  Se  Se9  1  0.63352300  0.50965800  0.39031700  1
  Se  Se10  1  0.41736100  0.93943900  0.85379600  1
  Se  Se11  1  0.01145100  0.93818800  0.88123700  1
  Se  Se12  1  0.96526300  0.89778200  0.29618400  1
  Se  Se13  1  0.71316600  0.57221800  0.33180600  1
  Se  Se14  1  0.48854900  0.93818800  0.38123700  1
  Se  Se15  1  0.51145100  0.06181200  0.61876300  1
  Se  Se16  1  0.27254600  0.99184000  0.59782100  1
  Se  Se17  1  0.72745400  0.00816000  0.40217900  1
  Se  Se18  1  0.74679200  0.07894800  0.79830700  1
  Se  Se19  1  0.28683400  0.42778200  0.66819400  1
  Se  Se20  1  0.13352300  0.49034200  0.10968300  1
  Se  Se21  1  0.55741400  0.33785300  0.11712300  1
  Se  Se22  1  0.53473700  0.89778200  0.79618400  1
  Se  Se23  1  0.58263900  0.06056100  0.14620400  1
  Se  Se24  1  0.24679200  0.92105200  0.70169300  1
  Se  Se25  1  0.21316600  0.42778200  0.16819400  1
  Se  Se26  1  0.86647700  0.50965800  0.89031700  1
  Se  Se27  1  0.77254600  0.00816000  0.90217900  1
  Se  Se28  1  0.36647700  0.49034200  0.60968300  1
  Se  Se29  1  0.91736100  0.06056100  0.64620400  1
  Se  Se30  1  0.98854900  0.06181200  0.11876300  1
  Se  Se31  1  0.08263900  0.93943900  0.35379600  1
  S  S0  1  0.35225300  0.72980600  0.49184600  1
  S  S1  1  0.64774700  0.27019400  0.50815400  1
  S  S2  1  0.85225300  0.27019400  0.00815400  1
  S  S3  1  0.14774700  0.72980600  0.99184600  1
  O  O0  1  0.61534700  0.35975800  0.47355200  1
  O  O1  1  0.02220300  0.75587700  0.96678300  1
  O  O2  1  0.11534700  0.64024200  0.02644800  1
  O  O3  1  0.52220300  0.24412300  0.53321700  1
  O  O4  1  0.38465300  0.64024200  0.52644800  1
  O  O5  1  0.47779700  0.75587700  0.46678300  1
  O  O6  1  0.97779700  0.24412300  0.03321700  1
  O  O7  1  0.88465300  0.35975800  0.97355200  1
  F  F0  1  0.93201100  0.55393500  0.22834500  1
  F  F1  1  0.32796200  0.17794500  0.30497900  1
  F  F2  1  0.06798900  0.44606500  0.77165500  1
  F  F3  1  0.73820200  0.80802000  0.57910500  1
  F  F4  1  0.76179800  0.80802000  0.07910500  1
  F  F5  1  0.26179800  0.19198000  0.42089500  1
  F  F6  1  0.52109300  0.25579600  0.98721800  1
  F  F7  1  0.18909400  0.30886700  0.25076700  1
  F  F8  1  0.67203800  0.82205500  0.69502100  1
  F  F9  1  0.18957900  0.61151900  0.28005400  1
  F  F10  1  0.19415400  0.44008100  0.46241700  1
  F  F11  1  0.50264300  0.32038300  0.92040300  1
  F  F12  1  0.67572600  0.52030800  0.66562000  1
  F  F13  1  0.08159900  0.34051100  0.31339200  1
  F  F14  1  0.54394800  0.99072200  0.05544000  1
  F  F15  1  0.02109300  0.74420400  0.51278200  1
  F  F16  1  0.31042100  0.61151900  0.78005400  1
  F  F17  1  0.81042100  0.38848100  0.71994600  1
  F  F18  1  0.30584600  0.44008100  0.96241700  1
  F  F19  1  0.68909400  0.69113300  0.24923300  1
  F  F20  1  0.49735700  0.67961700  0.07959700  1
  F  F21  1  0.56798900  0.55393500  0.72834500  1
  F  F22  1  0.97890700  0.25579600  0.48721800  1
  F  F23  1  0.17572600  0.47969200  0.83438000  1
  F  F24  1  0.81090600  0.69113300  0.74923300  1
  F  F25  1  0.25946200  0.12723300  0.98816500  1
  F  F26  1  0.74053800  0.87276700  0.01183500  1
  F  F27  1  0.69415400  0.55991900  0.03758300  1
  F  F28  1  0.91840100  0.65948900  0.68660800  1
  F  F29  1  0.31090600  0.30886700  0.75076700  1
  F  F30  1  0.95605200  0.99072200  0.55544000  1
  F  F31  1  0.99735700  0.32038300  0.42040300  1
  F  F32  1  0.58159900  0.65948900  0.18660800  1
  F  F33  1  0.24053800  0.12723300  0.48816500  1
  F  F34  1  0.23820200  0.19198000  0.92089500  1
  F  F35  1  0.17203800  0.17794500  0.80497900  1
  F  F36  1  0.32427400  0.47969200  0.33438000  1
  F  F37  1  0.47890700  0.74420400  0.01278200  1
  F  F38  1  0.80584600  0.55991900  0.53758300  1
  F  F39  1  0.82796200  0.82205500  0.19502100  1
  F  F40  1  0.41840100  0.34051100  0.81339200  1
  F  F41  1  0.00264300  0.67961700  0.57959700  1
  F  F42  1  0.75946200  0.87276700  0.51183500  1
  F  F43  1  0.45605200  0.00927800  0.94456000  1
  F  F44  1  0.04394800  0.00927800  0.44456000  1
  F  F45  1  0.43201100  0.44606500  0.27165500  1
  F  F46  1  0.68957900  0.38848100  0.21994600  1
  F  F47  1  0.82427400  0.52030800  0.16562000  1
loop_
_geom_bond_atom_site_label_1
_geom_bond_atom_site_label_2
_geom_bond_distance
_geom_bond_site_symmetry_2
As0 F22 1.766006 1_455
As0 F33 1.769932 1_555
As0 F5 1.769947 1_555
As0 F10 1.775228 1_555
As0 F44 1.789988 1_555
As0 F31 1.798583 1_455
As1 F15 1.766006 1_655
As1 F42 1.769932 1_555
As1 F3 1.769947 1_555
As1 F38 1.775228 1_555
As1 F30 1.789988 1_555
As1 F41 1.798583 1_655
As2 F45 1.764867 1_555
As2 F13 1.769915 1_555
As2 F9 1.773069 1_555
As2 F36 1.782725 1_555
As2 F7 1.790362 1_555
As2 F1 1.791054 1_555
As3 F21 1.764867 1_555
As3 F28 1.769915 1_555
As3 F17 1.773069 1_555
As3 F12 1.782725 1_555
As3 F24 1.790362 1_555
As3 F8 1.791054 1_555
As4 F0 1.764867 1_555
As4 F32 1.769915 1_555
As4 F46 1.773069 1_555
As4 F47 1.782725 1_555
As4 F19 1.790362 1_555
As4 F39 1.791054 1_555
As5 F2 1.764867 1_555
As5 F40 1.769915 1_555
As5 F16 1.773069 1_555
As5 F23 1.782725 1_555
As5 F29 1.790362 1_555
As5 F35 1.791054 1_555
As6 F6 1.766006 1_555
As6 F25 1.769932 1_555
As6 F34 1.769947 1_555
As6 F18 1.775228 1_555
As6 F43 1.789988 1_555
As6 F11 1.798583 1_555
As7 F37 1.766006 1_555
As7 F26 1.769932 1_555
As7 F4 1.769947 1_555
As7 F27 1.775228 1_555
As7 F14 1.789988 1_555
As7 F20 1.798583 1_555
Se0 Se12 2.314309 1_545
Se0 Te7 2.625500 1_545
Se1 Se24 2.314309 1_545
Se1 Se29 2.390248 1_455
Se2 Se31 2.319907 1_555
Se2 Te5 2.615019 1_455
Se3 Se30 2.311131 1_465
Se3 Te3 2.645859 1_565
Se4 Te4 2.615019 1_655
Se5 Te6 2.615019 1_555
Se6 Te1 2.638728 1_555
Se7 Se8 2.314309 1_565
Se7 Te2 2.625500 1_565
Se9 Te5 2.630588 1_555
Se10 Se5 2.319907 1_555
Se10 Se22 2.390248 1_555
Se11 Se27 2.311131 1_465
Se11 Te1 2.609744 1_455
Se12 Se31 2.390248 1_655
Se13 Se9 2.303294 1_555
Se13 Te7 2.638728 1_555
Se14 Se17 2.311131 1_565
Se14 Te7 2.609744 1_555
Se15 Se16 2.311131 1_545
Se15 Te0 2.609744 1_555
Se16 Te4 2.645859 1_565
Se17 Te5 2.645859 1_545
Se18 Se22 2.314309 1_545
Se18 Te1 2.625500 1_545
Se19 Se28 2.303294 1_555
Se19 Te0 2.638728 1_555
Se20 Se25 2.303294 1_555
Se20 Te3 2.630588 1_555
Se21 Se23 2.319907 1_555
Se21 Te3 2.615019 1_555
Se23 Se8 2.390248 1_555
Se24 Te0 2.625500 1_565
Se25 Te2 2.638728 1_555
Se26 Se6 2.303294 1_555
Se26 Te6 2.630588 1_555
Se27 Te6 2.645859 1_545
Se28 Te4 2.630588 1_555
Se29 Se4 2.319907 1_555
Se30 Te2 2.609744 1_655
O0 S1 1.452318 1_555
O1 S3 1.452408 1_555
O2 S3 1.452318 1_554
O3 S1 1.452408 1_555
O4 S0 1.452318 1_555
O5 S0 1.452408 1_555
O6 S2 1.452408 1_555
O7 S2 1.452318 1_556
