# generated using pymatgen
data_Sb24(Cl7F17)5
_symmetry_space_group_name_H-M   'P 1'
_cell_length_a   11.07704651
_cell_length_b   11.80250892
_cell_length_c   24.90453884
_cell_angle_alpha   96.24879511
_cell_angle_beta   89.89707638
_cell_angle_gamma   89.90122313
_symmetry_Int_Tables_number   1
_chemical_formula_structural   Sb24(Cl7F17)5
_chemical_formula_sum   'Sb24 Cl35 F85'
_cell_volume   3236.58717824
_cell_formula_units_Z   1
loop_
 _symmetry_equiv_pos_site_id
 _symmetry_equiv_pos_as_xyz
  1  'x, y, z'
loop_
 _atom_site_type_symbol
 _atom_site_label
 _atom_site_symmetry_multiplicity
 _atom_site_fract_x
 _atom_site_fract_y
 _atom_site_fract_z
 _atom_site_occupancy
  Cl  Cl0  1  0.04776496  0.95206932  0.36254841  1
  Cl  Cl1  1  0.04763911  0.95172278  0.86263317  1
  Cl  Cl2  1  0.06801132  0.86479204  0.03140716  1
  Cl  Cl3  1  0.06693193  0.86578272  0.53250850  1
  Cl  Cl4  1  0.15702351  0.30787412  0.17000014  1
  Cl  Cl5  1  0.15615425  0.30876955  0.67081745  1
  Cl  Cl6  1  0.17365776  0.07179160  0.24778837  1
  Cl  Cl7  1  0.17439102  0.07184693  0.75020967  1
  Cl  Cl8  1  0.21953034  0.51765216  0.35985279  1
  Cl  Cl9  1  0.22184792  0.51236519  0.85665862  1
  Cl  Cl10  1  0.28125266  0.01720509  0.10934952  1
  Cl  Cl11  1  0.28292096  0.02005129  0.61103879  1
  Cl  Cl12  1  0.32561824  0.57170872  0.49858577  1
  Cl  Cl13  1  0.32698598  0.56779530  -0.00400997  1
  Cl  Cl14  1  0.34259243  0.80778275  0.42027541  1
  Cl  Cl15  1  0.34413105  0.80183307  0.91843856  1
  Cl  Cl16  1  0.43227227  0.36541225  0.28212874  1
  Cl  Cl17  1  0.45042402  0.45356351  0.61295214  1
  Cl  Cl18  1  0.45248014  0.45233470  0.11212558  1
  Cl  Cl19  1  0.55075620  0.54626580  0.88759525  1
  Cl  Cl20  1  0.54963294  0.55278771  0.39085938  1
  Cl  Cl21  1  0.65604221  0.19597327  0.07944782  1
  Cl  Cl22  1  0.65484844  0.19676509  0.58143803  1
  Cl  Cl23  1  0.67192491  0.43210338  1.00222662  1
  Cl  Cl24  1  0.67107701  0.43127157  0.50393545  1
  Cl  Cl25  1  0.71919934  0.98559717  0.39186593  1
  Cl  Cl26  1  0.71843883  0.98549838  0.89180071  1
  Cl  Cl27  1  0.78010057  0.48612931  0.64261364  1
  Cl  Cl28  1  0.78024009  0.48529719  0.14162262  1
  Cl  Cl29  1  0.82908806  0.93200127  0.25277066  1
  Cl  Cl30  1  0.82833280  0.93230113  0.75302612  1
  Cl  Cl31  1  0.84423297  0.69603470  0.32978369  1
  Cl  Cl32  1  0.84406059  0.69585899  0.82942886  1
  Cl  Cl33  1  0.95365032  0.05271622  0.64135790  1
  Cl  Cl34  1  0.95049841  0.05233824  0.14038643  1
  F  F0  1  0.01652576  0.37436246  0.45707232  1
  F  F1  1  0.01585541  0.37424784  0.95750372  1
  F  F2  1  0.04027613  0.34400440  0.32413164  1
  F  F3  1  0.04042123  0.34238437  0.82380880  1
  F  F4  1  0.09147454  0.76112782  0.26407237  1
  F  F5  1  0.09130983  0.76144867  0.76379816  1
  F  F6  1  0.07699847  0.67107614  0.44059215  1
  F  F7  1  0.07556037  0.66910859  0.93965758  1
  F  F8  1  0.10276312  0.16709289  0.05893270  1
  F  F9  1  0.10262385  0.16706688  0.55803353  1
  F  F10  1  0.12889626  0.82861127  0.16613896  1
  F  F11  1  0.12893321  0.82887930  0.66589394  1
  F  F12  1  0.14507271  0.54593958  0.22605565  1
  F  F13  1  0.14443837  0.54591198  0.72558147  1
  F  F14  1  0.15695354  0.38186488  0.04625540  1
  F  F15  1  0.15702397  0.38213467  0.54565384  1
  F  F16  1  0.18851561  0.61217851  0.12842660  1
  F  F17  1  0.18816320  0.61240215  0.62799795  1
  F  F18  1  0.19354576  0.21500706  0.46231607  1
  F  F19  1  0.19337407  0.21496071  0.96285117  1
  F  F20  1  0.30651237  0.71494669  0.71208264  1
  F  F21  1  0.30661061  0.71484735  0.21275174  1
  F  F22  1  0.31251085  0.11229374  0.37825196  1
  F  F23  1  0.31139043  0.11022644  0.87859735  1
  F  F24  1  0.34216424  0.88201968  0.29596539  1
  F  F25  1  0.34246617  0.88135129  0.79554914  1
  F  F26  1  0.35533896  0.04580031  0.47585015  1
  F  F27  1  0.35541994  0.04597338  0.97634284  1
  F  F28  1  0.37128465  0.32872625  0.41606770  1
  F  F29  1  0.37126869  0.32690364  0.91533550  1
  F  F30  1  0.39720063  0.66717345  0.30865199  1
  F  F31  1  0.39826139  0.66570667  0.80719448  1
  F  F32  1  0.42419763  0.17002718  0.19035271  1
  F  F33  1  0.41555697  0.18163305  0.69530420  1
  F  F34  1  0.40875550  0.26114134  0.01356438  1
  F  F35  1  0.40822569  0.26096713  0.51396348  1
  F  F36  1  0.46230757  0.34529798  0.78053458  1
  F  F37  1  0.45887053  0.84391281  0.57414336  1
  F  F38  1  0.45954716  0.84371560  0.07408335  1
  F  F39  1  0.48334927  0.87405120  0.20720100  1
  F  F40  1  0.48294925  0.87474831  0.70685617  1
  F  F41  1  0.51917858  0.12234857  0.29156704  1
  F  F42  1  0.51641625  0.12543241  0.79311933  1
  F  F43  1  0.54041740  0.15751345  0.92660649  1
  F  F44  1  0.53986575  0.15897154  0.42659202  1
  F  F45  1  0.53761866  0.65421043  0.22092897  1
  F  F46  1  0.53865506  0.65551107  0.71952420  1
  F  F47  1  0.58972368  0.73850243  0.98676924  1
  F  F48  1  0.58798537  0.73959503  0.48701597  1
  F  F49  1  0.58323344  0.82008383  0.30588096  1
  F  F50  1  0.58395667  0.82000978  0.80524660  1
  F  F51  1  0.60768437  0.32982764  0.19069896  1
  F  F52  1  0.60287357  0.33399980  0.69283481  1
  F  F53  1  0.62798461  0.67333611  0.08500713  1
  F  F54  1  0.62752009  0.67340415  0.58483567  1
  F  F55  1  0.64421415  0.95375022  0.02372320  1
  F  F56  1  0.64388125  0.95408342  0.52396167  1
  F  F57  1  0.66388669  0.11459318  0.20363695  1
  F  F58  1  0.65679616  0.11820330  0.70423484  1
  F  F59  1  0.68978581  0.88957301  0.12121540  1
  F  F60  1  0.68951283  0.88976080  0.62157272  1
  F  F61  1  0.69416173  0.28363198  0.28686967  1
  F  F62  1  0.69437751  0.28422637  0.78789879  1
  F  F63  1  0.80582264  0.78379799  0.53698807  1
  F  F64  1  0.80679418  0.78374513  0.03692017  1
  F  F65  1  0.80931606  0.38988769  0.37145538  1
  F  F66  1  0.81118305  0.38980310  0.87208266  1
  F  F67  1  0.83608125  0.61406378  0.95363653  1
  F  F68  1  0.83729188  0.61472151  0.45365796  1
  F  F69  1  0.85550443  0.45393370  0.27382212  1
  F  F70  1  0.85556181  0.45390731  0.77414938  1
  F  F71  1  0.87254312  0.17346453  0.33496423  1
  F  F72  1  0.87233292  0.17294659  0.83500035  1
  F  F73  1  0.89235262  0.82993155  0.44082552  1
  F  F74  1  0.89187533  0.82948216  0.94056392  1
  F  F75  1  0.91582346  0.32048254  0.55574627  1
  F  F76  1  0.91633076  0.31981964  0.05610103  1
  F  F77  1  0.91244326  0.23927783  0.23694857  1
  F  F78  1  0.91128822  0.23906789  0.73700815  1
  F  F79  1  0.96232125  0.15495280  0.47047045  1
  F  F80  1  0.96280882  0.15407669  0.97129508  1
  F  F81  1  0.96054189  0.65961719  0.67646399  1
  F  F82  1  0.96034849  0.65906572  0.17685723  1
  F  F83  1  0.98123223  0.62220848  0.54151371  1
  F  F84  1  0.98138530  0.62222523  0.04143714  1
  Sb  Sb0  1  0.04941354  0.27466491  0.01011942  1
  Sb  Sb1  1  0.04883224  0.27482644  0.50994716  1
  Sb  Sb2  1  0.12522501  0.68454207  0.19424848  1
  Sb  Sb3  1  0.12549880  0.68476694  0.69405681  1
  Sb  Sb4  1  0.14053159  0.11493033  0.16209486  1
  Sb  Sb5  1  0.14276370  0.11600038  0.66487399  1
  Sb  Sb6  1  0.35932686  0.61482114  0.41298596  1
  Sb  Sb7  1  0.36090361  0.60839558  0.90996564  1
  Sb  Sb8  1  0.37483728  0.18458441  0.44419453  1
  Sb  Sb9  1  0.37536139  0.18371545  0.94390507  1
  Sb  Sb10  1  0.45069606  0.77466885  0.26004494  1
  Sb  Sb11  1  0.45127619  0.77450578  0.75949908  1
  Sb  Sb12  1  0.55281786  0.22053947  0.23799359  1
  Sb  Sb13  1  0.54957772  0.22590387  0.74080670  1
  Sb  Sb14  1  0.62431490  0.81621046  0.05616376  1
  Sb  Sb15  1  0.62383318  0.81680762  0.55657267  1
  Sb  Sb16  1  0.64153040  0.38950349  0.08779599  1
  Sb  Sb17  1  0.63966766  0.39015260  0.59004929  1
  Sb  Sb18  1  0.85894203  0.88951466  0.33842400  1
  Sb  Sb19  1  0.85880520  0.88929166  0.83882665  1
  Sb  Sb20  1  0.87560285  0.31662568  0.30644484  1
  Sb  Sb21  1  0.87535224  0.31639739  0.80666245  1
  Sb  Sb22  1  0.94733841  0.72079635  0.48819434  1
  Sb  Sb23  1  0.94727113  0.71962077  0.98759522  1
loop_
_geom_bond_atom_site_label_1
_geom_bond_atom_site_label_2
_geom_bond_distance
_geom_bond_site_symmetry_2
Cl0 Sb18 2.279063 1_455
Cl1 Sb19 2.276933 1_455
Cl2 Sb23 2.349713 1_454
Cl3 Sb22 2.345868 1_455
Cl4 Sb4 2.271967 1_555
Cl5 Sb5 2.268963 1_555
Cl6 Sb4 2.277546 1_555
Cl7 Sb5 2.270268 1_555
Cl8 Sb6 2.268771 1_555
Cl9 Sb7 2.259534 1_555
Cl10 Sb4 2.267658 1_555
Cl11 Sb5 2.268543 1_555
Cl12 Sb6 2.275290 1_555
Cl13 Sb7 2.276369 1_554
Cl14 Sb6 2.272098 1_555
Cl15 Sb7 2.277032 1_555
Cl16 Sb12 2.343611 1_555
Cl17 Sb17 2.275330 1_555
Cl18 Sb16 2.279180 1_555
Cl19 Sb7 2.274263 1_555
Cl20 Sb6 2.277316 1_555
Cl21 Sb16 2.276314 1_555
Cl22 Sb17 2.275054 1_555
Cl23 Sb16 2.266902 1_556
Cl24 Sb17 2.276064 1_555
Cl25 Sb18 2.260862 1_555
Cl26 Sb19 2.260051 1_555
Cl27 Sb17 2.259932 1_555
Cl28 Sb16 2.262642 1_555
Cl29 Sb18 2.268477 1_555
Cl30 Sb19 2.275028 1_555
Cl31 Sb18 2.276376 1_555
Cl32 Sb19 2.275655 1_555
Cl33 Sb5 2.281164 1_655
Cl34 Sb4 2.278506 1_655
F0 Sb1 1.891875 1_555
F1 Sb0 1.890016 1_556
F2 Sb20 1.897286 1_455
F3 Sb21 1.896306 1_455
F4 Sb2 1.906573 1_555
F5 Sb3 1.906177 1_555
F6 Sb22 1.911058 1_455
F7 Sb23 1.906883 1_455
F8 Sb0 1.942939 1_555
F9 Sb1 1.933466 1_555
F10 Sb2 1.908477 1_555
F11 Sb3 1.909511 1_555
F12 Sb2 1.906130 1_555
F13 Sb3 1.904126 1_555
F14 Sb0 1.894969 1_555
F15 Sb1 1.896042 1_555
F16 Sb2 1.896616 1_555
F17 Sb3 1.898902 1_555
F18 Sb1 2.069338 1_555
F18 Sb8 2.079508 1_555
F19 Sb0 2.057684 1_556
F19 Sb9 2.092499 1_555
F20 Sb11 2.071231 1_555
F20 Sb3 2.078390 1_555
F21 Sb10 2.064632 1_555
F21 Sb2 2.084984 1_555
F22 Sb8 1.898087 1_555
F23 Sb9 1.897092 1_555
F24 Sb10 1.896061 1_555
F25 Sb11 1.895636 1_555
F26 Sb8 1.906028 1_555
F27 Sb9 1.905470 1_555
F28 Sb8 1.909377 1_555
F29 Sb9 1.904193 1_555
F30 Sb10 1.939208 1_555
F31 Sb11 1.933097 1_555
F32 Sb12 1.909980 1_555
F33 Sb13 1.908119 1_555
F34 Sb9 1.907853 1_554
F35 Sb8 1.905541 1_555
F36 Sb13 1.894065 1_555
F37 Sb15 1.896704 1_555
F38 Sb14 1.897150 1_555
F39 Sb10 1.890625 1_555
F40 Sb11 1.891861 1_555
F41 Sb12 1.896931 1_555
F42 Sb13 1.890643 1_555
F43 Sb9 1.894797 1_555
F44 Sb8 1.895156 1_555
F45 Sb10 1.894134 1_555
F46 Sb11 1.894169 1_555
F47 Sb14 1.906129 1_556
F48 Sb15 1.910236 1_555
F49 Sb10 1.902973 1_555
F50 Sb11 1.903172 1_555
F51 Sb12 1.936839 1_555
F52 Sb13 1.932725 1_555
F53 Sb14 1.903874 1_555
F54 Sb15 1.902878 1_555
F55 Sb14 1.903303 1_555
F56 Sb15 1.902896 1_555
F57 Sb12 1.888748 1_555
F58 Sb13 1.895989 1_555
F59 Sb14 1.897721 1_555
F60 Sb15 1.895824 1_555
F61 Sb12 2.073896 1_555
F61 Sb20 2.096097 1_555
F62 Sb13 2.063200 1_555
F62 Sb21 2.085327 1_555
F63 Sb22 2.068650 1_555
F63 Sb15 2.099035 1_555
F64 Sb23 2.071190 1_554
F64 Sb14 2.101466 1_555
F65 Sb20 1.896558 1_555
F66 Sb21 1.896514 1_555
F67 Sb23 1.887857 1_555
F68 Sb22 1.888842 1_555
F69 Sb20 1.903143 1_555
F70 Sb21 1.903472 1_555
F71 Sb20 1.903139 1_555
F72 Sb21 1.904189 1_555
F73 Sb22 1.937126 1_555
F74 Sb23 1.939121 1_555
F75 Sb1 1.902503 1_655
F76 Sb0 1.904448 1_655
F77 Sb20 1.909898 1_555
F78 Sb21 1.911090 1_555
F79 Sb1 1.895215 1_655
F80 Sb0 1.894543 1_656
F81 Sb3 1.896128 1_655
F82 Sb2 1.894710 1_655
F83 Sb22 1.896005 1_555
F84 Sb23 1.896860 1_554
