# generated using pymatgen
data_TiZn(BiO3)2
_symmetry_space_group_name_H-M   'P 1'
_cell_length_a   3.78227300
_cell_length_b   3.78227300
_cell_length_c   9.95634300
_cell_angle_alpha   90.00000000
_cell_angle_beta   90.00000000
_cell_angle_gamma   90.00000000
_symmetry_Int_Tables_number   1
_chemical_formula_structural   TiZn(BiO3)2
_chemical_formula_sum   'Ti1 Zn1 Bi2 O6'
_cell_volume   142.43135136
_cell_formula_units_Z   1
loop_
 _symmetry_equiv_pos_site_id
 _symmetry_equiv_pos_as_xyz
  1  'x, y, z'
loop_
 _atom_site_type_symbol
 _atom_site_label
 _atom_site_symmetry_multiplicity
 _atom_site_fract_x
 _atom_site_fract_y
 _atom_site_fract_z
 _atom_site_occupancy
  Ti  Ti0  1  0.50000000  0.50000000  0.78778500  1
  Zn  Zn0  1  0.50000000  0.50000000  0.26158300  1
  Bi  Bi0  1  0.00000000  0.00000000  0.46787000  1
  Bi  Bi1  1  0.00000000  0.00000000  0.99958400  1
  O  O0  1  0.50000000  0.50000000  0.61599000  1
  O  O1  1  0.00000000  0.50000000  0.34763500  1
  O  O2  1  0.50000000  0.00000000  0.84938100  1
  O  O3  1  0.50000000  0.00000000  0.34763500  1
  O  O4  1  0.50000000  0.50000000  0.06385500  1
  O  O5  1  0.00000000  0.50000000  0.84938100  1
loop_
_geom_bond_atom_site_label_1
_geom_bond_atom_site_label_2
_geom_bond_distance
_geom_bond_site_symmetry_2
Bi0 O3 2.238180 1_455
Bi0 O1 2.238180 1_545
Bi0 O1 2.238180 1_555
Bi0 O3 2.238180 1_555
Bi1 O2 2.410982 1_455
Bi1 O5 2.410982 1_555
Bi1 O2 2.410982 1_555
Bi1 O5 2.410982 1_545
Bi1 O4 2.749959 1_456
Bi1 O4 2.749959 1_556
Bi1 O4 2.749959 1_446
Bi1 O4 2.749959 1_546
O0 Ti0 1.710450 1_555
O1 Zn0 2.076160 1_555
O1 Zn0 2.076160 1_455
O2 Ti0 1.988089 1_545
O2 Ti0 1.988089 1_555
O3 Zn0 2.076160 1_555
O3 Zn0 2.076160 1_545
O4 Zn0 1.968648 1_555
O5 Ti0 1.988089 1_455
O5 Ti0 1.988089 1_555
