# generated using pymatgen
data_CdSbS2Cl
_symmetry_space_group_name_H-M   'P 1'
_cell_length_a   3.94832200
_cell_length_b   9.74261100
_cell_length_c   12.71390900
_cell_angle_alpha   90.00000000
_cell_angle_beta   90.00000000
_cell_angle_gamma   90.00000000
_symmetry_Int_Tables_number   1
_chemical_formula_structural   CdSbS2Cl
_chemical_formula_sum   'Cd4 Sb4 S8 Cl4'
_cell_volume   489.06549695
_cell_formula_units_Z   4
loop_
 _symmetry_equiv_pos_site_id
 _symmetry_equiv_pos_as_xyz
  1  'x, y, z'
loop_
 _atom_site_type_symbol
 _atom_site_label
 _atom_site_symmetry_multiplicity
 _atom_site_fract_x
 _atom_site_fract_y
 _atom_site_fract_z
 _atom_site_occupancy
  Cd  Cd0  1  0.75000000  0.50042400  0.76933900  1
  Cd  Cd1  1  0.25000000  0.99957600  0.26933900  1
  Cd  Cd2  1  0.25000000  0.49957600  0.23066100  1
  Cd  Cd3  1  0.75000000  0.00042400  0.73066100  1
  Sb  Sb0  1  0.75000000  0.31679300  0.46729000  1
  Sb  Sb1  1  0.75000000  0.81679300  0.03271000  1
  Sb  Sb2  1  0.25000000  0.68320700  0.53271000  1
  Sb  Sb3  1  0.25000000  0.18320700  0.96729000  1
  S  S0  1  0.75000000  0.74035500  0.66597700  1
  S  S1  1  0.75000000  0.55173600  0.38948500  1
  S  S2  1  0.25000000  0.94826400  0.88948500  1
  S  S3  1  0.75000000  0.05173600  0.11051500  1
  S  S4  1  0.25000000  0.25964500  0.33402300  1
  S  S5  1  0.25000000  0.44826400  0.61051500  1
  S  S6  1  0.25000000  0.75964500  0.16597700  1
  S  S7  1  0.75000000  0.24035500  0.83402300  1
  Cl  Cl0  1  0.25000000  0.57281000  0.89378700  1
  Cl  Cl1  1  0.25000000  0.07281000  0.60621300  1
  Cl  Cl2  1  0.75000000  0.92719000  0.39378700  1
  Cl  Cl3  1  0.75000000  0.42719000  0.10621300  1
loop_
_geom_bond_atom_site_label_1
_geom_bond_atom_site_label_2
_geom_bond_distance
_geom_bond_site_symmetry_2
Cd0 Cl0 2.626420 1_555
Cd0 Cl0 2.626420 1_655
Cd0 S7 2.663872 1_555
Cd0 S0 2.681625 1_555
Cd0 S5 2.869324 1_655
Cd0 S5 2.869324 1_555
Cd1 Cl2 2.626420 1_455
Cd1 Cl2 2.626420 1_555
Cd1 S4 2.663872 1_565
Cd1 S6 2.681625 1_555
Cd1 S3 2.869324 1_465
Cd1 S3 2.869324 1_565
Cd2 Cl3 2.626420 1_555
Cd2 Cl3 2.626420 1_455
Cd2 S6 2.663872 1_555
Cd2 S4 2.681625 1_555
Cd2 S1 2.869324 1_555
Cd2 S1 2.869324 1_455
Cd3 Cl1 2.626420 1_555
Cd3 Cl1 2.626420 1_655
Cd3 S0 2.663872 1_545
Cd3 S7 2.681625 1_555
Cd3 S2 2.869324 1_645
Cd3 S2 2.869324 1_545
S0 Sb2 2.660472 1_555
S0 Sb2 2.660472 1_655
S1 Sb0 2.493563 1_555
S1 Sb2 2.975533 1_655
S1 Sb2 2.975533 1_555
S2 Sb3 2.493563 1_565
S2 Sb1 2.975533 1_456
S2 Sb1 2.975533 1_556
S3 Sb1 2.493563 1_545
S3 Sb3 2.975533 1_554
S3 Sb3 2.975533 1_654
S4 Sb0 2.660472 1_555
S4 Sb0 2.660472 1_455
S5 Sb2 2.493563 1_555
S5 Sb0 2.975533 1_455
S5 Sb0 2.975533 1_555
S6 Sb1 2.660472 1_555
S6 Sb1 2.660472 1_455
S7 Sb3 2.660472 1_555
S7 Sb3 2.660472 1_655
