# generated using pymatgen
data_SiO2
_symmetry_space_group_name_H-M   'P 1'
_cell_length_a   5.15137400
_cell_length_b   14.04005400
_cell_length_c   25.84398500
_cell_angle_alpha   90.00000000
_cell_angle_beta   90.00000000
_cell_angle_gamma   90.00000000
_symmetry_Int_Tables_number   1
_chemical_formula_structural   SiO2
_chemical_formula_sum   'Si32 O64'
_cell_volume   1869.18092382
_cell_formula_units_Z   32
loop_
 _symmetry_equiv_pos_site_id
 _symmetry_equiv_pos_as_xyz
  1  'x, y, z'
loop_
 _atom_site_type_symbol
 _atom_site_label
 _atom_site_symmetry_multiplicity
 _atom_site_fract_x
 _atom_site_fract_y
 _atom_site_fract_z
 _atom_site_occupancy
  Si  Si0  1  0.23574000  0.50000000  0.70375100  1
  Si  Si1  1  0.75630200  0.80407000  0.14198700  1
  Si  Si2  1  0.20976800  0.20997600  0.30680600  1
  Si  Si3  1  0.19561400  0.11087500  0.96317800  1
  Si  Si4  1  0.29905800  0.80392100  0.85348000  1
  Si  Si5  1  0.24673800  0.50000000  0.22272000  1
  Si  Si6  1  0.20976800  0.79002400  0.30680600  1
  Si  Si7  1  0.30815000  0.38911400  0.53132900  1
  Si  Si8  1  0.70094200  0.30392100  0.35348000  1
  Si  Si9  1  0.26653300  0.00000000  0.27225200  1
  Si  Si10  1  0.29905800  0.19607900  0.85348000  1
  Si  Si11  1  0.80438600  0.38912500  0.46317800  1
  Si  Si12  1  0.24369800  0.30407000  0.64198700  1
  Si  Si13  1  0.26177400  0.70924100  0.18952400  1
  Si  Si14  1  0.80438600  0.61087500  0.46317800  1
  Si  Si15  1  0.74485100  0.50000000  0.29128100  1
  Si  Si16  1  0.79023200  0.70997600  0.80680600  1
  Si  Si17  1  0.76426000  0.00000000  0.20375100  1
  Si  Si18  1  0.73346700  0.50000000  0.77225200  1
  Si  Si19  1  0.79023200  0.29002400  0.80680600  1
  Si  Si20  1  0.70094200  0.69607900  0.35348000  1
  Si  Si21  1  0.30815000  0.61088600  0.53132900  1
  Si  Si22  1  0.19561400  0.88912500  0.96317800  1
  Si  Si23  1  0.73822600  0.79075900  0.68952400  1
  Si  Si24  1  0.25514900  0.00000000  0.79128100  1
  Si  Si25  1  0.24369800  0.69593000  0.64198700  1
  Si  Si26  1  0.73822600  0.20924100  0.68952400  1
  Si  Si27  1  0.69185000  0.11088600  0.03132900  1
  Si  Si28  1  0.75326200  0.00000000  0.72272000  1
  Si  Si29  1  0.75630200  0.19593000  0.14198700  1
  Si  Si30  1  0.26177400  0.29075900  0.18952400  1
  Si  Si31  1  0.69185000  0.88911400  0.03132900  1
  O  O0  1  0.56664200  0.00000000  0.25268400  1
  O  O1  1  0.76442600  0.68206600  0.41446400  1
  O  O2  1  0.04188300  0.23531600  0.15662400  1
  O  O3  1  0.06539800  0.00000000  0.22322300  1
  O  O4  1  0.19916800  0.59539400  0.18824800  1
  O  O5  1  0.70642400  0.09376100  0.16938300  1
  O  O6  1  0.57852700  0.75138400  0.84764000  1
  O  O7  1  0.19916800  0.40460600  0.18824800  1
  O  O8  1  0.43335800  0.50000000  0.75268400  1
  O  O9  1  0.31199500  0.09274300  0.82614100  1
  O  O10  1  0.74303800  0.81811100  0.07969200  1
  O  O11  1  0.76442600  0.31793400  0.41446400  1
  O  O12  1  0.26932800  0.25202500  0.24910300  1
  O  O13  1  0.31199500  0.90725700  0.82614100  1
  O  O14  1  0.07943900  0.26040000  0.82535700  1
  O  O15  1  0.73067200  0.75202500  0.74910300  1
  O  O16  1  0.29573600  0.50000000  0.55075300  1
  O  O17  1  0.70642400  0.90623900  0.16938300  1
  O  O18  1  0.40668900  0.86479600  0.00800800  1
  O  O19  1  0.22852800  0.00000000  0.94450700  1
  O  O20  1  0.77984000  0.59431500  0.80722400  1
  O  O21  1  0.68800500  0.59274300  0.32614100  1
  O  O22  1  0.23557400  0.18206600  0.91446400  1
  O  O23  1  0.40668900  0.13520400  0.00800800  1
  O  O24  1  0.77984000  0.40568500  0.80722400  1
  O  O25  1  0.26932800  0.74797500  0.24910300  1
  O  O26  1  0.70426400  0.00000000  0.05075300  1
  O  O27  1  0.04188300  0.76468400  0.15662400  1
  O  O28  1  0.25696200  0.31811100  0.57969200  1
  O  O29  1  0.54731800  0.50000000  0.24226500  1
  O  O30  1  0.29357600  0.40623900  0.66938300  1
  O  O31  1  0.09334500  0.62853600  0.48627600  1
  O  O32  1  0.93460200  0.50000000  0.72322300  1
  O  O33  1  0.09334500  0.37146400  0.48627600  1
  O  O34  1  0.77147200  0.50000000  0.44450700  1
  O  O35  1  0.68800500  0.40725700  0.32614100  1
  O  O36  1  0.04579000  0.50000000  0.27174300  1
  O  O37  1  0.74303800  0.18188900  0.07969200  1
  O  O38  1  0.95811700  0.73531600  0.65662400  1
  O  O39  1  0.45943300  0.22794700  0.66189500  1
  O  O40  1  0.07943900  0.73960000  0.82535700  1
  O  O41  1  0.22016000  0.90568500  0.30722400  1
  O  O42  1  0.95421000  0.00000000  0.77174300  1
  O  O43  1  0.42147300  0.25138400  0.34764000  1
  O  O44  1  0.59331100  0.36479600  0.50800800  1
  O  O45  1  0.29357600  0.59376100  0.66938300  1
  O  O46  1  0.22016000  0.09431500  0.30722400  1
  O  O47  1  0.92056100  0.76040000  0.32535700  1
  O  O48  1  0.73067200  0.24797500  0.74910300  1
  O  O49  1  0.54056700  0.72794700  0.16189500  1
  O  O50  1  0.25696200  0.68188900  0.57969200  1
  O  O51  1  0.90665500  0.12853600  0.98627600  1
  O  O52  1  0.45943300  0.77205300  0.66189500  1
  O  O53  1  0.80083200  0.90460600  0.68824800  1
  O  O54  1  0.57852700  0.24861600  0.84764000  1
  O  O55  1  0.54056700  0.27205300  0.16189500  1
  O  O56  1  0.45268200  0.00000000  0.74226500  1
  O  O57  1  0.23557400  0.81793400  0.91446400  1
  O  O58  1  0.80083200  0.09539400  0.68824800  1
  O  O59  1  0.95811700  0.26468400  0.65662400  1
  O  O60  1  0.92056100  0.23960000  0.32535700  1
  O  O61  1  0.59331100  0.63520400  0.50800800  1
  O  O62  1  0.42147300  0.74861600  0.34764000  1
  O  O63  1  0.90665500  0.87146400  0.98627600  1
loop_
_geom_bond_atom_site_label_1
_geom_bond_atom_site_label_2
_geom_bond_distance
_geom_bond_site_symmetry_2
O0 Si17 1.623455 1_555
O0 Si9 1.626586 1_555
O1 Si14 1.620622 1_555
O1 Si20 1.621620 1_555
O2 Si30 1.616168 1_555
O2 Si29 1.616515 1_455
O3 Si17 1.630858 1_455
O3 Si9 1.636796 1_555
O4 Si5 1.627134 1_555
O4 Si13 1.630962 1_555
O5 Si17 1.615738 1_555
O5 Si29 1.620180 1_555
O6 Si4 1.624640 1_555
O6 Si16 1.625123 1_555
O7 Si5 1.627134 1_555
O7 Si30 1.630962 1_555
O8 Si0 1.623455 1_555
O8 Si18 1.626586 1_555
O9 Si24 1.610254 1_555
O9 Si10 1.615115 1_555
O10 Si31 1.620353 1_555
O10 Si1 1.623414 1_555
O11 Si11 1.620622 1_555
O11 Si8 1.621620 1_555
O12 Si2 1.632965 1_555
O12 Si30 1.633438 1_555
O13 Si24 1.610254 1_565
O13 Si4 1.615115 1_555
O14 Si19 1.619380 1_455
O14 Si10 1.619790 1_555
O15 Si16 1.632965 1_555
O15 Si23 1.633438 1_555
O16 Si7 1.637026 1_555
O16 Si21 1.637026 1_555
O17 Si17 1.615738 1_565
O17 Si1 1.620180 1_555
O18 Si31 1.624101 1_555
O18 Si22 1.625201 1_554
O19 Si22 1.638558 1_545
O19 Si3 1.638558 1_555
O20 Si18 1.620932 1_555
O20 Si16 1.624805 1_555
O21 Si15 1.610254 1_555
O21 Si20 1.615115 1_555
O22 Si3 1.620622 1_555
O22 Si10 1.621620 1_555
O23 Si27 1.624101 1_555
O23 Si3 1.625201 1_554
O24 Si18 1.620932 1_555
O24 Si19 1.624805 1_555
O25 Si6 1.632965 1_555
O25 Si13 1.633438 1_555
O26 Si27 1.637026 1_555
O26 Si31 1.637026 1_545
O27 Si13 1.616168 1_555
O27 Si1 1.616515 1_455
O28 Si7 1.620353 1_555
O28 Si12 1.623414 1_555
O29 Si15 1.624852 1_555
O29 Si5 1.628708 1_555
O30 Si0 1.615738 1_555
O30 Si12 1.620180 1_555
O31 Si14 1.622827 1_455
O31 Si21 1.625285 1_555
O32 Si0 1.630858 1_655
O32 Si18 1.636796 1_555
O33 Si11 1.622827 1_455
O33 Si7 1.625285 1_555
O34 Si14 1.638558 1_555
O34 Si11 1.638558 1_555
O35 Si15 1.610254 1_555
O35 Si8 1.615115 1_555
O36 Si15 1.630410 1_455
O36 Si5 1.636067 1_555
O37 Si27 1.620353 1_555
O37 Si29 1.623414 1_555
O38 Si23 1.616168 1_555
O38 Si25 1.616515 1_655
O39 Si26 1.625242 1_555
O39 Si12 1.625436 1_555
O40 Si16 1.619380 1_455
O40 Si4 1.619790 1_555
O41 Si9 1.620932 1_565
O41 Si6 1.624805 1_555
O42 Si24 1.630410 1_655
O42 Si28 1.636067 1_555
O43 Si8 1.624640 1_555
O43 Si2 1.625123 1_555
O44 Si7 1.624101 1_555
O44 Si11 1.625201 1_555
O45 Si0 1.615738 1_555
O45 Si25 1.620180 1_555
O46 Si9 1.620932 1_555
O46 Si2 1.624805 1_555
O47 Si6 1.619380 1_655
O47 Si20 1.619790 1_555
O48 Si19 1.632965 1_555
O48 Si26 1.633438 1_555
O49 Si13 1.625242 1_555
O49 Si1 1.625436 1_555
O50 Si21 1.620353 1_555
O50 Si25 1.623414 1_555
O51 Si3 1.622827 1_655
O51 Si27 1.625285 1_556
O52 Si23 1.625242 1_555
O52 Si25 1.625436 1_555
O53 Si28 1.627134 1_565
O53 Si23 1.630962 1_555
O54 Si10 1.624640 1_555
O54 Si19 1.625123 1_555
O55 Si30 1.625242 1_555
O55 Si29 1.625436 1_555
O56 Si24 1.624852 1_555
O56 Si28 1.628708 1_555
O57 Si22 1.620622 1_555
O57 Si4 1.621620 1_555
O58 Si28 1.627134 1_555
O58 Si26 1.630962 1_555
O59 Si26 1.616168 1_555
O59 Si12 1.616515 1_655
O60 Si2 1.619380 1_655
O60 Si8 1.619790 1_555
O61 Si21 1.624101 1_555
O61 Si14 1.625201 1_555
O62 Si20 1.624640 1_555
O62 Si6 1.625123 1_555
O63 Si22 1.622827 1_655
O63 Si31 1.625285 1_556
