# generated using pymatgen
data_Na2Ca(AsO3)4
_symmetry_space_group_name_H-M   'P 1'
_cell_length_a   10.13124800
_cell_length_b   10.13124800
_cell_length_c   5.23961100
_cell_angle_alpha   90.00000000
_cell_angle_beta   90.00000000
_cell_angle_gamma   90.00000000
_symmetry_Int_Tables_number   1
_chemical_formula_structural   Na2Ca(AsO3)4
_chemical_formula_sum   'Na4 Ca2 As8 O24'
_cell_volume   537.80512703
_cell_formula_units_Z   2
loop_
 _symmetry_equiv_pos_site_id
 _symmetry_equiv_pos_as_xyz
  1  'x, y, z'
loop_
 _atom_site_type_symbol
 _atom_site_label
 _atom_site_symmetry_multiplicity
 _atom_site_fract_x
 _atom_site_fract_y
 _atom_site_fract_z
 _atom_site_occupancy
  Na  Na0  1  0.75000000  0.25000000  0.00000000  1
  Na  Na1  1  0.25000000  0.25000000  0.00000000  1
  Na  Na2  1  0.25000000  0.75000000  0.00000000  1
  Na  Na3  1  0.75000000  0.75000000  0.00000000  1
  Ca  Ca0  1  0.00000000  0.00000000  0.00000000  1
  Ca  Ca1  1  0.50000000  0.50000000  0.00000000  1
  As  As0  1  0.00000000  0.72708000  0.50000000  1
  As  As1  1  0.77292000  0.50000000  0.50000000  1
  As  As2  1  0.50000000  0.77292000  0.50000000  1
  As  As3  1  0.72708000  0.00000000  0.50000000  1
  As  As4  1  0.50000000  0.22708000  0.50000000  1
  As  As5  1  0.00000000  0.27292000  0.50000000  1
  As  As6  1  0.27292000  0.00000000  0.50000000  1
  As  As7  1  0.22708000  0.50000000  0.50000000  1
  O  O0  1  0.88413700  0.61586300  0.34813800  1
  O  O1  1  0.19443800  0.92841700  0.74393100  1
  O  O2  1  0.61586300  0.88413700  0.65186200  1
  O  O3  1  0.69443800  0.57158300  0.74393100  1
  O  O4  1  0.30556200  0.42841700  0.74393100  1
  O  O5  1  0.92841700  0.80556200  0.74393100  1
  O  O6  1  0.61586300  0.11586300  0.34813800  1
  O  O7  1  0.30556200  0.57158300  0.25606900  1
  O  O8  1  0.57158300  0.30556200  0.74393100  1
  O  O9  1  0.07158300  0.80556200  0.25606900  1
  O  O10  1  0.57158300  0.69443800  0.25606900  1
  O  O11  1  0.88413700  0.38413700  0.65186200  1
  O  O12  1  0.92841700  0.19443800  0.25606900  1
  O  O13  1  0.38413700  0.11586300  0.65186200  1
  O  O14  1  0.07158300  0.19443800  0.74393100  1
  O  O15  1  0.42841700  0.30556200  0.25606900  1
  O  O16  1  0.42841700  0.69443800  0.74393100  1
  O  O17  1  0.80556200  0.07158300  0.74393100  1
  O  O18  1  0.11586300  0.61586300  0.65186200  1
  O  O19  1  0.80556200  0.92841700  0.25606900  1
  O  O20  1  0.19443800  0.07158300  0.25606900  1
  O  O21  1  0.11586300  0.38413700  0.34813800  1
  O  O22  1  0.69443800  0.42841700  0.25606900  1
  O  O23  1  0.38413700  0.88413700  0.34813800  1
loop_
_geom_bond_atom_site_label_1
_geom_bond_atom_site_label_2
_geom_bond_distance
_geom_bond_site_symmetry_2
Na0 O12 2.320432 1_555
Na0 O22 2.320432 1_555
Na0 O17 2.320432 1_554
Na0 O8 2.320432 1_554
Na0 O11 2.649716 1_554
Na0 O6 2.649716 1_555
Na1 O4 2.320432 1_554
Na1 O20 2.320432 1_555
Na1 O15 2.320432 1_555
Na1 O14 2.320432 1_554
Na1 O21 2.649716 1_555
Na1 O13 2.649716 1_554
Na2 O1 2.320432 1_554
Na2 O9 2.320432 1_555
Na2 O16 2.320432 1_554
Na2 O7 2.320432 1_555
Na2 O23 2.649716 1_555
Na2 O18 2.649716 1_554
Na3 O19 2.320432 1_555
Na3 O5 2.320432 1_554
Na3 O10 2.320432 1_555
Na3 O3 2.320432 1_554
Na3 O0 2.649716 1_555
Na3 O2 2.649716 1_554
Ca0 O17 2.491309 1_454
Ca0 O14 2.491309 1_554
Ca0 O20 2.491309 1_555
Ca0 O9 2.491309 1_545
Ca0 O12 2.491309 1_455
Ca0 O5 2.491309 1_444
Ca0 O1 2.491309 1_544
Ca0 O19 2.491309 1_445
Ca1 O15 2.491309 1_555
Ca1 O3 2.491309 1_554
Ca1 O8 2.491309 1_554
Ca1 O22 2.491309 1_555
Ca1 O16 2.491309 1_554
Ca1 O10 2.491309 1_555
Ca1 O7 2.491309 1_555
Ca1 O4 2.491309 1_554
As0 O9 1.670843 1_555
As0 O5 1.670843 1_455
As0 O18 1.811251 1_555
As0 O0 1.811251 1_455
As1 O3 1.670843 1_555
As1 O22 1.670843 1_555
As1 O0 1.811251 1_555
As1 O11 1.811251 1_555
As2 O10 1.670843 1_555
As2 O16 1.670843 1_555
As2 O2 1.811251 1_555
As2 O23 1.811251 1_555
As3 O17 1.670843 1_555
As3 O19 1.670843 1_545
As3 O2 1.811251 1_545
As3 O6 1.811251 1_555
As4 O8 1.670843 1_555
As4 O15 1.670843 1_555
As4 O6 1.811251 1_555
As4 O13 1.811251 1_555
As5 O14 1.670843 1_555
As5 O12 1.670843 1_455
As5 O11 1.811251 1_455
As5 O21 1.811251 1_555
As6 O20 1.670843 1_555
As6 O1 1.670843 1_545
As6 O13 1.811251 1_555
As6 O23 1.811251 1_545
As7 O7 1.670843 1_555
As7 O4 1.670843 1_555
As7 O18 1.811251 1_555
As7 O21 1.811251 1_555
