# generated using pymatgen
data_LaNbTeO6
_symmetry_space_group_name_H-M   'P 1'
_cell_length_a   6.86447500
_cell_length_b   7.50167461
_cell_length_c   10.90006721
_cell_angle_alpha   100.28721852
_cell_angle_beta   102.98114285
_cell_angle_gamma   89.77545774
_symmetry_Int_Tables_number   1
_chemical_formula_structural   LaNbTeO6
_chemical_formula_sum   'La4 Nb4 Te4 O24'
_cell_volume   537.77904788
_cell_formula_units_Z   4
loop_
 _symmetry_equiv_pos_site_id
 _symmetry_equiv_pos_as_xyz
  1  'x, y, z'
loop_
 _atom_site_type_symbol
 _atom_site_label
 _atom_site_symmetry_multiplicity
 _atom_site_fract_x
 _atom_site_fract_y
 _atom_site_fract_z
 _atom_site_occupancy
  La  La0  1  0.23936300  0.13930800  0.49462100  1
  La  La1  1  0.33041600  0.28511600  0.15604000  1
  La  La2  1  0.76063700  0.86069200  0.50537900  1
  La  La3  1  0.66958400  0.71488400  0.84396000  1
  Nb  Nb0  1  0.18317100  0.45407800  0.80302000  1
  Nb  Nb1  1  0.17334900  0.95917100  0.80067100  1
  Nb  Nb2  1  0.81682900  0.54592200  0.19698000  1
  Nb  Nb3  1  0.82665100  0.04082900  0.19932900  1
  Te  Te0  1  0.32971700  0.79898700  0.20101100  1
  Te  Te1  1  0.73597400  0.37125900  0.50318500  1
  Te  Te2  1  0.67028300  0.20101300  0.79898900  1
  Te  Te3  1  0.26402600  0.62874100  0.49681500  1
  O  O0  1  0.49990100  0.39996600  0.78981400  1
  O  O1  1  0.91036000  0.49971100  0.77838800  1
  O  O2  1  0.85683800  0.81609400  0.28128800  1
  O  O3  1  0.39383300  0.87104900  0.38514500  1
  O  O4  1  0.53432100  0.67746200  0.59549600  1
  O  O5  1  0.75546400  0.56851900  0.02963400  1
  O  O6  1  0.85030000  0.15076300  0.42780400  1
  O  O7  1  0.81718200  0.94364700  0.03419900  1
  O  O8  1  0.89284800  0.88870400  0.74177400  1
  O  O9  1  0.14316200  0.18390600  0.71871200  1
  O  O10  1  0.60616700  0.12895100  0.61485500  1
  O  O11  1  0.14970000  0.84923700  0.57219600  1
  O  O12  1  0.49425300  0.01758100  0.81918200  1
  O  O13  1  0.08964000  0.50028900  0.22161200  1
  O  O14  1  0.46567900  0.32253800  0.40450400  1
  O  O15  1  0.24453600  0.43148100  0.97036600  1
  O  O16  1  0.50009900  0.60003400  0.21018600  1
  O  O17  1  0.50574700  0.98241900  0.18081800  1
  O  O18  1  0.28782200  0.71406600  0.81974500  1
  O  O19  1  0.71217800  0.28593400  0.18025500  1
  O  O20  1  0.18281800  0.05635300  0.96580100  1
  O  O21  1  0.18121200  0.45427600  0.58816800  1
  O  O22  1  0.81878800  0.54572400  0.41183200  1
  O  O23  1  0.10715200  0.11129600  0.25822600  1
loop_
_geom_bond_atom_site_label_1
_geom_bond_atom_site_label_2
_geom_bond_distance
_geom_bond_site_symmetry_2
La0 O21 2.469169 1_555
La0 O23 2.502960 1_555
La0 O3 2.508400 1_545
La0 O14 2.540129 1_555
La0 O10 2.572127 1_555
La0 O11 2.594295 1_545
La0 O6 2.610981 1_455
La0 O9 2.635414 1_555
La1 O15 2.429341 1_554
La1 O13 2.438413 1_555
La1 O20 2.463780 1_554
La1 O16 2.549663 1_555
La1 O23 2.567301 1_555
La1 O19 2.574106 1_555
La1 O17 2.594092 1_545
La1 O14 2.622298 1_555
La2 O22 2.469169 1_555
La2 O8 2.502960 1_555
La2 O10 2.508400 1_565
La2 O4 2.540129 1_555
La2 O3 2.572127 1_555
La2 O6 2.594295 1_565
La2 O11 2.610981 1_655
La2 O2 2.635414 1_555
La3 O5 2.429341 1_556
La3 O1 2.438413 1_555
La3 O7 2.463780 1_556
La3 O0 2.549663 1_555
La3 O8 2.567301 1_555
La3 O18 2.574106 1_555
La3 O12 2.594092 1_565
La3 O4 2.622298 1_555
Nb0 O15 1.816077 1_555
Nb0 O1 1.870349 1_455
Nb0 O18 2.044088 1_555
Nb0 O9 2.062368 1_555
Nb0 O0 2.241740 1_555
Nb0 O21 2.339183 1_555
Nb1 O20 1.804047 1_565
Nb1 O8 1.931456 1_455
Nb1 O18 2.023197 1_555
Nb1 O9 2.033537 1_565
Nb1 O12 2.204882 1_565
Nb1 O11 2.448346 1_555
Nb2 O5 1.816077 1_555
Nb2 O13 1.870349 1_655
Nb2 O19 2.044088 1_555
Nb2 O2 2.062368 1_555
Nb2 O16 2.241740 1_555
Nb2 O22 2.339183 1_555
Nb3 O7 1.804047 1_545
Nb3 O23 1.931456 1_655
Nb3 O19 2.023197 1_555
Nb3 O2 2.033537 1_545
Nb3 O17 2.204882 1_545
Nb3 O6 2.448346 1_555
O0 Te2 1.895390 1_555
O3 Te0 1.931778 1_555
O3 Te3 2.621046 1_555
O4 Te3 1.923923 1_555
O6 Te1 1.954770 1_555
O10 Te2 1.931778 1_555
O10 Te1 2.621046 1_555
O11 Te3 1.954770 1_555
O12 Te2 1.908603 1_555
O14 Te1 1.923923 1_555
O16 Te0 1.895390 1_555
O17 Te0 1.908603 1_555
O21 Te3 1.937318 1_555
O22 Te1 1.937318 1_555
