# generated using pymatgen
data_Ag4Mo2Se3O16
_symmetry_space_group_name_H-M   'P 1'
_cell_length_a   5.78497900
_cell_length_b   16.10779700
_cell_length_c   16.16141500
_cell_angle_alpha   90.00000000
_cell_angle_beta   90.00000000
_cell_angle_gamma   90.00000000
_symmetry_Int_Tables_number   1
_chemical_formula_structural   Ag4Mo2Se3O16
_chemical_formula_sum   'Ag16 Mo8 Se12 O64'
_cell_volume   1505.97345520
_cell_formula_units_Z   4
loop_
 _symmetry_equiv_pos_site_id
 _symmetry_equiv_pos_as_xyz
  1  'x, y, z'
loop_
 _atom_site_type_symbol
 _atom_site_label
 _atom_site_symmetry_multiplicity
 _atom_site_fract_x
 _atom_site_fract_y
 _atom_site_fract_z
 _atom_site_occupancy
  Ag  Ag0  1  0.82164600  0.25000000  0.16026700  1
  Ag  Ag1  1  0.16793000  0.07685100  0.49732200  1
  Ag  Ag2  1  0.83207000  0.07685100  0.99732200  1
  Ag  Ag3  1  0.16793000  0.42314900  0.49732200  1
  Ag  Ag4  1  0.69471800  0.75000000  0.00065200  1
  Ag  Ag5  1  0.69471800  0.25000000  0.49934800  1
  Ag  Ag6  1  0.83207000  0.42314900  0.99732200  1
  Ag  Ag7  1  0.30528200  0.75000000  0.50065200  1
  Ag  Ag8  1  0.82164600  0.75000000  0.33973300  1
  Ag  Ag9  1  0.83207000  0.57685100  0.50267800  1
  Ag  Ag10  1  0.30528200  0.25000000  0.99934800  1
  Ag  Ag11  1  0.16793000  0.57685100  0.00267800  1
  Ag  Ag12  1  0.17835400  0.75000000  0.83973300  1
  Ag  Ag13  1  0.83207000  0.92314900  0.50267800  1
  Ag  Ag14  1  0.16793000  0.92314900  0.00267800  1
  Ag  Ag15  1  0.17835400  0.25000000  0.66026700  1
  Mo  Mo0  1  0.35974400  0.41163800  0.82728000  1
  Mo  Mo1  1  0.64025600  0.91163800  0.17272000  1
  Mo  Mo2  1  0.35974400  0.58836200  0.67272000  1
  Mo  Mo3  1  0.35974400  0.91163800  0.67272000  1
  Mo  Mo4  1  0.64025600  0.58836200  0.17272000  1
  Mo  Mo5  1  0.35974400  0.08836200  0.82728000  1
  Mo  Mo6  1  0.64025600  0.08836200  0.32728000  1
  Mo  Mo7  1  0.64025600  0.41163800  0.32728000  1
  Se  Se0  1  0.24532400  0.75000000  0.13588300  1
  Se  Se1  1  0.75467600  0.25000000  0.86411700  1
  Se  Se2  1  0.24532400  0.25000000  0.36411700  1
  Se  Se3  1  0.33039600  0.60108300  0.36051900  1
  Se  Se4  1  0.66960400  0.89891700  0.86051900  1
  Se  Se5  1  0.33039600  0.10108300  0.13948100  1
  Se  Se6  1  0.66960400  0.39891700  0.63948100  1
  Se  Se7  1  0.75467600  0.75000000  0.63588300  1
  Se  Se8  1  0.66960400  0.60108300  0.86051900  1
  Se  Se9  1  0.66960400  0.10108300  0.63948100  1
  Se  Se10  1  0.33039600  0.39891700  0.13948100  1
  Se  Se11  1  0.33039600  0.89891700  0.36051900  1
  O  O0  1  0.17842600  0.16218900  0.78313100  1
  O  O1  1  0.45306700  0.85064700  0.91109300  1
  O  O2  1  0.56055600  0.66733900  0.60444000  1
  O  O3  1  0.79906400  0.55416800  0.08618800  1
  O  O4  1  0.56055600  0.83266100  0.60444000  1
  O  O5  1  0.20093600  0.44583200  0.91381200  1
  O  O6  1  0.79906400  0.94583200  0.08618800  1
  O  O7  1  0.65185300  0.12178700  0.74186100  1
  O  O8  1  0.34814700  0.37821300  0.24186100  1
  O  O9  1  0.17842600  0.66218900  0.71686900  1
  O  O10  1  0.31052100  0.00000000  0.75000000  1
  O  O11  1  0.45306700  0.64935300  0.91109300  1
  O  O12  1  0.92119500  0.13800500  0.60414500  1
  O  O13  1  0.82157400  0.16218900  0.28313100  1
  O  O14  1  0.07880500  0.86199500  0.39585500  1
  O  O15  1  0.45306700  0.35064700  0.58890700  1
  O  O16  1  0.65897100  0.49717300  0.87652900  1
  O  O17  1  0.92119500  0.86199500  0.89585500  1
  O  O18  1  0.92119500  0.36199500  0.60414500  1
  O  O19  1  0.65185300  0.87821300  0.75813900  1
  O  O20  1  0.43944400  0.33266100  0.39556000  1
  O  O21  1  0.65897100  0.99717300  0.62347100  1
  O  O22  1  0.43944400  0.16733900  0.39556000  1
  O  O23  1  0.34814700  0.87821300  0.25813900  1
  O  O24  1  0.65185300  0.37821300  0.74186100  1
  O  O25  1  0.45306700  0.14935300  0.58890700  1
  O  O26  1  0.20093600  0.94583200  0.58618800  1
  O  O27  1  0.79906400  0.05416800  0.41381200  1
  O  O28  1  0.17842600  0.83781100  0.71686900  1
  O  O29  1  0.31052100  0.50000000  0.75000000  1
  O  O30  1  0.20093600  0.55416800  0.58618800  1
  O  O31  1  0.68947900  0.50000000  0.25000000  1
  O  O32  1  0.54693300  0.85064700  0.41109300  1
  O  O33  1  0.34102900  0.99717300  0.12347100  1
  O  O34  1  0.43944400  0.66733900  0.10444000  1
  O  O35  1  0.65897100  0.50282700  0.62347100  1
  O  O36  1  0.92085400  0.25000000  0.94826600  1
  O  O37  1  0.92085400  0.75000000  0.55173400  1
  O  O38  1  0.82157400  0.66218900  0.21686900  1
  O  O39  1  0.54693300  0.35064700  0.08890700  1
  O  O40  1  0.56055600  0.33266100  0.89556000  1
  O  O41  1  0.07880500  0.13800500  0.10414500  1
  O  O42  1  0.20093600  0.05416800  0.91381200  1
  O  O43  1  0.56055600  0.16733900  0.89556000  1
  O  O44  1  0.07914600  0.25000000  0.44826600  1
  O  O45  1  0.34102900  0.00282700  0.37652900  1
  O  O46  1  0.79906400  0.44583200  0.41381200  1
  O  O47  1  0.82157400  0.83781100  0.21686900  1
  O  O48  1  0.07880500  0.63800500  0.39585500  1
  O  O49  1  0.34102900  0.49717300  0.37652900  1
  O  O50  1  0.07880500  0.36199500  0.10414500  1
  O  O51  1  0.34102900  0.50282700  0.12347100  1
  O  O52  1  0.92119500  0.63800500  0.89585500  1
  O  O53  1  0.54693300  0.64935300  0.41109300  1
  O  O54  1  0.68947900  0.00000000  0.25000000  1
  O  O55  1  0.43944400  0.83266100  0.10444000  1
  O  O56  1  0.34814700  0.12178700  0.24186100  1
  O  O57  1  0.65897100  0.00282700  0.87652900  1
  O  O58  1  0.65185300  0.62178700  0.75813900  1
  O  O59  1  0.07914600  0.75000000  0.05173400  1
  O  O60  1  0.34814700  0.62178700  0.25813900  1
  O  O61  1  0.54693300  0.14935300  0.08890700  1
  O  O62  1  0.82157400  0.33781100  0.28313100  1
  O  O63  1  0.17842600  0.33781100  0.78313100  1
loop_
_geom_bond_atom_site_label_1
_geom_bond_atom_site_label_2
_geom_bond_distance
_geom_bond_site_symmetry_2
Ag0 O13 2.437924 1_555
Ag0 O62 2.437924 1_555
Ag0 O50 2.508025 1_655
Ag0 O41 2.508025 1_655
Ag0 O39 2.546356 1_555
Ag0 O61 2.546356 1_555
Ag1 O12 2.447075 1_455
Ag1 O45 2.497100 1_555
Ag1 O25 2.505111 1_555
Ag1 O27 2.551172 1_455
Ag1 O26 2.559889 1_545
Ag1 O22 2.701178 1_555
Ag2 O41 2.447075 1_656
Ag2 O57 2.497100 1_555
Ag2 O61 2.505111 1_556
Ag2 O42 2.551172 1_655
Ag2 O6 2.559889 1_546
Ag2 O43 2.701178 1_555
Ag3 O18 2.447075 1_455
Ag3 O49 2.497100 1_555
Ag3 O15 2.505111 1_555
Ag3 O46 2.551172 1_455
Ag3 O30 2.559889 1_555
Ag3 O20 2.701178 1_555
Ag4 O59 2.372195 1_655
Ag4 O1 2.584089 1_554
Ag4 O11 2.584089 1_554
Ag4 O55 2.601384 1_555
Ag4 O34 2.601384 1_555
Ag4 O17 2.799899 1_554
Ag4 O52 2.799899 1_554
Ag5 O44 2.372195 1_655
Ag5 O15 2.584089 1_555
Ag5 O25 2.584089 1_555
Ag5 O20 2.601384 1_555
Ag5 O22 2.601384 1_555
Ag5 O18 2.799899 1_555
Ag5 O12 2.799899 1_555
Ag6 O50 2.447075 1_656
Ag6 O16 2.497100 1_555
Ag6 O39 2.505111 1_556
Ag6 O5 2.551172 1_655
Ag6 O3 2.559889 1_556
Ag6 O40 2.701178 1_555
Ag7 O37 2.372195 1_455
Ag7 O32 2.584089 1_555
Ag7 O53 2.584089 1_555
Ag7 O2 2.601384 1_555
Ag7 O4 2.601384 1_555
Ag7 O14 2.799899 1_555
Ag7 O48 2.799899 1_555
Ag8 O47 2.437924 1_555
Ag8 O38 2.437924 1_555
Ag8 O14 2.508025 1_655
Ag8 O48 2.508025 1_655
Ag8 O32 2.546356 1_555
Ag8 O53 2.546356 1_555
Ag9 O48 2.447075 1_655
Ag9 O35 2.497100 1_555
Ag9 O53 2.505111 1_555
Ag9 O30 2.551172 1_655
Ag9 O46 2.559889 1_555
Ag9 O2 2.701178 1_555
Ag10 O36 2.372195 1_455
Ag10 O39 2.584089 1_556
Ag10 O61 2.584089 1_556
Ag10 O43 2.601384 1_555
Ag10 O40 2.601384 1_555
Ag10 O41 2.799899 1_556
Ag10 O50 2.799899 1_556
Ag11 O52 2.447075 1_454
Ag11 O51 2.497100 1_555
Ag11 O11 2.505111 1_554
Ag11 O3 2.551172 1_455
Ag11 O5 2.559889 1_554
Ag11 O34 2.701178 1_555
Ag12 O28 2.437924 1_555
Ag12 O9 2.437924 1_555
Ag12 O17 2.508025 1_455
Ag12 O52 2.508025 1_455
Ag12 O1 2.546356 1_555
Ag12 O11 2.546356 1_555
Ag13 O14 2.447075 1_655
Ag13 O21 2.497100 1_555
Ag13 O32 2.505111 1_555
Ag13 O26 2.551172 1_655
Ag13 O27 2.559889 1_565
Ag13 O4 2.701178 1_555
Ag14 O17 2.447075 1_454
Ag14 O33 2.497100 1_555
Ag14 O1 2.505111 1_554
Ag14 O6 2.551172 1_455
Ag14 O42 2.559889 1_564
Ag14 O55 2.701178 1_555
Ag15 O63 2.437924 1_555
Ag15 O0 2.437924 1_555
Ag15 O18 2.508025 1_455
Ag15 O12 2.508025 1_455
Ag15 O15 2.546356 1_555
Ag15 O25 2.546356 1_555
Mo0 O63 1.738823 1_555
Mo0 O5 1.761569 1_555
Mo0 O29 1.914890 1_555
Mo0 O40 2.045874 1_555
Mo0 O24 2.247490 1_555
Mo0 O16 2.351218 1_555
Mo1 O47 1.738823 1_555
Mo1 O6 1.761569 1_555
Mo1 O54 1.914890 1_565
Mo1 O55 2.045874 1_555
Mo1 O23 2.247490 1_555
Mo1 O33 2.351218 1_555
Mo2 O9 1.738823 1_555
Mo2 O30 1.761569 1_555
Mo2 O29 1.914890 1_555
Mo2 O2 2.045874 1_555
Mo2 O58 2.247490 1_555
Mo2 O35 2.351218 1_555
Mo3 O28 1.738823 1_555
Mo3 O26 1.761569 1_555
Mo3 O10 1.914890 1_565
Mo3 O4 2.045874 1_555
Mo3 O19 2.247490 1_555
Mo3 O21 2.351218 1_555
Mo4 O38 1.738823 1_555
Mo4 O3 1.761569 1_555
Mo4 O31 1.914890 1_555
Mo4 O34 2.045874 1_555
Mo4 O60 2.247490 1_555
Mo4 O51 2.351218 1_555
Mo5 O0 1.738823 1_555
Mo5 O42 1.761569 1_555
Mo5 O10 1.914890 1_555
Mo5 O43 2.045874 1_555
Mo5 O7 2.247490 1_555
Mo5 O57 2.351218 1_555
Mo6 O13 1.738823 1_555
Mo6 O27 1.761569 1_555
Mo6 O54 1.914890 1_555
Mo6 O22 2.045874 1_555
Mo6 O56 2.247490 1_555
Mo6 O45 2.351218 1_555
Mo7 O62 1.738823 1_555
Mo7 O46 1.761569 1_555
Mo7 O31 1.914890 1_555
Mo7 O20 2.045874 1_555
Mo7 O8 2.247490 1_555
Mo7 O49 2.351218 1_555
O1 Se4 1.685752 1_555
O2 Se7 1.814434 1_555
O4 Se7 1.814434 1_555
O7 Se9 1.691001 1_555
O8 Se10 1.691001 1_555
O11 Se8 1.685752 1_555
O12 Se9 1.672773 1_555
O14 Se11 1.672773 1_555
O15 Se6 1.685752 1_555
O16 Se8 1.694759 1_555
O17 Se4 1.672773 1_555
O18 Se6 1.672773 1_555
O19 Se4 1.691001 1_555
O20 Se2 1.814434 1_555
O21 Se9 1.694759 1_565
O22 Se2 1.814434 1_555
O23 Se11 1.691001 1_555
O24 Se6 1.691001 1_555
O25 Se9 1.685752 1_555
O32 Se11 1.685752 1_555
O33 Se5 1.694759 1_565
O34 Se0 1.814434 1_555
O35 Se6 1.694759 1_555
O36 Se1 1.665436 1_555
O37 Se7 1.665436 1_555
O39 Se10 1.685752 1_555
O40 Se1 1.814434 1_555
O41 Se5 1.672773 1_555
O43 Se1 1.814434 1_555
O44 Se2 1.665436 1_555
O45 Se11 1.694759 1_545
O48 Se3 1.672773 1_555
O49 Se3 1.694759 1_555
O50 Se10 1.672773 1_555
O51 Se10 1.694759 1_555
O52 Se8 1.672773 1_555
O53 Se3 1.685752 1_555
O55 Se0 1.814434 1_555
O56 Se5 1.691001 1_555
O57 Se4 1.694759 1_545
O58 Se8 1.691001 1_555
O59 Se0 1.665436 1_555
O60 Se3 1.691001 1_555
O61 Se5 1.685752 1_555
