# generated using pymatgen
data_RbZrCdF7
_symmetry_space_group_name_H-M   'P 1'
_cell_length_a   6.63913777
_cell_length_b   6.63913777
_cell_length_c   8.67049600
_cell_angle_alpha   90.00000000
_cell_angle_beta   90.00000000
_cell_angle_gamma   116.97669797
_symmetry_Int_Tables_number   1
_chemical_formula_structural   RbZrCdF7
_chemical_formula_sum   'Rb2 Zr2 Cd2 F14'
_cell_volume   340.59489846
_cell_formula_units_Z   2
loop_
 _symmetry_equiv_pos_site_id
 _symmetry_equiv_pos_as_xyz
  1  'x, y, z'
loop_
 _atom_site_type_symbol
 _atom_site_label
 _atom_site_symmetry_multiplicity
 _atom_site_fract_x
 _atom_site_fract_y
 _atom_site_fract_z
 _atom_site_occupancy
  Rb  Rb0  1  0.50000000  0.50000000  0.50000000  1
  Rb  Rb1  1  0.50000000  0.50000000  0.00000000  1
  Zr  Zr0  1  0.80682000  0.19318000  0.25000000  1
  Zr  Zr1  1  0.19318000  0.80682000  0.75000000  1
  Cd  Cd0  1  0.80863800  0.19136200  0.75000000  1
  Cd  Cd1  1  0.19136200  0.80863800  0.25000000  1
  F  F0  1  0.79638100  0.20361900  0.01393300  1
  F  F1  1  0.15256200  0.43680400  0.25000000  1
  F  F2  1  0.56319600  0.84743800  0.25000000  1
  F  F3  1  0.52532500  0.82864300  0.75000000  1
  F  F4  1  0.17135700  0.47467500  0.75000000  1
  F  F5  1  0.79638100  0.20361900  0.48606700  1
  F  F6  1  0.43680400  0.15256200  0.75000000  1
  F  F7  1  0.82864300  0.52532500  0.25000000  1
  F  F8  1  0.47467500  0.17135700  0.25000000  1
  F  F9  1  0.98954500  0.01045500  0.25000000  1
  F  F10  1  0.20361900  0.79638100  0.51393300  1
  F  F11  1  0.20361900  0.79638100  0.98606700  1
  F  F12  1  0.01045500  0.98954500  0.75000000  1
  F  F13  1  0.84743800  0.56319600  0.75000000  1
loop_
_geom_bond_atom_site_label_1
_geom_bond_atom_site_label_2
_geom_bond_distance
_geom_bond_site_symmetry_2
Cd0 F12 2.284605 1_645
Cd0 F4 2.286399 1_655
Cd0 F3 2.286399 1_545
Cd0 F0 2.292633 1_556
Cd0 F5 2.292633 1_555
Cd0 F13 2.362981 1_555
Cd0 F6 2.362981 1_555
Cd1 F9 2.284605 1_465
Cd1 F8 2.286399 1_565
Cd1 F7 2.286399 1_455
Cd1 F10 2.292633 1_555
Cd1 F11 2.292633 1_554
Cd1 F2 2.362981 1_555
Cd1 F1 2.362981 1_555
F0 Zr0 2.050226 1_555
F0 Rb1 3.357260 1_555
F1 Zr0 2.125261 1_455
F1 Rb0 3.052440 1_555
F1 Rb1 3.052440 1_555
F2 Zr0 2.125261 1_565
F2 Rb1 3.052440 1_555
F2 Rb0 3.052440 1_555
F3 Zr1 2.143325 1_555
F3 Rb1 3.025681 1_556
F3 Rb0 3.025681 1_555
F4 Zr1 2.143325 1_555
F4 Rb0 3.025681 1_555
F4 Rb1 3.025681 1_556
F5 Zr0 2.050226 1_555
F5 Rb0 3.357260 1_555
F6 Zr1 2.125261 1_545
F6 Rb0 3.052440 1_555
F6 Rb1 3.052440 1_556
F7 Zr0 2.143325 1_555
F7 Rb1 3.025681 1_555
F7 Rb0 3.025681 1_555
F8 Zr0 2.143325 1_555
F8 Rb0 3.025681 1_555
F8 Rb1 3.025681 1_555
F9 Zr0 2.068480 1_555
F10 Zr1 2.050226 1_555
F10 Rb0 3.357260 1_555
F11 Zr1 2.050226 1_555
F11 Rb1 3.357260 1_556
F12 Zr1 2.068480 1_555
F13 Zr1 2.125261 1_655
F13 Rb1 3.052440 1_556
F13 Rb0 3.052440 1_555
