# generated using pymatgen
data_SrMgF4
_symmetry_space_group_name_H-M   'P 1'
_cell_length_a   16.80398600
_cell_length_b   7.78929900
_cell_length_c   8.15280129
_cell_angle_alpha   74.81357616
_cell_angle_beta   90.00000000
_cell_angle_gamma   90.00000000
_symmetry_Int_Tables_number   1
_chemical_formula_structural   SrMgF4
_chemical_formula_sum   'Sr12 Mg12 F48'
_cell_volume   1029.86482673
_cell_formula_units_Z   12
loop_
 _symmetry_equiv_pos_site_id
 _symmetry_equiv_pos_as_xyz
  1  'x, y, z'
loop_
 _atom_site_type_symbol
 _atom_site_label
 _atom_site_symmetry_multiplicity
 _atom_site_fract_x
 _atom_site_fract_y
 _atom_site_fract_z
 _atom_site_occupancy
  Sr  Sr0  1  0.08196200  0.16058700  0.83501400  1
  Sr  Sr1  1  0.58196200  0.83941300  0.16498600  1
  Sr  Sr2  1  0.75000000  0.16374300  0.83355500  1
  Sr  Sr3  1  0.91532900  0.83584400  0.66634500  1
  Sr  Sr4  1  0.75000000  0.15614700  0.33631600  1
  Sr  Sr5  1  0.41532900  0.16415600  0.33365500  1
  Sr  Sr6  1  0.25000000  0.83625700  0.16644500  1
  Sr  Sr7  1  0.58467100  0.83584400  0.66634500  1
  Sr  Sr8  1  0.41803800  0.16058700  0.83501400  1
  Sr  Sr9  1  0.08467100  0.16415600  0.33365500  1
  Sr  Sr10  1  0.25000000  0.84385300  0.66368400  1
  Sr  Sr11  1  0.91803800  0.83941300  0.16498600  1
  Mg  Mg0  1  0.25000000  0.32420200  0.04377400  1
  Mg  Mg1  1  0.91723800  0.32099700  0.54475900  1
  Mg  Mg2  1  0.58329500  0.32286300  0.04441600  1
  Mg  Mg3  1  0.08329500  0.67713700  0.95558400  1
  Mg  Mg4  1  0.75000000  0.67166100  0.45716700  1
  Mg  Mg5  1  0.25000000  0.32833900  0.54283300  1
  Mg  Mg6  1  0.41723800  0.67900300  0.45524100  1
  Mg  Mg7  1  0.41670500  0.67713700  0.95558400  1
  Mg  Mg8  1  0.08276200  0.67900300  0.45524100  1
  Mg  Mg9  1  0.91670500  0.32286300  0.04441600  1
  Mg  Mg10  1  0.58276200  0.32099700  0.54475900  1
  Mg  Mg11  1  0.75000000  0.67579800  0.95622600  1
  F  F0  1  0.49992000  0.87250600  0.40898700  1
  F  F1  1  0.41541600  0.70046100  0.69990100  1
  F  F2  1  0.66754400  0.49331700  0.50972200  1
  F  F3  1  0.75000000  0.69169400  0.20228600  1
  F  F4  1  0.33455900  0.87580800  0.40626500  1
  F  F5  1  0.99992000  0.12749400  0.59101300  1
  F  F6  1  0.00008000  0.87250600  0.40898700  1
  F  F7  1  0.83401300  0.12763800  0.09331900  1
  F  F8  1  0.41906600  0.70725700  0.19800700  1
  F  F9  1  0.25000000  0.30830600  0.79771400  1
  F  F10  1  0.16654100  0.50072300  0.00725400  1
  F  F11  1  0.91906600  0.29274300  0.80199300  1
  F  F12  1  0.66654100  0.49927700  0.99274600  1
  F  F13  1  0.66544100  0.12419200  0.59373500  1
  F  F14  1  0.58458400  0.29953900  0.30009900  1
  F  F15  1  0.83240100  0.87148100  0.90947600  1
  F  F16  1  0.50050100  0.12769100  0.09515100  1
  F  F17  1  0.33245600  0.50668300  0.49027800  1
  F  F18  1  0.16598700  0.87236200  0.90668100  1
  F  F19  1  0.33401300  0.87236200  0.90668100  1
  F  F20  1  0.83255300  0.86715900  0.40596900  1
  F  F21  1  0.16744700  0.13284100  0.59403100  1
  F  F22  1  0.91541600  0.29953900  0.30009900  1
  F  F23  1  0.25000000  0.29355300  0.30165100  1
  F  F24  1  0.16759900  0.12851900  0.09052400  1
  F  F25  1  0.00000000  0.50000000  0.50000000  1
  F  F26  1  0.83455900  0.12419200  0.59373500  1
  F  F27  1  0.83345900  0.49927700  0.99274600  1
  F  F28  1  0.33255300  0.13284100  0.59403100  1
  F  F29  1  0.58093400  0.29274300  0.80199300  1
  F  F30  1  0.66759900  0.87148100  0.90947600  1
  F  F31  1  0.66744700  0.86715900  0.40596900  1
  F  F32  1  0.33240100  0.12851900  0.09052400  1
  F  F33  1  0.49949900  0.87230900  0.90484900  1
  F  F34  1  0.99949900  0.12769100  0.09515100  1
  F  F35  1  0.08458400  0.70046100  0.69990100  1
  F  F36  1  0.08093400  0.70725700  0.19800700  1
  F  F37  1  0.00050100  0.87230900  0.90484900  1
  F  F38  1  0.33345900  0.50072300  0.00725400  1
  F  F39  1  0.50000000  0.50000000  0.50000000  1
  F  F40  1  0.83245600  0.49331700  0.50972200  1
  F  F41  1  0.16544100  0.87580800  0.40626500  1
  F  F42  1  0.16754400  0.50668300  0.49027800  1
  F  F43  1  0.66598700  0.12763800  0.09331900  1
  F  F44  1  0.75000000  0.70644700  0.69834900  1
  F  F45  1  0.50000000  0.50000000  0.00000000  1
  F  F46  1  0.50008000  0.12749400  0.59101300  1
  F  F47  1  0.00000000  0.50000000  0.00000000  1
loop_
_geom_bond_atom_site_label_1
_geom_bond_atom_site_label_2
_geom_bond_distance
_geom_bond_site_symmetry_2
F0 Mg6 2.011622 1_555
F0 Sr1 2.488576 1_555
F0 Sr7 2.489626 1_555
F0 Sr5 2.612971 1_565
F1 Mg7 2.044587 1_555
F1 Mg6 2.045051 1_555
F1 Sr10 2.981335 1_555
F1 Sr7 3.020759 1_555
F2 Mg10 1.926670 1_555
F2 Mg4 1.929094 1_555
F3 Mg11 2.042013 1_554
F3 Mg4 2.042676 1_555
F3 Sr11 3.034209 1_555
F3 Sr1 3.034209 1_555
F4 Mg6 2.029533 1_555
F4 Sr10 2.492346 1_555
F4 Sr6 2.500471 1_555
F4 Sr5 2.557465 1_565
F5 Mg1 2.011622 1_555
F5 Sr0 2.488576 1_655
F5 Sr9 2.489626 1_655
F5 Sr3 2.612971 1_545
F6 Mg8 2.011622 1_555
F6 Sr11 2.488576 1_455
F6 Sr3 2.489626 1_455
F6 Sr9 2.612971 1_565
F7 Mg9 2.021040 1_555
F7 Sr4 2.489505 1_555
F7 Sr2 2.499038 1_554
F7 Sr11 2.586134 1_545
F8 Mg6 2.050785 1_555
F8 Mg7 2.050810 1_554
F8 Sr1 2.912005 1_555
F8 Sr6 3.001932 1_555
F9 Mg0 2.042013 1_556
F9 Mg5 2.042676 1_555
F9 Sr8 3.034209 1_555
F9 Sr0 3.034209 1_555
F10 Mg3 1.928539 1_554
F10 Mg0 1.931727 1_555
F11 Mg1 2.050785 1_555
F11 Mg9 2.050810 1_556
F11 Sr0 2.912005 1_655
F11 Sr2 3.001932 1_555
F12 Mg2 1.928539 1_556
F12 Mg11 1.931727 1_555
F13 Mg10 2.029533 1_555
F13 Sr4 2.492346 1_555
F13 Sr2 2.500471 1_555
F13 Sr7 2.557465 1_545
F14 Mg2 2.044587 1_555
F14 Mg10 2.045051 1_555
F14 Sr4 2.981335 1_555
F14 Sr5 3.020759 1_555
F15 Mg11 2.020268 1_555
F15 Sr11 2.489984 1_556
F15 Sr3 2.497268 1_555
F15 Sr2 2.597055 1_565
F16 Mg2 2.021988 1_555
F16 Sr8 2.489801 1_554
F16 Sr5 2.489868 1_555
F16 Sr1 2.563268 1_545
F17 Mg6 1.926670 1_555
F17 Mg5 1.929094 1_555
F18 Mg3 2.021040 1_555
F18 Sr10 2.489505 1_555
F18 Sr6 2.499038 1_556
F18 Sr0 2.586134 1_565
F19 Mg7 2.021040 1_555
F19 Sr10 2.489505 1_555
F19 Sr6 2.499038 1_556
F19 Sr8 2.586134 1_565
F20 Mg4 2.021011 1_555
F20 Sr11 2.488507 1_555
F20 Sr3 2.495848 1_555
F20 Sr4 2.577634 1_565
F21 Mg5 2.021011 1_555
F21 Sr0 2.488507 1_555
F21 Sr9 2.495848 1_555
F21 Sr10 2.577634 1_545
F22 Mg9 2.044587 1_555
F22 Mg1 2.045051 1_555
F22 Sr4 2.981335 1_555
F22 Sr9 3.020759 1_655
F23 Mg0 2.052851 1_555
F23 Mg5 2.054003 1_555
F23 Sr5 2.943552 1_555
F23 Sr9 2.943552 1_555
F24 Mg0 2.020268 1_555
F24 Sr0 2.489984 1_554
F24 Sr9 2.497268 1_555
F24 Sr6 2.597055 1_545
F25 Mg1 1.935153 1_455
F25 Mg8 1.935153 1_555
F26 Mg1 2.029533 1_555
F26 Sr4 2.492346 1_555
F26 Sr2 2.500471 1_555
F26 Sr3 2.557465 1_545
F27 Mg9 1.928539 1_556
F27 Mg11 1.931727 1_555
F28 Mg5 2.021011 1_555
F28 Sr8 2.488507 1_555
F28 Sr5 2.495848 1_555
F28 Sr10 2.577634 1_545
F29 Mg10 2.050785 1_555
F29 Mg2 2.050810 1_556
F29 Sr8 2.912005 1_555
F29 Sr2 3.001932 1_555
F30 Mg11 2.020268 1_555
F30 Sr1 2.489984 1_556
F30 Sr7 2.497268 1_555
F30 Sr2 2.597055 1_565
F31 Mg4 2.021011 1_555
F31 Sr1 2.488507 1_555
F31 Sr7 2.495848 1_555
F31 Sr4 2.577634 1_565
F32 Mg0 2.020268 1_555
F32 Sr8 2.489984 1_554
F32 Sr5 2.497268 1_555
F32 Sr6 2.597055 1_545
F33 Mg7 2.021988 1_555
F33 Sr1 2.489801 1_556
F33 Sr7 2.489868 1_555
F33 Sr8 2.563268 1_565
F34 Mg9 2.021988 1_555
F34 Sr0 2.489801 1_654
F34 Sr9 2.489868 1_655
F34 Sr11 2.563268 1_545
F35 Mg3 2.044587 1_555
F35 Mg8 2.045051 1_555
F35 Sr10 2.981335 1_555
F35 Sr3 3.020759 1_455
F36 Mg8 2.050785 1_555
F36 Mg3 2.050810 1_554
F36 Sr11 2.912005 1_455
F36 Sr6 3.001932 1_555
F37 Mg3 2.021988 1_555
F37 Sr11 2.489801 1_456
F37 Sr3 2.489868 1_455
F37 Sr0 2.563268 1_565
F38 Mg7 1.928539 1_554
F38 Mg0 1.931727 1_555
F39 Mg6 1.935153 1_555
F39 Mg10 1.935153 1_555
F40 Mg1 1.926670 1_555
F40 Mg4 1.929094 1_555
F41 Mg8 2.029533 1_555
F41 Sr10 2.492346 1_555
F41 Sr6 2.500471 1_555
F41 Sr9 2.557465 1_565
F42 Mg8 1.926670 1_555
F42 Mg5 1.929094 1_555
F43 Mg2 2.021040 1_555
F43 Sr4 2.489505 1_555
F43 Sr2 2.499038 1_554
F43 Sr1 2.586134 1_545
F44 Mg11 2.052851 1_555
F44 Mg4 2.054003 1_555
F44 Sr3 2.943552 1_555
F44 Sr7 2.943552 1_555
F45 Mg7 1.931905 1_554
F45 Mg2 1.931905 1_555
F46 Mg10 2.011622 1_555
F46 Sr8 2.488576 1_555
F46 Sr5 2.489626 1_555
F46 Sr7 2.612971 1_545
F47 Mg3 1.931905 1_554
F47 Mg9 1.931905 1_455
