# generated using pymatgen
data_SrSi
_symmetry_space_group_name_H-M   'P 1'
_cell_length_a   11.35666540
_cell_length_b   11.35666540
_cell_length_c   11.35666540
_cell_angle_alpha   155.50173288
_cell_angle_beta   110.37746267
_cell_angle_gamma   75.03807173
_symmetry_Int_Tables_number   1
_chemical_formula_structural   SrSi
_chemical_formula_sum   'Sr10 Si10'
_cell_volume   562.83212848
_cell_formula_units_Z   10
loop_
 _symmetry_equiv_pos_site_id
 _symmetry_equiv_pos_as_xyz
  1  'x, y, z'
loop_
 _atom_site_type_symbol
 _atom_site_label
 _atom_site_symmetry_multiplicity
 _atom_site_fract_x
 _atom_site_fract_y
 _atom_site_fract_z
 _atom_site_occupancy
  Sr  Sr0  1  0.64596100  0.81170200  0.83425800  1
  Sr  Sr1  1  0.02255600  0.18829800  0.83425800  1
  Sr  Sr2  1  0.35403900  0.18829800  0.16574200  1
  Sr  Sr3  1  0.70865000  0.00000000  0.70865000  1
  Sr  Sr4  1  0.97744400  0.81170200  0.16574200  1
  Sr  Sr5  1  0.00000000  0.00000000  0.00000000  1
  Sr  Sr6  1  0.33104700  0.83104700  0.50000000  1
  Sr  Sr7  1  0.29135000  0.00000000  0.29135000  1
  Sr  Sr8  1  0.50000000  0.50000000  0.00000000  1
  Sr  Sr9  1  0.66895300  0.16895300  0.50000000  1
  Si  Si0  1  0.55102600  0.37109900  0.17992600  1
  Si  Si1  1  0.22301500  0.56807300  0.65494100  1
  Si  Si2  1  0.91313200  0.56807300  0.34505900  1
  Si  Si3  1  0.14199100  0.64199100  0.50000000  1
  Si  Si4  1  0.80882700  0.62890100  0.17992600  1
  Si  Si5  1  0.08686800  0.43192700  0.65494100  1
  Si  Si6  1  0.19117300  0.37109900  0.82007400  1
  Si  Si7  1  0.44897400  0.62890100  0.82007400  1
  Si  Si8  1  0.85800900  0.35800900  0.50000000  1
  Si  Si9  1  0.77698500  0.43192700  0.34505900  1
loop_
_geom_bond_atom_site_label_1
_geom_bond_atom_site_label_2
_geom_bond_distance
_geom_bond_site_symmetry_2
Si0 Si9 2.405294 1_555
Si0 Sr8 3.291710 1_555
Si0 Sr2 3.298329 1_555
Si0 Sr0 3.309845 1_555
Si0 Sr0 3.309845 1_544
Si0 Sr3 3.366990 1_554
Si0 Sr3 3.366993 1_565
Si0 Sr6 3.430609 1_544
Si0 Sr6 3.430613 1_555
Si1 Si7 2.405294 1_555
Si1 Si3 2.410291 1_555
Si1 Si5 2.452693 1_555
Si1 Sr7 3.230769 1_555
Si1 Sr7 3.230773 1_566
Si1 Sr2 3.242838 1_555
Si1 Sr2 3.242845 1_566
Si1 Sr5 3.368338 1_555
Si1 Sr5 3.368341 1_566
Si2 Si4 2.405314 1_555
Si2 Si3 2.410291 1_655
Si2 Si9 2.452693 1_555
Si2 Sr3 3.230771 1_565
Si2 Sr3 3.230771 1_554
Si2 Sr1 3.242854 1_665
Si2 Sr1 3.242854 1_654
Si2 Sr5 3.368332 1_666
Si2 Sr5 3.368332 1_655
Si3 Sr2 3.334663 1_555
Si3 Sr2 3.334666 1_566
Si3 Sr1 3.334671 1_565
Si3 Sr1 3.334671 1_554
Si3 Sr6 3.405863 1_555
Si3 Sr5 3.514084 1_566
Si3 Sr5 3.514084 1_555
Si4 Sr8 3.291712 1_555
Si4 Sr4 3.298310 1_555
Si4 Sr1 3.309845 1_665
Si4 Sr1 3.309845 1_654
Si4 Sr3 3.366999 1_554
Si4 Sr3 3.366999 1_565
Si4 Sr9 3.430605 1_554
Si4 Sr9 3.430605 1_565
Si5 Si6 2.405314 1_555
Si5 Si8 2.410291 1_455
Si5 Sr7 3.230771 1_566
Si5 Sr7 3.230771 1_555
Si5 Sr4 3.242854 1_456
Si5 Sr4 3.242854 1_445
Si5 Sr5 3.368332 1_555
Si5 Sr5 3.368332 1_566
Si6 Sr8 3.291712 1_556
Si6 Sr1 3.298310 1_555
Si6 Sr4 3.309845 1_456
Si6 Sr4 3.309845 1_445
Si6 Sr7 3.366999 1_555
Si6 Sr7 3.366999 1_566
Si6 Sr6 3.430605 1_556
Si6 Sr6 3.430605 1_545
Si7 Sr8 3.291710 1_556
Si7 Sr0 3.298329 1_555
Si7 Sr2 3.309845 1_555
Si7 Sr2 3.309845 1_566
Si7 Sr7 3.366990 1_566
Si7 Sr7 3.366993 1_555
Si7 Sr9 3.430609 1_566
Si7 Sr9 3.430613 1_555
Si8 Si9 2.410291 1_555
Si8 Sr0 3.334663 1_555
Si8 Sr0 3.334666 1_544
Si8 Sr4 3.334671 1_556
Si8 Sr4 3.334671 1_545
Si8 Sr9 3.405863 1_555
Si8 Sr5 3.514084 1_666
Si8 Sr5 3.514084 1_655
Si9 Sr3 3.230769 1_565
Si9 Sr3 3.230773 1_554
Si9 Sr0 3.242838 1_555
Si9 Sr0 3.242845 1_544
Si9 Sr5 3.368338 1_666
Si9 Sr5 3.368341 1_655
