# generated using pymatgen
data_Fe9Cu9S16
_symmetry_space_group_name_H-M   'P 1'
_cell_length_a   10.56372400
_cell_length_b   10.56372400
_cell_length_c   5.21781800
_cell_angle_alpha   90.00000000
_cell_angle_beta   90.00000000
_cell_angle_gamma   90.00000000
_symmetry_Int_Tables_number   1
_chemical_formula_structural   Fe9Cu9S16
_chemical_formula_sum   'Fe9 Cu9 S16'
_cell_volume   582.26812766
_cell_formula_units_Z   1
loop_
 _symmetry_equiv_pos_site_id
 _symmetry_equiv_pos_as_xyz
  1  'x, y, z'
loop_
 _atom_site_type_symbol
 _atom_site_label
 _atom_site_symmetry_multiplicity
 _atom_site_fract_x
 _atom_site_fract_y
 _atom_site_fract_z
 _atom_site_occupancy
  Fe  Fe0  1  0.24802200  0.50000000  0.00000000  1
  Fe  Fe1  1  0.50000000  0.24802200  0.00000000  1
  Fe  Fe2  1  0.50000000  0.75197800  0.00000000  1
  Fe  Fe3  1  0.75197800  0.50000000  0.00000000  1
  Fe  Fe4  1  0.50000000  0.00000000  0.50000000  1
  Fe  Fe5  1  0.00000000  0.50000000  0.50000000  1
  Fe  Fe6  1  0.00000000  0.00000000  0.50000000  1
  Fe  Fe7  1  0.00000000  0.00000000  0.00000000  1
  Fe  Fe8  1  0.50000000  0.50000000  0.00000000  1
  Cu  Cu0  1  0.24801600  0.75198400  0.48798700  1
  Cu  Cu1  1  0.24801600  0.24801600  0.51201300  1
  Cu  Cu2  1  0.75198400  0.75198400  0.51201300  1
  Cu  Cu3  1  0.75198400  0.24801600  0.48798700  1
  Cu  Cu4  1  0.25222700  0.00000000  0.00000000  1
  Cu  Cu5  1  0.00000000  0.25222700  0.00000000  1
  Cu  Cu6  1  0.00000000  0.74777300  0.00000000  1
  Cu  Cu7  1  0.74777300  0.00000000  0.00000000  1
  Cu  Cu8  1  0.50000000  0.50000000  0.50000000  1
  S  S0  1  0.12495200  0.62453400  0.25139000  1
  S  S1  1  0.37546600  0.12495200  0.74861000  1
  S  S2  1  0.62453400  0.87504800  0.74861000  1
  S  S3  1  0.87504800  0.37546600  0.25139000  1
  S  S4  1  0.12495200  0.37546600  0.74861000  1
  S  S5  1  0.87504800  0.62453400  0.74861000  1
  S  S6  1  0.62453400  0.12495200  0.25139000  1
  S  S7  1  0.37546600  0.87504800  0.25139000  1
  S  S8  1  0.11714400  0.88285600  0.74124900  1
  S  S9  1  0.11714400  0.11714400  0.25875100  1
  S  S10  1  0.88285600  0.88285600  0.25875100  1
  S  S11  1  0.88285600  0.11714400  0.74124900  1
  S  S12  1  0.37451900  0.62548100  0.76147900  1
  S  S13  1  0.37451900  0.37451900  0.23852100  1
  S  S14  1  0.62548100  0.62548100  0.23852100  1
  S  S15  1  0.62548100  0.37451900  0.76147900  1
loop_
_geom_bond_atom_site_label_1
_geom_bond_atom_site_label_2
_geom_bond_distance
_geom_bond_site_symmetry_2
Fe0 S12 2.256467 1_554
Fe0 S13 2.256467 1_555
Fe0 S4 2.267472 1_554
Fe0 S0 2.267472 1_555
Fe1 S15 2.256467 1_554
Fe1 S13 2.256467 1_555
Fe1 S1 2.267472 1_554
Fe1 S6 2.267472 1_555
Fe2 S14 2.256467 1_555
Fe2 S12 2.256467 1_554
Fe2 S7 2.267472 1_555
Fe2 S2 2.267472 1_554
Fe3 S14 2.256467 1_555
Fe3 S15 2.256467 1_554
Fe3 S3 2.267472 1_555
Fe3 S5 2.267472 1_554
Fe4 S7 2.270611 1_545
Fe4 S1 2.270611 1_555
Fe4 S2 2.270611 1_545
Fe4 S6 2.270611 1_555
Fe5 S3 2.270611 1_455
Fe5 S5 2.270611 1_455
Fe5 S4 2.270611 1_555
Fe5 S0 2.270611 1_555
Fe6 S11 2.155750 1_455
Fe6 S8 2.155750 1_545
Fe6 S9 2.155750 1_555
Fe6 S10 2.155750 1_445
Fe7 S9 2.210319 1_555
Fe7 S8 2.210319 1_544
Fe7 S11 2.210319 1_454
Fe7 S10 2.210319 1_445
Fe8 S14 2.250128 1_555
Fe8 S12 2.250128 1_554
Fe8 S15 2.250128 1_554
Fe8 S13 2.250128 1_555
Cu0 S0 2.242036 1_555
Cu0 S7 2.242036 1_555
Cu0 S8 2.359848 1_555
Cu0 S12 2.368131 1_555
Cu1 S1 2.242036 1_555
Cu1 S4 2.242036 1_555
Cu1 S9 2.359848 1_555
Cu1 S13 2.368131 1_555
Cu2 S2 2.242036 1_555
Cu2 S5 2.242036 1_555
Cu2 S10 2.359848 1_555
Cu2 S14 2.368131 1_555
Cu3 S6 2.242036 1_555
Cu3 S3 2.242036 1_555
Cu3 S11 2.359848 1_555
Cu3 S15 2.368131 1_555
Cu4 S7 2.271060 1_545
Cu4 S1 2.271060 1_554
Cu4 S9 2.321730 1_555
Cu4 S8 2.321730 1_544
Cu5 S3 2.271060 1_455
Cu5 S4 2.271060 1_554
Cu5 S11 2.321730 1_454
Cu5 S9 2.321730 1_555
Cu6 S5 2.271060 1_454
Cu6 S0 2.271060 1_555
Cu6 S8 2.321730 1_554
Cu6 S10 2.321730 1_455
Cu7 S2 2.271060 1_544
Cu7 S6 2.271060 1_555
Cu7 S11 2.321730 1_554
Cu7 S10 2.321730 1_545
Cu8 S14 2.318534 1_555
Cu8 S15 2.318534 1_555
Cu8 S12 2.318534 1_555
Cu8 S13 2.318534 1_555
