# generated using pymatgen
data_Na2CaPO4F
_symmetry_space_group_name_H-M   'P 1'
_cell_length_a   7.16915100
_cell_length_b   10.77983200
_cell_length_c   13.45175840
_cell_angle_alpha   66.42652621
_cell_angle_beta   90.00000000
_cell_angle_gamma   90.00000000
_symmetry_Int_Tables_number   1
_chemical_formula_structural   Na2CaPO4F
_chemical_formula_sum   'Na16 Ca8 P8 O32 F8'
_cell_volume   952.82684379
_cell_formula_units_Z   8
loop_
 _symmetry_equiv_pos_site_id
 _symmetry_equiv_pos_as_xyz
  1  'x, y, z'
loop_
 _atom_site_type_symbol
 _atom_site_label
 _atom_site_symmetry_multiplicity
 _atom_site_fract_x
 _atom_site_fract_y
 _atom_site_fract_z
 _atom_site_occupancy
  Na  Na0  1  0.74611200  0.91309900  0.91003500  1
  Na  Na1  1  0.72725600  0.82352800  0.58760400  1
  Na  Na2  1  0.01884700  0.43218200  0.33054800  1
  Na  Na3  1  0.77274400  0.32352800  0.58760400  1
  Na  Na4  1  0.51884700  0.06781800  0.66945200  1
  Na  Na5  1  0.75388800  0.41309900  0.91003500  1
  Na  Na6  1  0.24611200  0.58690100  0.08996500  1
  Na  Na7  1  0.47658400  0.79027400  0.16403100  1
  Na  Na8  1  0.52341600  0.20972600  0.83596900  1
  Na  Na9  1  0.27274400  0.17647200  0.41239600  1
  Na  Na10  1  0.48115300  0.93218200  0.33054800  1
  Na  Na11  1  0.98115300  0.56781800  0.66945200  1
  Na  Na12  1  0.22725600  0.67647200  0.41239600  1
  Na  Na13  1  0.02341600  0.29027400  0.16403100  1
  Na  Na14  1  0.97658400  0.70972600  0.83596900  1
  Na  Na15  1  0.25388800  0.08690100  0.08996500  1
  Ca  Ca0  1  0.98771800  0.02889000  0.66902700  1
  Ca  Ca1  1  0.50604400  0.72288800  0.82725000  1
  Ca  Ca2  1  0.99395600  0.22288800  0.82725000  1
  Ca  Ca3  1  0.51228200  0.52889000  0.66902700  1
  Ca  Ca4  1  0.00604400  0.77711200  0.17275000  1
  Ca  Ca5  1  0.49395600  0.27711200  0.17275000  1
  Ca  Ca6  1  0.01228200  0.97111000  0.33097300  1
  Ca  Ca7  1  0.48771800  0.47111000  0.33097300  1
  P  P0  1  0.74058700  0.64529900  0.41331100  1
  P  P1  1  0.24058700  0.85470100  0.58668900  1
  P  P2  1  0.25618900  0.43932200  0.91579400  1
  P  P3  1  0.24381100  0.93932200  0.91579400  1
  P  P4  1  0.75941300  0.14529900  0.41331100  1
  P  P5  1  0.75618900  0.06067800  0.08420600  1
  P  P6  1  0.74381100  0.56067800  0.08420600  1
  P  P7  1  0.25941300  0.35470100  0.58668900  1
  O  O0  1  0.73181500  0.63624100  0.53142200  1
  O  O1  1  0.55010200  0.69445100  0.35459000  1
  O  O2  1  0.44989800  0.30554900  0.64541000  1
  O  O3  1  0.07761300  0.41639700  0.85958100  1
  O  O4  1  0.05010200  0.80554900  0.64541000  1
  O  O5  1  0.23181500  0.86375900  0.46857800  1
  O  O6  1  0.57761300  0.08360300  0.14041900  1
  O  O7  1  0.93252200  0.07230400  0.14789400  1
  O  O8  1  0.94989800  0.19445100  0.35459000  1
  O  O9  1  0.40012200  0.75509100  0.64960000  1
  O  O10  1  0.06747800  0.92769600  0.85210600  1
  O  O11  1  0.76818500  0.13624100  0.53142200  1
  O  O12  1  0.22474900  0.49846500  0.58617300  1
  O  O13  1  0.56747800  0.57230400  0.14789400  1
  O  O14  1  0.76760000  0.16668400  0.96487800  1
  O  O15  1  0.77525100  0.50153500  0.41382700  1
  O  O16  1  0.59987800  0.24490900  0.35040000  1
  O  O17  1  0.42238700  0.91639700  0.85958100  1
  O  O18  1  0.72474900  0.00153500  0.41382700  1
  O  O19  1  0.92238700  0.58360300  0.14041900  1
  O  O20  1  0.90012200  0.74490900  0.35040000  1
  O  O21  1  0.23240000  0.83331600  0.03512200  1
  O  O22  1  0.09987800  0.25509100  0.64960000  1
  O  O23  1  0.24884100  0.08508000  0.91523700  1
  O  O24  1  0.43252200  0.42769600  0.85210600  1
  O  O25  1  0.26818500  0.36375900  0.46857800  1
  O  O26  1  0.26760000  0.33331600  0.03512200  1
  O  O27  1  0.27525100  0.99846500  0.58617300  1
  O  O28  1  0.73240000  0.66668400  0.96487800  1
  O  O29  1  0.74884100  0.41492000  0.08476300  1
  O  O30  1  0.25115900  0.58508000  0.91523700  1
  O  O31  1  0.75115900  0.91492000  0.08476300  1
  F  F0  1  0.76967800  0.38424000  0.73644800  1
  F  F1  1  0.27380700  0.37847100  0.24138200  1
  F  F2  1  0.72619300  0.62152900  0.75861800  1
  F  F3  1  0.23032200  0.61576000  0.26355200  1
  F  F4  1  0.73032200  0.88424000  0.73644800  1
  F  F5  1  0.77380700  0.12152900  0.75861800  1
  F  F6  1  0.26967800  0.11576000  0.26355200  1
  F  F7  1  0.22619300  0.87847100  0.24138200  1
loop_
_geom_bond_atom_site_label_1
_geom_bond_atom_site_label_2
_geom_bond_distance
_geom_bond_site_symmetry_2
Na0 O31 2.358596 1_556
Na0 O17 2.414303 1_555
Na0 O10 2.417016 1_655
Na0 O28 2.458146 1_555
Na1 O18 2.357762 1_565
Na1 O0 2.422535 1_555
Na1 O4 2.424609 1_655
Na1 O9 2.499589 1_555
Na2 O15 2.352360 1_455
Na2 O25 2.468085 1_555
Na2 O8 2.500690 1_455
Na2 O19 2.518855 1_455
Na3 O15 2.357762 1_555
Na3 O11 2.422535 1_555
Na3 O2 2.424609 1_555
Na3 O22 2.499589 1_655
Na4 O27 2.352360 1_545
Na4 O11 2.468085 1_555
Na4 O2 2.500690 1_555
Na4 O17 2.518855 1_545
Na5 O29 2.358596 1_556
Na5 O3 2.414303 1_655
Na5 O24 2.417016 1_555
Na5 O14 2.458146 1_555
Na6 O30 2.358596 1_554
Na6 O19 2.414303 1_455
Na6 O13 2.417016 1_555
Na6 O21 2.458146 1_555
Na7 O21 2.375554 1_555
Na7 O31 2.381451 1_555
Na7 O1 2.407843 1_555
Na7 O13 2.529961 1_555
Na8 O14 2.375554 1_555
Na8 O23 2.381451 1_555
Na8 O2 2.407843 1_555
Na8 O24 2.529961 1_555
Na9 O27 2.357762 1_545
Na9 O25 2.422535 1_555
Na9 O8 2.424609 1_455
Na9 O16 2.499589 1_555
Na10 O18 2.352360 1_565
Na10 O5 2.468085 1_555
Na10 O1 2.500690 1_555
Na10 O6 2.518855 1_565
Na11 O12 2.352360 1_655
Na11 O0 2.468085 1_555
Na11 O4 2.500690 1_655
Na11 O3 2.518855 1_655
Na12 O12 2.357762 1_555
Na12 O5 2.422535 1_555
Na12 O1 2.424609 1_555
Na12 O20 2.499589 1_455
Na13 O26 2.375554 1_555
Na13 O29 2.381451 1_455
Na13 O8 2.407843 1_455
Na13 O7 2.529961 1_455
Na14 O28 2.375554 1_555
Na14 O30 2.381451 1_655
Na14 O4 2.407843 1_655
Na14 O10 2.529961 1_655
Na15 O23 2.358596 1_554
Na15 O6 2.414303 1_555
Na15 O7 2.417016 1_455
Na15 O26 2.458146 1_555
Ca0 O10 2.330925 1_645
Ca0 F4 2.351168 1_545
Ca0 O11 2.351427 1_555
Ca0 F5 2.400855 1_555
Ca0 O27 2.427213 1_645
Ca0 O22 2.480123 1_655
Ca0 O4 2.590205 1_645
Ca1 F2 2.311709 1_555
Ca1 F4 2.324490 1_555
Ca1 O28 2.351761 1_555
Ca1 O30 2.353810 1_555
Ca1 O17 2.371889 1_555
Ca1 O9 2.396729 1_555
Ca2 F5 2.311709 1_555
Ca2 F0 2.324490 1_555
Ca2 O14 2.351761 1_555
Ca2 O23 2.353810 1_655
Ca2 O3 2.371889 1_655
Ca2 O22 2.396729 1_655
Ca3 O24 2.330925 1_555
Ca3 F0 2.351168 1_555
Ca3 O0 2.351427 1_555
Ca3 F2 2.400855 1_555
Ca3 O12 2.427213 1_555
Ca3 O9 2.480123 1_555
Ca3 O2 2.590205 1_555
Ca4 F7 2.311709 1_555
Ca4 F3 2.324490 1_555
Ca4 O21 2.351761 1_555
Ca4 O31 2.353810 1_455
Ca4 O19 2.371889 1_455
Ca4 O20 2.396729 1_455
Ca5 F1 2.311709 1_555
Ca5 F6 2.324490 1_555
Ca5 O26 2.351761 1_555
Ca5 O29 2.353810 1_555
Ca5 O6 2.371889 1_555
Ca5 O16 2.396729 1_555
Ca6 O7 2.330925 1_465
Ca6 F6 2.351168 1_565
Ca6 O5 2.351427 1_555
Ca6 F7 2.400855 1_555
Ca6 O18 2.427213 1_465
Ca6 O20 2.480123 1_455
Ca6 O8 2.590205 1_465
Ca7 O13 2.330925 1_555
Ca7 F3 2.351168 1_555
Ca7 O25 2.351427 1_555
Ca7 F1 2.400855 1_555
Ca7 O15 2.427213 1_555
Ca7 O16 2.480123 1_555
Ca7 O1 2.590205 1_555
O0 P0 1.553606 1_555
O1 P0 1.560394 1_555
O2 P7 1.560394 1_555
O3 P2 1.556063 1_555
O4 P1 1.560394 1_555
O5 P1 1.553606 1_555
O6 P5 1.556063 1_555
O7 P5 1.560014 1_555
O8 P4 1.560394 1_555
O9 P1 1.565394 1_555
O10 P3 1.560014 1_555
O11 P4 1.553606 1_555
O12 P7 1.566822 1_555
O13 P6 1.560014 1_555
O14 P5 1.556262 1_556
O15 P0 1.566822 1_555
O16 P4 1.565394 1_555
O17 P3 1.556063 1_555
O18 P4 1.566822 1_555
O19 P6 1.556063 1_555
O20 P0 1.565394 1_555
O21 P3 1.556262 1_554
O22 P7 1.565394 1_555
O23 P3 1.568680 1_545
O24 P2 1.560014 1_555
O25 P7 1.553606 1_555
O26 P2 1.556262 1_554
O27 P1 1.566822 1_555
O28 P6 1.556262 1_556
O29 P6 1.568680 1_555
O30 P2 1.568680 1_555
O31 P5 1.568680 1_565
F0 Na3 2.342173 1_555
F0 Na11 2.366526 1_555
F0 Na5 2.478525 1_555
F0 Na8 2.536493 1_555
F1 Na6 2.361339 1_555
F1 Na2 2.381257 1_555
F1 Na13 2.449528 1_555
F1 Na9 2.454997 1_555
F2 Na5 2.361339 1_555
F2 Na11 2.381257 1_555
F2 Na14 2.449528 1_555
F2 Na1 2.454997 1_555
F3 Na12 2.342173 1_555
F3 Na2 2.366526 1_555
F3 Na6 2.478525 1_555
F3 Na7 2.536493 1_555
F4 Na1 2.342173 1_555
F4 Na4 2.366526 1_565
F4 Na0 2.478525 1_555
F4 Na14 2.536493 1_555
F5 Na0 2.361339 1_545
F5 Na4 2.381257 1_555
F5 Na8 2.449528 1_555
F5 Na3 2.454997 1_555
F6 Na9 2.342173 1_555
F6 Na10 2.366526 1_545
F6 Na15 2.478525 1_555
F6 Na13 2.536493 1_555
F7 Na15 2.361339 1_565
F7 Na10 2.381257 1_555
F7 Na7 2.449528 1_555
F7 Na12 2.454997 1_555
