# generated using pymatgen
data_KTmI3
_symmetry_space_group_name_H-M   'P 1'
_cell_length_a   8.11373546
_cell_length_b   8.11373546
_cell_length_c   11.53898700
_cell_angle_alpha   90.00000000
_cell_angle_beta   90.00000000
_cell_angle_gamma   149.37957555
_symmetry_Int_Tables_number   1
_chemical_formula_structural   KTmI3
_chemical_formula_sum   'K2 Tm2 I6'
_cell_volume   386.92265638
_cell_formula_units_Z   2
loop_
 _symmetry_equiv_pos_site_id
 _symmetry_equiv_pos_as_xyz
  1  'x, y, z'
loop_
 _atom_site_type_symbol
 _atom_site_label
 _atom_site_symmetry_multiplicity
 _atom_site_fract_x
 _atom_site_fract_y
 _atom_site_fract_z
 _atom_site_occupancy
  K  K0  1  0.75106100  0.24893900  0.75000000  1
  K  K1  1  0.24893900  0.75106100  0.25000000  1
  Tm  Tm0  1  0.00000000  0.00000000  0.00000000  1
  Tm  Tm1  1  0.00000000  0.00000000  0.50000000  1
  I  I0  1  0.63374500  0.36625500  0.44604400  1
  I  I1  1  0.63374500  0.36625500  0.05395600  1
  I  I2  1  0.36625500  0.63374500  0.55395600  1
  I  I3  1  0.36625500  0.63374500  0.94604400  1
  I  I4  1  0.06648800  0.93351200  0.75000000  1
  I  I5  1  0.93351200  0.06648800  0.25000000  1
loop_
_geom_bond_atom_site_label_1
_geom_bond_atom_site_label_2
_geom_bond_distance
_geom_bond_site_symmetry_2
I0 Tm1 3.059322 1_665
I0 Tm1 3.059322 1_555
I0 K1 3.599701 1_655
I0 K1 3.599701 1_545
I0 K0 3.958916 1_555
I1 Tm0 3.059322 1_665
I1 Tm0 3.059322 1_555
I1 K1 3.599701 1_655
I1 K1 3.599701 1_545
I1 K0 3.958916 1_554
I2 Tm1 3.059322 1_665
I2 Tm1 3.059322 1_555
I2 K0 3.599701 1_455
I2 K0 3.599701 1_565
I2 K1 3.958916 1_555
I3 Tm0 3.059322 1_666
I3 Tm0 3.059322 1_556
I3 K0 3.599701 1_455
I3 K0 3.599701 1_565
I3 K1 3.958916 1_556
I4 Tm0 3.066708 1_566
I4 Tm1 3.066708 1_565
I4 K0 3.596572 1_565
I4 K0 3.596572 1_455
I5 Tm1 3.066708 1_655
I5 Tm0 3.066708 1_655
I5 K1 3.596572 1_545
I5 K1 3.596572 1_655
