# generated using pymatgen
data_TlPO3
_symmetry_space_group_name_H-M   'P 1'
_cell_length_a   11.09322000
_cell_length_b   11.26069400
_cell_length_c   16.27215100
_cell_angle_alpha   90.00000000
_cell_angle_beta   90.00000000
_cell_angle_gamma   90.00000000
_symmetry_Int_Tables_number   1
_chemical_formula_structural   TlPO3
_chemical_formula_sum   'Tl24 P24 O72'
_cell_volume   2032.67407764
_cell_formula_units_Z   24
loop_
 _symmetry_equiv_pos_site_id
 _symmetry_equiv_pos_as_xyz
  1  'x, y, z'
loop_
 _atom_site_type_symbol
 _atom_site_label
 _atom_site_symmetry_multiplicity
 _atom_site_fract_x
 _atom_site_fract_y
 _atom_site_fract_z
 _atom_site_occupancy
  Tl  Tl0  1  0.00083600  0.92515200  0.23640500  1
  Tl  Tl1  1  0.44936500  0.65389000  0.41701100  1
  Tl  Tl2  1  0.99916400  0.42515200  0.23640500  1
  Tl  Tl3  1  0.41507500  0.17874500  0.11050200  1
  Tl  Tl4  1  0.00083600  0.57484800  0.76359500  1
  Tl  Tl5  1  0.05063500  0.34611000  0.91701100  1
  Tl  Tl6  1  0.91507500  0.17874500  0.38949800  1
  Tl  Tl7  1  0.50083600  0.92515200  0.26359500  1
  Tl  Tl8  1  0.50083600  0.57484800  0.73640500  1
  Tl  Tl9  1  0.44936500  0.84611000  0.58298900  1
  Tl  Tl10  1  0.58492500  0.82125500  0.88949800  1
  Tl  Tl11  1  0.49916400  0.07484800  0.73640500  1
  Tl  Tl12  1  0.58492500  0.67874500  0.11050200  1
  Tl  Tl13  1  0.08492500  0.67874500  0.38949800  1
  Tl  Tl14  1  0.94936500  0.84611000  0.91701100  1
  Tl  Tl15  1  0.08492500  0.82125500  0.61050200  1
  Tl  Tl16  1  0.55063500  0.34611000  0.58298900  1
  Tl  Tl17  1  0.94936500  0.65389000  0.08298900  1
  Tl  Tl18  1  0.55063500  0.15389000  0.41701100  1
  Tl  Tl19  1  0.91507500  0.32125500  0.61050200  1
  Tl  Tl20  1  0.41507500  0.32125500  0.88949800  1
  Tl  Tl21  1  0.99916400  0.07484800  0.76359500  1
  Tl  Tl22  1  0.49916400  0.42515200  0.26359500  1
  Tl  Tl23  1  0.05063500  0.15389000  0.08298900  1
  P  P0  1  0.76832500  0.40623300  0.08113900  1
  P  P1  1  0.23167500  0.59376700  0.91886100  1
  P  P2  1  0.20736900  0.51692300  0.57762000  1
  P  P3  1  0.73167500  0.59376700  0.58113900  1
  P  P4  1  0.22921700  0.30389600  0.68610000  1
  P  P5  1  0.29263100  0.01692300  0.92238000  1
  P  P6  1  0.77078300  0.80389600  0.68610000  1
  P  P7  1  0.23167500  0.90623300  0.08113900  1
  P  P8  1  0.70736900  0.98307700  0.07762000  1
  P  P9  1  0.72921700  0.19610400  0.18610000  1
  P  P10  1  0.27078300  0.80389600  0.81390000  1
  P  P11  1  0.72921700  0.30389600  0.81390000  1
  P  P12  1  0.73167500  0.90623300  0.41886100  1
  P  P13  1  0.77078300  0.69610400  0.31390000  1
  P  P14  1  0.76832500  0.09376700  0.91886100  1
  P  P15  1  0.26832500  0.40623300  0.41886100  1
  P  P16  1  0.26832500  0.09376700  0.58113900  1
  P  P17  1  0.79263100  0.48307700  0.42238000  1
  P  P18  1  0.29263100  0.48307700  0.07762000  1
  P  P19  1  0.22921700  0.19610400  0.31390000  1
  P  P20  1  0.27078300  0.69610400  0.18610000  1
  P  P21  1  0.70736900  0.51692300  0.92238000  1
  P  P22  1  0.79263100  0.01692300  0.57762000  1
  P  P23  1  0.20736900  0.98307700  0.42238000  1
  O  O0  1  0.89193400  0.67839700  0.27409100  1
  O  O1  1  0.10191000  0.61230000  0.94338300  1
  O  O2  1  0.83493900  0.26019600  0.76476000  1
  O  O3  1  0.70415100  0.11331400  0.55725700  1
  O  O4  1  0.60806600  0.17839700  0.22590900  1
  O  O5  1  0.29584900  0.88668600  0.44274300  1
  O  O6  1  0.25631400  0.50126900  0.85379700  1
  O  O7  1  0.25631400  0.99873100  0.14620300  1
  O  O8  1  0.74368600  0.00126900  0.85379700  1
  O  O9  1  0.81687100  0.93221700  0.49815200  1
  O  O10  1  0.58488500  0.95160400  0.11072300  1
  O  O11  1  0.24368600  0.49873100  0.35379700  1
  O  O12  1  0.39809000  0.11230000  0.55661700  1
  O  O13  1  0.89193400  0.82160300  0.72590900  1
  O  O14  1  0.39809000  0.38770000  0.44338300  1
  O  O15  1  0.16506100  0.73980400  0.23524000  1
  O  O16  1  0.79584900  0.88668600  0.05725700  1
  O  O17  1  0.39193400  0.67839700  0.22590900  1
  O  O18  1  0.60806600  0.32160300  0.77409100  1
  O  O19  1  0.60191000  0.88770000  0.44338300  1
  O  O20  1  0.20415100  0.11331400  0.94274300  1
  O  O21  1  0.33493900  0.26019600  0.73524000  1
  O  O22  1  0.70547600  0.28167600  0.10677700  1
  O  O23  1  0.10191000  0.88770000  0.05661700  1
  O  O24  1  0.77536200  0.42489700  0.85952500  1
  O  O25  1  0.81687100  0.56778300  0.50184800  1
  O  O26  1  0.60191000  0.61230000  0.55661700  1
  O  O27  1  0.79584900  0.61331400  0.94274300  1
  O  O28  1  0.41511500  0.04839600  0.88927700  1
  O  O29  1  0.75631400  0.50126900  0.64620300  1
  O  O30  1  0.75631400  0.99873100  0.35379700  1
  O  O31  1  0.22463800  0.57510300  0.14047500  1
  O  O32  1  0.24368600  0.00126900  0.64620300  1
  O  O33  1  0.72463800  0.92489700  0.64047500  1
  O  O34  1  0.27536200  0.42489700  0.64047500  1
  O  O35  1  0.20547600  0.28167600  0.39322300  1
  O  O36  1  0.66506100  0.73980400  0.26476000  1
  O  O37  1  0.58488500  0.54839600  0.88927700  1
  O  O38  1  0.29584900  0.61331400  0.55725700  1
  O  O39  1  0.74368600  0.49873100  0.14620300  1
  O  O40  1  0.77536200  0.07510300  0.14047500  1
  O  O41  1  0.16506100  0.76019600  0.76476000  1
  O  O42  1  0.68312900  0.06778300  0.99815200  1
  O  O43  1  0.08488500  0.54839600  0.61072300  1
  O  O44  1  0.29452400  0.78167600  0.10677700  1
  O  O45  1  0.89809000  0.38770000  0.05661700  1
  O  O46  1  0.41511500  0.45160400  0.11072300  1
  O  O47  1  0.79452400  0.78167600  0.39322300  1
  O  O48  1  0.22463800  0.92489700  0.85952500  1
  O  O49  1  0.29452400  0.71832400  0.89322300  1
  O  O50  1  0.91511500  0.04839600  0.61072300  1
  O  O51  1  0.72463800  0.57510300  0.35952500  1
  O  O52  1  0.10806600  0.17839700  0.27409100  1
  O  O53  1  0.91511500  0.45160400  0.38927700  1
  O  O54  1  0.83493900  0.23980400  0.23524000  1
  O  O55  1  0.10806600  0.32160300  0.72590900  1
  O  O56  1  0.70415100  0.38668600  0.44274300  1
  O  O57  1  0.68312900  0.43221700  0.00184800  1
  O  O58  1  0.31687100  0.56778300  0.99815200  1
  O  O59  1  0.70547600  0.21832400  0.89322300  1
  O  O60  1  0.18312900  0.43221700  0.49815200  1
  O  O61  1  0.20547600  0.21832400  0.60677700  1
  O  O62  1  0.66506100  0.76019600  0.73524000  1
  O  O63  1  0.89809000  0.11230000  0.94338300  1
  O  O64  1  0.08488500  0.95160400  0.38927700  1
  O  O65  1  0.33493900  0.23980400  0.26476000  1
  O  O66  1  0.27536200  0.07510300  0.35952500  1
  O  O67  1  0.39193400  0.82160300  0.77409100  1
  O  O68  1  0.20415100  0.38668600  0.05725700  1
  O  O69  1  0.31687100  0.93221700  0.00184800  1
  O  O70  1  0.79452400  0.71832400  0.60677700  1
  O  O71  1  0.18312900  0.06778300  0.50184800  1
loop_
_geom_bond_atom_site_label_1
_geom_bond_atom_site_label_2
_geom_bond_distance
_geom_bond_site_symmetry_2
O0 P13 1.505187 1_555
O0 Tl13 2.847809 1_655
O1 P1 1.508300 1_555
O2 P11 1.502328 1_555
O2 Tl19 2.750211 1_555
O2 Tl21 2.770458 1_555
O3 P22 1.500449 1_555
O4 P9 1.505187 1_555
O4 Tl3 2.847809 1_555
O5 P23 1.500449 1_555
O6 P1 1.510143 1_555
O6 Tl20 2.747411 1_555
O7 P7 1.510143 1_555
O7 Tl3 2.747411 1_565
O8 P14 1.510143 1_555
O8 Tl10 2.747411 1_545
O9 P12 1.625894 1_555
O9 P22 1.629196 1_565
O10 P8 1.503973 1_555
O10 Tl7 2.673197 1_555
O11 P15 1.510143 1_555
O11 Tl13 2.747411 1_555
O12 P16 1.508300 1_555
O13 P6 1.505187 1_555
O13 Tl15 2.847809 1_655
O14 P15 1.508300 1_555
O15 P20 1.502328 1_555
O15 Tl13 2.750211 1_555
O15 Tl0 2.770458 1_555
O16 P8 1.500449 1_555
O17 P20 1.505187 1_555
O17 Tl12 2.847809 1_555
O18 P11 1.505187 1_555
O18 Tl20 2.847809 1_555
O19 P12 1.508300 1_555
O20 P5 1.500449 1_555
O21 P4 1.502328 1_555
O21 Tl20 2.750211 1_555
O21 Tl11 2.770458 1_555
O22 P0 1.620929 1_555
O22 P9 1.632157 1_555
O23 P7 1.508300 1_555
O24 P11 1.633945 1_555
O24 P21 1.639778 1_555
O25 P3 1.625894 1_555
O25 P17 1.629196 1_555
O26 P3 1.508300 1_555
O27 P21 1.500449 1_555
O28 P5 1.503973 1_555
O28 Tl11 2.673197 1_555
O29 P3 1.510143 1_555
O29 Tl19 2.747411 1_555
O30 P12 1.510143 1_555
O30 Tl6 2.747411 1_565
O31 P20 1.633945 1_555
O31 P18 1.639778 1_555
O32 P16 1.510143 1_555
O32 Tl15 2.747411 1_545
O33 P6 1.633945 1_555
O33 P22 1.639778 1_565
O34 P4 1.633945 1_555
O34 P2 1.639778 1_555
O35 P15 1.620929 1_555
O35 P19 1.632157 1_555
O36 P13 1.502328 1_555
O36 Tl12 2.750211 1_555
O36 Tl7 2.770458 1_555
O37 P21 1.503973 1_555
O37 Tl8 2.673197 1_555
O38 P2 1.500449 1_555
O39 P0 1.510143 1_555
O39 Tl12 2.747411 1_555
O40 P9 1.633945 1_555
O40 P8 1.639778 1_545
O41 P10 1.502328 1_555
O41 Tl15 2.750211 1_555
O41 Tl4 2.770458 1_555
O42 P14 1.625894 1_555
O42 P8 1.629196 1_546
O43 P2 1.503973 1_555
O43 Tl4 2.673197 1_555
O44 P7 1.620929 1_555
O44 P20 1.632157 1_555
O45 P0 1.508300 1_555
O46 P18 1.503973 1_555
O46 Tl22 2.673197 1_555
O47 P12 1.620929 1_555
O47 P13 1.632157 1_555
O48 P10 1.633945 1_555
O48 P5 1.639778 1_565
O49 P1 1.620929 1_555
O49 P10 1.632157 1_555
O50 P22 1.503973 1_555
O50 Tl21 2.673197 1_555
O51 P13 1.633945 1_555
O51 P17 1.639778 1_555
O52 P19 1.505187 1_555
O52 Tl6 2.847809 1_455
O53 P17 1.503973 1_555
O53 Tl2 2.673197 1_555
O54 P9 1.502328 1_555
O54 Tl6 2.750211 1_555
O54 Tl2 2.770458 1_555
O55 P4 1.505187 1_555
O55 Tl19 2.847809 1_455
O56 P17 1.500449 1_555
O57 P0 1.625894 1_555
O57 P21 1.629196 1_554
O58 P1 1.625894 1_555
O58 P18 1.629196 1_556
O59 P14 1.620929 1_555
O59 P11 1.632157 1_555
O60 P15 1.625894 1_555
O60 P2 1.629196 1_555
O61 P16 1.620929 1_555
O61 P4 1.632157 1_555
O62 P6 1.502328 1_555
O62 Tl10 2.750211 1_555
O62 Tl8 2.770458 1_555
O63 P14 1.508300 1_555
O64 P23 1.503973 1_555
O64 Tl0 2.673197 1_555
O65 P19 1.502328 1_555
O65 Tl3 2.750211 1_555
O65 Tl22 2.770458 1_555
O66 P19 1.633945 1_555
O66 P23 1.639778 1_545
O67 P10 1.505187 1_555
O67 Tl10 2.847809 1_555
O68 P18 1.500449 1_555
O69 P7 1.625894 1_555
O69 P5 1.629196 1_564
O70 P3 1.620929 1_555
O70 P6 1.632157 1_555
O71 P16 1.625894 1_555
O71 P23 1.629196 1_545
