# generated using pymatgen
data_Lu2FeB6
_symmetry_space_group_name_H-M   'P 1'
_cell_length_a   3.45959190
_cell_length_b   8.93799332
_cell_length_c   11.27964998
_cell_angle_alpha   90.00000000
_cell_angle_beta   90.00000000
_cell_angle_gamma   90.00000000
_symmetry_Int_Tables_number   1
_chemical_formula_structural   Lu2FeB6
_chemical_formula_sum   'Lu8 Fe4 B24'
_cell_volume   348.78718556
_cell_formula_units_Z   4
loop_
 _symmetry_equiv_pos_site_id
 _symmetry_equiv_pos_as_xyz
  1  'x, y, z'
loop_
 _atom_site_type_symbol
 _atom_site_label
 _atom_site_symmetry_multiplicity
 _atom_site_fract_x
 _atom_site_fract_y
 _atom_site_fract_z
 _atom_site_occupancy
  Lu  Lu0  1  0.00000000  0.82262320  0.08504936  1
  Lu  Lu1  1  0.00000000  0.17737680  0.91495064  1
  Lu  Lu2  1  -0.00000000  0.32262320  0.41495064  1
  Lu  Lu3  1  -0.00000000  0.67737680  0.58504936  1
  Lu  Lu4  1  0.00000000  0.44317574  0.12896692  1
  Lu  Lu5  1  0.00000000  0.55682426  0.87103308  1
  Lu  Lu6  1  -0.00000000  0.94317574  0.37103308  1
  Lu  Lu7  1  0.00000000  0.05682426  0.62896692  1
  Fe  Fe0  1  -0.00000000  0.13850958  0.17961711  1
  Fe  Fe1  1  0.00000000  0.86149042  0.82038289  1
  Fe  Fe2  1  -0.00000000  0.63850958  0.32038289  1
  Fe  Fe3  1  0.00000000  0.36149042  0.67961711  1
  B  B0  1  0.50000000  0.05399916  0.06743190  1
  B  B1  1  0.50000000  0.94600084  0.93256810  1
  B  B2  1  0.50000000  0.55399916  0.43256810  1
  B  B3  1  0.50000000  0.44600084  0.56743190  1
  B  B4  1  0.50000000  0.24717432  0.08119415  1
  B  B5  1  0.50000000  0.75282568  0.91880585  1
  B  B6  1  0.50000000  0.74717432  0.41880585  1
  B  B7  1  0.50000000  0.25282568  0.58119415  1
  B  B8  1  0.50000000  0.29055249  0.23444644  1
  B  B9  1  0.50000000  0.70944751  0.76555356  1
  B  B10  1  0.50000000  0.79055249  0.26555356  1
  B  B11  1  0.50000000  0.20944751  0.73444644  1
  B  B12  1  0.50000000  0.13196640  0.31470489  1
  B  B13  1  0.50000000  0.86803360  0.68529511  1
  B  B14  1  0.50000000  0.63196640  0.18529511  1
  B  B15  1  0.50000000  0.36803360  0.81470489  1
  B  B16  1  0.50000000  0.48443336  0.28815877  1
  B  B17  1  0.50000000  0.51556664  0.71184123  1
  B  B18  1  0.50000000  0.98443336  0.21184123  1
  B  B19  1  0.50000000  0.01556664  0.78815877  1
  B  B20  1  0.50000000  0.10775613  0.47049426  1
  B  B21  1  0.50000000  0.89224387  0.52950574  1
  B  B22  1  0.50000000  0.60775613  0.02950574  1
  B  B23  1  0.50000000  0.39224387  0.97049426  1
loop_
_geom_bond_atom_site_label_1
_geom_bond_atom_site_label_2
_geom_bond_distance
_geom_bond_site_symmetry_2
Fe0 Lu6 2.776666 1_545
Fe0 Lu4 2.782391 1_555
Fe1 Lu7 2.776666 1_565
Fe1 Lu5 2.782391 1_555
Fe2 Lu4 2.776666 1_555
Fe2 Lu6 2.782391 1_555
Fe3 Lu5 2.776666 1_555
Fe3 Lu7 2.782391 1_555
B0 B4 1.733563 1_555
B0 B18 1.743525 1_545
B0 B1 1.801633 1_544
B0 Fe0 2.272447 1_555
B0 Fe0 2.272447 1_655
B0 Lu1 2.677018 1_654
B0 Lu1 2.677018 1_554
B0 Lu0 2.703416 1_645
B0 Lu0 2.703416 1_545
B1 B5 1.733563 1_555
B1 B19 1.743525 1_565
B1 Fe1 2.272447 1_555
B1 Fe1 2.272447 1_655
B1 Lu0 2.677018 1_656
B1 Lu0 2.677018 1_556
B1 Lu1 2.703416 1_665
B1 Lu1 2.703416 1_565
B2 B6 1.733563 1_555
B2 B3 1.801633 1_555
B2 Fe2 2.272447 1_655
B2 Fe2 2.272447 1_555
B2 Lu3 2.677018 1_555
B2 Lu3 2.677018 1_655
B2 Lu2 2.703416 1_555
B2 Lu2 2.703416 1_655
B3 B7 1.733563 1_555
B3 Fe3 2.272447 1_655
B3 Fe3 2.272447 1_555
B3 Lu2 2.677018 1_555
B3 Lu2 2.677018 1_655
B3 Lu3 2.703416 1_555
B3 Lu3 2.703416 1_655
B4 B8 1.771579 1_555
B4 Fe0 2.273324 1_555
B4 Fe0 2.273324 1_655
B4 Lu4 2.520233 1_555
B4 Lu4 2.520233 1_655
B4 Lu1 2.626336 1_654
B4 Lu1 2.626336 1_554
B5 B9 1.771579 1_555
B5 Fe1 2.273324 1_555
B5 Fe1 2.273324 1_655
B5 Lu5 2.520233 1_555
B5 Lu5 2.520233 1_655
B5 Lu0 2.626336 1_556
B5 Lu0 2.626336 1_656
B6 Fe2 2.273324 1_655
B6 Fe2 2.273324 1_555
B6 Lu6 2.520233 1_555
B6 Lu6 2.520233 1_655
B6 Lu3 2.626336 1_555
B6 Lu3 2.626336 1_655
B7 Fe3 2.273324 1_655
B7 Fe3 2.273324 1_555
B7 Lu7 2.520233 1_555
B7 Lu7 2.520233 1_655
B7 Lu2 2.626336 1_555
B7 Lu2 2.626336 1_655
B8 Fe0 2.285049 1_555
B8 Fe0 2.285049 1_655
B8 Lu4 2.503726 1_655
B8 Lu4 2.503726 1_555
B8 Lu2 2.686960 1_555
B8 Lu2 2.686960 1_655
B9 Fe1 2.285049 1_555
B9 Fe1 2.285049 1_655
B9 Lu5 2.503726 1_555
B9 Lu5 2.503726 1_655
B9 Lu3 2.686960 1_555
B9 Lu3 2.686960 1_655
B10 B14 1.681870 1_555
B10 B6 1.771579 1_555
B10 B18 1.835763 1_555
B10 Fe2 2.285049 1_655
B10 Fe2 2.285049 1_555
B10 Lu6 2.503726 1_555
B10 Lu6 2.503726 1_655
B10 Lu0 2.686960 1_555
B10 Lu0 2.686960 1_655
B11 B15 1.681870 1_555
B11 B7 1.771579 1_555
B11 B19 1.835763 1_555
B11 Fe3 2.285049 1_555
B11 Fe3 2.285049 1_655
B11 Lu7 2.503726 1_655
B11 Lu7 2.503726 1_555
B11 Lu1 2.686960 1_655
B11 Lu1 2.686960 1_555
B12 B8 1.681870 1_555
B12 B18 1.756432 1_545
B12 B20 1.770523 1_555
B12 Fe0 2.305950 1_655
B12 Fe0 2.305950 1_555
B12 Lu6 2.498646 1_645
B12 Lu6 2.498646 1_545
B12 Lu2 2.678559 1_555
B12 Lu2 2.678559 1_655
B13 B9 1.681870 1_555
B13 B19 1.756432 1_565
B13 B21 1.770523 1_555
B13 Fe1 2.305950 1_655
B13 Fe1 2.305950 1_555
B13 Lu7 2.498646 1_565
B13 Lu7 2.498646 1_665
B13 Lu3 2.678559 1_555
B13 Lu3 2.678559 1_655
B14 B16 1.756432 1_555
B14 B22 1.770523 1_555
B14 Fe2 2.305950 1_655
B14 Fe2 2.305950 1_555
B14 Lu4 2.498646 1_655
B14 Lu4 2.498646 1_555
B14 Lu0 2.678559 1_555
B14 Lu0 2.678559 1_655
B15 B17 1.756432 1_555
B15 B23 1.770523 1_555
B15 Fe3 2.305950 1_555
B15 Fe3 2.305950 1_655
B15 Lu5 2.498646 1_555
B15 Lu5 2.498646 1_655
B15 Lu1 2.678559 1_555
B15 Lu1 2.678559 1_655
B16 B2 1.743525 1_555
B16 B8 1.835763 1_555
B16 Fe2 2.240715 1_655
B16 Fe2 2.240715 1_555
B16 Lu4 2.520409 1_655
B16 Lu4 2.520409 1_555
B16 Lu2 2.670063 1_655
B16 Lu2 2.670063 1_555
B17 B3 1.743525 1_555
B17 B9 1.835763 1_555
B17 Fe3 2.240715 1_555
B17 Fe3 2.240715 1_655
B17 Lu5 2.520409 1_555
B17 Lu5 2.520409 1_655
B17 Lu3 2.670063 1_555
B17 Lu3 2.670063 1_655
B18 Fe0 2.240715 1_565
B18 Fe0 2.240715 1_665
B18 Lu6 2.520409 1_555
B18 Lu6 2.520409 1_655
B18 Lu0 2.670063 1_555
B18 Lu0 2.670063 1_655
B19 Fe1 2.240715 1_545
B19 Fe1 2.240715 1_645
B19 Lu7 2.520409 1_555
B19 Lu7 2.520409 1_655
B19 Lu1 2.670063 1_655
B19 Lu1 2.670063 1_555
B20 B7 1.800109 1_555
B20 B21 2.038011 1_545
B20 Lu7 2.528763 1_655
B20 Lu7 2.528763 1_555
B20 Lu6 2.532730 1_645
B20 Lu6 2.532730 1_545
B20 Lu2 2.659503 1_555
B20 Lu2 2.659503 1_655
B21 B6 1.800109 1_555
B21 Lu6 2.528763 1_655
B21 Lu6 2.528763 1_555
B21 Lu7 2.532730 1_665
B21 Lu7 2.532730 1_565
B21 Lu3 2.659503 1_555
B21 Lu3 2.659503 1_655
B22 B5 1.800109 1_554
B22 B23 2.038011 1_554
B22 Lu5 2.528763 1_654
B22 Lu5 2.528763 1_554
B22 Lu4 2.532730 1_555
B22 Lu4 2.532730 1_655
B22 Lu0 2.659503 1_555
B22 Lu0 2.659503 1_655
B23 B4 1.800109 1_556
B23 Lu4 2.528763 1_556
B23 Lu4 2.528763 1_656
B23 Lu5 2.532730 1_555
B23 Lu5 2.532730 1_655
B23 Lu1 2.659503 1_655
B23 Lu1 2.659503 1_555
