# generated using pymatgen
data_Al2NiO4
_symmetry_space_group_name_H-M   'P 1'
_cell_length_a   5.75109943
_cell_length_b   5.75109943
_cell_length_c   23.54600433
_cell_angle_alpha   82.66975197
_cell_angle_beta   82.66975197
_cell_angle_gamma   60.28087513
_symmetry_Int_Tables_number   1
_chemical_formula_structural   Al2NiO4
_chemical_formula_sum   'Al20 Ni10 O40'
_cell_volume   668.94907274
_cell_formula_units_Z   10
loop_
 _symmetry_equiv_pos_site_id
 _symmetry_equiv_pos_as_xyz
  1  'x, y, z'
loop_
 _atom_site_type_symbol
 _atom_site_label
 _atom_site_symmetry_multiplicity
 _atom_site_fract_x
 _atom_site_fract_y
 _atom_site_fract_z
 _atom_site_occupancy
  Al  Al0  1  0.92877600  0.92877600  0.22764300  1
  Al  Al1  1  0.29503000  0.79946200  0.10058300  1
  Al  Al2  1  0.79946200  0.29503000  0.10058300  1
  Al  Al3  1  0.52984900  0.52984900  0.42662000  1
  Al  Al4  1  0.89962500  0.40013200  0.30005000  1
  Al  Al5  1  0.26901600  0.26901600  0.17313200  1
  Al  Al6  1  0.40013200  0.89962500  0.30005000  1
  Al  Al7  1  0.13016000  0.13016000  0.62630000  1
  Al  Al8  1  0.50010600  0.00028400  0.49986000  1
  Al  Al9  1  0.87032200  0.87032200  0.37338200  1
  Al  Al10  1  0.00028400  0.50010600  0.49986000  1
  Al  Al11  1  0.73260400  0.73260400  0.82496000  1
  Al  Al12  1  0.10060500  0.60064400  0.69954600  1
  Al  Al13  1  0.47053000  0.47053000  0.57308500  1
  Al  Al14  1  0.60064400  0.10060500  0.69954600  1
  Al  Al15  1  0.69930400  0.20393900  0.89918900  1
  Al  Al16  1  0.07097400  0.07097400  0.77321600  1
  Al  Al17  1  0.99866200  0.99866200  0.00227900  1
  Al  Al18  1  0.20393900  0.69930400  0.89918900  1
  Al  Al19  1  0.66863500  0.66863500  0.97580300  1
  Ni  Ni0  1  0.32569400  0.32569400  0.02549600  1
  Ni  Ni1  1  0.59937000  0.59937000  0.19973500  1
  Ni  Ni2  1  0.79921900  0.79921900  0.10052000  1
  Ni  Ni3  1  0.19999600  0.19999600  0.40002200  1
  Ni  Ni4  1  0.39985600  0.39985600  0.30014800  1
  Ni  Ni5  1  0.80008900  0.80008900  0.59987600  1
  Ni  Ni6  1  0.00009300  0.00009300  0.49995300  1
  Ni  Ni7  1  0.40113300  0.40113300  0.79997900  1
  Ni  Ni8  1  0.60025300  0.60025300  0.69970900  1
  Ni  Ni9  1  0.20263900  0.20263900  0.89939000  1
  O  O0  1  0.68669800  0.14627000  0.05089600  1
  O  O1  1  0.14627000  0.68669800  0.05089600  1
  O  O2  1  0.95564300  0.95564300  0.15002700  1
  O  O3  1  0.12817500  0.12817500  0.05355300  1
  O  O4  1  0.25811700  0.76081000  0.25355900  1
  O  O5  1  0.45133400  0.45133400  0.14524300  1
  O  O6  1  0.63976200  0.63976200  0.05322200  1
  O  O7  1  0.76081000  0.25811700  0.25355900  1
  O  O8  1  0.43602800  0.94244400  0.14638100  1
  O  O9  1  0.55843300  0.55843300  0.34806100  1
  O  O10  1  0.74534500  0.74534500  0.25429000  1
  O  O11  1  0.94244400  0.43602800  0.14638100  1
  O  O12  1  0.85740400  0.36172000  0.45336900  1
  O  O13  1  0.05345500  0.05345500  0.34640000  1
  O  O14  1  0.24115600  0.24115600  0.25223800  1
  O  O15  1  0.36172000  0.85740400  0.45336900  1
  O  O16  1  0.03822600  0.54234900  0.34699300  1
  O  O17  1  0.15886600  0.15886600  0.54766900  1
  O  O18  1  0.34660500  0.34660500  0.45393800  1
  O  O19  1  0.54234900  0.03822600  0.34699300  1
  O  O20  1  0.45733800  0.96207700  0.65314600  1
  O  O21  1  0.65361000  0.65361000  0.54631600  1
  O  O22  1  0.96207700  0.45733800  0.65314600  1
  O  O23  1  0.84133100  0.84133100  0.45237200  1
  O  O24  1  0.63846700  0.14236300  0.54688000  1
  O  O25  1  0.75985400  0.75985400  0.74663700  1
  O  O26  1  0.94715800  0.94715800  0.65358900  1
  O  O27  1  0.14236300  0.63846700  0.54688000  1
  O  O28  1  0.25406900  0.25406900  0.74635100  1
  O  O29  1  0.05569000  0.56557900  0.85270500  1
  O  O30  1  0.44147000  0.44147000  0.65219000  1
  O  O31  1  0.23869700  0.74283800  0.74684300  1
  O  O32  1  0.56557900  0.05569000  0.85270500  1
  O  O33  1  0.36648300  0.36648300  0.94045900  1
  O  O34  1  0.55234600  0.55234600  0.85294600  1
  O  O35  1  0.74283800  0.23869700  0.74684300  1
  O  O36  1  0.85861000  0.85861000  0.94968300  1
  O  O37  1  0.04203900  0.04203900  0.85265200  1
  O  O38  1  0.84887100  0.32900300  0.95044400  1
  O  O39  1  0.32900300  0.84887100  0.95044400  1
loop_
_geom_bond_atom_site_label_1
_geom_bond_atom_site_label_2
_geom_bond_distance
_geom_bond_site_symmetry_2
Al0 O4 1.795392 1_655
Al0 O7 1.795392 1_565
Al0 O2 1.807549 1_555
Al0 O10 1.839847 1_555
Al1 O1 1.876267 1_555
Al1 O8 1.899245 1_555
Al1 O3 1.912914 1_565
Al1 O5 1.960065 1_555
Al1 O6 1.977259 1_555
Al1 O2 1.980050 1_455
Al2 O0 1.876267 1_555
Al2 O11 1.899245 1_555
Al2 O3 1.912914 1_655
Al2 O5 1.960065 1_555
Al2 O6 1.977259 1_555
Al2 O2 1.980050 1_545
Al3 O15 1.794907 1_555
Al3 O12 1.794907 1_555
Al3 O9 1.829544 1_555
Al3 O18 1.841243 1_555
Al4 O7 1.897465 1_555
Al4 O16 1.904734 1_655
Al4 O10 1.959932 1_555
Al4 O14 1.969554 1_655
Al4 O9 1.970402 1_555
Al4 O13 1.972595 1_655
Al5 O8 1.790424 1_545
Al5 O11 1.790424 1_455
Al5 O5 1.835405 1_555
Al5 O14 1.842248 1_555
Al6 O4 1.897465 1_555
Al6 O19 1.904734 1_565
Al6 O10 1.959932 1_555
Al6 O14 1.969554 1_565
Al6 O9 1.970402 1_555
Al6 O13 1.972595 1_565
Al7 O22 1.794073 1_455
Al7 O20 1.794073 1_545
Al7 O17 1.831227 1_555
Al7 O26 1.838845 1_445
Al8 O15 1.899268 1_545
Al8 O24 1.904446 1_555
Al8 O23 1.964493 1_545
Al8 O18 1.966255 1_555
Al8 O17 1.968261 1_555
Al8 O21 1.973752 1_545
Al9 O19 1.793423 1_565
Al9 O16 1.793423 1_655
Al9 O13 1.838613 1_665
Al9 O23 1.839599 1_555
Al10 O12 1.899268 1_455
Al10 O27 1.904446 1_555
Al10 O23 1.964493 1_455
Al10 O18 1.966255 1_555
Al10 O17 1.968261 1_555
Al10 O21 1.973752 1_455
Al11 O32 1.783808 1_565
Al11 O29 1.783808 1_655
Al11 O34 1.816749 1_555
Al11 O25 1.824013 1_555
Al12 O22 1.900130 1_455
Al12 O31 1.908329 1_555
Al12 O25 1.957988 1_455
Al12 O30 1.961552 1_555
Al12 O26 1.967443 1_455
Al12 O28 1.977318 1_555
Al13 O27 1.792563 1_555
Al13 O24 1.792563 1_555
Al13 O21 1.837124 1_555
Al13 O30 1.842279 1_555
Al14 O20 1.900130 1_545
Al14 O35 1.908329 1_555
Al14 O25 1.957988 1_545
Al14 O30 1.961552 1_555
Al14 O26 1.967443 1_545
Al14 O28 1.977318 1_555
Al15 O33 1.861441 1_555
Al15 O32 1.902468 1_555
Al15 O38 1.952829 1_555
Al15 O37 1.960204 1_655
Al15 O34 1.978333 1_555
Al15 O36 2.017069 1_545
Al16 O35 1.794074 1_455
Al16 O31 1.794074 1_545
Al16 O28 1.837711 1_555
Al16 O37 1.849970 1_555
Al17 O0 1.861121 1_565
Al17 O1 1.861121 1_655
Al17 O3 1.891072 1_665
Al17 O38 1.973571 1_564
Al17 O39 1.973571 1_654
Al17 O36 1.995876 1_554
Al18 O33 1.861441 1_555
Al18 O29 1.902468 1_555
Al18 O39 1.952829 1_555
Al18 O37 1.960204 1_565
Al18 O34 1.978333 1_555
Al18 O36 2.017069 1_455
Al19 O6 1.803052 1_556
Al19 O38 1.838049 1_555
Al19 O39 1.838049 1_555
Al19 O36 1.899017 1_555
Ni0 O0 1.941178 1_555
Ni0 O1 1.941178 1_555
Ni0 O3 1.978289 1_555
Ni0 O33 1.983441 1_554
Ni1 O7 2.044210 1_555
Ni1 O4 2.044210 1_555
Ni1 O11 2.045616 1_555
Ni1 O8 2.045616 1_555
Ni1 O10 2.075768 1_555
Ni1 O5 2.090953 1_555
Ni2 O1 2.021130 1_655
Ni2 O0 2.021130 1_565
Ni2 O11 2.037879 1_555
Ni2 O8 2.037879 1_555
Ni2 O6 2.068167 1_555
Ni2 O2 2.077268 1_555
Ni3 O16 2.038161 1_555
Ni3 O19 2.038161 1_555
Ni3 O15 2.043163 1_545
Ni3 O12 2.043163 1_455
Ni3 O13 2.064443 1_555
Ni3 O18 2.069941 1_555
Ni4 O7 2.036284 1_555
Ni4 O4 2.036284 1_555
Ni4 O16 2.041828 1_555
Ni4 O19 2.041828 1_555
Ni4 O9 2.070253 1_555
Ni4 O14 2.071238 1_555
Ni5 O27 2.037387 1_655
Ni5 O24 2.037387 1_565
Ni5 O22 2.042855 1_555
Ni5 O20 2.042855 1_555
Ni5 O21 2.062907 1_555
Ni5 O26 2.070159 1_555
Ni6 O12 2.038948 1_455
Ni6 O15 2.038948 1_545
Ni6 O24 2.042747 1_455
Ni6 O27 2.042747 1_545
Ni6 O23 2.066676 1_445
Ni6 O17 2.068851 1_555
Ni7 O35 2.037301 1_555
Ni7 O31 2.037301 1_555
Ni7 O32 2.046932 1_555
Ni7 O29 2.046932 1_555
Ni7 O28 2.068689 1_555
Ni7 O34 2.090772 1_555
Ni8 O22 2.039528 1_555
Ni8 O20 2.039528 1_555
Ni8 O35 2.044641 1_555
Ni8 O31 2.044641 1_555
Ni8 O25 2.063715 1_555
Ni8 O30 2.065897 1_555
Ni9 O33 2.014022 1_555
Ni9 O32 2.044981 1_555
Ni9 O29 2.044981 1_555
Ni9 O39 2.060451 1_545
Ni9 O38 2.060451 1_455
Ni9 O37 2.069260 1_555
