# generated using pymatgen
data_Nb3Te
_symmetry_space_group_name_H-M   'P 1'
_cell_length_a   5.29101142
_cell_length_b   5.29101142
_cell_length_c   5.29101142
_cell_angle_alpha   90.00000000
_cell_angle_beta   90.00000000
_cell_angle_gamma   90.00000000
_symmetry_Int_Tables_number   1
_chemical_formula_structural   Nb3Te
_chemical_formula_sum   'Nb6 Te2'
_cell_volume   148.12081627
_cell_formula_units_Z   2
loop_
 _symmetry_equiv_pos_site_id
 _symmetry_equiv_pos_as_xyz
  1  'x, y, z'
loop_
 _atom_site_type_symbol
 _atom_site_label
 _atom_site_symmetry_multiplicity
 _atom_site_fract_x
 _atom_site_fract_y
 _atom_site_fract_z
 _atom_site_occupancy
  Nb  Nb0  1  0.50000000  0.75000000  -0.00000000  1
  Nb  Nb1  1  -0.00000000  0.50000000  0.75000000  1
  Nb  Nb2  1  0.50000000  0.25000000  -0.00000000  1
  Nb  Nb3  1  -0.00000000  0.50000000  0.25000000  1
  Nb  Nb4  1  0.25000000  -0.00000000  0.50000000  1
  Nb  Nb5  1  0.75000000  -0.00000000  0.50000000  1
  Te  Te0  1  0.50000000  0.50000000  0.50000000  1
  Te  Te1  1  -0.00000000  -0.00000000  -0.00000000  1
loop_
_geom_bond_atom_site_label_1
_geom_bond_atom_site_label_2
_geom_bond_distance
_geom_bond_site_symmetry_2
Nb0 Nb2 2.645506 1_565
Nb0 Nb2 2.645506 1_555
Nb0 Te0 2.957765 1_554
Nb0 Te0 2.957765 1_555
Nb0 Te1 2.957765 1_565
Nb0 Te1 2.957765 1_665
Nb1 Nb3 2.645506 1_555
Nb1 Nb3 2.645506 1_556
Nb1 Te1 2.957765 1_556
Nb1 Te1 2.957765 1_566
Nb1 Te0 2.957765 1_555
Nb1 Te0 2.957765 1_455
Nb2 Te1 2.957765 1_555
Nb2 Te0 2.957765 1_554
Nb2 Te0 2.957765 1_555
Nb2 Te1 2.957765 1_655
Nb3 Te1 2.957765 1_555
Nb3 Te0 2.957765 1_555
Nb3 Te0 2.957765 1_455
Nb3 Te1 2.957765 1_565
Nb4 Nb5 2.645506 1_455
Nb4 Nb5 2.645506 1_555
Nb4 Te1 2.957765 1_555
Nb4 Te1 2.957765 1_556
Nb4 Te0 2.957765 1_555
Nb4 Te0 2.957765 1_545
Nb5 Te0 2.957765 1_555
Nb5 Te1 2.957765 1_655
Nb5 Te0 2.957765 1_545
Nb5 Te1 2.957765 1_656
