# generated using pymatgen
data_Li9Ni23O32
_symmetry_space_group_name_H-M   'P 1'
_cell_length_a   5.86460910
_cell_length_b   5.88391979
_cell_length_c   23.55033036
_cell_angle_alpha   59.79227178
_cell_angle_beta   60.06226102
_cell_angle_gamma   60.20963949
_symmetry_Int_Tables_number   1
_chemical_formula_structural   Li9Ni23O32
_chemical_formula_sum   'Li9 Ni23 O32'
_cell_volume   574.89235463
_cell_formula_units_Z   1
loop_
 _symmetry_equiv_pos_site_id
 _symmetry_equiv_pos_as_xyz
  1  'x, y, z'
loop_
 _atom_site_type_symbol
 _atom_site_label
 _atom_site_symmetry_multiplicity
 _atom_site_fract_x
 _atom_site_fract_y
 _atom_site_fract_z
 _atom_site_occupancy
  Li  Li0  1  0.40121800  0.40970500  0.21876700  1
  Li  Li1  1  0.39349700  0.88922200  0.10053400  1
  Li  Li2  1  0.89038100  0.39105100  0.10250900  1
  Li  Li3  1  0.39388500  0.39908200  0.34696900  1
  Li  Li4  1  0.38635600  0.38987700  0.47777600  1
  Li  Li5  1  0.39706400  0.39150100  0.59867100  1
  Li  Li6  1  0.90014300  0.40140100  0.59536300  1
  Li  Li7  1  0.39740400  0.39551900  0.84814100  1
  Li  Li8  1  0.88795000  0.39609200  0.84857200  1
  Ni  Ni0  1  0.39275900  0.39201900  0.10026100  1
  Ni  Ni1  1  0.39778300  0.88807400  0.22330600  1
  Ni  Ni2  1  0.39686600  0.89379000  0.34868300  1
  Ni  Ni3  1  0.89174700  0.39528900  0.22330300  1
  Ni  Ni4  1  0.89375800  0.89212100  0.09916300  1
  Ni  Ni5  1  0.89802700  0.39563300  0.34804500  1
  Ni  Ni6  1  0.90252800  0.89549500  0.22166700  1
  Ni  Ni7  1  0.39203100  0.90024100  0.47379700  1
  Ni  Ni8  1  0.39467700  0.39609100  0.72329300  1
  Ni  Ni9  1  0.39503900  0.90056500  0.59737200  1
  Ni  Ni10  1  0.89255000  0.39545400  0.47577600  1
  Ni  Ni11  1  0.89931500  0.89049200  0.34873800  1
  Ni  Ni12  1  0.89158700  0.89864000  0.47384300  1
  Ni  Ni13  1  0.39365600  0.89523300  0.72377400  1
  Ni  Ni14  1  0.39306700  0.38657900  0.97424900  1
  Ni  Ni15  1  0.39346300  0.89592300  0.84829700  1
  Ni  Ni16  1  0.89477300  0.39624800  0.72310700  1
  Ni  Ni17  1  0.89304900  0.89539200  0.59811200  1
  Ni  Ni18  1  0.89518500  0.89569400  0.72323300  1
  Ni  Ni19  1  0.39442700  0.89282100  0.97371100  1
  Ni  Ni20  1  0.89739100  0.39278200  0.97244200  1
  Ni  Ni21  1  0.89353500  0.89921700  0.84874300  1
  Ni  Ni22  1  0.89001300  0.89016200  0.97579300  1
  O  O0  1  0.14902400  0.13425500  0.03229000  1
  O  O1  1  0.14899100  0.63714100  0.03590700  1
  O  O2  1  0.14686700  0.14443100  0.16387900  1
  O  O3  1  0.13651900  0.64184300  0.16053200  1
  O  O4  1  0.13378400  0.12675500  0.29026400  1
  O  O5  1  0.64438000  0.15046900  0.03570000  1
  O  O6  1  0.62525700  0.65427200  0.03104800  1
  O  O7  1  0.64383000  0.13714700  0.16133500  1
  O  O8  1  0.14152800  0.64541800  0.28492100  1
  O  O9  1  0.13597700  0.14044400  0.41234000  1
  O  O10  1  0.12639200  0.66362300  0.40796200  1
  O  O11  1  0.13992700  0.13846400  0.53725800  1
  O  O12  1  0.65058300  0.65056100  0.16248100  1
  O  O13  1  0.66905300  0.11919100  0.29050100  1
  O  O14  1  0.65212800  0.64859000  0.28600000  1
  O  O15  1  0.66618300  0.13097300  0.41464800  1
  O  O16  1  0.12598800  0.67668100  0.52951600  1
  O  O17  1  0.15938100  0.12689500  0.66554300  1
  O  O18  1  0.14475100  0.64656600  0.66107400  1
  O  O19  1  0.14112200  0.15245500  0.78662300  1
  O  O20  1  0.66177200  0.65800800  0.40735900  1
  O  O21  1  0.65074900  0.14115500  0.53595700  1
  O  O22  1  0.64741500  0.66285000  0.53214300  1
  O  O23  1  0.62790200  0.12473000  0.66660100  1
  O  O24  1  0.15628300  0.66548600  0.78206100  1
  O  O25  1  0.16114700  0.11584800  0.91725600  1
  O  O26  1  0.13972400  0.65049200  0.91254200  1
  O  O27  1  0.64439500  0.64006100  0.66124500  1
  O  O28  1  0.64728800  0.14347100  0.78551100  1
  O  O29  1  0.62988200  0.66464600  0.78152000  1
  O  O30  1  0.64732900  0.13431700  0.91428700  1
  O  O31  1  0.63679500  0.65282400  0.91205600  1
loop_
_geom_bond_atom_site_label_1
_geom_bond_atom_site_label_2
_geom_bond_distance
_geom_bond_site_symmetry_2
Li0 O12 2.034293 1_555
Li0 O3 2.071093 1_555
Li0 O8 2.092225 1_555
Li0 O7 2.102439 1_555
Li0 O4 2.281362 1_555
Li0 O13 2.306053 1_555
Li1 O3 2.090724 1_555
Li1 O12 2.098472 1_555
Li1 O5 2.121851 1_565
Li1 O2 2.124793 1_565
Li1 O6 2.150747 1_555
Li1 O0 2.152095 1_565
Li2 O7 2.075150 1_555
Li2 O2 2.085119 1_655
Li2 O12 2.087562 1_555
Li2 O1 2.092700 1_655
Li2 O0 2.247624 1_655
Li2 O6 2.290114 1_555
Li3 O8 2.078988 1_555
Li3 O14 2.104345 1_555
Li3 O13 2.122699 1_555
Li3 O10 2.126369 1_555
Li3 O9 2.139906 1_555
Li3 O15 2.255281 1_555
Li4 O11 2.063413 1_555
Li4 O21 2.066720 1_555
Li4 O16 2.077428 1_555
Li4 O15 2.140963 1_555
Li4 O10 2.240299 1_555
Li4 O20 2.252522 1_555
Li5 O17 2.084523 1_555
Li5 O23 2.092638 1_555
Li5 O21 2.093552 1_555
Li5 O18 2.108058 1_555
Li5 O22 2.162311 1_555
Li5 O16 2.275740 1_555
Li6 O11 2.071567 1_655
Li6 O16 2.082470 1_655
Li6 O27 2.098974 1_555
Li6 O22 2.100518 1_555
Li6 O17 2.243560 1_655
Li6 O23 2.274783 1_555
Li7 O29 2.082818 1_555
Li7 O28 2.099196 1_555
Li7 O24 2.102766 1_555
Li7 O30 2.137386 1_555
Li7 O26 2.141006 1_555
Li7 O25 2.143895 1_555
Li8 O19 2.053170 1_655
Li8 O30 2.083296 1_555
Li8 O31 2.133162 1_555
Li8 O29 2.186143 1_555
Li8 O24 2.227628 1_655
Li8 O25 2.275972 1_655
Ni0 O2 2.044785 1_555
Ni0 O3 2.051656 1_555
Ni0 O7 2.057903 1_555
Ni0 O6 2.058752 1_555
Ni0 O1 2.082077 1_555
Ni0 O5 2.088145 1_555
Ni1 O12 2.009702 1_555
Ni1 O2 2.031017 1_565
Ni1 O7 2.051087 1_565
Ni1 O8 2.067203 1_555
Ni1 O14 2.099194 1_555
Ni1 O4 2.118255 1_565
Ni2 O4 2.066810 1_565
Ni2 O13 2.067932 1_565
Ni2 O14 2.071962 1_555
Ni2 O20 2.078402 1_555
Ni2 O10 2.078685 1_555
Ni2 O9 2.094795 1_565
Ni3 O12 2.013533 1_555
Ni3 O3 2.035606 1_655
Ni3 O2 2.042056 1_655
Ni3 O13 2.075448 1_555
Ni3 O14 2.106780 1_555
Ni3 O4 2.120497 1_655
Ni4 O12 2.009074 1_555
Ni4 O3 2.028080 1_655
Ni4 O7 2.062295 1_565
Ni4 O0 2.063832 1_665
Ni4 O5 2.090426 1_565
Ni4 O1 2.121907 1_655
Ni5 O8 2.043849 1_655
Ni5 O14 2.052309 1_555
Ni5 O9 2.057618 1_655
Ni5 O15 2.061874 1_555
Ni5 O20 2.089751 1_555
Ni5 O4 2.093117 1_655
Ni6 O8 2.043966 1_655
Ni6 O2 2.045503 1_665
Ni6 O14 2.060770 1_555
Ni6 O7 2.077840 1_565
Ni6 O3 2.082941 1_655
Ni6 O13 2.091864 1_565
Ni7 O22 2.031333 1_555
Ni7 O16 2.036037 1_555
Ni7 O11 2.056101 1_565
Ni7 O9 2.085495 1_565
Ni7 O15 2.097382 1_565
Ni7 O20 2.124893 1_555
Ni8 O27 2.045206 1_555
Ni8 O19 2.060022 1_555
Ni8 O18 2.071606 1_555
Ni8 O28 2.082795 1_555
Ni8 O23 2.086880 1_555
Ni8 O24 2.111123 1_555
Ni9 O21 2.056456 1_565
Ni9 O11 2.059377 1_565
Ni9 O22 2.083862 1_555
Ni9 O18 2.089130 1_555
Ni9 O17 2.090199 1_565
Ni9 O27 2.097350 1_555
Ni10 O11 2.049725 1_655
Ni10 O21 2.055928 1_555
Ni10 O22 2.062434 1_555
Ni10 O10 2.085509 1_655
Ni10 O20 2.099688 1_555
Ni10 O9 2.125965 1_655
Ni11 O13 1.923843 1_565
Ni11 O10 1.927355 1_655
Ni11 O20 1.947163 1_555
Ni11 O4 1.950062 1_665
Ni11 O8 2.090569 1_655
Ni11 O15 2.109586 1_565
Ni12 O16 1.899040 1_655
Ni12 O15 1.919809 1_565
Ni12 O22 1.988803 1_555
Ni12 O9 2.014169 1_665
Ni12 O21 2.050964 1_565
Ni12 O10 2.085660 1_655
Ni13 O23 1.921213 1_565
Ni13 O24 1.935188 1_555
Ni13 O17 1.940364 1_565
Ni13 O29 1.940511 1_555
Ni13 O27 2.110626 1_555
Ni13 O19 2.124550 1_565
Ni14 O30 2.056431 1_555
Ni14 O0 2.058550 1_556
Ni14 O5 2.065882 1_556
Ni14 O1 2.076929 1_556
Ni14 O26 2.079044 1_555
Ni14 O31 2.113993 1_555
Ni15 O26 2.068432 1_555
Ni15 O31 2.070340 1_555
Ni15 O19 2.073088 1_565
Ni15 O28 2.077038 1_565
Ni15 O25 2.079069 1_565
Ni15 O29 2.085587 1_555
Ni16 O27 2.067742 1_555
Ni16 O28 2.072432 1_555
Ni16 O18 2.072538 1_655
Ni16 O19 2.078704 1_655
Ni16 O17 2.091914 1_655
Ni16 O29 2.101193 1_555
Ni17 O11 2.029689 1_665
Ni17 O21 2.038933 1_565
Ni17 O16 2.067452 1_655
Ni17 O27 2.087892 1_555
Ni17 O18 2.091361 1_655
Ni17 O23 2.107663 1_565
Ni18 O17 2.056840 1_665
Ni18 O23 2.056934 1_565
Ni18 O29 2.060449 1_555
Ni18 O24 2.065654 1_655
Ni18 O28 2.075455 1_565
Ni18 O18 2.079115 1_655
Ni19 O25 1.907179 1_565
Ni19 O6 1.911880 1_556
Ni19 O0 1.987794 1_566
Ni19 O31 2.032629 1_555
Ni19 O30 2.049082 1_565
Ni19 O1 2.076164 1_556
Ni20 O0 2.041139 1_656
Ni20 O5 2.052378 1_556
Ni20 O26 2.072891 1_655
Ni20 O6 2.077883 1_556
Ni20 O31 2.086951 1_555
Ni20 O25 2.087308 1_655
Ni21 O28 2.073433 1_565
Ni21 O19 2.074803 1_665
Ni21 O30 2.078561 1_565
Ni21 O26 2.082497 1_655
Ni21 O31 2.084486 1_555
Ni21 O24 2.093823 1_655
Ni22 O30 2.029685 1_565
Ni22 O26 2.058285 1_655
Ni22 O25 2.064050 1_665
Ni22 O1 2.075058 1_656
Ni22 O6 2.082756 1_556
Ni22 O5 2.089256 1_566
