# generated using pymatgen
data_Al3Pt2
_symmetry_space_group_name_H-M   'P 1'
_cell_length_a   4.12998978
_cell_length_b   4.12998978
_cell_length_c   11.13127500
_cell_angle_alpha   90.00000000
_cell_angle_beta   90.00000000
_cell_angle_gamma   119.99999643
_symmetry_Int_Tables_number   1
_chemical_formula_structural   Al3Pt2
_chemical_formula_sum   'Al6 Pt4'
_cell_volume   164.42714378
_cell_formula_units_Z   2
loop_
 _symmetry_equiv_pos_site_id
 _symmetry_equiv_pos_as_xyz
  1  'x, y, z'
loop_
 _atom_site_type_symbol
 _atom_site_label
 _atom_site_symmetry_multiplicity
 _atom_site_fract_x
 _atom_site_fract_y
 _atom_site_fract_z
 _atom_site_occupancy
  Al  Al0  1  0.33333300  0.66666700  0.33391700  1
  Al  Al1  1  0.66666700  0.33333300  0.66608300  1
  Al  Al2  1  0.00000000  0.00000000  0.50000000  1
  Al  Al3  1  0.00000000  0.00000000  0.00000000  1
  Al  Al4  1  0.00000000  0.00000000  0.77319900  1
  Al  Al5  1  0.00000000  0.00000000  0.22680100  1
  Pt  Pt0  1  0.33333300  0.66666700  0.58775900  1
  Pt  Pt1  1  0.33333300  0.66666700  0.10304800  1
  Pt  Pt2  1  0.66666700  0.33333300  0.41224100  1
  Pt  Pt3  1  0.66666700  0.33333300  0.89695200  1
loop_
_geom_bond_atom_site_label_1
_geom_bond_atom_site_label_2
_geom_bond_distance
_geom_bond_site_symmetry_2
Al0 Pt2 2.538840 1_455
Al0 Pt2 2.538840 1_565
Al0 Pt2 2.538847 1_555
Al0 Pt1 2.569866 1_555
Al0 Al5 2.665945 1_565
Al0 Al5 2.665948 1_665
Al0 Al5 2.665948 1_555
Al0 Pt0 2.825585 1_555
Al1 Pt0 2.538840 1_545
Al1 Pt0 2.538840 1_655
Al1 Pt0 2.538847 1_555
Al1 Pt3 2.569866 1_555
Al1 Al4 2.665945 1_655
Al1 Al4 2.665948 1_555
Al1 Al4 2.665948 1_665
Al1 Pt2 2.825585 1_555
Al2 Pt0 2.576794 1_545
Al2 Pt2 2.576794 1_455
Al2 Pt2 2.576798 1_555
Al2 Pt2 2.576798 1_445
Al2 Pt0 2.576798 1_555
Al2 Pt0 2.576798 1_445
Al3 Al5 2.524584 1_555
Al3 Al4 2.524584 1_554
Al3 Pt1 2.646003 1_545
Al3 Pt3 2.646003 1_454
Al3 Pt1 2.646006 1_445
Al3 Pt3 2.646006 1_554
Al3 Pt3 2.646006 1_444
Al3 Pt1 2.646006 1_555
Al4 Pt3 2.753757 1_455
Al4 Pt3 2.753760 1_555
Al4 Pt3 2.753760 1_445
Al5 Pt1 2.753757 1_545
Al5 Pt1 2.753760 1_445
Al5 Pt1 2.753760 1_555
