# generated using pymatgen
data_K4U5Te2O21
_symmetry_space_group_name_H-M   'P 1'
_cell_length_a   6.96930892
_cell_length_b   7.11826182
_cell_length_c   11.38165221
_cell_angle_alpha   99.91707319
_cell_angle_beta   94.44872053
_cell_angle_gamma   100.03797303
_symmetry_Int_Tables_number   1
_chemical_formula_structural   K4U5Te2O21
_chemical_formula_sum   'K4 U5 Te2 O21'
_cell_volume   544.30643320
_cell_formula_units_Z   1
loop_
 _symmetry_equiv_pos_site_id
 _symmetry_equiv_pos_as_xyz
  1  'x, y, z'
loop_
 _atom_site_type_symbol
 _atom_site_label
 _atom_site_symmetry_multiplicity
 _atom_site_fract_x
 _atom_site_fract_y
 _atom_site_fract_z
 _atom_site_occupancy
  K  K0  1  0.56320758  0.29473738  0.08440494  1
  K  K1  1  0.30394014  0.15859972  0.73391728  1
  K  K2  1  0.43679242  0.70526262  0.91559506  1
  K  K3  1  0.69605986  0.84140028  0.26608272  1
  U  U0  1  0.77770824  0.87448959  0.68286852  1
  U  U1  1  0.22229176  0.12551041  0.31713148  1
  U  U2  1  0.12487526  0.57024638  0.18143136  1
  U  U3  1  0.87512474  0.42975362  0.81856864  1
  U  U4  1  -0.00000000  -0.00000000  0.00000000  1
  Te  Te0  1  0.68142374  0.31589768  0.51266319  1
  Te  Te1  1  0.31857626  0.68410232  0.48733681  1
  O  O0  1  0.08452260  0.87655286  0.16297138  1
  O  O1  1  0.75104955  0.98872941  0.04892690  1
  O  O2  1  0.41203611  0.23262666  0.51021717  1
  O  O3  1  0.01206269  0.87099316  0.62066972  1
  O  O4  1  0.91547740  0.12344714  0.83702862  1
  O  O5  1  0.11857370  0.47100579  0.76327773  1
  O  O6  1  0.37616279  0.61506855  0.13381596  1
  O  O7  1  0.12827000  0.24694921  0.15244755  1
  O  O8  1  0.24895045  0.01127059  0.95107310  1
  O  O9  1  0.88142630  0.52899421  0.23672227  1
  O  O10  1  0.23831417  0.82744025  0.37541565  1
  O  O11  1  0.76168583  0.17255975  0.62458435  1
  O  O12  1  0.71433746  0.52826854  0.64126652  1
  O  O13  1  0.53241180  0.87379433  0.73294805  1
  O  O14  1  0.58796389  0.76737334  0.48978283  1
  O  O15  1  -0.00000000  0.50000000  0.00000000  1
  O  O16  1  0.98793731  0.12900684  0.37933028  1
  O  O17  1  0.87173000  0.75305079  0.84755245  1
  O  O18  1  0.46758820  0.12620567  0.26705195  1
  O  O19  1  0.62383721  0.38493145  0.86618304  1
  O  O20  1  0.28566254  0.47173146  0.35873348  1
loop_
_geom_bond_atom_site_label_1
_geom_bond_atom_site_label_2
_geom_bond_distance
_geom_bond_site_symmetry_2
K0 O18 2.645750 1_555
K0 O19 2.716088 1_554
K0 O1 2.719327 1_545
K0 O9 2.796987 1_555
K0 O6 2.814802 1_555
K0 O8 2.839064 1_554
K1 O3 2.687587 1_545
K1 O19 2.687778 1_555
K1 O5 2.745603 1_555
K1 O13 2.786731 1_545
K1 O2 2.819400 1_555
K1 O8 2.873172 1_555
K1 O4 3.021151 1_455
K2 O13 2.645750 1_555
K2 O6 2.716077 1_556
K2 O8 2.719327 1_565
K2 O5 2.796987 1_555
K2 O19 2.814803 1_555
K2 O1 2.839064 1_556
K3 O16 2.687587 1_565
K3 O6 2.687783 1_555
K3 O9 2.745603 1_555
K3 O18 2.786731 1_565
K3 O14 2.819400 1_555
K3 O1 2.873172 1_555
K3 O0 3.021151 1_655
O0 U4 2.265418 1_565
O0 U1 2.283742 1_565
O0 U2 2.289024 1_555
O1 U4 1.855683 1_665
O2 Te0 1.864186 1_555
O2 U1 2.404200 1_555
O3 U0 1.832180 1_455
O4 U4 2.265418 1_656
O4 U0 2.283742 1_545
O4 U3 2.289024 1_555
O5 U3 1.848391 1_455
O6 U2 1.864017 1_555
O7 U4 2.249615 1_555
O7 U2 2.272472 1_555
O7 U1 2.292361 1_555
O8 U4 1.855683 1_556
O9 U2 1.848391 1_655
O10 Te1 1.874229 1_555
O10 U1 2.347386 1_565
O10 U2 2.585302 1_555
O11 Te0 1.874229 1_555
O11 U0 2.347386 1_545
O11 U3 2.585302 1_555
O12 Te0 1.882878 1_555
O12 U0 2.383098 1_555
O12 U3 2.496057 1_555
O13 U0 1.843000 1_555
O14 Te1 1.864186 1_555
O14 U0 2.404200 1_555
O15 U3 2.117891 1_454
O15 U2 2.117891 1_555
O16 U1 1.832180 1_655
O17 U4 2.249615 1_666
O17 U3 2.272472 1_555
O17 U0 2.292361 1_555
O18 U1 1.843000 1_555
O19 U3 1.864013 1_555
O20 Te1 1.882878 1_555
O20 U1 2.383098 1_555
O20 U2 2.496057 1_555
