# generated using pymatgen
data_EuNiGe
_symmetry_space_group_name_H-M   'P 1'
_cell_length_a   6.17359657
_cell_length_b   6.11829702
_cell_length_c   7.52789675
_cell_angle_alpha   59.37962156
_cell_angle_beta   89.99880503
_cell_angle_gamma   89.99894385
_symmetry_Int_Tables_number   1
_chemical_formula_structural   EuNiGe
_chemical_formula_sum   'Eu4 Ni4 Ge4'
_cell_volume   244.69442609
_cell_formula_units_Z   4
loop_
 _symmetry_equiv_pos_site_id
 _symmetry_equiv_pos_as_xyz
  1  'x, y, z'
loop_
 _atom_site_type_symbol
 _atom_site_label
 _atom_site_symmetry_multiplicity
 _atom_site_fract_x
 _atom_site_fract_y
 _atom_site_fract_z
 _atom_site_occupancy
  Eu  Eu0  1  0.36060152  0.80239990  0.89434202  1
  Eu  Eu1  1  0.86060043  0.19758187  0.60566104  1
  Eu  Eu2  1  0.63939847  0.19759100  0.10566233  1
  Eu  Eu3  1  0.13939878  0.80241217  0.39434137  1
  Ni  Ni0  1  0.09594630  0.38640003  0.17327863  1
  Ni  Ni1  1  0.59595678  0.61359461  0.32671671  1
  Ni  Ni2  1  0.90405151  0.61359667  0.82671825  1
  Ni  Ni3  1  0.40404575  0.38640602  0.67328101  1
  Ge  Ge0  1  0.14477586  0.27612053  0.92295881  1
  Ge  Ge1  1  0.64477623  0.72388692  0.57705031  1
  Ge  Ge2  1  0.85522941  0.72388701  0.07704159  1
  Ge  Ge3  1  0.35521896  0.27612326  0.42294793  1
loop_
_geom_bond_atom_site_label_1
_geom_bond_atom_site_label_2
_geom_bond_distance
_geom_bond_site_symmetry_2
Eu0 Ni0 2.848241 1_556
Eu0 Ni3 3.090499 1_565
Eu0 Ni2 3.183866 1_455
Eu0 Ge1 3.190977 1_555
Eu0 Ni1 3.195262 1_556
Eu0 Ge3 3.242966 1_565
Eu0 Ge2 3.282392 1_556
Eu0 Ge0 3.295172 1_565
Eu0 Ge2 3.344152 1_456
Eu0 Ge0 3.388695 1_555
Eu1 Ni1 2.848253 1_555
Eu1 Ni2 3.090386 1_545
Eu1 Ni3 3.183882 1_555
Eu1 Ge0 3.191166 1_655
Eu1 Ni0 3.195230 1_655
Eu1 Ge2 3.242841 1_546
Eu1 Ge3 3.282325 1_655
Eu1 Ge1 3.295048 1_545
Eu1 Ge3 3.344266 1_555
Eu1 Ge1 3.388811 1_555
Eu2 Ni2 2.848267 1_554
Eu2 Ni1 3.090448 1_545
Eu2 Ni0 3.183851 1_655
Eu2 Ge3 3.191018 1_555
Eu2 Ni3 3.195287 1_554
Eu2 Ge1 3.242896 1_545
Eu2 Ge0 3.282365 1_554
Eu2 Ge2 3.295108 1_545
Eu2 Ge0 3.344185 1_654
Eu2 Ge2 3.388788 1_555
Eu3 Ni3 2.848234 1_555
Eu3 Ni0 3.090399 1_565
Eu3 Ni1 3.183895 1_555
Eu3 Ge2 3.191114 1_455
Eu3 Ni2 3.195201 1_455
Eu3 Ge0 3.242879 1_564
Eu3 Ge1 3.282344 1_455
Eu3 Ge3 3.295112 1_565
Eu3 Ge1 3.344238 1_555
Eu3 Ge3 3.388724 1_555
Ni0 Ni2 2.539237 1_454
Ni1 Ni3 2.539278 1_555
Ge0 Ni3 2.293027 1_555
Ge0 Ni0 2.322110 1_556
Ge0 Ni2 2.339412 1_455
Ge1 Ni2 2.293035 1_555
Ge1 Ni1 2.322270 1_555
Ge1 Ni3 2.339497 1_555
Ge2 Ni1 2.293020 1_555
Ge2 Ni2 2.322176 1_554
Ge2 Ni0 2.339435 1_655
Ge3 Ni0 2.293040 1_555
Ge3 Ni3 2.322231 1_555
Ge3 Ni1 2.339483 1_555
