# generated using pymatgen
data_La5Ti5O17
_symmetry_space_group_name_H-M   'P 1'
_cell_length_a   5.53301816
_cell_length_b   7.85012210
_cell_length_c   31.65342589
_cell_angle_alpha   82.88273954
_cell_angle_beta   90.00000000
_cell_angle_gamma   90.00000000
_symmetry_Int_Tables_number   1
_chemical_formula_structural   La5Ti5O17
_chemical_formula_sum   'La20 Ti20 O68'
_cell_volume   1364.26859462
_cell_formula_units_Z   4
loop_
 _symmetry_equiv_pos_site_id
 _symmetry_equiv_pos_as_xyz
  1  'x, y, z'
loop_
 _atom_site_type_symbol
 _atom_site_label
 _atom_site_symmetry_multiplicity
 _atom_site_fract_x
 _atom_site_fract_y
 _atom_site_fract_z
 _atom_site_occupancy
  La  La0  1  0.04554396  0.35611420  0.29446609  1
  La  La1  1  0.45445604  0.35611420  0.79446609  1
  La  La2  1  0.91131776  0.14338364  0.71667866  1
  La  La3  1  0.50266972  0.70256649  0.59373164  1
  La  La4  1  0.49921438  0.25188898  0.99668392  1
  La  La5  1  0.08868224  0.85661636  0.28332134  1
  La  La6  1  0.41131776  0.85661636  0.78332134  1
  La  La7  1  0.49896387  0.20689818  0.58747488  1
  La  La8  1  0.00078562  0.25188898  0.49668392  1
  La  La9  1  0.00266972  0.29743351  0.90626836  1
  La  La10  1  0.50103613  0.79310182  0.41252512  1
  La  La11  1  0.99733028  0.70256649  0.09373164  1
  La  La12  1  0.50078562  0.74811102  0.00331608  1
  La  La13  1  0.49733028  0.29743351  0.40626836  1
  La  La14  1  0.58868224  0.14338364  0.21667866  1
  La  La15  1  0.00103613  0.20689818  0.08747488  1
  La  La16  1  0.95445604  0.64388580  0.70553391  1
  La  La17  1  0.99921438  0.74811102  0.50331608  1
  La  La18  1  0.99896387  0.79310182  0.91252512  1
  La  La19  1  0.54554396  0.64388580  0.20553391  1
  Ti  Ti0  1  0.00799599  0.54498521  0.40692912  1
  Ti  Ti1  1  0.50888891  0.95272225  0.09245747  1
  Ti  Ti2  1  0.99200401  0.45501479  0.59307088  1
  Ti  Ti3  1  0.49200401  0.54498521  0.90692912  1
  Ti  Ti4  1  0.50799599  0.45501479  0.09307088  1
  Ti  Ti5  1  0.45986776  0.40963579  0.67815723  1
  Ti  Ti6  1  0.54013224  0.59036421  0.32184277  1
  Ti  Ti7  1  0.95986776  0.59036421  0.82184277  1
  Ti  Ti8  1  0.46430995  0.91399784  0.67676264  1
  Ti  Ti9  1  0.49111109  0.04727775  0.90754253  1
  Ti  Ti10  1  0.50000000  0.50000000  0.50000000  1
  Ti  Ti11  1  0.99111109  0.95272225  0.59245747  1
  Ti  Ti12  1  0.96430995  0.08600216  0.82323736  1
  Ti  Ti13  1  0.03569005  0.91399784  0.17676264  1
  Ti  Ti14  1  0.00000000  0.00000000  0.00000000  1
  Ti  Ti15  1  0.50000000  0.00000000  0.50000000  1
  Ti  Ti16  1  0.53569005  0.08600216  0.32323736  1
  Ti  Ti17  1  0.00000000  0.50000000  0.00000000  1
  Ti  Ti18  1  0.04013224  0.40963579  0.17815723  1
  Ti  Ti19  1  0.00888891  0.04727775  0.40754253  1
  O  O0  1  0.20083709  0.90948368  0.71216170  1
  O  O1  1  0.94665919  0.25016253  0.99971667  1
  O  O2  1  0.28142154  0.50367468  0.44941213  1
  O  O3  1  0.80717609  0.57400424  0.87994835  1
  O  O4  1  0.45570832  0.79406150  0.91103162  1
  O  O5  1  0.29028152  0.52142607  0.86208115  1
  O  O6  1  0.69282391  0.57400424  0.37994835  1
  O  O7  1  0.21857846  0.50367468  0.94941213  1
  O  O8  1  0.04429168  0.79406150  0.41103162  1
  O  O9  1  0.80313572  0.04545942  0.87950526  1
  O  O10  1  0.53994162  0.16576936  0.66925580  1
  O  O11  1  0.07421847  0.66370882  0.17192377  1
  O  O12  1  0.31424065  0.12432185  0.27849318  1
  O  O13  1  0.57421847  0.33629118  0.32807623  1
  O  O14  1  0.05334081  0.74983747  0.00028333  1
  O  O15  1  0.79916291  0.09051632  0.28783830  1
  O  O16  1  0.96005838  0.16576936  0.16925580  1
  O  O17  1  0.28475090  0.11509076  0.86326345  1
  O  O18  1  0.44205815  0.70954259  0.08073712  1
  O  O19  1  0.69686428  0.04545942  0.37950526  1
  O  O20  1  0.19686428  0.95454058  0.12049474  1
  O  O21  1  0.30717609  0.42599576  0.62005165  1
  O  O22  1  0.28369516  0.45046428  0.03601807  1
  O  O23  1  0.27994373  0.04676538  0.44998104  1
  O  O24  1  0.03994162  0.83423064  0.83074420  1
  O  O25  1  0.21524910  0.11509076  0.36326345  1
  O  O26  1  0.70083709  0.09051632  0.78783830  1
  O  O27  1  0.29916291  0.90948368  0.21216170  1
  O  O28  1  0.55334081  0.25016253  0.49971667  1
  O  O29  1  0.42578153  0.66370882  0.67192377  1
  O  O30  1  0.94205815  0.29045741  0.41926288  1
  O  O31  1  0.21720341  0.01375240  0.53634320  1
  O  O32  1  0.78475090  0.88490924  0.63673655  1
  O  O33  1  0.82531380  0.39982843  0.22514034  1
  O  O34  1  0.22005627  0.04676538  0.94998104  1
  O  O35  1  0.78369516  0.54953572  0.46398193  1
  O  O36  1  0.95570832  0.20593850  0.58896838  1
  O  O37  1  0.78279659  0.98624760  0.46365680  1
  O  O38  1  0.70971848  0.47857393  0.13791885  1
  O  O39  1  0.20971848  0.52142607  0.36208115  1
  O  O40  1  0.81454061  0.62135088  0.29215624  1
  O  O41  1  0.72005627  0.95323462  0.55001896  1
  O  O42  1  0.71720341  0.98624760  0.96365680  1
  O  O43  1  0.71630484  0.54953572  0.96398193  1
  O  O44  1  0.54429168  0.20593850  0.08896838  1
  O  O45  1  0.17468620  0.60017157  0.77485966  1
  O  O46  1  0.68545939  0.62135088  0.79215624  1
  O  O47  1  0.28279659  0.01375240  0.03634320  1
  O  O48  1  0.18545939  0.37864912  0.70784376  1
  O  O49  1  0.92578153  0.33629118  0.82807623  1
  O  O50  1  0.68575935  0.87567815  0.72150682  1
  O  O51  1  0.19282391  0.42599576  0.12005165  1
  O  O52  1  0.81424065  0.87567815  0.22150682  1
  O  O53  1  0.46005838  0.83423064  0.33074420  1
  O  O54  1  0.71857846  0.49632532  0.55058787  1
  O  O55  1  0.30313572  0.95454058  0.62049474  1
  O  O56  1  0.31454061  0.37864912  0.20784376  1
  O  O57  1  0.18575935  0.12432185  0.77849318  1
  O  O58  1  0.79028152  0.47857393  0.63791885  1
  O  O59  1  0.77994373  0.95323462  0.05001896  1
  O  O60  1  0.32531380  0.60017157  0.27485966  1
  O  O61  1  0.05794185  0.70954259  0.58073712  1
  O  O62  1  0.71524910  0.88490924  0.13673655  1
  O  O63  1  0.67468620  0.39982843  0.72514034  1
  O  O64  1  0.21630484  0.45046428  0.53601807  1
  O  O65  1  0.44665919  0.74983747  0.50028333  1
  O  O66  1  0.55794185  0.29045741  0.91926288  1
  O  O67  1  0.78142154  0.49632532  0.05058787  1
loop_
_geom_bond_atom_site_label_1
_geom_bond_atom_site_label_2
_geom_bond_distance
_geom_bond_site_symmetry_2
La0 O40 2.436511 1_455
La0 O12 2.450475 1_555
La0 O60 2.481397 1_555
La0 O33 2.496272 1_455
La0 O15 2.521493 1_455
La0 O39 2.788932 1_555
La0 O13 2.813524 1_455
La0 O25 2.860565 1_555
La1 O46 2.436511 1_555
La1 O57 2.450475 1_555
La1 O45 2.481397 1_555
La1 O63 2.496272 1_555
La1 O26 2.521493 1_555
La1 O5 2.788932 1_555
La1 O49 2.813524 1_555
La1 O17 2.860565 1_555
La2 O48 2.379474 1_655
La2 O50 2.432634 1_545
La2 O63 2.443818 1_555
La2 O0 2.454191 1_645
La2 O57 2.466596 1_655
La2 O26 2.523962 1_555
La2 O10 2.537939 1_555
La3 O21 2.475805 1_555
La3 O29 2.492552 1_555
La3 O61 2.494310 1_555
La3 O55 2.502868 1_555
La3 O54 2.541897 1_555
La3 O41 2.560994 1_555
La3 O32 2.611660 1_555
La3 O58 2.640293 1_555
La4 O22 2.425509 1_556
La4 O47 2.433703 1_556
La4 O66 2.453372 1_555
La4 O1 2.477553 1_555
La4 O43 2.715599 1_555
La4 O42 2.726983 1_545
La4 O34 2.784583 1_555
La4 O7 2.797123 1_555
La4 O44 2.909322 1_556
La4 O1 3.058782 1_455
La4 O59 3.127072 1_546
La4 O67 3.137313 1_556
La5 O40 2.379474 1_455
La5 O12 2.432634 1_565
La5 O60 2.443818 1_555
La5 O15 2.454191 1_465
La5 O52 2.466596 1_455
La5 O27 2.523962 1_555
La5 O53 2.537939 1_555
La6 O46 2.379474 1_555
La6 O57 2.432634 1_565
La6 O45 2.443818 1_555
La6 O26 2.454191 1_565
La6 O50 2.466596 1_555
La6 O0 2.523962 1_555
La6 O24 2.537939 1_555
La7 O21 2.363697 1_555
La7 O55 2.382827 1_545
La7 O36 2.527611 1_555
La7 O10 2.578688 1_555
La7 O54 2.710096 1_555
La7 O41 2.729911 1_545
La7 O28 2.772819 1_555
La7 O31 2.820811 1_555
La7 O64 2.825423 1_555
La7 O36 3.006209 1_455
La8 O64 2.425509 1_555
La8 O31 2.433703 1_555
La8 O30 2.453372 1_455
La8 O28 2.477553 1_455
La8 O35 2.715599 1_455
La8 O37 2.726983 1_445
La8 O23 2.784583 1_555
La8 O2 2.797123 1_555
La8 O36 2.909322 1_455
La8 O28 3.058782 1_555
La8 O41 3.127072 1_445
La8 O54 3.137313 1_455
La9 O3 2.475805 1_455
La9 O49 2.492552 1_455
La9 O66 2.494310 1_455
La9 O9 2.502868 1_455
La9 O7 2.541897 1_555
La9 O34 2.560994 1_555
La9 O17 2.611660 1_555
La9 O5 2.640293 1_555
La10 O6 2.363697 1_555
La10 O19 2.382827 1_565
La10 O8 2.527611 1_555
La10 O53 2.578688 1_555
La10 O2 2.710096 1_555
La10 O23 2.729911 1_565
La10 O65 2.772819 1_555
La10 O37 2.820811 1_555
La10 O35 2.825423 1_555
La10 O8 3.006209 1_655
La11 O51 2.475805 1_655
La11 O11 2.492552 1_655
La11 O18 2.494310 1_655
La11 O20 2.502868 1_655
La11 O67 2.541897 1_555
La11 O59 2.560994 1_555
La11 O62 2.611660 1_555
La11 O38 2.640293 1_555
La12 O43 2.425509 1_554
La12 O42 2.433703 1_554
La12 O18 2.453372 1_555
La12 O14 2.477553 1_555
La12 O22 2.715599 1_555
La12 O47 2.726983 1_565
La12 O59 2.784583 1_555
La12 O67 2.797123 1_555
La12 O4 2.909322 1_554
La12 O14 3.058782 1_655
La12 O34 3.127072 1_564
La12 O7 3.137313 1_554
La13 O6 2.475805 1_555
La13 O13 2.492552 1_555
La13 O30 2.494310 1_555
La13 O19 2.502868 1_555
La13 O2 2.541897 1_555
La13 O23 2.560994 1_555
La13 O25 2.611660 1_555
La13 O39 2.640293 1_555
La14 O56 2.379474 1_555
La14 O52 2.432634 1_545
La14 O33 2.443818 1_555
La14 O27 2.454191 1_545
La14 O12 2.466596 1_555
La14 O15 2.523962 1_555
La14 O16 2.537939 1_555
La15 O51 2.363697 1_555
La15 O20 2.382827 1_545
La15 O44 2.527611 1_455
La15 O16 2.578688 1_455
La15 O67 2.710096 1_455
La15 O59 2.729911 1_445
La15 O1 2.772819 1_454
La15 O47 2.820811 1_555
La15 O22 2.825423 1_555
La15 O44 3.006209 1_555
La16 O48 2.436511 1_655
La16 O50 2.450475 1_555
La16 O63 2.481397 1_555
La16 O45 2.496272 1_655
La16 O0 2.521493 1_655
La16 O58 2.788932 1_555
La16 O29 2.813524 1_655
La16 O32 2.860565 1_555
La17 O35 2.425509 1_555
La17 O37 2.433703 1_555
La17 O61 2.453372 1_655
La17 O65 2.477553 1_655
La17 O64 2.715599 1_655
La17 O31 2.726983 1_665
La17 O41 2.784583 1_555
La17 O54 2.797123 1_555
La17 O8 2.909322 1_655
La17 O65 3.058782 1_555
La17 O23 3.127072 1_665
La17 O2 3.137313 1_655
La18 O3 2.363697 1_555
La18 O9 2.382827 1_565
La18 O4 2.527611 1_655
La18 O24 2.578688 1_655
La18 O7 2.710096 1_655
La18 O34 2.729911 1_665
La18 O14 2.772819 1_656
La18 O42 2.820811 1_555
La18 O43 2.825423 1_555
La18 O4 3.006209 1_555
La19 O56 2.436511 1_555
La19 O52 2.450475 1_555
La19 O33 2.481397 1_555
La19 O60 2.496272 1_555
La19 O27 2.521493 1_555
La19 O38 2.788932 1_555
La19 O11 2.813524 1_555
La19 O62 2.860565 1_555
O0 Ti8 1.836334 1_555
O1 Ti17 1.984456 1_656
O1 Ti14 1.984781 1_656
O2 Ti10 2.004028 1_555
O2 Ti0 2.023408 1_555
O3 Ti3 1.942699 1_555
O3 Ti7 2.013587 1_555
O4 Ti3 1.985757 1_555
O4 Ti9 1.986814 1_565
O5 Ti3 1.833101 1_555
O5 Ti7 2.255347 1_455
O6 Ti0 1.942699 1_655
O6 Ti6 2.013587 1_555
O7 Ti17 2.004028 1_556
O7 Ti3 2.023408 1_555
O8 Ti0 1.985757 1_555
O8 Ti19 1.986814 1_565
O9 Ti9 1.942046 1_555
O9 Ti12 1.981998 1_555
O10 Ti8 2.005370 1_545
O10 Ti5 2.018465 1_555
O11 Ti18 1.988726 1_555
O11 Ti13 2.000979 1_555
O12 Ti16 1.868732 1_555
O13 Ti6 1.988726 1_555
O13 Ti16 2.000979 1_555
O14 Ti17 1.984456 1_555
O14 Ti14 1.984781 1_565
O15 Ti16 1.836334 1_555
O16 Ti13 2.005370 1_645
O16 Ti18 2.018465 1_655
O17 Ti9 1.834838 1_555
O17 Ti12 2.207392 1_455
O18 Ti4 2.021020 1_555
O18 Ti1 2.023390 1_555
O19 Ti19 1.942046 1_655
O19 Ti16 1.981998 1_555
O20 Ti1 1.942046 1_555
O20 Ti13 1.981998 1_555
O21 Ti2 1.942699 1_455
O21 Ti5 2.013587 1_555
O22 Ti17 1.950666 1_555
O22 Ti4 2.195183 1_555
O23 Ti15 1.994988 1_555
O23 Ti19 2.013070 1_555
O24 Ti12 2.005370 1_465
O24 Ti7 2.018465 1_455
O25 Ti19 1.834838 1_555
O25 Ti16 2.207392 1_555
O26 Ti12 1.836334 1_555
O27 Ti13 1.836334 1_555
O28 Ti10 1.984456 1_555
O28 Ti15 1.984781 1_555
O29 Ti5 1.988726 1_555
O29 Ti8 2.000979 1_555
O30 Ti0 2.021020 1_655
O30 Ti19 2.023390 1_655
O31 Ti15 1.952989 1_555
O31 Ti11 2.176812 1_445
O32 Ti11 1.834838 1_555
O32 Ti8 2.207392 1_555
O33 Ti18 1.897895 1_655
O34 Ti14 1.994988 1_556
O34 Ti9 2.013070 1_555
O35 Ti10 1.950666 1_555
O35 Ti0 2.195183 1_655
O36 Ti2 1.985757 1_555
O36 Ti11 1.986814 1_545
O37 Ti15 1.952989 1_565
O37 Ti19 2.176812 1_665
O38 Ti4 1.833101 1_555
O38 Ti18 2.255347 1_655
O39 Ti0 1.833101 1_555
O39 Ti6 2.255347 1_555
O40 Ti6 1.786276 1_555
O41 Ti15 1.994988 1_565
O41 Ti11 2.013070 1_555
O42 Ti14 1.952989 1_666
O42 Ti9 2.176812 1_565
O43 Ti17 1.950666 1_656
O43 Ti3 2.195183 1_555
O44 Ti4 1.985757 1_555
O44 Ti1 1.986814 1_545
O45 Ti7 1.897895 1_455
O46 Ti7 1.786276 1_555
O47 Ti14 1.952989 1_555
O47 Ti1 2.176812 1_545
O48 Ti5 1.786276 1_555
O49 Ti7 1.988726 1_555
O49 Ti12 2.000979 1_555
O50 Ti8 1.868732 1_555
O51 Ti4 1.942699 1_555
O51 Ti18 2.013587 1_555
O52 Ti13 1.868732 1_655
O53 Ti16 2.005370 1_565
O53 Ti6 2.018465 1_555
O54 Ti10 2.004028 1_555
O54 Ti2 2.023408 1_555
O55 Ti11 1.942046 1_455
O55 Ti8 1.981998 1_555
O56 Ti18 1.786276 1_555
O57 Ti12 1.868732 1_455
O58 Ti2 1.833101 1_555
O58 Ti5 2.255347 1_555
O59 Ti14 1.994988 1_665
O59 Ti1 2.013070 1_555
O60 Ti6 1.897895 1_555
O61 Ti2 2.021020 1_455
O61 Ti11 2.023390 1_455
O62 Ti1 1.834838 1_555
O62 Ti13 2.207392 1_655
O63 Ti5 1.897895 1_555
O64 Ti10 1.950666 1_555
O64 Ti2 2.195183 1_455
O65 Ti10 1.984456 1_555
O65 Ti15 1.984781 1_565
O66 Ti3 2.021020 1_555
O66 Ti9 2.023390 1_555
O67 Ti17 2.004028 1_655
O67 Ti4 2.023408 1_555
