# generated using pymatgen
data_Ca(AlCl4)2
_symmetry_space_group_name_H-M   'P 1'
_cell_length_a   12.71595270
_cell_length_b   12.71594591
_cell_length_c   12.71596786
_cell_angle_alpha   126.39382376
_cell_angle_beta   126.39409754
_cell_angle_gamma   79.24140331
_symmetry_Int_Tables_number   1
_chemical_formula_structural   Ca(AlCl4)2
_chemical_formula_sum   'Ca4 Al8 Cl32'
_cell_volume   1288.14591168
_cell_formula_units_Z   4
loop_
 _symmetry_equiv_pos_site_id
 _symmetry_equiv_pos_as_xyz
  1  'x, y, z'
loop_
 _atom_site_type_symbol
 _atom_site_label
 _atom_site_symmetry_multiplicity
 _atom_site_fract_x
 _atom_site_fract_y
 _atom_site_fract_z
 _atom_site_occupancy
  Ca  Ca0  1  0.00000131  0.00000133  0.00000009  1
  Ca  Ca1  1  0.74999949  0.24999966  0.50000017  1
  Ca  Ca2  1  0.24999857  0.74999874  0.50000053  1
  Ca  Ca3  1  0.50000071  0.50000016  -0.00000025  1
  Al  Al0  1  0.60049793  0.87500097  0.22549812  1
  Al  Al1  1  0.12500071  0.85049931  0.22549989  1
  Al  Al2  1  0.12500016  0.35049539  0.72549579  1
  Al  Al3  1  0.64950278  0.37499845  0.77450185  1
  Al  Al4  1  0.62499985  0.89950128  0.77449991  1
  Al  Al5  1  0.10049793  0.87499969  0.72549791  1
  Al  Al6  1  0.14950265  0.37499896  0.27450107  1
  Al  Al7  1  0.62499900  0.39950389  0.27450360  1
  Cl  Cl0  1  0.56510102  0.20303450  0.19486314  1
  Cl  Cl1  1  0.12024018  0.81510248  0.86206746  1
  Cl  Cl2  1  0.74183056  0.87976001  0.69486120  1
  Cl  Cl3  1  0.25517414  0.22397592  0.21818836  1
  Cl  Cl4  1  0.75517419  0.53698574  0.03119990  1
  Cl  Cl5  1  0.78698544  0.50517389  0.53119817  1
  Cl  Cl6  1  0.18489902  0.04696965  0.30513875  1
  Cl  Cl7  1  0.95303618  0.25817278  0.13793226  1
  Cl  Cl8  1  0.50816979  0.70303146  0.63793007  1
  Cl  Cl9  1  0.27602265  0.24482688  0.78181118  1
  Cl  Cl10  1  0.00578702  0.03698486  0.78181235  1
  Cl  Cl11  1  0.99482347  0.71301279  0.46879765  1
  Cl  Cl12  1  0.96301272  0.74482659  0.96879921  1
  Cl  Cl13  1  0.12976079  0.49182710  0.19486407  1
  Cl  Cl14  1  0.24182818  0.54696549  0.86206681  1
  Cl  Cl15  1  0.62024065  0.75817225  0.30513745  1
  Cl  Cl16  1  0.74421318  0.21301422  0.71818816  1
  Cl  Cl17  1  0.29696398  0.93489737  0.80513683  1
  Cl  Cl18  1  0.45303407  0.31510236  0.69486152  1
  Cl  Cl19  1  0.00817110  0.37023892  0.80513693  1
  Cl  Cl20  1  0.28698603  0.75578701  0.28181310  1
  Cl  Cl21  1  0.46301540  0.49421215  0.21818799  1
  Cl  Cl22  1  0.62975965  0.43489728  0.63793186  1
  Cl  Cl23  1  0.68489877  0.37976143  0.13793323  1
  Cl  Cl24  1  0.24421259  0.52602382  0.53119899  1
  Cl  Cl25  1  0.49482647  0.02602376  0.28181168  1
  Cl  Cl26  1  0.06510113  0.87023968  0.36207036  1
  Cl  Cl27  1  0.47397501  0.00517300  0.71818708  1
  Cl  Cl28  1  0.50579063  0.72397470  0.96880244  1
  Cl  Cl29  1  0.97397449  0.25579065  0.46880296  1
  Cl  Cl30  1  0.79696516  0.99182783  0.36206815  1
  Cl  Cl31  1  0.77602728  0.99421359  0.03120004  1
loop_
_geom_bond_atom_site_label_1
_geom_bond_atom_site_label_2
_geom_bond_distance
_geom_bond_site_symmetry_2
Ca0 Cl7 2.808661 1_455
Ca0 Cl6 2.808663 1_555
Ca0 Cl1 2.808667 1_544
Ca0 Cl2 2.808668 1_444
Ca0 Cl10 3.118930 1_554
Ca0 Cl3 3.118955 1_555
Ca0 Cl31 3.118962 1_445
Ca0 Cl12 3.118967 1_444
Ca1 Cl19 2.808665 1_655
Ca1 Cl22 2.808665 1_555
Ca1 Cl0 2.808666 1_555
Ca1 Cl30 2.808667 1_545
Ca1 Cl16 3.118954 1_555
Ca1 Cl29 3.118961 1_555
Ca1 Cl25 3.118966 1_555
Ca1 Cl5 3.118972 1_555
Ca2 Cl26 2.808656 1_555
Ca2 Cl8 2.808659 1_555
Ca2 Cl17 2.808666 1_555
Ca2 Cl13 2.808673 1_555
Ca2 Cl11 3.118948 1_455
Ca2 Cl24 3.118951 1_555
Ca2 Cl20 3.118981 1_555
Ca2 Cl27 3.118988 1_565
Ca3 Cl23 2.808657 1_555
Ca3 Cl14 2.808665 1_554
Ca3 Cl18 2.808677 1_554
Ca3 Cl15 2.808680 1_555
Ca3 Cl4 3.118946 1_555
Ca3 Cl28 3.118950 1_554
Ca3 Cl21 3.118970 1_555
Ca3 Cl9 3.118985 1_554
Al0 Cl25 2.133738 1_565
Al0 Cl28 2.133769 1_554
Al0 Cl30 2.154029 1_555
Al0 Cl15 2.154037 1_555
Al1 Cl20 2.133759 1_555
Al1 Cl12 2.133798 1_454
Al1 Cl26 2.154074 1_555
Al1 Cl6 2.154078 1_565
Al2 Cl9 2.133711 1_555
Al2 Cl29 2.133746 1_455
Al2 Cl19 2.154061 1_555
Al2 Cl14 2.154063 1_555
Al3 Cl16 2.133740 1_555
Al3 Cl4 2.133782 1_556
Al3 Cl18 2.154040 1_555
Al3 Cl22 2.154042 1_555
Al4 Cl27 2.133750 1_565
Al4 Cl31 2.133793 1_556
Al4 Cl2 2.154064 1_555
Al4 Cl8 2.154076 1_555
Al5 Cl10 2.133753 1_565
Al5 Cl11 2.133794 1_455
Al5 Cl17 2.154022 1_555
Al5 Cl1 2.154025 1_555
Al6 Cl3 2.133738 1_555
Al6 Cl24 2.133781 1_555
Al6 Cl13 2.154009 1_555
Al6 Cl7 2.154022 1_455
Al7 Cl21 2.133718 1_555
Al7 Cl5 2.133752 1_555
Al7 Cl0 2.154057 1_555
Al7 Cl23 2.154063 1_555
