# generated using pymatgen
data_K5U2O4F9
_symmetry_space_group_name_H-M   'P 1'
_cell_length_a   10.47210045
_cell_length_b   10.47210045
_cell_length_c   11.71758246
_cell_angle_alpha   78.82069914
_cell_angle_beta   78.82069914
_cell_angle_gamma   34.77241974
_symmetry_Int_Tables_number   1
_chemical_formula_structural   K5U2O4F9
_chemical_formula_sum   'K10 U4 O8 F18'
_cell_volume   717.57937066
_cell_formula_units_Z   2
loop_
 _symmetry_equiv_pos_site_id
 _symmetry_equiv_pos_as_xyz
  1  'x, y, z'
loop_
 _atom_site_type_symbol
 _atom_site_label
 _atom_site_symmetry_multiplicity
 _atom_site_fract_x
 _atom_site_fract_y
 _atom_site_fract_z
 _atom_site_occupancy
  K  K0  1  0.42172900  0.93954800  0.86653500  1
  K  K1  1  0.76961800  0.27573100  0.08107100  1
  K  K2  1  0.23038200  0.72426900  0.91892900  1
  K  K3  1  0.57827100  0.06045200  0.13346500  1
  K  K4  1  0.93954800  0.42172900  0.36653500  1
  K  K5  1  0.72426900  0.23038200  0.41892900  1
  K  K6  1  0.00000000  0.50000000  0.00000000  1
  K  K7  1  0.27573100  0.76961800  0.58107100  1
  K  K8  1  0.06045200  0.57827100  0.63346500  1
  K  K9  1  0.50000000  0.00000000  0.50000000  1
  U  U0  1  0.36988300  0.85532200  0.21558400  1
  U  U1  1  0.63011700  0.14467800  0.78441600  1
  U  U2  1  0.85532200  0.36988300  0.71558400  1
  U  U3  1  0.14467800  0.63011700  0.28441600  1
  O  O0  1  0.33958500  0.37188100  0.85048900  1
  O  O1  1  0.37188100  0.33958500  0.35048900  1
  O  O2  1  0.62811900  0.66041500  0.64951100  1
  O  O3  1  0.07853100  0.08052400  0.28038700  1
  O  O4  1  0.66041500  0.62811900  0.14951100  1
  O  O5  1  0.08052400  0.07853100  0.78038700  1
  O  O6  1  0.92146900  0.91947600  0.71961300  1
  O  O7  1  0.91947600  0.92146900  0.21961300  1
  F  F0  1  0.58815600  0.41184400  0.75000000  1
  F  F1  1  0.76307600  0.10376800  0.93888800  1
  F  F2  1  0.34117900  0.47843800  0.11170900  1
  F  F3  1  0.69768300  0.90843600  0.91831800  1
  F  F4  1  0.41184400  0.58815600  0.25000000  1
  F  F5  1  0.40449900  0.00201600  0.30168600  1
  F  F6  1  0.90843600  0.69768300  0.41831800  1
  F  F7  1  0.09156400  0.30231700  0.58168200  1
  F  F8  1  0.89623200  0.23692400  0.56111200  1
  F  F9  1  0.10376800  0.76307600  0.43888800  1
  F  F10  1  0.47843800  0.34117900  0.61170900  1
  F  F11  1  0.52156200  0.65882100  0.38829100  1
  F  F12  1  0.59550100  0.99798400  0.69831400  1
  F  F13  1  0.30231700  0.09156400  0.08168200  1
  F  F14  1  0.65882100  0.52156200  0.88829100  1
  F  F15  1  0.23692400  0.89623200  0.06111200  1
  F  F16  1  0.99798400  0.59550100  0.19831400  1
  F  F17  1  0.00201600  0.40449900  0.80168600  1
loop_
_geom_bond_atom_site_label_1
_geom_bond_atom_site_label_2
_geom_bond_distance
_geom_bond_site_symmetry_2
K0 O5 2.861795 1_565
K0 O2 3.170917 1_555
K1 O7 2.819428 1_545
K1 O4 3.070461 1_555
K1 O3 3.211329 1_655
K2 O5 2.819428 1_565
K2 O0 3.070461 1_555
K2 O6 3.211329 1_455
K3 O7 2.861795 1_545
K3 O1 3.170917 1_555
K4 O3 2.861795 1_655
K4 O4 3.170917 1_555
K5 O3 2.819428 1_655
K5 O1 3.070461 1_555
K5 O7 3.211329 1_545
K6 O0 2.858822 1_554
K6 O4 2.858822 1_455
K7 O6 2.819428 1_455
K7 O2 3.070461 1_555
K7 O5 3.211329 1_565
K8 O6 2.861795 1_455
K8 O0 3.170917 1_555
K9 O2 2.858822 1_545
K9 O1 2.858822 1_555
O0 U1 1.850822 1_555
O1 U3 1.850822 1_555
O2 U2 1.850822 1_555
O3 U0 1.849964 1_545
O4 U0 1.850822 1_555
O5 U2 1.849964 1_455
O6 U1 1.849964 1_565
O7 U3 1.849964 1_655
F0 U1 2.407246 1_555
F0 U2 2.407246 1_555
F0 K7 2.856081 1_555
F0 K2 2.856081 1_555
F1 U1 2.257217 1_555
F1 K1 2.726467 1_556
F1 K2 2.786181 1_645
F1 K3 2.911979 1_556
F2 U3 2.261584 1_555
F2 K2 2.632590 1_554
F2 K3 2.710675 1_555
F2 K1 2.964683 1_555
F3 U1 2.265488 1_565
F3 K6 2.564145 1_656
F3 K3 2.741674 1_566
F3 K0 2.807464 1_555
F4 U3 2.407246 1_555
F4 U0 2.407246 1_555
F4 K1 2.856081 1_555
F4 K5 2.856081 1_555
F5 U0 2.273071 1_545
F5 K9 2.692200 1_555
F5 K3 2.746315 1_555
F5 K4 2.881934 1_455
F6 U3 2.265488 1_655
F6 K9 2.564145 1_565
F6 K8 2.741674 1_655
F6 K4 2.807464 1_555
F7 U2 2.265488 1_455
F7 K9 2.564145 1_555
F7 K4 2.741674 1_455
F7 K8 2.807464 1_555
F8 U2 2.257217 1_555
F8 K5 2.726467 1_555
F8 K7 2.786181 1_645
F8 K4 2.911979 1_555
F9 U3 2.257217 1_555
F9 K7 2.726467 1_555
F9 K5 2.786181 1_465
F9 K8 2.911979 1_555
F10 U1 2.261584 1_555
F10 K5 2.632590 1_555
F10 K8 2.710675 1_555
F10 K7 2.964683 1_555
F11 U0 2.261584 1_555
F11 K7 2.632590 1_555
F11 K4 2.710675 1_555
F11 K5 2.964683 1_555
F12 U1 2.273071 1_565
F12 K9 2.692200 1_565
F12 K0 2.746315 1_555
F12 K8 2.881934 1_655
F13 U0 2.265488 1_545
F13 K6 2.564145 1_555
F13 K0 2.741674 1_544
F13 K3 2.807464 1_555
F14 U2 2.261584 1_555
F14 K1 2.632590 1_556
F14 K0 2.710675 1_555
F14 K2 2.964683 1_555
F15 U0 2.257217 1_555
F15 K2 2.726467 1_554
F15 K1 2.786181 1_465
F15 K0 2.911979 1_554
F16 U3 2.273071 1_655
F16 K6 2.692200 1_655
F16 K4 2.746315 1_555
F16 K3 2.881934 1_565
F17 U2 2.273071 1_455
F17 K6 2.692200 1_556
F17 K8 2.746315 1_555
F17 K0 2.881934 1_545
