# generated using pymatgen
data_Na4MgC6(SN)6
_symmetry_space_group_name_H-M   'P 1'
_cell_length_a   8.74645146
_cell_length_b   8.74645146
_cell_length_c   14.08479800
_cell_angle_alpha   90.00000000
_cell_angle_beta   90.00000000
_cell_angle_gamma   119.99999591
_symmetry_Int_Tables_number   1
_chemical_formula_structural   Na4MgC6(SN)6
_chemical_formula_sum   'Na8 Mg2 C12 S12 N12'
_cell_volume   933.13623260
_cell_formula_units_Z   2
loop_
 _symmetry_equiv_pos_site_id
 _symmetry_equiv_pos_as_xyz
  1  'x, y, z'
loop_
 _atom_site_type_symbol
 _atom_site_label
 _atom_site_symmetry_multiplicity
 _atom_site_fract_x
 _atom_site_fract_y
 _atom_site_fract_z
 _atom_site_occupancy
  Na  Na0  1  0.33333300  0.66666700  0.97482600  1
  Na  Na1  1  0.66666700  0.33333300  0.47482600  1
  Na  Na2  1  0.66666700  0.33333300  0.02517400  1
  Na  Na3  1  0.33333300  0.66666700  0.52517400  1
  Na  Na4  1  0.00000000  0.00000000  0.00000000  1
  Na  Na5  1  0.33333300  0.66666700  0.25000000  1
  Na  Na6  1  0.00000000  0.00000000  0.50000000  1
  Na  Na7  1  0.66666700  0.33333300  0.75000000  1
  Mg  Mg0  1  0.66666700  0.33333300  0.25000000  1
  Mg  Mg1  1  0.33333300  0.66666700  0.75000000  1
  C  C0  1  0.34203200  0.99872800  0.36432200  1
  C  C1  1  0.65796800  0.00127200  0.63567800  1
  C  C2  1  0.34330400  0.00127200  0.86432200  1
  C  C3  1  0.99872800  0.65669600  0.63567800  1
  C  C4  1  0.00127200  0.34330400  0.36432200  1
  C  C5  1  0.34330400  0.34203200  0.63567800  1
  C  C6  1  0.99872800  0.34203200  0.86432200  1
  C  C7  1  0.65669600  0.99872800  0.13567800  1
  C  C8  1  0.00127200  0.65796800  0.13567800  1
  C  C9  1  0.65796800  0.65669600  0.86432200  1
  C  C10  1  0.65669600  0.65796800  0.36432200  1
  C  C11  1  0.34203200  0.34330400  0.13567800  1
  S  S0  1  0.16617200  0.81290600  0.39210900  1
  S  S1  1  0.64673500  0.81290600  0.10789100  1
  S  S2  1  0.83382800  0.18709400  0.60789100  1
  S  S3  1  0.18709400  0.35326500  0.39210900  1
  S  S4  1  0.64673500  0.83382800  0.39210900  1
  S  S5  1  0.16617200  0.35326500  0.10789100  1
  S  S6  1  0.83382800  0.64673500  0.89210900  1
  S  S7  1  0.35326500  0.16617200  0.60789100  1
  S  S8  1  0.81290600  0.64673500  0.60789100  1
  S  S9  1  0.81290600  0.16617200  0.89210900  1
  S  S10  1  0.35326500  0.18709400  0.89210900  1
  S  S11  1  0.18709400  0.83382800  0.10789100  1
  N  N0  1  0.33724000  0.86737300  0.84288300  1
  N  N1  1  0.53013300  0.66276000  0.84288300  1
  N  N2  1  0.13262700  0.66276000  0.65711700  1
  N  N3  1  0.86737300  0.53013300  0.15711700  1
  N  N4  1  0.53013300  0.86737300  0.65711700  1
  N  N5  1  0.13262700  0.46986700  0.84288300  1
  N  N6  1  0.86737300  0.33724000  0.34288300  1
  N  N7  1  0.33724000  0.46986700  0.65711700  1
  N  N8  1  0.46986700  0.33724000  0.15711700  1
  N  N9  1  0.46986700  0.13262700  0.34288300  1
  N  N10  1  0.66276000  0.53013300  0.34288300  1
  N  N11  1  0.66276000  0.13262700  0.15711700  1
loop_
_geom_bond_atom_site_label_1
_geom_bond_atom_site_label_2
_geom_bond_distance
_geom_bond_site_symmetry_2
Na0 S11 3.025946 1_556
Na0 S5 3.025958 1_556
Na0 S1 3.025959 1_556
Na1 S2 3.025946 1_555
Na1 S7 3.025958 1_555
Na1 S8 3.025959 1_555
Na2 S9 3.025946 1_554
Na2 S6 3.025958 1_554
Na2 S10 3.025959 1_554
Na3 S0 3.025946 1_555
Na3 S4 3.025958 1_555
Na3 S3 3.025959 1_555
Na4 S5 3.078611 1_555
Na4 S6 3.078611 1_444
Na4 S1 3.078611 1_445
Na4 S10 3.078611 1_554
Na4 S11 3.078617 1_545
Na4 S9 3.078617 1_454
Na5 S0 3.106454 1_555
Na5 S11 3.106454 1_555
Na5 S4 3.106466 1_555
Na5 S5 3.106466 1_555
Na5 S1 3.106466 1_555
Na5 S3 3.106466 1_555
Na6 S7 3.078611 1_555
Na6 S4 3.078611 1_445
Na6 S3 3.078611 1_555
Na6 S8 3.078611 1_445
Na6 S2 3.078617 1_455
Na6 S0 3.078617 1_545
Na7 S9 3.106454 1_555
Na7 S2 3.106454 1_555
Na7 S6 3.106466 1_555
Na7 S7 3.106466 1_555
Na7 S10 3.106466 1_555
Na7 S8 3.106466 1_555
Mg0 N6 2.175850 1_555
Mg0 N11 2.175850 1_555
Mg0 N3 2.175854 1_555
Mg0 N9 2.175854 1_555
Mg0 N10 2.175857 1_555
Mg0 N8 2.175857 1_555
Mg1 N0 2.175850 1_555
Mg1 N2 2.175850 1_555
Mg1 N5 2.175854 1_555
Mg1 N4 2.175854 1_555
Mg1 N1 2.175857 1_555
Mg1 N7 2.175857 1_555
C0 N9 1.184674 1_565
C0 S0 1.631164 1_555
C1 N4 1.184674 1_545
C1 S2 1.631164 1_555
C2 N0 1.184673 1_545
C2 S10 1.631168 1_555
C3 N2 1.184673 1_655
C3 S8 1.631168 1_555
C4 N6 1.184673 1_455
C4 S3 1.631168 1_555
C5 N7 1.184673 1_555
C5 S7 1.631160 1_555
C6 N5 1.184674 1_655
C6 S9 1.631164 1_555
C7 N11 1.184673 1_565
C7 S1 1.631168 1_555
C8 N3 1.184674 1_455
C8 S11 1.631164 1_555
C9 N1 1.184673 1_555
C9 S6 1.631160 1_555
C10 N10 1.184673 1_555
C10 S4 1.631160 1_555
C11 N8 1.184673 1_555
C11 S5 1.631160 1_555
N0 Na0 2.544888 1_555
N1 Na0 2.544894 1_555
N2 Na3 2.544888 1_555
N3 Na2 2.544891 1_555
N4 Na3 2.544891 1_555
N5 Na0 2.544891 1_555
N6 Na1 2.544888 1_555
N7 Na3 2.544894 1_555
N8 Na2 2.544894 1_555
N9 Na1 2.544891 1_555
N10 Na1 2.544894 1_555
N11 Na2 2.544888 1_555
