# generated using pymatgen
data_Cs5(KPb6)3
_symmetry_space_group_name_H-M   'P 1'
_cell_length_a   10.12788100
_cell_length_b   15.65650019
_cell_length_c   15.79671692
_cell_angle_alpha   104.77357076
_cell_angle_beta   97.27604316
_cell_angle_gamma   100.03159976
_symmetry_Int_Tables_number   1
_chemical_formula_structural   Cs5(KPb6)3
_chemical_formula_sum   'Cs10 K6 Pb36'
_cell_volume   2346.19629504
_cell_formula_units_Z   2
loop_
 _symmetry_equiv_pos_site_id
 _symmetry_equiv_pos_as_xyz
  1  'x, y, z'
loop_
 _atom_site_type_symbol
 _atom_site_label
 _atom_site_symmetry_multiplicity
 _atom_site_fract_x
 _atom_site_fract_y
 _atom_site_fract_z
 _atom_site_occupancy
  Cs  Cs0  1  0.74660700  0.65160400  0.82886900  1
  Cs  Cs1  1  0.40078600  0.33578500  0.46905700  1
  Cs  Cs2  1  0.06392400  0.33650900  0.26648100  1
  Cs  Cs3  1  0.66791000  0.06318900  0.81769400  1
  Cs  Cs4  1  0.20467800  0.12183100  0.83434400  1
  Cs  Cs5  1  0.81088700  0.84705600  0.38358500  1
  Cs  Cs6  1  0.28230800  0.02875800  0.47276500  1
  Cs  Cs7  1  0.59468600  0.15599000  0.17756800  1
  Cs  Cs8  1  0.47399600  0.84651300  0.17990700  1
  Cs  Cs9  1  0.12964400  0.53336100  0.82018900  1
  K  K0  1  0.03381100  0.64228200  0.20619300  1
  K  K1  1  0.50525300  0.37211700  0.76466100  1
  K  K2  1  0.95474700  0.33676100  0.99378200  1
  K  K3  1  0.92001000  0.85140400  0.65639300  1
  K  K4  1  0.83351200  0.53851100  0.45029600  1
  K  K5  1  0.35796800  0.81541700  0.88256000  1
  Pb  Pb0  1  0.00330200  0.17949700  0.44016200  1
  Pb  Pb1  1  0.72227700  0.93092100  0.00585600  1
  Pb  Pb2  1  0.15388500  0.68259600  0.63846700  1
  Pb  Pb3  1  0.46990700  0.59721000  0.01137000  1
  Pb  Pb4  1  0.76008400  0.29031400  0.43841700  1
  Pb  Pb5  1  0.82065700  0.78856600  0.09733000  1
  Pb  Pb6  1  0.40254000  0.58665300  0.63814700  1
  Pb  Pb7  1  0.33686800  0.29604400  0.09786400  1
  Pb  Pb8  1  0.56695000  0.29450200  0.97561900  1
  Pb  Pb9  1  0.63682300  0.19573200  0.60942000  1
  Pb  Pb10  1  0.05428400  0.39369900  0.55261500  1
  Pb  Pb11  1  0.14798500  0.77446300  0.48162200  1
  Pb  Pb12  1  0.72665900  0.41063800  0.16815800  1
  Pb  Pb13  1  0.63747300  0.60690400  0.19879900  1
  Pb  Pb14  1  0.53795000  0.88824700  0.55325200  1
  Pb  Pb15  1  0.15226500  0.25067000  0.64299100  1
  Pb  Pb16  1  0.08848400  0.78228200  0.01138700  1
  Pb  Pb17  1  0.30671100  0.89039400  0.67419400  1
  Pb  Pb18  1  0.55254700  0.79423300  0.70684000  1
  Pb  Pb19  1  0.71908100  0.50211900  0.01077700  1
  Pb  Pb20  1  0.23544100  0.57769700  0.45090400  1
  Pb  Pb21  1  0.23827800  0.98838100  0.04291900  1
  Pb  Pb22  1  0.98264800  0.09522100  0.04844800  1
  Pb  Pb23  1  0.49185000  0.45148900  0.27426800  1
  Pb  Pb24  1  0.69467500  0.08342200  0.42715400  1
  Pb  Pb25  1  0.87004700  0.00290700  0.20927200  1
  Pb  Pb26  1  0.30049300  0.51139000  0.13887000  1
  Pb  Pb27  1  0.96634500  0.90560800  0.90214800  1
  Pb  Pb28  1  0.89140300  0.08788300  0.60267900  1
  Pb  Pb29  1  0.78702200  0.40092900  0.64018100  1
  Pb  Pb30  1  0.17884400  0.09937700  0.22454600  1
  Pb  Pb31  1  0.91087700  0.27794400  0.74866100  1
  Pb  Pb32  1  0.38351700  0.73303800  0.37617200  1
  Pb  Pb33  1  0.57377900  0.67372100  0.51241900  1
  Pb  Pb34  1  0.11388600  0.89208700  0.21286500  1
  Pb  Pb35  1  0.31983500  0.38973500  0.94436400  1
loop_
_geom_bond_atom_site_label_1
_geom_bond_atom_site_label_2
_geom_bond_distance
_geom_bond_site_symmetry_2
Cs0 Pb18 3.915358 1_555
Cs0 Pb27 4.003023 1_555
Cs0 Pb16 4.059858 1_656
Cs0 Pb6 4.098485 1_555
Cs0 Pb5 4.140216 1_556
Cs0 Pb19 4.149462 1_556
Cs0 Pb3 4.399651 1_556
Cs0 Pb29 4.399737 1_555
Cs0 K1 4.419673 1_555
Cs0 Cs9 4.582866 1_655
Cs0 K3 4.892611 1_555
Cs1 Pb4 3.893046 1_555
Cs1 Pb10 4.068329 1_555
Cs1 Pb23 4.071839 1_555
Cs1 Pb6 4.144277 1_555
Cs1 Pb0 4.234974 1_555
Cs1 Pb15 4.255684 1_555
Cs1 Pb29 4.263196 1_555
Cs1 Pb9 4.289789 1_555
Cs1 Cs2 4.375683 1_555
Cs1 Pb20 4.457972 1_555
Cs1 K1 4.520192 1_555
Cs1 Pb30 4.613280 1_555
Cs1 Cs6 4.764675 1_555
Cs2 Pb30 4.002963 1_555
Cs2 Pb12 4.047657 1_455
Cs2 Pb20 4.072651 1_555
Cs2 Pb7 4.092956 1_555
Cs2 Pb0 4.157862 1_555
Cs2 Pb22 4.286505 1_455
Cs2 K2 4.310803 1_454
Cs2 Pb26 4.365061 1_555
Cs2 Pb23 4.367284 1_555
Cs2 Pb10 4.395412 1_555
Cs2 Pb4 4.439920 1_455
Cs2 K4 4.845958 1_455
Cs2 Cs7 4.914390 1_455
Cs3 Pb18 4.021243 1_545
Cs3 Pb1 4.067962 1_546
Cs3 Pb17 4.142928 1_545
Cs3 Pb8 4.208707 1_555
Cs3 Pb14 4.266209 1_545
Cs3 Pb31 4.268113 1_555
Cs3 Pb9 4.321690 1_555
Cs3 Pb28 4.372826 1_555
Cs3 Pb22 4.389443 1_556
Cs3 Pb27 4.500830 1_545
Cs3 K2 4.697275 1_555
Cs3 K3 4.928948 1_545
Cs3 K5 4.954976 1_545
Cs3 Cs4 4.961139 1_555
Cs3 Cs4 5.314277 1_655
Cs4 Pb35 4.004820 1_555
Cs4 Pb15 4.069893 1_555
Cs4 Pb8 4.140560 1_555
Cs4 Pb17 4.229572 1_545
Cs4 Pb7 4.252768 1_556
Cs4 Pb27 4.253377 1_445
Cs4 Pb21 4.337221 1_546
Cs4 Pb22 4.357494 1_456
Cs4 Pb28 4.384170 1_455
Cs4 Pb31 4.456555 1_455
Cs4 K3 4.665295 1_445
Cs4 K2 4.932972 1_455
Cs4 K1 4.972626 1_555
Cs5 Pb24 3.997191 1_565
Cs5 Pb11 4.031915 1_655
Cs5 Pb13 4.067657 1_555
Cs5 Pb14 4.105687 1_555
Cs5 Pb25 4.150950 1_565
Cs5 K3 4.291314 1_555
Cs5 Pb28 4.291695 1_565
Cs5 Pb32 4.359838 1_555
Cs5 Pb33 4.365510 1_555
Cs5 Cs8 4.380520 1_555
Cs5 Pb5 4.396465 1_555
Cs5 Pb34 4.415793 1_655
Cs5 K0 4.771895 1_655
Cs5 Cs6 4.939012 1_665
Cs6 Pb14 3.966941 1_545
Cs6 Pb11 4.020815 1_545
Cs6 Pb9 4.034149 1_555
Cs6 Pb0 4.049005 1_555
Cs6 Pb34 4.100994 1_545
Cs6 Pb17 4.287337 1_545
Cs6 Pb24 4.304114 1_555
Cs6 Pb15 4.331649 1_555
Cs6 Pb30 4.389643 1_555
Cs7 Pb7 3.972592 1_555
Cs7 Pb12 4.024926 1_555
Cs7 Pb21 4.043348 1_545
Cs7 Pb25 4.044719 1_555
Cs7 Pb4 4.100322 1_555
Cs7 Pb8 4.297933 1_554
Cs7 Pb30 4.347473 1_555
Cs7 Pb1 4.363952 1_545
Cs7 Pb24 4.419821 1_555
Cs7 Cs8 4.797089 1_545
Cs8 Pb34 3.908966 1_555
Cs8 Pb5 4.064184 1_555
Cs8 Pb32 4.070605 1_555
Cs8 Pb3 4.115922 1_555
Cs8 Pb25 4.222304 1_565
Cs8 Pb16 4.239862 1_555
Cs8 Pb1 4.251522 1_555
Cs8 Pb21 4.278512 1_555
Cs8 Pb13 4.417385 1_555
Cs8 K5 4.573514 1_554
Cs8 Pb24 4.638976 1_565
Cs9 Pb35 3.926340 1_555
Cs9 Pb31 4.018955 1_455
Cs9 Pb29 4.051311 1_455
Cs9 Pb3 4.076734 1_556
Cs9 Pb10 4.137319 1_555
Cs9 Pb2 4.142371 1_555
Cs9 Pb6 4.363258 1_555
Cs9 Pb16 4.400705 1_556
Cs9 K5 4.411982 1_555
K0 Pb26 3.764312 1_555
K0 Pb34 3.824710 1_555
K0 Pb13 3.937869 1_455
K0 Pb5 3.956510 1_455
K0 Pb32 3.957911 1_555
K0 Pb19 4.015113 1_455
K1 Pb35 3.576631 1_555
K1 Pb29 3.693122 1_555
K1 Pb9 3.751209 1_555
K1 Pb15 3.757366 1_555
K1 Pb8 3.843778 1_555
K1 Pb19 4.030366 1_556
K2 Pb31 3.693480 1_555
K2 Pb19 3.798947 1_556
K2 Pb8 3.828611 1_555
K2 Pb35 3.868107 1_655
K2 Pb12 3.896096 1_556
K2 Pb26 4.052870 1_656
K2 Pb22 4.135522 1_556
K2 Pb7 4.227223 1_656
K3 Pb27 3.705519 1_555
K3 Pb17 3.819814 1_655
K3 Pb2 3.826884 1_655
K3 Pb18 3.903995 1_555
K3 Pb11 3.910463 1_655
K3 Pb28 4.052843 1_565
K3 Pb33 4.069685 1_555
K3 Pb14 4.197620 1_555
K4 Pb33 3.728075 1_555
K4 Pb4 3.778155 1_555
K4 Pb10 3.933441 1_655
K4 Pb23 3.943386 1_555
K4 Pb2 4.004972 1_655
K4 Pb20 4.007996 1_655
K4 Pb29 4.142296 1_555
K5 Pb18 3.583628 1_555
K5 Pb16 3.648515 1_556
K5 Pb21 3.693580 1_556
K5 Pb17 3.772463 1_555
K5 Pb1 3.838790 1_556
K5 Pb2 3.982307 1_555
Pb0 Pb24 3.180683 1_455
Pb0 Pb15 3.186328 1_555
Pb0 Pb4 3.251905 1_455
Pb0 Pb10 3.285618 1_555
Pb0 Pb28 3.461368 1_455
Pb1 Pb27 3.160235 1_554
Pb1 Pb5 3.178000 1_555
Pb1 Pb25 3.191023 1_565
Pb1 Pb22 3.213761 1_565
Pb2 Pb6 3.148928 1_555
Pb2 Pb20 3.281621 1_555
Pb3 Pb35 3.178224 1_554
Pb4 Pb9 3.646702 1_555
Pb7 Pb8 3.208626 1_554
Pb10 Pb15 3.175420 1_555
Pb10 Pb4 3.197107 1_455
Pb10 Pb29 3.198164 1_455
Pb11 Pb32 3.143286 1_555
Pb11 Pb2 3.165579 1_555
Pb11 Pb17 3.171968 1_555
Pb11 Pb20 3.287495 1_555
Pb12 Pb23 3.141172 1_555
Pb12 Pb19 3.169221 1_555
Pb12 Pb8 3.175204 1_554
Pb12 Pb13 3.288111 1_555
Pb13 Pb3 3.174524 1_555
Pb13 Pb23 3.192448 1_555
Pb13 Pb19 3.287156 1_555
Pb13 Pb26 3.385541 1_555
Pb14 Pb18 3.143417 1_555
Pb14 Pb17 3.203729 1_555
Pb14 Pb32 3.205795 1_555
Pb14 Pb33 3.347801 1_555
Pb15 Pb31 3.159011 1_455
Pb15 Pb28 3.206491 1_455
Pb16 Pb34 3.162158 1_555
Pb16 Pb5 3.188764 1_455
Pb16 Pb27 3.197941 1_454
Pb16 Pb21 3.200825 1_555
Pb17 Pb18 3.179363 1_555
Pb17 Pb2 3.222848 1_555
Pb18 Pb6 3.179883 1_555
Pb18 Pb33 3.223647 1_555
Pb19 Pb3 3.145308 1_555
Pb19 Pb8 3.219665 1_554
Pb20 Pb6 3.173379 1_555
Pb20 Pb32 3.193719 1_555
Pb20 Pb33 3.400464 1_555
Pb21 Pb30 3.142157 1_565
Pb21 Pb27 3.153575 1_454
Pb21 Pb22 3.316635 1_465
Pb21 Pb34 3.650515 1_555
Pb22 Pb30 3.186436 1_655
Pb22 Pb27 3.227208 1_544
Pb22 Pb25 3.446131 1_555
Pb23 Pb26 3.133121 1_555
Pb23 Pb7 3.202257 1_555
Pb24 Pb4 3.145092 1_555
Pb24 Pb9 3.151074 1_555
Pb24 Pb28 3.180576 1_555
Pb25 Pb30 3.177710 1_655
Pb25 Pb34 3.258819 1_645
Pb25 Pb5 3.286863 1_545
Pb26 Pb3 3.202845 1_555
Pb26 Pb35 3.225619 1_554
Pb26 Pb7 3.361861 1_555
Pb28 Pb31 3.223682 1_555
Pb28 Pb9 3.317379 1_555
Pb29 Pb4 3.167346 1_555
Pb29 Pb9 3.191459 1_555
Pb29 Pb31 3.193337 1_555
Pb30 Pb34 3.149557 1_545
Pb31 Pb9 3.156539 1_555
Pb32 Pb33 3.130518 1_555
Pb33 Pb6 3.200030 1_555
Pb34 Pb5 3.196726 1_455
Pb35 Pb7 3.139636 1_556
Pb35 Pb8 3.176970 1_555
