# generated using pymatgen
data_ZnS
_symmetry_space_group_name_H-M   'P 1'
_cell_length_a   3.80747599
_cell_length_b   3.80747464
_cell_length_c   43.59572846
_cell_angle_alpha   90.00000000
_cell_angle_beta   90.00000000
_cell_angle_gamma   119.99997641
_symmetry_Int_Tables_number   1
_chemical_formula_structural   ZnS
_chemical_formula_sum   'Zn14 S14'
_cell_volume   547.32951253
_cell_formula_units_Z   14
loop_
 _symmetry_equiv_pos_site_id
 _symmetry_equiv_pos_as_xyz
  1  'x, y, z'
loop_
 _atom_site_type_symbol
 _atom_site_label
 _atom_site_symmetry_multiplicity
 _atom_site_fract_x
 _atom_site_fract_y
 _atom_site_fract_z
 _atom_site_occupancy
  Zn  Zn0  1  0.66666700  0.33333300  0.07150508  1
  Zn  Zn1  1  -0.00000000  0.00000000  0.64288134  1
  Zn  Zn2  1  0.33333300  0.66666700  0.78574914  1
  Zn  Zn3  1  0.33333300  0.66666700  0.57150508  1
  Zn  Zn4  1  -0.00000000  -0.00000000  0.14288134  1
  Zn  Zn5  1  -0.00000000  0.00000000  0.35715447  1
  Zn  Zn6  1  0.66666700  0.33333300  0.92855966  1
  Zn  Zn7  1  0.33333300  0.66666700  0.21431043  1
  Zn  Zn8  1  0.66666700  0.33333300  0.71431043  1
  Zn  Zn9  1  0.66666700  0.33333300  0.28574914  1
  Zn  Zn10  1  0.33333300  0.66666700  0.00002869  1
  Zn  Zn11  1  0.66666700  0.33333300  0.50002869  1
  Zn  Zn12  1  0.00000000  -0.00000000  0.85715347  1
  Zn  Zn13  1  0.33333300  0.66666700  0.42855966  1
  S  S0  1  0.33333300  0.66666700  0.48204905  1
  S  S1  1  0.33333300  0.66666700  0.05360974  1
  S  S2  1  0.66666700  0.33333300  0.33926316  1
  S  S3  1  0.00000000  -0.00000000  0.41066517  1
  S  S4  1  0.66666700  0.33333300  0.76783467  1
  S  S5  1  -0.00000000  0.00000000  0.91066517  1
  S  S6  1  -0.00000000  0.00000000  0.19640018  1
  S  S7  1  0.66666700  0.33333300  0.12499023  1
  S  S8  1  0.33333300  0.66666700  0.83926316  1
  S  S9  1  0.66666700  0.33333300  0.98204805  1
  S  S10  1  0.66666700  0.33333300  0.55360974  1
  S  S11  1  0.33333300  0.66666700  0.26783467  1
  S  S12  1  0.00000000  -0.00000000  0.69640018  1
  S  S13  1  0.33333300  0.66666700  0.62499023  1
loop_
_geom_bond_atom_site_label_1
_geom_bond_atom_site_label_2
_geom_bond_distance
_geom_bond_site_symmetry_2
S0 Zn13 2.331909 1_555
S0 Zn11 2.333812 1_565
S0 Zn11 2.333813 1_455
S0 Zn11 2.333818 1_555
S1 Zn0 2.332580 1_565
S1 Zn0 2.332581 1_455
S1 Zn0 2.332586 1_555
S1 Zn10 2.335905 1_555
S2 Zn5 2.332521 1_655
S2 Zn5 2.332525 1_665
S2 Zn5 2.332525 1_555
S2 Zn9 2.332983 1_555
S3 Zn13 2.332567 1_545
S3 Zn13 2.332571 1_555
S3 Zn13 2.332572 1_445
S3 Zn5 2.332838 1_555
S4 Zn2 2.332859 1_545
S4 Zn2 2.332860 1_655
S4 Zn2 2.332865 1_555
S4 Zn8 2.333428 1_555
S5 Zn6 2.332567 1_455
S5 Zn6 2.332571 1_445
S5 Zn6 2.332572 1_555
S5 Zn12 2.332882 1_555
S6 Zn7 2.332797 1_545
S6 Zn7 2.332801 1_555
S6 Zn7 2.332802 1_445
S6 Zn4 2.333193 1_555
S7 Zn0 2.331724 1_555
S7 Zn4 2.332518 1_655
S7 Zn4 2.332522 1_665
S7 Zn4 2.332522 1_555
S8 Zn12 2.332507 1_565
S8 Zn12 2.332510 1_555
S8 Zn12 2.332511 1_665
S8 Zn2 2.332983 1_555
S9 Zn6 2.331865 1_555
S9 Zn10 2.333827 1_546
S9 Zn10 2.333827 1_656
S9 Zn10 2.333832 1_556
S10 Zn3 2.332580 1_545
S10 Zn3 2.332581 1_655
S10 Zn3 2.332586 1_555
S10 Zn11 2.335905 1_555
S11 Zn9 2.332859 1_565
S11 Zn9 2.332860 1_455
S11 Zn9 2.332865 1_555
S11 Zn7 2.333428 1_555
S12 Zn8 2.332797 1_455
S12 Zn8 2.332801 1_445
S12 Zn8 2.332802 1_555
S12 Zn1 2.333193 1_555
S13 Zn3 2.331724 1_555
S13 Zn1 2.332518 1_565
S13 Zn1 2.332522 1_555
S13 Zn1 2.332522 1_665
