# generated using pymatgen
data_NiBiAsO5
_symmetry_space_group_name_H-M   'P 1'
_cell_length_a   5.23068953
_cell_length_b   7.59118545
_cell_length_c   11.19298409
_cell_angle_alpha   93.72422613
_cell_angle_beta   96.89145066
_cell_angle_gamma   70.36057101
_symmetry_Int_Tables_number   1
_chemical_formula_structural   NiBiAsO5
_chemical_formula_sum   'Ni4 Bi4 As4 O20'
_cell_volume   415.41822802
_cell_formula_units_Z   4
loop_
 _symmetry_equiv_pos_site_id
 _symmetry_equiv_pos_as_xyz
  1  'x, y, z'
loop_
 _atom_site_type_symbol
 _atom_site_label
 _atom_site_symmetry_multiplicity
 _atom_site_fract_x
 _atom_site_fract_y
 _atom_site_fract_z
 _atom_site_occupancy
  Ni  Ni0  1  0.78055360  0.05193471  0.68742296  1
  Ni  Ni1  1  0.21933165  0.94806755  0.31252286  1
  Ni  Ni2  1  0.28046066  0.55170715  0.18743717  1
  Ni  Ni3  1  0.71964830  0.44828831  0.81262655  1
  Bi  Bi0  1  0.80710264  0.59926651  0.36629872  1
  Bi  Bi1  1  0.30717667  0.09939519  0.86629811  1
  Bi  Bi2  1  0.19299369  0.40077093  0.63372681  1
  Bi  Bi3  1  0.69272564  0.90057054  0.13368171  1
  As  As0  1  0.13030122  0.71161025  0.89949465  1
  As  As1  1  0.62994672  0.21165579  0.39939611  1
  As  As2  1  0.86999613  0.28821476  0.10058786  1
  As  As3  1  0.36973620  0.78849279  0.60051373  1
  O  O0  1  0.49787172  0.27338132  0.77518683  1
  O  O1  1  -0.00237452  0.77322534  0.27515078  1
  O  O2  1  0.50223376  0.72658468  0.22481645  1
  O  O3  1  0.00227621  0.22682602  0.72486364  1
  O  O4  1  0.95554705  0.31283613  0.96177321  1
  O  O5  1  0.45530449  0.81281457  0.46168125  1
  O  O6  1  0.04460998  0.68711747  0.03829551  1
  O  O7  1  0.54455981  0.18723883  0.53825719  1
  O  O8  1  0.00635019  0.57437885  0.79920523  1
  O  O9  1  0.50590634  0.07434947  0.29912384  1
  O  O10  1  0.99397277  0.42548715  0.20089775  1
  O  O11  1  0.49375376  0.92579294  0.70076324  1
  O  O12  1  0.52556576  0.55911297  0.64206851  1
  O  O13  1  0.02582997  0.05875804  0.14194260  1
  O  O14  1  0.47409857  0.44110165  0.35799404  1
  O  O15  1  0.97451458  0.94100893  0.85800344  1
  O  O16  1  0.53064331  0.33323410  0.09628025  1
  O  O17  1  0.03033136  0.83346915  0.59617766  1
  O  O18  1  0.46974383  0.66667704  0.90390423  1
  O  O19  1  0.96928993  0.16663087  0.40360613  1
loop_
_geom_bond_atom_site_label_1
_geom_bond_atom_site_label_2
_geom_bond_distance
_geom_bond_site_symmetry_2
Ni0 O3 2.032087 1_655
Ni0 O17 2.035700 1_645
Ni0 O11 2.056126 1_545
Ni0 O7 2.059674 1_555
Ni0 O0 2.107231 1_555
Ni0 O15 2.133906 1_545
Ni1 O1 2.031638 1_555
Ni1 O19 2.035759 1_465
Ni1 O9 2.055960 1_565
Ni1 O5 2.059438 1_555
Ni1 O2 2.107621 1_555
Ni1 O13 2.132816 1_565
Ni2 O2 2.032136 1_555
Ni2 O16 2.036120 1_555
Ni2 O10 2.055349 1_455
Ni2 O6 2.059498 1_555
Ni2 O1 2.107632 1_555
Ni2 O14 2.132568 1_555
Ni3 O0 2.032401 1_555
Ni3 O18 2.035844 1_555
Ni3 O8 2.055563 1_655
Ni3 O4 2.059736 1_555
Ni3 O3 2.107151 1_655
Ni3 O12 2.133614 1_555
Bi0 O2 2.131126 1_555
Bi0 O1 2.254215 1_655
Bi0 O10 2.318046 1_555
Bi0 O5 2.322774 1_555
Bi0 O14 2.415924 1_555
Bi1 O3 2.131059 1_555
Bi1 O0 2.254775 1_555
Bi1 O11 2.318260 1_545
Bi1 O4 2.322436 1_455
Bi1 O15 2.415592 1_445
Bi2 O0 2.131116 1_555
Bi2 O3 2.254772 1_555
Bi2 O8 2.317876 1_555
Bi2 O7 2.322479 1_555
Bi2 O12 2.414886 1_555
Bi3 O1 2.131159 1_655
Bi3 O2 2.254179 1_555
Bi3 O9 2.318333 1_565
Bi3 O6 2.322782 1_655
Bi3 O13 2.416553 1_665
As0 O18 1.686804 1_555
As0 O8 1.700922 1_555
As0 O6 1.705811 1_556
As0 O15 1.724115 1_455
As1 O19 1.686379 1_555
As1 O9 1.701446 1_555
As1 O7 1.705654 1_555
As1 O14 1.724181 1_555
As2 O16 1.686342 1_555
As2 O10 1.701338 1_555
As2 O4 1.705908 1_554
As2 O13 1.724098 1_655
As3 O17 1.686630 1_555
As3 O11 1.701206 1_555
As3 O5 1.705552 1_555
As3 O12 1.724211 1_555
