# generated using pymatgen
data_CsWF7
_symmetry_space_group_name_H-M   'P 1'
_cell_length_a   10.56848057
_cell_length_b   10.56848057
_cell_length_c   10.56848057
_cell_angle_alpha   90.00000000
_cell_angle_beta   90.00000000
_cell_angle_gamma   90.00000000
_symmetry_Int_Tables_number   1
_chemical_formula_structural   CsWF7
_chemical_formula_sum   'Cs8 W8 F56'
_cell_volume   1180.42299171
_cell_formula_units_Z   8
loop_
 _symmetry_equiv_pos_site_id
 _symmetry_equiv_pos_as_xyz
  1  'x, y, z'
loop_
 _atom_site_type_symbol
 _atom_site_label
 _atom_site_symmetry_multiplicity
 _atom_site_fract_x
 _atom_site_fract_y
 _atom_site_fract_z
 _atom_site_occupancy
  Cs  Cs0  1  0.00000000  -0.00000000  -0.00000000  1
  Cs  Cs1  1  0.00000000  0.50000000  0.50000000  1
  Cs  Cs2  1  0.50000000  -0.00000000  0.50000000  1
  Cs  Cs3  1  0.50000000  0.50000000  -0.00000000  1
  Cs  Cs4  1  0.50000000  -0.00000000  -0.00000000  1
  Cs  Cs5  1  0.50000000  0.50000000  0.50000000  1
  Cs  Cs6  1  0.00000000  -0.00000000  0.50000000  1
  Cs  Cs7  1  0.00000000  0.50000000  -0.00000000  1
  W  W0  1  0.27653235  0.72346765  0.22346765  1
  W  W1  1  0.72346765  0.22346765  0.27653235  1
  W  W2  1  0.22346765  0.27653235  0.72346765  1
  W  W3  1  0.77653235  0.77653235  0.77653235  1
  W  W4  1  0.72346765  0.27653235  0.77653235  1
  W  W5  1  0.27653235  0.77653235  0.72346765  1
  W  W6  1  0.77653235  0.72346765  0.27653235  1
  W  W7  1  0.22346765  0.22346765  0.22346765  1
  F  F0  1  0.17291131  0.82708869  0.32708869  1
  F  F1  1  0.82708869  0.32708869  0.17291131  1
  F  F2  1  0.32708869  0.17291131  0.82708869  1
  F  F3  1  0.67291131  0.67291131  0.67291131  1
  F  F4  1  0.82708869  0.17291131  0.67291131  1
  F  F5  1  0.17291131  0.67291131  0.82708869  1
  F  F6  1  0.67291131  0.82708869  0.17291131  1
  F  F7  1  0.32708869  0.32708869  0.32708869  1
  F  F8  1  0.43323078  0.63652620  0.25585703  1
  F  F9  1  0.56676922  0.13652620  0.24414297  1
  F  F10  1  0.06676922  0.36347380  0.75585703  1
  F  F11  1  0.93323078  0.86347380  0.74414297  1
  F  F12  1  0.25585703  0.43323078  0.63652620  1
  F  F13  1  0.24414297  0.56676922  0.13652620  1
  F  F14  1  0.75585703  0.06676922  0.36347380  1
  F  F15  1  0.74414297  0.93323078  0.86347380  1
  F  F16  1  0.63652620  0.25585703  0.43323078  1
  F  F17  1  0.13652620  0.24414297  0.56676922  1
  F  F18  1  0.36347380  0.75585703  0.06676922  1
  F  F19  1  0.86347380  0.74414297  0.93323078  1
  F  F20  1  0.56676922  0.36347380  0.74414297  1
  F  F21  1  0.43323078  0.86347380  0.75585703  1
  F  F22  1  0.93323078  0.63652620  0.24414297  1
  F  F23  1  0.06676922  0.13652620  0.25585703  1
  F  F24  1  0.74414297  0.56676922  0.36347380  1
  F  F25  1  0.75585703  0.43323078  0.86347380  1
  F  F26  1  0.24414297  0.93323078  0.63652620  1
  F  F27  1  0.25585703  0.06676922  0.13652620  1
  F  F28  1  0.36347380  0.74414297  0.56676922  1
  F  F29  1  0.86347380  0.75585703  0.43323078  1
  F  F30  1  0.63652620  0.24414297  0.93323078  1
  F  F31  1  0.13652620  0.25585703  0.06676922  1
  F  F32  1  0.14121741  0.76883208  0.11575093  1
  F  F33  1  0.85878259  0.26883208  0.38424907  1
  F  F34  1  0.35878259  0.23116792  0.61575093  1
  F  F35  1  0.64121741  0.73116792  0.88424907  1
  F  F36  1  0.11575093  0.14121741  0.76883208  1
  F  F37  1  0.38424907  0.85878259  0.26883208  1
  F  F38  1  0.61575093  0.35878259  0.23116792  1
  F  F39  1  0.88424907  0.64121741  0.73116792  1
  F  F40  1  0.76883208  0.11575093  0.14121741  1
  F  F41  1  0.26883208  0.38424907  0.85878259  1
  F  F42  1  0.23116792  0.61575093  0.35878259  1
  F  F43  1  0.73116792  0.88424907  0.64121741  1
  F  F44  1  0.85878259  0.23116792  0.88424907  1
  F  F45  1  0.14121741  0.73116792  0.61575093  1
  F  F46  1  0.64121741  0.76883208  0.38424907  1
  F  F47  1  0.35878259  0.26883208  0.11575093  1
  F  F48  1  0.88424907  0.85878259  0.23116792  1
  F  F49  1  0.61575093  0.14121741  0.73116792  1
  F  F50  1  0.38424907  0.64121741  0.76883208  1
  F  F51  1  0.11575093  0.35878259  0.26883208  1
  F  F52  1  0.23116792  0.88424907  0.85878259  1
  F  F53  1  0.73116792  0.61575093  0.14121741  1
  F  F54  1  0.76883208  0.38424907  0.64121741  1
  F  F55  1  0.26883208  0.11575093  0.35878259  1
loop_
_geom_bond_atom_site_label_1
_geom_bond_atom_site_label_2
_geom_bond_distance
_geom_bond_site_symmetry_2
Cs0 F36 3.113296 1_554
Cs0 F52 3.113296 1_544
Cs0 F48 3.113296 1_445
Cs0 F40 3.113296 1_455
Cs0 F44 3.113296 1_454
Cs0 F32 3.113296 1_545
Cs0 F11 3.145084 1_444
Cs0 F15 3.145084 1_444
Cs0 F19 3.145084 1_444
Cs0 F27 3.145084 1_555
Cs0 F23 3.145084 1_555
Cs0 F31 3.145084 1_555
Cs1 F42 3.113296 1_555
Cs1 F33 3.113296 1_455
Cs1 F51 3.113296 1_555
Cs1 F39 3.113296 1_455
Cs1 F54 3.113296 1_455
Cs1 F45 3.113296 1_555
Cs1 F12 3.145084 1_555
Cs1 F22 3.145084 1_455
Cs1 F17 3.145084 1_555
Cs1 F29 3.145084 1_455
Cs1 F24 3.145084 1_455
Cs1 F10 3.145084 1_555
Cs2 F55 3.113296 1_555
Cs2 F37 3.113296 1_545
Cs2 F49 3.113296 1_555
Cs2 F46 3.113296 1_545
Cs2 F43 3.113296 1_545
Cs2 F34 3.113296 1_555
Cs2 F26 3.145084 1_545
Cs2 F16 3.145084 1_555
Cs2 F9 3.145084 1_555
Cs2 F21 3.145084 1_545
Cs2 F28 3.145084 1_545
Cs2 F14 3.145084 1_555
Cs3 F50 3.113296 1_554
Cs3 F53 3.113296 1_555
Cs3 F35 3.113296 1_554
Cs3 F47 3.113296 1_555
Cs3 F41 3.113296 1_554
Cs3 F38 3.113296 1_555
Cs3 F30 3.145084 1_554
Cs3 F8 3.145084 1_555
Cs3 F13 3.145084 1_555
Cs3 F25 3.145084 1_554
Cs3 F20 3.145084 1_554
Cs3 F18 3.145084 1_555
Cs4 F30 3.039303 1_554
Cs4 F27 3.039303 1_555
Cs4 F21 3.039303 1_544
Cs4 F9 3.039303 1_555
Cs4 F15 3.039303 1_544
Cs4 F18 3.039303 1_545
Cs4 F2 3.165167 1_554
Cs4 F6 3.165167 1_545
Cs4 F52 3.434534 1_544
Cs4 F37 3.434534 1_545
Cs4 F40 3.434534 1_555
Cs4 F49 3.434534 1_554
Cs4 F35 3.434534 1_544
Cs4 F47 3.434534 1_555
Cs5 F8 3.039303 1_555
Cs5 F12 3.039303 1_555
Cs5 F16 3.039303 1_555
Cs5 F24 3.039303 1_555
Cs5 F28 3.039303 1_555
Cs5 F20 3.039303 1_555
Cs5 F7 3.165167 1_555
Cs5 F3 3.165167 1_555
Cs5 F42 3.434534 1_555
Cs5 F50 3.434534 1_555
Cs5 F54 3.434534 1_555
Cs5 F34 3.434534 1_555
Cs5 F38 3.434534 1_555
Cs5 F46 3.434534 1_555
Cs6 F26 3.039303 1_545
Cs6 F23 3.039303 1_555
Cs6 F17 3.039303 1_555
Cs6 F29 3.039303 1_445
Cs6 F11 3.039303 1_445
Cs6 F14 3.039303 1_455
Cs6 F0 3.165167 1_545
Cs6 F4 3.165167 1_455
Cs6 F55 3.434534 1_555
Cs6 F43 3.434534 1_445
Cs6 F45 3.434534 1_545
Cs6 F33 3.434534 1_455
Cs6 F36 3.434534 1_555
Cs6 F48 3.434534 1_445
Cs7 F22 3.039303 1_455
Cs7 F13 3.039303 1_555
Cs7 F25 3.039303 1_454
Cs7 F31 3.039303 1_555
Cs7 F19 3.039303 1_454
Cs7 F10 3.039303 1_554
Cs7 F1 3.165167 1_455
Cs7 F5 3.165167 1_554
Cs7 F41 3.434534 1_554
Cs7 F39 3.434534 1_454
Cs7 F32 3.434534 1_555
Cs7 F51 3.434534 1_555
Cs7 F53 3.434534 1_455
Cs7 F44 3.434534 1_454
F0 W0 1.896798 1_555
F1 W1 1.896798 1_555
F2 W2 1.896798 1_555
F3 W3 1.896798 1_555
F4 W4 1.896798 1_555
F5 W5 1.896798 1_555
F6 W6 1.896798 1_555
F7 W7 1.896798 1_555
F8 W0 1.924575 1_555
F9 W1 1.924575 1_555
F10 W2 1.924575 1_555
F11 W3 1.924575 1_555
F12 W2 1.924575 1_555
F13 W0 1.924575 1_555
F14 W1 1.924575 1_555
F15 W3 1.924575 1_555
F16 W1 1.924575 1_555
F17 W2 1.924575 1_555
F18 W0 1.924575 1_555
F19 W3 1.924575 1_555
F20 W4 1.924575 1_555
F21 W5 1.924575 1_555
F22 W6 1.924575 1_555
F23 W7 1.924575 1_555
F24 W6 1.924575 1_555
F25 W4 1.924575 1_555
F26 W5 1.924575 1_555
F27 W7 1.924575 1_555
F28 W5 1.924575 1_555
F29 W6 1.924575 1_555
F30 W4 1.924575 1_555
F31 W7 1.924575 1_555
F32 W0 1.889689 1_555
F33 W1 1.889689 1_555
F34 W2 1.889689 1_555
F35 W3 1.889689 1_555
F36 W2 1.889689 1_555
F37 W0 1.889689 1_555
F38 W1 1.889689 1_555
F39 W3 1.889689 1_555
F40 W1 1.889689 1_555
F41 W2 1.889689 1_555
F42 W0 1.889689 1_555
F43 W3 1.889689 1_555
F44 W4 1.889689 1_555
F45 W5 1.889689 1_555
F46 W6 1.889689 1_555
F47 W7 1.889689 1_555
F48 W6 1.889689 1_555
F49 W4 1.889689 1_555
F50 W5 1.889689 1_555
F51 W7 1.889689 1_555
F52 W5 1.889689 1_555
F53 W6 1.889689 1_555
F54 W4 1.889689 1_555
F55 W7 1.889689 1_555
