# generated using pymatgen
data_RbSbBrF3
_symmetry_space_group_name_H-M   'P 1'
_cell_length_a   4.56521600
_cell_length_b   7.87781894
_cell_length_c   9.10164279
_cell_angle_alpha   110.50421759
_cell_angle_beta   99.10683933
_cell_angle_gamma   103.53165395
_symmetry_Int_Tables_number   1
_chemical_formula_structural   RbSbBrF3
_chemical_formula_sum   'Rb2 Sb2 Br2 F6'
_cell_volume   287.52319440
_cell_formula_units_Z   2
loop_
 _symmetry_equiv_pos_site_id
 _symmetry_equiv_pos_as_xyz
  1  'x, y, z'
loop_
 _atom_site_type_symbol
 _atom_site_label
 _atom_site_symmetry_multiplicity
 _atom_site_fract_x
 _atom_site_fract_y
 _atom_site_fract_z
 _atom_site_occupancy
  Rb  Rb0  1  0.98814300  0.31281700  0.65293300  1
  Rb  Rb1  1  0.01185700  0.68718300  0.34706700  1
  Sb  Sb0  1  0.31933900  0.15984300  0.20896000  1
  Sb  Sb1  1  0.68066100  0.84015700  0.79104000  1
  Br  Br0  1  0.43656100  0.77250700  0.06902800  1
  Br  Br1  1  0.56343900  0.22749300  0.93097200  1
  F  F0  1  0.60550500  0.55930300  0.68392600  1
  F  F1  1  0.69937500  0.87942400  0.58527000  1
  F  F2  1  0.30062500  0.12057600  0.41473000  1
  F  F3  1  0.39449500  0.44069700  0.31607400  1
  F  F4  1  0.22214700  0.76454600  0.69963300  1
  F  F5  1  0.77785300  0.23545400  0.30036700  1
loop_
_geom_bond_atom_site_label_1
_geom_bond_atom_site_label_2
_geom_bond_distance
_geom_bond_site_symmetry_2
Br0 Sb0 3.078418 1_565
Br0 Sb1 3.080052 1_554
Br0 Rb1 3.570705 1_555
Br0 Rb1 3.696943 1_655
Br0 Rb0 4.014507 1_454
Br1 Sb1 3.078418 1_545
Br1 Sb0 3.080052 1_556
Br1 Rb0 3.570705 1_555
Br1 Rb0 3.696943 1_455
Br1 Rb1 4.014507 1_656
F0 Sb1 1.997793 1_555
F0 Rb0 2.874198 1_555
F0 Rb0 2.932058 1_455
F1 Sb1 2.013624 1_555
F1 Rb1 2.952766 1_655
F1 Rb0 3.152397 1_565
F1 Rb1 3.188501 1_555
F2 Sb0 2.013624 1_555
F2 Rb0 2.952766 1_455
F2 Rb1 3.152397 1_545
F2 Rb0 3.188501 1_555
F3 Sb0 1.997793 1_555
F3 Rb1 2.874198 1_555
F3 Rb1 2.932058 1_655
F4 Sb1 1.986606 1_555
F4 Rb1 2.995206 1_555
F4 Rb0 3.317136 1_455
F5 Sb0 1.986606 1_555
F5 Rb0 2.995206 1_555
F5 Rb1 3.317136 1_655
