# generated using pymatgen
data_KInSe2
_symmetry_space_group_name_H-M   'P 1'
_cell_length_a   8.16792208
_cell_length_b   8.16792208
_cell_length_c   15.74053010
_cell_angle_alpha   82.54852483
_cell_angle_beta   82.54852483
_cell_angle_gamma   90.01055457
_symmetry_Int_Tables_number   1
_chemical_formula_structural   KInSe2
_chemical_formula_sum   'K8 In8 Se16'
_cell_volume   1032.31261853
_cell_formula_units_Z   8
loop_
 _symmetry_equiv_pos_site_id
 _symmetry_equiv_pos_as_xyz
  1  'x, y, z'
loop_
 _atom_site_type_symbol
 _atom_site_label
 _atom_site_symmetry_multiplicity
 _atom_site_fract_x
 _atom_site_fract_y
 _atom_site_fract_z
 _atom_site_occupancy
  K  K0  1  0.15359231  0.78032804  0.88587075  1
  K  K1  1  0.21967196  0.84640769  0.61412925  1
  K  K2  1  0.84640769  0.21967196  0.11412925  1
  K  K3  1  0.78032804  0.15359231  0.38587075  1
  K  K4  1  0.22073486  0.34417389  0.61958148  1
  K  K5  1  0.65582611  0.77926514  0.88041852  1
  K  K6  1  0.77926514  0.65582611  0.38041852  1
  K  K7  1  0.34417389  0.22073486  0.11958148  1
  In  In0  1  0.91263648  0.28868503  0.84409432  1
  In  In1  1  0.71131497  0.08736352  0.65590568  1
  In  In2  1  0.08736352  0.71131497  0.15590568  1
  In  In3  1  0.28868503  0.91263648  0.34409432  1
  In  In4  1  0.71118982  0.58438738  0.65636235  1
  In  In5  1  0.41561262  0.28881018  0.84363765  1
  In  In6  1  0.28881018  0.41561262  0.34363765  1
  In  In7  1  0.58438738  0.71118982  0.15636235  1
  Se  Se0  1  0.95082599  0.57478272  0.75000218  1
  Se  Se1  1  0.42521728  0.04917401  0.74999782  1
  Se  Se2  1  0.04917401  0.42521728  0.24999782  1
  Se  Se3  1  0.57478272  0.95082599  0.25000218  1
  Se  Se4  1  0.13904721  0.26179034  0.94619003  1
  Se  Se5  1  0.73820966  0.86095279  0.55380997  1
  Se  Se6  1  0.86095279  0.73820966  0.05380997  1
  Se  Se7  1  0.26179034  0.13904721  0.44619003  1
  Se  Se8  1  0.95031745  0.04968255  0.75000000  1
  Se  Se9  1  0.04968255  0.95031745  0.25000000  1
  Se  Se10  1  0.63782017  0.26312679  0.94694830  1
  Se  Se11  1  0.73687321  0.36217983  0.55305170  1
  Se  Se12  1  0.36217983  0.73687321  0.05305170  1
  Se  Se13  1  0.26312679  0.63782017  0.44694830  1
  Se  Se14  1  0.42475071  0.57524929  0.75000000  1
  Se  Se15  1  0.57524929  0.42475071  0.25000000  1
loop_
_geom_bond_atom_site_label_1
_geom_bond_atom_site_label_2
_geom_bond_distance
_geom_bond_site_symmetry_2
K0 Se12 3.297632 1_556
K0 Se6 3.308245 1_456
K0 Se1 3.444956 1_565
K0 Se8 3.445706 1_465
K0 Se0 3.461836 1_455
K0 Se14 3.462240 1_555
K1 Se13 3.297632 1_555
K1 Se7 3.308245 1_565
K1 Se0 3.444956 1_455
K1 Se8 3.445706 1_465
K1 Se1 3.461836 1_565
K1 Se14 3.462240 1_555
K2 Se10 3.297632 1_554
K2 Se4 3.308245 1_654
K2 Se3 3.444956 1_545
K2 Se9 3.445706 1_645
K2 Se2 3.461836 1_655
K2 Se15 3.462240 1_555
K3 Se11 3.297632 1_555
K3 Se5 3.308245 1_545
K3 Se2 3.444956 1_655
K3 Se9 3.445706 1_645
K3 Se3 3.461836 1_545
K3 Se15 3.462240 1_555
K4 Se7 3.364138 1_555
K4 Se13 3.364776 1_555
K4 Se1 3.523822 1_555
K4 Se8 3.524185 1_455
K4 Se14 3.527668 1_555
K4 Se0 3.528900 1_455
K5 Se6 3.364138 1_556
K5 Se12 3.364776 1_556
K5 Se0 3.523822 1_555
K5 Se8 3.524185 1_565
K5 Se14 3.527668 1_555
K5 Se1 3.528900 1_565
K6 Se5 3.364138 1_555
K6 Se11 3.364776 1_555
K6 Se3 3.523822 1_555
K6 Se9 3.524185 1_655
K6 Se15 3.527668 1_555
K6 Se2 3.528900 1_655
K7 Se4 3.364138 1_554
K7 Se10 3.364776 1_554
K7 Se2 3.523822 1_555
K7 Se9 3.524185 1_545
K7 Se15 3.527668 1_555
K7 Se3 3.528900 1_545
In0 Se10 2.583182 1_555
In0 Se4 2.594260 1_655
In0 Se8 2.594454 1_555
In0 Se0 2.594958 1_555
In1 Se11 2.583182 1_555
In1 Se5 2.594260 1_545
In1 Se8 2.594454 1_555
In1 Se1 2.594958 1_555
In2 Se12 2.583182 1_555
In2 Se6 2.594260 1_455
In2 Se9 2.594454 1_555
In2 Se2 2.594958 1_555
In3 Se13 2.583182 1_555
In3 Se7 2.594260 1_565
In3 Se9 2.594454 1_555
In3 Se3 2.594958 1_555
In4 Se11 2.580646 1_555
In4 Se5 2.592099 1_555
In4 Se0 2.593867 1_555
In4 Se14 2.593982 1_555
In5 Se10 2.580646 1_555
In5 Se4 2.592099 1_555
In5 Se1 2.593867 1_555
In5 Se14 2.593982 1_555
In6 Se13 2.580646 1_555
In6 Se7 2.592099 1_555
In6 Se2 2.593867 1_555
In6 Se15 2.593982 1_555
In7 Se12 2.580646 1_555
In7 Se6 2.592099 1_555
In7 Se3 2.593867 1_555
In7 Se15 2.593982 1_555
