# generated using pymatgen
data_Ti3Fe9O16
_symmetry_space_group_name_H-M   'P 1'
_cell_length_a   6.07306000
_cell_length_b   10.54505119
_cell_length_c   10.61424905
_cell_angle_alpha   98.53607969
_cell_angle_beta   90.05891385
_cell_angle_gamma   106.49807132
_symmetry_Int_Tables_number   1
_chemical_formula_structural   Ti3Fe9O16
_chemical_formula_sum   'Ti6 Fe18 O32'
_cell_volume   643.87022451
_cell_formula_units_Z   2
loop_
 _symmetry_equiv_pos_site_id
 _symmetry_equiv_pos_as_xyz
  1  'x, y, z'
loop_
 _atom_site_type_symbol
 _atom_site_label
 _atom_site_symmetry_multiplicity
 _atom_site_fract_x
 _atom_site_fract_y
 _atom_site_fract_z
 _atom_site_occupancy
  Ti  Ti0  1  0.37116700  0.25812200  0.13416300  1
  Ti  Ti1  1  0.87241400  0.24468200  0.62100000  1
  Ti  Ti2  1  0.00000000  0.50000000  0.50000000  1
  Ti  Ti3  1  0.50000000  0.00000000  0.00000000  1
  Ti  Ti4  1  0.12758600  0.75531800  0.37900000  1
  Ti  Ti5  1  0.62883300  0.74187800  0.86583700  1
  Fe  Fe0  1  0.59625300  0.69616900  0.52765500  1
  Fe  Fe1  1  0.24530700  0.49942100  0.24647800  1
  Fe  Fe2  1  0.10159500  0.69301500  0.03486800  1
  Fe  Fe3  1  0.75227600  0.49972400  0.24607800  1
  Fe  Fe4  1  0.75469300  0.50057900  0.75352200  1
  Fe  Fe5  1  0.50000000  0.50000000  0.00000000  1
  Fe  Fe6  1  0.34903600  0.19529900  0.78449700  1
  Fe  Fe7  1  0.24772400  0.50027600  0.75392200  1
  Fe  Fe8  1  0.00000000  0.00000000  0.50000000  1
  Fe  Fe9  1  0.89840500  0.30698500  0.96513200  1
  Fe  Fe10  1  0.75207500  0.00170100  0.74781800  1
  Fe  Fe11  1  0.84680700  0.19057300  0.27952200  1
  Fe  Fe12  1  0.50000000  0.00000000  0.50000000  1
  Fe  Fe13  1  0.40374700  0.30383100  0.47234500  1
  Fe  Fe14  1  0.24792500  0.99829900  0.25218200  1
  Fe  Fe15  1  0.00000000  0.00000000  0.00000000  1
  Fe  Fe16  1  0.65096400  0.80470100  0.21550300  1
  Fe  Fe17  1  0.15319300  0.80942700  0.72047800  1
  O  O0  1  0.27729000  0.62030100  0.43526100  1
  O  O1  1  0.06754700  0.63458100  0.19613900  1
  O  O2  1  0.84586400  0.62218200  0.43529900  1
  O  O3  1  0.66586200  0.36237000  0.06341400  1
  O  O4  1  0.80892900  0.63877300  0.93899400  1
  O  O5  1  0.55575600  0.61320400  0.18388000  1
  O  O6  1  0.57057200  0.63932800  0.70727200  1
  O  O7  1  0.32862400  0.11967400  0.94152800  1
  O  O8  1  0.44424400  0.38679600  0.81612000  1
  O  O9  1  0.19107100  0.36122700  0.06100600  1
  O  O10  1  0.33413800  0.63763000  0.93658600  1
  O  O11  1  0.15413600  0.37781800  0.56470100  1
  O  O12  1  0.06139700  0.14138100  0.68698900  1
  O  O13  1  0.05528400  0.60582000  0.67348100  1
  O  O14  1  0.78677900  0.11275500  0.93645600  1
  O  O15  1  0.69914600  0.89578200  0.56971000  1
  O  O16  1  0.81906200  0.14108600  0.45792700  1
  O  O17  1  0.94471600  0.39418000  0.32651900  1
  O  O18  1  0.93245300  0.36541900  0.80386100  1
  O  O19  1  0.72271000  0.37969900  0.56473900  1
  O  O20  1  0.58091400  0.14145300  0.68489600  1
  O  O21  1  0.41908600  0.85854700  0.31510400  1
  O  O22  1  0.54396900  0.12187900  0.16391500  1
  O  O23  1  0.30085400  0.10421800  0.43029000  1
  O  O24  1  0.18093800  0.85891400  0.54207300  1
  O  O25  1  0.42942800  0.36067200  0.29272800  1
  O  O26  1  0.21322100  0.88724500  0.06354400  1
  O  O27  1  0.93860300  0.85861900  0.31301100  1
  O  O28  1  0.09009000  0.12993500  0.17142300  1
  O  O29  1  0.90991000  0.87006500  0.82857700  1
  O  O30  1  0.67137600  0.88032600  0.05847200  1
  O  O31  1  0.45603100  0.87812100  0.83608500  1
loop_
_geom_bond_atom_site_label_1
_geom_bond_atom_site_label_2
_geom_bond_distance
_geom_bond_site_symmetry_2
Fe0 O15 1.998472 1_555
Fe0 O0 2.058417 1_555
Fe0 O6 2.074871 1_555
Fe0 O2 2.077349 1_555
Fe1 O5 2.095269 1_555
Fe1 O17 2.101973 1_455
Fe1 O1 2.140347 1_555
Fe1 O25 2.184793 1_555
Fe1 O0 2.185875 1_555
Fe1 O9 2.232054 1_555
Fe2 O1 1.895809 1_555
Fe2 O10 1.927281 1_554
Fe2 O4 1.941104 1_454
Fe2 O26 1.942444 1_555
Fe3 O5 2.082372 1_555
Fe3 O17 2.086236 1_555
Fe3 O1 2.156060 1_655
Fe3 O25 2.196394 1_555
Fe3 O2 2.198921 1_555
Fe3 O3 2.205656 1_555
Fe4 O8 2.095269 1_555
Fe4 O13 2.101973 1_655
Fe4 O18 2.140347 1_555
Fe4 O6 2.184793 1_555
Fe4 O19 2.185875 1_555
Fe4 O4 2.232054 1_555
Fe5 O5 2.103901 1_555
Fe5 O8 2.103901 1_554
Fe5 O3 2.166313 1_555
Fe5 O10 2.166313 1_554
Fe5 O9 2.192058 1_555
Fe5 O4 2.192058 1_554
Fe6 O8 1.913105 1_555
Fe6 O20 1.924087 1_555
Fe6 O12 1.924424 1_555
Fe6 O7 1.941211 1_555
Fe7 O8 2.082372 1_555
Fe7 O13 2.086236 1_555
Fe7 O18 2.156060 1_455
Fe7 O6 2.196394 1_555
Fe7 O11 2.198921 1_555
Fe7 O10 2.205656 1_555
Fe8 O23 2.048727 1_555
Fe8 O15 2.048727 1_445
Fe8 O16 2.178318 1_455
Fe8 O24 2.178318 1_545
Fe8 O12 2.259485 1_555
Fe8 O27 2.259485 1_445
Fe9 O18 1.895809 1_555
Fe9 O3 1.927281 1_556
Fe9 O9 1.941104 1_656
Fe9 O14 1.942444 1_555
Fe10 O15 2.023058 1_545
Fe10 O14 2.141892 1_555
Fe10 O29 2.165107 1_545
Fe10 O12 2.197398 1_655
Fe10 O31 2.200817 1_545
Fe10 O20 2.204341 1_555
Fe11 O16 2.032397 1_555
Fe11 O17 2.041703 1_555
Fe11 O28 2.056834 1_655
Fe11 O22 2.094697 1_555
Fe12 O23 2.052418 1_555
Fe12 O15 2.052418 1_545
Fe12 O16 2.174660 1_555
Fe12 O24 2.174660 1_545
Fe12 O20 2.242908 1_555
Fe12 O21 2.242908 1_545
Fe13 O23 1.998472 1_555
Fe13 O19 2.058417 1_555
Fe13 O25 2.074871 1_555
Fe13 O11 2.077349 1_555
Fe14 O23 2.023058 1_565
Fe14 O26 2.141892 1_555
Fe14 O28 2.165107 1_565
Fe14 O27 2.197398 1_455
Fe14 O22 2.200817 1_565
Fe14 O21 2.204341 1_555
Fe15 O28 2.078332 1_555
Fe15 O29 2.078332 1_444
Fe15 O14 2.157816 1_454
Fe15 O26 2.157816 1_545
Fe15 O30 2.182974 1_445
Fe15 O7 2.182974 1_554
Fe16 O5 1.913105 1_555
Fe16 O21 1.924087 1_555
Fe16 O27 1.924424 1_555
Fe16 O30 1.941211 1_555
Fe17 O24 2.032397 1_555
Fe17 O13 2.041703 1_555
Fe17 O29 2.056834 1_455
Fe17 O31 2.094697 1_555
O0 Ti2 1.991269 1_555
O0 Ti4 2.048599 1_555
O1 Ti4 2.126601 1_555
O2 Ti2 1.988525 1_655
O2 Ti4 2.035247 1_655
O3 Ti0 2.026281 1_555
O4 Ti5 1.976261 1_555
O6 Ti5 1.835323 1_555
O7 Ti3 2.009511 1_556
O7 Ti0 2.297256 1_556
O9 Ti0 1.976261 1_555
O10 Ti5 2.026281 1_555
O11 Ti2 1.988525 1_555
O11 Ti1 2.035247 1_455
O12 Ti1 1.982260 1_455
O13 Ti2 1.981038 1_555
O14 Ti3 1.991545 1_556
O16 Ti1 1.879058 1_555
O17 Ti2 1.981038 1_655
O18 Ti1 2.126601 1_555
O19 Ti2 1.991269 1_655
O19 Ti1 2.048599 1_555
O20 Ti1 1.976359 1_555
O21 Ti4 1.976359 1_555
O22 Ti3 1.972418 1_555
O22 Ti0 2.062876 1_555
O24 Ti4 1.879058 1_555
O25 Ti0 1.835323 1_555
O26 Ti3 1.991545 1_565
O27 Ti4 1.982260 1_655
O28 Ti0 1.935718 1_555
O29 Ti5 1.935718 1_555
O30 Ti3 2.009511 1_565
O30 Ti5 2.297256 1_554
O31 Ti3 1.972418 1_566
O31 Ti5 2.062876 1_555
