# generated using pymatgen
data_Sr2GeO4
_symmetry_space_group_name_H-M   'P 1'
_cell_length_a   5.87113806
_cell_length_b   9.93002453
_cell_length_c   14.29425320
_cell_angle_alpha   90.00000000
_cell_angle_beta   90.00000000
_cell_angle_gamma   90.00000000
_symmetry_Int_Tables_number   1
_chemical_formula_structural   Sr2GeO4
_chemical_formula_sum   'Sr16 Ge8 O32'
_cell_volume   833.36275128
_cell_formula_units_Z   8
loop_
 _symmetry_equiv_pos_site_id
 _symmetry_equiv_pos_as_xyz
  1  'x, y, z'
loop_
 _atom_site_type_symbol
 _atom_site_label
 _atom_site_symmetry_multiplicity
 _atom_site_fract_x
 _atom_site_fract_y
 _atom_site_fract_z
 _atom_site_occupancy
  Sr  Sr0  1  0.79062885  0.42731719  0.29737966  1
  Sr  Sr1  1  0.70937115  0.42731719  0.79737966  1
  Sr  Sr2  1  0.79673199  0.70245125  0.12112849  1
  Sr  Sr3  1  0.72562623  0.06979269  0.54422886  1
  Sr  Sr4  1  0.20326801  0.20245125  0.87887151  1
  Sr  Sr5  1  0.70326801  0.70245125  0.62112849  1
  Sr  Sr6  1  0.27437377  0.56979269  0.45577114  1
  Sr  Sr7  1  0.22907760  0.29751416  0.62866788  1
  Sr  Sr8  1  0.27092240  0.29751416  0.12866788  1
  Sr  Sr9  1  0.72907760  0.79751416  0.87133212  1
  Sr  Sr10  1  0.29062885  0.92731719  0.20262034  1
  Sr  Sr11  1  0.77437377  0.06979269  0.04422886  1
  Sr  Sr12  1  0.20937115  0.92731719  0.70262034  1
  Sr  Sr13  1  0.29673199  0.20245125  0.37887151  1
  Sr  Sr14  1  0.77092240  0.79751416  0.37133212  1
  Sr  Sr15  1  0.22562623  0.56979269  0.95577114  1
  Ge  Ge0  1  0.71995937  0.08367859  0.76435592  1
  Ge  Ge1  1  0.72833477  0.41617626  0.02113033  1
  Ge  Ge2  1  0.78004063  0.08367859  0.26435592  1
  Ge  Ge3  1  0.22833477  0.91617626  0.47886867  1
  Ge  Ge4  1  0.77166523  0.41617626  0.52113133  1
  Ge  Ge5  1  0.28004063  0.58367859  0.23564408  1
  Ge  Ge6  1  0.27166523  0.91617626  0.97886867  1
  Ge  Ge7  1  0.21995937  0.58367859  0.73564408  1
  O  O0  1  0.28644789  0.06482011  0.54326046  1
  O  O1  1  0.16788029  0.95636296  0.36293658  1
  O  O2  1  0.04529961  0.80421214  0.99500775  1
  O  O3  1  0.53317589  0.13924548  0.20365101  1
  O  O4  1  0.97833969  0.84721687  0.52988887  1
  O  O5  1  0.00805536  0.70761003  0.74782274  1
  O  O6  1  0.64537782  0.93451653  0.70204144  1
  O  O7  1  0.49194464  0.70761003  0.24782274  1
  O  O8  1  0.99194464  0.20761003  0.25217726  1
  O  O9  1  0.54529961  0.30421214  0.50499225  1
  O  O10  1  0.02166031  0.34721687  0.47011113  1
  O  O11  1  0.46682411  0.63924548  0.79634899  1
  O  O12  1  0.67843032  0.05078674  0.37690212  1
  O  O13  1  0.96682411  0.13924548  0.70365101  1
  O  O14  1  0.45470039  0.80421214  0.49500775  1
  O  O15  1  0.82156968  0.05078674  0.87690212  1
  O  O16  1  0.03317589  0.63924548  0.29634899  1
  O  O17  1  0.17843032  0.55078674  0.12309788  1
  O  O18  1  0.52166031  0.84721687  0.02988887  1
  O  O19  1  0.47833969  0.34721687  0.97011113  1
  O  O20  1  0.83211971  0.45636296  0.63706342  1
  O  O21  1  0.35462218  0.43451653  0.29795856  1
  O  O22  1  0.85462218  0.93451653  0.20204144  1
  O  O23  1  0.21355211  0.06482011  0.04326046  1
  O  O24  1  0.71355211  0.56482011  0.45673954  1
  O  O25  1  0.95470039  0.30421214  0.00499225  1
  O  O26  1  0.32156968  0.55078674  0.62309788  1
  O  O27  1  0.50805536  0.20761003  0.75217726  1
  O  O28  1  0.66788029  0.45636296  0.13706342  1
  O  O29  1  0.14537782  0.43451653  0.79795856  1
  O  O30  1  0.33211971  0.95636296  0.86293658  1
  O  O31  1  0.78644789  0.56482011  0.95673954  1
loop_
_geom_bond_atom_site_label_1
_geom_bond_atom_site_label_2
_geom_bond_distance
_geom_bond_site_symmetry_2
Ge0 O15 1.746623 1_555
Ge0 O27 1.758583 1_555
Ge0 O13 1.777108 1_555
Ge0 O6 1.782991 1_545
Ge1 O28 1.741109 1_555
Ge1 O25 1.748037 1_555
Ge1 O31 1.772644 1_554
Ge1 O19 1.776250 1_554
Ge2 O12 1.746623 1_555
Ge2 O8 1.758583 1_555
Ge2 O3 1.777108 1_555
Ge2 O22 1.782991 1_545
Ge3 O1 1.741095 1_555
Ge3 O14 1.748038 1_555
Ge3 O0 1.772651 1_565
Ge3 O4 1.776256 1_455
Ge4 O20 1.741095 1_555
Ge4 O9 1.748038 1_555
Ge4 O24 1.772651 1_555
Ge4 O10 1.776256 1_655
Ge5 O17 1.746623 1_555
Ge5 O7 1.758583 1_555
Ge5 O16 1.777108 1_555
Ge5 O21 1.782991 1_555
Ge6 O30 1.741095 1_555
Ge6 O2 1.748038 1_555
Ge6 O23 1.772651 1_566
Ge6 O18 1.776256 1_556
Ge7 O26 1.746623 1_555
Ge7 O5 1.758583 1_555
Ge7 O11 1.777108 1_555
Ge7 O29 1.782991 1_555
O0 Sr3 2.578987 1_555
O0 Sr7 2.634963 1_555
O0 Sr12 2.694084 1_545
O0 Sr13 2.719026 1_555
O1 Sr10 2.419503 1_555
O1 Sr13 2.568204 1_565
O1 Sr14 2.816767 1_455
O2 Sr2 2.530011 1_456
O2 Sr9 2.564492 1_455
O2 Sr15 2.618027 1_555
O3 Sr8 2.447353 1_555
O3 Sr10 2.541022 1_545
O3 Sr11 2.770202 1_555
O3 Sr13 2.931597 1_555
O4 Sr5 2.524995 1_555
O4 Sr14 2.619802 1_555
O4 Sr3 2.669895 1_565
O4 Sr12 2.927255 1_655
O5 Sr5 2.546462 1_455
O5 Sr12 2.564041 1_555
O5 Sr9 2.568399 1_455
O6 Sr12 2.560867 1_555
O6 Sr5 2.600681 1_555
O6 Sr3 2.667418 1_565
O6 Sr9 2.819240 1_555
O7 Sr2 2.546462 1_555
O7 Sr10 2.564041 1_555
O7 Sr14 2.568399 1_555
O8 Sr13 2.546462 1_655
O8 Sr0 2.564041 1_555
O8 Sr8 2.568399 1_655
O9 Sr13 2.530011 1_555
O9 Sr7 2.564492 1_555
O9 Sr3 2.618027 1_555
O10 Sr13 2.524995 1_555
O10 Sr7 2.619802 1_555
O10 Sr6 2.669895 1_555
O10 Sr0 2.927255 1_455
O11 Sr9 2.447353 1_555
O11 Sr1 2.541022 1_555
O11 Sr15 2.770202 1_555
O11 Sr5 2.931597 1_555
O12 Sr3 2.415193 1_555
O12 Sr14 2.574192 1_545
O12 Sr13 2.700189 1_555
O13 Sr7 2.447353 1_655
O13 Sr12 2.541022 1_645
O13 Sr3 2.770202 1_555
O13 Sr4 2.931597 1_655
O14 Sr5 2.530011 1_555
O14 Sr14 2.564492 1_555
O14 Sr6 2.618027 1_555
O15 Sr11 2.415193 1_556
O15 Sr9 2.574192 1_545
O15 Sr4 2.700189 1_655
O16 Sr14 2.447353 1_455
O16 Sr0 2.541022 1_455
O16 Sr6 2.770202 1_555
O16 Sr2 2.931597 1_455
O17 Sr15 2.415193 1_554
O17 Sr8 2.574192 1_555
O17 Sr2 2.700189 1_455
O18 Sr2 2.524995 1_555
O18 Sr9 2.619802 1_554
O18 Sr11 2.669895 1_565
O18 Sr10 2.927255 1_555
O19 Sr4 2.524995 1_555
O19 Sr8 2.619802 1_556
O19 Sr15 2.669895 1_555
O19 Sr1 2.927255 1_555
O20 Sr1 2.419503 1_555
O20 Sr5 2.568204 1_555
O20 Sr7 2.816767 1_655
O21 Sr0 2.560867 1_555
O21 Sr13 2.600681 1_555
O21 Sr6 2.667418 1_555
O21 Sr8 2.819240 1_555
O22 Sr10 2.560867 1_655
O22 Sr2 2.600681 1_555
O22 Sr11 2.667418 1_565
O22 Sr14 2.819240 1_555
O23 Sr11 2.578987 1_455
O23 Sr8 2.634963 1_555
O23 Sr10 2.694084 1_545
O23 Sr4 2.719026 1_554
O24 Sr6 2.578987 1_555
O24 Sr14 2.634963 1_555
O24 Sr0 2.694084 1_555
O24 Sr5 2.719026 1_555
O25 Sr4 2.530011 1_654
O25 Sr8 2.564492 1_655
O25 Sr11 2.618027 1_555
O26 Sr6 2.415193 1_555
O26 Sr7 2.574192 1_555
O26 Sr5 2.700189 1_555
O27 Sr4 2.546462 1_555
O27 Sr1 2.564041 1_555
O27 Sr7 2.568399 1_555
O28 Sr0 2.419503 1_555
O28 Sr2 2.568204 1_555
O28 Sr8 2.816767 1_555
O29 Sr1 2.560867 1_455
O29 Sr4 2.600681 1_555
O29 Sr15 2.667418 1_555
O29 Sr7 2.819240 1_555
O30 Sr12 2.419503 1_555
O30 Sr4 2.568204 1_565
O30 Sr9 2.816767 1_555
O31 Sr15 2.578987 1_655
O31 Sr9 2.634963 1_555
O31 Sr1 2.694084 1_555
O31 Sr2 2.719026 1_556
