# generated using pymatgen
data_GaSe3N2Cl5
_symmetry_space_group_name_H-M   'P 1'
_cell_length_a   11.17585600
_cell_length_b   9.80894100
_cell_length_c   15.24899239
_cell_angle_alpha   50.92417793
_cell_angle_beta   90.00000000
_cell_angle_gamma   90.00000000
_symmetry_Int_Tables_number   1
_chemical_formula_structural   GaSe3N2Cl5
_chemical_formula_sum   'Ga4 Se12 N8 Cl20'
_cell_volume   1297.71890538
_cell_formula_units_Z   4
loop_
 _symmetry_equiv_pos_site_id
 _symmetry_equiv_pos_as_xyz
  1  'x, y, z'
loop_
 _atom_site_type_symbol
 _atom_site_label
 _atom_site_symmetry_multiplicity
 _atom_site_fract_x
 _atom_site_fract_y
 _atom_site_fract_z
 _atom_site_occupancy
  Ga  Ga0  1  0.36556900  0.28462600  0.68772000  1
  Ga  Ga1  1  0.13443100  0.28462600  0.18772000  1
  Ga  Ga2  1  0.86556900  0.71537400  0.81228000  1
  Ga  Ga3  1  0.63443100  0.71537400  0.31228000  1
  Se  Se0  1  0.25037100  0.64430700  0.81356700  1
  Se  Se1  1  0.77385500  0.16205500  0.39561300  1
  Se  Se2  1  0.75037100  0.35569300  0.68643300  1
  Se  Se3  1  0.74962900  0.35569300  0.18643300  1
  Se  Se4  1  0.27385500  0.83794500  0.10438700  1
  Se  Se5  1  0.22614500  0.83794500  0.60438700  1
  Se  Se6  1  0.48168200  0.83216000  0.68277700  1
  Se  Se7  1  0.01831800  0.83216000  0.18277700  1
  Se  Se8  1  0.51831800  0.16784000  0.31722300  1
  Se  Se9  1  0.72614500  0.16205500  0.89561300  1
  Se  Se10  1  0.98168200  0.16784000  0.81722300  1
  Se  Se11  1  0.24962900  0.64430700  0.31356700  1
  N  N0  1  0.09728500  0.69411100  0.30827800  1
  N  N1  1  0.37869600  0.88671400  0.57447000  1
  N  N2  1  0.87869600  0.11328600  0.92553000  1
  N  N3  1  0.59728500  0.30588900  0.19172200  1
  N  N4  1  0.62130400  0.11328600  0.42553000  1
  N  N5  1  0.12130400  0.88671400  0.07447000  1
  N  N6  1  0.40271500  0.69411100  0.80827800  1
  N  N7  1  0.90271500  0.30588900  0.69172200  1
  Cl  Cl0  1  0.98638300  0.61500400  0.74768000  1
  Cl  Cl1  1  0.29272800  0.02698700  0.82969800  1
  Cl  Cl2  1  0.71581600  0.52823500  0.90070900  1
  Cl  Cl3  1  0.53243500  0.74016700  0.42444900  1
  Cl  Cl4  1  0.21581600  0.47176500  0.59929100  1
  Cl  Cl5  1  0.96756500  0.74016700  0.92444900  1
  Cl  Cl6  1  0.13761600  0.07423000  0.57411300  1
  Cl  Cl7  1  0.48638300  0.38499600  0.75232000  1
  Cl  Cl8  1  0.01361700  0.38499600  0.25232000  1
  Cl  Cl9  1  0.79272800  0.97301300  0.67030200  1
  Cl  Cl10  1  0.51361700  0.61500400  0.24768000  1
  Cl  Cl11  1  0.70727200  0.97301300  0.17030200  1
  Cl  Cl12  1  0.46756500  0.25983300  0.57555100  1
  Cl  Cl13  1  0.20727200  0.02698700  0.32969800  1
  Cl  Cl14  1  0.36238400  0.07423000  0.07411300  1
  Cl  Cl15  1  0.63761600  0.92577000  0.92588700  1
  Cl  Cl16  1  0.78418400  0.52823500  0.40070900  1
  Cl  Cl17  1  0.28418400  0.47176500  0.09929100  1
  Cl  Cl18  1  0.86238400  0.92577000  0.42588700  1
  Cl  Cl19  1  0.03243500  0.25983300  0.07555100  1
loop_
_geom_bond_atom_site_label_1
_geom_bond_atom_site_label_2
_geom_bond_distance
_geom_bond_site_symmetry_2
N0 Se7 1.734338 1_555
N0 Se11 1.759048 1_555
N1 Se5 1.751707 1_555
N1 Se6 1.795706 1_555
N2 Se9 1.751707 1_555
N2 Se10 1.795706 1_555
N3 Se8 1.734338 1_555
N3 Se3 1.759048 1_555
N4 Se1 1.751707 1_555
N4 Se8 1.795706 1_555
N5 Se4 1.751707 1_555
N5 Se7 1.795706 1_555
N6 Se6 1.734338 1_555
N6 Se0 1.759048 1_555
N7 Se10 1.734338 1_555
N7 Se2 1.759048 1_555
Cl0 Ga2 2.232799 1_555
Cl1 Ga0 2.199737 1_555
Cl2 Ga2 2.206427 1_555
Cl3 Ga3 2.192852 1_555
Cl4 Ga0 2.206427 1_555
Cl5 Ga2 2.192852 1_555
Cl6 Se5 2.283608 1_545
Cl7 Ga0 2.232799 1_555
Cl8 Ga1 2.232799 1_555
Cl9 Ga2 2.199737 1_555
Cl10 Ga3 2.232799 1_555
Cl11 Ga3 2.199737 1_555
Cl12 Ga0 2.192852 1_555
Cl13 Ga1 2.199737 1_555
Cl14 Se4 2.283608 1_545
Cl15 Se9 2.283608 1_565
Cl16 Ga3 2.206427 1_555
Cl17 Ga1 2.206427 1_555
Cl18 Se1 2.283608 1_565
Cl19 Ga1 2.192852 1_555
