# generated using pymatgen
data_Zr(SeCl6)2
_symmetry_space_group_name_H-M   'P 1'
_cell_length_a   12.75015784
_cell_length_b   12.50956435
_cell_length_c   8.83803471
_cell_angle_alpha   71.00651753
_cell_angle_beta   68.09173392
_cell_angle_gamma   40.97670944
_symmetry_Int_Tables_number   1
_chemical_formula_structural   Zr(SeCl6)2
_chemical_formula_sum   'Zr2 Se4 Cl24'
_cell_volume   855.40716503
_cell_formula_units_Z   2
loop_
 _symmetry_equiv_pos_site_id
 _symmetry_equiv_pos_as_xyz
  1  'x, y, z'
loop_
 _atom_site_type_symbol
 _atom_site_label
 _atom_site_symmetry_multiplicity
 _atom_site_fract_x
 _atom_site_fract_y
 _atom_site_fract_z
 _atom_site_occupancy
  Zr  Zr0  1  0.12392523  0.12408069  0.37604593  1
  Zr  Zr1  1  0.87392560  0.87401104  0.12603296  1
  Se  Se0  1  0.23776292  0.67420994  0.31437859  1
  Se  Se1  1  0.47626439  0.93561847  0.57595871  1
  Se  Se2  1  0.93554233  0.47613606  0.01217376  1
  Se  Se3  1  0.67423931  0.23774952  0.77379902  1
  Cl  Cl0  1  0.00164996  0.09144010  0.65365310  1
  Cl  Cl1  1  0.44434738  0.31621335  0.89915872  1
  Cl  Cl2  1  0.68673636  0.71837783  0.01233540  1
  Cl  Cl3  1  0.75687613  0.15288663  0.07644439  1
  Cl  Cl4  1  0.83812726  0.91242206  0.84921635  1
  Cl  Cl5  1  0.31595994  0.44442894  0.34046498  1
  Cl  Cl6  1  0.58165002  0.47595959  0.74655726  1
  Cl  Cl7  1  0.40067153  0.84997288  0.41166664  1
  Cl  Cl8  1  0.71856578  0.68690963  0.58198202  1
  Cl  Cl9  1  0.99639452  0.59655712  0.15845322  1
  Cl  Cl10  1  0.84988224  0.40062319  0.33773759  1
  Cl  Cl11  1  0.09133002  0.00163865  0.25347519  1
  Cl  Cl12  1  0.15304892  0.75662297  0.01394208  1
  Cl  Cl13  1  0.05378081  0.50336767  0.77397255  1
  Cl  Cl14  1  0.47594462  0.58162722  0.19598819  1
  Cl  Cl15  1  0.91237108  0.83820256  0.40018728  1
  Cl  Cl16  1  0.59648626  0.99664909  0.24846145  1
  Cl  Cl17  1  0.17370059  0.23616451  0.49336413  1
  Cl  Cl18  1  0.90954967  0.35059034  0.93377168  1
  Cl  Cl19  1  0.23768063  0.66790568  0.56320870  1
  Cl  Cl20  1  0.50365914  0.05382479  0.66872658  1
  Cl  Cl21  1  0.23594748  0.17367467  0.09684778  1
  Cl  Cl22  1  0.66796261  0.23752395  0.53131892  1
  Cl  Cl23  1  0.35091831  0.90950987  0.80577584  1
loop_
_geom_bond_atom_site_label_1
_geom_bond_atom_site_label_2
_geom_bond_distance
_geom_bond_site_symmetry_2
Cl0 Zr0 2.464069 1_555
Cl0 Se3 2.885220 1_455
Cl1 Se3 2.173206 1_555
Cl2 Se2 2.174975 1_555
Cl3 Zr1 2.494234 1_545
Cl3 Se3 2.820900 1_554
Cl4 Zr1 2.482258 1_556
Cl4 Se3 2.793949 1_565
Cl5 Se0 2.173134 1_555
Cl6 Se3 2.182828 1_555
Cl7 Zr0 2.482855 1_565
Cl7 Se1 2.793096 1_555
Cl8 Se1 2.174505 1_555
Cl9 Zr1 2.463755 1_555
Cl9 Se2 2.885082 1_555
Cl10 Zr0 2.481877 1_655
Cl10 Se2 2.794240 1_555
Cl11 Zr0 2.463638 1_555
Cl11 Se0 2.884504 1_545
Cl12 Zr1 2.495625 1_455
Cl12 Se0 2.820801 1_555
Cl13 Se2 2.181975 1_456
Cl14 Se0 2.182988 1_555
Cl15 Zr1 2.481950 1_555
Cl15 Se0 2.794551 1_655
Cl16 Zr1 2.463219 1_555
Cl16 Se1 2.885831 1_555
Cl17 Zr0 2.494953 1_555
Cl17 Se1 2.822251 1_545
Cl18 Se2 2.173052 1_556
Cl19 Se0 2.174414 1_555
Cl20 Se1 2.182554 1_545
Cl21 Zr0 2.495044 1_555
Cl21 Se2 2.821344 1_455
Cl22 Se3 2.175162 1_555
Cl23 Se1 2.172628 1_555
