# generated using pymatgen
data_Cs2I4O11
_symmetry_space_group_name_H-M   'P 1'
_cell_length_a   7.41534840
_cell_length_b   12.73797684
_cell_length_c   16.14533730
_cell_angle_alpha   58.31509067
_cell_angle_beta   90.00000000
_cell_angle_gamma   90.00000000
_symmetry_Int_Tables_number   1
_chemical_formula_structural   Cs2I4O11
_chemical_formula_sum   'Cs8 I16 O44'
_cell_volume   1297.72572871
_cell_formula_units_Z   4
loop_
 _symmetry_equiv_pos_site_id
 _symmetry_equiv_pos_as_xyz
  1  'x, y, z'
loop_
 _atom_site_type_symbol
 _atom_site_label
 _atom_site_symmetry_multiplicity
 _atom_site_fract_x
 _atom_site_fract_y
 _atom_site_fract_z
 _atom_site_occupancy
  Cs  Cs0  1  0.75276126  0.37530042  0.06006471  1
  Cs  Cs1  1  0.75295236  0.13007447  0.42925841  1
  Cs  Cs2  1  0.24704764  0.86992553  0.57074159  1
  Cs  Cs3  1  0.25276126  0.62469958  0.43993529  1
  Cs  Cs4  1  0.74723874  0.37530042  0.56006471  1
  Cs  Cs5  1  0.74704764  0.13007447  0.92925841  1
  Cs  Cs6  1  0.25295236  0.86992553  0.07074159  1
  Cs  Cs7  1  0.24723874  0.62469958  0.93993529  1
  I  I0  1  0.71961697  0.73391360  0.26781034  1
  I  I1  1  0.22442461  0.23142668  0.99525265  1
  I  I2  1  0.96396809  0.00934695  0.73832009  1
  I  I3  1  0.01243905  0.48972554  0.73562094  1
  I  I4  1  0.03603191  0.99065305  0.26167991  1
  I  I5  1  0.27557539  0.23142668  0.49525265  1
  I  I6  1  0.48756095  0.48972554  0.23562094  1
  I  I7  1  0.53603191  0.00934695  0.23832009  1
  I  I8  1  0.28038303  0.26608640  0.73218966  1
  I  I9  1  0.46396809  0.99065305  0.76167991  1
  I  I10  1  0.21961697  0.26608640  0.23218966  1
  I  I11  1  0.51243905  0.51027446  0.76437906  1
  I  I12  1  0.78038303  0.73391360  0.76781034  1
  I  I13  1  0.98756095  0.51027446  0.26437906  1
  I  I14  1  0.72442461  0.76857332  0.50474735  1
  I  I15  1  0.77557539  0.76857332  0.00474735  1
  O  O0  1  0.96678114  0.10634438  0.60771664  1
  O  O1  1  0.88700562  0.39330309  0.24899459  1
  O  O2  1  0.82114226  0.66035936  0.89623108  1
  O  O3  1  0.25454338  0.08681370  0.75446182  1
  O  O4  1  0.75454338  0.91318630  0.74553818  1
  O  O5  1  0.17885774  0.33964064  0.10376892  1
  O  O6  1  0.25268520  0.43804200  0.72074434  1
  O  O7  1  0.03794071  0.26128908  0.73608080  1
  O  O8  1  0.38700562  0.60669691  0.25100541  1
  O  O9  1  0.08020442  0.10286877  0.07812165  1
  O  O10  1  0.46678114  0.89365562  0.89228336  1
  O  O11  1  0.74731480  0.56195800  0.27925566  1
  O  O12  1  0.11388081  0.88785691  0.75542226  1
  O  O13  1  0.46205929  0.26128908  0.23608080  1
  O  O14  1  0.24545662  0.08681370  0.25446182  1
  O  O15  1  0.91979558  0.89713123  0.92187835  1
  O  O16  1  0.74545662  0.91318630  0.24553818  1
  O  O17  1  0.79268905  0.82860319  0.58010714  1
  O  O18  1  0.04598544  0.33680315  0.92094813  1
  O  O19  1  0.20731095  0.17139681  0.41989286  1
  O  O20  1  0.61388081  0.11214309  0.74457774  1
  O  O21  1  0.54598544  0.66319685  0.57905187  1
  O  O22  1  0.58020442  0.89713123  0.42187835  1
  O  O23  1  0.88611919  0.11214309  0.24457774  1
  O  O24  1  0.75268520  0.56195800  0.77925566  1
  O  O25  1  0.29268905  0.17139681  0.91989286  1
  O  O26  1  0.03321886  0.89365562  0.39228336  1
  O  O27  1  0.95401456  0.66319685  0.07905187  1
  O  O28  1  0.53794071  0.73871092  0.76391920  1
  O  O29  1  0.32114226  0.33964064  0.60376892  1
  O  O30  1  0.38611919  0.88785691  0.25542226  1
  O  O31  1  0.53477856  0.57718922  0.10702206  1
  O  O32  1  0.11299438  0.60669691  0.75100541  1
  O  O33  1  0.41979558  0.10286877  0.57812165  1
  O  O34  1  0.03477856  0.42281078  0.39297794  1
  O  O35  1  0.53321886  0.10634438  0.10771664  1
  O  O36  1  0.61299438  0.39330309  0.74899459  1
  O  O37  1  0.67885774  0.66035936  0.39623108  1
  O  O38  1  0.24731480  0.43804200  0.22074434  1
  O  O39  1  0.70731095  0.82860319  0.08010714  1
  O  O40  1  0.46522144  0.42281078  0.89297794  1
  O  O41  1  0.45401456  0.33680315  0.42094813  1
  O  O42  1  0.96522144  0.57718922  0.60702206  1
  O  O43  1  0.96205929  0.73871092  0.26391920  1
loop_
_geom_bond_atom_site_label_1
_geom_bond_atom_site_label_2
_geom_bond_distance
_geom_bond_site_symmetry_2
Cs0 O2 3.216972 1_554
Cs0 O5 3.217287 1_655
Cs0 O40 3.236505 1_554
Cs0 O13 3.239826 1_555
Cs0 O23 3.255582 1_555
Cs0 O1 3.329101 1_555
Cs0 O18 3.342192 1_654
Cs0 O31 3.442256 1_555
Cs0 O35 3.494358 1_555
Cs1 O0 3.161067 1_555
Cs1 O1 3.232629 1_555
Cs1 O23 3.260898 1_555
Cs1 O22 3.291042 1_545
Cs1 O17 3.307599 1_545
Cs1 O33 3.335406 1_555
Cs1 O41 3.390431 1_555
Cs1 O19 3.401177 1_655
Cs1 O13 3.420235 1_555
Cs2 O26 3.161067 1_555
Cs2 O32 3.232629 1_555
Cs2 O12 3.260898 1_555
Cs2 O33 3.291042 1_565
Cs2 O19 3.307599 1_565
Cs2 O22 3.335406 1_555
Cs2 O21 3.390431 1_555
Cs2 O17 3.401177 1_455
Cs2 O28 3.420235 1_555
Cs3 O29 3.216972 1_555
Cs3 O37 3.217287 1_555
Cs3 O42 3.236505 1_455
Cs3 O43 3.239826 1_455
Cs3 O30 3.255582 1_555
Cs3 O8 3.329101 1_555
Cs3 O21 3.342192 1_555
Cs3 O34 3.442256 1_555
Cs3 O26 3.494358 1_555
Cs4 O37 3.216972 1_555
Cs4 O29 3.217287 1_555
Cs4 O34 3.236505 1_655
Cs4 O7 3.239826 1_655
Cs4 O20 3.255582 1_555
Cs4 O36 3.329101 1_555
Cs4 O41 3.342192 1_555
Cs4 O42 3.442256 1_555
Cs4 O0 3.494358 1_555
Cs5 O35 3.161067 1_556
Cs5 O36 3.232629 1_555
Cs5 O20 3.260898 1_555
Cs5 O15 3.291042 1_545
Cs5 O39 3.307599 1_546
Cs5 O9 3.335406 1_656
Cs5 O18 3.390431 1_655
Cs5 O25 3.401177 1_555
Cs5 O7 3.420235 1_655
Cs6 O10 3.161067 1_554
Cs6 O8 3.232629 1_555
Cs6 O30 3.260898 1_555
Cs6 O9 3.291042 1_565
Cs6 O25 3.307599 1_564
Cs6 O15 3.335406 1_454
Cs6 O27 3.390431 1_455
Cs6 O39 3.401177 1_555
Cs6 O43 3.420235 1_455
Cs7 O5 3.216972 1_556
Cs7 O2 3.217287 1_455
Cs7 O31 3.236505 1_556
Cs7 O28 3.239826 1_555
Cs7 O12 3.255582 1_555
Cs7 O32 3.329101 1_555
Cs7 O27 3.342192 1_456
Cs7 O40 3.442256 1_555
Cs7 O10 3.494358 1_555
I0 O37 1.796508 1_555
I0 O43 1.798809 1_555
I0 O11 2.109228 1_555
I0 O16 2.125583 1_555
I0 O39 2.609098 1_555
I1 O25 1.816225 1_555
I1 O18 1.816632 1_555
I1 O9 1.820392 1_556
I2 O0 1.799024 1_555
I2 O12 1.804995 1_645
I2 O4 1.943106 1_545
I2 O3 2.440203 1_655
I2 O15 2.546246 1_545
I3 O32 1.796249 1_555
I3 O42 1.801317 1_455
I3 O6 1.957292 1_555
I3 O24 2.394565 1_455
I3 O18 2.585834 1_555
I4 O26 1.799024 1_555
I4 O23 1.804995 1_465
I4 O14 1.943106 1_565
I4 O16 2.440203 1_455
I4 O9 2.546246 1_565
I5 O19 1.816225 1_555
I5 O41 1.816632 1_555
I5 O33 1.820392 1_555
I6 O8 1.796249 1_555
I6 O31 1.801317 1_555
I6 O38 1.957292 1_555
I6 O11 2.394565 1_555
I6 O41 2.585834 1_555
I7 O35 1.799024 1_555
I7 O30 1.804995 1_545
I7 O16 1.943106 1_545
I7 O14 2.440203 1_555
I7 O22 2.546246 1_545
I8 O29 1.796508 1_555
I8 O7 1.798809 1_555
I8 O6 2.109228 1_555
I8 O3 2.125583 1_555
I8 O25 2.609098 1_555
I9 O10 1.799024 1_555
I9 O20 1.804995 1_565
I9 O3 1.943106 1_565
I9 O4 2.440203 1_555
I9 O33 2.546246 1_565
I10 O5 1.796508 1_555
I10 O13 1.798809 1_555
I10 O38 2.109228 1_555
I10 O14 2.125583 1_555
I10 O19 2.609098 1_555
I11 O36 1.796249 1_555
I11 O40 1.801317 1_555
I11 O24 1.957292 1_555
I11 O6 2.394565 1_555
I11 O21 2.585834 1_555
I12 O2 1.796508 1_555
I12 O28 1.798809 1_555
I12 O24 2.109228 1_555
I12 O4 2.125583 1_555
I12 O17 2.609098 1_555
I13 O1 1.796249 1_555
I13 O34 1.801317 1_655
I13 O11 1.957292 1_555
I13 O38 2.394565 1_655
I13 O27 2.585834 1_555
I14 O17 1.816225 1_555
I14 O21 1.816632 1_555
I14 O22 1.820392 1_555
I15 O39 1.816225 1_555
I15 O27 1.816632 1_555
I15 O15 1.820392 1_554
