# generated using pymatgen
data_RbAu(CN)2
_symmetry_space_group_name_H-M   'P 1'
_cell_length_a   10.36980685
_cell_length_b   10.36980685
_cell_length_c   13.88256696
_cell_angle_alpha   75.13750946
_cell_angle_beta   75.13750946
_cell_angle_gamma   53.48630272
_symmetry_Int_Tables_number   1
_chemical_formula_structural   RbAu(CN)2
_chemical_formula_sum   'Rb8 Au8 C16 N16'
_cell_volume   1149.25563135
_cell_formula_units_Z   8
loop_
 _symmetry_equiv_pos_site_id
 _symmetry_equiv_pos_as_xyz
  1  'x, y, z'
loop_
 _atom_site_type_symbol
 _atom_site_label
 _atom_site_symmetry_multiplicity
 _atom_site_fract_x
 _atom_site_fract_y
 _atom_site_fract_z
 _atom_site_occupancy
  Rb  Rb0  1  0.42230800  0.22790800  0.98269500  1
  Rb  Rb1  1  0.77209200  0.57769200  0.51730500  1
  Rb  Rb2  1  0.22790800  0.42230800  0.48269500  1
  Rb  Rb3  1  0.48383700  0.01064100  0.31629000  1
  Rb  Rb4  1  0.57769200  0.77209200  0.01730500  1
  Rb  Rb5  1  0.51616300  0.98935900  0.68371000  1
  Rb  Rb6  1  0.98935900  0.51616300  0.18371000  1
  Rb  Rb7  1  0.01064100  0.48383700  0.81629000  1
  Au  Au0  1  0.51300700  0.48699300  0.75000000  1
  Au  Au1  1  0.13523900  0.83218400  0.57698300  1
  Au  Au2  1  0.86476100  0.16781600  0.42301700  1
  Au  Au3  1  0.83218400  0.13523900  0.07698300  1
  Au  Au4  1  0.09971800  0.90028200  0.25000000  1
  Au  Au5  1  0.48699300  0.51300700  0.25000000  1
  Au  Au6  1  0.90028200  0.09971800  0.75000000  1
  Au  Au7  1  0.16781600  0.86476100  0.92301700  1
  C  C0  1  0.60083700  0.58429200  0.79484700  1
  C  C1  1  0.02293800  0.22500600  0.40467400  1
  C  C2  1  0.58429200  0.60083700  0.29484700  1
  C  C3  1  0.31448000  0.86063400  0.55815300  1
  C  C4  1  0.00301000  0.21940000  0.68773200  1
  C  C5  1  0.13936600  0.68552000  0.94184700  1
  C  C6  1  0.97706200  0.77499400  0.59532600  1
  C  C7  1  0.86063400  0.31448000  0.05815300  1
  C  C8  1  0.21940000  0.00301000  0.18773200  1
  C  C9  1  0.68552000  0.13936600  0.44184700  1
  C  C10  1  0.41570800  0.39916300  0.70515300  1
  C  C11  1  0.99699000  0.78060000  0.31226800  1
  C  C12  1  0.22500600  0.02293800  0.90467400  1
  C  C13  1  0.77499400  0.97706200  0.09532600  1
  C  C14  1  0.39916300  0.41570800  0.20515300  1
  C  C15  1  0.78060000  0.99699000  0.81226800  1
  N  N0  1  0.73026400  0.89278100  0.10605400  1
  N  N1  1  0.29785700  0.05483600  0.15039300  1
  N  N2  1  0.64579500  0.64908900  0.32085900  1
  N  N3  1  0.89278100  0.73026400  0.60605400  1
  N  N4  1  0.35091100  0.35420500  0.17914100  1
  N  N5  1  0.64908900  0.64579500  0.82085900  1
  N  N6  1  0.86714000  0.42673400  0.04747100  1
  N  N7  1  0.42673400  0.86714000  0.54747100  1
  N  N8  1  0.57326600  0.13286000  0.45252900  1
  N  N9  1  0.26973600  0.10721900  0.89394600  1
  N  N10  1  0.70214300  0.94516400  0.84960700  1
  N  N11  1  0.10721900  0.26973600  0.39394600  1
  N  N12  1  0.35420500  0.35091100  0.67914100  1
  N  N13  1  0.94516400  0.70214300  0.34960700  1
  N  N14  1  0.05483600  0.29785700  0.65039300  1
  N  N15  1  0.13286000  0.57326600  0.95252900  1
loop_
_geom_bond_atom_site_label_1
_geom_bond_atom_site_label_2
_geom_bond_distance
_geom_bond_site_symmetry_2
Au0 C0 1.985420 1_555
Au0 C10 1.985420 1_555
Au1 C6 1.993210 1_455
Au1 C3 1.993453 1_555
Au2 C1 1.993210 1_655
Au2 C9 1.993453 1_555
Au3 C13 1.993210 1_545
Au3 C7 1.993453 1_555
Au4 C11 1.993209 1_455
Au4 C8 1.993209 1_565
Au5 C2 1.985420 1_555
Au5 C14 1.985420 1_555
Au6 C15 1.993209 1_545
Au6 C4 1.993209 1_655
Au7 C12 1.993210 1_565
Au7 C5 1.993453 1_555
C0 N5 1.173936 1_555
C1 N11 1.175320 1_555
C2 N2 1.173936 1_555
C3 N7 1.175300 1_555
C4 N14 1.174953 1_555
C5 N15 1.175300 1_555
C6 N3 1.175320 1_555
C7 N6 1.175300 1_555
C8 N1 1.174953 1_555
C9 N8 1.175300 1_555
C10 N12 1.173936 1_555
C11 N13 1.174953 1_555
C12 N9 1.175320 1_555
C13 N0 1.175320 1_555
C14 N4 1.173936 1_555
C15 N10 1.174953 1_555
N0 Rb4 3.120070 1_555
N0 Rb6 3.236122 1_555
N0 Rb3 3.290790 1_565
N1 Rb0 3.062353 1_554
N1 Rb3 3.149428 1_555
N1 Rb4 3.214734 1_545
N2 Rb3 3.052982 1_565
N2 Rb1 3.056706 1_555
N2 Rb6 3.200061 1_555
N3 Rb1 3.120070 1_555
N3 Rb5 3.236122 1_555
N3 Rb7 3.290790 1_655
N4 Rb6 3.052982 1_455
N4 Rb0 3.056706 1_554
N4 Rb3 3.200061 1_555
N5 Rb7 3.052982 1_655
N5 Rb4 3.056706 1_556
N5 Rb5 3.200061 1_555
N6 Rb4 3.015559 1_555
N6 Rb6 3.093803 1_555
N6 Rb7 3.238652 1_654
N7 Rb1 3.015559 1_555
N7 Rb5 3.093803 1_555
N7 Rb3 3.238652 1_565
N8 Rb2 3.015559 1_555
N8 Rb3 3.093803 1_555
N8 Rb5 3.238652 1_545
N9 Rb0 3.120070 1_555
N9 Rb7 3.236122 1_555
N9 Rb5 3.290790 1_545
N10 Rb4 3.062353 1_556
N10 Rb5 3.149428 1_555
N10 Rb0 3.214734 1_565
N11 Rb2 3.120070 1_555
N11 Rb3 3.236122 1_555
N11 Rb6 3.290790 1_455
N12 Rb5 3.052982 1_545
N12 Rb2 3.056706 1_555
N12 Rb7 3.200061 1_555
N13 Rb1 3.062353 1_555
N13 Rb6 3.149428 1_555
N13 Rb2 3.214734 1_655
N14 Rb2 3.062353 1_555
N14 Rb7 3.149428 1_555
N14 Rb1 3.214734 1_455
N15 Rb0 3.015559 1_555
N15 Rb7 3.093803 1_555
N15 Rb6 3.238652 1_456
