# generated using pymatgen
data_Ba(CuS)2
_symmetry_space_group_name_H-M   'P 1'
_cell_length_a   4.03982642
_cell_length_b   9.24482989
_cell_length_c   10.38927510
_cell_angle_alpha   90.00000000
_cell_angle_beta   90.00000000
_cell_angle_gamma   90.00000000
_symmetry_Int_Tables_number   1
_chemical_formula_structural   Ba(CuS)2
_chemical_formula_sum   'Ba4 Cu8 S8'
_cell_volume   388.01353531
_cell_formula_units_Z   4
loop_
 _symmetry_equiv_pos_site_id
 _symmetry_equiv_pos_as_xyz
  1  'x, y, z'
loop_
 _atom_site_type_symbol
 _atom_site_label
 _atom_site_symmetry_multiplicity
 _atom_site_fract_x
 _atom_site_fract_y
 _atom_site_fract_z
 _atom_site_occupancy
  Ba  Ba0  1  0.75000000  0.26030115  0.67585169  1
  Ba  Ba1  1  0.25000000  0.73969885  0.32414831  1
  Ba  Ba2  1  0.75000000  0.76030115  0.82414831  1
  Ba  Ba3  1  0.25000000  0.23969885  0.17585169  1
  Cu  Cu0  1  0.25000000  0.08392632  0.45757902  1
  Cu  Cu1  1  0.75000000  0.91607368  0.54242098  1
  Cu  Cu2  1  0.25000000  0.58392632  0.04242098  1
  Cu  Cu3  1  0.75000000  0.41607368  0.95757902  1
  Cu  Cu4  1  0.25000000  0.55602064  0.61405175  1
  Cu  Cu5  1  0.75000000  0.44397936  0.38594825  1
  Cu  Cu6  1  0.25000000  0.05602064  0.88594825  1
  Cu  Cu7  1  0.75000000  0.94397936  0.11405175  1
  S  S0  1  0.75000000  0.15571701  0.95839189  1
  S  S1  1  0.25000000  0.84428299  0.04160811  1
  S  S2  1  0.75000000  0.65571701  0.54160811  1
  S  S3  1  0.25000000  0.34428299  0.45839189  1
  S  S4  1  0.25000000  0.98090613  0.66623574  1
  S  S5  1  0.75000000  0.01909387  0.33376426  1
  S  S6  1  0.25000000  0.48090613  0.83376426  1
  S  S7  1  0.75000000  0.51909387  0.16623574  1
loop_
_geom_bond_atom_site_label_1
_geom_bond_atom_site_label_2
_geom_bond_distance
_geom_bond_site_symmetry_2
Ba0 S0 3.090522 1_555
Ba0 S3 3.128426 1_655
Ba0 S3 3.128426 1_555
Ba0 Cu3 3.262032 1_555
Ba0 S4 3.280504 1_645
Ba0 S4 3.280504 1_545
Ba0 S6 3.306204 1_655
Ba0 S6 3.306204 1_555
Ba0 Cu0 3.446912 1_555
Ba0 Cu0 3.446912 1_655
Ba0 Cu5 3.457588 1_555
Ba0 Cu4 3.459244 1_655
Ba0 Cu4 3.459244 1_555
Ba0 Cu1 3.471149 1_545
Ba0 Cu6 3.522929 1_655
Ba0 Cu6 3.522929 1_555
Ba1 S1 3.090522 1_555
Ba1 S2 3.128426 1_555
Ba1 S2 3.128426 1_455
Ba1 Cu2 3.262032 1_555
Ba1 S5 3.280504 1_465
Ba1 S5 3.280504 1_565
Ba1 S7 3.306204 1_455
Ba1 S7 3.306204 1_555
Ba1 Cu1 3.446912 1_455
Ba1 Cu1 3.446912 1_555
Ba1 Cu4 3.457588 1_555
Ba1 Cu5 3.459244 1_455
Ba1 Cu5 3.459244 1_555
Ba1 Cu0 3.471149 1_565
Ba1 Cu7 3.522929 1_555
Ba1 Cu7 3.522929 1_455
Ba2 S2 3.090522 1_555
Ba2 S1 3.128426 1_656
Ba2 S1 3.128426 1_556
Ba2 Cu1 3.262032 1_555
Ba2 S6 3.280504 1_655
Ba2 S6 3.280504 1_555
Ba2 S4 3.306204 1_655
Ba2 S4 3.306204 1_555
Ba2 Cu2 3.446912 1_556
Ba2 Cu2 3.446912 1_656
Ba2 Cu7 3.457588 1_556
Ba2 Cu6 3.459244 1_665
Ba2 Cu6 3.459244 1_565
Ba2 Cu3 3.471149 1_555
Ba2 Cu4 3.522929 1_555
Ba2 Cu4 3.522929 1_655
Ba3 S3 3.090522 1_555
Ba3 S0 3.128426 1_554
Ba3 S0 3.128426 1_454
Ba3 Cu0 3.262032 1_555
Ba3 S7 3.280504 1_455
Ba3 S7 3.280504 1_555
Ba3 S5 3.306204 1_455
Ba3 S5 3.306204 1_555
Ba3 Cu3 3.446912 1_554
Ba3 Cu3 3.446912 1_454
Ba3 Cu6 3.457588 1_554
Ba3 Cu7 3.459244 1_445
Ba3 Cu7 3.459244 1_545
Ba3 Cu2 3.471149 1_555
Ba3 Cu5 3.522929 1_555
Ba3 Cu5 3.522929 1_455
Cu0 S4 2.367783 1_545
Cu0 S3 2.406968 1_555
Cu0 S5 2.468597 1_555
Cu0 S5 2.468597 1_455
Cu1 S5 2.367783 1_565
Cu1 S2 2.406968 1_555
Cu1 S4 2.468597 1_555
Cu1 S4 2.468597 1_655
Cu2 S6 2.367783 1_554
Cu2 S1 2.406968 1_555
Cu2 S7 2.468597 1_555
Cu2 S7 2.468597 1_455
Cu3 S7 2.367783 1_556
Cu3 S0 2.406968 1_555
Cu3 S6 2.468597 1_655
Cu3 S6 2.468597 1_555
Cu4 S2 2.344355 1_455
Cu4 S2 2.344355 1_555
Cu4 S6 2.385944 1_555
Cu4 S3 2.539101 1_555
Cu5 S3 2.344355 1_555
Cu5 S3 2.344355 1_655
Cu5 S7 2.385944 1_555
Cu5 S2 2.539101 1_555
Cu6 S0 2.344355 1_455
Cu6 S0 2.344355 1_555
Cu6 S4 2.385944 1_545
Cu6 S1 2.539101 1_546
Cu7 S1 2.344355 1_555
Cu7 S1 2.344355 1_655
Cu7 S5 2.385944 1_565
Cu7 S0 2.539101 1_564
