# generated using pymatgen
data_KY(PO3)4
_symmetry_space_group_name_H-M   'P 1'
_cell_length_a   7.41751736
_cell_length_b   7.41751736
_cell_length_c   10.55999106
_cell_angle_alpha   78.96831587
_cell_angle_beta   78.96831587
_cell_angle_gamma   115.35559677
_symmetry_Int_Tables_number   1
_chemical_formula_structural   KY(PO3)4
_chemical_formula_sum   'K2 Y2 P8 O24'
_cell_volume   490.26165732
_cell_formula_units_Z   2
loop_
 _symmetry_equiv_pos_site_id
 _symmetry_equiv_pos_as_xyz
  1  'x, y, z'
loop_
 _atom_site_type_symbol
 _atom_site_label
 _atom_site_symmetry_multiplicity
 _atom_site_fract_x
 _atom_site_fract_y
 _atom_site_fract_z
 _atom_site_occupancy
  K  K0  1  0.81534400  0.18465600  0.75000000  1
  K  K1  1  0.18465600  0.81534400  0.25000000  1
  Y  Y0  1  0.87990900  0.12009100  0.25000000  1
  Y  Y1  1  0.12009100  0.87990900  0.75000000  1
  P  P0  1  0.25530700  0.30310800  0.44290500  1
  P  P1  1  0.69689200  0.74469300  0.05709500  1
  P  P2  1  0.74469300  0.69689200  0.55709500  1
  P  P3  1  0.30310800  0.25530700  0.94290500  1
  P  P4  1  0.28618300  0.62654900  0.99658300  1
  P  P5  1  0.37345100  0.71381700  0.50341700  1
  P  P6  1  0.71381700  0.37345100  0.00341700  1
  P  P7  1  0.62654900  0.28618300  0.49658300  1
  O  O0  1  0.18543500  0.24710300  0.32612600  1
  O  O1  1  0.75289700  0.81456500  0.17387400  1
  O  O2  1  0.81456500  0.75289700  0.67387400  1
  O  O3  1  0.24710300  0.18543500  0.82612600  1
  O  O4  1  0.13581800  0.15722200  0.58530800  1
  O  O5  1  0.84277800  0.86418200  0.91469200  1
  O  O6  1  0.86418200  0.84277800  0.41469200  1
  O  O7  1  0.15722200  0.13581800  0.08530800  1
  O  O8  1  0.27205600  0.52916900  0.43595200  1
  O  O9  1  0.47083100  0.72794400  0.06404800  1
  O  O10  1  0.72794400  0.47083100  0.56404800  1
  O  O11  1  0.52916900  0.27205600  0.93595200  1
  O  O12  1  0.35853900  0.49934700  0.91079700  1
  O  O13  1  0.50065300  0.64146100  0.58920300  1
  O  O14  1  0.64146100  0.50065300  0.08920300  1
  O  O15  1  0.49934700  0.35853900  0.41079700  1
  O  O16  1  0.09071400  0.48748800  0.11442400  1
  O  O17  1  0.51251200  0.90928600  0.38557600  1
  O  O18  1  0.90928600  0.51251200  0.88557600  1
  O  O19  1  0.48748800  0.09071400  0.61442400  1
  O  O20  1  0.29776800  0.80903600  0.89747200  1
  O  O21  1  0.19096400  0.70223200  0.60252800  1
  O  O22  1  0.70223200  0.19096400  0.10252800  1
  O  O23  1  0.80903600  0.29776800  0.39747200  1
loop_
_geom_bond_atom_site_label_1
_geom_bond_atom_site_label_2
_geom_bond_distance
_geom_bond_site_symmetry_2
K0 O4 2.772061 1_655
K0 O5 2.772061 1_545
K0 O18 2.951641 1_555
K0 O19 2.951641 1_555
K0 O10 2.975348 1_555
K0 O11 2.975348 1_555
K1 O6 2.772061 1_455
K1 O7 2.772061 1_565
K1 O16 2.951641 1_555
K1 O17 2.951641 1_555
K1 O9 2.975348 1_555
K1 O8 2.975348 1_555
O0 P0 1.489356 1_555
O0 Y0 2.414151 1_455
O1 P1 1.489356 1_555
O1 Y0 2.414151 1_565
O2 P2 1.489356 1_555
O2 Y1 2.414151 1_655
O3 P3 1.489356 1_555
O3 Y1 2.414151 1_545
O4 P0 1.504525 1_555
O4 Y1 2.370052 1_545
O5 P1 1.504525 1_556
O5 Y1 2.370052 1_655
O6 P2 1.504525 1_555
O6 Y0 2.370052 1_565
O7 P3 1.504525 1_554
O7 Y0 2.370052 1_455
O8 P0 1.613534 1_555
O8 P5 1.626449 1_555
O9 P1 1.613534 1_555
O9 P4 1.626449 1_554
O10 P2 1.613534 1_555
O10 P7 1.626449 1_555
O11 P3 1.613534 1_555
O11 P6 1.626449 1_556
O12 P4 1.604272 1_555
O12 P3 1.623283 1_555
O13 P5 1.604272 1_555
O13 P2 1.623283 1_555
O14 P6 1.604272 1_555
O14 P1 1.623283 1_555
O15 P7 1.604272 1_555
O15 P0 1.623283 1_555
O16 P4 1.500692 1_554
O16 Y0 2.433473 1_455
O17 P5 1.500692 1_555
O17 Y0 2.433473 1_565
O18 P6 1.500692 1_556
O18 Y1 2.433473 1_655
O19 P7 1.500692 1_555
O19 Y1 2.433473 1_545
O20 P4 1.502930 1_555
O20 Y1 2.346064 1_555
O21 P5 1.502930 1_555
O21 Y1 2.346064 1_555
O22 P6 1.502930 1_555
O22 Y0 2.346064 1_555
O23 P7 1.502930 1_555
O23 Y0 2.346064 1_555
