# generated using pymatgen
data_Cs2TlCl5
_symmetry_space_group_name_H-M   'P 1'
_cell_length_a   7.52973442
_cell_length_b   9.41838916
_cell_length_c   15.07143808
_cell_angle_alpha   90.00000000
_cell_angle_beta   90.00000000
_cell_angle_gamma   90.00000000
_symmetry_Int_Tables_number   1
_chemical_formula_structural   Cs2TlCl5
_chemical_formula_sum   'Cs8 Tl4 Cl20'
_cell_volume   1068.83577913
_cell_formula_units_Z   4
loop_
 _symmetry_equiv_pos_site_id
 _symmetry_equiv_pos_as_xyz
  1  'x, y, z'
loop_
 _atom_site_type_symbol
 _atom_site_label
 _atom_site_symmetry_multiplicity
 _atom_site_fract_x
 _atom_site_fract_y
 _atom_site_fract_z
 _atom_site_occupancy
  Cs  Cs0  1  0.25000000  0.46840673  0.29736021  1
  Cs  Cs1  1  0.75000000  0.53159327  0.70263979  1
  Cs  Cs2  1  0.25000000  0.96840673  0.20263979  1
  Cs  Cs3  1  0.75000000  0.03159327  0.79736021  1
  Cs  Cs4  1  0.75000000  0.32427816  0.07835751  1
  Cs  Cs5  1  0.25000000  0.67572184  0.92164249  1
  Cs  Cs6  1  0.75000000  0.82427816  0.42164249  1
  Cs  Cs7  1  0.25000000  0.17572184  0.57835751  1
  Tl  Tl0  1  0.75000000  0.31247608  0.42996722  1
  Tl  Tl1  1  0.25000000  0.68752392  0.57003278  1
  Tl  Tl2  1  0.75000000  0.81247608  0.07003278  1
  Tl  Tl3  1  0.25000000  0.18752392  0.92996722  1
  Cl  Cl0  1  0.50000000  0.50000000  0.50000000  1
  Cl  Cl1  1  0.00000000  0.50000000  0.50000000  1
  Cl  Cl2  1  0.00000000  0.00000000  0.00000000  1
  Cl  Cl3  1  0.50000000  0.00000000  0.00000000  1
  Cl  Cl4  1  0.00694720  0.15726552  0.37624229  1
  Cl  Cl5  1  0.50694720  0.84273448  0.62375771  1
  Cl  Cl6  1  0.49305280  0.65726552  0.12375771  1
  Cl  Cl7  1  0.99305280  0.34273448  0.87624229  1
  Cl  Cl8  1  0.99305280  0.84273448  0.62375771  1
  Cl  Cl9  1  0.49305280  0.15726552  0.37624229  1
  Cl  Cl10  1  0.50694720  0.34273448  0.87624229  1
  Cl  Cl11  1  0.00694720  0.65726552  0.12375771  1
  Cl  Cl12  1  0.75000000  0.20257939  0.58492305  1
  Cl  Cl13  1  0.25000000  0.79742061  0.41507695  1
  Cl  Cl14  1  0.75000000  0.70257939  0.91507695  1
  Cl  Cl15  1  0.25000000  0.29742061  0.08492305  1
  Cl  Cl16  1  0.75000000  0.47489891  0.29797538  1
  Cl  Cl17  1  0.25000000  0.52510109  0.70202462  1
  Cl  Cl18  1  0.75000000  0.97489891  0.20202462  1
  Cl  Cl19  1  0.25000000  0.02510109  0.79797538  1
loop_
_geom_bond_atom_site_label_1
_geom_bond_atom_site_label_2
_geom_bond_distance
_geom_bond_site_symmetry_2
Cl0 Tl0 2.788726 1_555
Cl0 Tl1 2.788726 1_555
Cl0 Cs0 3.599925 1_555
Cl0 Cs1 3.599925 1_555
Cl0 Cs6 3.777066 1_555
Cl0 Cs7 3.777066 1_555
Cl1 Tl0 2.788726 1_455
Cl1 Tl1 2.788726 1_555
Cl1 Cs0 3.599925 1_555
Cl1 Cs1 3.599925 1_455
Cl1 Cs7 3.777066 1_555
Cl1 Cs6 3.777066 1_455
Cl2 Tl2 2.788726 1_445
Cl2 Tl3 2.788726 1_554
Cl2 Cs3 3.599925 1_454
Cl2 Cs2 3.599925 1_545
Cl2 Cs4 3.777066 1_455
Cl2 Cs5 3.777066 1_544
Cl3 Tl2 2.788726 1_545
Cl3 Tl3 2.788726 1_554
Cl3 Cs3 3.599925 1_554
Cl3 Cs2 3.599925 1_545
Cl3 Cs4 3.777066 1_555
Cl3 Cs5 3.777066 1_544
Cl4 Tl0 2.556526 1_455
Cl4 Cs7 3.557907 1_555
Cl4 Cs0 3.653804 1_555
Cl4 Cs2 3.655002 1_545
Cl4 Cs6 3.747960 1_445
Cl5 Tl1 2.556526 1_555
Cl5 Cs6 3.557907 1_555
Cl5 Cs1 3.653804 1_555
Cl5 Cs3 3.655002 1_565
Cl5 Cs7 3.747960 1_565
Cl6 Tl2 2.556526 1_555
Cl6 Cs5 3.557907 1_554
Cl6 Cs2 3.653804 1_555
Cl6 Cs0 3.655002 1_555
Cl6 Cs4 3.747960 1_555
Cl7 Tl3 2.556526 1_655
Cl7 Cs4 3.557907 1_556
Cl7 Cs3 3.653804 1_555
Cl7 Cs1 3.655002 1_555
Cl7 Cs5 3.747960 1_655
Cl8 Tl1 2.556526 1_655
Cl8 Cs6 3.557907 1_555
Cl8 Cs1 3.653804 1_555
Cl8 Cs3 3.655002 1_565
Cl8 Cs7 3.747960 1_665
Cl9 Tl0 2.556526 1_555
Cl9 Cs7 3.557907 1_555
Cl9 Cs0 3.653804 1_555
Cl9 Cs2 3.655002 1_545
Cl9 Cs6 3.747960 1_545
Cl10 Tl3 2.556526 1_555
Cl10 Cs4 3.557907 1_556
Cl10 Cs3 3.653804 1_555
Cl10 Cs1 3.655002 1_555
Cl10 Cs5 3.747960 1_555
Cl11 Tl2 2.556526 1_455
Cl11 Cs5 3.557907 1_554
Cl11 Cs2 3.653804 1_555
Cl11 Cs0 3.655002 1_555
Cl11 Cs4 3.747960 1_455
Cl12 Tl0 2.554497 1_555
Cl12 Cs1 3.570727 1_555
Cl12 Cs3 3.583927 1_555
Cl12 Cs7 3.774653 1_555
Cl12 Cs7 3.774653 1_655
Cl13 Tl1 2.554497 1_555
Cl13 Cs0 3.570727 1_555
Cl13 Cs2 3.583927 1_555
Cl13 Cs6 3.774653 1_555
Cl13 Cs6 3.774653 1_455
Cl14 Tl2 2.554497 1_556
Cl14 Cs3 3.570727 1_565
Cl14 Cs1 3.583927 1_555
Cl14 Cs5 3.774653 1_655
Cl14 Cs5 3.774653 1_555
Cl15 Tl3 2.554497 1_554
Cl15 Cs2 3.570727 1_545
Cl15 Cs0 3.583927 1_555
Cl15 Cs4 3.774653 1_555
Cl15 Cs4 3.774653 1_455
Cl16 Tl0 2.509484 1_555
Cl16 Cs4 3.601146 1_555
Cl16 Cs0 3.765375 1_555
Cl16 Cs0 3.765375 1_655
Cl16 Cs6 3.781783 1_555
Cl17 Tl1 2.509484 1_555
Cl17 Cs5 3.601146 1_555
Cl17 Cs1 3.765375 1_455
Cl17 Cs1 3.765375 1_555
Cl17 Cs7 3.781783 1_555
Cl18 Tl2 2.509484 1_555
Cl18 Cs6 3.601146 1_555
Cl18 Cs2 3.765375 1_655
Cl18 Cs2 3.765375 1_555
Cl18 Cs4 3.781783 1_565
Cl19 Tl3 2.509484 1_555
Cl19 Cs7 3.601146 1_555
Cl19 Cs3 3.765375 1_455
Cl19 Cs3 3.765375 1_555
Cl19 Cs5 3.781783 1_545
