# generated using pymatgen
data_Nd6Fe13Sb
_symmetry_space_group_name_H-M   'P 1'
_cell_length_a   13.03642993
_cell_length_b   13.03642993
_cell_length_c   13.03642993
_cell_angle_alpha   143.95074712
_cell_angle_beta   143.95074712
_cell_angle_gamma   51.90094896
_symmetry_Int_Tables_number   1
_chemical_formula_structural   Nd6Fe13Sb
_chemical_formula_sum   'Nd12 Fe26 Sb2'
_cell_volume   762.94279493
_cell_formula_units_Z   2
loop_
 _symmetry_equiv_pos_site_id
 _symmetry_equiv_pos_as_xyz
  1  'x, y, z'
loop_
 _atom_site_type_symbol
 _atom_site_label
 _atom_site_symmetry_multiplicity
 _atom_site_fract_x
 _atom_site_fract_y
 _atom_site_fract_z
 _atom_site_occupancy
  Nd  Nd0  1  0.89593900  0.89593900  0.00000000  1
  Nd  Nd1  1  0.47743700  0.97743700  0.82509400  1
  Nd  Nd2  1  0.34765700  0.52256300  0.50000000  1
  Nd  Nd3  1  0.84765700  0.34765700  0.82509400  1
  Nd  Nd4  1  0.52256300  0.02256300  0.17490600  1
  Nd  Nd5  1  0.65234300  0.47743700  0.50000000  1
  Nd  Nd6  1  0.10406100  0.10406100  0.00000000  1
  Nd  Nd7  1  0.39593900  0.39593900  0.00000000  1
  Nd  Nd8  1  0.15234300  0.65234300  0.17490600  1
  Nd  Nd9  1  0.60406100  0.60406100  0.00000000  1
  Nd  Nd10  1  0.02256300  0.84765700  0.50000000  1
  Nd  Nd11  1  0.97743700  0.15234300  0.50000000  1
  Fe  Fe0  1  0.70957700  0.43329900  0.14287600  1
  Fe  Fe1  1  0.52027100  0.79277500  0.50000000  1
  Fe  Fe2  1  0.20722500  0.70722500  0.72749600  1
  Fe  Fe3  1  0.56670100  0.70957700  0.27627800  1
  Fe  Fe4  1  0.79042300  0.93329900  0.72372200  1
  Fe  Fe5  1  0.38002100  0.88002100  0.14290500  1
  Fe  Fe6  1  0.26288400  0.76288400  0.14290500  1
  Fe  Fe7  1  0.97972900  0.47972900  0.27250400  1
  Fe  Fe8  1  0.93329900  0.20957700  0.14287600  1
  Fe  Fe9  1  0.23711600  0.38002100  0.50000000  1
  Fe  Fe10  1  0.79277500  0.29277500  0.27250400  1
  Fe  Fe11  1  0.47972900  0.20722500  0.50000000  1
  Fe  Fe12  1  0.73711600  0.23711600  0.85709500  1
  Fe  Fe13  1  0.43329900  0.29042300  0.72372200  1
  Fe  Fe14  1  0.29042300  0.56670100  0.85712400  1
  Fe  Fe15  1  0.00000000  0.50000000  0.50000000  1
  Fe  Fe16  1  0.02027100  0.52027100  0.72749600  1
  Fe  Fe17  1  0.20957700  0.06670100  0.27627800  1
  Fe  Fe18  1  0.11997900  0.26288400  0.50000000  1
  Fe  Fe19  1  0.88002100  0.73711600  0.50000000  1
  Fe  Fe20  1  0.61997900  0.11997900  0.85709500  1
  Fe  Fe21  1  0.06670100  0.79042300  0.85712400  1
  Fe  Fe22  1  0.76288400  0.61997900  0.50000000  1
  Fe  Fe23  1  0.50000000  0.00000000  0.50000000  1
  Fe  Fe24  1  0.29277500  0.02027100  0.50000000  1
  Fe  Fe25  1  0.70722500  0.97972900  0.50000000  1
  Sb  Sb0  1  0.75000000  0.75000000  0.00000000  1
  Sb  Sb1  1  0.25000000  0.25000000  0.00000000  1
loop_
_geom_bond_atom_site_label_1
_geom_bond_atom_site_label_2
_geom_bond_distance
_geom_bond_site_symmetry_2
Nd0 Sb0 3.421394 1_555
Nd1 Sb1 3.383144 1_566
Nd1 Sb0 3.383144 1_556
Nd2 Sb0 3.383144 1_556
Nd2 Sb1 3.383144 1_555
Nd3 Sb0 3.383144 1_556
Nd3 Sb1 3.383144 1_656
Nd4 Sb0 3.383144 1_545
Nd4 Sb1 3.383144 1_555
Nd5 Sb0 3.383144 1_556
Nd5 Sb1 3.383144 1_555
Nd6 Sb1 3.421394 1_555
Nd7 Sb1 3.421394 1_555
Nd8 Sb1 3.383144 1_555
Nd8 Sb0 3.383144 1_455
Nd9 Sb0 3.421394 1_555
Nd10 Sb1 3.383144 1_566
Nd10 Sb0 3.383144 1_455
Nd11 Sb1 3.383144 1_656
Nd11 Sb0 3.383144 1_545
Fe0 Fe15 2.404021 1_655
Fe0 Fe20 2.484354 1_554
Fe0 Fe12 2.484354 1_554
Fe0 Fe3 2.509314 1_555
Fe0 Fe13 2.509314 1_554
Fe0 Fe8 2.552518 1_555
Fe0 Fe19 2.571910 1_555
Fe0 Fe22 2.571910 1_555
Fe0 Fe10 2.641635 1_555
Fe0 Fe7 2.641635 1_555
Fe0 Nd9 3.016622 1_555
Fe0 Nd7 3.016622 1_555
Fe1 Fe22 2.507105 1_555
Fe1 Fe23 2.546923 1_565
Fe1 Fe20 2.550261 1_565
Fe1 Fe6 2.550261 1_555
Fe1 Fe24 2.595577 1_565
Fe1 Fe4 2.641635 1_555
Fe1 Fe3 2.641635 1_555
Fe1 Nd1 3.120669 1_555
Fe1 Nd8 3.120669 1_555
Fe1 Nd7 3.257910 1_555
Fe1 Nd0 3.257910 1_556
Fe1 Nd5 3.336062 1_555
Fe2 Fe5 2.507105 1_556
Fe2 Fe9 2.550261 1_555
Fe2 Fe7 2.595577 1_455
Fe2 Fe21 2.641635 1_555
Fe2 Nd10 3.120669 1_555
Fe2 Nd2 3.120669 1_555
Fe2 Nd9 3.257910 1_556
Fe2 Nd6 3.257910 1_566
Fe2 Nd4 3.336062 1_566
Fe3 Fe4 2.552518 1_555
Fe3 Fe5 2.571910 1_555
Fe3 Fe6 2.571910 1_555
Fe3 Nd9 3.016622 1_555
Fe3 Nd7 3.016622 1_555
Fe4 Fe8 2.509314 1_566
Fe4 Nd6 3.016622 1_666
Fe4 Nd0 3.016622 1_556
Fe5 Fe6 2.746160 1_555
Fe5 Nd4 2.972251 1_565
Fe5 Nd9 3.152439 1_555
Fe5 Nd6 3.152439 1_565
Fe6 Nd8 2.972251 1_555
Fe6 Nd7 3.152439 1_555
Fe6 Nd0 3.152439 1_455
Fe7 Fe9 2.550261 1_655
Fe7 Fe8 2.641635 1_555
Fe7 Nd2 3.120669 1_655
Fe7 Nd10 3.120669 1_655
Fe7 Nd6 3.257910 1_655
Fe7 Nd9 3.257910 1_555
Fe7 Nd3 3.336062 1_554
Fe8 Fe9 2.571910 1_655
Fe8 Nd6 3.016622 1_655
Fe8 Nd0 3.016622 1_545
Fe9 Nd2 2.972251 1_555
Fe9 Nd9 3.152439 1_556
Fe9 Nd6 3.152439 1_555
Fe10 Fe20 2.507105 1_554
Fe10 Fe15 2.546923 1_655
Fe10 Fe18 2.550261 1_655
Fe10 Fe22 2.550261 1_555
Fe10 Fe16 2.595577 1_655
Fe10 Fe8 2.641635 1_555
Fe10 Nd11 3.120669 1_555
Fe10 Nd5 3.120669 1_555
Fe10 Nd7 3.257910 1_555
Fe10 Nd0 3.257910 1_545
Fe10 Nd1 3.336062 1_544
Fe11 Fe9 2.507105 1_555
Fe11 Fe23 2.546923 1_555
Fe11 Fe12 2.550261 1_555
Fe11 Fe5 2.550261 1_545
Fe11 Fe25 2.595577 1_545
Fe11 Fe13 2.641635 1_555
Fe11 Fe17 2.641635 1_555
Fe11 Nd3 3.120669 1_555
Fe11 Nd4 3.120669 1_555
Fe11 Nd9 3.257910 1_556
Fe11 Nd6 3.257910 1_555
Fe11 Nd2 3.336062 1_555
Fe12 Fe23 2.456655 1_555
Fe12 Fe8 2.484354 1_556
Fe12 Fe7 2.507105 1_556
Fe12 Fe25 2.550261 1_545
Fe12 Fe13 2.571910 1_555
Fe12 Fe4 2.571910 1_545
Fe12 Fe20 2.746160 1_555
Fe12 Nd3 2.972251 1_555
Fe12 Nd6 3.152439 1_656
Fe12 Nd9 3.152439 1_556
Fe13 Fe23 2.404021 1_555
Fe13 Fe9 2.484354 1_555
Fe13 Fe18 2.484354 1_555
Fe13 Fe14 2.509314 1_555
Fe13 Fe17 2.552518 1_555
Fe13 Fe20 2.571910 1_555
Fe13 Fe24 2.641635 1_555
Fe13 Nd9 3.016622 1_556
Fe13 Nd7 3.016622 1_556
Fe14 Fe15 2.404021 1_555
Fe14 Fe5 2.484354 1_556
Fe14 Fe6 2.484354 1_556
Fe14 Fe3 2.509314 1_556
Fe14 Fe21 2.552518 1_555
Fe14 Fe9 2.571910 1_555
Fe14 Fe18 2.571910 1_555
Fe14 Fe2 2.641635 1_555
Fe14 Fe16 2.641635 1_555
Fe14 Nd9 3.016622 1_556
Fe14 Nd7 3.016622 1_556
Fe15 Fe21 2.404021 1_555
Fe15 Fe8 2.404021 1_455
Fe15 Fe19 2.456655 1_455
Fe15 Fe9 2.456655 1_555
Fe15 Fe22 2.456655 1_455
Fe15 Fe18 2.456655 1_555
Fe15 Fe7 2.546923 1_455
Fe15 Fe2 2.546923 1_555
Fe15 Fe16 2.546923 1_555
Fe16 Fe6 2.507105 1_556
Fe16 Fe18 2.550261 1_555
Fe16 Fe22 2.550261 1_455
Fe16 Fe21 2.641635 1_555
Fe16 Nd5 3.120669 1_455
Fe16 Nd11 3.120669 1_455
Fe16 Nd7 3.257910 1_556
Fe16 Nd0 3.257910 1_456
Fe16 Nd8 3.336062 1_556
Fe17 Fe23 2.404021 1_555
Fe17 Fe9 2.484354 1_555
Fe17 Fe18 2.484354 1_555
Fe17 Fe8 2.509314 1_455
Fe17 Fe21 2.509314 1_544
Fe17 Fe5 2.571910 1_545
Fe17 Fe6 2.571910 1_545
Fe17 Fe24 2.641635 1_555
Fe17 Nd6 3.016622 1_555
Fe17 Nd0 3.016622 1_445
Fe18 Fe24 2.507105 1_555
Fe18 Fe8 2.571910 1_455
Fe18 Fe9 2.746160 1_555
Fe18 Nd11 2.972251 1_455
Fe18 Nd7 3.152439 1_556
Fe18 Nd0 3.152439 1_445
Fe19 Fe3 2.484354 1_555
Fe19 Fe4 2.484354 1_555
Fe19 Fe25 2.507105 1_555
Fe19 Fe2 2.550261 1_655
Fe19 Fe7 2.550261 1_555
Fe19 Fe21 2.571910 1_655
Fe19 Fe22 2.746160 1_555
Fe19 Nd10 2.972251 1_655
Fe19 Nd6 3.152439 1_666
Fe19 Nd9 3.152439 1_555
Fe20 Fe23 2.456655 1_555
Fe20 Fe8 2.484354 1_556
Fe20 Fe24 2.550261 1_555
Fe20 Fe4 2.571910 1_545
Fe20 Nd1 2.972251 1_545
Fe20 Nd0 3.152439 1_546
Fe20 Nd7 3.152439 1_556
Fe21 Fe5 2.484354 1_556
Fe21 Fe6 2.484354 1_556
Fe21 Fe4 2.509314 1_455
Fe21 Fe22 2.571910 1_455
Fe21 Nd6 3.016622 1_566
Fe21 Nd0 3.016622 1_456
Fe22 Fe4 2.484354 1_555
Fe22 Fe3 2.484354 1_555
Fe22 Nd5 2.972251 1_555
Fe22 Nd7 3.152439 1_555
Fe22 Nd0 3.152439 1_556
Fe23 Fe4 2.404021 1_545
Fe23 Fe3 2.404021 1_545
Fe23 Fe5 2.456655 1_545
Fe23 Fe6 2.456655 1_545
Fe23 Fe25 2.546923 1_545
Fe23 Fe24 2.546923 1_555
Fe24 Fe6 2.550261 1_545
Fe24 Nd8 3.120669 1_545
Fe24 Nd1 3.120669 1_545
Fe24 Nd7 3.257910 1_556
Fe24 Nd0 3.257910 1_445
Fe24 Nd11 3.336062 1_455
Fe25 Fe5 2.550261 1_555
Fe25 Fe3 2.641635 1_555
Fe25 Fe4 2.641635 1_555
Fe25 Nd3 3.120669 1_565
Fe25 Nd4 3.120669 1_565
Fe25 Nd6 3.257910 1_666
Fe25 Nd9 3.257910 1_555
Fe25 Nd10 3.336062 1_655
