# generated using pymatgen
data_SmTlPd
_symmetry_space_group_name_H-M   'P 1'
_cell_length_a   7.87546191
_cell_length_b   7.87546243
_cell_length_c   3.84940205
_cell_angle_alpha   90.00000000
_cell_angle_beta   90.00000000
_cell_angle_gamma   119.99999785
_symmetry_Int_Tables_number   1
_chemical_formula_structural   SmTlPd
_chemical_formula_sum   'Sm3 Tl3 Pd3'
_cell_volume   206.76451824
_cell_formula_units_Z   3
loop_
 _symmetry_equiv_pos_site_id
 _symmetry_equiv_pos_as_xyz
  1  'x, y, z'
loop_
 _atom_site_type_symbol
 _atom_site_label
 _atom_site_symmetry_multiplicity
 _atom_site_fract_x
 _atom_site_fract_y
 _atom_site_fract_z
 _atom_site_occupancy
  Sm  Sm0  1  -0.00000000  0.59769764  0.50000000  1
  Sm  Sm1  1  0.59769764  0.00000000  0.50000000  1
  Sm  Sm2  1  0.40230236  0.40230236  0.50000000  1
  Tl  Tl0  1  -0.00000000  0.26616864  0.00000000  1
  Tl  Tl1  1  0.26616864  0.00000000  -0.00000000  1
  Tl  Tl2  1  0.73383136  0.73383136  -0.00000000  1
  Pd  Pd0  1  0.00000000  0.00000000  0.50000000  1
  Pd  Pd1  1  0.66666700  0.33333300  -0.00000000  1
  Pd  Pd2  1  0.33333300  0.66666700  0.00000000  1
loop_
_geom_bond_atom_site_label_1
_geom_bond_atom_site_label_2
_geom_bond_distance
_geom_bond_site_symmetry_2
Sm0 Tl0 3.243687 1_555
Sm0 Tl0 3.243687 1_556
Sm0 Tl2 3.390477 1_455
Sm0 Tl2 3.390477 1_456
Sm0 Tl1 3.390477 1_565
Sm0 Tl1 3.390477 1_566
Sm1 Tl1 3.243687 1_555
Sm1 Tl1 3.243687 1_556
Sm1 Tl0 3.390477 1_656
Sm1 Tl0 3.390477 1_655
Sm1 Tl2 3.390477 1_545
Sm1 Tl2 3.390477 1_546
Sm2 Tl2 3.243687 1_555
Sm2 Tl2 3.243687 1_556
Sm2 Tl0 3.390477 1_555
Sm2 Tl0 3.390477 1_556
Sm2 Tl1 3.390477 1_555
Sm2 Tl1 3.390477 1_556
Pd0 Tl1 2.845792 1_556
Pd0 Tl1 2.845792 1_555
Pd0 Tl2 2.845792 1_445
Pd0 Tl2 2.845792 1_446
Pd0 Tl0 2.845792 1_555
Pd0 Tl0 2.845792 1_556
Pd0 Sm1 3.168317 1_455
Pd0 Sm2 3.168317 1_555
Pd0 Sm0 3.168317 1_545
Pd1 Tl0 2.925711 1_655
Pd1 Tl1 2.925716 1_555
Pd1 Tl2 2.925719 1_555
Pd1 Sm1 3.076529 1_554
Pd1 Sm1 3.076529 1_555
Pd1 Sm0 3.076531 1_655
Pd1 Sm0 3.076531 1_654
Pd1 Sm2 3.076535 1_555
Pd1 Sm2 3.076535 1_554
Pd2 Tl1 2.925711 1_565
Pd2 Tl0 2.925716 1_555
Pd2 Tl2 2.925718 1_555
Pd2 Sm0 3.076529 1_555
Pd2 Sm0 3.076529 1_554
Pd2 Sm1 3.076531 1_565
Pd2 Sm1 3.076531 1_564
Pd2 Sm2 3.076535 1_555
Pd2 Sm2 3.076535 1_554
