# generated using pymatgen
data_Na2GaNiF7
_symmetry_space_group_name_H-M   'P 1'
_cell_length_a   7.34864904
_cell_length_b   7.34864904
_cell_length_c   7.34864904
_cell_angle_alpha   121.05039089
_cell_angle_beta   118.43093750
_cell_angle_gamma   90.46462465
_symmetry_Int_Tables_number   1
_chemical_formula_structural   Na2GaNiF7
_chemical_formula_sum   'Na4 Ga2 Ni2 F14'
_cell_volume   281.52056331
_cell_formula_units_Z   2
loop_
 _symmetry_equiv_pos_site_id
 _symmetry_equiv_pos_as_xyz
  1  'x, y, z'
loop_
 _atom_site_type_symbol
 _atom_site_label
 _atom_site_symmetry_multiplicity
 _atom_site_fract_x
 _atom_site_fract_y
 _atom_site_fract_z
 _atom_site_occupancy
  Na  Na0  1  0.00000000  0.00000000  0.50000000  1
  Na  Na1  1  0.00000000  0.00000000  0.00000000  1
  Na  Na2  1  0.00000000  0.50000000  0.00000000  1
  Na  Na3  1  0.50000000  0.50000000  0.00000000  1
  Ga  Ga0  1  0.00000000  0.50000000  0.50000000  1
  Ga  Ga1  1  0.50000000  0.00000000  0.50000000  1
  Ni  Ni0  1  0.50000000  0.50000000  0.50000000  1
  Ni  Ni1  1  0.50000000  0.00000000  0.00000000  1
  F  F0  1  0.39086000  0.25000000  0.14086000  1
  F  F1  1  0.13874200  0.41127800  0.72746400  1
  F  F2  1  0.17856400  0.41855600  0.36678100  1
  F  F3  1  0.55177500  0.31178300  0.63321900  1
  F  F4  1  0.81618700  0.08872200  0.72746400  1
  F  F5  1  0.44822500  0.08144400  0.76000800  1
  F  F6  1  0.17856400  0.81178300  0.76000800  1
  F  F7  1  0.55177500  0.91855600  0.23999200  1
  F  F8  1  0.60914000  0.75000000  0.85914000  1
  F  F9  1  0.82143600  0.18821700  0.23999200  1
  F  F10  1  0.86125800  0.58872200  0.27253600  1
  F  F11  1  0.82143600  0.58144400  0.63321900  1
  F  F12  1  0.44822500  0.68821700  0.36678100  1
  F  F13  1  0.18381300  0.91127800  0.27253600  1
loop_
_geom_bond_atom_site_label_1
_geom_bond_atom_site_label_2
_geom_bond_distance
_geom_bond_site_symmetry_2
F0 Ni0 1.985590 1_555
F0 Ni1 1.985590 1_555
F0 Na1 2.796123 1_555
F0 Na3 2.796123 1_555
F1 Ga0 1.941889 1_555
F1 Na3 2.246355 1_556
F1 Na0 2.466537 1_555
F1 Na2 2.466537 1_556
F2 Ga0 1.915727 1_555
F2 Ni0 2.016665 1_555
F2 Na1 2.542040 1_555
F2 Na2 2.766596 1_555
F3 Ga1 1.915727 1_555
F3 Ni0 2.016665 1_555
F3 Na3 2.542040 1_556
F3 Na2 2.766596 1_656
F4 Ga1 1.941894 1_555
F4 Na1 2.246354 1_656
F4 Na0 2.466530 1_655
F4 Na2 2.466536 1_656
F5 Ga1 1.915727 1_555
F5 Ni1 2.016665 1_556
F5 Na3 2.542040 1_556
F5 Na0 2.766596 1_555
F6 Ga0 1.915727 1_555
F6 Ni1 2.016665 1_566
F6 Na1 2.542040 1_566
F6 Na0 2.766596 1_565
F7 Ga1 1.915727 1_565
F7 Ni1 2.016665 1_565
F7 Na3 2.542040 1_555
F7 Na0 2.766596 1_665
F8 Ni0 1.985590 1_555
F8 Ni1 1.985590 1_566
F8 Na3 2.796123 1_556
F8 Na1 2.796123 1_666
F9 Ga0 1.915727 1_655
F9 Ni1 2.016665 1_555
F9 Na1 2.542040 1_655
F9 Na0 2.766596 1_655
F10 Ga0 1.941889 1_655
F10 Na3 2.246355 1_555
F10 Na0 2.466537 1_665
F10 Na2 2.466537 1_655
F11 Ga0 1.915727 1_655
F11 Ni0 2.016665 1_555
F11 Na1 2.542040 1_666
F11 Na2 2.766596 1_656
F12 Ga1 1.915727 1_565
F12 Ni0 2.016665 1_555
F12 Na3 2.542040 1_555
F12 Na2 2.766596 1_555
F13 Ga1 1.941894 1_565
F13 Na1 2.246354 1_565
F13 Na0 2.466530 1_565
F13 Na2 2.466536 1_555
