# generated using pymatgen
data_Mo(PO3)5
_symmetry_space_group_name_H-M   'P 1'
_cell_length_a   13.77249393
_cell_length_b   5.21823038
_cell_length_c   8.36063177
_cell_angle_alpha   76.85129088
_cell_angle_beta   90.00000000
_cell_angle_gamma   90.00000000
_symmetry_Int_Tables_number   1
_chemical_formula_structural   Mo(PO3)5
_chemical_formula_sum   'Mo2 P10 O30'
_cell_volume   585.10942267
_cell_formula_units_Z   2
loop_
 _symmetry_equiv_pos_site_id
 _symmetry_equiv_pos_as_xyz
  1  'x, y, z'
loop_
 _atom_site_type_symbol
 _atom_site_label
 _atom_site_symmetry_multiplicity
 _atom_site_fract_x
 _atom_site_fract_y
 _atom_site_fract_z
 _atom_site_occupancy
  Mo  Mo0  1  -0.00000000  0.50000000  0.50000000  1
  Mo  Mo1  1  0.50000000  0.50000000  0.50000000  1
  P  P0  1  0.64281840  0.00632110  0.48288519  1
  P  P1  1  0.41858876  0.65694009  0.83860825  1
  P  P2  1  0.08141124  0.65694009  0.83860825  1
  P  P3  1  0.14281840  0.99367890  0.51711481  1
  P  P4  1  0.25000000  0.54294463  0.04315738  1
  P  P5  1  0.58141124  0.34305991  0.16139175  1
  P  P6  1  0.91858876  0.34305991  0.16139175  1
  P  P7  1  0.35718160  0.99367890  0.51711481  1
  P  P8  1  0.85718160  0.00632110  0.48288519  1
  P  P9  1  0.75000000  0.45705537  0.95684262  1
  O  O0  1  0.75000000  0.17123087  0.97734979  1
  O  O1  1  0.16142516  0.47003057  0.92158776  1
  O  O2  1  0.03490237  0.50138336  0.71361294  1
  O  O3  1  0.46509763  0.50138336  0.71361294  1
  O  O4  1  0.25000000  0.82876913  0.02265021  1
  O  O5  1  0.66142516  0.52996943  0.07841224  1
  O  O6  1  0.53490237  0.49861664  0.28638706  1
  O  O7  1  0.96509763  0.49861664  0.28638706  1
  O  O8  1  0.83857484  0.52996943  0.07841224  1
  O  O9  1  0.11902362  0.28195098  0.48088759  1
  O  O10  1  0.38097638  0.28195098  0.48088759  1
  O  O11  1  0.57803618  0.16739137  0.56788491  1
  O  O12  1  0.92196382  0.16739137  0.56788491  1
  O  O13  1  0.25000000  0.34074047  0.19502402  1
  O  O14  1  0.51150377  0.22174249  0.07360490  1
  O  O15  1  0.64114150  0.11958383  0.29511471  1
  O  O16  1  0.98849623  0.22174249  0.07360490  1
  O  O17  1  0.85885850  0.11958383  0.29511471  1
  O  O18  1  0.75000000  0.04694662  0.53393573  1
  O  O19  1  0.25000000  0.95305338  0.46606427  1
  O  O20  1  0.14114150  0.88041617  0.70488529  1
  O  O21  1  0.01150377  0.77825751  0.92639510  1
  O  O22  1  0.35885850  0.88041617  0.70488529  1
  O  O23  1  0.48849623  0.77825751  0.92639510  1
  O  O24  1  0.75000000  0.65925953  0.80497598  1
  O  O25  1  0.07803618  0.83260863  0.43211509  1
  O  O26  1  0.42196382  0.83260863  0.43211509  1
  O  O27  1  0.61902362  0.71804902  0.51911241  1
  O  O28  1  0.88097638  0.71804902  0.51911241  1
  O  O29  1  0.33857484  0.47003057  0.92158776  1
loop_
_geom_bond_atom_site_label_1
_geom_bond_atom_site_label_2
_geom_bond_distance
_geom_bond_site_symmetry_2
Mo0 O2 1.851097 1_555
Mo0 O7 1.851097 1_455
Mo0 O12 2.010338 1_455
Mo0 O25 2.010338 1_555
Mo0 O9 2.022389 1_555
Mo0 O28 2.022389 1_455
Mo1 O6 1.851097 1_555
Mo1 O3 1.851097 1_555
Mo1 O11 2.010338 1_555
Mo1 O26 2.010338 1_555
Mo1 O10 2.022389 1_555
Mo1 O27 2.022389 1_555
O0 P9 1.462060 1_555
O1 P2 1.529419 1_555
O1 P4 1.685800 1_556
O2 P2 1.596010 1_555
O3 P1 1.596010 1_555
O4 P4 1.462060 1_555
O5 P5 1.529419 1_555
O5 P9 1.685800 1_554
O6 P5 1.596010 1_555
O7 P6 1.596010 1_555
O8 P6 1.529419 1_555
O8 P9 1.685800 1_554
O9 P3 1.501558 1_545
O10 P7 1.501558 1_545
O11 P0 1.509722 1_555
O12 P8 1.509722 1_555
O13 P4 1.454634 1_555
O14 P5 1.441468 1_555
O15 P0 1.546687 1_555
O15 P5 1.641163 1_555
O16 P6 1.441468 1_555
O17 P8 1.546687 1_555
O17 P6 1.641163 1_555
O18 P8 1.564391 1_555
O18 P0 1.564391 1_555
O19 P7 1.564391 1_555
O19 P3 1.564391 1_555
O20 P3 1.546687 1_555
O20 P2 1.641163 1_555
O21 P2 1.441468 1_555
O22 P7 1.546687 1_555
O22 P1 1.641163 1_555
O23 P1 1.441468 1_555
O24 P9 1.454634 1_555
O25 P3 1.509722 1_555
O26 P7 1.509722 1_555
O27 P0 1.501558 1_565
O28 P8 1.501558 1_565
O29 P1 1.529419 1_555
O29 P4 1.685800 1_556
