# generated using pymatgen
data_CrGeTe3
_symmetry_space_group_name_H-M   'P 1'
_cell_length_a   8.22483787
_cell_length_b   8.22483755
_cell_length_c   8.22483708
_cell_angle_alpha   49.62885504
_cell_angle_beta   49.62884833
_cell_angle_gamma   49.62884945
_symmetry_Int_Tables_number   1
_chemical_formula_structural   CrGeTe3
_chemical_formula_sum   'Cr2 Ge2 Te6'
_cell_volume   296.95174012
_cell_formula_units_Z   2
loop_
 _symmetry_equiv_pos_site_id
 _symmetry_equiv_pos_as_xyz
  1  'x, y, z'
loop_
 _atom_site_type_symbol
 _atom_site_label
 _atom_site_symmetry_multiplicity
 _atom_site_fract_x
 _atom_site_fract_y
 _atom_site_fract_z
 _atom_site_occupancy
  Cr  Cr0  1  0.66615403  0.66615403  0.66615403  1
  Cr  Cr1  1  0.33384597  0.33384597  0.33384597  1
  Ge  Ge0  1  0.94478743  0.94478743  0.94478743  1
  Ge  Ge1  1  0.05521257  0.05521257  0.05521257  1
  Te  Te0  1  0.07834337  0.44877777  0.71332736  1
  Te  Te1  1  0.71332736  0.07834337  0.44877777  1
  Te  Te2  1  0.44877777  0.71332736  0.07834337  1
  Te  Te3  1  0.92165663  0.55122223  0.28667264  1
  Te  Te4  1  0.28667264  0.92165663  0.55122223  1
  Te  Te5  1  0.55122223  0.28667264  0.92165663  1
loop_
_geom_bond_atom_site_label_1
_geom_bond_atom_site_label_2
_geom_bond_distance
_geom_bond_site_symmetry_2
Cr0 Te2 2.791706 1_556
Cr0 Te0 2.791707 1_655
Cr0 Te1 2.791707 1_565
Cr0 Te3 2.793410 1_555
Cr0 Te4 2.793411 1_555
Cr0 Te5 2.793411 1_555
Cr1 Te5 2.791706 1_554
Cr1 Te3 2.791707 1_455
Cr1 Te4 2.791707 1_545
Cr1 Te0 2.793410 1_555
Cr1 Te1 2.793411 1_555
Cr1 Te2 2.793411 1_555
Ge0 Ge1 2.383373 1_666
Ge0 Te4 2.595083 1_655
Ge0 Te5 2.595083 1_565
Ge0 Te3 2.595083 1_556
Ge1 Te1 2.595083 1_455
Ge1 Te2 2.595083 1_545
Ge1 Te0 2.595083 1_554
