# generated using pymatgen
data_P3Pb5ClO12
_symmetry_space_group_name_H-M   'P 1'
_cell_length_a   10.23430824
_cell_length_b   10.23430824
_cell_length_c   7.35724600
_cell_angle_alpha   90.00000000
_cell_angle_beta   90.00000000
_cell_angle_gamma   120.00000158
_symmetry_Int_Tables_number   1
_chemical_formula_structural   P3Pb5ClO12
_chemical_formula_sum   'P6 Pb10 Cl2 O24'
_cell_volume   667.36417397
_cell_formula_units_Z   2
loop_
 _symmetry_equiv_pos_site_id
 _symmetry_equiv_pos_as_xyz
  1  'x, y, z'
loop_
 _atom_site_type_symbol
 _atom_site_label
 _atom_site_symmetry_multiplicity
 _atom_site_fract_x
 _atom_site_fract_y
 _atom_site_fract_z
 _atom_site_occupancy
  P  P0  1  0.41307100  0.37819500  0.25000000  1
  P  P1  1  0.03487500  0.41307100  0.75000000  1
  P  P2  1  0.37819500  0.96512500  0.75000000  1
  P  P3  1  0.62180500  0.03487500  0.25000000  1
  P  P4  1  0.96512500  0.58692900  0.25000000  1
  P  P5  1  0.58692900  0.62180500  0.75000000  1
  Pb  Pb0  1  0.33333300  0.66666700  0.00608000  1
  Pb  Pb1  1  0.66666700  0.33333300  0.50608000  1
  Pb  Pb2  1  0.66666700  0.33333300  0.99392000  1
  Pb  Pb3  1  0.33333300  0.66666700  0.49392000  1
  Pb  Pb4  1  0.26185200  0.01962300  0.25000000  1
  Pb  Pb5  1  0.24222900  0.26185200  0.75000000  1
  Pb  Pb6  1  0.01962300  0.75777100  0.75000000  1
  Pb  Pb7  1  0.98037700  0.24222900  0.25000000  1
  Pb  Pb8  1  0.75777100  0.73814800  0.25000000  1
  Pb  Pb9  1  0.73814800  0.98037700  0.75000000  1
  Cl  Cl0  1  0.00000000  0.00000000  0.00000000  1
  Cl  Cl1  1  0.00000000  0.00000000  0.50000000  1
  O  O0  1  0.35133900  0.48833900  0.25000000  1
  O  O1  1  0.86299900  0.35133900  0.75000000  1
  O  O2  1  0.48833900  0.13700100  0.75000000  1
  O  O3  1  0.51166100  0.86299900  0.25000000  1
  O  O4  1  0.13700100  0.64866100  0.25000000  1
  O  O5  1  0.64866100  0.51166100  0.75000000  1
  O  O6  1  0.59160900  0.46828600  0.25000000  1
  O  O7  1  0.12332300  0.59160900  0.75000000  1
  O  O8  1  0.46828600  0.87667700  0.75000000  1
  O  O9  1  0.53171400  0.12332300  0.25000000  1
  O  O10  1  0.87667700  0.40839100  0.25000000  1
  O  O11  1  0.40839100  0.53171400  0.75000000  1
  O  O12  1  0.36259500  0.27308200  0.07933900  1
  O  O13  1  0.08951200  0.36259500  0.57933900  1
  O  O14  1  0.27308200  0.91048800  0.57933900  1
  O  O15  1  0.72691800  0.08951200  0.07933900  1
  O  O16  1  0.91048800  0.63740500  0.07933900  1
  O  O17  1  0.63740500  0.72691800  0.57933900  1
  O  O18  1  0.63740500  0.72691800  0.92066100  1
  O  O19  1  0.91048800  0.63740500  0.42066100  1
  O  O20  1  0.72691800  0.08951200  0.42066100  1
  O  O21  1  0.27308200  0.91048800  0.92066100  1
  O  O22  1  0.08951200  0.36259500  0.92066100  1
  O  O23  1  0.36259500  0.27308200  0.42066100  1
loop_
_geom_bond_atom_site_label_1
_geom_bond_atom_site_label_2
_geom_bond_distance
_geom_bond_site_symmetry_2
Cl0 Pb5 3.172843 1_554
Cl0 Pb8 3.172843 1_445
Cl0 Pb4 3.172843 1_555
Cl0 Pb9 3.172843 1_444
Cl0 Pb6 3.172843 1_544
Cl0 Pb7 3.172843 1_455
Cl1 Pb5 3.172843 1_555
Cl1 Pb8 3.172843 1_445
Cl1 Pb4 3.172843 1_555
Cl1 Pb9 3.172843 1_445
Cl1 Pb6 3.172843 1_545
Cl1 Pb7 3.172843 1_455
O0 P0 1.543378 1_555
O0 Pb0 2.630903 1_555
O0 Pb3 2.630903 1_555
O1 P1 1.543378 1_655
O1 Pb1 2.630888 1_555
O1 Pb2 2.630888 1_555
O2 P2 1.543378 1_545
O2 Pb1 2.630895 1_555
O2 Pb2 2.630895 1_555
O3 P3 1.543378 1_565
O3 Pb3 2.630895 1_555
O3 Pb0 2.630895 1_555
O4 P4 1.543378 1_455
O4 Pb3 2.630888 1_555
O4 Pb0 2.630888 1_555
O5 P5 1.543378 1_555
O5 Pb1 2.630903 1_555
O5 Pb2 2.630903 1_555
O6 P0 1.582435 1_555
O6 Pb8 2.413095 1_555
O6 Pb2 2.666127 1_554
O6 Pb1 2.666127 1_555
O7 P1 1.582435 1_555
O7 Pb6 2.413095 1_555
O7 Pb3 2.666120 1_555
O7 Pb0 2.666120 1_556
O8 P2 1.582444 1_555
O8 Pb9 2.413095 1_555
O8 Pb3 2.666121 1_555
O8 Pb0 2.666121 1_556
O9 P3 1.582444 1_555
O9 Pb4 2.413095 1_555
O9 Pb2 2.666121 1_554
O9 Pb1 2.666121 1_555
O10 P4 1.582435 1_555
O10 Pb7 2.413095 1_555
O10 Pb2 2.666120 1_554
O10 Pb1 2.666120 1_555
O11 P5 1.582435 1_555
O11 Pb5 2.413095 1_555
O11 Pb3 2.666127 1_555
O11 Pb0 2.666127 1_556
O12 P0 1.563622 1_555
O12 Pb4 2.587236 1_555
O12 Pb5 2.694472 1_554
O13 P1 1.563622 1_555
O13 Pb5 2.587244 1_555
O13 Pb7 2.694470 1_455
O14 P2 1.563622 1_555
O14 Pb6 2.587237 1_555
O14 Pb4 2.694468 1_565
O15 P3 1.563622 1_555
O15 Pb7 2.587237 1_555
O15 Pb9 2.694468 1_544
O16 P4 1.563622 1_555
O16 Pb8 2.587244 1_555
O16 Pb6 2.694470 1_654
O17 P5 1.563622 1_555
O17 Pb9 2.587236 1_555
O17 Pb8 2.694472 1_555
O18 P5 1.563622 1_555
O18 Pb9 2.587236 1_555
O18 Pb8 2.694472 1_556
O19 P4 1.563622 1_555
O19 Pb8 2.587244 1_555
O19 Pb6 2.694470 1_655
O20 P3 1.563622 1_555
O20 Pb7 2.587237 1_555
O20 Pb9 2.694468 1_545
O21 P2 1.563622 1_555
O21 Pb6 2.587237 1_555
O21 Pb4 2.694468 1_566
O22 P1 1.563622 1_555
O22 Pb5 2.587244 1_555
O22 Pb7 2.694470 1_456
O23 P0 1.563622 1_555
O23 Pb4 2.587236 1_555
O23 Pb5 2.694472 1_555
