# generated using pymatgen
data_K3SbN3(O3F)3
_symmetry_space_group_name_H-M   'P 1'
_cell_length_a   9.15076951
_cell_length_b   9.15076951
_cell_length_c   7.54336600
_cell_angle_alpha   90.00000000
_cell_angle_beta   90.00000000
_cell_angle_gamma   101.78817066
_symmetry_Int_Tables_number   1
_chemical_formula_structural   K3SbN3(O3F)3
_chemical_formula_sum   'K6 Sb2 N6 O18 F6'
_cell_volume   618.33381146
_cell_formula_units_Z   2
loop_
 _symmetry_equiv_pos_site_id
 _symmetry_equiv_pos_as_xyz
  1  'x, y, z'
loop_
 _atom_site_type_symbol
 _atom_site_label
 _atom_site_symmetry_multiplicity
 _atom_site_fract_x
 _atom_site_fract_y
 _atom_site_fract_z
 _atom_site_occupancy
  K  K0  1  0.97096900  0.61494400  0.77349000  1
  K  K1  1  0.02903100  0.38505600  0.27349000  1
  K  K2  1  0.61494400  0.97096900  0.27349000  1
  K  K3  1  0.59669900  0.40330100  0.00506000  1
  K  K4  1  0.40330100  0.59669900  0.50506000  1
  K  K5  1  0.38505600  0.02903100  0.77349000  1
  Sb  Sb0  1  0.86257600  0.13742400  0.84879500  1
  Sb  Sb1  1  0.13742400  0.86257600  0.34879500  1
  N  N0  1  0.20667800  0.31372600  0.75456500  1
  N  N1  1  0.31372600  0.20667800  0.25456500  1
  N  N2  1  0.79332200  0.68627400  0.25456500  1
  N  N3  1  0.68627400  0.79332200  0.75456500  1
  N  N4  1  0.70291500  0.29708500  0.48356900  1
  N  N5  1  0.29708500  0.70291500  0.98356900  1
  O  O0  1  0.79119700  0.39910900  0.56567500  1
  O  O1  1  0.21048100  0.14568600  0.36344600  1
  O  O2  1  0.65262100  0.65173300  0.24775700  1
  O  O3  1  0.87332800  0.62322700  0.15733100  1
  O  O4  1  0.78951900  0.85431400  0.86344600  1
  O  O5  1  0.85431400  0.78951900  0.36344600  1
  O  O6  1  0.12667200  0.37677300  0.65733100  1
  O  O7  1  0.62322700  0.87332800  0.65733100  1
  O  O8  1  0.39910900  0.79119700  0.06567500  1
  O  O9  1  0.60089100  0.20880300  0.56567500  1
  O  O10  1  0.34737900  0.34826700  0.74775700  1
  O  O11  1  0.14568600  0.21048100  0.86344600  1
  O  O12  1  0.71974800  0.28025200  0.31752500  1
  O  O13  1  0.34826700  0.34737900  0.24775700  1
  O  O14  1  0.65173300  0.65262100  0.74775700  1
  O  O15  1  0.37677300  0.12667200  0.15733100  1
  O  O16  1  0.20880300  0.60089100  0.06567500  1
  O  O17  1  0.28025200  0.71974800  0.81752500  1
  F  F0  1  0.91826800  0.08173200  0.08746000  1
  F  F1  1  0.08173200  0.91826800  0.58746000  1
  F  F2  1  0.65481600  0.11507100  0.94773200  1
  F  F3  1  0.11507100  0.65481600  0.44773200  1
  F  F4  1  0.34518400  0.88492900  0.44773200  1
  F  F5  1  0.88492900  0.34518400  0.94773200  1
loop_
_geom_bond_atom_site_label_1
_geom_bond_atom_site_label_2
_geom_bond_distance
_geom_bond_site_symmetry_2
K0 O0 2.781539 1_555
K0 O17 2.816201 1_655
K0 O6 2.969278 1_655
K0 O14 3.016919 1_555
K0 O3 3.035686 1_556
K0 O4 3.082431 1_555
K0 O16 3.118545 1_656
K1 O16 2.781539 1_555
K1 O12 2.816201 1_455
K1 O3 2.969278 1_455
K1 O13 3.016919 1_555
K1 O6 3.035686 1_555
K1 O1 3.082431 1_555
K1 O0 3.118545 1_455
K2 O8 2.781539 1_555
K2 O12 2.816201 1_565
K2 O15 2.969278 1_565
K2 O2 3.016919 1_555
K2 O7 3.035686 1_555
K2 O5 3.082431 1_555
K2 O9 3.118545 1_565
K3 O13 2.882063 1_555
K3 O2 2.882063 1_555
K3 O12 2.934175 1_555
K3 O10 2.959136 1_554
K3 O14 2.959136 1_554
K3 O15 3.113811 1_555
K3 O3 3.113811 1_555
K4 O10 2.882063 1_555
K4 O14 2.882063 1_555
K4 O17 2.934175 1_555
K4 O13 2.959136 1_555
K4 O2 2.959136 1_555
K4 O6 3.113811 1_555
K4 O7 3.113811 1_555
K5 O9 2.781539 1_555
K5 O17 2.816201 1_545
K5 O7 2.969278 1_545
K5 O10 3.016919 1_555
K5 O15 3.035686 1_556
K5 O11 3.082431 1_555
K5 O8 3.118545 1_546
N0 O6 1.256742 1_555
N0 O10 1.262529 1_555
N0 O11 1.289662 1_555
N1 O15 1.256742 1_555
N1 O13 1.262529 1_555
N1 O1 1.289662 1_555
N2 O3 1.256742 1_555
N2 O2 1.262529 1_555
N2 O5 1.289662 1_555
N3 O7 1.256742 1_555
N3 O14 1.262529 1_555
N3 O4 1.289662 1_555
N4 O0 1.264779 1_555
N4 O9 1.264779 1_555
N4 O12 1.275140 1_555
N5 O8 1.264779 1_556
N5 O16 1.264779 1_556
N5 O17 1.275140 1_555
O1 Sb1 2.542260 1_545
O4 Sb0 2.542260 1_565
O5 Sb1 2.542260 1_655
O11 Sb0 2.542260 1_455
F0 Sb0 1.966410 1_554
F0 K1 3.090516 1_655
F0 K2 3.090516 1_545
F1 Sb1 1.966410 1_555
F1 K5 3.090516 1_565
F1 K0 3.090516 1_455
F2 Sb0 2.013545 1_555
F2 K5 2.765304 1_555
F2 K2 2.777363 1_546
F2 K3 2.828339 1_556
F3 Sb1 2.013545 1_555
F3 K1 2.765304 1_555
F3 K0 2.777363 1_455
F3 K4 2.828339 1_555
F4 Sb1 2.013545 1_555
F4 K2 2.765304 1_555
F4 K5 2.777363 1_565
F4 K4 2.828339 1_555
F5 Sb0 2.013545 1_555
F5 K0 2.765304 1_555
F5 K1 2.777363 1_656
F5 K3 2.828339 1_556
