# generated using pymatgen
data_SrPt5
_symmetry_space_group_name_H-M   'P 1'
_cell_length_a   5.45320389
_cell_length_b   5.45320353
_cell_length_c   4.36131516
_cell_angle_alpha   90.00000000
_cell_angle_beta   90.00000000
_cell_angle_gamma   120.00000853
_symmetry_Int_Tables_number   1
_chemical_formula_structural   SrPt5
_chemical_formula_sum   'Sr1 Pt5'
_cell_volume   112.31855528
_cell_formula_units_Z   1
loop_
 _symmetry_equiv_pos_site_id
 _symmetry_equiv_pos_as_xyz
  1  'x, y, z'
loop_
 _atom_site_type_symbol
 _atom_site_label
 _atom_site_symmetry_multiplicity
 _atom_site_fract_x
 _atom_site_fract_y
 _atom_site_fract_z
 _atom_site_occupancy
  Sr  Sr0  1  0.00000000  0.00000000  0.00000000  1
  Pt  Pt0  1  0.50000000  0.50000000  0.50000000  1
  Pt  Pt1  1  0.66666700  0.33333300  0.00000000  1
  Pt  Pt2  1  0.00000000  0.50000000  0.50000000  1
  Pt  Pt3  1  0.33333300  0.66666700  -0.00000000  1
  Pt  Pt4  1  0.50000000  0.00000000  0.50000000  1
loop_
_geom_bond_atom_site_label_1
_geom_bond_atom_site_label_2
_geom_bond_distance
_geom_bond_site_symmetry_2
Pt0 Pt1 2.689498 1_556
Pt0 Pt3 2.689498 1_556
Pt0 Pt3 2.689498 1_555
Pt0 Pt1 2.689498 1_555
Pt0 Pt4 2.726602 1_555
Pt0 Pt4 2.726602 1_565
Pt0 Pt2 2.726602 1_655
Pt0 Pt2 2.726602 1_555
Pt0 Sr0 3.491364 1_555
Pt0 Sr0 3.491364 1_556
Pt0 Sr0 3.491364 1_665
Pt0 Sr0 3.491364 1_666
Pt1 Pt4 2.689495 1_554
Pt1 Pt4 2.689495 1_555
Pt1 Pt2 2.689495 1_655
Pt1 Pt2 2.689495 1_654
Pt1 Sr0 3.148406 1_655
Pt1 Sr0 3.148410 1_665
Pt1 Sr0 3.148410 1_555
Pt2 Pt3 2.689495 1_556
Pt2 Pt3 2.689495 1_555
Pt2 Pt4 2.726602 1_565
Pt2 Pt4 2.726602 1_455
Pt2 Sr0 3.491364 1_565
Pt2 Sr0 3.491364 1_555
Pt2 Sr0 3.491364 1_556
Pt2 Sr0 3.491364 1_566
Pt3 Pt4 2.689495 1_565
Pt3 Pt4 2.689495 1_564
Pt3 Sr0 3.148406 1_565
Pt3 Sr0 3.148410 1_555
Pt3 Sr0 3.148410 1_665
Pt4 Sr0 3.491364 1_556
Pt4 Sr0 3.491364 1_656
Pt4 Sr0 3.491364 1_655
Pt4 Sr0 3.491364 1_555
