# generated using pymatgen
data_La2Pd2O5
_symmetry_space_group_name_H-M   'P 1'
_cell_length_a   5.62290793
_cell_length_b   6.70394982
_cell_length_c   6.70394982
_cell_angle_alpha   90.00000000
_cell_angle_beta   90.00000000
_cell_angle_gamma   90.00000000
_symmetry_Int_Tables_number   1
_chemical_formula_structural   La2Pd2O5
_chemical_formula_sum   'La4 Pd4 O10'
_cell_volume   252.71003172
_cell_formula_units_Z   2
loop_
 _symmetry_equiv_pos_site_id
 _symmetry_equiv_pos_as_xyz
  1  'x, y, z'
loop_
 _atom_site_type_symbol
 _atom_site_label
 _atom_site_symmetry_multiplicity
 _atom_site_fract_x
 _atom_site_fract_y
 _atom_site_fract_z
 _atom_site_occupancy
  La  La0  1  0.50000000  0.10716846  0.73688520  1
  La  La1  1  0.00000000  0.73688520  0.89283154  1
  La  La2  1  0.50000000  0.89283154  0.26311480  1
  La  La3  1  0.00000000  0.26311480  0.10716846  1
  Pd  Pd0  1  -0.00000000  0.30957090  0.59478873  1
  Pd  Pd1  1  0.50000000  0.40521127  0.30957090  1
  Pd  Pd2  1  0.00000000  0.69042910  0.40521127  1
  Pd  Pd3  1  0.50000000  0.59478873  0.69042910  1
  O  O0  1  0.25768686  0.79886196  0.59488777  1
  O  O1  1  0.75768686  0.40511223  0.79886196  1
  O  O2  1  0.74231314  0.20113804  0.40511223  1
  O  O3  1  0.25768686  0.20113804  0.40511223  1
  O  O4  1  0.75000000  -0.00000000  0.00000000  1
  O  O5  1  0.75768686  0.59488777  0.20113804  1
  O  O6  1  0.24231314  0.59488777  0.20113804  1
  O  O7  1  0.74231314  0.79886196  0.59488777  1
  O  O8  1  0.25000000  -0.00000000  0.00000000  1
  O  O9  1  0.24231314  0.40511223  0.79886196  1
loop_
_geom_bond_atom_site_label_1
_geom_bond_atom_site_label_2
_geom_bond_distance
_geom_bond_site_symmetry_2
La0 O4 2.367195 1_556
La0 O8 2.367195 1_556
La0 O1 2.502337 1_555
La0 O9 2.502337 1_555
La0 O0 2.652277 1_545
La0 O7 2.652277 1_545
La0 O3 2.683337 1_555
La0 O2 2.683337 1_555
La1 O8 2.367195 1_566
La1 O4 2.367195 1_466
La1 O0 2.502337 1_555
La1 O7 2.502337 1_455
La1 O6 2.652277 1_556
La1 O5 2.652277 1_456
La1 O9 2.683337 1_555
La1 O1 2.683337 1_455
La2 O4 2.367195 1_565
La2 O8 2.367195 1_565
La2 O6 2.502337 1_555
La2 O5 2.502337 1_555
La2 O2 2.652277 1_565
La2 O3 2.652277 1_565
La2 O0 2.683337 1_555
La2 O7 2.683337 1_555
La3 O8 2.367195 1_555
La3 O4 2.367195 1_455
La3 O2 2.502337 1_455
La3 O3 2.502337 1_555
La3 O9 2.652277 1_554
La3 O1 2.652277 1_454
La3 O6 2.683337 1_555
La3 O5 2.683337 1_455
O0 Pd3 2.034294 1_555
O0 Pd2 2.060291 1_555
O1 Pd0 2.034294 1_655
O1 Pd3 2.060291 1_555
O2 Pd1 2.034294 1_555
O2 Pd0 2.060291 1_655
O3 Pd1 2.034294 1_555
O3 Pd0 2.060291 1_555
O5 Pd2 2.034294 1_655
O5 Pd1 2.060291 1_555
O6 Pd2 2.034294 1_555
O6 Pd1 2.060291 1_555
O7 Pd3 2.034294 1_555
O7 Pd2 2.060291 1_655
O9 Pd0 2.034294 1_555
O9 Pd3 2.060291 1_555
