# generated using pymatgen
data_BaMo2P3O14
_symmetry_space_group_name_H-M   'P 1'
_cell_length_a   8.14819695
_cell_length_b   8.14819695
_cell_length_c   8.65487194
_cell_angle_alpha   82.45493554
_cell_angle_beta   82.45493554
_cell_angle_gamma   72.91947361
_symmetry_Int_Tables_number   1
_chemical_formula_structural   BaMo2P3O14
_chemical_formula_sum   'Ba2 Mo4 P6 O28'
_cell_volume   541.90926107
_cell_formula_units_Z   2
loop_
 _symmetry_equiv_pos_site_id
 _symmetry_equiv_pos_as_xyz
  1  'x, y, z'
loop_
 _atom_site_type_symbol
 _atom_site_label
 _atom_site_symmetry_multiplicity
 _atom_site_fract_x
 _atom_site_fract_y
 _atom_site_fract_z
 _atom_site_occupancy
  Ba  Ba0  1  0.95505267  0.04653260  0.50095345  1
  Ba  Ba1  1  0.04653260  0.95505267  0.00095345  1
  Mo  Mo0  1  0.50556097  0.80523368  0.67197167  1
  Mo  Mo1  1  0.80523368  0.50556097  0.17197167  1
  Mo  Mo2  1  0.51631511  0.18139102  0.84604253  1
  Mo  Mo3  1  0.18139102  0.51631511  0.34604253  1
  P  P0  1  0.11177742  0.32089860  0.69792858  1
  P  P1  1  0.32089860  0.11177742  0.19792858  1
  P  P2  1  0.56184873  0.42445678  0.50506940  1
  P  P3  1  0.66092322  0.89642465  0.30832732  1
  P  P4  1  0.42445678  0.56184873  0.00506940  1
  P  P5  1  0.89642465  0.66092322  0.80832732  1
  O  O0  1  0.92333122  0.31291235  0.11387938  1
  O  O1  1  0.24888221  0.29839535  0.22674096  1
  O  O2  1  0.40830928  0.41448882  0.92200919  1
  O  O3  1  0.36879845  0.09193012  0.02136362  1
  O  O4  1  0.95390266  0.81815372  0.74908579  1
  O  O5  1  0.05481451  0.49585942  0.77796921  1
  O  O6  1  0.74480434  0.63615158  0.74157155  1
  O  O7  1  0.09193012  0.36879845  0.52136362  1
  O  O8  1  0.86936035  0.65638014  0.98861463  1
  O  O9  1  0.72151330  0.40196436  0.38473953  1
  O  O10  1  0.49585942  0.05481451  0.27796921  1
  O  O11  1  0.81815372  0.95390266  0.24908579  1
  O  O12  1  0.14148516  0.69601949  0.43676688  1
  O  O13  1  0.69601949  0.14148516  0.93676688  1
  O  O14  1  0.65638014  0.86936035  0.48861463  1
  O  O15  1  0.56060255  0.96848797  0.76926147  1
  O  O16  1  0.96848797  0.56060255  0.26926147  1
  O  O17  1  0.31291235  0.92333122  0.61387938  1
  O  O18  1  0.20313453  0.00315552  0.25968311  1
  O  O19  1  0.63615158  0.74480434  0.24157155  1
  O  O20  1  0.27635374  0.61694844  0.13449400  1
  O  O21  1  0.61694844  0.27635374  0.63449400  1
  O  O22  1  0.50760447  0.59648249  0.57422873  1
  O  O23  1  0.59648249  0.50760447  0.07422873  1
  O  O24  1  0.00315552  0.20313453  0.75968311  1
  O  O25  1  0.41448882  0.40830928  0.42200919  1
  O  O26  1  0.29839535  0.24888221  0.72674096  1
  O  O27  1  0.40196436  0.72151330  0.88473953  1
loop_
_geom_bond_atom_site_label_1
_geom_bond_atom_site_label_2
_geom_bond_distance
_geom_bond_site_symmetry_2
Ba0 O4 2.651492 1_545
Ba0 O18 2.690189 1_655
Ba0 O24 2.840927 1_655
Ba0 O11 2.851504 1_545
Ba0 O12 2.901669 1_645
Ba0 O21 3.022235 1_555
Ba0 O17 3.039203 1_645
Ba0 O9 3.085548 1_555
Ba0 O7 3.172432 1_655
Ba0 O14 3.192280 1_545
Ba1 O11 2.651492 1_455
Ba1 O24 2.690189 1_564
Ba1 O18 2.840927 1_565
Ba1 O4 2.851504 1_454
Ba1 O13 2.901669 1_464
Ba1 O20 3.022235 1_555
Ba1 O0 3.039203 1_465
Ba1 O27 3.085548 1_554
Ba1 O3 3.172432 1_565
Ba1 O8 3.192280 1_454
Mo0 O17 1.683962 1_555
Mo0 O15 1.850256 1_555
Mo0 O14 1.987180 1_555
Mo0 O22 1.991650 1_555
Mo0 O27 2.041838 1_555
Mo0 O6 2.138665 1_555
Mo1 O0 1.683962 1_555
Mo1 O16 1.850256 1_555
Mo1 O8 1.987180 1_554
Mo1 O23 1.991650 1_555
Mo1 O9 2.041838 1_555
Mo1 O19 2.138665 1_555
Mo2 O13 1.679749 1_555
Mo2 O15 1.858304 1_545
Mo2 O2 2.002077 1_555
Mo2 O3 2.005955 1_556
Mo2 O21 2.056644 1_555
Mo2 O26 2.068877 1_555
Mo3 O12 1.679749 1_555
Mo3 O16 1.858304 1_455
Mo3 O25 2.002077 1_555
Mo3 O7 2.005955 1_555
Mo3 O20 2.056644 1_555
Mo3 O1 2.068877 1_555
O1 P1 1.501911 1_555
O2 P4 1.523199 1_556
O3 P1 1.544316 1_555
O4 P5 1.496819 1_555
O5 P0 1.585533 1_555
O5 P5 1.589873 1_455
O6 P5 1.505125 1_555
O7 P0 1.544316 1_555
O8 P5 1.544020 1_555
O9 P2 1.537849 1_555
O10 P1 1.585533 1_555
O10 P3 1.589873 1_545
O11 P3 1.496819 1_555
O14 P3 1.544020 1_555
O18 P1 1.493240 1_555
O19 P3 1.505125 1_555
O20 P4 1.539942 1_555
O21 P2 1.539942 1_555
O22 P2 1.518327 1_555
O23 P4 1.518327 1_555
O24 P0 1.493240 1_555
O25 P2 1.523199 1_555
O26 P0 1.501911 1_555
O27 P4 1.537849 1_556
