# generated using pymatgen
data_V5As3
_symmetry_space_group_name_H-M   'P 1'
_cell_length_a   6.46394600
_cell_length_b   7.52161600
_cell_length_c   9.42947600
_cell_angle_alpha   90.00000000
_cell_angle_beta   90.00000000
_cell_angle_gamma   90.00000000
_symmetry_Int_Tables_number   1
_chemical_formula_structural   V5As3
_chemical_formula_sum   'V20 As12'
_cell_volume   458.45470784
_cell_formula_units_Z   4
loop_
 _symmetry_equiv_pos_site_id
 _symmetry_equiv_pos_as_xyz
  1  'x, y, z'
loop_
 _atom_site_type_symbol
 _atom_site_label
 _atom_site_symmetry_multiplicity
 _atom_site_fract_x
 _atom_site_fract_y
 _atom_site_fract_z
 _atom_site_occupancy
  V  V0  1  0.64979500  0.75000000  0.27838600  1
  V  V1  1  0.14979500  0.25000000  0.22161400  1
  V  V2  1  0.35020500  0.25000000  0.72161400  1
  V  V3  1  0.85020500  0.75000000  0.77838600  1
  V  V4  1  0.19876000  0.75000000  0.24760700  1
  V  V5  1  0.69876000  0.25000000  0.25239300  1
  V  V6  1  0.80124000  0.25000000  0.75239300  1
  V  V7  1  0.30124000  0.75000000  0.74760700  1
  V  V8  1  0.47159600  0.75000000  0.00955600  1
  V  V9  1  0.97159600  0.25000000  0.49044400  1
  V  V10  1  0.52840400  0.25000000  0.99044400  1
  V  V11  1  0.02840400  0.75000000  0.50955600  1
  V  V12  1  0.79499600  0.94138400  0.07681400  1
  V  V13  1  0.29499600  0.05861600  0.42318600  1
  V  V14  1  0.20500400  0.44138400  0.92318600  1
  V  V15  1  0.70500400  0.55861600  0.57681400  1
  V  V16  1  0.20500400  0.05861600  0.92318600  1
  V  V17  1  0.70500400  0.94138400  0.57681400  1
  V  V18  1  0.79499600  0.55861600  0.07681400  1
  V  V19  1  0.29499600  0.44138400  0.42318600  1
  As  As0  1  0.41742100  0.75000000  0.48919300  1
  As  As1  1  0.91742100  0.25000000  0.01080700  1
  As  As2  1  0.58257900  0.25000000  0.51080700  1
  As  As3  1  0.08257900  0.75000000  0.98919300  1
  As  As4  1  0.92603800  0.51527900  0.32853000  1
  As  As5  1  0.42603800  0.48472100  0.17147000  1
  As  As6  1  0.07396200  0.01527900  0.67147000  1
  As  As7  1  0.57396200  0.98472100  0.82853000  1
  As  As8  1  0.07396200  0.48472100  0.67147000  1
  As  As9  1  0.57396200  0.51527900  0.82853000  1
  As  As10  1  0.92603800  0.98472100  0.32853000  1
  As  As11  1  0.42603800  0.01527900  0.17147000  1
loop_
_geom_bond_atom_site_label_1
_geom_bond_atom_site_label_2
_geom_bond_distance
_geom_bond_site_symmetry_2
As0 V0 2.491488 1_555
As0 V17 2.492075 1_555
As0 V15 2.492075 1_555
As0 V11 2.521905 1_555
As0 V19 2.530221 1_555
As0 V13 2.530221 1_565
As0 V7 2.549810 1_555
As0 V4 2.680887 1_555
As1 V1 2.491488 1_655
As1 V16 2.492075 1_654
As1 V14 2.492075 1_654
As1 V10 2.521905 1_554
As1 V18 2.530221 1_555
As1 V12 2.530221 1_545
As1 V6 2.549810 1_554
As1 V5 2.680887 1_555
As2 V2 2.491488 1_555
As2 V13 2.492075 1_555
As2 V19 2.492075 1_555
As2 V9 2.521905 1_555
As2 V15 2.530221 1_555
As2 V17 2.530221 1_545
As2 V5 2.549810 1_555
As2 V6 2.680887 1_555
As3 V3 2.491488 1_455
As3 V12 2.492075 1_456
As3 V18 2.492075 1_456
As3 V8 2.521905 1_556
As3 V14 2.530221 1_555
As3 V16 2.530221 1_565
As3 V4 2.549810 1_556
As3 V7 2.680887 1_555
As4 V9 2.529636 1_555
As4 V18 2.541158 1_555
As4 V11 2.543332 1_655
As4 V0 2.555177 1_555
As4 V5 2.579738 1_555
As4 V19 2.606424 1_655
As4 V4 2.608997 1_655
As4 V1 2.662641 1_655
As4 V15 2.762018 1_555
As5 V8 2.529636 1_555
As5 V19 2.541158 1_555
As5 V10 2.543332 1_554
As5 V1 2.555177 1_555
As5 V4 2.579738 1_555
As5 V18 2.606424 1_555
As5 V5 2.608997 1_555
As5 V0 2.662641 1_555
As5 V14 2.762018 1_554
As6 V11 2.529636 1_545
As6 V16 2.541158 1_555
As6 V9 2.543332 1_455
As6 V2 2.555177 1_555
As6 V7 2.579738 1_545
As6 V17 2.606424 1_445
As6 V6 2.608997 1_455
As6 V3 2.662641 1_445
As6 V13 2.762018 1_555
As7 V10 2.529636 1_565
As7 V17 2.541158 1_555
As7 V8 2.543332 1_556
As7 V3 2.555177 1_555
As7 V6 2.579738 1_565
As7 V16 2.606424 1_565
As7 V7 2.608997 1_555
As7 V2 2.662641 1_565
As7 V12 2.762018 1_556
As8 V11 2.529636 1_555
As8 V14 2.541158 1_555
As8 V9 2.543332 1_455
As8 V2 2.555177 1_555
As8 V7 2.579738 1_555
As8 V15 2.606424 1_455
As8 V6 2.608997 1_455
As8 V3 2.662641 1_455
As8 V19 2.762018 1_555
As9 V10 2.529636 1_555
As9 V15 2.541158 1_555
As9 V8 2.543332 1_556
As9 V3 2.555177 1_555
As9 V6 2.579738 1_555
As9 V14 2.606424 1_555
As9 V7 2.608997 1_555
As9 V2 2.662641 1_555
As9 V18 2.762018 1_556
As10 V9 2.529636 1_565
As10 V12 2.541158 1_555
As10 V11 2.543332 1_655
As10 V0 2.555177 1_555
As10 V5 2.579738 1_565
As10 V13 2.606424 1_665
As10 V4 2.608997 1_655
As10 V1 2.662641 1_665
As10 V17 2.762018 1_555
As11 V8 2.529636 1_545
As11 V13 2.541158 1_555
As11 V10 2.543332 1_554
As11 V1 2.555177 1_555
As11 V4 2.579738 1_545
As11 V12 2.606424 1_545
As11 V5 2.608997 1_555
As11 V0 2.662641 1_545
As11 V16 2.762018 1_554
