# generated using pymatgen
data_Fe2BO4
_symmetry_space_group_name_H-M   'P 1'
_cell_length_a   9.53457100
_cell_length_b   6.46005700
_cell_length_c   9.39016365
_cell_angle_alpha   89.71686866
_cell_angle_beta   90.00000000
_cell_angle_gamma   90.00000000
_symmetry_Int_Tables_number   1
_chemical_formula_structural   Fe2BO4
_chemical_formula_sum   'Fe16 B8 O32'
_cell_volume   578.36947741
_cell_formula_units_Z   8
loop_
 _symmetry_equiv_pos_site_id
 _symmetry_equiv_pos_as_xyz
  1  'x, y, z'
loop_
 _atom_site_type_symbol
 _atom_site_label
 _atom_site_symmetry_multiplicity
 _atom_site_fract_x
 _atom_site_fract_y
 _atom_site_fract_z
 _atom_site_occupancy
  Fe  Fe0  1  0.55316300  0.33356900  0.49128700  1
  Fe  Fe1  1  0.44683700  0.33356900  0.99128700  1
  Fe  Fe2  1  0.31582100  0.58395700  0.26942300  1
  Fe  Fe3  1  0.68417900  0.58395700  0.76942300  1
  Fe  Fe4  1  0.18392000  0.83211500  0.50504500  1
  Fe  Fe5  1  0.81608000  0.83211500  0.00504500  1
  Fe  Fe6  1  0.05532300  0.08463900  0.78604500  1
  Fe  Fe7  1  0.94467700  0.08463900  0.28604500  1
  Fe  Fe8  1  0.43941900  0.83426200  0.99404200  1
  Fe  Fe9  1  0.56058100  0.83426200  0.49404200  1
  Fe  Fe10  1  0.31939500  0.08642500  0.27553200  1
  Fe  Fe11  1  0.68060500  0.08642500  0.77553200  1
  Fe  Fe12  1  0.18042800  0.33735900  0.51035000  1
  Fe  Fe13  1  0.81957200  0.33735900  0.01035000  1
  Fe  Fe14  1  0.05879200  0.58512600  0.78808800  1
  Fe  Fe15  1  0.94120800  0.58512600  0.28808800  1
  B  B0  1  0.87404900  0.85108100  0.55482100  1
  B  B1  1  0.12595100  0.85108100  0.05482100  1
  B  B2  1  0.87234400  0.31633700  0.55572500  1
  B  B3  1  0.12765600  0.31633700  0.05572500  1
  B  B4  1  0.62691000  0.09139100  0.22685800  1
  B  B5  1  0.37309000  0.09139100  0.72685800  1
  B  B6  1  0.62597400  0.57852500  0.22327200  1
  B  B7  1  0.37402600  0.57852500  0.72327200  1
  O  O0  1  0.50176100  0.09707800  0.14833000  1
  O  O1  1  0.49823900  0.09707800  0.64833000  1
  O  O2  1  0.61922500  0.56819000  0.36959900  1
  O  O3  1  0.38077500  0.56819000  0.86959900  1
  O  O4  1  0.37168300  0.32114800  0.39895500  1
  O  O5  1  0.62831700  0.32114800  0.89895500  1
  O  O6  1  0.25473100  0.84912800  0.12416500  1
  O  O7  1  0.74526900  0.84912800  0.62416500  1
  O  O8  1  0.24358600  0.59986400  0.65742400  1
  O  O9  1  0.75641400  0.59986400  0.15742400  1
  O  O10  1  0.13307200  0.07293400  0.37561300  1
  O  O11  1  0.86692800  0.07293400  0.87561300  1
  O  O12  1  0.12059400  0.85236500  0.90871400  1
  O  O13  1  0.87940600  0.85236500  0.40871400  1
  O  O14  1  0.99305800  0.31431600  0.64004500  1
  O  O15  1  0.00694200  0.31431600  0.14004500  1
  O  O16  1  0.50265500  0.56771500  0.14204200  1
  O  O17  1  0.49734500  0.56771500  0.64204200  1
  O  O18  1  0.62060200  0.10030300  0.37216300  1
  O  O19  1  0.37939800  0.10030300  0.87216300  1
  O  O20  1  0.36615900  0.84868900  0.40317900  1
  O  O21  1  0.63384100  0.84868900  0.90317900  1
  O  O22  1  0.25996400  0.31831200  0.11973900  1
  O  O23  1  0.74003600  0.31831200  0.61973900  1
  O  O24  1  0.24270600  0.07716000  0.65874800  1
  O  O25  1  0.75729400  0.07716000  0.15874800  1
  O  O26  1  0.13128000  0.59562700  0.38611000  1
  O  O27  1  0.86872000  0.59562700  0.88611000  1
  O  O28  1  0.11607700  0.31657200  0.90959900  1
  O  O29  1  0.88392300  0.31657200  0.40959900  1
  O  O30  1  0.00106200  0.85293300  0.63171700  1
  O  O31  1  0.99893800  0.85293300  0.13171700  1
loop_
_geom_bond_atom_site_label_1
_geom_bond_atom_site_label_2
_geom_bond_distance
_geom_bond_site_symmetry_2
Fe0 O4 1.937238 1_555
Fe0 O18 1.988000 1_555
Fe0 O2 1.995635 1_555
Fe0 O17 2.143901 1_555
Fe0 O23 2.153618 1_555
Fe0 O1 2.181879 1_555
Fe1 O5 1.937238 1_555
Fe1 O19 1.988000 1_555
Fe1 O3 1.995635 1_555
Fe1 O16 2.143901 1_556
Fe1 O22 2.153618 1_556
Fe1 O0 2.181879 1_556
Fe2 O26 2.074365 1_555
Fe2 O16 2.148556 1_555
Fe2 O4 2.150609 1_555
Fe2 O20 2.180326 1_555
Fe2 O6 2.260774 1_555
Fe2 O22 2.286482 1_555
Fe3 O27 2.074365 1_555
Fe3 O17 2.148556 1_555
Fe3 O5 2.150609 1_555
Fe3 O21 2.180326 1_555
Fe3 O7 2.260774 1_555
Fe3 O23 2.286482 1_555
Fe4 O26 1.962141 1_555
Fe4 O20 1.986094 1_555
Fe4 O10 2.028236 1_565
Fe4 O30 2.115232 1_555
Fe4 O8 2.144960 1_555
Fe4 O24 2.219403 1_565
Fe5 O27 1.962141 1_554
Fe5 O21 1.986094 1_554
Fe5 O11 2.028236 1_564
Fe5 O31 2.115232 1_555
Fe5 O9 2.144960 1_555
Fe5 O25 2.219403 1_565
Fe6 O11 1.984701 1_455
Fe6 O28 1.985869 1_555
Fe6 O12 1.987097 1_545
Fe6 O14 2.100792 1_455
Fe6 O24 2.150288 1_555
Fe6 O30 2.151671 1_545
Fe7 O10 1.984701 1_655
Fe7 O29 1.985869 1_555
Fe7 O13 1.987097 1_545
Fe7 O15 2.100792 1_655
Fe7 O25 2.150288 1_555
Fe7 O31 2.151671 1_545
Fe8 O21 2.042596 1_555
Fe8 O19 2.138125 1_565
Fe8 O6 2.145741 1_556
Fe8 O3 2.156940 1_555
Fe8 O16 2.288281 1_556
Fe8 O0 2.314987 1_566
Fe9 O20 2.042596 1_555
Fe9 O18 2.138125 1_565
Fe9 O7 2.145741 1_555
Fe9 O2 2.156940 1_555
Fe9 O17 2.288281 1_555
Fe9 O1 2.314987 1_565
Fe10 O4 1.976954 1_555
Fe10 O20 1.993981 1_545
Fe10 O10 2.011456 1_555
Fe10 O0 2.110448 1_555
Fe10 O22 2.164160 1_555
Fe10 O6 2.184461 1_545
Fe11 O5 1.976954 1_555
Fe11 O21 1.993981 1_545
Fe11 O11 2.011456 1_555
Fe11 O1 2.110448 1_555
Fe11 O23 2.164160 1_555
Fe11 O7 2.184461 1_545
Fe12 O26 2.084474 1_555
Fe12 O4 2.105108 1_555
Fe12 O14 2.166818 1_455
Fe12 O10 2.178053 1_555
Fe12 O24 2.257578 1_555
Fe12 O8 2.273499 1_555
Fe13 O27 2.084474 1_554
Fe13 O5 2.105108 1_554
Fe13 O15 2.166818 1_655
Fe13 O11 2.178053 1_554
Fe13 O25 2.257578 1_555
Fe13 O9 2.273499 1_555
Fe14 O27 2.033888 1_455
Fe14 O28 2.142533 1_555
Fe14 O8 2.148891 1_555
Fe14 O12 2.151729 1_555
Fe14 O14 2.325925 1_455
Fe14 O30 2.329589 1_555
Fe15 O26 2.033888 1_655
Fe15 O29 2.142533 1_555
Fe15 O9 2.148891 1_555
Fe15 O13 2.151729 1_555
Fe15 O15 2.325925 1_655
Fe15 O31 2.329589 1_555
B0 O13 1.372903 1_555
B0 O7 1.389864 1_555
B0 O30 1.410023 1_655
B1 O12 1.372903 1_554
B1 O6 1.389864 1_555
B1 O31 1.410023 1_455
B2 O29 1.376575 1_555
B2 O14 1.397026 1_555
B2 O23 1.397478 1_555
B3 O28 1.376575 1_554
B3 O15 1.397026 1_555
B3 O22 1.397478 1_555
B4 O18 1.367259 1_555
B4 O25 1.401253 1_555
B4 O0 1.403087 1_555
B5 O19 1.367259 1_555
B5 O24 1.401253 1_555
B5 O1 1.403087 1_555
B6 O2 1.376831 1_555
B6 O9 1.395438 1_555
B6 O16 1.403461 1_555
B7 O3 1.376831 1_555
B7 O8 1.395438 1_555
B7 O17 1.403461 1_555
