# generated using pymatgen
data_NaCoBP2H2O9
_symmetry_space_group_name_H-M   'P 1'
_cell_length_a   11.49928100
_cell_length_b   6.58616600
_cell_length_c   9.72370555
_cell_angle_alpha   72.86474903
_cell_angle_beta   90.00000000
_cell_angle_gamma   90.00000000
_symmetry_Int_Tables_number   1
_chemical_formula_structural   NaCoBP2H2O9
_chemical_formula_sum   'Na4 Co4 B4 P8 H8 O36'
_cell_volume   703.74726511
_cell_formula_units_Z   4
loop_
 _symmetry_equiv_pos_site_id
 _symmetry_equiv_pos_as_xyz
  1  'x, y, z'
loop_
 _atom_site_type_symbol
 _atom_site_label
 _atom_site_symmetry_multiplicity
 _atom_site_fract_x
 _atom_site_fract_y
 _atom_site_fract_z
 _atom_site_occupancy
  Na  Na0  1  0.31297800  0.06979500  0.44840600  1
  Na  Na1  1  0.18702200  0.06979500  0.94840600  1
  Na  Na2  1  0.68702200  0.93020500  0.55159400  1
  Na  Na3  1  0.81297800  0.93020500  0.05159400  1
  Co  Co0  1  0.92359200  0.61871000  0.59856200  1
  Co  Co1  1  0.07640800  0.38129000  0.40143800  1
  Co  Co2  1  0.42359200  0.38129000  0.90143800  1
  Co  Co3  1  0.57640800  0.61871000  0.09856200  1
  B  B0  1  0.95542100  0.26929400  0.15186200  1
  B  B1  1  0.54457900  0.26929400  0.65186200  1
  B  B2  1  0.45542100  0.73070600  0.34813800  1
  B  B3  1  0.04457900  0.73070600  0.84813800  1
  P  P0  1  0.32711600  0.47109700  0.56512300  1
  P  P1  1  0.06261700  0.92381700  0.31743100  1
  P  P2  1  0.43738300  0.92381700  0.81743100  1
  P  P3  1  0.93738300  0.07618300  0.68256900  1
  P  P4  1  0.82711600  0.52890300  0.93487700  1
  P  P5  1  0.56261700  0.07618300  0.18256900  1
  P  P6  1  0.17288400  0.47109700  0.06512300  1
  P  P7  1  0.67288400  0.52890300  0.43487700  1
  H  H0  1  0.82881000  0.26204100  0.79025700  1
  H  H1  1  0.32881000  0.73795900  0.70974300  1
  H  H2  1  0.67119000  0.26204100  0.29025700  1
  H  H3  1  0.13620300  0.57596600  0.72567600  1
  H  H4  1  0.63620300  0.42403400  0.77432400  1
  H  H5  1  0.17119000  0.73795900  0.20974300  1
  H  H6  1  0.86379700  0.42403400  0.27432400  1
  H  H7  1  0.36379700  0.57596600  0.22567700  1
  O  O0  1  0.35859500  0.69361100  0.45283500  1
  O  O1  1  0.54688200  0.03469000  0.72529200  1
  O  O2  1  0.27432000  0.36893700  0.01322700  1
  O  O3  1  0.85859500  0.30638900  0.04716500  1
  O  O4  1  0.52826900  0.29881300  0.08783300  1
  O  O5  1  0.69438500  0.48739900  0.28904100  1
  O  O6  1  0.44467000  0.60354300  0.24791300  1
  O  O7  1  0.61460800  0.92966500  0.10388200  1
  O  O8  1  0.14140500  0.69361100  0.95283500  1
  O  O9  1  0.38539200  0.07033500  0.89611800  1
  O  O10  1  0.47173100  0.70118700  0.91216700  1
  O  O11  1  0.30561500  0.51260100  0.71095900  1
  O  O12  1  0.06732600  0.31743200  0.07246800  1
  O  O13  1  0.56732600  0.68256800  0.42753200  1
  O  O14  1  0.95311800  0.03469000  0.22529200  1
  O  O15  1  0.88539200  0.92966500  0.60388200  1
  O  O16  1  0.45311800  0.96531000  0.27470800  1
  O  O17  1  0.05533000  0.60354300  0.74791300  1
  O  O18  1  0.11460800  0.07033500  0.39611800  1
  O  O19  1  0.43267400  0.31743200  0.57246800  1
  O  O20  1  0.77432000  0.63106300  0.48677300  1
  O  O21  1  0.64140500  0.30638900  0.54716500  1
  O  O22  1  0.55533000  0.39645700  0.75208700  1
  O  O23  1  0.19438500  0.51260100  0.21095900  1
  O  O24  1  0.84463100  0.10608100  0.79634700  1
  O  O25  1  0.04688200  0.96531000  0.77470800  1
  O  O26  1  0.94467000  0.39645700  0.25208700  1
  O  O27  1  0.02826900  0.70118700  0.41216700  1
  O  O28  1  0.34463100  0.89391900  0.70365300  1
  O  O29  1  0.65536900  0.10608100  0.29634700  1
  O  O30  1  0.72568000  0.63106300  0.98677300  1
  O  O31  1  0.22568000  0.36893700  0.51322700  1
  O  O32  1  0.80561500  0.48739900  0.78904100  1
  O  O33  1  0.15536900  0.89391900  0.20365300  1
  O  O34  1  0.97173100  0.29881300  0.58783300  1
  O  O35  1  0.93267400  0.68256800  0.92753200  1
loop_
_geom_bond_atom_site_label_1
_geom_bond_atom_site_label_2
_geom_bond_distance
_geom_bond_site_symmetry_2
Na0 O18 2.336862 1_555
Na0 O28 2.437258 1_545
Na0 O31 2.453254 1_555
Na0 O0 2.520456 1_545
Na0 O16 2.570620 1_545
Na0 O19 2.677546 1_555
Na1 O9 2.336862 1_555
Na1 O33 2.437258 1_546
Na1 O2 2.453254 1_556
Na1 O8 2.520456 1_545
Na1 O25 2.570620 1_545
Na1 O12 2.677546 1_556
Na2 O15 2.336862 1_555
Na2 O29 2.437258 1_565
Na2 O20 2.453254 1_555
Na2 O21 2.520456 1_565
Na2 O1 2.570620 1_565
Na2 O13 2.677546 1_555
Na3 O7 2.336862 1_555
Na3 O24 2.437258 1_564
Na3 O30 2.453254 1_554
Na3 O3 2.520456 1_565
Na3 O14 2.570620 1_565
Na3 O35 2.677546 1_554
Co0 O20 2.020526 1_555
Co0 O17 2.080483 1_655
Co0 O27 2.109223 1_655
Co0 O15 2.110065 1_555
Co0 O34 2.210394 1_555
Co0 O32 2.252790 1_555
Co1 O31 2.020526 1_555
Co1 O26 2.080483 1_455
Co1 O34 2.109223 1_455
Co1 O18 2.110065 1_555
Co1 O27 2.210394 1_555
Co1 O23 2.252790 1_555
Co2 O2 2.020526 1_556
Co2 O22 2.080483 1_555
Co2 O4 2.109223 1_556
Co2 O9 2.110065 1_555
Co2 O10 2.210394 1_555
Co2 O11 2.252790 1_555
Co3 O30 2.020526 1_554
Co3 O6 2.080483 1_555
Co3 O10 2.109223 1_554
Co3 O7 2.110065 1_555
Co3 O4 2.210394 1_555
Co3 O5 2.252790 1_555
B0 O26 1.465414 1_555
B0 O3 1.479616 1_555
B0 O12 1.486003 1_655
B0 O14 1.499292 1_555
B1 O22 1.465414 1_555
B1 O21 1.479616 1_555
B1 O19 1.486003 1_555
B1 O1 1.499292 1_555
B2 O6 1.465414 1_555
B2 O0 1.479616 1_555
B2 O13 1.486003 1_555
B2 O16 1.499292 1_555
B3 O17 1.465414 1_555
B3 O8 1.479616 1_555
B3 O35 1.486003 1_455
B3 O25 1.499292 1_555
H0 O24 1.027550 1_555
H0 O32 1.504634 1_555
H1 O28 1.027550 1_555
H1 O11 1.504634 1_555
H2 O29 1.027550 1_555
H2 O5 1.504634 1_555
H3 O17 0.983742 1_555
H4 O22 0.983742 1_555
H5 O33 1.027550 1_555
H5 O23 1.504634 1_555
H6 O26 0.983742 1_555
H7 O6 0.983740 1_555
O0 P0 1.589977 1_555
O1 P2 1.592451 1_545
O2 P6 1.505993 1_555
O3 P4 1.589977 1_554
O4 P5 1.535788 1_555
O5 P7 1.541161 1_555
O7 P5 1.519586 1_565
O8 P6 1.589977 1_556
O9 P2 1.519586 1_545
O10 P2 1.535788 1_555
O11 P0 1.541161 1_555
O12 P6 1.568499 1_555
O13 P7 1.568499 1_555
O14 P1 1.592451 1_645
O15 P3 1.519586 1_565
O16 P5 1.592451 1_565
O18 P1 1.519586 1_545
O19 P0 1.568499 1_555
O20 P7 1.505993 1_555
O21 P7 1.589977 1_555
O23 P6 1.541161 1_555
O24 P3 1.590201 1_555
O25 P3 1.592451 1_465
O27 P1 1.535788 1_555
O28 P2 1.590201 1_555
O29 P5 1.590201 1_555
O30 P4 1.505993 1_555
O31 P0 1.505993 1_555
O32 P4 1.541161 1_555
O33 P1 1.590201 1_555
O34 P3 1.535788 1_555
O35 P4 1.568499 1_555
