# generated using pymatgen
data_Bi2Pb2Se5
_symmetry_space_group_name_H-M   'P 1'
_cell_length_a   4.24691152
_cell_length_b   4.24691152
_cell_length_c   17.15173015
_cell_angle_alpha   90.00000000
_cell_angle_beta   90.00000000
_cell_angle_gamma   119.99999439
_symmetry_Int_Tables_number   1
_chemical_formula_structural   Bi2Pb2Se5
_chemical_formula_sum   'Bi2 Pb2 Se5'
_cell_volume   267.90758993
_cell_formula_units_Z   1
loop_
 _symmetry_equiv_pos_site_id
 _symmetry_equiv_pos_as_xyz
  1  'x, y, z'
loop_
 _atom_site_type_symbol
 _atom_site_label
 _atom_site_symmetry_multiplicity
 _atom_site_fract_x
 _atom_site_fract_y
 _atom_site_fract_z
 _atom_site_occupancy
  Bi  Bi0  1  0.00000000  -0.00000000  0.67366503  1
  Bi  Bi1  1  -0.00000000  0.00000000  0.32633497  1
  Pb  Pb0  1  0.33333300  0.66666700  0.10817286  1
  Pb  Pb1  1  0.66666700  0.33333300  0.89182714  1
  Se  Se0  1  0.66666700  0.33333300  0.58669192  1
  Se  Se1  1  0.33333300  0.66666700  0.78533586  1
  Se  Se2  1  0.66666700  0.33333300  0.21466414  1
  Se  Se3  1  0.00000000  0.00000000  -0.00000000  1
  Se  Se4  1  0.33333300  0.66666700  0.41330808  1
loop_
_geom_bond_atom_site_label_1
_geom_bond_atom_site_label_2
_geom_bond_distance
_geom_bond_site_symmetry_2
Bi0 Se0 2.870080 1_455
Bi0 Se0 2.870083 1_445
Bi0 Se0 2.870083 1_555
Bi0 Se1 3.111371 1_545
Bi0 Se1 3.111374 1_555
Bi0 Se1 3.111374 1_445
Bi1 Se4 2.870080 1_545
Bi1 Se4 2.870083 1_445
Bi1 Se4 2.870083 1_555
Bi1 Se2 3.111371 1_455
Bi1 Se2 3.111374 1_445
Bi1 Se2 3.111374 1_555
Pb0 Se2 3.057485 1_565
Pb0 Se2 3.057485 1_455
Pb0 Se2 3.057490 1_555
Pb0 Se3 3.074801 1_565
Pb0 Se3 3.074804 1_555
Pb0 Se3 3.074804 1_665
Pb1 Se1 3.057485 1_655
Pb1 Se1 3.057485 1_545
Pb1 Se1 3.057490 1_555
Pb1 Se3 3.074801 1_656
Pb1 Se3 3.074804 1_666
Pb1 Se3 3.074804 1_556
