# generated using pymatgen
data_LiZr2(PO4)3
_symmetry_space_group_name_H-M   'P 1'
_cell_length_a   8.88060350
_cell_length_b   8.88060333
_cell_length_c   8.88060299
_cell_angle_alpha   59.59344917
_cell_angle_beta   59.59344695
_cell_angle_gamma   59.59345427
_symmetry_Int_Tables_number   1
_chemical_formula_structural   LiZr2(PO4)3
_chemical_formula_sum   'Li2 Zr4 P6 O24'
_cell_volume   490.65986328
_cell_formula_units_Z   2
loop_
 _symmetry_equiv_pos_site_id
 _symmetry_equiv_pos_as_xyz
  1  'x, y, z'
loop_
 _atom_site_type_symbol
 _atom_site_label
 _atom_site_symmetry_multiplicity
 _atom_site_fract_x
 _atom_site_fract_y
 _atom_site_fract_z
 _atom_site_occupancy
  Li  Li0  1  -0.00000000  -0.00000000  0.00000000  1
  Li  Li1  1  0.50000000  0.50000000  0.50000000  1
  Zr  Zr0  1  0.14228134  0.14228134  0.14228134  1
  Zr  Zr1  1  0.35771866  0.35771866  0.35771866  1
  Zr  Zr2  1  0.85771866  0.85771866  0.85771866  1
  Zr  Zr3  1  0.64228134  0.64228134  0.64228134  1
  P  P0  1  0.54414345  0.95585655  0.25000000  1
  P  P1  1  0.25000000  0.54414345  0.95585655  1
  P  P2  1  0.95585655  0.25000000  0.54414345  1
  P  P3  1  0.45585655  0.04414345  0.75000000  1
  P  P4  1  0.75000000  0.45585655  0.04414345  1
  P  P5  1  0.04414345  0.75000000  0.45585655  1
  O  O0  1  0.38813024  -0.00021100  0.19115081  1
  O  O1  1  0.19115081  0.38813024  -0.00021100  1
  O  O2  1  -0.00021100  0.19115081  0.38813024  1
  O  O3  1  0.50021100  0.11186976  0.30884919  1
  O  O4  1  0.30884919  0.50021100  0.11186976  1
  O  O5  1  0.11186976  0.30884919  0.50021100  1
  O  O6  1  0.61186976  0.00021100  0.80884919  1
  O  O7  1  0.80884919  0.61186976  0.00021100  1
  O  O8  1  0.00021100  0.80884919  0.61186976  1
  O  O9  1  0.49978900  0.88813024  0.69115081  1
  O  O10  1  0.69115081  0.49978900  0.88813024  1
  O  O11  1  0.88813024  0.69115081  0.49978900  1
  O  O12  1  0.27069773  0.05939054  0.90963312  1
  O  O13  1  0.90963312  0.27069773  0.05939054  1
  O  O14  1  0.05939054  0.90963312  0.27069773  1
  O  O15  1  0.44060946  0.22930227  0.59036688  1
  O  O16  1  0.59036688  0.44060946  0.22930227  1
  O  O17  1  0.22930227  0.59036688  0.44060946  1
  O  O18  1  0.72930227  0.94061046  0.09036688  1
  O  O19  1  0.09036688  0.72930227  0.94061046  1
  O  O20  1  0.94061046  0.09036688  0.72930227  1
  O  O21  1  0.55938954  0.77069773  0.40963312  1
  O  O22  1  0.40963312  0.55938954  0.77069773  1
  O  O23  1  0.77069773  0.40963312  0.55938954  1
loop_
_geom_bond_atom_site_label_1
_geom_bond_atom_site_label_2
_geom_bond_distance
_geom_bond_site_symmetry_2
Li0 O20 2.367135 1_454
Li0 O18 2.367135 1_445
Li0 O19 2.367135 1_544
Li0 O14 2.367140 1_545
Li0 O12 2.367140 1_554
Li0 O13 2.367140 1_455
Li1 O22 2.367135 1_555
Li1 O21 2.367135 1_555
Li1 O23 2.367136 1_555
Li1 O16 2.367140 1_555
Li1 O15 2.367140 1_555
Li1 O17 2.367141 1_555
O0 P0 1.524571 1_545
O0 Zr0 2.040330 1_555
O1 P1 1.524571 1_554
O1 Zr0 2.040330 1_555
O2 P2 1.524571 1_455
O2 Zr0 2.040330 1_555
O3 P0 1.524571 1_545
O3 Zr1 2.040330 1_555
O4 P1 1.524571 1_554
O4 Zr1 2.040330 1_555
O5 P2 1.524571 1_455
O5 Zr1 2.040330 1_555
O6 P3 1.524571 1_555
O6 Zr2 2.040330 1_545
O7 P4 1.524571 1_555
O7 Zr2 2.040330 1_554
O8 P5 1.524571 1_555
O8 Zr2 2.040330 1_455
O9 P3 1.524571 1_565
O9 Zr3 2.040330 1_555
O10 P4 1.524571 1_556
O10 Zr3 2.040330 1_555
O11 P5 1.524571 1_655
O11 Zr3 2.040330 1_555
O12 P3 1.530070 1_555
O12 Zr0 2.101354 1_556
O13 P4 1.530070 1_555
O13 Zr0 2.101354 1_655
O14 P5 1.530070 1_555
O14 Zr0 2.101354 1_565
O15 P3 1.530070 1_555
O15 Zr1 2.101354 1_555
O16 P4 1.530070 1_555
O16 Zr1 2.101354 1_555
O17 P5 1.530070 1_555
O17 Zr1 2.101354 1_555
O18 P0 1.530070 1_555
O18 Zr2 2.101359 1_554
O19 P1 1.530070 1_555
O19 Zr2 2.101360 1_455
O20 P2 1.530070 1_555
O20 Zr2 2.101359 1_545
O21 P0 1.530070 1_555
O21 Zr3 2.101359 1_555
O22 P1 1.530070 1_555
O22 Zr3 2.101359 1_555
O23 P2 1.530070 1_555
O23 Zr3 2.101359 1_555
