# generated using pymatgen
data_Er2SiSO4
_symmetry_space_group_name_H-M   'P 1'
_cell_length_a   8.19519934
_cell_length_b   8.19519934
_cell_length_c   6.85532600
_cell_angle_alpha   90.00000000
_cell_angle_beta   90.00000000
_cell_angle_gamma   98.20032348
_symmetry_Int_Tables_number   1
_chemical_formula_structural   Er2SiSO4
_chemical_formula_sum   'Er8 Si4 S4 O16'
_cell_volume   455.70503063
_cell_formula_units_Z   4
loop_
 _symmetry_equiv_pos_site_id
 _symmetry_equiv_pos_as_xyz
  1  'x, y, z'
loop_
 _atom_site_type_symbol
 _atom_site_label
 _atom_site_symmetry_multiplicity
 _atom_site_fract_x
 _atom_site_fract_y
 _atom_site_fract_z
 _atom_site_occupancy
  Er  Er0  1  0.67136100  0.32863900  0.02306500  1
  Er  Er1  1  0.81047100  0.68952900  0.75000000  1
  Er  Er2  1  0.17136100  0.82863900  0.47693500  1
  Er  Er3  1  0.18952900  0.31047100  0.25000000  1
  Er  Er4  1  0.68952900  0.81047100  0.25000000  1
  Er  Er5  1  0.82863900  0.17136100  0.52306500  1
  Er  Er6  1  0.32863900  0.67136100  0.97693500  1
  Er  Er7  1  0.31047100  0.18952900  0.75000000  1
  Si  Si0  1  0.56386400  0.93613600  0.75000000  1
  Si  Si1  1  0.43613600  0.06386400  0.25000000  1
  Si  Si2  1  0.06386400  0.43613600  0.75000000  1
  Si  Si3  1  0.93613600  0.56386400  0.25000000  1
  S  S0  1  0.49089600  0.50910400  0.25288300  1
  S  S1  1  0.00910400  0.99089600  0.75288300  1
  S  S2  1  0.99089600  0.00910400  0.24711700  1
  S  S3  1  0.50910400  0.49089600  0.74711700  1
  O  O0  1  0.39041400  0.86283800  0.23561200  1
  O  O1  1  0.86283800  0.39041400  0.76438800  1
  O  O2  1  0.83059800  0.61873300  0.06395100  1
  O  O3  1  0.88126700  0.66940200  0.43604900  1
  O  O4  1  0.13716200  0.60958600  0.23561200  1
  O  O5  1  0.89041400  0.36283800  0.26438800  1
  O  O6  1  0.33059800  0.11873300  0.43604900  1
  O  O7  1  0.63716200  0.10958600  0.26438800  1
  O  O8  1  0.60958600  0.13716200  0.76438800  1
  O  O9  1  0.38126700  0.16940200  0.06395100  1
  O  O10  1  0.10958600  0.63716200  0.73561200  1
  O  O11  1  0.16940200  0.38126700  0.93604900  1
  O  O12  1  0.11873300  0.33059800  0.56395100  1
  O  O13  1  0.36283800  0.89041400  0.73561200  1
  O  O14  1  0.61873300  0.83059800  0.93604900  1
  O  O15  1  0.66940200  0.88126700  0.56395100  1
loop_
_geom_bond_atom_site_label_1
_geom_bond_atom_site_label_2
_geom_bond_distance
_geom_bond_site_symmetry_2
Er0 O1 2.374171 1_554
Er0 O8 2.374171 1_554
Er0 O7 2.427874 1_555
Er0 O5 2.427874 1_555
Er0 O2 2.558990 1_555
Er0 O9 2.558990 1_555
Er0 S0 2.735079 1_555
Er0 S3 2.760316 1_554
Er1 O3 2.241260 1_555
Er1 O2 2.241260 1_556
Er1 O15 2.439376 1_555
Er1 O14 2.439376 1_555
Er1 O10 2.550081 1_655
Er1 O1 2.550081 1_555
Er1 S3 2.757369 1_555
Er1 S1 2.757369 1_655
Er2 O10 2.374171 1_555
Er2 O13 2.374171 1_555
Er2 O0 2.427874 1_555
Er2 O4 2.427874 1_555
Er2 O3 2.558990 1_455
Er2 O6 2.558990 1_565
Er2 S2 2.735079 1_465
Er2 S1 2.760316 1_555
Er3 O11 2.241260 1_554
Er3 O12 2.241260 1_555
Er3 O6 2.439376 1_555
Er3 O9 2.439376 1_555
Er3 O4 2.550081 1_555
Er3 O5 2.550081 1_455
Er3 S2 2.757369 1_455
Er3 S0 2.757369 1_555
Er4 O14 2.241260 1_554
Er4 O15 2.241260 1_555
Er4 O2 2.439376 1_555
Er4 O3 2.439376 1_555
Er4 O7 2.550081 1_565
Er4 O0 2.550081 1_555
Er4 S0 2.757369 1_555
Er4 S2 2.757369 1_565
Er5 O5 2.374171 1_555
Er5 O7 2.374171 1_555
Er5 O1 2.427874 1_555
Er5 O8 2.427874 1_555
Er5 O15 2.558990 1_545
Er5 O12 2.558990 1_655
Er5 S1 2.735079 1_645
Er5 S2 2.760316 1_555
Er6 O0 2.374171 1_556
Er6 O4 2.374171 1_556
Er6 O10 2.427874 1_555
Er6 O13 2.427874 1_555
Er6 O14 2.558990 1_555
Er6 O11 2.558990 1_555
Er6 S3 2.735079 1_555
Er6 S0 2.760316 1_556
Er7 O6 2.241260 1_555
Er7 O9 2.241260 1_556
Er7 O12 2.439376 1_555
Er7 O11 2.439376 1_555
Er7 O13 2.550081 1_545
Er7 O8 2.550081 1_555
Er7 S3 2.757369 1_555
Er7 S1 2.757369 1_545
O0 Si1 1.639548 1_565
O1 Si2 1.639548 1_655
O2 Si3 1.639486 1_555
O3 Si3 1.639486 1_555
O4 Si3 1.639548 1_455
O5 Si3 1.639548 1_555
O6 Si1 1.639486 1_555
O7 Si1 1.639548 1_555
O8 Si0 1.639548 1_545
O9 Si1 1.639486 1_555
O10 Si2 1.639548 1_555
O11 Si2 1.639486 1_555
O12 Si2 1.639486 1_555
O13 Si0 1.639548 1_555
O14 Si0 1.639486 1_555
O15 Si0 1.639486 1_555
