# generated using pymatgen
data_GePbO3
_symmetry_space_group_name_H-M   'P 1'
_cell_length_a   7.22947028
_cell_length_b   11.45931796
_cell_length_c   13.29401279
_cell_angle_alpha   118.98450495
_cell_angle_beta   89.99999010
_cell_angle_gamma   90.00000050
_symmetry_Int_Tables_number   1
_chemical_formula_structural   GePbO3
_chemical_formula_sum   'Ge12 Pb12 O36'
_cell_volume   963.39786802
_cell_formula_units_Z   12
loop_
 _symmetry_equiv_pos_site_id
 _symmetry_equiv_pos_as_xyz
  1  'x, y, z'
loop_
 _atom_site_type_symbol
 _atom_site_label
 _atom_site_symmetry_multiplicity
 _atom_site_fract_x
 _atom_site_fract_y
 _atom_site_fract_z
 _atom_site_occupancy
  Ge  Ge0  1  0.40540073  0.14310621  0.11524038  1
  Ge  Ge1  1  0.59454270  0.85683847  0.88472919  1
  Ge  Ge2  1  0.40540105  0.85689384  0.38475962  1
  Ge  Ge3  1  0.82870836  0.75095729  0.03860738  1
  Ge  Ge4  1  0.87845132  0.54341904  0.65331656  1
  Ge  Ge5  1  0.17136476  0.75102560  0.53867932  1
  Ge  Ge6  1  0.12156888  0.45660866  0.34669500  1
  Ge  Ge7  1  0.17136439  0.24897443  0.96132065  1
  Ge  Ge8  1  0.59454250  0.14316162  0.61527087  1
  Ge  Ge9  1  0.87845123  0.45658087  0.84668328  1
  Ge  Ge10  1  0.82870815  0.24904262  0.46139258  1
  Ge  Ge11  1  0.12156899  0.54339133  0.15330503  1
  Pb  Pb0  1  0.38356534  0.43384830  0.84709362  1
  Pb  Pb1  1  0.69440898  0.80321571  0.59571641  1
  Pb  Pb2  1  0.30562389  0.19674281  0.40425985  1
  Pb  Pb3  1  0.61641693  0.43381775  0.34705826  1
  Pb  Pb4  1  0.61641725  0.56618216  0.15294160  1
  Pb  Pb5  1  0.94896026  0.12124196  0.17268811  1
  Pb  Pb6  1  0.05093658  0.87883175  0.82737415  1
  Pb  Pb7  1  0.69440861  0.19678433  0.90428351  1
  Pb  Pb8  1  0.38356567  0.56615184  0.65290640  1
  Pb  Pb9  1  0.94896029  0.87875809  0.32731195  1
  Pb  Pb10  1  0.05093670  0.12116815  0.67262563  1
  Pb  Pb11  1  0.30562416  0.80325730  0.09574039  1
  O  O0  1  0.28080268  0.90205741  0.29554846  1
  O  O1  1  0.93465389  0.35045012  0.28664924  1
  O  O2  1  0.28080250  0.09794275  0.20445169  1
  O  O3  1  0.79036663  0.18314095  0.55584001  1
  O  O4  1  0.69859478  0.60694649  0.60685171  1
  O  O5  1  0.69859452  0.39305357  0.89314820  1
  O  O6  1  0.37698779  0.28071549  0.91199021  1
  O  O7  1  0.30135834  0.60704713  0.10690918  1
  O  O8  1  0.58271162  0.25655471  0.16900656  1
  O  O9  1  0.62305545  0.71921895  0.08794009  1
  O  O10  1  0.58271194  0.74344529  0.33099329  1
  O  O11  1  0.96921939  0.86709084  0.14813270  1
  O  O12  1  0.03077154  0.13287831  0.85184590  1
  O  O13  1  0.79036676  0.81685893  0.94415990  1
  O  O14  1  0.96768980  0.39224403  0.53918475  1
  O  O15  1  0.41730883  0.25660833  0.66904064  1
  O  O16  1  0.30135805  0.39295272  0.39309079  1
  O  O17  1  0.37698827  0.71928455  0.58800964  1
  O  O18  1  0.20964947  0.18310084  0.05578907  1
  O  O19  1  0.20964962  0.81689915  0.44421089  1
  O  O20  1  0.76658672  0.50000002  0.74999995  1
  O  O21  1  0.96768990  0.60775584  0.96081507  1
  O  O22  1  0.03077192  0.86712180  0.64815401  1
  O  O23  1  0.93465415  0.64955001  0.21335086  1
  O  O24  1  0.71915104  0.90204617  0.79553561  1
  O  O25  1  0.50000932  0.00002747  0.49998891  1
  O  O26  1  0.23344960  0.49999988  0.24999997  1
  O  O27  1  0.96921916  0.13290908  0.35186727  1
  O  O28  1  0.41730901  0.74339174  0.83095932  1
  O  O29  1  0.06525887  0.35033611  0.78662797  1
  O  O30  1  0.62305511  0.28078095  0.41205986  1
  O  O31  1  0.03244289  0.39224243  0.03912948  1
  O  O32  1  0.03244306  0.60775762  0.46087054  1
  O  O33  1  0.50000953  -0.00002747  0.00001126  1
  O  O34  1  0.06525911  0.64966370  0.71337184  1
  O  O35  1  0.71915101  0.09795392  0.70446442  1
loop_
_geom_bond_atom_site_label_1
_geom_bond_atom_site_label_2
_geom_bond_distance
_geom_bond_site_symmetry_2
Ge0 O8 1.715698 1_555
Ge0 O33 1.752043 1_555
Ge0 O2 1.755177 1_555
Ge0 O18 1.785630 1_555
Ge1 O28 1.715272 1_555
Ge1 O33 1.752128 1_566
Ge1 O24 1.755338 1_555
Ge1 O13 1.785810 1_555
Ge2 O10 1.715698 1_555
Ge2 O25 1.752042 1_565
Ge2 O0 1.755177 1_555
Ge2 O19 1.785631 1_555
Ge3 O9 1.733210 1_555
Ge3 O11 1.745010 1_555
Ge3 O21 1.768391 1_554
Ge3 O13 1.772734 1_554
Ge4 O34 1.732505 1_655
Ge4 O4 1.742990 1_555
Ge4 O14 1.781022 1_555
Ge4 O20 1.781401 1_555
Ge5 O17 1.733024 1_555
Ge5 O22 1.744888 1_555
Ge5 O32 1.768666 1_555
Ge5 O19 1.772677 1_555
Ge6 O1 1.732621 1_455
Ge6 O16 1.742984 1_555
Ge6 O32 1.780781 1_555
Ge6 O26 1.781386 1_555
Ge7 O6 1.733024 1_555
Ge7 O12 1.744888 1_555
Ge7 O31 1.768665 1_556
Ge7 O18 1.772678 1_556
Ge8 O15 1.715272 1_555
Ge8 O25 1.752128 1_555
Ge8 O35 1.755338 1_555
Ge8 O3 1.785811 1_555
Ge9 O29 1.732504 1_655
Ge9 O5 1.742990 1_555
Ge9 O21 1.781022 1_555
Ge9 O20 1.781401 1_555
Ge10 O30 1.733211 1_555
Ge10 O27 1.745009 1_555
Ge10 O14 1.768391 1_555
Ge10 O3 1.772734 1_555
Ge11 O23 1.732621 1_455
Ge11 O7 1.742984 1_555
Ge11 O31 1.780782 1_555
Ge11 O26 1.781387 1_555
O0 Pb11 2.335623 1_555
O0 Pb9 2.472705 1_455
O1 Pb5 2.312642 1_555
O1 Pb3 2.471278 1_555
O2 Pb2 2.335624 1_555
O2 Pb5 2.472704 1_455
O3 Pb10 2.744437 1_655
O4 Pb1 2.324651 1_555
O4 Pb8 2.461249 1_555
O5 Pb7 2.324651 1_555
O5 Pb0 2.461250 1_555
O6 Pb0 2.300675 1_555
O6 Pb7 2.471049 1_555
O7 Pb11 2.324220 1_555
O7 Pb4 2.461598 1_555
O8 Pb3 2.264639 1_555
O9 Pb4 2.300684 1_555
O9 Pb11 2.471389 1_555
O10 Pb4 2.264639 1_555
O11 Pb9 2.324792 1_555
O11 Pb11 2.537950 1_655
O11 Pb5 2.772849 1_565
O12 Pb10 2.325077 1_555
O12 Pb7 2.537870 1_455
O12 Pb6 2.772058 1_545
O13 Pb6 2.744437 1_655
O15 Pb0 2.264576 1_555
O16 Pb2 2.324219 1_555
O16 Pb3 2.461599 1_555
O17 Pb8 2.300676 1_555
O17 Pb1 2.471048 1_555
O18 Pb5 2.745375 1_455
O19 Pb9 2.745375 1_455
O22 Pb6 2.325076 1_555
O22 Pb1 2.537871 1_455
O22 Pb10 2.772056 1_565
O23 Pb9 2.312641 1_555
O23 Pb4 2.471278 1_555
O24 Pb1 2.335690 1_555
O24 Pb6 2.472344 1_655
O27 Pb5 2.324792 1_555
O27 Pb2 2.537951 1_655
O27 Pb9 2.772848 1_545
O28 Pb8 2.264575 1_555
O29 Pb10 2.312327 1_555
O29 Pb0 2.472229 1_555
O30 Pb3 2.300685 1_555
O30 Pb2 2.471389 1_555
O34 Pb6 2.312328 1_555
O34 Pb8 2.472228 1_555
O35 Pb7 2.335688 1_555
O35 Pb10 2.472345 1_655
