# generated using pymatgen
data_K2Zn6O7
_symmetry_space_group_name_H-M   'P 1'
_cell_length_a   10.83888171
_cell_length_b   10.83888171
_cell_length_c   3.32097546
_cell_angle_alpha   90.00000000
_cell_angle_beta   90.00000000
_cell_angle_gamma   90.00000000
_symmetry_Int_Tables_number   1
_chemical_formula_structural   K2Zn6O7
_chemical_formula_sum   'K4 Zn12 O14'
_cell_volume   390.15270269
_cell_formula_units_Z   2
loop_
 _symmetry_equiv_pos_site_id
 _symmetry_equiv_pos_as_xyz
  1  'x, y, z'
loop_
 _atom_site_type_symbol
 _atom_site_label
 _atom_site_symmetry_multiplicity
 _atom_site_fract_x
 _atom_site_fract_y
 _atom_site_fract_z
 _atom_site_occupancy
  K  K0  1  0.35829870  0.35829870  0.50198940  1
  K  K1  1  0.85829870  0.14170130  0.00198940  1
  K  K2  1  0.64170130  0.64170130  0.50198940  1
  K  K3  1  0.14170130  0.85829870  0.00198940  1
  Zn  Zn0  1  0.58772192  0.15177952  0.49990760  1
  Zn  Zn1  1  0.08772192  0.34822048  0.99990760  1
  Zn  Zn2  1  0.87833149  0.87833149  0.50042422  1
  Zn  Zn3  1  0.15177952  0.58772192  0.49990760  1
  Zn  Zn4  1  0.62166851  0.37833149  0.00042422  1
  Zn  Zn5  1  0.91227808  0.65177952  0.99990760  1
  Zn  Zn6  1  0.12166851  0.12166851  0.50042422  1
  Zn  Zn7  1  0.34822048  0.08772192  0.99990760  1
  Zn  Zn8  1  0.37833149  0.62166851  0.00042422  1
  Zn  Zn9  1  0.41227808  0.84822048  0.49990760  1
  Zn  Zn10  1  0.65177952  0.91227808  0.99990760  1
  Zn  Zn11  1  0.84822048  0.41227808  0.49990760  1
  O  O0  1  0.99656074  0.31187293  0.49986721  1
  O  O1  1  0.18812707  0.49656074  0.99986721  1
  O  O2  1  0.31187293  0.99656074  0.49986721  1
  O  O3  1  0.81187293  0.50343926  0.99986721  1
  O  O4  1  0.69312716  0.30687284  0.50077547  1
  O  O5  1  0.50000000  0.50000000  0.00741961  1
  O  O6  1  0.19312716  0.19312716  0.00077547  1
  O  O7  1  0.30687284  0.69312716  0.50077547  1
  O  O8  1  0.80687284  0.80687284  0.00077547  1
  O  O9  1  0.00343926  0.68812707  0.49986721  1
  O  O10  1  0.50343926  0.81187293  0.99986721  1
  O  O11  1  -0.00000000  -0.00000000  0.50741961  1
  O  O12  1  0.68812707  0.00343926  0.49986721  1
  O  O13  1  0.49656074  0.18812707  0.99986721  1
loop_
_geom_bond_atom_site_label_1
_geom_bond_atom_site_label_2
_geom_bond_distance
_geom_bond_site_symmetry_2
K0 O5 2.723148 1_555
K0 O5 2.745052 1_556
K0 O13 2.895126 1_555
K0 O1 2.895126 1_555
K0 O13 2.903199 1_554
K0 O1 2.903199 1_554
K0 O6 3.025560 1_556
K0 O6 3.029982 1_555
K1 O11 2.723148 1_654
K1 O11 2.745052 1_655
K1 O0 2.895126 1_555
K1 O12 2.895126 1_555
K1 O0 2.903199 1_554
K1 O12 2.903199 1_554
K1 O4 3.025560 1_555
K1 O4 3.029982 1_554
K2 O5 2.723148 1_555
K2 O5 2.745052 1_556
K2 O10 2.895126 1_555
K2 O3 2.895126 1_555
K2 O10 2.903199 1_554
K2 O3 2.903199 1_554
K2 O8 3.025560 1_556
K2 O8 3.029982 1_555
K3 O11 2.723148 1_564
K3 O11 2.745052 1_565
K3 O9 2.895126 1_555
K3 O2 2.895126 1_555
K3 O2 2.903199 1_554
K3 O9 2.903199 1_554
K3 O7 3.025560 1_555
K3 O7 3.029982 1_554
O0 Zn11 1.941523 1_555
O0 Zn1 1.971876 1_654
O0 Zn1 1.972102 1_655
O0 Zn6 2.467595 1_655
O1 Zn1 1.941523 1_555
O1 Zn3 1.971876 1_555
O1 Zn3 1.972102 1_556
O1 Zn8 2.467595 1_556
O2 Zn9 1.941523 1_555
O2 Zn7 1.971876 1_564
O2 Zn7 1.972102 1_565
O2 Zn6 2.467595 1_565
O3 Zn5 1.941523 1_555
O3 Zn11 1.971876 1_555
O3 Zn11 1.972102 1_556
O3 Zn4 2.467595 1_556
O4 Zn4 1.988252 1_556
O4 Zn4 1.990199 1_555
O4 Zn0 2.032522 1_555
O4 Zn11 2.032522 1_555
O5 Zn4 1.865140 1_555
O5 Zn8 1.865140 1_555
O6 Zn6 1.988252 1_555
O6 Zn6 1.990199 1_554
O6 Zn1 2.032522 1_554
O6 Zn7 2.032522 1_554
O7 Zn8 1.988252 1_556
O7 Zn8 1.990199 1_555
O7 Zn3 2.032522 1_555
O7 Zn9 2.032522 1_555
O8 Zn2 1.988252 1_555
O8 Zn2 1.990199 1_554
O8 Zn5 2.032522 1_554
O8 Zn10 2.032522 1_554
O9 Zn3 1.941523 1_555
O9 Zn5 1.971876 1_454
O9 Zn5 1.972102 1_455
O9 Zn2 2.467595 1_455
O10 Zn10 1.941523 1_555
O10 Zn9 1.971876 1_555
O10 Zn9 1.972102 1_556
O10 Zn8 2.467595 1_556
O11 Zn6 1.865140 1_555
O11 Zn2 1.865140 1_445
O12 Zn0 1.941523 1_555
O12 Zn10 1.971876 1_544
O12 Zn10 1.972102 1_545
O12 Zn2 2.467595 1_545
O13 Zn7 1.941523 1_555
O13 Zn0 1.971876 1_555
O13 Zn0 1.972102 1_556
O13 Zn4 2.467595 1_556
