# generated using pymatgen
data_SiO2
_symmetry_space_group_name_H-M   'P 1'
_cell_length_a   11.00832644
_cell_length_b   11.00832644
_cell_length_c   11.00832644
_cell_angle_alpha   103.10988266
_cell_angle_beta   103.10988266
_cell_angle_gamma   123.11774608
_symmetry_Int_Tables_number   1
_chemical_formula_structural   SiO2
_chemical_formula_sum   'Si16 O32'
_cell_volume   982.46005514
_cell_formula_units_Z   16
loop_
 _symmetry_equiv_pos_site_id
 _symmetry_equiv_pos_as_xyz
  1  'x, y, z'
loop_
 _atom_site_type_symbol
 _atom_site_label
 _atom_site_symmetry_multiplicity
 _atom_site_fract_x
 _atom_site_fract_y
 _atom_site_fract_z
 _atom_site_occupancy
  Si  Si0  1  0.75000000  0.39605500  0.64605500  1
  Si  Si1  1  0.04743200  0.54743200  0.88011000  1
  Si  Si2  1  0.66732200  0.16732200  0.11989000  1
  Si  Si3  1  0.75000000  0.10394500  0.35394500  1
  Si  Si4  1  0.45256800  0.33267800  0.50000000  1
  Si  Si5  1  0.60394500  0.25000000  0.35394500  1
  Si  Si6  1  0.25000000  0.60394500  0.35394500  1
  Si  Si7  1  0.39605500  0.75000000  0.64605500  1
  Si  Si8  1  0.95256800  0.45256800  0.11989000  1
  Si  Si9  1  0.16732200  0.04743200  0.50000000  1
  Si  Si10  1  0.25000000  0.89605500  0.64605500  1
  Si  Si11  1  0.83267800  0.95256800  0.50000000  1
  Si  Si12  1  0.10394500  0.75000000  0.35394500  1
  Si  Si13  1  0.89605500  0.25000000  0.64605500  1
  Si  Si14  1  0.54743200  0.66732200  0.50000000  1
  Si  Si15  1  0.33267800  0.83267800  0.88011000  1
  O  O0  1  0.76930600  0.12973000  0.21705700  1
  O  O1  1  0.41267300  0.62973000  0.36042400  1
  O  O2  1  0.62973000  0.26930600  0.21705700  1
  O  O3  1  0.25718600  0.75718600  0.34994400  1
  O  O4  1  0.40724200  0.90724200  0.65005600  1
  O  O5  1  0.58732700  0.37027000  0.63957600  1
  O  O6  1  0.59275800  0.09275800  0.34994400  1
  O  O7  1  0.90724200  0.25718600  0.50000000  1
  O  O8  1  0.55224900  0.76930600  0.63957600  1
  O  O9  1  0.12973000  0.91267300  0.36042400  1
  O  O10  1  0.08732700  0.44775100  0.21705700  1
  O  O11  1  0.37027000  0.73069400  0.78294300  1
  O  O12  1  0.74281400  0.24281400  0.65005600  1
  O  O13  1  0.27642600  0.22357400  0.50000000  1
  O  O14  1  0.91267300  0.55224900  0.78294300  1
  O  O15  1  0.23069400  0.87027000  0.78294300  1
  O  O16  1  0.50000000  0.00000000  0.00000000  1
  O  O17  1  0.44775100  0.23069400  0.36042400  1
  O  O18  1  0.87027000  0.08732700  0.63957600  1
  O  O19  1  0.77642600  0.27642600  0.05285300  1
  O  O20  1  0.50000000  0.50000000  0.50000000  1
  O  O21  1  0.09275800  0.74281400  0.50000000  1
  O  O22  1  0.75718600  0.40724200  0.50000000  1
  O  O23  1  0.26930600  0.05224900  0.63957600  1
  O  O24  1  0.22357400  0.72357400  0.94714700  1
  O  O25  1  0.24281400  0.59275800  0.50000000  1
  O  O26  1  0.94775100  0.58732700  0.21705700  1
  O  O27  1  0.05224900  0.41267300  0.78294300  1
  O  O28  1  0.73069400  0.94775100  0.36042400  1
  O  O29  1  0.72357400  0.77642600  0.50000000  1
  O  O30  1  0.00000000  0.50000000  0.00000000  1
  O  O31  1  0.00000000  0.00000000  0.50000000  1
loop_
_geom_bond_atom_site_label_1
_geom_bond_atom_site_label_2
_geom_bond_distance
_geom_bond_site_symmetry_2
O0 Si3 1.633986 1_555
O0 Si2 1.655144 1_555
O1 Si6 1.633986 1_555
O1 Si14 1.655144 1_555
O2 Si5 1.633986 1_555
O2 Si2 1.655144 1_555
O3 Si12 1.656317 1_555
O3 Si6 1.656317 1_555
O4 Si7 1.656317 1_555
O4 Si10 1.656317 1_555
O5 Si0 1.633986 1_555
O5 Si4 1.655144 1_555
O6 Si3 1.656317 1_555
O6 Si5 1.656317 1_555
O7 Si3 1.656317 1_555
O7 Si13 1.656317 1_555
O8 Si7 1.633986 1_555
O8 Si14 1.655144 1_555
O9 Si12 1.633986 1_555
O9 Si9 1.655144 1_565
O10 Si6 1.633986 1_555
O10 Si8 1.655144 1_455
O11 Si7 1.633986 1_555
O11 Si15 1.655144 1_555
O12 Si0 1.656317 1_555
O12 Si13 1.656317 1_555
O13 Si9 1.630198 1_555
O13 Si4 1.630198 1_555
O14 Si0 1.633986 1_555
O14 Si1 1.655144 1_655
O15 Si10 1.633986 1_555
O15 Si15 1.655144 1_555
O16 Si2 1.616918 1_555
O16 Si15 1.616918 1_544
O17 Si5 1.633986 1_555
O17 Si4 1.655144 1_555
O18 Si13 1.633986 1_555
O18 Si11 1.655144 1_545
O19 Si2 1.630189 1_555
O19 Si8 1.630199 1_555
O20 Si14 1.616918 1_555
O20 Si4 1.616918 1_555
O21 Si12 1.656317 1_555
O21 Si10 1.656317 1_555
O22 Si5 1.656317 1_555
O22 Si0 1.656317 1_555
O23 Si10 1.633986 1_545
O23 Si9 1.655144 1_555
O24 Si15 1.630189 1_555
O24 Si1 1.630199 1_555
O25 Si6 1.656317 1_555
O25 Si7 1.656317 1_555
O26 Si12 1.633986 1_655
O26 Si8 1.655144 1_555
O27 Si13 1.633986 1_455
O27 Si1 1.655144 1_555
O28 Si3 1.633986 1_565
O28 Si11 1.655144 1_555
O29 Si14 1.630198 1_555
O29 Si11 1.630198 1_555
O30 Si8 1.616918 1_455
O30 Si1 1.616918 1_554
O31 Si11 1.616918 1_445
O31 Si9 1.616918 1_555
