# generated using pymatgen
data_Na5Zr2MnF15
_symmetry_space_group_name_H-M   'P 1'
_cell_length_a   11.43924619
_cell_length_b   11.43924619
_cell_length_c   7.60409800
_cell_angle_alpha   90.00000000
_cell_angle_beta   90.00000000
_cell_angle_gamma   140.10638912
_symmetry_Int_Tables_number   1
_chemical_formula_structural   Na5Zr2MnF15
_chemical_formula_sum   'Na10 Zr4 Mn2 F30'
_cell_volume   638.18582309
_cell_formula_units_Z   2
loop_
 _symmetry_equiv_pos_site_id
 _symmetry_equiv_pos_as_xyz
  1  'x, y, z'
loop_
 _atom_site_type_symbol
 _atom_site_label
 _atom_site_symmetry_multiplicity
 _atom_site_fract_x
 _atom_site_fract_y
 _atom_site_fract_z
 _atom_site_occupancy
  Na  Na0  1  0.24151700  0.75848300  0.00000000  1
  Na  Na1  1  0.24151700  0.75848300  0.50000000  1
  Na  Na2  1  0.75848300  0.24151700  0.00000000  1
  Na  Na3  1  0.75848300  0.24151700  0.50000000  1
  Na  Na4  1  0.63138600  0.87761000  0.25000000  1
  Na  Na5  1  0.12239000  0.36861400  0.75000000  1
  Na  Na6  1  0.36861400  0.12239000  0.75000000  1
  Na  Na7  1  0.87761000  0.63138600  0.25000000  1
  Na  Na8  1  0.50000000  0.50000000  0.00000000  1
  Na  Na9  1  0.50000000  0.50000000  0.50000000  1
  Zr  Zr0  1  0.41376400  0.14325700  0.25000000  1
  Zr  Zr1  1  0.85674300  0.58623600  0.75000000  1
  Zr  Zr2  1  0.58623600  0.85674300  0.75000000  1
  Zr  Zr3  1  0.14325700  0.41376400  0.25000000  1
  Mn  Mn0  1  0.00000000  0.00000000  0.00000000  1
  Mn  Mn1  1  0.00000000  0.00000000  0.50000000  1
  F  F0  1  0.31781300  0.70664100  0.75000000  1
  F  F1  1  0.29335900  0.68218700  0.25000000  1
  F  F2  1  0.68218700  0.29335900  0.25000000  1
  F  F3  1  0.70664100  0.31781300  0.75000000  1
  F  F4  1  0.44353300  0.07730200  0.48573800  1
  F  F5  1  0.92269800  0.55646700  0.51426200  1
  F  F6  1  0.44353300  0.07730200  0.01426200  1
  F  F7  1  0.92269800  0.55646700  0.98573800  1
  F  F8  1  0.55646700  0.92269800  0.51426200  1
  F  F9  1  0.07730200  0.44353300  0.48573800  1
  F  F10  1  0.55646700  0.92269800  0.98573800  1
  F  F11  1  0.07730200  0.44353300  0.01426200  1
  F  F12  1  0.58226800  0.43645300  0.75000000  1
  F  F13  1  0.56354700  0.41773200  0.25000000  1
  F  F14  1  0.41773200  0.56354700  0.25000000  1
  F  F15  1  0.43645300  0.58226800  0.75000000  1
  F  F16  1  0.81387900  0.13930900  0.75000000  1
  F  F17  1  0.86069100  0.18612100  0.25000000  1
  F  F18  1  0.18612100  0.86069100  0.25000000  1
  F  F19  1  0.13930900  0.81387900  0.75000000  1
  F  F20  1  0.11048100  0.11048100  0.75000000  1
  F  F21  1  0.88951900  0.88951900  0.25000000  1
  F  F22  1  0.73342500  0.86574500  0.93511200  1
  F  F23  1  0.13425500  0.26657500  0.06488800  1
  F  F24  1  0.73342500  0.86574500  0.56488800  1
  F  F25  1  0.13425500  0.26657500  0.43511200  1
  F  F26  1  0.26657500  0.13425500  0.06488800  1
  F  F27  1  0.86574500  0.73342500  0.93511200  1
  F  F28  1  0.26657500  0.13425500  0.43511200  1
  F  F29  1  0.86574500  0.73342500  0.56488800  1
loop_
_geom_bond_atom_site_label_1
_geom_bond_atom_site_label_2
_geom_bond_distance
_geom_bond_site_symmetry_2
F0 Zr2 2.070355 1_555
F0 Na1 2.349792 1_555
F0 Na0 2.349792 1_556
F0 Na5 2.585568 1_555
F1 Zr3 2.070355 1_555
F1 Na0 2.349792 1_555
F1 Na1 2.349792 1_555
F1 Na4 2.585568 1_555
F2 Zr0 2.070355 1_555
F2 Na2 2.349792 1_555
F2 Na3 2.349792 1_555
F2 Na7 2.585568 1_555
F3 Zr1 2.070355 1_555
F3 Na2 2.349792 1_556
F3 Na3 2.349792 1_555
F3 Na6 2.585568 1_555
F4 Zr0 2.071899 1_555
F4 Na6 2.390975 1_555
F4 Na1 2.391754 1_545
F4 Na3 2.477006 1_555
F5 Zr1 2.071899 1_555
F5 Na7 2.390975 1_555
F5 Na1 2.391754 1_655
F5 Na3 2.477006 1_555
F6 Zr0 2.071899 1_555
F6 Na6 2.390975 1_554
F6 Na0 2.391754 1_545
F6 Na2 2.477006 1_555
F7 Zr1 2.071899 1_555
F7 Na7 2.390975 1_556
F7 Na0 2.391754 1_656
F7 Na2 2.477006 1_556
F8 Zr2 2.071899 1_555
F8 Na4 2.390975 1_555
F8 Na3 2.391754 1_565
F8 Na1 2.477006 1_555
F9 Zr3 2.071899 1_555
F9 Na5 2.390975 1_555
F9 Na3 2.391754 1_455
F9 Na1 2.477006 1_555
F10 Zr2 2.071899 1_555
F10 Na4 2.390975 1_556
F10 Na2 2.391754 1_566
F10 Na0 2.477006 1_556
F11 Zr3 2.071899 1_555
F11 Na5 2.390975 1_554
F11 Na2 2.391754 1_455
F11 Na0 2.477006 1_555
F12 Zr1 2.130486 1_555
F12 Na6 2.325269 1_555
F12 Na8 2.465298 1_556
F12 Na9 2.465298 1_555
F13 Zr0 2.130486 1_555
F13 Na7 2.325269 1_555
F13 Na8 2.465298 1_555
F13 Na9 2.465298 1_555
F14 Zr3 2.130486 1_555
F14 Na4 2.325269 1_555
F14 Na8 2.465298 1_555
F14 Na9 2.465298 1_555
F15 Zr2 2.130486 1_555
F15 Na5 2.325269 1_555
F15 Na8 2.465298 1_556
F15 Na9 2.465298 1_555
F16 Zr2 2.076819 1_545
F16 Na5 2.265040 1_655
F16 Na2 2.553298 1_556
F16 Na3 2.553298 1_555
F17 Zr3 2.076819 1_655
F17 Na4 2.265040 1_545
F17 Na2 2.553298 1_555
F17 Na3 2.553298 1_555
F18 Zr0 2.076819 1_565
F18 Na7 2.265040 1_455
F18 Na0 2.553298 1_555
F18 Na1 2.553298 1_555
F19 Zr1 2.076819 1_455
F19 Na6 2.265040 1_565
F19 Na0 2.553298 1_556
F19 Na1 2.553298 1_555
F20 Mn0 2.087451 1_556
F20 Mn1 2.087451 1_555
F20 Na5 2.849666 1_555
F20 Na6 2.849666 1_555
F21 Mn0 2.087451 1_665
F21 Mn1 2.087451 1_665
F21 Na7 2.849666 1_555
F21 Na4 2.849666 1_555
F22 Zr2 2.135619 1_555
F22 Mn0 2.171343 1_666
F22 Na4 2.712440 1_556
F22 Na8 2.781242 1_556
F23 Zr3 2.135619 1_555
F23 Mn0 2.171343 1_555
F23 Na5 2.712440 1_554
F23 Na8 2.781242 1_555
F24 Zr2 2.135619 1_555
F24 Mn1 2.171343 1_665
F24 Na4 2.712440 1_555
F24 Na9 2.781242 1_555
F25 Zr3 2.135619 1_555
F25 Mn1 2.171343 1_555
F25 Na5 2.712440 1_555
F25 Na9 2.781242 1_555
F26 Zr0 2.135619 1_555
F26 Mn0 2.171343 1_555
F26 Na6 2.712440 1_554
F26 Na8 2.781242 1_555
F27 Zr1 2.135619 1_555
F27 Mn0 2.171343 1_666
F27 Na7 2.712440 1_556
F27 Na8 2.781242 1_556
F28 Zr0 2.135619 1_555
F28 Mn1 2.171343 1_555
F28 Na6 2.712440 1_555
F28 Na9 2.781242 1_555
F29 Zr1 2.135619 1_555
F29 Mn1 2.171343 1_665
F29 Na7 2.712440 1_555
F29 Na9 2.781242 1_555
