# generated using pymatgen
data_Ce3(Si4Ni)2
_symmetry_space_group_name_H-M   'P 1'
_cell_length_a   13.16820142
_cell_length_b   13.16820142
_cell_length_c   4.19367900
_cell_angle_alpha   90.00000000
_cell_angle_beta   90.00000000
_cell_angle_gamma   162.11730865
_symmetry_Int_Tables_number   1
_chemical_formula_structural   Ce3(Si4Ni)2
_chemical_formula_sum   'Ce3 Si8 Ni2'
_cell_volume   223.29771067
_cell_formula_units_Z   1
loop_
 _symmetry_equiv_pos_site_id
 _symmetry_equiv_pos_as_xyz
  1  'x, y, z'
loop_
 _atom_site_type_symbol
 _atom_site_label
 _atom_site_symmetry_multiplicity
 _atom_site_fract_x
 _atom_site_fract_y
 _atom_site_fract_z
 _atom_site_occupancy
  Ce  Ce0  1  0.00000000  0.00000000  0.00000000  1
  Ce  Ce1  1  0.68790000  0.31210000  0.50000000  1
  Ce  Ce2  1  0.31210000  0.68790000  0.50000000  1
  Si  Si0  1  0.59524400  0.40475600  0.00000000  1
  Si  Si1  1  0.40475600  0.59524400  0.00000000  1
  Si  Si2  1  0.77567400  0.22432600  0.00000000  1
  Si  Si3  1  0.22432600  0.77567400  0.00000000  1
  Si  Si4  1  0.90286200  0.09713800  0.50000000  1
  Si  Si5  1  0.09713800  0.90286200  0.50000000  1
  Si  Si6  1  0.54526500  0.45473500  0.50000000  1
  Si  Si7  1  0.45473500  0.54526500  0.50000000  1
  Ni  Ni0  1  0.86600500  0.13399500  0.00000000  1
  Ni  Ni1  1  0.13399500  0.86600500  0.00000000  1
loop_
_geom_bond_atom_site_label_1
_geom_bond_atom_site_label_2
_geom_bond_distance
_geom_bond_site_symmetry_2
Ce0 Si7 3.157896 1_445
Ce0 Si7 3.157896 1_555
Ce0 Si6 3.157896 1_554
Ce0 Si6 3.157896 1_444
Ce0 Si7 3.157896 1_554
Ce0 Si6 3.157896 1_445
Ce0 Si6 3.157896 1_555
Ce0 Si7 3.157896 1_444
Ce0 Si0 3.213838 1_555
Ce0 Si0 3.213838 1_445
Ce0 Si1 3.213838 1_555
Ce0 Si1 3.213838 1_445
Ce0 Si4 3.283803 1_455
Ce0 Si4 3.283803 1_454
Ce0 Si5 3.283803 1_544
Ce0 Si5 3.283803 1_545
Ce1 Si3 3.079541 1_656
Ce1 Si3 3.079541 1_655
Ce1 Si3 3.079541 1_545
Ce1 Si3 3.079541 1_546
Ce1 Si2 3.100223 1_556
Ce1 Si2 3.100223 1_555
Ce1 Si5 3.124817 1_655
Ce1 Si5 3.124817 1_545
Ce1 Si0 3.194932 1_555
Ce1 Si0 3.194932 1_556
Ce1 Ni1 3.248423 1_655
Ce1 Ni1 3.248423 1_656
Ce1 Ni1 3.248423 1_546
Ce1 Ni1 3.248423 1_545
Ce2 Si2 3.079541 1_566
Ce2 Si2 3.079541 1_565
Ce2 Si2 3.079541 1_456
Ce2 Si2 3.079541 1_455
Ce2 Si3 3.100223 1_555
Ce2 Si3 3.100223 1_556
Ce2 Si4 3.124817 1_565
Ce2 Si4 3.124817 1_455
Ce2 Si1 3.194932 1_556
Ce2 Si1 3.194932 1_555
Ce2 Ni0 3.248423 1_565
Ce2 Ni0 3.248423 1_566
Ce2 Ni0 3.248423 1_456
Ce2 Ni0 3.248423 1_455
Si0 Si6 2.467274 1_554
Si0 Si6 2.467274 1_555
Si1 Si7 2.467274 1_554
Si1 Si7 2.467274 1_555
Si2 Si3 2.444044 1_655
Si2 Si3 2.444044 1_545
Si4 Si7 2.451537 1_545
Si4 Si7 2.451537 1_655
Si5 Si6 2.451537 1_455
Si5 Si6 2.451537 1_565
Si6 Si7 2.355261 1_555
Ni0 Si1 2.281478 1_545
Ni0 Si1 2.281478 1_655
Ni0 Si4 2.305688 1_554
Ni0 Si4 2.305688 1_555
Ni0 Si2 2.350084 1_555
Ni1 Si0 2.281478 1_455
Ni1 Si0 2.281478 1_565
Ni1 Si5 2.305688 1_555
Ni1 Si5 2.305688 1_554
Ni1 Si3 2.350084 1_555
