# generated using pymatgen
data_Ba8Nb7S24
_symmetry_space_group_name_H-M   'P 1'
_cell_length_a   11.97098800
_cell_length_b   9.03978000
_cell_length_c   18.75561700
_cell_angle_alpha   71.50048838
_cell_angle_beta   90.00000000
_cell_angle_gamma   90.00000000
_symmetry_Int_Tables_number   1
_chemical_formula_structural   Ba8Nb7S24
_chemical_formula_sum   'Ba16 Nb14 S48'
_cell_volume   1924.76199523
_cell_formula_units_Z   2
loop_
 _symmetry_equiv_pos_site_id
 _symmetry_equiv_pos_as_xyz
  1  'x, y, z'
loop_
 _atom_site_type_symbol
 _atom_site_label
 _atom_site_symmetry_multiplicity
 _atom_site_fract_x
 _atom_site_fract_y
 _atom_site_fract_z
 _atom_site_occupancy
  Ba  Ba0  1  0.16425000  0.69299300  0.68522600  1
  Ba  Ba1  1  0.33170800  0.18346600  0.68911700  1
  Ba  Ba2  1  0.66425000  0.30700700  0.81477400  1
  Ba  Ba3  1  0.17271200  0.93952400  0.93749200  1
  Ba  Ba4  1  0.83170800  0.81653400  0.81088300  1
  Ba  Ba5  1  0.33849600  0.43474400  0.93816200  1
  Ba  Ba6  1  0.66150400  0.56525600  0.06183800  1
  Ba  Ba7  1  0.16829200  0.18346600  0.18911700  1
  Ba  Ba8  1  0.82728800  0.06047600  0.06250800  1
  Ba  Ba9  1  0.66829200  0.81653400  0.31088300  1
  Ba  Ba10  1  0.33575000  0.69299300  0.18522600  1
  Ba  Ba11  1  0.83575000  0.30700700  0.31477400  1
  Ba  Ba12  1  0.16150400  0.43474400  0.43816200  1
  Ba  Ba13  1  0.32728800  0.93952400  0.43749200  1
  Ba  Ba14  1  0.67271200  0.06047600  0.56250800  1
  Ba  Ba15  1  0.83849600  0.56525600  0.56183800  1
  Nb  Nb0  1  0.00000600  0.10953100  0.61030100  1
  Nb  Nb1  1  0.49999400  0.75234100  0.75284400  1
  Nb  Nb2  1  0.99999400  0.24765900  0.74715600  1
  Nb  Nb3  1  0.00023400  0.37593100  0.87537900  1
  Nb  Nb4  1  0.50000600  0.89046900  0.88969900  1
  Nb  Nb5  1  0.00000000  0.50000000  0.00000000  1
  Nb  Nb6  1  0.99976600  0.62406900  0.12462100  1
  Nb  Nb7  1  0.50000600  0.24765900  0.24715600  1
  Nb  Nb8  1  0.49999400  0.10953100  0.11030100  1
  Nb  Nb9  1  0.99999400  0.89046900  0.38969900  1
  Nb  Nb10  1  0.00000600  0.75234100  0.25284400  1
  Nb  Nb11  1  0.49976600  0.37593100  0.37537900  1
  Nb  Nb12  1  0.50000000  0.50000000  0.50000000  1
  Nb  Nb13  1  0.50023400  0.62406900  0.62462100  1
  S  S0  1  0.91333600  0.87167400  0.63079500  1
  S  S1  1  0.66925100  0.68396600  0.68616300  1
  S  S2  1  0.91413400  0.50321000  0.75079900  1
  S  S3  1  0.58581600  0.37002500  0.62568600  1
  S  S4  1  0.41413400  0.49679000  0.74920100  1
  S  S5  1  0.83268400  0.18934100  0.68908800  1
  S  S6  1  0.16925100  0.31603400  0.81383700  1
  S  S7  1  0.41333600  0.12832600  0.86920500  1
  S  S8  1  0.58345600  0.99932000  0.74797600  1
  S  S9  1  0.08345600  0.00068000  0.75202400  1
  S  S10  1  0.91633300  0.12380200  0.87837500  1
  S  S11  1  0.33268400  0.81065900  0.81091200  1
  S  S12  1  0.67291200  0.93369900  0.93371900  1
  S  S13  1  0.08581600  0.62997500  0.87431400  1
  S  S14  1  0.91596300  0.75341300  0.99791400  1
  S  S15  1  0.58395600  0.62325800  0.87336500  1
  S  S16  1  0.41335400  0.73835400  0.99843000  1
  S  S17  1  0.17027600  0.56009900  0.06240900  1
  S  S18  1  0.82972400  0.43990100  0.93759100  1
  S  S19  1  0.41604400  0.37674200  0.12663500  1
  S  S20  1  0.58664600  0.26164600  0.00157000  1
  S  S21  1  0.08403700  0.24658700  0.00208600  1
  S  S22  1  0.91418400  0.37002500  0.12568600  1
  S  S23  1  0.32708800  0.06630100  0.06628100  1
  S  S24  1  0.66731600  0.18934100  0.18908800  1
  S  S25  1  0.91654400  0.99932000  0.24797600  1
  S  S26  1  0.08366700  0.87619800  0.12162500  1
  S  S27  1  0.41654400  0.00068000  0.25202400  1
  S  S28  1  0.58666400  0.87167400  0.13079500  1
  S  S29  1  0.16731600  0.81065900  0.31091200  1
  S  S30  1  0.83074900  0.68396600  0.18616300  1
  S  S31  1  0.41418400  0.62997500  0.37431400  1
  S  S32  1  0.58586600  0.50321000  0.25079900  1
  S  S33  1  0.08586600  0.49679000  0.24920100  1
  S  S34  1  0.91604400  0.62325800  0.37336500  1
  S  S35  1  0.67027600  0.43990100  0.43759100  1
  S  S36  1  0.33074900  0.31603400  0.31383700  1
  S  S37  1  0.08666400  0.12832600  0.36920500  1
  S  S38  1  0.91335400  0.26164600  0.50157000  1
  S  S39  1  0.41596300  0.24658700  0.50208600  1
  S  S40  1  0.58366700  0.12380200  0.37837500  1
  S  S41  1  0.17291200  0.06630100  0.56628100  1
  S  S42  1  0.82708800  0.93369900  0.43371900  1
  S  S43  1  0.41633300  0.87619800  0.62162500  1
  S  S44  1  0.58403700  0.75341300  0.49791400  1
  S  S45  1  0.08664600  0.73835400  0.49843000  1
  S  S46  1  0.32972400  0.56009900  0.56240900  1
  S  S47  1  0.08395600  0.37674200  0.62663500  1
loop_
_geom_bond_atom_site_label_1
_geom_bond_atom_site_label_2
_geom_bond_distance
_geom_bond_site_symmetry_2
Ba0 S41 3.405615 1_565
Ba0 S0 3.409827 1_455
Ba0 S43 3.466765 1_555
Ba0 S2 3.475877 1_455
Ba0 S4 3.490446 1_555
Ba0 S6 3.495408 1_555
Ba0 S47 3.506867 1_555
Ba0 S11 3.513559 1_555
Ba0 S45 3.520489 1_555
Ba0 S46 3.525530 1_555
Ba0 S9 3.528840 1_565
Ba0 S13 3.535737 1_555
Ba1 S7 3.397573 1_555
Ba1 S41 3.404653 1_555
Ba1 S11 3.419137 1_545
Ba1 S9 3.422992 1_555
Ba1 S8 3.450472 1_545
Ba1 S47 3.452940 1_555
Ba1 S46 3.479295 1_555
Ba1 S3 3.498508 1_555
Ba1 S4 3.505916 1_555
Ba1 S39 3.518227 1_555
Ba1 S6 3.531155 1_555
Ba1 S43 3.546151 1_545
Ba2 S12 3.405615 1_545
Ba2 S7 3.409827 1_555
Ba2 S10 3.466765 1_555
Ba2 S4 3.475877 1_555
Ba2 S2 3.490446 1_555
Ba2 S1 3.495408 1_555
Ba2 S15 3.506867 1_555
Ba2 S5 3.513559 1_555
Ba2 S20 3.520489 1_556
Ba2 S18 3.525530 1_555
Ba2 S8 3.528840 1_545
Ba2 S3 3.535737 1_555
Ba3 S7 3.385769 1_565
Ba3 S16 3.404840 1_555
Ba3 S6 3.457679 1_565
Ba3 S26 3.483711 1_556
Ba3 S17 3.486373 1_556
Ba3 S10 3.500243 1_465
Ba3 S23 3.509996 1_566
Ba3 S9 3.511031 1_565
Ba3 S14 3.514467 1_455
Ba3 S11 3.523584 1_555
Ba3 S13 3.524282 1_555
Ba3 S21 3.526129 1_566
Ba4 S0 3.397573 1_555
Ba4 S12 3.404653 1_555
Ba4 S5 3.419137 1_565
Ba4 S8 3.422992 1_555
Ba4 S9 3.450472 1_665
Ba4 S15 3.452940 1_555
Ba4 S18 3.479295 1_555
Ba4 S13 3.498508 1_655
Ba4 S2 3.505916 1_555
Ba4 S14 3.518227 1_555
Ba4 S1 3.531155 1_555
Ba4 S10 3.546151 1_565
Ba5 S20 3.392105 1_556
Ba5 S16 3.403255 1_555
Ba5 S15 3.420663 1_555
Ba5 S23 3.436150 1_556
Ba5 S11 3.478778 1_555
Ba5 S6 3.504504 1_555
Ba5 S21 3.509313 1_556
Ba5 S13 3.515272 1_555
Ba5 S7 3.524400 1_555
Ba5 S4 3.526117 1_555
Ba5 S17 3.527821 1_556
Ba5 S19 3.529339 1_556
Ba6 S16 3.392105 1_554
Ba6 S20 3.403255 1_555
Ba6 S19 3.420663 1_555
Ba6 S12 3.436150 1_554
Ba6 S24 3.478778 1_555
Ba6 S30 3.504504 1_555
Ba6 S14 3.509313 1_554
Ba6 S22 3.515272 1_555
Ba6 S28 3.524400 1_555
Ba6 S32 3.526117 1_555
Ba6 S18 3.527821 1_554
Ba6 S15 3.529339 1_554
Ba7 S37 3.397573 1_555
Ba7 S23 3.404653 1_555
Ba7 S29 3.419137 1_545
Ba7 S27 3.422992 1_555
Ba7 S25 3.450472 1_445
Ba7 S19 3.452940 1_555
Ba7 S17 3.479295 1_555
Ba7 S22 3.498508 1_455
Ba7 S33 3.505916 1_555
Ba7 S21 3.518227 1_555
Ba7 S36 3.531155 1_555
Ba7 S26 3.546151 1_545
Ba8 S28 3.385769 1_545
Ba8 S20 3.404840 1_555
Ba8 S30 3.457679 1_545
Ba8 S10 3.483711 1_554
Ba8 S18 3.486373 1_554
Ba8 S26 3.500243 1_645
Ba8 S12 3.509996 1_544
Ba8 S25 3.511031 1_545
Ba8 S21 3.514467 1_655
Ba8 S24 3.523584 1_555
Ba8 S22 3.524282 1_555
Ba8 S14 3.526129 1_544
Ba9 S28 3.397573 1_555
Ba9 S42 3.404653 1_555
Ba9 S24 3.419137 1_565
Ba9 S25 3.422992 1_555
Ba9 S27 3.450472 1_565
Ba9 S34 3.452940 1_555
Ba9 S35 3.479295 1_555
Ba9 S31 3.498508 1_555
Ba9 S32 3.505916 1_555
Ba9 S44 3.518227 1_555
Ba9 S30 3.531155 1_555
Ba9 S40 3.546151 1_565
Ba10 S23 3.405615 1_565
Ba10 S28 3.409827 1_555
Ba10 S26 3.466765 1_555
Ba10 S32 3.475877 1_555
Ba10 S33 3.490446 1_555
Ba10 S36 3.495408 1_555
Ba10 S19 3.506867 1_555
Ba10 S29 3.513559 1_555
Ba10 S16 3.520489 1_554
Ba10 S17 3.525530 1_555
Ba10 S27 3.528840 1_565
Ba10 S31 3.535737 1_555
Ba11 S42 3.405615 1_545
Ba11 S37 3.409827 1_655
Ba11 S40 3.466765 1_555
Ba11 S33 3.475877 1_655
Ba11 S32 3.490446 1_555
Ba11 S30 3.495408 1_555
Ba11 S34 3.506867 1_555
Ba11 S24 3.513559 1_555
Ba11 S38 3.520489 1_555
Ba11 S35 3.525530 1_555
Ba11 S25 3.528840 1_545
Ba11 S22 3.535737 1_555
Ba12 S38 3.392105 1_455
Ba12 S45 3.403255 1_555
Ba12 S34 3.420663 1_455
Ba12 S41 3.436150 1_555
Ba12 S29 3.478778 1_555
Ba12 S36 3.504504 1_555
Ba12 S39 3.509313 1_555
Ba12 S31 3.515272 1_555
Ba12 S37 3.524400 1_555
Ba12 S33 3.526117 1_555
Ba12 S46 3.527821 1_555
Ba12 S47 3.529339 1_555
Ba13 S37 3.385769 1_565
Ba13 S45 3.404840 1_555
Ba13 S36 3.457679 1_565
Ba13 S43 3.483711 1_555
Ba13 S46 3.486373 1_555
Ba13 S40 3.500243 1_565
Ba13 S41 3.509996 1_565
Ba13 S27 3.511031 1_565
Ba13 S44 3.514467 1_555
Ba13 S29 3.523584 1_555
Ba13 S31 3.524282 1_555
Ba13 S39 3.526129 1_565
Ba14 S0 3.385769 1_545
Ba14 S38 3.404840 1_555
Ba14 S1 3.457679 1_545
Ba14 S40 3.483711 1_555
Ba14 S35 3.486373 1_555
Ba14 S43 3.500243 1_545
Ba14 S42 3.509996 1_545
Ba14 S8 3.511031 1_545
Ba14 S39 3.514467 1_555
Ba14 S5 3.523584 1_555
Ba14 S3 3.524282 1_555
Ba14 S44 3.526129 1_545
Ba15 S45 3.392105 1_655
Ba15 S38 3.403255 1_555
Ba15 S47 3.420663 1_655
Ba15 S42 3.436150 1_555
Ba15 S5 3.478778 1_555
Ba15 S1 3.504504 1_555
Ba15 S44 3.509313 1_555
Ba15 S3 3.515272 1_555
Ba15 S0 3.524400 1_555
Ba15 S2 3.526117 1_555
Ba15 S35 3.527821 1_555
Ba15 S34 3.529339 1_555
Nb0 S0 2.307158 1_445
Nb0 S41 2.307254 1_555
Nb0 S38 2.312172 1_455
Nb0 S9 2.715123 1_555
Nb0 S5 2.718952 1_455
Nb0 S47 2.721799 1_555
Nb1 S15 2.409901 1_555
Nb1 S11 2.416586 1_555
Nb1 S8 2.421133 1_555
Nb1 S4 2.549107 1_555
Nb1 S1 2.557749 1_555
Nb1 S43 2.562214 1_555
Nb2 S47 2.409901 1_655
Nb2 S5 2.416586 1_555
Nb2 S9 2.421133 1_655
Nb2 S2 2.549107 1_555
Nb2 S6 2.557749 1_655
Nb2 S10 2.562214 1_555
Nb3 S6 2.473022 1_555
Nb3 S10 2.474948 1_455
Nb3 S2 2.477843 1_455
Nb3 S21 2.501564 1_556
Nb3 S18 2.508078 1_455
Nb3 S13 2.508946 1_555
Nb4 S7 2.307158 1_565
Nb4 S12 2.307254 1_555
Nb4 S16 2.312172 1_555
Nb4 S8 2.715123 1_555
Nb4 S11 2.718952 1_555
Nb4 S15 2.721799 1_555
Nb5 S21 2.490875 1_555
Nb5 S14 2.490875 1_454
Nb5 S18 2.494751 1_454
Nb5 S17 2.494751 1_555
Nb5 S13 2.497029 1_554
Nb5 S22 2.497029 1_455
Nb6 S30 2.473022 1_555
Nb6 S26 2.474948 1_655
Nb6 S33 2.477843 1_655
Nb6 S14 2.501564 1_554
Nb6 S17 2.508078 1_655
Nb6 S22 2.508946 1_555
Nb7 S19 2.409901 1_555
Nb7 S24 2.416586 1_555
Nb7 S27 2.421133 1_555
Nb7 S32 2.549107 1_555
Nb7 S36 2.557749 1_555
Nb7 S40 2.562214 1_555
Nb8 S28 2.307158 1_545
Nb8 S23 2.307254 1_555
Nb8 S20 2.312172 1_555
Nb8 S27 2.715123 1_555
Nb8 S24 2.718952 1_555
Nb8 S19 2.721799 1_555
Nb9 S37 2.307158 1_665
Nb9 S42 2.307254 1_555
Nb9 S45 2.312172 1_655
Nb9 S25 2.715123 1_555
Nb9 S29 2.718952 1_655
Nb9 S34 2.721799 1_555
Nb10 S34 2.409901 1_455
Nb10 S29 2.416586 1_555
Nb10 S25 2.421133 1_455
Nb10 S33 2.549107 1_555
Nb10 S30 2.557749 1_455
Nb10 S26 2.562214 1_555
Nb11 S36 2.473022 1_555
Nb11 S40 2.474948 1_555
Nb11 S32 2.477843 1_555
Nb11 S39 2.501564 1_555
Nb11 S35 2.508078 1_555
Nb11 S31 2.508946 1_555
Nb12 S39 2.490875 1_555
Nb12 S44 2.490875 1_555
Nb12 S35 2.494751 1_555
Nb12 S46 2.494751 1_555
Nb12 S3 2.497029 1_555
Nb12 S31 2.497029 1_555
Nb13 S1 2.473022 1_555
Nb13 S43 2.474948 1_555
Nb13 S4 2.477843 1_555
Nb13 S44 2.501564 1_555
Nb13 S46 2.508078 1_555
Nb13 S3 2.508946 1_555
