# generated using pymatgen
data_In(PO3)3
_symmetry_space_group_name_H-M   'P 1'
_cell_length_a   7.55667305
_cell_length_b   7.55667305
_cell_length_c   9.67983658
_cell_angle_alpha   56.82159295
_cell_angle_beta   56.82159295
_cell_angle_gamma   51.86822753
_symmetry_Int_Tables_number   1
_chemical_formula_structural   In(PO3)3
_chemical_formula_sum   'In2 P6 O18'
_cell_volume   345.01965811
_cell_formula_units_Z   2
loop_
 _symmetry_equiv_pos_site_id
 _symmetry_equiv_pos_as_xyz
  1  'x, y, z'
loop_
 _atom_site_type_symbol
 _atom_site_label
 _atom_site_symmetry_multiplicity
 _atom_site_fract_x
 _atom_site_fract_y
 _atom_site_fract_z
 _atom_site_occupancy
  In  In0  1  0.48760552  0.01593463  0.50135834  1
  In  In1  1  0.01593463  0.48760552  0.00135834  1
  P  P0  1  0.81347482  0.98005257  0.67253165  1
  P  P1  1  0.00294410  0.21093181  0.82977684  1
  P  P2  1  0.57852752  0.43686259  0.73087662  1
  P  P3  1  0.98005257  0.81347482  0.17253165  1
  P  P4  1  0.21093181  0.00294410  0.32977684  1
  P  P5  1  0.43686259  0.57852752  0.23087662  1
  O  O0  1  0.76244854  0.40117353  0.78716388  1
  O  O1  1  0.50993935  0.67318751  0.59829173  1
  O  O2  1  0.72920899  0.25123530  0.62960687  1
  O  O3  1  0.25123530  0.72920899  0.12960687  1
  O  O4  1  0.84098683  0.87086598  0.33773052  1
  O  O5  1  0.38232449  0.39026297  0.39153917  1
  O  O6  1  0.33507255  0.09474776  0.33173832  1
  O  O7  1  0.06866303  0.16343913  0.20913313  1
  O  O8  1  0.87086598  0.84098683  0.83773052  1
  O  O9  1  0.95874658  0.63884271  0.16222858  1
  O  O10  1  0.63884271  0.95874658  0.66222858  1
  O  O11  1  0.91233154  0.05278963  0.01932435  1
  O  O12  1  0.67318751  0.50993935  0.09829173  1
  O  O13  1  0.16343913  0.06866303  0.70913313  1
  O  O14  1  0.09474776  0.33507255  0.83173832  1
  O  O15  1  0.39026297  0.38232449  0.89153917  1
  O  O16  1  0.40117353  0.76244854  0.28716388  1
  O  O17  1  0.05278963  0.91233154  0.51932435  1
loop_
_geom_bond_atom_site_label_1
_geom_bond_atom_site_label_2
_geom_bond_distance
_geom_bond_site_symmetry_2
In0 O13 2.117514 1_555
In0 O4 2.120702 1_545
In0 O10 2.125813 1_545
In0 O6 2.128951 1_555
In0 O1 2.142608 1_545
In0 O5 2.149363 1_555
In1 O7 2.117514 1_555
In1 O8 2.120702 1_454
In1 O9 2.125813 1_455
In1 O14 2.128951 1_554
In1 O12 2.142608 1_455
In1 O15 2.149363 1_554
O0 P1 1.576259 1_655
O0 P2 1.583136 1_555
O1 P2 1.476960 1_555
O2 P0 1.588611 1_545
O2 P2 1.592469 1_555
O3 P3 1.588611 1_455
O3 P5 1.592469 1_555
O4 P3 1.485430 1_555
O5 P5 1.487750 1_555
O6 P4 1.482979 1_555
O7 P4 1.484668 1_555
O8 P0 1.485430 1_555
O9 P3 1.483683 1_555
O10 P0 1.483683 1_555
O11 P3 1.576082 1_545
O11 P1 1.580837 1_654
O12 P5 1.476960 1_555
O13 P1 1.484668 1_555
O14 P1 1.482979 1_555
O15 P2 1.487750 1_555
O16 P4 1.576259 1_565
O16 P5 1.583136 1_555
O17 P0 1.576082 1_455
O17 P4 1.580837 1_565
