# generated using pymatgen
data_Li3Co2(PO4)3
_symmetry_space_group_name_H-M   'P 1'
_cell_length_a   8.75515700
_cell_length_b   8.45038800
_cell_length_c   14.47802644
_cell_angle_alpha   55.97522487
_cell_angle_beta   90.00000000
_cell_angle_gamma   90.00000000
_symmetry_Int_Tables_number   1
_chemical_formula_structural   Li3Co2(PO4)3
_chemical_formula_sum   'Li12 Co8 P12 O48'
_cell_volume   887.76381828
_cell_formula_units_Z   4
loop_
 _symmetry_equiv_pos_site_id
 _symmetry_equiv_pos_as_xyz
  1  'x, y, z'
loop_
 _atom_site_type_symbol
 _atom_site_label
 _atom_site_symmetry_multiplicity
 _atom_site_fract_x
 _atom_site_fract_y
 _atom_site_fract_z
 _atom_site_occupancy
  Li  Li0  1  0.98968500  0.78288000  0.15655000  1
  Li  Li1  1  0.41206800  0.11320300  0.80679700  1
  Li  Li2  1  0.72011200  0.49323000  0.32295400  1
  Li  Li3  1  0.22011200  0.50677000  0.17704600  1
  Li  Li4  1  0.91206800  0.88679700  0.69320300  1
  Li  Li5  1  0.48968500  0.21712000  0.34345000  1
  Li  Li6  1  0.51031500  0.78288000  0.65655000  1
  Li  Li7  1  0.08793200  0.11320300  0.30679700  1
  Li  Li8  1  0.77988800  0.49323000  0.82295400  1
  Li  Li9  1  0.27988800  0.50677000  0.67704600  1
  Li  Li10  1  0.58793200  0.88679700  0.19320300  1
  Li  Li11  1  0.01031500  0.21712000  0.84345000  1
  Co  Co0  1  0.47456200  0.15646300  0.60046900  1
  Co  Co1  1  0.97456200  0.84353700  0.89953100  1
  Co  Co2  1  0.03541900  0.35989100  0.39429300  1
  Co  Co3  1  0.53541900  0.64010900  0.10570700  1
  Co  Co4  1  0.46458100  0.35989100  0.89429300  1
  Co  Co5  1  0.96458100  0.64010900  0.60570700  1
  Co  Co6  1  0.02543800  0.15646300  0.10046900  1
  Co  Co7  1  0.52543800  0.84353700  0.39953100  1
  P  P0  1  0.25105400  0.95128400  0.00810800  1
  P  P1  1  0.11845500  0.23526800  0.65003500  1
  P  P2  1  0.39005100  0.53472100  0.35114100  1
  P  P3  1  0.61845500  0.76473200  0.84996500  1
  P  P4  1  0.89005100  0.46527900  0.14885900  1
  P  P5  1  0.75105400  0.04871600  0.49189200  1
  P  P6  1  0.24894600  0.95128400  0.50810800  1
  P  P7  1  0.10994900  0.53472100  0.85114100  1
  P  P8  1  0.38154500  0.23526800  0.15003500  1
  P  P9  1  0.60994900  0.46527900  0.64885900  1
  P  P10  1  0.88154500  0.76473200  0.34996500  1
  P  P11  1  0.74894600  0.04871600  0.99189200  1
  O  O0  1  0.60792200  0.34277200  0.60100900  1
  O  O1  1  0.62736700  0.89318800  0.05655900  1
  O  O2  1  0.83455100  0.03937500  0.90140900  1
  O  O3  1  0.91966800  0.62613900  0.31369300  1
  O  O4  1  0.13963100  0.98326400  0.91454700  1
  O  O5  1  0.29536200  0.21001000  0.66375100  1
  O  O6  1  0.07917500  0.33607500  0.52468600  1
  O  O7  1  0.50843400  0.62025300  0.25216100  1
  O  O8  1  0.23122300  0.51980800  0.31075800  1
  O  O9  1  0.32133500  0.74890200  0.06474600  1
  O  O10  1  0.02834700  0.04867300  0.72008700  1
  O  O11  1  0.45213300  0.32742300  0.43579000  1
  O  O12  1  0.52834700  0.95132700  0.77991300  1
  O  O13  1  0.95213300  0.67257700  0.06421000  1
  O  O14  1  0.82133500  0.25109800  0.43525400  1
  O  O15  1  0.73122300  0.48019200  0.18924200  1
  O  O16  1  0.57917500  0.66392500  0.97531400  1
  O  O17  1  0.79536200  0.78999000  0.83624900  1
  O  O18  1  0.00843400  0.37974700  0.24783900  1
  O  O19  1  0.63963100  0.01673600  0.58545300  1
  O  O20  1  0.33455100  0.96062500  0.59859100  1
  O  O21  1  0.10792200  0.65722800  0.89899100  1
  O  O22  1  0.41966800  0.37386100  0.18630700  1
  O  O23  1  0.12736700  0.10681200  0.44344100  1
  O  O24  1  0.87263300  0.89318800  0.55655900  1
  O  O25  1  0.58033200  0.62613900  0.81369300  1
  O  O26  1  0.89207800  0.34277200  0.10100900  1
  O  O27  1  0.66544900  0.03937500  0.40140900  1
  O  O28  1  0.36036900  0.98326400  0.41454700  1
  O  O29  1  0.99156600  0.62025300  0.75216100  1
  O  O30  1  0.20463800  0.21001000  0.16375100  1
  O  O31  1  0.42082500  0.33607500  0.02468600  1
  O  O32  1  0.26877700  0.51980800  0.81075800  1
  O  O33  1  0.17866500  0.74890200  0.56474600  1
  O  O34  1  0.04786700  0.32742300  0.93579000  1
  O  O35  1  0.47165300  0.04867300  0.22008700  1
  O  O36  1  0.54786700  0.67257700  0.56421000  1
  O  O37  1  0.97165300  0.95132700  0.27991300  1
  O  O38  1  0.67866500  0.25109800  0.93525400  1
  O  O39  1  0.76877700  0.48019200  0.68924200  1
  O  O40  1  0.49156600  0.37974700  0.74783900  1
  O  O41  1  0.92082500  0.66392500  0.47531400  1
  O  O42  1  0.70463800  0.78999000  0.33624900  1
  O  O43  1  0.86036900  0.01673600  0.08545300  1
  O  O44  1  0.08033200  0.37386100  0.68630700  1
  O  O45  1  0.16544900  0.96062500  0.09859100  1
  O  O46  1  0.37263300  0.10681200  0.94344100  1
  O  O47  1  0.39207800  0.65722800  0.39899100  1
loop_
_geom_bond_atom_site_label_1
_geom_bond_atom_site_label_2
_geom_bond_distance
_geom_bond_site_symmetry_2
Li0 O45 1.979323 1_655
Li0 O3 1.983420 1_555
Li0 O43 1.992539 1_565
Li0 O13 2.039304 1_555
Li1 O12 1.911790 1_545
Li1 O46 1.978981 1_555
Li1 O5 2.026423 1_555
Li1 O40 2.033407 1_555
Li2 O14 1.972940 1_555
Li2 O15 2.001986 1_555
Li2 O3 2.040439 1_555
Li2 O7 2.099073 1_555
Li3 O9 1.972940 1_555
Li3 O8 2.001986 1_555
Li3 O22 2.040439 1_555
Li3 O18 2.099073 1_555
Li4 O10 1.911790 1_665
Li4 O24 1.978981 1_555
Li4 O17 2.026423 1_555
Li4 O29 2.033407 1_555
Li5 O27 1.979323 1_555
Li5 O22 1.983420 1_555
Li5 O28 1.992539 1_545
Li5 O11 2.039304 1_555
Li6 O20 1.979323 1_555
Li6 O25 1.983420 1_555
Li6 O19 1.992539 1_565
Li6 O36 2.039304 1_555
Li7 O37 1.911790 1_445
Li7 O23 1.978981 1_555
Li7 O30 2.026423 1_555
Li7 O18 2.033407 1_555
Li8 O38 1.972940 1_555
Li8 O39 2.001986 1_555
Li8 O25 2.040439 1_555
Li8 O29 2.099073 1_555
Li9 O33 1.972940 1_555
Li9 O32 2.001986 1_555
Li9 O44 2.040439 1_555
Li9 O40 2.099073 1_555
Li10 O35 1.911790 1_565
Li10 O1 1.978981 1_555
Li10 O42 2.026423 1_555
Li10 O7 2.033407 1_555
Li11 O2 1.979323 1_455
Li11 O44 1.983420 1_555
Li11 O4 1.992539 1_545
Li11 O34 2.039304 1_555
Co0 O19 1.953795 1_555
Co0 O0 1.963614 1_555
Co0 O11 1.988847 1_555
Co0 O5 1.992396 1_555
Co0 O20 2.071821 1_545
Co0 O12 2.221782 1_545
Co1 O4 1.953795 1_655
Co1 O21 1.963614 1_655
Co1 O13 1.988847 1_556
Co1 O17 1.992396 1_555
Co1 O2 2.071821 1_565
Co1 O10 2.221782 1_665
Co2 O6 1.823730 1_555
Co2 O23 2.006252 1_555
Co2 O14 2.024819 1_455
Co2 O18 2.044937 1_555
Co2 O8 2.097299 1_555
Co2 O3 2.124291 1_455
Co3 O16 1.823730 1_554
Co3 O1 2.006252 1_555
Co3 O9 2.024819 1_555
Co3 O7 2.044937 1_555
Co3 O15 2.097299 1_555
Co3 O22 2.124291 1_555
Co4 O31 1.823730 1_556
Co4 O46 2.006252 1_555
Co4 O38 2.024819 1_555
Co4 O40 2.044937 1_555
Co4 O32 2.097299 1_555
Co4 O25 2.124291 1_555
Co5 O41 1.823730 1_555
Co5 O24 2.006252 1_555
Co5 O33 2.024819 1_655
Co5 O29 2.044937 1_555
Co5 O39 2.097299 1_555
Co5 O44 2.124291 1_655
Co6 O43 1.953795 1_455
Co6 O26 1.963614 1_455
Co6 O34 1.988847 1_554
Co6 O30 1.992396 1_555
Co6 O45 2.071821 1_545
Co6 O37 2.221782 1_445
Co7 O28 1.953795 1_555
Co7 O47 1.963614 1_555
Co7 O36 1.988847 1_555
Co7 O42 1.992396 1_555
Co7 O27 2.071821 1_565
Co7 O35 2.221782 1_565
O0 P9 1.534456 1_555
O1 P11 1.536188 1_564
O2 P11 1.549136 1_555
O3 P10 1.564320 1_555
O4 P0 1.565216 1_556
O5 P1 1.560926 1_555
O6 P1 1.551569 1_555
O7 P2 1.578329 1_555
O8 P2 1.540727 1_555
O9 P0 1.551267 1_555
O10 P1 1.532196 1_555
O11 P2 1.569547 1_555
O12 P3 1.532196 1_555
O13 P4 1.569547 1_555
O14 P5 1.551267 1_555
O15 P4 1.540727 1_555
O16 P3 1.551569 1_555
O17 P3 1.560926 1_555
O18 P4 1.578329 1_455
O19 P5 1.565216 1_555
O20 P6 1.549136 1_555
O21 P7 1.534456 1_555
O22 P8 1.564320 1_555
O23 P6 1.536188 1_545
O24 P5 1.536188 1_565
O25 P3 1.564320 1_555
O26 P4 1.534456 1_555
O27 P5 1.549136 1_555
O28 P6 1.565216 1_555
O29 P7 1.578329 1_655
O30 P8 1.560926 1_555
O31 P8 1.551569 1_555
O32 P7 1.540727 1_555
O33 P6 1.551267 1_555
O34 P7 1.569547 1_555
O35 P8 1.532196 1_555
O36 P9 1.569547 1_555
O37 P10 1.532196 1_555
O38 P11 1.551267 1_555
O39 P9 1.540727 1_555
O40 P9 1.578329 1_555
O41 P10 1.551569 1_555
O42 P10 1.560926 1_555
O43 P11 1.565216 1_554
O44 P1 1.564320 1_555
O45 P0 1.549136 1_555
O46 P0 1.536188 1_546
O47 P2 1.534456 1_555
