# generated using pymatgen
data_PH8C2SNO2
_symmetry_space_group_name_H-M   'P 1'
_cell_length_a   9.57156100
_cell_length_b   5.51366600
_cell_length_c   14.20453728
_cell_angle_alpha   77.04335835
_cell_angle_beta   90.00000000
_cell_angle_gamma   90.00000000
_symmetry_Int_Tables_number   1
_chemical_formula_structural   PH8C2SNO2
_chemical_formula_sum   'P4 H32 C8 S4 N4 O8'
_cell_volume   730.55008185
_cell_formula_units_Z   4
loop_
 _symmetry_equiv_pos_site_id
 _symmetry_equiv_pos_as_xyz
  1  'x, y, z'
loop_
 _atom_site_type_symbol
 _atom_site_label
 _atom_site_symmetry_multiplicity
 _atom_site_fract_x
 _atom_site_fract_y
 _atom_site_fract_z
 _atom_site_occupancy
  P  P0  1  0.85965000  0.09761200  0.36699700  1
  P  P1  1  0.35965000  0.90238800  0.13300300  1
  P  P2  1  0.14035000  0.90238800  0.63300300  1
  P  P3  1  0.64035000  0.09761200  0.86699700  1
  H  H0  1  0.15995500  0.88441200  0.29910300  1
  H  H1  1  0.69948200  0.19943700  0.61625800  1
  H  H2  1  0.19948200  0.80056300  0.88374200  1
  H  H3  1  0.80051800  0.19943700  0.11625800  1
  H  H4  1  0.98936400  0.61017600  0.08953500  1
  H  H5  1  0.92700500  0.49278000  0.38559000  1
  H  H6  1  0.07299500  0.50722000  0.61441000  1
  H  H7  1  0.30051800  0.80056300  0.38374200  1
  H  H8  1  0.57299500  0.49278000  0.88559000  1
  H  H9  1  0.51063600  0.61017600  0.58953500  1
  H  H10  1  0.34004500  0.88441200  0.79910300  1
  H  H11  1  0.30389200  0.09448600  0.29940100  1
  H  H12  1  0.99194700  0.25394100  0.47298700  1
  H  H13  1  0.66307200  0.50253000  0.41949900  1
  H  H14  1  0.40190000  0.54265200  0.69407900  1
  H  H15  1  0.50805300  0.25394100  0.97298700  1
  H  H16  1  0.80389200  0.90551400  0.20059900  1
  H  H17  1  0.49194700  0.74605900  0.02701300  1
  H  H18  1  0.00805300  0.74605900  0.52701300  1
  H  H19  1  0.16307200  0.49747000  0.08050100  1
  H  H20  1  0.83692800  0.50253000  0.91949900  1
  H  H21  1  0.65995500  0.11558800  0.20089700  1
  H  H22  1  0.84004500  0.11558800  0.70089700  1
  H  H23  1  0.69610800  0.90551400  0.70059900  1
  H  H24  1  0.90190000  0.45734800  0.80592100  1
  H  H25  1  0.59810000  0.45734800  0.30592100  1
  H  H26  1  0.33692800  0.49747000  0.58050100  1
  H  H27  1  0.42700500  0.50722000  0.11441000  1
  H  H28  1  0.48936400  0.38982400  0.41046500  1
  H  H29  1  0.19610800  0.09448600  0.79940100  1
  H  H30  1  0.01063600  0.38982400  0.91046500  1
  H  H31  1  0.09810000  0.54265200  0.19407900  1
  C  C0  1  0.09700500  0.61364100  0.11561800  1
  C  C1  1  0.72712000  0.10159300  0.68973700  1
  C  C2  1  0.27288000  0.89840700  0.31026300  1
  C  C3  1  0.90299500  0.38635900  0.88438200  1
  C  C4  1  0.77288000  0.10159300  0.18973700  1
  C  C5  1  0.40299500  0.61364100  0.61561800  1
  C  C6  1  0.22712000  0.89840700  0.81026300  1
  C  C7  1  0.59700500  0.38635900  0.38438200  1
  S  S0  1  0.65298300  0.06311400  0.41735900  1
  S  S1  1  0.34701700  0.93688600  0.58264100  1
  S  S2  1  0.84701700  0.06311400  0.91735900  1
  S  S3  1  0.15298300  0.93688600  0.08264100  1
  N  N0  1  0.04790500  0.69300300  0.59581200  1
  N  N1  1  0.45209500  0.69300300  0.09581200  1
  N  N2  1  0.54790500  0.30699700  0.90418800  1
  N  N3  1  0.95209500  0.30699700  0.40418800  1
  O  O0  1  0.64907100  0.22254300  0.75397500  1
  O  O1  1  0.35092900  0.77745700  0.24602500  1
  O  O2  1  0.57890800  0.84144800  0.89492900  1
  O  O3  1  0.07890800  0.15855200  0.60507100  1
  O  O4  1  0.42109200  0.15855200  0.10507100  1
  O  O5  1  0.85092900  0.22254300  0.25397500  1
  O  O6  1  0.92109200  0.84144800  0.39492900  1
  O  O7  1  0.14907100  0.77745700  0.74602500  1
loop_
_geom_bond_atom_site_label_1
_geom_bond_atom_site_label_2
_geom_bond_distance
_geom_bond_site_symmetry_2
P0 S0 2.097593 1_555
P1 S3 2.097593 1_555
P2 S1 2.097593 1_555
P3 S2 2.097593 1_555
H5 N3 1.027325 1_555
H6 N0 1.027325 1_555
H8 N2 1.027325 1_555
H12 N3 1.028549 1_555
H15 N2 1.028549 1_555
H17 N1 1.028549 1_555
H18 N0 1.028549 1_555
H27 N1 1.027325 1_555
C0 H31 1.095359 1_555
C0 H19 1.096476 1_555
C0 H4 1.096499 1_455
C0 S3 1.818955 1_555
C1 H1 1.094488 1_555
C1 H22 1.097655 1_555
C1 H23 1.098145 1_545
C1 O0 1.451994 1_555
C2 H7 1.094488 1_555
C2 H0 1.097655 1_555
C2 H11 1.098145 1_565
C2 O1 1.451994 1_555
C3 H24 1.095359 1_555
C3 H20 1.096476 1_555
C3 H30 1.096499 1_655
C3 S2 1.818955 1_555
C4 H3 1.094488 1_555
C4 H21 1.097655 1_555
C4 H16 1.098145 1_545
C4 O5 1.451994 1_555
C5 H14 1.095359 1_555
C5 H26 1.096476 1_555
C5 H9 1.096499 1_555
C5 S1 1.818955 1_555
C6 H2 1.094488 1_555
C6 H10 1.097655 1_555
C6 H29 1.098145 1_565
C6 O7 1.451994 1_555
C7 H25 1.095359 1_555
C7 H13 1.096476 1_555
C7 H28 1.096499 1_555
C7 S0 1.818955 1_555
N0 P2 1.633506 1_555
N1 P1 1.633506 1_555
N2 P3 1.633506 1_555
N3 P0 1.633506 1_555
O0 P3 1.600919 1_555
O1 P1 1.600919 1_555
O2 P3 1.498955 1_565
O3 P2 1.498955 1_545
O4 P1 1.498955 1_545
O5 P0 1.600919 1_555
O6 P0 1.498955 1_565
O7 P2 1.600919 1_555
