# generated using pymatgen
data_GdVO3
_symmetry_space_group_name_H-M   'P 1'
_cell_length_a   5.34021045
_cell_length_b   5.67985439
_cell_length_c   7.57246796
_cell_angle_alpha   90.13197242
_cell_angle_beta   89.91655894
_cell_angle_gamma   90.03460105
_symmetry_Int_Tables_number   1
_chemical_formula_structural   GdVO3
_chemical_formula_sum   'Gd4 V4 O12'
_cell_volume   229.68430934
_cell_formula_units_Z   4
loop_
 _symmetry_equiv_pos_site_id
 _symmetry_equiv_pos_as_xyz
  1  'x, y, z'
loop_
 _atom_site_type_symbol
 _atom_site_label
 _atom_site_symmetry_multiplicity
 _atom_site_fract_x
 _atom_site_fract_y
 _atom_site_fract_z
 _atom_site_occupancy
  Gd  Gd0  1  0.98113352  0.93328025  0.25020561  1
  Gd  Gd1  1  0.48164752  0.56683978  0.74985943  1
  Gd  Gd2  1  0.51872546  0.43292596  0.25067651  1
  Gd  Gd3  1  0.01858626  0.06633095  0.74948787  1
  V  V0  1  0.49963813  0.00026487  0.00023478  1
  V  V1  1  -0.00043274  0.49971747  0.00021051  1
  V  V2  1  0.00019925  0.50002651  0.49976478  1
  V  V3  1  0.50016408  0.00043170  0.49977685  1
  O  O0  1  0.10057951  0.53244447  0.25035558  1
  O  O1  1  0.60115637  0.96751068  0.74946088  1
  O  O2  1  0.39879523  0.03225298  0.25065607  1
  O  O3  1  0.89910400  0.46752104  0.74938189  1
  O  O4  1  0.69616528  0.69218707  0.05121713  1
  O  O5  1  0.19645890  0.80781726  0.94870524  1
  O  O6  1  0.81258430  0.20211113  0.44695004  1
  O  O7  1  0.31203041  0.29762227  0.55372507  1
  O  O8  1  0.30327855  0.30800458  0.94886296  1
  O  O9  1  0.80325586  0.19193893  0.05129031  1
  O  O10  1  0.18827605  0.79777353  0.55301714  1
  O  O11  1  0.68865405  0.70299857  0.44616138  1
loop_
_geom_bond_atom_site_label_1
_geom_bond_atom_site_label_2
_geom_bond_distance
_geom_bond_site_symmetry_2
Gd0 O2 2.299829 1_665
Gd0 O9 2.312061 1_565
Gd0 O6 2.312692 1_565
Gd0 O0 2.364732 1_655
Gd0 O11 2.520298 1_555
Gd0 O4 2.540912 1_555
Gd0 O5 2.651122 1_654
Gd0 O10 2.662810 1_655
Gd1 O3 2.299898 1_555
Gd1 O8 2.311680 1_555
Gd1 O7 2.314372 1_555
Gd1 O1 2.363183 1_555
Gd1 O10 2.532794 1_555
Gd1 O5 2.538987 1_555
Gd1 O4 2.650656 1_556
Gd1 O11 2.666215 1_555
Gd2 O0 2.303756 1_555
Gd2 O4 2.313445 1_555
Gd2 O11 2.315084 1_555
Gd2 O2 2.363794 1_555
Gd2 O6 2.531517 1_555
Gd2 O9 2.539333 1_555
Gd2 O8 2.655137 1_554
Gd2 O7 2.659870 1_555
Gd3 O1 2.298412 1_445
Gd3 O10 2.312714 1_545
Gd3 O5 2.313021 1_545
Gd3 O3 2.366721 1_455
Gd3 O7 2.525612 1_555
Gd3 O8 2.543538 1_555
Gd3 O9 2.653321 1_456
Gd3 O6 2.658941 1_455
O0 V2 1.971487 1_555
O0 V1 1.978590 1_555
O1 V3 1.976206 1_565
O1 V0 1.982454 1_566
O2 V3 1.972080 1_555
O2 V0 1.978523 1_555
O3 V2 1.974078 1_655
O3 V1 1.982475 1_656
O4 V1 1.991931 1_655
O4 V0 2.078203 1_565
O5 V0 1.991508 1_566
O5 V1 2.078399 1_556
O6 V2 2.005746 1_655
O6 V3 2.062426 1_555
O7 V3 2.005810 1_555
O7 V2 2.065938 1_555
O8 V1 1.991417 1_556
O8 V0 2.076690 1_556
O9 V0 1.990310 1_555
O9 V1 2.074691 1_655
O10 V2 2.006833 1_555
O10 V3 2.063835 1_565
O11 V3 2.007419 1_565
O11 V2 2.065968 1_655
