# generated using pymatgen
data_TbCu(WO4)2
_symmetry_space_group_name_H-M   'P 1'
_cell_length_a   6.91188800
_cell_length_b   10.13083269
_cell_length_c   15.35427027
_cell_angle_alpha   107.22709960
_cell_angle_beta   88.39246815
_cell_angle_gamma   108.02303597
_symmetry_Int_Tables_number   1
_chemical_formula_structural   TbCu(WO4)2
_chemical_formula_sum   'Tb6 Cu6 W12 O48'
_cell_volume   974.13746813
_cell_formula_units_Z   6
loop_
 _symmetry_equiv_pos_site_id
 _symmetry_equiv_pos_as_xyz
  1  'x, y, z'
loop_
 _atom_site_type_symbol
 _atom_site_label
 _atom_site_symmetry_multiplicity
 _atom_site_fract_x
 _atom_site_fract_y
 _atom_site_fract_z
 _atom_site_occupancy
  Tb  Tb0  1  0.36411100  0.05219200  0.34387200  1
  Tb  Tb1  1  0.03306300  0.39305400  0.66188600  1
  Tb  Tb2  1  0.96693700  0.60694600  0.33811400  1
  Tb  Tb3  1  0.31619100  0.29512300  0.99698600  1
  Tb  Tb4  1  0.63588900  0.94780800  0.65612800  1
  Tb  Tb5  1  0.68380900  0.70487700  0.00301400  1
  Cu  Cu0  1  0.65861500  0.33477200  0.83213800  1
  Cu  Cu1  1  0.84625300  0.16665400  0.16093500  1
  Cu  Cu2  1  0.34138500  0.66522800  0.16786200  1
  Cu  Cu3  1  0.15374700  0.83334600  0.83906500  1
  Cu  Cu4  1  0.50000000  0.50000000  0.50000000  1
  Cu  Cu5  1  0.00000000  0.00000000  0.00000000  1
  W  W0  1  0.16665700  0.56090100  0.93126300  1
  W  W1  1  0.14728700  0.09906500  0.73158500  1
  W  W2  1  0.98104200  0.24481000  0.38734900  1
  W  W3  1  0.01895800  0.75519000  0.61265100  1
  W  W4  1  0.64216000  0.59114600  0.72324800  1
  W  W5  1  0.49865500  0.76561300  0.39320800  1
  W  W6  1  0.66418600  0.08334400  0.93945800  1
  W  W7  1  0.85271300  0.90093500  0.26841500  1
  W  W8  1  0.35784000  0.40885400  0.27675200  1
  W  W9  1  0.83334300  0.43909900  0.06873700  1
  W  W10  1  0.50134500  0.23438700  0.60679200  1
  W  W11  1  0.33581400  0.91665600  0.06054200  1
  O  O0  1  0.57445700  0.97703700  0.82465400  1
  O  O1  1  0.66150700  0.27271500  0.93537100  1
  O  O2  1  0.09001600  0.41919900  0.00713200  1
  O  O3  1  0.05493600  0.88409600  0.06078100  1
  O  O4  1  0.23356400  0.25083900  0.66516200  1
  O  O5  1  0.61729000  0.87483400  0.50456100  1
  O  O6  1  0.37100700  0.56209200  0.72135300  1
  O  O7  1  0.94352900  0.60074500  0.67355200  1
  O  O8  1  0.41095600  0.51807400  0.92639400  1
  O  O9  1  0.71093900  0.21790400  0.38618200  1
  O  O10  1  0.38271000  0.12516600  0.49543900  1
  O  O11  1  0.05647100  0.39925500  0.32644800  1
  O  O12  1  0.44068800  0.57796600  0.41367600  1
  O  O13  1  0.09949600  0.86680500  0.25402800  1
  O  O14  1  0.00101000  0.93947100  0.60897200  1
  O  O15  1  0.58904400  0.48192600  0.07360600  1
  O  O16  1  0.55931200  0.42203400  0.58632400  1
  O  O17  1  0.72747700  0.68933800  0.84294500  1
  O  O18  1  0.61027200  0.92522600  0.00147600  1
  O  O19  1  0.94506400  0.11590400  0.93921900  1
  O  O20  1  0.27735500  0.20699200  0.84365600  1
  O  O21  1  0.90316900  0.08614200  0.24526700  1
  O  O22  1  0.99899000  0.06052900  0.39102800  1
  O  O23  1  0.92893600  0.64815800  0.49455700  1
  O  O24  1  0.72264500  0.79300800  0.15634400  1
  O  O25  1  0.95784700  0.54989900  0.17826700  1
  O  O26  1  0.76720600  0.25130700  0.08322400  1
  O  O27  1  0.38972800  0.07477400  0.99852400  1
  O  O28  1  0.28691200  0.25707600  0.33624400  1
  O  O29  1  0.34290700  0.59805900  0.26813500  1
  O  O30  1  0.33849300  0.72728500  0.06462900  1
  O  O31  1  0.42554300  0.02296300  0.17534600  1
  O  O32  1  0.90998400  0.58080100  0.99286800  1
  O  O33  1  0.25071600  0.80142400  0.40158200  1
  O  O34  1  0.23279400  0.74869300  0.91677600  1
  O  O35  1  0.74928400  0.19857600  0.59841800  1
  O  O36  1  0.57797000  0.91207000  0.32401100  1
  O  O37  1  0.76643600  0.74916100  0.33483800  1
  O  O38  1  0.42203000  0.08793000  0.67598900  1
  O  O39  1  0.04215300  0.45010100  0.82173300  1
  O  O40  1  0.09683100  0.91385800  0.75473300  1
  O  O41  1  0.27252300  0.31066200  0.15705500  1
  O  O42  1  0.28906100  0.78209600  0.61381800  1
  O  O43  1  0.07106400  0.35184200  0.50544300  1
  O  O44  1  0.65709300  0.40194100  0.73186500  1
  O  O45  1  0.71308800  0.74292400  0.66375600  1
  O  O46  1  0.62899300  0.43790800  0.27864700  1
  O  O47  1  0.90050400  0.13319500  0.74597200  1
loop_
_geom_bond_atom_site_label_1
_geom_bond_atom_site_label_2
_geom_bond_distance
_geom_bond_site_symmetry_2
Cu0 O44 1.859969 1_555
Cu0 O1 1.872938 1_555
Cu0 O39 2.566799 1_655
Cu0 O20 2.578757 1_555
Cu1 O21 1.830143 1_555
Cu1 O26 1.841292 1_555
Cu2 O29 1.859969 1_555
Cu2 O30 1.872938 1_555
Cu2 O25 2.566799 1_455
Cu2 O24 2.578757 1_555
Cu3 O40 1.830143 1_555
Cu3 O34 1.841292 1_555
Cu4 O12 1.843830 1_555
Cu4 O16 1.843830 1_555
Cu5 O3 1.827223 1_545
Cu5 O19 1.827223 1_454
Cu5 O27 2.564120 1_554
Cu5 O18 2.564120 1_445
O0 W6 1.781935 1_565
O0 Tb4 2.554590 1_555
O1 W6 1.943766 1_555
O1 W9 2.301798 1_556
O1 Tb3 2.593199 1_555
O2 W9 2.024105 1_455
O2 W0 2.045437 1_554
O2 Tb3 2.265947 1_554
O3 W11 1.865982 1_555
O3 Tb5 2.637270 1_455
O4 W1 2.021709 1_555
O4 W10 2.065449 1_555
O4 Tb1 2.298093 1_555
O5 W5 1.793487 1_555
O5 Tb4 2.217621 1_555
O6 W4 1.804621 1_555
O6 Tb1 2.437352 1_555
O7 W3 1.982131 1_655
O7 W4 2.181773 1_555
O7 Tb1 2.327769 1_655
O8 W0 1.863370 1_555
O8 Tb5 2.262611 1_556
O8 Tb3 2.683330 1_555
O9 W2 1.801140 1_555
O9 Tb0 2.436839 1_555
O10 W10 1.793487 1_555
O10 Tb0 2.217621 1_555
O11 W2 1.982131 1_455
O11 W8 2.181773 1_555
O11 Tb2 2.327769 1_455
O12 W5 1.936147 1_555
O12 W8 2.238320 1_555
O13 W7 1.837516 1_455
O13 Tb0 2.292787 1_565
O14 W3 1.926173 1_555
O14 W1 2.114933 1_565
O14 Tb4 2.625542 1_455
O15 W9 1.863370 1_555
O15 Tb3 2.262611 1_554
O15 Tb5 2.683330 1_555
O16 W10 1.936147 1_555
O16 W4 2.238320 1_555
O17 W4 1.824814 1_555
O17 Tb5 2.432076 1_556
O18 W6 2.031212 1_564
O18 W11 2.068073 1_555
O18 Tb5 2.444620 1_555
O19 W6 1.865982 1_555
O19 Tb3 2.637270 1_655
O20 W1 1.824520 1_555
O20 Tb3 2.248090 1_555
O21 W7 1.936902 1_545
O21 W2 2.255258 1_555
O22 W2 1.926173 1_555
O22 W7 2.114933 1_545
O22 Tb0 2.625542 1_655
O23 W3 1.825377 1_655
O23 Tb2 2.334880 1_555
O24 W7 1.824520 1_555
O24 Tb5 2.248090 1_555
O25 W9 1.787218 1_555
O25 Tb2 2.346854 1_555
O26 W9 1.893332 1_555
O26 W6 2.321374 1_554
O27 W11 2.031212 1_546
O27 W6 2.068073 1_555
O27 Tb3 2.444620 1_555
O28 W8 1.944077 1_555
O28 W2 2.214241 1_455
O28 Tb0 2.332293 1_555
O29 W8 1.993917 1_555
O29 W5 2.186914 1_555
O29 Tb2 2.801155 1_455
O30 W11 1.943766 1_555
O30 W0 2.301798 1_554
O30 Tb5 2.593199 1_555
O31 W11 1.781935 1_545
O31 Tb0 2.554590 1_555
O32 W0 2.024105 1_655
O32 W9 2.045437 1_556
O32 Tb5 2.265947 1_556
O33 W5 1.851957 1_555
O33 Tb2 2.292896 1_455
O33 Tb0 2.813508 1_565
O34 W0 1.893332 1_555
O34 W11 2.321374 1_556
O35 W10 1.851957 1_555
O35 Tb1 2.292896 1_655
O35 Tb4 2.813508 1_545
O36 W5 2.007130 1_555
O36 W7 2.081385 1_555
O36 Tb0 2.304313 1_565
O37 W7 2.021709 1_555
O37 W5 2.065449 1_555
O37 Tb2 2.298093 1_555
O38 W10 2.007130 1_555
O38 W1 2.081385 1_555
O38 Tb4 2.304313 1_545
O39 W0 1.787218 1_555
O39 Tb1 2.346854 1_555
O40 W1 1.936902 1_565
O40 W3 2.255258 1_555
O41 W8 1.824814 1_555
O41 Tb3 2.432076 1_554
O42 W3 1.801140 1_555
O42 Tb4 2.436839 1_555
O43 W2 1.825377 1_455
O43 Tb1 2.334880 1_555
O44 W4 1.993917 1_555
O44 W10 2.186914 1_555
O44 Tb1 2.801155 1_655
O45 W4 1.944077 1_555
O45 W3 2.214241 1_655
O45 Tb4 2.332293 1_555
O46 W8 1.804621 1_555
O46 Tb2 2.437352 1_555
O47 W1 1.837516 1_655
O47 Tb4 2.292787 1_545
