# generated using pymatgen
data_Hg3ClO
_symmetry_space_group_name_H-M   'P 1'
_cell_length_a   10.93778728
_cell_length_b   10.93778728
_cell_length_c   17.41277246
_cell_angle_alpha   71.24644952
_cell_angle_beta   71.24644952
_cell_angle_gamma   50.02856981
_symmetry_Int_Tables_number   1
_chemical_formula_structural   Hg3ClO
_chemical_formula_sum   'Hg36 Cl12 O12'
_cell_volume   1492.62805473
_cell_formula_units_Z   12
loop_
 _symmetry_equiv_pos_site_id
 _symmetry_equiv_pos_as_xyz
  1  'x, y, z'
loop_
 _atom_site_type_symbol
 _atom_site_label
 _atom_site_symmetry_multiplicity
 _atom_site_fract_x
 _atom_site_fract_y
 _atom_site_fract_z
 _atom_site_occupancy
  Hg  Hg0  1  0.81458500  0.50983600  0.65695000  1
  Hg  Hg1  1  0.25012600  0.28568000  0.61115500  1
  Hg  Hg2  1  0.39155000  0.62778700  0.82144300  1
  Hg  Hg3  1  0.04180400  0.09649600  0.20206900  1
  Hg  Hg4  1  0.36111000  0.44748100  0.03546000  1
  Hg  Hg5  1  0.05311600  0.28924100  0.82061900  1
  Hg  Hg6  1  0.20669300  0.46546000  0.86562400  1
  Hg  Hg7  1  0.71075900  0.94688400  0.67938100  1
  Hg  Hg8  1  0.12480000  0.84390900  0.50990200  1
  Hg  Hg9  1  0.63889000  0.55251900  0.96454000  1
  Hg  Hg10  1  0.74987400  0.71432000  0.38884500  1
  Hg  Hg11  1  0.49016400  0.18541500  0.84305000  1
  Hg  Hg12  1  0.28568000  0.25012600  0.11115500  1
  Hg  Hg13  1  0.90350400  0.95819600  0.29793100  1
  Hg  Hg14  1  0.15609100  0.87520000  0.99009800  1
  Hg  Hg15  1  0.87520000  0.15609100  0.49009800  1
  Hg  Hg16  1  0.28924100  0.05311600  0.32061900  1
  Hg  Hg17  1  0.94975500  0.71976600  0.02657500  1
  Hg  Hg18  1  0.95819600  0.90350400  0.79793100  1
  Hg  Hg19  1  0.44748100  0.36111000  0.53546000  1
  Hg  Hg20  1  0.28023400  0.05024500  0.47342500  1
  Hg  Hg21  1  0.55251900  0.63889000  0.46454000  1
  Hg  Hg22  1  0.05024500  0.28023400  0.97342500  1
  Hg  Hg23  1  0.79330700  0.53454000  0.13437600  1
  Hg  Hg24  1  0.09649600  0.04180400  0.70206900  1
  Hg  Hg25  1  0.62778700  0.39155000  0.32144300  1
  Hg  Hg26  1  0.84390900  0.12480000  0.00990200  1
  Hg  Hg27  1  0.37221300  0.60845000  0.67855700  1
  Hg  Hg28  1  0.71432000  0.74987400  0.88884500  1
  Hg  Hg29  1  0.46546000  0.20669300  0.36562400  1
  Hg  Hg30  1  0.18541500  0.49016400  0.34305000  1
  Hg  Hg31  1  0.94688400  0.71075900  0.17938100  1
  Hg  Hg32  1  0.71976600  0.94975500  0.52657500  1
  Hg  Hg33  1  0.53454000  0.79330700  0.63437600  1
  Hg  Hg34  1  0.50983600  0.81458500  0.15695000  1
  Hg  Hg35  1  0.60845000  0.37221300  0.17855700  1
  Cl  Cl0  1  0.95965600  0.33886600  0.51546100  1
  Cl  Cl1  1  0.61843700  0.05729900  0.21808700  1
  Cl  Cl2  1  0.04034400  0.66113400  0.48453900  1
  Cl  Cl3  1  0.64832700  0.27022600  0.65500800  1
  Cl  Cl4  1  0.72977400  0.35167300  0.84499200  1
  Cl  Cl5  1  0.05729900  0.61843700  0.71808700  1
  Cl  Cl6  1  0.35167300  0.72977400  0.34499200  1
  Cl  Cl7  1  0.33886600  0.95965600  0.01546100  1
  Cl  Cl8  1  0.38156300  0.94270100  0.78191300  1
  Cl  Cl9  1  0.66113400  0.04034400  0.98453900  1
  Cl  Cl10  1  0.27022600  0.64832700  0.15500800  1
  Cl  Cl11  1  0.94270100  0.38156300  0.28191300  1
  O  O0  1  0.29393700  0.04582900  0.19585500  1
  O  O1  1  0.64279500  0.37042100  0.44732700  1
  O  O2  1  0.95417100  0.70606300  0.30414500  1
  O  O3  1  0.35720500  0.62957900  0.55267300  1
  O  O4  1  0.37042100  0.64279500  0.94732700  1
  O  O5  1  0.70606300  0.95417100  0.80414500  1
  O  O6  1  0.69290300  0.98556200  0.40260400  1
  O  O7  1  0.01443800  0.30709700  0.09739600  1
  O  O8  1  0.04582900  0.29393700  0.69585500  1
  O  O9  1  0.98556200  0.69290300  0.90260400  1
  O  O10  1  0.30709700  0.01443800  0.59739600  1
  O  O11  1  0.62957900  0.35720500  0.05267300  1
loop_
_geom_bond_atom_site_label_1
_geom_bond_atom_site_label_2
_geom_bond_distance
_geom_bond_site_symmetry_2
Hg0 O8 2.198161 1_655
Hg1 O8 2.209950 1_555
Hg1 O10 2.689483 1_555
Hg2 O4 2.177629 1_555
Hg3 O7 2.341603 1_555
Hg3 O0 2.409824 1_555
Hg4 O4 2.236131 1_554
Hg4 O11 2.517520 1_555
Hg5 O8 2.182434 1_555
Hg6 O9 2.179746 1_455
Hg7 O5 2.182434 1_555
Hg8 O3 2.224945 1_555
Hg9 O11 2.236131 1_556
Hg9 O4 2.517520 1_555
Hg10 O2 2.209950 1_555
Hg10 O6 2.689483 1_555
Hg11 O5 2.198161 1_545
Hg12 O0 2.209950 1_555
Hg12 O7 2.689483 1_555
Hg13 O6 2.341603 1_555
Hg13 O2 2.409824 1_555
Hg14 O4 2.224945 1_555
Hg15 O1 2.224945 1_555
Hg16 O0 2.182434 1_555
Hg17 O9 2.148483 1_554
Hg18 O9 2.341603 1_555
Hg18 O5 2.409824 1_555
Hg19 O1 2.236131 1_555
Hg19 O3 2.517520 1_555
Hg20 O10 2.148483 1_555
Hg21 O3 2.236131 1_555
Hg21 O1 2.517520 1_555
Hg22 O7 2.148483 1_556
Hg23 O7 2.179746 1_655
Hg24 O10 2.341603 1_555
Hg24 O8 2.409824 1_555
Hg25 O1 2.177629 1_555
Hg26 O11 2.224945 1_555
Hg27 O3 2.177629 1_555
Hg28 O5 2.209950 1_555
Hg28 O9 2.689483 1_555
Hg29 O6 2.179746 1_545
Hg30 O2 2.198161 1_455
Hg31 O2 2.182434 1_555
Hg32 O6 2.148483 1_555
Hg33 O10 2.179746 1_565
Hg34 O0 2.198161 1_565
Hg35 O11 2.177629 1_555
Cl0 Hg15 2.871888 1_555
Cl0 Hg20 2.900015 1_655
Cl0 Hg0 2.953146 1_555
Cl1 Hg29 2.914124 1_555
Cl2 Hg8 2.871888 1_555
Cl2 Hg32 2.900015 1_455
Cl2 Hg30 2.953146 1_555
Cl3 Hg27 2.966353 1_555
Cl3 Hg19 2.991921 1_555
Cl3 Hg7 3.045099 1_545
Cl3 Hg15 3.115293 1_555
Cl4 Hg2 2.966353 1_555
Cl4 Hg9 2.991921 1_555
Cl4 Hg5 3.045099 1_655
Cl4 Hg26 3.115293 1_556
Cl5 Hg6 2.914124 1_555
Cl6 Hg25 2.966353 1_555
Cl6 Hg21 2.991921 1_555
Cl6 Hg16 3.045099 1_565
Cl6 Hg8 3.115293 1_555
Cl7 Hg14 2.871888 1_554
Cl7 Hg22 2.900015 1_564
Cl7 Hg34 2.953146 1_555
Cl8 Hg33 2.914124 1_555
Cl9 Hg26 2.871888 1_556
Cl9 Hg17 2.900015 1_546
Cl9 Hg11 2.953146 1_555
Cl10 Hg35 2.966353 1_555
Cl10 Hg4 2.991921 1_555
Cl10 Hg31 3.045099 1_455
Cl10 Hg14 3.115293 1_554
Cl11 Hg23 2.914124 1_555
