# generated using pymatgen
data_Cs2Ti(Si2O5)3
_symmetry_space_group_name_H-M   'P 1'
_cell_length_a   7.43615671
_cell_length_b   7.67114848
_cell_length_c   15.03870127
_cell_angle_alpha   76.71838434
_cell_angle_beta   75.69152442
_cell_angle_gamma   61.01575744
_symmetry_Int_Tables_number   1
_chemical_formula_structural   Cs2Ti(Si2O5)3
_chemical_formula_sum   'Cs4 Ti2 Si12 O30'
_cell_volume   720.99496322
_cell_formula_units_Z   2
loop_
 _symmetry_equiv_pos_site_id
 _symmetry_equiv_pos_as_xyz
  1  'x, y, z'
loop_
 _atom_site_type_symbol
 _atom_site_label
 _atom_site_symmetry_multiplicity
 _atom_site_fract_x
 _atom_site_fract_y
 _atom_site_fract_z
 _atom_site_occupancy
  Cs  Cs0  1  0.62324683  0.82547247  0.40931438  1
  Cs  Cs1  1  0.37675317  0.17452753  0.59068562  1
  Cs  Cs2  1  0.14193154  0.32528047  0.90938242  1
  Cs  Cs3  1  0.85806846  0.67471953  0.09061758  1
  Ti  Ti0  1  0.50000000  0.50000000  -0.00000000  1
  Ti  Ti1  1  -0.00000000  -0.00000000  0.50000000  1
  Si  Si0  1  0.39661594  0.18903784  0.16923943  1
  Si  Si1  1  0.11592947  0.33573060  0.35983672  1
  Si  Si2  1  0.81143545  0.16434650  0.14019623  1
  Si  Si3  1  0.24514613  0.68889016  0.66922716  1
  Si  Si4  1  0.18856555  0.83565350  0.85980377  1
  Si  Si5  1  0.26885368  0.85963989  0.14538229  1
  Si  Si6  1  0.27389013  0.64049412  0.35455414  1
  Si  Si7  1  0.88407053  0.66426940  0.64016328  1
  Si  Si8  1  0.60338406  0.81096216  0.83076057  1
  Si  Si9  1  0.72610987  0.35950588  0.64544586  1
  Si  Si10  1  0.75485387  0.31110984  0.33077284  1
  Si  Si11  1  0.73114632  0.14036011  0.85461771  1
  O  O0  1  0.33749773  0.03189452  0.14409556  1
  O  O1  1  0.29367417  0.23750106  0.27424394  1
  O  O2  1  0.03693387  0.97568816  0.11700056  1
  O  O3  1  0.78622959  0.20837610  0.57459839  1
  O  O4  1  0.48649599  0.53165785  0.64417311  1
  O  O5  1  0.66250227  0.96810548  0.85590444  1
  O  O6  1  0.87027433  0.47564631  0.61700599  1
  O  O7  1  0.25043189  0.75002504  0.24996087  1
  O  O8  1  0.66121562  0.61295540  0.90357860  1
  O  O9  1  0.56931293  0.29138231  0.92550396  1
  O  O10  1  0.74956811  0.24997496  0.75003913  1
  O  O11  1  0.75620915  0.33205099  0.05282850  1
  O  O12  1  0.43068707  0.70861769  0.07449604  1
  O  O13  1  0.11257875  0.56788801  0.67142885  1
  O  O14  1  0.19444374  0.73749961  0.77421896  1
  O  O15  1  0.33878438  0.38704460  0.09642140  1
  O  O16  1  0.85900149  0.83191224  0.55277323  1
  O  O17  1  0.96306613  0.02431184  0.88299944  1
  O  O18  1  0.80555626  0.26250039  0.22578104  1
  O  O19  1  0.51350401  0.46834215  0.35582689  1
  O  O20  1  0.17790465  0.88684553  0.59637754  1
  O  O21  1  0.14099851  0.16808776  0.44722677  1
  O  O22  1  0.64795480  0.06804569  0.17148058  1
  O  O23  1  0.21377041  0.79162390  0.42540161  1
  O  O24  1  0.88742125  0.43211199  0.32857115  1
  O  O25  1  0.12972567  0.52435369  0.38299401  1
  O  O26  1  0.35204520  0.93195431  0.82851942  1
  O  O27  1  0.70632583  0.76249894  0.72575606  1
  O  O28  1  0.82209635  0.11315447  0.40362246  1
  O  O29  1  0.24379185  0.66794901  0.94717150  1
loop_
_geom_bond_atom_site_label_1
_geom_bond_atom_site_label_2
_geom_bond_distance
_geom_bond_site_symmetry_2
Cs0 O24 3.032929 1_555
Cs0 O16 3.119735 1_555
Cs0 O23 3.125829 1_555
Cs0 O28 3.174453 1_565
Cs0 O21 3.261348 1_565
Cs0 O25 3.305916 1_655
Cs0 O1 3.482251 1_565
Cs0 O22 3.638364 1_565
Cs1 O13 3.032929 1_555
Cs1 O21 3.119735 1_555
Cs1 O3 3.125829 1_555
Cs1 O20 3.174447 1_545
Cs1 O16 3.261348 1_545
Cs1 O6 3.305916 1_455
Cs1 O27 3.482251 1_545
Cs1 O26 3.638364 1_545
Cs2 O26 3.033461 1_545
Cs2 O11 3.119641 1_456
Cs2 O9 3.126905 1_555
Cs2 O8 3.174348 1_455
Cs2 O29 3.261187 1_555
Cs2 O17 3.303750 1_455
Cs2 O14 3.483494 1_555
Cs2 O13 3.639966 1_555
Cs3 O22 3.033461 1_565
Cs3 O29 3.119647 1_654
Cs3 O12 3.126905 1_555
Cs3 O15 3.174348 1_655
Cs3 O11 3.261183 1_555
Cs3 O2 3.303750 1_655
Cs3 O18 3.483494 1_555
Cs3 O24 3.639966 1_555
O0 Si0 1.610773 1_555
O0 Si5 1.626056 1_545
O1 Si1 1.615915 1_555
O1 Si0 1.616877 1_555
O2 Si2 1.618304 1_465
O2 Si5 1.627962 1_555
O3 Si9 1.583963 1_555
O3 Ti1 1.954625 1_655
O4 Si3 1.610728 1_555
O4 Si9 1.626037 1_555
O5 Si8 1.610773 1_555
O5 Si11 1.626056 1_565
O6 Si7 1.618192 1_555
O6 Si9 1.627834 1_555
O7 Si5 1.611460 1_555
O7 Si6 1.611488 1_555
O8 Si8 1.589585 1_555
O8 Ti0 1.964895 1_556
O9 Si11 1.583983 1_555
O9 Ti0 1.954698 1_556
O10 Si11 1.611460 1_555
O10 Si9 1.611488 1_555
O11 Si2 1.589986 1_555
O11 Ti0 1.954459 1_555
O12 Si5 1.583983 1_555
O12 Ti0 1.954698 1_555
O13 Si7 1.634844 1_455
O13 Si3 1.640435 1_555
O14 Si4 1.615863 1_555
O14 Si3 1.616871 1_555
O15 Si0 1.589585 1_555
O15 Ti0 1.964895 1_555
O16 Si7 1.589963 1_555
O16 Ti1 1.954617 1_665
O17 Si4 1.618308 1_645
O17 Si11 1.627962 1_555
O18 Si2 1.615860 1_555
O18 Si10 1.616871 1_555
O19 Si10 1.610728 1_555
O19 Si6 1.626037 1_555
O20 Si3 1.589575 1_555
O20 Ti1 1.964979 1_565
O21 Si1 1.589963 1_555
O21 Ti1 1.954617 1_555
O22 Si2 1.634893 1_555
O22 Si0 1.640528 1_555
O23 Si6 1.583963 1_555
O23 Ti1 1.954625 1_565
O24 Si1 1.634844 1_655
O24 Si10 1.640435 1_555
O25 Si1 1.618192 1_555
O25 Si6 1.627834 1_555
O26 Si4 1.634887 1_555
O26 Si8 1.640528 1_555
O27 Si7 1.615915 1_555
O27 Si8 1.616877 1_555
O28 Si10 1.589575 1_555
O28 Ti1 1.964974 1_655
O29 Si4 1.589986 1_555
O29 Ti0 1.954453 1_556
