# generated using pymatgen
data_CdI2
_symmetry_space_group_name_H-M   'P 1'
_cell_length_a   4.28536610
_cell_length_b   4.28536611
_cell_length_c   92.44578780
_cell_angle_alpha   90.00000000
_cell_angle_beta   90.00000000
_cell_angle_gamma   119.99999194
_symmetry_Int_Tables_number   1
_chemical_formula_structural   CdI2
_chemical_formula_sum   'Cd13 I26'
_cell_volume   1470.25835135
_cell_formula_units_Z   13
loop_
 _symmetry_equiv_pos_site_id
 _symmetry_equiv_pos_as_xyz
  1  'x, y, z'
loop_
 _atom_site_type_symbol
 _atom_site_label
 _atom_site_symmetry_multiplicity
 _atom_site_fract_x
 _atom_site_fract_y
 _atom_site_fract_z
 _atom_site_occupancy
  Cd  Cd0  1  0.66666700  0.33333300  0.71160694  1
  Cd  Cd1  1  -0.00000000  -0.00000000  0.86524039  1
  Cd  Cd2  1  0.66666700  0.33333300  0.17299708  1
  Cd  Cd3  1  0.66666700  0.33333300  0.40366803  1
  Cd  Cd4  1  0.66666700  0.33333300  0.32695126  1
  Cd  Cd5  1  0.00000000  -0.00000000  0.94217542  1
  Cd  Cd6  1  0.66666700  0.33333300  0.78865735  1
  Cd  Cd7  1  -0.00000000  -0.00000000  0.48078012  1
  Cd  Cd8  1  -0.00000000  -0.00000000  0.09608141  1
  Cd  Cd9  1  0.00000000  -0.00000000  0.63476375  1
  Cd  Cd10  1  0.00000000  -0.00000000  0.25007086  1
  Cd  Cd11  1  0.66666700  0.33333300  0.55781890  1
  Cd  Cd12  1  0.66666700  0.33333300  0.01911596  1
  I  I0  1  0.33333300  0.66666700  0.80729771  1
  I  I1  1  0.66666700  0.33333300  0.92353751  1
  I  I2  1  -0.00000000  -0.00000000  0.53918522  1
  I  I3  1  -0.00000000  -0.00000000  0.30832414  1
  I  I4  1  0.33333300  0.66666700  0.65340082  1
  I  I5  1  -0.00000000  -0.00000000  0.15436458  1
  I  I6  1  0.33333300  0.66666700  0.34561612  1
  I  I7  1  0.33333300  0.66666700  0.88389291  1
  I  I8  1  0.33333300  0.66666700  0.03781295  1
  I  I9  1  0.33333300  0.66666700  0.96080914  1
  I  I10  1  0.66666700  0.33333300  0.23145872  1
  I  I11  1  0.66666700  0.33333300  0.07745688  1
  I  I12  1  -0.00000000  -0.00000000  0.77005205  1
  I  I13  1  -0.00000000  -0.00000000  0.69303259  1
  I  I14  1  0.33333300  0.66666700  0.42220893  1
  I  I15  1  0.66666700  0.33333300  0.84665199  1
  I  I16  1  0.33333300  0.66666700  0.26869848  1
  I  I17  1  -0.00000000  -0.00000000  0.00043423  1
  I  I18  1  0.33333300  0.66666700  0.11474939  1
  I  I19  1  0.33333300  0.66666700  0.19157916  1
  I  I20  1  0.33333300  0.66666700  0.73017902  1
  I  I21  1  0.66666700  0.33333300  0.46216608  1
  I  I22  1  0.66666700  0.33333300  0.61610804  1
  I  I23  1  0.33333300  0.66666700  0.57648477  1
  I  I24  1  -0.00000000  -0.00000000  0.38516960  1
  I  I25  1  0.33333300  0.66666700  0.49940252  1
loop_
_geom_bond_atom_site_label_1
_geom_bond_atom_site_label_2
_geom_bond_distance
_geom_bond_site_symmetry_2
Cd0 I20 3.011515 1_655
Cd0 I20 3.011515 1_545
Cd0 I20 3.011521 1_555
Cd0 I13 3.011635 1_655
Cd0 I13 3.011638 1_555
Cd0 I13 3.011638 1_665
Cd1 I15 3.012376 1_455
Cd1 I15 3.012379 1_555
Cd1 I15 3.012379 1_445
Cd1 I7 3.015761 1_545
Cd1 I7 3.015764 1_445
Cd1 I7 3.015764 1_555
Cd2 I19 3.012043 1_655
Cd2 I19 3.012043 1_545
Cd2 I19 3.012048 1_555
Cd2 I5 3.014703 1_655
Cd2 I5 3.014706 1_555
Cd2 I5 3.014706 1_665
Cd3 I24 3.007639 1_655
Cd3 I24 3.007642 1_555
Cd3 I24 3.007642 1_665
Cd3 I14 3.009873 1_655
Cd3 I14 3.009873 1_545
Cd3 I14 3.009879 1_555
Cd4 I3 3.014419 1_655
Cd4 I3 3.014422 1_555
Cd4 I3 3.014422 1_665
Cd4 I6 3.016414 1_655
Cd4 I6 3.016414 1_545
Cd4 I6 3.016419 1_555
Cd5 I9 3.014767 1_545
Cd5 I9 3.014771 1_445
Cd5 I9 3.014771 1_555
Cd5 I1 3.014989 1_455
Cd5 I1 3.014992 1_555
Cd5 I1 3.014992 1_445
Cd6 I12 3.013267 1_655
Cd6 I12 3.013270 1_555
Cd6 I12 3.013270 1_665
Cd6 I0 3.015119 1_655
Cd6 I0 3.015119 1_545
Cd6 I0 3.015124 1_555
Cd7 I21 3.013728 1_455
Cd7 I21 3.013732 1_555
Cd7 I21 3.013732 1_445
Cd7 I25 3.014170 1_545
Cd7 I25 3.014173 1_445
Cd7 I25 3.014173 1_555
Cd8 I11 3.014282 1_455
Cd8 I11 3.014285 1_555
Cd8 I11 3.014285 1_445
Cd8 I18 3.016578 1_545
Cd8 I18 3.016582 1_445
Cd8 I18 3.016582 1_555
Cd9 I4 3.014944 1_545
Cd9 I4 3.014948 1_445
Cd9 I4 3.014948 1_555
Cd9 I22 3.015930 1_455
Cd9 I22 3.015933 1_555
Cd9 I22 3.015933 1_445
Cd10 I10 3.013628 1_455
Cd10 I10 3.013631 1_555
Cd10 I10 3.013631 1_445
Cd10 I16 3.014445 1_545
Cd10 I16 3.014449 1_445
Cd10 I16 3.014449 1_555
Cd11 I2 3.014765 1_655
Cd11 I2 3.014769 1_555
Cd11 I2 3.014769 1_665
Cd11 I23 3.016467 1_655
Cd11 I23 3.016467 1_545
Cd11 I23 3.016473 1_555
Cd12 I17 3.017306 1_655
Cd12 I17 3.017309 1_555
Cd12 I17 3.017309 1_665
Cd12 I8 3.018114 1_655
Cd12 I8 3.018114 1_545
Cd12 I8 3.018119 1_555
