# generated using pymatgen
data_PS2N3(Cl2O)2
_symmetry_space_group_name_H-M   'P 1'
_cell_length_a   8.05895700
_cell_length_b   11.51366200
_cell_length_c   15.07702797
_cell_angle_alpha   52.78850001
_cell_angle_beta   90.00000000
_cell_angle_gamma   90.00000000
_symmetry_Int_Tables_number   1
_chemical_formula_structural   PS2N3(Cl2O)2
_chemical_formula_sum   'P4 S8 N12 Cl16 O8'
_cell_volume   1114.15078196
_cell_formula_units_Z   4
loop_
 _symmetry_equiv_pos_site_id
 _symmetry_equiv_pos_as_xyz
  1  'x, y, z'
loop_
 _atom_site_type_symbol
 _atom_site_label
 _atom_site_symmetry_multiplicity
 _atom_site_fract_x
 _atom_site_fract_y
 _atom_site_fract_z
 _atom_site_occupancy
  P  P0  1  0.15819300  0.12200300  0.82919500  1
  P  P1  1  0.34180700  0.12200300  0.32919500  1
  P  P2  1  0.65819300  0.87799700  0.67080500  1
  P  P3  1  0.84180700  0.87799700  0.17080500  1
  S  S0  1  0.58058900  0.68761800  0.27908300  1
  S  S1  1  0.64160100  0.81035000  0.05713900  1
  S  S2  1  0.35839900  0.18965000  0.94286100  1
  S  S3  1  0.14160100  0.18965000  0.44286100  1
  S  S4  1  0.91941100  0.68761800  0.77908300  1
  S  S5  1  0.85839900  0.81035000  0.55713900  1
  S  S6  1  0.08058900  0.31238200  0.22091700  1
  S  S7  1  0.41941100  0.31238200  0.72091700  1
  N  N0  1  0.21099800  0.20793100  0.22754000  1
  N  N1  1  0.28872000  0.10469500  0.43963400  1
  N  N2  1  0.01984400  0.26727500  0.33825000  1
  N  N3  1  0.78872000  0.89530500  0.06036600  1
  N  N4  1  0.78900200  0.79206900  0.77246000  1
  N  N5  1  0.21128000  0.10469500  0.93963400  1
  N  N6  1  0.98015600  0.73272500  0.66175000  1
  N  N7  1  0.71099800  0.79206900  0.27246000  1
  N  N8  1  0.48015600  0.26727500  0.83825000  1
  N  N9  1  0.51984400  0.73272500  0.16175000  1
  N  N10  1  0.28900200  0.20793100  0.72754000  1
  N  N11  1  0.71128000  0.89530500  0.56036600  1
  Cl  Cl0  1  0.20119700  0.51064800  0.14392300  1
  Cl  Cl1  1  0.87379800  0.07383200  0.13218400  1
  Cl  Cl2  1  0.24903300  0.35755400  0.43508200  1
  Cl  Cl3  1  0.12620200  0.92616800  0.86781600  1
  Cl  Cl4  1  0.62620200  0.07383200  0.63218400  1
  Cl  Cl5  1  0.56496200  0.21517700  0.27810000  1
  Cl  Cl6  1  0.43503800  0.78482300  0.72190000  1
  Cl  Cl7  1  0.79880300  0.48935200  0.85607700  1
  Cl  Cl8  1  0.25096700  0.35755400  0.93508200  1
  Cl  Cl9  1  0.29880300  0.51064800  0.64392300  1
  Cl  Cl10  1  0.06496200  0.78482300  0.22190000  1
  Cl  Cl11  1  0.93503800  0.21517700  0.77810000  1
  Cl  Cl12  1  0.75096700  0.64244600  0.56491800  1
  Cl  Cl13  1  0.74903300  0.64244600  0.06491800  1
  Cl  Cl14  1  0.37379800  0.92616800  0.36781600  1
  Cl  Cl15  1  0.70119700  0.48935200  0.35607700  1
  O  O0  1  0.04883200  0.10774200  0.54444200  1
  O  O1  1  0.55909600  0.33980900  0.65203400  1
  O  O2  1  0.94090400  0.33980900  0.15203400  1
  O  O3  1  0.05909600  0.66019100  0.84796600  1
  O  O4  1  0.54883200  0.89225800  0.95555800  1
  O  O5  1  0.95116800  0.89225800  0.45555800  1
  O  O6  1  0.44090400  0.66019100  0.34796600  1
  O  O7  1  0.45116800  0.10774200  0.04444200  1
loop_
_geom_bond_atom_site_label_1
_geom_bond_atom_site_label_2
_geom_bond_distance
_geom_bond_site_symmetry_2
N0 S6 1.554195 1_555
N0 P1 1.614038 1_555
N1 S3 1.556406 1_555
N1 P1 1.610571 1_555
N2 S6 1.589847 1_555
N2 S3 1.595072 1_555
N3 S1 1.556406 1_555
N3 P3 1.610571 1_555
N4 S4 1.554195 1_555
N4 P2 1.614038 1_555
N5 S2 1.556406 1_555
N5 P0 1.610571 1_555
N6 S4 1.589847 1_555
N6 S5 1.595072 1_555
N7 S0 1.554195 1_555
N7 P3 1.614038 1_555
N8 S7 1.589847 1_555
N8 S2 1.595072 1_555
N9 S0 1.589847 1_555
N9 S1 1.595072 1_555
N10 S7 1.554195 1_555
N10 P0 1.614038 1_555
N11 S5 1.556406 1_555
N11 P2 1.610571 1_555
Cl0 S6 2.073204 1_555
Cl1 P3 1.975231 1_545
Cl2 S3 2.055805 1_555
Cl3 P0 1.975231 1_565
Cl4 P2 1.975231 1_545
Cl5 P1 1.994732 1_555
Cl6 P2 1.994732 1_555
Cl7 S4 2.073204 1_555
Cl8 S2 2.055805 1_555
Cl9 S7 2.073204 1_555
Cl10 P3 1.994732 1_455
Cl11 P0 1.994732 1_655
Cl12 S5 2.055805 1_555
Cl13 S1 2.055805 1_555
Cl14 P1 1.975231 1_565
Cl15 S0 2.073204 1_555
O0 S3 1.430722 1_555
O1 S7 1.431388 1_555
O2 S6 1.431388 1_655
O3 S4 1.431388 1_455
O4 S1 1.430722 1_556
O5 S5 1.430722 1_555
O6 S0 1.431388 1_555
O7 S2 1.430722 1_554
