# generated using pymatgen
data_Na3VSO3
_symmetry_space_group_name_H-M   'P 1'
_cell_length_a   6.48428442
_cell_length_b   6.48428442
_cell_length_c   6.48428519
_cell_angle_alpha   83.84708749
_cell_angle_beta   83.84708749
_cell_angle_gamma   83.84708543
_symmetry_Int_Tables_number   1
_chemical_formula_structural   Na3VSO3
_chemical_formula_sum   'Na6 V2 S2 O6'
_cell_volume   268.24001249
_cell_formula_units_Z   2
loop_
 _symmetry_equiv_pos_site_id
 _symmetry_equiv_pos_as_xyz
  1  'x, y, z'
loop_
 _atom_site_type_symbol
 _atom_site_label
 _atom_site_symmetry_multiplicity
 _atom_site_fract_x
 _atom_site_fract_y
 _atom_site_fract_z
 _atom_site_occupancy
  Na  Na0  1  0.09378400  0.70652500  0.39736000  1
  Na  Na1  1  0.20652500  0.59378400  0.89736000  1
  Na  Na2  1  0.89736000  0.20652500  0.59378400  1
  Na  Na3  1  0.70652500  0.39736000  0.09378400  1
  Na  Na4  1  0.39736000  0.09378400  0.70652500  1
  Na  Na5  1  0.59378400  0.89736000  0.20652500  1
  V  V0  1  0.68162900  0.68162900  0.68162900  1
  V  V1  1  0.18162900  0.18162900  0.18162900  1
  S  S0  1  0.49985900  0.49985900  0.49985900  1
  S  S1  1  0.99985900  0.99985900  0.99985900  1
  O  O0  1  0.91615500  0.53730400  0.72157400  1
  O  O1  1  0.53730400  0.72157400  0.91615500  1
  O  O2  1  0.72157400  0.91615500  0.53730400  1
  O  O3  1  0.41615500  0.22157400  0.03730400  1
  O  O4  1  0.03730400  0.41615500  0.22157400  1
  O  O5  1  0.22157400  0.03730400  0.41615500  1
loop_
_geom_bond_atom_site_label_1
_geom_bond_atom_site_label_2
_geom_bond_distance
_geom_bond_site_symmetry_2
Na0 O4 2.382400 1_555
Na0 O5 2.400123 1_565
Na0 O0 2.491518 1_455
Na0 O2 2.754608 1_455
Na0 S0 2.932340 1_555
Na0 S1 3.109592 1_454
Na1 O0 2.382400 1_455
Na1 O1 2.400123 1_555
Na1 O4 2.491518 1_556
Na1 O3 2.754608 1_556
Na1 S1 2.932340 1_455
Na1 S0 3.109592 1_555
Na2 O2 2.382400 1_545
Na2 O0 2.400124 1_555
Na2 O5 2.491518 1_655
Na2 O4 2.754608 1_655
Na2 S1 2.932341 1_545
Na2 S0 3.109592 1_555
Na3 O3 2.382400 1_555
Na3 O4 2.400124 1_655
Na3 O1 2.491518 1_554
Na3 O0 2.754608 1_554
Na3 S0 2.932341 1_555
Na3 S1 3.109592 1_544
Na4 O5 2.382400 1_555
Na4 O3 2.400124 1_556
Na4 O2 2.491518 1_545
Na4 O1 2.754608 1_545
Na4 S0 2.932341 1_555
Na4 S1 3.109592 1_445
Na5 O1 2.382400 1_554
Na5 O2 2.400124 1_555
Na5 O3 2.491518 1_565
Na5 O5 2.754608 1_565
Na5 S1 2.932341 1_554
Na5 S0 3.109592 1_555
S0 V0 2.249673 1_555
S1 V1 2.249673 1_666
O0 V0 1.727113 1_555
O1 V0 1.727114 1_555
O2 V0 1.727114 1_555
O3 V1 1.727114 1_555
O4 V1 1.727113 1_555
O5 V1 1.727114 1_555
