# generated using pymatgen
data_Ba2Li3TaN4
_symmetry_space_group_name_H-M   'P 1'
_cell_length_a   6.36165554
_cell_length_b   6.36165554
_cell_length_c   11.13461078
_cell_angle_alpha   64.45389327
_cell_angle_beta   64.45389327
_cell_angle_gamma   53.41908092
_symmetry_Int_Tables_number   1
_chemical_formula_structural   Ba2Li3TaN4
_chemical_formula_sum   'Ba4 Li6 Ta2 N8'
_cell_volume   316.90146618
_cell_formula_units_Z   2
loop_
 _symmetry_equiv_pos_site_id
 _symmetry_equiv_pos_as_xyz
  1  'x, y, z'
loop_
 _atom_site_type_symbol
 _atom_site_label
 _atom_site_symmetry_multiplicity
 _atom_site_fract_x
 _atom_site_fract_y
 _atom_site_fract_z
 _atom_site_occupancy
  Ba  Ba0  1  0.06533700  0.62872400  0.11171700  1
  Ba  Ba1  1  0.93466300  0.37127600  0.88828300  1
  Ba  Ba2  1  0.37127600  0.93466300  0.38828300  1
  Ba  Ba3  1  0.62872400  0.06533700  0.61171700  1
  Li  Li0  1  0.38436200  0.61563800  0.25000000  1
  Li  Li1  1  0.61563800  0.38436200  0.75000000  1
  Li  Li2  1  0.53033200  0.11735000  0.04235600  1
  Li  Li3  1  0.88265000  0.46966800  0.45764400  1
  Li  Li4  1  0.11735000  0.53033200  0.54235600  1
  Li  Li5  1  0.46966800  0.88265000  0.95764400  1
  Ta  Ta0  1  0.86253200  0.13746800  0.25000000  1
  Ta  Ta1  1  0.13746800  0.86253200  0.75000000  1
  N  N0  1  0.07002100  0.20659400  0.61272900  1
  N  N1  1  0.73631400  0.41740200  0.33764300  1
  N  N2  1  0.26368600  0.58259800  0.66235700  1
  N  N3  1  0.58259800  0.26368600  0.16235700  1
  N  N4  1  0.20659400  0.07002100  0.11272900  1
  N  N5  1  0.41740200  0.73631400  0.83764300  1
  N  N6  1  0.92997900  0.79340600  0.38727100  1
  N  N7  1  0.79340600  0.92997900  0.88727100  1
loop_
_geom_bond_atom_site_label_1
_geom_bond_atom_site_label_2
_geom_bond_distance
_geom_bond_site_symmetry_2
Ba0 N3 2.811009 1_555
Ba0 N1 2.900443 1_455
Ba0 N7 2.925305 1_454
Ba0 N5 2.988048 1_554
Ba0 N4 3.099643 1_555
Ba1 N5 2.811009 1_555
Ba1 N2 2.900443 1_655
Ba1 N4 2.925305 1_656
Ba1 N3 2.988048 1_556
Ba1 N7 3.099643 1_555
Ba2 N1 2.811009 1_555
Ba2 N3 2.900443 1_565
Ba2 N0 2.925305 1_565
Ba2 N2 2.988048 1_555
Ba2 N6 3.099643 1_555
Ba3 N2 2.811009 1_555
Ba3 N5 2.900443 1_545
Ba3 N6 2.925305 1_545
Ba3 N1 2.988048 1_555
Ba3 N0 3.099643 1_555
Li0 N1 2.239055 1_555
Li0 N3 2.239055 1_555
Li0 N6 2.398895 1_455
Li0 N4 2.398895 1_565
Li1 N5 2.239055 1_555
Li1 N2 2.239055 1_555
Li1 N7 2.398895 1_545
Li1 N0 2.398895 1_655
Li2 N4 2.022376 1_555
Li2 N7 2.026969 1_544
Li2 N3 2.141839 1_555
Li3 N6 2.022376 1_555
Li3 N0 2.026969 1_655
Li3 N1 2.141839 1_555
Li4 N0 2.022376 1_555
Li4 N6 2.026969 1_455
Li4 N2 2.141839 1_555
Li5 N7 2.022376 1_555
Li5 N4 2.026969 1_566
Li5 N5 2.141839 1_555
N0 Ta1 1.967735 1_545
N1 Ta0 1.971587 1_555
N2 Ta1 1.971587 1_555
N3 Ta0 1.971587 1_555
N4 Ta0 1.967735 1_455
N5 Ta1 1.971587 1_555
N6 Ta0 1.967735 1_565
N7 Ta1 1.967735 1_655
