# generated using pymatgen
data_Yb6Co30P19
_symmetry_space_group_name_H-M   'P 1'
_cell_length_a   14.65353649
_cell_length_b   14.65353649
_cell_length_c   3.54498600
_cell_angle_alpha   90.00000000
_cell_angle_beta   90.00000000
_cell_angle_gamma   120.00000222
_symmetry_Int_Tables_number   1
_chemical_formula_structural   Yb6Co30P19
_chemical_formula_sum   'Yb6 Co30 P19'
_cell_volume   659.21950193
_cell_formula_units_Z   1
loop_
 _symmetry_equiv_pos_site_id
 _symmetry_equiv_pos_as_xyz
  1  'x, y, z'
loop_
 _atom_site_type_symbol
 _atom_site_label
 _atom_site_symmetry_multiplicity
 _atom_site_fract_x
 _atom_site_fract_y
 _atom_site_fract_z
 _atom_site_occupancy
  Yb  Yb0  1  0.29532300  0.39246400  0.00000000  1
  Yb  Yb1  1  0.90320000  0.29634800  0.50000000  1
  Yb  Yb2  1  0.70365200  0.60685200  0.50000000  1
  Yb  Yb3  1  0.39314800  0.09680000  0.50000000  1
  Yb  Yb4  1  0.09714100  0.70467700  0.00000000  1
  Yb  Yb5  1  0.60753600  0.90285900  0.00000000  1
  Co  Co0  1  0.07419100  0.53623600  0.50000000  1
  Co  Co1  1  0.77514900  0.04690900  0.50000000  1
  Co  Co2  1  0.22297100  0.94866000  0.00000000  1
  Co  Co3  1  0.58296500  0.73417700  0.50000000  1
  Co  Co4  1  0.05134000  0.27431100  0.00000000  1
  Co  Co5  1  0.27176000  0.22485100  0.50000000  1
  Co  Co6  1  0.77448100  0.42632700  0.50000000  1
  Co  Co7  1  0.02401200  0.88781800  0.00000000  1
  Co  Co8  1  0.53594300  0.46225500  0.00000000  1
  Co  Co9  1  0.72568900  0.77702900  0.00000000  1
  Co  Co10  1  0.22585900  0.57370000  0.00000000  1
  Co  Co11  1  0.42630000  0.65216000  0.00000000  1
  Co  Co12  1  0.97238600  0.12963900  0.50000000  1
  Co  Co13  1  0.34784000  0.77414100  0.00000000  1
  Co  Co14  1  0.26582300  0.84878800  0.50000000  1
  Co  Co15  1  0.15121200  0.41703500  0.50000000  1
  Co  Co16  1  0.46376400  0.53795500  0.50000000  1
  Co  Co17  1  0.87036100  0.84274700  0.50000000  1
  Co  Co18  1  0.15725300  0.02761400  0.50000000  1
  Co  Co19  1  0.65184600  0.22551900  0.50000000  1
  Co  Co20  1  0.84935400  0.58419200  0.00000000  1
  Co  Co21  1  0.57367300  0.34815400  0.50000000  1
  Co  Co22  1  0.95309100  0.72824000  0.50000000  1
  Co  Co23  1  0.11218200  0.13619400  0.00000000  1
  Co  Co24  1  0.53774500  0.07368700  0.00000000  1
  Co  Co25  1  0.73483800  0.15064600  0.00000000  1
  Co  Co26  1  0.86380600  0.97598800  0.00000000  1
  Co  Co27  1  0.46204500  0.92580900  0.50000000  1
  Co  Co28  1  0.92631300  0.46405700  0.00000000  1
  Co  Co29  1  0.41580800  0.26516200  0.00000000  1
  P  P0  1  0.56662200  0.62946700  0.00000000  1
  P  P1  1  0.45102400  0.76844800  0.50000000  1
  P  P2  1  0.43226300  0.37040500  0.50000000  1
  P  P3  1  0.23155200  0.68257700  0.50000000  1
  P  P4  1  0.13691800  0.25653600  0.50000000  1
  P  P5  1  0.54867500  0.23152300  0.00000000  1
  P  P6  1  0.86443700  0.74439300  0.00000000  1
  P  P7  1  0.11961800  0.86308200  0.50000000  1
  P  P8  1  0.31742300  0.54897600  0.50000000  1
  P  P9  1  0.62959500  0.06185800  0.50000000  1
  P  P10  1  0.93814200  0.56773700  0.50000000  1
  P  P11  1  0.37053300  0.93715500  0.00000000  1
  P  P12  1  0.25560700  0.12004400  0.00000000  1
  P  P13  1  0.74346400  0.88038200  0.50000000  1
  P  P14  1  0.68284800  0.45132500  0.00000000  1
  P  P15  1  0.76847700  0.31715200  0.00000000  1
  P  P16  1  0.00000000  0.00000000  0.50000000  1
  P  P17  1  0.87995600  0.13556300  0.00000000  1
  P  P18  1  0.06284500  0.43337800  0.00000000  1
loop_
_geom_bond_atom_site_label_1
_geom_bond_atom_site_label_2
_geom_bond_distance
_geom_bond_site_symmetry_2
Co0 P3 2.229544 1_555
Co0 P10 2.260035 1_455
Co0 P18 2.278275 1_556
Co0 P18 2.278275 1_555
Co0 Yb4 2.918398 1_555
Co0 Yb4 2.918398 1_556
Co1 P13 2.244373 1_545
Co1 P9 2.250419 1_555
Co1 P17 2.278793 1_556
Co1 P17 2.278793 1_555
Co1 Yb5 2.906104 1_546
Co1 Yb5 2.906104 1_545
Co2 P11 2.251339 1_555
Co2 P7 2.260259 1_555
Co2 P7 2.260259 1_554
Co2 P12 2.309701 1_565
Co2 Yb3 2.942662 1_565
Co2 Yb3 2.942662 1_564
Co3 P1 2.227370 1_555
Co3 P13 2.254459 1_555
Co3 P0 2.277263 1_555
Co3 P0 2.277263 1_556
Co3 Yb5 2.913955 1_556
Co3 Yb5 2.913955 1_555
Co4 P18 2.251339 1_555
Co4 P4 2.260259 1_555
Co4 P4 2.260259 1_554
Co4 P17 2.309701 1_455
Co4 Yb1 2.942662 1_455
Co4 Yb1 2.942662 1_454
Co5 P4 2.244373 1_555
Co5 P2 2.250419 1_555
Co5 P12 2.278793 1_555
Co5 P12 2.278793 1_556
Co5 Yb0 2.906104 1_555
Co5 Yb0 2.906104 1_556
Co6 P10 2.252950 1_555
Co6 P15 2.359678 1_555
Co6 P15 2.359678 1_556
Co6 P14 2.360243 1_556
Co6 P14 2.360243 1_555
Co7 P6 2.229451 1_455
Co7 P7 2.396587 1_555
Co7 P7 2.396587 1_554
Co7 P16 2.558561 1_564
Co7 P16 2.558561 1_565
Co8 P14 2.237064 1_555
Co8 P0 2.259267 1_555
Co8 P2 2.283992 1_554
Co8 P2 2.283992 1_555
Co8 Yb2 2.909224 1_555
Co8 Yb2 2.909224 1_554
Co9 P0 2.251339 1_555
Co9 P13 2.260259 1_555
Co9 P13 2.260259 1_554
Co9 P6 2.309701 1_555
Co9 Yb2 2.942662 1_555
Co9 Yb2 2.942662 1_554
Co10 P18 2.241051 1_555
Co10 P8 2.357827 1_554
Co10 P8 2.357827 1_555
Co10 P3 2.358178 1_555
Co10 P3 2.358178 1_554
Co11 P0 2.241060 1_555
Co11 P1 2.357827 1_554
Co11 P1 2.357827 1_555
Co11 P8 2.358178 1_555
Co11 P8 2.358178 1_554
Co12 P16 2.131002 1_655
Co12 P4 2.187995 1_655
Co12 P17 2.258608 1_555
Co12 P17 2.258608 1_556
Co13 P11 2.241046 1_555
Co13 P3 2.357827 1_555
Co13 P3 2.357827 1_554
Co13 P1 2.358178 1_554
Co13 P1 2.358178 1_555
Co14 P3 2.227356 1_555
Co14 P7 2.254459 1_555
Co14 P11 2.277263 1_555
Co14 P11 2.277263 1_556
Co14 Yb4 2.913955 1_555
Co14 Yb4 2.913955 1_556
Co15 P8 2.227361 1_555
Co15 P4 2.254459 1_555
Co15 P18 2.277263 1_555
Co15 P18 2.277263 1_556
Co15 Yb0 2.913955 1_555
Co15 Yb0 2.913955 1_556
Co16 P8 2.229553 1_555
Co16 P2 2.260035 1_555
Co16 P0 2.278275 1_555
Co16 P0 2.278275 1_556
Co16 Yb0 2.918398 1_555
Co16 Yb0 2.918398 1_556
Co17 P16 2.131002 1_665
Co17 P13 2.187995 1_555
Co17 P6 2.258608 1_556
Co17 P6 2.258608 1_555
Co18 P16 2.131002 1_555
Co18 P7 2.187995 1_545
Co18 P12 2.258608 1_555
Co18 P12 2.258608 1_556
Co19 P9 2.252950 1_555
Co19 P5 2.359678 1_556
Co19 P5 2.359678 1_555
Co19 P15 2.360243 1_555
Co19 P15 2.360243 1_556
Co20 P14 2.234591 1_555
Co20 P6 2.245176 1_555
Co20 P10 2.281741 1_554
Co20 P10 2.281741 1_555
Co20 Yb2 2.918795 1_555
Co20 Yb2 2.918795 1_554
Co21 P2 2.252950 1_555
Co21 P14 2.359678 1_556
Co21 P14 2.359678 1_555
Co21 P5 2.360243 1_556
Co21 P5 2.360243 1_555
Co22 P7 2.244373 1_655
Co22 P10 2.250419 1_555
Co22 P6 2.278793 1_556
Co22 P6 2.278793 1_555
Co22 Yb4 2.906104 1_656
Co22 Yb4 2.906104 1_655
Co23 P12 2.229451 1_555
Co23 P4 2.396587 1_555
Co23 P4 2.396587 1_554
Co23 P16 2.558561 1_554
Co23 P16 2.558561 1_555
Co24 P5 2.237078 1_555
Co24 P11 2.259262 1_545
Co24 P9 2.283987 1_555
Co24 P9 2.283987 1_554
Co24 Yb3 2.909231 1_555
Co24 Yb3 2.909231 1_554
Co25 P15 2.234592 1_555
Co25 P17 2.245176 1_555
Co25 P9 2.281741 1_555
Co25 P9 2.281741 1_554
Co25 Yb1 2.918795 1_554
Co25 Yb1 2.918795 1_555
Co26 P17 2.229451 1_565
Co26 P13 2.396587 1_554
Co26 P13 2.396587 1_555
Co26 P16 2.558561 1_664
Co26 P16 2.558561 1_665
Co27 P1 2.229538 1_555
Co27 P9 2.260035 1_565
Co27 P11 2.278275 1_556
Co27 P11 2.278275 1_555
Co27 Yb5 2.918398 1_555
Co27 Yb5 2.918398 1_556
Co28 P15 2.237072 1_555
Co28 P18 2.259253 1_655
Co28 P10 2.283996 1_554
Co28 P10 2.283996 1_555
Co28 Yb1 2.909220 1_554
Co28 Yb1 2.909220 1_555
Co29 P5 2.234592 1_555
Co29 P12 2.245175 1_555
Co29 P2 2.281741 1_554
Co29 P2 2.281741 1_555
Co29 Yb3 2.918795 1_555
Co29 Yb3 2.918795 1_554
P0 Yb2 2.819385 1_554
P0 Yb2 2.819385 1_555
P1 Yb5 2.786359 1_556
P1 Yb5 2.786359 1_555
P2 Yb0 2.814519 1_555
P2 Yb0 2.814519 1_556
P3 Yb4 2.786352 1_555
P3 Yb4 2.786352 1_556
P4 Yb0 2.805998 1_555
P4 Yb0 2.805998 1_556
P5 Yb3 2.780978 1_555
P5 Yb3 2.780978 1_554
P6 Yb2 2.829543 1_554
P6 Yb2 2.829543 1_555
P7 Yb4 2.805999 1_556
P7 Yb4 2.805999 1_555
P8 Yb0 2.786363 1_555
P8 Yb0 2.786363 1_556
P9 Yb5 2.814519 1_545
P9 Yb5 2.814519 1_546
P10 Yb4 2.814519 1_656
P10 Yb4 2.814519 1_655
P11 Yb3 2.819385 1_565
P11 Yb3 2.819385 1_564
P12 Yb3 2.829543 1_554
P12 Yb3 2.829543 1_555
P13 Yb5 2.805999 1_556
P13 Yb5 2.805999 1_555
P14 Yb2 2.780978 1_554
P14 Yb2 2.780978 1_555
P15 Yb1 2.780978 1_555
P15 Yb1 2.780978 1_554
P17 Yb1 2.829543 1_555
P17 Yb1 2.829543 1_554
P18 Yb1 2.819385 1_455
P18 Yb1 2.819385 1_454
