# generated using pymatgen
data_Ce2Mo4O15
_symmetry_space_group_name_H-M   'P 1'
_cell_length_a   7.50708700
_cell_length_b   7.63853145
_cell_length_c   11.78130310
_cell_angle_alpha   90.18739935
_cell_angle_beta   95.97948895
_cell_angle_gamma   95.83187254
_symmetry_Int_Tables_number   1
_chemical_formula_structural   Ce2Mo4O15
_chemical_formula_sum   'Ce4 Mo8 O30'
_cell_volume   668.35795848
_cell_formula_units_Z   2
loop_
 _symmetry_equiv_pos_site_id
 _symmetry_equiv_pos_as_xyz
  1  'x, y, z'
loop_
 _atom_site_type_symbol
 _atom_site_label
 _atom_site_symmetry_multiplicity
 _atom_site_fract_x
 _atom_site_fract_y
 _atom_site_fract_z
 _atom_site_occupancy
  Ce  Ce0  1  0.74216800  0.58609000  0.77577500  1
  Ce  Ce1  1  0.81400500  0.10091500  0.23065900  1
  Ce  Ce2  1  0.25783200  0.41391000  0.22422500  1
  Ce  Ce3  1  0.18599500  0.89908500  0.76934100  1
  Mo  Mo0  1  0.77458000  0.57763500  0.12879800  1
  Mo  Mo1  1  0.06960400  0.24115100  0.52301700  1
  Mo  Mo2  1  0.22542000  0.42236500  0.87120200  1
  Mo  Mo3  1  0.59969200  0.33337200  0.47322500  1
  Mo  Mo4  1  0.72807900  0.08197900  0.87364800  1
  Mo  Mo5  1  0.27192100  0.91802100  0.12635200  1
  Mo  Mo6  1  0.40030800  0.66662800  0.52677500  1
  Mo  Mo7  1  0.93039600  0.75884900  0.47698300  1
  O  O0  1  0.16367200  0.20597800  0.81211800  1
  O  O1  1  0.55040800  0.49958100  0.15354200  1
  O  O2  1  0.79247100  0.11432900  0.02288700  1
  O  O3  1  0.21619600  0.40289900  0.02140500  1
  O  O4  1  0.83632800  0.79402200  0.18788200  1
  O  O5  1  0.77059300  0.29051000  0.80412100  1
  O  O6  1  0.46114300  0.16764000  0.52474000  1
  O  O7  1  0.91285000  0.74111900  0.62914500  1
  O  O8  1  0.41350000  0.48111700  0.39658900  1
  O  O9  1  0.22940700  0.70949000  0.19587900  1
  O  O10  1  0.20776900  0.42319300  0.58713100  1
  O  O11  1  0.78380400  0.59710100  0.97859500  1
  O  O12  1  0.65182000  0.23606600  0.32656300  1
  O  O13  1  0.07179300  0.58381300  0.81759600  1
  O  O14  1  0.15586500  0.72045800  0.44731000  1
  O  O15  1  0.84685700  0.90691400  0.81907200  1
  O  O16  1  0.44959200  0.50041900  0.84645800  1
  O  O17  1  0.87422300  0.95897000  0.40653600  1
  O  O18  1  0.79223100  0.57680700  0.41286900  1
  O  O19  1  0.50517100  0.98832500  0.14970900  1
  O  O20  1  0.92820700  0.41618700  0.18240400  1
  O  O21  1  0.49482900  0.01167500  0.85029100  1
  O  O22  1  0.84413500  0.27954200  0.55269000  1
  O  O23  1  0.58650000  0.51888300  0.60341100  1
  O  O24  1  0.08715000  0.25888100  0.37085500  1
  O  O25  1  0.15314300  0.09308600  0.18092800  1
  O  O26  1  0.12577700  0.04103000  0.59346400  1
  O  O27  1  0.53885700  0.83236000  0.47526000  1
  O  O28  1  0.34818000  0.76393400  0.67343700  1
  O  O29  1  0.20752900  0.88567100  0.97711300  1
loop_
_geom_bond_atom_site_label_1
_geom_bond_atom_site_label_2
_geom_bond_distance
_geom_bond_site_symmetry_2
Ce0 O23 2.264879 1_555
Ce0 O5 2.311428 1_555
Ce0 O11 2.377423 1_555
Ce0 O16 2.457311 1_555
Ce0 O13 2.474089 1_655
Ce0 O7 2.488882 1_555
Ce0 O15 2.529884 1_555
Ce1 O12 2.087866 1_555
Ce1 O17 2.364856 1_545
Ce1 O4 2.422209 1_545
Ce1 O2 2.439476 1_555
Ce1 O19 2.480548 1_545
Ce1 O20 2.559030 1_555
Ce1 O24 2.677164 1_655
Ce1 O25 2.677712 1_655
Ce2 O8 2.264879 1_555
Ce2 O9 2.311428 1_555
Ce2 O3 2.377423 1_555
Ce2 O1 2.457311 1_555
Ce2 O20 2.474089 1_455
Ce2 O24 2.488882 1_555
Ce2 O25 2.529884 1_555
Ce3 O28 2.087866 1_555
Ce3 O26 2.364856 1_565
Ce3 O0 2.422209 1_565
Ce3 O29 2.439476 1_555
Ce3 O21 2.480548 1_565
Ce3 O13 2.559030 1_555
Ce3 O7 2.677164 1_455
Ce3 O15 2.677712 1_455
Mo0 O1 1.781006 1_555
Mo0 O11 1.784237 1_554
Mo0 O4 1.789124 1_555
Mo0 O20 1.841781 1_555
Mo1 O10 1.765432 1_555
Mo1 O26 1.808244 1_555
Mo1 O24 1.815628 1_555
Mo1 O22 1.815664 1_455
Mo2 O16 1.781006 1_555
Mo2 O3 1.784237 1_556
Mo2 O0 1.789124 1_555
Mo2 O13 1.841781 1_555
Mo3 O6 1.709310 1_555
Mo3 O12 1.970460 1_555
Mo3 O8 2.026536 1_555
Mo3 O22 2.052046 1_555
Mo3 O23 2.101465 1_555
Mo3 O18 2.393554 1_555
Mo4 O21 1.771372 1_555
Mo4 O2 1.783792 1_556
Mo4 O5 1.808243 1_555
Mo4 O15 1.831081 1_545
Mo5 O19 1.771372 1_555
Mo5 O29 1.783792 1_554
Mo5 O9 1.808243 1_555
Mo5 O25 1.831081 1_565
Mo6 O27 1.709310 1_555
Mo6 O28 1.970460 1_555
Mo6 O23 2.026536 1_555
Mo6 O14 2.052046 1_555
Mo6 O8 2.101465 1_555
Mo6 O10 2.393554 1_555
Mo7 O18 1.765432 1_555
Mo7 O17 1.808244 1_555
Mo7 O7 1.815628 1_555
Mo7 O14 1.815664 1_655
