# generated using pymatgen
data_La10S14O
_symmetry_space_group_name_H-M   'P 1'
_cell_length_a   14.92933413
_cell_length_b   14.92933413
_cell_length_c   14.92933413
_cell_angle_alpha   117.92453808
_cell_angle_beta   117.92453808
_cell_angle_gamma   93.63404172
_symmetry_Int_Tables_number   1
_chemical_formula_structural   La10S14O
_chemical_formula_sum   'La40 S56 O4'
_cell_volume   2421.45906138
_cell_formula_units_Z   4
loop_
 _symmetry_equiv_pos_site_id
 _symmetry_equiv_pos_as_xyz
  1  'x, y, z'
loop_
 _atom_site_type_symbol
 _atom_site_label
 _atom_site_symmetry_multiplicity
 _atom_site_fract_x
 _atom_site_fract_y
 _atom_site_fract_z
 _atom_site_occupancy
  La  La0  1  0.39401200  0.29971800  0.35041800  1
  La  La1  1  0.88462300  0.88462300  0.26924700  1
  La  La2  1  0.44930000  0.79971800  0.90570600  1
  La  La3  1  0.68910100  0.05051400  0.37387300  1
  La  La4  1  0.95640600  0.60598800  0.90570600  1
  La  La5  1  0.80051400  0.92664100  0.86141300  1
  La  La6  1  0.56522800  0.42664100  0.12612700  1
  La  La7  1  0.13462300  0.63462300  0.76924700  1
  La  La8  1  0.63462300  0.86537700  0.50000000  1
  La  La9  1  0.89401200  0.54359400  0.09429400  1
  La  La10  1  0.80070000  0.20640600  0.85041800  1
  La  La11  1  0.11537700  0.38462300  0.00000000  1
  La  La12  1  0.06089900  0.19948600  0.12612700  1
  La  La13  1  0.36537700  0.13462300  0.50000000  1
  La  La14  1  0.04971800  0.19930000  0.40570600  1
  La  La15  1  0.30051400  0.43910100  0.87387300  1
  La  La16  1  0.06522800  0.93910100  0.13858700  1
  La  La17  1  0.57335900  0.69948600  0.13858700  1
  La  La18  1  0.61537700  0.61537700  0.73075300  1
  La  La19  1  0.45640600  0.55070000  0.35041800  1
  La  La20  1  0.44948600  0.81089900  0.62612700  1
  La  La21  1  0.85598800  0.70640600  0.40570600  1
  La  La22  1  0.20028200  0.10598800  0.64958200  1
  La  La23  1  0.35598800  0.95028200  0.14958200  1
  La  La24  1  0.67664100  0.31522800  0.62612700  1
  La  La25  1  0.38462300  0.11537700  0.00000000  1
  La  La26  1  0.30070000  0.45028200  0.59429400  1
  La  La27  1  0.29359400  0.69930000  0.14958200  1
  La  La28  1  0.68477200  0.31089900  0.36141300  1
  La  La29  1  0.17664100  0.55051400  0.36141300  1
  La  La30  1  0.18910100  0.81522800  0.63858700  1
  La  La31  1  0.94948600  0.32335900  0.63858700  1
  La  La32  1  0.86537700  0.36537700  0.23075300  1
  La  La33  1  0.94930000  0.04359400  0.64958200  1
  La  La34  1  0.79359400  0.64401200  0.59429400  1
  La  La35  1  0.18477200  0.82335900  0.37387300  1
  La  La36  1  0.56089900  0.43477200  0.86141300  1
  La  La37  1  0.70028200  0.05070000  0.09429400  1
  La  La38  1  0.54971800  0.14401200  0.85041800  1
  La  La39  1  0.07335900  0.93477200  0.87387300  1
  S  S0  1  0.77232800  0.87500000  0.39732800  1
  S  S1  1  0.62500000  0.72767200  0.60267200  1
  S  S2  1  0.43891000  0.95947400  0.83483900  1
  S  S3  1  0.39592900  0.56109000  0.52056400  1
  S  S4  1  0.90237000  0.51064300  0.65761800  1
  S  S5  1  0.61774000  0.83497900  0.85923000  1
  S  S6  1  0.12463500  0.60407100  0.16516100  1
  S  S7  1  0.98935700  0.59763000  0.34238200  1
  S  S8  1  0.31109000  0.29052600  0.66516100  1
  S  S9  1  0.48935700  0.14697500  0.39172700  1
  S  S10  1  0.26064300  0.10302500  0.10827300  1
  S  S11  1  0.40237000  0.74475200  0.39172700  1
  S  S12  1  0.24149000  0.38226000  0.21723900  1
  S  S13  1  0.97574900  0.75851000  0.14077000  1
  S  S14  1  0.08497900  0.36774000  0.35923000  1
  S  S15  1  0.04052600  0.87536500  0.47943600  1
  S  S16  1  0.47767200  0.37500000  0.60267200  1
  S  S17  1  0.99475200  0.15237000  0.89172700  1
  S  S18  1  0.12500000  0.52232800  0.89732800  1
  S  S19  1  0.34763000  0.50524800  0.10827300  1
  S  S20  1  0.74149000  0.52425100  0.85923000  1
  S  S21  1  0.16502100  0.02425100  0.78276100  1
  S  S22  1  0.20947400  0.18891000  0.33483900  1
  S  S23  1  0.62500000  0.22767200  0.10267200  1
  S  S24  1  0.70947400  0.37463500  0.02056400  1
  S  S25  1  0.66502100  0.88226000  0.14077000  1
  S  S26  1  0.89592900  0.37536500  0.83483900  1
  S  S27  1  0.27425100  0.91502100  0.28276100  1
  S  S28  1  0.11774000  0.25851000  0.78276100  1
  S  S29  1  0.49475200  0.60302500  0.84238200  1
  S  S30  1  0.75524800  0.09763000  0.60827300  1
  S  S31  1  0.00851000  0.72574900  0.64077000  1
  S  S32  1  0.62463500  0.45947400  0.52056400  1
  S  S33  1  0.84763000  0.73935700  0.84238200  1
  S  S34  1  0.27232800  0.87500000  0.89732800  1
  S  S35  1  0.76064300  0.65237000  0.15761800  1
  S  S36  1  0.77425100  0.49149000  0.35923000  1
  S  S37  1  0.58497900  0.22574900  0.71723900  1
  S  S38  1  0.25524800  0.64697500  0.65761800  1
  S  S39  1  0.85407100  0.87463500  0.66516100  1
  S  S40  1  0.93891000  0.10407100  0.47943600  1
  S  S41  1  0.12500000  0.02232800  0.39732800  1
  S  S42  1  0.39697500  0.23935700  0.89172700  1
  S  S43  1  0.13226000  0.41502100  0.64077000  1
  S  S44  1  0.63226000  0.99149000  0.71723900  1
  S  S45  1  0.50851000  0.86774000  0.28276100  1
  S  S46  1  0.62536500  0.64592900  0.33483900  1
  S  S47  1  0.35407100  0.68891000  0.97943600  1
  S  S48  1  0.54052600  0.06109000  0.16516100  1
  S  S49  1  0.47574900  0.33497900  0.21723900  1
  S  S50  1  0.97767200  0.37500000  0.10267200  1
  S  S51  1  0.89697500  0.00524800  0.15761800  1
  S  S52  1  0.85302500  0.24475200  0.34238200  1
  S  S53  1  0.12536500  0.79052600  0.97943600  1
  S  S54  1  0.35302500  0.01064300  0.60827300  1
  S  S55  1  0.81109000  0.14592900  0.02056400  1
  O  O0  1  0.75000000  0.25000000  0.50000000  1
  O  O1  1  0.50000000  0.50000000  0.00000000  1
  O  O2  1  0.25000000  0.75000000  0.50000000  1
  O  O3  1  0.00000000  0.00000000  0.00000000  1
loop_
_geom_bond_atom_site_label_1
_geom_bond_atom_site_label_2
_geom_bond_distance
_geom_bond_site_symmetry_2
La0 S10 2.868885 1_555
La0 S16 2.908255 1_555
La0 S9 2.917699 1_555
La0 S22 2.973662 1_555
La0 S49 2.981744 1_555
La0 S12 3.011124 1_555
La0 S32 3.014716 1_555
La0 S3 3.509092 1_555
La1 S25 2.908781 1_555
La1 S13 2.908788 1_555
La1 S15 2.981547 1_655
La1 S40 2.981552 1_565
La1 S35 3.018454 1_555
La1 S51 3.018471 1_565
La1 S0 3.117199 1_555
La1 S41 3.117216 1_665
La2 S29 2.868885 1_555
La2 S34 2.908255 1_555
La2 S38 2.917699 1_555
La2 S47 2.973662 1_555
La2 S5 2.981744 1_555
La2 S25 3.011124 1_556
La2 S2 3.014716 1_555
La2 S48 3.509092 1_566
La3 O0 2.458194 1_555
La3 S30 2.843540 1_555
La3 S48 2.947166 1_555
La3 S45 2.953146 1_545
La3 S25 3.012647 1_545
La3 S0 3.065468 1_545
La3 S40 3.157334 1_555
La3 S9 3.459316 1_555
La4 S33 2.868885 1_555
La4 S18 2.908255 1_655
La4 S4 2.917699 1_555
La4 S53 2.973662 1_655
La4 S20 2.981744 1_555
La4 S13 3.011124 1_556
La4 S26 3.014716 1_555
La4 S6 3.509092 1_656
La5 O3 2.458194 1_666
La5 S33 2.843540 1_555
La5 S55 2.947166 1_566
La5 S5 2.953146 1_555
La5 S44 3.012647 1_555
La5 S1 3.065468 1_555
La5 S39 3.157334 1_555
La5 S51 3.459316 1_566
La6 O1 2.458194 1_555
La6 S42 2.843540 1_554
La6 S46 2.947166 1_555
La6 S49 2.953146 1_555
La6 S36 3.012647 1_555
La6 S23 3.065468 1_555
La6 S24 3.157334 1_555
La6 S19 3.459316 1_555
La7 S43 2.908781 1_555
La7 S31 2.908788 1_555
La7 S53 2.981547 1_555
La7 S47 2.981552 1_555
La7 S4 3.018454 1_455
La7 S38 3.018471 1_555
La7 S18 3.117199 1_555
La7 S34 3.117216 1_555
La8 S44 2.908779 1_555
La8 S45 2.908779 1_555
La8 S39 2.981558 1_555
La8 S46 2.981558 1_555
La8 S11 3.018458 1_555
La8 S30 3.018458 1_565
La8 S1 3.117212 1_555
La8 S0 3.117212 1_555
La9 S35 2.868885 1_555
La9 S50 2.908255 1_555
La9 S7 2.917699 1_555
La9 S24 2.973662 1_555
La9 S13 2.981744 1_555
La9 S20 3.011124 1_554
La9 S6 3.014716 1_655
La9 S26 3.509092 1_554
La10 S30 2.868885 1_555
La10 S50 2.908255 1_556
La10 S17 2.917699 1_555
La10 S26 2.973662 1_555
La10 S44 2.981744 1_545
La10 S37 3.011124 1_555
La10 S55 3.014716 1_556
La10 S24 3.509092 1_556
La11 S28 2.908779 1_554
La11 S12 2.908779 1_555
La11 S6 2.981558 1_555
La11 S26 2.981558 1_454
La11 S19 3.018458 1_555
La11 S17 3.018458 1_454
La11 S50 3.117212 1_455
La11 S18 3.117212 1_554
La12 O3 2.458194 1_555
La12 S17 2.843540 1_454
La12 S22 2.947166 1_555
La12 S12 2.953146 1_555
La12 S14 3.012647 1_555
La12 S50 3.065468 1_455
La12 S55 3.157334 1_455
La12 S10 3.459316 1_555
La13 S37 2.908779 1_555
La13 S27 2.908779 1_545
La13 S22 2.981558 1_555
La13 S8 2.981558 1_555
La13 S54 3.018458 1_555
La13 S9 3.018458 1_555
La13 S41 3.117212 1_555
La13 S16 3.117212 1_555
La14 S52 2.868885 1_455
La14 S41 2.908255 1_555
La14 S51 2.917699 1_455
La14 S40 2.973662 1_455
La14 S14 2.981744 1_555
La14 S43 3.011124 1_555
La14 S22 3.014716 1_555
La14 S8 3.509092 1_555
La15 O1 2.458194 1_556
La15 S19 2.843540 1_556
La15 S8 2.947166 1_555
La15 S28 2.953146 1_555
La15 S43 3.012647 1_555
La15 S18 3.065468 1_555
La15 S47 3.157334 1_555
La15 S42 3.459316 1_555
La16 O3 2.458194 1_565
La16 S51 2.843540 1_465
La16 S53 2.947166 1_554
La16 S13 2.953146 1_455
La16 S27 3.012647 1_555
La16 S41 3.065468 1_565
La16 S22 3.157334 1_565
La16 S33 3.459316 1_454
La17 O1 2.458194 1_555
La17 S35 2.843540 1_555
La17 S47 2.947166 1_554
La17 S25 2.953146 1_555
La17 S45 3.012647 1_555
La17 S0 3.065468 1_555
La17 S46 3.157334 1_555
La17 S29 3.459316 1_554
La18 S5 2.908781 1_555
La18 S20 2.908788 1_555
La18 S32 2.981547 1_555
La18 S3 2.981552 1_555
La18 S33 3.018454 1_555
La18 S29 3.018471 1_555
La18 S1 3.117199 1_555
La18 S16 3.117216 1_555
La19 S19 2.868885 1_555
La19 S1 2.908255 1_555
La19 S11 2.917699 1_555
La19 S46 2.973662 1_555
La19 S12 2.981744 1_555
La19 S49 3.011124 1_555
La19 S3 3.014716 1_555
La19 S32 3.509092 1_555
La20 O2 2.458194 1_555
La20 S11 2.843540 1_555
La20 S2 2.947166 1_555
La20 S44 2.953146 1_555
La20 S5 3.012647 1_555
La20 S1 3.065468 1_555
La20 S3 3.157334 1_555
La20 S54 3.459316 1_565
La21 S7 2.868885 1_555
La21 S0 2.908255 1_555
La21 S35 2.917699 1_555
La21 S15 2.973662 1_655
La21 S36 2.981744 1_555
La21 S31 3.011124 1_655
La21 S46 3.014716 1_555
La21 S39 3.509092 1_555
La22 S42 2.868885 1_555
La22 S41 2.908255 1_555
La22 S54 2.917699 1_555
La22 S8 2.973662 1_555
La22 S21 2.981744 1_555
La22 S28 3.011124 1_555
La22 S15 3.014716 1_545
La22 S40 3.509092 1_455
La23 S9 2.868885 1_565
La23 S34 2.908255 1_554
La23 S10 2.917699 1_565
La23 S48 2.973662 1_565
La23 S27 2.981744 1_555
La23 S45 3.011124 1_555
La23 S53 3.014716 1_554
La23 S47 3.509092 1_554
La24 O0 2.458194 1_555
La24 S9 2.843540 1_555
La24 S26 2.947166 1_555
La24 S37 2.953146 1_555
La24 S20 3.012647 1_555
La24 S16 3.065468 1_555
La24 S32 3.157334 1_555
La24 S30 3.459316 1_555
La25 S21 2.908779 1_554
La25 S49 2.908779 1_555
La25 S2 2.981558 1_544
La25 S48 2.981558 1_555
La25 S42 3.018458 1_554
La25 S10 3.018458 1_555
La25 S34 3.117212 1_544
La25 S23 3.117212 1_555
La26 S38 2.868885 1_555
La26 S16 2.908255 1_555
La26 S29 2.917699 1_555
La26 S3 2.973662 1_555
La26 S43 2.981744 1_555
La26 S14 3.011124 1_555
La26 S8 3.014716 1_555
La26 S22 3.509092 1_555
La27 S11 2.868885 1_555
La27 S18 2.908255 1_554
La27 S19 2.917699 1_555
La27 S6 2.973662 1_555
La27 S45 2.981744 1_555
La27 S27 3.011124 1_555
La27 S47 3.014716 1_554
La27 S53 3.509092 1_554
La28 O0 2.458194 1_555
La28 S52 2.843540 1_555
La28 S32 2.947166 1_555
La28 S36 2.953146 1_555
La28 S49 3.012647 1_555
La28 S23 3.065468 1_555
La28 S48 3.157334 1_555
La28 S4 3.459316 1_555
La29 O2 2.458194 1_555
La29 S7 2.843540 1_455
La29 S3 2.947166 1_555
La29 S14 2.953146 1_555
La29 S12 3.012647 1_555
La29 S50 3.065468 1_455
La29 S6 3.157334 1_555
La29 S38 3.459316 1_555
La30 O2 2.458194 1_555
La30 S38 2.843540 1_555
La30 S15 2.947166 1_555
La30 S31 2.953146 1_555
La30 S21 3.012647 1_565
La30 S34 3.065468 1_555
La30 S2 3.157334 1_555
La30 S7 3.459316 1_455
La31 O0 2.458194 1_555
La31 S4 2.843540 1_555
La31 S40 2.947166 1_555
La31 S43 2.953146 1_655
La31 S28 3.012647 1_655
La31 S18 3.065468 1_655
La31 S26 3.157334 1_555
La31 S52 3.459316 1_555
La32 S14 2.908781 1_655
La32 S36 2.908788 1_555
La32 S24 2.981547 1_555
La32 S55 2.981552 1_555
La32 S7 3.018454 1_555
La32 S52 3.018471 1_555
La32 S50 3.117199 1_555
La32 S23 3.117216 1_555
La33 S17 2.868885 1_555
La33 S0 2.908255 1_545
La33 S30 2.917699 1_555
La33 S39 2.973662 1_545
La33 S28 2.981744 1_655
La33 S21 3.011124 1_655
La33 S40 3.014716 1_555
La33 S15 3.509092 1_645
La34 S4 2.868885 1_555
La34 S1 2.908255 1_555
La34 S33 2.917699 1_555
La34 S32 2.973662 1_555
La34 S31 2.981744 1_655
La34 S36 3.011124 1_555
La34 S39 3.014716 1_555
La34 S46 3.509092 1_555
La35 O2 2.458194 1_555
La35 S54 2.843540 1_565
La35 S6 2.947166 1_555
La35 S27 2.953146 1_555
La35 S13 3.012647 1_455
La35 S41 3.065468 1_565
La35 S15 3.157334 1_555
La35 S11 3.459316 1_555
La36 O1 2.458194 1_556
La36 S29 2.843540 1_555
La36 S24 2.947166 1_556
La36 S20 2.953146 1_555
La36 S37 3.012647 1_555
La36 S16 3.065468 1_555
La36 S8 3.157334 1_555
La36 S35 3.459316 1_556
La37 S51 2.868885 1_555
La37 S23 2.908255 1_555
La37 S52 2.917699 1_555
La37 S55 2.973662 1_555
La37 S25 2.981744 1_545
La37 S5 3.011124 1_544
La37 S48 3.014716 1_555
La37 S2 3.509092 1_544
La38 S54 2.868885 1_555
La38 S23 2.908255 1_556
La38 S42 2.917699 1_555
La38 S2 2.973662 1_545
La38 S37 2.981744 1_555
La38 S44 3.011124 1_545
La38 S24 3.014716 1_556
La38 S55 3.509092 1_556
La39 O3 2.458194 1_566
La39 S10 2.843540 1_566
La39 S39 2.947166 1_455
La39 S21 2.953146 1_565
La39 S31 3.012647 1_555
La39 S34 3.065468 1_555
La39 S53 3.157334 1_555
La39 S17 3.459316 1_465
