# generated using pymatgen
data_RbErSeCl2O3
_symmetry_space_group_name_H-M   'P 1'
_cell_length_a   7.01547300
_cell_length_b   6.60624600
_cell_length_c   17.58629121
_cell_angle_alpha   74.69996724
_cell_angle_beta   90.00000000
_cell_angle_gamma   90.00000000
_symmetry_Int_Tables_number   1
_chemical_formula_structural   RbErSeCl2O3
_chemical_formula_sum   'Rb4 Er4 Se4 Cl8 O12'
_cell_volume   786.16549257
_cell_formula_units_Z   4
loop_
 _symmetry_equiv_pos_site_id
 _symmetry_equiv_pos_as_xyz
  1  'x, y, z'
loop_
 _atom_site_type_symbol
 _atom_site_label
 _atom_site_symmetry_multiplicity
 _atom_site_fract_x
 _atom_site_fract_y
 _atom_site_fract_z
 _atom_site_occupancy
  Rb  Rb0  1  0.19954200  0.76447200  0.05714800  1
  Rb  Rb1  1  0.30045800  0.76447200  0.55714800  1
  Rb  Rb2  1  0.80045800  0.23552800  0.94285200  1
  Rb  Rb3  1  0.69954200  0.23552800  0.44285200  1
  Er  Er0  1  0.65508400  0.86135800  0.25922100  1
  Er  Er1  1  0.15508400  0.13864200  0.24077900  1
  Er  Er2  1  0.34491600  0.13864200  0.74077900  1
  Er  Er3  1  0.84491600  0.86135800  0.75922100  1
  Se  Se0  1  0.84083200  0.37015800  0.70587100  1
  Se  Se1  1  0.65916800  0.37015800  0.20587100  1
  Se  Se2  1  0.34083200  0.62984200  0.79412900  1
  Se  Se3  1  0.15916800  0.62984200  0.29412900  1
  Cl  Cl0  1  0.36085000  0.24249200  0.58499900  1
  Cl  Cl1  1  0.83987400  0.88783200  0.60713800  1
  Cl  Cl2  1  0.63915000  0.75750800  0.41500100  1
  Cl  Cl3  1  0.86085000  0.75750800  0.91500100  1
  Cl  Cl4  1  0.66012600  0.88783200  0.10713800  1
  Cl  Cl5  1  0.33987400  0.11216800  0.89286200  1
  Cl  Cl6  1  0.16012600  0.11216800  0.39286200  1
  Cl  Cl7  1  0.13915000  0.24249200  0.08499900  1
  O  O0  1  0.16838900  0.82144000  0.75724500  1
  O  O1  1  0.84734300  0.50572700  0.77576000  1
  O  O2  1  0.97847500  0.81581800  0.26503500  1
  O  O3  1  0.52152500  0.81581800  0.76503500  1
  O  O4  1  0.33161100  0.82144000  0.25724500  1
  O  O5  1  0.83161100  0.17856000  0.24275500  1
  O  O6  1  0.02152500  0.18418200  0.73496500  1
  O  O7  1  0.65265700  0.50572700  0.27576000  1
  O  O8  1  0.66838900  0.17856000  0.74275500  1
  O  O9  1  0.47847500  0.18418200  0.23496500  1
  O  O10  1  0.15265700  0.49427300  0.22424000  1
  O  O11  1  0.34734300  0.49427300  0.72424000  1
loop_
_geom_bond_atom_site_label_1
_geom_bond_atom_site_label_2
_geom_bond_distance
_geom_bond_site_symmetry_2
Er0 O4 2.285909 1_555
Er0 O2 2.287338 1_555
Er0 O7 2.289950 1_555
Er0 O5 2.385053 1_565
Er0 O9 2.405241 1_565
Er1 O5 2.285909 1_455
Er1 O9 2.287338 1_555
Er1 O10 2.289950 1_555
Er1 O4 2.385053 1_545
Er1 O2 2.405241 1_445
Er2 O8 2.285909 1_555
Er2 O6 2.287338 1_555
Er2 O11 2.289950 1_555
Er2 O0 2.385053 1_545
Er2 O3 2.405241 1_545
Er3 O0 2.285909 1_655
Er3 O3 2.287338 1_555
Er3 O1 2.289950 1_555
Er3 O8 2.385053 1_565
Er3 O6 2.405241 1_665
Cl0 Er2 2.645114 1_555
Cl0 Rb1 3.347855 1_545
Cl0 Rb1 3.379204 1_555
Cl0 Rb3 3.458003 1_555
Cl1 Er3 2.634072 1_555
Cl1 Rb3 3.330215 1_565
Cl1 Rb1 3.500839 1_655
Cl2 Er0 2.645114 1_555
Cl2 Rb3 3.347855 1_565
Cl2 Rb3 3.379204 1_555
Cl2 Rb1 3.458003 1_555
Cl3 Er3 2.645114 1_555
Cl3 Rb2 3.347855 1_565
Cl3 Rb2 3.379204 1_555
Cl3 Rb0 3.458003 1_656
Cl4 Er0 2.634072 1_555
Cl4 Rb2 3.330215 1_564
Cl4 Rb0 3.500839 1_555
Cl5 Er2 2.634072 1_555
Cl5 Rb0 3.330215 1_546
Cl5 Rb2 3.500839 1_555
Cl6 Er1 2.634072 1_555
Cl6 Rb1 3.330215 1_545
Cl6 Rb3 3.500839 1_455
Cl7 Er1 2.645114 1_555
Cl7 Rb0 3.347855 1_545
Cl7 Rb0 3.379204 1_555
Cl7 Rb2 3.458003 1_454
O0 Se2 1.747313 1_555
O1 Se0 1.701699 1_555
O1 Rb2 3.026745 1_555
O2 Se3 1.745403 1_655
O3 Se2 1.745403 1_555
O4 Se3 1.747313 1_555
O5 Se1 1.747313 1_555
O6 Se0 1.745403 1_455
O7 Se1 1.701699 1_555
O7 Rb3 3.026745 1_555
O8 Se0 1.747313 1_555
O9 Se1 1.745403 1_555
O10 Se3 1.701699 1_555
O10 Rb0 3.026745 1_555
O11 Se2 1.701699 1_555
O11 Rb1 3.026745 1_555
