# generated using pymatgen
data_Ba2Hg3(PdO2)7
_symmetry_space_group_name_H-M   'P 1'
_cell_length_a   6.27724701
_cell_length_b   6.27724701
_cell_length_c   11.11679205
_cell_angle_alpha   89.66086318
_cell_angle_beta   89.66086318
_cell_angle_gamma   60.90422428
_symmetry_Int_Tables_number   1
_chemical_formula_structural   Ba2Hg3(PdO2)7
_chemical_formula_sum   'Ba2 Hg3 Pd7 O14'
_cell_volume   382.75752423
_cell_formula_units_Z   1
loop_
 _symmetry_equiv_pos_site_id
 _symmetry_equiv_pos_as_xyz
  1  'x, y, z'
loop_
 _atom_site_type_symbol
 _atom_site_label
 _atom_site_symmetry_multiplicity
 _atom_site_fract_x
 _atom_site_fract_y
 _atom_site_fract_z
 _atom_site_occupancy
  Ba  Ba0  1  0.50252400  0.50252400  0.70475100  1
  Ba  Ba1  1  0.49747600  0.49747600  0.29524900  1
  Hg  Hg0  1  0.82508700  0.82508700  0.19549700  1
  Hg  Hg1  1  0.17491300  0.17491300  0.80450300  1
  Hg  Hg2  1  0.00000000  0.00000000  0.50000000  1
  Pd  Pd0  1  0.00000000  0.00000000  0.00000000  1
  Pd  Pd1  1  0.83327300  0.83327300  0.77841000  1
  Pd  Pd2  1  0.16672700  0.16672700  0.22159000  1
  Pd  Pd3  1  0.00000000  0.50000000  0.00000000  1
  Pd  Pd4  1  0.50000000  0.00000000  0.50000000  1
  Pd  Pd5  1  0.00000000  0.50000000  0.50000000  1
  Pd  Pd6  1  0.50000000  0.00000000  0.00000000  1
  O  O0  1  0.69119100  0.12305600  0.89770900  1
  O  O1  1  0.68853400  0.68853400  0.89949100  1
  O  O2  1  0.47972600  0.00837400  0.31634900  1
  O  O3  1  0.36353300  0.36353300  0.50269000  1
  O  O4  1  0.99162600  0.52027400  0.68365100  1
  O  O5  1  0.00580200  0.00580200  0.31341400  1
  O  O6  1  0.52027400  0.99162600  0.68365100  1
  O  O7  1  0.12305600  0.69119100  0.89770900  1
  O  O8  1  0.30880900  0.87694400  0.10229100  1
  O  O9  1  0.63646700  0.63646700  0.49731000  1
  O  O10  1  0.31146600  0.31146600  0.10050900  1
  O  O11  1  0.00837400  0.47972600  0.31634900  1
  O  O12  1  0.99419800  0.99419800  0.68658600  1
  O  O13  1  0.87694400  0.30880900  0.10229100  1
loop_
_geom_bond_atom_site_label_1
_geom_bond_atom_site_label_2
_geom_bond_distance
_geom_bond_site_symmetry_2
Ba0 O3 2.711991 1_555
Ba0 O9 2.715415 1_555
Ba0 O1 2.966348 1_555
Ba0 O0 2.983945 1_555
Ba0 O7 2.983945 1_555
Ba0 O4 3.133290 1_555
Ba0 O6 3.133290 1_555
Ba0 O4 3.164423 1_455
Ba0 O6 3.164423 1_545
Ba0 O12 3.189137 1_455
Ba0 O12 3.189137 1_545
Ba1 O9 2.711991 1_555
Ba1 O3 2.715415 1_555
Ba1 O10 2.966348 1_555
Ba1 O8 2.983945 1_555
Ba1 O13 2.983945 1_555
Ba1 O11 3.133290 1_555
Ba1 O2 3.133290 1_555
Ba1 O11 3.164423 1_655
Ba1 O2 3.164423 1_565
Ba1 O5 3.189137 1_655
Ba1 O5 3.189137 1_565
Hg0 O11 2.320903 1_655
Hg0 O2 2.320903 1_565
Hg0 O5 2.361941 1_665
Hg1 O6 2.320903 1_545
Hg1 O4 2.320903 1_455
Hg1 O12 2.361941 1_445
Hg2 O12 2.074757 1_445
Hg2 O5 2.074757 1_555
O0 Pd6 2.050660 1_556
O0 Pd0 2.051071 1_656
O0 Pd1 2.073634 1_545
O1 Pd3 2.057070 1_656
O1 Pd6 2.057070 1_566
O1 Pd1 2.058310 1_555
O2 Pd2 2.017622 1_555
O2 Pd4 2.045099 1_555
O3 Pd5 2.010356 1_555
O3 Pd4 2.010356 1_555
O4 Pd1 2.017622 1_555
O4 Pd5 2.045099 1_655
O5 Pd2 2.012680 1_555
O6 Pd1 2.017622 1_555
O6 Pd4 2.045099 1_565
O7 Pd3 2.050660 1_556
O7 Pd0 2.051071 1_566
O7 Pd1 2.073634 1_455
O8 Pd6 2.050660 1_565
O8 Pd0 2.051071 1_565
O8 Pd2 2.073634 1_565
O9 Pd4 2.010356 1_565
O9 Pd5 2.010356 1_655
O10 Pd6 2.057070 1_555
O10 Pd3 2.057070 1_555
O10 Pd2 2.058310 1_555
O11 Pd2 2.017622 1_555
O11 Pd5 2.045099 1_555
O12 Pd1 2.012680 1_555
O13 Pd3 2.050660 1_655
O13 Pd0 2.051071 1_655
O13 Pd2 2.073634 1_655
