# generated using pymatgen
data_CsTcNClO4
_symmetry_space_group_name_H-M   'P 1'
_cell_length_a   6.62629500
_cell_length_b   8.80125700
_cell_length_c   11.67825300
_cell_angle_alpha   90.00000000
_cell_angle_beta   90.00000000
_cell_angle_gamma   90.00000000
_symmetry_Int_Tables_number   1
_chemical_formula_structural   CsTcNClO4
_chemical_formula_sum   'Cs4 Tc4 N4 Cl4 O16'
_cell_volume   681.07250639
_cell_formula_units_Z   4
loop_
 _symmetry_equiv_pos_site_id
 _symmetry_equiv_pos_as_xyz
  1  'x, y, z'
loop_
 _atom_site_type_symbol
 _atom_site_label
 _atom_site_symmetry_multiplicity
 _atom_site_fract_x
 _atom_site_fract_y
 _atom_site_fract_z
 _atom_site_occupancy
  Cs  Cs0  1  0.27875100  0.38527800  0.17524000  1
  Cs  Cs1  1  0.72124900  0.88527800  0.32476000  1
  Cs  Cs2  1  0.22124900  0.61472200  0.67524000  1
  Cs  Cs3  1  0.77875100  0.11472200  0.82476000  1
  Tc  Tc0  1  0.20984100  0.92618500  0.05590200  1
  Tc  Tc1  1  0.79015900  0.42618500  0.44409800  1
  Tc  Tc2  1  0.29015900  0.07381500  0.55590200  1
  Tc  Tc3  1  0.70984100  0.57381500  0.94409800  1
  N  N0  1  0.49726200  0.97381200  0.57838700  1
  N  N1  1  0.00273800  0.02618800  0.07838700  1
  N  N2  1  0.99726200  0.52618800  0.42161300  1
  N  N3  1  0.50273800  0.47381200  0.92161300  1
  Cl  Cl0  1  0.78538100  0.28307100  0.27157900  1
  Cl  Cl1  1  0.71461900  0.71692900  0.77157900  1
  Cl  Cl2  1  0.21461900  0.78307100  0.22842100  1
  Cl  Cl3  1  0.28538100  0.21692900  0.72842100  1
  O  O0  1  0.18358000  0.85167000  0.89779200  1
  O  O1  1  0.11991800  0.73792500  0.97949400  1
  O  O2  1  0.08920000  0.92228000  0.50498300  1
  O  O3  1  0.31642000  0.14833000  0.39779200  1
  O  O4  1  0.43005900  0.04556300  0.12573700  1
  O  O5  1  0.06994100  0.95443700  0.62573700  1
  O  O6  1  0.58920000  0.57772000  0.49501700  1
  O  O7  1  0.68358000  0.64833000  0.10220800  1
  O  O8  1  0.88008200  0.23792500  0.52050600  1
  O  O9  1  0.91080000  0.42228000  0.99501700  1
  O  O10  1  0.41080000  0.07772000  0.00498300  1
  O  O11  1  0.38008200  0.26207500  0.47949400  1
  O  O12  1  0.93005900  0.45443700  0.87426300  1
  O  O13  1  0.56994100  0.54556300  0.37426300  1
  O  O14  1  0.81642000  0.35167000  0.60220800  1
  O  O15  1  0.61991800  0.76207500  0.02050600  1
loop_
_geom_bond_atom_site_label_1
_geom_bond_atom_site_label_2
_geom_bond_distance
_geom_bond_site_symmetry_2
Cs0 O4 3.206097 1_555
Cs0 O9 3.237339 1_454
Cs0 O13 3.333948 1_555
Cs0 O3 3.341596 1_555
Cs0 N3 3.403381 1_554
Cs0 O10 3.470773 1_555
Cs0 O7 3.644641 1_555
Cs0 N2 3.646293 1_455
Cs1 O13 3.206097 1_555
Cs1 O2 3.237339 1_655
Cs1 O4 3.333948 1_565
Cs1 O7 3.341596 1_555
Cs1 N0 3.403381 1_555
Cs1 O6 3.470773 1_555
Cs1 O3 3.644641 1_565
Cs1 N1 3.646293 1_665
Cs2 O5 3.206097 1_555
Cs2 O6 3.237339 1_555
Cs2 O12 3.333948 1_455
Cs2 O0 3.341596 1_555
Cs2 N2 3.403381 1_455
Cs2 O2 3.470773 1_555
Cs2 O14 3.644641 1_455
Cs2 N3 3.646293 1_555
Cs3 O12 3.206097 1_555
Cs3 O10 3.237339 1_556
Cs3 O5 3.333948 1_645
Cs3 O14 3.341596 1_555
Cs3 N1 3.403381 1_656
Cs3 O9 3.470773 1_555
Cs3 O0 3.644641 1_645
Cs3 N0 3.646293 1_545
N0 Tc2 1.651332 1_565
N1 Tc0 1.651332 1_545
N2 Tc1 1.651332 1_555
N3 Tc3 1.651332 1_555
Cl0 Tc1 2.376268 1_555
Cl0 Cs0 3.572498 1_655
Cl0 Cs1 3.581041 1_545
Cl0 Cs0 3.653075 1_555
Cl1 Tc3 2.376268 1_555
Cl1 Cs2 3.572498 1_555
Cl1 Cs3 3.581041 1_565
Cl1 Cs2 3.653075 1_655
Cl2 Tc0 2.376268 1_555
Cl2 Cs1 3.572498 1_455
Cl2 Cs0 3.581041 1_555
Cl2 Cs1 3.653075 1_555
Cl3 Tc2 2.376268 1_555
Cl3 Cs3 3.572498 1_555
Cl3 Cs2 3.581041 1_555
Cl3 Cs3 3.653075 1_455
O0 O1 1.445866 1_555
O0 Tc0 1.967171 1_556
O1 Tc0 1.973997 1_556
O2 O5 1.443967 1_555
O2 Tc2 1.976246 1_565
O3 Tc2 1.967171 1_555
O4 Tc0 1.974435 1_545
O5 Tc2 1.974435 1_565
O6 Tc1 1.976246 1_555
O7 Tc3 1.967171 1_554
O8 Tc1 1.973997 1_555
O9 Tc3 1.976246 1_555
O10 O4 1.443967 1_555
O10 Tc0 1.976246 1_545
O11 O3 1.445866 1_555
O11 Tc2 1.973997 1_555
O12 O9 1.443967 1_555
O12 Tc3 1.974435 1_555
O13 O6 1.443967 1_555
O13 Tc1 1.974435 1_555
O14 O8 1.445866 1_555
O14 Tc1 1.967171 1_555
O15 O7 1.445866 1_555
O15 Tc3 1.973997 1_554
