# generated using pymatgen
data_SrCrF4
_symmetry_space_group_name_H-M   'P 1'
_cell_length_a   5.71072400
_cell_length_b   5.72438300
_cell_length_c   6.90956985
_cell_angle_alpha   65.52880139
_cell_angle_beta   65.59100266
_cell_angle_gamma   90.00000000
_symmetry_Int_Tables_number   1
_chemical_formula_structural   SrCrF4
_chemical_formula_sum   'Sr2 Cr2 F8'
_cell_volume   183.17382721
_cell_formula_units_Z   2
loop_
 _symmetry_equiv_pos_site_id
 _symmetry_equiv_pos_as_xyz
  1  'x, y, z'
loop_
 _atom_site_type_symbol
 _atom_site_label
 _atom_site_symmetry_multiplicity
 _atom_site_fract_x
 _atom_site_fract_y
 _atom_site_fract_z
 _atom_site_occupancy
  Sr  Sr0  1  0.50000000  0.00000000  0.00000000  1
  Sr  Sr1  1  0.00000000  0.50000000  0.00000000  1
  Cr  Cr0  1  0.75000000  0.75000000  0.50000000  1
  Cr  Cr1  1  0.25000000  0.25000000  0.50000000  1
  F  F0  1  0.31567800  0.93913900  0.74407300  1
  F  F1  1  0.81567800  0.81678800  0.74407300  1
  F  F2  1  0.18432200  0.18321200  0.25592700  1
  F  F3  1  0.55975100  0.56086100  0.25592700  1
  F  F4  1  0.05975100  0.68321200  0.25592700  1
  F  F5  1  0.94024900  0.31678800  0.74407300  1
  F  F6  1  0.44024900  0.43913900  0.74407300  1
  F  F7  1  0.68432200  0.06086100  0.25592700  1
loop_
_geom_bond_atom_site_label_1
_geom_bond_atom_site_label_2
_geom_bond_distance
_geom_bond_site_symmetry_2
Cr0 F1 2.046429 1_555
Cr0 F4 2.046429 1_655
Cr0 F6 2.046429 1_555
Cr0 F7 2.046429 1_565
Cr1 F5 2.046429 1_455
Cr1 F2 2.046429 1_555
Cr1 F0 2.046429 1_545
Cr1 F3 2.046429 1_555
F0 Sr1 2.525588 1_556
F0 Sr0 2.530857 1_566
F1 Sr0 2.525588 1_566
F1 Sr1 2.530858 1_656
F2 Sr0 2.525588 1_555
F2 Sr1 2.530858 1_555
F3 Sr0 2.525588 1_565
F3 Sr1 2.530857 1_655
F4 Sr1 2.525588 1_555
F4 Sr0 2.530858 1_565
F5 Sr1 2.525588 1_656
F5 Sr0 2.530858 1_556
F6 Sr0 2.525588 1_556
F6 Sr1 2.530857 1_556
F7 Sr1 2.525588 1_655
F7 Sr0 2.530857 1_555
