# generated using pymatgen
data_TcXeO4F5
_symmetry_space_group_name_H-M   'P 1'
_cell_length_a   9.42980819
_cell_length_b   9.42980819
_cell_length_c   5.40039200
_cell_angle_alpha   90.00000000
_cell_angle_beta   90.00000000
_cell_angle_gamma   127.53496167
_symmetry_Int_Tables_number   1
_chemical_formula_structural   TcXeO4F5
_chemical_formula_sum   'Tc2 Xe2 O8 F10'
_cell_volume   380.79758336
_cell_formula_units_Z   2
loop_
 _symmetry_equiv_pos_site_id
 _symmetry_equiv_pos_as_xyz
  1  'x, y, z'
loop_
 _atom_site_type_symbol
 _atom_site_label
 _atom_site_symmetry_multiplicity
 _atom_site_fract_x
 _atom_site_fract_y
 _atom_site_fract_z
 _atom_site_occupancy
  Tc  Tc0  1  0.40529300  0.59470700  0.10396300  1
  Tc  Tc1  1  0.59470700  0.40529300  0.60396300  1
  Xe  Xe0  1  0.87704100  0.12295900  0.44317500  1
  Xe  Xe1  1  0.12295900  0.87704100  0.94317500  1
  O  O0  1  0.32808100  0.67191900  0.30088900  1
  O  O1  1  0.99082000  0.64571900  0.06699000  1
  O  O2  1  0.36034900  0.63965100  0.82558900  1
  O  O3  1  0.67191900  0.32808100  0.80088900  1
  O  O4  1  0.35428100  0.00918000  0.06699000  1
  O  O5  1  0.63965100  0.36034900  0.32558900  1
  O  O6  1  0.64571900  0.99082000  0.56699000  1
  O  O7  1  0.00918000  0.35428100  0.56699000  1
  F  F0  1  0.64936700  0.79031300  0.12106800  1
  F  F1  1  0.03858600  0.96141400  0.22758500  1
  F  F2  1  0.80954000  0.19046000  0.12756900  1
  F  F3  1  0.35063300  0.20968700  0.62106800  1
  F  F4  1  0.48346000  0.51654000  0.41408300  1
  F  F5  1  0.79031300  0.64936700  0.62106800  1
  F  F6  1  0.20968700  0.35063300  0.12106800  1
  F  F7  1  0.51654000  0.48346000  0.91408300  1
  F  F8  1  0.96141400  0.03858600  0.72758500  1
  F  F9  1  0.19046000  0.80954000  0.62756900  1
loop_
_geom_bond_atom_site_label_1
_geom_bond_atom_site_label_2
_geom_bond_distance
_geom_bond_site_symmetry_2
O0 Tc0 1.684392 1_555
O1 Xe1 1.856340 1_654
O2 Tc0 1.684665 1_556
O3 Tc1 1.684392 1_555
O4 Xe1 1.856340 1_544
O5 Tc1 1.684665 1_555
O6 Xe0 1.856340 1_565
O7 Xe0 1.856340 1_455
F0 Tc0 1.880205 1_555
F1 Xe1 2.096763 1_554
F2 Xe0 2.051577 1_555
F3 Tc1 1.880205 1_555
F4 Tc0 2.133896 1_555
F4 Tc1 2.143219 1_555
F5 Tc1 1.880205 1_555
F6 Tc0 1.880205 1_555
F7 Tc1 2.133896 1_555
F7 Tc0 2.143219 1_556
F8 Xe0 2.096763 1_555
F9 Xe1 2.051577 1_555
