# generated using pymatgen
data_Nd4Os6O19
_symmetry_space_group_name_H-M   'P 1'
_cell_length_a   7.77848256
_cell_length_b   7.77853998
_cell_length_c   7.77870417
_cell_angle_alpha   109.50311903
_cell_angle_beta   109.47759362
_cell_angle_gamma   109.43167293
_symmetry_Int_Tables_number   1
_chemical_formula_structural   Nd4Os6O19
_chemical_formula_sum   'Nd4 Os6 O19'
_cell_volume   362.31394121
_cell_formula_units_Z   1
loop_
 _symmetry_equiv_pos_site_id
 _symmetry_equiv_pos_as_xyz
  1  'x, y, z'
loop_
 _atom_site_type_symbol
 _atom_site_label
 _atom_site_symmetry_multiplicity
 _atom_site_fract_x
 _atom_site_fract_y
 _atom_site_fract_z
 _atom_site_occupancy
  Nd  Nd0  1  -0.00075767  -0.00063311  0.31467169  1
  Nd  Nd1  1  0.00074312  0.31541963  0.00014525  1
  Nd  Nd2  1  0.68470381  0.68458015  0.68531856  1
  Nd  Nd3  1  0.31529478  0.00060832  -0.00014569  1
  Os  Os0  1  0.36399053  0.50000680  0.86398352  1
  Os  Os1  1  0.86438943  0.36439307  0.50000159  1
  Os  Os2  1  0.50000060  0.13616836  0.63616530  1
  Os  Os3  1  0.13561243  0.63561253  0.49999948  1
  Os  Os4  1  0.50001088  0.86384111  0.36384090  1
  Os  Os5  1  0.63601530  0.50000293  0.13600642  1
  O  O0  1  0.31982963  -0.00001153  0.31984626  1
  O  O1  1  0.31984179  0.31984301  0.00000574  1
  O  O2  1  -0.00001133  0.67939094  0.67937436  1
  O  O3  1  0.68017377  0.68015949  -0.00000831  1
  O  O4  1  -0.00000412  0.32061310  0.32061356  1
  O  O5  1  0.68014846  -0.00001308  0.68015875  1
  O  O6  1  -0.00000280  -0.00000229  -0.00000025  1
  O  O7  1  0.36474454  0.30674874  0.62094761  1
  O  O8  1  0.05805223  0.31325076  0.69160268  1
  O  O9  1  0.74252929  0.37724539  0.68517604  1
  O  O10  1  0.37836136  0.68678154  0.74482499  1
  O  O11  1  0.25745677  0.94264515  0.63470231  1
  O  O12  1  0.62164324  0.36645273  0.30840178  1
  O  O13  1  0.30794987  0.62275638  0.36530291  1
  O  O14  1  0.69206860  0.05735840  0.31482285  1
  O  O15  1  0.94195956  0.63354001  0.25517882  1
  O  O16  1  0.68582015  0.74381933  0.37905536  1
  O  O17  1  0.63522796  0.25616698  0.94199030  1
  O  O18  1  0.31420782  0.69325519  0.05801723  1
loop_
_geom_bond_atom_site_label_1
_geom_bond_atom_site_label_2
_geom_bond_distance
_geom_bond_site_symmetry_2
Nd0 O6 2.451341 1_555
Nd0 O3 2.471170 1_445
Nd0 O0 2.478913 1_555
Nd0 O4 2.481786 1_555
Nd0 O14 2.575094 1_455
Nd0 O7 2.575311 1_555
Nd0 O15 2.578699 1_445
Nd0 O8 2.889583 1_555
Nd0 O16 2.898317 1_445
Nd0 O11 2.900802 1_545
Nd1 O6 2.451219 1_555
Nd1 O1 2.471238 1_555
Nd1 O5 2.479119 1_454
Nd1 O4 2.481619 1_555
Nd1 O17 2.575221 1_454
Nd1 O13 2.575251 1_555
Nd1 O8 2.578905 1_554
Nd1 O15 2.889256 1_455
Nd1 O18 2.898643 1_555
Nd1 O9 2.901021 1_454
Nd2 O6 2.451328 1_666
Nd2 O3 2.471197 1_556
Nd2 O5 2.478851 1_565
Nd2 O2 2.481624 1_655
Nd2 O9 2.575147 1_555
Nd2 O16 2.575274 1_555
Nd2 O10 2.578776 1_555
Nd2 O12 2.889485 1_555
Nd2 O7 2.898606 1_555
Nd2 O13 2.900727 1_555
Nd3 O6 2.451339 1_555
Nd3 O1 2.471238 1_555
Nd3 O0 2.479228 1_555
Nd3 O2 2.481744 1_544
Nd3 O11 2.575140 1_544
Nd3 O18 2.575235 1_545
Nd3 O12 2.578855 1_555
Nd3 O10 2.889184 1_544
Nd3 O17 2.898311 1_554
Nd3 O14 2.900924 1_555
O0 Os4 2.027973 1_545
O0 Os2 2.027989 1_555
O1 Os5 2.028128 1_555
O1 Os0 2.028201 1_554
O2 Os3 2.019688 1_555
O2 Os1 2.019696 1_455
O3 Os5 2.028117 1_555
O3 Os0 2.028176 1_554
O4 Os1 2.019663 1_455
O4 Os3 2.019702 1_555
O5 Os2 2.027977 1_555
O5 Os4 2.027983 1_545
O7 Os2 1.957583 1_555
O7 Os0 1.987336 1_555
O8 Os0 1.960264 1_555
O8 Os1 1.986505 1_455
O9 Os1 1.964868 1_555
O9 Os2 1.977354 1_555
O10 Os0 1.960248 1_555
O10 Os3 1.986548 1_555
O11 Os3 1.964873 1_555
O11 Os2 1.977398 1_565
O12 Os5 1.960320 1_555
O12 Os1 1.986505 1_555
O13 Os3 1.964870 1_555
O13 Os4 1.977423 1_555
O14 Os1 1.964888 1_555
O14 Os4 1.977350 1_545
O15 Os5 1.960303 1_555
O15 Os3 1.986527 1_655
O16 Os4 1.957561 1_555
O16 Os5 1.987423 1_555
O17 Os2 1.957620 1_555
O17 Os5 1.987440 1_556
O18 Os4 1.957592 1_555
O18 Os0 1.987399 1_554
