# generated using pymatgen
data_Ca3Si2O7
_symmetry_space_group_name_H-M   'P 1'
_cell_length_a   12.78857849
_cell_length_b   12.78857849
_cell_length_c   12.78857849
_cell_angle_alpha   156.81771599
_cell_angle_beta   126.28722475
_cell_angle_gamma   59.26350065
_symmetry_Int_Tables_number   1
_chemical_formula_structural   Ca3Si2O7
_chemical_formula_sum   'Ca12 Si8 O28'
_cell_volume   660.08205459
_cell_formula_units_Z   4
loop_
 _symmetry_equiv_pos_site_id
 _symmetry_equiv_pos_as_xyz
  1  'x, y, z'
loop_
 _atom_site_type_symbol
 _atom_site_label
 _atom_site_symmetry_multiplicity
 _atom_site_fract_x
 _atom_site_fract_y
 _atom_site_fract_z
 _atom_site_occupancy
  Ca  Ca0  1  0.32170500  0.60920600  0.72220700  1
  Ca  Ca1  1  0.11300100  0.39079400  0.71249900  1
  Ca  Ca2  1  0.98965900  0.00000000  0.98965900  1
  Ca  Ca3  1  0.34183400  0.32659400  0.00541700  1
  Ca  Ca4  1  0.17882300  0.16358300  0.00541700  1
  Ca  Ca5  1  0.84183400  0.83641700  0.01524100  1
  Ca  Ca6  1  0.48965900  0.50000000  0.98965900  1
  Ca  Ca7  1  0.67882300  0.67340600  0.01524100  1
  Ca  Ca8  1  0.03619100  0.74869200  0.28488300  1
  Ca  Ca9  1  0.53619100  0.25130800  0.28749800  1
  Ca  Ca10  1  0.61300100  0.90050200  0.72220700  1
  Ca  Ca11  1  0.82170500  0.09949800  0.71249900  1
  Si  Si0  1  0.84708500  0.17858700  0.52567200  1
  Si  Si1  1  0.50923900  0.16140100  0.46921000  1
  Si  Si2  1  0.00923900  0.54002900  0.34783800  1
  Si  Si3  1  0.30780900  0.83859900  0.34783800  1
  Si  Si4  1  0.80780900  0.45997100  0.46921000  1
  Si  Si5  1  0.74179800  0.50000000  0.24179800  1
  Si  Si6  1  0.24179800  0.00000000  0.24179800  1
  Si  Si7  1  0.34708500  0.82141300  0.66849800  1
  O  O0  1  0.12790800  0.39651400  0.34000200  1
  O  O1  1  0.30744400  0.15856200  0.65943600  1
  O  O2  1  0.80744400  0.14800800  0.14888300  1
  O  O3  1  0.71564400  0.04399100  0.25963400  1
  O  O4  1  0.44348800  0.71209300  0.34000200  1
  O  O5  1  0.87251700  0.35257900  0.14289800  1
  O  O6  1  0.11901300  0.13835700  0.34034500  1
  O  O7  1  0.35499900  0.89367900  0.86614500  1
  O  O8  1  0.97246600  0.10632100  0.46132000  1
  O  O9  1  0.47246600  0.01114600  0.86614500  1
  O  O10  1  0.79031900  0.64742100  0.51993800  1
  O  O11  1  0.84759800  0.49842800  0.84602500  1
  O  O12  1  0.20198700  0.86164300  0.98065600  1
  O  O13  1  0.85499900  0.98885400  0.46132000  1
  O  O14  1  0.29031900  0.77038100  0.14289800  1
  O  O15  1  0.18700900  0.64056900  0.14543900  1
  O  O16  1  0.62790800  0.28790700  0.73139500  1
  O  O17  1  0.94348800  0.60348600  0.73139500  1
  O  O18  1  0.68700900  0.54157000  0.54644000  1
  O  O19  1  0.50487000  0.35943100  0.54644000  1
  O  O20  1  0.61901300  0.27866800  0.98065600  1
  O  O21  1  0.34759800  0.50157200  0.34917000  1
  O  O22  1  0.21564400  0.95600900  0.67165300  1
  O  O23  1  0.00487000  0.45843000  0.14543900  1
  O  O24  1  0.50087500  0.84143800  0.14888300  1
  O  O25  1  0.37251700  0.22961900  0.51993800  1
  O  O26  1  0.00087500  0.85199200  0.65943600  1
  O  O27  1  0.70198700  0.72133200  0.34034500  1
loop_
_geom_bond_atom_site_label_1
_geom_bond_atom_site_label_2
_geom_bond_distance
_geom_bond_site_symmetry_2
Ca0 O12 2.238420 1_555
Ca0 O7 2.269017 1_555
Ca0 O0 2.353875 1_555
Ca0 O19 2.475135 1_555
Ca0 O24 2.491481 1_556
Ca0 O25 2.521399 1_555
Ca1 O6 2.238409 1_555
Ca1 O8 2.269017 1_455
Ca1 O17 2.353870 1_455
Ca1 O15 2.475135 1_556
Ca1 O1 2.491471 1_555
Ca1 O14 2.521399 1_556
Ca2 O12 2.366778 1_645
Ca2 O6 2.366788 1_656
Ca2 O5 2.596218 1_556
Ca2 O10 2.596218 1_545
Ca2 O0 2.632729 1_656
Ca2 O17 2.632738 1_545
Ca2 O26 2.679749 1_645
Ca2 O2 2.679749 1_556
Ca3 O4 2.342529 1_555
Ca3 O1 2.360171 1_554
Ca3 O9 2.379175 1_554
Ca3 O22 2.399406 1_544
Ca3 O21 2.457175 1_555
Ca3 O15 2.469920 1_555
Ca4 O0 2.342538 1_555
Ca4 O26 2.360162 1_544
Ca4 O7 2.379175 1_544
Ca4 O22 2.399406 1_544
Ca4 O21 2.457175 1_555
Ca4 O23 2.469920 1_555
Ca5 O17 2.342538 1_554
Ca5 O2 2.360171 1_565
Ca5 O8 2.379167 1_565
Ca5 O3 2.399389 1_565
Ca5 O11 2.457157 1_554
Ca5 O18 2.469927 1_554
Ca6 O27 2.366780 1_556
Ca6 O20 2.366788 1_555
Ca6 O25 2.596218 1_555
Ca6 O14 2.596218 1_556
Ca6 O16 2.632726 1_555
Ca6 O4 2.632738 1_556
Ca6 O24 2.679736 1_556
Ca6 O1 2.679741 1_555
Ca7 O16 2.342527 1_554
Ca7 O24 2.360159 1_555
Ca7 O13 2.379172 1_555
Ca7 O3 2.399422 1_565
Ca7 O11 2.457189 1_554
Ca7 O19 2.469925 1_554
Ca8 O22 2.331221 1_555
Ca8 O15 2.371463 1_555
Ca8 O23 2.371463 1_555
Ca8 O8 2.463058 1_465
Ca8 O13 2.463058 1_455
Ca8 O11 2.530367 1_454
Ca9 O3 2.331221 1_555
Ca9 O18 2.371456 1_555
Ca9 O19 2.371475 1_555
Ca9 O9 2.463047 1_554
Ca9 O7 2.463059 1_544
Ca9 O21 2.530357 1_555
Ca10 O20 2.238409 1_565
Ca10 O9 2.269017 1_565
Ca10 O4 2.353870 1_555
Ca10 O18 2.475135 1_555
Ca10 O2 2.491477 1_566
Ca10 O10 2.521399 1_555
Ca11 O27 2.238416 1_545
Ca11 O13 2.269017 1_545
Ca11 O16 2.353878 1_555
Ca11 O23 2.475135 1_656
Ca11 O26 2.491477 1_645
Ca11 O5 2.521399 1_556
O0 Si2 1.635982 1_555
O1 Si3 1.626990 1_545
O2 Si4 1.626986 1_555
O3 Si0 1.668858 1_555
O4 Si3 1.635987 1_555
O5 Si5 1.686958 1_555
O5 Si2 1.726853 1_655
O6 Si6 1.608532 1_555
O7 Si7 1.658708 1_555
O8 Si0 1.658708 1_555
O9 Si7 1.658708 1_545
O10 Si5 1.686958 1_555
O10 Si4 1.726853 1_555
O11 Si0 1.643712 1_555
O12 Si6 1.608527 1_566
O13 Si0 1.658708 1_565
O14 Si6 1.686958 1_565
O14 Si3 1.726853 1_555
O15 Si3 1.647518 1_555
O16 Si1 1.635984 1_555
O17 Si4 1.635987 1_555
O18 Si4 1.647518 1_555
O19 Si1 1.647518 1_555
O20 Si5 1.608532 1_556
O21 Si7 1.643715 1_555
O22 Si7 1.668851 1_555
O23 Si2 1.647518 1_555
O24 Si1 1.626989 1_565
O25 Si6 1.686958 1_555
O25 Si1 1.726853 1_555
O26 Si2 1.626986 1_555
O27 Si5 1.608530 1_555
