# generated using pymatgen
data_Nb2AgPS10
_symmetry_space_group_name_H-M   'P 1'
_cell_length_a   13.31204296
_cell_length_b   13.31204296
_cell_length_c   13.05949112
_cell_angle_alpha   86.43852292
_cell_angle_beta   86.43852292
_cell_angle_gamma   36.02542995
_symmetry_Int_Tables_number   1
_chemical_formula_structural   Nb2AgPS10
_chemical_formula_sum   'Nb8 Ag4 P4 S40'
_cell_volume   1358.22283924
_cell_formula_units_Z   4
loop_
 _symmetry_equiv_pos_site_id
 _symmetry_equiv_pos_as_xyz
  1  'x, y, z'
loop_
 _atom_site_type_symbol
 _atom_site_label
 _atom_site_symmetry_multiplicity
 _atom_site_fract_x
 _atom_site_fract_y
 _atom_site_fract_z
 _atom_site_occupancy
  Nb  Nb0  1  0.20263400  0.06730800  0.28653500  1
  Nb  Nb1  1  0.91480000  0.81179800  0.50481200  1
  Nb  Nb2  1  0.08520000  0.18820200  0.49518800  1
  Nb  Nb3  1  0.93269200  0.79736600  0.21346500  1
  Nb  Nb4  1  0.79736600  0.93269200  0.71346500  1
  Nb  Nb5  1  0.06730800  0.20263400  0.78653500  1
  Nb  Nb6  1  0.18820200  0.08520000  0.99518800  1
  Nb  Nb7  1  0.81179800  0.91480000  0.00481200  1
  Ag  Ag0  1  0.58597900  0.52858100  0.90438700  1
  Ag  Ag1  1  0.47141900  0.41402100  0.59561300  1
  Ag  Ag2  1  0.41402100  0.47141900  0.09561300  1
  Ag  Ag3  1  0.52858100  0.58597900  0.40438700  1
  P  P0  1  0.53369600  0.27869400  0.86657700  1
  P  P1  1  0.27869400  0.53369600  0.36657700  1
  P  P2  1  0.72130600  0.46630400  0.63342300  1
  P  P3  1  0.46630400  0.72130600  0.13342300  1
  S  S0  1  0.20079100  0.92998700  0.14618100  1
  S  S1  1  0.14972000  0.26000600  0.63226400  1
  S  S2  1  0.51089600  0.78145600  0.00634400  1
  S  S3  1  0.74083400  0.52346300  0.76941000  1
  S  S4  1  0.94663500  0.18132900  0.93036100  1
  S  S5  1  0.73999400  0.85028000  0.86773600  1
  S  S6  1  0.78145600  0.51089600  0.50634400  1
  S  S7  1  0.59757700  0.48579000  0.11457400  1
  S  S8  1  0.93239200  0.65825000  0.09310300  1
  S  S9  1  0.51421000  0.40242300  0.38542600  1
  S  S10  1  0.85028000  0.73999400  0.36773600  1
  S  S11  1  0.34175000  0.06760800  0.40689700  1
  S  S12  1  0.40242300  0.51421000  0.88542600  1
  S  S13  1  0.88847100  0.69476000  0.64145000  1
  S  S14  1  0.05336500  0.81867100  0.06963900  1
  S  S15  1  0.48910400  0.21854400  0.99365600  1
  S  S16  1  0.18132900  0.94663500  0.43036100  1
  S  S17  1  0.98598500  0.70385600  0.85645600  1
  S  S18  1  0.29614400  0.01401500  0.64354400  1
  S  S19  1  0.17927200  0.95220400  0.87044900  1
  S  S20  1  0.04779600  0.82072800  0.62955100  1
  S  S21  1  0.69476000  0.88847100  0.14145000  1
  S  S22  1  0.79920900  0.07001300  0.85381900  1
  S  S23  1  0.82072800  0.04779600  0.12955100  1
  S  S24  1  0.26000600  0.14972000  0.13226400  1
  S  S25  1  0.48579000  0.59757700  0.61457400  1
  S  S26  1  0.30524000  0.11152900  0.85855000  1
  S  S27  1  0.52346300  0.74083400  0.26941000  1
  S  S28  1  0.11152900  0.30524000  0.35855000  1
  S  S29  1  0.47653700  0.25916600  0.73059000  1
  S  S30  1  0.81867100  0.05336500  0.56963900  1
  S  S31  1  0.25916600  0.47653700  0.23059000  1
  S  S32  1  0.70385600  0.98598500  0.35645600  1
  S  S33  1  0.95220400  0.17927200  0.37044900  1
  S  S34  1  0.07001300  0.79920900  0.35381900  1
  S  S35  1  0.92998700  0.20079100  0.64618100  1
  S  S36  1  0.06760800  0.34175000  0.90689700  1
  S  S37  1  0.21854400  0.48910400  0.49365600  1
  S  S38  1  0.65825000  0.93239200  0.59310300  1
  S  S39  1  0.01401500  0.29614400  0.14354400  1
loop_
_geom_bond_atom_site_label_1
_geom_bond_atom_site_label_2
_geom_bond_distance
_geom_bond_site_symmetry_2
Nb0 S33 2.499625 1_455
Nb0 S11 2.504951 1_555
Nb0 S28 2.530314 1_555
Nb0 S16 2.546536 1_545
Nb0 S39 2.564210 1_555
Nb0 S24 2.595263 1_555
Nb0 S27 2.675309 1_545
Nb0 S0 2.682610 1_545
Nb1 S13 2.488894 1_555
Nb1 S30 2.498551 1_565
Nb1 S38 2.538271 1_555
Nb1 S20 2.554439 1_655
Nb1 S10 2.566618 1_555
Nb1 S32 2.569329 1_555
Nb1 S37 2.594815 1_655
Nb1 S34 2.675894 1_655
Nb2 S28 2.488894 1_555
Nb2 S16 2.498551 1_545
Nb2 S11 2.538271 1_555
Nb2 S33 2.554439 1_455
Nb2 S1 2.566618 1_555
Nb2 S18 2.569329 1_555
Nb2 S6 2.594815 1_455
Nb2 S35 2.675894 1_455
Nb3 S23 2.499625 1_565
Nb3 S8 2.504951 1_555
Nb3 S21 2.530314 1_555
Nb3 S14 2.546536 1_655
Nb3 S32 2.564210 1_555
Nb3 S10 2.595263 1_555
Nb3 S31 2.675309 1_655
Nb3 S34 2.682610 1_655
Nb4 S20 2.499625 1_655
Nb4 S38 2.504951 1_555
Nb4 S13 2.530314 1_555
Nb4 S30 2.546536 1_565
Nb4 S17 2.564210 1_555
Nb4 S5 2.595263 1_555
Nb4 S29 2.675309 1_565
Nb4 S22 2.682610 1_565
Nb5 S19 2.499625 1_545
Nb5 S36 2.504951 1_555
Nb5 S26 2.530314 1_555
Nb5 S4 2.546536 1_455
Nb5 S18 2.564210 1_555
Nb5 S1 2.595263 1_555
Nb5 S3 2.675309 1_455
Nb5 S35 2.682610 1_455
Nb6 S26 2.488894 1_555
Nb6 S4 2.498551 1_455
Nb6 S36 2.538271 1_555
Nb6 S19 2.554439 1_545
Nb6 S24 2.566618 1_556
Nb6 S39 2.569329 1_556
Nb6 S2 2.594815 1_546
Nb6 S0 2.675894 1_546
Nb7 S21 2.488894 1_555
Nb7 S14 2.498551 1_655
Nb7 S8 2.538271 1_555
Nb7 S23 2.554439 1_565
Nb7 S5 2.566618 1_554
Nb7 S17 2.569329 1_554
Nb7 S15 2.594815 1_564
Nb7 S22 2.675894 1_564
Ag0 S3 2.587986 1_555
Ag0 S12 2.627892 1_555
Ag0 S7 2.756651 1_556
Ag0 S4 2.939931 1_555
Ag0 S2 3.008818 1_556
Ag1 S29 2.587986 1_555
Ag1 S25 2.627892 1_555
Ag1 S9 2.756651 1_555
Ag1 S30 2.939931 1_555
Ag1 S37 3.008818 1_555
Ag2 S31 2.587986 1_555
Ag2 S7 2.627892 1_555
Ag2 S12 2.756651 1_554
Ag2 S14 2.939931 1_555
Ag2 S15 3.008818 1_554
Ag3 S27 2.587986 1_555
Ag3 S9 2.627892 1_555
Ag3 S25 2.756651 1_555
Ag3 S16 2.939931 1_555
Ag3 S6 3.008818 1_555
P0 S12 2.030833 1_555
P0 S15 2.056476 1_555
P0 S22 2.083276 1_555
P0 S29 2.084619 1_555
P1 S9 2.030833 1_555
P1 S37 2.056476 1_555
P1 S34 2.083276 1_555
P1 S31 2.084619 1_555
P2 S25 2.030833 1_555
P2 S6 2.056476 1_555
P2 S35 2.083276 1_555
P2 S3 2.084619 1_555
P3 S7 2.030833 1_555
P3 S2 2.056476 1_555
P3 S0 2.083276 1_555
P3 S27 2.084619 1_555
S1 S18 2.048324 1_555
S10 S32 2.048324 1_555
S11 S28 2.027015 1_555
S13 S38 2.027015 1_555
S14 S23 2.054931 1_465
S16 S33 2.054931 1_465
S17 S5 2.048324 1_555
S19 S4 2.054931 1_465
S20 S30 2.054931 1_465
S21 S8 2.027015 1_555
S24 S39 2.048324 1_555
S26 S36 2.027015 1_555
