# generated using pymatgen
data_Nd5Mo3O16
_symmetry_space_group_name_H-M   'P 1'
_cell_length_a   11.13778300
_cell_length_b   11.13778300
_cell_length_c   11.13778300
_cell_angle_alpha   90.00000000
_cell_angle_beta   90.00000000
_cell_angle_gamma   90.00000000
_symmetry_Int_Tables_number   1
_chemical_formula_structural   Nd5Mo3O16
_chemical_formula_sum   'Nd20 Mo12 O64'
_cell_volume   1381.64432181
_cell_formula_units_Z   4
loop_
 _symmetry_equiv_pos_site_id
 _symmetry_equiv_pos_as_xyz
  1  'x, y, z'
loop_
 _atom_site_type_symbol
 _atom_site_label
 _atom_site_symmetry_multiplicity
 _atom_site_fract_x
 _atom_site_fract_y
 _atom_site_fract_z
 _atom_site_occupancy
  Nd  Nd0  1  0.73977700  0.50000000  0.50000000  1
  Nd  Nd1  1  0.50000000  0.26022300  0.50000000  1
  Nd  Nd2  1  0.25000000  0.25000000  0.75000000  1
  Nd  Nd3  1  0.76022300  0.00000000  0.00000000  1
  Nd  Nd4  1  0.75000000  0.25000000  0.25000000  1
  Nd  Nd5  1  0.25000000  0.75000000  0.25000000  1
  Nd  Nd6  1  0.00000000  0.00000000  0.23977700  1
  Nd  Nd7  1  0.26022300  0.50000000  0.50000000  1
  Nd  Nd8  1  0.50000000  0.50000000  0.73977700  1
  Nd  Nd9  1  0.75000000  0.75000000  0.75000000  1
  Nd  Nd10  1  0.50000000  0.50000000  0.26022300  1
  Nd  Nd11  1  0.23977700  0.00000000  0.00000000  1
  Nd  Nd12  1  0.00000000  0.76022300  0.00000000  1
  Nd  Nd13  1  0.25000000  0.75000000  0.75000000  1
  Nd  Nd14  1  0.75000000  0.25000000  0.75000000  1
  Nd  Nd15  1  0.00000000  0.23977700  0.00000000  1
  Nd  Nd16  1  0.00000000  0.00000000  0.76022300  1
  Nd  Nd17  1  0.25000000  0.25000000  0.25000000  1
  Nd  Nd18  1  0.75000000  0.75000000  0.25000000  1
  Nd  Nd19  1  0.50000000  0.73977700  0.50000000  1
  Mo  Mo0  1  0.50000000  0.25000000  0.00000000  1
  Mo  Mo1  1  0.00000000  0.50000000  0.25000000  1
  Mo  Mo2  1  0.25000000  0.50000000  0.00000000  1
  Mo  Mo3  1  0.75000000  0.50000000  0.00000000  1
  Mo  Mo4  1  0.50000000  0.75000000  0.00000000  1
  Mo  Mo5  1  0.50000000  0.00000000  0.75000000  1
  Mo  Mo6  1  0.00000000  0.50000000  0.75000000  1
  Mo  Mo7  1  0.50000000  0.00000000  0.25000000  1
  Mo  Mo8  1  0.75000000  0.00000000  0.50000000  1
  Mo  Mo9  1  0.00000000  0.75000000  0.50000000  1
  Mo  Mo10  1  0.00000000  0.25000000  0.50000000  1
  Mo  Mo11  1  0.25000000  0.00000000  0.50000000  1
  O  O0  1  0.62900300  0.62900300  0.37099700  1
  O  O1  1  0.11635900  0.33436100  0.58025700  1
  O  O2  1  0.16563900  0.61635900  0.91974300  1
  O  O3  1  0.66563900  0.88364100  0.41974300  1
  O  O4  1  0.62900300  0.37099700  0.62900300  1
  O  O5  1  0.87099700  0.87099700  0.87099700  1
  O  O6  1  0.61635900  0.08025700  0.83436100  1
  O  O7  1  0.41974300  0.33436100  0.11635900  1
  O  O8  1  0.38364100  0.91974300  0.83436100  1
  O  O9  1  0.41974300  0.11635900  0.66563900  1
  O  O10  1  0.37099700  0.62900300  0.37099700  1
  O  O11  1  0.12900300  0.12900300  0.87099700  1
  O  O12  1  0.11635900  0.66563900  0.41974300  1
  O  O13  1  0.12900300  0.87099700  0.87099700  1
  O  O14  1  0.08025700  0.16563900  0.38364100  1
  O  O15  1  0.88364100  0.41974300  0.66563900  1
  O  O16  1  0.38364100  0.16563900  0.91974300  1
  O  O17  1  0.58025700  0.88364100  0.66563900  1
  O  O18  1  0.37099700  0.62900300  0.62900300  1
  O  O19  1  0.66563900  0.58025700  0.88364100  1
  O  O20  1  0.12900300  0.12900300  0.12900300  1
  O  O21  1  0.33436100  0.88364100  0.58025700  1
  O  O22  1  0.16563900  0.08025700  0.61635900  1
  O  O23  1  0.58025700  0.11635900  0.33436100  1
  O  O24  1  0.08025700  0.61635900  0.16563900  1
  O  O25  1  0.62900300  0.37099700  0.37099700  1
  O  O26  1  0.66563900  0.11635900  0.58025700  1
  O  O27  1  0.11635900  0.41974300  0.33436100  1
  O  O28  1  0.87099700  0.12900300  0.87099700  1
  O  O29  1  0.62900300  0.62900300  0.62900300  1
  O  O30  1  0.41974300  0.66563900  0.88364100  1
  O  O31  1  0.83436100  0.08025700  0.38364100  1
  O  O32  1  0.16563900  0.91974300  0.38364100  1
  O  O33  1  0.38364100  0.83436100  0.08025700  1
  O  O34  1  0.88364100  0.66563900  0.58025700  1
  O  O35  1  0.61635900  0.16563900  0.08025700  1
  O  O36  1  0.33436100  0.41974300  0.88364100  1
  O  O37  1  0.16563900  0.38364100  0.08025700  1
  O  O38  1  0.41974300  0.88364100  0.33436100  1
  O  O39  1  0.66563900  0.41974300  0.11635900  1
  O  O40  1  0.12900300  0.87099700  0.12900300  1
  O  O41  1  0.37099700  0.37099700  0.62900300  1
  O  O42  1  0.91974300  0.83436100  0.38364100  1
  O  O43  1  0.83436100  0.91974300  0.61635900  1
  O  O44  1  0.08025700  0.83436100  0.61635900  1
  O  O45  1  0.87099700  0.12900300  0.12900300  1
  O  O46  1  0.91974300  0.38364100  0.16563900  1
  O  O47  1  0.61635900  0.83436100  0.91974300  1
  O  O48  1  0.83436100  0.38364100  0.91974300  1
  O  O49  1  0.11635900  0.58025700  0.66563900  1
  O  O50  1  0.58025700  0.33436100  0.88364100  1
  O  O51  1  0.38364100  0.08025700  0.16563900  1
  O  O52  1  0.33436100  0.11635900  0.41974300  1
  O  O53  1  0.91974300  0.16563900  0.61635900  1
  O  O54  1  0.33436100  0.58025700  0.11635900  1
  O  O55  1  0.08025700  0.38364100  0.83436100  1
  O  O56  1  0.87099700  0.87099700  0.12900300  1
  O  O57  1  0.88364100  0.33436100  0.41974300  1
  O  O58  1  0.37099700  0.37099700  0.37099700  1
  O  O59  1  0.83436100  0.61635900  0.08025700  1
  O  O60  1  0.61635900  0.91974300  0.16563900  1
  O  O61  1  0.88364100  0.58025700  0.33436100  1
  O  O62  1  0.58025700  0.66563900  0.11635900  1
  O  O63  1  0.91974300  0.61635900  0.83436100  1
loop_
_geom_bond_atom_site_label_1
_geom_bond_atom_site_label_2
_geom_bond_distance
_geom_bond_site_symmetry_2
Nd0 O29 2.377191 1_555
Nd0 O0 2.377191 1_555
Nd0 O4 2.377191 1_555
Nd0 O25 2.377191 1_555
Nd0 O34 2.601914 1_555
Nd0 O15 2.601914 1_555
Nd0 O57 2.601914 1_555
Nd0 O61 2.601914 1_555
Nd1 O4 2.377191 1_555
Nd1 O41 2.377191 1_555
Nd1 O25 2.377191 1_555
Nd1 O58 2.377191 1_555
Nd1 O9 2.601914 1_555
Nd1 O26 2.601914 1_555
Nd1 O52 2.601914 1_555
Nd1 O23 2.601914 1_555
Nd2 O41 2.334178 1_555
Nd2 O11 2.334178 1_555
Nd2 O55 2.583135 1_555
Nd2 O36 2.583135 1_555
Nd2 O1 2.583135 1_555
Nd2 O22 2.583135 1_555
Nd2 O16 2.583135 1_555
Nd2 O9 2.583135 1_555
Nd3 O45 2.377191 1_555
Nd3 O56 2.377191 1_545
Nd3 O28 2.377191 1_554
Nd3 O5 2.377191 1_544
Nd3 O35 2.601914 1_555
Nd3 O60 2.601914 1_545
Nd3 O6 2.601914 1_554
Nd3 O47 2.601914 1_544
Nd4 O25 2.334178 1_555
Nd4 O45 2.334178 1_555
Nd4 O31 2.583135 1_555
Nd4 O57 2.583135 1_555
Nd4 O23 2.583135 1_555
Nd4 O46 2.583135 1_555
Nd4 O35 2.583135 1_555
Nd4 O39 2.583135 1_555
Nd5 O10 2.334178 1_555
Nd5 O40 2.334178 1_555
Nd5 O38 2.583135 1_555
Nd5 O33 2.583135 1_555
Nd5 O54 2.583135 1_555
Nd5 O32 2.583135 1_555
Nd5 O24 2.583135 1_555
Nd5 O12 2.583135 1_555
Nd6 O20 2.377191 1_555
Nd6 O40 2.377191 1_545
Nd6 O45 2.377191 1_455
Nd6 O56 2.377191 1_445
Nd6 O32 2.601914 1_545
Nd6 O14 2.601914 1_555
Nd6 O31 2.601914 1_455
Nd6 O42 2.601914 1_445
Nd7 O18 2.377191 1_555
Nd7 O10 2.377191 1_555
Nd7 O41 2.377191 1_555
Nd7 O58 2.377191 1_555
Nd7 O49 2.601914 1_555
Nd7 O12 2.601914 1_555
Nd7 O1 2.601914 1_555
Nd7 O27 2.601914 1_555
Nd8 O29 2.377191 1_555
Nd8 O18 2.377191 1_555
Nd8 O4 2.377191 1_555
Nd8 O41 2.377191 1_555
Nd8 O19 2.601914 1_555
Nd8 O30 2.601914 1_555
Nd8 O50 2.601914 1_555
Nd8 O36 2.601914 1_555
Nd9 O5 2.334178 1_555
Nd9 O29 2.334178 1_555
Nd9 O43 2.583135 1_555
Nd9 O47 2.583135 1_555
Nd9 O63 2.583135 1_555
Nd9 O19 2.583135 1_555
Nd9 O17 2.583135 1_555
Nd9 O34 2.583135 1_555
Nd10 O0 2.377191 1_555
Nd10 O10 2.377191 1_555
Nd10 O25 2.377191 1_555
Nd10 O58 2.377191 1_555
Nd10 O62 2.601914 1_555
Nd10 O39 2.601914 1_555
Nd10 O54 2.601914 1_555
Nd10 O7 2.601914 1_555
Nd11 O20 2.377191 1_555
Nd11 O11 2.377191 1_554
Nd11 O40 2.377191 1_545
Nd11 O13 2.377191 1_544
Nd11 O16 2.601914 1_554
Nd11 O51 2.601914 1_555
Nd11 O33 2.601914 1_545
Nd11 O8 2.601914 1_544
Nd12 O40 2.377191 1_555
Nd12 O56 2.377191 1_455
Nd12 O13 2.377191 1_554
Nd12 O5 2.377191 1_454
Nd12 O24 2.601914 1_555
Nd12 O2 2.601914 1_554
Nd12 O63 2.601914 1_454
Nd12 O59 2.601914 1_455
Nd13 O13 2.334178 1_555
Nd13 O18 2.334178 1_555
Nd13 O44 2.583135 1_555
Nd13 O21 2.583135 1_555
Nd13 O8 2.583135 1_555
Nd13 O30 2.583135 1_555
Nd13 O2 2.583135 1_555
Nd13 O49 2.583135 1_555
Nd14 O28 2.334178 1_555
Nd14 O4 2.334178 1_555
Nd14 O6 2.583135 1_555
Nd14 O50 2.583135 1_555
Nd14 O48 2.583135 1_555
Nd14 O15 2.583135 1_555
Nd14 O53 2.583135 1_555
Nd14 O26 2.583135 1_555
Nd15 O20 2.377191 1_555
Nd15 O11 2.377191 1_554
Nd15 O45 2.377191 1_455
Nd15 O28 2.377191 1_454
Nd15 O37 2.601914 1_555
Nd15 O46 2.601914 1_455
Nd15 O55 2.601914 1_554
Nd15 O48 2.601914 1_454
Nd16 O11 2.377191 1_555
Nd16 O13 2.377191 1_545
Nd16 O28 2.377191 1_455
Nd16 O5 2.377191 1_445
Nd16 O22 2.601914 1_555
Nd16 O53 2.601914 1_455
Nd16 O43 2.601914 1_445
Nd16 O44 2.601914 1_545
Nd17 O58 2.334178 1_555
Nd17 O20 2.334178 1_555
Nd17 O27 2.583135 1_555
Nd17 O52 2.583135 1_555
Nd17 O7 2.583135 1_555
Nd17 O51 2.583135 1_555
Nd17 O14 2.583135 1_555
Nd17 O37 2.583135 1_555
Nd18 O56 2.334178 1_555
Nd18 O0 2.334178 1_555
Nd18 O59 2.583135 1_555
Nd18 O61 2.583135 1_555
Nd18 O42 2.583135 1_555
Nd18 O3 2.583135 1_555
Nd18 O60 2.583135 1_555
Nd18 O62 2.583135 1_555
Nd19 O29 2.377191 1_555
Nd19 O18 2.377191 1_555
Nd19 O0 2.377191 1_555
Nd19 O10 2.377191 1_555
Nd19 O3 2.601914 1_555
Nd19 O17 2.601914 1_555
Nd19 O38 2.601914 1_555
Nd19 O21 2.601914 1_555
Mo0 O7 1.833422 1_555
Mo0 O50 1.833422 1_554
Mo0 O35 1.833422 1_555
Mo0 O16 1.833422 1_554
Mo1 O27 1.833422 1_555
Mo1 O61 1.833422 1_455
Mo1 O24 1.833422 1_555
Mo1 O46 1.833422 1_455
Mo2 O54 1.833422 1_555
Mo2 O36 1.833422 1_554
Mo2 O37 1.833422 1_555
Mo2 O2 1.833422 1_554
Mo3 O39 1.833422 1_555
Mo3 O59 1.833422 1_555
Mo3 O48 1.833422 1_554
Mo3 O19 1.833422 1_554
Mo4 O62 1.833422 1_555
Mo4 O33 1.833422 1_555
Mo4 O47 1.833422 1_554
Mo4 O30 1.833422 1_554
Mo5 O9 1.833422 1_555
Mo5 O8 1.833422 1_545
Mo5 O6 1.833422 1_555
Mo5 O17 1.833422 1_545
Mo6 O49 1.833422 1_555
Mo6 O55 1.833422 1_555
Mo6 O63 1.833422 1_455
Mo6 O15 1.833422 1_455
Mo7 O23 1.833422 1_555
Mo7 O38 1.833422 1_545
Mo7 O60 1.833422 1_545
Mo7 O51 1.833422 1_555
Mo8 O26 1.833422 1_555
Mo8 O43 1.833422 1_545
Mo8 O31 1.833422 1_555
Mo8 O3 1.833422 1_545
Mo9 O12 1.833422 1_555
Mo9 O42 1.833422 1_455
Mo9 O44 1.833422 1_555
Mo9 O34 1.833422 1_455
Mo10 O1 1.833422 1_555
Mo10 O57 1.833422 1_455
Mo10 O14 1.833422 1_555
Mo10 O53 1.833422 1_455
Mo11 O52 1.833422 1_555
Mo11 O21 1.833422 1_545
Mo11 O32 1.833422 1_545
Mo11 O22 1.833422 1_555
