# generated using pymatgen
data_ZnSb2(XeF4)6
_symmetry_space_group_name_H-M   'P 1'
_cell_length_a   9.73446831
_cell_length_b   9.73446831
_cell_length_c   9.73446900
_cell_angle_alpha   64.27022466
_cell_angle_beta   64.27022466
_cell_angle_gamma   64.27022194
_symmetry_Int_Tables_number   1
_chemical_formula_structural   ZnSb2(XeF4)6
_chemical_formula_sum   'Zn1 Sb2 Xe6 F24'
_cell_volume   713.46636656
_cell_formula_units_Z   1
loop_
 _symmetry_equiv_pos_site_id
 _symmetry_equiv_pos_as_xyz
  1  'x, y, z'
loop_
 _atom_site_type_symbol
 _atom_site_label
 _atom_site_symmetry_multiplicity
 _atom_site_fract_x
 _atom_site_fract_y
 _atom_site_fract_z
 _atom_site_occupancy
  Zn  Zn0  1  0.00000000  0.00000000  0.00000000  1
  Sb  Sb0  1  0.25267300  0.25267300  0.25267300  1
  Sb  Sb1  1  0.74732700  0.74732700  0.74732700  1
  Xe  Xe0  1  0.26653900  0.78039300  0.70051100  1
  Xe  Xe1  1  0.78039300  0.70051100  0.26653900  1
  Xe  Xe2  1  0.73346100  0.21960700  0.29948900  1
  Xe  Xe3  1  0.21960700  0.29948900  0.73346100  1
  Xe  Xe4  1  0.70051100  0.26653900  0.78039300  1
  Xe  Xe5  1  0.29948900  0.73346100  0.21960700  1
  F  F0  1  0.20777500  0.06030600  0.88119600  1
  F  F1  1  0.63323800  0.87057600  0.59078500  1
  F  F2  1  0.06030600  0.88119600  0.20777500  1
  F  F3  1  0.40921500  0.36676200  0.12942400  1
  F  F4  1  0.10094100  0.13404200  0.37903400  1
  F  F5  1  0.87057600  0.59078500  0.63323800  1
  F  F6  1  0.36676200  0.12942400  0.40921500  1
  F  F7  1  0.76406500  0.47870400  0.40694600  1
  F  F8  1  0.11880400  0.79222500  0.93969400  1
  F  F9  1  0.23593500  0.52129600  0.59305400  1
  F  F10  1  0.79222500  0.93969400  0.11880400  1
  F  F11  1  0.88119600  0.20777500  0.06030600  1
  F  F12  1  0.59305400  0.23593500  0.52129600  1
  F  F13  1  0.89905900  0.86595800  0.62096600  1
  F  F14  1  0.86595800  0.62096600  0.89905900  1
  F  F15  1  0.37903400  0.10094100  0.13404200  1
  F  F16  1  0.59078500  0.63323800  0.87057600  1
  F  F17  1  0.62096600  0.89905900  0.86595800  1
  F  F18  1  0.13404200  0.37903400  0.10094100  1
  F  F19  1  0.40694600  0.76406500  0.47870400  1
  F  F20  1  0.12942400  0.40921500  0.36676200  1
  F  F21  1  0.93969400  0.11880400  0.79222500  1
  F  F22  1  0.47870400  0.40694600  0.76406500  1
  F  F23  1  0.52129600  0.59305400  0.23593500  1
loop_
_geom_bond_atom_site_label_1
_geom_bond_atom_site_label_2
_geom_bond_distance
_geom_bond_site_symmetry_2
F0 Zn0 2.045347 1_556
F0 Xe3 2.164321 1_555
F1 Sb1 1.928756 1_555
F2 Zn0 2.045347 1_565
F2 Xe5 2.164321 1_555
F3 Sb0 1.928756 1_555
F4 Sb0 1.923124 1_555
F5 Sb1 1.928756 1_555
F6 Sb0 1.928756 1_555
F7 Xe1 2.025443 1_555
F8 Zn0 2.045347 1_566
F8 Xe0 2.164321 1_555
F9 Xe3 2.025443 1_555
F10 Zn0 2.045347 1_665
F10 Xe1 2.164321 1_555
F11 Zn0 2.045347 1_655
F11 Xe2 2.164321 1_555
F12 Xe2 2.025443 1_555
F13 Sb1 1.923124 1_555
F14 Sb1 1.923124 1_555
F15 Sb0 1.923124 1_555
F16 Sb1 1.928756 1_555
F17 Sb1 1.923124 1_555
F18 Sb0 1.923124 1_555
F19 Xe0 2.025443 1_555
F20 Sb0 1.928756 1_555
F21 Zn0 2.045347 1_656
F21 Xe4 2.164321 1_555
F22 Xe4 2.025443 1_555
F23 Xe5 2.025443 1_555
