# generated using pymatgen
data_Bi6P4PbO20
_symmetry_space_group_name_H-M   'P 1'
_cell_length_a   7.05320300
_cell_length_b   7.73982669
_cell_length_c   9.29843789
_cell_angle_alpha   107.11819734
_cell_angle_beta   93.19233011
_cell_angle_gamma   111.95732258
_symmetry_Int_Tables_number   1
_chemical_formula_structural   Bi6P4PbO20
_chemical_formula_sum   'Bi6 P4 Pb1 O20'
_cell_volume   441.99411991
_cell_formula_units_Z   1
loop_
 _symmetry_equiv_pos_site_id
 _symmetry_equiv_pos_as_xyz
  1  'x, y, z'
loop_
 _atom_site_type_symbol
 _atom_site_label
 _atom_site_symmetry_multiplicity
 _atom_site_fract_x
 _atom_site_fract_y
 _atom_site_fract_z
 _atom_site_occupancy
  Bi  Bi0  1  0.19360900  0.69565900  0.67460800  1
  Bi  Bi1  1  0.80639100  0.30434100  0.32539200  1
  Bi  Bi2  1  0.56098300  0.20728900  0.91182900  1
  Bi  Bi3  1  0.43901700  0.79271100  0.08817100  1
  Bi  Bi4  1  0.66848200  0.87386600  0.49024900  1
  Bi  Bi5  1  0.33151800  0.12613400  0.50975100  1
  P  P0  1  0.95305700  0.73007000  0.24395900  1
  P  P1  1  0.04694300  0.26993000  0.75604100  1
  P  P2  1  0.34958900  0.40078700  0.25847200  1
  P  P3  1  0.65041100  0.59921300  0.74152800  1
  Pb  Pb0  1  0.00000000  0.00000000  0.00000000  1
  O  O0  1  0.12336500  0.82576700  0.15771500  1
  O  O1  1  0.87663500  0.17423300  0.84228500  1
  O  O2  1  0.13447800  0.26755100  0.28323600  1
  O  O3  1  0.86552200  0.73244900  0.71676400  1
  O  O4  1  0.78602200  0.81749000  0.24126200  1
  O  O5  1  0.21397800  0.18251000  0.75873800  1
  O  O6  1  0.67640700  0.09393200  0.09736400  1
  O  O7  1  0.32359300  0.90606800  0.90263600  1
  O  O8  1  0.37789900  0.62099300  0.31289100  1
  O  O9  1  0.62210100  0.37900700  0.68710900  1
  O  O10  1  0.35656300  0.32952100  0.08540500  1
  O  O11  1  0.64343700  0.67047900  0.91459500  1
  O  O12  1  0.55420300  0.02793500  0.36290000  1
  O  O13  1  0.44579700  0.97206500  0.63710000  1
  O  O14  1  0.52202700  0.38006800  0.35588700  1
  O  O15  1  0.47797300  0.61993200  0.64411300  1
  O  O16  1  0.04830600  0.79021300  0.41649600  1
  O  O17  1  0.95169400  0.20978700  0.58350400  1
  O  O18  1  0.85562500  0.50039500  0.16891000  1
  O  O19  1  0.14437500  0.49960500  0.83109000  1
loop_
_geom_bond_atom_site_label_1
_geom_bond_atom_site_label_2
_geom_bond_distance
_geom_bond_site_symmetry_2
Bi0 O7 2.150012 1_555
Bi0 O15 2.300282 1_555
Bi0 O19 2.345695 1_555
Bi0 O13 2.350507 1_555
Bi0 O3 2.473401 1_455
Bi1 O6 2.150012 1_555
Bi1 O14 2.300282 1_555
Bi1 O18 2.345695 1_555
Bi1 O12 2.350507 1_555
Bi1 O2 2.473401 1_655
Bi2 O7 2.278971 1_545
Bi2 O6 2.382767 1_556
Bi2 O1 2.434996 1_555
Bi2 O10 2.441142 1_556
Bi2 O13 2.534796 1_545
Bi2 O5 2.674624 1_555
Bi2 O9 2.761374 1_555
Bi2 O18 2.812147 1_556
Bi3 O6 2.278971 1_565
Bi3 O7 2.382767 1_554
Bi3 O0 2.434996 1_555
Bi3 O11 2.441142 1_554
Bi3 O12 2.534796 1_565
Bi3 O4 2.674624 1_555
Bi3 O8 2.761374 1_555
Bi3 O19 2.812147 1_554
Bi4 O12 2.217571 1_565
Bi4 O13 2.330187 1_555
Bi4 O8 2.339776 1_555
Bi4 O17 2.469399 1_565
Bi4 O4 2.475356 1_555
Bi4 O15 2.758571 1_555
Bi5 O13 2.217571 1_545
Bi5 O12 2.330187 1_555
Bi5 O9 2.339776 1_555
Bi5 O16 2.469399 1_545
Bi5 O5 2.475356 1_555
Bi5 O14 2.758571 1_555
O0 P0 1.557633 1_455
O0 Pb0 2.574074 1_565
O1 P1 1.557633 1_655
O1 Pb0 2.574074 1_656
O2 P2 1.557899 1_555
O2 Pb0 2.677003 1_555
O3 P3 1.557899 1_555
O3 Pb0 2.677003 1_666
O4 P0 1.565011 1_555
O5 P1 1.565011 1_555
O6 Pb0 2.764225 1_655
O7 Pb0 2.764225 1_566
O8 P2 1.557978 1_555
O9 P3 1.557978 1_555
O10 P2 1.550137 1_555
O10 Pb0 2.692343 1_555
O11 P3 1.550137 1_555
O11 Pb0 2.692343 1_666
O14 P2 1.560163 1_555
O15 P3 1.560163 1_555
O16 P0 1.564714 1_455
O17 P1 1.564714 1_655
O18 P0 1.556281 1_555
O19 P1 1.556281 1_555
