# generated using pymatgen
data_EuBRh3
_symmetry_space_group_name_H-M   'P 1'
_cell_length_a   4.22587613
_cell_length_b   4.22581656
_cell_length_c   4.22584018
_cell_angle_alpha   90.00000000
_cell_angle_beta   90.00000000
_cell_angle_gamma   90.00000000
_symmetry_Int_Tables_number   1
_chemical_formula_structural   EuBRh3
_chemical_formula_sum   'Eu1 B1 Rh3'
_cell_volume   75.46411297
_cell_formula_units_Z   1
loop_
 _symmetry_equiv_pos_site_id
 _symmetry_equiv_pos_as_xyz
  1  'x, y, z'
loop_
 _atom_site_type_symbol
 _atom_site_label
 _atom_site_symmetry_multiplicity
 _atom_site_fract_x
 _atom_site_fract_y
 _atom_site_fract_z
 _atom_site_occupancy
  Eu  Eu0  1  -0.00000000  -0.00000000  -0.00000000  1
  B  B0  1  0.50000000  0.50000000  0.50000000  1
  Rh  Rh0  1  -0.00000000  0.50000000  0.50000000  1
  Rh  Rh1  1  0.50000000  0.50000000  -0.00000000  1
  Rh  Rh2  1  0.50000000  -0.00000000  0.50000000  1
loop_
_geom_bond_atom_site_label_1
_geom_bond_atom_site_label_2
_geom_bond_distance
_geom_bond_site_symmetry_2
Eu0 Rh0 2.988112 1_544
Eu0 Rh0 2.988112 1_545
Eu0 Rh0 2.988112 1_555
Eu0 Rh0 2.988112 1_554
Eu0 Rh1 2.988125 1_445
Eu0 Rh1 2.988125 1_555
Eu0 Rh1 2.988125 1_545
Eu0 Rh1 2.988125 1_455
Eu0 Rh2 2.988133 1_455
Eu0 Rh2 2.988133 1_554
Eu0 Rh2 2.988133 1_454
Eu0 Rh2 2.988133 1_555
B0 Rh2 2.112908 1_565
B0 Rh2 2.112908 1_555
B0 Rh1 2.112920 1_555
B0 Rh1 2.112920 1_556
B0 Rh0 2.112938 1_655
B0 Rh0 2.112938 1_555
