# generated using pymatgen
data_Ba6Ru3(ClO6)2
_symmetry_space_group_name_H-M   'P 1'
_cell_length_a   5.91841900
_cell_length_b   5.91841994
_cell_length_c   15.04776100
_cell_angle_alpha   90.00000000
_cell_angle_beta   90.00000000
_cell_angle_gamma   120.00000034
_symmetry_Int_Tables_number   1
_chemical_formula_structural   Ba6Ru3(ClO6)2
_chemical_formula_sum   'Ba6 Ru3 Cl2 O12'
_cell_volume   456.47184997
_cell_formula_units_Z   1
loop_
 _symmetry_equiv_pos_site_id
 _symmetry_equiv_pos_as_xyz
  1  'x, y, z'
loop_
 _atom_site_type_symbol
 _atom_site_label
 _atom_site_symmetry_multiplicity
 _atom_site_fract_x
 _atom_site_fract_y
 _atom_site_fract_z
 _atom_site_occupancy
  Ba  Ba0  1  0.66666700  0.33333300  0.63670400  1
  Ba  Ba1  1  0.33333300  0.66666700  0.36329600  1
  Ba  Ba2  1  0.33333300  0.66666700  0.78604000  1
  Ba  Ba3  1  0.66666700  0.33333300  0.91940400  1
  Ba  Ba4  1  0.33333300  0.66666700  0.08059600  1
  Ba  Ba5  1  0.66666700  0.33333300  0.21396000  1
  Ru  Ru0  1  0.00000000  0.00000000  0.17494800  1
  Ru  Ru1  1  0.00000000  0.00000000  0.00000000  1
  Ru  Ru2  1  0.00000000  0.00000000  0.82505200  1
  Cl  Cl0  1  0.33333300  0.66666700  0.57696400  1
  Cl  Cl1  1  0.66666700  0.33333300  0.42303600  1
  O  O0  1  0.84078200  0.15921800  0.75952900  1
  O  O1  1  0.15469300  0.30938500  0.91703200  1
  O  O2  1  0.84530700  0.15469300  0.08296800  1
  O  O3  1  0.15469300  0.84530700  0.91703200  1
  O  O4  1  0.84530700  0.69061500  0.08296800  1
  O  O5  1  0.69061500  0.84530700  0.91703200  1
  O  O6  1  0.31843600  0.15921800  0.75952900  1
  O  O7  1  0.30938500  0.15469300  0.08296800  1
  O  O8  1  0.68156400  0.84078200  0.24047100  1
  O  O9  1  0.15921800  0.84078200  0.24047100  1
  O  O10  1  0.15921800  0.31843600  0.24047100  1
  O  O11  1  0.84078200  0.68156400  0.75952900  1
loop_
_geom_bond_atom_site_label_1
_geom_bond_atom_site_label_2
_geom_bond_distance
_geom_bond_site_symmetry_2
Ba0 O0 2.569377 1_555
Ba0 O6 2.569380 1_555
Ba0 O11 2.569381 1_555
Ba0 Cl1 3.215225 1_555
Ba0 Cl0 3.533269 1_655
Ba0 Cl0 3.533269 1_545
Ba0 Cl0 3.533279 1_555
Ba1 O9 2.569377 1_555
Ba1 O8 2.569380 1_555
Ba1 O10 2.569381 1_555
Ba1 Cl0 3.215225 1_555
Ba1 Cl1 3.533269 1_455
Ba1 Cl1 3.533269 1_565
Ba1 Cl1 3.533279 1_555
Ba2 O3 2.690505 1_555
Ba2 O5 2.690512 1_555
Ba2 O1 2.690512 1_555
Ba2 O11 2.986952 1_455
Ba2 O6 2.986952 1_565
Ba2 O0 2.986955 1_565
Ba2 O0 2.986955 1_455
Ba2 O11 2.986957 1_555
Ba2 O6 2.986958 1_555
Ba2 Cl0 3.146126 1_555
Ba3 O1 2.961969 1_555
Ba3 O1 2.961969 1_655
Ba3 O3 2.961969 1_545
Ba3 O3 2.961969 1_655
Ba3 O5 2.961970 1_545
Ba3 O5 2.961970 1_555
Ba3 O0 2.995561 1_555
Ba3 O6 2.995564 1_555
Ba3 O11 2.995564 1_555
Ba3 O2 3.067784 1_556
Ba3 O7 3.067790 1_556
Ba3 O4 3.067790 1_556
Ba4 O4 2.961969 1_555
Ba4 O4 2.961969 1_455
Ba4 O2 2.961969 1_565
Ba4 O2 2.961969 1_455
Ba4 O7 2.961970 1_565
Ba4 O7 2.961970 1_555
Ba4 O9 2.995561 1_555
Ba4 O8 2.995564 1_555
Ba4 O10 2.995564 1_555
Ba4 O3 3.067784 1_554
Ba4 O5 3.067790 1_554
Ba4 O1 3.067790 1_554
Ba5 O2 2.690505 1_555
Ba5 O7 2.690512 1_555
Ba5 O4 2.690512 1_555
Ba5 O10 2.986952 1_655
Ba5 O8 2.986952 1_545
Ba5 O9 2.986955 1_545
Ba5 O9 2.986955 1_655
Ba5 O10 2.986957 1_555
Ba5 O8 2.986958 1_555
Ba5 Cl1 3.146126 1_555
O0 Ru2 1.906840 1_655
O1 Ru1 2.018247 1_556
O1 Ru2 2.104834 1_555
O2 Ru1 2.018251 1_655
O2 Ru0 2.104838 1_655
O3 Ru1 2.018251 1_566
O3 Ru2 2.104838 1_565
O4 Ru1 2.018247 1_665
O4 Ru0 2.104834 1_665
O5 Ru1 2.018247 1_666
O5 Ru2 2.104834 1_665
O6 Ru2 1.906840 1_555
O7 Ru1 2.018247 1_555
O7 Ru0 2.104834 1_555
O8 Ru0 1.906840 1_665
O9 Ru0 1.906840 1_565
O10 Ru0 1.906841 1_555
O11 Ru2 1.906841 1_665
