# generated using pymatgen
data_Pr3IrO7
_symmetry_space_group_name_H-M   'P 1'
_cell_length_a   6.68385117
_cell_length_b   6.68385117
_cell_length_c   7.57392503
_cell_angle_alpha   90.00000000
_cell_angle_beta   90.00000000
_cell_angle_gamma   112.36694145
_symmetry_Int_Tables_number   1
_chemical_formula_structural   Pr3IrO7
_chemical_formula_sum   'Pr6 Ir2 O14'
_cell_volume   312.90051641
_cell_formula_units_Z   2
loop_
 _symmetry_equiv_pos_site_id
 _symmetry_equiv_pos_as_xyz
  1  'x, y, z'
loop_
 _atom_site_type_symbol
 _atom_site_label
 _atom_site_symmetry_multiplicity
 _atom_site_fract_x
 _atom_site_fract_y
 _atom_site_fract_z
 _atom_site_occupancy
  Pr  Pr0  1  -0.00000000  0.00000000  0.00000000  1
  Pr  Pr1  1  -0.00000000  0.00000000  0.50000000  1
  Pr  Pr2  1  0.46933466  0.91035347  0.75000000  1
  Pr  Pr3  1  0.53066534  0.08964653  0.25000000  1
  Pr  Pr4  1  0.91035347  0.46933466  0.75000000  1
  Pr  Pr5  1  0.08964653  0.53066534  0.25000000  1
  Ir  Ir0  1  0.50000000  0.50000000  0.00000000  1
  Ir  Ir1  1  0.50000000  0.50000000  0.50000000  1
  O  O0  1  0.59313794  0.59313794  0.75000000  1
  O  O1  1  0.40686206  0.40686206  0.25000000  1
  O  O2  1  0.84176331  0.10372806  0.75000000  1
  O  O3  1  0.15823669  0.89627194  0.25000000  1
  O  O4  1  0.10372806  0.84176331  0.75000000  1
  O  O5  1  0.89627194  0.15823669  0.25000000  1
  O  O6  1  0.44326874  0.19119839  0.95829542  1
  O  O7  1  0.55673126  0.80880161  0.45829542  1
  O  O8  1  0.19119839  0.44326874  0.95829542  1
  O  O9  1  0.80880161  0.55673126  0.45829542  1
  O  O10  1  0.44326874  0.19119839  0.54170458  1
  O  O11  1  0.55673126  0.80880161  0.04170458  1
  O  O12  1  0.80880161  0.55673126  0.04170458  1
  O  O13  1  0.19119839  0.44326874  0.54170458  1
loop_
_geom_bond_atom_site_label_1
_geom_bond_atom_site_label_2
_geom_bond_distance
_geom_bond_site_symmetry_2
Ir0 O6 1.976852 1_554
Ir0 O8 1.976852 1_554
Ir0 O12 1.976852 1_555
Ir0 O11 1.976852 1_555
Ir0 O0 2.016282 1_554
Ir0 O1 2.016282 1_555
Ir1 O10 1.976852 1_555
Ir1 O13 1.976852 1_555
Ir1 O9 1.976852 1_555
Ir1 O7 1.976852 1_555
Ir1 O0 2.016282 1_555
Ir1 O1 2.016282 1_555
O0 Pr4 2.552514 1_555
O0 Pr2 2.552514 1_555
O1 Pr5 2.552514 1_555
O1 Pr3 2.552514 1_555
O2 Pr4 2.308468 1_555
O2 Pr2 2.327724 1_545
O2 Pr1 2.396369 1_655
O2 Pr0 2.396369 1_656
O3 Pr5 2.308468 1_555
O3 Pr3 2.327724 1_565
O3 Pr0 2.396369 1_565
O3 Pr1 2.396369 1_565
O4 Pr2 2.308468 1_555
O4 Pr4 2.327724 1_455
O4 Pr1 2.396369 1_565
O4 Pr0 2.396369 1_566
O5 Pr3 2.308468 1_555
O5 Pr5 2.327724 1_655
O5 Pr1 2.396369 1_655
O5 Pr0 2.396369 1_655
O6 Pr3 2.446410 1_556
O6 Pr2 2.508329 1_545
O6 Pr0 2.762094 1_556
O7 Pr2 2.446410 1_555
O7 Pr3 2.508329 1_565
O7 Pr1 2.762094 1_665
O8 Pr5 2.446410 1_556
O8 Pr4 2.508329 1_455
O8 Pr0 2.762094 1_556
O9 Pr4 2.446410 1_555
O9 Pr5 2.508329 1_655
O9 Pr1 2.762094 1_665
O10 Pr3 2.446410 1_555
O10 Pr2 2.508329 1_545
O10 Pr1 2.762094 1_555
O11 Pr2 2.446410 1_554
O11 Pr3 2.508329 1_565
O11 Pr0 2.762094 1_665
O12 Pr4 2.446410 1_554
O12 Pr5 2.508329 1_655
O12 Pr0 2.762094 1_665
O13 Pr5 2.446410 1_555
O13 Pr4 2.508329 1_455
O13 Pr1 2.762094 1_555
