# generated using pymatgen
data_Ce10(B3C4)3
_symmetry_space_group_name_H-M   'P 1'
_cell_length_a   8.31673900
_cell_length_b   8.31673900
_cell_length_c   24.67878900
_cell_angle_alpha   90.00000000
_cell_angle_beta   90.00000000
_cell_angle_gamma   90.00000000
_symmetry_Int_Tables_number   1
_chemical_formula_structural   Ce10(B3C4)3
_chemical_formula_sum   'Ce40 B36 C48'
_cell_volume   1706.98612000
_cell_formula_units_Z   4
loop_
 _symmetry_equiv_pos_site_id
 _symmetry_equiv_pos_as_xyz
  1  'x, y, z'
loop_
 _atom_site_type_symbol
 _atom_site_label
 _atom_site_symmetry_multiplicity
 _atom_site_fract_x
 _atom_site_fract_y
 _atom_site_fract_z
 _atom_site_occupancy
  Ce  Ce0  1  0.49232400  0.18939700  0.58057700  1
  Ce  Ce1  1  0.00767600  0.68939700  0.66942300  1
  Ce  Ce2  1  0.79876300  0.29503900  0.68090400  1
  Ce  Ce3  1  0.60303200  0.91679300  0.70778100  1
  Ce  Ce4  1  0.18939700  0.49232400  0.41942300  1
  Ce  Ce5  1  0.39856400  0.70468800  0.94525900  1
  Ce  Ce6  1  0.98980600  0.10054600  0.44058400  1
  Ce  Ce7  1  0.79503900  0.70123700  0.43090400  1
  Ce  Ce8  1  0.70123700  0.79503900  0.56909600  1
  Ce  Ce9  1  0.29876300  0.20496100  0.06909600  1
  Ce  Ce10  1  0.70468800  0.39856400  0.05474100  1
  Ce  Ce11  1  0.91679300  0.60303200  0.29221900  1
  Ce  Ce12  1  0.51019400  0.60054600  0.80941600  1
  Ce  Ce13  1  0.81060300  0.50767600  0.91942300  1
  Ce  Ce14  1  0.20468800  0.10143600  0.69525900  1
  Ce  Ce15  1  0.01019400  0.89945400  0.94058400  1
  Ce  Ce16  1  0.20496100  0.29876300  0.93090400  1
  Ce  Ce17  1  0.10143600  0.20468800  0.30474100  1
  Ce  Ce18  1  0.50767600  0.81060300  0.08057700  1
  Ce  Ce19  1  0.79531200  0.89856400  0.19525900  1
  Ce  Ce20  1  0.39696800  0.08320700  0.20778100  1
  Ce  Ce21  1  0.99232400  0.31060300  0.16942300  1
  Ce  Ce22  1  0.08320700  0.39696800  0.79221900  1
  Ce  Ce23  1  0.29531200  0.60143600  0.55474100  1
  Ce  Ce24  1  0.89945400  0.01019400  0.05941600  1
  Ce  Ce25  1  0.58320700  0.10303200  0.95778100  1
  Ce  Ce26  1  0.48980600  0.39945400  0.30941600  1
  Ce  Ce27  1  0.89696800  0.41679300  0.54221900  1
  Ce  Ce28  1  0.10303200  0.58320700  0.04221900  1
  Ce  Ce29  1  0.20123700  0.70496100  0.18090400  1
  Ce  Ce30  1  0.39945400  0.48980600  0.69058400  1
  Ce  Ce31  1  0.70496100  0.20123700  0.81909600  1
  Ce  Ce32  1  0.60054600  0.51019400  0.19058400  1
  Ce  Ce33  1  0.29503900  0.79876300  0.31909600  1
  Ce  Ce34  1  0.31060300  0.99232400  0.83057700  1
  Ce  Ce35  1  0.89856400  0.79531200  0.80474100  1
  Ce  Ce36  1  0.60143600  0.29531200  0.44525900  1
  Ce  Ce37  1  0.41679300  0.89696800  0.45778100  1
  Ce  Ce38  1  0.10054600  0.98980600  0.55941600  1
  Ce  Ce39  1  0.68939700  0.00767600  0.33057700  1
  B  B0  1  0.90420500  0.21252300  0.96905000  1
  B  B1  1  0.37068800  0.50198100  0.11082200  1
  B  B2  1  0.59579500  0.71252300  0.28095000  1
  B  B3  1  0.08164200  0.91835800  0.25000000  1
  B  B4  1  0.49801900  0.62931200  0.38917800  1
  B  B5  1  0.87068800  0.99801900  0.63917800  1
  B  B6  1  0.91835800  0.08164200  0.75000000  1
  B  B7  1  0.62880800  0.12418900  0.11670600  1
  B  B8  1  0.78747700  0.09579500  0.53095000  1
  B  B9  1  0.28747700  0.40420500  0.21905000  1
  B  B10  1  0.40420500  0.28747700  0.78095000  1
  B  B11  1  0.12418900  0.62880800  0.88329400  1
  B  B12  1  0.29173000  0.20018200  0.47620000  1
  B  B13  1  0.62418900  0.87119200  0.86670600  1
  B  B14  1  0.20827000  0.70018200  0.77380000  1
  B  B15  1  0.00198100  0.12931200  0.86082200  1
  B  B16  1  0.41835800  0.41835800  0.00000000  1
  B  B17  1  0.71252300  0.59579500  0.71905000  1
  B  B18  1  0.87119200  0.62418900  0.13329400  1
  B  B19  1  0.87581100  0.37119200  0.38329400  1
  B  B20  1  0.70018200  0.20827000  0.22620000  1
  B  B21  1  0.79173000  0.29981800  0.27380000  1
  B  B22  1  0.12880800  0.37581100  0.63329400  1
  B  B23  1  0.79981800  0.70827000  0.02380000  1
  B  B24  1  0.21252300  0.90420500  0.03095000  1
  B  B25  1  0.99801900  0.87068800  0.36082200  1
  B  B26  1  0.09579500  0.78747700  0.46905000  1
  B  B27  1  0.37119200  0.87581100  0.61670600  1
  B  B28  1  0.12931200  0.00198100  0.13917800  1
  B  B29  1  0.50198100  0.37068800  0.88917800  1
  B  B30  1  0.70827000  0.79981800  0.97620000  1
  B  B31  1  0.62931200  0.49801900  0.61082200  1
  B  B32  1  0.29981800  0.79173000  0.72620000  1
  B  B33  1  0.58164200  0.58164200  0.50000000  1
  B  B34  1  0.37581100  0.12880800  0.36670600  1
  B  B35  1  0.20018200  0.29173000  0.52380000  1
  C  C0  1  0.30120100  0.99416200  0.92856200  1
  C  C1  1  0.40887300  0.50556200  0.05236000  1
  C  C2  1  0.70874000  0.00250600  0.48487900  1
  C  C3  1  0.80120100  0.50583800  0.82143800  1
  C  C4  1  0.90887300  0.99443800  0.69764000  1
  C  C5  1  0.89274600  0.39887600  0.44181200  1
  C  C6  1  0.69879900  0.00583800  0.42856200  1
  C  C7  1  0.00583800  0.69879900  0.57143800  1
  C  C8  1  0.99416200  0.30120100  0.07143800  1
  C  C9  1  0.09089900  0.80018400  0.40810200  1
  C  C10  1  0.40910100  0.30018400  0.84189800  1
  C  C11  1  0.00556200  0.09112700  0.80236000  1
  C  C12  1  0.80018400  0.09089900  0.59189800  1
  C  C13  1  0.99749400  0.29126000  0.01512100  1
  C  C14  1  0.31611700  0.80033000  0.66686700  1
  C  C15  1  0.59089900  0.69981600  0.34189800  1
  C  C16  1  0.49749400  0.20874000  0.73487900  1
  C  C17  1  0.60112400  0.10725400  0.05818800  1
  C  C18  1  0.19967000  0.68388300  0.83313300  1
  C  C19  1  0.10725400  0.60112400  0.94181200  1
  C  C20  1  0.60725400  0.89887600  0.80818800  1
  C  C21  1  0.09112700  0.00556200  0.19764000  1
  C  C22  1  0.20874000  0.49749400  0.26512100  1
  C  C23  1  0.69981600  0.59089900  0.65810200  1
  C  C24  1  0.00250600  0.70874000  0.51512100  1
  C  C25  1  0.69967000  0.81611700  0.91686700  1
  C  C26  1  0.30018400  0.40910100  0.15810200  1
  C  C27  1  0.49416200  0.19879900  0.67856200  1
  C  C28  1  0.50583800  0.80120100  0.17856200  1
  C  C29  1  0.99443800  0.90887300  0.30236000  1
  C  C30  1  0.39887600  0.89274600  0.55818800  1
  C  C31  1  0.10112400  0.39274600  0.69181200  1
  C  C32  1  0.50250600  0.79126000  0.23487900  1
  C  C33  1  0.19879900  0.49416200  0.32143800  1
  C  C34  1  0.90910100  0.19981600  0.90810200  1
  C  C35  1  0.81611700  0.69967000  0.08313300  1
  C  C36  1  0.79126000  0.50250600  0.76512100  1
  C  C37  1  0.89887600  0.60725400  0.19181200  1
  C  C38  1  0.18388300  0.30033000  0.58313300  1
  C  C39  1  0.59112700  0.49443800  0.55236000  1
  C  C40  1  0.19981600  0.90910100  0.09189800  1
  C  C41  1  0.50556200  0.40887300  0.94764000  1
  C  C42  1  0.39274600  0.10112400  0.30818800  1
  C  C43  1  0.29126000  0.99749400  0.98487900  1
  C  C44  1  0.80033000  0.31611700  0.33313300  1
  C  C45  1  0.49443800  0.59112700  0.44764000  1
  C  C46  1  0.30033000  0.18388300  0.41686700  1
  C  C47  1  0.68388300  0.19967000  0.16686700  1
loop_
_geom_bond_atom_site_label_1
_geom_bond_atom_site_label_2
_geom_bond_distance
_geom_bond_site_symmetry_2
B0 C34 1.508381 1_555
B0 C13 1.524298 1_556
B0 Ce16 2.767165 1_655
B0 Ce24 2.794020 1_556
B0 Ce25 2.834363 1_555
B0 Ce15 2.837226 1_645
B1 C1 1.477610 1_555
B1 C26 1.517224 1_555
B1 Ce9 2.742312 1_555
B1 Ce32 2.744788 1_555
B1 Ce29 2.797707 1_555
B1 Ce28 2.877137 1_555
B2 C15 1.508381 1_555
B2 C32 1.524298 1_555
B2 Ce33 2.767165 1_555
B2 Ce32 2.794020 1_555
B2 Ce11 2.834363 1_555
B2 Ce26 2.837226 1_555
B3 C21 1.483896 1_565
B3 C29 1.483896 1_455
B3 Ce33 2.654587 1_555
B3 Ce29 2.654587 1_555
B4 C45 1.477610 1_555
B4 C15 1.517224 1_555
B4 Ce7 2.742312 1_555
B4 Ce26 2.744788 1_555
B4 Ce33 2.797707 1_555
B4 Ce37 2.877137 1_555
B5 C4 1.477610 1_555
B5 C12 1.517224 1_565
B5 Ce2 2.742312 1_565
B5 Ce38 2.744788 1_655
B5 Ce8 2.797707 1_555
B5 Ce3 2.877137 1_555
B6 C4 1.483896 1_545
B6 C11 1.483896 1_655
B6 Ce2 2.654587 1_555
B6 Ce31 2.654587 1_555
B7 C47 1.461612 1_555
B7 C17 1.469159 1_555
B7 Ce24 2.822111 1_555
B7 Ce20 2.980896 1_555
B7 Ce9 3.060433 1_555
B8 C12 1.508381 1_555
B8 C2 1.524298 1_555
B8 Ce8 2.767165 1_545
B8 Ce6 2.794020 1_555
B8 Ce27 2.834363 1_555
B8 Ce38 2.837226 1_645
B9 C26 1.508381 1_555
B9 C22 1.524298 1_555
B9 Ce29 2.767165 1_555
B9 Ce26 2.794020 1_555
B9 Ce20 2.834363 1_555
B9 Ce32 2.837226 1_555
B10 C10 1.508381 1_555
B10 C16 1.524298 1_555
B10 Ce31 2.767165 1_555
B10 Ce30 2.794020 1_555
B10 Ce22 2.834363 1_555
B10 Ce12 2.837226 1_555
B11 C18 1.461612 1_555
B11 C19 1.469159 1_555
B11 Ce15 2.822111 1_555
B11 Ce22 2.980896 1_555
B11 Ce16 3.060433 1_555
B12 C46 1.472266 1_555
B12 Ce37 2.765447 1_545
B12 Ce6 2.786479 1_455
B13 C25 1.461612 1_555
B13 C20 1.469159 1_555
B13 Ce12 2.822111 1_555
B13 Ce25 2.980896 1_565
B13 Ce31 3.060433 1_565
B14 C18 1.472266 1_555
B14 Ce22 2.765447 1_555
B14 Ce12 2.786479 1_555
B15 C11 1.477610 1_555
B15 C34 1.517224 1_455
B15 Ce31 2.742312 1_455
B15 Ce15 2.744788 1_545
B15 Ce16 2.797707 1_555
B15 Ce22 2.877137 1_555
B16 C41 1.483896 1_554
B16 C1 1.483896 1_555
B16 Ce9 2.654587 1_555
B16 Ce16 2.654587 1_554
B17 C23 1.508381 1_555
B17 C36 1.524298 1_555
B17 Ce2 2.767165 1_555
B17 Ce12 2.794020 1_555
B17 Ce3 2.834363 1_555
B17 Ce30 2.837226 1_555
B18 C35 1.461612 1_555
B18 C37 1.469159 1_555
B18 Ce32 2.822111 1_555
B18 Ce28 2.980896 1_655
B18 Ce29 3.060433 1_655
B19 C44 1.461612 1_555
B19 C5 1.469159 1_555
B19 Ce6 2.822111 1_555
B19 Ce11 2.980896 1_555
B19 Ce7 3.060433 1_555
B20 C47 1.472266 1_555
B20 Ce20 2.765447 1_555
B20 Ce32 2.786479 1_555
B21 C44 1.472266 1_555
B21 Ce11 2.765447 1_555
B21 Ce26 2.786479 1_555
B22 C38 1.461612 1_555
B22 C31 1.469159 1_555
B22 Ce30 2.822111 1_555
B22 Ce27 2.980896 1_455
B22 Ce2 3.060433 1_455
B23 C35 1.472266 1_555
B23 Ce28 2.765447 1_655
B23 Ce24 2.786479 1_565
B24 C40 1.508381 1_555
B24 C43 1.524298 1_554
B24 Ce9 2.767165 1_565
B24 Ce15 2.794020 1_554
B24 Ce28 2.834363 1_555
B24 Ce24 2.837226 1_465
B25 C29 1.477610 1_555
B25 C9 1.517224 1_655
B25 Ce33 2.742312 1_655
B25 Ce6 2.744788 1_565
B25 Ce7 2.797707 1_555
B25 Ce11 2.877137 1_555
B26 C9 1.508381 1_555
B26 C24 1.524298 1_555
B26 Ce7 2.767165 1_455
B26 Ce38 2.794020 1_555
B26 Ce37 2.834363 1_555
B26 Ce6 2.837226 1_465
B27 C14 1.461612 1_555
B27 C30 1.469159 1_555
B27 Ce38 2.822111 1_555
B27 Ce3 2.980896 1_555
B27 Ce8 3.060433 1_555
B28 C21 1.477610 1_555
B28 C40 1.517224 1_545
B28 Ce29 2.742312 1_545
B28 Ce24 2.744788 1_455
B28 Ce9 2.797707 1_555
B28 Ce20 2.877137 1_555
B29 C41 1.477610 1_555
B29 C10 1.517224 1_555
B29 Ce16 2.742312 1_555
B29 Ce12 2.744788 1_555
B29 Ce31 2.797707 1_555
B29 Ce25 2.877137 1_555
B30 C25 1.472266 1_555
B30 Ce25 2.765447 1_565
B30 Ce15 2.786479 1_655
B31 C39 1.477610 1_555
B31 C23 1.517224 1_555
B31 Ce8 2.742312 1_555
B31 Ce30 2.744788 1_555
B31 Ce2 2.797707 1_555
B31 Ce27 2.877137 1_555
B32 C14 1.472266 1_555
B32 Ce3 2.765447 1_555
B32 Ce30 2.786479 1_555
B33 C39 1.483896 1_555
B33 C45 1.483896 1_555
B33 Ce7 2.654587 1_555
B33 Ce8 2.654587 1_555
B34 C46 1.461612 1_555
B34 C42 1.469159 1_555
B34 Ce26 2.822111 1_555
B34 Ce37 2.980896 1_545
B34 Ce33 3.060433 1_545
B35 C38 1.472266 1_555
B35 Ce27 2.765447 1_455
B35 Ce38 2.786479 1_545
C0 C43 1.392568 1_555
C0 Ce34 2.419463 1_555
C0 Ce15 2.562410 1_555
C0 Ce5 2.573215 1_555
C0 Ce25 2.615446 1_565
C0 Ce16 2.657354 1_565
C1 Ce10 2.616867 1_555
C1 Ce28 2.636196 1_555
C1 Ce9 2.694309 1_555
C1 Ce18 2.756127 1_555
C2 C6 1.392568 1_555
C2 Ce37 2.667030 1_545
C2 Ce8 2.701982 1_545
C2 Ce6 2.706281 1_555
C2 Ce7 2.927006 1_545
C3 C36 1.392568 1_555
C3 Ce13 2.419463 1_555
C3 Ce12 2.562410 1_555
C3 Ce35 2.573215 1_555
C3 Ce22 2.615446 1_655
C3 Ce31 2.657354 1_555
C4 Ce14 2.616867 1_665
C4 Ce3 2.636196 1_555
C4 Ce2 2.694309 1_565
C4 Ce1 2.756127 1_655
C5 Ce27 2.482648 1_555
C5 Ce36 2.572705 1_555
C5 Ce6 2.609319 1_555
C5 Ce4 2.645038 1_655
C5 Ce7 2.656369 1_555
C6 Ce39 2.419463 1_555
C6 Ce6 2.562410 1_555
C6 Ce36 2.573215 1_555
C6 Ce37 2.615446 1_545
C6 Ce7 2.657354 1_545
C7 Ce1 2.419463 1_555
C7 Ce38 2.562410 1_555
C7 Ce23 2.573215 1_555
C7 Ce27 2.615446 1_455
C7 Ce8 2.657354 1_455
C8 Ce21 2.419463 1_555
C8 Ce24 2.562410 1_555
C8 Ce10 2.573215 1_555
C8 Ce28 2.615446 1_655
C8 Ce9 2.657354 1_655
C9 Ce7 2.654874 1_455
C9 Ce4 2.702725 1_555
C9 Ce6 2.754930 1_465
C9 Ce33 2.776233 1_555
C9 Ce37 3.081746 1_555
C10 Ce31 2.654874 1_555
C10 Ce34 2.702725 1_545
C10 Ce12 2.754930 1_555
C10 Ce16 2.776233 1_555
C10 Ce22 3.081746 1_555
C11 Ce35 2.616867 1_445
C11 Ce22 2.636196 1_555
C11 Ce31 2.694309 1_455
C11 Ce34 2.756127 1_545
C12 Ce8 2.654874 1_545
C12 Ce0 2.702725 1_555
C12 Ce38 2.754930 1_645
C12 Ce2 2.776233 1_555
C12 Ce27 3.081746 1_555
C13 C8 1.392568 1_555
C13 Ce28 2.667030 1_655
C13 Ce16 2.701982 1_654
C13 Ce24 2.706281 1_555
C13 Ce9 2.927006 1_655
C14 Ce1 2.726819 1_555
C14 Ce30 2.737245 1_555
C14 Ce3 2.766156 1_555
C15 Ce33 2.654874 1_555
C15 Ce39 2.702725 1_565
C15 Ce26 2.754930 1_555
C15 Ce7 2.776233 1_555
C15 Ce11 3.081746 1_555
C16 C27 1.392568 1_555
C16 Ce3 2.667030 1_545
C16 Ce31 2.701982 1_555
C16 Ce30 2.706281 1_555
C16 Ce2 2.927006 1_555
C17 Ce25 2.482648 1_554
C17 Ce10 2.572705 1_555
C17 Ce24 2.609319 1_555
C17 Ce18 2.645038 1_545
C17 Ce9 2.656369 1_555
C18 Ce34 2.726819 1_555
C18 Ce12 2.737245 1_555
C18 Ce22 2.766156 1_555
C19 Ce28 2.482648 1_556
C19 Ce5 2.572705 1_555
C19 Ce15 2.609319 1_555
C19 Ce13 2.645038 1_455
C19 Ce16 2.656369 1_555
C20 Ce3 2.482648 1_555
C20 Ce35 2.572705 1_555
C20 Ce12 2.609319 1_555
C20 Ce34 2.645038 1_555
C20 Ce31 2.656369 1_565
C21 Ce19 2.616867 1_445
C21 Ce20 2.636196 1_555
C21 Ce29 2.694309 1_545
C21 Ce21 2.756127 1_455
C22 C33 1.392568 1_555
C22 Ce11 2.667030 1_455
C22 Ce29 2.701982 1_555
C22 Ce26 2.706281 1_555
C22 Ce33 2.927006 1_555
C23 Ce2 2.654874 1_555
C23 Ce1 2.702725 1_655
C23 Ce30 2.754930 1_555
C23 Ce8 2.776233 1_555
C23 Ce3 3.081746 1_555
C24 C7 1.392568 1_555
C24 Ce27 2.667030 1_455
C24 Ce7 2.701982 1_455
C24 Ce38 2.706281 1_555
C24 Ce8 2.927006 1_455
C25 Ce13 2.726819 1_555
C25 Ce15 2.737245 1_655
C25 Ce25 2.766156 1_565
C26 Ce29 2.654874 1_555
C26 Ce21 2.702725 1_455
C26 Ce32 2.754930 1_555
C26 Ce9 2.776233 1_555
C26 Ce20 3.081746 1_555
C27 Ce0 2.419463 1_555
C27 Ce30 2.562410 1_555
C27 Ce14 2.573215 1_555
C27 Ce3 2.615446 1_545
C27 Ce2 2.657354 1_555
C28 C32 1.392568 1_555
C28 Ce18 2.419463 1_555
C28 Ce32 2.562410 1_555
C28 Ce19 2.573215 1_555
C28 Ce20 2.615446 1_565
C28 Ce29 2.657354 1_555
C29 Ce17 2.616867 1_665
C29 Ce11 2.636196 1_555
C29 Ce33 2.694309 1_655
C29 Ce39 2.756127 1_565
C30 Ce37 2.482648 1_555
C30 Ce23 2.572705 1_555
C30 Ce38 2.609319 1_555
C30 Ce0 2.645038 1_565
C30 Ce8 2.656369 1_555
C31 Ce22 2.482648 1_555
C31 Ce14 2.572705 1_555
C31 Ce30 2.609319 1_555
C31 Ce1 2.645038 1_555
C31 Ce2 2.656369 1_455
C32 Ce20 2.667030 1_565
C32 Ce33 2.701982 1_555
C32 Ce32 2.706281 1_555
C32 Ce29 2.927006 1_555
C33 Ce4 2.419463 1_555
C33 Ce26 2.562410 1_555
C33 Ce17 2.573215 1_555
C33 Ce11 2.615446 1_455
C33 Ce33 2.657354 1_555
C34 Ce16 2.654874 1_655
C34 Ce13 2.702725 1_555
C34 Ce15 2.754930 1_645
C34 Ce31 2.776233 1_555
C34 Ce25 3.081746 1_555
C35 Ce18 2.726819 1_555
C35 Ce24 2.737245 1_565
C35 Ce28 2.766156 1_655
C36 Ce22 2.667030 1_655
C36 Ce2 2.701982 1_555
C36 Ce12 2.706281 1_555
C36 Ce31 2.927006 1_555
C37 Ce11 2.482648 1_555
C37 Ce19 2.572705 1_555
C37 Ce32 2.609319 1_555
C37 Ce21 2.645038 1_555
C37 Ce29 2.656369 1_655
C38 Ce0 2.726819 1_555
C38 Ce38 2.737245 1_545
C38 Ce27 2.766156 1_455
C39 Ce23 2.616867 1_555
C39 Ce27 2.636196 1_555
C39 Ce8 2.694309 1_555
C39 Ce0 2.756127 1_555
C40 Ce9 2.654874 1_565
C40 Ce18 2.702725 1_555
C40 Ce24 2.754930 1_465
C40 Ce29 2.776233 1_555
C40 Ce28 3.081746 1_555
C41 Ce5 2.616867 1_555
C41 Ce25 2.636196 1_555
C41 Ce16 2.694309 1_555
C41 Ce13 2.756127 1_555
C42 Ce20 2.482648 1_555
C42 Ce17 2.572705 1_555
C42 Ce26 2.609319 1_555
C42 Ce39 2.645038 1_555
C42 Ce33 2.656369 1_545
C43 Ce25 2.667030 1_565
C43 Ce9 2.701982 1_566
C43 Ce15 2.706281 1_555
C43 Ce16 2.927006 1_565
C44 Ce39 2.726819 1_555
C44 Ce26 2.737245 1_555
C44 Ce11 2.766156 1_555
C45 Ce36 2.616867 1_555
C45 Ce37 2.636196 1_555
C45 Ce7 2.694309 1_555
C45 Ce4 2.756127 1_555
C46 Ce4 2.726819 1_555
C46 Ce6 2.737245 1_455
C46 Ce37 2.766156 1_545
C47 Ce21 2.726819 1_555
C47 Ce32 2.737245 1_555
C47 Ce20 2.766156 1_555
