# generated using pymatgen
data_Lu(BRu)4
_symmetry_space_group_name_H-M   'P 1'
_cell_length_a   9.12820732
_cell_length_b   9.12821890
_cell_length_c   9.12806475
_cell_angle_alpha   132.13187011
_cell_angle_beta   132.13178161
_cell_angle_gamma   70.02375664
_symmetry_Int_Tables_number   1
_chemical_formula_structural   Lu(BRu)4
_chemical_formula_sum   'Lu4 B16 Ru16'
_cell_volume   410.10072180
_cell_formula_units_Z   4
loop_
 _symmetry_equiv_pos_site_id
 _symmetry_equiv_pos_as_xyz
  1  'x, y, z'
loop_
 _atom_site_type_symbol
 _atom_site_label
 _atom_site_symmetry_multiplicity
 _atom_site_fract_x
 _atom_site_fract_y
 _atom_site_fract_z
 _atom_site_occupancy
  Lu  Lu0  1  0.00004504  0.49995302  0.49999940  1
  Lu  Lu1  1  0.49998238  0.00000873  0.49999732  1
  Lu  Lu2  1  0.25001614  0.24999113  -0.00000085  1
  Lu  Lu3  1  0.74995328  0.75004598  -0.00000055  1
  B  B0  1  0.49926181  0.69250526  0.52946563  1
  B  B1  1  0.21981387  0.91307270  0.97055150  1
  B  B2  1  0.03021078  0.50068300  0.19325316  1
  B  B3  1  0.71978620  0.74931581  0.30674413  1
  B  B4  1  0.94250628  0.24926154  0.02947157  1
  B  B5  1  0.66305676  0.19253666  0.19322835  1
  B  B6  1  0.08694432  0.05746953  0.30677612  1
  B  B7  1  0.25073769  0.55748717  0.97052743  1
  B  B8  1  0.30746275  0.83694715  0.80677132  1
  B  B9  1  0.80749556  0.00073848  0.47053019  1
  B  B10  1  0.75068726  0.78021869  0.69326370  1
  B  B11  1  0.44253801  0.41305023  0.69322923  1
  B  B12  1  0.53018949  0.33692934  0.52945441  1
  B  B13  1  0.16306961  0.96981532  0.47054640  1
  B  B14  1  0.99931631  0.46978061  0.80673777  1
  B  B15  1  0.58693056  0.28018567  0.02945414  1
  Ru  Ru0  1  0.03788050  0.80319505  0.46443903  1
  Ru  Ru1  1  0.32345769  0.28787224  0.73467149  1
  Ru  Ru2  1  0.53787319  0.07345514  0.23467036  1
  Ru  Ru3  1  0.21212216  0.17654066  0.26532992  1
  Ru  Ru4  1  0.92655873  0.16125449  0.46443112  1
  Ru  Ru5  1  0.33874424  0.57343637  0.53555780  1
  Ru  Ru6  1  0.69681031  0.46211329  0.53555470  1
  Ru  Ru7  1  0.82344544  0.08875188  0.03557073  1
  Ru  Ru8  1  0.71211304  0.44680169  0.03555974  1
  Ru  Ru9  1  0.55324597  0.58882156  0.26540299  1
  Ru  Ru10  1  0.83882050  0.30324194  0.76540154  1
  Ru  Ru11  1  0.91117614  0.94675725  0.73460125  1
  Ru  Ru12  1  0.19675612  0.66118040  0.23459351  1
  Ru  Ru13  1  0.05319434  0.78789174  0.96444634  1
  Ru  Ru14  1  0.41124941  0.67655817  0.96443939  1
  Ru  Ru15  1  0.42654814  0.96213111  0.76532870  1
loop_
_geom_bond_atom_site_label_1
_geom_bond_atom_site_label_2
_geom_bond_distance
_geom_bond_site_symmetry_2
Lu0 Ru7 2.876722 1_455
Lu0 Ru14 2.876762 1_555
Lu0 Ru8 2.877178 1_455
Lu0 Ru13 2.877233 1_555
Lu0 Ru4 3.145178 1_455
Lu0 Ru5 3.145231 1_555
Lu0 Ru6 3.145691 1_455
Lu0 Ru0 3.145777 1_555
Lu0 Ru3 3.197780 1_555
Lu0 Ru1 3.197821 1_555
Lu0 Ru9 3.198434 1_455
Lu0 Ru11 3.198469 1_455
Lu1 Ru1 2.876781 1_555
Lu1 Ru3 2.876797 1_555
Lu1 Ru9 2.876846 1_545
Lu1 Ru11 2.876865 1_545
Lu1 Ru15 3.145612 1_545
Lu1 Ru2 3.145742 1_555
Lu1 Ru12 3.145778 1_545
Lu1 Ru10 3.145889 1_555
Lu1 Ru13 3.197907 1_544
Lu1 Ru8 3.197956 1_556
Lu1 Ru14 3.198117 1_544
Lu1 Ru7 3.198180 1_556
Lu2 Ru15 2.876807 1_544
Lu2 Ru2 2.876836 1_555
Lu2 Ru12 2.876853 1_555
Lu2 Ru10 2.876878 1_454
Lu2 Ru1 3.145652 1_554
Lu2 Ru9 3.145816 1_555
Lu2 Ru3 3.145825 1_555
Lu2 Ru11 3.145934 1_444
Lu2 Ru6 3.197944 1_555
Lu2 Ru0 3.197964 1_544
Lu2 Ru5 3.198143 1_555
Lu2 Ru4 3.198172 1_454
Lu3 Ru4 2.876764 1_565
Lu3 Ru5 2.876788 1_554
Lu3 Ru0 2.877189 1_655
Lu3 Ru6 2.877248 1_554
Lu3 Ru7 3.145251 1_565
Lu3 Ru14 3.145282 1_554
Lu3 Ru13 3.145759 1_654
Lu3 Ru8 3.145818 1_555
Lu3 Ru2 3.197798 1_565
Lu3 Ru15 3.197826 1_554
Lu3 Ru12 3.198453 1_655
Lu3 Ru10 3.198464 1_554
B0 B10 1.785871 1_555
B0 Ru12 2.118125 1_555
B0 Ru5 2.147062 1_555
B0 Ru15 2.196601 1_555
B0 Ru6 2.260290 1_555
B0 Ru9 2.272161 1_555
B0 Lu3 2.927054 1_556
B0 Lu1 2.996569 1_565
B0 Lu2 3.191329 1_555
B1 B8 1.785811 1_555
B1 Ru3 2.117747 1_566
B1 Ru13 2.147181 1_555
B1 Ru11 2.196829 1_455
B1 Ru14 2.260375 1_555
B1 Ru2 2.272095 1_566
B1 Lu0 2.927549 1_555
B1 Lu2 2.996247 1_566
B1 Lu1 3.191369 1_566
B2 B4 1.785862 1_455
B2 Ru0 2.118081 1_555
B2 Ru12 2.147170 1_555
B2 Ru5 2.196163 1_555
B2 Ru10 2.259724 1_454
B2 Ru8 2.272298 1_455
B2 Lu2 2.927415 1_555
B2 Lu0 2.996096 1_555
B2 Lu3 3.192416 1_455
B3 B9 1.785873 1_565
B3 Ru8 2.118078 1_555
B3 Ru9 2.147103 1_555
B3 Ru14 2.196168 1_554
B3 Ru11 2.259758 1_555
B3 Ru0 2.272260 1_655
B3 Lu1 2.927401 1_565
B3 Lu3 2.996092 1_555
B3 Lu0 3.192424 1_655
B4 Ru11 2.118099 1_544
B4 Ru7 2.146997 1_555
B4 Ru3 2.196590 1_655
B4 Ru8 2.260261 1_555
B4 Ru10 2.272192 1_554
B4 Lu0 2.927016 1_655
B4 Lu2 2.996682 1_655
B4 Lu1 3.191395 1_554
B5 Ru4 2.117918 1_555
B5 Ru2 2.147275 1_555
B5 Ru6 2.196406 1_555
B5 Ru15 2.259956 1_544
B5 Ru7 2.271996 1_555
B5 Lu2 2.927307 1_555
B5 Lu0 2.996078 1_655
B5 Lu3 3.191308 1_545
B6 Ru7 2.117922 1_455
B6 Ru3 2.147189 1_555
B6 Ru13 2.196441 1_544
B6 Ru1 2.259941 1_555
B6 Ru4 2.271950 1_455
B6 Lu1 2.927307 1_555
B6 Lu3 2.996120 1_445
B6 Lu0 3.191266 1_555
B7 Ru9 2.118123 1_556
B7 Ru14 2.146999 1_555
B7 Ru1 2.196570 1_555
B7 Ru13 2.260338 1_555
B7 Ru12 2.272140 1_556
B7 Lu0 2.927041 1_555
B7 Lu2 2.996527 1_556
B7 Lu1 3.191367 1_566
B8 Ru5 2.117985 1_555
B8 Ru15 2.147311 1_555
B8 Ru0 2.196457 1_555
B8 Ru2 2.259957 1_566
B8 Ru14 2.272073 1_555
B8 Lu2 2.927325 1_566
B8 Lu0 2.996121 1_555
B8 Lu3 3.191315 1_556
B9 Ru10 2.118111 1_555
B9 Ru4 2.147063 1_555
B9 Ru2 2.196595 1_555
B9 Ru0 2.260227 1_645
B9 Ru11 2.272225 1_545
B9 Lu3 2.927019 1_545
B9 Lu1 2.996678 1_555
B9 Lu2 3.191371 1_656
B10 Ru13 2.118042 1_655
B10 Ru11 2.147076 1_555
B10 Ru7 2.196158 1_566
B10 Ru9 2.259773 1_555
B10 Ru6 2.272303 1_555
B10 Lu1 2.927382 1_565
B10 Lu3 2.996071 1_556
B10 Lu0 3.192434 1_655
B11 B12 1.785803 1_555
B11 Ru14 2.117996 1_555
B11 Ru1 2.147226 1_555
B11 Ru8 2.196436 1_556
B11 Ru3 2.259965 1_555
B11 Ru5 2.272058 1_555
B11 Lu1 2.927298 1_555
B11 Lu3 2.996123 1_556
B11 Lu0 3.191334 1_555
B12 Ru2 2.117753 1_555
B12 Ru6 2.147247 1_555
B12 Ru10 2.196797 1_555
B12 Ru5 2.260377 1_555
B12 Ru3 2.272161 1_555
B12 Lu3 2.927518 1_556
B12 Lu1 2.996227 1_555
B12 Lu2 3.191424 1_555
B13 B6 1.785778 1_565
B13 Ru15 2.117761 1_555
B13 Ru0 2.147227 1_555
B13 Ru12 2.196824 1_555
B13 Ru4 2.260364 1_465
B13 Ru1 2.272084 1_565
B13 Lu3 2.927527 1_455
B13 Lu1 2.996142 1_565
B13 Lu2 3.191362 1_566
B14 B7 1.785843 1_655
B14 Ru6 2.118054 1_555
B14 Ru10 2.147137 1_555
B14 Ru4 2.196130 1_555
B14 Ru12 2.259741 1_656
B14 Ru13 2.272355 1_655
B14 Lu2 2.927347 1_656
B14 Lu0 2.996061 1_655
B14 Lu3 3.192461 1_556
B15 B5 1.785765 1_555
B15 Ru1 2.117759 1_554
B15 Ru8 2.147161 1_555
B15 Ru9 2.196815 1_555
B15 Ru7 2.260365 1_555
B15 Ru15 2.272047 1_544
B15 Lu0 2.927513 1_655
B15 Lu2 2.996136 1_555
B15 Lu1 3.191383 1_554
