# generated using pymatgen
data_Yb2Ni12P7
_symmetry_space_group_name_H-M   'P 1'
_cell_length_a   9.01617064
_cell_length_b   9.01617064
_cell_length_c   3.65822300
_cell_angle_alpha   90.00000000
_cell_angle_beta   90.00000000
_cell_angle_gamma   120.00000467
_symmetry_Int_Tables_number   1
_chemical_formula_structural   Yb2Ni12P7
_chemical_formula_sum   'Yb2 Ni12 P7'
_cell_volume   257.54020199
_cell_formula_units_Z   1
loop_
 _symmetry_equiv_pos_site_id
 _symmetry_equiv_pos_as_xyz
  1  'x, y, z'
loop_
 _atom_site_type_symbol
 _atom_site_label
 _atom_site_symmetry_multiplicity
 _atom_site_fract_x
 _atom_site_fract_y
 _atom_site_fract_z
 _atom_site_occupancy
  Yb  Yb0  1  0.00000000  0.00000000  0.00000000  1
  Yb  Yb1  1  0.33333300  0.66666700  0.50000000  1
  Ni  Ni0  1  0.10191100  0.39400800  0.00000000  1
  Ni  Ni1  1  0.29209600  0.89808900  0.00000000  1
  Ni  Ni2  1  0.60599200  0.70790400  0.00000000  1
  Ni  Ni3  1  0.82012000  0.60972400  0.00000000  1
  Ni  Ni4  1  0.78960300  0.17988000  0.00000000  1
  Ni  Ni5  1  0.39027600  0.21039700  0.00000000  1
  Ni  Ni6  1  0.04686600  0.76401900  0.50000000  1
  Ni  Ni7  1  0.71715300  0.95313400  0.50000000  1
  Ni  Ni8  1  0.23598100  0.28284700  0.50000000  1
  Ni  Ni9  1  0.88049000  0.42686000  0.50000000  1
  Ni  Ni10  1  0.54637000  0.11951000  0.50000000  1
  Ni  Ni11  1  0.57314000  0.45363000  0.50000000  1
  P  P0  1  0.07460500  0.62741400  0.00000000  1
  P  P1  1  0.55280900  0.92539500  0.00000000  1
  P  P2  1  0.37258600  0.44719100  0.00000000  1
  P  P3  1  0.77580200  0.73827600  0.50000000  1
  P  P4  1  0.96247300  0.22419800  0.50000000  1
  P  P5  1  0.26172400  0.03752700  0.50000000  1
  P  P6  1  0.66666700  0.33333300  0.00000000  1
loop_
_geom_bond_atom_site_label_1
_geom_bond_atom_site_label_2
_geom_bond_distance
_geom_bond_site_symmetry_2
Ni0 P0 2.237707 1_555
Ni0 P2 2.239535 1_555
Ni0 P4 2.312023 1_454
Ni0 P4 2.312023 1_455
Ni0 Yb1 2.934844 1_554
Ni0 Yb1 2.934844 1_555
Ni0 Yb0 3.193741 1_555
Ni1 P1 2.237716 1_555
Ni1 P0 2.239532 1_555
Ni1 P5 2.312023 1_565
Ni1 P5 2.312023 1_564
Ni1 Yb1 2.934844 1_554
Ni1 Yb1 2.934844 1_555
Ni1 Yb0 3.193732 1_565
Ni2 P2 2.237712 1_555
Ni2 P1 2.239527 1_555
Ni2 P3 2.312023 1_554
Ni2 P3 2.312023 1_555
Ni2 Yb1 2.934844 1_555
Ni2 Yb1 2.934844 1_554
Ni2 Yb0 3.193738 1_665
Ni3 P6 2.162505 1_555
Ni3 P0 2.219035 1_655
Ni3 P3 2.304741 1_555
Ni3 P3 2.304741 1_554
Ni3 Yb0 3.050469 1_665
Ni4 P6 2.162490 1_555
Ni4 P1 2.219031 1_545
Ni4 P4 2.304741 1_554
Ni4 P4 2.304741 1_555
Ni4 Yb0 3.050478 1_655
Ni5 P6 2.162506 1_555
Ni5 P2 2.219026 1_555
Ni5 P5 2.304741 1_555
Ni5 P5 2.304741 1_554
Ni5 Yb0 3.050470 1_555
Ni6 P5 2.248720 1_565
Ni6 P0 2.287620 1_556
Ni6 P0 2.287620 1_555
Ni6 P3 2.336570 1_455
Ni6 Yb0 2.991674 1_565
Ni6 Yb0 2.991674 1_566
Ni6 Yb1 3.115852 1_555
Ni7 P3 2.248715 1_555
Ni7 P1 2.287620 1_556
Ni7 P1 2.287620 1_555
Ni7 P4 2.336566 1_565
Ni7 Yb0 2.991674 1_666
Ni7 Yb0 2.991674 1_665
Ni7 Yb1 3.115858 1_555
Ni8 P4 2.248723 1_455
Ni8 P2 2.287620 1_556
Ni8 P2 2.287620 1_555
Ni8 P5 2.336561 1_555
Ni8 Yb0 2.991674 1_556
Ni8 Yb0 2.991674 1_555
Ni8 Yb1 3.115861 1_555
Ni9 P4 2.288189 1_555
Ni9 P6 2.479457 1_555
Ni9 P6 2.479457 1_556
Ni9 P0 2.552202 1_655
Ni9 P0 2.552202 1_656
Ni10 P5 2.288197 1_555
Ni10 P6 2.479458 1_555
Ni10 P6 2.479458 1_556
Ni10 P1 2.552202 1_546
Ni10 P1 2.552202 1_545
Ni11 P3 2.288195 1_555
Ni11 P6 2.479463 1_556
Ni11 P6 2.479463 1_555
Ni11 P2 2.552202 1_556
Ni11 P2 2.552202 1_555
P0 Yb1 2.843761 1_554
P0 Yb1 2.843761 1_555
P1 Yb1 2.843763 1_555
P1 Yb1 2.843763 1_554
P2 Yb1 2.843768 1_554
P2 Yb1 2.843768 1_555
P3 Yb0 2.868821 1_666
P3 Yb0 2.868821 1_665
P4 Yb0 2.868826 1_655
P4 Yb0 2.868826 1_656
P5 Yb0 2.868819 1_556
P5 Yb0 2.868819 1_555
