# generated using pymatgen
data_Ti11Se4
_symmetry_space_group_name_H-M   'P 1'
_cell_length_a   12.91458766
_cell_length_b   12.91458766
_cell_length_c   19.26408321
_cell_angle_alpha   62.39134062
_cell_angle_beta   62.39134062
_cell_angle_gamma   15.30810050
_symmetry_Int_Tables_number   1
_chemical_formula_structural   Ti11Se4
_chemical_formula_sum   'Ti33 Se12'
_cell_volume   749.81261515
_cell_formula_units_Z   3
loop_
 _symmetry_equiv_pos_site_id
 _symmetry_equiv_pos_as_xyz
  1  'x, y, z'
loop_
 _atom_site_type_symbol
 _atom_site_label
 _atom_site_symmetry_multiplicity
 _atom_site_fract_x
 _atom_site_fract_y
 _atom_site_fract_z
 _atom_site_occupancy
  Ti  Ti0  1  0.00000000  0.00000000  0.00000000  1
  Ti  Ti1  1  0.08286200  0.08286200  0.06330800  1
  Ti  Ti2  1  0.91713800  0.91713800  0.93669200  1
  Ti  Ti3  1  0.21132400  0.21132400  0.07027800  1
  Ti  Ti4  1  0.78867600  0.78867600  0.92972200  1
  Ti  Ti5  1  0.80117000  0.80117000  0.09974900  1
  Ti  Ti6  1  0.19883000  0.19883000  0.90025100  1
  Ti  Ti7  1  0.40316800  0.40316800  0.06475400  1
  Ti  Ti8  1  0.59683200  0.59683200  0.93524600  1
  Ti  Ti9  1  0.48760900  0.48760900  0.12533200  1
  Ti  Ti10  1  0.51239100  0.51239100  0.87466800  1
  Ti  Ti11  1  0.59764700  0.59764700  0.16578800  1
  Ti  Ti12  1  0.40235300  0.40235300  0.83421200  1
  Ti  Ti13  1  0.88225100  0.88225100  0.19852900  1
  Ti  Ti14  1  0.11774900  0.11774900  0.80147100  1
  Ti  Ti15  1  0.99730300  0.99730300  0.24621300  1
  Ti  Ti16  1  0.00269700  0.00269700  0.75378700  1
  Ti  Ti17  1  0.11776700  0.11776700  0.28873500  1
  Ti  Ti18  1  0.88223300  0.88223300  0.71126500  1
  Ti  Ti19  1  0.72190700  0.72190700  0.29366200  1
  Ti  Ti20  1  0.27809300  0.27809300  0.70633800  1
  Ti  Ti21  1  0.28934200  0.28934200  0.34556000  1
  Ti  Ti22  1  0.71065800  0.71065800  0.65444000  1
  Ti  Ti23  1  0.85473700  0.85473700  0.39644200  1
  Ti  Ti24  1  0.14526300  0.14526300  0.60355800  1
  Ti  Ti25  1  0.16036200  0.16036200  0.41717900  1
  Ti  Ti26  1  0.83963800  0.83963800  0.58282100  1
  Ti  Ti27  1  0.56799600  0.56799600  0.42848500  1
  Ti  Ti28  1  0.43200400  0.43200400  0.57151500  1
  Ti  Ti29  1  0.97621700  0.97621700  0.43333000  1
  Ti  Ti30  1  0.02378300  0.02378300  0.56667000  1
  Ti  Ti31  1  0.72944800  0.72944800  0.46560100  1
  Ti  Ti32  1  0.27055200  0.27055200  0.53439900  1
  Se  Se0  1  0.66840600  0.66840600  0.00984800  1
  Se  Se1  1  0.33159400  0.33159400  0.99015200  1
  Se  Se2  1  0.69079000  0.69079000  0.18498600  1
  Se  Se3  1  0.30921000  0.30921000  0.81501400  1
  Se  Se4  1  0.30354200  0.30354200  0.20131100  1
  Se  Se5  1  0.69645800  0.69645800  0.79868900  1
  Se  Se6  1  0.53089300  0.53089300  0.32036200  1
  Se  Se7  1  0.46910700  0.46910700  0.67963800  1
  Se  Se8  1  0.41018100  0.41018100  0.28074800  1
  Se  Se9  1  0.58981900  0.58981900  0.71925200  1
  Se  Se10  1  0.39070800  0.39070800  0.46813500  1
  Se  Se11  1  0.60929200  0.60929200  0.53186500  1
loop_
_geom_bond_atom_site_label_1
_geom_bond_atom_site_label_2
_geom_bond_distance
_geom_bond_site_symmetry_2
Ti0 Ti7 2.787043 1_455
Ti0 Ti8 2.787043 1_454
Ti0 Ti8 2.787043 1_544
Ti0 Ti7 2.787043 1_545
Ti0 Ti10 2.858766 1_454
Ti0 Ti10 2.858766 1_544
Ti0 Ti9 2.858766 1_455
Ti0 Ti9 2.858766 1_545
Ti0 Ti1 2.899323 1_555
Ti0 Ti2 2.899323 1_444
Se0 Ti6 2.546591 1_564
Se0 Ti6 2.546591 1_654
Se0 Ti1 2.589544 1_655
Se0 Ti1 2.589544 1_565
Se0 Ti3 2.591742 1_565
Se0 Ti3 2.591742 1_655
Se0 Ti11 2.686361 1_555
Se0 Ti4 2.723462 1_554
Se0 Ti8 2.808013 1_554
Se1 Ti5 2.546591 1_456
Se1 Ti5 2.546591 1_546
Se1 Ti2 2.589544 1_545
Se1 Ti2 2.589544 1_455
Se1 Ti4 2.591742 1_545
Se1 Ti4 2.591742 1_455
Se1 Ti12 2.686361 1_555
Se1 Ti3 2.723462 1_556
Se1 Ti7 2.808013 1_556
Se2 Ti5 2.518200 1_555
Se2 Ti19 2.564568 1_555
Se2 Ti11 2.578114 1_555
Se2 Ti17 2.636989 1_655
Se2 Ti17 2.636989 1_565
Se2 Ti3 2.651752 1_655
Se2 Ti3 2.651752 1_565
Se3 Ti6 2.518200 1_555
Se3 Ti20 2.564568 1_555
Se3 Ti12 2.578114 1_555
Se3 Ti18 2.636989 1_455
Se3 Ti18 2.636989 1_545
Se3 Ti4 2.651752 1_455
Se3 Ti4 2.651752 1_545
Se4 Ti5 2.627063 1_545
Se4 Ti5 2.627063 1_455
Se4 Ti21 2.628564 1_555
Se4 Ti13 2.630664 1_545
Se4 Ti13 2.630664 1_455
Se4 Ti19 2.648417 1_455
Se4 Ti19 2.648417 1_545
Se4 Ti7 2.673997 1_555
Se5 Ti6 2.627063 1_655
Se5 Ti6 2.627063 1_565
Se5 Ti22 2.628564 1_555
Se5 Ti14 2.630664 1_565
Se5 Ti14 2.630664 1_655
Se5 Ti20 2.648417 1_655
Se5 Ti20 2.648417 1_565
Se5 Ti8 2.673997 1_555
Se6 Ti29 2.608680 1_455
Se6 Ti29 2.608680 1_545
Se6 Ti15 2.624344 1_455
Se6 Ti15 2.624344 1_545
Se6 Ti17 2.647367 1_565
Se6 Ti17 2.647367 1_655
Se6 Ti11 2.651094 1_555
Se6 Ti27 2.662832 1_555
Se7 Ti30 2.608680 1_565
Se7 Ti30 2.608680 1_655
Se7 Ti16 2.624344 1_565
Se7 Ti16 2.624344 1_655
Se7 Ti18 2.647367 1_455
Se7 Ti18 2.647367 1_545
Se7 Ti12 2.651094 1_555
Se7 Ti28 2.662832 1_555
Se8 Ti23 2.642393 1_455
Se8 Ti23 2.642393 1_545
Se8 Ti15 2.643440 1_455
Se8 Ti15 2.643440 1_545
Se8 Ti13 2.652864 1_455
Se8 Ti13 2.652864 1_545
Se8 Ti9 2.709743 1_555
Se8 Ti21 2.741507 1_555
Se9 Ti24 2.642393 1_655
Se9 Ti24 2.642393 1_565
Se9 Ti16 2.643440 1_565
Se9 Ti16 2.643440 1_655
Se9 Ti14 2.652864 1_565
Se9 Ti14 2.652864 1_655
Se9 Ti10 2.709743 1_555
Se9 Ti22 2.741507 1_555
Se10 Ti29 2.612908 1_455
Se10 Ti29 2.612908 1_545
Se10 Ti26 2.616845 1_545
Se10 Ti26 2.616845 1_455
Se10 Ti23 2.627445 1_455
Se10 Ti23 2.627445 1_545
Se10 Ti28 2.655667 1_555
Se10 Ti32 2.723707 1_555
Se11 Ti30 2.612908 1_655
Se11 Ti30 2.612908 1_565
Se11 Ti25 2.616845 1_565
Se11 Ti25 2.616845 1_655
Se11 Ti24 2.627445 1_655
Se11 Ti24 2.627445 1_565
Se11 Ti27 2.655667 1_555
Se11 Ti31 2.723707 1_555
