# generated using pymatgen
data_RbLi(H2N)2
_symmetry_space_group_name_H-M   'P 1'
_cell_length_a   3.87830800
_cell_length_b   7.88232800
_cell_length_c   11.72569300
_cell_angle_alpha   90.00000000
_cell_angle_beta   90.00000000
_cell_angle_gamma   90.00000000
_symmetry_Int_Tables_number   1
_chemical_formula_structural   RbLi(H2N)2
_chemical_formula_sum   'Rb4 Li4 H16 N8'
_cell_volume   358.45555764
_cell_formula_units_Z   4
loop_
 _symmetry_equiv_pos_site_id
 _symmetry_equiv_pos_as_xyz
  1  'x, y, z'
loop_
 _atom_site_type_symbol
 _atom_site_label
 _atom_site_symmetry_multiplicity
 _atom_site_fract_x
 _atom_site_fract_y
 _atom_site_fract_z
 _atom_site_occupancy
  Rb  Rb0  1  0.75000000  0.37450800  0.75856900  1
  Rb  Rb1  1  0.25000000  0.62549200  0.24143100  1
  Rb  Rb2  1  0.75000000  0.87450800  0.74143100  1
  Rb  Rb3  1  0.25000000  0.12549200  0.25856900  1
  Li  Li0  1  0.75000000  0.11344600  0.49750400  1
  Li  Li1  1  0.25000000  0.88655400  0.50249600  1
  Li  Li2  1  0.75000000  0.61344600  0.00249600  1
  Li  Li3  1  0.25000000  0.38655400  0.99750400  1
  H  H0  1  0.75000000  0.37516300  0.17540500  1
  H  H1  1  0.25000000  0.62483700  0.82459500  1
  H  H2  1  0.75000000  0.87516300  0.32459500  1
  H  H3  1  0.25000000  0.12483700  0.67540500  1
  H  H4  1  0.75000000  0.25811300  0.06247400  1
  H  H5  1  0.25000000  0.74188700  0.93752600  1
  H  H6  1  0.75000000  0.75811300  0.43752600  1
  H  H7  1  0.25000000  0.24188700  0.56247400  1
  H  H8  1  0.54525600  0.39474600  0.42627600  1
  H  H9  1  0.04525600  0.60525400  0.57372400  1
  H  H10  1  0.95474400  0.89474600  0.07372400  1
  H  H11  1  0.45474400  0.10525400  0.92627600  1
  H  H12  1  0.45474400  0.60525400  0.57372400  1
  H  H13  1  0.95474400  0.39474600  0.42627600  1
  H  H14  1  0.04525600  0.10525400  0.92627600  1
  H  H15  1  0.54525600  0.89474600  0.07372400  1
  N  N0  1  0.75000000  0.38329000  0.08756400  1
  N  N1  1  0.25000000  0.61671000  0.91243600  1
  N  N2  1  0.75000000  0.88329000  0.41243600  1
  N  N3  1  0.25000000  0.11671000  0.58756400  1
  N  N4  1  0.75000000  0.33369000  0.38793700  1
  N  N5  1  0.25000000  0.66631000  0.61206300  1
  N  N6  1  0.75000000  0.83369000  0.11206300  1
  N  N7  1  0.25000000  0.16631000  0.88793700  1
loop_
_geom_bond_atom_site_label_1
_geom_bond_atom_site_label_2
_geom_bond_distance
_geom_bond_site_symmetry_2
Li0 N2 2.070305 1_545
Li0 N4 2.159722 1_555
Li0 N3 2.208201 1_655
Li0 N3 2.208201 1_555
Li1 N3 2.070305 1_565
Li1 N5 2.159722 1_555
Li1 N2 2.208201 1_455
Li1 N2 2.208201 1_555
Li2 N0 2.070305 1_555
Li2 N6 2.159722 1_555
Li2 N1 2.208201 1_654
Li2 N1 2.208201 1_554
Li3 N1 2.070305 1_555
Li3 N7 2.159722 1_555
Li3 N0 2.208201 1_556
Li3 N0 2.208201 1_456
H0 N0 1.031987 1_555
H0 Rb1 2.872825 1_655
H0 Rb1 2.872825 1_555
H0 Rb3 2.929885 1_555
H0 Rb3 2.929885 1_655
H1 N1 1.031987 1_555
H1 Rb0 2.872825 1_455
H1 Rb0 2.872825 1_555
H1 Rb2 2.929885 1_555
H1 Rb2 2.929885 1_455
H2 N2 1.031987 1_555
H2 Rb3 2.872825 1_565
H2 Rb3 2.872825 1_665
H2 Rb1 2.929885 1_655
H2 Rb1 2.929885 1_555
H3 N3 1.031987 1_555
H3 Rb2 2.872825 1_445
H3 Rb2 2.872825 1_545
H3 Rb0 2.929885 1_455
H3 Rb0 2.929885 1_555
H4 N0 1.029612 1_555
H5 N1 1.029612 1_555
H6 N2 1.029612 1_555
H7 N3 1.029612 1_555
H8 N4 1.031621 1_555
H8 Rb1 3.052394 1_555
H9 N5 1.031621 1_555
H9 Rb0 3.052394 1_455
H10 N6 1.031621 1_555
H10 Rb3 3.052394 1_665
H11 N7 1.031621 1_555
H11 Rb2 3.052394 1_545
H12 N5 1.031621 1_555
H12 Rb0 3.052394 1_555
H13 N4 1.031621 1_555
H13 Rb1 3.052394 1_655
H14 N7 1.031621 1_555
H14 Rb2 3.052394 1_445
H15 N6 1.031621 1_555
H15 Rb3 3.052394 1_565
N4 Rb3 2.958809 1_655
N4 Rb3 2.958809 1_555
N5 Rb2 2.958809 1_555
N5 Rb2 2.958809 1_455
N6 Rb1 2.958809 1_555
N6 Rb1 2.958809 1_655
N7 Rb0 2.958809 1_555
N7 Rb0 2.958809 1_455
