# generated using pymatgen
data_Na3Sc2(BO3)3
_symmetry_space_group_name_H-M   'P 1'
_cell_length_a   8.37150965
_cell_length_b   8.37150965
_cell_length_c   8.37150964
_cell_angle_alpha   62.55807396
_cell_angle_beta   62.55807396
_cell_angle_gamma   62.55807668
_symmetry_Int_Tables_number   1
_chemical_formula_structural   Na3Sc2(BO3)3
_chemical_formula_sum   'Na6 Sc4 B6 O18'
_cell_volume   438.49450319
_cell_formula_units_Z   2
loop_
 _symmetry_equiv_pos_site_id
 _symmetry_equiv_pos_as_xyz
  1  'x, y, z'
loop_
 _atom_site_type_symbol
 _atom_site_label
 _atom_site_symmetry_multiplicity
 _atom_site_fract_x
 _atom_site_fract_y
 _atom_site_fract_z
 _atom_site_occupancy
  Na  Na0  1  0.58450800  0.91549200  0.25000000  1
  Na  Na1  1  0.41549200  0.08450800  0.75000000  1
  Na  Na2  1  0.25000000  0.58450800  0.91549200  1
  Na  Na3  1  0.08450800  0.75000000  0.41549200  1
  Na  Na4  1  0.91549200  0.25000000  0.58450800  1
  Na  Na5  1  0.75000000  0.41549200  0.08450800  1
  Sc  Sc0  1  0.82811500  0.82811500  0.82811500  1
  Sc  Sc1  1  0.17188500  0.17188500  0.17188500  1
  Sc  Sc2  1  0.67188500  0.67188500  0.67188500  1
  Sc  Sc3  1  0.32811500  0.32811500  0.32811500  1
  B  B0  1  0.91113800  0.58886200  0.25000000  1
  B  B1  1  0.25000000  0.91113800  0.58886200  1
  B  B2  1  0.08886200  0.41113800  0.75000000  1
  B  B3  1  0.41113800  0.75000000  0.08886200  1
  B  B4  1  0.58886200  0.25000000  0.91113800  1
  B  B5  1  0.75000000  0.08886200  0.41113800  1
  O  O0  1  0.90652400  0.15078400  0.31392200  1
  O  O1  1  0.40652400  0.81392200  0.65078400  1
  O  O2  1  0.09347600  0.84921600  0.68607800  1
  O  O3  1  0.31392200  0.90652400  0.15078400  1
  O  O4  1  0.81392200  0.65078400  0.40652400  1
  O  O5  1  0.57123700  0.75000000  0.92876300  1
  O  O6  1  0.34921600  0.59347600  0.18607800  1
  O  O7  1  0.42876300  0.25000000  0.07123700  1
  O  O8  1  0.18607800  0.34921600  0.59347600  1
  O  O9  1  0.15078400  0.31392200  0.90652400  1
  O  O10  1  0.59347600  0.18607800  0.34921600  1
  O  O11  1  0.84921600  0.68607800  0.09347600  1
  O  O12  1  0.92876300  0.57123700  0.75000000  1
  O  O13  1  0.65078400  0.40652400  0.81392200  1
  O  O14  1  0.25000000  0.07123700  0.42876300  1
  O  O15  1  0.07123700  0.42876300  0.25000000  1
  O  O16  1  0.68607800  0.09347600  0.84921600  1
  O  O17  1  0.75000000  0.92876300  0.57123700  1
loop_
_geom_bond_atom_site_label_1
_geom_bond_atom_site_label_2
_geom_bond_distance
_geom_bond_site_symmetry_2
Na0 O4 2.456955 1_555
Na0 O11 2.456955 1_555
Na0 O7 2.520307 1_565
Na0 O14 2.520307 1_565
Na0 O10 2.788380 1_565
Na0 O3 2.788380 1_555
Na0 O1 2.851443 1_555
Na0 O16 2.851443 1_564
Na1 O8 2.456955 1_555
Na1 O9 2.456955 1_555
Na1 O17 2.520307 1_545
Na1 O5 2.520307 1_545
Na1 O16 2.788380 1_555
Na1 O1 2.788380 1_545
Na1 O3 2.851443 1_546
Na1 O10 2.851443 1_555
Na2 O1 2.456955 1_555
Na2 O2 2.456955 1_555
Na2 O15 2.520307 1_556
Na2 O7 2.520307 1_556
Na2 O9 2.788380 1_555
Na2 O6 2.788380 1_556
Na2 O11 2.851443 1_456
Na2 O13 2.851443 1_555
Na3 O3 2.456955 1_555
Na3 O6 2.456955 1_555
Na3 O12 2.520307 1_455
Na3 O17 2.520307 1_455
Na3 O4 2.788380 1_455
Na3 O2 2.788380 1_555
Na3 O8 2.851443 1_555
Na3 O0 2.851443 1_465
Na4 O16 2.456955 1_555
Na4 O13 2.456955 1_555
Na4 O15 2.520307 1_655
Na4 O14 2.520307 1_655
Na4 O8 2.788380 1_655
Na4 O0 2.788380 1_555
Na4 O4 2.851443 1_555
Na4 O2 2.851443 1_645
Na5 O10 2.456955 1_555
Na5 O0 2.456955 1_555
Na5 O12 2.520307 1_554
Na5 O5 2.520307 1_554
Na5 O11 2.788380 1_555
Na5 O13 2.788380 1_554
Na5 O9 2.851443 1_654
Na5 O6 2.851443 1_555
B0 O4 1.379263 1_555
B0 O11 1.379263 1_555
B0 O15 1.391754 1_655
B1 O2 1.379263 1_555
B1 O1 1.379263 1_555
B1 O14 1.391754 1_565
B2 O9 1.379263 1_555
B2 O8 1.379263 1_555
B2 O12 1.391754 1_455
B3 O6 1.379263 1_555
B3 O3 1.379263 1_555
B3 O5 1.391754 1_554
B4 O13 1.379263 1_555
B4 O16 1.379263 1_555
B4 O7 1.391754 1_556
B5 O0 1.379263 1_555
B5 O10 1.379263 1_555
B5 O17 1.391754 1_545
O0 Sc1 2.028168 1_655
O1 Sc2 2.028168 1_555
O2 Sc0 2.028168 1_455
O3 Sc1 2.028168 1_565
O4 Sc2 2.028168 1_555
O5 Sc0 2.209139 1_555
O5 Sc2 2.209139 1_555
O6 Sc3 2.028168 1_555
O7 Sc1 2.209139 1_555
O7 Sc3 2.209139 1_555
O8 Sc3 2.028168 1_555
O9 Sc1 2.028168 1_556
O10 Sc3 2.028168 1_555
O11 Sc0 2.028168 1_554
O12 Sc0 2.209139 1_555
O12 Sc2 2.209139 1_555
O13 Sc2 2.028168 1_555
O14 Sc3 2.209139 1_555
O14 Sc1 2.209139 1_555
O15 Sc3 2.209139 1_555
O15 Sc1 2.209139 1_555
O16 Sc0 2.028168 1_545
O17 Sc2 2.209139 1_555
O17 Sc0 2.209139 1_555
