# generated using pymatgen
data_RbC2I3N2
_symmetry_space_group_name_H-M   'P 1'
_cell_length_a   4.61245100
_cell_length_b   7.36225200
_cell_length_c   16.09482600
_cell_angle_alpha   90.00000000
_cell_angle_beta   90.00000000
_cell_angle_gamma   90.00000000
_symmetry_Int_Tables_number   1
_chemical_formula_structural   RbC2I3N2
_chemical_formula_sum   'Rb2 C4 I6 N4'
_cell_volume   546.54852942
_cell_formula_units_Z   2
loop_
 _symmetry_equiv_pos_site_id
 _symmetry_equiv_pos_as_xyz
  1  'x, y, z'
loop_
 _atom_site_type_symbol
 _atom_site_label
 _atom_site_symmetry_multiplicity
 _atom_site_fract_x
 _atom_site_fract_y
 _atom_site_fract_z
 _atom_site_occupancy
  Rb  Rb0  1  0.15197200  0.00000000  0.50000000  1
  Rb  Rb1  1  0.84802800  0.50000000  0.00000000  1
  C  C0  1  0.28398500  0.50000000  0.80057500  1
  C  C1  1  0.28398500  0.50000000  0.19942500  1
  C  C2  1  0.71601500  0.00000000  0.69942500  1
  C  C3  1  0.71601500  0.00000000  0.30057500  1
  I  I0  1  0.87689500  0.00000000  0.18040000  1
  I  I1  1  0.17366400  0.00000000  0.00000000  1
  I  I2  1  0.12310500  0.50000000  0.31960000  1
  I  I3  1  0.12310500  0.50000000  0.68040000  1
  I  I4  1  0.87689500  0.00000000  0.81960000  1
  I  I5  1  0.82633600  0.50000000  0.50000000  1
  N  N0  1  0.36870200  0.50000000  0.86934600  1
  N  N1  1  0.63129800  0.00000000  0.63065400  1
  N  N2  1  0.36870200  0.50000000  0.13065400  1
  N  N3  1  0.63129800  0.00000000  0.36934600  1
loop_
_geom_bond_atom_site_label_1
_geom_bond_atom_site_label_2
_geom_bond_distance
_geom_bond_site_symmetry_2
C0 N0 1.173806 1_555
C0 I3 2.071655 1_555
C1 N2 1.173806 1_555
C1 I2 2.071655 1_555
C2 N1 1.173806 1_555
C2 I4 2.071655 1_555
C3 N3 1.173806 1_555
C3 I0 2.071655 1_555
I0 I1 3.209993 1_655
I1 I4 3.209993 1_454
I1 Rb1 3.975756 1_455
I1 Rb1 3.975756 1_445
I2 I5 3.209993 1_455
I3 I5 3.209993 1_455
I5 Rb0 3.975756 1_655
I5 Rb0 3.975756 1_665
N0 Rb1 3.051218 1_556
N0 Rb1 3.192114 1_456
N1 Rb0 3.051218 1_555
N1 Rb0 3.192114 1_655
N2 Rb1 3.051218 1_555
N2 Rb1 3.192114 1_455
N3 Rb0 3.051218 1_555
N3 Rb0 3.192114 1_655
