# generated using pymatgen
data_Hg4Se4O9
_symmetry_space_group_name_H-M   'P 1'
_cell_length_a   10.56629300
_cell_length_b   9.97520100
_cell_length_c   15.29665178
_cell_angle_alpha   53.29634092
_cell_angle_beta   90.00000000
_cell_angle_gamma   90.00000000
_symmetry_Int_Tables_number   1
_chemical_formula_structural   Hg4Se4O9
_chemical_formula_sum   'Hg16 Se16 O36'
_cell_volume   1292.62594918
_cell_formula_units_Z   4
loop_
 _symmetry_equiv_pos_site_id
 _symmetry_equiv_pos_as_xyz
  1  'x, y, z'
loop_
 _atom_site_type_symbol
 _atom_site_label
 _atom_site_symmetry_multiplicity
 _atom_site_fract_x
 _atom_site_fract_y
 _atom_site_fract_z
 _atom_site_occupancy
  Hg  Hg0  1  0.71870200  0.53086400  0.42868700  1
  Hg  Hg1  1  0.28129800  0.46913600  0.57131300  1
  Hg  Hg2  1  0.70941900  0.05189600  0.71567800  1
  Hg  Hg3  1  0.45420100  0.66196200  0.79669500  1
  Hg  Hg4  1  0.20941900  0.94810400  0.78432200  1
  Hg  Hg5  1  0.95420100  0.33803800  0.70330500  1
  Hg  Hg6  1  0.54579900  0.33803800  0.20330500  1
  Hg  Hg7  1  0.59023400  0.37222600  0.73742800  1
  Hg  Hg8  1  0.29058100  0.94810400  0.28432200  1
  Hg  Hg9  1  0.04579900  0.66196200  0.29669500  1
  Hg  Hg10  1  0.79058100  0.05189600  0.21567800  1
  Hg  Hg11  1  0.78129800  0.53086400  0.92868700  1
  Hg  Hg12  1  0.09023400  0.62777400  0.76257200  1
  Hg  Hg13  1  0.40976600  0.62777400  0.26257200  1
  Hg  Hg14  1  0.21870200  0.46913600  0.07131300  1
  Hg  Hg15  1  0.90976600  0.37222600  0.23742800  1
  Se  Se0  1  0.75559100  0.78953700  0.65978700  1
  Se  Se1  1  0.02621100  0.26631100  0.99760400  1
  Se  Se2  1  0.24440900  0.21046300  0.34021300  1
  Se  Se3  1  0.74440900  0.78953700  0.15978700  1
  Se  Se4  1  0.97378900  0.73368900  0.00239600  1
  Se  Se5  1  0.73432100  0.15538200  0.32591700  1
  Se  Se6  1  0.00732700  0.76802000  0.47451400  1
  Se  Se7  1  0.50732700  0.23198000  0.02548600  1
  Se  Se8  1  0.99267300  0.23198000  0.52548600  1
  Se  Se9  1  0.47378900  0.26631100  0.49760400  1
  Se  Se10  1  0.76567900  0.15538200  0.82591700  1
  Se  Se11  1  0.26567900  0.84461800  0.67408300  1
  Se  Se12  1  0.23432100  0.84461800  0.17408300  1
  Se  Se13  1  0.52621100  0.73368900  0.50239600  1
  Se  Se14  1  0.25559100  0.21046300  0.84021300  1
  Se  Se15  1  0.49267300  0.76802000  0.97451400  1
  O  O0  1  0.96698900  0.62326200  0.61113200  1
  O  O1  1  0.07265700  0.29861200  0.59275200  1
  O  O2  1  0.81651500  0.60370900  0.26969100  1
  O  O3  1  0.18348500  0.39629100  0.73030900  1
  O  O4  1  0.06442800  0.70242500  0.92365300  1
  O  O5  1  0.93557200  0.29757500  0.07634700  1
  O  O6  1  0.32946900  0.35915800  0.48275500  1
  O  O7  1  0.37530000  0.18863300  0.77545000  1
  O  O8  1  0.31651500  0.39629100  0.23030900  1
  O  O9  1  0.54149000  0.42028100  0.36696400  1
  O  O10  1  0.68348500  0.60370900  0.76969100  1
  O  O11  1  0.85500700  0.93680800  0.14126800  1
  O  O12  1  0.66254300  0.27428200  0.03550700  1
  O  O13  1  0.03301100  0.37673800  0.38886800  1
  O  O14  1  0.33745700  0.72571800  0.96449300  1
  O  O15  1  0.57265700  0.70138800  0.90724800  1
  O  O16  1  0.16254300  0.72571800  0.46449300  1
  O  O17  1  0.46698900  0.37673800  0.88886800  1
  O  O18  1  0.42734300  0.29861200  0.09275200  1
  O  O19  1  0.82946900  0.64084200  0.01724500  1
  O  O20  1  0.43557200  0.70242500  0.42365300  1
  O  O21  1  0.17053100  0.35915800  0.98275500  1
  O  O22  1  0.56442800  0.29757500  0.57634700  1
  O  O23  1  0.12470000  0.18863300  0.27545000  1
  O  O24  1  0.64499300  0.93680800  0.64126800  1
  O  O25  1  0.87530000  0.81136700  0.72455000  1
  O  O26  1  0.14499300  0.06319200  0.85873200  1
  O  O27  1  0.92734300  0.70138800  0.40724800  1
  O  O28  1  0.45851000  0.57971900  0.63303600  1
  O  O29  1  0.62470000  0.81136700  0.22455000  1
  O  O30  1  0.67053100  0.64084200  0.51724500  1
  O  O31  1  0.04149000  0.57971900  0.13303600  1
  O  O32  1  0.35500700  0.06319200  0.35873200  1
  O  O33  1  0.83745700  0.27428200  0.53550700  1
  O  O34  1  0.53301100  0.62326200  0.11113200  1
  O  O35  1  0.95851000  0.42028100  0.86696400  1
loop_
_geom_bond_atom_site_label_1
_geom_bond_atom_site_label_2
_geom_bond_distance
_geom_bond_site_symmetry_2
Hg0 O30 2.252571 1_555
Hg0 O2 2.323532 1_555
Hg0 O33 2.407519 1_555
Hg0 O9 2.619033 1_555
Hg0 O22 2.625136 1_555
Hg0 O27 2.682213 1_555
Hg1 O6 2.252571 1_555
Hg1 O3 2.323532 1_555
Hg1 O16 2.407519 1_555
Hg1 O28 2.619033 1_555
Hg1 O20 2.625136 1_555
Hg1 O1 2.682213 1_555
Hg2 O24 2.153813 1_545
Hg2 Se10 2.518607 1_555
Hg2 O22 2.579128 1_555
Hg2 O33 2.653080 1_555
Hg3 O17 2.303473 1_555
Hg3 O15 2.318634 1_555
Hg3 O10 2.581588 1_555
Hg3 Se11 2.592408 1_555
Hg4 O26 2.153813 1_565
Hg4 Se11 2.518607 1_555
Hg4 O4 2.579128 1_555
Hg4 O14 2.653080 1_555
Hg5 O0 2.303473 1_555
Hg5 O1 2.318634 1_655
Hg5 O3 2.581588 1_655
Hg5 Se10 2.592408 1_555
Hg6 O34 2.303473 1_555
Hg6 O18 2.318634 1_555
Hg6 O8 2.581588 1_555
Hg6 Se5 2.592408 1_555
Hg7 O28 2.195526 1_555
Hg7 Se10 2.539244 1_555
Hg8 O32 2.153813 1_565
Hg8 Se12 2.518607 1_555
Hg8 O20 2.579128 1_555
Hg8 O16 2.653080 1_555
Hg9 O13 2.303473 1_555
Hg9 O27 2.318634 1_455
Hg9 O2 2.581588 1_455
Hg9 Se12 2.592408 1_555
Hg10 O11 2.153813 1_545
Hg10 Se5 2.518607 1_555
Hg10 O5 2.579128 1_555
Hg10 O12 2.653080 1_555
Hg11 O19 2.252571 1_556
Hg11 O10 2.323532 1_555
Hg11 O12 2.407519 1_556
Hg11 O35 2.619033 1_555
Hg11 O5 2.625136 1_556
Hg11 O15 2.682213 1_555
Hg12 O35 2.195526 1_455
Hg12 Se11 2.539244 1_555
Hg13 O9 2.195526 1_555
Hg13 Se12 2.539244 1_555
Hg14 O21 2.252571 1_554
Hg14 O8 2.323532 1_555
Hg14 O14 2.407519 1_554
Hg14 O31 2.619033 1_555
Hg14 O4 2.625136 1_554
Hg14 O18 2.682213 1_555
Hg15 O31 2.195526 1_655
Hg15 Se5 2.539244 1_555
O0 Se6 1.739792 1_655
O1 Se8 1.741342 1_455
O2 Se3 1.765724 1_555
O3 Se14 1.765724 1_555
O4 Se4 1.707144 1_456
O5 Se1 1.707144 1_654
O6 Se9 1.727228 1_555
O7 Se14 1.699002 1_555
O8 Se2 1.765724 1_555
O9 Se9 1.787528 1_555
O10 Se0 1.765724 1_555
O11 Se3 1.762549 1_555
O12 Se7 1.722981 1_555
O13 Se8 1.739792 1_455
O14 Se15 1.722981 1_555
O15 Se15 1.741342 1_555
O16 Se6 1.722981 1_555
O17 Se7 1.739792 1_556
O18 Se7 1.741342 1_555
O19 Se4 1.727228 1_555
O20 Se13 1.707144 1_555
O21 Se1 1.727228 1_555
O22 Se9 1.707144 1_555
O23 Se2 1.699002 1_555
O24 Se0 1.762549 1_555
O25 Se0 1.699002 1_555
O26 Se14 1.762549 1_555
O27 Se6 1.741342 1_655
O28 Se13 1.787528 1_555
O29 Se3 1.699002 1_555
O30 Se13 1.727228 1_555
O31 Se4 1.787528 1_455
O32 Se2 1.762549 1_555
O33 Se8 1.722981 1_555
O34 Se15 1.739792 1_554
O35 Se1 1.787528 1_655
