# generated using pymatgen
data_Ba12Cl5F19
_symmetry_space_group_name_H-M   'P 1'
_cell_length_a   14.14829654
_cell_length_b   14.14829536
_cell_length_c   4.28027215
_cell_angle_alpha   90.00000382
_cell_angle_beta   89.99999266
_cell_angle_gamma   120.00004373
_symmetry_Int_Tables_number   1
_chemical_formula_structural   Ba12Cl5F19
_chemical_formula_sum   'Ba12 Cl5 F19'
_cell_volume   742.01057569
_cell_formula_units_Z   1
loop_
 _symmetry_equiv_pos_site_id
 _symmetry_equiv_pos_as_xyz
  1  'x, y, z'
loop_
 _atom_site_type_symbol
 _atom_site_label
 _atom_site_symmetry_multiplicity
 _atom_site_fract_x
 _atom_site_fract_y
 _atom_site_fract_z
 _atom_site_occupancy
  Ba  Ba0  1  0.17800212  -0.00000020  0.00000008  1
  Ba  Ba1  1  0.83355409  0.30906315  0.49999987  1
  Ba  Ba2  1  -0.00000013  0.62676622  -0.00000004  1
  Ba  Ba3  1  0.47550882  0.16644592  0.49999973  1
  Ba  Ba4  1  0.82199710  0.82199740  -0.00000000  1
  Ba  Ba5  1  0.30906324  0.83355423  0.50000004  1
  Ba  Ba6  1  0.16644576  0.47550888  0.50000028  1
  Ba  Ba7  1  0.69093693  0.52449091  0.50000032  1
  Ba  Ba8  1  -0.00000018  0.17800241  -0.00000016  1
  Ba  Ba9  1  0.52449085  0.69093689  0.50000010  1
  Ba  Ba10  1  0.62676595  0.00000001  -0.00000034  1
  Ba  Ba11  1  0.37323389  0.37323387  -0.00000018  1
  Cl  Cl0  1  -0.00000010  0.81135816  0.50000012  1
  Cl  Cl1  1  0.18864153  0.18864157  0.49999995  1
  Cl  Cl2  1  0.81135807  0.00000003  0.50000002  1
  Cl  Cl3  1  0.66666690  0.33333321  0.00000000  1
  Cl  Cl4  1  0.33333312  0.66666690  0.00000006  1
  F  F0  1  0.18278515  0.37557539  0.00000004  1
  F  F1  1  0.51220486  0.87446009  0.49999998  1
  F  F2  1  0.80720936  0.62442450  0.00000014  1
  F  F3  1  0.43809650  -0.00000020  -0.00000004  1
  F  F4  1  0.00000019  0.27980559  0.50000010  1
  F  F5  1  0.56190326  0.56190331  0.00000006  1
  F  F6  1  0.81721503  0.19279065  -0.00000003  1
  F  F7  1  0.36225571  0.48779553  0.49999999  1
  F  F8  1  0.72019446  0.72019450  0.49999988  1
  F  F9  1  -0.00000013  0.43809665  0.00000009  1
  F  F10  1  0.87446006  0.51220482  0.49999990  1
  F  F11  1  0.37557540  0.18278521  -0.00000012  1
  F  F12  1  0.19279067  0.81721545  0.00000013  1
  F  F13  1  0.62442433  0.80720947  0.00000004  1
  F  F14  1  0.63774407  0.12553996  0.49999997  1
  F  F15  1  0.27980566  0.00000025  0.49999985  1
  F  F16  1  0.48779543  0.36225573  0.50000003  1
  F  F17  1  0.12553997  0.63774439  0.49999991  1
  F  F18  1  0.00000006  0.00000017  0.00000024  1
loop_
_geom_bond_atom_site_label_1
_geom_bond_atom_site_label_2
_geom_bond_distance
_geom_bond_site_symmetry_2
Ba0 F18 2.518429 1_555
Ba0 F15 2.579684 1_555
Ba0 F15 2.579685 1_554
Ba0 F12 2.696798 1_545
Ba0 F11 2.696806 1_555
Ba0 Cl0 3.365176 1_544
Ba0 Cl0 3.365176 1_545
Ba0 Cl1 3.365178 1_555
Ba0 Cl1 3.365179 1_554
Ba1 F4 2.586861 1_655
Ba1 F10 2.632880 1_555
Ba1 F6 2.638095 1_555
Ba1 F6 2.638096 1_556
Ba1 F14 2.687677 1_555
Ba1 F9 3.026468 1_655
Ba1 F9 3.026470 1_656
Ba1 Cl3 3.329263 1_555
Ba1 Cl3 3.329263 1_556
Ba2 F9 2.669353 1_555
Ba2 F2 2.711243 1_455
Ba2 F12 2.711247 1_555
Ba2 F10 2.735546 1_455
Ba2 F10 2.735547 1_454
Ba2 F17 2.735551 1_554
Ba2 F17 2.735551 1_555
Ba2 Cl0 3.376530 1_554
Ba2 Cl0 3.376530 1_555
Ba3 F15 2.586853 1_555
Ba3 F14 2.632875 1_555
Ba3 F11 2.638096 1_555
Ba3 F11 2.638097 1_556
Ba3 F16 2.687677 1_555
Ba3 F3 3.026472 1_555
Ba3 F3 3.026474 1_556
Ba3 Cl3 3.329267 1_555
Ba3 Cl3 3.329268 1_556
Ba4 F18 2.518436 1_665
Ba4 F8 2.579679 1_555
Ba4 F8 2.579680 1_554
Ba4 F13 2.696800 1_555
Ba4 F2 2.696803 1_555
Ba4 Cl2 3.365180 1_565
Ba4 Cl2 3.365180 1_564
Ba4 Cl0 3.365182 1_654
Ba4 Cl0 3.365183 1_655
Ba5 F15 2.586860 1_565
Ba5 F1 2.632880 1_555
Ba5 F12 2.638097 1_555
Ba5 F12 2.638097 1_556
Ba5 F17 2.687676 1_555
Ba5 F3 3.026467 1_566
Ba5 F3 3.026467 1_565
Ba5 Cl4 3.329263 1_555
Ba5 Cl4 3.329263 1_556
Ba6 F4 2.586853 1_555
Ba6 F17 2.632877 1_555
Ba6 F0 2.638097 1_556
Ba6 F0 2.638099 1_555
Ba6 F7 2.687679 1_555
Ba6 F9 3.026470 1_556
Ba6 F9 3.026472 1_555
Ba6 Cl4 3.329267 1_556
Ba6 Cl4 3.329268 1_555
Ba7 F8 2.586860 1_555
Ba7 F16 2.632875 1_555
Ba7 F2 2.638095 1_556
Ba7 F2 2.638096 1_555
Ba7 F10 2.687673 1_555
Ba7 F5 3.026472 1_556
Ba7 F5 3.026474 1_555
Ba7 Cl3 3.329267 1_556
Ba7 Cl3 3.329268 1_555
Ba8 F18 2.518430 1_555
Ba8 F4 2.579681 1_554
Ba8 F4 2.579683 1_555
Ba8 F6 2.696802 1_455
Ba8 F0 2.696803 1_555
Ba8 Cl2 3.365177 1_454
Ba8 Cl2 3.365178 1_455
Ba8 Cl1 3.365179 1_554
Ba8 Cl1 3.365180 1_555
Ba9 F8 2.586860 1_555
Ba9 F7 2.632874 1_555
Ba9 F13 2.638096 1_556
Ba9 F13 2.638096 1_555
Ba9 F1 2.687673 1_555
Ba9 F5 3.026472 1_555
Ba9 F5 3.026472 1_556
Ba9 Cl4 3.329268 1_556
Ba9 Cl4 3.329269 1_555
Ba10 F3 2.669350 1_555
Ba10 F13 2.711244 1_545
Ba10 F6 2.711245 1_555
Ba10 F1 2.735545 1_544
Ba10 F1 2.735547 1_545
Ba10 F14 2.735548 1_554
Ba10 F14 2.735550 1_555
Ba10 Cl2 3.376531 1_554
Ba10 Cl2 3.376534 1_555
Ba11 F5 2.669349 1_555
Ba11 F11 2.711240 1_555
Ba11 F0 2.711241 1_555
Ba11 F16 2.735546 1_554
Ba11 F7 2.735548 1_554
Ba11 F16 2.735548 1_555
Ba11 F7 2.735549 1_555
Ba11 Cl1 3.376533 1_554
Ba11 Cl1 3.376534 1_555
