# generated using pymatgen
data_Dy2Mn3Si5
_symmetry_space_group_name_H-M   'P 1'
_cell_length_a   10.61649151
_cell_length_b   10.61649151
_cell_length_c   5.46130401
_cell_angle_alpha   90.00000000
_cell_angle_beta   90.00000000
_cell_angle_gamma   90.00000000
_symmetry_Int_Tables_number   1
_chemical_formula_structural   Dy2Mn3Si5
_chemical_formula_sum   'Dy8 Mn12 Si20'
_cell_volume   615.54298505
_cell_formula_units_Z   4
loop_
 _symmetry_equiv_pos_site_id
 _symmetry_equiv_pos_as_xyz
  1  'x, y, z'
loop_
 _atom_site_type_symbol
 _atom_site_label
 _atom_site_symmetry_multiplicity
 _atom_site_fract_x
 _atom_site_fract_y
 _atom_site_fract_z
 _atom_site_occupancy
  Dy  Dy0  1  0.23795425  0.07489053  -0.00000000  1
  Dy  Dy1  1  0.07489053  0.76204575  -0.00000000  1
  Dy  Dy2  1  0.92510947  0.23795425  -0.00000000  1
  Dy  Dy3  1  0.76204575  0.92510947  -0.00000000  1
  Dy  Dy4  1  0.26204575  0.57489053  0.50000000  1
  Dy  Dy5  1  0.73795425  0.42510947  0.50000000  1
  Dy  Dy6  1  0.57489053  0.73795425  0.50000000  1
  Dy  Dy7  1  0.42510947  0.26204575  0.50000000  1
  Mn  Mn0  1  0.50000000  0.00000000  0.25000000  1
  Mn  Mn1  1  -0.00000000  0.50000000  0.25000000  1
  Mn  Mn2  1  0.50000000  0.00000000  0.75000000  1
  Mn  Mn3  1  -0.00000000  0.50000000  0.75000000  1
  Mn  Mn4  1  0.36006007  0.38174203  -0.00000000  1
  Mn  Mn5  1  0.38174203  0.63993993  -0.00000000  1
  Mn  Mn6  1  0.61825797  0.36006007  -0.00000000  1
  Mn  Mn7  1  0.63993993  0.61825797  -0.00000000  1
  Mn  Mn8  1  0.13993993  0.88174203  0.50000000  1
  Mn  Mn9  1  0.86006007  0.11825797  0.50000000  1
  Mn  Mn10  1  0.88174203  0.86006007  0.50000000  1
  Mn  Mn11  1  0.11825797  0.13993993  0.50000000  1
  Si  Si0  1  -0.00000000  0.00000000  0.24068387  1
  Si  Si1  1  0.50000000  0.50000000  0.25931613  1
  Si  Si2  1  -0.00000000  0.00000000  0.75931613  1
  Si  Si3  1  0.50000000  0.50000000  0.74068387  1
  Si  Si4  1  0.67554235  0.17554235  0.25000000  1
  Si  Si5  1  0.17554235  0.32445765  0.25000000  1
  Si  Si6  1  0.82445765  0.67554235  0.25000000  1
  Si  Si7  1  0.32445765  0.82445765  0.25000000  1
  Si  Si8  1  0.32445765  0.82445765  0.75000000  1
  Si  Si9  1  0.82445765  0.67554235  0.75000000  1
  Si  Si10  1  0.17554235  0.32445765  0.75000000  1
  Si  Si11  1  0.67554235  0.17554235  0.75000000  1
  Si  Si12  1  0.47815004  0.18443820  -0.00000000  1
  Si  Si13  1  0.18443820  0.52184996  -0.00000000  1
  Si  Si14  1  0.81556180  0.47815004  -0.00000000  1
  Si  Si15  1  0.52184996  0.81556180  -0.00000000  1
  Si  Si16  1  0.02184996  0.68443820  0.50000000  1
  Si  Si17  1  0.97815004  0.31556180  0.50000000  1
  Si  Si18  1  0.68443820  0.97815004  0.50000000  1
  Si  Si19  1  0.31556180  0.02184996  0.50000000  1
loop_
_geom_bond_atom_site_label_1
_geom_bond_atom_site_label_2
_geom_bond_distance
_geom_bond_site_symmetry_2
Dy0 Si12 2.802728 1_555
Dy0 Si19 2.907300 1_554
Dy0 Si19 2.907300 1_555
Dy0 Si0 2.956654 1_555
Dy0 Si2 2.956654 1_554
Dy0 Si5 3.053382 1_555
Dy0 Si10 3.053382 1_554
Dy0 Mn11 3.090016 1_554
Dy0 Mn11 3.090016 1_555
Dy0 Si7 3.126706 1_545
Dy0 Si8 3.126706 1_544
Dy0 Mn0 3.199347 1_555
Dy0 Mn2 3.199347 1_554
Dy1 Si13 2.802728 1_555
Dy1 Si16 2.907300 1_554
Dy1 Si16 2.907300 1_555
Dy1 Si0 2.956654 1_565
Dy1 Si2 2.956654 1_564
Dy1 Si7 3.053382 1_555
Dy1 Si8 3.053382 1_554
Dy1 Mn8 3.090016 1_555
Dy1 Mn8 3.090016 1_554
Dy1 Si6 3.126706 1_455
Dy1 Si9 3.126706 1_454
Dy1 Mn3 3.199347 1_554
Dy1 Mn1 3.199347 1_555
Dy2 Si14 2.802728 1_555
Dy2 Si17 2.907300 1_554
Dy2 Si17 2.907300 1_555
Dy2 Si2 2.956654 1_654
Dy2 Si0 2.956654 1_655
Dy2 Si4 3.053382 1_555
Dy2 Si11 3.053382 1_554
Dy2 Mn9 3.090016 1_554
Dy2 Mn9 3.090016 1_555
Dy2 Si5 3.126706 1_655
Dy2 Si10 3.126706 1_654
Dy2 Mn1 3.199347 1_655
Dy2 Mn3 3.199347 1_654
Dy3 Si15 2.802728 1_555
Dy3 Si18 2.907300 1_555
Dy3 Si18 2.907300 1_554
Dy3 Si0 2.956654 1_665
Dy3 Si2 2.956654 1_664
Dy3 Si6 3.053382 1_555
Dy3 Si9 3.053382 1_554
Dy3 Mn10 3.090016 1_555
Dy3 Mn10 3.090016 1_554
Dy3 Si11 3.126706 1_564
Dy3 Si4 3.126706 1_565
Dy3 Mn2 3.199347 1_564
Dy3 Mn0 3.199347 1_565
Dy4 Si16 2.802728 1_555
Dy4 Si13 2.907300 1_555
Dy4 Si13 2.907300 1_556
Dy4 Si3 2.956654 1_555
Dy4 Si1 2.956654 1_555
Dy4 Si7 3.053382 1_555
Dy4 Si8 3.053382 1_555
Dy4 Mn5 3.090016 1_555
Dy4 Mn5 3.090016 1_556
Dy4 Si10 3.126706 1_555
Dy4 Si5 3.126706 1_555
Dy4 Mn3 3.199347 1_555
Dy4 Mn1 3.199347 1_555
Dy5 Si17 2.802728 1_555
Dy5 Si14 2.907300 1_555
Dy5 Si14 2.907300 1_556
Dy5 Si3 2.956654 1_555
Dy5 Si1 2.956654 1_555
Dy5 Si4 3.053382 1_555
Dy5 Si11 3.053382 1_555
Dy5 Mn6 3.090016 1_556
Dy5 Mn6 3.090016 1_555
Dy5 Si9 3.126706 1_555
Dy5 Si6 3.126706 1_555
Dy5 Mn3 3.199347 1_655
Dy5 Mn1 3.199347 1_655
Dy6 Si18 2.802728 1_555
Dy6 Si15 2.907300 1_555
Dy6 Si15 2.907300 1_556
Dy6 Si3 2.956654 1_555
Dy6 Si1 2.956654 1_555
Dy6 Si6 3.053382 1_555
Dy6 Si9 3.053382 1_555
Dy6 Mn7 3.090016 1_555
Dy6 Mn7 3.090016 1_556
Dy6 Si7 3.126706 1_555
Dy6 Si8 3.126706 1_555
Dy6 Mn2 3.199347 1_565
Dy6 Mn0 3.199347 1_565
Dy7 Si19 2.802728 1_555
Dy7 Si12 2.907300 1_555
Dy7 Si12 2.907300 1_556
Dy7 Si3 2.956654 1_555
Dy7 Si1 2.956654 1_555
Dy7 Si5 3.053382 1_555
Dy7 Si10 3.053382 1_555
Dy7 Mn4 3.090016 1_556
Dy7 Mn4 3.090016 1_555
Dy7 Si4 3.126706 1_555
Dy7 Si11 3.126706 1_555
Dy7 Mn2 3.199347 1_555
Dy7 Mn0 3.199347 1_555
Mn0 Si12 2.398339 1_555
Mn0 Si15 2.398339 1_545
Mn0 Si19 2.398339 1_555
Mn0 Si18 2.398339 1_545
Mn0 Si7 2.635590 1_545
Mn0 Si4 2.635590 1_555
Mn1 Si14 2.398339 1_455
Mn1 Si17 2.398339 1_455
Mn1 Si16 2.398339 1_555
Mn1 Si13 2.398339 1_555
Mn1 Si5 2.635590 1_555
Mn1 Si6 2.635590 1_455
Mn2 Si19 2.398339 1_555
Mn2 Si12 2.398339 1_556
Mn2 Si15 2.398339 1_546
Mn2 Si18 2.398339 1_545
Mn2 Si8 2.635590 1_545
Mn2 Si11 2.635590 1_555
Mn3 Si17 2.398339 1_455
Mn3 Si16 2.398339 1_555
Mn3 Si13 2.398339 1_556
Mn3 Si14 2.398339 1_456
Mn3 Si9 2.635590 1_455
Mn3 Si10 2.635590 1_555
Mn4 Si13 2.385128 1_555
Mn4 Si1 2.406054 1_555
Mn4 Si3 2.406054 1_554
Mn4 Si12 2.441194 1_555
Mn4 Si5 2.464018 1_555
Mn4 Si10 2.464018 1_554
Mn5 Si15 2.385128 1_555
Mn5 Si1 2.406054 1_555
Mn5 Si3 2.406054 1_554
Mn5 Si13 2.441194 1_555
Mn5 Si8 2.464018 1_554
Mn5 Si7 2.464018 1_555
Mn6 Si12 2.385128 1_555
Mn6 Si1 2.406054 1_555
Mn6 Si3 2.406054 1_554
Mn6 Si14 2.441194 1_555
Mn6 Si4 2.464018 1_555
Mn6 Si11 2.464018 1_554
Mn7 Si14 2.385128 1_555
Mn7 Si1 2.406054 1_555
Mn7 Si3 2.406054 1_554
Mn7 Si15 2.441194 1_555
Mn7 Si6 2.464018 1_555
Mn7 Si9 2.464018 1_554
Mn8 Si19 2.385128 1_565
Mn8 Si2 2.406054 1_565
Mn8 Si0 2.406054 1_565
Mn8 Si16 2.441194 1_555
Mn8 Si7 2.464018 1_555
Mn8 Si8 2.464018 1_555
Mn9 Si18 2.385128 1_545
Mn9 Si2 2.406054 1_655
Mn9 Si0 2.406054 1_655
Mn9 Si17 2.441194 1_555
Mn9 Si4 2.464018 1_555
Mn9 Si11 2.464018 1_555
Mn10 Si16 2.385128 1_655
Mn10 Si2 2.406054 1_665
Mn10 Si0 2.406054 1_665
Mn10 Si18 2.441194 1_555
Mn10 Si6 2.464018 1_555
Mn10 Si9 2.464018 1_555
Mn11 Si17 2.385128 1_455
Mn11 Si2 2.406054 1_555
Mn11 Si0 2.406054 1_555
Mn11 Si19 2.441194 1_555
Mn11 Si10 2.464018 1_555
Mn11 Si5 2.464018 1_555
Si0 Si2 2.628896 1_554
Si1 Si3 2.628896 1_555
Si6 Si9 2.730652 1_554
Si6 Si9 2.730652 1_555
Si7 Si8 2.730652 1_555
Si7 Si8 2.730652 1_554
Si10 Si17 2.502925 1_455
Si10 Si13 2.502925 1_556
Si10 Si5 2.730652 1_556
Si10 Si5 2.730652 1_555
Si11 Si18 2.502925 1_545
Si11 Si12 2.502925 1_556
Si11 Si4 2.730652 1_555
Si11 Si4 2.730652 1_556
Si12 Si4 2.502925 1_555
Si13 Si5 2.502925 1_555
Si14 Si6 2.502925 1_555
Si14 Si9 2.502925 1_554
Si15 Si7 2.502925 1_555
Si15 Si8 2.502925 1_554
Si16 Si6 2.502925 1_455
Si16 Si9 2.502925 1_455
Si17 Si5 2.502925 1_655
Si18 Si4 2.502925 1_565
Si19 Si7 2.502925 1_545
Si19 Si8 2.502925 1_545
