# generated using pymatgen
data_Eu6Mo10O39
_symmetry_space_group_name_H-M   'P 1'
_cell_length_a   11.98455603
_cell_length_b   11.98455570
_cell_length_c   14.26779604
_cell_angle_alpha   96.27434276
_cell_angle_beta   96.27433952
_cell_angle_gamma   116.26201793
_symmetry_Int_Tables_number   1
_chemical_formula_structural   Eu6Mo10O39
_chemical_formula_sum   'Eu12 Mo20 O78'
_cell_volume   1797.94885273
_cell_formula_units_Z   2
loop_
 _symmetry_equiv_pos_site_id
 _symmetry_equiv_pos_as_xyz
  1  'x, y, z'
loop_
 _atom_site_type_symbol
 _atom_site_label
 _atom_site_symmetry_multiplicity
 _atom_site_fract_x
 _atom_site_fract_y
 _atom_site_fract_z
 _atom_site_occupancy
  Eu  Eu0  1  0.71111500  0.03049600  0.35746500  1
  Eu  Eu1  1  0.05953600  0.75895600  0.41261200  1
  Eu  Eu2  1  0.94046400  0.24104400  0.58738800  1
  Eu  Eu3  1  0.47879000  0.36118500  0.41530000  1
  Eu  Eu4  1  0.63881500  0.52121000  0.08470000  1
  Eu  Eu5  1  0.52121000  0.63881500  0.58470000  1
  Eu  Eu6  1  0.03049600  0.71111500  0.85746500  1
  Eu  Eu7  1  0.24104400  0.94046400  0.08738800  1
  Eu  Eu8  1  0.75895600  0.05953600  0.91261200  1
  Eu  Eu9  1  0.96950400  0.28888500  0.14253500  1
  Eu  Eu10  1  0.36118500  0.47879000  0.91530000  1
  Eu  Eu11  1  0.28888500  0.96950400  0.64253500  1
  Mo  Mo0  1  0.74119000  0.43295500  0.66177600  1
  Mo  Mo1  1  0.89322500  0.93728900  0.13617600  1
  Mo  Mo2  1  0.10677500  0.06271100  0.86382400  1
  Mo  Mo3  1  0.99701700  0.61923300  0.11801000  1
  Mo  Mo4  1  0.68731600  0.68416400  0.36087100  1
  Mo  Mo5  1  0.43295500  0.74119000  0.16177600  1
  Mo  Mo6  1  0.38335600  0.81946600  0.86159400  1
  Mo  Mo7  1  0.61664400  0.18053400  0.13840600  1
  Mo  Mo8  1  0.00298300  0.38076700  0.88199000  1
  Mo  Mo9  1  0.68416400  0.68731600  0.86087100  1
  Mo  Mo10  1  0.31268400  0.31583600  0.63912900  1
  Mo  Mo11  1  0.31583600  0.31268400  0.13912900  1
  Mo  Mo12  1  0.25881000  0.56704500  0.33822400  1
  Mo  Mo13  1  0.93728900  0.89322500  0.63617600  1
  Mo  Mo14  1  0.61923300  0.99701700  0.61801000  1
  Mo  Mo15  1  0.81946600  0.38335600  0.36159400  1
  Mo  Mo16  1  0.38076700  0.00298300  0.38199000  1
  Mo  Mo17  1  0.06271100  0.10677500  0.36382400  1
  Mo  Mo18  1  0.56704500  0.25881000  0.83822400  1
  Mo  Mo19  1  0.18053400  0.61664400  0.63840600  1
  O  O0  1  0.02373900  0.70406300  0.23536400  1
  O  O1  1  0.87212700  0.58233600  0.70620700  1
  O  O2  1  0.63055200  0.61691700  0.23615900  1
  O  O3  1  0.70696800  0.84416000  0.88822800  1
  O  O4  1  0.29593700  0.97626100  0.26463600  1
  O  O5  1  0.41611000  0.41681200  0.06428200  1
  O  O6  1  0.05885100  0.46507200  0.58195300  1
  O  O7  1  0.15584000  0.29303200  0.61177200  1
  O  O8  1  0.26555900  0.82695800  0.92886500  1
  O  O9  1  0.32713700  0.60801800  0.64292200  1
  O  O10  1  0.96156400  0.12768800  0.44194700  1
  O  O11  1  0.02347300  0.14527400  0.24105100  1
  O  O12  1  0.72670600  0.06716000  0.53532000  1
  O  O13  1  0.64307400  0.14534800  0.25750800  1
  O  O14  1  0.68826700  0.83312300  0.38498900  1
  O  O15  1  0.73444100  0.17304200  0.07113500  1
  O  O16  1  0.55899400  0.34440900  0.94373100  1
  O  O17  1  0.49411800  0.94356400  0.37880600  1
  O  O18  1  0.22089900  0.22215600  0.90533000  1
  O  O19  1  0.22215600  0.22089900  0.40533000  1
  O  O20  1  0.44100600  0.65559100  0.05626900  1
  O  O21  1  0.17304200  0.73444100  0.57113500  1
  O  O22  1  0.29303200  0.15584000  0.11177200  1
  O  O23  1  0.61691700  0.63055200  0.73615900  1
  O  O24  1  0.50588200  0.05643600  0.62119400  1
  O  O25  1  0.93284000  0.27329400  0.96468000  1
  O  O26  1  0.94356400  0.49411800  0.87880600  1
  O  O27  1  0.41766400  0.12787300  0.79379300  1
  O  O28  1  0.39198200  0.67286300  0.85707800  1
  O  O29  1  0.36944800  0.38308300  0.76384100  1
  O  O30  1  0.12768800  0.96156400  0.94194700  1
  O  O31  1  0.83312300  0.68826700  0.88498900  1
  O  O32  1  0.37230100  0.62769900  0.25000000  1
  O  O33  1  0.83077500  0.53261600  0.07558700  1
  O  O34  1  0.93881800  0.04140700  0.63565500  1
  O  O35  1  0.53261600  0.83077500  0.57558700  1
  O  O36  1  0.85465200  0.35692600  0.24249200  1
  O  O37  1  0.16687700  0.31173300  0.11501100  1
  O  O38  1  0.58233600  0.87212700  0.20620700  1
  O  O39  1  0.31173300  0.16687700  0.61501100  1
  O  O40  1  0.82695800  0.26555900  0.42886500  1
  O  O41  1  0.77784400  0.77910100  0.59467000  1
  O  O42  1  0.87231300  0.03843600  0.05805300  1
  O  O43  1  0.97652700  0.85472600  0.75894900  1
  O  O44  1  0.38308300  0.36944800  0.26384100  1
  O  O45  1  0.77910100  0.77784400  0.09467000  1
  O  O46  1  0.14534800  0.64307400  0.75750800  1
  O  O47  1  0.60801800  0.32713700  0.14292200  1
  O  O48  1  0.05643600  0.50588200  0.12119400  1
  O  O49  1  0.65559100  0.44100600  0.55626900  1
  O  O50  1  0.20352000  0.67824900  0.36695200  1
  O  O51  1  0.58318800  0.58389000  0.43571800  1
  O  O52  1  0.67286300  0.39198200  0.35707800  1
  O  O53  1  0.97626100  0.29593700  0.76463600  1
  O  O54  1  0.03843600  0.87231300  0.55805300  1
  O  O55  1  0.06118200  0.95859300  0.36434500  1
  O  O56  1  0.70406300  0.02373900  0.73536400  1
  O  O57  1  0.34440900  0.55899400  0.44373100  1
  O  O58  1  0.62769900  0.37230100  0.75000000  1
  O  O59  1  0.06716000  0.72670600  0.03532000  1
  O  O60  1  0.79648000  0.32175100  0.63304800  1
  O  O61  1  0.53492800  0.94114900  0.91804700  1
  O  O62  1  0.46507200  0.05885100  0.08195300  1
  O  O63  1  0.58389000  0.58318800  0.93571800  1
  O  O64  1  0.95859300  0.06118200  0.86434500  1
  O  O65  1  0.67824900  0.20352000  0.86695200  1
  O  O66  1  0.35692600  0.85465200  0.74249200  1
  O  O67  1  0.12787300  0.41766400  0.29379300  1
  O  O68  1  0.46738400  0.16922500  0.42441300  1
  O  O69  1  0.41681200  0.41611000  0.56428200  1
  O  O70  1  0.85472600  0.97652700  0.25894900  1
  O  O71  1  0.84416000  0.70696800  0.38822800  1
  O  O72  1  0.14527400  0.02347300  0.74105100  1
  O  O73  1  0.94114900  0.53492800  0.41804700  1
  O  O74  1  0.27329400  0.93284000  0.46468000  1
  O  O75  1  0.16922500  0.46738400  0.92441300  1
  O  O76  1  0.04140700  0.93881800  0.13565500  1
  O  O77  1  0.32175100  0.79648000  0.13304800  1
loop_
_geom_bond_atom_site_label_1
_geom_bond_atom_site_label_2
_geom_bond_distance
_geom_bond_site_symmetry_2
Eu0 O14 2.340470 1_545
Eu0 O13 2.400349 1_555
Eu0 O17 2.405419 1_545
Eu0 O12 2.499476 1_555
Eu0 O38 2.534987 1_545
Eu0 O40 2.550270 1_555
Eu0 O70 2.582927 1_545
Eu0 O10 2.761731 1_555
Eu1 O71 2.346251 1_455
Eu1 O50 2.433643 1_555
Eu1 O73 2.434353 1_455
Eu1 O74 2.445127 1_555
Eu1 O54 2.453203 1_555
Eu1 O0 2.482300 1_555
Eu1 O55 2.553496 1_555
Eu1 O21 2.622753 1_555
Eu2 O7 2.346251 1_655
Eu2 O60 2.433643 1_555
Eu2 O6 2.434353 1_655
Eu2 O12 2.445127 1_555
Eu2 O10 2.453197 1_555
Eu2 O53 2.482300 1_555
Eu2 O34 2.553496 1_555
Eu2 O40 2.622753 1_555
Eu3 O68 2.262546 1_555
Eu3 O51 2.359900 1_555
Eu3 O44 2.366601 1_555
Eu3 O52 2.442466 1_555
Eu3 O69 2.444451 1_555
Eu3 O49 2.510841 1_555
Eu3 O19 2.753634 1_555
Eu4 O33 2.262546 1_555
Eu4 O5 2.359900 1_555
Eu4 O2 2.366601 1_555
Eu4 O47 2.442466 1_555
Eu4 O63 2.444451 1_554
Eu4 O16 2.510841 1_554
Eu4 O45 2.753634 1_555
Eu5 O35 2.262546 1_555
Eu5 O69 2.359900 1_555
Eu5 O23 2.366601 1_555
Eu5 O9 2.442466 1_555
Eu5 O51 2.444451 1_555
Eu5 O57 2.510841 1_555
Eu5 O41 2.753634 1_555
Eu6 O31 2.340470 1_455
Eu6 O46 2.400349 1_555
Eu6 O26 2.405419 1_455
Eu6 O59 2.499476 1_556
Eu6 O1 2.534987 1_455
Eu6 O8 2.550270 1_555
Eu6 O43 2.582927 1_455
Eu6 O30 2.761731 1_555
Eu7 O22 2.346251 1_565
Eu7 O77 2.433643 1_555
Eu7 O62 2.434353 1_565
Eu7 O59 2.445127 1_555
Eu7 O30 2.453197 1_554
Eu7 O4 2.482300 1_555
Eu7 O76 2.553496 1_555
Eu7 O8 2.622753 1_554
Eu8 O3 2.346251 1_545
Eu8 O65 2.433643 1_555
Eu8 O61 2.434353 1_545
Eu8 O25 2.445127 1_555
Eu8 O42 2.453203 1_556
Eu8 O56 2.482300 1_555
Eu8 O64 2.553496 1_555
Eu8 O15 2.622753 1_556
Eu9 O37 2.340470 1_655
Eu9 O36 2.400349 1_555
Eu9 O48 2.405419 1_655
Eu9 O25 2.499476 1_554
Eu9 O67 2.534987 1_655
Eu9 O15 2.550270 1_555
Eu9 O11 2.582927 1_655
Eu9 O42 2.761733 1_555
Eu10 O75 2.262546 1_555
Eu10 O63 2.359900 1_555
Eu10 O29 2.366601 1_555
Eu10 O28 2.442466 1_555
Eu10 O5 2.444451 1_556
Eu10 O20 2.510841 1_556
Eu10 O18 2.753634 1_555
Eu11 O39 2.340470 1_565
Eu11 O66 2.400349 1_555
Eu11 O24 2.405419 1_565
Eu11 O74 2.499476 1_555
Eu11 O27 2.534987 1_565
Eu11 O21 2.550270 1_555
Eu11 O72 2.582927 1_565
Eu11 O54 2.761733 1_555
Mo0 O60 1.762021 1_555
Mo0 O49 1.763404 1_555
Mo0 O1 1.765716 1_555
Mo0 O58 1.913670 1_555
Mo1 O76 1.768704 1_655
Mo1 O45 1.770752 1_555
Mo1 O42 1.810470 1_565
Mo1 O70 1.921221 1_555
Mo1 O11 2.473801 1_665
Mo2 O64 1.768704 1_455
Mo2 O18 1.770752 1_555
Mo2 O30 1.810474 1_545
Mo2 O72 1.921221 1_555
Mo2 O43 2.473801 1_445
Mo3 O0 1.778282 1_655
Mo3 O33 1.783868 1_555
Mo3 O48 1.793623 1_655
Mo3 O59 1.829847 1_655
Mo4 O71 1.766928 1_555
Mo4 O14 1.775491 1_555
Mo4 O2 1.793106 1_555
Mo4 O51 1.840263 1_555
Mo5 O77 1.762021 1_555
Mo5 O20 1.763404 1_555
Mo5 O38 1.765716 1_555
Mo5 O32 1.913670 1_555
Mo6 O61 1.776050 1_555
Mo6 O28 1.799788 1_555
Mo6 O8 1.819844 1_555
Mo6 O66 1.822919 1_555
Mo7 O62 1.776050 1_555
Mo7 O47 1.799788 1_555
Mo7 O15 1.819844 1_555
Mo7 O13 1.822919 1_555
Mo8 O53 1.778282 1_455
Mo8 O75 1.783868 1_555
Mo8 O26 1.793623 1_455
Mo8 O25 1.829847 1_455
Mo9 O3 1.766928 1_555
Mo9 O31 1.775492 1_555
Mo9 O23 1.793106 1_555
Mo9 O63 1.840263 1_555
Mo10 O7 1.766928 1_555
Mo10 O39 1.775491 1_555
Mo10 O29 1.793106 1_555
Mo10 O69 1.840263 1_555
Mo11 O22 1.766928 1_555
Mo11 O37 1.775492 1_555
Mo11 O44 1.793106 1_555
Mo11 O5 1.840263 1_555
Mo12 O50 1.762021 1_555
Mo12 O57 1.763404 1_555
Mo12 O67 1.765716 1_555
Mo12 O32 1.913670 1_555
Mo13 O34 1.768704 1_565
Mo13 O41 1.770752 1_555
Mo13 O54 1.810470 1_655
Mo13 O43 1.921221 1_555
Mo13 O72 2.473802 1_665
Mo14 O56 1.778282 1_565
Mo14 O35 1.783868 1_555
Mo14 O24 1.793623 1_565
Mo14 O12 1.829847 1_565
Mo15 O73 1.776050 1_555
Mo15 O52 1.799788 1_555
Mo15 O40 1.819844 1_555
Mo15 O36 1.822919 1_555
Mo16 O4 1.778282 1_545
Mo16 O68 1.783868 1_555
Mo16 O17 1.793623 1_545
Mo16 O74 1.829847 1_545
Mo17 O55 1.768704 1_545
Mo17 O19 1.770752 1_555
Mo17 O10 1.810474 1_455
Mo17 O11 1.921221 1_555
Mo17 O70 2.473802 1_445
Mo18 O65 1.762021 1_555
Mo18 O16 1.763404 1_555
Mo18 O27 1.765716 1_555
Mo18 O58 1.913670 1_555
Mo19 O6 1.776050 1_555
Mo19 O9 1.799788 1_555
Mo19 O21 1.819844 1_555
Mo19 O46 1.822919 1_555
