# generated using pymatgen
data_PrCu6
_symmetry_space_group_name_H-M   'P 1'
_cell_length_a   5.08205163
_cell_length_b   8.00961193
_cell_length_c   10.05096638
_cell_angle_alpha   90.00000000
_cell_angle_beta   90.00000000
_cell_angle_gamma   91.42811624
_symmetry_Int_Tables_number   1
_chemical_formula_structural   PrCu6
_chemical_formula_sum   'Pr4 Cu24'
_cell_volume   409.00013038
_cell_formula_units_Z   4
loop_
 _symmetry_equiv_pos_site_id
 _symmetry_equiv_pos_as_xyz
  1  'x, y, z'
loop_
 _atom_site_type_symbol
 _atom_site_label
 _atom_site_symmetry_multiplicity
 _atom_site_fract_x
 _atom_site_fract_y
 _atom_site_fract_z
 _atom_site_occupancy
  Pr  Pr0  1  0.25860114  0.76154893  0.06330352  1
  Pr  Pr1  1  0.74139886  0.23845107  0.93669648  1
  Pr  Pr2  1  0.25860114  0.26154893  0.43669648  1
  Pr  Pr3  1  0.74139886  0.73845107  0.56330352  1
  Cu  Cu0  1  0.25034814  0.90094492  0.51607113  1
  Cu  Cu1  1  0.00488911  0.93705623  0.31141715  1
  Cu  Cu2  1  0.76011236  0.35003731  0.64254036  1
  Cu  Cu3  1  0.76011236  0.85003731  0.85745964  1
  Cu  Cu4  1  0.74965311  0.18170259  0.24483479  1
  Cu  Cu5  1  0.25034689  0.31829741  0.74483479  1
  Cu  Cu6  1  0.99511089  0.56294377  0.81141715  1
  Cu  Cu7  1  0.23988764  0.64996269  0.35745964  1
  Cu  Cu8  1  0.00488911  0.43705623  0.18858285  1
  Cu  Cu9  1  0.77132357  0.93562352  0.09893844  1
  Cu  Cu10  1  0.22867643  0.56437648  0.59893844  1
  Cu  Cu11  1  0.22867643  0.06437648  0.90106156  1
  Cu  Cu12  1  0.99511089  0.06294377  0.68858285  1
  Cu  Cu13  1  0.49621503  0.93328644  0.30733348  1
  Cu  Cu14  1  0.50378497  0.56671356  0.80733348  1
  Cu  Cu15  1  0.25034689  0.81829741  0.75516521  1
  Cu  Cu16  1  0.25034814  0.40094492  0.98392887  1
  Cu  Cu17  1  0.74965186  0.09905508  0.48392887  1
  Cu  Cu18  1  0.23988764  0.14996269  0.14254036  1
  Cu  Cu19  1  0.77132357  0.43562352  0.40106156  1
  Cu  Cu20  1  0.74965186  0.59905508  0.01607113  1
  Cu  Cu21  1  0.49621503  0.43328644  0.19266652  1
  Cu  Cu22  1  0.74965311  0.68170259  0.25516521  1
  Cu  Cu23  1  0.50378497  0.06671356  0.69266652  1
loop_
_geom_bond_atom_site_label_1
_geom_bond_atom_site_label_2
_geom_bond_distance
_geom_bond_site_symmetry_2
Cu0 Cu1 2.426698 1_555
Cu0 Cu13 2.452327 1_555
Cu0 Cu15 2.492635 1_555
Cu0 Cu12 2.540966 1_465
Cu0 Cu23 2.546961 1_565
Cu0 Cu7 2.565181 1_555
Cu0 Cu10 2.821044 1_555
Cu0 Pr3 2.882525 1_555
Cu0 Pr3 2.905430 1_455
Cu0 Cu17 2.976642 1_565
Cu0 Pr2 2.995740 1_565
Cu0 Cu17 3.049315 1_465
Cu1 Cu9 2.443207 1_455
Cu1 Cu22 2.460312 1_455
Cu1 Cu4 2.469170 1_465
Cu1 Cu13 2.498216 1_555
Cu1 Cu17 2.540966 1_465
Cu1 Cu13 2.584858 1_455
Cu1 Cu7 2.658021 1_555
Cu1 Cu18 2.667190 1_565
Cu1 Pr2 3.136256 1_565
Cu1 Pr0 3.154031 1_555
Cu1 Pr3 3.259898 1_455
Cu2 Cu23 2.636894 1_555
Cu2 Cu6 2.667190 1_555
Cu2 Cu5 2.713000 1_655
Cu2 Cu5 2.792920 1_555
Cu2 Pr1 3.089470 1_555
Cu2 Pr3 3.215066 1_555
Cu2 Pr2 3.344947 1_555
Cu2 Pr2 3.360082 1_655
Cu3 Cu9 2.522304 1_556
Cu3 Cu6 2.658021 1_555
Cu3 Pr3 3.089470 1_555
Cu3 Pr1 3.215066 1_565
Cu3 Pr0 3.344947 1_556
Cu3 Pr0 3.360082 1_656
Cu4 Cu8 2.460312 1_655
Cu4 Cu9 2.461322 1_545
Cu4 Pr1 3.130697 1_554
Cu4 Pr2 3.230333 1_555
Cu4 Pr2 3.276469 1_655
Cu5 Cu6 2.469170 1_455
Cu5 Pr2 3.130697 1_555
Cu5 Pr1 3.230333 1_555
Cu5 Pr1 3.276469 1_455
Cu6 Pr1 3.136256 1_555
Cu6 Pr3 3.154031 1_555
Cu6 Pr0 3.259898 1_656
Cu7 Cu8 2.667190 1_555
Cu7 Pr0 3.089470 1_555
Cu7 Pr2 3.215066 1_555
Cu7 Pr3 3.344947 1_555
Cu7 Pr3 3.360082 1_455
Cu8 Pr0 3.136256 1_555
Cu8 Pr2 3.154031 1_555
Cu8 Pr1 3.259898 1_454
Cu9 Pr0 2.894267 1_655
Cu9 Pr1 2.929823 1_564
Cu9 Pr0 2.946313 1_555
Cu10 Cu6 2.443207 1_455
Cu10 Cu5 2.461322 1_555
Cu10 Cu14 2.518135 1_555
Cu10 Cu7 2.522304 1_555
Cu10 Cu15 2.569623 1_555
Cu10 Pr3 2.894267 1_455
Cu10 Pr2 2.929823 1_555
Cu10 Cu2 2.933603 1_455
Cu10 Pr3 2.946313 1_555
Cu10 Cu19 3.209656 1_455
Cu10 Cu2 3.265688 1_555
Cu11 Cu12 2.443207 1_455
Cu11 Cu15 2.461322 1_545
Cu11 Cu23 2.518135 1_555
Cu11 Cu18 2.522304 1_556
Cu11 Cu5 2.569623 1_555
Cu11 Cu16 2.821044 1_555
Cu11 Pr1 2.894267 1_455
Cu11 Pr0 2.929823 1_546
Cu11 Cu3 2.933603 1_445
Cu11 Pr1 2.946313 1_555
Cu11 Cu9 3.209656 1_446
Cu11 Cu3 3.265688 1_545
Cu12 Cu17 2.426698 1_555
Cu12 Cu5 2.460312 1_655
Cu12 Cu15 2.469170 1_645
Cu12 Cu23 2.498216 1_555
Cu12 Cu23 2.584858 1_655
Cu12 Cu2 2.658021 1_555
Cu12 Cu3 2.667190 1_545
Cu12 Pr3 3.136256 1_545
Cu12 Pr1 3.154031 1_555
Cu12 Pr2 3.259898 1_655
Cu13 Cu4 2.425848 1_565
Cu13 Cu22 2.474630 1_555
Cu13 Cu9 2.518135 1_555
Cu13 Cu17 2.546961 1_565
Cu13 Cu7 2.636894 1_555
Cu13 Cu18 2.750455 1_565
Cu13 Pr0 3.046880 1_555
Cu13 Pr2 3.196879 1_565
Cu13 Pr3 3.271680 1_555
Cu14 Cu5 2.425848 1_555
Cu14 Cu20 2.452327 1_556
Cu14 Cu15 2.474630 1_555
Cu14 Cu6 2.498216 1_555
Cu14 Cu16 2.546961 1_555
Cu14 Cu6 2.584858 1_455
Cu14 Cu3 2.636894 1_555
Cu14 Cu2 2.750455 1_555
Cu14 Pr3 3.046880 1_555
Cu14 Pr1 3.196879 1_555
Cu14 Pr0 3.271680 1_556
Cu15 Cu23 2.425848 1_565
Cu15 Cu6 2.460312 1_455
Cu15 Cu3 2.713000 1_455
Cu15 Cu3 2.792920 1_555
Cu15 Pr0 3.130697 1_556
Cu15 Pr3 3.230333 1_555
Cu15 Pr3 3.276469 1_455
Cu16 Cu8 2.426698 1_556
Cu16 Cu21 2.452327 1_556
Cu16 Cu5 2.492635 1_555
Cu16 Cu6 2.540966 1_455
Cu16 Cu18 2.565181 1_556
Cu16 Pr1 2.882525 1_555
Cu16 Pr1 2.905430 1_455
Cu16 Cu20 2.976642 1_556
Cu16 Pr0 2.995740 1_556
Cu16 Cu20 3.049315 1_456
Cu17 Cu23 2.452327 1_555
Cu17 Cu4 2.492635 1_555
Cu17 Cu2 2.565181 1_555
Cu17 Cu19 2.821044 1_555
Cu17 Pr2 2.882525 1_555
Cu17 Pr2 2.905430 1_655
Cu17 Pr3 2.995740 1_545
Cu18 Cu21 2.636894 1_555
Cu18 Cu8 2.658021 1_555
Cu18 Cu4 2.713000 1_455
Cu18 Cu4 2.792920 1_555
Cu18 Cu9 2.933603 1_445
Cu18 Pr2 3.089470 1_555
Cu18 Pr0 3.215066 1_545
Cu18 Cu9 3.265688 1_545
Cu18 Pr1 3.344947 1_554
Cu18 Pr1 3.360082 1_454
Cu19 Cu8 2.443207 1_655
Cu19 Cu22 2.461322 1_555
Cu19 Cu21 2.518135 1_555
Cu19 Cu2 2.522304 1_555
Cu19 Cu4 2.569623 1_555
Cu19 Pr2 2.894267 1_655
Cu19 Pr3 2.929823 1_555
Cu19 Cu7 2.933603 1_655
Cu19 Pr2 2.946313 1_555
Cu19 Cu7 3.265688 1_555
Cu20 Cu6 2.426698 1_554
Cu20 Cu22 2.492635 1_555
Cu20 Cu8 2.540966 1_655
Cu20 Cu21 2.546961 1_555
Cu20 Cu3 2.565181 1_554
Cu20 Cu9 2.821044 1_555
Cu20 Pr0 2.882525 1_555
Cu20 Pr0 2.905430 1_655
Cu20 Pr1 2.995740 1_554
Cu21 Cu22 2.425848 1_555
Cu21 Cu4 2.474630 1_555
Cu21 Cu8 2.498216 1_555
Cu21 Cu8 2.584858 1_655
Cu21 Cu7 2.750455 1_555
Cu21 Pr2 3.046880 1_555
Cu21 Pr0 3.196879 1_555
Cu21 Pr1 3.271680 1_554
Cu22 Cu8 2.469170 1_655
Cu22 Cu9 2.569623 1_555
Cu22 Cu7 2.713000 1_655
Cu22 Cu7 2.792920 1_555
Cu22 Pr3 3.130697 1_555
Cu22 Pr0 3.230333 1_555
Cu22 Pr0 3.276469 1_655
Cu23 Cu5 2.474630 1_555
Cu23 Cu3 2.750455 1_545
Cu23 Pr1 3.046880 1_555
Cu23 Pr3 3.196879 1_545
Cu23 Pr2 3.271680 1_555
