# generated using pymatgen
data_MgAu3
_symmetry_space_group_name_H-M   'P 1'
_cell_length_a   5.88672030
_cell_length_b   10.54786348
_cell_length_c   24.00663391
_cell_angle_alpha   90.00000000
_cell_angle_beta   90.00000000
_cell_angle_gamma   106.20339426
_symmetry_Int_Tables_number   1
_chemical_formula_structural   MgAu3
_chemical_formula_sum   'Mg20 Au60'
_cell_volume   1431.41567594
_cell_formula_units_Z   20
loop_
 _symmetry_equiv_pos_site_id
 _symmetry_equiv_pos_as_xyz
  1  'x, y, z'
loop_
 _atom_site_type_symbol
 _atom_site_label
 _atom_site_symmetry_multiplicity
 _atom_site_fract_x
 _atom_site_fract_y
 _atom_site_fract_z
 _atom_site_occupancy
  Mg  Mg0  1  0.04199947  0.08399893  0.20144073  1
  Mg  Mg1  1  0.87579880  0.75159759  0.00000000  1
  Mg  Mg2  1  0.04248253  0.08496507  0.60013382  1
  Mg  Mg3  1  0.45906957  0.91813914  0.09977228  1
  Mg  Mg4  1  0.70621862  0.41243724  0.70124512  1
  Mg  Mg5  1  0.70675644  0.41351287  0.10000538  1
  Mg  Mg6  1  0.04248253  0.08496507  0.39986618  1
  Mg  Mg7  1  0.62621016  0.25242031  0.50000000  1
  Mg  Mg8  1  0.04199947  0.08399893  0.79855927  1
  Mg  Mg9  1  0.70621862  0.41243724  0.29875488  1
  Mg  Mg10  1  0.45906957  0.91813914  0.90022772  1
  Mg  Mg11  1  0.87435266  0.74870533  0.50000000  1
  Mg  Mg12  1  0.45824396  0.91648792  0.29815732  1
  Mg  Mg13  1  0.29014214  0.58028427  0.79833465  1
  Mg  Mg14  1  0.70675644  0.41351287  0.89999462  1
  Mg  Mg15  1  0.45824396  0.91648792  0.70184268  1
  Mg  Mg16  1  0.12318982  0.24637965  0.00000000  1
  Mg  Mg17  1  0.29035899  0.58071797  0.40036628  1
  Mg  Mg18  1  0.29014214  0.58028427  0.20166535  1
  Mg  Mg19  1  0.29035899  0.58071797  0.59963372  1
  Au  Au0  1  0.41707811  0.33301314  0.19946125  1
  Au  Au1  1  0.37540109  0.75080218  0.50000000  1
  Au  Au2  1  0.20866264  0.41732528  0.69983046  1
  Au  Au3  1  0.41707811  0.33301314  0.80053875  1
  Au  Au4  1  0.91450407  0.33360005  0.40016439  1
  Au  Au5  1  0.16778904  0.83351580  0.40004782  1
  Au  Au6  1  0.49992717  0.50133364  0.50000000  1
  Au  Au7  1  0.91593503  0.33301314  0.19946125  1
  Au  Au8  1  0.41909597  0.33360005  0.40016439  1
  Au  Au9  1  0.58027628  0.66371176  0.69939729  1
  Au  Au10  1  0.79243182  0.58486363  0.40029204  1
  Au  Au11  1  0.79144771  0.58289541  0.80032770  1
  Au  Au12  1  0.62671191  0.25342382  0.00000000  1
  Au  Au13  1  0.66572677  0.83351580  0.40004782  1
  Au  Au14  1  0.08343547  0.66371176  0.69939729  1
  Au  Au15  1  0.16778507  0.83248144  0.19936849  1
  Au  Au16  1  0.20866264  0.41732528  0.30016954  1
  Au  Au17  1  0.54071381  0.08142762  0.40003795  1
  Au  Au18  1  0.33106302  0.16383068  0.30053888  1
  Au  Au19  1  0.95661258  0.91322517  0.69987695  1
  Au  Au20  1  0.08343547  0.66371176  0.30060271  1
  Au  Au21  1  0.37452731  0.74905462  0.00000000  1
  Au  Au22  1  0.79144771  0.58289541  0.19967230  1
  Au  Au23  1  0.12292606  0.24585212  0.50000000  1
  Au  Au24  1  0.53960064  0.07920129  0.80007553  1
  Au  Au25  1  0.58027628  0.66371176  0.30060271  1
  Au  Au26  1  0.95661258  0.91322517  0.30012305  1
  Au  Au27  1  0.41909597  0.33360005  0.59983561  1
  Au  Au28  1  0.83471039  0.16506217  0.09996069  1
  Au  Au29  1  0.66469637  0.83248144  0.80063151  1
  Au  Au30  1  0.00140647  0.50133364  0.50000000  1
  Au  Au31  1  0.66469637  0.83248144  0.19936849  1
  Au  Au32  1  0.83276765  0.16383068  0.69946112  1
  Au  Au33  1  0.95709774  0.91419548  0.90006881  1
  Au  Au34  1  0.16778904  0.83351580  0.59995218  1
  Au  Au35  1  0.58184165  0.66524739  0.90024747  1
  Au  Au36  1  0.75241922  0.00105982  0.50000000  1
  Au  Au37  1  0.83471039  0.16506217  0.90003931  1
  Au  Au38  1  0.16778507  0.83248144  0.80063151  1
  Au  Au39  1  0.24981251  0.99824759  0.00000000  1
  Au  Au40  1  0.53960064  0.07920129  0.19992447  1
  Au  Au41  1  0.33035178  0.16506217  0.90003931  1
  Au  Au42  1  0.08340574  0.66524739  0.90024747  1
  Au  Au43  1  0.66572677  0.83351580  0.59995218  1
  Au  Au44  1  0.24864060  0.00105982  0.50000000  1
  Au  Au45  1  0.20862009  0.41724019  0.90017075  1
  Au  Au46  1  0.95709774  0.91419548  0.09993119  1
  Au  Au47  1  0.08340574  0.66524739  0.09975253  1
  Au  Au48  1  0.91450407  0.33360005  0.59983561  1
  Au  Au49  1  0.58184165  0.66524739  0.09975253  1
  Au  Au50  1  0.91593503  0.33301314  0.80053875  1
  Au  Au51  1  0.83276765  0.16383068  0.30053888  1
  Au  Au52  1  0.74843508  0.99824759  0.00000000  1
  Au  Au53  1  0.33035178  0.16506217  0.09996069  1
  Au  Au54  1  0.20862009  0.41724019  0.09982925  1
  Au  Au55  1  0.54071381  0.08142762  0.59996205  1
  Au  Au56  1  0.33106302  0.16383068  0.69946112  1
  Au  Au57  1  0.99733341  0.49839880  0.00000000  1
  Au  Au58  1  0.50106540  0.49839880  0.00000000  1
  Au  Au59  1  0.79243182  0.58486363  0.59970796  1
loop_
_geom_bond_atom_site_label_1
_geom_bond_atom_site_label_2
_geom_bond_distance
_geom_bond_site_symmetry_2
Au0 Mg18 2.907140 1_555
Au0 Mg9 2.912934 1_555
Au0 Mg5 2.919147 1_555
Au0 Mg0 2.922272 1_555
Au1 Mg11 2.943437 1_555
Au1 Mg11 2.943437 1_455
Au1 Mg17 2.947702 1_555
Au1 Mg19 2.947702 1_555
Au2 Mg13 2.883836 1_555
Au2 Mg19 2.919735 1_555
Au2 Mg4 2.943972 1_555
Au2 Mg4 2.943972 1_455
Au3 Mg13 2.907140 1_555
Au3 Mg4 2.912934 1_555
Au3 Mg14 2.919147 1_555
Au3 Mg8 2.922272 1_555
Au4 Mg17 2.910493 1_655
Au4 Mg7 2.923458 1_555
Au4 Mg6 2.923723 1_655
Au4 Mg9 2.947998 1_555
Au5 Mg6 2.944563 1_565
Au5 Mg11 2.946075 1_455
Au5 Mg17 2.950343 1_555
Au5 Mg12 2.972786 1_555
Au6 Mg11 2.908039 1_555
Au6 Mg17 2.919011 1_555
Au6 Mg19 2.919011 1_555
Au6 Mg7 2.921504 1_555
Au7 Mg18 2.907140 1_655
Au7 Mg9 2.912934 1_555
Au7 Mg5 2.919147 1_555
Au7 Mg0 2.922272 1_655
Au8 Mg17 2.910493 1_555
Au8 Mg7 2.923458 1_555
Au8 Mg6 2.923723 1_555
Au8 Mg9 2.947998 1_555
Au9 Mg13 2.914443 1_555
Au9 Mg19 2.929367 1_555
Au9 Mg4 2.944986 1_555
Au9 Mg15 2.949124 1_555
Au10 Mg11 2.912665 1_555
Au10 Mg17 2.943660 1_555
Au10 Mg17 2.943660 1_655
Au10 Mg9 2.998655 1_555
Au11 Mg4 2.939200 1_555
Au11 Mg13 2.943868 1_655
Au11 Mg13 2.943868 1_555
Au11 Mg14 2.944202 1_555
Au12 Mg5 2.897091 1_555
Au12 Mg14 2.897091 1_554
Au12 Mg16 2.944225 1_655
Au12 Mg16 2.944225 1_555
Au13 Mg6 2.944563 1_665
Au13 Mg11 2.946075 1_555
Au13 Mg17 2.950343 1_555
Au13 Mg12 2.972786 1_555
Au14 Mg13 2.914444 1_555
Au14 Mg19 2.929367 1_555
Au14 Mg4 2.944986 1_455
Au14 Mg15 2.949124 1_555
Au15 Mg12 2.913350 1_555
Au15 Mg3 2.934052 1_555
Au15 Mg18 2.944068 1_555
Au15 Mg0 2.947094 1_565
Au16 Mg18 2.883836 1_555
Au16 Mg17 2.919735 1_555
Au16 Mg9 2.943972 1_555
Au16 Mg9 2.943972 1_455
Au17 Mg6 2.943581 1_655
Au17 Mg6 2.943581 1_555
Au17 Mg7 2.959478 1_555
Au17 Mg12 2.961937 1_545
Au18 Mg12 2.908685 1_545
Au18 Mg0 2.909406 1_555
Au18 Mg6 2.911206 1_555
Au18 Mg9 2.919472 1_555
Au19 Mg8 2.933313 1_665
Au19 Mg15 2.943924 1_555
Au19 Mg15 2.943924 1_655
Au19 Mg2 2.959660 1_665
Au20 Mg18 2.914444 1_555
Au20 Mg17 2.929367 1_555
Au20 Mg9 2.944986 1_455
Au20 Mg12 2.949124 1_555
Au21 Mg1 2.943473 1_455
Au21 Mg1 2.943473 1_555
Au21 Mg10 2.944501 1_554
Au21 Mg3 2.944501 1_555
Au22 Mg9 2.939200 1_555
Au22 Mg18 2.943868 1_655
Au22 Mg18 2.943868 1_555
Au22 Mg5 2.944202 1_555
Au23 Mg6 2.904175 1_555
Au23 Mg2 2.904175 1_555
Au23 Mg7 2.944112 1_455
Au23 Mg7 2.944112 1_555
Au24 Mg15 2.877071 1_545
Au24 Mg10 2.905535 1_545
Au24 Mg8 2.943986 1_555
Au24 Mg8 2.943986 1_655
Au25 Mg18 2.914443 1_555
Au25 Mg17 2.929367 1_555
Au25 Mg9 2.944986 1_555
Au25 Mg12 2.949124 1_555
Au26 Mg0 2.933313 1_665
Au26 Mg12 2.943924 1_555
Au26 Mg12 2.943924 1_655
Au26 Mg6 2.959660 1_665
Au27 Mg19 2.910493 1_555
Au27 Mg7 2.923458 1_555
Au27 Mg2 2.923723 1_555
Au27 Mg4 2.947998 1_555
Au28 Mg3 2.908444 1_545
Au28 Mg5 2.921758 1_555
Au28 Mg16 2.926655 1_655
Au28 Mg0 2.955919 1_655
Au29 Mg15 2.913350 1_555
Au29 Mg10 2.934052 1_555
Au29 Mg13 2.944068 1_555
Au29 Mg8 2.947094 1_665
Au30 Mg11 2.908039 1_455
Au30 Mg17 2.919011 1_555
Au30 Mg19 2.919011 1_555
Au30 Mg7 2.921504 1_455
Au31 Mg12 2.913350 1_555
Au31 Mg3 2.934052 1_555
Au31 Mg18 2.944068 1_555
Au31 Mg0 2.947094 1_665
Au32 Mg15 2.908685 1_545
Au32 Mg8 2.909406 1_655
Au32 Mg2 2.911206 1_655
Au32 Mg4 2.919472 1_555
Au33 Mg1 2.909922 1_556
Au33 Mg10 2.943634 1_555
Au33 Mg10 2.943634 1_655
Au33 Mg8 2.982718 1_665
Au34 Mg2 2.944563 1_565
Au34 Mg11 2.946075 1_455
Au34 Mg19 2.950343 1_555
Au34 Mg15 2.972786 1_555
Au35 Mg1 2.946029 1_556
Au35 Mg14 2.946331 1_555
Au35 Mg10 2.951887 1_555
Au35 Mg13 2.979712 1_555
Au36 Mg6 2.938388 1_655
Au36 Mg2 2.938388 1_655
Au36 Mg11 2.943927 1_545
Au36 Mg7 2.946321 1_555
Au37 Mg10 2.908444 1_545
Au37 Mg14 2.921758 1_555
Au37 Mg16 2.926655 1_656
Au37 Mg8 2.955919 1_655
Au38 Mg15 2.913350 1_555
Au38 Mg10 2.934052 1_555
Au38 Mg13 2.944068 1_555
Au38 Mg8 2.947094 1_565
Au39 Mg1 2.901590 1_455
Au39 Mg16 2.914525 1_565
Au39 Mg10 2.923914 1_554
Au39 Mg3 2.923914 1_555
Au40 Mg12 2.877071 1_545
Au40 Mg3 2.905535 1_545
Au40 Mg0 2.943986 1_555
Au40 Mg0 2.943986 1_655
Au41 Mg10 2.908444 1_545
Au41 Mg14 2.921758 1_555
Au41 Mg16 2.926655 1_556
Au41 Mg8 2.955919 1_555
Au42 Mg1 2.946029 1_456
Au42 Mg14 2.946330 1_455
Au42 Mg10 2.951887 1_555
Au42 Mg13 2.979712 1_555
Au43 Mg2 2.944563 1_665
Au43 Mg11 2.946075 1_555
Au43 Mg19 2.950343 1_555
Au43 Mg15 2.972786 1_555
Au44 Mg6 2.938388 1_555
Au44 Mg2 2.938388 1_555
Au44 Mg11 2.943927 1_445
Au44 Mg7 2.946321 1_555
Au45 Mg14 2.943605 1_455
Au45 Mg14 2.943605 1_555
Au45 Mg13 2.950264 1_555
Au45 Mg16 2.956109 1_556
Au46 Mg1 2.909922 1_555
Au46 Mg3 2.943634 1_555
Au46 Mg3 2.943634 1_655
Au46 Mg0 2.982718 1_665
Au47 Mg1 2.946029 1_455
Au47 Mg5 2.946330 1_455
Au47 Mg3 2.951887 1_555
Au47 Mg18 2.979712 1_555
Au48 Mg19 2.910493 1_655
Au48 Mg7 2.923458 1_555
Au48 Mg2 2.923723 1_655
Au48 Mg4 2.947998 1_555
Au49 Mg1 2.946029 1_555
Au49 Mg5 2.946331 1_555
Au49 Mg3 2.951887 1_555
Au49 Mg18 2.979712 1_555
Au50 Mg13 2.907140 1_655
Au50 Mg4 2.912934 1_555
Au50 Mg14 2.919147 1_555
Au50 Mg8 2.922272 1_655
Au51 Mg12 2.908685 1_545
Au51 Mg0 2.909406 1_655
Au51 Mg6 2.911206 1_655
Au51 Mg9 2.919472 1_555
Au52 Mg1 2.901590 1_555
Au52 Mg16 2.914525 1_665
Au52 Mg10 2.923914 1_554
Au52 Mg3 2.923914 1_555
Au53 Mg3 2.908444 1_545
Au53 Mg5 2.921758 1_555
Au53 Mg16 2.926655 1_555
Au53 Mg0 2.955919 1_555
Au54 Mg5 2.943605 1_455
Au54 Mg5 2.943605 1_555
Au54 Mg18 2.950264 1_555
Au54 Mg16 2.956109 1_555
Au55 Mg2 2.943581 1_655
Au55 Mg2 2.943581 1_555
Au55 Mg7 2.959478 1_555
Au55 Mg15 2.961937 1_545
Au56 Mg15 2.908685 1_545
Au56 Mg8 2.909406 1_555
Au56 Mg2 2.911206 1_555
Au56 Mg4 2.919472 1_555
Au57 Mg5 2.938825 1_555
Au57 Mg14 2.938825 1_554
Au57 Mg1 2.951423 1_555
Au57 Mg16 2.952019 1_655
Au58 Mg5 2.938825 1_555
Au58 Mg14 2.938825 1_554
Au58 Mg1 2.951423 1_555
Au58 Mg16 2.952019 1_555
Au59 Mg11 2.912665 1_555
Au59 Mg19 2.943660 1_555
Au59 Mg19 2.943660 1_655
Au59 Mg4 2.998655 1_555
