# generated using pymatgen
data_Na2Ge4O9
_symmetry_space_group_name_H-M   'P 1'
_cell_length_a   11.47574998
_cell_length_b   11.47574998
_cell_length_c   9.83791200
_cell_angle_alpha   90.00000000
_cell_angle_beta   90.00000000
_cell_angle_gamma   119.99999986
_symmetry_Int_Tables_number   1
_chemical_formula_structural   Na2Ge4O9
_chemical_formula_sum   'Na12 Ge24 O54'
_cell_volume   1122.00739953
_cell_formula_units_Z   6
loop_
 _symmetry_equiv_pos_site_id
 _symmetry_equiv_pos_as_xyz
  1  'x, y, z'
loop_
 _atom_site_type_symbol
 _atom_site_label
 _atom_site_symmetry_multiplicity
 _atom_site_fract_x
 _atom_site_fract_y
 _atom_site_fract_z
 _atom_site_occupancy
  Na  Na0  1  0.67081400  0.66302900  0.07669400  1
  Na  Na1  1  0.00778600  0.67081400  0.92330600  1
  Na  Na2  1  0.00778600  0.33697100  0.42330600  1
  Na  Na3  1  0.99221400  0.66302900  0.57669400  1
  Na  Na4  1  0.99221400  0.32918600  0.07669400  1
  Na  Na5  1  0.33697100  0.32918600  0.57669400  1
  Na  Na6  1  0.66302900  0.67081400  0.42330600  1
  Na  Na7  1  0.33697100  0.00778600  0.07669400  1
  Na  Na8  1  0.66302900  0.99221400  0.92330600  1
  Na  Na9  1  0.32918600  0.33697100  0.92330600  1
  Na  Na10  1  0.67081400  0.00778600  0.57669400  1
  Na  Na11  1  0.32918600  0.99221400  0.42330600  1
  Ge  Ge0  1  0.85037600  0.34419800  0.79925500  1
  Ge  Ge1  1  0.00000000  0.17639400  0.75000000  1
  Ge  Ge2  1  0.50617800  0.65580200  0.70074500  1
  Ge  Ge3  1  0.17639400  0.17639400  0.25000000  1
  Ge  Ge4  1  0.34419800  0.85037600  0.70074500  1
  Ge  Ge5  1  0.14962400  0.65580200  0.20074500  1
  Ge  Ge6  1  0.66666700  0.33333300  0.55415300  1
  Ge  Ge7  1  0.17639400  0.00000000  0.75000000  1
  Ge  Ge8  1  0.65580200  0.50617800  0.79925500  1
  Ge  Ge9  1  0.34419800  0.49382200  0.20074500  1
  Ge  Ge10  1  0.82360600  0.00000000  0.25000000  1
  Ge  Ge11  1  0.00000000  0.00000000  0.50000000  1
  Ge  Ge12  1  0.85037600  0.50617800  0.29925500  1
  Ge  Ge13  1  0.33333300  0.66666700  0.44584700  1
  Ge  Ge14  1  0.00000000  0.82360600  0.25000000  1
  Ge  Ge15  1  0.82360600  0.82360600  0.75000000  1
  Ge  Ge16  1  0.65580200  0.14962400  0.29925500  1
  Ge  Ge17  1  0.50617800  0.85037600  0.20074500  1
  Ge  Ge18  1  0.49382200  0.14962400  0.79925500  1
  Ge  Ge19  1  0.33333300  0.66666700  0.94584700  1
  Ge  Ge20  1  0.49382200  0.34419800  0.29925500  1
  Ge  Ge21  1  0.00000000  0.00000000  0.00000000  1
  Ge  Ge22  1  0.66666700  0.33333300  0.05415300  1
  Ge  Ge23  1  0.14962400  0.49382200  0.70074500  1
  O  O0  1  0.17552600  0.58357000  0.05375900  1
  O  O1  1  0.09612600  0.94112900  0.38016800  1
  O  O2  1  0.94112900  0.84500300  0.61983200  1
  O  O3  1  0.00000000  0.50499700  0.25000000  1
  O  O4  1  0.24863900  0.73731700  0.83054800  1
  O  O5  1  0.26268300  0.51132200  0.83054800  1
  O  O6  1  0.59195600  0.41643000  0.44624100  1
  O  O7  1  0.75136100  0.26268300  0.16945200  1
  O  O8  1  0.84500300  0.94112900  0.88016800  1
  O  O9  1  0.50499700  0.50499700  0.75000000  1
  O  O10  1  0.17552600  0.59195600  0.55375900  1
  O  O11  1  0.90387400  0.84500300  0.11983200  1
  O  O12  1  0.77564900  0.67498400  0.85442000  1
  O  O13  1  0.49500300  0.49500300  0.25000000  1
  O  O14  1  0.41643000  0.82447400  0.55375900  1
  O  O15  1  0.58357000  0.17552600  0.44624100  1
  O  O16  1  0.49500300  0.00000000  0.75000000  1
  O  O17  1  0.05887100  0.15499700  0.38016800  1
  O  O18  1  0.59195600  0.17552600  0.94624100  1
  O  O19  1  0.58357000  0.40804400  0.94624100  1
  O  O20  1  0.82447400  0.40804400  0.44624100  1
  O  O21  1  0.22435100  0.89933500  0.64558000  1
  O  O22  1  0.77564900  0.10066500  0.35442000  1
  O  O23  1  0.00000000  0.49500300  0.75000000  1
  O  O24  1  0.48867800  0.73731700  0.33054800  1
  O  O25  1  0.15499700  0.09612600  0.61983200  1
  O  O26  1  0.67498400  0.77564900  0.64558000  1
  O  O27  1  0.40804400  0.82447400  0.05375900  1
  O  O28  1  0.10066500  0.32501600  0.64558000  1
  O  O29  1  0.75136100  0.48867800  0.66945200  1
  O  O30  1  0.50499700  0.00000000  0.25000000  1
  O  O31  1  0.84500300  0.90387400  0.38016800  1
  O  O32  1  0.94112900  0.09612600  0.11983200  1
  O  O33  1  0.32501600  0.22435100  0.35442000  1
  O  O34  1  0.82447400  0.41643000  0.94624100  1
  O  O35  1  0.51132200  0.24863900  0.16945200  1
  O  O36  1  0.90387400  0.05887100  0.61983200  1
  O  O37  1  0.24863900  0.51132200  0.33054800  1
  O  O38  1  0.15499700  0.05887100  0.11983200  1
  O  O39  1  0.51132200  0.26268300  0.66945200  1
  O  O40  1  0.09612600  0.15499700  0.88016800  1
  O  O41  1  0.05887100  0.90387400  0.88016800  1
  O  O42  1  0.40804400  0.58357000  0.55375900  1
  O  O43  1  0.89933500  0.67498400  0.35442000  1
  O  O44  1  0.48867800  0.75136100  0.83054800  1
  O  O45  1  0.41643000  0.59195600  0.05375900  1
  O  O46  1  0.10066500  0.77564900  0.14558000  1
  O  O47  1  0.67498400  0.89933500  0.14558000  1
  O  O48  1  0.26268300  0.75136100  0.33054800  1
  O  O49  1  0.89933500  0.22435100  0.85442000  1
  O  O50  1  0.73731700  0.48867800  0.16945200  1
  O  O51  1  0.22435100  0.32501600  0.14558000  1
  O  O52  1  0.32501600  0.10066500  0.85442000  1
  O  O53  1  0.73731700  0.24863900  0.66945200  1
loop_
_geom_bond_atom_site_label_1
_geom_bond_atom_site_label_2
_geom_bond_distance
_geom_bond_site_symmetry_2
Na0 O12 2.466340 1_554
Na0 O11 2.471639 1_555
Na0 O13 2.608681 1_555
Na0 O45 2.618618 1_555
Na0 O50 2.635406 1_555
Na0 O47 2.772289 1_555
Na0 O19 2.877873 1_554
Na1 O46 2.466338 1_556
Na1 O41 2.471643 1_555
Na1 O23 2.608677 1_555
Na1 O34 2.618621 1_455
Na1 O4 2.635396 1_555
Na1 O12 2.772300 1_455
Na1 O0 2.877863 1_556
Na2 O28 2.466335 1_555
Na2 O17 2.471632 1_555
Na2 O3 2.608685 1_555
Na2 O20 2.618629 1_455
Na2 O37 2.635398 1_555
Na2 O22 2.772295 1_455
Na2 O10 2.877871 1_555
Na3 O43 2.466335 1_555
Na3 O2 2.471632 1_555
Na3 O23 2.608685 1_655
Na3 O10 2.618629 1_655
Na3 O29 2.635398 1_555
Na3 O21 2.772295 1_655
Na3 O20 2.877871 1_555
Na4 O49 2.466338 1_554
Na4 O32 2.471643 1_555
Na4 O3 2.608677 1_655
Na4 O0 2.618621 1_655
Na4 O7 2.635396 1_555
Na4 O51 2.772300 1_655
Na4 O34 2.877863 1_554
Na5 O33 2.466340 1_555
Na5 O25 2.471639 1_555
Na5 O9 2.608681 1_555
Na5 O42 2.618618 1_555
Na5 O39 2.635406 1_555
Na5 O28 2.772289 1_555
Na5 O6 2.877873 1_555
Na6 O26 2.466340 1_555
Na6 O31 2.471639 1_555
Na6 O13 2.608681 1_555
Na6 O6 2.618618 1_555
Na6 O24 2.635406 1_555
Na6 O43 2.772289 1_555
Na6 O42 2.877873 1_555
Na7 O52 2.466335 1_554
Na7 O38 2.471632 1_555
Na7 O30 2.608685 1_555
Na7 O27 2.618629 1_545
Na7 O35 2.635398 1_555
Na7 O46 2.772295 1_545
Na7 O18 2.877871 1_554
Na8 O47 2.466335 1_556
Na8 O8 2.471632 1_555
Na8 O16 2.608685 1_565
Na8 O18 2.618629 1_565
Na8 O44 2.635398 1_555
Na8 O49 2.772295 1_565
Na8 O27 2.877871 1_556
Na9 O51 2.466340 1_556
Na9 O40 2.471639 1_555
Na9 O9 2.608681 1_555
Na9 O19 2.618618 1_555
Na9 O5 2.635406 1_555
Na9 O52 2.772289 1_555
Na9 O45 2.877873 1_556
Na10 O22 2.466338 1_555
Na10 O36 2.471643 1_555
Na10 O16 2.608677 1_555
Na10 O14 2.618621 1_545
Na10 O53 2.635396 1_555
Na10 O26 2.772300 1_545
Na10 O15 2.877863 1_555
Na11 O21 2.466338 1_555
Na11 O1 2.471643 1_555
Na11 O30 2.608677 1_565
Na11 O15 2.618621 1_565
Na11 O48 2.635396 1_555
Na11 O33 2.772300 1_565
Na11 O14 2.877863 1_555
Ge0 O53 1.758926 1_555
Ge0 O34 1.764332 1_555
Ge0 O23 1.790674 1_655
Ge0 O49 1.809547 1_555
Ge1 O40 1.785474 1_555
Ge1 O36 1.785474 1_455
Ge1 O49 1.824399 1_455
Ge1 O28 1.824399 1_555
Ge2 O44 1.758926 1_555
Ge2 O42 1.764332 1_555
Ge2 O9 1.790674 1_555
Ge2 O26 1.809547 1_555
Ge3 O38 1.785474 1_555
Ge3 O17 1.785474 1_555
Ge3 O33 1.824399 1_555
Ge3 O51 1.824399 1_555
Ge4 O4 1.758926 1_555
Ge4 O14 1.764332 1_555
Ge4 O16 1.790674 1_565
Ge4 O21 1.809547 1_555
Ge5 O48 1.758926 1_555
Ge5 O0 1.764332 1_555
Ge5 O3 1.790674 1_555
Ge5 O46 1.809547 1_555
Ge6 O20 1.894475 1_555
Ge6 O15 1.894475 1_555
Ge6 O6 1.894483 1_555
Ge6 O53 1.917451 1_555
Ge6 O29 1.917459 1_555
Ge6 O39 1.917459 1_555
Ge7 O25 1.785474 1_555
Ge7 O41 1.785474 1_545
Ge7 O21 1.824399 1_545
Ge7 O52 1.824399 1_555
Ge8 O29 1.758926 1_555
Ge8 O19 1.764332 1_555
Ge8 O9 1.790674 1_555
Ge8 O12 1.809547 1_555
Ge9 O37 1.758926 1_555
Ge9 O45 1.764332 1_555
Ge9 O13 1.790674 1_555
Ge9 O51 1.809547 1_555
Ge10 O31 1.785474 1_545
Ge10 O32 1.785474 1_555
Ge10 O22 1.824399 1_555
Ge10 O47 1.824399 1_545
Ge11 O1 1.951497 1_545
Ge11 O36 1.951497 1_455
Ge11 O17 1.951497 1_555
Ge11 O2 1.951497 1_445
Ge11 O31 1.951497 1_445
Ge11 O25 1.951497 1_555
Ge12 O50 1.758926 1_555
Ge12 O20 1.764332 1_555
Ge12 O3 1.790674 1_655
Ge12 O43 1.809547 1_555
Ge13 O10 1.894475 1_555
Ge13 O14 1.894475 1_555
Ge13 O42 1.894483 1_555
Ge13 O48 1.917451 1_555
Ge13 O37 1.917459 1_555
Ge13 O24 1.917459 1_555
Ge14 O11 1.785474 1_455
Ge14 O1 1.785474 1_555
Ge14 O46 1.824399 1_555
Ge14 O43 1.824399 1_455
Ge15 O8 1.785474 1_555
Ge15 O2 1.785474 1_555
Ge15 O26 1.824399 1_555
Ge15 O12 1.824399 1_555
Ge16 O7 1.758926 1_555
Ge16 O15 1.764332 1_555
Ge16 O30 1.790674 1_555
Ge16 O22 1.809547 1_555
Ge17 O24 1.758926 1_555
Ge17 O27 1.764332 1_555
Ge17 O30 1.790674 1_565
Ge17 O47 1.809547 1_555
Ge18 O39 1.758926 1_555
Ge18 O18 1.764332 1_555
Ge18 O16 1.790674 1_555
Ge18 O52 1.809547 1_555
Ge19 O27 1.894475 1_556
Ge19 O0 1.894475 1_556
Ge19 O45 1.894483 1_556
Ge19 O4 1.917451 1_555
Ge19 O44 1.917459 1_555
Ge19 O5 1.917459 1_555
Ge20 O35 1.758926 1_555
Ge20 O6 1.764332 1_555
Ge20 O13 1.790674 1_555
Ge20 O33 1.809547 1_555
Ge21 O32 1.951497 1_455
Ge21 O41 1.951497 1_544
Ge21 O38 1.951497 1_555
Ge21 O8 1.951497 1_444
Ge21 O11 1.951497 1_445
Ge21 O40 1.951497 1_554
Ge22 O18 1.894475 1_554
Ge22 O34 1.894475 1_554
Ge22 O19 1.894483 1_554
Ge22 O7 1.917451 1_555
Ge22 O35 1.917459 1_555
Ge22 O50 1.917459 1_555
Ge23 O5 1.758926 1_555
Ge23 O10 1.764332 1_555
Ge23 O23 1.790674 1_555
Ge23 O28 1.809547 1_555
