# generated using pymatgen
data_K4Sn9
_symmetry_space_group_name_H-M   'P 1'
_cell_length_a   8.46889000
_cell_length_b   14.46634000
_cell_length_c   16.72447316
_cell_angle_alpha   84.88814153
_cell_angle_beta   90.00000000
_cell_angle_gamma   90.00000000
_symmetry_Int_Tables_number   1
_chemical_formula_structural   K4Sn9
_chemical_formula_sum   'K16 Sn36'
_cell_volume   2040.82994711
_cell_formula_units_Z   4
loop_
 _symmetry_equiv_pos_site_id
 _symmetry_equiv_pos_as_xyz
  1  'x, y, z'
loop_
 _atom_site_type_symbol
 _atom_site_label
 _atom_site_symmetry_multiplicity
 _atom_site_fract_x
 _atom_site_fract_y
 _atom_site_fract_z
 _atom_site_occupancy
  K  K0  1  0.97000200  0.61200800  0.35718700  1
  K  K1  1  0.56067400  0.50894700  0.61569300  1
  K  K2  1  0.52999800  0.61200800  0.85718700  1
  K  K3  1  0.43932600  0.49105300  0.38430700  1
  K  K4  1  0.42942400  0.07533900  0.23814000  1
  K  K5  1  0.57057600  0.92466100  0.76186000  1
  K  K6  1  0.47000200  0.38799200  0.14281300  1
  K  K7  1  0.56497300  0.83725800  0.44730200  1
  K  K8  1  0.93502700  0.83725800  0.94730200  1
  K  K9  1  0.07057600  0.07533900  0.73814000  1
  K  K10  1  0.43502700  0.16274200  0.55269800  1
  K  K11  1  0.06067400  0.49105300  0.88430700  1
  K  K12  1  0.02999800  0.38799200  0.64281300  1
  K  K13  1  0.06497300  0.16274200  0.05269800  1
  K  K14  1  0.92942400  0.92466100  0.26186000  1
  K  K15  1  0.93932600  0.50894700  0.11569300  1
  Sn  Sn0  1  0.75645300  0.07427700  0.40791200  1
  Sn  Sn1  1  0.82489000  0.18152700  0.24716700  1
  Sn  Sn2  1  0.10977000  0.32804100  0.43146500  1
  Sn  Sn3  1  0.92608700  0.25258200  0.85672100  1
  Sn  Sn4  1  0.25645300  0.92572300  0.09208800  1
  Sn  Sn5  1  0.39023000  0.32804100  0.93146500  1
  Sn  Sn6  1  0.62096000  0.70753500  0.24122700  1
  Sn  Sn7  1  0.23380100  0.64474900  0.52565900  1
  Sn  Sn8  1  0.57391300  0.25258200  0.35672100  1
  Sn  Sn9  1  0.37904000  0.29246500  0.75877300  1
  Sn  Sn10  1  0.60977000  0.67195900  0.06853500  1
  Sn  Sn11  1  0.76619900  0.35525100  0.47434100  1
  Sn  Sn12  1  0.93074200  0.17444500  0.53107700  1
  Sn  Sn13  1  0.74354700  0.07427700  0.90791200  1
  Sn  Sn14  1  0.32016600  0.60992800  0.20184400  1
  Sn  Sn15  1  0.06925800  0.82555500  0.46892300  1
  Sn  Sn16  1  0.42608700  0.74741800  0.64327900  1
  Sn  Sn17  1  0.24354700  0.92572300  0.59208800  1
  Sn  Sn18  1  0.17511000  0.81847300  0.75283300  1
  Sn  Sn19  1  0.87904000  0.70753500  0.74122700  1
  Sn  Sn20  1  0.10161300  0.12255500  0.37969600  1
  Sn  Sn21  1  0.56925800  0.17444500  0.03107700  1
  Sn  Sn22  1  0.32489000  0.81847300  0.25283300  1
  Sn  Sn23  1  0.67983400  0.39007200  0.79815600  1
  Sn  Sn24  1  0.26619900  0.64474900  0.02565900  1
  Sn  Sn25  1  0.39838700  0.12255500  0.87969600  1
  Sn  Sn26  1  0.43074200  0.82555500  0.96892300  1
  Sn  Sn27  1  0.17983400  0.60992800  0.70184400  1
  Sn  Sn28  1  0.73380100  0.35525100  0.97434100  1
  Sn  Sn29  1  0.12096000  0.29246500  0.25877300  1
  Sn  Sn30  1  0.89023000  0.67195900  0.56853500  1
  Sn  Sn31  1  0.67511000  0.18152700  0.74716700  1
  Sn  Sn32  1  0.82016600  0.39007200  0.29815600  1
  Sn  Sn33  1  0.60161300  0.87744500  0.12030400  1
  Sn  Sn34  1  0.89838700  0.87744500  0.62030400  1
  Sn  Sn35  1  0.07391300  0.74741800  0.14327900  1
loop_
_geom_bond_atom_site_label_1
_geom_bond_atom_site_label_2
_geom_bond_distance
_geom_bond_site_symmetry_2
K0 Sn7 3.659534 1_655
K0 Sn32 3.668476 1_555
K0 Sn6 3.732454 1_555
K0 Sn30 3.774764 1_555
K0 Sn15 3.843292 1_655
K0 Sn14 3.944463 1_655
K0 Sn35 4.020117 1_655
K1 Sn23 3.514655 1_555
K1 Sn7 3.641827 1_555
K1 Sn30 3.693397 1_555
K1 Sn16 3.700914 1_555
K1 Sn11 3.807691 1_555
K1 Sn27 3.871381 1_555
K1 Sn9 4.069945 1_555
K2 Sn24 3.659534 1_556
K2 Sn23 3.668476 1_555
K2 Sn19 3.732454 1_555
K2 Sn10 3.774764 1_556
K2 Sn26 3.843292 1_555
K2 Sn27 3.944463 1_555
K2 Sn16 4.020117 1_555
K3 Sn14 3.514655 1_555
K3 Sn11 3.641827 1_555
K3 Sn2 3.693397 1_555
K3 Sn8 3.700914 1_555
K3 Sn7 3.807691 1_555
K3 Sn32 3.871381 1_555
K3 Sn6 4.069945 1_555
K4 Sn8 3.593188 1_555
K4 Sn1 3.693337 1_555
K4 Sn4 3.706627 1_545
K4 Sn20 3.750572 1_555
K4 Sn22 3.806493 1_545
K4 Sn21 3.816500 1_555
K4 Sn33 3.900173 1_545
K4 Sn0 3.965462 1_555
K4 Sn29 4.123419 1_555
K5 Sn16 3.593188 1_555
K5 Sn18 3.693337 1_555
K5 Sn13 3.706627 1_565
K5 Sn34 3.750572 1_555
K5 Sn31 3.806493 1_565
K5 Sn26 3.816500 1_555
K5 Sn25 3.900173 1_565
K5 Sn17 3.965462 1_555
K5 Sn19 4.123419 1_555
K6 Sn28 3.659534 1_554
K6 Sn14 3.668476 1_555
K6 Sn29 3.732454 1_555
K6 Sn5 3.774764 1_554
K6 Sn21 3.843292 1_555
K6 Sn32 3.944463 1_555
K6 Sn8 4.020117 1_555
K7 Sn16 3.613340 1_555
K7 Sn0 3.797075 1_565
K7 Sn22 3.865676 1_555
K7 Sn17 3.932364 1_555
K7 Sn30 4.068514 1_555
K7 Sn7 4.085191 1_555
K7 Sn6 4.096022 1_555
K7 Sn34 4.120956 1_555
K8 Sn35 3.613340 1_656
K8 Sn13 3.797075 1_565
K8 Sn18 3.865676 1_655
K8 Sn4 3.932364 1_656
K8 Sn10 4.068514 1_556
K8 Sn24 4.085191 1_656
K8 Sn19 4.096022 1_555
K8 Sn33 4.120956 1_556
K9 Sn3 3.593188 1_455
K9 Sn31 3.693337 1_455
K9 Sn17 3.706627 1_545
K9 Sn25 3.750572 1_555
K9 Sn18 3.806493 1_545
K9 Sn12 3.816500 1_455
K9 Sn34 3.900173 1_445
K9 Sn13 3.965462 1_455
K9 Sn9 4.123419 1_555
K10 Sn8 3.613340 1_555
K10 Sn17 3.797075 1_545
K10 Sn31 3.865676 1_555
K10 Sn0 3.932364 1_555
K10 Sn2 4.068514 1_555
K10 Sn11 4.085191 1_555
K10 Sn9 4.096022 1_555
K10 Sn20 4.120956 1_555
K11 Sn27 3.514655 1_555
K11 Sn28 3.641827 1_455
K11 Sn5 3.693397 1_555
K11 Sn3 3.700914 1_455
K11 Sn24 3.807691 1_556
K11 Sn23 3.871381 1_455
K11 Sn19 4.069945 1_455
K12 Sn11 3.659534 1_455
K12 Sn27 3.668476 1_555
K12 Sn9 3.732454 1_555
K12 Sn2 3.774764 1_555
K12 Sn12 3.843292 1_455
K12 Sn23 3.944463 1_455
K12 Sn3 4.020117 1_455
K13 Sn3 3.613340 1_454
K13 Sn4 3.797075 1_545
K13 Sn1 3.865676 1_455
K13 Sn13 3.932364 1_454
K13 Sn5 4.068514 1_554
K13 Sn28 4.085191 1_454
K13 Sn29 4.096022 1_555
K13 Sn25 4.120956 1_554
K14 Sn35 3.593188 1_655
K14 Sn22 3.693337 1_655
K14 Sn0 3.706627 1_565
K14 Sn33 3.750572 1_555
K14 Sn1 3.806493 1_565
K14 Sn15 3.816500 1_655
K14 Sn20 3.900173 1_665
K14 Sn4 3.965462 1_655
K14 Sn6 4.123419 1_555
K15 Sn32 3.514655 1_555
K15 Sn24 3.641827 1_655
K15 Sn10 3.693397 1_555
K15 Sn35 3.700914 1_655
K15 Sn28 3.807691 1_554
K15 Sn14 3.871381 1_655
K15 Sn29 4.069945 1_655
Sn0 Sn12 3.008893 1_555
Sn0 Sn20 3.032552 1_655
Sn0 Sn1 3.037630 1_555
Sn0 Sn8 3.063120 1_555
Sn1 Sn29 2.992618 1_655
Sn1 Sn8 3.044178 1_555
Sn1 Sn32 3.207623 1_555
Sn1 Sn20 3.285692 1_655
Sn2 Sn29 2.979988 1_555
Sn2 Sn20 3.170106 1_555
Sn2 Sn32 3.381549 1_455
Sn3 Sn31 3.044178 1_555
Sn5 Sn9 2.979988 1_555
Sn10 Sn6 2.979988 1_555
Sn10 Sn24 3.030775 1_555
Sn10 Sn26 3.058054 1_554
Sn10 Sn33 3.170106 1_555
Sn10 Sn14 3.381549 1_555
Sn11 Sn32 2.980032 1_555
Sn11 Sn2 3.030775 1_655
Sn11 Sn12 3.039951 1_555
Sn11 Sn8 3.041061 1_555
Sn12 Sn2 3.058054 1_655
Sn12 Sn20 3.066931 1_655
Sn13 Sn21 3.008893 1_556
Sn13 Sn25 3.032552 1_555
Sn13 Sn31 3.037630 1_555
Sn13 Sn3 3.063120 1_555
Sn14 Sn24 2.980032 1_555
Sn14 Sn35 2.986218 1_555
Sn14 Sn6 3.013728 1_555
Sn14 Sn22 3.207623 1_555
Sn15 Sn17 3.008893 1_555
Sn15 Sn7 3.039951 1_555
Sn15 Sn30 3.058054 1_455
Sn15 Sn34 3.066931 1_455
Sn16 Sn27 2.986218 1_555
Sn16 Sn7 3.041061 1_555
Sn16 Sn18 3.044178 1_555
Sn16 Sn17 3.063120 1_555
Sn17 Sn34 3.032552 1_455
Sn17 Sn18 3.037630 1_555
Sn18 Sn19 2.992618 1_455
Sn18 Sn27 3.207623 1_555
Sn18 Sn34 3.285692 1_455
Sn19 Sn30 2.979988 1_555
Sn19 Sn27 3.013728 1_655
Sn19 Sn34 3.045104 1_555
Sn20 Sn29 3.045104 1_555
Sn21 Sn28 3.039951 1_554
Sn21 Sn5 3.058054 1_554
Sn21 Sn25 3.066931 1_554
Sn22 Sn6 2.992618 1_555
Sn22 Sn4 3.037630 1_555
Sn22 Sn35 3.044178 1_555
Sn22 Sn33 3.285692 1_555
Sn23 Sn28 2.980032 1_555
Sn23 Sn3 2.986218 1_555
Sn23 Sn9 3.013728 1_555
Sn23 Sn31 3.207623 1_555
Sn23 Sn5 3.381549 1_555
Sn24 Sn26 3.039951 1_554
Sn24 Sn35 3.041061 1_555
Sn25 Sn9 3.045104 1_555
Sn25 Sn5 3.170106 1_555
Sn25 Sn31 3.285692 1_555
Sn26 Sn4 3.008893 1_556
Sn26 Sn33 3.066931 1_556
Sn27 Sn7 2.980032 1_555
Sn27 Sn30 3.381549 1_455
Sn28 Sn5 3.030775 1_555
Sn28 Sn3 3.041061 1_555
Sn29 Sn32 3.013728 1_455
Sn30 Sn7 3.030775 1_655
Sn30 Sn34 3.170106 1_555
Sn31 Sn9 2.992618 1_555
Sn32 Sn8 2.986218 1_555
Sn33 Sn4 3.032552 1_555
Sn33 Sn6 3.045104 1_555
Sn35 Sn4 3.063120 1_555
