# generated using pymatgen
data_Ba4Na2CaTi3Si4(SO13)2
_symmetry_space_group_name_H-M   'P 1'
_cell_length_a   5.49723400
_cell_length_b   7.21002449
_cell_length_c   15.00263077
_cell_angle_alpha   98.82547133
_cell_angle_beta   94.76206788
_cell_angle_gamma   89.97888566
_symmetry_Int_Tables_number   1
_chemical_formula_structural   Ba4Na2CaTi3Si4(SO13)2
_chemical_formula_sum   'Ba4 Na2 Ca1 Ti3 Si4 S2 O26'
_cell_volume   585.51733076
_cell_formula_units_Z   1
loop_
 _symmetry_equiv_pos_site_id
 _symmetry_equiv_pos_as_xyz
  1  'x, y, z'
loop_
 _atom_site_type_symbol
 _atom_site_label
 _atom_site_symmetry_multiplicity
 _atom_site_fract_x
 _atom_site_fract_y
 _atom_site_fract_z
 _atom_site_occupancy
  Ba  Ba0  1  0.41617900  0.16946800  0.61747300  1
  Ba  Ba1  1  0.93229400  0.70678700  0.70495500  1
  Ba  Ba2  1  0.00260600  0.99440100  0.01815000  1
  Ba  Ba3  1  0.48247900  0.45745200  0.93040200  1
  Na  Na0  1  0.70911200  0.57852200  0.31815200  1
  Na  Na1  1  0.20821700  0.31574200  0.31808600  1
  Ca  Ca0  1  0.21060500  0.85742500  0.31763000  1
  Ti  Ti0  1  0.39108200  0.64404800  0.51926800  1
  Ti  Ti1  1  0.71024900  0.09531600  0.31829900  1
  Ti  Ti2  1  0.02679000  0.52037800  0.11631800  1
  Si  Si0  1  0.53129200  0.80434600  0.12661300  1
  Si  Si1  1  0.88730800  0.35832000  0.50824100  1
  Si  Si2  1  0.53129800  0.24044100  0.12939400  1
  Si  Si3  1  0.88746500  0.92305900  0.50735500  1
  S  S0  1  0.95007600  0.28322800  0.79344700  1
  S  S1  1  0.46140400  0.88131100  0.84130500  1
  O  O0  1  0.90030900  0.15371900  0.54909100  1
  O  O1  1  0.93671000  0.08355500  0.75360900  1
  O  O2  1  0.46842500  0.08165200  0.88000300  1
  O  O3  1  0.14386500  0.46730200  0.55394900  1
  O  O4  1  0.04880800  0.56232100  0.23065600  1
  O  O5  1  0.76382000  0.69542400  0.07890100  1
  O  O6  1  0.27517500  0.32150400  0.08445100  1
  O  O7  1  0.14447200  0.84316200  0.55302000  1
  O  O8  1  0.65599200  0.84153400  0.55395500  1
  O  O9  1  0.86996200  0.32371700  0.39910000  1
  O  O10  1  0.97403400  0.30993200  0.89496000  1
  O  O11  1  0.72298900  0.38078400  0.76321000  1
  O  O12  1  0.76380700  0.32177800  0.08326800  1
  O  O13  1  0.24769400  0.78601800  0.87245100  1
  O  O14  1  0.45263900  0.09399500  0.39032500  1
  O  O15  1  0.87344900  0.88942000  0.39861000  1
  O  O16  1  0.69035700  0.78776100  0.87257900  1
  O  O17  1  0.43824800  0.85235500  0.73978200  1
  O  O18  1  0.36832500  0.61237400  0.40491000  1
  O  O19  1  0.54932600  0.27301600  0.23845100  1
  O  O20  1  0.27329000  0.69648100  0.08015000  1
  O  O21  1  0.96771700  0.04997500  0.24609500  1
  O  O22  1  0.54593600  0.83730700  0.23542300  1
  O  O23  1  0.16537100  0.37634200  0.76234500  1
  O  O24  1  0.65307300  0.46687200  0.55478300  1
  O  O25  1  0.51855000  0.01035400  0.08673000  1
loop_
_geom_bond_atom_site_label_1
_geom_bond_atom_site_label_2
_geom_bond_distance
_geom_bond_site_symmetry_2
Ba0 O8 2.784131 1_545
Ba0 O7 2.786712 1_545
Ba0 O24 2.828902 1_555
Ba0 O3 2.854682 1_555
Ba0 O11 2.883385 1_555
Ba0 O23 2.889797 1_555
Ba0 O0 2.926717 1_555
Ba0 O0 2.930685 1_455
Ba0 O17 3.139997 1_545
Ba0 O14 3.390252 1_555
Ba1 O1 2.702122 1_565
Ba1 O11 2.900316 1_555
Ba1 O13 2.912714 1_655
Ba1 O8 2.913054 1_555
Ba1 O23 2.916063 1_655
Ba1 O16 2.922016 1_555
Ba1 O7 2.941613 1_655
Ba1 O24 2.942117 1_555
Ba1 O3 2.949961 1_655
Ba1 O17 2.950091 1_655
Ba1 O17 2.969147 1_555
Ba2 O12 2.784281 1_465
Ba2 O6 2.798569 1_565
Ba2 O5 2.829156 1_455
Ba2 O20 2.841524 1_555
Ba2 O16 2.883883 1_454
Ba2 O13 2.886234 1_554
Ba2 O25 2.927562 1_465
Ba2 O25 2.931830 1_565
Ba2 O10 3.139696 1_464
Ba2 O21 3.403024 1_465
Ba3 O2 2.698337 1_555
Ba3 O11 2.910313 1_555
Ba3 O13 2.911555 1_555
Ba3 O16 2.920736 1_555
Ba3 O5 2.925101 1_556
Ba3 O23 2.925115 1_555
Ba3 O20 2.929033 1_556
Ba3 O12 2.950708 1_556
Ba3 O6 2.955346 1_556
Ba3 O10 2.962900 1_555
Ba3 O10 2.967856 1_455
Na0 O18 2.360158 1_555
Na0 O4 2.362980 1_655
Na0 O19 2.464157 1_555
Na0 O9 2.477287 1_555
Na0 O15 2.507595 1_555
Na0 O22 2.520118 1_555
Na1 O9 2.300413 1_455
Na1 O19 2.301545 1_555
Na1 O21 2.390800 1_455
Na1 O14 2.413388 1_555
Na1 O18 2.449842 1_555
Na1 O4 2.484493 1_555
Ca0 O14 2.249217 1_565
Ca0 O21 2.253846 1_465
Ca0 O15 2.291718 1_455
Ca0 O22 2.294038 1_555
Ca0 O4 2.444918 1_555
Ca0 O18 2.471493 1_555
O0 Si1 1.681344 1_555
O0 Si3 1.684056 1_545
O1 S0 1.471040 1_555
O2 S1 1.471061 1_545
O3 Si1 1.658812 1_455
O3 Ti0 2.015865 1_555
O4 Ti2 1.689667 1_555
O5 Si0 1.655826 1_555
O5 Ti2 2.019672 1_655
O6 Si2 1.655687 1_555
O6 Ti2 2.011365 1_555
O7 Si3 1.660443 1_455
O7 Ti0 2.011152 1_555
O8 Si3 1.651603 1_555
O8 Ti0 2.016755 1_555
O9 Si1 1.612812 1_555
O9 Ti1 2.040592 1_555
O10 S0 1.500189 1_555
O11 S0 1.504043 1_555
O12 Si2 1.651792 1_555
O12 Ti2 2.012674 1_655
O13 S1 1.503610 1_555
O14 Ti1 1.852147 1_555
O15 Si3 1.607529 1_555
O15 Ti1 2.197448 1_565
O16 S1 1.502537 1_555
O17 S1 1.499972 1_555
O18 Ti0 1.689819 1_555
O19 Si2 1.611559 1_555
O19 Ti1 2.037966 1_555
O20 Si0 1.665117 1_555
O20 Ti2 2.019296 1_555
O21 Ti1 1.851786 1_555
O22 Si0 1.608403 1_555
O22 Ti1 2.219775 1_565
O23 S0 1.502525 1_455
O24 Si1 1.654991 1_555
O24 Ti0 2.017448 1_555
O25 Si2 1.683293 1_555
O25 Si0 1.683683 1_545
