# generated using pymatgen
data_Fe3B7IO13
_symmetry_space_group_name_H-M   'P 1'
_cell_length_a   8.72679935
_cell_length_b   8.72679935
_cell_length_c   8.72679935
_cell_angle_alpha   60.00000000
_cell_angle_beta   60.00000000
_cell_angle_gamma   60.00000000
_symmetry_Int_Tables_number   1
_chemical_formula_structural   Fe3B7IO13
_chemical_formula_sum   'Fe6 B14 I2 O26'
_cell_volume   469.94818250
_cell_formula_units_Z   2
loop_
 _symmetry_equiv_pos_site_id
 _symmetry_equiv_pos_as_xyz
  1  'x, y, z'
loop_
 _atom_site_type_symbol
 _atom_site_label
 _atom_site_symmetry_multiplicity
 _atom_site_fract_x
 _atom_site_fract_y
 _atom_site_fract_z
 _atom_site_occupancy
  Fe  Fe0  1  0.50000000  0.00000000  0.00000000  1
  Fe  Fe1  1  0.00000000  0.00000000  0.50000000  1
  Fe  Fe2  1  0.50000000  0.00000000  0.50000000  1
  Fe  Fe3  1  0.00000000  0.50000000  0.50000000  1
  Fe  Fe4  1  0.00000000  0.50000000  0.00000000  1
  Fe  Fe5  1  0.50000000  0.50000000  0.00000000  1
  B  B0  1  0.25000000  0.25000000  0.75000000  1
  B  B1  1  0.75000000  0.25000000  0.75000000  1
  B  B2  1  0.75000000  0.25000000  0.25000000  1
  B  B3  1  0.25000000  0.75000000  0.25000000  1
  B  B4  1  0.25000000  0.75000000  0.75000000  1
  B  B5  1  0.75000000  0.75000000  0.25000000  1
  B  B6  1  0.57965100  0.26104800  0.57965100  1
  B  B7  1  0.26104800  0.57965100  0.57965100  1
  B  B8  1  0.57965100  0.57965100  0.26104800  1
  B  B9  1  0.57965100  0.57965100  0.57965100  1
  B  B10  1  0.07965100  0.07965100  0.76104800  1
  B  B11  1  0.76104800  0.07965100  0.07965100  1
  B  B12  1  0.07965100  0.76104800  0.07965100  1
  B  B13  1  0.07965100  0.07965100  0.07965100  1
  I  I0  1  0.75000000  0.75000000  0.75000000  1
  I  I1  1  0.25000000  0.25000000  0.25000000  1
  O  O0  1  0.50000000  0.50000000  0.50000000  1
  O  O1  1  0.00000000  0.00000000  0.00000000  1
  O  O2  1  0.75343000  0.20360600  0.43637000  1
  O  O3  1  0.43637000  0.20360600  0.60659400  1
  O  O4  1  0.60659400  0.20360600  0.75343000  1
  O  O5  1  0.20360600  0.75343000  0.60659400  1
  O  O6  1  0.20360600  0.43637000  0.75343000  1
  O  O7  1  0.20360600  0.60659400  0.43637000  1
  O  O8  1  0.60659400  0.43637000  0.20360600  1
  O  O9  1  0.75343000  0.60659400  0.20360600  1
  O  O10  1  0.43637000  0.75343000  0.20360600  1
  O  O11  1  0.43637000  0.60659400  0.75343000  1
  O  O12  1  0.60659400  0.75343000  0.43637000  1
  O  O13  1  0.75343000  0.43637000  0.60659400  1
  O  O14  1  0.25343000  0.93637000  0.70360600  1
  O  O15  1  0.93637000  0.10659400  0.70360600  1
  O  O16  1  0.10659400  0.25343000  0.70360600  1
  O  O17  1  0.70360600  0.10659400  0.25343000  1
  O  O18  1  0.70360600  0.25343000  0.93637000  1
  O  O19  1  0.70360600  0.93637000  0.10659400  1
  O  O20  1  0.10659400  0.70360600  0.93637000  1
  O  O21  1  0.25343000  0.70360600  0.10659400  1
  O  O22  1  0.93637000  0.70360600  0.25343000  1
  O  O23  1  0.93637000  0.25343000  0.10659400  1
  O  O24  1  0.10659400  0.93637000  0.25343000  1
  O  O25  1  0.25343000  0.10659400  0.93637000  1
loop_
_geom_bond_atom_site_label_1
_geom_bond_atom_site_label_2
_geom_bond_distance
_geom_bond_site_symmetry_2
Fe0 O4 2.116705 1_554
Fe0 O10 2.116705 1_545
Fe0 O19 2.116705 1_545
Fe0 O25 2.116705 1_554
Fe0 I1 3.085389 1_555
Fe0 I0 3.085389 1_544
Fe1 O5 2.116705 1_545
Fe1 O2 2.116705 1_455
Fe1 O24 2.116705 1_545
Fe1 O15 2.116705 1_455
Fe1 I1 3.085389 1_555
Fe1 I0 3.085389 1_445
Fe2 O3 2.116705 1_555
Fe2 O12 2.116705 1_545
Fe2 O17 2.116705 1_555
Fe2 O14 2.116705 1_545
Fe2 I0 3.085389 1_545
Fe2 I1 3.085389 1_555
Fe3 O7 2.116705 1_555
Fe3 O22 2.116705 1_455
Fe3 O13 2.116705 1_455
Fe3 O16 2.116705 1_555
Fe3 I0 3.085389 1_455
Fe3 I1 3.085389 1_555
Fe4 O9 2.116705 1_455
Fe4 O6 2.116705 1_554
Fe4 O23 2.116705 1_455
Fe4 O20 2.116705 1_554
Fe4 I0 3.085389 1_454
Fe4 I1 3.085389 1_555
Fe5 O8 2.116705 1_555
Fe5 O21 2.116705 1_555
Fe5 O18 2.116705 1_554
Fe5 O11 2.116705 1_554
Fe5 I0 3.085389 1_554
Fe5 I1 3.085389 1_555
B0 O6 1.479228 1_555
B0 O16 1.479228 1_555
B0 O25 1.479228 1_555
B0 O3 1.479228 1_555
B1 O15 1.479228 1_555
B1 O18 1.479228 1_555
B1 O13 1.479228 1_555
B1 O4 1.479228 1_555
B2 O2 1.479228 1_555
B2 O17 1.479228 1_555
B2 O23 1.479228 1_555
B2 O8 1.479228 1_555
B3 O10 1.479228 1_555
B3 O21 1.479228 1_555
B3 O24 1.479228 1_555
B3 O7 1.479228 1_555
B4 O20 1.479228 1_555
B4 O14 1.479228 1_555
B4 O11 1.479228 1_555
B4 O5 1.479228 1_555
B5 O22 1.479228 1_555
B5 O19 1.479228 1_555
B5 O12 1.479228 1_555
B5 O9 1.479228 1_555
B6 O4 1.443933 1_555
B6 O2 1.443938 1_555
B6 O3 1.443942 1_555
B6 O0 1.702629 1_555
B7 O5 1.443933 1_555
B7 O6 1.443938 1_555
B7 O7 1.443942 1_555
B7 O0 1.702629 1_555
B8 O9 1.443933 1_555
B8 O10 1.443938 1_555
B8 O8 1.443942 1_555
B8 O0 1.702629 1_555
B9 O11 1.443936 1_555
B9 O13 1.443936 1_555
B9 O12 1.443936 1_555
B9 O0 1.702636 1_555
B10 O16 1.443933 1_555
B10 O14 1.443938 1_545
B10 O15 1.443942 1_455
B10 O1 1.702629 1_556
B11 O17 1.443933 1_555
B11 O18 1.443938 1_554
B11 O19 1.443942 1_545
B11 O1 1.702629 1_655
B12 O21 1.443933 1_555
B12 O22 1.443938 1_455
B12 O20 1.443942 1_554
B12 O1 1.702629 1_565
B13 O25 1.443936 1_554
B13 O24 1.443936 1_545
B13 O23 1.443936 1_455
B13 O1 1.702636 1_555
