# generated using pymatgen
data_TaSn2
_symmetry_space_group_name_H-M   'P 1'
_cell_length_a   5.68100471
_cell_length_b   5.68021525
_cell_length_c   10.02590280
_cell_angle_alpha   81.85504136
_cell_angle_beta   73.54174447
_cell_angle_gamma   59.99538522
_symmetry_Int_Tables_number   1
_chemical_formula_structural   TaSn2
_chemical_formula_sum   'Ta4 Sn8'
_cell_volume   268.69181239
_cell_formula_units_Z   4
loop_
 _symmetry_equiv_pos_site_id
 _symmetry_equiv_pos_as_xyz
  1  'x, y, z'
loop_
 _atom_site_type_symbol
 _atom_site_label
 _atom_site_symmetry_multiplicity
 _atom_site_fract_x
 _atom_site_fract_y
 _atom_site_fract_z
 _atom_site_occupancy
  Ta  Ta0  1  0.25211911  0.75000000  0.49576078  1
  Ta  Ta1  1  0.00211911  0.25000000  0.99576078  1
  Ta  Ta2  1  0.74788089  0.25000000  0.50423922  1
  Ta  Ta3  1  0.99788089  0.75000000  0.00423922  1
  Sn  Sn0  1  0.70686919  0.58625862  0.25000000  1
  Sn  Sn1  1  0.95686919  0.08625862  0.75000000  1
  Sn  Sn2  1  0.29365011  0.25000000  0.41270078  1
  Sn  Sn3  1  0.04312981  0.91374138  0.25000000  1
  Sn  Sn4  1  0.54365011  0.75000000  0.91270078  1
  Sn  Sn5  1  0.45634989  0.25000000  0.08729922  1
  Sn  Sn6  1  0.29313081  0.41374138  0.75000000  1
  Sn  Sn7  1  0.70634989  0.75000000  0.58729922  1
loop_
_geom_bond_atom_site_label_1
_geom_bond_atom_site_label_2
_geom_bond_distance
_geom_bond_site_symmetry_2
Ta0 Ta2 2.841274 1_465
Ta0 Ta2 2.841279 1_555
Ta1 Ta3 2.841275 1_446
Ta1 Ta3 2.841280 1_456
Sn0 Ta0 2.872224 1_555
Sn0 Ta3 2.872233 1_555
Sn0 Ta1 2.951549 1_654
Sn0 Ta2 2.951549 1_555
Sn0 Sn3 3.265475 1_555
Sn0 Sn3 3.265496 1_655
Sn0 Sn3 3.308100 1_645
Sn1 Ta2 2.872222 1_555
Sn1 Ta1 2.872231 1_655
Sn1 Ta0 2.951549 1_645
Sn1 Ta3 2.951549 1_546
Sn1 Sn6 3.265470 1_555
Sn1 Sn6 3.265500 1_655
Sn1 Sn6 3.308100 1_645
Sn2 Ta0 2.950255 1_555
Sn2 Ta0 2.950261 1_545
Sn2 Ta2 2.973738 1_455
Sn2 Ta2 2.973739 1_555
Sn2 Sn5 3.128770 1_555
Sn2 Sn7 3.299167 1_545
Sn2 Sn7 3.299171 1_455
Sn3 Ta0 2.872225 1_555
Sn3 Ta3 2.872228 1_455
Sn3 Ta2 2.951549 1_465
Sn3 Ta1 2.951549 1_564
Sn4 Ta1 2.950255 1_655
Sn4 Ta1 2.950260 1_565
Sn4 Ta3 2.973738 1_456
Sn4 Ta3 2.973739 1_556
Sn4 Sn7 3.128770 1_555
Sn4 Sn5 3.299168 1_566
Sn4 Sn5 3.299172 1_556
Sn5 Ta3 2.950255 1_455
Sn5 Ta3 2.950260 1_545
Sn5 Ta1 2.973738 1_654
Sn5 Ta1 2.973739 1_554
Sn6 Ta2 2.872224 1_555
Sn6 Ta1 2.872233 1_555
Sn6 Ta3 2.951549 1_456
Sn6 Ta0 2.951549 1_555
Sn7 Ta2 2.950255 1_555
Sn7 Ta2 2.950261 1_565
Sn7 Ta0 2.973738 1_655
Sn7 Ta0 2.973739 1_555
