# generated using pymatgen
data_K3In2As3
_symmetry_space_group_name_H-M   'P 1'
_cell_length_a   10.51184083
_cell_length_b   10.51184083
_cell_length_c   14.88376899
_cell_angle_alpha   90.00000000
_cell_angle_beta   90.00000000
_cell_angle_gamma   142.13376966
_symmetry_Int_Tables_number   1
_chemical_formula_structural   K3In2As3
_chemical_formula_sum   'K12 In8 As12'
_cell_volume   1009.51207486
_cell_formula_units_Z   4
loop_
 _symmetry_equiv_pos_site_id
 _symmetry_equiv_pos_as_xyz
  1  'x, y, z'
loop_
 _atom_site_type_symbol
 _atom_site_label
 _atom_site_symmetry_multiplicity
 _atom_site_fract_x
 _atom_site_fract_y
 _atom_site_fract_z
 _atom_site_occupancy
  K  K0  1  0.61348930  0.92862493  0.67558627  1
  K  K1  1  0.57137507  0.88651070  0.17558627  1
  K  K2  1  0.07137507  0.38651070  0.32441373  1
  K  K3  1  0.11348930  0.42862493  0.82441373  1
  K  K4  1  0.65184740  0.65184740  0.86212953  1
  K  K5  1  0.42862493  0.11348930  0.82441373  1
  K  K6  1  0.34815260  0.34815260  0.13787047  1
  K  K7  1  0.92862493  0.61348930  0.67558627  1
  K  K8  1  0.15184740  0.15184740  0.63787047  1
  K  K9  1  0.88651070  0.57137507  0.17558627  1
  K  K10  1  0.84815260  0.84815260  0.36212953  1
  K  K11  1  0.38651070  0.07137507  0.32441373  1
  In  In0  1  0.23897335  0.76102665  0.50000000  1
  In  In1  1  0.26102665  0.73897335  -0.00000000  1
  In  In2  1  0.73897335  0.26102665  -0.00000000  1
  In  In3  1  0.91664567  0.08335433  -0.00000000  1
  In  In4  1  0.76102665  0.23897335  0.50000000  1
  In  In5  1  0.08335433  0.91664567  -0.00000000  1
  In  In6  1  0.41664567  0.58335433  0.50000000  1
  In  In7  1  0.58335433  0.41664567  0.50000000  1
  As  As0  1  0.05123538  0.40000121  0.09770738  1
  As  As1  1  0.66186053  0.66186053  0.61842410  1
  As  As2  1  0.40000121  0.05123538  0.09770738  1
  As  As3  1  0.59999879  0.94876462  0.90229262  1
  As  As4  1  0.94876462  0.59999879  0.90229262  1
  As  As5  1  0.44876462  0.09999879  0.59770738  1
  As  As6  1  0.55123538  0.90000121  0.40229262  1
  As  As7  1  0.16186053  0.16186053  0.88157590  1
  As  As8  1  0.09999879  0.44876462  0.59770738  1
  As  As9  1  0.83813947  0.83813947  0.11842410  1
  As  As10  1  0.33813947  0.33813947  0.38157590  1
  As  As11  1  0.90000121  0.55123538  0.40229262  1
loop_
_geom_bond_atom_site_label_1
_geom_bond_atom_site_label_2
_geom_bond_distance
_geom_bond_site_symmetry_2
In0 K11 3.448105 1_565
In0 K7 3.448105 1_455
In1 K1 3.448105 1_555
In1 K3 3.448105 1_554
In2 K9 3.448105 1_555
In2 K5 3.448105 1_554
In3 K1 3.525145 1_545
In3 K3 3.525145 1_654
In3 K6 3.549456 1_655
In3 K4 3.549456 1_544
In4 K2 3.448105 1_655
In4 K0 3.448105 1_545
In5 K9 3.525145 1_455
In5 K5 3.525145 1_564
In5 K6 3.549456 1_565
In5 K4 3.549456 1_454
In6 K2 3.525145 1_555
In6 K0 3.525145 1_555
In6 K10 3.549456 1_555
In6 K8 3.549456 1_555
In7 K11 3.525145 1_555
In7 K7 3.525145 1_555
In7 K10 3.549456 1_555
In7 K8 3.549456 1_555
As0 In1 2.695899 1_555
As0 In2 2.729889 1_455
As0 In3 2.785747 1_455
As0 K2 3.390849 1_555
As0 K9 3.537259 1_455
As0 K1 3.596415 1_445
As0 K6 3.616877 1_555
As0 K1 3.639175 1_555
As1 In6 2.659603 1_555
As1 In7 2.659603 1_555
As1 K0 3.331230 1_555
As1 K7 3.331230 1_555
As1 K8 3.354920 1_665
As1 K8 3.491039 1_555
As1 K4 3.627898 1_555
As2 In2 2.695899 1_555
As2 In1 2.729889 1_545
As2 In5 2.785747 1_545
As2 K11 3.390849 1_555
As2 K1 3.537259 1_545
As2 K9 3.596415 1_445
As2 K6 3.616877 1_555
As2 K9 3.639175 1_555
As3 In1 2.695899 1_556
As3 In2 2.729889 1_566
As3 In3 2.785747 1_566
As3 K0 3.390849 1_555
As3 K5 3.537259 1_565
As3 K3 3.596415 1_665
As3 K4 3.616877 1_555
As3 K3 3.639175 1_555
As4 In2 2.695899 1_556
As4 In1 2.729889 1_656
As4 In5 2.785747 1_656
As4 K7 3.390849 1_555
As4 K3 3.537259 1_655
As4 K5 3.596415 1_665
As4 K4 3.616877 1_555
As4 K5 3.639175 1_555
As5 In0 2.695899 1_545
As5 In4 2.729889 1_555
As5 In7 2.785747 1_555
As5 K5 3.390849 1_555
As5 K0 3.537259 1_545
As5 K7 3.596415 1_555
As5 K8 3.616877 1_555
As5 K7 3.639175 1_445
As6 In4 2.695899 1_565
As6 In0 2.729889 1_555
As6 In6 2.785747 1_555
As6 K1 3.390849 1_555
As6 K11 3.537259 1_565
As6 K2 3.596415 1_555
As6 K10 3.616877 1_555
As6 K2 3.639175 1_665
As7 In3 2.659603 1_456
As7 In5 2.659603 1_546
As7 K3 3.331230 1_555
As7 K5 3.331230 1_555
As7 K4 3.354920 1_555
As7 K4 3.491039 1_445
As7 K8 3.627898 1_555
As8 In4 2.695899 1_455
As8 In0 2.729889 1_555
As8 In6 2.785747 1_555
As8 K3 3.390849 1_555
As8 K7 3.537259 1_455
As8 K0 3.596415 1_555
As8 K8 3.616877 1_555
As8 K0 3.639175 1_445
As9 In5 2.659603 1_655
As9 In3 2.659603 1_565
As9 K9 3.331230 1_555
As9 K1 3.331230 1_555
As9 K6 3.354920 1_555
As9 K6 3.491039 1_665
As9 K10 3.627898 1_555
As10 In6 2.659603 1_555
As10 In7 2.659603 1_555
As10 K11 3.331230 1_555
As10 K2 3.331230 1_555
As10 K10 3.354920 1_445
As10 K10 3.491039 1_555
As10 K6 3.627898 1_555
As11 In0 2.695899 1_655
As11 In4 2.729889 1_555
As11 In7 2.785747 1_555
As11 K9 3.390849 1_555
As11 K2 3.537259 1_655
As11 K11 3.596415 1_555
As11 K10 3.616877 1_555
As11 K11 3.639175 1_665
