# generated using pymatgen
data_Sm2Co7
_symmetry_space_group_name_H-M   'P 1'
_cell_length_a   5.01705021
_cell_length_b   5.01705021
_cell_length_c   24.29386500
_cell_angle_alpha   90.00000000
_cell_angle_beta   90.00000000
_cell_angle_gamma   120.00000283
_symmetry_Int_Tables_number   1
_chemical_formula_structural   Sm2Co7
_chemical_formula_sum   'Sm8 Co28'
_cell_volume   529.57091977
_cell_formula_units_Z   4
loop_
 _symmetry_equiv_pos_site_id
 _symmetry_equiv_pos_as_xyz
  1  'x, y, z'
loop_
 _atom_site_type_symbol
 _atom_site_label
 _atom_site_symmetry_multiplicity
 _atom_site_fract_x
 _atom_site_fract_y
 _atom_site_fract_z
 _atom_site_occupancy
  Sm  Sm0  1  0.33333300  0.66666700  0.02785300  1
  Sm  Sm1  1  0.66666700  0.33333300  0.52785300  1
  Sm  Sm2  1  0.66666700  0.33333300  0.97214700  1
  Sm  Sm3  1  0.33333300  0.66666700  0.47214700  1
  Sm  Sm4  1  0.33333300  0.66666700  0.17304600  1
  Sm  Sm5  1  0.66666700  0.33333300  0.67304600  1
  Sm  Sm6  1  0.66666700  0.33333300  0.82695400  1
  Sm  Sm7  1  0.33333300  0.66666700  0.32695400  1
  Co  Co0  1  0.00000000  0.00000000  0.00000000  1
  Co  Co1  1  0.00000000  0.00000000  0.50000000  1
  Co  Co2  1  0.00000000  0.00000000  0.16813300  1
  Co  Co3  1  0.00000000  0.00000000  0.66813300  1
  Co  Co4  1  0.00000000  0.00000000  0.83186700  1
  Co  Co5  1  0.00000000  0.00000000  0.33186700  1
  Co  Co6  1  0.33333300  0.66666700  0.83150100  1
  Co  Co7  1  0.66666700  0.33333300  0.33150100  1
  Co  Co8  1  0.66666700  0.33333300  0.16849900  1
  Co  Co9  1  0.33333300  0.66666700  0.66849900  1
  Co  Co10  1  0.83392300  0.66784500  0.25000000  1
  Co  Co11  1  0.16607700  0.83392300  0.75000000  1
  Co  Co12  1  0.66784500  0.83392300  0.75000000  1
  Co  Co13  1  0.33215500  0.16607700  0.25000000  1
  Co  Co14  1  0.83392300  0.16607700  0.25000000  1
  Co  Co15  1  0.16607700  0.33215500  0.75000000  1
  Co  Co16  1  0.83413600  0.66827200  0.08775100  1
  Co  Co17  1  0.16586400  0.83413600  0.58775100  1
  Co  Co18  1  0.66827200  0.83413600  0.58775100  1
  Co  Co19  1  0.33172800  0.16586400  0.08775100  1
  Co  Co20  1  0.83413600  0.16586400  0.08775100  1
  Co  Co21  1  0.16586400  0.33172800  0.91224900  1
  Co  Co22  1  0.16586400  0.83413600  0.91224900  1
  Co  Co23  1  0.16586400  0.33172800  0.58775100  1
  Co  Co24  1  0.66827200  0.83413600  0.91224900  1
  Co  Co25  1  0.33172800  0.16586400  0.41224900  1
  Co  Co26  1  0.83413600  0.66827200  0.41224900  1
  Co  Co27  1  0.83413600  0.16586400  0.41224900  1
loop_
_geom_bond_atom_site_label_1
_geom_bond_atom_site_label_2
_geom_bond_distance
_geom_bond_site_symmetry_2
Co0 Co19 2.573330 1_555
Co0 Co21 2.573330 1_554
Co0 Co16 2.573330 1_445
Co0 Co24 2.573330 1_444
Co0 Co20 2.573330 1_455
Co0 Co22 2.573330 1_544
Co0 Sm0 2.974578 1_545
Co0 Sm2 2.974578 1_454
Co0 Sm2 2.974582 1_554
Co0 Sm2 2.974582 1_444
Co0 Sm0 2.974582 1_555
Co0 Sm0 2.974582 1_445
Co1 Co25 2.573330 1_555
Co1 Co23 2.573330 1_555
Co1 Co26 2.573330 1_445
Co1 Co18 2.573330 1_445
Co1 Co27 2.573330 1_455
Co1 Co17 2.573330 1_545
Co1 Sm1 2.974578 1_455
Co1 Sm3 2.974578 1_545
Co1 Sm1 2.974582 1_555
Co1 Sm1 2.974582 1_445
Co1 Sm3 2.974582 1_555
Co1 Sm3 2.974582 1_445
Co2 Co20 2.427097 1_455
Co2 Sm4 2.899050 1_545
Co2 Sm4 2.899055 1_555
Co2 Sm4 2.899055 1_445
Co3 Sm5 2.899050 1_455
Co3 Sm5 2.899055 1_555
Co3 Sm5 2.899055 1_445
Co4 Sm6 2.899050 1_455
Co4 Sm6 2.899055 1_445
Co4 Sm6 2.899055 1_555
Co5 Sm7 2.899050 1_545
Co5 Sm7 2.899055 1_445
Co5 Sm7 2.899055 1_555
Co6 Sm6 2.898698 1_455
Co6 Sm6 2.898698 1_565
Co6 Sm6 2.898707 1_555
Co7 Sm7 2.898698 1_545
Co7 Sm7 2.898698 1_655
Co7 Sm7 2.898707 1_555
Co8 Sm4 2.898698 1_545
Co8 Sm4 2.898698 1_655
Co8 Sm4 2.898707 1_555
Co9 Sm5 2.898698 1_455
Co9 Sm5 2.898698 1_565
Co9 Sm5 2.898707 1_555
Co10 Co7 2.456160 1_555
Co10 Co8 2.456160 1_555
Co10 Co5 2.457305 1_665
Co10 Co2 2.457305 1_665
Co10 Co13 2.499655 1_665
Co10 Co14 2.499655 1_565
Co10 Co13 2.517395 1_555
Co10 Co14 2.517395 1_555
Co10 Sm7 3.128541 1_655
Co10 Sm4 3.128541 1_655
Co10 Sm7 3.128549 1_555
Co10 Sm4 3.128549 1_555
Co11 Co6 2.456161 1_555
Co11 Co9 2.456161 1_555
Co11 Co4 2.457303 1_565
Co11 Co3 2.457303 1_565
Co11 Co15 2.499655 1_565
Co11 Co12 2.499655 1_455
Co11 Co15 2.517395 1_555
Co11 Co12 2.517395 1_555
Co11 Sm6 3.128545 1_455
Co11 Sm6 3.128545 1_565
Co11 Sm5 3.128545 1_565
Co11 Sm5 3.128545 1_455
Co12 Co6 2.456160 1_555
Co12 Co9 2.456160 1_555
Co12 Co4 2.457305 1_665
Co12 Co3 2.457305 1_665
Co12 Co15 2.499655 1_665
Co12 Co15 2.517395 1_555
Co12 Sm6 3.128541 1_565
Co12 Sm5 3.128541 1_565
Co12 Sm6 3.128549 1_555
Co12 Sm5 3.128549 1_555
Co13 Co7 2.456160 1_555
Co13 Co8 2.456160 1_555
Co13 Co5 2.457305 1_555
Co13 Co2 2.457305 1_555
Co13 Co14 2.499655 1_455
Co13 Co14 2.517395 1_555
Co13 Sm7 3.128541 1_545
Co13 Sm4 3.128541 1_545
Co13 Sm7 3.128549 1_555
Co13 Sm4 3.128549 1_555
Co14 Co7 2.456161 1_555
Co14 Co8 2.456161 1_555
Co14 Co5 2.457303 1_655
Co14 Co2 2.457303 1_655
Co14 Sm7 3.128545 1_545
Co14 Sm7 3.128545 1_655
Co14 Sm4 3.128545 1_655
Co14 Sm4 3.128545 1_545
Co15 Co6 2.456160 1_555
Co15 Co9 2.456160 1_555
Co15 Co4 2.457305 1_555
Co15 Co3 2.457305 1_555
Co15 Sm6 3.128541 1_455
Co15 Sm5 3.128541 1_455
Co15 Sm6 3.128549 1_555
Co15 Sm5 3.128549 1_555
Co16 Co2 2.427097 1_665
Co16 Co8 2.442543 1_555
Co16 Co19 2.496444 1_665
Co16 Co20 2.496444 1_565
Co16 Co19 2.520606 1_555
Co16 Co20 2.520606 1_555
Co16 Sm0 2.900036 1_655
Co16 Sm0 2.900040 1_555
Co16 Sm2 3.163118 1_554
Co16 Sm4 3.253693 1_655
Co16 Sm4 3.253697 1_555
Co17 Co3 2.427097 1_565
Co17 Co9 2.442540 1_555
Co17 Co18 2.496444 1_455
Co17 Co23 2.496444 1_565
Co17 Co23 2.520606 1_555
Co17 Co18 2.520606 1_555
Co17 Sm1 2.900038 1_455
Co17 Sm1 2.900038 1_565
Co17 Sm3 3.163116 1_555
Co17 Sm5 3.253695 1_455
Co17 Sm5 3.253695 1_565
Co18 Co3 2.427097 1_665
Co18 Co9 2.442543 1_555
Co18 Co23 2.496444 1_665
Co18 Co23 2.520606 1_555
Co18 Sm1 2.900036 1_565
Co18 Sm1 2.900040 1_555
Co18 Sm3 3.163118 1_555
Co18 Sm5 3.253693 1_565
Co18 Sm5 3.253697 1_555
Co19 Co2 2.427097 1_555
Co19 Co8 2.442543 1_555
Co19 Co20 2.496444 1_455
Co19 Co20 2.520606 1_555
Co19 Sm0 2.900036 1_545
Co19 Sm0 2.900040 1_555
Co19 Sm2 3.163118 1_554
Co19 Sm4 3.253693 1_545
Co19 Sm4 3.253697 1_555
Co20 Co8 2.442540 1_555
Co20 Sm0 2.900038 1_545
Co20 Sm0 2.900038 1_655
Co20 Sm2 3.163116 1_554
Co20 Sm4 3.253695 1_545
Co20 Sm4 3.253695 1_655
Co21 Co4 2.427097 1_555
Co21 Co6 2.442543 1_555
Co21 Co24 2.496444 1_445
Co21 Co22 2.496444 1_545
Co21 Co24 2.520606 1_555
Co21 Co22 2.520606 1_555
Co21 Sm2 2.900036 1_455
Co21 Sm2 2.900040 1_555
Co21 Sm0 3.163118 1_556
Co21 Sm6 3.253693 1_455
Co21 Sm6 3.253697 1_555
Co22 Co4 2.427097 1_565
Co22 Co6 2.442540 1_555
Co22 Co24 2.496444 1_455
Co22 Co24 2.520606 1_555
Co22 Sm2 2.900038 1_455
Co22 Sm2 2.900038 1_565
Co22 Sm0 3.163116 1_556
Co22 Sm6 3.253695 1_455
Co22 Sm6 3.253695 1_565
Co23 Co3 2.427097 1_555
Co23 Co9 2.442543 1_555
Co23 Sm1 2.900036 1_455
Co23 Sm1 2.900040 1_555
Co23 Sm3 3.163118 1_555
Co23 Sm5 3.253693 1_455
Co23 Sm5 3.253697 1_555
Co24 Co4 2.427097 1_665
Co24 Co6 2.442543 1_555
Co24 Sm2 2.900036 1_565
Co24 Sm2 2.900040 1_555
Co24 Sm0 3.163118 1_556
Co24 Sm6 3.253693 1_565
Co24 Sm6 3.253697 1_555
Co25 Co5 2.427097 1_555
Co25 Co7 2.442543 1_555
Co25 Co26 2.496444 1_445
Co25 Co27 2.496444 1_455
Co25 Co26 2.520606 1_555
Co25 Co27 2.520606 1_555
Co25 Sm3 2.900036 1_545
Co25 Sm3 2.900040 1_555
Co25 Sm1 3.163118 1_555
Co25 Sm7 3.253693 1_545
Co25 Sm7 3.253697 1_555
Co26 Co5 2.427097 1_665
Co26 Co7 2.442543 1_555
Co26 Co27 2.496444 1_565
Co26 Co27 2.520606 1_555
Co26 Sm3 2.900036 1_655
Co26 Sm3 2.900040 1_555
Co26 Sm1 3.163118 1_555
Co26 Sm7 3.253693 1_655
Co26 Sm7 3.253697 1_555
Co27 Co5 2.427097 1_655
Co27 Co7 2.442540 1_555
Co27 Sm3 2.900038 1_545
Co27 Sm3 2.900038 1_655
Co27 Sm1 3.163116 1_555
Co27 Sm7 3.253695 1_545
Co27 Sm7 3.253695 1_655
