# generated using pymatgen
data_KNO2
_symmetry_space_group_name_H-M   'P 1'
_cell_length_a   4.27756245
_cell_length_b   4.27756245
_cell_length_c   4.19042131
_cell_angle_alpha   76.67814978
_cell_angle_beta   76.67814978
_cell_angle_gamma   85.54657413
_symmetry_Int_Tables_number   1
_chemical_formula_structural   KNO2
_chemical_formula_sum   'K1 N1 O2'
_cell_volume   72.57905519
_cell_formula_units_Z   1
loop_
 _symmetry_equiv_pos_site_id
 _symmetry_equiv_pos_as_xyz
  1  'x, y, z'
loop_
 _atom_site_type_symbol
 _atom_site_label
 _atom_site_symmetry_multiplicity
 _atom_site_fract_x
 _atom_site_fract_y
 _atom_site_fract_z
 _atom_site_occupancy
  K  K0  1  0.00266400  0.00266400  0.94522500  1
  N  N0  1  0.50432300  0.50432300  0.55836000  1
  O  O0  1  0.39502700  0.76628300  0.40130900  1
  O  O1  1  0.76628300  0.39502700  0.40130900  1
loop_
_geom_bond_atom_site_label_1
_geom_bond_atom_site_label_2
_geom_bond_distance
_geom_bond_site_symmetry_2
K0 O0 2.795713 1_546
K0 O1 2.795713 1_456
K0 O1 2.840743 1_455
K0 O0 2.840743 1_545
K0 O0 2.942654 1_446
K0 O1 2.942654 1_446
K0 N0 3.057196 1_555
N0 O1 1.275894 1_555
N0 O0 1.275894 1_555
