# generated using pymatgen
data_Dy(CrS2)3
_symmetry_space_group_name_H-M   'P 1'
_cell_length_a   10.69544700
_cell_length_b   10.84985200
_cell_length_c   12.65206200
_cell_angle_alpha   90.00000000
_cell_angle_beta   90.00000000
_cell_angle_gamma   90.00000000
_symmetry_Int_Tables_number   1
_chemical_formula_structural   Dy(CrS2)3
_chemical_formula_sum   'Dy8 Cr24 S48'
_cell_volume   1468.19609811
_cell_formula_units_Z   8
loop_
 _symmetry_equiv_pos_site_id
 _symmetry_equiv_pos_as_xyz
  1  'x, y, z'
loop_
 _atom_site_type_symbol
 _atom_site_label
 _atom_site_symmetry_multiplicity
 _atom_site_fract_x
 _atom_site_fract_y
 _atom_site_fract_z
 _atom_site_occupancy
  Dy  Dy0  1  0.00000000  0.48948500  0.16469000  1
  Dy  Dy1  1  0.00000000  0.98762400  0.00017200  1
  Dy  Dy2  1  0.16651800  0.51712500  0.66287900  1
  Dy  Dy3  1  0.33348200  0.48287500  0.16287900  1
  Dy  Dy4  1  0.50000000  0.01237600  0.50017200  1
  Dy  Dy5  1  0.50000000  0.51051500  0.66469000  1
  Dy  Dy6  1  0.66651800  0.48287500  0.16287900  1
  Dy  Dy7  1  0.83348200  0.51712500  0.66287900  1
  Cr  Cr0  1  0.00000000  0.33192800  0.42649300  1
  Cr  Cr1  1  0.00000000  0.80578900  0.22384300  1
  Cr  Cr2  1  0.00000000  0.30187000  0.94348800  1
  Cr  Cr3  1  0.00000000  0.84498100  0.73628600  1
  Cr  Cr4  1  0.16719700  0.66494600  0.92775100  1
  Cr  Cr5  1  0.16386500  0.19029800  0.71266600  1
  Cr  Cr6  1  0.16430300  0.70820300  0.44763100  1
  Cr  Cr7  1  0.16447300  0.15423000  0.23913800  1
  Cr  Cr8  1  0.33552700  0.84577000  0.73913800  1
  Cr  Cr9  1  0.33569700  0.29179700  0.94763100  1
  Cr  Cr10  1  0.33613500  0.80970200  0.21266600  1
  Cr  Cr11  1  0.33280300  0.33505400  0.42775100  1
  Cr  Cr12  1  0.50000000  0.15501900  0.23628600  1
  Cr  Cr13  1  0.50000000  0.19421100  0.72384300  1
  Cr  Cr14  1  0.50000000  0.66807200  0.92649300  1
  Cr  Cr15  1  0.50000000  0.69813000  0.44348800  1
  Cr  Cr16  1  0.66719700  0.33505400  0.42775100  1
  Cr  Cr17  1  0.66386500  0.80970200  0.21266600  1
  Cr  Cr18  1  0.66430300  0.29179700  0.94763100  1
  Cr  Cr19  1  0.66447300  0.84577000  0.73913800  1
  Cr  Cr20  1  0.83552700  0.15423000  0.23913800  1
  Cr  Cr21  1  0.83569700  0.70820300  0.44763100  1
  Cr  Cr22  1  0.83613500  0.19029800  0.71266600  1
  Cr  Cr23  1  0.83280300  0.66494600  0.92775100  1
  S  S0  1  0.00000000  0.21145900  0.11900200  1
  S  S1  1  0.00000000  0.12790800  0.36224300  1
  S  S2  1  0.00000000  0.05332000  0.67042700  1
  S  S3  1  0.00000000  0.71357400  0.04469500  1
  S  S4  1  0.00000000  0.55404500  0.49398200  1
  S  S5  1  0.00000000  0.34238200  0.75725800  1
  S  S6  1  0.00000000  0.84158400  0.40479600  1
  S  S7  1  0.00000000  0.63360500  0.80032800  1
  S  S8  1  0.16558300  0.87070700  0.86379400  1
  S  S9  1  0.16603500  0.29777900  0.54623000  1
  S  S10  1  0.16306000  0.16200000  0.90069800  1
  S  S11  1  0.16721200  0.77560400  0.62404500  1
  S  S12  1  0.16337600  0.94582600  0.17298600  1
  S  S13  1  0.16549800  0.36476800  0.29873200  1
  S  S14  1  0.16734100  0.65613500  0.26026500  1
  S  S15  1  0.16492800  0.45012000  0.99643400  1
  S  S16  1  0.33507200  0.54988000  0.49643400  1
  S  S17  1  0.33265900  0.34386500  0.76026500  1
  S  S18  1  0.33450200  0.63523200  0.79873200  1
  S  S19  1  0.33662400  0.05417400  0.67298600  1
  S  S20  1  0.33278800  0.22439600  0.12404500  1
  S  S21  1  0.33694000  0.83800000  0.40069800  1
  S  S22  1  0.33396500  0.70222100  0.04623000  1
  S  S23  1  0.33441700  0.12929300  0.36379400  1
  S  S24  1  0.50000000  0.28642600  0.54469500  1
  S  S25  1  0.50000000  0.65761800  0.25725800  1
  S  S26  1  0.50000000  0.78854100  0.61900200  1
  S  S27  1  0.50000000  0.15841600  0.90479600  1
  S  S28  1  0.50000000  0.36639500  0.30032800  1
  S  S29  1  0.50000000  0.44595500  0.99398200  1
  S  S30  1  0.50000000  0.94668000  0.17042700  1
  S  S31  1  0.50000000  0.87209200  0.86224300  1
  S  S32  1  0.66558300  0.12929300  0.36379400  1
  S  S33  1  0.66603500  0.70222100  0.04623000  1
  S  S34  1  0.66306000  0.83800000  0.40069800  1
  S  S35  1  0.66721200  0.22439600  0.12404500  1
  S  S36  1  0.66337600  0.05417400  0.67298600  1
  S  S37  1  0.66549800  0.63523200  0.79873200  1
  S  S38  1  0.66734100  0.34386500  0.76026500  1
  S  S39  1  0.66492800  0.54988000  0.49643400  1
  S  S40  1  0.83507200  0.45012000  0.99643400  1
  S  S41  1  0.83265900  0.65613500  0.26026500  1
  S  S42  1  0.83450200  0.36476800  0.29873200  1
  S  S43  1  0.83662400  0.94582600  0.17298600  1
  S  S44  1  0.83278800  0.77560400  0.62404500  1
  S  S45  1  0.83694000  0.16200000  0.90069800  1
  S  S46  1  0.83396500  0.29777900  0.54623000  1
  S  S47  1  0.83441700  0.87070700  0.86379400  1
loop_
_geom_bond_atom_site_label_1
_geom_bond_atom_site_label_2
_geom_bond_distance
_geom_bond_site_symmetry_2
Dy0 S40 2.797457 1_454
Dy0 S15 2.797457 1_554
Dy0 S42 2.800056 1_455
Dy0 S13 2.800056 1_555
Dy0 S41 2.816892 1_455
Dy0 S14 2.816892 1_555
Dy0 S3 2.866402 1_555
Dy0 S0 3.071426 1_555
Dy1 S47 2.778989 1_454
Dy1 S8 2.778989 1_554
Dy1 S43 2.835415 1_455
Dy1 S12 2.835415 1_555
Dy1 S0 2.856279 1_565
Dy1 S10 2.864433 1_564
Dy1 S45 2.864433 1_464
Dy1 S3 3.026291 1_555
Dy2 S7 2.791637 1_555
Dy2 S16 2.794807 1_555
Dy2 S18 2.797221 1_555
Dy2 S9 2.800348 1_555
Dy2 S4 2.810461 1_555
Dy2 S11 2.847183 1_555
Dy2 S5 2.862224 1_555
Dy2 S17 2.865228 1_555
Dy3 S28 2.791637 1_555
Dy3 S15 2.794807 1_554
Dy3 S13 2.797221 1_555
Dy3 S22 2.800348 1_555
Dy3 S29 2.810461 1_554
Dy3 S20 2.847183 1_555
Dy3 S25 2.862224 1_555
Dy3 S14 2.865228 1_555
Dy4 S23 2.778989 1_555
Dy4 S32 2.778989 1_555
Dy4 S36 2.835415 1_555
Dy4 S19 2.835415 1_555
Dy4 S26 2.856279 1_545
Dy4 S34 2.864433 1_545
Dy4 S21 2.864433 1_545
Dy4 S24 3.026291 1_555
Dy5 S39 2.797457 1_555
Dy5 S16 2.797457 1_555
Dy5 S18 2.800056 1_555
Dy5 S37 2.800056 1_555
Dy5 S38 2.816892 1_555
Dy5 S17 2.816892 1_555
Dy5 S24 2.866402 1_555
Dy5 S26 3.071426 1_555
Dy6 S28 2.791637 1_555
Dy6 S40 2.794807 1_554
Dy6 S42 2.797221 1_555
Dy6 S33 2.800348 1_555
Dy6 S29 2.810461 1_554
Dy6 S35 2.847183 1_555
Dy6 S25 2.862224 1_555
Dy6 S41 2.865228 1_555
Dy7 S7 2.791637 1_655
Dy7 S39 2.794807 1_555
Dy7 S37 2.797221 1_555
Dy7 S46 2.800348 1_555
Dy7 S4 2.810461 1_655
Dy7 S44 2.847183 1_555
Dy7 S5 2.862224 1_655
Dy7 S38 2.865228 1_555
Cr0 S1 2.358127 1_555
Cr0 S9 2.363428 1_555
Cr0 S46 2.363428 1_455
Cr0 S13 2.423427 1_555
Cr0 S42 2.423427 1_455
Cr0 S4 2.556736 1_555
Cr1 S6 2.322136 1_555
Cr1 S12 2.403305 1_555
Cr1 S43 2.403305 1_455
Cr1 S41 2.460115 1_455
Cr1 S14 2.460115 1_555
Cr1 S3 2.477595 1_555
Cr2 S45 2.374372 1_455
Cr2 S10 2.374372 1_555
Cr2 S5 2.396842 1_555
Cr2 S0 2.427629 1_556
Cr2 S40 2.479435 1_455
Cr2 S15 2.479435 1_555
Cr3 S11 2.404502 1_555
Cr3 S44 2.404502 1_455
Cr3 S2 2.409135 1_565
Cr3 S47 2.411812 1_455
Cr3 S8 2.411812 1_555
Cr3 S7 2.432325 1_555
Cr4 S22 2.364743 1_556
Cr4 S8 2.374665 1_555
Cr4 S3 2.380202 1_556
Cr4 S7 2.431569 1_555
Cr4 S18 2.443457 1_555
Cr4 S15 2.487667 1_555
Cr5 S2 2.359237 1_555
Cr5 S10 2.398739 1_555
Cr5 S9 2.407212 1_555
Cr5 S19 2.418154 1_555
Cr5 S5 2.472394 1_555
Cr5 S17 2.529434 1_555
Cr6 S6 2.340102 1_555
Cr6 S11 2.348953 1_555
Cr6 S21 2.396904 1_555
Cr6 S14 2.437168 1_555
Cr6 S4 2.495907 1_555
Cr6 S16 2.582237 1_555
Cr7 S1 2.366843 1_555
Cr7 S13 2.405550 1_555
Cr7 S0 2.406310 1_555
Cr7 S12 2.411110 1_545
Cr7 S23 2.421651 1_555
Cr7 S20 2.437357 1_555
Cr8 S31 2.366843 1_555
Cr8 S18 2.405550 1_555
Cr8 S26 2.406310 1_555
Cr8 S19 2.411110 1_565
Cr8 S8 2.421651 1_555
Cr8 S11 2.437357 1_555
Cr9 S27 2.340102 1_555
Cr9 S20 2.348953 1_556
Cr9 S10 2.396904 1_555
Cr9 S17 2.437168 1_555
Cr9 S29 2.495907 1_555
Cr9 S15 2.582237 1_555
Cr10 S30 2.359237 1_555
Cr10 S21 2.398739 1_555
Cr10 S22 2.407212 1_555
Cr10 S12 2.418154 1_555
Cr10 S25 2.472394 1_555
Cr10 S14 2.529434 1_555
Cr11 S9 2.364743 1_555
Cr11 S23 2.374665 1_555
Cr11 S24 2.380202 1_555
Cr11 S28 2.431569 1_555
Cr11 S13 2.443457 1_555
Cr11 S16 2.487667 1_555
Cr12 S35 2.404502 1_555
Cr12 S20 2.404502 1_555
Cr12 S30 2.409135 1_545
Cr12 S23 2.411812 1_555
Cr12 S32 2.411812 1_555
Cr12 S28 2.432325 1_555
Cr13 S27 2.322136 1_555
Cr13 S36 2.403305 1_555
Cr13 S19 2.403305 1_555
Cr13 S38 2.460115 1_555
Cr13 S17 2.460115 1_555
Cr13 S24 2.477595 1_555
Cr14 S31 2.358127 1_555
Cr14 S22 2.363428 1_556
Cr14 S33 2.363428 1_556
Cr14 S18 2.423427 1_555
Cr14 S37 2.423427 1_555
Cr14 S29 2.556736 1_555
Cr15 S21 2.374372 1_555
Cr15 S34 2.374372 1_555
Cr15 S25 2.396842 1_555
Cr15 S26 2.427629 1_555
Cr15 S39 2.479435 1_555
Cr15 S16 2.479435 1_555
Cr16 S46 2.364743 1_555
Cr16 S32 2.374665 1_555
Cr16 S24 2.380202 1_555
Cr16 S28 2.431569 1_555
Cr16 S42 2.443457 1_555
Cr16 S39 2.487667 1_555
Cr17 S30 2.359237 1_555
Cr17 S34 2.398739 1_555
Cr17 S33 2.407212 1_555
Cr17 S43 2.418154 1_555
Cr17 S25 2.472394 1_555
Cr17 S41 2.529434 1_555
Cr18 S27 2.340102 1_555
Cr18 S35 2.348953 1_556
Cr18 S45 2.396904 1_555
Cr18 S38 2.437168 1_555
Cr18 S29 2.495907 1_555
Cr18 S40 2.582237 1_555
Cr19 S31 2.366843 1_555
Cr19 S37 2.405550 1_555
Cr19 S26 2.406310 1_555
Cr19 S36 2.411110 1_565
Cr19 S47 2.421651 1_555
Cr19 S44 2.437357 1_555
Cr20 S1 2.366843 1_655
Cr20 S42 2.405550 1_555
Cr20 S0 2.406310 1_655
Cr20 S43 2.411110 1_545
Cr20 S32 2.421651 1_555
Cr20 S35 2.437357 1_555
Cr21 S6 2.340102 1_655
Cr21 S44 2.348953 1_555
Cr21 S34 2.396904 1_555
Cr21 S41 2.437168 1_555
Cr21 S4 2.495907 1_655
Cr21 S39 2.582237 1_555
Cr22 S2 2.359237 1_655
Cr22 S45 2.398739 1_555
Cr22 S46 2.407212 1_555
Cr22 S36 2.418154 1_555
Cr22 S5 2.472394 1_655
Cr22 S38 2.529434 1_555
Cr23 S33 2.364743 1_556
Cr23 S47 2.374665 1_555
Cr23 S3 2.380202 1_656
Cr23 S7 2.431569 1_655
Cr23 S37 2.443457 1_555
Cr23 S40 2.487667 1_555
