# generated using pymatgen
data_CdPH6NO5
_symmetry_space_group_name_H-M   'P 1'
_cell_length_a   4.99488600
_cell_length_b   5.87990500
_cell_length_c   18.31688100
_cell_angle_alpha   90.00000000
_cell_angle_beta   90.00000000
_cell_angle_gamma   90.00000000
_symmetry_Int_Tables_number   1
_chemical_formula_structural   CdPH6NO5
_chemical_formula_sum   'Cd4 P4 H24 N4 O20'
_cell_volume   537.95681531
_cell_formula_units_Z   4
loop_
 _symmetry_equiv_pos_site_id
 _symmetry_equiv_pos_as_xyz
  1  'x, y, z'
loop_
 _atom_site_type_symbol
 _atom_site_label
 _atom_site_symmetry_multiplicity
 _atom_site_fract_x
 _atom_site_fract_y
 _atom_site_fract_z
 _atom_site_occupancy
  Cd  Cd0  1  0.85994000  0.75000000  0.26534700  1
  Cd  Cd1  1  0.35994000  0.25000000  0.23465300  1
  Cd  Cd2  1  0.14006000  0.25000000  0.73465300  1
  Cd  Cd3  1  0.64006000  0.75000000  0.76534700  1
  P  P0  1  0.28361700  0.75000000  0.14636000  1
  P  P1  1  0.78361700  0.25000000  0.35364000  1
  P  P2  1  0.71638300  0.25000000  0.85364000  1
  P  P3  1  0.21638300  0.75000000  0.64636000  1
  H  H0  1  0.55826200  0.75000000  0.52272900  1
  H  H1  1  0.05826200  0.25000000  0.97727100  1
  H  H2  1  0.44173800  0.25000000  0.47727100  1
  H  H3  1  0.94173800  0.75000000  0.02272900  1
  H  H4  1  0.90912400  0.75000000  0.52394200  1
  H  H5  1  0.40912400  0.25000000  0.97605800  1
  H  H6  1  0.09087600  0.25000000  0.47605800  1
  H  H7  1  0.59087600  0.75000000  0.02394200  1
  H  H8  1  0.31737600  0.88313600  0.34993400  1
  H  H9  1  0.81737600  0.11686400  0.15006600  1
  H  H10  1  0.68262400  0.38313600  0.65006600  1
  H  H11  1  0.18262400  0.61686400  0.84993400  1
  H  H12  1  0.68262400  0.11686400  0.65006600  1
  H  H13  1  0.18262400  0.88313600  0.84993400  1
  H  H14  1  0.31737600  0.61686400  0.34993400  1
  H  H15  1  0.81737600  0.38313600  0.15006600  1
  H  H16  1  0.74058300  0.89497800  0.45908900  1
  H  H17  1  0.24058300  0.10502200  0.04091100  1
  H  H18  1  0.25941700  0.39497800  0.54091100  1
  H  H19  1  0.75941700  0.60502200  0.95908900  1
  H  H20  1  0.25941700  0.10502200  0.54091100  1
  H  H21  1  0.75941700  0.89497800  0.95908900  1
  H  H22  1  0.74058300  0.60502200  0.45908900  1
  H  H23  1  0.24058300  0.39497800  0.04091100  1
  N  N0  1  0.73646000  0.75000000  0.49111900  1
  N  N1  1  0.23646000  0.25000000  0.00888100  1
  N  N2  1  0.26354000  0.25000000  0.50888100  1
  N  N3  1  0.76354000  0.75000000  0.99111900  1
  O  O0  1  0.57999100  0.75000000  0.16717200  1
  O  O1  1  0.07999100  0.25000000  0.33282800  1
  O  O2  1  0.42000900  0.25000000  0.83282800  1
  O  O3  1  0.92000900  0.75000000  0.66717200  1
  O  O4  1  0.13273800  0.96281000  0.17953200  1
  O  O5  1  0.63273800  0.03719000  0.32046800  1
  O  O6  1  0.86726200  0.46281000  0.82046800  1
  O  O7  1  0.36726200  0.53719000  0.67953200  1
  O  O8  1  0.86726200  0.03719000  0.82046800  1
  O  O9  1  0.36726200  0.96281000  0.67953200  1
  O  O10  1  0.13273800  0.53719000  0.17953200  1
  O  O11  1  0.63273800  0.46281000  0.32046800  1
  O  O12  1  0.25337100  0.75000000  0.06181600  1
  O  O13  1  0.75337100  0.25000000  0.43818400  1
  O  O14  1  0.74662900  0.25000000  0.93818400  1
  O  O15  1  0.24662900  0.75000000  0.56181600  1
  O  O16  1  0.19828100  0.75000000  0.35673200  1
  O  O17  1  0.69828100  0.25000000  0.14326800  1
  O  O18  1  0.80171900  0.25000000  0.64326800  1
  O  O19  1  0.30171900  0.75000000  0.85673200  1
loop_
_geom_bond_atom_site_label_1
_geom_bond_atom_site_label_2
_geom_bond_distance
_geom_bond_site_symmetry_2
Cd0 O11 2.271299 1_555
Cd0 O5 2.271299 1_565
Cd0 O0 2.277942 1_555
Cd0 O16 2.378637 1_655
Cd0 O10 2.427587 1_655
Cd0 O4 2.427587 1_655
Cd1 O4 2.271299 1_545
Cd1 O10 2.271299 1_555
Cd1 O1 2.277942 1_555
Cd1 O17 2.378637 1_555
Cd1 O11 2.427587 1_555
Cd1 O5 2.427587 1_555
Cd2 O9 2.271299 1_545
Cd2 O7 2.271299 1_555
Cd2 O2 2.277942 1_555
Cd2 O18 2.378637 1_455
Cd2 O8 2.427587 1_455
Cd2 O6 2.427587 1_455
Cd3 O6 2.271299 1_555
Cd3 O8 2.271299 1_565
Cd3 O3 2.277942 1_555
Cd3 O19 2.378637 1_555
Cd3 O7 2.427587 1_555
Cd3 O9 2.427587 1_555
H0 N0 1.061827 1_555
H1 N1 1.061827 1_556
H2 N2 1.061827 1_555
H3 N3 1.061827 1_554
H4 N0 1.051312 1_555
H5 N1 1.051312 1_556
H6 N2 1.051312 1_555
H7 N3 1.051312 1_554
H8 O16 0.991054 1_555
H9 O17 0.991054 1_555
H10 O18 0.991054 1_555
H11 O19 0.991054 1_555
H12 O18 0.991054 1_555
H13 O19 0.991054 1_555
H14 O16 0.991054 1_555
H15 O17 0.991054 1_555
H16 N0 1.035042 1_555
H17 N1 1.035042 1_555
H18 N2 1.035042 1_555
H19 N3 1.035042 1_555
H20 N2 1.035042 1_555
H21 N3 1.035042 1_555
H22 N0 1.035042 1_555
H23 N1 1.035042 1_555
O0 P0 1.528650 1_555
O1 P1 1.528650 1_455
O2 P2 1.528650 1_555
O3 P3 1.528650 1_655
O4 P0 1.582054 1_555
O5 P1 1.582054 1_555
O6 P2 1.582054 1_555
O7 P3 1.582054 1_555
O8 P2 1.582054 1_555
O9 P3 1.582054 1_555
O10 P0 1.582054 1_555
O11 P1 1.582054 1_555
O12 P0 1.555934 1_555
O13 P1 1.555934 1_555
O14 P2 1.555934 1_555
O15 P3 1.555934 1_555
