# generated using pymatgen
data_Cd(InSe2)2
_symmetry_space_group_name_H-M   'P 1'
_cell_length_a   5.83927230
_cell_length_b   5.83927157
_cell_length_c   7.27879010
_cell_angle_alpha   113.64793834
_cell_angle_beta   113.64792873
_cell_angle_gamma   90.00001711
_symmetry_Int_Tables_number   1
_chemical_formula_structural   Cd(InSe2)2
_chemical_formula_sum   'Cd1 In2 Se4'
_cell_volume   204.38994143
_cell_formula_units_Z   1
loop_
 _symmetry_equiv_pos_site_id
 _symmetry_equiv_pos_as_xyz
  1  'x, y, z'
loop_
 _atom_site_type_symbol
 _atom_site_label
 _atom_site_symmetry_multiplicity
 _atom_site_fract_x
 _atom_site_fract_y
 _atom_site_fract_z
 _atom_site_occupancy
  Cd  Cd0  1  0.50000000  0.50000000  0.00000000  1
  In  In0  1  0.25000000  0.75000000  0.50000000  1
  In  In1  1  0.75000000  0.25000000  0.50000000  1
  Se  Se0  1  0.34343257  0.34343257  0.23484047  1
  Se  Se1  1  0.65656743  0.10859309  0.76515953  1
  Se  Se2  1  0.89140691  0.89140691  0.23484047  1
  Se  Se3  1  0.10859309  0.65656743  0.76515953  1
loop_
_geom_bond_atom_site_label_1
_geom_bond_atom_site_label_2
_geom_bond_distance
_geom_bond_site_symmetry_2
Cd0 Se2 2.664754 1_555
Cd0 Se1 2.664758 1_554
Cd0 Se3 2.664758 1_554
Cd0 Se0 2.664761 1_555
In0 Se3 2.612994 1_555
In0 Se2 2.612998 1_455
In0 Se0 2.612998 1_555
In0 Se1 2.613000 1_565
In1 Se1 2.612994 1_555
In1 Se2 2.612997 1_545
In1 Se0 2.612998 1_555
In1 Se3 2.613000 1_655
