# generated using pymatgen
data_NaB(CO2)4
_symmetry_space_group_name_H-M   'P 1'
_cell_length_a   6.69107357
_cell_length_b   6.69107357
_cell_length_c   8.03952800
_cell_angle_alpha   90.00000000
_cell_angle_beta   90.00000000
_cell_angle_gamma   102.59700702
_symmetry_Int_Tables_number   1
_chemical_formula_structural   NaB(CO2)4
_chemical_formula_sum   'Na2 B2 C8 O16'
_cell_volume   351.26914998
_cell_formula_units_Z   2
loop_
 _symmetry_equiv_pos_site_id
 _symmetry_equiv_pos_as_xyz
  1  'x, y, z'
loop_
 _atom_site_type_symbol
 _atom_site_label
 _atom_site_symmetry_multiplicity
 _atom_site_fract_x
 _atom_site_fract_y
 _atom_site_fract_z
 _atom_site_occupancy
  Na  Na0  1  0.07115000  0.92885000  0.75000000  1
  Na  Na1  1  0.92885000  0.07115000  0.25000000  1
  B  B0  1  0.43028000  0.56972000  0.25000000  1
  B  B1  1  0.56972000  0.43028000  0.75000000  1
  C  C0  1  0.22330500  0.77669500  0.34551300  1
  C  C1  1  0.22330500  0.77669500  0.15448700  1
  C  C2  1  0.77669500  0.22330500  0.65448700  1
  C  C3  1  0.54564300  0.27059600  0.25000000  1
  C  C4  1  0.77669500  0.22330500  0.84551300  1
  C  C5  1  0.72940400  0.45435700  0.25000000  1
  C  C6  1  0.45435700  0.72940400  0.75000000  1
  C  C7  1  0.27059600  0.54564300  0.75000000  1
  O  O0  1  0.12771800  0.87228200  0.06704300  1
  O  O1  1  0.34151500  0.37479000  0.75000000  1
  O  O2  1  0.65559600  0.34440400  0.89691700  1
  O  O3  1  0.12771800  0.87228200  0.43295700  1
  O  O4  1  0.87228200  0.12771800  0.56704300  1
  O  O5  1  0.65848500  0.62521000  0.25000000  1
  O  O6  1  0.34440400  0.65559600  0.10308300  1
  O  O7  1  0.90838500  0.44121800  0.25000000  1
  O  O8  1  0.87228200  0.12771800  0.93295700  1
  O  O9  1  0.09161500  0.55878200  0.75000000  1
  O  O10  1  0.37479000  0.34151500  0.25000000  1
  O  O11  1  0.65559600  0.34440400  0.60308300  1
  O  O12  1  0.55878200  0.09161500  0.25000000  1
  O  O13  1  0.62521000  0.65848500  0.75000000  1
  O  O14  1  0.44121800  0.90838500  0.75000000  1
  O  O15  1  0.34440400  0.65559600  0.39691700  1
loop_
_geom_bond_atom_site_label_1
_geom_bond_atom_site_label_2
_geom_bond_distance
_geom_bond_site_symmetry_2
Na0 O9 2.509577 1_555
Na0 O14 2.509577 1_555
Na0 O4 2.545001 1_465
Na0 O8 2.545001 1_465
Na0 O0 2.616445 1_556
Na0 O3 2.616445 1_555
Na1 O12 2.509577 1_555
Na1 O7 2.509577 1_555
Na1 O0 2.545001 1_645
Na1 O3 2.545001 1_645
Na1 O4 2.616445 1_555
Na1 O8 2.616445 1_554
B0 O6 1.483054 1_555
B0 O15 1.483054 1_555
B0 O5 1.490672 1_555
B0 O10 1.490672 1_555
B1 O2 1.483054 1_555
B1 O11 1.483054 1_555
B1 O13 1.490672 1_555
B1 O1 1.490672 1_555
C0 O3 1.220972 1_555
C0 O15 1.330519 1_555
C1 O0 1.220972 1_555
C1 O6 1.330519 1_555
C2 O4 1.220972 1_555
C2 O11 1.330519 1_555
C3 O12 1.219770 1_555
C3 O10 1.329915 1_555
C4 O8 1.220972 1_555
C4 O2 1.330519 1_555
C5 O7 1.219770 1_555
C5 O5 1.329915 1_555
C6 O14 1.219770 1_555
C6 O13 1.329915 1_555
C7 O9 1.219770 1_555
C7 O1 1.329915 1_555
