# generated using pymatgen
data_CsCrP2O7
_symmetry_space_group_name_H-M   'P 1'
_cell_length_a   10.05861100
_cell_length_b   7.79410400
_cell_length_c   8.46306904
_cell_angle_alpha   74.92716805
_cell_angle_beta   90.00000000
_cell_angle_gamma   90.00000000
_symmetry_Int_Tables_number   1
_chemical_formula_structural   CsCrP2O7
_chemical_formula_sum   'Cs4 Cr4 P8 O28'
_cell_volume   640.65994440
_cell_formula_units_Z   4
loop_
 _symmetry_equiv_pos_site_id
 _symmetry_equiv_pos_as_xyz
  1  'x, y, z'
loop_
 _atom_site_type_symbol
 _atom_site_label
 _atom_site_symmetry_multiplicity
 _atom_site_fract_x
 _atom_site_fract_y
 _atom_site_fract_z
 _atom_site_occupancy
  Cs  Cs0  1  0.20578500  0.80091500  0.03905300  1
  Cs  Cs1  1  0.79421500  0.19908500  0.96094700  1
  Cs  Cs2  1  0.29421500  0.80091500  0.53905300  1
  Cs  Cs3  1  0.70578500  0.19908500  0.46094700  1
  Cr  Cr0  1  0.39821700  0.24154600  0.74164900  1
  Cr  Cr1  1  0.89821700  0.75845400  0.75835100  1
  Cr  Cr2  1  0.60178300  0.75845400  0.25835100  1
  Cr  Cr3  1  0.10178300  0.24154600  0.24164900  1
  P  P0  1  0.59555300  0.87196600  0.83252000  1
  P  P1  1  0.90444700  0.87196600  0.33252000  1
  P  P2  1  0.12574600  0.42211500  0.81762500  1
  P  P3  1  0.40444700  0.12803400  0.16748000  1
  P  P4  1  0.37425400  0.42211500  0.31762500  1
  P  P5  1  0.87425400  0.57788500  0.18237500  1
  P  P6  1  0.62574600  0.57788500  0.68237500  1
  P  P7  1  0.09555300  0.12803400  0.66748000  1
  O  O0  1  0.93343800  0.39083500  0.23225700  1
  O  O1  1  0.04610700  0.31201700  0.70634700  1
  O  O2  1  0.72724000  0.56602500  0.23571000  1
  O  O3  1  0.56656200  0.39083500  0.73225700  1
  O  O4  1  0.10130900  0.32008500  0.99413600  1
  O  O5  1  0.58442400  0.84460100  0.01526400  1
  O  O6  1  0.89869100  0.67991500  0.00586400  1
  O  O7  1  0.60130900  0.67991500  0.50586400  1
  O  O8  1  0.00500700  0.98140300  0.76748200  1
  O  O9  1  0.77276000  0.56602500  0.73571000  1
  O  O10  1  0.73819900  0.90801100  0.76537800  1
  O  O11  1  0.08442400  0.15539900  0.48473600  1
  O  O12  1  0.26180100  0.09198900  0.23462200  1
  O  O13  1  0.06656200  0.60916500  0.76774300  1
  O  O14  1  0.39869100  0.32008500  0.49413600  1
  O  O15  1  0.95389300  0.68798300  0.29365300  1
  O  O16  1  0.45389300  0.31201700  0.20634700  1
  O  O17  1  0.99499300  0.01859700  0.23251800  1
  O  O18  1  0.50500700  0.01859700  0.73251800  1
  O  O19  1  0.22724000  0.43397500  0.26429000  1
  O  O20  1  0.54610700  0.68798300  0.79365300  1
  O  O21  1  0.43343800  0.60916500  0.26774300  1
  O  O22  1  0.23819900  0.09198900  0.73462200  1
  O  O23  1  0.49499300  0.98140300  0.26748200  1
  O  O24  1  0.41557600  0.15539900  0.98473600  1
  O  O25  1  0.91557600  0.84460100  0.51526400  1
  O  O26  1  0.76180100  0.90801100  0.26537800  1
  O  O27  1  0.27276000  0.43397500  0.76429000  1
loop_
_geom_bond_atom_site_label_1
_geom_bond_atom_site_label_2
_geom_bond_distance
_geom_bond_site_symmetry_2
Cs0 O22 2.975081 1_564
Cs0 O19 3.004031 1_555
Cs0 O8 3.107773 1_554
Cs0 O21 3.117463 1_555
Cs0 O12 3.186940 1_565
Cs0 O6 3.263069 1_455
Cs0 O15 3.294031 1_455
Cs0 O13 3.354336 1_554
Cs0 O17 3.391119 1_465
Cs0 O24 3.411343 1_564
Cs1 O26 2.975081 1_546
Cs1 O9 3.004031 1_555
Cs1 O17 3.107773 1_556
Cs1 O3 3.117463 1_555
Cs1 O10 3.186940 1_545
Cs1 O4 3.263069 1_655
Cs1 O1 3.294031 1_655
Cs1 O0 3.354336 1_556
Cs1 O8 3.391119 1_645
Cs1 O5 3.411343 1_546
Cs2 O12 2.975081 1_565
Cs2 O27 3.004031 1_555
Cs2 O23 3.107773 1_555
Cs2 O13 3.117463 1_555
Cs2 O22 3.186940 1_565
Cs2 O7 3.263069 1_555
Cs2 O20 3.294031 1_555
Cs2 O21 3.354336 1_555
Cs2 O18 3.391119 1_565
Cs2 O11 3.411343 1_565
Cs3 O10 2.975081 1_545
Cs3 O2 3.004031 1_555
Cs3 O18 3.107773 1_555
Cs3 O0 3.117463 1_555
Cs3 O26 3.186940 1_545
Cs3 O14 3.263069 1_555
Cs3 O16 3.294031 1_555
Cs3 O3 3.354336 1_555
Cs3 O23 3.391119 1_545
Cs3 O25 3.411343 1_545
Cr0 O22 1.997258 1_555
Cr0 O24 1.998806 1_555
Cr0 O27 2.007004 1_555
Cr0 O14 2.023782 1_555
Cr0 O3 2.044368 1_555
Cr0 O18 2.061356 1_555
Cr1 O10 1.997258 1_555
Cr1 O25 1.998806 1_555
Cr1 O9 2.007004 1_555
Cr1 O6 2.023782 1_556
Cr1 O13 2.044368 1_655
Cr1 O8 2.061356 1_655
Cr2 O26 1.997258 1_555
Cr2 O5 1.998806 1_555
Cr2 O2 2.007004 1_555
Cr2 O7 2.023782 1_555
Cr2 O21 2.044368 1_555
Cr2 O23 2.061356 1_555
Cr3 O12 1.997258 1_555
Cr3 O11 1.998806 1_555
Cr3 O19 2.007004 1_555
Cr3 O4 2.023782 1_554
Cr3 O0 2.044368 1_455
Cr3 O17 2.061356 1_455
O0 P5 1.529035 1_555
O1 P7 1.630089 1_555
O1 P2 1.638676 1_555
O2 P5 1.541852 1_555
O3 P6 1.529035 1_555
O4 P2 1.518712 1_555
O5 P0 1.509423 1_554
O6 P5 1.518712 1_555
O7 P6 1.518712 1_555
O8 P7 1.532591 1_565
O9 P6 1.541852 1_555
O10 P0 1.541912 1_555
O11 P7 1.509423 1_555
O12 P3 1.541912 1_555
O13 P2 1.529035 1_555
O14 P4 1.518712 1_555
O15 P1 1.630089 1_555
O15 P5 1.638676 1_555
O16 P3 1.630089 1_555
O16 P4 1.638676 1_555
O17 P1 1.532591 1_545
O18 P0 1.532591 1_545
O19 P4 1.541852 1_555
O20 P0 1.630089 1_555
O20 P6 1.638676 1_555
O21 P4 1.529035 1_555
O22 P7 1.541912 1_555
O23 P3 1.532591 1_565
O24 P3 1.509423 1_556
O25 P1 1.509423 1_555
O26 P1 1.541912 1_555
O27 P2 1.541852 1_555
