# generated using pymatgen
data_Ba4Gd2Cd3S10
_symmetry_space_group_name_H-M   'P 1'
_cell_length_a   9.33977946
_cell_length_b   9.33977946
_cell_length_c   27.02985800
_cell_angle_alpha   90.00000000
_cell_angle_beta   90.00000000
_cell_angle_gamma   153.96721253
_symmetry_Int_Tables_number   1
_chemical_formula_structural   Ba4Gd2Cd3S10
_chemical_formula_sum   'Ba8 Gd4 Cd6 S20'
_cell_volume   1034.82794925
_cell_formula_units_Z   2
loop_
 _symmetry_equiv_pos_site_id
 _symmetry_equiv_pos_as_xyz
  1  'x, y, z'
loop_
 _atom_site_type_symbol
 _atom_site_label
 _atom_site_symmetry_multiplicity
 _atom_site_fract_x
 _atom_site_fract_y
 _atom_site_fract_z
 _atom_site_occupancy
  Ba  Ba0  1  0.57588800  0.42411200  0.15655100  1
  Ba  Ba1  1  0.42411200  0.57588800  0.65655100  1
  Ba  Ba2  1  0.59677100  0.40322900  0.33854400  1
  Ba  Ba3  1  0.16040200  0.83959800  0.89089700  1
  Ba  Ba4  1  0.83959800  0.16040200  0.39089700  1
  Ba  Ba5  1  0.83793700  0.16206300  0.11061000  1
  Ba  Ba6  1  0.40322900  0.59677100  0.83854400  1
  Ba  Ba7  1  0.16206300  0.83793700  0.61061000  1
  Gd  Gd0  1  0.92057800  0.07942200  0.25368900  1
  Gd  Gd1  1  0.07942200  0.92057800  0.75368900  1
  Gd  Gd2  1  0.50368300  0.49631700  0.50003200  1
  Gd  Gd3  1  0.49631700  0.50368300  0.00003200  1
  Cd  Cd0  1  0.21880700  0.78119300  0.23140900  1
  Cd  Cd1  1  0.78119300  0.21880700  0.73140900  1
  Cd  Cd2  1  0.83854100  0.16145900  0.96157000  1
  Cd  Cd3  1  0.16145900  0.83854100  0.46157000  1
  Cd  Cd4  1  0.84439000  0.15561000  0.54398200  1
  Cd  Cd5  1  0.15561000  0.84439000  0.04398200  1
  S  S0  1  0.42417500  0.57582500  0.32101900  1
  S  S1  1  0.34420600  0.65579400  0.01823500  1
  S  S2  1  0.23198800  0.76801200  0.76762900  1
  S  S3  1  0.59045100  0.40954900  0.68440500  1
  S  S4  1  0.92616500  0.07383500  0.74688300  1
  S  S5  1  0.20802600  0.79197400  0.13140100  1
  S  S6  1  0.65579400  0.34420600  0.51823500  1
  S  S7  1  0.78715300  0.21284700  0.87764300  1
  S  S8  1  0.98833600  0.01166400  0.57081200  1
  S  S9  1  0.98268200  0.01731800  0.93336200  1
  S  S10  1  0.34902200  0.65097800  0.48964700  1
  S  S11  1  0.76801200  0.23198800  0.26762900  1
  S  S12  1  0.07383500  0.92616500  0.24688300  1
  S  S13  1  0.21284700  0.78715300  0.37764300  1
  S  S14  1  0.01166400  0.98833600  0.07081200  1
  S  S15  1  0.01731800  0.98268200  0.43336200  1
  S  S16  1  0.65097800  0.34902200  0.98964700  1
  S  S17  1  0.57582500  0.42417500  0.82101900  1
  S  S18  1  0.40954900  0.59045100  0.18440500  1
  S  S19  1  0.79197400  0.20802600  0.63140100  1
loop_
_geom_bond_atom_site_label_1
_geom_bond_atom_site_label_2
_geom_bond_distance
_geom_bond_site_symmetry_2
Ba0 S18 3.119520 1_555
Ba0 S12 3.223077 1_545
Ba0 S12 3.223077 1_655
Ba0 S5 3.266588 1_545
Ba0 S5 3.266588 1_655
Ba0 S14 3.340988 1_545
Ba0 S14 3.340988 1_655
Ba1 S3 3.119520 1_555
Ba1 S4 3.223077 1_565
Ba1 S4 3.223077 1_455
Ba1 S19 3.266588 1_455
Ba1 S19 3.266588 1_565
Ba1 S8 3.340988 1_455
Ba1 S8 3.340988 1_565
Ba2 S13 3.163043 1_655
Ba2 S13 3.163043 1_545
Ba2 S0 3.176695 1_555
Ba2 S12 3.276856 1_545
Ba2 S12 3.276856 1_655
Ba2 S15 3.617267 1_545
Ba2 S15 3.617267 1_655
Ba2 S11 3.658810 1_555
Ba3 S7 3.142431 1_455
Ba3 S7 3.142431 1_565
Ba3 S17 3.219006 1_455
Ba3 S17 3.219006 1_565
Ba3 S16 3.402816 1_455
Ba3 S16 3.402816 1_565
Ba3 S9 3.432063 1_465
Ba3 S2 3.577576 1_555
Ba4 S13 3.142431 1_545
Ba4 S13 3.142431 1_655
Ba4 S0 3.219006 1_655
Ba4 S0 3.219006 1_545
Ba4 S10 3.402816 1_545
Ba4 S10 3.402816 1_655
Ba4 S15 3.432063 1_645
Ba4 S11 3.577576 1_555
Ba5 S18 3.178433 1_655
Ba5 S18 3.178433 1_545
Ba5 S5 3.214185 1_655
Ba5 S5 3.214185 1_545
Ba5 S1 3.266889 1_545
Ba5 S1 3.266889 1_655
Ba5 S14 3.339752 1_645
Ba6 S7 3.163043 1_565
Ba6 S7 3.163043 1_455
Ba6 S17 3.176695 1_555
Ba6 S4 3.276856 1_565
Ba6 S4 3.276856 1_455
Ba6 S9 3.617267 1_455
Ba6 S9 3.617267 1_565
Ba6 S2 3.658810 1_555
Ba7 S3 3.178433 1_565
Ba7 S3 3.178433 1_455
Ba7 S19 3.214185 1_565
Ba7 S19 3.214185 1_455
Ba7 S6 3.266889 1_565
Ba7 S6 3.266889 1_455
Ba7 S8 3.339752 1_465
Gd0 S0 2.782358 1_655
Gd0 S0 2.782358 1_545
Gd0 S12 2.795276 1_645
Gd0 S11 2.802090 1_555
Gd0 S18 2.823571 1_545
Gd0 S18 2.823571 1_655
Gd1 S17 2.782358 1_455
Gd1 S17 2.782358 1_565
Gd1 S4 2.795276 1_465
Gd1 S2 2.802090 1_555
Gd1 S3 2.823571 1_565
Gd1 S3 2.823571 1_455
Gd2 S15 2.781042 1_545
Gd2 S15 2.781042 1_655
Gd2 S6 2.811744 1_555
Gd2 S10 2.828730 1_555
Gd2 S8 2.857161 1_565
Gd2 S8 2.857161 1_455
Gd3 S9 2.781042 1_454
Gd3 S9 2.781042 1_564
Gd3 S1 2.811744 1_555
Gd3 S16 2.828730 1_554
Gd3 S14 2.857161 1_655
Gd3 S14 2.857161 1_545
Cd0 S11 2.487075 1_455
Cd0 S11 2.487075 1_565
Cd0 S12 2.671379 1_555
Cd0 S5 2.710314 1_555
Cd1 S2 2.487075 1_545
Cd1 S2 2.487075 1_655
Cd1 S4 2.671379 1_555
Cd1 S19 2.710314 1_555
Cd2 S7 2.453758 1_555
Cd2 S1 2.604168 1_656
Cd2 S1 2.604168 1_546
Cd2 S9 2.731866 1_555
Cd3 S13 2.453758 1_555
Cd3 S6 2.604168 1_565
Cd3 S6 2.604168 1_455
Cd3 S15 2.731866 1_555
Cd4 S19 2.548220 1_555
Cd4 S10 2.566946 1_655
Cd4 S10 2.566946 1_545
Cd4 S8 2.718285 1_555
Cd5 S5 2.548220 1_555
Cd5 S16 2.566946 1_564
Cd5 S16 2.566946 1_454
Cd5 S14 2.718285 1_555
