# generated using pymatgen
data_Mn9(P2O7)8
_symmetry_space_group_name_H-M   'P 1'
_cell_length_a   9.74426600
_cell_length_b   10.94162725
_cell_length_c   12.62267653
_cell_angle_alpha   100.77172997
_cell_angle_beta   110.66563162
_cell_angle_gamma   108.15083064
_symmetry_Int_Tables_number   1
_chemical_formula_structural   Mn9(P2O7)8
_chemical_formula_sum   'Mn9 P16 O56'
_cell_volume   1127.89674508
_cell_formula_units_Z   1
loop_
 _symmetry_equiv_pos_site_id
 _symmetry_equiv_pos_as_xyz
  1  'x, y, z'
loop_
 _atom_site_type_symbol
 _atom_site_label
 _atom_site_symmetry_multiplicity
 _atom_site_fract_x
 _atom_site_fract_y
 _atom_site_fract_z
 _atom_site_occupancy
  Mn  Mn0  1  0.74338100  0.75511600  0.80999300  1
  Mn  Mn1  1  0.61871300  0.22723300  0.42573000  1
  Mn  Mn2  1  0.25659400  0.27475000  0.69937900  1
  Mn  Mn3  1  0.37999600  0.77754600  0.08598800  1
  Mn  Mn4  1  0.00000000  0.00000000  0.50000000  1
  Mn  Mn5  1  0.62000400  0.22245400  0.91401200  1
  Mn  Mn6  1  0.74340600  0.72525000  0.30062100  1
  Mn  Mn7  1  0.38128700  0.77276700  0.57427000  1
  Mn  Mn8  1  0.25661900  0.24488400  0.19000700  1
  P  P0  1  0.10846300  0.79437700  0.84512700  1
  P  P1  1  0.32804500  0.54019400  0.61324200  1
  P  P2  1  0.28451700  0.97190400  0.24161000  1
  P  P3  1  0.34436900  0.29454400  0.47885900  1
  P  P4  1  0.88882200  0.19923100  0.65467600  1
  P  P5  1  0.64142700  0.46729400  0.85727600  1
  P  P6  1  0.73697600  0.04790400  0.27719800  1
  P  P7  1  0.36052300  0.29878900  0.98224700  1
  P  P8  1  0.63947700  0.70121100  0.01775300  1
  P  P9  1  0.26302400  0.95209600  0.72280200  1
  P  P10  1  0.35857300  0.53270600  0.14272400  1
  P  P11  1  0.11117800  0.80076900  0.34532400  1
  P  P12  1  0.65563100  0.70545600  0.52114100  1
  P  P13  1  0.71548300  0.02809600  0.75839000  1
  P  P14  1  0.67195500  0.45980600  0.38675800  1
  P  P15  1  0.89153700  0.20562300  0.15487300  1
  O  O0  1  0.99133600  0.81550400  0.89232700  1
  O  O1  1  0.27548500  0.83367600  0.94404900  1
  O  O2  1  0.04129100  0.65060200  0.75726600  1
  O  O3  1  0.47272000  0.68526300  0.69120200  1
  O  O4  1  0.77775400  0.41523000  0.48216200  1
  O  O5  1  0.73164500  0.78713700  0.96287800  1
  O  O6  1  0.47869900  0.70905700  0.99644400  1
  O  O7  1  0.23296600  0.05836700  0.16802900  1
  O  O8  1  0.25991400  0.46355400  0.68232500  1
  O  O9  1  0.40104600  0.45366100  0.54966000  1
  O  O10  1  0.97360200  0.33682500  0.74771400  1
  O  O11  1  0.73728200  0.18133600  0.34249300  1
  O  O12  1  0.70448100  0.56363500  0.79602900  1
  O  O13  1  0.58639900  0.54413200  0.94436900  1
  O  O14  1  0.24629400  0.26521800  0.34576200  1
  O  O15  1  0.45222500  0.04684900  0.34815700  1
  O  O16  1  0.72799100  0.16669300  0.54997600  1
  O  O17  1  0.86391200  0.09461800  0.22422500  1
  O  O18  1  0.57587600  0.94765100  0.17712200  1
  O  O19  1  0.00985000  0.16659600  0.60595100  1
  O  O20  1  0.23633600  0.21504800  0.53018500  1
  O  O21  1  0.50213500  0.27544300  0.51231400  1
  O  O22  1  0.26684800  0.83640300  0.16578000  1
  O  O23  1  0.25016600  0.26835600  0.84997800  1
  O  O24  1  0.48709600  0.33594700  0.76827500  1
  O  O25  1  0.75525400  0.41135100  0.92866600  1
  O  O26  1  0.84480600  0.07331200  0.70510000  1
  O  O27  1  0.80858300  0.97415000  0.36176300  1
  O  O28  1  0.19141700  0.02585000  0.63823700  1
  O  O29  1  0.15519400  0.92668800  0.29490000  1
  O  O30  1  0.24474600  0.58864900  0.07133400  1
  O  O31  1  0.51290400  0.66405300  0.23172500  1
  O  O32  1  0.74983400  0.73164400  0.15002200  1
  O  O33  1  0.73315200  0.16359700  0.83422000  1
  O  O34  1  0.49786500  0.72455700  0.48768600  1
  O  O35  1  0.76366400  0.78495200  0.46981500  1
  O  O36  1  0.99015000  0.83340400  0.39404900  1
  O  O37  1  0.42412400  0.05234900  0.82287800  1
  O  O38  1  0.13608800  0.90538200  0.77577500  1
  O  O39  1  0.27200900  0.83330700  0.45002400  1
  O  O40  1  0.54777500  0.95315100  0.65184300  1
  O  O41  1  0.75370600  0.73478200  0.65423800  1
  O  O42  1  0.41360100  0.45586800  0.05563100  1
  O  O43  1  0.29551900  0.43636500  0.20397100  1
  O  O44  1  0.26271800  0.81866400  0.65750700  1
  O  O45  1  0.02639800  0.66317500  0.25228600  1
  O  O46  1  0.59895400  0.54633900  0.45034000  1
  O  O47  1  0.74008600  0.53644600  0.31767500  1
  O  O48  1  0.76703400  0.94163300  0.83197100  1
  O  O49  1  0.52130100  0.29094300  0.00355600  1
  O  O50  1  0.26835500  0.21286300  0.03712200  1
  O  O51  1  0.22224600  0.58477000  0.51783800  1
  O  O52  1  0.52728000  0.31473700  0.30879800  1
  O  O53  1  0.95870900  0.34939800  0.24273400  1
  O  O54  1  0.72451500  0.16632400  0.05595100  1
  O  O55  1  0.00866400  0.18449600  0.10767300  1
loop_
_geom_bond_atom_site_label_1
_geom_bond_atom_site_label_2
_geom_bond_distance
_geom_bond_site_symmetry_2
Mn0 O48 1.935234 1_555
Mn0 O5 1.946286 1_555
Mn0 O12 1.970853 1_555
Mn0 O41 1.978639 1_555
Mn0 O0 2.081038 1_555
Mn0 O3 2.304948 1_555
Mn1 O15 1.909865 1_555
Mn1 O16 1.918678 1_555
Mn1 O11 1.926672 1_555
Mn1 O21 1.948664 1_555
Mn1 O4 1.956353 1_555
Mn1 O52 2.005130 1_555
Mn2 O24 1.927722 1_555
Mn2 O23 1.937395 1_555
Mn2 O20 2.031609 1_555
Mn2 O19 2.067923 1_555
Mn2 O8 2.108202 1_555
Mn2 O28 2.491286 1_555
Mn3 O22 1.904858 1_555
Mn3 O6 1.914131 1_554
Mn3 O18 1.966513 1_555
Mn3 O30 2.007701 1_555
Mn3 O1 2.034068 1_554
Mn4 O27 1.947663 1_445
Mn4 O28 1.947663 1_555
Mn4 O19 2.002417 1_555
Mn4 O36 2.002417 1_445
Mn4 O20 2.579651 1_555
Mn4 O35 2.579651 1_445
Mn5 O33 1.904858 1_555
Mn5 O49 1.914131 1_556
Mn5 O37 1.966513 1_555
Mn5 O25 2.007701 1_555
Mn5 O54 2.034068 1_556
Mn6 O31 1.927722 1_555
Mn6 O32 1.937395 1_555
Mn6 O35 2.031609 1_555
Mn6 O36 2.067923 1_555
Mn6 O47 2.108202 1_555
Mn6 O27 2.491286 1_555
Mn7 O40 1.909865 1_555
Mn7 O39 1.918678 1_555
Mn7 O44 1.926672 1_555
Mn7 O34 1.948664 1_555
Mn7 O51 1.956353 1_555
Mn7 O3 2.005130 1_555
Mn8 O7 1.935234 1_555
Mn8 O50 1.946286 1_555
Mn8 O43 1.970853 1_555
Mn8 O14 1.978639 1_555
Mn8 O55 2.081038 1_555
Mn8 O52 2.304948 1_555
O0 P0 1.517846 1_655
O1 P0 1.523723 1_555
O2 P0 1.525482 1_555
O3 P1 1.586840 1_555
O4 P14 1.551604 1_555
O5 P8 1.525368 1_556
O6 P8 1.526154 1_556
O7 P2 1.518290 1_545
O8 P1 1.496475 1_555
O9 P1 1.607833 1_555
O9 P3 1.614235 1_555
O10 P4 1.485814 1_555
O11 P6 1.535113 1_555
O12 P5 1.524055 1_555
O13 P5 1.598240 1_555
O13 P8 1.610089 1_556
O14 P3 1.520852 1_555
O15 P2 1.534061 1_545
O16 P4 1.531021 1_555
O17 P6 1.598718 1_555
O17 P15 1.635254 1_555
O18 P6 1.507582 1_565
O19 P4 1.608986 1_455
O20 P3 1.551141 1_555
O21 P3 1.536324 1_555
O22 P2 1.529093 1_555
O23 P7 1.535135 1_555
O24 P5 1.564137 1_555
O25 P5 1.529920 1_555
O26 P13 1.618488 1_555
O26 P4 1.624683 1_555
O27 P6 1.557119 1_565
O28 P9 1.557119 1_545
O29 P2 1.618488 1_555
O29 P11 1.624683 1_555
O30 P10 1.529920 1_555
O31 P10 1.564137 1_555
O32 P8 1.535135 1_555
O33 P13 1.529093 1_555
O34 P12 1.536324 1_555
O35 P12 1.551141 1_555
O36 P11 1.608986 1_655
O37 P9 1.507582 1_545
O38 P9 1.598718 1_555
O38 P0 1.635254 1_555
O39 P11 1.531021 1_555
O40 P13 1.534061 1_565
O41 P12 1.520852 1_555
O42 P10 1.598240 1_555
O42 P7 1.610089 1_554
O43 P10 1.524055 1_555
O44 P9 1.535113 1_555
O45 P11 1.485814 1_555
O46 P14 1.607833 1_555
O46 P12 1.614235 1_555
O47 P14 1.496475 1_555
O48 P13 1.518290 1_565
O49 P7 1.526154 1_554
O50 P7 1.525368 1_554
O51 P1 1.551604 1_555
O52 P14 1.586840 1_555
O53 P15 1.525482 1_555
O54 P15 1.523723 1_555
O55 P15 1.517846 1_455
