# generated using pymatgen
data_Cs2AgAsS4
_symmetry_space_group_name_H-M   'P 1'
_cell_length_a   6.93444700
_cell_length_b   7.35331080
_cell_length_c   11.34349378
_cell_angle_alpha   73.16321791
_cell_angle_beta   74.43826998
_cell_angle_gamma   71.12703988
_symmetry_Int_Tables_number   1
_chemical_formula_structural   Cs2AgAsS4
_chemical_formula_sum   'Cs4 Ag2 As2 S8'
_cell_volume   514.03412362
_cell_formula_units_Z   2
loop_
 _symmetry_equiv_pos_site_id
 _symmetry_equiv_pos_as_xyz
  1  'x, y, z'
loop_
 _atom_site_type_symbol
 _atom_site_label
 _atom_site_symmetry_multiplicity
 _atom_site_fract_x
 _atom_site_fract_y
 _atom_site_fract_z
 _atom_site_occupancy
  Cs  Cs0  1  0.76206200  0.51382800  0.18861300  1
  Cs  Cs1  1  0.26995200  0.23967500  0.40374100  1
  Cs  Cs2  1  0.23793800  0.48617200  0.81138700  1
  Cs  Cs3  1  0.73004800  0.76032500  0.59625900  1
  Ag  Ag0  1  0.63844400  0.08201600  0.07834300  1
  Ag  Ag1  1  0.36155600  0.91798400  0.92165700  1
  As  As0  1  0.14000700  0.86530400  0.23105800  1
  As  As1  1  0.85999300  0.13469600  0.76894200  1
  S  S0  1  0.79491000  0.94934000  0.27117700  1
  S  S1  1  0.25443400  0.74248000  0.40606800  1
  S  S2  1  0.25836900  0.64595000  0.11370600  1
  S  S3  1  0.74163100  0.35405000  0.88629400  1
  S  S4  1  0.75703200  0.86761600  0.87957600  1
  S  S5  1  0.20509000  0.05066000  0.72882300  1
  S  S6  1  0.74556600  0.25752000  0.59393200  1
  S  S7  1  0.24296800  0.13238400  0.12042400  1
loop_
_geom_bond_atom_site_label_1
_geom_bond_atom_site_label_2
_geom_bond_distance
_geom_bond_site_symmetry_2
Cs0 S2 3.575560 1_555
Cs0 S7 3.661707 1_655
Cs0 S0 3.675407 1_555
Cs0 S2 3.691401 1_655
Cs0 S4 3.712402 1_554
Cs0 S1 3.900954 1_555
Cs0 S0 3.925481 1_545
Cs0 S3 3.982882 1_554
Cs1 S5 3.503953 1_555
Cs1 S7 3.587891 1_555
Cs1 S1 3.671483 1_555
Cs1 S6 3.679752 1_455
Cs1 S1 3.684551 1_545
Cs1 S0 3.737061 1_545
Cs1 S2 3.748116 1_555
Cs2 S3 3.575560 1_555
Cs2 S4 3.661707 1_455
Cs2 S5 3.675407 1_555
Cs2 S3 3.691401 1_455
Cs2 S7 3.712402 1_556
Cs2 S6 3.900954 1_555
Cs2 S5 3.925481 1_565
Cs2 S2 3.982882 1_556
Cs3 S0 3.503953 1_555
Cs3 S4 3.587891 1_555
Cs3 S6 3.671483 1_555
Cs3 S1 3.679752 1_655
Cs3 S6 3.684551 1_565
Cs3 S5 3.737061 1_565
Cs3 S3 3.748116 1_555
Ag0 S0 2.503236 1_545
Ag0 S7 2.574637 1_555
Ag0 S3 2.612370 1_554
Ag0 S4 2.910514 1_544
Ag0 Cs0 3.871238 1_545
Ag0 Cs0 4.125370 1_555
Ag1 S5 2.503236 1_565
Ag1 S4 2.574637 1_555
Ag1 S2 2.612370 1_556
Ag1 S7 2.910514 1_566
Ag1 Cs2 3.871238 1_565
Ag1 Cs2 4.125370 1_555
As0 S1 2.174709 1_555
As0 S2 2.201939 1_555
As0 S0 2.222065 1_455
As0 S7 2.222684 1_565
As1 S6 2.174709 1_555
As1 S3 2.201939 1_555
As1 S5 2.222065 1_655
As1 S4 2.222684 1_545
