# generated using pymatgen
data_La5(SiN3)3
_symmetry_space_group_name_H-M   'P 1'
_cell_length_a   7.81782652
_cell_length_b   7.81782652
_cell_length_c   16.01957896
_cell_angle_alpha   90.00000000
_cell_angle_beta   90.00000000
_cell_angle_gamma   93.92045787
_symmetry_Int_Tables_number   1
_chemical_formula_structural   La5(SiN3)3
_chemical_formula_sum   'La20 Si12 N36'
_cell_volume   976.80007654
_cell_formula_units_Z   4
loop_
 _symmetry_equiv_pos_site_id
 _symmetry_equiv_pos_as_xyz
  1  'x, y, z'
loop_
 _atom_site_type_symbol
 _atom_site_label
 _atom_site_symmetry_multiplicity
 _atom_site_fract_x
 _atom_site_fract_y
 _atom_site_fract_z
 _atom_site_occupancy
  La  La0  1  0.53332142  0.04548625  0.36947035  1
  La  La1  1  0.51829832  0.48170168  0.16219538  1
  La  La2  1  0.50322728  0.49677272  0.61363581  1
  La  La3  1  0.79328145  0.79328145  0.50000000  1
  La  La4  1  0.96667858  0.45451375  0.86947035  1
  La  La5  1  0.49677272  0.50322728  0.38636419  1
  La  La6  1  0.00322728  0.99677272  0.88636419  1
  La  La7  1  0.04548625  0.53332142  0.63052965  1
  La  La8  1  0.95451375  0.46667858  0.36947035  1
  La  La9  1  0.01829832  0.98170168  0.33780462  1
  La  La10  1  0.45451375  0.96667858  0.13052965  1
  La  La11  1  0.48170168  0.51829832  0.83780462  1
  La  La12  1  0.54548625  0.03332142  0.86947035  1
  La  La13  1  0.70671855  0.70671855  0.00000000  1
  La  La14  1  0.29328145  0.29328145  0.00000000  1
  La  La15  1  0.98170168  0.01829832  0.66219538  1
  La  La16  1  0.46667858  0.95451375  0.63052965  1
  La  La17  1  0.20671855  0.20671855  0.50000000  1
  La  La18  1  0.03332142  0.54548625  0.13052965  1
  La  La19  1  0.99677272  0.00322728  0.11363581  1
  Si  Si0  1  0.73798694  0.26201306  0.51762468  1
  Si  Si1  1  0.76201306  0.23798694  0.01762468  1
  Si  Si2  1  0.27810479  0.72189521  0.27376929  1
  Si  Si3  1  0.26201306  0.73798694  0.48237532  1
  Si  Si4  1  0.77810479  0.22189521  0.22623071  1
  Si  Si5  1  0.71471970  0.78528030  0.25000000  1
  Si  Si6  1  0.23798694  0.76201306  0.98237532  1
  Si  Si7  1  0.72189521  0.27810479  0.72623071  1
  Si  Si8  1  0.22189521  0.77810479  0.77376929  1
  Si  Si9  1  0.78528030  0.71471970  0.75000000  1
  Si  Si10  1  0.21471970  0.28528030  0.25000000  1
  Si  Si11  1  0.28528030  0.21471970  0.75000000  1
  N  N0  1  0.50540870  0.24533490  0.74243782  1
  N  N1  1  0.27012037  0.72987963  0.87572113  1
  N  N2  1  0.99459130  0.25466510  0.24243782  1
  N  N3  1  0.22987963  0.77012037  0.37572113  1
  N  N4  1  0.24533490  0.50540870  0.25756218  1
  N  N5  1  0.77012037  0.22987963  0.62427887  1
  N  N6  1  0.66282766  0.33717234  0.29449176  1
  N  N7  1  0.77393880  0.70205873  0.15469116  1
  N  N8  1  0.51573133  0.22186830  0.50033037  1
  N  N9  1  0.63639661  0.36360339  0.95561340  1
  N  N10  1  0.20205873  0.27393880  0.65469116  1
  N  N11  1  0.29794127  0.22606120  0.15469116  1
  N  N12  1  0.13639661  0.86360339  0.54438660  1
  N  N13  1  0.79794127  0.72606120  0.34530884  1
  N  N14  1  0.22606120  0.29794127  0.84530884  1
  N  N15  1  0.49459130  0.75466510  0.25756218  1
  N  N16  1  0.83717234  0.16282766  0.79449176  1
  N  N17  1  0.70205873  0.77393880  0.84530884  1
  N  N18  1  0.16282766  0.83717234  0.20550824  1
  N  N19  1  0.48426867  0.77813170  0.49966963  1
  N  N20  1  0.75466510  0.49459130  0.74243782  1
  N  N21  1  0.00540870  0.74533490  0.75756218  1
  N  N22  1  0.27393880  0.20205873  0.34530884  1
  N  N23  1  0.77813170  0.48426867  0.50033037  1
  N  N24  1  0.01573133  0.72186830  -0.00033037  1
  N  N25  1  0.74533490  0.00540870  0.24243782  1
  N  N26  1  0.72186830  0.01573133  0.00033037  1
  N  N27  1  0.25466510  0.99459130  0.75756218  1
  N  N28  1  0.27813170  0.98426867  -0.00033037  1
  N  N29  1  0.36360339  0.63639661  0.04438660  1
  N  N30  1  0.72606120  0.79794127  0.65469116  1
  N  N31  1  0.22186830  0.51573133  0.49966963  1
  N  N32  1  0.72987963  0.27012037  0.12427887  1
  N  N33  1  0.98426867  0.27813170  0.00033037  1
  N  N34  1  0.33717234  0.66282766  0.70550824  1
  N  N35  1  0.86360339  0.13639661  0.45561340  1
loop_
_geom_bond_atom_site_label_1
_geom_bond_atom_site_label_2
_geom_bond_distance
_geom_bond_site_symmetry_2
La0 N22 2.469727 1_555
La0 N8 2.518103 1_555
La0 N25 2.656632 1_555
La0 N6 2.711470 1_555
La0 N15 2.894927 1_545
La0 N19 2.959123 1_545
La0 N35 2.970806 1_555
La0 N3 3.094136 1_545
La1 N32 2.493033 1_555
La1 N7 2.550610 1_555
La1 N11 2.550610 1_555
La1 N29 2.585903 1_555
La1 N4 2.641265 1_555
La1 N15 2.641265 1_555
La1 N6 2.686916 1_555
La2 N34 2.401481 1_555
La2 N23 2.819886 1_555
La2 N8 2.819886 1_555
La2 N19 2.870192 1_555
La2 N31 2.870192 1_555
La3 N23 2.410614 1_555
La3 N19 2.410614 1_555
La3 N13 2.533975 1_555
La3 N30 2.533975 1_555
La3 N12 2.793123 1_655
La3 N35 2.793123 1_565
La4 N14 2.469727 1_655
La4 N33 2.518103 1_556
La4 N20 2.656632 1_555
La4 N16 2.711470 1_555
La4 N21 2.894927 1_655
La4 N24 2.959123 1_656
La4 N9 2.970806 1_555
La4 N1 3.094136 1_655
La5 N6 2.401481 1_555
La5 N19 2.819886 1_555
La5 N31 2.819886 1_555
La5 N23 2.870192 1_555
La5 N8 2.870192 1_555
La6 N16 2.401481 1_465
La6 N28 2.819886 1_556
La6 N24 2.819886 1_556
La6 N33 2.870192 1_466
La6 N26 2.870192 1_466
La7 N10 2.469727 1_555
La7 N31 2.518103 1_555
La7 N21 2.656632 1_555
La7 N34 2.711470 1_555
La7 N20 2.894927 1_455
La7 N23 2.959123 1_455
La7 N12 2.970806 1_555
La7 N5 3.094136 1_455
La8 N13 2.469727 1_555
La8 N23 2.518103 1_555
La8 N2 2.656632 1_555
La8 N6 2.711470 1_555
La8 N4 2.894927 1_655
La8 N31 2.959123 1_655
La8 N35 2.970806 1_555
La8 N3 3.094136 1_655
La9 N3 2.493033 1_555
La9 N13 2.550610 1_455
La9 N22 2.550610 1_565
La9 N35 2.585903 1_465
La9 N2 2.641265 1_465
La9 N25 2.641265 1_465
La9 N18 2.686916 1_555
La10 N11 2.469727 1_565
La10 N28 2.518103 1_555
La10 N15 2.656632 1_555
La10 N18 2.711470 1_555
La10 N25 2.894927 1_565
La10 N26 2.959123 1_565
La10 N29 2.970806 1_555
La10 N32 3.094136 1_565
La11 N1 2.493033 1_555
La11 N17 2.550610 1_555
La11 N14 2.550610 1_555
La11 N9 2.585903 1_555
La11 N0 2.641265 1_555
La11 N20 2.641265 1_555
La11 N34 2.686916 1_555
La12 N17 2.469727 1_545
La12 N26 2.518103 1_556
La12 N0 2.656632 1_555
La12 N16 2.711470 1_555
La12 N27 2.894927 1_545
La12 N28 2.959123 1_546
La12 N9 2.970806 1_555
La12 N1 3.094136 1_545
La13 N26 2.410614 1_565
La13 N24 2.410614 1_655
La13 N17 2.533975 1_554
La13 N7 2.533975 1_555
La13 N29 2.793123 1_555
La13 N9 2.793123 1_554
La14 N33 2.410614 1_455
La14 N28 2.410614 1_545
La14 N14 2.533975 1_554
La14 N11 2.533975 1_555
La14 N29 2.793123 1_555
La14 N9 2.793123 1_554
La15 N5 2.493033 1_555
La15 N30 2.550610 1_545
La15 N10 2.550610 1_655
La15 N12 2.585903 1_645
La15 N27 2.641265 1_645
La15 N21 2.641265 1_645
La15 N16 2.686916 1_555
La16 N30 2.469727 1_555
La16 N19 2.518103 1_555
La16 N27 2.656632 1_555
La16 N34 2.711470 1_555
La16 N0 2.894927 1_565
La16 N8 2.959123 1_565
La16 N12 2.970806 1_555
La16 N5 3.094136 1_565
La17 N8 2.410614 1_555
La17 N31 2.410614 1_555
La17 N22 2.533975 1_555
La17 N10 2.533975 1_555
La17 N12 2.793123 1_545
La17 N35 2.793123 1_455
La18 N7 2.469727 1_455
La18 N24 2.518103 1_555
La18 N4 2.656632 1_555
La18 N18 2.711470 1_555
La18 N2 2.894927 1_455
La18 N33 2.959123 1_455
La18 N29 2.970806 1_555
La18 N32 3.094136 1_455
La19 N18 2.401481 1_645
La19 N33 2.819886 1_555
La19 N26 2.819886 1_555
La19 N28 2.870192 1_645
La19 N24 2.870192 1_645
N0 Si7 1.714104 1_555
N0 Si11 1.725463 1_555
N1 Si8 1.723701 1_555
N1 Si6 1.747572 1_555
N2 Si4 1.714104 1_555
N2 Si10 1.725463 1_655
N3 Si2 1.723701 1_555
N3 Si3 1.747572 1_555
N4 Si2 1.714104 1_555
N4 Si10 1.725463 1_555
N5 Si7 1.723701 1_555
N5 Si0 1.747572 1_555
N6 Si4 1.712079 1_555
N7 Si5 1.734924 1_555
N8 Si0 1.766291 1_555
N9 Si1 1.745722 1_556
N10 Si11 1.734924 1_555
N11 Si10 1.734924 1_555
N12 Si3 1.745722 1_555
N13 Si5 1.734924 1_555
N14 Si11 1.734924 1_555
N15 Si2 1.714104 1_555
N15 Si5 1.725463 1_555
N16 Si7 1.712079 1_555
N17 Si9 1.734924 1_555
N18 Si2 1.712079 1_555
N19 Si3 1.766291 1_555
N20 Si7 1.714104 1_555
N20 Si9 1.725463 1_555
N21 Si8 1.714104 1_555
N21 Si9 1.725463 1_455
N22 Si10 1.734924 1_555
N23 Si0 1.766291 1_555
N24 Si6 1.766291 1_554
N25 Si4 1.714104 1_555
N25 Si5 1.725463 1_545
N26 Si1 1.766291 1_555
N27 Si8 1.714104 1_555
N27 Si11 1.725463 1_565
N28 Si6 1.766291 1_554
N29 Si6 1.745722 1_554
N30 Si9 1.734924 1_555
N31 Si3 1.766291 1_555
N32 Si4 1.723701 1_555
N32 Si1 1.747572 1_555
N33 Si1 1.766291 1_555
N34 Si8 1.712079 1_555
N35 Si0 1.745722 1_555
