# generated using pymatgen
data_TbB4
_symmetry_space_group_name_H-M   'P 1'
_cell_length_a   4.02548072
_cell_length_b   7.11118377
_cell_length_c   7.11118377
_cell_angle_alpha   90.00000000
_cell_angle_beta   90.00000000
_cell_angle_gamma   90.00000000
_symmetry_Int_Tables_number   1
_chemical_formula_structural   TbB4
_chemical_formula_sum   'Tb4 B16'
_cell_volume   203.56427131
_cell_formula_units_Z   4
loop_
 _symmetry_equiv_pos_site_id
 _symmetry_equiv_pos_as_xyz
  1  'x, y, z'
loop_
 _atom_site_type_symbol
 _atom_site_label
 _atom_site_symmetry_multiplicity
 _atom_site_fract_x
 _atom_site_fract_y
 _atom_site_fract_z
 _atom_site_occupancy
  Tb  Tb0  1  -0.00000000  0.31750002  0.81750002  1
  Tb  Tb1  1  0.00000000  0.18249998  0.31750002  1
  Tb  Tb2  1  -0.00000000  0.81750002  0.68249998  1
  Tb  Tb3  1  0.00000000  0.68249998  0.18249998  1
  B  B0  1  0.50000000  0.32437603  0.53847678  1
  B  B1  1  0.50000000  0.03847778  0.82437603  1
  B  B2  1  0.50000000  0.17562397  0.03847778  1
  B  B3  1  0.50000000  0.46152222  0.32437603  1
  B  B4  1  0.50000000  0.53847678  0.67562397  1
  B  B5  1  0.79688536  0.50000000  0.50000000  1
  B  B6  1  0.50000000  0.82437603  0.96152322  1
  B  B7  1  0.50000000  0.08721773  0.58721773  1
  B  B8  1  0.50000000  0.91278227  0.41278227  1
  B  B9  1  0.50000000  0.41278227  0.08721773  1
  B  B10  1  0.50000000  0.67562397  0.46152222  1
  B  B11  1  0.50000000  0.96152322  0.17562397  1
  B  B12  1  0.79688536  -0.00000000  -0.00000000  1
  B  B13  1  0.20311464  0.50000000  0.50000000  1
  B  B14  1  0.50000000  0.58721773  0.91278227  1
  B  B15  1  0.20311464  -0.00000000  -0.00000000  1
loop_
_geom_bond_atom_site_label_1
_geom_bond_atom_site_label_2
_geom_bond_distance
_geom_bond_site_symmetry_2
B0 B7 1.721725 1_555
B0 B5 1.750109 1_555
B0 B13 1.750109 1_555
B0 B3 1.808090 1_555
B0 B4 1.808094 1_555
B0 Tb1 2.745603 1_555
B0 Tb1 2.745603 1_655
B0 Tb0 2.826748 1_655
B0 Tb0 2.826748 1_555
B1 B7 1.721724 1_555
B1 B15 1.750110 1_556
B1 B12 1.750110 1_556
B1 B2 1.808096 1_556
B1 B6 1.808100 1_545
B1 Tb2 2.745607 1_545
B1 Tb2 2.745607 1_645
B1 Tb0 2.826743 1_555
B1 Tb0 2.826743 1_655
B2 B9 1.721724 1_555
B2 Tb0 2.745607 1_554
B2 Tb0 2.745607 1_654
B2 Tb1 2.826743 1_555
B2 Tb1 2.826743 1_655
B3 B9 1.721724 1_555
B3 B5 1.750110 1_555
B3 Tb3 2.745607 1_555
B3 Tb3 2.745607 1_655
B3 Tb1 2.826743 1_555
B3 Tb1 2.826743 1_655
B4 B5 1.750109 1_555
B4 Tb0 2.745603 1_655
B4 Tb0 2.745603 1_555
B4 Tb2 2.826748 1_555
B4 Tb2 2.826748 1_655
B5 Tb1 2.729552 1_655
B5 Tb2 2.729552 1_655
B5 Tb3 2.729552 1_655
B5 Tb0 2.729552 1_655
B6 Tb3 2.745603 1_656
B6 Tb3 2.745603 1_556
B6 Tb2 2.826748 1_555
B6 Tb2 2.826748 1_655
B7 B8 1.754251 1_545
B7 Tb2 2.861642 1_545
B7 Tb1 2.861642 1_555
B7 Tb2 2.861642 1_645
B7 Tb1 2.861642 1_655
B7 Tb0 3.068299 1_555
B7 Tb0 3.068299 1_655
B8 Tb1 2.861642 1_565
B8 Tb1 2.861642 1_665
B8 Tb2 2.861642 1_555
B8 Tb2 2.861642 1_655
B8 Tb3 3.068299 1_555
B8 Tb3 3.068299 1_655
B9 Tb3 2.861642 1_655
B9 Tb3 2.861642 1_555
B9 Tb0 2.861642 1_554
B9 Tb0 2.861642 1_654
B9 Tb1 3.068299 1_555
B9 Tb1 3.068299 1_655
B10 B8 1.721724 1_555
B10 B13 1.750110 1_555
B10 B5 1.750110 1_555
B10 B3 1.808096 1_555
B10 B4 1.808100 1_555
B10 Tb2 2.745607 1_555
B10 Tb2 2.745607 1_655
B10 Tb3 2.826743 1_655
B10 Tb3 2.826743 1_555
B11 B8 1.721725 1_555
B11 B12 1.750109 1_565
B11 B15 1.750109 1_565
B11 B2 1.808090 1_565
B11 B6 1.808094 1_554
B11 Tb1 2.745603 1_565
B11 Tb1 2.745603 1_665
B11 Tb3 2.826748 1_555
B11 Tb3 2.826748 1_655
B12 B15 1.635268 1_655
B12 B6 1.750109 1_544
B12 B2 1.750110 1_555
B12 Tb2 2.729552 1_644
B12 Tb1 2.729552 1_655
B12 Tb3 2.729552 1_645
B12 Tb0 2.729552 1_654
B13 B5 1.635268 1_455
B13 B4 1.750109 1_555
B13 B3 1.750110 1_555
B13 Tb2 2.729552 1_555
B13 Tb0 2.729552 1_555
B13 Tb3 2.729552 1_555
B13 Tb1 2.729552 1_555
B14 B6 1.721725 1_555
B14 B4 1.721725 1_555
B14 B9 1.754251 1_556
B14 Tb0 2.861642 1_555
B14 Tb3 2.861642 1_556
B14 Tb3 2.861642 1_656
B14 Tb0 2.861642 1_655
B14 Tb2 3.068299 1_555
B14 Tb2 3.068299 1_655
B15 B6 1.750109 1_544
B15 B2 1.750110 1_555
B15 Tb3 2.729552 1_545
B15 Tb0 2.729552 1_554
B15 Tb2 2.729552 1_544
B15 Tb1 2.729552 1_555
