# generated using pymatgen
data_Zn(InS2)2
_symmetry_space_group_name_H-M   'P 1'
_cell_length_a   3.92609056
_cell_length_b   3.92609056
_cell_length_c   12.83145212
_cell_angle_alpha   81.19993433
_cell_angle_beta   81.19993433
_cell_angle_gamma   59.99999054
_symmetry_Int_Tables_number   1
_chemical_formula_structural   Zn(InS2)2
_chemical_formula_sum   'Zn1 In2 S4'
_cell_volume   168.59418518
_cell_formula_units_Z   1
loop_
 _symmetry_equiv_pos_site_id
 _symmetry_equiv_pos_as_xyz
  1  'x, y, z'
loop_
 _atom_site_type_symbol
 _atom_site_label
 _atom_site_symmetry_multiplicity
 _atom_site_fract_x
 _atom_site_fract_y
 _atom_site_fract_z
 _atom_site_occupancy
  Zn  Zn0  1  0.60797100  0.60797100  0.17608700  1
  In  In0  1  0.83727600  0.83727600  0.48817200  1
  In  In1  1  0.06482200  0.06482200  0.80553400  1
  S  S0  1  0.95474900  0.95474900  0.13575300  1
  S  S1  1  0.70299000  0.70299000  0.89103000  1
  S  S2  1  0.53703600  0.53703600  0.38889200  1
  S  S3  1  0.12975600  0.12975600  0.61073200  1
loop_
_geom_bond_atom_site_label_1
_geom_bond_atom_site_label_2
_geom_bond_distance
_geom_bond_site_symmetry_2
In0 S2 2.590416 1_655
In0 S2 2.590416 1_565
In0 S2 2.590416 1_555
In0 S3 2.744818 1_655
In0 S3 2.744818 1_565
In0 S3 2.744818 1_665
In1 S3 2.460281 1_555
In1 S1 2.510776 1_455
In1 S1 2.510776 1_545
In1 S1 2.510776 1_445
S0 Zn0 2.323264 1_565
S0 Zn0 2.323264 1_655
S0 Zn0 2.323264 1_555
S2 Zn0 2.687653 1_555
