# generated using pymatgen
data_KNa3Al4(GeO4)4
_symmetry_space_group_name_H-M   'P 1'
_cell_length_a   8.77629400
_cell_length_b   10.28340800
_cell_length_c   10.34009427
_cell_angle_alpha   60.48826606
_cell_angle_beta   90.00000000
_cell_angle_gamma   90.00000000
_symmetry_Int_Tables_number   1
_chemical_formula_structural   KNa3Al4(GeO4)4
_chemical_formula_sum   'K2 Na6 Al8 Ge8 O32'
_cell_volume   812.11806631
_cell_formula_units_Z   2
loop_
 _symmetry_equiv_pos_site_id
 _symmetry_equiv_pos_as_xyz
  1  'x, y, z'
loop_
 _atom_site_type_symbol
 _atom_site_label
 _atom_site_symmetry_multiplicity
 _atom_site_fract_x
 _atom_site_fract_y
 _atom_site_fract_z
 _atom_site_occupancy
  K  K0  1  0.42227600  0.01766200  0.99138700  1
  K  K1  1  0.92227600  0.98233800  0.00861300  1
  Na  Na0  1  0.39728600  0.41601200  0.98380600  1
  Na  Na1  1  0.43328100  0.00329800  0.54874900  1
  Na  Na2  1  0.93328100  0.99670200  0.45125100  1
  Na  Na3  1  0.43759600  0.57542700  0.44948300  1
  Na  Na4  1  0.89728600  0.58398800  0.01619400  1
  Na  Na5  1  0.93759600  0.42457300  0.55051700  1
  Al  Al0  1  0.24180500  0.23642200  0.67074400  1
  Al  Al1  1  0.27623600  0.66865900  0.09697200  1
  Al  Al2  1  0.74180500  0.76357800  0.32925600  1
  Al  Al3  1  0.77623600  0.33134100  0.90302800  1
  Al  Al4  1  0.74284200  0.91664200  0.76353800  1
  Al  Al5  1  0.68910700  0.34226800  0.33178200  1
  Al  Al6  1  0.24284200  0.08335800  0.23646200  1
  Al  Al7  1  0.18910700  0.65773200  0.66821800  1
  Ge  Ge0  1  0.60189600  0.24811000  0.66731100  1
  Ge  Ge1  1  0.07360300  0.32026400  0.91237900  1
  Ge  Ge2  1  0.10189600  0.75189000  0.33268900  1
  Ge  Ge3  1  0.68120000  0.66247800  0.67853600  1
  Ge  Ge4  1  0.11420300  0.90609900  0.76480700  1
  Ge  Ge5  1  0.57360300  0.67973600  0.08762100  1
  Ge  Ge6  1  0.18120000  0.33752200  0.32146400  1
  Ge  Ge7  1  0.61420300  0.09390100  0.23519300  1
  O  O0  1  0.75478700  0.95510300  0.28371600  1
  O  O1  1  0.64296300  0.23116600  0.04556000  1
  O  O2  1  0.70390000  0.64364000  0.52107200  1
  O  O3  1  0.11919600  0.62906300  0.52451200  1
  O  O4  1  0.14296300  0.76883400  0.95444000  1
  O  O5  1  0.88966300  0.30207500  0.38307300  1
  O  O6  1  0.92093400  0.71727600  0.28241000  1
  O  O7  1  0.71829300  0.84560100  0.63936900  1
  O  O8  1  0.11884800  0.82844500  0.64703400  1
  O  O9  1  0.43139100  0.01518700  0.25686900  1
  O  O10  1  0.93139100  0.98481300  0.74313100  1
  O  O11  1  0.65982600  0.49687700  0.15708400  1
  O  O12  1  0.10686000  0.94067400  0.28842200  1
  O  O13  1  0.21829300  0.15439900  0.36063100  1
  O  O14  1  0.10006000  0.26342600  0.77319800  1
  O  O15  1  0.61884800  0.17155500  0.35296600  1
  O  O16  1  0.27929900  0.47411000  0.16440300  1
  O  O17  1  0.60686000  0.05932600  0.71157800  1
  O  O18  1  0.61919600  0.37093700  0.47548800  1
  O  O19  1  0.38966300  0.69792500  0.61692700  1
  O  O20  1  0.25478700  0.04489700  0.71628400  1
  O  O21  1  0.98775600  0.38910200  0.24914100  1
  O  O22  1  0.60006000  0.73657400  0.22680200  1
  O  O23  1  0.15982600  0.50312300  0.84291600  1
  O  O24  1  0.74899200  0.28171600  0.76412500  1
  O  O25  1  0.72100400  0.78588200  0.95216300  1
  O  O26  1  0.20390000  0.35636000  0.47892800  1
  O  O27  1  0.42093400  0.28272400  0.71759000  1
  O  O28  1  0.48775600  0.61089800  0.75085900  1
  O  O29  1  0.24899200  0.71828400  0.23587500  1
  O  O30  1  0.22100400  0.21411800  0.04783700  1
  O  O31  1  0.77929900  0.52589000  0.83559700  1
loop_
_geom_bond_atom_site_label_1
_geom_bond_atom_site_label_2
_geom_bond_distance
_geom_bond_site_symmetry_2
K0 O9 2.733832 1_556
K0 O27 2.800397 1_555
K0 O30 2.950266 1_556
K0 O20 3.089651 1_555
K0 O22 3.127784 1_546
K0 O17 3.155549 1_555
K0 O1 3.177594 1_556
K0 O29 3.242526 1_546
K1 O10 2.733832 1_554
K1 O6 2.800397 1_555
K1 O25 2.950266 1_554
K1 O0 3.089651 1_555
K1 O14 3.127784 1_664
K1 O12 3.155549 1_655
K1 O4 3.177594 1_654
K1 O24 3.242526 1_564
Na0 O28 2.385958 1_555
Na0 O30 2.405839 1_556
Na0 O23 2.445853 1_555
Na0 O16 2.452647 1_556
Na0 O1 2.733872 1_556
Na1 O15 2.508669 1_555
Na1 O20 2.523493 1_555
Na1 O17 2.538324 1_555
Na1 O13 2.603904 1_555
Na1 O7 2.875325 1_545
Na1 O19 2.885102 1_545
Na1 O9 2.959801 1_555
Na2 O8 2.508669 1_655
Na2 O0 2.523493 1_555
Na2 O12 2.538324 1_655
Na2 O7 2.603904 1_555
Na2 O13 2.875325 1_665
Na2 O5 2.885102 1_565
Na2 O10 2.959801 1_555
Na3 O22 2.514286 1_555
Na3 O18 2.545062 1_555
Na3 O29 2.565093 1_555
Na3 O19 2.628736 1_555
Na3 O2 2.648375 1_555
Na3 O27 2.923320 1_555
Na3 O26 2.949307 1_555
Na3 O3 3.022612 1_555
Na4 O21 2.385958 1_555
Na4 O25 2.405839 1_554
Na4 O11 2.445853 1_555
Na4 O31 2.452647 1_554
Na4 O4 2.733872 1_654
Na5 O14 2.514286 1_655
Na5 O3 2.545062 1_655
Na5 O24 2.565093 1_555
Na5 O5 2.628736 1_555
Na5 O26 2.648375 1_655
Na5 O6 2.923320 1_555
Na5 O2 2.949307 1_555
Na5 O18 3.022612 1_555
Al0 O14 1.742631 1_555
Al0 O26 1.776418 1_555
Al0 O27 1.777649 1_555
Al0 O20 1.788871 1_555
Al1 O29 1.761410 1_555
Al1 O4 1.762264 1_554
Al1 O16 1.764963 1_555
Al2 O22 1.742631 1_555
Al2 O2 1.776418 1_555
Al2 O6 1.777649 1_555
Al2 O0 1.788871 1_555
Al3 O24 1.761410 1_555
Al3 O1 1.762264 1_556
Al3 O31 1.764963 1_555
Al4 O25 1.750738 1_555
Al4 O17 1.757598 1_565
Al4 O10 1.768748 1_555
Al4 O7 1.775568 1_555
Al5 O11 1.739942 1_555
Al5 O18 1.761523 1_555
Al5 O15 1.769511 1_555
Al5 O5 1.825988 1_555
Al6 O30 1.750738 1_555
Al6 O12 1.757598 1_545
Al6 O9 1.768748 1_555
Al6 O13 1.775568 1_555
Al7 O23 1.739942 1_555
Al7 O3 1.761523 1_555
Al7 O8 1.769511 1_555
Al7 O19 1.825988 1_555
Ge0 O18 1.756234 1_555
Ge0 O27 1.761137 1_555
Ge0 O17 1.762036 1_555
Ge0 O24 1.768889 1_555
Ge1 O23 1.814893 1_555
Ge1 O14 1.815322 1_555
Ge1 O30 1.822231 1_556
Ge2 O3 1.756234 1_555
Ge2 O6 1.761137 1_455
Ge2 O12 1.762036 1_555
Ge2 O29 1.768889 1_555
Ge3 O2 1.743265 1_555
Ge3 O7 1.750657 1_555
Ge3 O31 1.761880 1_555
Ge3 O28 1.825392 1_555
Ge4 O8 1.755109 1_555
Ge4 O10 1.760920 1_455
Ge4 O20 1.762303 1_565
Ge4 O4 1.781619 1_555
Ge5 O11 1.814893 1_555
Ge5 O22 1.815322 1_555
Ge5 O25 1.822231 1_554
Ge6 O26 1.743265 1_555
Ge6 O13 1.750657 1_555
Ge6 O16 1.761880 1_555
Ge6 O21 1.825392 1_455
Ge7 O15 1.755109 1_555
Ge7 O9 1.760920 1_555
Ge7 O0 1.762303 1_545
Ge7 O1 1.781619 1_555
O19 O28 1.496288 1_555
O21 O5 1.496288 1_555
