# generated using pymatgen
data_Cs2Te10Mo9
_symmetry_space_group_name_H-M   'P 1'
_cell_length_a   14.54534751
_cell_length_b   14.54534751
_cell_length_c   14.54534728
_cell_angle_alpha   42.11405225
_cell_angle_beta   42.11405225
_cell_angle_gamma   42.11405122
_symmetry_Int_Tables_number   1
_chemical_formula_structural   Cs2Te10Mo9
_chemical_formula_sum   'Cs4 Te20 Mo18'
_cell_volume   1252.13797513
_cell_formula_units_Z   2
loop_
 _symmetry_equiv_pos_site_id
 _symmetry_equiv_pos_as_xyz
  1  'x, y, z'
loop_
 _atom_site_type_symbol
 _atom_site_label
 _atom_site_symmetry_multiplicity
 _atom_site_fract_x
 _atom_site_fract_y
 _atom_site_fract_z
 _atom_site_occupancy
  Cs  Cs0  1  0.30109900  0.30109900  0.30109900  1
  Cs  Cs1  1  0.69890100  0.69890100  0.69890100  1
  Cs  Cs2  1  0.42417500  0.42417500  0.42417500  1
  Cs  Cs3  1  0.57582500  0.57582500  0.57582500  1
  Te  Te0  1  0.20296900  0.20296900  0.20296900  1
  Te  Te1  1  0.17834800  0.81451100  0.43726700  1
  Te  Te2  1  0.05479900  0.41333000  0.79699900  1
  Te  Te3  1  0.93178500  0.30230000  0.67990100  1
  Te  Te4  1  0.41333000  0.79699900  0.05479900  1
  Te  Te5  1  0.82165200  0.18548900  0.56273300  1
  Te  Te6  1  0.06821500  0.69770000  0.32009900  1
  Te  Te7  1  0.43726700  0.17834800  0.81451100  1
  Te  Te8  1  0.81451100  0.43726700  0.17834800  1
  Te  Te9  1  0.30230000  0.67990100  0.93178500  1
  Te  Te10  1  0.94520100  0.58667000  0.20300100  1
  Te  Te11  1  0.32009900  0.06821500  0.69770000  1
  Te  Te12  1  0.58667000  0.20300100  0.94520100  1
  Te  Te13  1  0.67990100  0.93178500  0.30230000  1
  Te  Te14  1  0.79699900  0.05479900  0.41333000  1
  Te  Te15  1  0.79703100  0.79703100  0.79703100  1
  Te  Te16  1  0.56273300  0.82165200  0.18548900  1
  Te  Te17  1  0.20300100  0.94520100  0.58667000  1
  Te  Te18  1  0.18548900  0.56273300  0.82165200  1
  Te  Te19  1  0.69770000  0.32009900  0.06821500  1
  Mo  Mo0  1  0.77129500  0.89776600  0.06843500  1
  Mo  Mo1  1  0.12803300  0.30066400  0.00905500  1
  Mo  Mo2  1  0.18482400  0.89218900  0.01197700  1
  Mo  Mo3  1  0.10223400  0.93156500  0.22870500  1
  Mo  Mo4  1  0.81517600  0.10781100  0.98802300  1
  Mo  Mo5  1  0.00905500  0.12803300  0.30066400  1
  Mo  Mo6  1  0.89218900  0.01197700  0.18482400  1
  Mo  Mo7  1  0.69933600  0.99094500  0.87196700  1
  Mo  Mo8  1  0.89776600  0.06843500  0.77129500  1
  Mo  Mo9  1  0.99094500  0.87196700  0.69933600  1
  Mo  Mo10  1  0.98802300  0.81517600  0.10781100  1
  Mo  Mo11  1  0.01197700  0.18482400  0.89218900  1
  Mo  Mo12  1  0.10781100  0.98802300  0.81517600  1
  Mo  Mo13  1  0.22870500  0.10223400  0.93156500  1
  Mo  Mo14  1  0.87196700  0.69933600  0.99094500  1
  Mo  Mo15  1  0.93156500  0.22870500  0.10223400  1
  Mo  Mo16  1  0.30066400  0.00905500  0.12803300  1
  Mo  Mo17  1  0.06843500  0.77129500  0.89776600  1
loop_
_geom_bond_atom_site_label_1
_geom_bond_atom_site_label_2
_geom_bond_distance
_geom_bond_site_symmetry_2
Cs0 Te0 3.896093 1_555
Cs0 Te13 3.912345 1_545
Cs0 Te3 3.912345 1_455
Cs0 Te9 3.912345 1_554
Cs0 Te12 4.043661 1_554
Cs0 Te10 4.043661 1_455
Cs0 Te17 4.043661 1_545
Cs0 Te11 4.100470 1_555
Cs0 Te6 4.100470 1_555
Cs0 Te19 4.100470 1_555
Cs1 Te15 3.896093 1_555
Cs1 Te11 3.912345 1_565
Cs1 Te6 3.912345 1_655
Cs1 Te19 3.912345 1_556
Cs1 Te4 4.043661 1_556
Cs1 Te2 4.043661 1_655
Cs1 Te14 4.043661 1_565
Cs1 Te13 4.100470 1_555
Cs1 Te3 4.100470 1_555
Cs1 Te9 4.100470 1_555
Cs2 Te14 3.880787 1_555
Cs2 Te4 3.880787 1_555
Cs2 Te2 3.880787 1_555
Cs2 Te7 3.940962 1_555
Cs2 Te1 3.940962 1_555
Cs2 Te8 3.940962 1_555
Cs2 Te19 4.130280 1_555
Cs2 Te6 4.130280 1_555
Cs2 Te11 4.130280 1_555
Cs3 Te17 3.880787 1_555
Cs3 Te12 3.880787 1_555
Cs3 Te10 3.880787 1_555
Cs3 Te16 3.940962 1_555
Cs3 Te5 3.940962 1_555
Cs3 Te18 3.940962 1_555
Cs3 Te9 4.130280 1_555
Cs3 Te3 4.130280 1_555
Cs3 Te13 4.130280 1_555
Mo0 Mo17 2.699572 1_654
Mo0 Mo8 2.699572 1_564
Mo0 Mo4 2.755621 1_564
Mo0 Mo7 2.772292 1_554
Mo0 Mo10 2.783549 1_555
Mo0 Te12 2.789594 1_564
Mo0 Te16 2.801891 1_555
Mo0 Mo14 2.802217 1_554
Mo0 Te10 2.815813 1_555
Mo0 Te13 2.897518 1_555
Mo1 Mo16 2.654457 1_555
Mo1 Mo5 2.654457 1_555
Mo1 Te0 2.734885 1_555
Mo1 Mo15 2.772292 1_455
Mo1 Mo13 2.802217 1_554
Mo1 Te8 2.821935 1_455
Mo1 Te7 2.849076 1_554
Mo1 Te2 2.849459 1_554
Mo1 Te18 2.930862 1_554
Mo2 Mo6 2.663368 1_465
Mo2 Mo3 2.783549 1_555
Mo2 Te6 2.827781 1_555
Mo2 Te11 2.844073 1_564
Mo2 Te4 2.883820 1_555
Mo2 Te9 2.893687 1_554
Mo3 Mo6 2.755620 1_465
Mo3 Mo5 2.772292 1_565
Mo3 Te14 2.789594 1_465
Mo3 Te1 2.801891 1_555
Mo3 Te4 2.815813 1_555
Mo3 Te6 2.897518 1_555
Mo4 Mo8 2.783549 1_555
Mo4 Mo6 2.812960 1_556
Mo4 Te3 2.827781 1_555
Mo4 Te13 2.844073 1_546
Mo4 Te12 2.883820 1_555
Mo4 Te19 2.893687 1_556
Mo5 Te0 2.734885 1_555
Mo5 Te1 2.821935 1_545
Mo5 Te8 2.849076 1_455
Mo5 Te14 2.849459 1_455
Mo5 Te5 2.930862 1_455
Mo6 Te19 2.827781 1_555
Mo6 Te6 2.844073 1_645
Mo6 Te14 2.883820 1_555
Mo6 Te13 2.893687 1_545
Mo7 Mo9 2.654457 1_555
Mo7 Te15 2.734885 1_555
Mo7 Mo8 2.802217 1_565
Mo7 Te16 2.821935 1_556
Mo7 Te5 2.849076 1_565
Mo7 Te12 2.849459 1_565
Mo7 Te7 2.930862 1_565
Mo8 Mo9 2.772292 1_545
Mo8 Te17 2.789594 1_645
Mo8 Te5 2.801891 1_555
Mo8 Te12 2.815813 1_555
Mo8 Te3 2.897518 1_555
Mo9 Te15 2.734885 1_555
Mo9 Te5 2.821935 1_565
Mo9 Te18 2.849076 1_655
Mo9 Te17 2.849459 1_655
Mo9 Te1 2.930862 1_655
Mo10 Mo4 2.663368 1_564
Mo10 Mo12 2.663368 1_654
Mo10 Mo17 2.755620 1_654
Mo10 Mo6 2.812960 1_565
Mo10 Mo2 2.812960 1_655
Mo10 Te13 2.827781 1_555
Mo10 Te9 2.844073 1_654
Mo10 Te10 2.883820 1_555
Mo10 Te6 2.893687 1_655
Mo11 Mo2 2.663368 1_546
Mo11 Mo6 2.663368 1_456
Mo11 Mo15 2.755620 1_456
Mo11 Mo13 2.783549 1_555
Mo11 Mo12 2.812960 1_545
Mo11 Mo4 2.812960 1_455
Mo11 Te11 2.827781 1_555
Mo11 Te19 2.844073 1_456
Mo11 Te2 2.883820 1_555
Mo11 Te3 2.893687 1_455
Mo12 Mo4 2.663368 1_465
Mo12 Mo8 2.755620 1_465
Mo12 Mo17 2.783549 1_555
Mo12 Mo2 2.812960 1_556
Mo12 Te9 2.827781 1_555
Mo12 Te3 2.844073 1_465
Mo12 Te17 2.883820 1_555
Mo12 Te11 2.893687 1_565
Mo13 Mo15 2.699572 1_456
Mo13 Mo3 2.699572 1_546
Mo13 Mo2 2.755621 1_546
Mo13 Mo16 2.772292 1_556
Mo13 Te4 2.789594 1_546
Mo13 Te7 2.801891 1_555
Mo13 Te2 2.815813 1_555
Mo13 Te11 2.897518 1_555
Mo14 Mo7 2.654457 1_555
Mo14 Mo9 2.654457 1_555
Mo14 Te15 2.734885 1_555
Mo14 Mo17 2.772292 1_655
Mo14 Te18 2.821935 1_655
Mo14 Te16 2.849076 1_556
Mo14 Te10 2.849459 1_556
Mo14 Te8 2.930862 1_556
Mo15 Mo3 2.699572 1_645
Mo15 Mo6 2.783549 1_555
Mo15 Te2 2.789594 1_654
Mo15 Te8 2.801891 1_555
Mo15 Mo5 2.802217 1_655
Mo15 Te14 2.815813 1_555
Mo15 Te19 2.897518 1_555
Mo16 Mo5 2.654457 1_555
Mo16 Te0 2.734885 1_555
Mo16 Mo3 2.802217 1_545
Mo16 Te7 2.821935 1_554
Mo16 Te1 2.849076 1_545
Mo16 Te4 2.849459 1_545
Mo16 Te16 2.930862 1_545
Mo17 Mo8 2.699572 1_465
Mo17 Te10 2.789594 1_456
Mo17 Te18 2.801891 1_555
Mo17 Mo9 2.802217 1_455
Mo17 Te17 2.815813 1_555
Mo17 Te9 2.897518 1_555
