# generated using pymatgen
data_Sm2(SeO3)3
_symmetry_space_group_name_H-M   'P 1'
_cell_length_a   6.98518755
_cell_length_b   7.89227981
_cell_length_c   9.07852130
_cell_angle_alpha   70.53058752
_cell_angle_beta   75.78503742
_cell_angle_gamma   64.02928492
_symmetry_Int_Tables_number   1
_chemical_formula_structural   Sm2(SeO3)3
_chemical_formula_sum   'Sm4 Se6 O18'
_cell_volume   421.28231095
_cell_formula_units_Z   2
loop_
 _symmetry_equiv_pos_site_id
 _symmetry_equiv_pos_as_xyz
  1  'x, y, z'
loop_
 _atom_site_type_symbol
 _atom_site_label
 _atom_site_symmetry_multiplicity
 _atom_site_fract_x
 _atom_site_fract_y
 _atom_site_fract_z
 _atom_site_occupancy
  Sm  Sm0  1  0.62847219  0.34985558  0.32165169  1
  Sm  Sm1  1  0.37152781  0.65014442  0.67834831  1
  Sm  Sm2  1  0.22632691  0.31205006  0.12855087  1
  Sm  Sm3  1  0.77367309  0.68794994  0.87144913  1
  Se  Se0  1  0.45405490  0.17377341  0.74310258  1
  Se  Se1  1  0.18881128  0.76811615  0.03880029  1
  Se  Se2  1  0.87071384  0.77878859  0.48760955  1
  Se  Se3  1  0.81118872  0.23188385  0.96119971  1
  Se  Se4  1  0.54594510  0.82622659  0.25689742  1
  Se  Se5  1  0.12928616  0.22121141  0.51239045  1
  O  O0  1  0.67513526  0.02093608  0.83556689  1
  O  O1  1  0.32486474  0.97906392  0.16443311  1
  O  O2  1  0.63891600  0.79052850  0.61550068  1
  O  O3  1  0.36108400  0.20947150  0.38449932  1
  O  O4  1  0.39138218  0.78556460  0.89435115  1
  O  O5  1  0.31777548  0.33674198  0.85599218  1
  O  O6  1  0.90148518  0.34212462  0.05269652  1
  O  O7  1  0.53971726  0.33355733  0.59247316  1
  O  O8  1  0.69810564  0.43731671  0.82030663  1
  O  O9  1  0.09851482  0.65787538  0.94730348  1
  O  O10  1  0.16617265  0.98813512  0.58774874  1
  O  O11  1  0.03115899  0.68438490  0.63862947  1
  O  O12  1  0.60861782  0.21443540  0.10564885  1
  O  O13  1  0.68222452  0.66325802  0.14400782  1
  O  O14  1  0.46028274  0.66644267  0.40752684  1
  O  O15  1  0.30189436  0.56268329  0.17969337  1
  O  O16  1  0.83382735  0.01186488  0.41225126  1
  O  O17  1  0.96884101  0.31561510  0.36137053  1
loop_
_geom_bond_atom_site_label_1
_geom_bond_atom_site_label_2
_geom_bond_distance
_geom_bond_site_symmetry_2
O0 Se0 1.695495 1_555
O0 Sm3 2.332713 1_545
O1 Se4 1.695495 1_555
O1 Sm2 2.332713 1_565
O2 Se2 1.730707 1_555
O2 Sm1 2.430895 1_555
O2 Sm3 2.468505 1_555
O3 Se5 1.730707 1_555
O3 Sm0 2.430895 1_555
O3 Sm2 2.468505 1_555
O4 Se1 1.697015 1_556
O4 Sm3 2.408308 1_555
O4 Sm1 2.582145 1_555
O5 Se0 1.714079 1_555
O5 Sm2 2.362230 1_556
O5 Sm1 2.591676 1_555
O6 Se3 1.750575 1_554
O6 Sm2 2.421994 1_655
O6 Sm3 2.558815 1_554
O6 Sm0 2.704263 1_555
O7 Se0 1.711082 1_555
O7 Sm0 2.357185 1_555
O7 Sm1 2.551231 1_555
O8 Se3 1.697314 1_555
O8 Sm3 2.460490 1_555
O8 Sm1 2.516175 1_555
O9 Se1 1.750575 1_556
O9 Sm3 2.421994 1_455
O9 Sm2 2.558815 1_556
O9 Sm1 2.704263 1_555
O10 Se5 1.658542 1_565
O10 Sm1 2.369687 1_555
O11 Se2 1.741634 1_455
O11 Sm1 2.376788 1_555
O11 Sm3 2.414857 1_455
O12 Se3 1.697015 1_554
O12 Sm2 2.408308 1_555
O12 Sm0 2.582145 1_555
O13 Se4 1.714079 1_555
O13 Sm3 2.362230 1_554
O13 Sm0 2.591676 1_555
O14 Se4 1.711082 1_555
O14 Sm1 2.357185 1_555
O14 Sm0 2.551231 1_555
O15 Se1 1.697314 1_555
O15 Sm2 2.460490 1_555
O15 Sm0 2.516175 1_555
O16 Se2 1.658542 1_545
O16 Sm0 2.369687 1_555
O17 Se5 1.741634 1_655
O17 Sm0 2.376788 1_555
O17 Sm2 2.414857 1_655
