# generated using pymatgen
data_Zr3V3O
_symmetry_space_group_name_H-M   'P 1'
_cell_length_a   8.80329275
_cell_length_b   8.80329275
_cell_length_c   8.80329275
_cell_angle_alpha   60.00000000
_cell_angle_beta   60.00000000
_cell_angle_gamma   60.00000000
_symmetry_Int_Tables_number   1
_chemical_formula_structural   Zr3V3O
_chemical_formula_sum   'Zr12 V12 O4'
_cell_volume   482.41459141
_cell_formula_units_Z   4
loop_
 _symmetry_equiv_pos_site_id
 _symmetry_equiv_pos_as_xyz
  1  'x, y, z'
loop_
 _atom_site_type_symbol
 _atom_site_label
 _atom_site_symmetry_multiplicity
 _atom_site_fract_x
 _atom_site_fract_y
 _atom_site_fract_z
 _atom_site_occupancy
  Zr  Zr0  1  0.93848900  0.93848900  0.56151100  1
  Zr  Zr1  1  0.68848900  0.31151100  0.31151100  1
  Zr  Zr2  1  0.31151100  0.68848900  0.68848900  1
  Zr  Zr3  1  0.68848900  0.68848900  0.31151100  1
  Zr  Zr4  1  0.68848900  0.31151100  0.68848900  1
  Zr  Zr5  1  0.31151100  0.68848900  0.31151100  1
  Zr  Zr6  1  0.56151100  0.93848900  0.56151100  1
  Zr  Zr7  1  0.56151100  0.93848900  0.93848900  1
  Zr  Zr8  1  0.93848900  0.56151100  0.56151100  1
  Zr  Zr9  1  0.93848900  0.56151100  0.93848900  1
  Zr  Zr10  1  0.31151100  0.31151100  0.68848900  1
  Zr  Zr11  1  0.56151100  0.56151100  0.93848900  1
  V  V0  1  0.12500000  0.62500000  0.12500000  1
  V  V1  1  0.12500000  0.12500000  0.62500000  1
  V  V2  1  0.62500000  0.12500000  0.12500000  1
  V  V3  1  0.12500000  0.12500000  0.12500000  1
  V  V4  1  0.91681900  0.24954300  0.91681900  1
  V  V5  1  0.33318100  0.33318100  0.00045700  1
  V  V6  1  0.00045700  0.33318100  0.33318100  1
  V  V7  1  0.33318100  0.33318100  0.33318100  1
  V  V8  1  0.24954300  0.91681900  0.91681900  1
  V  V9  1  0.91681900  0.91681900  0.91681900  1
  V  V10  1  0.91681900  0.91681900  0.24954300  1
  V  V11  1  0.33318100  0.00045700  0.33318100  1
  O  O0  1  0.62500000  0.12500000  0.62500000  1
  O  O1  1  0.62500000  0.62500000  0.12500000  1
  O  O2  1  0.12500000  0.62500000  0.62500000  1
  O  O3  1  0.62500000  0.62500000  0.62500000  1
loop_
_geom_bond_atom_site_label_1
_geom_bond_atom_site_label_2
_geom_bond_distance
_geom_bond_site_symmetry_2
V0 V9 2.694354 1_454
V0 V6 2.694354 1_555
V0 V8 2.694354 1_554
V0 V5 2.694354 1_555
V0 V10 2.694354 1_455
V0 V7 2.694354 1_555
V0 Zr11 3.199276 1_554
V0 Zr3 3.199276 1_455
V0 Zr2 3.199276 1_554
V0 Zr9 3.199276 1_454
V0 Zr8 3.199276 1_455
V0 Zr5 3.199276 1_555
V1 V9 2.694354 1_445
V1 V6 2.694354 1_555
V1 V11 2.694354 1_555
V1 V8 2.694354 1_545
V1 V7 2.694354 1_555
V1 V4 2.694354 1_455
V1 Zr8 3.199276 1_455
V1 Zr6 3.199276 1_545
V1 Zr2 3.199276 1_545
V1 Zr4 3.199276 1_455
V1 Zr10 3.199276 1_555
V1 Zr0 3.199276 1_445
V2 V9 2.694354 1_544
V2 V5 2.694354 1_555
V2 V7 2.694354 1_555
V2 V4 2.694354 1_554
V2 Zr6 3.199276 1_545
V2 Zr1 3.199276 1_555
V2 Zr7 3.199276 1_544
V2 Zr4 3.199276 1_554
V2 Zr3 3.199276 1_545
V2 Zr11 3.199276 1_554
V3 V4 2.694354 1_454
V3 V8 2.694354 1_544
V3 V6 2.694354 1_555
V3 V5 2.694354 1_555
V3 Zr7 3.199276 1_544
V3 Zr1 3.199276 1_455
V3 Zr5 3.199276 1_545
V3 Zr10 3.199276 1_554
V3 Zr9 3.199276 1_454
V3 Zr0 3.199276 1_445
V4 V9 2.929067 1_545
V4 V8 2.929067 1_645
V4 Zr9 2.949477 1_555
V4 Zr8 2.949477 1_555
V4 Zr11 2.949477 1_555
V4 Zr10 3.197735 1_655
V4 Zr1 3.197735 1_556
V4 Zr4 3.197735 1_555
V5 V6 2.929067 1_555
V5 V7 2.929067 1_555
V5 Zr4 2.949477 1_554
V5 Zr10 2.949477 1_554
V5 Zr2 2.949477 1_554
V5 Zr9 3.197735 1_454
V5 Zr7 3.197735 1_544
V5 Zr11 3.197735 1_554
V6 V7 2.929067 1_555
V6 Zr4 2.949477 1_455
V6 Zr1 2.949477 1_455
V6 Zr3 2.949477 1_455
V6 Zr8 3.197735 1_455
V6 Zr9 3.197735 1_454
V6 Zr0 3.197735 1_445
V7 Zr10 2.949477 1_555
V7 Zr5 2.949477 1_555
V7 Zr1 2.949477 1_555
V7 Zr8 3.197735 1_455
V7 Zr6 3.197735 1_545
V7 Zr11 3.197735 1_554
V8 V9 2.929067 1_455
V8 Zr7 2.949477 1_555
V8 Zr6 2.949477 1_555
V8 Zr11 2.949477 1_555
V8 Zr5 3.197735 1_556
V8 Zr10 3.197735 1_565
V8 Zr2 3.197735 1_555
V9 Zr0 2.949477 1_555
V9 Zr9 2.949477 1_555
V9 Zr7 2.949477 1_555
V9 Zr3 3.197735 1_556
V9 Zr4 3.197735 1_565
V9 Zr2 3.197735 1_655
V10 V3 2.694354 1_665
V10 V2 2.694354 1_565
V10 V9 2.929067 1_554
V10 V8 2.929067 1_654
V10 V4 2.929067 1_564
V10 Zr0 2.949477 1_555
V10 Zr8 2.949477 1_555
V10 Zr6 2.949477 1_555
V10 Zr1 3.197735 1_565
V10 Zr5 3.197735 1_655
V10 Zr3 3.197735 1_555
V11 V3 2.694354 1_555
V11 V2 2.694354 1_555
V11 V6 2.929067 1_555
V11 V5 2.929067 1_555
V11 V7 2.929067 1_555
V11 Zr3 2.949477 1_545
V11 Zr2 2.949477 1_545
V11 Zr5 2.949477 1_545
V11 Zr7 3.197735 1_544
V11 Zr6 3.197735 1_545
V11 Zr0 3.197735 1_445
O0 Zr10 2.338459 1_555
O0 Zr7 2.338459 1_545
O0 Zr0 2.338459 1_545
O0 Zr1 2.338459 1_555
O0 Zr6 2.338459 1_545
O0 Zr4 2.338459 1_555
O1 Zr11 2.338459 1_554
O1 Zr5 2.338459 1_555
O1 Zr3 2.338459 1_555
O1 Zr9 2.338459 1_554
O1 Zr1 2.338459 1_555
O1 Zr7 2.338459 1_554
O2 Zr8 2.338459 1_455
O2 Zr5 2.338459 1_555
O2 Zr9 2.338459 1_455
O2 Zr0 2.338459 1_455
O2 Zr2 2.338459 1_555
O2 Zr10 2.338459 1_555
O3 Zr11 2.338459 1_555
O3 Zr3 2.338459 1_555
O3 Zr8 2.338459 1_555
O3 Zr2 2.338459 1_555
O3 Zr6 2.338459 1_555
O3 Zr4 2.338459 1_555
