# generated using pymatgen
data_V2CoO6
_symmetry_space_group_name_H-M   'P 1'
_cell_length_a   4.87405000
_cell_length_b   7.29344968
_cell_length_c   8.97545758
_cell_angle_alpha   102.11067468
_cell_angle_beta   90.03537156
_cell_angle_gamma   94.22651340
_symmetry_Int_Tables_number   1
_chemical_formula_structural   V2CoO6
_chemical_formula_sum   'V6 Co3 O18'
_cell_volume   311.07353463
_cell_formula_units_Z   3
loop_
 _symmetry_equiv_pos_site_id
 _symmetry_equiv_pos_as_xyz
  1  'x, y, z'
loop_
 _atom_site_type_symbol
 _atom_site_label
 _atom_site_symmetry_multiplicity
 _atom_site_fract_x
 _atom_site_fract_y
 _atom_site_fract_z
 _atom_site_occupancy
  V  V0  1  0.45338800  0.71237900  0.60827200  1
  V  V1  1  0.88351900  0.41875400  0.73654600  1
  V  V2  1  0.45600500  0.71169600  0.96733300  1
  V  V3  1  0.54399500  0.28830400  0.03266700  1
  V  V4  1  0.11648100  0.58124600  0.26345400  1
  V  V5  1  0.54661200  0.28762100  0.39172800  1
  Co  Co0  1  0.00784600  0.01238700  0.16633800  1
  Co  Co1  1  0.00000000  0.00000000  0.50000000  1
  Co  Co2  1  0.99215400  0.98761300  0.83366200  1
  O  O0  1  0.82771100  0.15356200  0.01880000  1
  O  O1  1  0.82657200  0.15069600  0.35902600  1
  O  O2  1  0.33932900  0.16690400  0.48905400  1
  O  O3  1  0.10428400  0.82115300  0.30105300  1
  O  O4  1  0.36318500  0.21277500  0.20021400  1
  O  O5  1  0.29729800  0.52747700  0.42238300  1
  O  O6  1  0.63681500  0.78722500  0.79978600  1
  O  O7  1  0.17228900  0.84643800  0.98120000  1
  O  O8  1  0.70270200  0.47252300  0.57761700  1
  O  O9  1  0.70281500  0.47562600  0.91390500  1
  O  O10  1  0.17342800  0.84930400  0.64097400  1
  O  O11  1  0.29718500  0.52437400  0.08609500  1
  O  O12  1  0.79110500  0.47050800  0.24596700  1
  O  O13  1  0.66003600  0.83067600  0.10706100  1
  O  O14  1  0.66067100  0.83309600  0.51094600  1
  O  O15  1  0.20889500  0.52949200  0.75403300  1
  O  O16  1  0.89571600  0.17884700  0.69894700  1
  O  O17  1  0.33996400  0.16932400  0.89293900  1
loop_
_geom_bond_atom_site_label_1
_geom_bond_atom_site_label_2
_geom_bond_distance
_geom_bond_site_symmetry_2
Co0 O7 2.041886 1_544
Co0 O1 2.047067 1_455
Co0 O13 2.070071 1_445
Co0 O0 2.070880 1_455
Co0 O3 2.105194 1_545
Co0 O4 2.160529 1_555
Co1 O2 1.995123 1_555
Co1 O14 1.995123 1_445
Co1 O1 2.059779 1_455
Co1 O10 2.059779 1_545
Co1 O3 2.066365 1_545
Co1 O16 2.066365 1_455
Co2 O0 2.041886 1_566
Co2 O10 2.047067 1_655
Co2 O17 2.070071 1_665
Co2 O7 2.070880 1_655
Co2 O16 2.105194 1_565
Co2 O6 2.160529 1_555
O0 V3 1.744340 1_555
O1 V5 1.738906 1_555
O2 V5 1.658818 1_555
O3 V4 1.716576 1_555
O4 V5 1.893259 1_555
O4 V3 1.902427 1_555
O5 V4 1.802611 1_555
O5 V0 2.020949 1_555
O5 V5 2.173580 1_555
O6 V0 1.893259 1_555
O6 V2 1.902427 1_555
O7 V2 1.744340 1_555
O8 V1 1.802611 1_555
O8 V5 2.020949 1_555
O8 V0 2.173580 1_555
O9 V1 1.805654 1_555
O9 V3 2.014505 1_556
O9 V2 2.145022 1_555
O10 V0 1.738906 1_555
O11 V4 1.805654 1_555
O11 V2 2.014505 1_554
O11 V3 2.145022 1_555
O12 V4 1.717478 1_655
O12 V5 2.326101 1_555
O12 V3 2.361249 1_555
O13 V2 1.652093 1_554
O14 V0 1.658818 1_555
O15 V1 1.717478 1_455
O15 V0 2.326101 1_555
O15 V2 2.361249 1_555
O16 V1 1.716576 1_555
O17 V3 1.652093 1_556
