# generated using pymatgen
data_Li2Yb5B3O13
_symmetry_space_group_name_H-M   'P 1'
_cell_length_a   3.52269400
_cell_length_b   10.53635300
_cell_length_c   15.91847393
_cell_angle_alpha   71.90738259
_cell_angle_beta   90.00000000
_cell_angle_gamma   90.00000000
_symmetry_Int_Tables_number   1
_chemical_formula_structural   Li2Yb5B3O13
_chemical_formula_sum   'Li4 Yb10 B6 O26'
_cell_volume   561.62218914
_cell_formula_units_Z   2
loop_
 _symmetry_equiv_pos_site_id
 _symmetry_equiv_pos_as_xyz
  1  'x, y, z'
loop_
 _atom_site_type_symbol
 _atom_site_label
 _atom_site_symmetry_multiplicity
 _atom_site_fract_x
 _atom_site_fract_y
 _atom_site_fract_z
 _atom_site_occupancy
  Li  Li0  1  0.25000000  0.75281500  0.75381700  1
  Li  Li1  1  0.25000000  0.38976100  0.05010100  1
  Li  Li2  1  0.75000000  0.61023900  0.94989900  1
  Li  Li3  1  0.75000000  0.24718500  0.24618300  1
  Yb  Yb0  1  0.75000000  0.80960600  0.20536900  1
  Yb  Yb1  1  0.25000000  0.84080700  0.99580500  1
  Yb  Yb2  1  0.75000000  0.02928200  0.61937600  1
  Yb  Yb3  1  0.25000000  0.47252800  0.30070100  1
  Yb  Yb4  1  0.75000000  0.66063000  0.44185400  1
  Yb  Yb5  1  0.75000000  0.15919300  0.00419500  1
  Yb  Yb6  1  0.25000000  0.33937000  0.55814600  1
  Yb  Yb7  1  0.25000000  0.19039400  0.79463100  1
  Yb  Yb8  1  0.25000000  0.97071800  0.38062400  1
  Yb  Yb9  1  0.75000000  0.52747200  0.69929900  1
  B  B0  1  0.25000000  0.58201500  0.11376400  1
  B  B1  1  0.75000000  0.90328900  0.81954600  1
  B  B2  1  0.75000000  0.41798500  0.88623600  1
  B  B3  1  0.25000000  0.78515400  0.57603500  1
  B  B4  1  0.25000000  0.09671100  0.18045400  1
  B  B5  1  0.75000000  0.21484600  0.42396500  1
  O  O0  1  0.25000000  0.14689100  0.24997400  1
  O  O1  1  0.75000000  0.08480500  0.42284200  1
  O  O2  1  0.25000000  0.68696900  0.15098700  1
  O  O3  1  0.25000000  0.39578800  0.68609800  1
  O  O4  1  0.25000000  0.95906400  0.19642300  1
  O  O5  1  0.75000000  0.86211400  0.33777800  1
  O  O6  1  0.75000000  0.54994600  0.83651400  1
  O  O7  1  0.75000000  0.31772100  0.34550200  1
  O  O8  1  0.25000000  0.06807500  0.94747100  1
  O  O9  1  0.25000000  0.45005400  0.16348600  1
  O  O10  1  0.75000000  0.31303100  0.84901300  1
  O  O11  1  0.75000000  0.85310900  0.75002600  1
  O  O12  1  0.25000000  0.17984200  0.09492000  1
  O  O13  1  0.75000000  0.04093600  0.80357700  1
  O  O14  1  0.25000000  0.52254100  0.42996800  1
  O  O15  1  0.25000000  0.76159600  0.49557700  1
  O  O16  1  0.75000000  0.47745900  0.57003200  1
  O  O17  1  0.25000000  0.68227900  0.65449800  1
  O  O18  1  0.25000000  0.60995600  0.02226900  1
  O  O19  1  0.25000000  0.91519500  0.57715800  1
  O  O20  1  0.75000000  0.39004400  0.97773100  1
  O  O21  1  0.75000000  0.93192500  0.05252900  1
  O  O22  1  0.75000000  0.60421200  0.31390200  1
  O  O23  1  0.75000000  0.23840400  0.50442300  1
  O  O24  1  0.25000000  0.13788600  0.66222200  1
  O  O25  1  0.75000000  0.82015800  0.90508000  1
loop_
_geom_bond_atom_site_label_1
_geom_bond_atom_site_label_2
_geom_bond_distance
_geom_bond_site_symmetry_2
Li0 O17 1.944663 1_555
Li0 O11 2.045253 1_555
Li0 O11 2.045253 1_455
Li1 O9 2.091281 1_555
Li1 O12 2.102589 1_555
Li1 O20 2.104131 1_454
Li1 O20 2.104131 1_554
Li1 O18 2.222724 1_555
Li2 O6 2.091281 1_555
Li2 O25 2.102589 1_555
Li2 O18 2.104131 1_656
Li2 O18 2.104131 1_556
Li2 O20 2.222724 1_555
Li3 O7 1.944663 1_555
Li3 O0 2.045253 1_555
Li3 O0 2.045253 1_655
B0 O9 1.369717 1_555
B0 O18 1.393424 1_555
B0 O2 1.407458 1_555
B1 O11 1.366613 1_555
B1 O25 1.371255 1_555
B1 O13 1.392479 1_565
B2 O6 1.369717 1_555
B2 O20 1.393424 1_555
B2 O10 1.407458 1_555
B3 O19 1.375814 1_555
B3 O17 1.376244 1_555
B3 O15 1.378199 1_555
B4 O0 1.366613 1_555
B4 O12 1.371255 1_555
B4 O4 1.392479 1_545
B5 O1 1.375814 1_555
B5 O7 1.376244 1_555
B5 O23 1.378199 1_555
O0 Yb8 2.318003 1_545
O1 Yb8 2.345356 1_545
O1 Yb8 2.345356 1_645
O2 Yb0 2.493220 1_455
O2 Yb0 2.493220 1_555
O2 Yb1 2.498509 1_554
O2 Yb3 2.727683 1_555
O3 Yb9 2.291869 1_555
O3 Yb9 2.291869 1_455
O3 Yb6 2.292144 1_555
O3 Yb7 2.312137 1_555
O4 Yb0 2.337338 1_455
O4 Yb0 2.337338 1_555
O5 Yb4 2.251000 1_555
O5 Yb8 2.315529 1_655
O5 Yb8 2.315529 1_555
O5 Yb0 2.339435 1_555
O6 Yb9 2.268983 1_555
O7 Yb3 2.355618 1_555
O7 Yb3 2.355618 1_655
O8 Yb1 2.276324 1_545
O8 Yb5 2.319010 1_556
O8 Yb5 2.319010 1_456
O8 Yb7 2.373358 1_555
O9 Yb3 2.268983 1_555
O10 Yb7 2.493220 1_555
O10 Yb7 2.493220 1_655
O10 Yb5 2.498509 1_556
O10 Yb9 2.727683 1_555
O11 Yb2 2.318003 1_565
O12 Yb5 2.330356 1_555
O12 Yb5 2.330356 1_455
O13 Yb7 2.337338 1_555
O13 Yb7 2.337338 1_655
O14 Yb3 2.277155 1_555
O14 Yb4 2.329382 1_555
O14 Yb4 2.329382 1_455
O14 Yb6 2.332832 1_555
O15 Yb4 2.351691 1_555
O15 Yb4 2.351691 1_455
O15 Yb8 2.387276 1_555
O16 Yb9 2.277155 1_555
O16 Yb6 2.329382 1_655
O16 Yb6 2.329382 1_555
O16 Yb4 2.332832 1_555
O17 Yb9 2.355618 1_555
O17 Yb9 2.355618 1_455
O18 Yb1 2.336078 1_554
O19 Yb2 2.345356 1_465
O19 Yb2 2.345356 1_565
O20 Yb5 2.336078 1_556
O21 Yb5 2.276324 1_565
O21 Yb1 2.319010 1_654
O21 Yb1 2.319010 1_554
O21 Yb0 2.373358 1_555
O22 Yb3 2.291869 1_555
O22 Yb3 2.291869 1_655
O22 Yb4 2.292144 1_555
O22 Yb0 2.312137 1_555
O23 Yb6 2.351691 1_655
O23 Yb6 2.351691 1_555
O23 Yb2 2.387276 1_555
O24 Yb6 2.251000 1_555
O24 Yb2 2.315529 1_555
O24 Yb2 2.315529 1_455
O24 Yb7 2.339435 1_555
O25 Yb1 2.330356 1_555
O25 Yb1 2.330356 1_655
