# generated using pymatgen
data_BaCuSn2
_symmetry_space_group_name_H-M   'P 1'
_cell_length_a   4.67362724
_cell_length_b   4.85838188
_cell_length_c   10.01441734
_cell_angle_alpha   104.03823645
_cell_angle_beta   90.00000000
_cell_angle_gamma   90.00000000
_symmetry_Int_Tables_number   1
_chemical_formula_structural   BaCuSn2
_chemical_formula_sum   'Ba2 Cu2 Sn4'
_cell_volume   220.59880678
_cell_formula_units_Z   2
loop_
 _symmetry_equiv_pos_site_id
 _symmetry_equiv_pos_as_xyz
  1  'x, y, z'
loop_
 _atom_site_type_symbol
 _atom_site_label
 _atom_site_symmetry_multiplicity
 _atom_site_fract_x
 _atom_site_fract_y
 _atom_site_fract_z
 _atom_site_occupancy
  Ba  Ba0  1  0.25000000  0.60852580  0.21705159  1
  Ba  Ba1  1  0.75000000  0.39147420  0.78294841  1
  Cu  Cu0  1  0.75000000  0.17968691  0.35937482  1
  Cu  Cu1  1  0.25000000  0.82031309  0.64062518  1
  Sn  Sn0  1  0.25000000  0.95680161  0.91360422  1
  Sn  Sn1  1  0.75000000  0.04319839  0.08639578  1
  Sn  Sn2  1  0.75000000  0.75087500  0.50175199  1
  Sn  Sn3  1  0.25000000  0.24912500  0.49824801  1
loop_
_geom_bond_atom_site_label_1
_geom_bond_atom_site_label_2
_geom_bond_distance
_geom_bond_site_symmetry_2
Ba0 Sn1 3.601797 1_455
Ba0 Sn1 3.601797 1_555
Ba0 Sn1 3.601800 1_465
Ba0 Sn1 3.601800 1_565
Ba0 Sn2 3.620942 1_455
Ba0 Sn2 3.620942 1_555
Ba0 Cu0 3.643290 1_465
Ba0 Cu0 3.643290 1_565
Ba0 Cu0 3.643293 1_555
Ba0 Cu0 3.643293 1_455
Ba0 Sn3 3.655722 1_555
Ba0 Sn3 3.655729 1_565
Ba0 Sn0 3.819973 1_554
Ba0 Sn0 3.819976 1_544
Ba1 Sn0 3.601797 1_555
Ba1 Sn0 3.601797 1_655
Ba1 Sn0 3.601800 1_545
Ba1 Sn0 3.601800 1_645
Ba1 Sn3 3.620942 1_555
Ba1 Sn3 3.620942 1_655
Ba1 Cu1 3.643290 1_545
Ba1 Cu1 3.643290 1_645
Ba1 Cu1 3.643293 1_655
Ba1 Cu1 3.643293 1_555
Ba1 Sn2 3.655722 1_555
Ba1 Sn2 3.655729 1_545
Ba1 Sn1 3.819973 1_556
Ba1 Sn1 3.819976 1_566
Cu0 Sn1 2.652081 1_555
Cu0 Sn3 2.698339 1_655
Cu0 Sn3 2.698339 1_555
Cu0 Sn2 2.795409 1_555
Cu0 Sn2 2.795413 1_545
Cu1 Sn0 2.652081 1_555
Cu1 Sn2 2.698339 1_455
Cu1 Sn2 2.698339 1_555
Cu1 Sn3 2.795409 1_555
Cu1 Sn3 2.795413 1_565
Sn0 Sn1 2.877294 1_466
Sn0 Sn1 2.877294 1_566
