# generated using pymatgen
data_Np2H12SO14
_symmetry_space_group_name_H-M   'P 1'
_cell_length_a   19.19845200
_cell_length_b   7.98165900
_cell_length_c   8.24052157
_cell_angle_alpha   83.74401848
_cell_angle_beta   90.00000000
_cell_angle_gamma   90.00000000
_symmetry_Int_Tables_number   1
_chemical_formula_structural   Np2H12SO14
_chemical_formula_sum   'Np8 H48 S4 O56'
_cell_volume   1255.22076024
_cell_formula_units_Z   4
loop_
 _symmetry_equiv_pos_site_id
 _symmetry_equiv_pos_as_xyz
  1  'x, y, z'
loop_
 _atom_site_type_symbol
 _atom_site_label
 _atom_site_symmetry_multiplicity
 _atom_site_fract_x
 _atom_site_fract_y
 _atom_site_fract_z
 _atom_site_occupancy
  Np  Np0  1  0.64352400  0.66071100  0.80314100  1
  Np  Np1  1  0.36110500  0.24023300  0.69859500  1
  Np  Np2  1  0.85647600  0.66071100  0.30314100  1
  Np  Np3  1  0.63889500  0.75976700  0.30140500  1
  Np  Np4  1  0.86110500  0.75976700  0.80140500  1
  Np  Np5  1  0.13889500  0.24023300  0.19859500  1
  Np  Np6  1  0.14352400  0.33928900  0.69685900  1
  Np  Np7  1  0.35647600  0.33928900  0.19685900  1
  H  H0  1  0.71304000  0.09905400  0.32314500  1
  H  H1  1  0.09492000  0.97523200  0.62737800  1
  H  H2  1  0.50093900  0.45841100  0.71007100  1
  H  H3  1  0.90508000  0.02476800  0.37262200  1
  H  H4  1  0.28696000  0.90094600  0.67685500  1
  H  H5  1  0.76497600  0.06154900  0.64585300  1
  H  H6  1  0.23502400  0.93845100  0.35414700  1
  H  H7  1  0.43494500  0.92472100  0.62160300  1
  H  H8  1  0.41160700  0.75006400  0.00186500  1
  H  H9  1  0.11449300  0.96344000  0.81294100  1
  H  H10  1  0.78696000  0.09905400  0.82314500  1
  H  H11  1  0.88550700  0.03656000  0.18705900  1
  H  H12  1  0.15585000  0.59187600  0.37249200  1
  H  H13  1  0.54803900  0.06257200  0.19140600  1
  H  H14  1  0.70092000  0.32918300  0.99382800  1
  H  H15  1  0.34415000  0.59187600  0.87249200  1
  H  H16  1  0.45196100  0.93742800  0.80859400  1
  H  H17  1  0.38550700  0.96344000  0.31294100  1
  H  H18  1  0.01112500  0.78700100  0.55239200  1
  H  H19  1  0.79908000  0.32918300  0.49382800  1
  H  H20  1  0.51112500  0.21299900  0.94760800  1
  H  H21  1  0.04803900  0.93742800  0.30859400  1
  H  H22  1  0.06505500  0.92472100  0.12160300  1
  H  H23  1  0.98079500  0.30136500  0.11360600  1
  H  H24  1  0.48079500  0.69863500  0.38639400  1
  H  H25  1  0.95196100  0.06257200  0.69140600  1
  H  H26  1  0.65585000  0.40812400  0.12750800  1
  H  H27  1  0.56505500  0.07527900  0.37839700  1
  H  H28  1  0.21304000  0.90094600  0.17685500  1
  H  H29  1  0.61449300  0.03656000  0.68705900  1
  H  H30  1  0.51920500  0.30136500  0.61360600  1
  H  H31  1  0.99906100  0.45841100  0.21007100  1
  H  H32  1  0.01920500  0.69863500  0.88639400  1
  H  H33  1  0.08839300  0.75006400  0.50186500  1
  H  H34  1  0.29908000  0.67081700  0.00617200  1
  H  H35  1  0.58839300  0.24993600  0.99813500  1
  H  H36  1  0.84415000  0.40812400  0.62750800  1
  H  H37  1  0.40508000  0.97523200  0.12737800  1
  H  H38  1  0.59492000  0.02476800  0.87262200  1
  H  H39  1  0.20092000  0.67081700  0.50617200  1
  H  H40  1  0.49906100  0.54158900  0.28992900  1
  H  H41  1  0.98887500  0.21299900  0.44760800  1
  H  H42  1  0.26497600  0.93845100  0.85414700  1
  H  H43  1  0.48887500  0.78700100  0.05239200  1
  H  H44  1  0.00093900  0.54158900  0.78992900  1
  H  H45  1  0.93494500  0.07527900  0.87839700  1
  H  H46  1  0.91160700  0.24993600  0.49813500  1
  H  H47  1  0.73502400  0.06154900  0.14585300  1
  S  S0  1  0.65729000  0.32782800  0.50031000  1
  S  S1  1  0.34271000  0.67217200  0.49969000  1
  S  S2  1  0.84271000  0.32782800  0.00031000  1
  S  S3  1  0.15729000  0.67217200  0.99969000  1
  O  O0  1  0.79885000  0.03042200  0.73311100  1
  O  O1  1  0.05299400  0.84172300  0.50446500  1
  O  O2  1  0.98164400  0.64685800  0.82651800  1
  O  O3  1  0.36951300  0.26241800  0.92260300  1
  O  O4  1  0.75999200  0.69489100  0.31289700  1
  O  O5  1  0.01835600  0.35314200  0.17348200  1
  O  O6  1  0.12309400  0.03103900  0.70748900  1
  O  O7  1  0.44700600  0.84172300  0.00446500  1
  O  O8  1  0.45036500  0.38382600  0.20581600  1
  O  O9  1  0.90411700  0.21308900  0.02401200  1
  O  O10  1  0.55299400  0.15827700  0.99553500  1
  O  O11  1  0.44615300  0.00585000  0.70037600  1
  O  O12  1  0.13048700  0.26241800  0.42260300  1
  O  O13  1  0.55384700  0.99415000  0.29962400  1
  O  O14  1  0.40411700  0.78691100  0.47598800  1
  O  O15  1  0.62309400  0.96896100  0.79251100  1
  O  O16  1  0.34388300  0.61110800  0.98914200  1
  O  O17  1  0.87690600  0.96896100  0.29251100  1
  O  O18  1  0.64689400  0.44799000  0.34879600  1
  O  O19  1  0.22125600  0.77585800  0.02160500  1
  O  O20  1  0.94615300  0.99415000  0.79962400  1
  O  O21  1  0.85310600  0.44799000  0.84879600  1
  O  O22  1  0.64396300  0.78317400  0.52476000  1
  O  O23  1  0.33299000  0.57883900  0.35602400  1
  O  O24  1  0.86951300  0.73758200  0.57739700  1
  O  O25  1  0.95036500  0.61617400  0.29418400  1
  O  O26  1  0.85603700  0.78317400  0.02476000  1
  O  O27  1  0.74000800  0.69489100  0.81289700  1
  O  O28  1  0.94700600  0.15827700  0.49553500  1
  O  O29  1  0.83299000  0.42116100  0.14397600  1
  O  O30  1  0.65611700  0.38889200  0.01085800  1
  O  O31  1  0.70115000  0.03042200  0.23311100  1
  O  O32  1  0.48164400  0.35314200  0.67348200  1
  O  O33  1  0.14689400  0.55201000  0.15120400  1
  O  O34  1  0.29885000  0.96957800  0.76688900  1
  O  O35  1  0.35603700  0.21682600  0.47524000  1
  O  O36  1  0.27874400  0.77585800  0.52160500  1
  O  O37  1  0.25999200  0.30510900  0.18710300  1
  O  O38  1  0.05384700  0.00585000  0.20037600  1
  O  O39  1  0.04963500  0.38382600  0.70581600  1
  O  O40  1  0.20115000  0.96957800  0.26688900  1
  O  O41  1  0.16701000  0.57883900  0.85602400  1
  O  O42  1  0.15611700  0.61110800  0.48914200  1
  O  O43  1  0.51835600  0.64685800  0.32651800  1
  O  O44  1  0.37690600  0.03103900  0.20748900  1
  O  O45  1  0.14396300  0.21682600  0.97524000  1
  O  O46  1  0.09588300  0.78691100  0.97598800  1
  O  O47  1  0.24000800  0.30510900  0.68710300  1
  O  O48  1  0.72125600  0.22414200  0.47839500  1
  O  O49  1  0.35310600  0.55201000  0.65120400  1
  O  O50  1  0.63048700  0.73758200  0.07739700  1
  O  O51  1  0.84388300  0.38889200  0.51085800  1
  O  O52  1  0.77874400  0.22414200  0.97839500  1
  O  O53  1  0.66701000  0.42116100  0.64397600  1
  O  O54  1  0.59588300  0.21308900  0.52401200  1
  O  O55  1  0.54963500  0.61617400  0.79418400  1
loop_
_geom_bond_atom_site_label_1
_geom_bond_atom_site_label_2
_geom_bond_distance
_geom_bond_site_symmetry_2
Np0 O55 1.840278 1_555
Np0 O27 1.875326 1_555
Np0 O22 2.393588 1_555
Np0 O50 2.418463 1_556
Np0 O53 2.475061 1_555
Np0 O15 2.483515 1_555
Np0 O30 2.624123 1_556
Np1 O35 1.872694 1_555
Np1 O3 1.880466 1_555
Np1 O47 2.381483 1_555
Np1 O34 2.479325 1_545
Np1 O49 2.481313 1_555
Np1 O11 2.481934 1_555
Np1 O32 2.483886 1_555
Np2 O25 1.840278 1_555
Np2 O4 1.875326 1_555
Np2 O26 2.393588 1_555
Np2 O24 2.418463 1_555
Np2 O29 2.475061 1_555
Np2 O17 2.483515 1_555
Np2 O51 2.624123 1_555
Np3 O22 1.872694 1_555
Np3 O50 1.880466 1_555
Np3 O4 2.381483 1_555
Np3 O31 2.479325 1_565
Np3 O18 2.481313 1_555
Np3 O13 2.481934 1_555
Np3 O43 2.483886 1_555
Np4 O26 1.872694 1_556
Np4 O24 1.880466 1_555
Np4 O27 2.381483 1_555
Np4 O0 2.479325 1_565
Np4 O21 2.481313 1_555
Np4 O20 2.481934 1_555
Np4 O2 2.483886 1_555
Np5 O45 1.872694 1_554
Np5 O12 1.880466 1_555
Np5 O37 2.381483 1_555
Np5 O40 2.479325 1_545
Np5 O33 2.481313 1_555
Np5 O38 2.481934 1_555
Np5 O5 2.483886 1_555
Np6 O39 1.840278 1_555
Np6 O47 1.875326 1_555
Np6 O45 2.393588 1_555
Np6 O12 2.418463 1_555
Np6 O41 2.475061 1_555
Np6 O6 2.483515 1_555
Np6 O42 2.624123 1_555
Np7 O8 1.840278 1_555
Np7 O37 1.875326 1_555
Np7 O35 2.393588 1_555
Np7 O3 2.418463 1_554
Np7 O23 2.475061 1_555
Np7 O44 2.483515 1_555
Np7 O16 2.624123 1_554
H0 O31 0.995601 1_555
H0 O48 1.713707 1_555
H1 O6 0.995426 1_565
H2 O32 0.994643 1_555
H3 O17 0.995426 1_545
H4 O34 0.995601 1_555
H4 O36 1.713707 1_555
H5 O0 0.981200 1_555
H6 O40 0.981200 1_555
H7 O11 0.989239 1_565
H8 O7 1.000482 1_555
H9 O6 0.985558 1_565
H10 O0 0.995601 1_555
H10 O52 1.713707 1_555
H11 O17 0.985558 1_545
H12 O42 0.989830 1_555
H13 O13 0.999900 1_545
H14 O30 1.000625 1_556
H14 O52 1.724722 1_555
H15 O16 0.989830 1_555
H16 O11 0.999900 1_565
H17 O44 0.985558 1_565
H18 O1 0.977385 1_555
H19 O51 1.000625 1_555
H19 O48 1.724722 1_555
H20 O10 0.977385 1_555
H21 O38 0.999900 1_565
H22 O38 0.989239 1_565
H23 O5 0.989286 1_655
H24 O43 0.989286 1_555
H25 O20 0.999900 1_545
H26 O30 0.989830 1_555
H27 O13 0.989239 1_545
H28 O40 0.995601 1_555
H28 O19 1.713707 1_555
H29 O15 0.985558 1_545
H30 O32 0.989286 1_555
H31 O5 0.994643 1_655
H32 O2 0.989286 1_455
H33 O1 1.000482 1_555
H34 O16 1.000625 1_554
H34 O19 1.724722 1_555
H35 O10 1.000482 1_555
H36 O51 0.989830 1_555
H37 O44 0.995426 1_565
H38 O15 0.995426 1_545
H39 O42 1.000625 1_555
H39 O36 1.724722 1_555
H40 O43 0.994643 1_555
H41 O28 0.977385 1_555
H42 O34 0.981200 1_555
H43 O7 0.977385 1_555
H44 O2 0.994643 1_455
H45 O20 0.989239 1_545
H46 O28 1.000482 1_555
H47 O31 0.981200 1_555
O9 S2 1.492555 1_555
O14 S1 1.492555 1_555
O18 S0 1.502531 1_555
O19 S3 1.502726 1_554
O21 S2 1.502531 1_556
O23 S1 1.477689 1_555
O29 S2 1.477689 1_555
O33 S3 1.502531 1_554
O36 S1 1.502726 1_555
O41 S3 1.477689 1_555
O46 S3 1.492555 1_555
O48 S0 1.502726 1_555
O49 S1 1.502531 1_555
O52 S2 1.502726 1_556
O53 S0 1.477689 1_555
O54 S0 1.492555 1_555
