# generated using pymatgen
data_CrBiO3
_symmetry_space_group_name_H-M   'P 1'
_cell_length_a   5.39780298
_cell_length_b   5.56848039
_cell_length_c   7.71661667
_cell_angle_alpha   89.99996686
_cell_angle_beta   89.99973739
_cell_angle_gamma   89.99994394
_symmetry_Int_Tables_number   1
_chemical_formula_structural   CrBiO3
_chemical_formula_sum   'Cr4 Bi4 O12'
_cell_volume   231.94266889
_cell_formula_units_Z   4
loop_
 _symmetry_equiv_pos_site_id
 _symmetry_equiv_pos_as_xyz
  1  'x, y, z'
loop_
 _atom_site_type_symbol
 _atom_site_label
 _atom_site_symmetry_multiplicity
 _atom_site_fract_x
 _atom_site_fract_y
 _atom_site_fract_z
 _atom_site_occupancy
  Cr  Cr0  1  0.00000110  0.50000065  0.00000041  1
  Cr  Cr1  1  0.49999979  -0.00000113  0.49999960  1
  Cr  Cr2  1  0.00000184  0.49999949  0.50000030  1
  Cr  Cr3  1  0.49999894  -0.00000093  0.00000032  1
  Bi  Bi0  1  0.00876650  0.94860600  0.74999555  1
  Bi  Bi1  1  0.99122763  0.05139519  0.25000247  1
  Bi  Bi2  1  0.50877115  0.55139424  0.24999794  1
  Bi  Bi3  1  0.49123290  0.44860449  0.75000462  1
  O  O0  1  0.91297937  0.52342228  0.75001049  1
  O  O1  1  0.41297857  0.97657779  0.25001325  1
  O  O2  1  0.08702185  0.47657879  0.24998774  1
  O  O3  1  0.58702010  0.02342107  0.74998935  1
  O  O4  1  0.79920180  0.79607142  0.45747676  1
  O  O5  1  0.70079590  0.29607086  0.04252367  1
  O  O6  1  0.70079090  0.29604757  0.45747602  1
  O  O7  1  0.29920983  0.70395132  0.54252388  1
  O  O8  1  0.79920843  0.79604962  0.04252431  1
  O  O9  1  0.20079795  0.20392989  0.54252370  1
  O  O10  1  0.20079055  0.20395087  0.95747563  1
  O  O11  1  0.29920389  0.70392949  0.95747699  1
loop_
_geom_bond_atom_site_label_1
_geom_bond_atom_site_label_2
_geom_bond_distance
_geom_bond_site_symmetry_2
Cr0 O2 1.989702 1_555
Cr0 O0 1.989723 1_454
Cr0 O10 2.000013 1_554
Cr0 O8 2.000018 1_455
Cr0 O11 2.001386 1_554
Cr0 O5 2.001399 1_455
Cr1 O1 1.989695 1_545
Cr1 O3 1.989720 1_555
Cr1 O7 2.000005 1_545
Cr1 O6 2.000013 1_555
Cr1 O4 2.001376 1_545
Cr1 O9 2.001388 1_555
Cr2 O0 1.989872 1_455
Cr2 O2 1.989886 1_555
Cr2 O9 2.000123 1_555
Cr2 O4 2.000146 1_455
Cr2 O7 2.001484 1_555
Cr2 O6 2.001498 1_455
Cr3 O3 1.989875 1_554
Cr3 O1 1.989889 1_545
Cr3 O11 2.000122 1_544
Cr3 O5 2.000138 1_555
Cr3 O8 2.001482 1_545
Cr3 O10 2.001485 1_554
Bi0 O3 2.314310 1_465
Bi0 O9 2.378860 1_565
Bi0 O10 2.378963 1_565
Bi0 O0 2.423426 1_455
Bi0 O7 2.622400 1_555
Bi0 O11 2.622497 1_555
Bi0 O4 2.663883 1_455
Bi0 O8 2.663962 1_456
Bi1 O1 2.314336 1_645
Bi1 O4 2.378859 1_545
Bi1 O8 2.378944 1_545
Bi1 O2 2.423433 1_655
Bi1 O6 2.622380 1_555
Bi1 O5 2.622464 1_555
Bi1 O9 2.663912 1_655
Bi1 O10 2.663960 1_654
Bi2 O2 2.314326 1_555
Bi2 O5 2.378855 1_555
Bi2 O6 2.378946 1_555
Bi2 O1 2.423430 1_555
Bi2 O8 2.622392 1_555
Bi2 O4 2.622468 1_555
Bi2 O11 2.663903 1_554
Bi2 O7 2.663953 1_555
Bi3 O0 2.314314 1_555
Bi3 O11 2.378861 1_555
Bi3 O7 2.378968 1_555
Bi3 O3 2.423423 1_555
Bi3 O10 2.622391 1_555
Bi3 O9 2.622484 1_555
Bi3 O5 2.663878 1_556
Bi3 O6 2.663962 1_555
