# generated using pymatgen
data_YbHgPb
_symmetry_space_group_name_H-M   'P 1'
_cell_length_a   5.11193574
_cell_length_b   5.11193574
_cell_length_c   6.73614168
_cell_angle_alpha   90.00000000
_cell_angle_beta   90.00000000
_cell_angle_gamma   120.00000250
_symmetry_Int_Tables_number   1
_chemical_formula_structural   YbHgPb
_chemical_formula_sum   'Yb2 Hg2 Pb2'
_cell_volume   152.44479655
_cell_formula_units_Z   2
loop_
 _symmetry_equiv_pos_site_id
 _symmetry_equiv_pos_as_xyz
  1  'x, y, z'
loop_
 _atom_site_type_symbol
 _atom_site_label
 _atom_site_symmetry_multiplicity
 _atom_site_fract_x
 _atom_site_fract_y
 _atom_site_fract_z
 _atom_site_occupancy
  Yb  Yb0  1  0.00000000  0.00000000  0.00000000  1
  Yb  Yb1  1  0.00000000  0.00000000  0.50000000  1
  Hg  Hg0  1  0.33333300  0.66666700  0.25000000  1
  Hg  Hg1  1  0.66666700  0.33333300  0.75000000  1
  Pb  Pb0  1  0.66666700  0.33333300  0.25000000  1
  Pb  Pb1  1  0.33333300  0.66666700  0.75000000  1
loop_
_geom_bond_atom_site_label_1
_geom_bond_atom_site_label_2
_geom_bond_distance
_geom_bond_site_symmetry_2
Yb0 Yb1 3.368071 1_555
Yb0 Yb1 3.368071 1_554
Hg0 Pb0 2.951374 1_565
Hg0 Pb0 2.951374 1_455
Hg0 Pb0 2.951383 1_555
Hg0 Pb1 3.368071 1_554
Hg0 Pb1 3.368071 1_555
Hg0 Yb1 3.398027 1_565
Hg0 Yb0 3.398027 1_565
Hg0 Yb0 3.398031 1_555
Hg0 Yb1 3.398031 1_555
Hg0 Yb1 3.398031 1_665
Hg0 Yb0 3.398031 1_665
Hg1 Pb1 2.951374 1_545
Hg1 Pb1 2.951374 1_655
Hg1 Pb1 2.951383 1_555
Hg1 Pb0 3.368071 1_555
Hg1 Pb0 3.368071 1_556
Hg1 Yb1 3.398027 1_655
Hg1 Yb0 3.398027 1_656
Hg1 Yb0 3.398031 1_556
Hg1 Yb1 3.398031 1_555
Hg1 Yb0 3.398031 1_666
Hg1 Yb1 3.398031 1_665
Pb0 Yb1 3.398027 1_655
Pb0 Yb0 3.398027 1_655
Pb0 Yb0 3.398031 1_555
Pb0 Yb1 3.398031 1_555
Pb0 Yb1 3.398031 1_665
Pb0 Yb0 3.398031 1_665
Pb1 Yb0 3.398027 1_566
Pb1 Yb1 3.398027 1_565
Pb1 Yb0 3.398031 1_556
Pb1 Yb1 3.398031 1_555
Pb1 Yb0 3.398031 1_666
Pb1 Yb1 3.398031 1_665
