# generated using pymatgen
data_Ga4GeS4
_symmetry_space_group_name_H-M   'P 1'
_cell_length_a   11.63714700
_cell_length_b   11.63714700
_cell_length_c   11.63714700
_cell_angle_alpha   90.00000000
_cell_angle_beta   90.00000000
_cell_angle_gamma   90.00000000
_symmetry_Int_Tables_number   1
_chemical_formula_structural   Ga4GeS4
_chemical_formula_sum   'Ga32 Ge8 S32'
_cell_volume   1575.93957273
_cell_formula_units_Z   8
loop_
 _symmetry_equiv_pos_site_id
 _symmetry_equiv_pos_as_xyz
  1  'x, y, z'
loop_
 _atom_site_type_symbol
 _atom_site_label
 _atom_site_symmetry_multiplicity
 _atom_site_fract_x
 _atom_site_fract_y
 _atom_site_fract_z
 _atom_site_occupancy
  Ga  Ga0  1  0.22274000  0.77726000  0.27726000  1
  Ga  Ga1  1  0.22357800  0.53759700  0.06626200  1
  Ga  Ga2  1  0.43373800  0.77642200  0.03759700  1
  Ga  Ga3  1  0.46240300  0.56626200  0.27642200  1
  Ga  Ga4  1  0.53759700  0.06626200  0.22357800  1
  Ga  Ga5  1  0.56626200  0.27642200  0.46240300  1
  Ga  Ga6  1  0.72274000  0.72274000  0.72274000  1
  Ga  Ga7  1  0.72274000  0.77726000  0.22274000  1
  Ga  Ga8  1  0.72357800  0.96240300  0.93373800  1
  Ga  Ga9  1  0.72357800  0.53759700  0.43373800  1
  Ga  Ga10  1  0.77642200  0.03759700  0.43373800  1
  Ga  Ga11  1  0.77726000  0.27726000  0.22274000  1
  Ga  Ga12  1  0.93373800  0.72357800  0.96240300  1
  Ga  Ga13  1  0.93373800  0.77642200  0.46240300  1
  Ga  Ga14  1  0.96240300  0.93373800  0.72357800  1
  Ga  Ga15  1  0.96240300  0.56626200  0.22357800  1
  Ga  Ga16  1  0.03759700  0.43373800  0.77642200  1
  Ga  Ga17  1  0.03759700  0.06626200  0.27642200  1
  Ga  Ga18  1  0.06626200  0.22357800  0.53759700  1
  Ga  Ga19  1  0.06626200  0.27642200  0.03759700  1
  Ga  Ga20  1  0.22274000  0.72274000  0.77726000  1
  Ga  Ga21  1  0.22357800  0.96240300  0.56626200  1
  Ga  Ga22  1  0.27642200  0.46240300  0.56626200  1
  Ga  Ga23  1  0.27642200  0.03759700  0.06626200  1
  Ga  Ga24  1  0.27726000  0.22274000  0.77726000  1
  Ga  Ga25  1  0.27726000  0.27726000  0.27726000  1
  Ga  Ga26  1  0.43373800  0.72357800  0.53759700  1
  Ga  Ga27  1  0.46240300  0.93373800  0.77642200  1
  Ga  Ga28  1  0.53759700  0.43373800  0.72357800  1
  Ga  Ga29  1  0.56626200  0.22357800  0.96240300  1
  Ga  Ga30  1  0.77642200  0.46240300  0.93373800  1
  Ga  Ga31  1  0.77726000  0.22274000  0.72274000  1
  Ge  Ge0  1  0.09985100  0.90014900  0.40014900  1
  Ge  Ge1  1  0.59985100  0.59985100  0.59985100  1
  Ge  Ge2  1  0.59985100  0.90014900  0.09985100  1
  Ge  Ge3  1  0.90014900  0.40014900  0.09985100  1
  Ge  Ge4  1  0.09985100  0.59985100  0.90014900  1
  Ge  Ge5  1  0.40014900  0.09985100  0.90014900  1
  Ge  Ge6  1  0.40014900  0.40014900  0.40014900  1
  Ge  Ge7  1  0.90014900  0.09985100  0.59985100  1
  S  S0  1  0.41910900  0.58089100  0.08089100  1
  S  S1  1  0.58089100  0.08089100  0.41910900  1
  S  S2  1  0.91910900  0.91910900  0.91910900  1
  S  S3  1  0.91910900  0.58089100  0.41910900  1
  S  S4  1  0.08089100  0.41910900  0.58089100  1
  S  S5  1  0.08089100  0.08089100  0.08089100  1
  S  S6  1  0.08261800  0.24718600  0.83680900  1
  S  S7  1  0.08261800  0.25281400  0.33680900  1
  S  S8  1  0.16319100  0.58261800  0.25281400  1
  S  S9  1  0.16319100  0.91738200  0.75281400  1
  S  S10  1  0.24718600  0.83680900  0.08261800  1
  S  S11  1  0.24718600  0.66319100  0.58261800  1
  S  S12  1  0.25281400  0.16319100  0.58261800  1
  S  S13  1  0.25281400  0.33680900  0.08261800  1
  S  S14  1  0.33680900  0.08261800  0.25281400  1
  S  S15  1  0.33680900  0.41738200  0.75281400  1
  S  S16  1  0.41738200  0.75281400  0.33680900  1
  S  S17  1  0.41738200  0.74718600  0.83680900  1
  S  S18  1  0.41910900  0.91910900  0.58089100  1
  S  S19  1  0.58089100  0.41910900  0.91910900  1
  S  S20  1  0.58261800  0.25281400  0.16319100  1
  S  S21  1  0.58261800  0.24718600  0.66319100  1
  S  S22  1  0.66319100  0.58261800  0.24718600  1
  S  S23  1  0.66319100  0.91738200  0.74718600  1
  S  S24  1  0.74718600  0.66319100  0.91738200  1
  S  S25  1  0.74718600  0.83680900  0.41738200  1
  S  S26  1  0.75281400  0.16319100  0.91738200  1
  S  S27  1  0.75281400  0.33680900  0.41738200  1
  S  S28  1  0.83680900  0.08261800  0.24718600  1
  S  S29  1  0.83680900  0.41738200  0.74718600  1
  S  S30  1  0.91738200  0.74718600  0.66319100  1
  S  S31  1  0.91738200  0.75281400  0.16319100  1
loop_
_geom_bond_atom_site_label_1
_geom_bond_atom_site_label_2
_geom_bond_distance
_geom_bond_site_symmetry_2
Ga0 S16 2.385734 1_555
Ga0 S8 2.385734 1_555
Ga0 S10 2.385734 1_555
Ga0 Ge0 2.476967 1_555
Ga1 S0 2.336742 1_555
Ga1 S8 2.341211 1_555
Ga1 S13 2.368898 1_555
Ga1 Ge4 2.516893 1_554
Ga2 S0 2.336742 1_555
Ga2 S10 2.341211 1_555
Ga2 S17 2.368898 1_554
Ga2 Ge2 2.516893 1_555
Ga3 S0 2.336742 1_555
Ga3 S16 2.341211 1_555
Ga3 S22 2.368898 1_555
Ga3 Ge6 2.516893 1_555
Ga4 S1 2.336742 1_555
Ga4 S20 2.341211 1_555
Ga4 S14 2.368898 1_555
Ga4 Ge2 2.516893 1_545
Ga5 S1 2.336742 1_555
Ga5 S27 2.341211 1_555
Ga5 S21 2.368898 1_555
Ga5 Ge6 2.516893 1_555
Ga6 S24 2.385734 1_555
Ga6 S23 2.385734 1_555
Ga6 S30 2.385734 1_555
Ga6 Ge1 2.476967 1_555
Ga7 S31 2.385734 1_555
Ga7 S22 2.385734 1_555
Ga7 S25 2.385734 1_555
Ga7 Ge2 2.476967 1_555
Ga8 S2 2.336742 1_555
Ga8 S23 2.341211 1_555
Ga8 S26 2.368898 1_565
Ga8 Ge2 2.516893 1_556
Ga9 S3 2.336742 1_555
Ga9 S22 2.341211 1_555
Ga9 S27 2.368898 1_555
Ga9 Ge1 2.516893 1_555
Ga10 S1 2.336742 1_555
Ga10 S28 2.341211 1_555
Ga10 S25 2.368898 1_545
Ga10 Ge7 2.516893 1_555
Ga11 S20 2.385734 1_555
Ga11 S27 2.385734 1_555
Ga11 S28 2.385734 1_555
Ga11 Ge3 2.476967 1_555
Ga12 S2 2.336742 1_555
Ga12 S24 2.341211 1_555
Ga12 S31 2.368898 1_556
Ga12 Ge4 2.516893 1_655
Ga13 S3 2.336742 1_555
Ga13 S25 2.341211 1_555
Ga13 S30 2.368898 1_555
Ga13 Ge0 2.516893 1_655
Ga14 S2 2.336742 1_555
Ga14 S30 2.341211 1_555
Ga14 S9 2.368898 1_655
Ga14 Ge7 2.516893 1_565
Ga15 S3 2.336742 1_555
Ga15 S31 2.341211 1_555
Ga15 S8 2.368898 1_655
Ga15 Ge3 2.516893 1_555
Ga16 S4 2.336742 1_555
Ga16 S6 2.341211 1_555
Ga16 S29 2.368898 1_455
Ga16 Ge4 2.516893 1_555
Ga17 S5 2.336742 1_555
Ga17 S7 2.341211 1_555
Ga17 S28 2.368898 1_455
Ga17 Ge0 2.516893 1_545
Ga18 S4 2.336742 1_555
Ga18 S12 2.341211 1_555
Ga18 S7 2.368898 1_555
Ga18 Ge7 2.516893 1_455
Ga19 S5 2.336742 1_555
Ga19 S13 2.341211 1_555
Ga19 S6 2.368898 1_554
Ga19 Ge3 2.516893 1_455
Ga20 S11 2.385734 1_555
Ga20 S9 2.385734 1_555
Ga20 S17 2.385734 1_555
Ga20 Ge4 2.476967 1_555
Ga21 S18 2.336742 1_555
Ga21 S9 2.341211 1_555
Ga21 S12 2.368898 1_565
Ga21 Ge0 2.516893 1_555
Ga22 S4 2.336742 1_555
Ga22 S15 2.341211 1_555
Ga22 S11 2.368898 1_555
Ga22 Ge6 2.516893 1_555
Ga23 S5 2.336742 1_555
Ga23 S14 2.341211 1_555
Ga23 S10 2.368898 1_545
Ga23 Ge5 2.516893 1_554
Ga24 S15 2.385734 1_555
Ga24 S12 2.385734 1_555
Ga24 S6 2.385734 1_555
Ga24 Ge5 2.476967 1_555
Ga25 S14 2.385734 1_555
Ga25 S7 2.385734 1_555
Ga25 S13 2.385734 1_555
Ga25 Ge6 2.476967 1_555
Ga26 S18 2.336742 1_555
Ga26 S11 2.341211 1_555
Ga26 S16 2.368898 1_555
Ga26 Ge1 2.516893 1_555
Ga27 S18 2.336742 1_555
Ga27 S17 2.341211 1_555
Ga27 S23 2.368898 1_555
Ga27 Ge5 2.516893 1_565
Ga28 S19 2.336742 1_555
Ga28 S21 2.341211 1_555
Ga28 S15 2.368898 1_555
Ga28 Ge1 2.516893 1_555
Ga29 S19 2.336742 1_555
Ga29 S26 2.341211 1_555
Ga29 S20 2.368898 1_556
Ga29 Ge5 2.516893 1_555
Ga30 S19 2.336742 1_555
Ga30 S29 2.341211 1_555
Ga30 S24 2.368898 1_555
Ga30 Ge3 2.516893 1_556
Ga31 S29 2.385734 1_555
Ga31 S26 2.385734 1_555
Ga31 S21 2.385734 1_555
Ga31 Ge7 2.476967 1_555
