# generated using pymatgen
data_SrAl2O4
_symmetry_space_group_name_H-M   'P 1'
_cell_length_a   8.89270800
_cell_length_b   8.89270843
_cell_length_c   8.37905329
_cell_angle_alpha   90.00000000
_cell_angle_beta   90.00000000
_cell_angle_gamma   120.00000278
_symmetry_Int_Tables_number   1
_chemical_formula_structural   SrAl2O4
_chemical_formula_sum   'Sr6 Al12 O24'
_cell_volume   573.84375197
_cell_formula_units_Z   6
loop_
 _symmetry_equiv_pos_site_id
 _symmetry_equiv_pos_as_xyz
  1  'x, y, z'
loop_
 _atom_site_type_symbol
 _atom_site_label
 _atom_site_symmetry_multiplicity
 _atom_site_fract_x
 _atom_site_fract_y
 _atom_site_fract_z
 _atom_site_occupancy
  Sr  Sr0  1  0.66666700  0.33333300  0.28043990  1
  Sr  Sr1  1  0.33333300  0.66666700  0.78043990  1
  Sr  Sr2  1  0.66666700  0.33333300  0.74299021  1
  Sr  Sr3  1  0.33333300  0.66666700  0.24299021  1
  Sr  Sr4  1  -0.00000000  -0.00000000  0.76069950  1
  Sr  Sr5  1  -0.00000000  -0.00000000  0.26069950  1
  Al  Al0  1  0.67665562  0.66095220  0.44708060  1
  Al  Al1  1  0.01570442  0.67665562  0.94708060  1
  Al  Al2  1  0.66095220  0.98429558  0.94708060  1
  Al  Al3  1  0.33904780  0.01570442  0.44708060  1
  Al  Al4  1  0.98429558  0.32334438  0.44708060  1
  Al  Al5  1  0.32334438  0.33904780  0.94708060  1
  Al  Al6  1  0.68361293  0.66373197  0.05437753  1
  Al  Al7  1  0.01988196  0.68361293  0.55437753  1
  Al  Al8  1  0.66373197  0.98011804  0.55437753  1
  Al  Al9  1  0.33626803  0.01988196  0.05437753  1
  Al  Al10  1  0.98011804  0.31638707  0.05437753  1
  Al  Al11  1  0.31638707  0.33626803  0.55437753  1
  O  O0  1  0.54206599  0.44875180  0.51927486  1
  O  O1  1  0.09331419  0.54206599  0.01927486  1
  O  O2  1  0.44875180  0.90668581  0.01927486  1
  O  O3  1  0.55124820  0.09331419  0.51927486  1
  O  O4  1  0.90668581  0.45793401  0.51927486  1
  O  O5  1  0.45793401  0.55124820  0.01927486  1
  O  O6  1  0.20797619  0.78990370  0.43792456  1
  O  O7  1  0.41807249  0.20797619  0.93792456  1
  O  O8  1  0.78990370  0.58192751  0.93792456  1
  O  O9  1  0.21009630  0.41807249  0.43792456  1
  O  O10  1  0.58192751  0.79202381  0.43792456  1
  O  O11  1  0.79202381  0.21009630  0.93792456  1
  O  O12  1  0.88876988  0.11974051  0.53844531  1
  O  O13  1  0.76902937  0.88876988  0.03844531  1
  O  O14  1  0.11974051  0.23097063  0.03844531  1
  O  O15  1  0.88025949  0.76902937  0.53844531  1
  O  O16  1  0.23097063  0.11123012  0.53844531  1
  O  O17  1  0.11123012  0.88025949  0.03844531  1
  O  O18  1  0.27337845  0.36748388  0.75118661  1
  O  O19  1  0.90589457  0.27337845  0.25118661  1
  O  O20  1  0.36748388  0.09410543  0.25118661  1
  O  O21  1  0.63251612  0.90589457  0.75118661  1
  O  O22  1  0.09410543  0.72662155  0.75118661  1
  O  O23  1  0.72662155  0.63251612  0.25118661  1
loop_
_geom_bond_atom_site_label_1
_geom_bond_atom_site_label_2
_geom_bond_distance
_geom_bond_site_symmetry_2
Al0 O15 1.745811 1_555
Al0 O10 1.748130 1_555
Al0 O23 1.751557 1_555
Al0 O0 1.760907 1_555
Al1 O17 1.745812 1_556
Al1 O8 1.748138 1_455
Al1 O22 1.751554 1_555
Al1 O1 1.760900 1_556
Al2 O13 1.745805 1_556
Al2 O11 1.748138 1_565
Al2 O21 1.751554 1_555
Al2 O2 1.760908 1_556
Al3 O16 1.745805 1_555
Al3 O6 1.748138 1_545
Al3 O20 1.751554 1_555
Al3 O3 1.760908 1_555
Al4 O12 1.745812 1_555
Al4 O9 1.748138 1_655
Al4 O19 1.751554 1_555
Al4 O4 1.760900 1_555
Al5 O14 1.745811 1_556
Al5 O7 1.748130 1_555
Al5 O18 1.751557 1_555
Al5 O5 1.760907 1_556
Al6 O23 1.746124 1_555
Al6 O8 1.749959 1_554
Al6 O13 1.754850 1_555
Al6 O5 1.762738 1_555
Al7 O22 1.746122 1_555
Al7 O6 1.749953 1_555
Al7 O15 1.754859 1_455
Al7 O4 1.762738 1_455
Al8 O21 1.746122 1_555
Al8 O10 1.749952 1_555
Al8 O12 1.754852 1_565
Al8 O3 1.762746 1_565
Al9 O20 1.746122 1_555
Al9 O7 1.749952 1_554
Al9 O17 1.754852 1_545
Al9 O2 1.762746 1_545
Al10 O19 1.746122 1_555
Al10 O11 1.749953 1_554
Al10 O14 1.754859 1_655
Al10 O1 1.762738 1_655
Al11 O18 1.746124 1_555
Al11 O9 1.749959 1_555
Al11 O16 1.754850 1_555
Al11 O0 1.762738 1_555
O0 Sr2 2.632933 1_555
O0 Sr0 2.724581 1_555
O1 Sr3 2.632927 1_555
O1 Sr1 2.724576 1_554
O2 Sr3 2.632927 1_555
O2 Sr1 2.724576 1_554
O3 Sr2 2.632927 1_555
O3 Sr0 2.724576 1_555
O4 Sr2 2.632927 1_555
O4 Sr0 2.724576 1_555
O5 Sr3 2.632933 1_555
O5 Sr1 2.724581 1_554
O6 Sr3 2.516598 1_555
O7 Sr2 2.516604 1_555
O8 Sr2 2.516604 1_555
O9 Sr3 2.516604 1_555
O10 Sr3 2.516604 1_555
O11 Sr2 2.516598 1_555
O12 Sr4 2.575571 1_655
O12 Sr5 2.929429 1_655
O13 Sr5 2.575571 1_665
O13 Sr4 2.929429 1_664
O14 Sr5 2.575571 1_555
O14 Sr4 2.929429 1_554
O15 Sr4 2.575571 1_665
O15 Sr5 2.929429 1_665
O16 Sr4 2.575571 1_555
O16 Sr5 2.929429 1_555
O17 Sr5 2.575571 1_565
O17 Sr4 2.929429 1_564
O18 Sr1 2.450380 1_555
O18 Sr4 2.941301 1_555
O19 Sr0 2.450371 1_555
O19 Sr5 2.941301 1_655
O20 Sr0 2.450377 1_555
O20 Sr5 2.941301 1_555
O21 Sr1 2.450377 1_555
O21 Sr4 2.941301 1_665
O22 Sr1 2.450371 1_555
O22 Sr4 2.941301 1_565
O23 Sr0 2.450380 1_555
O23 Sr5 2.941301 1_665
