# generated using pymatgen
data_YbNdS3
_symmetry_space_group_name_H-M   'P 1'
_cell_length_a   7.19595882
_cell_length_b   7.19595882
_cell_length_c   8.90330900
_cell_angle_alpha   90.00000000
_cell_angle_beta   90.00000000
_cell_angle_gamma   147.92195012
_symmetry_Int_Tables_number   1
_chemical_formula_structural   YbNdS3
_chemical_formula_sum   'Yb2 Nd2 S6'
_cell_volume   244.84082270
_cell_formula_units_Z   2
loop_
 _symmetry_equiv_pos_site_id
 _symmetry_equiv_pos_as_xyz
  1  'x, y, z'
loop_
 _atom_site_type_symbol
 _atom_site_label
 _atom_site_symmetry_multiplicity
 _atom_site_fract_x
 _atom_site_fract_y
 _atom_site_fract_z
 _atom_site_occupancy
  Yb  Yb0  1  0.00000000  0.00000000  0.50000000  1
  Yb  Yb1  1  0.00000000  0.00000000  0.00000000  1
  Nd  Nd0  1  0.74682200  0.25317800  0.25000000  1
  Nd  Nd1  1  0.25317800  0.74682200  0.75000000  1
  S  S0  1  0.63944500  0.36055500  0.58548400  1
  S  S1  1  0.63944500  0.36055500  0.91451600  1
  S  S2  1  0.36055500  0.63944500  0.08548400  1
  S  S3  1  0.36055500  0.63944500  0.41451600  1
  S  S4  1  0.10772000  0.89228000  0.25000000  1
  S  S5  1  0.89228000  0.10772000  0.75000000  1
loop_
_geom_bond_atom_site_label_1
_geom_bond_atom_site_label_2
_geom_bond_distance
_geom_bond_site_symmetry_2
Nd0 S4 2.766717 1_545
Nd0 S4 2.766717 1_655
Nd0 S3 2.927976 1_545
Nd0 S3 2.927976 1_655
Nd0 S2 2.927976 1_545
Nd0 S2 2.927976 1_655
Nd0 S1 3.335793 1_554
Nd0 S0 3.335793 1_555
Nd1 S5 2.766717 1_455
Nd1 S5 2.766717 1_565
Nd1 S0 2.927976 1_565
Nd1 S1 2.927976 1_565
Nd1 S0 2.927976 1_455
Nd1 S1 2.927976 1_455
Nd1 S3 3.335793 1_555
Nd1 S2 3.335793 1_556
S0 Yb0 2.872675 1_665
S0 Yb0 2.872675 1_555
S1 Yb1 2.872675 1_666
S1 Yb1 2.872675 1_556
S2 Yb1 2.872675 1_555
S2 Yb1 2.872675 1_665
S3 Yb0 2.872675 1_555
S3 Yb0 2.872675 1_665
S4 Yb1 2.678481 1_565
S4 Yb0 2.678481 1_565
S5 Yb1 2.678481 1_656
S5 Yb0 2.678481 1_655
