# generated using pymatgen
data_Nd2B5
_symmetry_space_group_name_H-M   'P 1'
_cell_length_a   7.29538297
_cell_length_b   7.32766879
_cell_length_c   8.41379154
_cell_angle_alpha   107.17765800
_cell_angle_beta   115.69299980
_cell_angle_gamma   90.00083903
_symmetry_Int_Tables_number   1
_chemical_formula_structural   Nd2B5
_chemical_formula_sum   'Nd8 B20'
_cell_volume   382.92815333
_cell_formula_units_Z   4
loop_
 _symmetry_equiv_pos_site_id
 _symmetry_equiv_pos_as_xyz
  1  'x, y, z'
loop_
 _atom_site_type_symbol
 _atom_site_label
 _atom_site_symmetry_multiplicity
 _atom_site_fract_x
 _atom_site_fract_y
 _atom_site_fract_z
 _atom_site_occupancy
  Nd  Nd0  1  0.45133202  0.40085820  0.76235318  1
  Nd  Nd1  1  0.54866798  0.59914180  0.23764682  1
  Nd  Nd2  1  0.94358404  0.27716462  0.76326490  1
  Nd  Nd3  1  0.18030773  0.22281499  0.23673218  1
  Nd  Nd4  1  0.81969227  0.77718501  0.76326782  1
  Nd  Nd5  1  0.68896921  0.09913482  0.23764691  1
  Nd  Nd6  1  0.05641596  0.72283538  0.23673510  1
  Nd  Nd7  1  0.31103079  0.90086518  0.76235309  1
  B  B0  1  0.82861043  0.46034032  0.49970442  1
  B  B1  1  0.32890961  0.03966471  0.50029776  1
  B  B2  1  0.08948081  0.56081188  0.68030126  1
  B  B3  1  0.91051919  0.43918812  0.31969874  1
  B  B4  1  0.90682436  0.90720343  0.49831593  1
  B  B5  1  0.59150070  0.40721207  0.49833209  1
  B  B6  1  0.17138957  0.53965968  0.50029558  1
  B  B7  1  0.67109039  0.96033529  0.49970224  1
  B  B8  1  0.79716005  0.35241699  0.08462778  1
  B  B9  1  0.40849930  0.59278793  0.50166791  1
  B  B10  1  0.40916635  0.93919156  0.31970067  1
  B  B11  1  0.71253286  0.14757769  0.91536962  1
  B  B12  1  0.95941703  0.67013853  0.49758524  1
  B  B13  1  0.04058297  0.32986147  0.50241476  1
  B  B14  1  0.59083365  0.06080844  0.68029933  1
  B  B15  1  0.53818214  0.17014053  0.49759062  1
  B  B16  1  0.28746714  0.85242231  0.08463038  1
  B  B17  1  0.46181786  0.82985947  0.50240938  1
  B  B18  1  0.09317564  0.09279657  0.50168407  1
  B  B19  1  0.20283995  0.64758301  0.91537222  1
loop_
_geom_bond_atom_site_label_1
_geom_bond_atom_site_label_2
_geom_bond_distance
_geom_bond_site_symmetry_2
B0 B5 1.767464 1_555
B0 B13 1.813400 1_655
B0 B2 1.817845 1_655
B0 B12 1.818039 1_555
B0 B3 1.822356 1_555
B0 Nd4 2.719607 1_555
B0 Nd1 2.736257 1_555
B0 Nd5 2.740447 1_555
B0 Nd2 2.751004 1_555
B1 B18 1.767499 1_555
B1 B15 1.813414 1_555
B1 B10 1.817804 1_545
B1 B17 1.818037 1_545
B1 B14 1.822374 1_555
B1 Nd6 2.719524 1_545
B1 Nd7 2.736222 1_545
B1 Nd0 2.740378 1_555
B1 Nd3 2.750906 1_555
B2 B6 1.822356 1_555
B2 Nd7 2.704497 1_555
B2 Nd4 2.722622 1_455
B2 Nd2 2.727882 1_455
B2 Nd0 2.777942 1_555
B3 B8 1.684915 1_555
B3 B6 1.817845 1_655
B3 Nd5 2.704497 1_555
B3 Nd3 2.722622 1_655
B3 Nd6 2.727882 1_655
B3 Nd1 2.777942 1_555
B4 B7 1.767499 1_555
B4 Nd7 2.830848 1_655
B4 Nd5 2.848456 1_565
B4 Nd6 2.861206 1_655
B4 Nd2 2.881427 1_565
B4 Nd4 2.960496 1_555
B4 Nd1 2.973141 1_555
B5 B9 1.908494 1_555
B5 Nd0 2.830782 1_555
B5 Nd1 2.848538 1_555
B5 Nd3 2.861328 1_555
B5 Nd4 2.881433 1_555
B5 Nd2 2.960520 1_555
B5 Nd5 2.973276 1_555
B6 B9 1.767464 1_555
B6 Nd3 2.719607 1_555
B6 Nd0 2.736257 1_555
B6 Nd7 2.740447 1_555
B6 Nd6 2.751004 1_555
B7 Nd2 2.719524 1_565
B7 Nd5 2.736222 1_565
B7 Nd1 2.740378 1_555
B7 Nd4 2.750906 1_555
B8 Nd3 2.822952 1_655
B8 Nd5 2.831553 1_555
B8 Nd6 2.903745 1_655
B8 Nd0 2.912115 1_554
B8 Nd1 2.976839 1_555
B8 Nd2 3.221791 1_554
B9 Nd1 2.830782 1_555
B9 Nd0 2.848538 1_555
B9 Nd4 2.861328 1_555
B9 Nd3 2.881433 1_555
B9 Nd6 2.960520 1_555
B9 Nd7 2.973276 1_555
B10 B16 1.684907 1_555
B10 B15 1.808957 1_565
B10 B7 1.822374 1_555
B10 B17 1.835225 1_555
B10 Nd1 2.704533 1_555
B10 Nd6 2.722481 1_555
B10 Nd3 2.727761 1_565
B10 Nd5 2.777921 1_565
B11 B8 1.623952 1_556
B11 B14 1.684907 1_555
B11 Nd2 2.822950 1_555
B11 Nd0 2.831515 1_555
B11 Nd4 2.903667 1_545
B11 Nd5 2.912201 1_556
B11 Nd7 2.976681 1_545
B11 Nd3 3.221682 1_656
B12 B4 1.777819 1_555
B12 B3 1.808936 1_555
B12 B6 1.813400 1_655
B12 B2 1.835249 1_655
B12 Nd7 2.687259 1_655
B12 Nd6 2.704443 1_655
B12 Nd4 2.755263 1_555
B12 Nd1 2.771018 1_555
B13 B18 1.777819 1_555
B13 B2 1.808936 1_555
B13 B6 1.818039 1_555
B13 B3 1.835249 1_455
B13 Nd5 2.687259 1_455
B13 Nd2 2.704443 1_455
B13 Nd3 2.755263 1_555
B13 Nd0 2.771018 1_555
B14 B17 1.808957 1_545
B14 B7 1.817804 1_545
B14 B15 1.835225 1_555
B14 Nd0 2.704533 1_555
B14 Nd2 2.722481 1_555
B14 Nd4 2.727761 1_545
B14 Nd7 2.777921 1_545
B15 B5 1.777813 1_555
B15 B7 1.818037 1_545
B15 Nd0 2.687280 1_555
B15 Nd3 2.704499 1_555
B15 Nd2 2.755154 1_555
B15 Nd5 2.770978 1_555
B16 B19 1.623952 1_554
B16 Nd6 2.822950 1_555
B16 Nd1 2.831515 1_555
B16 Nd3 2.903667 1_565
B16 Nd7 2.912201 1_554
B16 Nd5 2.976681 1_565
B16 Nd4 3.221682 1_454
B17 B9 1.777813 1_555
B17 B7 1.813414 1_555
B17 Nd1 2.687280 1_555
B17 Nd4 2.704499 1_555
B17 Nd6 2.755154 1_555
B17 Nd7 2.770978 1_555
B18 B4 1.908490 1_445
B18 Nd5 2.830848 1_455
B18 Nd7 2.848456 1_545
B18 Nd2 2.861206 1_455
B18 Nd6 2.881427 1_545
B18 Nd3 2.960496 1_555
B18 Nd0 2.973141 1_555
B19 B2 1.684915 1_555
B19 Nd4 2.822952 1_455
B19 Nd7 2.831553 1_555
B19 Nd2 2.903745 1_455
B19 Nd1 2.912115 1_556
B19 Nd0 2.976839 1_555
B19 Nd6 3.221791 1_556
