# generated using pymatgen
data_BH11C4BrNF4
_symmetry_space_group_name_H-M   'P 1'
_cell_length_a   7.90845500
_cell_length_b   6.08387800
_cell_length_c   9.62135728
_cell_angle_alpha   75.99855152
_cell_angle_beta   90.00000000
_cell_angle_gamma   90.00000000
_symmetry_Int_Tables_number   1
_chemical_formula_structural   BH11C4BrNF4
_chemical_formula_sum   'B2 H22 C8 Br2 N2 F8'
_cell_volume   449.16909513
_cell_formula_units_Z   2
loop_
 _symmetry_equiv_pos_site_id
 _symmetry_equiv_pos_as_xyz
  1  'x, y, z'
loop_
 _atom_site_type_symbol
 _atom_site_label
 _atom_site_symmetry_multiplicity
 _atom_site_fract_x
 _atom_site_fract_y
 _atom_site_fract_z
 _atom_site_occupancy
  B  B0  1  0.25000000  0.94267200  0.76415600  1
  B  B1  1  0.75000000  0.05732800  0.23584400  1
  H  H0  1  0.75000000  0.64070700  0.96307000  1
  H  H1  1  0.98280200  0.50781300  0.20949300  1
  H  H2  1  0.86404900  0.81692800  0.81550200  1
  H  H3  1  0.91089700  0.25223400  0.75384300  1
  H  H4  1  0.25000000  0.35929300  0.03693000  1
  H  H5  1  0.10262300  0.69483700  0.07048100  1
  H  H6  1  0.51719800  0.50781300  0.20949300  1
  H  H7  1  0.86460000  0.73823700  0.58835300  1
  H  H8  1  0.41089700  0.74776600  0.24615700  1
  H  H9  1  0.08910300  0.74776600  0.24615700  1
  H  H10  1  0.13540000  0.26176300  0.41164700  1
  H  H11  1  0.60262300  0.30516300  0.92951900  1
  H  H12  1  0.48280200  0.49218700  0.79050700  1
  H  H13  1  0.36404900  0.18307200  0.18449800  1
  H  H14  1  0.13595100  0.18307200  0.18449800  1
  H  H15  1  0.89737700  0.30516300  0.92951900  1
  H  H16  1  0.63595100  0.81692800  0.81550200  1
  H  H17  1  0.36460000  0.26176300  0.41164700  1
  H  H18  1  0.63540000  0.73823700  0.58835300  1
  H  H19  1  0.01719800  0.49218700  0.79050700  1
  H  H20  1  0.39737700  0.69483700  0.07048100  1
  H  H21  1  0.58910300  0.25223400  0.75384300  1
  C  C0  1  0.40589600  0.61746700  0.18546400  1
  C  C1  1  0.75000000  0.71506000  0.84757600  1
  C  C2  1  0.75000000  0.63551400  0.61346900  1
  C  C3  1  0.90589600  0.38253300  0.81453600  1
  C  C4  1  0.25000000  0.28494000  0.15242400  1
  C  C5  1  0.09410400  0.61746700  0.18546400  1
  C  C6  1  0.59410400  0.38253300  0.81453600  1
  C  C7  1  0.25000000  0.36448600  0.38653100  1
  Br  Br0  1  0.75000000  0.41984900  0.49465100  1
  Br  Br1  1  0.25000000  0.58015100  0.50534900  1
  N  N0  1  0.25000000  0.47554800  0.22789800  1
  N  N1  1  0.75000000  0.52445200  0.77210200  1
  F  F0  1  0.25000000  0.08250300  0.86183700  1
  F  F1  1  0.39691800  0.98274100  0.67683900  1
  F  F2  1  0.25000000  0.71008100  0.84277000  1
  F  F3  1  0.75000000  0.28991900  0.15723000  1
  F  F4  1  0.75000000  0.91749700  0.13816300  1
  F  F5  1  0.60308200  0.01725900  0.32316100  1
  F  F6  1  0.89691800  0.01725900  0.32316100  1
  F  F7  1  0.10308200  0.98274100  0.67683900  1
loop_
_geom_bond_atom_site_label_1
_geom_bond_atom_site_label_2
_geom_bond_distance
_geom_bond_site_symmetry_2
B0 F0 1.412044 1_565
B0 F7 1.419897 1_555
B0 F1 1.419897 1_555
B0 F2 1.434073 1_555
B1 F4 1.412044 1_545
B1 F6 1.419897 1_555
B1 F5 1.419897 1_555
B1 F3 1.434073 1_555
C0 H8 1.093147 1_555
C0 H20 1.094535 1_555
C0 H6 1.094837 1_555
C0 N0 1.503873 1_555
C1 H0 1.093698 1_555
C1 H2 1.095580 1_555
C1 H16 1.095580 1_555
C1 N1 1.509816 1_555
C2 H18 1.094203 1_555
C2 H7 1.094203 1_555
C2 N1 1.512286 1_555
C3 H3 1.093147 1_555
C3 H15 1.094535 1_555
C3 H19 1.094837 1_655
C3 N1 1.503873 1_555
C4 H4 1.093698 1_555
C4 H13 1.095580 1_555
C4 H14 1.095580 1_555
C4 N0 1.509816 1_555
C5 H9 1.093147 1_555
C5 H5 1.094535 1_555
C5 H1 1.094837 1_455
C5 N0 1.503873 1_555
C6 H21 1.093147 1_555
C6 H11 1.094535 1_555
C6 H12 1.094837 1_555
C6 N1 1.503873 1_555
C7 H10 1.094203 1_555
C7 H17 1.094203 1_555
C7 N0 1.512286 1_555
Br0 C2 1.937590 1_555
Br1 C7 1.937590 1_555
