# generated using pymatgen
data_CuB2(PbO3)2
_symmetry_space_group_name_H-M   'P 1'
_cell_length_a   8.84386200
_cell_length_b   5.76316300
_cell_length_c   6.27705836
_cell_angle_alpha   64.49566430
_cell_angle_beta   90.00000000
_cell_angle_gamma   90.00000000
_symmetry_Int_Tables_number   1
_chemical_formula_structural   CuB2(PbO3)2
_chemical_formula_sum   'Cu2 B4 Pb4 O12'
_cell_volume   288.75638662
_cell_formula_units_Z   2
loop_
 _symmetry_equiv_pos_site_id
 _symmetry_equiv_pos_as_xyz
  1  'x, y, z'
loop_
 _atom_site_type_symbol
 _atom_site_label
 _atom_site_symmetry_multiplicity
 _atom_site_fract_x
 _atom_site_fract_y
 _atom_site_fract_z
 _atom_site_occupancy
  Cu  Cu0  1  0.50000000  0.50000000  0.00000000  1
  Cu  Cu1  1  0.00000000  0.50000000  0.50000000  1
  B  B0  1  0.75151200  0.26277200  0.84316300  1
  B  B1  1  0.24848800  0.73722800  0.15683700  1
  B  B2  1  0.25151200  0.73722800  0.65683700  1
  B  B3  1  0.74848800  0.26277200  0.34316300  1
  Pb  Pb0  1  0.39212600  0.19321000  0.66311800  1
  Pb  Pb1  1  0.89212600  0.80679000  0.83688200  1
  Pb  Pb2  1  0.60787400  0.80679000  0.33688200  1
  Pb  Pb3  1  0.10787400  0.19321000  0.16311800  1
  O  O0  1  0.17722000  0.97083000  0.58574900  1
  O  O1  1  0.90619700  0.26069600  0.79351900  1
  O  O2  1  0.32278000  0.97083000  0.08574900  1
  O  O3  1  0.09380300  0.73930400  0.20648100  1
  O  O4  1  0.18196900  0.51316900  0.67981400  1
  O  O5  1  0.59380300  0.26069600  0.29351900  1
  O  O6  1  0.68196900  0.48683100  0.82018600  1
  O  O7  1  0.67722000  0.02917000  0.91425100  1
  O  O8  1  0.82278000  0.02917000  0.41425100  1
  O  O9  1  0.81803100  0.48683100  0.32018600  1
  O  O10  1  0.40619700  0.73930400  0.70648100  1
  O  O11  1  0.31803100  0.51316900  0.17981400  1
loop_
_geom_bond_atom_site_label_1
_geom_bond_atom_site_label_2
_geom_bond_distance
_geom_bond_site_symmetry_2
Cu0 O5 1.948493 1_555
Cu0 O10 1.948493 1_554
Cu0 O6 1.985793 1_554
Cu0 O11 1.985793 1_555
Cu1 O3 1.948493 1_555
Cu1 O1 1.948493 1_455
Cu1 O4 1.985793 1_555
Cu1 O9 1.985793 1_455
B0 O6 1.380618 1_555
B0 O7 1.387787 1_555
B0 O1 1.404250 1_555
B1 O11 1.380618 1_555
B1 O2 1.387787 1_555
B1 O3 1.404250 1_555
B2 O4 1.380618 1_555
B2 O0 1.387787 1_555
B2 O10 1.404250 1_555
B3 O9 1.380618 1_555
B3 O8 1.387787 1_555
B3 O5 1.404250 1_555
O0 Pb0 2.454926 1_565
O0 Pb3 2.475583 1_565
O1 Pb1 2.513864 1_545
O2 Pb3 2.454926 1_565
O2 Pb0 2.475583 1_564
O3 Pb3 2.513864 1_565
O4 Pb0 2.651800 1_555
O5 Pb2 2.513864 1_545
O6 Pb1 2.651800 1_555
O7 Pb1 2.454926 1_545
O7 Pb2 2.475583 1_546
O8 Pb2 2.454926 1_545
O8 Pb1 2.475583 1_545
O9 Pb2 2.651800 1_555
O10 Pb0 2.513864 1_565
O11 Pb3 2.651800 1_555
