# generated using pymatgen
data_Er3(CuGe)4
_symmetry_space_group_name_H-M   'P 1'
_cell_length_a   4.14217506
_cell_length_b   6.58262527
_cell_length_c   7.89071683
_cell_angle_alpha   114.65702734
_cell_angle_beta   105.21693293
_cell_angle_gamma   90.00063180
_symmetry_Int_Tables_number   1
_chemical_formula_structural   Er3(CuGe)4
_chemical_formula_sum   'Er3 Cu4 Ge4'
_cell_volume   187.20156599
_cell_formula_units_Z   1
loop_
 _symmetry_equiv_pos_site_id
 _symmetry_equiv_pos_as_xyz
  1  'x, y, z'
loop_
 _atom_site_type_symbol
 _atom_site_label
 _atom_site_symmetry_multiplicity
 _atom_site_fract_x
 _atom_site_fract_y
 _atom_site_fract_z
 _atom_site_occupancy
  Er  Er0  1  0.86964283  0.87002193  0.73943620  1
  Er  Er1  1  0.13035717  0.12997807  0.26056280  1
  Er  Er2  1  0.00000100  0.50000000  -0.00000000  1
  Cu  Cu0  1  0.32941856  0.14098682  0.66114636  1
  Cu  Cu1  1  0.32927485  0.52021825  0.65987861  1
  Cu  Cu2  1  0.67058144  0.85901318  0.33885364  1
  Cu  Cu3  1  0.67072515  0.47978175  0.34012139  1
  Ge  Ge0  1  0.49986081  0.80790674  0.99965207  1
  Ge  Ge1  1  0.78290884  0.28292397  0.56662595  1
  Ge  Ge2  1  0.21709116  0.71707503  0.43337405  1
  Ge  Ge3  1  0.50013919  0.19209326  0.00034793  1
loop_
_geom_bond_atom_site_label_1
_geom_bond_atom_site_label_2
_geom_bond_distance
_geom_bond_site_symmetry_2
Er0 Ge2 2.949006 1_555
Er0 Ge2 2.951820 1_655
Er0 Ge0 3.013429 1_555
Er0 Ge0 3.014053 1_655
Er0 Ge3 3.014673 1_566
Er0 Ge3 3.014863 1_666
Er1 Ge1 2.949010 1_555
Er1 Ge1 2.951826 1_455
Er1 Ge3 3.013422 1_555
Er1 Ge3 3.014049 1_455
Er1 Ge0 3.014669 1_544
Er1 Ge0 3.014862 1_444
Er2 Ge3 2.898550 1_555
Er2 Ge0 2.898556 1_454
Er2 Ge0 2.898724 1_554
Er2 Ge3 2.898730 1_455
Er2 Ge2 2.975397 1_555
Er2 Ge1 2.975398 1_454
Cu0 Ge3 2.456063 1_556
Cu0 Ge1 2.499780 1_455
Cu0 Cu1 2.500528 1_555
Cu0 Ge1 2.504912 1_555
Cu0 Ge2 2.570946 1_545
Cu0 Er0 2.954149 1_445
Cu0 Er0 2.960436 1_545
Cu0 Er1 3.019448 1_555
Cu1 Ge0 2.458212 1_555
Cu1 Ge1 2.503975 1_455
Cu1 Ge1 2.505790 1_555
Cu1 Ge2 2.566311 1_555
Cu1 Er0 2.956745 1_455
Cu1 Er0 2.960124 1_555
Cu1 Er1 3.014868 1_555
Cu2 Ge0 2.456063 1_554
Cu2 Ge2 2.499783 1_655
Cu2 Cu3 2.500528 1_555
Cu2 Ge2 2.504916 1_555
Cu2 Ge1 2.570941 1_565
Cu2 Er1 2.954154 1_665
Cu2 Er1 2.960438 1_565
Cu2 Er0 3.019440 1_555
Cu3 Ge3 2.458212 1_555
Cu3 Ge2 2.503971 1_655
Cu3 Ge2 2.505787 1_555
Cu3 Ge1 2.566317 1_555
Cu3 Er1 2.956746 1_655
Cu3 Er1 2.960121 1_555
Cu3 Er0 3.014863 1_555
Ge0 Ge3 2.526670 1_566
