# generated using pymatgen
data_Na2ZrGe2O7
_symmetry_space_group_name_H-M   'P 1'
_cell_length_a   5.70858500
_cell_length_b   6.75715526
_cell_length_c   9.26486276
_cell_angle_alpha   70.47846073
_cell_angle_beta   88.72967946
_cell_angle_gamma   86.89571963
_symmetry_Int_Tables_number   1
_chemical_formula_structural   Na2ZrGe2O7
_chemical_formula_sum   'Na4 Zr2 Ge4 O14'
_cell_volume   336.33979468
_cell_formula_units_Z   2
loop_
 _symmetry_equiv_pos_site_id
 _symmetry_equiv_pos_as_xyz
  1  'x, y, z'
loop_
 _atom_site_type_symbol
 _atom_site_label
 _atom_site_symmetry_multiplicity
 _atom_site_fract_x
 _atom_site_fract_y
 _atom_site_fract_z
 _atom_site_occupancy
  Na  Na0  1  0.76584300  0.65525800  0.50411400  1
  Na  Na1  1  0.72958700  0.90202800  0.11639000  1
  Na  Na2  1  0.23415700  0.34474200  0.49588600  1
  Na  Na3  1  0.27041300  0.09797200  0.88361000  1
  Zr  Zr0  1  0.77065200  0.29822500  0.27632200  1
  Zr  Zr1  1  0.22934800  0.70177500  0.72367800  1
  Ge  Ge0  1  0.30480700  0.94643100  0.33521400  1
  Ge  Ge1  1  0.22447600  0.64376800  0.14455100  1
  Ge  Ge2  1  0.69519300  0.05356900  0.66478600  1
  Ge  Ge3  1  0.77552400  0.35623200  0.85544900  1
  O  O0  1  0.54231100  0.51958800  0.75816300  1
  O  O1  1  0.71697700  0.09533300  0.84925600  1
  O  O2  1  0.94948000  0.58530000  0.23533800  1
  O  O3  1  0.74260500  0.28882400  0.51307000  1
  O  O4  1  0.39519300  0.99638000  0.66388400  1
  O  O5  1  0.60480700  0.00362000  0.33611600  1
  O  O6  1  0.25739500  0.71117600  0.48693000  1
  O  O7  1  0.89921000  0.85175000  0.66758400  1
  O  O8  1  0.10079000  0.14825000  0.33241600  1
  O  O9  1  0.78993400  0.29738300  0.05343400  1
  O  O10  1  0.05052000  0.41470000  0.76466200  1
  O  O11  1  0.21006600  0.70261700  0.94656600  1
  O  O12  1  0.28302300  0.90466700  0.15074400  1
  O  O13  1  0.45768900  0.48041200  0.24183700  1
loop_
_geom_bond_atom_site_label_1
_geom_bond_atom_site_label_2
_geom_bond_distance
_geom_bond_site_symmetry_2
Na0 O3 2.460303 1_555
Na0 O7 2.478065 1_555
Na0 O5 2.487804 1_565
Na0 O0 2.561291 1_555
Na0 O6 2.845513 1_655
Na0 O2 2.853185 1_555
Na0 O10 2.894086 1_655
Na0 O6 2.907617 1_555
Na1 O2 2.358955 1_555
Na1 O1 2.382001 1_564
Na1 O5 2.437119 1_565
Na1 O12 2.561871 1_555
Na1 O9 2.577799 1_565
Na2 O6 2.460303 1_555
Na2 O8 2.478065 1_555
Na2 O4 2.487804 1_545
Na2 O13 2.561291 1_555
Na2 O3 2.845513 1_455
Na2 O10 2.853185 1_555
Na2 O2 2.894086 1_455
Na2 O3 2.907617 1_555
Na3 O10 2.358955 1_555
Na3 O12 2.382001 1_546
Na3 O4 2.437119 1_545
Na3 O1 2.561871 1_555
Na3 O11 2.577799 1_545
Ge0 O8 1.738537 1_565
Ge0 O6 1.764209 1_555
Ge0 O5 1.776735 1_565
Ge0 O12 1.830753 1_555
Ge1 O13 1.741367 1_555
Ge1 O11 1.745058 1_554
Ge1 O2 1.764798 1_455
Ge1 O12 1.831721 1_555
Ge2 O7 1.738537 1_545
Ge2 O3 1.764209 1_555
Ge2 O4 1.776735 1_545
Ge2 O1 1.830753 1_555
Ge3 O0 1.741367 1_555
Ge3 O9 1.745058 1_556
Ge3 O10 1.764798 1_655
Ge3 O1 1.831721 1_555
O0 Zr1 2.081751 1_555
O2 Zr0 2.157363 1_555
O3 Zr0 2.175603 1_555
O4 Zr1 2.147069 1_555
O5 Zr0 2.147069 1_555
O6 Zr1 2.175603 1_555
O7 Zr1 2.081698 1_655
O8 Zr0 2.081698 1_455
O9 Zr0 2.067411 1_555
O10 Zr1 2.157363 1_555
O11 Zr1 2.067411 1_555
O13 Zr0 2.081751 1_555
