# generated using pymatgen
data_NaY(SiO3)2
_symmetry_space_group_name_H-M   'P 1'
_cell_length_a   13.85888400
_cell_length_b   5.48071000
_cell_length_c   7.69404609
_cell_angle_alpha   70.02759725
_cell_angle_beta   90.00000000
_cell_angle_gamma   90.00000000
_symmetry_Int_Tables_number   1
_chemical_formula_structural   NaY(SiO3)2
_chemical_formula_sum   'Na4 Y4 Si8 O24'
_cell_volume   549.26479271
_cell_formula_units_Z   4
loop_
 _symmetry_equiv_pos_site_id
 _symmetry_equiv_pos_as_xyz
  1  'x, y, z'
loop_
 _atom_site_type_symbol
 _atom_site_label
 _atom_site_symmetry_multiplicity
 _atom_site_fract_x
 _atom_site_fract_y
 _atom_site_fract_z
 _atom_site_occupancy
  Na  Na0  1  0.23098700  0.86308100  0.54626200  1
  Na  Na1  1  0.73098700  0.13691900  0.95373800  1
  Na  Na2  1  0.76901300  0.13691900  0.45373800  1
  Na  Na3  1  0.26901300  0.86308100  0.04626200  1
  Y  Y0  1  0.99432700  0.98314000  0.75214600  1
  Y  Y1  1  0.00567300  0.01686000  0.24785400  1
  Y  Y2  1  0.49432700  0.01686000  0.74785400  1
  Y  Y3  1  0.50567300  0.98314000  0.25214600  1
  Si  Si0  1  0.63961300  0.57148200  0.14421600  1
  Si  Si1  1  0.13778000  0.41827800  0.93298900  1
  Si  Si2  1  0.36222000  0.41827800  0.43298900  1
  Si  Si3  1  0.86222000  0.58172200  0.06701100  1
  Si  Si4  1  0.63778000  0.58172200  0.56701100  1
  Si  Si5  1  0.86038700  0.57148200  0.64421600  1
  Si  Si6  1  0.36038700  0.42851800  0.85578400  1
  Si  Si7  1  0.13961300  0.42851800  0.35578400  1
  O  O0  1  0.74948100  0.68370300  0.57993500  1
  O  O1  1  0.87827500  0.61881900  0.84462300  1
  O  O2  1  0.13395600  0.73255600  0.32913000  1
  O  O3  1  0.75051900  0.68370300  0.07993500  1
  O  O4  1  0.37525900  0.71569300  0.30387700  1
  O  O5  1  0.86604400  0.26744400  0.67087000  1
  O  O6  1  0.43712800  0.20005700  0.41800400  1
  O  O7  1  0.56561200  0.78812500  0.01645900  1
  O  O8  1  0.62474100  0.28430700  0.69612300  1
  O  O9  1  0.36604400  0.73255600  0.82913000  1
  O  O10  1  0.12172500  0.38118100  0.15537700  1
  O  O11  1  0.43438800  0.21187500  0.98354100  1
  O  O12  1  0.93712800  0.79994300  0.08199600  1
  O  O13  1  0.24948100  0.31629700  0.92006500  1
  O  O14  1  0.12474100  0.71569300  0.80387700  1
  O  O15  1  0.93438800  0.78812500  0.51645900  1
  O  O16  1  0.56287200  0.79994300  0.58199600  1
  O  O17  1  0.37827500  0.38118100  0.65537700  1
  O  O18  1  0.25051900  0.31629700  0.42006500  1
  O  O19  1  0.87525900  0.28430700  0.19612300  1
  O  O20  1  0.62172500  0.61881900  0.34462300  1
  O  O21  1  0.63395600  0.26744400  0.17087000  1
  O  O22  1  0.06561200  0.21187500  0.48354100  1
  O  O23  1  0.06287200  0.20005700  0.91800400  1
loop_
_geom_bond_atom_site_label_1
_geom_bond_atom_site_label_2
_geom_bond_distance
_geom_bond_site_symmetry_2
Na0 O18 2.353387 1_565
Na0 O14 2.378147 1_555
Na0 O2 2.434644 1_555
Na0 O9 2.772775 1_555
Na0 O22 2.917174 1_565
Na0 O4 3.026115 1_555
Na1 O3 2.353387 1_546
Na1 O8 2.378147 1_555
Na1 O21 2.434644 1_556
Na1 O5 2.772775 1_555
Na1 O7 2.917174 1_546
Na1 O19 3.026115 1_556
Na2 O0 2.353387 1_545
Na2 O19 2.378147 1_555
Na2 O5 2.434644 1_555
Na2 O21 2.772775 1_555
Na2 O15 2.917174 1_545
Na2 O8 3.026115 1_555
Na3 O13 2.353387 1_564
Na3 O4 2.378147 1_555
Na3 O9 2.434644 1_554
Na3 O2 2.772775 1_555
Na3 O11 2.917174 1_564
Na3 O14 3.026115 1_554
O0 Si4 1.660337 1_555
O0 Si5 1.666603 1_555
O1 Si5 1.667223 1_555
O1 Si3 1.667612 1_556
O1 Y0 2.471735 1_555
O2 Si7 1.609801 1_555
O2 Y1 2.305241 1_565
O3 Si3 1.660337 1_555
O3 Si0 1.666603 1_555
O4 Si2 1.603231 1_555
O4 Y3 2.274885 1_555
O5 Si5 1.609801 1_555
O5 Y0 2.305241 1_545
O6 Si2 1.617300 1_555
O6 Y3 2.231745 1_545
O6 Y2 2.517264 1_555
O7 Si0 1.621891 1_555
O7 Y2 2.246952 1_564
O7 Y3 2.538668 1_555
O8 Si4 1.603231 1_555
O8 Y2 2.274885 1_555
O9 Si6 1.609801 1_555
O9 Y2 2.305241 1_565
O10 Si7 1.667223 1_555
O10 Si1 1.667612 1_554
O10 Y1 2.471735 1_555
O11 Si6 1.621891 1_555
O11 Y3 2.246952 1_546
O11 Y2 2.538668 1_555
O12 Si3 1.617300 1_555
O12 Y1 2.231745 1_665
O12 Y0 2.517264 1_554
O13 Si1 1.660337 1_555
O13 Si6 1.666603 1_555
O14 Si1 1.603231 1_555
O14 Y0 2.274885 1_455
O15 Si5 1.621891 1_555
O15 Y1 2.246952 1_665
O15 Y0 2.538668 1_555
O16 Si4 1.617300 1_555
O16 Y2 2.231745 1_565
O16 Y3 2.517264 1_555
O17 Si6 1.667223 1_555
O17 Si2 1.667612 1_555
O17 Y2 2.471735 1_555
O18 Si2 1.660337 1_555
O18 Si7 1.666603 1_555
O19 Si3 1.603231 1_555
O19 Y1 2.274885 1_655
O20 Si0 1.667223 1_555
O20 Si4 1.667612 1_555
O20 Y3 2.471735 1_555
O21 Si0 1.609801 1_555
O21 Y3 2.305241 1_545
O22 Si7 1.621891 1_555
O22 Y0 2.246952 1_445
O22 Y1 2.538668 1_555
O23 Si1 1.617300 1_555
O23 Y0 2.231745 1_445
O23 Y1 2.517264 1_556
