# generated using pymatgen
data_NiAs2S6N4(OF2)8
_symmetry_space_group_name_H-M   'P 1'
_cell_length_a   16.63166700
_cell_length_b   9.81089500
_cell_length_c   15.86769330
_cell_angle_alpha   69.75872986
_cell_angle_beta   90.00000000
_cell_angle_gamma   90.00000000
_symmetry_Int_Tables_number   1
_chemical_formula_structural   NiAs2S6N4(OF2)8
_chemical_formula_sum   'Ni4 As8 S24 N16 O32 F64'
_cell_volume   2429.26017423
_cell_formula_units_Z   4
loop_
 _symmetry_equiv_pos_site_id
 _symmetry_equiv_pos_as_xyz
  1  'x, y, z'
loop_
 _atom_site_type_symbol
 _atom_site_label
 _atom_site_symmetry_multiplicity
 _atom_site_fract_x
 _atom_site_fract_y
 _atom_site_fract_z
 _atom_site_occupancy
  Ni  Ni0  1  0.14558600  0.19018000  0.25957300  1
  Ni  Ni1  1  0.64558600  0.80982000  0.24042700  1
  Ni  Ni2  1  0.35441400  0.19018000  0.75957300  1
  Ni  Ni3  1  0.85441400  0.80982000  0.74042700  1
  As  As0  1  0.49470700  0.95598500  0.81387200  1
  As  As1  1  0.31678000  0.34940100  0.55166300  1
  As  As2  1  0.50529300  0.04401500  0.18612800  1
  As  As3  1  0.68322000  0.65059900  0.44833700  1
  As  As4  1  0.99470700  0.04401500  0.68612800  1
  As  As5  1  0.00529300  0.95598500  0.31387200  1
  As  As6  1  0.81678000  0.65059900  0.94833700  1
  As  As7  1  0.18322000  0.34940100  0.05166300  1
  S  S0  1  0.82921000  0.14248300  0.59594200  1
  S  S1  1  0.65462200  0.45429800  0.33516000  1
  S  S2  1  0.07759900  0.31591400  0.42734800  1
  S  S3  1  0.57759900  0.68408600  0.07265200  1
  S  S4  1  0.15684700  0.26358300  0.79683600  1
  S  S5  1  0.65684700  0.73641700  0.70316400  1
  S  S6  1  0.84315300  0.73641700  0.20316400  1
  S  S7  1  0.67079000  0.14248300  0.09594200  1
  S  S8  1  0.17079000  0.85751700  0.40405800  1
  S  S9  1  0.84537800  0.45429800  0.83516000  1
  S  S10  1  0.29383700  0.01622000  0.62570400  1
  S  S11  1  0.32921000  0.85751700  0.90405800  1
  S  S12  1  0.79383700  0.98378000  0.87429600  1
  S  S13  1  0.34315300  0.26358300  0.29683600  1
  S  S14  1  0.04406600  0.72955300  0.79769000  1
  S  S15  1  0.92240100  0.68408600  0.57265200  1
  S  S16  1  0.20616300  0.01622000  0.12570400  1
  S  S17  1  0.70616300  0.98378000  0.37429600  1
  S  S18  1  0.54406600  0.27044700  0.70231000  1
  S  S19  1  0.42240100  0.31591400  0.92734800  1
  S  S20  1  0.95593400  0.27044700  0.20231000  1
  S  S21  1  0.45593400  0.72955300  0.29769000  1
  S  S22  1  0.15462200  0.54570200  0.16484000  1
  S  S23  1  0.34537800  0.54570200  0.66484000  1
  N  N0  1  0.97993700  0.83734800  0.75218500  1
  N  N1  1  0.15912000  0.39709300  0.15884200  1
  N  N2  1  0.34088000  0.39709300  0.65884200  1
  N  N3  1  0.61938500  0.02771400  0.16004700  1
  N  N4  1  0.38061500  0.97228600  0.83995300  1
  N  N5  1  0.02006300  0.16265200  0.24781500  1
  N  N6  1  0.84088000  0.60290700  0.84115800  1
  N  N7  1  0.18292600  0.15286800  0.14079300  1
  N  N8  1  0.88061500  0.02771400  0.66004700  1
  N  N9  1  0.47993700  0.16265200  0.74781500  1
  N  N10  1  0.31707400  0.15286800  0.64079300  1
  N  N11  1  0.68292600  0.84713200  0.35920700  1
  N  N12  1  0.81707400  0.84713200  0.85920700  1
  N  N13  1  0.65912000  0.60290700  0.34115800  1
  N  N14  1  0.52006300  0.83734800  0.25218500  1
  N  N15  1  0.11938500  0.97228600  0.33995300  1
  O  O0  1  0.87206000  0.75063300  0.62380900  1
  O  O1  1  0.62794000  0.75063300  0.12380900  1
  O  O2  1  0.99749000  0.62066400  0.61237000  1
  O  O3  1  0.86059700  0.43797800  0.75125100  1
  O  O4  1  0.34236600  0.41851600  0.25166300  1
  O  O5  1  0.28521800  0.88373500  0.69856400  1
  O  O6  1  0.49749000  0.37933600  0.88763000  1
  O  O7  1  0.02600700  0.57954300  0.83410600  1
  O  O8  1  0.21478200  0.88373500  0.19856400  1
  O  O9  1  0.23172200  0.18463900  0.79709000  1
  O  O10  1  0.37206000  0.24936700  0.87619100  1
  O  O11  1  0.84236600  0.58148400  0.24833700  1
  O  O12  1  0.12794000  0.24936700  0.37619100  1
  O  O13  1  0.63940300  0.43797800  0.25125100  1
  O  O14  1  0.97399300  0.42045700  0.16589400  1
  O  O15  1  0.75260500  0.11481400  0.08302200  1
  O  O16  1  0.13940300  0.56202200  0.24874900  1
  O  O17  1  0.36059700  0.56202200  0.74874900  1
  O  O18  1  0.52600700  0.42045700  0.66589400  1
  O  O19  1  0.50251000  0.62066400  0.11237000  1
  O  O20  1  0.24739500  0.88518600  0.91697800  1
  O  O21  1  0.73172200  0.81536100  0.70291000  1
  O  O22  1  0.26827800  0.18463900  0.29709000  1
  O  O23  1  0.00251000  0.37933600  0.38763000  1
  O  O24  1  0.74739500  0.11481400  0.58302200  1
  O  O25  1  0.76827800  0.81536100  0.20291000  1
  O  O26  1  0.71478200  0.11626500  0.30143600  1
  O  O27  1  0.15763400  0.41851600  0.75166300  1
  O  O28  1  0.25260500  0.88518600  0.41697800  1
  O  O29  1  0.78521800  0.11626500  0.80143600  1
  O  O30  1  0.47399300  0.57954300  0.33410600  1
  O  O31  1  0.65763400  0.58148400  0.74833700  1
  F  F0  1  0.11980000  0.75063500  0.73516500  1
  F  F1  1  0.40224800  0.04433400  0.21584300  1
  F  F2  1  0.59518200  0.35315600  0.40650800  1
  F  F3  1  0.53172300  0.08491900  0.28319500  1
  F  F4  1  0.50063100  0.23212600  0.12227800  1
  F  F5  1  0.57933300  0.66654900  0.46692800  1
  F  F6  1  0.52273800  0.99495900  0.91153100  1
  F  F7  1  0.90224800  0.95566600  0.28415700  1
  F  F8  1  0.28414000  0.03988600  0.06580700  1
  F  F9  1  0.09775200  0.04433400  0.71584300  1
  F  F10  1  0.20514200  0.28853800  0.96040300  1
  F  F11  1  0.92066700  0.66654900  0.96692800  1
  F  F12  1  0.46827700  0.91508100  0.71680500  1
  F  F13  1  0.40481800  0.64684400  0.59349200  1
  F  F14  1  0.79485800  0.71146200  0.03959700  1
  F  F15  1  0.71168800  0.63925100  0.93024300  1
  F  F16  1  0.16501300  0.71024100  0.38611600  1
  F  F17  1  0.96827700  0.08491900  0.78319500  1
  F  F18  1  0.12907500  0.79588600  0.49914600  1
  F  F19  1  0.76882600  0.36277900  0.87860300  1
  F  F20  1  0.78414000  0.96011400  0.43419300  1
  F  F21  1  0.29485800  0.28853800  0.46040300  1
  F  F22  1  0.21168800  0.36074900  0.56975700  1
  F  F23  1  0.49936900  0.76787400  0.87772200  1
  F  F24  1  0.83498700  0.28975900  0.61388400  1
  F  F25  1  0.73117400  0.36277900  0.37860300  1
  F  F26  1  0.42066700  0.33345100  0.53307200  1
  F  F27  1  0.62907500  0.20411400  0.00085400  1
  F  F28  1  0.21586000  0.03988600  0.56580700  1
  F  F29  1  0.91144400  0.22389300  0.12936900  1
  F  F30  1  0.81668100  0.46797800  0.02041800  1
  F  F31  1  0.37092500  0.79588600  0.99914600  1
  F  F32  1  0.02273800  0.00504100  0.58846900  1
  F  F33  1  0.34982900  0.98773800  0.55318700  1
  F  F34  1  0.38020000  0.75063500  0.23516500  1
  F  F35  1  0.70514200  0.71146200  0.53959700  1
  F  F36  1  0.15017100  0.98773800  0.05318700  1
  F  F37  1  0.28831200  0.36074900  0.06975700  1
  F  F38  1  0.03172300  0.91508100  0.21680500  1
  F  F39  1  0.59775200  0.95566600  0.78415700  1
  F  F40  1  0.33498700  0.71024100  0.88611600  1
  F  F41  1  0.58855600  0.22389300  0.62936900  1
  F  F42  1  0.61980000  0.24936500  0.76483500  1
  F  F43  1  0.26882600  0.63722100  0.62139700  1
  F  F44  1  0.00063100  0.76787400  0.37772200  1
  F  F45  1  0.78831200  0.63925100  0.43024300  1
  F  F46  1  0.66501300  0.28975900  0.11388400  1
  F  F47  1  0.07933300  0.33345100  0.03307200  1
  F  F48  1  0.41144400  0.77610700  0.37063100  1
  F  F49  1  0.47726200  0.00504100  0.08846900  1
  F  F50  1  0.23117400  0.63722100  0.12139700  1
  F  F51  1  0.08855600  0.77610700  0.87063100  1
  F  F52  1  0.87092500  0.20411400  0.50085400  1
  F  F53  1  0.09518200  0.64684400  0.09349200  1
  F  F54  1  0.99936900  0.23212600  0.62227800  1
  F  F55  1  0.97726200  0.99495900  0.41153100  1
  F  F56  1  0.68331900  0.46797800  0.52041800  1
  F  F57  1  0.65017100  0.01226200  0.44681300  1
  F  F58  1  0.90481800  0.35315600  0.90650800  1
  F  F59  1  0.88020000  0.24936500  0.26483500  1
  F  F60  1  0.18331900  0.53202200  0.97958200  1
  F  F61  1  0.71586000  0.96011400  0.93419300  1
  F  F62  1  0.84982900  0.01226200  0.94681300  1
  F  F63  1  0.31668100  0.53202200  0.47958200  1
loop_
_geom_bond_atom_site_label_1
_geom_bond_atom_site_label_2
_geom_bond_distance
_geom_bond_site_symmetry_2
Ni0 O22 2.121059 1_555
Ni0 O12 2.142668 1_555
Ni1 O25 2.121059 1_555
Ni1 O1 2.142668 1_555
Ni2 O9 2.121059 1_555
Ni2 O10 2.142668 1_555
Ni3 O21 2.121059 1_555
Ni3 O0 2.142668 1_555
As0 F23 1.773326 1_555
As0 F12 1.776027 1_555
As0 F39 1.777778 1_555
As0 F6 1.781820 1_555
As0 N9 1.949244 1_565
As0 N4 1.960434 1_555
As1 F63 1.760772 1_555
As1 F26 1.768839 1_555
As1 F22 1.780995 1_555
As1 F21 1.784588 1_555
As1 N2 1.955130 1_555
As1 N10 1.957326 1_555
As2 F4 1.773326 1_555
As2 F3 1.776027 1_555
As2 F1 1.777778 1_555
As2 F49 1.781820 1_555
As2 N14 1.949244 1_545
As2 N3 1.960434 1_555
As3 F56 1.760772 1_555
As3 F5 1.768839 1_555
As3 F45 1.780995 1_555
As3 F35 1.784588 1_555
As3 N13 1.955130 1_555
As3 N11 1.957326 1_555
As4 F54 1.773326 1_555
As4 F17 1.776027 1_555
As4 F9 1.777778 1_655
As4 F32 1.781820 1_655
As4 N0 1.949244 1_545
As4 N8 1.960434 1_555
As5 F44 1.773326 1_555
As5 F38 1.776027 1_555
As5 F7 1.777778 1_455
As5 F55 1.781820 1_455
As5 N5 1.949244 1_565
As5 N15 1.960434 1_555
As6 F30 1.760772 1_556
As6 F11 1.768839 1_555
As6 F15 1.780995 1_555
As6 F14 1.784588 1_556
As6 N6 1.955130 1_555
As6 N12 1.957326 1_555
As7 F60 1.760772 1_554
As7 F47 1.768839 1_555
As7 F37 1.780995 1_555
As7 F10 1.784588 1_554
As7 N1 1.955130 1_555
As7 N7 1.957326 1_555
N0 S14 1.499667 1_655
N0 Ni3 2.121539 1_555
N1 S22 1.495459 1_555
N1 Ni0 2.116884 1_555
N2 S23 1.495459 1_555
N2 Ni2 2.116884 1_555
N3 S7 1.496982 1_555
N3 Ni1 2.121302 1_545
N4 S11 1.496982 1_555
N4 Ni2 2.121302 1_565
N5 S20 1.499667 1_455
N5 Ni0 2.121539 1_555
N6 S9 1.495459 1_555
N6 Ni3 2.116884 1_555
N7 S16 1.492013 1_555
N7 Ni0 2.132937 1_555
N8 S0 1.496982 1_555
N8 Ni3 2.121302 1_545
N9 S18 1.499667 1_555
N9 Ni2 2.121539 1_555
N10 S10 1.492013 1_555
N10 Ni2 2.132937 1_555
N11 S17 1.492013 1_555
N11 Ni1 2.132937 1_555
N12 S12 1.492013 1_555
N12 Ni3 2.132937 1_555
N13 S1 1.495459 1_555
N13 Ni1 2.116884 1_555
N14 S21 1.499667 1_555
N14 Ni1 2.121539 1_555
N15 S8 1.496982 1_555
N15 Ni0 2.121302 1_565
O0 S15 1.467276 1_555
O1 S3 1.467276 1_555
O2 S15 1.439671 1_555
O3 S9 1.417729 1_555
O4 S13 1.438940 1_555
O5 S10 1.416626 1_565
O6 S19 1.439671 1_555
O7 S14 1.414799 1_555
O8 S16 1.416626 1_565
O9 S4 1.465772 1_555
O10 S19 1.467276 1_555
O11 S6 1.438940 1_555
O12 S2 1.467276 1_555
O13 S1 1.417729 1_555
O14 S20 1.414799 1_555
O15 S7 1.416257 1_555
O16 S22 1.417729 1_555
O17 S23 1.417729 1_555
O18 S18 1.414799 1_555
O19 S3 1.439671 1_555
O20 S11 1.416257 1_555
O21 S5 1.465772 1_555
O22 S13 1.465772 1_555
O23 S2 1.439671 1_555
O24 S0 1.416257 1_555
O25 S6 1.465772 1_555
O26 S17 1.416626 1_545
O27 S4 1.438940 1_555
O28 S8 1.416257 1_555
O29 S12 1.416626 1_545
O30 S21 1.414799 1_555
O31 S5 1.438940 1_555
F0 S14 1.572150 1_555
F2 S1 1.570454 1_555
F8 S16 1.576846 1_555
F13 S23 1.570454 1_555
F16 S8 1.569296 1_555
F18 S8 1.578681 1_555
F19 S9 1.572931 1_555
F20 S17 1.576846 1_555
F24 S0 1.569296 1_555
F25 S1 1.572931 1_555
F27 S7 1.578681 1_555
F28 S10 1.576846 1_555
F29 S20 1.568915 1_555
F31 S11 1.578681 1_555
F33 S10 1.578556 1_565
F34 S21 1.572150 1_555
F36 S16 1.578556 1_565
F40 S11 1.569296 1_555
F41 S18 1.568915 1_555
F42 S18 1.572150 1_555
F43 S23 1.572931 1_555
F46 S7 1.569296 1_555
F48 S21 1.568915 1_555
F50 S22 1.572931 1_555
F51 S14 1.568915 1_555
F52 S0 1.578681 1_555
F53 S22 1.570454 1_555
F57 S17 1.578556 1_545
F58 S9 1.570454 1_555
F59 S20 1.572150 1_555
F61 S12 1.576846 1_555
F62 S12 1.578556 1_545
