# generated using pymatgen
data_K2RuBr5NO
_symmetry_space_group_name_H-M   'P 1'
_cell_length_a   7.43071400
_cell_length_b   11.06443800
_cell_length_c   14.31798800
_cell_angle_alpha   90.00000000
_cell_angle_beta   90.00000000
_cell_angle_gamma   90.00000000
_symmetry_Int_Tables_number   1
_chemical_formula_structural   K2RuBr5NO
_chemical_formula_sum   'K8 Ru4 Br20 N4 O4'
_cell_volume   1177.17735673
_cell_formula_units_Z   4
loop_
 _symmetry_equiv_pos_site_id
 _symmetry_equiv_pos_as_xyz
  1  'x, y, z'
loop_
 _atom_site_type_symbol
 _atom_site_label
 _atom_site_symmetry_multiplicity
 _atom_site_fract_x
 _atom_site_fract_y
 _atom_site_fract_z
 _atom_site_occupancy
  K  K0  1  0.84736700  0.49951600  0.64462200  1
  K  K1  1  0.65263300  0.49951600  0.14462200  1
  K  K2  1  0.34736700  0.99951600  0.85537800  1
  K  K3  1  0.65263300  0.00048400  0.14462200  1
  K  K4  1  0.15263300  0.99951600  0.35537800  1
  K  K5  1  0.15263300  0.50048400  0.35537800  1
  K  K6  1  0.34736700  0.50048400  0.85537800  1
  K  K7  1  0.84736700  0.00048400  0.64462200  1
  Ru  Ru0  1  0.67883600  0.75000000  0.39086600  1
  Ru  Ru1  1  0.17883600  0.25000000  0.10913400  1
  Ru  Ru2  1  0.32116400  0.25000000  0.60913400  1
  Ru  Ru3  1  0.82116400  0.75000000  0.89086600  1
  Br  Br0  1  0.41402400  0.75000000  0.27588700  1
  Br  Br1  1  0.38621300  0.25000000  0.25019400  1
  Br  Br2  1  0.18882400  0.01914000  0.11359600  1
  Br  Br3  1  0.68882400  0.51914000  0.38640400  1
  Br  Br4  1  0.45819100  0.25000000  0.00412300  1
  Br  Br5  1  0.04180900  0.25000000  0.50412300  1
  Br  Br6  1  0.81117600  0.98086000  0.88640400  1
  Br  Br7  1  0.08597600  0.75000000  0.77588700  1
  Br  Br8  1  0.31117600  0.01914000  0.61359600  1
  Br  Br9  1  0.18882400  0.48086000  0.11359600  1
  Br  Br10  1  0.11378700  0.25000000  0.75019400  1
  Br  Br11  1  0.68882400  0.98086000  0.38640400  1
  Br  Br12  1  0.81117600  0.51914000  0.88640400  1
  Br  Br13  1  0.88621300  0.75000000  0.24980600  1
  Br  Br14  1  0.95819100  0.75000000  0.49587700  1
  Br  Br15  1  0.54180900  0.75000000  0.99587700  1
  Br  Br16  1  0.58597600  0.25000000  0.72411300  1
  Br  Br17  1  0.61378700  0.75000000  0.74980600  1
  Br  Br18  1  0.91402400  0.25000000  0.22411300  1
  Br  Br19  1  0.31117600  0.48086000  0.61359600  1
  N  N0  1  0.97442500  0.75000000  0.98262200  1
  N  N1  1  0.47442500  0.25000000  0.51737800  1
  N  N2  1  0.52557500  0.75000000  0.48262200  1
  N  N3  1  0.02557500  0.25000000  0.01737800  1
  O  O0  1  0.41326900  0.75000000  0.53969600  1
  O  O1  1  0.08673100  0.75000000  0.03969600  1
  O  O2  1  0.58673100  0.25000000  0.46030400  1
  O  O3  1  0.91326900  0.25000000  0.96030400  1
loop_
_geom_bond_atom_site_label_1
_geom_bond_atom_site_label_2
_geom_bond_distance
_geom_bond_site_symmetry_2
Br0 Ru0 2.565581 1_555
Br0 K5 3.562270 1_555
Br0 K4 3.562270 1_555
Br0 K3 3.789064 1_565
Br0 K1 3.789064 1_555
Br1 Ru1 2.540418 1_555
Br1 K4 3.600230 1_545
Br1 K5 3.600230 1_555
Br1 K3 3.718307 1_555
Br1 K1 3.718307 1_555
Br2 Ru1 2.556213 1_555
Br2 K4 3.479044 1_545
Br2 K3 3.481069 1_555
Br2 K2 3.886392 1_544
Br3 Ru0 2.556213 1_555
Br3 K1 3.479044 1_555
Br3 K5 3.481069 1_655
Br3 K0 3.886392 1_555
Br4 Ru1 2.563128 1_555
Br4 K6 3.590949 1_554
Br4 K2 3.590949 1_544
Br4 K1 3.708925 1_555
Br4 K3 3.708925 1_555
Br5 Ru2 2.563128 1_555
Br5 K5 3.590949 1_555
Br5 K4 3.590949 1_545
Br5 K7 3.708925 1_455
Br5 K0 3.708925 1_455
Br6 Ru3 2.556213 1_555
Br6 K7 3.479044 1_565
Br6 K2 3.481069 1_555
Br6 K3 3.886392 1_566
Br7 Ru3 2.565581 1_455
Br7 K2 3.562270 1_555
Br7 K6 3.562270 1_555
Br7 K7 3.789064 1_465
Br7 K0 3.789064 1_455
Br8 Ru2 2.556213 1_555
Br8 K2 3.479044 1_545
Br8 K7 3.481069 1_455
Br8 K4 3.886392 1_545
Br9 Ru1 2.556213 1_555
Br9 K5 3.479044 1_555
Br9 K1 3.481069 1_555
Br9 K6 3.886392 1_554
Br10 Ru2 2.540418 1_555
Br10 K6 3.600230 1_555
Br10 K2 3.600230 1_545
Br10 K7 3.718307 1_455
Br10 K0 3.718307 1_455
Br11 Ru0 2.556213 1_555
Br11 K3 3.479044 1_565
Br11 K4 3.481069 1_655
Br11 K7 3.886392 1_565
Br12 Ru3 2.556213 1_555
Br12 K0 3.479044 1_555
Br12 K6 3.481069 1_555
Br12 K1 3.886392 1_556
Br13 Ru0 2.540418 1_555
Br13 K3 3.600230 1_565
Br13 K1 3.600230 1_555
Br13 K4 3.718307 1_655
Br13 K5 3.718307 1_655
Br14 Ru0 2.563128 1_555
Br14 K7 3.590949 1_565
Br14 K0 3.590949 1_555
Br14 K4 3.708925 1_655
Br14 K5 3.708925 1_655
Br15 Ru3 2.563128 1_555
Br15 K3 3.590949 1_566
Br15 K1 3.590949 1_556
Br15 K6 3.708925 1_555
Br15 K2 3.708925 1_555
Br16 Ru2 2.565581 1_555
Br16 K0 3.562270 1_555
Br16 K7 3.562270 1_555
Br16 K6 3.789064 1_555
Br16 K2 3.789064 1_545
Br17 Ru3 2.540418 1_555
Br17 K7 3.600230 1_565
Br17 K0 3.600230 1_555
Br17 K2 3.718307 1_555
Br17 K6 3.718307 1_555
Br18 Ru1 2.565581 1_655
Br18 K3 3.562270 1_555
Br18 K1 3.562270 1_555
Br18 K4 3.789064 1_645
Br18 K5 3.789064 1_655
Br19 Ru2 2.556213 1_555
Br19 K6 3.479044 1_555
Br19 K0 3.481069 1_455
Br19 K5 3.886392 1_555
N0 O1 1.167992 1_656
N0 Ru3 1.738655 1_555
N1 O2 1.167992 1_555
N1 Ru2 1.738655 1_555
N2 O0 1.167992 1_555
N2 Ru0 1.738655 1_555
N3 O3 1.167992 1_454
N3 Ru1 1.738655 1_555
