# generated using pymatgen
data_YSiPd
_symmetry_space_group_name_H-M   'P 1'
_cell_length_a   4.31761141
_cell_length_b   7.44396116
_cell_length_c   13.98636757
_cell_angle_alpha   90.00000000
_cell_angle_beta   90.00000000
_cell_angle_gamma   90.00000000
_symmetry_Int_Tables_number   1
_chemical_formula_structural   YSiPd
_chemical_formula_sum   'Y8 Si8 Pd8'
_cell_volume   449.52369487
_cell_formula_units_Z   8
loop_
 _symmetry_equiv_pos_site_id
 _symmetry_equiv_pos_as_xyz
  1  'x, y, z'
loop_
 _atom_site_type_symbol
 _atom_site_label
 _atom_site_symmetry_multiplicity
 _atom_site_fract_x
 _atom_site_fract_y
 _atom_site_fract_z
 _atom_site_occupancy
  Y  Y0  1  0.50000000  0.78961928  0.74832621  1
  Y  Y1  1  -0.00000000  0.21038072  0.75167379  1
  Y  Y2  1  0.50000000  0.78961928  0.25167379  1
  Y  Y3  1  0.00000000  0.21038072  0.24832621  1
  Y  Y4  1  0.50000000  0.70770056  -0.00000000  1
  Y  Y5  1  0.00000000  0.29229944  0.50000000  1
  Y  Y6  1  0.50000000  0.69976596  0.50000000  1
  Y  Y7  1  0.00000000  0.30023404  -0.00000000  1
  Si  Si0  1  0.50000000  0.40750490  0.64640464  1
  Si  Si1  1  0.00000000  0.59249510  0.85359536  1
  Si  Si2  1  0.50000000  0.40750490  0.35359536  1
  Si  Si3  1  -0.00000000  0.59249510  0.14640464  1
  Si  Si4  1  0.50000000  0.09063228  0.09237717  1
  Si  Si5  1  0.00000000  0.90936772  0.40762283  1
  Si  Si6  1  0.50000000  0.09063228  0.90762283  1
  Si  Si7  1  -0.00000000  0.90936772  0.59237717  1
  Pd  Pd0  1  0.50000000  0.07649191  0.60825078  1
  Pd  Pd1  1  -0.00000000  0.92350809  0.89174922  1
  Pd  Pd2  1  0.50000000  0.07649191  0.39174922  1
  Pd  Pd3  1  -0.00000000  0.92350809  0.10825078  1
  Pd  Pd4  1  0.50000000  0.41808544  0.15576878  1
  Pd  Pd5  1  0.00000000  0.58191456  0.34423122  1
  Pd  Pd6  1  0.50000000  0.41808544  0.84423122  1
  Pd  Pd7  1  0.00000000  0.58191456  0.65576878  1
loop_
_geom_bond_atom_site_label_1
_geom_bond_atom_site_label_2
_geom_bond_distance
_geom_bond_site_symmetry_2
Si0 Y6 2.987657 1_555
Si0 Y1 2.996902 1_555
Si0 Y1 2.996902 1_655
Si0 Y5 3.096586 1_555
Si0 Y5 3.096586 1_655
Si0 Y0 3.181659 1_555
Si1 Y7 2.987657 1_556
Si1 Y0 2.996902 1_455
Si1 Y0 2.996902 1_555
Si1 Y4 3.096586 1_456
Si1 Y4 3.096586 1_556
Si1 Y1 3.181659 1_555
Si2 Y6 2.987657 1_555
Si2 Y3 2.996902 1_555
Si2 Y3 2.996902 1_655
Si2 Y5 3.096586 1_555
Si2 Y5 3.096586 1_655
Si2 Y2 3.181659 1_555
Si3 Y7 2.987657 1_555
Si3 Y2 2.996902 1_455
Si3 Y2 2.996902 1_555
Si3 Y4 3.096586 1_455
Si3 Y4 3.096586 1_555
Si3 Y3 3.181659 1_555
Si4 Si6 2.584042 1_554
Si4 Y7 2.960438 1_655
Si4 Y7 2.960438 1_555
Si4 Y4 3.129670 1_545
Si4 Y2 3.159868 1_545
Si4 Y3 3.195701 1_555
Si4 Y3 3.195701 1_655
Si5 Si7 2.584042 1_555
Si5 Y6 2.960438 1_455
Si5 Y6 2.960438 1_555
Si5 Y5 3.129670 1_565
Si5 Y3 3.159868 1_565
Si5 Y2 3.195701 1_555
Si5 Y2 3.195701 1_455
Si6 Y7 2.960438 1_556
Si6 Y7 2.960438 1_656
Si6 Y4 3.129670 1_546
Si6 Y0 3.159868 1_545
Si6 Y1 3.195701 1_655
Si6 Y1 3.195701 1_555
Si7 Y6 2.960438 1_455
Si7 Y6 2.960438 1_555
Si7 Y5 3.129670 1_565
Si7 Y1 3.159868 1_565
Si7 Y0 3.195701 1_455
Si7 Y0 3.195701 1_555
Pd0 Si7 2.501486 1_645
Pd0 Si7 2.501486 1_545
Pd0 Si0 2.521170 1_555
Pd0 Y0 2.898013 1_545
Pd0 Pd2 3.028070 1_555
Pd0 Y5 3.087631 1_655
Pd0 Y5 3.087631 1_555
Pd0 Y1 3.110897 1_555
Pd0 Y1 3.110897 1_655
Pd0 Y6 3.186940 1_545
Pd1 Si6 2.501486 1_565
Pd1 Si6 2.501486 1_465
Pd1 Si1 2.521170 1_555
Pd1 Y1 2.898013 1_565
Pd1 Pd3 3.028070 1_556
Pd1 Y4 3.087631 1_556
Pd1 Y4 3.087631 1_456
Pd1 Y0 3.110897 1_455
Pd1 Y0 3.110897 1_555
Pd1 Y7 3.186940 1_566
Pd2 Si5 2.501486 1_545
Pd2 Si5 2.501486 1_645
Pd2 Si2 2.521170 1_555
Pd2 Y2 2.898013 1_545
Pd2 Y5 3.087631 1_655
Pd2 Y5 3.087631 1_555
Pd2 Y3 3.110897 1_555
Pd2 Y3 3.110897 1_655
Pd2 Y6 3.186940 1_545
Pd3 Si4 2.501486 1_565
Pd3 Si4 2.501486 1_465
Pd3 Si3 2.521170 1_555
Pd3 Y3 2.898013 1_565
Pd3 Y4 3.087631 1_455
Pd3 Y4 3.087631 1_555
Pd3 Y2 3.110897 1_455
Pd3 Y2 3.110897 1_555
Pd3 Y7 3.186940 1_565
Pd4 Si3 2.522533 1_655
Pd4 Si3 2.522533 1_555
Pd4 Si4 2.593788 1_555
Pd4 Si2 2.767996 1_555
Pd4 Y3 2.954124 1_655
Pd4 Y3 2.954124 1_555
Pd4 Y4 3.065013 1_555
Pd4 Y2 3.073802 1_555
Pd4 Y7 3.190068 1_655
Pd4 Y7 3.190068 1_555
Pd5 Si2 2.522533 1_455
Pd5 Si2 2.522533 1_555
Pd5 Si5 2.593788 1_555
Pd5 Si3 2.767996 1_555
Pd5 Y2 2.954124 1_455
Pd5 Y2 2.954124 1_555
Pd5 Y5 3.065013 1_555
Pd5 Y3 3.073802 1_555
Pd5 Y6 3.190068 1_455
Pd5 Y6 3.190068 1_555
Pd6 Si1 2.522533 1_555
Pd6 Si1 2.522533 1_655
Pd6 Si6 2.593788 1_555
Pd6 Si0 2.767996 1_555
Pd6 Y1 2.954124 1_555
Pd6 Y1 2.954124 1_655
Pd6 Y4 3.065013 1_556
Pd6 Y0 3.073802 1_555
Pd6 Y7 3.190068 1_556
Pd6 Y7 3.190068 1_656
Pd7 Si0 2.522533 1_455
Pd7 Si0 2.522533 1_555
Pd7 Si7 2.593788 1_555
Pd7 Si1 2.767996 1_555
Pd7 Y0 2.954124 1_455
Pd7 Y0 2.954124 1_555
Pd7 Y5 3.065013 1_555
Pd7 Y1 3.073802 1_555
Pd7 Y6 3.190068 1_455
Pd7 Y6 3.190068 1_555
