# generated using pymatgen
data_Sm2(MoO4)3
_symmetry_space_group_name_H-M   'P 1'
_cell_length_a   6.87154942
_cell_length_b   6.87153106
_cell_length_c   11.57447380
_cell_angle_alpha   79.61690327
_cell_angle_beta   79.61650034
_cell_angle_gamma   113.18624764
_symmetry_Int_Tables_number   1
_chemical_formula_structural   Sm2(MoO4)3
_chemical_formula_sum   'Sm4 Mo6 O24'
_cell_volume   474.70186977
_cell_formula_units_Z   2
loop_
 _symmetry_equiv_pos_site_id
 _symmetry_equiv_pos_as_xyz
  1  'x, y, z'
loop_
 _atom_site_type_symbol
 _atom_site_label
 _atom_site_symmetry_multiplicity
 _atom_site_fract_x
 _atom_site_fract_y
 _atom_site_fract_z
 _atom_site_occupancy
  Sm  Sm0  1  0.80126442  0.54796663  0.90866320  1
  Sm  Sm1  1  0.45203271  0.19873564  0.59133661  1
  Sm  Sm2  1  0.54796980  0.80126705  0.40866098  1
  Sm  Sm3  1  0.19873290  0.45202991  0.09133891  1
  Mo  Mo0  1  0.69922725  0.97502178  0.06232933  1
  Mo  Mo1  1  0.02497722  0.30077358  0.43767054  1
  Mo  Mo2  1  0.30077374  0.02497505  0.93767435  1
  Mo  Mo3  1  0.97502634  0.69922571  0.56232610  1
  Mo  Mo4  1  0.62123194  0.37876764  0.25000049  1
  Mo  Mo5  1  0.37876846  0.62123168  0.74999954  1
  O  O0  1  0.72930514  0.14096618  0.45669505  1
  O  O1  1  0.90668638  0.48786632  0.21989088  1
  O  O2  1  0.17120959  0.59595173  0.41069329  1
  O  O3  1  0.81889886  0.88711947  0.95011391  1
  O  O4  1  0.14096253  0.72930257  0.95670399  1
  O  O5  1  0.72657608  0.85163511  0.20177817  1
  O  O6  1  0.44582782  0.53049943  0.88734623  1
  O  O7  1  0.85903321  0.27069446  0.04330525  1
  O  O8  1  0.85163755  0.72657027  0.70177051  1
  O  O9  1  0.11288068  0.18110225  0.54988663  1
  O  O10  1  0.51213343  0.09331543  0.28010875  1
  O  O11  1  0.27342840  0.14836132  0.79822888  1
  O  O12  1  0.09331625  0.51213242  0.78011262  1
  O  O13  1  0.88711490  0.81890412  0.45010199  1
  O  O14  1  0.14836543  0.27342477  0.29822306  1
  O  O15  1  0.53050235  0.44582920  0.38734371  1
  O  O16  1  0.40404919  0.82879165  0.08930709  1
  O  O17  1  0.27069849  0.85903772  0.54329650  1
  O  O18  1  0.18109543  0.11288463  0.04989755  1
  O  O19  1  0.55417176  0.46949879  0.11265622  1
  O  O20  1  0.46950091  0.55417254  0.61265352  1
  O  O21  1  0.48786644  0.90668190  0.71988794  1
  O  O22  1  0.59594372  0.17120692  0.91070276  1
  O  O23  1  0.82879266  0.40405613  0.58929642  1
loop_
_geom_bond_atom_site_label_1
_geom_bond_atom_site_label_2
_geom_bond_distance
_geom_bond_site_symmetry_2
Mo0 O3 1.736936 1_554
Mo0 O5 1.760924 1_555
Mo0 O16 1.809695 1_555
Mo0 O7 1.837658 1_565
Mo0 O22 2.398051 1_564
Mo1 O9 1.736954 1_555
Mo1 O14 1.760908 1_555
Mo1 O2 1.809695 1_555
Mo1 O0 1.837658 1_455
Mo1 O23 2.398029 1_455
Mo2 O18 1.737057 1_556
Mo2 O11 1.760879 1_555
Mo2 O22 1.809657 1_555
Mo2 O4 1.837650 1_545
Mo2 O16 2.398057 1_546
Mo3 O13 1.737081 1_555
Mo3 O8 1.760866 1_555
Mo3 O23 1.809654 1_555
Mo3 O17 1.837652 1_655
Mo3 O2 2.398041 1_655
Mo4 O10 1.741386 1_555
Mo4 O1 1.741402 1_555
Mo4 O15 1.805861 1_555
Mo4 O19 1.805877 1_555
Mo5 O21 1.741371 1_555
Mo5 O12 1.741385 1_555
Mo5 O20 1.805886 1_555
Mo5 O6 1.805900 1_555
O0 Sm2 2.395338 1_545
O0 Sm1 2.442250 1_555
O1 Sm3 2.397226 1_655
O2 Sm2 2.404882 1_555
O3 Sm0 2.424397 1_555
O4 Sm0 2.395379 1_455
O4 Sm3 2.442221 1_556
O5 Sm2 2.380626 1_555
O6 Sm0 2.457166 1_555
O6 Sm3 2.474583 1_556
O7 Sm3 2.395346 1_655
O7 Sm0 2.442256 1_554
O8 Sm0 2.380719 1_555
O9 Sm1 2.424400 1_555
O10 Sm2 2.397243 1_545
O11 Sm1 2.380709 1_555
O12 Sm0 2.397238 1_455
O13 Sm2 2.424306 1_555
O14 Sm3 2.380643 1_555
O15 Sm2 2.457167 1_555
O15 Sm1 2.474586 1_555
O16 Sm3 2.404889 1_555
O17 Sm1 2.395365 1_565
O17 Sm2 2.442212 1_555
O18 Sm3 2.424299 1_555
O19 Sm3 2.457179 1_555
O19 Sm0 2.474582 1_554
O20 Sm1 2.457157 1_555
O20 Sm2 2.474587 1_555
O21 Sm1 2.397257 1_565
O22 Sm0 2.404856 1_555
O23 Sm1 2.404860 1_555
