# generated using pymatgen
data_TmAlRh
_symmetry_space_group_name_H-M   'P 1'
_cell_length_a   4.10627439
_cell_length_b   6.79653664
_cell_length_c   7.90624829
_cell_angle_alpha   90.00000000
_cell_angle_beta   90.00000000
_cell_angle_gamma   90.00000000
_symmetry_Int_Tables_number   1
_chemical_formula_structural   TmAlRh
_chemical_formula_sum   'Tm4 Al4 Rh4'
_cell_volume   220.65109038
_cell_formula_units_Z   4
loop_
 _symmetry_equiv_pos_site_id
 _symmetry_equiv_pos_as_xyz
  1  'x, y, z'
loop_
 _atom_site_type_symbol
 _atom_site_label
 _atom_site_symmetry_multiplicity
 _atom_site_fract_x
 _atom_site_fract_y
 _atom_site_fract_z
 _atom_site_occupancy
  Tm  Tm0  1  0.25000000  0.96236518  0.67902785  1
  Tm  Tm1  1  0.75000000  0.53763482  0.17902785  1
  Tm  Tm2  1  0.25000000  0.46236518  0.82097215  1
  Tm  Tm3  1  0.75000000  0.03763482  0.32097215  1
  Al  Al0  1  0.75000000  0.63406555  0.55954849  1
  Al  Al1  1  0.75000000  0.13406555  0.94045151  1
  Al  Al2  1  0.25000000  0.36593445  0.44045151  1
  Al  Al3  1  0.25000000  0.86593445  0.05954849  1
  Rh  Rh0  1  0.75000000  0.76222089  0.87679026  1
  Rh  Rh1  1  0.75000000  0.26222089  0.62320974  1
  Rh  Rh2  1  0.25000000  0.23777911  0.12320974  1
  Rh  Rh3  1  0.25000000  0.73777911  0.37679026  1
loop_
_geom_bond_atom_site_label_1
_geom_bond_atom_site_label_2
_geom_bond_distance
_geom_bond_site_symmetry_2
Al0 Rh1 2.576889 1_555
Al0 Rh3 2.607695 1_655
Al0 Rh3 2.607695 1_555
Al0 Rh0 2.655125 1_555
Al1 Rh0 2.576889 1_545
Al1 Rh2 2.607695 1_556
Al1 Rh2 2.607695 1_656
Al1 Rh1 2.655125 1_555
Al2 Rh3 2.576889 1_555
Al2 Rh1 2.607695 1_555
Al2 Rh1 2.607695 1_455
Al2 Rh2 2.655125 1_555
Al3 Rh2 2.576889 1_565
Al3 Rh0 2.607695 1_554
Al3 Rh0 2.607695 1_454
Al3 Rh3 2.655125 1_555
Rh0 Tm1 2.835479 1_556
Rh0 Tm0 2.917271 1_555
Rh0 Tm0 2.917271 1_655
Rh0 Tm2 2.926345 1_655
Rh0 Tm2 2.926345 1_555
Rh1 Tm3 2.835479 1_555
Rh1 Tm2 2.917271 1_655
Rh1 Tm2 2.917271 1_555
Rh1 Tm0 2.926345 1_545
Rh1 Tm0 2.926345 1_645
Rh2 Tm2 2.835479 1_554
Rh2 Tm3 2.917271 1_555
Rh2 Tm3 2.917271 1_455
Rh2 Tm1 2.926345 1_555
Rh2 Tm1 2.926345 1_455
Rh3 Tm0 2.835479 1_555
Rh3 Tm1 2.917271 1_455
Rh3 Tm1 2.917271 1_555
Rh3 Tm3 2.926345 1_565
Rh3 Tm3 2.926345 1_465
