# generated using pymatgen
data_CaAlAu
_symmetry_space_group_name_H-M   'P 1'
_cell_length_a   4.50995822
_cell_length_b   7.30609768
_cell_length_c   7.74430358
_cell_angle_alpha   90.00000000
_cell_angle_beta   90.00000000
_cell_angle_gamma   90.00000000
_symmetry_Int_Tables_number   1
_chemical_formula_structural   CaAlAu
_chemical_formula_sum   'Ca4 Al4 Au4'
_cell_volume   255.17631533
_cell_formula_units_Z   4
loop_
 _symmetry_equiv_pos_site_id
 _symmetry_equiv_pos_as_xyz
  1  'x, y, z'
loop_
 _atom_site_type_symbol
 _atom_site_label
 _atom_site_symmetry_multiplicity
 _atom_site_fract_x
 _atom_site_fract_y
 _atom_site_fract_z
 _atom_site_occupancy
  Ca  Ca0  1  0.25000000  0.01574867  0.68094621  1
  Ca  Ca1  1  0.25000000  0.51574867  0.81905379  1
  Ca  Ca2  1  0.75000000  0.98425133  0.31905379  1
  Ca  Ca3  1  0.75000000  0.48425133  0.18094621  1
  Al  Al0  1  0.75000000  0.84824727  0.93234548  1
  Al  Al1  1  0.25000000  0.15175273  0.06765452  1
  Al  Al2  1  0.25000000  0.65175273  0.43234548  1
  Al  Al3  1  0.75000000  0.34824727  0.56765452  1
  Au  Au0  1  0.25000000  0.79205577  0.11522940  1
  Au  Au1  1  0.75000000  0.20794423  0.88477060  1
  Au  Au2  1  0.75000000  0.70794423  0.61522940  1
  Au  Au3  1  0.25000000  0.29205577  0.38477060  1
loop_
_geom_bond_atom_site_label_1
_geom_bond_atom_site_label_2
_geom_bond_distance
_geom_bond_site_symmetry_2
Ca0 Ca2 3.604508 1_445
Ca0 Ca2 3.604508 1_545
Ca1 Ca3 3.604508 1_456
Ca1 Ca3 3.604508 1_556
Al0 Au1 2.653682 1_565
Al0 Au2 2.661190 1_555
Al0 Au0 2.694328 1_656
Al0 Au0 2.694328 1_556
Al0 Ca2 3.155330 1_556
Al0 Ca0 3.220720 1_565
Al0 Ca0 3.220720 1_665
Al0 Ca3 3.283124 1_556
Al0 Ca1 3.428708 1_555
Al0 Ca1 3.428708 1_655
Al1 Au0 2.653682 1_545
Al1 Au3 2.661190 1_555
Al1 Au1 2.694328 1_554
Al1 Au1 2.694328 1_454
Al1 Ca0 3.155330 1_554
Al1 Ca2 3.220720 1_445
Al1 Ca2 3.220720 1_545
Al1 Ca1 3.283124 1_554
Al1 Ca3 3.428708 1_555
Al1 Ca3 3.428708 1_455
Al2 Au3 2.653682 1_555
Al2 Au0 2.661190 1_555
Al2 Au2 2.694328 1_455
Al2 Au2 2.694328 1_555
Al2 Ca1 3.155330 1_555
Al2 Ca3 3.220720 1_455
Al2 Ca3 3.220720 1_555
Al2 Ca0 3.283124 1_565
Al2 Ca2 3.428708 1_455
Al2 Ca2 3.428708 1_555
Al3 Au2 2.653682 1_555
Al3 Au1 2.661190 1_555
Al3 Au3 2.694328 1_555
Al3 Au3 2.694328 1_655
Al3 Ca3 3.155330 1_555
Al3 Ca1 3.220720 1_555
Al3 Ca1 3.220720 1_655
Al3 Ca2 3.283124 1_545
Al3 Ca0 3.428708 1_655
Al3 Ca0 3.428708 1_555
Au0 Ca1 3.055519 1_554
Au0 Ca2 3.090032 1_455
Au0 Ca2 3.090032 1_555
Au0 Ca3 3.225099 1_455
Au0 Ca3 3.225099 1_555
Au1 Ca3 3.055519 1_556
Au1 Ca0 3.090032 1_555
Au1 Ca0 3.090032 1_655
Au1 Ca1 3.225099 1_555
Au1 Ca1 3.225099 1_655
Au2 Ca2 3.055519 1_555
Au2 Ca1 3.090032 1_655
Au2 Ca1 3.090032 1_555
Au2 Ca0 3.225099 1_665
Au2 Ca0 3.225099 1_565
Au3 Ca0 3.055519 1_555
Au3 Ca3 3.090032 1_455
Au3 Ca3 3.090032 1_555
Au3 Ca2 3.225099 1_445
Au3 Ca2 3.225099 1_545
