# generated using pymatgen
data_La(AsRu)2
_symmetry_space_group_name_H-M   'P 1'
_cell_length_a   4.18067600
_cell_length_b   4.18067710
_cell_length_c   6.21233010
_cell_angle_alpha   109.66269150
_cell_angle_beta   109.66269133
_cell_angle_gamma   89.99999584
_symmetry_Int_Tables_number   1
_chemical_formula_structural   La(AsRu)2
_chemical_formula_sum   'La1 As2 Ru2'
_cell_volume   95.49805763
_cell_formula_units_Z   1
loop_
 _symmetry_equiv_pos_site_id
 _symmetry_equiv_pos_as_xyz
  1  'x, y, z'
loop_
 _atom_site_type_symbol
 _atom_site_label
 _atom_site_symmetry_multiplicity
 _atom_site_fract_x
 _atom_site_fract_y
 _atom_site_fract_z
 _atom_site_occupancy
  La  La0  1  -0.00000000  -0.00000000  0.00000000  1
  As  As0  1  0.36230721  0.36230721  0.72461342  1
  As  As1  1  0.63769279  0.63769279  0.27538658  1
  Ru  Ru0  1  0.25000000  0.75000000  0.50000000  1
  Ru  Ru1  1  0.75000000  0.25000000  0.50000000  1
loop_
_geom_bond_atom_site_label_1
_geom_bond_atom_site_label_2
_geom_bond_distance
_geom_bond_site_symmetry_2
La0 Ru0 3.439915 1_544
La0 Ru1 3.439915 1_455
La0 Ru1 3.439915 1_555
La0 Ru0 3.439915 1_444
La0 Ru1 3.439916 1_454
La0 Ru0 3.439916 1_545
La0 Ru1 3.439916 1_444
La0 Ru0 3.439916 1_555
As0 Ru1 2.423979 1_555
As0 Ru0 2.423980 1_555
As0 Ru1 2.423983 1_455
As0 Ru0 2.423983 1_545
As0 As1 3.009360 1_556
As0 La0 3.317088 1_666
As0 La0 3.317090 1_656
As0 La0 3.317091 1_566
As0 La0 3.317093 1_556
As1 Ru0 2.423979 1_555
As1 Ru1 2.423980 1_555
As1 Ru0 2.423983 1_655
As1 Ru1 2.423983 1_565
As1 La0 3.317088 1_555
As1 La0 3.317090 1_565
As1 La0 3.317091 1_655
As1 La0 3.317093 1_665
