# generated using pymatgen
data_Na2YC(OF)3
_symmetry_space_group_name_H-M   'P 1'
_cell_length_a   6.54049000
_cell_length_b   10.79300200
_cell_length_c   14.25097600
_cell_angle_alpha   90.00000000
_cell_angle_beta   90.00000000
_cell_angle_gamma   90.00000000
_symmetry_Int_Tables_number   1
_chemical_formula_structural   Na2YC(OF)3
_chemical_formula_sum   'Na16 Y8 C8 O24 F24'
_cell_volume   1005.99808085
_cell_formula_units_Z   8
loop_
 _symmetry_equiv_pos_site_id
 _symmetry_equiv_pos_as_xyz
  1  'x, y, z'
loop_
 _atom_site_type_symbol
 _atom_site_label
 _atom_site_symmetry_multiplicity
 _atom_site_fract_x
 _atom_site_fract_y
 _atom_site_fract_z
 _atom_site_occupancy
  Na  Na0  1  0.05254300  0.99330400  0.60709200  1
  Na  Na1  1  0.23564200  0.27829200  0.25610400  1
  Na  Na2  1  0.55254300  0.50669600  0.39290800  1
  Na  Na3  1  0.05254300  0.50669600  0.10709200  1
  Na  Na4  1  0.76435800  0.77829200  0.24389600  1
  Na  Na5  1  0.23564200  0.22170800  0.75610400  1
  Na  Na6  1  0.26435800  0.77829200  0.25610400  1
  Na  Na7  1  0.26435800  0.72170800  0.75610400  1
  Na  Na8  1  0.94745700  0.49330400  0.89290800  1
  Na  Na9  1  0.44745700  0.00669600  0.10709200  1
  Na  Na10  1  0.73564200  0.27829200  0.24389600  1
  Na  Na11  1  0.76435800  0.72170800  0.74389600  1
  Na  Na12  1  0.55254300  0.99330400  0.89290800  1
  Na  Na13  1  0.44745700  0.49330400  0.60709200  1
  Na  Na14  1  0.73564200  0.22170800  0.74389600  1
  Na  Na15  1  0.94745700  0.00669600  0.39290800  1
  Y  Y0  1  0.99437700  0.31610000  0.51420700  1
  Y  Y1  1  0.00562300  0.68390000  0.48579300  1
  Y  Y2  1  0.99437700  0.18390000  0.01420700  1
  Y  Y3  1  0.00562300  0.81610000  0.98579300  1
  Y  Y4  1  0.50562300  0.81610000  0.51420700  1
  Y  Y5  1  0.50562300  0.68390000  0.01420700  1
  Y  Y6  1  0.49437700  0.31610000  0.98579300  1
  Y  Y7  1  0.49437700  0.18390000  0.48579300  1
  C  C0  1  0.99694900  0.51756100  0.32533400  1
  C  C1  1  0.50305100  0.01756100  0.32533400  1
  C  C2  1  0.00305100  0.48243900  0.67466600  1
  C  C3  1  0.99694900  0.98243900  0.82533400  1
  C  C4  1  0.50305100  0.48243900  0.82533400  1
  C  C5  1  0.49694900  0.98243900  0.67466600  1
  C  C6  1  0.49694900  0.51756100  0.17466600  1
  C  C7  1  0.00305100  0.01756100  0.17466600  1
  O  O0  1  0.43199700  0.48745000  0.08945000  1
  O  O1  1  0.99872400  0.43853600  0.25900100  1
  O  O2  1  0.93199700  0.01255000  0.91055000  1
  O  O3  1  0.00127600  0.93853600  0.24099900  1
  O  O4  1  0.55193800  0.86764400  0.68433000  1
  O  O5  1  0.05193800  0.63235600  0.31567000  1
  O  O6  1  0.05193800  0.86764400  0.81567000  1
  O  O7  1  0.94806200  0.13235600  0.18433000  1
  O  O8  1  0.06800300  0.51255000  0.58945000  1
  O  O9  1  0.43199700  0.01255000  0.58945000  1
  O  O10  1  0.50127600  0.93853600  0.25900100  1
  O  O11  1  0.00127600  0.56146400  0.74099900  1
  O  O12  1  0.55193800  0.63235600  0.18433000  1
  O  O13  1  0.44806200  0.13235600  0.31567000  1
  O  O14  1  0.56800300  0.51255000  0.91055000  1
  O  O15  1  0.49872400  0.43853600  0.24099900  1
  O  O16  1  0.56800300  0.98745000  0.41055000  1
  O  O17  1  0.50127600  0.56146400  0.75900100  1
  O  O18  1  0.99872400  0.06146400  0.75900100  1
  O  O19  1  0.44806200  0.36764400  0.81567000  1
  O  O20  1  0.93199700  0.48745000  0.41055000  1
  O  O21  1  0.06800300  0.98745000  0.08945000  1
  O  O22  1  0.94806200  0.36764400  0.68433000  1
  O  O23  1  0.49872400  0.06146400  0.74099900  1
  F  F0  1  0.84919500  0.62583200  0.02056800  1
  F  F1  1  0.70893400  0.66165600  0.57938800  1
  F  F2  1  0.15080500  0.37416800  0.97943200  1
  F  F3  1  0.34919500  0.87416800  0.97943200  1
  F  F4  1  0.19791700  0.77932100  0.60166800  1
  F  F5  1  0.80208300  0.27932100  0.89833200  1
  F  F6  1  0.19791700  0.72067900  0.10166800  1
  F  F7  1  0.30208300  0.27932100  0.60166800  1
  F  F8  1  0.79106600  0.33834400  0.07938800  1
  F  F9  1  0.69791700  0.72067900  0.39833200  1
  F  F10  1  0.29106600  0.33834400  0.42061200  1
  F  F11  1  0.20893400  0.83834400  0.42061200  1
  F  F12  1  0.80208300  0.22067900  0.39833200  1
  F  F13  1  0.84919500  0.87416800  0.52056800  1
  F  F14  1  0.65080500  0.37416800  0.52056800  1
  F  F15  1  0.30208300  0.22067900  0.10166800  1
  F  F16  1  0.15080500  0.12583200  0.47943200  1
  F  F17  1  0.29106600  0.16165600  0.92061200  1
  F  F18  1  0.69791700  0.77932100  0.89833200  1
  F  F19  1  0.20893400  0.66165600  0.92061200  1
  F  F20  1  0.34919500  0.62583200  0.47943200  1
  F  F21  1  0.79106600  0.16165600  0.57938800  1
  F  F22  1  0.70893400  0.83834400  0.07938800  1
  F  F23  1  0.65080500  0.12583200  0.02056800  1
loop_
_geom_bond_atom_site_label_1
_geom_bond_atom_site_label_2
_geom_bond_distance
_geom_bond_site_symmetry_2
Na0 O18 2.313368 1_465
Na0 O9 2.503151 1_565
Na1 O13 2.265332 1_555
Na1 O1 2.322511 1_455
Na1 O15 2.449145 1_555
Na1 O7 2.657999 1_455
Na2 O15 2.313368 1_555
Na2 O20 2.503151 1_555
Na3 O1 2.313368 1_455
Na3 O0 2.503151 1_555
Na4 O12 2.265332 1_555
Na4 O3 2.322511 1_655
Na4 O10 2.449145 1_555
Na4 O5 2.657999 1_655
Na5 O19 2.265332 1_555
Na5 O18 2.322511 1_455
Na5 O23 2.449145 1_555
Na5 O22 2.657999 1_455
Na6 O5 2.265332 1_555
Na6 O10 2.322511 1_555
Na6 O3 2.449145 1_555
Na6 O12 2.657999 1_555
Na7 O6 2.265332 1_555
Na7 O17 2.322511 1_555
Na7 O11 2.449145 1_555
Na7 O4 2.657999 1_555
Na8 O11 2.313368 1_655
Na8 O14 2.503151 1_555
Na9 O10 2.313368 1_545
Na9 O21 2.503151 1_545
Na10 O7 2.265332 1_555
Na10 O15 2.322511 1_555
Na10 O1 2.449145 1_555
Na10 O13 2.657999 1_555
Na11 O4 2.265332 1_555
Na11 O11 2.322511 1_655
Na11 O17 2.449145 1_555
Na11 O6 2.657999 1_655
Na12 O23 2.313368 1_565
Na12 O2 2.503151 1_565
Na13 O17 2.313368 1_555
Na13 O8 2.503151 1_555
Na14 O22 2.265332 1_555
Na14 O23 2.322511 1_555
Na14 O18 2.449145 1_555
Na14 O19 2.657999 1_555
Na15 O3 2.313368 1_645
Na15 O16 2.503151 1_545
C0 O1 1.273269 1_555
C0 O5 1.297458 1_655
C0 O20 1.326982 1_555
C1 O10 1.273269 1_545
C1 O13 1.297458 1_555
C1 O16 1.326982 1_545
C2 O11 1.273269 1_555
C2 O22 1.297458 1_455
C2 O8 1.326982 1_555
C3 O18 1.273269 1_565
C3 O6 1.297458 1_655
C3 O2 1.326982 1_565
C4 O17 1.273269 1_555
C4 O19 1.297458 1_555
C4 O14 1.326982 1_555
C5 O23 1.273269 1_565
C5 O4 1.297458 1_555
C5 O9 1.326982 1_565
C6 O15 1.273269 1_555
C6 O12 1.297458 1_555
C6 O0 1.326982 1_555
C7 O3 1.273269 1_545
C7 O7 1.297458 1_455
C7 O21 1.326982 1_545
O0 Y6 2.401839 1_554
O0 Y5 2.424314 1_555
O2 Y2 2.401839 1_556
O2 Y3 2.424314 1_645
O4 Y4 2.505804 1_555
O5 Y1 2.505804 1_555
O6 Y3 2.505804 1_555
O7 Y2 2.505804 1_555
O8 Y1 2.401839 1_555
O8 Y0 2.424314 1_455
O9 Y7 2.401839 1_555
O9 Y4 2.424314 1_545
O12 Y5 2.505804 1_555
O13 Y7 2.505804 1_555
O14 Y5 2.401839 1_556
O14 Y6 2.424314 1_555
O16 Y4 2.401839 1_555
O16 Y7 2.424314 1_565
O19 Y6 2.505804 1_555
O20 Y0 2.401839 1_555
O20 Y1 2.424314 1_655
O21 Y3 2.401839 1_554
O21 Y2 2.424314 1_465
O22 Y0 2.505804 1_555
F0 Na3 2.223213 1_655
F0 Y5 2.334651 1_555
F0 Y3 2.347229 1_654
F0 Na8 2.401831 1_554
F1 Y4 2.325874 1_555
F1 Y1 2.366901 1_655
F1 Na11 2.459208 1_555
F1 Na13 2.526300 1_555
F2 Na8 2.223213 1_455
F2 Y6 2.334651 1_555
F2 Y2 2.347229 1_456
F2 Na3 2.401831 1_556
F3 Na12 2.223213 1_555
F3 Y3 2.334651 1_555
F3 Y5 2.347229 1_556
F3 Na9 2.401831 1_566
F4 Y1 2.317186 1_555
F4 Na7 2.327938 1_555
F4 Y4 2.400302 1_555
F4 Na0 2.498781 1_555
F5 Y2 2.317186 1_556
F5 Na14 2.327938 1_555
F5 Y6 2.400302 1_555
F5 Na8 2.498781 1_555
F6 Y3 2.317186 1_554
F6 Na6 2.327938 1_555
F6 Y5 2.400302 1_555
F6 Na3 2.498781 1_555
F7 Y7 2.317186 1_555
F7 Na5 2.327938 1_555
F7 Y0 2.400302 1_455
F7 Na13 2.498781 1_555
F8 Y2 2.325874 1_555
F8 Y6 2.366901 1_554
F8 Na10 2.459208 1_555
F8 Na3 2.526300 1_655
F9 Y4 2.317186 1_555
F9 Na4 2.327938 1_555
F9 Y1 2.400302 1_655
F9 Na2 2.498781 1_555
F10 Y7 2.325874 1_555
F10 Y0 2.366901 1_455
F10 Na1 2.459208 1_555
F10 Na2 2.526300 1_555
F11 Y1 2.325874 1_555
F11 Y4 2.366901 1_555
F11 Na6 2.459208 1_555
F11 Na15 2.526300 1_465
F12 Y0 2.317186 1_555
F12 Na10 2.327938 1_555
F12 Y7 2.400302 1_555
F12 Na15 2.498781 1_555
F13 Na0 2.223213 1_655
F13 Y4 2.334651 1_555
F13 Y1 2.347229 1_655
F13 Na15 2.401831 1_565
F14 Na13 2.223213 1_555
F14 Y0 2.334651 1_555
F14 Y7 2.347229 1_555
F14 Na2 2.401831 1_555
F15 Y6 2.317186 1_554
F15 Na1 2.327938 1_555
F15 Y2 2.400302 1_455
F15 Na9 2.498781 1_555
F16 Na15 2.223213 1_455
F16 Y7 2.334651 1_555
F16 Y0 2.347229 1_455
F16 Na0 2.401831 1_545
F17 Y6 2.325874 1_555
F17 Y2 2.366901 1_456
F17 Na5 2.459208 1_555
F17 Na12 2.526300 1_545
F18 Y5 2.317186 1_556
F18 Na11 2.327938 1_555
F18 Y3 2.400302 1_655
F18 Na12 2.498781 1_555
F19 Y3 2.325874 1_555
F19 Y5 2.366901 1_556
F19 Na7 2.459208 1_555
F19 Na8 2.526300 1_455
F20 Na2 2.223213 1_555
F20 Y1 2.334651 1_555
F20 Y4 2.347229 1_555
F20 Na13 2.401831 1_555
F21 Y0 2.325874 1_555
F21 Y7 2.366901 1_555
F21 Na14 2.459208 1_555
F21 Na0 2.526300 1_645
F22 Y5 2.325874 1_555
F22 Y3 2.366901 1_654
F22 Na4 2.459208 1_555
F22 Na9 2.526300 1_565
F23 Na9 2.223213 1_555
F23 Y2 2.334651 1_555
F23 Y6 2.347229 1_554
F23 Na12 2.401831 1_544
