# generated using pymatgen
data_CsTa(CuTe2)2
_symmetry_space_group_name_H-M   'P 1'
_cell_length_a   6.05544100
_cell_length_b   8.36367400
_cell_length_c   21.13015500
_cell_angle_alpha   90.00000000
_cell_angle_beta   90.00000000
_cell_angle_gamma   90.00000000
_symmetry_Int_Tables_number   1
_chemical_formula_structural   CsTa(CuTe2)2
_chemical_formula_sum   'Cs4 Ta4 Cu8 Te16'
_cell_volume   1070.15221902
_cell_formula_units_Z   4
loop_
 _symmetry_equiv_pos_site_id
 _symmetry_equiv_pos_as_xyz
  1  'x, y, z'
loop_
 _atom_site_type_symbol
 _atom_site_label
 _atom_site_symmetry_multiplicity
 _atom_site_fract_x
 _atom_site_fract_y
 _atom_site_fract_z
 _atom_site_occupancy
  Cs  Cs0  1  0.01564300  0.70581800  0.43836900  1
  Cs  Cs1  1  0.51564300  0.29418200  0.56163100  1
  Cs  Cs2  1  0.51564300  0.79418200  0.93836900  1
  Cs  Cs3  1  0.01564300  0.20581800  0.06163100  1
  Ta  Ta0  1  0.25918100  0.70522800  0.14819000  1
  Ta  Ta1  1  0.75918100  0.29477200  0.85181000  1
  Ta  Ta2  1  0.75918100  0.79477200  0.64819000  1
  Ta  Ta3  1  0.25918100  0.20522800  0.35181000  1
  Cu  Cu0  1  0.26667100  0.96268000  0.24711900  1
  Cu  Cu1  1  0.76667100  0.03732000  0.75288100  1
  Cu  Cu2  1  0.76667100  0.53732000  0.74711900  1
  Cu  Cu3  1  0.26667100  0.46268000  0.25288100  1
  Cu  Cu4  1  0.25931800  0.79381000  0.64757200  1
  Cu  Cu5  1  0.75931800  0.20619000  0.35242800  1
  Cu  Cu6  1  0.75931800  0.70619000  0.14757200  1
  Cu  Cu7  1  0.25931800  0.29381000  0.85242800  1
  Te  Te0  1  0.51060500  0.96400900  0.14399100  1
  Te  Te1  1  0.01060500  0.03599100  0.85600900  1
  Te  Te2  1  0.01060500  0.53599100  0.64399100  1
  Te  Te3  1  0.51060500  0.46400900  0.35600900  1
  Te  Te4  1  0.51216900  0.94858600  0.34912300  1
  Te  Te5  1  0.01216900  0.05141400  0.65087700  1
  Te  Te6  1  0.01216900  0.55141400  0.84912300  1
  Te  Te7  1  0.51216900  0.44858600  0.15087700  1
  Te  Te8  1  0.00225400  0.71249300  0.25071500  1
  Te  Te9  1  0.50225400  0.28750700  0.74928500  1
  Te  Te10  1  0.50225400  0.78750700  0.75071500  1
  Te  Te11  1  0.00225400  0.21249300  0.24928500  1
  Te  Te12  1  0.00956000  0.69308900  0.04638200  1
  Te  Te13  1  0.50956000  0.30691100  0.95361800  1
  Te  Te14  1  0.50956000  0.80691100  0.54638200  1
  Te  Te15  1  0.00956000  0.19308900  0.45361800  1
loop_
_geom_bond_atom_site_label_1
_geom_bond_atom_site_label_2
_geom_bond_distance
_geom_bond_site_symmetry_2
Cs0 Te14 3.856075 1_555
Cs0 Te14 3.913493 1_455
Cs0 Te8 3.966380 1_555
Cs0 Te3 4.012731 1_555
Cs0 Te3 4.058507 1_455
Cs0 Te15 4.088260 1_565
Cs0 Te4 4.088885 1_555
Cs0 Te4 4.119921 1_455
Cs0 Te15 4.300544 1_555
Cs1 Te15 3.856075 1_655
Cs1 Te15 3.913493 1_555
Cs1 Te9 3.966380 1_555
Cs1 Te2 4.012731 1_655
Cs1 Te2 4.058507 1_555
Cs1 Te14 4.088260 1_545
Cs1 Te5 4.088885 1_655
Cs1 Te5 4.119921 1_555
Cs1 Te14 4.300544 1_555
Cs2 Te12 3.856075 1_656
Cs2 Te12 3.913493 1_556
Cs2 Te10 3.966380 1_555
Cs2 Te1 4.012731 1_665
Cs2 Te1 4.058507 1_565
Cs2 Te13 4.088260 1_555
Cs2 Te6 4.088885 1_655
Cs2 Te6 4.119921 1_555
Cs2 Te13 4.300544 1_565
Cs3 Te13 3.856075 1_554
Cs3 Te13 3.913493 1_454
Cs3 Te11 3.966380 1_555
Cs3 Te0 4.012731 1_545
Cs3 Te0 4.058507 1_445
Cs3 Te12 4.088260 1_555
Cs3 Te7 4.088885 1_555
Cs3 Te7 4.119921 1_455
Cs3 Te12 4.300544 1_545
Ta0 Te12 2.631137 1_555
Ta0 Te7 2.637696 1_555
Ta0 Te0 2.647694 1_555
Ta0 Te8 2.667842 1_555
Ta1 Te13 2.631137 1_555
Ta1 Te6 2.637696 1_655
Ta1 Te1 2.647694 1_655
Ta1 Te9 2.667842 1_555
Ta2 Te14 2.631137 1_555
Ta2 Te5 2.637696 1_665
Ta2 Te2 2.647694 1_655
Ta2 Te10 2.667842 1_555
Ta3 Te15 2.631137 1_555
Ta3 Te4 2.637696 1_545
Ta3 Te3 2.647694 1_555
Ta3 Te11 2.667842 1_555
Cu0 Te4 2.620963 1_555
Cu0 Te0 2.632594 1_555
Cu0 Te11 2.632720 1_565
Cu0 Te8 2.635901 1_555
Cu0 Ta0 3.001371 1_555
Cu0 Ta3 3.001799 1_565
Cu1 Te5 2.620963 1_655
Cu1 Te1 2.632594 1_655
Cu1 Te10 2.632720 1_545
Cu1 Te9 2.635901 1_555
Cu1 Ta1 3.001371 1_555
Cu1 Ta2 3.001799 1_545
Cu2 Te6 2.620963 1_655
Cu2 Te2 2.632594 1_655
Cu2 Te9 2.632720 1_555
Cu2 Te10 2.635901 1_555
Cu2 Ta2 3.001371 1_555
Cu2 Ta1 3.001799 1_555
Cu3 Te7 2.620963 1_555
Cu3 Te3 2.632594 1_555
Cu3 Te8 2.632720 1_555
Cu3 Te11 2.635901 1_555
Cu3 Ta3 3.001371 1_555
Cu3 Ta0 3.001799 1_555
Cu4 Te14 2.622965 1_555
Cu4 Te5 2.624236 1_565
Cu4 Te10 2.629976 1_555
Cu4 Te2 2.631284 1_555
Cu4 Ta2 3.026930 1_555
Cu4 Ta2 3.028589 1_455
Cu5 Te15 2.622965 1_655
Cu5 Te4 2.624236 1_545
Cu5 Te11 2.629976 1_655
Cu5 Te3 2.631284 1_555
Cu5 Ta3 3.026930 1_655
Cu5 Ta3 3.028589 1_555
Cu6 Te12 2.622965 1_655
Cu6 Te7 2.624236 1_555
Cu6 Te8 2.629976 1_655
Cu6 Te0 2.631284 1_555
Cu6 Ta0 3.026930 1_655
Cu6 Ta0 3.028589 1_555
Cu7 Te13 2.622965 1_555
Cu7 Te6 2.624236 1_555
Cu7 Te9 2.629976 1_555
Cu7 Te1 2.631284 1_555
Cu7 Ta1 3.026930 1_555
Cu7 Ta1 3.028589 1_455
