# generated using pymatgen
data_YSnAu
_symmetry_space_group_name_H-M   'P 1'
_cell_length_a   4.67025776
_cell_length_b   4.67025770
_cell_length_c   7.47842709
_cell_angle_alpha   90.00000000
_cell_angle_beta   90.00000000
_cell_angle_gamma   120.00000044
_symmetry_Int_Tables_number   1
_chemical_formula_structural   YSnAu
_chemical_formula_sum   'Y2 Sn2 Au2'
_cell_volume   141.26110179
_cell_formula_units_Z   2
loop_
 _symmetry_equiv_pos_site_id
 _symmetry_equiv_pos_as_xyz
  1  'x, y, z'
loop_
 _atom_site_type_symbol
 _atom_site_label
 _atom_site_symmetry_multiplicity
 _atom_site_fract_x
 _atom_site_fract_y
 _atom_site_fract_z
 _atom_site_occupancy
  Y  Y0  1  -0.00000000  -0.00000000  0.74639900  1
  Y  Y1  1  -0.00000000  0.00000000  0.24639900  1
  Sn  Sn0  1  0.33333300  0.66666700  0.97111088  1
  Sn  Sn1  1  0.66666700  0.33333300  0.47111088  1
  Au  Au0  1  0.66666700  0.33333300  0.07477912  1
  Au  Au1  1  0.33333300  0.66666700  0.57477912  1
loop_
_geom_bond_atom_site_label_1
_geom_bond_atom_site_label_2
_geom_bond_distance
_geom_bond_site_symmetry_2
Y0 Y1 3.739214 1_556
Y0 Y1 3.739214 1_555
Sn0 Y0 3.177180 1_565
Sn0 Y0 3.177183 1_555
Sn0 Y0 3.177183 1_665
Sn0 Y1 3.392456 1_566
Sn0 Y1 3.392459 1_556
Sn0 Y1 3.392459 1_666
Sn1 Y1 3.177180 1_655
Sn1 Y1 3.177183 1_665
Sn1 Y1 3.177183 1_555
Sn1 Y0 3.392456 1_655
Sn1 Y0 3.392459 1_665
Sn1 Y0 3.392459 1_555
Au0 Sn0 2.805615 1_544
Au0 Sn0 2.805615 1_654
Au0 Sn0 2.805622 1_554
Au0 Sn1 2.963938 1_555
Au0 Y1 2.986245 1_655
Au0 Y1 2.986248 1_665
Au0 Y1 2.986248 1_555
Au0 Y0 3.647083 1_654
Au0 Y0 3.647086 1_664
Au0 Y0 3.647086 1_554
Au1 Sn1 2.805615 1_565
Au1 Sn1 2.805615 1_455
Au1 Sn1 2.805622 1_555
Au1 Sn0 2.963938 1_555
Au1 Y0 2.986245 1_565
Au1 Y0 2.986248 1_555
Au1 Y0 2.986248 1_665
Au1 Y1 3.647083 1_565
Au1 Y1 3.647086 1_555
Au1 Y1 3.647086 1_665
