# generated using pymatgen
data_CeAsS
_symmetry_space_group_name_H-M   'P 1'
_cell_length_a   3.94595400
_cell_length_b   3.94595400
_cell_length_c   8.39519000
_cell_angle_alpha   90.00000000
_cell_angle_beta   90.00000000
_cell_angle_gamma   90.00000000
_symmetry_Int_Tables_number   1
_chemical_formula_structural   CeAsS
_chemical_formula_sum   'Ce2 As2 S2'
_cell_volume   130.71775059
_cell_formula_units_Z   2
loop_
 _symmetry_equiv_pos_site_id
 _symmetry_equiv_pos_as_xyz
  1  'x, y, z'
loop_
 _atom_site_type_symbol
 _atom_site_label
 _atom_site_symmetry_multiplicity
 _atom_site_fract_x
 _atom_site_fract_y
 _atom_site_fract_z
 _atom_site_occupancy
  Ce  Ce0  1  0.50000000  0.00000000  0.28840900  1
  Ce  Ce1  1  0.00000000  0.50000000  0.71159100  1
  As  As0  1  0.50000000  0.50000000  0.00000000  1
  As  As1  1  0.00000000  0.00000000  0.00000000  1
  S  S0  1  0.50000000  0.00000000  0.63403200  1
  S  S1  1  0.00000000  0.50000000  0.36596800  1
loop_
_geom_bond_atom_site_label_1
_geom_bond_atom_site_label_2
_geom_bond_distance
_geom_bond_site_symmetry_2
Ce0 S1 2.865177 1_545
Ce0 S1 2.865177 1_655
Ce0 S1 2.865177 1_645
Ce0 S1 2.865177 1_555
Ce0 S0 2.901571 1_555
Ce1 S0 2.865177 1_465
Ce1 S0 2.865177 1_455
Ce1 S0 2.865177 1_555
Ce1 S0 2.865177 1_565
Ce1 S1 2.901571 1_555
As0 As1 2.790211 1_565
As0 As1 2.790211 1_655
As0 As1 2.790211 1_665
As0 As1 2.790211 1_555
As0 Ce0 3.123313 1_555
As0 Ce1 3.123313 1_554
As0 Ce0 3.123313 1_565
As0 Ce1 3.123313 1_654
As1 Ce0 3.123313 1_555
As1 Ce1 3.123313 1_544
As1 Ce1 3.123313 1_554
As1 Ce0 3.123313 1_455
