# generated using pymatgen
data_Ta3SiNi2
_symmetry_space_group_name_H-M   'P 1'
_cell_length_a   7.91227598
_cell_length_b   7.91227598
_cell_length_c   7.91227598
_cell_angle_alpha   60.00000000
_cell_angle_beta   60.00000000
_cell_angle_gamma   60.00000000
_symmetry_Int_Tables_number   1
_chemical_formula_structural   Ta3SiNi2
_chemical_formula_sum   'Ta12 Si4 Ni8'
_cell_volume   350.25898374
_cell_formula_units_Z   4
loop_
 _symmetry_equiv_pos_site_id
 _symmetry_equiv_pos_as_xyz
  1  'x, y, z'
loop_
 _atom_site_type_symbol
 _atom_site_label
 _atom_site_symmetry_multiplicity
 _atom_site_fract_x
 _atom_site_fract_y
 _atom_site_fract_z
 _atom_site_occupancy
  Ta  Ta0  1  0.70197400  0.29802600  0.70197400  1
  Ta  Ta1  1  0.95197400  0.54802600  0.54802600  1
  Ta  Ta2  1  0.54802600  0.95197400  0.95197400  1
  Ta  Ta3  1  0.95197400  0.54802600  0.95197400  1
  Ta  Ta4  1  0.54802600  0.54802600  0.95197400  1
  Ta  Ta5  1  0.95197400  0.95197400  0.54802600  1
  Ta  Ta6  1  0.70197400  0.70197400  0.29802600  1
  Ta  Ta7  1  0.29802600  0.70197400  0.70197400  1
  Ta  Ta8  1  0.70197400  0.29802600  0.29802600  1
  Ta  Ta9  1  0.29802600  0.29802600  0.70197400  1
  Ta  Ta10  1  0.54802600  0.95197400  0.54802600  1
  Ta  Ta11  1  0.29802600  0.70197400  0.29802600  1
  Si  Si0  1  0.12500000  0.12500000  0.12500000  1
  Si  Si1  1  0.62500000  0.12500000  0.12500000  1
  Si  Si2  1  0.12500000  0.62500000  0.12500000  1
  Si  Si3  1  0.12500000  0.12500000  0.62500000  1
  Ni  Ni0  1  0.33263900  0.33263900  0.33263900  1
  Ni  Ni1  1  0.24791800  0.91736100  0.91736100  1
  Ni  Ni2  1  0.91736100  0.24791800  0.91736100  1
  Ni  Ni3  1  0.91736100  0.91736100  0.24791800  1
  Ni  Ni4  1  0.33263900  0.00208200  0.33263900  1
  Ni  Ni5  1  0.33263900  0.33263900  0.00208200  1
  Ni  Ni6  1  0.00208200  0.33263900  0.33263900  1
  Ni  Ni7  1  0.91736100  0.91736100  0.91736100  1
loop_
_geom_bond_atom_site_label_1
_geom_bond_atom_site_label_2
_geom_bond_distance
_geom_bond_site_symmetry_2
Si0 Ta8 2.767895 1_455
Si0 Ta11 2.767895 1_545
Si0 Ta2 2.767895 1_544
Si0 Ta3 2.767895 1_454
Si0 Ta9 2.767895 1_554
Si0 Ta5 2.767895 1_445
Si1 Ta10 2.767895 1_545
Si1 Ta8 2.767895 1_555
Si1 Ta2 2.767895 1_544
Si1 Ta0 2.767895 1_554
Si1 Ta6 2.767895 1_545
Si1 Ta4 2.767895 1_554
Si2 Ta11 2.767895 1_555
Si2 Ta7 2.767895 1_554
Si2 Ta3 2.767895 1_454
Si2 Ta1 2.767895 1_455
Si2 Ta4 2.767895 1_554
Si2 Ta6 2.767895 1_455
Si3 Ta10 2.767895 1_545
Si3 Ta0 2.767895 1_455
Si3 Ta7 2.767895 1_545
Si3 Ta1 2.767895 1_455
Si3 Ta5 2.767895 1_445
Si3 Ta9 2.767895 1_555
Ni0 Si1 2.418178 1_555
Ni0 Si2 2.418178 1_555
Ni0 Si3 2.418178 1_555
Ni0 Ni4 2.615458 1_555
Ni0 Ni6 2.615458 1_555
Ni0 Ni5 2.615458 1_555
Ni0 Ta11 2.676583 1_555
Ni0 Ta8 2.676583 1_555
Ni0 Ta9 2.676583 1_555
Ni0 Ta1 2.742034 1_455
Ni0 Ta10 2.742034 1_545
Ni0 Ta4 2.742034 1_554
Ni1 Si0 2.418175 1_566
Ni1 Si2 2.418182 1_556
Ni1 Si3 2.418182 1_565
Ni1 Ni2 2.615458 1_465
Ni1 Ni7 2.615458 1_455
Ni1 Ni3 2.615458 1_456
Ni1 Ta2 2.676575 1_555
Ni1 Ta10 2.676580 1_555
Ni1 Ta4 2.676580 1_555
Ni1 Ta9 2.742031 1_565
Ni1 Ta11 2.742031 1_556
Ni1 Ta7 2.742038 1_555
Ni2 Si0 2.418175 1_656
Ni2 Si1 2.418182 1_556
Ni2 Si3 2.418182 1_655
Ni2 Ni3 2.615458 1_546
Ni2 Ni7 2.615458 1_545
Ni2 Ta3 2.676575 1_555
Ni2 Ta4 2.676580 1_555
Ni2 Ta1 2.676580 1_555
Ni2 Ta9 2.742031 1_655
Ni2 Ta8 2.742031 1_556
Ni2 Ta0 2.742038 1_555
Ni3 Si0 2.418175 1_665
Ni3 Si2 2.418182 1_655
Ni3 Si1 2.418182 1_565
Ni3 Ni7 2.615458 1_554
Ni3 Ta5 2.676575 1_555
Ni3 Ta10 2.676580 1_555
Ni3 Ta1 2.676580 1_555
Ni3 Ta8 2.742031 1_565
Ni3 Ta11 2.742031 1_655
Ni3 Ta6 2.742038 1_555
Ni4 Si0 2.418175 1_555
Ni4 Si1 2.418182 1_555
Ni4 Si3 2.418182 1_555
Ni4 Ni6 2.615458 1_555
Ni4 Ni5 2.615458 1_555
Ni4 Ta11 2.676575 1_545
Ni4 Ta6 2.676580 1_545
Ni4 Ta7 2.676580 1_545
Ni4 Ta5 2.742031 1_445
Ni4 Ta2 2.742031 1_544
Ni4 Ta10 2.742038 1_545
Ni5 Si0 2.418175 1_555
Ni5 Si1 2.418182 1_555
Ni5 Si2 2.418182 1_555
Ni5 Ni6 2.615458 1_555
Ni5 Ta9 2.676575 1_554
Ni5 Ta0 2.676580 1_554
Ni5 Ta7 2.676580 1_554
Ni5 Ta3 2.742031 1_454
Ni5 Ta2 2.742031 1_544
Ni5 Ta4 2.742038 1_554
Ni6 Si0 2.418175 1_555
Ni6 Si3 2.418182 1_555
Ni6 Si2 2.418182 1_555
Ni6 Ta8 2.676575 1_455
Ni6 Ta0 2.676580 1_455
Ni6 Ta6 2.676580 1_455
Ni6 Ta5 2.742031 1_445
Ni6 Ta3 2.742031 1_454
Ni6 Ta1 2.742038 1_455
Ni7 Si2 2.418178 1_656
Ni7 Si3 2.418178 1_665
Ni7 Si1 2.418178 1_566
Ni7 Ta3 2.676583 1_555
Ni7 Ta5 2.676583 1_555
Ni7 Ta2 2.676583 1_555
Ni7 Ta0 2.742034 1_565
Ni7 Ta6 2.742034 1_556
Ni7 Ta7 2.742034 1_655
