# generated using pymatgen
data_KLa5(CCl5)2
_symmetry_space_group_name_H-M   'P 1'
_cell_length_a   15.27558000
_cell_length_b   8.61971100
_cell_length_c   17.24547462
_cell_angle_alpha   60.37753719
_cell_angle_beta   90.00000000
_cell_angle_gamma   90.00000000
_symmetry_Int_Tables_number   1
_chemical_formula_structural   KLa5(CCl5)2
_chemical_formula_sum   'K4 La20 C8 Cl40'
_cell_volume   1973.94865019
_cell_formula_units_Z   4
loop_
 _symmetry_equiv_pos_site_id
 _symmetry_equiv_pos_as_xyz
  1  'x, y, z'
loop_
 _atom_site_type_symbol
 _atom_site_label
 _atom_site_symmetry_multiplicity
 _atom_site_fract_x
 _atom_site_fract_y
 _atom_site_fract_z
 _atom_site_occupancy
  K  K0  1  0.45248200  0.48501700  0.76263100  1
  K  K1  1  0.04751800  0.48501700  0.26263100  1
  K  K2  1  0.54751800  0.51498300  0.23736900  1
  K  K3  1  0.95248200  0.51498300  0.73736900  1
  La  La0  1  0.24467700  0.11998700  0.23068800  1
  La  La1  1  0.46365000  0.16599500  0.58474900  1
  La  La2  1  0.96365000  0.83400500  0.91525100  1
  La  La3  1  0.26465800  0.46353600  0.45900300  1
  La  La4  1  0.53635000  0.83400500  0.41525100  1
  La  La5  1  0.74467700  0.88001300  0.26931200  1
  La  La6  1  0.55962100  0.82707900  0.92173300  1
  La  La7  1  0.94037900  0.82707900  0.42173300  1
  La  La8  1  0.25965400  0.91619400  0.55976200  1
  La  La9  1  0.73534200  0.53646400  0.54099700  1
  La  La10  1  0.74034600  0.08380600  0.44023800  1
  La  La11  1  0.76465800  0.53646400  0.04099700  1
  La  La12  1  0.24034600  0.91619400  0.05976200  1
  La  La13  1  0.23534200  0.46353600  0.95900300  1
  La  La14  1  0.44037900  0.17292100  0.07826700  1
  La  La15  1  0.75965400  0.08380600  0.94023800  1
  La  La16  1  0.25532300  0.11998700  0.73068800  1
  La  La17  1  0.03635000  0.16599500  0.08474900  1
  La  La18  1  0.05962100  0.17292100  0.57826700  1
  La  La19  1  0.75532300  0.88001300  0.76931200  1
  C  C0  1  0.28742900  0.16840400  0.08235700  1
  C  C1  1  0.78742900  0.83159600  0.41764300  1
  C  C2  1  0.19068400  0.16576100  0.08229500  1
  C  C3  1  0.80931600  0.83423900  0.91770500  1
  C  C4  1  0.69068400  0.83423900  0.41770500  1
  C  C5  1  0.30931600  0.16576100  0.58229500  1
  C  C6  1  0.21257100  0.16840400  0.58235700  1
  C  C7  1  0.71257100  0.83159600  0.91764300  1
  Cl  Cl0  1  0.44260700  0.11272100  0.76586600  1
  Cl  Cl1  1  0.08047800  0.53343400  0.43203300  1
  Cl  Cl2  1  0.72676300  0.75751500  0.12708600  1
  Cl  Cl3  1  0.73867700  0.25705100  0.24414900  1
  Cl  Cl4  1  0.05095600  0.50525500  0.91353700  1
  Cl  Cl5  1  0.23867700  0.74294900  0.25585100  1
  Cl  Cl6  1  0.55739300  0.88727900  0.23413400  1
  Cl  Cl7  1  0.42829000  0.83964700  0.06614600  1
  Cl  Cl8  1  0.44517200  0.84066300  0.58131400  1
  Cl  Cl9  1  0.42787600  0.19529700  0.23791700  1
  Cl  Cl10  1  0.07212400  0.19529700  0.73791700  1
  Cl  Cl11  1  0.81359600  0.15775000  0.08765600  1
  Cl  Cl12  1  0.26132300  0.74294900  0.75585100  1
  Cl  Cl13  1  0.27323700  0.24248500  0.87291400  1
  Cl  Cl14  1  0.23034600  0.51128200  0.12278700  1
  Cl  Cl15  1  0.55482800  0.15933700  0.41868600  1
  Cl  Cl16  1  0.77323700  0.75751500  0.62708600  1
  Cl  Cl17  1  0.92829000  0.16035300  0.43385400  1
  Cl  Cl18  1  0.31359600  0.84225000  0.41234400  1
  Cl  Cl19  1  0.58047800  0.46656600  0.06796700  1
  Cl  Cl20  1  0.55095600  0.49474500  0.58646300  1
  Cl  Cl21  1  0.57171000  0.16035300  0.93385400  1
  Cl  Cl22  1  0.92787600  0.80470300  0.26208300  1
  Cl  Cl23  1  0.26965400  0.51128200  0.62278700  1
  Cl  Cl24  1  0.18640400  0.84225000  0.91234400  1
  Cl  Cl25  1  0.44904400  0.50525500  0.41353700  1
  Cl  Cl26  1  0.91952200  0.46656600  0.56796700  1
  Cl  Cl27  1  0.94517200  0.15933700  0.91868600  1
  Cl  Cl28  1  0.05739300  0.11272100  0.26586600  1
  Cl  Cl29  1  0.94904400  0.49474500  0.08646300  1
  Cl  Cl30  1  0.57212400  0.80470300  0.76208300  1
  Cl  Cl31  1  0.76132300  0.25705100  0.74414900  1
  Cl  Cl32  1  0.94260700  0.88727900  0.73413400  1
  Cl  Cl33  1  0.22676300  0.24248500  0.37291400  1
  Cl  Cl34  1  0.41952200  0.53343400  0.93203300  1
  Cl  Cl35  1  0.76965400  0.48871800  0.87721300  1
  Cl  Cl36  1  0.68640400  0.15775000  0.58765600  1
  Cl  Cl37  1  0.05482800  0.84066300  0.08131400  1
  Cl  Cl38  1  0.73034600  0.48871800  0.37721300  1
  Cl  Cl39  1  0.07171000  0.83964700  0.56614600  1
loop_
_geom_bond_atom_site_label_1
_geom_bond_atom_site_label_2
_geom_bond_distance
_geom_bond_site_symmetry_2
C0 C2 1.478020 1_555
C0 La14 2.337208 1_555
C0 La0 2.467561 1_555
C0 La12 2.496542 1_545
C0 La13 2.506053 1_554
C1 C4 1.478020 1_555
C1 La7 2.337208 1_555
C1 La5 2.467561 1_555
C1 La10 2.496542 1_565
C1 La9 2.506053 1_555
C2 La17 2.357940 1_555
C2 La13 2.485816 1_554
C2 La12 2.486066 1_545
C2 La0 2.527210 1_555
C3 C7 1.478020 1_555
C3 La2 2.357940 1_555
C3 La11 2.485816 1_556
C3 La15 2.486066 1_565
C3 La19 2.527210 1_555
C4 La4 2.357940 1_555
C4 La9 2.485816 1_555
C4 La10 2.486066 1_565
C4 La5 2.527210 1_555
C5 C6 1.478020 1_555
C5 La1 2.357940 1_555
C5 La3 2.485816 1_555
C5 La8 2.486066 1_545
C5 La16 2.527210 1_555
C6 La18 2.337208 1_555
C6 La16 2.467561 1_555
C6 La8 2.496542 1_545
C6 La3 2.506053 1_555
C7 La6 2.337208 1_555
C7 La19 2.467561 1_555
C7 La15 2.496542 1_565
C7 La11 2.506053 1_556
Cl0 La16 2.918730 1_555
Cl0 La1 2.941466 1_555
Cl0 La6 3.152769 1_545
Cl0 K0 3.185452 1_555
Cl1 La3 2.866679 1_555
Cl1 La18 2.893245 1_555
Cl1 K1 3.188673 1_555
Cl1 La7 3.251728 1_455
Cl2 La11 2.994376 1_555
Cl2 La15 3.096246 1_564
Cl2 La5 3.125068 1_555
Cl2 K2 3.399130 1_555
Cl3 La10 2.945175 1_555
Cl3 La5 3.060189 1_545
Cl3 La11 3.144984 1_555
Cl3 K2 3.636829 1_555
Cl4 La13 2.898037 1_555
Cl4 La17 2.963742 1_556
Cl4 La2 3.145207 1_455
Cl4 K3 3.353805 1_455
Cl5 La12 2.945175 1_555
Cl5 La0 3.060189 1_565
Cl5 La3 3.144984 1_555
Cl5 K1 3.636829 1_555
Cl6 La5 2.918730 1_555
Cl6 La4 2.941466 1_555
Cl6 La14 3.152769 1_565
Cl6 K2 3.185452 1_555
Cl7 La12 2.935649 1_555
Cl7 La14 2.987302 1_565
Cl7 La6 3.241228 1_554
Cl7 K2 3.420359 1_555
Cl8 La1 2.848038 1_565
Cl8 La8 2.890288 1_555
Cl8 K0 3.116336 1_555
Cl8 La4 3.210484 1_555
Cl9 La14 2.859889 1_555
Cl9 La0 2.889356 1_555
Cl9 K2 3.302697 1_555
Cl9 La4 3.518760 1_545
Cl10 La18 2.859889 1_555
Cl10 La16 2.889356 1_555
Cl10 K3 3.302697 1_455
Cl10 La2 3.518760 1_445
Cl11 La15 3.024953 1_554
Cl11 La5 3.039679 1_545
Cl11 La11 3.044005 1_555
Cl11 La17 3.403290 1_655
Cl12 La8 2.945175 1_555
Cl12 La16 3.060189 1_565
Cl12 La13 3.144984 1_555
Cl12 K0 3.636829 1_555
Cl13 La13 2.994376 1_555
Cl13 La12 3.096246 1_546
Cl13 La16 3.125068 1_555
Cl13 K0 3.399130 1_555
Cl14 La0 2.946555 1_555
Cl14 La13 3.049976 1_554
Cl14 La12 3.104225 1_555
Cl14 K1 3.623181 1_555
Cl15 La4 2.848038 1_545
Cl15 La10 2.890288 1_555
Cl15 K2 3.116336 1_555
Cl15 La1 3.210484 1_555
Cl16 La9 2.994376 1_555
Cl16 La10 3.096246 1_565
Cl16 La19 3.125068 1_555
Cl16 K3 3.399130 1_555
Cl17 La10 2.935649 1_555
Cl17 La7 2.987302 1_545
Cl17 La18 3.241228 1_655
Cl17 K1 3.420359 1_655
Cl18 La8 3.024953 1_555
Cl18 La0 3.039679 1_565
Cl18 La3 3.044005 1_555
Cl18 La4 3.403290 1_555
Cl19 La11 2.866679 1_555
Cl19 La6 2.893245 1_554
Cl19 K2 3.188673 1_555
Cl19 La14 3.251728 1_555
Cl20 La9 2.898037 1_555
Cl20 La4 2.963742 1_555
Cl20 La1 3.145207 1_555
Cl20 K0 3.353805 1_555
Cl21 La15 2.935649 1_555
Cl21 La6 2.987302 1_545
Cl21 La14 3.241228 1_556
Cl21 K0 3.420359 1_555
Cl22 La7 2.859889 1_555
Cl22 La5 2.889356 1_555
Cl22 K1 3.302697 1_655
Cl22 La17 3.518760 1_665
Cl23 La16 2.946555 1_555
Cl23 La3 3.049976 1_555
Cl23 La8 3.104225 1_555
Cl23 K0 3.623181 1_555
Cl24 La12 3.024953 1_556
Cl24 La16 3.039679 1_565
Cl24 La13 3.044005 1_555
Cl24 La2 3.403290 1_455
Cl25 La3 2.898037 1_555
Cl25 La1 2.963742 1_555
Cl25 La4 3.145207 1_555
Cl25 K2 3.353805 1_555
Cl26 La9 2.866679 1_555
Cl26 La7 2.893245 1_555
Cl26 K3 3.188673 1_555
Cl26 La18 3.251728 1_655
Cl27 La2 2.848038 1_545
Cl27 La15 2.890288 1_555
Cl27 K3 3.116336 1_555
Cl27 La17 3.210484 1_656
Cl28 La0 2.918730 1_555
Cl28 La17 2.941466 1_555
Cl28 La7 3.152769 1_445
Cl28 K1 3.185452 1_555
Cl29 La11 2.898037 1_555
Cl29 La2 2.963742 1_554
Cl29 La17 3.145207 1_655
Cl29 K1 3.353805 1_655
Cl30 La6 2.859889 1_555
Cl30 La19 2.889356 1_555
Cl30 K0 3.302697 1_555
Cl30 La1 3.518760 1_565
Cl31 La15 2.945175 1_555
Cl31 La19 3.060189 1_545
Cl31 La9 3.144984 1_555
Cl31 K3 3.636829 1_555
Cl32 La19 2.918730 1_555
Cl32 La2 2.941466 1_555
Cl32 La18 3.152769 1_665
Cl32 K3 3.185452 1_555
Cl33 La3 2.994376 1_555
Cl33 La8 3.096246 1_545
Cl33 La0 3.125068 1_555
Cl33 K1 3.399130 1_555
Cl34 La13 2.866679 1_555
Cl34 La14 2.893245 1_556
Cl34 K0 3.188673 1_555
Cl34 La6 3.251728 1_555
Cl35 La19 2.946555 1_555
Cl35 La11 3.049976 1_556
Cl35 La15 3.104225 1_555
Cl35 K3 3.623181 1_555
Cl36 La10 3.024953 1_555
Cl36 La19 3.039679 1_545
Cl36 La9 3.044005 1_555
Cl36 La1 3.403290 1_555
Cl37 La17 2.848038 1_565
Cl37 La12 2.890288 1_555
Cl37 K1 3.116336 1_555
Cl37 La2 3.210484 1_454
Cl38 La5 2.946555 1_555
Cl38 La9 3.049976 1_555
Cl38 La10 3.104225 1_555
Cl38 K2 3.623181 1_555
Cl39 La8 2.935649 1_555
Cl39 La18 2.987302 1_565
Cl39 La7 3.241228 1_455
Cl39 K3 3.420359 1_455
