# generated using pymatgen
data_BaAg2GeSe4
_symmetry_space_group_name_H-M   'P 1'
_cell_length_a   6.65586609
_cell_length_b   6.65586609
_cell_length_c   6.65586609
_cell_angle_alpha   115.23607596
_cell_angle_beta   112.76396907
_cell_angle_gamma   100.76115372
_symmetry_Int_Tables_number   1
_chemical_formula_structural   BaAg2GeSe4
_chemical_formula_sum   'Ba1 Ag2 Ge1 Se4'
_cell_volume   223.01132455
_cell_formula_units_Z   1
loop_
 _symmetry_equiv_pos_site_id
 _symmetry_equiv_pos_as_xyz
  1  'x, y, z'
loop_
 _atom_site_type_symbol
 _atom_site_label
 _atom_site_symmetry_multiplicity
 _atom_site_fract_x
 _atom_site_fract_y
 _atom_site_fract_z
 _atom_site_occupancy
  Ba  Ba0  1  0.00000000  0.00000000  0.00000000  1
  Ag  Ag0  1  0.70729900  0.20729900  0.50000000  1
  Ag  Ag1  1  0.29270100  0.79270100  0.50000000  1
  Ge  Ge0  1  0.50000000  0.50000000  0.00000000  1
  Se  Se0  1  0.14773700  0.53112300  0.00268800  1
  Se  Se1  1  0.52843500  0.14504900  0.99731200  1
  Se  Se2  1  0.47156500  0.46887700  0.61661400  1
  Se  Se3  1  0.85226300  0.85495100  0.38338600  1
loop_
_geom_bond_atom_site_label_1
_geom_bond_atom_site_label_2
_geom_bond_distance
_geom_bond_site_symmetry_2
Ba0 Se1 3.447676 1_454
Ba0 Se0 3.447676 1_545
Ba0 Se3 3.447676 1_444
Ba0 Se2 3.447676 1_555
Ba0 Se3 3.478278 1_445
Ba0 Se1 3.478278 1_554
Ba0 Se2 3.478278 1_444
Ba0 Se0 3.478278 1_555
Ag0 Se2 2.627866 1_555
Ag0 Se3 2.627866 1_545
Ag0 Se0 2.886996 1_656
Ag0 Se1 2.886996 1_554
Ag1 Se0 2.627866 1_555
Ag1 Se1 2.627866 1_565
Ag1 Se3 2.886996 1_455
Ag1 Se2 2.886996 1_555
Ge0 Se3 2.398150 1_555
Ge0 Se1 2.398150 1_554
Ge0 Se0 2.398150 1_555
Ge0 Se2 2.398150 1_554
