# generated using pymatgen
data_K2Ce(NO3)6
_symmetry_space_group_name_H-M   'P 1'
_cell_length_a   6.66757026
_cell_length_b   8.25275108
_cell_length_c   12.43496699
_cell_angle_alpha   91.93756280
_cell_angle_beta   90.00000000
_cell_angle_gamma   90.00000000
_symmetry_Int_Tables_number   1
_chemical_formula_structural   K2Ce(NO3)6
_chemical_formula_sum   'K4 Ce2 N12 O36'
_cell_volume   683.85277136
_cell_formula_units_Z   2
loop_
 _symmetry_equiv_pos_site_id
 _symmetry_equiv_pos_as_xyz
  1  'x, y, z'
loop_
 _atom_site_type_symbol
 _atom_site_label
 _atom_site_symmetry_multiplicity
 _atom_site_fract_x
 _atom_site_fract_y
 _atom_site_fract_z
 _atom_site_occupancy
  K  K0  1  0.78043746  0.95217634  0.34074430  1
  K  K1  1  0.28043746  0.54782366  0.15925570  1
  K  K2  1  0.21956254  0.04782366  0.65925570  1
  K  K3  1  0.71956254  0.45217634  0.84074430  1
  Ce  Ce0  1  0.50000000  0.50000000  0.50000000  1
  Ce  Ce1  1  0.00000000  0.00000000  0.00000000  1
  N  N0  1  0.28622799  0.78034098  0.88722285  1
  N  N1  1  0.76970417  0.53346702  0.31193901  1
  N  N2  1  0.25473979  0.78556398  0.45101525  1
  N  N3  1  0.21377201  0.28034098  0.38722285  1
  N  N4  1  0.26970417  0.96653298  0.18806099  1
  N  N5  1  0.75473979  0.71443602  0.04898475  1
  N  N6  1  0.23029583  0.46653298  0.68806099  1
  N  N7  1  0.74526021  0.21443602  0.54898475  1
  N  N8  1  0.24526021  0.28556398  0.95101525  1
  N  N9  1  0.71377201  0.21965902  0.11277715  1
  N  N10  1  0.78622799  0.71965902  0.61277715  1
  N  N11  1  0.73029583  0.03346702  0.81193901  1
  O  O0  1  0.35998464  0.40021964  0.94435864  1
  O  O1  1  0.71302629  0.92121453  0.87799798  1
  O  O2  1  0.08386574  0.29783008  0.00665601  1
  O  O3  1  0.70203537  0.18793739  0.01191903  1
  O  O4  1  0.85998464  0.09978036  0.55564136  1
  O  O5  1  0.88777887  0.12266692  0.82341283  1
  O  O6  1  0.38777887  0.37733308  0.67658717  1
  O  O7  1  0.60054536  0.31247097  0.16036407  1
  O  O8  1  0.20203537  0.31206261  0.48808097  1
  O  O9  1  0.41613426  0.79783008  0.50665601  1
  O  O10  1  0.64481961  0.64567584  0.66110165  1
  O  O11  1  0.58386574  0.20216992  0.49334399  1
  O  O12  1  0.89428450  0.55854837  0.24227005  1
  O  O13  1  0.10571550  0.44145163  0.75772995  1
  O  O14  1  0.39428450  0.94145163  0.25772995  1
  O  O15  1  0.61222113  0.62266692  0.32341283  1
  O  O16  1  0.64001536  0.59978036  0.05564136  1
  O  O17  1  0.11222113  0.87733308  0.17658717  1
  O  O18  1  0.10054536  0.18752903  0.33963593  1
  O  O19  1  0.89945464  0.81247097  0.66036407  1
  O  O20  1  0.27738669  0.14788011  0.90547323  1
  O  O21  1  0.79796463  0.68793739  0.51191903  1
  O  O22  1  0.21302629  0.57878547  0.62200202  1
  O  O23  1  0.78697371  0.42121453  0.37799798  1
  O  O24  1  0.14481961  0.85432416  0.83889835  1
  O  O25  1  0.39945464  0.68752903  0.83963593  1
  O  O26  1  0.22261331  0.64788011  0.40547323  1
  O  O27  1  0.14001536  0.90021964  0.44435864  1
  O  O28  1  0.91613426  0.70216992  0.99334399  1
  O  O29  1  0.35518039  0.35432416  0.33889835  1
  O  O30  1  0.77738669  0.35211989  0.59452677  1
  O  O31  1  0.28697371  0.07878547  0.12200202  1
  O  O32  1  0.29796463  0.81206261  0.98808097  1
  O  O33  1  0.60571550  0.05854837  0.74227005  1
  O  O34  1  0.85518039  0.14567584  0.16110165  1
  O  O35  1  0.72261331  0.85211989  0.09452677  1
loop_
_geom_bond_atom_site_label_1
_geom_bond_atom_site_label_2
_geom_bond_distance
_geom_bond_site_symmetry_2
K0 O27 2.762128 1_655
K0 O14 2.774229 1_555
K0 O34 2.833684 1_565
K0 O18 2.886169 1_665
K0 O15 2.942738 1_555
K0 O4 2.947187 1_565
K0 O11 3.051293 1_565
K0 O17 3.058904 1_655
K0 O21 3.100599 1_555
K0 O35 3.167584 1_555
K1 O16 2.762128 1_555
K1 O12 2.774229 1_455
K1 O29 2.833684 1_555
K1 O7 2.886169 1_555
K1 O17 2.942738 1_555
K1 O0 2.947187 1_554
K1 O2 3.051293 1_555
K1 O15 3.058904 1_555
K1 O32 3.100599 1_554
K1 O26 3.167584 1_555
K2 O4 2.762128 1_455
K2 O33 2.774229 1_555
K2 O24 2.833684 1_545
K2 O19 2.886169 1_445
K2 O6 2.942738 1_555
K2 O27 2.947187 1_545
K2 O9 3.051293 1_545
K2 O5 3.058904 1_455
K2 O8 3.100599 1_555
K2 O20 3.167584 1_555
K3 O0 2.762128 1_555
K3 O13 2.774229 1_655
K3 O10 2.833684 1_555
K3 O25 2.886169 1_555
K3 O5 2.942738 1_555
K3 O16 2.947187 1_556
K3 O28 3.051293 1_555
K3 O6 3.058904 1_555
K3 O3 3.100599 1_556
K3 O30 3.167584 1_555
Ce0 O29 2.495606 1_555
Ce0 O10 2.495606 1_555
Ce0 O23 2.513719 1_555
Ce0 O22 2.513719 1_555
Ce0 O11 2.519352 1_555
Ce0 O9 2.519352 1_555
Ce0 O21 2.521706 1_555
Ce0 O8 2.521706 1_555
Ce0 O26 2.527589 1_555
Ce0 O30 2.527589 1_555
Ce0 O6 2.560624 1_555
Ce0 O15 2.560624 1_555
Ce1 O24 2.495606 1_544
Ce1 O34 2.495606 1_455
Ce1 O31 2.513719 1_555
Ce1 O1 2.513719 1_444
Ce1 O28 2.519352 1_444
Ce1 O2 2.519352 1_555
Ce1 O32 2.521706 1_544
Ce1 O3 2.521706 1_455
Ce1 O20 2.527589 1_554
Ce1 O35 2.527589 1_445
Ce1 O17 2.560624 1_545
Ce1 O5 2.560624 1_454
N0 O25 1.214965 1_555
N0 O32 1.274909 1_555
N0 O24 1.283613 1_555
N1 O12 1.222897 1_555
N1 O23 1.263995 1_555
N1 O15 1.287527 1_555
N2 O27 1.221725 1_555
N2 O26 1.270509 1_555
N2 O9 1.281497 1_555
N3 O18 1.214965 1_555
N3 O8 1.274909 1_555
N3 O29 1.283613 1_555
N4 O14 1.222897 1_555
N4 O31 1.263995 1_565
N4 O17 1.287527 1_555
N5 O16 1.221725 1_555
N5 O35 1.270509 1_555
N5 O28 1.281497 1_554
N6 O13 1.222897 1_555
N6 O22 1.263995 1_555
N6 O6 1.287527 1_555
N7 O4 1.221725 1_555
N7 O30 1.270509 1_555
N7 O11 1.281497 1_555
N8 O0 1.221725 1_555
N8 O20 1.270509 1_555
N8 O2 1.281497 1_556
N9 O7 1.214965 1_555
N9 O3 1.274909 1_555
N9 O34 1.283613 1_555
N10 O19 1.214965 1_555
N10 O21 1.274909 1_555
N10 O10 1.283613 1_555
N11 O33 1.222897 1_555
N11 O1 1.263995 1_545
N11 O5 1.287527 1_555
