# generated using pymatgen
data_MoP2O7
_symmetry_space_group_name_H-M   'P 1'
_cell_length_a   8.39494500
_cell_length_b   8.39494500
_cell_length_c   8.39494500
_cell_angle_alpha   90.00000000
_cell_angle_beta   90.00000000
_cell_angle_gamma   90.00000000
_symmetry_Int_Tables_number   1
_chemical_formula_structural   MoP2O7
_chemical_formula_sum   'Mo4 P8 O28'
_cell_volume   591.63460141
_cell_formula_units_Z   4
loop_
 _symmetry_equiv_pos_site_id
 _symmetry_equiv_pos_as_xyz
  1  'x, y, z'
loop_
 _atom_site_type_symbol
 _atom_site_label
 _atom_site_symmetry_multiplicity
 _atom_site_fract_x
 _atom_site_fract_y
 _atom_site_fract_z
 _atom_site_occupancy
  Mo  Mo0  1  0.00000000  0.00000000  0.00000000  1
  Mo  Mo1  1  0.50000000  0.00000000  0.50000000  1
  Mo  Mo2  1  0.50000000  0.50000000  0.00000000  1
  Mo  Mo3  1  0.00000000  0.50000000  0.50000000  1
  P  P0  1  0.39078700  0.39078700  0.39078700  1
  P  P1  1  0.10921300  0.60921300  0.89078700  1
  P  P2  1  0.89078700  0.10921300  0.60921300  1
  P  P3  1  0.60921300  0.89078700  0.10921300  1
  P  P4  1  0.60921300  0.60921300  0.60921300  1
  P  P5  1  0.89078700  0.39078700  0.10921300  1
  P  P6  1  0.10921300  0.89078700  0.39078700  1
  P  P7  1  0.39078700  0.10921300  0.89078700  1
  O  O0  1  0.50000000  0.50000000  0.50000000  1
  O  O1  1  0.00000000  0.50000000  0.00000000  1
  O  O2  1  0.00000000  0.00000000  0.50000000  1
  O  O3  1  0.50000000  0.00000000  0.00000000  1
  O  O4  1  0.21960800  0.08646500  0.94395800  1
  O  O5  1  0.94395800  0.21960800  0.08646500  1
  O  O6  1  0.08646500  0.94395800  0.21960800  1
  O  O7  1  0.41353500  0.05604200  0.71960800  1
  O  O8  1  0.44395800  0.28039200  0.91353500  1
  O  O9  1  0.91353500  0.44395800  0.28039200  1
  O  O10  1  0.55604200  0.78039200  0.58646500  1
  O  O11  1  0.05604200  0.71960800  0.41353500  1
  O  O12  1  0.58646500  0.55604200  0.78039200  1
  O  O13  1  0.71960800  0.41353500  0.05604200  1
  O  O14  1  0.78039200  0.58646500  0.55604200  1
  O  O15  1  0.28039200  0.91353500  0.44395800  1
  O  O16  1  0.78039200  0.91353500  0.05604200  1
  O  O17  1  0.05604200  0.78039200  0.91353500  1
  O  O18  1  0.91353500  0.05604200  0.78039200  1
  O  O19  1  0.58646500  0.94395800  0.28039200  1
  O  O20  1  0.55604200  0.71960800  0.08646500  1
  O  O21  1  0.08646500  0.55604200  0.71960800  1
  O  O22  1  0.44395800  0.21960800  0.41353500  1
  O  O23  1  0.94395800  0.28039200  0.58646500  1
  O  O24  1  0.41353500  0.44395800  0.21960800  1
  O  O25  1  0.28039200  0.58646500  0.94395800  1
  O  O26  1  0.21960800  0.41353500  0.44395800  1
  O  O27  1  0.71960800  0.08646500  0.55604200  1
loop_
_geom_bond_atom_site_label_1
_geom_bond_atom_site_label_2
_geom_bond_distance
_geom_bond_site_symmetry_2
Mo0 O16 2.036437 1_445
Mo0 O17 2.036437 1_544
Mo0 O18 2.036437 1_454
Mo0 O5 2.036437 1_455
Mo0 O4 2.036437 1_554
Mo0 O6 2.036437 1_545
Mo1 O27 2.036437 1_555
Mo1 O7 2.036437 1_555
Mo1 O10 2.036437 1_545
Mo1 O19 2.036437 1_545
Mo1 O22 2.036437 1_555
Mo1 O15 2.036437 1_545
Mo2 O20 2.036437 1_555
Mo2 O13 2.036437 1_555
Mo2 O12 2.036437 1_554
Mo2 O25 2.036437 1_554
Mo2 O24 2.036437 1_555
Mo2 O8 2.036437 1_554
Mo3 O21 2.036437 1_555
Mo3 O11 2.036437 1_555
Mo3 O14 2.036437 1_455
Mo3 O23 2.036437 1_455
Mo3 O26 2.036437 1_555
Mo3 O9 2.036437 1_455
O0 P4 1.588008 1_555
O0 P0 1.588008 1_555
O1 P1 1.588008 1_554
O1 P5 1.588008 1_455
O2 P2 1.588008 1_455
O2 P6 1.588008 1_545
O3 P7 1.588008 1_554
O3 P3 1.588008 1_545
O4 P7 1.516836 1_555
O5 P5 1.516836 1_555
O6 P6 1.516836 1_555
O7 P7 1.516836 1_555
O8 P7 1.516836 1_555
O9 P5 1.516836 1_555
O10 P4 1.516836 1_555
O11 P6 1.516836 1_555
O12 P4 1.516836 1_555
O13 P5 1.516836 1_555
O14 P4 1.516836 1_555
O15 P6 1.516836 1_555
O16 P3 1.516836 1_555
O17 P1 1.516836 1_555
O18 P2 1.516836 1_555
O19 P3 1.516836 1_555
O20 P3 1.516836 1_555
O21 P1 1.516836 1_555
O22 P0 1.516836 1_555
O23 P2 1.516836 1_555
O24 P0 1.516836 1_555
O25 P1 1.516836 1_555
O26 P0 1.516836 1_555
O27 P2 1.516836 1_555
