# generated using pymatgen
data_Ba14AlSb11
_symmetry_space_group_name_H-M   'P 1'
_cell_length_a   17.95679985
_cell_length_b   17.95679985
_cell_length_c   17.95679985
_cell_angle_alpha   117.88730789
_cell_angle_beta   117.88730789
_cell_angle_gamma   93.69997866
_symmetry_Int_Tables_number   1
_chemical_formula_structural   Ba14AlSb11
_chemical_formula_sum   'Ba56 Al4 Sb44'
_cell_volume   4215.46032204
_cell_formula_units_Z   4
loop_
 _symmetry_equiv_pos_site_id
 _symmetry_equiv_pos_as_xyz
  1  'x, y, z'
loop_
 _atom_site_type_symbol
 _atom_site_label
 _atom_site_symmetry_multiplicity
 _atom_site_fract_x
 _atom_site_fract_y
 _atom_site_fract_z
 _atom_site_occupancy
  Ba  Ba0  1  0.62631400  0.28642400  0.97582100  1
  Ba  Ba1  1  0.90049300  0.06060300  0.52417900  1
  Ba  Ba2  1  0.13214400  0.49832600  0.72311700  1
  Ba  Ba3  1  0.65902700  0.52520900  0.77688300  1
  Ba  Ba4  1  0.40049300  0.87631400  0.83989000  1
  Ba  Ba5  1  0.81060300  0.78642400  0.66011000  1
  Ba  Ba6  1  0.03642400  0.56060300  0.16011000  1
  Ba  Ba7  1  0.12631400  0.15049300  0.33989000  1
  Ba  Ba8  1  0.89456300  0.74825200  0.89422100  1
  Ba  Ba9  1  0.15902700  0.38214400  0.13381800  1
  Ba  Ba10  1  0.25034200  0.60403100  0.60577900  1
  Ba  Ba11  1  0.27520900  0.99832600  0.36618200  1
  Ba  Ba12  1  0.75174800  0.60543700  0.10577900  1
  Ba  Ba13  1  0.31060300  0.65049300  0.02417900  1
  Ba  Ba14  1  0.89596900  0.24965800  0.39422100  1
  Ba  Ba15  1  0.24832600  0.02520900  0.86618200  1
  Ba  Ba16  1  0.98111800  0.87500000  0.60611800  1
  Ba  Ba17  1  0.53642400  0.37631400  0.47582100  1
  Ba  Ba18  1  0.63214400  0.90902700  0.63381800  1
  Ba  Ba19  1  0.62500000  0.01888200  0.89388200  1
  Ba  Ba20  1  0.49825200  0.10403100  0.35368900  1
  Ba  Ba21  1  0.39456300  0.50034200  0.14631100  1
  Ba  Ba22  1  0.62500000  0.51888200  0.39388200  1
  Ba  Ba23  1  0.48111800  0.87500000  0.10611800  1
  Ba  Ba24  1  0.75034200  0.14456300  0.64631100  1
  Ba  Ba25  1  0.00167400  0.36785600  0.27688300  1
  Ba  Ba26  1  0.77520900  0.40902700  0.27688300  1
  Ba  Ba27  1  0.35403100  0.24825200  0.85368900  1
  Ba  Ba28  1  0.39596900  0.00174800  0.64631100  1
  Ba  Ba29  1  0.97479100  0.84097300  0.22311700  1
  Ba  Ba30  1  0.74832600  0.88214400  0.22311700  1
  Ba  Ba31  1  0.99965800  0.10543700  0.85368900  1
  Ba  Ba32  1  0.26888200  0.37500000  0.39388200  1
  Ba  Ba33  1  0.12500000  0.73111800  0.10611800  1
  Ba  Ba34  1  0.35543700  0.74965800  0.35368900  1
  Ba  Ba35  1  0.25174800  0.14596900  0.14631100  1
  Ba  Ba36  1  0.12500000  0.23111800  0.60611800  1
  Ba  Ba37  1  0.11785600  0.34097300  0.86618200  1
  Ba  Ba38  1  0.21357600  0.87368600  0.02417900  1
  Ba  Ba39  1  0.76888200  0.37500000  0.89388200  1
  Ba  Ba40  1  0.50167400  0.22479100  0.63381800  1
  Ba  Ba41  1  0.85403100  0.00034200  0.10577900  1
  Ba  Ba42  1  0.43939700  0.59950700  0.47582100  1
  Ba  Ba43  1  0.99825200  0.64456300  0.39422100  1
  Ba  Ba44  1  0.47479100  0.25167400  0.13381800  1
  Ba  Ba45  1  0.49965800  0.64596900  0.89422100  1
  Ba  Ba46  1  0.59097300  0.86785600  0.36618200  1
  Ba  Ba47  1  0.85543700  0.50174800  0.60577900  1
  Ba  Ba48  1  0.62368600  0.09950700  0.16011000  1
  Ba  Ba49  1  0.71357600  0.68939700  0.33989000  1
  Ba  Ba50  1  0.93939700  0.46357600  0.83989000  1
  Ba  Ba51  1  0.34950700  0.37368600  0.66011000  1
  Ba  Ba52  1  0.09097300  0.72479100  0.72311700  1
  Ba  Ba53  1  0.61785600  0.75167400  0.77688300  1
  Ba  Ba54  1  0.84950700  0.18939700  0.97582100  1
  Ba  Ba55  1  0.12368600  0.96357600  0.52417900  1
  Al  Al0  1  0.25000000  0.75000000  0.50000000  1
  Al  Al1  1  0.75000000  0.25000000  0.50000000  1
  Al  Al2  1  0.50000000  0.50000000  0.00000000  1
  Al  Al3  1  0.00000000  0.00000000  0.00000000  1
  Sb  Sb0  1  0.85341700  0.44557300  0.14220000  1
  Sb  Sb1  1  0.96121700  0.05337300  0.35780000  1
  Sb  Sb2  1  0.19557300  0.55337300  0.09215600  1
  Sb  Sb3  1  0.35341700  0.21121700  0.40784400  1
  Sb  Sb4  1  0.19296300  0.56004100  0.37174800  1
  Sb  Sb5  1  0.07121600  0.93829400  0.12825200  1
  Sb  Sb6  1  0.31004100  0.43829400  0.86707800  1
  Sb  Sb7  1  0.69296300  0.32121600  0.63292200  1
  Sb  Sb8  1  0.57121600  0.44296300  0.13292200  1
  Sb  Sb9  1  0.68829400  0.06004100  0.36707800  1
  Sb  Sb10  1  0.37035600  0.87035600  0.24071300  1
  Sb  Sb11  1  0.25000000  0.25000000  0.00000000  1
  Sb  Sb12  1  0.12035600  0.12035600  0.74071300  1
  Sb  Sb13  1  0.46121700  0.10341700  0.90784400  1
  Sb  Sb14  1  0.80337300  0.94557300  0.59215600  1
  Sb  Sb15  1  0.18829400  0.82121600  0.62825200  1
  Sb  Sb16  1  0.81004100  0.94296300  0.87174800  1
  Sb  Sb17  1  0.62035600  0.87964400  0.00000000  1
  Sb  Sb18  1  0.87035600  0.62964400  0.50000000  1
  Sb  Sb19  1  0.05442700  0.64658300  0.85780000  1
  Sb  Sb20  1  0.44662700  0.53878300  0.64220000  1
  Sb  Sb21  1  0.75000000  0.75000000  0.00000000  1
  Sb  Sb22  1  0.00000000  0.50000000  0.50000000  1
  Sb  Sb23  1  0.30337300  0.71121700  0.85780000  1
  Sb  Sb24  1  0.69557300  0.60341700  0.64220000  1
  Sb  Sb25  1  0.87964400  0.62035600  0.00000000  1
  Sb  Sb26  1  0.12964400  0.37035600  0.50000000  1
  Sb  Sb27  1  0.93995900  0.30703700  0.62825200  1
  Sb  Sb28  1  0.56170600  0.42878400  0.87174800  1
  Sb  Sb29  1  0.94662700  0.30442700  0.90784400  1
  Sb  Sb30  1  0.28878300  0.14658300  0.59215600  1
  Sb  Sb31  1  0.62964400  0.12964400  0.75928700  1
  Sb  Sb32  1  0.50000000  0.00000000  0.50000000  1
  Sb  Sb33  1  0.37964400  0.37964400  0.25928700  1
  Sb  Sb34  1  0.06170600  0.18995900  0.13292200  1
  Sb  Sb35  1  0.17878400  0.80703700  0.36707800  1
  Sb  Sb36  1  0.05703700  0.92878400  0.86707800  1
  Sb  Sb37  1  0.43995900  0.81170600  0.63292200  1
  Sb  Sb38  1  0.67878400  0.31170600  0.37174800  1
  Sb  Sb39  1  0.55703700  0.68995900  0.12825200  1
  Sb  Sb40  1  0.39658300  0.03878300  0.09215600  1
  Sb  Sb41  1  0.55442700  0.69662700  0.40784400  1
  Sb  Sb42  1  0.78878300  0.19662700  0.14220000  1
  Sb  Sb43  1  0.89658300  0.80442700  0.35780000  1
loop_
_geom_bond_atom_site_label_1
_geom_bond_atom_site_label_2
_geom_bond_distance
_geom_bond_site_symmetry_2
Ba0 Sb8 3.519994 1_556
Ba0 Sb13 3.561331 1_555
Ba0 Sb0 3.582561 1_556
Ba0 Sb31 3.612062 1_555
Ba0 Sb28 3.767871 1_555
Ba0 Sb42 4.122787 1_556
Ba1 Sb9 3.519994 1_555
Ba1 Sb14 3.561331 1_545
Ba1 Sb1 3.582561 1_555
Ba1 Sb12 3.612057 1_655
Ba1 Sb27 3.767886 1_555
Ba1 Sb43 4.122787 1_545
Ba2 Sb19 3.535220 1_555
Ba2 Sb26 3.541222 1_555
Ba2 Sb23 3.577000 1_555
Ba2 Sb22 3.593292 1_555
Ba2 Sb6 3.657254 1_555
Ba2 Sb27 3.755954 1_455
Ba3 Sb20 3.535220 1_555
Ba3 Sb25 3.541222 1_556
Ba3 Sb24 3.577000 1_555
Ba3 Sb21 3.593292 1_556
Ba3 Sb7 3.657254 1_555
Ba3 Sb28 3.755977 1_555
Ba4 Sb15 3.520002 1_555
Ba4 Sb23 3.561331 1_555
Ba4 Sb13 3.582561 1_565
Ba4 Sb17 3.612049 1_556
Ba4 Sb37 3.767883 1_555
Ba4 Sb40 4.122787 1_566
Ba5 Sb16 3.520007 1_555
Ba5 Sb24 3.561331 1_555
Ba5 Sb14 3.582561 1_555
Ba5 Sb18 3.612049 1_555
Ba5 Sb36 3.767883 1_655
Ba5 Sb41 4.122787 1_555
Ba6 Sb4 3.520007 1_555
Ba6 Sb0 3.561331 1_455
Ba6 Sb2 3.582561 1_555
Ba6 Sb25 3.612049 1_455
Ba6 Sb35 3.767883 1_555
Ba6 Sb29 4.122787 1_454
Ba7 Sb5 3.520002 1_545
Ba7 Sb1 3.561331 1_455
Ba7 Sb3 3.582561 1_555
Ba7 Sb26 3.612049 1_555
Ba7 Sb34 3.767883 1_555
Ba7 Sb30 4.122787 1_555
Ba8 Sb5 3.476387 1_656
Ba8 Sb24 3.560237 1_555
Ba8 Sb19 3.649254 1_655
Ba8 Sb25 3.664897 1_556
Ba8 Sb21 3.861976 1_556
Ba8 Sb16 4.015339 1_555
Ba9 Sb29 3.535220 1_454
Ba9 Sb33 3.541219 1_555
Ba9 Sb2 3.577000 1_555
Ba9 Sb11 3.593292 1_555
Ba9 Sb4 3.657266 1_555
Ba9 Sb34 3.755961 1_555
Ba10 Sb4 3.476375 1_555
Ba10 Sb23 3.560237 1_555
Ba10 Sb20 3.649254 1_555
Ba10 Sb26 3.664897 1_555
Ba10 Sb22 3.861976 1_555
Ba10 Sb15 4.015349 1_555
Ba11 Sb30 3.535220 1_565
Ba11 Sb10 3.541212 1_555
Ba11 Sb3 3.577000 1_565
Ba11 Sb32 3.593292 1_565
Ba11 Sb5 3.657264 1_555
Ba11 Sb35 3.755961 1_555
Ba12 Sb28 3.476387 1_554
Ba12 Sb43 3.560237 1_555
Ba12 Sb0 3.649254 1_555
Ba12 Sb25 3.664897 1_555
Ba12 Sb21 3.861976 1_555
Ba12 Sb39 4.015339 1_555
Ba13 Sb6 3.519994 1_554
Ba13 Sb2 3.561331 1_555
Ba13 Sb23 3.582561 1_554
Ba13 Sb10 3.612057 1_555
Ba13 Sb39 3.767886 1_555
Ba13 Sb19 4.122787 1_554
Ba14 Sb27 3.476375 1_555
Ba14 Sb42 3.560237 1_555
Ba14 Sb1 3.649254 1_555
Ba14 Sb26 3.664897 1_655
Ba14 Sb22 3.861976 1_655
Ba14 Sb38 4.015349 1_555
Ba15 Sb40 3.535220 1_556
Ba15 Sb12 3.541212 1_555
Ba15 Sb13 3.577000 1_555
Ba15 Sb11 3.593292 1_556
Ba15 Sb15 3.657264 1_545
Ba15 Sb36 3.755961 1_545
Ba16 Sb43 3.453498 1_555
Ba16 Sb14 3.453498 1_555
Ba16 Sb36 3.790819 1_655
Ba16 Sb15 3.790824 1_655
Ba16 Sb12 3.803682 1_665
Ba16 Sb18 3.803686 1_555
Ba17 Sb7 3.519994 1_555
Ba17 Sb3 3.561331 1_555
Ba17 Sb24 3.582561 1_555
Ba17 Sb33 3.612062 1_555
Ba17 Sb38 3.767871 1_555
Ba17 Sb20 4.122787 1_555
Ba18 Sb41 3.535220 1_555
Ba18 Sb31 3.541219 1_565
Ba18 Sb14 3.577000 1_555
Ba18 Sb32 3.593292 1_565
Ba18 Sb16 3.657266 1_555
Ba18 Sb37 3.755961 1_555
Ba19 Sb42 3.453498 1_556
Ba19 Sb13 3.453498 1_555
Ba19 Sb16 3.790813 1_545
Ba19 Sb37 3.790819 1_545
Ba19 Sb17 3.803686 1_546
Ba19 Sb31 3.803702 1_555
Ba20 Sb9 3.476393 1_555
Ba20 Sb3 3.560237 1_555
Ba20 Sb40 3.649254 1_555
Ba20 Sb10 3.664902 1_545
Ba20 Sb32 3.861976 1_555
Ba20 Sb7 4.015345 1_555
Ba21 Sb8 3.476393 1_555
Ba21 Sb2 3.560237 1_555
Ba21 Sb41 3.649254 1_555
Ba21 Sb33 3.664881 1_555
Ba21 Sb11 3.861976 1_555
Ba21 Sb6 4.015345 1_554
Ba22 Sb24 3.453498 1_555
Ba22 Sb41 3.453498 1_555
Ba22 Sb8 3.790819 1_555
Ba22 Sb38 3.790824 1_555
Ba22 Sb33 3.803682 1_555
Ba22 Sb18 3.803686 1_555
Ba23 Sb23 3.453498 1_554
Ba23 Sb40 3.453498 1_565
Ba23 Sb39 3.790813 1_555
Ba23 Sb9 3.790819 1_565
Ba23 Sb17 3.803686 1_555
Ba23 Sb10 3.803702 1_555
Ba24 Sb7 3.476393 1_555
Ba24 Sb14 3.560237 1_545
Ba24 Sb29 3.649254 1_555
Ba24 Sb31 3.664881 1_555
Ba24 Sb32 3.861976 1_555
Ba24 Sb9 4.015345 1_555
Ba25 Sb0 3.535220 1_455
Ba25 Sb26 3.541222 1_555
Ba25 Sb42 3.577000 1_455
Ba25 Sb22 3.593292 1_555
Ba25 Sb34 3.657254 1_555
Ba25 Sb4 3.755954 1_555
Ba26 Sb42 3.535220 1_555
Ba26 Sb18 3.541222 1_555
Ba26 Sb0 3.577000 1_555
Ba26 Sb22 3.593292 1_655
Ba26 Sb8 3.657254 1_555
Ba26 Sb38 3.755977 1_555
Ba27 Sb6 3.476393 1_555
Ba27 Sb13 3.560237 1_555
Ba27 Sb30 3.649254 1_555
Ba27 Sb12 3.664902 1_555
Ba27 Sb11 3.861976 1_556
Ba27 Sb8 4.015345 1_556
Ba28 Sb37 3.476393 1_545
Ba28 Sb30 3.560237 1_555
Ba28 Sb13 3.649254 1_555
Ba28 Sb31 3.664902 1_555
Ba28 Sb32 3.861976 1_555
Ba28 Sb35 4.015345 1_545
Ba29 Sb1 3.535220 1_565
Ba29 Sb25 3.541222 1_555
Ba29 Sb43 3.577000 1_555
Ba29 Sb21 3.593292 1_555
Ba29 Sb35 3.657254 1_655
Ba29 Sb5 3.755977 1_655
Ba30 Sb43 3.535220 1_555
Ba30 Sb17 3.541222 1_555
Ba30 Sb1 3.577000 1_565
Ba30 Sb21 3.593292 1_555
Ba30 Sb9 3.657254 1_565
Ba30 Sb39 3.755954 1_555
Ba31 Sb36 3.476393 1_645
Ba31 Sb29 3.560237 1_555
Ba31 Sb14 3.649254 1_545
Ba31 Sb12 3.664881 1_655
Ba31 Sb11 3.861976 1_656
Ba31 Sb34 4.015345 1_656
Ba32 Sb20 3.453498 1_555
Ba32 Sb3 3.453498 1_555
Ba32 Sb4 3.790813 1_555
Ba32 Sb34 3.790819 1_555
Ba32 Sb26 3.803686 1_555
Ba32 Sb33 3.803702 1_555
Ba33 Sb19 3.453498 1_554
Ba33 Sb2 3.453498 1_555
Ba33 Sb35 3.790819 1_555
Ba33 Sb5 3.790824 1_555
Ba33 Sb10 3.803682 1_555
Ba33 Sb25 3.803686 1_455
Ba34 Sb35 3.476393 1_555
Ba34 Sb41 3.560237 1_555
Ba34 Sb2 3.649254 1_555
Ba34 Sb10 3.664881 1_555
Ba34 Sb32 3.861976 1_565
Ba34 Sb37 4.015345 1_555
Ba35 Sb34 3.476393 1_555
Ba35 Sb40 3.560237 1_555
Ba35 Sb3 3.649254 1_555
Ba35 Sb33 3.664902 1_555
Ba35 Sb11 3.861976 1_555
Ba35 Sb36 4.015345 1_544
Ba36 Sb1 3.453498 1_455
Ba36 Sb30 3.453498 1_555
Ba36 Sb27 3.790813 1_455
Ba36 Sb6 3.790819 1_555
Ba36 Sb26 3.803686 1_555
Ba36 Sb12 3.803702 1_555
Ba37 Sb2 3.535220 1_556
Ba37 Sb12 3.541219 1_555
Ba37 Sb29 3.577000 1_455
Ba37 Sb11 3.593292 1_556
Ba37 Sb27 3.657266 1_455
Ba37 Sb6 3.755961 1_555
Ba38 Sb36 3.519994 1_554
Ba38 Sb40 3.561331 1_565
Ba38 Sb19 3.582561 1_554
Ba38 Sb10 3.612062 1_555
Ba38 Sb5 3.767871 1_555
Ba38 Sb23 4.122787 1_554
Ba39 Sb0 3.453498 1_556
Ba39 Sb29 3.453498 1_555
Ba39 Sb7 3.790819 1_555
Ba39 Sb28 3.790824 1_555
Ba39 Sb31 3.803682 1_555
Ba39 Sb25 3.803686 1_556
Ba40 Sb3 3.535220 1_555
Ba40 Sb31 3.541212 1_555
Ba40 Sb30 3.577000 1_555
Ba40 Sb32 3.593292 1_555
Ba40 Sb28 3.657264 1_555
Ba40 Sb7 3.755961 1_555
Ba41 Sb16 3.476375 1_544
Ba41 Sb1 3.560237 1_555
Ba41 Sb42 3.649254 1_555
Ba41 Sb17 3.664897 1_545
Ba41 Sb21 3.861976 1_545
Ba41 Sb5 4.015349 1_645
Ba42 Sb37 3.519994 1_555
Ba42 Sb41 3.561331 1_555
Ba42 Sb20 3.582561 1_555
Ba42 Sb33 3.612057 1_555
Ba42 Sb4 3.767886 1_555
Ba42 Sb24 4.122787 1_555
Ba43 Sb15 3.476387 1_655
Ba43 Sb0 3.560237 1_555
Ba43 Sb43 3.649254 1_555
Ba43 Sb18 3.664897 1_555
Ba43 Sb22 3.861976 1_655
Ba43 Sb4 4.015339 1_655
Ba44 Sb13 3.535220 1_554
Ba44 Sb33 3.541212 1_555
Ba44 Sb40 3.577000 1_555
Ba44 Sb11 3.593292 1_555
Ba44 Sb38 3.657264 1_555
Ba44 Sb8 3.755961 1_555
Ba45 Sb39 3.476375 1_556
Ba45 Sb20 3.560237 1_555
Ba45 Sb23 3.649254 1_555
Ba45 Sb17 3.664897 1_556
Ba45 Sb21 3.861976 1_556
Ba45 Sb28 4.015349 1_555
Ba46 Sb14 3.535220 1_555
Ba46 Sb10 3.541219 1_555
Ba46 Sb41 3.577000 1_555
Ba46 Sb32 3.593292 1_565
Ba46 Sb39 3.657266 1_555
Ba46 Sb9 3.755961 1_565
Ba47 Sb38 3.476387 1_555
Ba47 Sb19 3.560237 1_655
Ba47 Sb24 3.649254 1_555
Ba47 Sb18 3.664897 1_555
Ba47 Sb22 3.861976 1_655
Ba47 Sb27 4.015339 1_555
Ba48 Sb38 3.520002 1_555
Ba48 Sb42 3.561331 1_555
Ba48 Sb40 3.582561 1_555
Ba48 Sb17 3.612049 1_545
Ba48 Sb9 3.767883 1_555
Ba48 Sb13 4.122787 1_554
Ba49 Sb39 3.520007 1_555
Ba49 Sb43 3.561331 1_555
Ba49 Sb41 3.582561 1_555
Ba49 Sb18 3.612049 1_555
Ba49 Sb8 3.767883 1_555
Ba49 Sb14 4.122787 1_555
Ba50 Sb27 3.520007 1_555
Ba50 Sb19 3.561331 1_655
Ba50 Sb29 3.582561 1_555
Ba50 Sb25 3.612049 1_556
Ba50 Sb7 3.767883 1_555
Ba50 Sb2 4.122787 1_656
Ba51 Sb28 3.520002 1_555
Ba51 Sb20 3.561331 1_555
Ba51 Sb30 3.582561 1_555
Ba51 Sb26 3.612049 1_555
Ba51 Sb6 3.767883 1_555
Ba51 Sb3 4.122787 1_555
Ba52 Sb23 3.535220 1_555
Ba52 Sb18 3.541222 1_455
Ba52 Sb19 3.577000 1_555
Ba52 Sb22 3.593292 1_555
Ba52 Sb36 3.657254 1_555
Ba52 Sb15 3.755977 1_555
Ba53 Sb24 3.535220 1_555
Ba53 Sb17 3.541222 1_556
Ba53 Sb20 3.577000 1_555
Ba53 Sb21 3.593292 1_556
Ba53 Sb37 3.657254 1_555
Ba53 Sb16 3.755954 1_555
Ba54 Sb34 3.519994 1_656
Ba54 Sb29 3.561331 1_555
Ba54 Sb42 3.582561 1_556
Ba54 Sb31 3.612057 1_555
Ba54 Sb16 3.767886 1_545
Ba54 Sb0 4.122787 1_556
Ba55 Sb35 3.519994 1_555
Ba55 Sb30 3.561331 1_565
Ba55 Sb43 3.582561 1_455
Ba55 Sb12 3.612062 1_565
Ba55 Sb15 3.767871 1_555
Ba55 Sb1 4.122787 1_465
Al0 Sb15 2.825223 1_555
Al0 Sb4 2.825235 1_555
Al0 Sb37 2.825237 1_555
Al0 Sb35 2.825237 1_555
Al0 Ba34 3.889333 1_555
Al0 Ba28 3.889333 1_565
Al0 Ba10 3.889333 1_555
Al0 Ba43 3.889333 1_455
Al1 Sb38 2.825223 1_555
Al1 Sb27 2.825235 1_555
Al1 Sb7 2.825237 1_555
Al1 Sb9 2.825237 1_555
Al1 Ba14 3.889333 1_555
Al1 Ba24 3.889333 1_555
Al1 Ba47 3.889333 1_555
Al1 Ba20 3.889333 1_555
Al2 Sb28 2.825223 1_554
Al2 Sb39 2.825235 1_555
Al2 Sb8 2.825237 1_555
Al2 Sb6 2.825237 1_554
Al2 Ba27 3.889333 1_554
Al2 Ba12 3.889333 1_555
Al2 Ba21 3.889333 1_555
Al2 Ba45 3.889333 1_554
Al3 Sb5 2.825223 1_545
Al3 Sb16 2.825235 1_444
Al3 Sb34 2.825237 1_555
Al3 Sb36 2.825237 1_544
Al3 Ba35 3.889333 1_555
Al3 Ba31 3.889333 1_454
Al3 Ba41 3.889333 1_455
Al3 Ba8 3.889333 1_444
Sb10 Sb32 3.396832 1_565
Sb11 Sb33 3.396832 1_555
Sb11 Sb12 3.396832 1_554
Sb17 Sb21 3.396845 1_555
Sb18 Sb22 3.396845 1_655
Sb21 Sb25 3.396845 1_555
Sb22 Sb26 3.396845 1_555
Sb31 Sb32 3.396832 1_555
