# generated using pymatgen
data_NdMn2
_symmetry_space_group_name_H-M   'P 1'
_cell_length_a   5.55218900
_cell_length_b   5.54391581
_cell_length_c   8.36776300
_cell_angle_alpha   90.00000000
_cell_angle_beta   90.00000000
_cell_angle_gamma   120.04938316
_symmetry_Int_Tables_number   1
_chemical_formula_structural   NdMn2
_chemical_formula_sum   'Nd4 Mn8'
_cell_volume   222.94849407
_cell_formula_units_Z   4
loop_
 _symmetry_equiv_pos_site_id
 _symmetry_equiv_pos_as_xyz
  1  'x, y, z'
loop_
 _atom_site_type_symbol
 _atom_site_label
 _atom_site_symmetry_multiplicity
 _atom_site_fract_x
 _atom_site_fract_y
 _atom_site_fract_z
 _atom_site_occupancy
  Nd  Nd0  1  0.33304100  0.66608200  0.05782900  1
  Nd  Nd1  1  0.66695900  0.33391800  0.94217100  1
  Nd  Nd2  1  0.33304100  0.66608200  0.44217100  1
  Nd  Nd3  1  0.66695900  0.33391800  0.55782900  1
  Mn  Mn0  1  0.00000000  0.00000000  0.50000000  1
  Mn  Mn1  1  0.00000000  0.00000000  0.00000000  1
  Mn  Mn2  1  0.83791900  0.67583900  0.25000000  1
  Mn  Mn3  1  0.16208100  0.32416100  0.75000000  1
  Mn  Mn4  1  0.32203500  0.15966600  0.25000000  1
  Mn  Mn5  1  0.16236900  0.84033400  0.75000000  1
  Mn  Mn6  1  0.67796500  0.84033400  0.75000000  1
  Mn  Mn7  1  0.83763100  0.15966600  0.25000000  1
loop_
_geom_bond_atom_site_label_1
_geom_bond_atom_site_label_2
_geom_bond_distance
_geom_bond_site_symmetry_2
Nd0 Nd2 3.216083 1_555
Nd0 Nd1 3.344266 1_454
Nd0 Nd1 3.344266 1_554
Nd0 Nd1 3.347741 1_564
Nd1 Nd3 3.216083 1_555
Nd2 Nd3 3.344266 1_455
Nd2 Nd3 3.344266 1_555
Nd2 Nd3 3.347741 1_565
Mn0 Mn4 2.602237 1_555
Mn0 Mn6 2.602237 1_445
Mn0 Mn7 2.602237 1_455
Mn0 Mn5 2.602237 1_545
Mn0 Mn2 2.606921 1_445
Mn0 Mn3 2.606921 1_555
Mn0 Nd2 3.232803 1_555
Mn0 Nd3 3.232803 1_445
Mn0 Nd3 3.241688 1_555
Mn0 Nd2 3.241688 1_445
Mn0 Nd3 3.241688 1_455
Mn0 Nd2 3.241688 1_545
Mn1 Mn4 2.602237 1_555
Mn1 Mn6 2.602237 1_444
Mn1 Mn5 2.602237 1_544
Mn1 Mn7 2.602237 1_455
Mn1 Mn3 2.606921 1_554
Mn1 Mn2 2.606921 1_445
Mn1 Nd0 3.232803 1_555
Mn1 Nd1 3.232803 1_444
Mn1 Nd1 3.241688 1_554
Mn1 Nd0 3.241688 1_445
Mn1 Nd0 3.241688 1_545
Mn1 Nd1 3.241688 1_454
Mn2 Mn7 2.683097 1_565
Mn2 Mn4 2.683100 1_665
Mn2 Mn4 2.860816 1_555
Mn2 Mn7 2.860819 1_555
Mn2 Nd1 3.054045 1_554
Mn2 Nd3 3.054045 1_555
Mn2 Nd0 3.208532 1_555
Mn2 Nd2 3.208532 1_555
Mn2 Nd2 3.208536 1_655
Mn2 Nd0 3.208536 1_655
Mn3 Mn5 2.683097 1_545
Mn3 Mn6 2.683100 1_445
Mn3 Mn6 2.860816 1_555
Mn3 Mn5 2.860819 1_555
Mn3 Nd0 3.054045 1_556
Mn3 Nd2 3.054045 1_555
Mn3 Nd3 3.208532 1_555
Mn3 Nd1 3.208532 1_555
Mn3 Nd1 3.208536 1_455
Mn3 Nd3 3.208536 1_455
Mn4 Mn7 2.689503 1_455
Mn4 Mn7 2.862686 1_555
Mn4 Nd1 3.063155 1_554
Mn4 Nd3 3.063155 1_555
Mn4 Nd2 3.200752 1_545
Mn4 Nd0 3.200752 1_545
Mn4 Nd2 3.209350 1_555
Mn4 Nd0 3.209350 1_555
Mn5 Mn6 2.689503 1_455
Mn5 Mn6 2.862686 1_555
Mn5 Nd0 3.063156 1_556
Mn5 Nd2 3.063156 1_555
Mn5 Nd1 3.200752 1_565
Mn5 Nd3 3.200752 1_565
Mn5 Nd1 3.209350 1_455
Mn5 Nd3 3.209350 1_455
Mn6 Nd0 3.063155 1_556
Mn6 Nd2 3.063155 1_555
Mn6 Nd1 3.200752 1_565
Mn6 Nd3 3.200752 1_565
Mn6 Nd3 3.209350 1_555
Mn6 Nd1 3.209350 1_555
Mn7 Nd1 3.063156 1_554
Mn7 Nd3 3.063156 1_555
Mn7 Nd0 3.200752 1_545
Mn7 Nd2 3.200752 1_545
Mn7 Nd2 3.209350 1_655
Mn7 Nd0 3.209350 1_655
