# generated using pymatgen
data_Yb4Zr3O12
_symmetry_space_group_name_H-M   'P 1'
_cell_length_a   6.39667600
_cell_length_b   6.45283414
_cell_length_c   25.17686396
_cell_angle_alpha   93.02815854
_cell_angle_beta   93.25536891
_cell_angle_gamma   100.07098382
_symmetry_Int_Tables_number   1
_chemical_formula_structural   Yb4Zr3O12
_chemical_formula_sum   'Yb16 Zr12 O48'
_cell_volume   1019.47014503
_cell_formula_units_Z   4
loop_
 _symmetry_equiv_pos_site_id
 _symmetry_equiv_pos_as_xyz
  1  'x, y, z'
loop_
 _atom_site_type_symbol
 _atom_site_label
 _atom_site_symmetry_multiplicity
 _atom_site_fract_x
 _atom_site_fract_y
 _atom_site_fract_z
 _atom_site_occupancy
  Yb  Yb0  1  0.73726800  0.42492700  0.03216500  1
  Yb  Yb1  1  0.98747100  0.67577200  0.28251600  1
  Yb  Yb2  1  0.75658600  0.75264300  0.75106300  1
  Yb  Yb3  1  0.23620300  0.92569700  0.53269600  1
  Yb  Yb4  1  0.01336600  0.85525000  0.15094400  1
  Yb  Yb5  1  0.51406900  0.82329200  0.21473100  1
  Yb  Yb6  1  0.26185500  0.10606900  0.40113800  1
  Yb  Yb7  1  0.47137200  0.93657500  0.07352400  1
  Yb  Yb8  1  0.76175000  0.07188200  0.46526600  1
  Yb  Yb9  1  0.51463500  0.35170500  0.65122800  1
  Yb  Yb10  1  0.71816200  0.18490600  0.32492100  1
  Yb  Yb11  1  0.03046300  0.32138800  0.71422700  1
  Yb  Yb12  1  0.75850800  0.59215400  0.90169200  1
  Yb  Yb13  1  0.96782800  0.43226300  0.57469000  1
  Yb  Yb14  1  0.26079400  0.57373700  0.96450100  1
  Yb  Yb15  1  0.21950000  0.68298300  0.82874000  1
  Zr  Zr0  1  0.79937800  0.32095400  0.17588300  1
  Zr  Zr1  1  0.24916300  0.24690100  0.24993600  1
  Zr  Zr2  1  0.04885600  0.57170500  0.42598300  1
  Zr  Zr3  1  0.49790900  0.49573400  0.49985100  1
  Zr  Zr4  1  0.22728000  0.37905900  0.09489300  1
  Zr  Zr5  1  0.29968800  0.81352900  0.67478700  1
  Zr  Zr6  1  0.47801600  0.62921800  0.34488200  1
  Zr  Zr7  1  0.54217700  0.06553500  0.92497900  1
  Zr  Zr8  1  0.00425300  0.99541700  0.00049800  1
  Zr  Zr9  1  0.72197800  0.87368800  0.59588600  1
  Zr  Zr10  1  0.47151900  0.16789300  0.78219900  1
  Zr  Zr11  1  0.98771500  0.16314100  0.84638200  1
  O  O0  1  0.69124100  0.06297800  0.00788100  1
  O  O1  1  0.12218300  0.26055900  0.17002300  1
  O  O2  1  0.93670100  0.31142800  0.26010500  1
  O  O3  1  0.54158900  0.29371800  0.11183700  1
  O  O4  1  0.37124400  0.51031200  0.42006500  1
  O  O5  1  0.18570400  0.56196400  0.51030900  1
  O  O6  1  0.07632700  0.33284600  0.01760600  1
  O  O7  1  0.79129100  0.54503900  0.36221200  1
  O  O8  1  0.93980200  0.50411300  0.11078700  1
  O  O9  1  0.60455900  0.73848400  0.66938600  1
  O  O10  1  0.42885200  0.83886900  0.76378800  1
  O  O11  1  0.32586500  0.58199500  0.26733400  1
  O  O12  1  0.78417700  0.62886900  0.20282000  1
  O  O13  1  0.03691400  0.79328700  0.61398200  1
  O  O14  1  0.19087700  0.75545900  0.36093700  1
  O  O15  1  0.87930200  0.02379700  0.91843900  1
  O  O16  1  0.44371400  0.58430600  0.05038400  1
  O  O17  1  0.57438000  0.83016800  0.51784700  1
  O  O18  1  0.03279000  0.87911900  0.45300300  1
  O  O19  1  0.31470700  0.68836900  0.13641300  1
  O  O20  1  0.28984300  0.05224900  0.85892500  1
  O  O21  1  0.44007400  0.00336300  0.61098500  1
  O  O22  1  0.69383900  0.83386400  0.29995800  1
  O  O23  1  0.17655900  0.92887900  0.23563200  1
  O  O24  1  0.81334000  0.10958900  0.76962000  1
  O  O25  1  0.29709800  0.12832500  0.70574000  1
  O  O26  1  0.56154200  0.93756700  0.38713800  1
  O  O27  1  0.71042100  0.99511300  0.14683300  1
  O  O28  1  0.66550500  0.25122700  0.85698900  1
  O  O29  1  0.94046100  0.08000100  0.55082500  1
  O  O30  1  0.42471300  0.17813700  0.48577000  1
  O  O31  1  0.52855300  0.37377500  0.95299300  1
  O  O32  1  0.14212600  0.02799800  0.07785900  1
  O  O33  1  0.81450900  0.18241600  0.63849200  1
  O  O34  1  0.95881700  0.24485500  0.39768300  1
  O  O35  1  0.22580000  0.33827800  0.79685300  1
  O  O36  1  0.67302900  0.39378700  0.74146800  1
  O  O37  1  0.55451100  0.20102100  0.22879800  1
  O  O38  1  0.39053900  0.27969800  0.32797800  1
  O  O39  1  0.05795300  0.45246800  0.88800300  1
  O  O40  1  0.20830700  0.49026000  0.64656700  1
  O  O41  1  0.91810600  0.68112100  0.98584700  1
  O  O42  1  0.80373500  0.45074000  0.47869000  1
  O  O43  1  0.64082400  0.52491800  0.57766300  1
  O  O44  1  0.46970700  0.74395100  0.89855300  1
  O  O45  1  0.08817900  0.69341700  0.73557800  1
  O  O46  1  0.90059500  0.81391500  0.83591800  1
  O  O47  1  0.30133600  0.94937200  0.97728100  1
loop_
_geom_bond_atom_site_label_1
_geom_bond_atom_site_label_2
_geom_bond_distance
_geom_bond_site_symmetry_2
O0 Zr8 2.138353 1_645
O0 Zr7 2.247004 1_554
O0 Yb7 2.319465 1_545
O0 Yb0 2.345995 1_555
O1 Zr1 2.138613 1_555
O1 Zr4 2.175321 1_555
O1 Zr0 2.178839 1_455
O1 Yb4 2.597715 1_545
O2 Zr1 2.138156 1_655
O2 Zr0 2.256720 1_555
O2 Yb10 2.298785 1_555
O2 Yb1 2.350165 1_555
O3 Zr4 2.200482 1_555
O3 Zr0 2.217400 1_555
O3 Yb7 2.407740 1_545
O3 Yb0 2.530047 1_555
O4 Zr3 2.135937 1_555
O4 Zr2 2.178587 1_555
O4 Zr6 2.180631 1_555
O4 Yb6 2.591038 1_555
O5 Zr3 2.141636 1_555
O5 Zr2 2.258296 1_555
O5 Yb13 2.293932 1_455
O5 Yb3 2.346346 1_555
O6 Zr4 2.105282 1_555
O6 Zr8 2.160165 1_545
O6 Yb14 2.313760 1_554
O6 Yb0 2.389416 1_455
O7 Zr6 2.192613 1_555
O7 Zr2 2.212035 1_655
O7 Yb10 2.416635 1_555
O7 Yb1 2.531209 1_555
O8 Zr4 2.182041 1_655
O8 Zr0 2.211406 1_555
O8 Yb0 2.286511 1_555
O8 Yb4 2.389273 1_655
O9 Zr5 2.099895 1_555
O9 Zr9 2.202023 1_555
O9 Yb2 2.214647 1_555
O9 Yb9 2.473152 1_555
O10 Zr10 2.115670 1_565
O10 Yb2 2.296202 1_555
O10 Yb15 2.330396 1_555
O10 Zr5 2.331134 1_555
O11 Zr6 2.114149 1_555
O11 Zr1 2.147707 1_555
O11 Yb5 2.317559 1_555
O11 Yb1 2.392780 1_455
O12 Zr0 2.085654 1_555
O12 Yb1 2.304459 1_555
O12 Yb5 2.329457 1_555
O12 Yb4 2.378888 1_655
O13 Zr5 2.189943 1_555
O13 Zr9 2.195767 1_455
O13 Yb13 2.438828 1_455
O13 Yb3 2.577498 1_555
O14 Zr6 2.184810 1_555
O14 Zr2 2.215982 1_555
O14 Yb1 2.285290 1_455
O14 Yb6 2.386580 1_565
O15 Zr11 2.162817 1_555
O15 Zr8 2.200978 1_646
O15 Zr7 2.233567 1_555
O15 Yb12 2.760264 1_545
O16 Zr4 2.149020 1_555
O16 Yb7 2.290322 1_555
O16 Yb0 2.348938 1_555
O16 Yb14 2.391296 1_554
O17 Zr9 2.113978 1_555
O17 Zr3 2.145707 1_555
O17 Yb8 2.316542 1_565
O17 Yb3 2.394387 1_555
O18 Zr2 2.084475 1_555
O18 Yb3 2.304800 1_555
O18 Yb8 2.328708 1_465
O18 Yb6 2.380257 1_565
O19 Zr4 2.170715 1_555
O19 Yb5 2.327448 1_555
O19 Yb4 2.402801 1_555
O19 Yb7 2.441984 1_555
O20 Zr11 2.187460 1_455
O20 Zr7 2.238307 1_555
O20 Zr10 2.396434 1_555
O20 Yb15 2.419229 1_545
O21 Zr9 2.160640 1_545
O21 Zr5 2.207775 1_545
O21 Yb3 2.282998 1_545
O21 Yb9 2.374061 1_555
O22 Zr6 2.150947 1_555
O22 Yb10 2.294696 1_565
O22 Yb1 2.340491 1_555
O22 Yb5 2.368141 1_555
O23 Zr1 2.031324 1_565
O23 Yb1 2.280081 1_455
O23 Yb4 2.308323 1_555
O23 Yb5 2.451072 1_555
O24 Zr11 2.156021 1_555
O24 Yb2 2.286903 1_545
O24 Zr10 2.318721 1_555
O24 Yb11 2.345059 1_655
O25 Zr5 2.140059 1_545
O25 Zr10 2.149452 1_555
O25 Yb11 2.294138 1_555
O25 Yb9 2.371087 1_555
O26 Zr6 2.171702 1_555
O26 Yb8 2.325088 1_565
O26 Yb6 2.397211 1_565
O26 Yb10 2.426496 1_565
O27 Zr0 2.156724 1_565
O27 Yb4 2.275791 1_655
O27 Yb7 2.300274 1_555
O27 Yb5 2.384563 1_555
O28 Zr10 2.183760 1_555
O28 Zr7 2.242270 1_555
O28 Zr11 2.258012 1_555
O28 Yb12 2.380130 1_555
O29 Zr9 2.168310 1_545
O29 Yb13 2.294162 1_555
O29 Yb3 2.342508 1_645
O29 Yb8 2.374277 1_555
O30 Zr3 2.028236 1_555
O30 Yb3 2.276295 1_545
O30 Yb6 2.305527 1_555
O30 Yb8 2.447562 1_555
O31 Zr7 2.092999 1_555
O31 Yb0 2.310578 1_556
O31 Yb14 2.339281 1_555
O31 Yb12 2.345376 1_555
O32 Zr8 2.076623 1_545
O32 Zr4 2.247589 1_555
O32 Yb7 2.291145 1_545
O32 Yb4 2.318294 1_545
O33 Zr9 2.181617 1_545
O33 Yb11 2.331337 1_655
O33 Yb9 2.396104 1_555
O33 Yb13 2.457835 1_555
O34 Zr2 2.158126 1_655
O34 Yb6 2.272301 1_655
O34 Yb10 2.296058 1_555
O34 Yb8 2.383746 1_555
O35 Zr10 2.107805 1_555
O35 Zr11 2.216796 1_455
O35 Yb15 2.332404 1_555
O35 Yb11 2.352414 1_555
O36 Zr10 2.118680 1_555
O36 Yb2 2.280260 1_555
O36 Yb9 2.416457 1_555
O36 Yb11 2.536538 1_655
O37 Zr1 2.118858 1_555
O37 Zr0 2.179257 1_555
O37 Yb5 2.410653 1_545
O37 Yb10 2.596219 1_555
O38 Zr1 2.100139 1_555
O38 Zr6 2.238571 1_555
O38 Yb10 2.287726 1_555
O38 Yb6 2.322348 1_555
O39 Zr11 2.057184 1_455
O39 Yb14 2.281913 1_555
O39 Yb12 2.290457 1_455
O39 Yb15 2.319196 1_555
O40 Zr5 2.137212 1_555
O40 Yb13 2.278610 1_455
O40 Yb9 2.291371 1_555
O40 Yb11 2.316477 1_555
O41 Zr8 2.014926 1_656
O41 Yb0 2.262533 1_556
O41 Yb12 2.298216 1_555
O41 Yb14 2.489941 1_655
O42 Zr3 2.120330 1_555
O42 Zr2 2.178625 1_655
O42 Yb8 2.415724 1_555
O42 Yb13 2.596893 1_555
O43 Zr3 2.099173 1_555
O43 Zr9 2.236121 1_555
O43 Yb13 2.277912 1_555
O43 Yb9 2.324700 1_555
O44 Zr7 2.108644 1_565
O44 Yb12 2.236722 1_555
O44 Yb15 2.278815 1_555
O44 Yb14 2.383353 1_555
O45 Zr5 2.183458 1_555
O45 Yb2 2.271292 1_455
O45 Yb11 2.391546 1_555
O45 Yb15 2.454456 1_555
O46 Zr11 2.222523 1_565
O46 Yb2 2.264706 1_555
O46 Yb15 2.352938 1_655
O46 Yb12 2.362734 1_555
O47 Zr8 2.084837 1_556
O47 Zr7 2.144770 1_565
O47 Yb14 2.394661 1_555
O47 Yb7 2.610453 1_556
