# generated using pymatgen
data_Eu2B5BrO9
_symmetry_space_group_name_H-M   'P 1'
_cell_length_a   6.54508300
_cell_length_b   11.49695200
_cell_length_c   11.62536100
_cell_angle_alpha   90.00000000
_cell_angle_beta   90.00000000
_cell_angle_gamma   90.00000000
_symmetry_Int_Tables_number   1
_chemical_formula_structural   Eu2B5BrO9
_chemical_formula_sum   'Eu8 B20 Br4 O36'
_cell_volume   874.79103635
_cell_formula_units_Z   4
loop_
 _symmetry_equiv_pos_site_id
 _symmetry_equiv_pos_as_xyz
  1  'x, y, z'
loop_
 _atom_site_type_symbol
 _atom_site_label
 _atom_site_symmetry_multiplicity
 _atom_site_fract_x
 _atom_site_fract_y
 _atom_site_fract_z
 _atom_site_occupancy
  Eu  Eu0  1  0.84644400  0.26210300  0.53311600  1
  Eu  Eu1  1  0.34644400  0.76210300  0.96688400  1
  Eu  Eu2  1  0.00288000  0.04927500  0.25496200  1
  Eu  Eu3  1  0.34644400  0.23789700  0.03311600  1
  Eu  Eu4  1  0.00288000  0.95072500  0.74503800  1
  Eu  Eu5  1  0.84644400  0.73789700  0.46688400  1
  Eu  Eu6  1  0.50288000  0.54927500  0.24503800  1
  Eu  Eu7  1  0.50288000  0.45072500  0.75496200  1
  B  B0  1  0.81008800  0.73643300  0.03601300  1
  B  B1  1  0.97349500  0.50304900  0.75068000  1
  B  B2  1  0.84802100  0.29835900  0.18675900  1
  B  B3  1  0.97349500  0.49695100  0.24932000  1
  B  B4  1  0.47349500  0.00304900  0.74932000  1
  B  B5  1  0.47349500  0.99695100  0.25068000  1
  B  B6  1  0.69940600  0.82489900  0.22476000  1
  B  B7  1  0.84802100  0.70164100  0.81324100  1
  B  B8  1  0.03158000  0.71968100  0.20545000  1
  B  B9  1  0.31008800  0.76356700  0.53601300  1
  B  B10  1  0.03158000  0.28031900  0.79455000  1
  B  B11  1  0.53158000  0.78031900  0.70545000  1
  B  B12  1  0.81008800  0.26356700  0.96398700  1
  B  B13  1  0.34802100  0.20164100  0.68675900  1
  B  B14  1  0.19940600  0.67510100  0.72476000  1
  B  B15  1  0.34802100  0.79835900  0.31324100  1
  B  B16  1  0.19940600  0.32489900  0.27524000  1
  B  B17  1  0.69940600  0.17510100  0.77524000  1
  B  B18  1  0.31008800  0.23643300  0.46398700  1
  B  B19  1  0.53158000  0.21968100  0.29455000  1
  Br  Br0  1  0.13155800  0.00000000  0.00000000  1
  Br  Br1  1  0.86947600  0.00000000  0.50000000  1
  Br  Br2  1  0.63155800  0.50000000  0.50000000  1
  Br  Br3  1  0.36947600  0.50000000  0.00000000  1
  O  O0  1  0.74915500  0.26873000  0.07628800  1
  O  O1  1  0.65793400  0.04756200  0.78375200  1
  O  O2  1  0.56911100  0.23004500  0.68595400  1
  O  O3  1  0.15418900  0.73156100  0.61160300  1
  O  O4  1  0.00193700  0.28718100  0.92310000  1
  O  O5  1  0.24915500  0.76873000  0.42371200  1
  O  O6  1  0.75052300  0.77297700  0.72277800  1
  O  O7  1  0.74915500  0.73127000  0.92371200  1
  O  O8  1  0.56911100  0.76995500  0.31404600  1
  O  O9  1  0.93007900  0.61387700  0.26118000  1
  O  O10  1  0.75052300  0.22702300  0.27722200  1
  O  O11  1  0.06911100  0.26995500  0.18595400  1
  O  O12  1  0.65793400  0.95243800  0.21624800  1
  O  O13  1  0.82006700  0.57377200  0.79178900  1
  O  O14  1  0.15793400  0.54756200  0.71624800  1
  O  O15  1  0.93007900  0.38612300  0.73882000  1
  O  O16  1  0.32006700  0.07377200  0.70821100  1
  O  O17  1  0.41642400  0.68227100  0.75461000  1
  O  O18  1  0.15418900  0.26843900  0.38839700  1
  O  O19  1  0.06911100  0.73004500  0.81404600  1
  O  O20  1  0.65418900  0.23156100  0.88839700  1
  O  O21  1  0.50193700  0.78718100  0.57690000  1
  O  O22  1  0.43007900  0.11387700  0.23882000  1
  O  O23  1  0.65418900  0.76843900  0.11160300  1
  O  O24  1  0.91642400  0.81772900  0.25461000  1
  O  O25  1  0.50193700  0.21281900  0.42310000  1
  O  O26  1  0.32006700  0.92622800  0.29178900  1
  O  O27  1  0.82006700  0.42622800  0.20821100  1
  O  O28  1  0.43007900  0.88612300  0.76118000  1
  O  O29  1  0.15793400  0.45243800  0.28375200  1
  O  O30  1  0.25052300  0.72702300  0.22277800  1
  O  O31  1  0.00193700  0.71281900  0.07690000  1
  O  O32  1  0.91642400  0.18227100  0.74539000  1
  O  O33  1  0.25052300  0.27297700  0.77722200  1
  O  O34  1  0.24915500  0.23127000  0.57628800  1
  O  O35  1  0.41642400  0.31772900  0.24539000  1
loop_
_geom_bond_atom_site_label_1
_geom_bond_atom_site_label_2
_geom_bond_distance
_geom_bond_site_symmetry_2
Eu0 O2 2.566648 1_555
Eu0 O18 2.625430 1_655
Eu0 O25 2.653503 1_555
Eu0 O32 2.672459 1_555
Eu0 O34 2.706450 1_655
Eu0 O15 2.837501 1_555
Eu0 O10 3.067018 1_555
Eu1 O19 2.566648 1_555
Eu1 O23 2.625430 1_556
Eu1 O31 2.653503 1_556
Eu1 O17 2.672459 1_555
Eu1 O7 2.706450 1_555
Eu1 O28 2.837501 1_555
Eu1 O30 3.067018 1_556
Eu2 O26 2.548413 1_545
Eu2 O12 2.557200 1_445
Eu2 O10 2.640305 1_455
Eu2 O11 2.696038 1_555
Eu2 O24 2.721553 1_445
Eu2 O22 2.899098 1_555
Eu2 O18 3.120264 1_555
Eu3 O11 2.566648 1_555
Eu3 O20 2.625430 1_554
Eu3 O4 2.653503 1_554
Eu3 O35 2.672459 1_555
Eu3 O0 2.706450 1_555
Eu3 O22 2.837501 1_555
Eu3 O33 3.067018 1_554
Eu4 O16 2.548413 1_565
Eu4 O1 2.557200 1_465
Eu4 O6 2.640305 1_455
Eu4 O19 2.696038 1_555
Eu4 O32 2.721553 1_465
Eu4 O28 2.899098 1_555
Eu4 O3 3.120264 1_555
Eu5 O8 2.566648 1_555
Eu5 O3 2.625430 1_655
Eu5 O21 2.653503 1_555
Eu5 O24 2.672459 1_555
Eu5 O5 2.706450 1_655
Eu5 O9 2.837501 1_555
Eu5 O6 3.067018 1_555
Eu6 O27 2.548413 1_555
Eu6 O29 2.557200 1_555
Eu6 O30 2.640305 1_555
Eu6 O8 2.696038 1_555
Eu6 O35 2.721553 1_555
Eu6 O9 2.899098 1_555
Eu6 O23 3.120264 1_555
Eu7 O13 2.548413 1_555
Eu7 O14 2.557200 1_555
Eu7 O33 2.640305 1_555
Eu7 O2 2.696038 1_555
Eu7 O17 2.721553 1_555
Eu7 O15 2.899098 1_555
Eu7 O20 3.120264 1_555
B0 O7 1.366385 1_554
B0 O31 1.369796 1_655
B0 O23 1.395988 1_555
B1 O14 1.370907 1_655
B1 O13 1.377658 1_555
B1 O15 1.380898 1_555
B2 O0 1.477869 1_555
B2 O10 1.478463 1_555
B2 O11 1.483472 1_655
B2 O27 1.502290 1_555
B3 O29 1.370907 1_655
B3 O27 1.377658 1_555
B3 O9 1.380898 1_555
B4 O1 1.370907 1_555
B4 O16 1.377658 1_555
B4 O28 1.380898 1_545
B5 O12 1.370907 1_555
B5 O26 1.377658 1_555
B5 O22 1.380898 1_565
B6 O24 1.464498 1_555
B6 O8 1.484483 1_555
B6 O12 1.494502 1_555
B6 O23 1.496481 1_555
B7 O7 1.477869 1_555
B7 O6 1.478463 1_555
B7 O19 1.483472 1_655
B7 O13 1.502290 1_555
B8 O30 1.449550 1_555
B8 O24 1.471525 1_455
B8 O31 1.509045 1_555
B8 O9 1.529959 1_455
B9 O5 1.366385 1_555
B9 O21 1.369796 1_555
B9 O3 1.395988 1_555
B10 O33 1.449550 1_555
B10 O32 1.471525 1_455
B10 O4 1.509045 1_555
B10 O15 1.529959 1_455
B11 O6 1.449550 1_555
B11 O17 1.471525 1_555
B11 O21 1.509045 1_555
B11 O28 1.529959 1_555
B12 O0 1.366385 1_556
B12 O4 1.369796 1_655
B12 O20 1.395988 1_555
B13 O34 1.477869 1_555
B13 O33 1.478463 1_555
B13 O2 1.483472 1_555
B13 O16 1.502290 1_555
B14 O17 1.464498 1_555
B14 O19 1.484483 1_555
B14 O14 1.494502 1_555
B14 O3 1.496481 1_555
B15 O5 1.477869 1_555
B15 O30 1.478463 1_555
B15 O8 1.483472 1_555
B15 O26 1.502290 1_555
B16 O35 1.464498 1_555
B16 O11 1.484483 1_555
B16 O29 1.494502 1_555
B16 O18 1.496481 1_555
B17 O32 1.464498 1_555
B17 O2 1.484483 1_555
B17 O1 1.494502 1_555
B17 O20 1.496481 1_555
B18 O34 1.366385 1_555
B18 O25 1.369796 1_555
B18 O18 1.395988 1_555
B19 O10 1.449550 1_555
B19 O35 1.471525 1_555
B19 O25 1.509045 1_555
B19 O22 1.529959 1_555
Br0 Eu3 3.099520 1_555
Br0 Eu1 3.099520 1_544
Br0 Eu2 3.133001 1_555
Br0 Eu4 3.133001 1_544
Br1 Eu4 3.032845 1_645
Br1 Eu2 3.032845 1_655
Br1 Eu0 3.041617 1_555
Br1 Eu5 3.041617 1_545
Br2 Eu5 3.099520 1_555
Br2 Eu0 3.099520 1_555
Br2 Eu7 3.133001 1_555
Br2 Eu6 3.133001 1_555
Br3 Eu6 3.032845 1_555
Br3 Eu7 3.032845 1_554
Br3 Eu1 3.041617 1_554
Br3 Eu3 3.041617 1_555
