# generated using pymatgen
data_TlFeBr3
_symmetry_space_group_name_H-M   'P 1'
_cell_length_a   12.70140664
_cell_length_b   12.70140664
_cell_length_c   6.03515900
_cell_angle_alpha   90.00000000
_cell_angle_beta   90.00000000
_cell_angle_gamma   120.00000334
_symmetry_Int_Tables_number   1
_chemical_formula_structural   TlFeBr3
_chemical_formula_sum   'Tl6 Fe6 Br18'
_cell_volume   843.18519842
_cell_formula_units_Z   6
loop_
 _symmetry_equiv_pos_site_id
 _symmetry_equiv_pos_as_xyz
  1  'x, y, z'
loop_
 _atom_site_type_symbol
 _atom_site_label
 _atom_site_symmetry_multiplicity
 _atom_site_fract_x
 _atom_site_fract_y
 _atom_site_fract_z
 _atom_site_occupancy
  Tl  Tl0  1  0.67107000  0.00000000  0.75818200  1
  Tl  Tl1  1  0.32893000  0.00000000  0.25818200  1
  Tl  Tl2  1  0.00000000  0.32893000  0.25818200  1
  Tl  Tl3  1  0.32893000  0.32893000  0.75818200  1
  Tl  Tl4  1  0.00000000  0.67107000  0.75818200  1
  Tl  Tl5  1  0.67107000  0.67107000  0.25818200  1
  Fe  Fe0  1  0.33333300  0.66666700  0.48653700  1
  Fe  Fe1  1  0.00000000  0.00000000  0.06221500  1
  Fe  Fe2  1  0.66666700  0.33333300  0.98653700  1
  Fe  Fe3  1  0.33333300  0.66666700  0.98653700  1
  Fe  Fe4  1  0.00000000  0.00000000  0.56221500  1
  Fe  Fe5  1  0.66666700  0.33333300  0.48653700  1
  Br  Br0  1  0.00000000  0.82880200  0.31690800  1
  Br  Br1  1  0.17119800  0.00000000  0.81690800  1
  Br  Br2  1  0.51438800  0.33339300  0.23574000  1
  Br  Br3  1  0.82880200  0.00000000  0.31690800  1
  Br  Br4  1  0.00000000  0.17119800  0.81690800  1
  Br  Br5  1  0.17119800  0.17119800  0.31690800  1
  Br  Br6  1  0.82880200  0.82880200  0.81690800  1
  Br  Br7  1  0.66660700  0.18099500  0.23574000  1
  Br  Br8  1  0.66660700  0.48561200  0.73574000  1
  Br  Br9  1  0.48561200  0.66660700  0.73574000  1
  Br  Br10  1  0.81900500  0.33339300  0.73574000  1
  Br  Br11  1  0.33339300  0.81900500  0.73574000  1
  Br  Br12  1  0.33339300  0.51438800  0.23574000  1
  Br  Br13  1  0.81900500  0.48561200  0.23574000  1
  Br  Br14  1  0.51438800  0.18099500  0.73574000  1
  Br  Br15  1  0.18099500  0.51438800  0.73574000  1
  Br  Br16  1  0.18099500  0.66660700  0.23574000  1
  Br  Br17  1  0.48561200  0.81900500  0.23574000  1
loop_
_geom_bond_atom_site_label_1
_geom_bond_atom_site_label_2
_geom_bond_distance
_geom_bond_site_symmetry_2
Br0 Fe4 2.630597 1_565
Br0 Fe1 2.662888 1_565
Br0 Tl4 3.332581 1_555
Br1 Fe1 2.630597 1_556
Br1 Fe4 2.662888 1_555
Br1 Tl1 3.332581 1_556
Br2 Fe2 2.450387 1_554
Br2 Fe5 2.456303 1_555
Br3 Fe4 2.630597 1_655
Br3 Fe1 2.662888 1_655
Br3 Tl0 3.332581 1_555
Br4 Fe1 2.630597 1_556
Br4 Fe4 2.662888 1_555
Br4 Tl2 3.332581 1_556
Br5 Fe4 2.630596 1_555
Br5 Fe1 2.662888 1_555
Br5 Tl3 3.332581 1_555
Br6 Fe1 2.630596 1_666
Br6 Fe4 2.662888 1_665
Br6 Tl5 3.332581 1_556
Br7 Fe2 2.450377 1_554
Br7 Fe5 2.456293 1_555
Br8 Fe5 2.450387 1_555
Br8 Fe2 2.456303 1_555
Br9 Fe0 2.450387 1_555
Br9 Fe3 2.456303 1_555
Br10 Fe5 2.450377 1_555
Br10 Fe2 2.456293 1_555
Br11 Fe0 2.450377 1_555
Br11 Fe3 2.456293 1_555
Br12 Fe3 2.450387 1_554
Br12 Fe0 2.456303 1_555
Br13 Fe2 2.450382 1_554
Br13 Fe5 2.456298 1_555
Br14 Fe5 2.450382 1_555
Br14 Fe2 2.456298 1_555
Br15 Fe0 2.450382 1_555
Br15 Fe3 2.456298 1_555
Br16 Fe3 2.450377 1_554
Br16 Fe0 2.456293 1_555
Br17 Fe3 2.450382 1_554
Br17 Fe0 2.456298 1_555
