# generated using pymatgen
data_CaBiClO2
_symmetry_space_group_name_H-M   'P 1'
_cell_length_a   4.17146200
_cell_length_b   6.51339800
_cell_length_c   7.82548731
_cell_angle_alpha   75.21545230
_cell_angle_beta   90.00000000
_cell_angle_gamma   90.00000000
_symmetry_Int_Tables_number   1
_chemical_formula_structural   CaBiClO2
_chemical_formula_sum   'Ca2 Bi2 Cl2 O4'
_cell_volume   205.58213742
_cell_formula_units_Z   2
loop_
 _symmetry_equiv_pos_site_id
 _symmetry_equiv_pos_as_xyz
  1  'x, y, z'
loop_
 _atom_site_type_symbol
 _atom_site_label
 _atom_site_symmetry_multiplicity
 _atom_site_fract_x
 _atom_site_fract_y
 _atom_site_fract_z
 _atom_site_occupancy
  Ca  Ca0  1  0.25000000  0.67065000  0.07875800  1
  Ca  Ca1  1  0.75000000  0.32935000  0.92124200  1
  Bi  Bi0  1  0.25000000  0.67574300  0.59285100  1
  Bi  Bi1  1  0.75000000  0.32425700  0.40714900  1
  Cl  Cl0  1  0.25000000  0.05555000  0.18496900  1
  Cl  Cl1  1  0.75000000  0.94445000  0.81503100  1
  O  O0  1  0.75000000  0.52910400  0.59805800  1
  O  O1  1  0.25000000  0.47089600  0.40194200  1
  O  O2  1  0.75000000  0.51135600  0.14280500  1
  O  O3  1  0.25000000  0.48864400  0.85719500  1
loop_
_geom_bond_atom_site_label_1
_geom_bond_atom_site_label_2
_geom_bond_distance
_geom_bond_site_symmetry_2
Ca0 O2 2.326494 1_455
Ca0 O2 2.326494 1_555
Ca0 O3 2.336789 1_554
Ca0 O1 2.531724 1_555
Ca0 Cl0 2.835376 1_565
Ca0 Cl1 3.148253 1_454
Ca0 Cl1 3.148253 1_554
Ca1 O3 2.326494 1_555
Ca1 O3 2.326494 1_655
Ca1 O2 2.336789 1_556
Ca1 O0 2.531724 1_555
Ca1 Cl1 2.835376 1_545
Ca1 Cl0 3.148253 1_656
Ca1 Cl0 3.148253 1_556
Bi0 O3 2.116057 1_555
Bi0 O1 2.242644 1_555
Bi0 O0 2.290048 1_555
Bi0 O0 2.290048 1_455
Bi1 O2 2.116057 1_555
Bi1 O0 2.242644 1_555
Bi1 O1 2.290048 1_555
Bi1 O1 2.290048 1_655
