# generated using pymatgen
data_BaLaGaO4
_symmetry_space_group_name_H-M   'P 1'
_cell_length_a   5.96565200
_cell_length_b   7.32680500
_cell_length_c   10.08654200
_cell_angle_alpha   90.00000000
_cell_angle_beta   90.00000000
_cell_angle_gamma   90.00000000
_symmetry_Int_Tables_number   1
_chemical_formula_structural   BaLaGaO4
_chemical_formula_sum   'Ba4 La4 Ga4 O16'
_cell_volume   440.87436791
_cell_formula_units_Z   4
loop_
 _symmetry_equiv_pos_site_id
 _symmetry_equiv_pos_as_xyz
  1  'x, y, z'
loop_
 _atom_site_type_symbol
 _atom_site_label
 _atom_site_symmetry_multiplicity
 _atom_site_fract_x
 _atom_site_fract_y
 _atom_site_fract_z
 _atom_site_occupancy
  Ba  Ba0  1  0.51007200  0.41789300  0.07952600  1
  Ba  Ba1  1  0.01007200  0.08210700  0.92047400  1
  Ba  Ba2  1  0.48992800  0.91789300  0.42047400  1
  Ba  Ba3  1  0.98992800  0.58210700  0.57952600  1
  La  La0  1  0.51323500  0.25375300  0.70050800  1
  La  La1  1  0.01323500  0.24624700  0.29949200  1
  La  La2  1  0.48676500  0.75375300  0.79949200  1
  La  La3  1  0.98676500  0.74624700  0.20050800  1
  Ga  Ga0  1  0.48565100  0.46761500  0.41609800  1
  Ga  Ga1  1  0.98565100  0.03238500  0.58390200  1
  Ga  Ga2  1  0.51434900  0.96761500  0.08390200  1
  Ga  Ga3  1  0.01434900  0.53238500  0.91609800  1
  O  O0  1  0.49725000  0.59884300  0.57620000  1
  O  O1  1  0.99725000  0.90115700  0.42380000  1
  O  O2  1  0.50275000  0.09884300  0.92380000  1
  O  O3  1  0.00275000  0.40115700  0.07620000  1
  O  O4  1  0.25699400  0.55834900  0.30439100  1
  O  O5  1  0.75699400  0.94165100  0.69560900  1
  O  O6  1  0.74300600  0.05834900  0.19560900  1
  O  O7  1  0.24300600  0.44165100  0.80439100  1
  O  O8  1  0.35106800  0.24789700  0.46365400  1
  O  O9  1  0.85106800  0.25210300  0.53634600  1
  O  O10  1  0.64893200  0.74789700  0.03634600  1
  O  O11  1  0.14893200  0.75210300  0.96365400  1
  O  O12  1  0.74754600  0.51168300  0.31979700  1
  O  O13  1  0.24754600  0.98831700  0.68020300  1
  O  O14  1  0.25245400  0.01168300  0.18020300  1
  O  O15  1  0.75245400  0.48831700  0.81979700  1
loop_
_geom_bond_atom_site_label_1
_geom_bond_atom_site_label_2
_geom_bond_distance
_geom_bond_site_symmetry_2
Ba0 O10 2.592690 1_555
Ba0 O2 2.816660 1_554
Ba0 O12 2.890085 1_555
Ba0 O4 2.912521 1_555
Ba0 O3 2.941894 1_655
Ba0 O3 3.029175 1_555
Ba0 O15 3.036485 1_554
Ba0 O6 3.200239 1_555
Ba0 O7 3.204712 1_554
Ba1 O11 2.592690 1_545
Ba1 O3 2.816660 1_556
Ba1 O13 2.890085 1_545
Ba1 O5 2.912521 1_445
Ba1 O2 2.941894 1_555
Ba1 O2 3.029175 1_455
Ba1 O14 3.036485 1_556
Ba1 O7 3.200239 1_555
Ba1 O6 3.204712 1_456
Ba2 O8 2.592690 1_565
Ba2 O0 2.816660 1_555
Ba2 O14 2.890085 1_565
Ba2 O6 2.912521 1_565
Ba2 O1 2.941894 1_455
Ba2 O1 3.029175 1_555
Ba2 O13 3.036485 1_555
Ba2 O4 3.200239 1_555
Ba2 O5 3.204712 1_555
Ba3 O9 2.592690 1_555
Ba3 O1 2.816660 1_555
Ba3 O15 2.890085 1_555
Ba3 O7 2.912521 1_655
Ba3 O0 2.941894 1_555
Ba3 O0 3.029175 1_655
Ba3 O12 3.036485 1_555
Ba3 O5 3.200239 1_555
Ba3 O4 3.204712 1_655
La0 O7 2.364751 1_555
La0 O13 2.517228 1_545
La0 O2 2.522842 1_555
La0 O15 2.537308 1_555
La0 O8 2.577842 1_555
La0 O9 2.608395 1_555
La0 O5 2.710375 1_545
La0 O0 2.823835 1_555
La1 O6 2.364751 1_455
La1 O12 2.517228 1_455
La1 O3 2.522842 1_555
La1 O14 2.537308 1_555
La1 O9 2.577842 1_455
La1 O8 2.608395 1_555
La1 O4 2.710375 1_555
La1 O1 2.823835 1_445
La2 O5 2.364751 1_555
La2 O15 2.517228 1_555
La2 O0 2.522842 1_555
La2 O13 2.537308 1_555
La2 O10 2.577842 1_556
La2 O11 2.608395 1_555
La2 O7 2.710375 1_555
La2 O2 2.823835 1_565
La3 O4 2.364751 1_655
La3 O14 2.517228 1_665
La3 O1 2.522842 1_555
La3 O12 2.537308 1_555
La3 O11 2.577842 1_654
La3 O10 2.608395 1_555
La3 O6 2.710375 1_565
La3 O3 2.823835 1_655
Ga0 O8 1.861788 1_555
Ga0 O12 1.867826 1_555
Ga0 O0 1.880707 1_555
Ga0 O4 1.890032 1_555
Ga1 O9 1.861788 1_555
Ga1 O13 1.867826 1_645
Ga1 O1 1.880707 1_545
Ga1 O5 1.890032 1_545
Ga2 O10 1.861788 1_555
Ga2 O14 1.867826 1_565
Ga2 O2 1.880707 1_564
Ga2 O6 1.890032 1_565
Ga3 O11 1.861788 1_555
Ga3 O15 1.867826 1_455
Ga3 O3 1.880707 1_556
Ga3 O7 1.890032 1_555
