# generated using pymatgen
data_Ba3Ho2Cu2PtO10
_symmetry_space_group_name_H-M   'P 1'
_cell_length_a   6.94151505
_cell_length_b   6.94151505
_cell_length_c   7.48554518
_cell_angle_alpha   75.89043156
_cell_angle_beta   75.89043156
_cell_angle_gamma   49.91642641
_symmetry_Int_Tables_number   1
_chemical_formula_structural   Ba3Ho2Cu2PtO10
_chemical_formula_sum   'Ba3 Ho2 Cu2 Pt1 O10'
_cell_volume   265.80145891
_cell_formula_units_Z   1
loop_
 _symmetry_equiv_pos_site_id
 _symmetry_equiv_pos_as_xyz
  1  'x, y, z'
loop_
 _atom_site_type_symbol
 _atom_site_label
 _atom_site_symmetry_multiplicity
 _atom_site_fract_x
 _atom_site_fract_y
 _atom_site_fract_z
 _atom_site_occupancy
  Ba  Ba0  1  0.15275800  0.15275800  0.46195300  1
  Ba  Ba1  1  0.00000000  0.00000000  0.00000000  1
  Ba  Ba2  1  0.84724200  0.84724200  0.53804700  1
  Ho  Ho0  1  0.68882700  0.68882700  0.12572200  1
  Ho  Ho1  1  0.31117300  0.31117300  0.87427800  1
  Cu  Cu0  1  0.40987000  0.40987000  0.19952700  1
  Cu  Cu1  1  0.59013000  0.59013000  0.80047300  1
  Pt  Pt0  1  0.50000000  0.50000000  0.50000000  1
  O  O0  1  0.73823800  0.29807600  0.28053300  1
  O  O1  1  0.91342400  0.45478500  0.87496500  1
  O  O2  1  0.66731500  0.66731500  0.44808700  1
  O  O3  1  0.45478500  0.91342400  0.87496500  1
  O  O4  1  0.54521500  0.08657600  0.12503500  1
  O  O5  1  0.08657600  0.54521500  0.12503500  1
  O  O6  1  0.26176200  0.70192400  0.71946700  1
  O  O7  1  0.33268500  0.33268500  0.55191300  1
  O  O8  1  0.70192400  0.26176200  0.71946700  1
  O  O9  1  0.29807600  0.73823800  0.28053300  1
loop_
_geom_bond_atom_site_label_1
_geom_bond_atom_site_label_2
_geom_bond_distance
_geom_bond_site_symmetry_2
Ba0 O7 2.530275 1_555
Ba0 O2 2.934840 1_545
Ba0 O2 2.934840 1_455
Ba0 O0 2.939485 1_455
Ba0 O9 2.939485 1_545
Ba0 O8 2.966886 1_455
Ba0 O6 2.966886 1_545
Ba0 O5 3.097823 1_555
Ba0 O4 3.097823 1_555
Ba1 O9 2.721937 1_545
Ba1 O0 2.721937 1_455
Ba1 O8 2.721937 1_454
Ba1 O6 2.721937 1_544
Ba1 O5 2.755650 1_545
Ba1 O4 2.755650 1_455
Ba1 O3 2.755650 1_544
Ba1 O1 2.755650 1_454
Ba2 O2 2.530275 1_555
Ba2 O7 2.934840 1_565
Ba2 O7 2.934840 1_655
Ba2 O6 2.939485 1_655
Ba2 O8 2.939485 1_565
Ba2 O9 2.966886 1_655
Ba2 O0 2.966886 1_565
Ba2 O3 3.097823 1_555
Ba2 O1 3.097823 1_555
Ho0 O5 2.251190 1_655
Ho0 O4 2.251190 1_565
Ho0 O1 2.321958 1_554
Ho0 O3 2.321958 1_554
Ho0 O2 2.354759 1_555
Ho0 O0 2.506173 1_555
Ho0 O9 2.506173 1_555
Ho1 O1 2.251190 1_455
Ho1 O3 2.251190 1_545
Ho1 O4 2.321958 1_556
Ho1 O5 2.321958 1_556
Ho1 O7 2.354759 1_555
Ho1 O6 2.506173 1_555
Ho1 O8 2.506173 1_555
Cu0 O5 1.967055 1_555
Cu0 O4 1.967055 1_555
Cu0 O0 2.081335 1_555
Cu0 O9 2.081335 1_555
Cu0 O7 2.554152 1_555
Cu1 O3 1.967055 1_555
Cu1 O1 1.967055 1_555
Cu1 O6 2.081335 1_555
Cu1 O8 2.081335 1_555
Cu1 O2 2.554152 1_555
O0 Pt0 2.052161 1_555
O2 Pt0 2.036131 1_555
O6 Pt0 2.052161 1_555
O7 Pt0 2.036131 1_555
O8 Pt0 2.052161 1_555
O9 Pt0 2.052161 1_555
