# generated using pymatgen
data_Ag3SNO3
_symmetry_space_group_name_H-M   'P 1'
_cell_length_a   8.04734100
_cell_length_b   8.04734100
_cell_length_c   8.04734100
_cell_angle_alpha   90.00000000
_cell_angle_beta   90.00000000
_cell_angle_gamma   90.00000000
_symmetry_Int_Tables_number   1
_chemical_formula_structural   Ag3SNO3
_chemical_formula_sum   'Ag12 S4 N4 O12'
_cell_volume   521.14336619
_cell_formula_units_Z   4
loop_
 _symmetry_equiv_pos_site_id
 _symmetry_equiv_pos_as_xyz
  1  'x, y, z'
loop_
 _atom_site_type_symbol
 _atom_site_label
 _atom_site_symmetry_multiplicity
 _atom_site_fract_x
 _atom_site_fract_y
 _atom_site_fract_z
 _atom_site_occupancy
  Ag  Ag0  1  0.31567200  0.98052000  0.35812000  1
  Ag  Ag1  1  0.48052000  0.14188000  0.68432800  1
  Ag  Ag2  1  0.01948000  0.85812000  0.18432800  1
  Ag  Ag3  1  0.81567200  0.51948000  0.64188000  1
  Ag  Ag4  1  0.35812000  0.31567200  0.98052000  1
  Ag  Ag5  1  0.51948000  0.64188000  0.81567200  1
  Ag  Ag6  1  0.68432800  0.48052000  0.14188000  1
  Ag  Ag7  1  0.14188000  0.68432800  0.48052000  1
  Ag  Ag8  1  0.64188000  0.81567200  0.51948000  1
  Ag  Ag9  1  0.98052000  0.35812000  0.31567200  1
  Ag  Ag10  1  0.85812000  0.18432800  0.01948000  1
  Ag  Ag11  1  0.18432800  0.01948000  0.85812000  1
  S  S0  1  0.85683000  0.64317000  0.35683000  1
  S  S1  1  0.14317000  0.14317000  0.14317000  1
  S  S2  1  0.64317000  0.35683000  0.85683000  1
  S  S3  1  0.35683000  0.85683000  0.64317000  1
  N  N0  1  0.07927300  0.57927300  0.92072700  1
  N  N1  1  0.92072700  0.07927300  0.57927300  1
  N  N2  1  0.42072700  0.42072700  0.42072700  1
  N  N3  1  0.57927300  0.92072700  0.07927300  1
  O  O0  1  0.69111000  0.92131900  0.96778800  1
  O  O1  1  0.46778800  0.80889000  0.07868100  1
  O  O2  1  0.07868100  0.46778800  0.80889000  1
  O  O3  1  0.92131900  0.96778800  0.69111000  1
  O  O4  1  0.03221200  0.19111000  0.57868100  1
  O  O5  1  0.96778800  0.69111000  0.92131900  1
  O  O6  1  0.30889000  0.42131900  0.53221200  1
  O  O7  1  0.57868100  0.03221200  0.19111000  1
  O  O8  1  0.19111000  0.57868100  0.03221200  1
  O  O9  1  0.80889000  0.07868100  0.46778800  1
  O  O10  1  0.53221200  0.30889000  0.42131900  1
  O  O11  1  0.42131900  0.53221200  0.30889000  1
loop_
_geom_bond_atom_site_label_1
_geom_bond_atom_site_label_2
_geom_bond_distance
_geom_bond_site_symmetry_2
Ag0 S3 2.522385 1_555
Ag0 O7 2.541459 1_565
Ag0 S1 2.575344 1_565
Ag1 S3 2.522385 1_545
Ag1 O10 2.541459 1_555
Ag1 S2 2.575344 1_555
Ag2 S1 2.522385 1_565
Ag2 O5 2.541459 1_454
Ag2 S0 2.575344 1_455
Ag3 S0 2.522385 1_555
Ag3 O2 2.541459 1_655
Ag3 S2 2.575344 1_555
Ag4 S2 2.522385 1_555
Ag4 O8 2.541459 1_556
Ag4 S1 2.575344 1_556
Ag5 S2 2.522385 1_555
Ag5 O1 2.541459 1_556
Ag5 S3 2.575344 1_555
Ag6 S2 2.522385 1_554
Ag6 O11 2.541459 1_555
Ag6 S0 2.575344 1_555
Ag7 S0 2.522385 1_455
Ag7 O6 2.541459 1_555
Ag7 S3 2.575344 1_555
Ag8 S3 2.522385 1_555
Ag8 O9 2.541459 1_565
Ag8 S0 2.575344 1_555
Ag9 S0 2.522385 1_555
Ag9 O4 2.541459 1_655
Ag9 S1 2.575344 1_655
Ag10 S1 2.522385 1_655
Ag10 O0 2.541459 1_544
Ag10 S2 2.575344 1_554
Ag11 S1 2.522385 1_556
Ag11 O3 2.541459 1_445
Ag11 S3 2.575344 1_545
N0 O2 1.270786 1_555
N0 O8 1.270786 1_556
N0 O5 1.270786 1_455
N1 O9 1.270786 1_555
N1 O4 1.270786 1_655
N1 O3 1.270786 1_545
N2 O6 1.270786 1_555
N2 O10 1.270786 1_555
N2 O11 1.270786 1_555
N3 O1 1.270786 1_555
N3 O7 1.270786 1_565
N3 O0 1.270786 1_554
