# generated using pymatgen
data_Sr5Nb5O17
_symmetry_space_group_name_H-M   'P 1'
_cell_length_a   4.02904395
_cell_length_b   5.71415098
_cell_length_c   32.84690230
_cell_angle_alpha   90.00000000
_cell_angle_beta   90.00000000
_cell_angle_gamma   90.00000000
_symmetry_Int_Tables_number   1
_chemical_formula_structural   Sr5Nb5O17
_chemical_formula_sum   'Sr10 Nb10 O34'
_cell_volume   756.21995755
_cell_formula_units_Z   2
loop_
 _symmetry_equiv_pos_site_id
 _symmetry_equiv_pos_as_xyz
  1  'x, y, z'
loop_
 _atom_site_type_symbol
 _atom_site_label
 _atom_site_symmetry_multiplicity
 _atom_site_fract_x
 _atom_site_fract_y
 _atom_site_fract_z
 _atom_site_occupancy
  Sr  Sr0  1  0.00000000  0.43248438  0.78359171  1
  Sr  Sr1  1  -0.00000000  0.56751562  0.21640829  1
  Sr  Sr2  1  0.50000000  0.06751562  0.28359171  1
  Sr  Sr3  1  0.50000000  0.93248438  0.71640829  1
  Sr  Sr4  1  0.50000000  -0.00000000  0.50000000  1
  Sr  Sr5  1  0.00000000  0.50000000  -0.00000000  1
  Sr  Sr6  1  0.50000000  0.50400990  0.58979368  1
  Sr  Sr7  1  0.50000000  0.49599010  0.41020632  1
  Sr  Sr8  1  -0.00000000  0.99599010  0.08979368  1
  Sr  Sr9  1  0.00000000  0.00400990  0.91020632  1
  Nb  Nb0  1  0.00000000  0.50000000  0.50000000  1
  Nb  Nb1  1  0.50000000  -0.00000000  -0.00000000  1
  Nb  Nb2  1  -0.00000000  0.46526866  0.67699315  1
  Nb  Nb3  1  -0.00000000  0.53473134  0.32300685  1
  Nb  Nb4  1  0.50000000  0.03473134  0.17699315  1
  Nb  Nb5  1  0.50000000  0.96526866  0.82300685  1
  Nb  Nb6  1  0.00000000  0.99503199  0.59021680  1
  Nb  Nb7  1  0.00000000  0.00496801  0.40978320  1
  Nb  Nb8  1  0.50000000  0.50496801  0.09021680  1
  Nb  Nb9  1  0.50000000  0.49503199  0.90978320  1
  O  O0  1  0.00000000  0.78245901  0.46393386  1
  O  O1  1  -0.00000000  0.21754099  0.53606614  1
  O  O2  1  0.50000000  0.71754099  0.96393386  1
  O  O3  1  0.50000000  0.28245901  0.03606614  1
  O  O4  1  -0.00000000  0.72150881  0.54857245  1
  O  O5  1  0.00000000  0.27849119  0.45142755  1
  O  O6  1  0.50000000  0.77849119  0.04857245  1
  O  O7  1  0.50000000  0.22150881  0.95142755  1
  O  O8  1  0.50000000  0.50000000  0.50000000  1
  O  O9  1  0.00000000  -0.00000000  -0.00000000  1
  O  O10  1  0.50000000  0.70069928  0.79074448  1
  O  O11  1  0.50000000  0.29930072  0.20925552  1
  O  O12  1  0.00000000  0.79930072  0.29074448  1
  O  O13  1  0.00000000  0.20069928  0.70925552  1
  O  O14  1  0.50000000  0.79592688  0.87993466  1
  O  O15  1  0.50000000  0.20407312  0.12006534  1
  O  O16  1  -0.00000000  0.70407312  0.37993466  1
  O  O17  1  -0.00000000  0.29592688  0.62006534  1
  O  O18  1  0.50000000  0.27592851  0.86745565  1
  O  O19  1  0.50000000  0.72407149  0.13254435  1
  O  O20  1  -0.00000000  0.22407149  0.36745565  1
  O  O21  1  0.00000000  0.77592851  0.63254435  1
  O  O22  1  0.00000000  0.68284822  0.72044868  1
  O  O23  1  0.00000000  0.31715178  0.27955132  1
  O  O24  1  0.50000000  0.81715178  0.22044868  1
  O  O25  1  0.50000000  0.18284822  0.77955132  1
  O  O26  1  0.50000000  0.49829883  0.66887319  1
  O  O27  1  0.50000000  0.50170117  0.33112681  1
  O  O28  1  -0.00000000  0.00170117  0.16887319  1
  O  O29  1  0.00000000  0.99829883  0.83112681  1
  O  O30  1  0.50000000  0.01058058  0.58292997  1
  O  O31  1  0.50000000  0.98941942  0.41707003  1
  O  O32  1  -0.00000000  0.48941942  0.08292997  1
  O  O33  1  -0.00000000  0.51058058  0.91707003  1
loop_
_geom_bond_atom_site_label_1
_geom_bond_atom_site_label_2
_geom_bond_distance
_geom_bond_site_symmetry_2
Nb0 O1 2.002114 1_555
Nb0 O0 2.002114 1_555
Nb0 O8 2.014522 1_455
Nb0 O8 2.014522 1_555
Nb0 O4 2.036556 1_555
Nb0 O5 2.036556 1_555
Nb1 O2 2.002114 1_544
Nb1 O3 2.002114 1_555
Nb1 O9 2.014522 1_655
Nb1 O9 2.014522 1_555
Nb1 O7 2.036556 1_554
Nb1 O6 2.036556 1_545
Nb2 O13 1.846215 1_555
Nb2 O22 1.892925 1_555
Nb2 O26 2.040847 1_455
Nb2 O26 2.040847 1_555
Nb2 O17 2.105438 1_555
Nb2 O21 2.298434 1_555
Nb3 O12 1.846215 1_555
Nb3 O23 1.892925 1_555
Nb3 O27 2.040847 1_455
Nb3 O27 2.040847 1_555
Nb3 O16 2.105438 1_555
Nb3 O20 2.298434 1_555
Nb4 O11 1.846215 1_555
Nb4 O24 1.892925 1_545
Nb4 O28 2.040847 1_555
Nb4 O28 2.040847 1_655
Nb4 O15 2.105438 1_555
Nb4 O19 2.298434 1_545
Nb5 O10 1.846215 1_555
Nb5 O25 1.892925 1_565
Nb5 O29 2.040847 1_555
Nb5 O29 2.040847 1_655
Nb5 O14 2.105438 1_555
Nb5 O18 2.298434 1_565
Nb6 O21 1.870961 1_555
Nb6 O17 1.979253 1_565
Nb6 O30 2.030636 1_565
Nb6 O30 2.030636 1_465
Nb6 O4 2.077002 1_555
Nb6 O1 2.186388 1_565
Nb7 O20 1.870961 1_555
Nb7 O16 1.979253 1_545
Nb7 O31 2.030636 1_445
Nb7 O31 2.030636 1_545
Nb7 O5 2.077002 1_555
Nb7 O0 2.186388 1_545
Nb8 O19 1.870961 1_555
Nb8 O15 1.979253 1_555
Nb8 O32 2.030636 1_655
Nb8 O32 2.030636 1_555
Nb8 O6 2.077002 1_555
Nb8 O3 2.186388 1_555
Nb9 O18 1.870961 1_555
Nb9 O14 1.979253 1_555
Nb9 O33 2.030636 1_655
Nb9 O33 2.030636 1_555
Nb9 O7 2.077002 1_555
Nb9 O2 2.186388 1_555
O0 Sr4 2.647059 1_565
O0 Sr4 2.647059 1_465
O0 Sr7 3.138835 1_455
O0 Sr7 3.138835 1_555
O1 Sr4 2.647059 1_455
O1 Sr4 2.647059 1_555
O1 Sr6 3.138835 1_555
O1 Sr6 3.138835 1_455
O2 Sr5 2.647059 1_656
O2 Sr5 2.647059 1_556
O2 Sr9 3.138835 1_565
O2 Sr9 3.138835 1_665
O3 Sr5 2.647059 1_555
O3 Sr5 2.647059 1_655
O3 Sr8 3.138835 1_645
O3 Sr8 3.138835 1_545
O4 Sr6 2.726938 1_455
O4 Sr6 2.726938 1_555
O4 Sr4 3.022605 1_465
O4 Sr4 3.022605 1_565
O5 Sr7 2.726938 1_455
O5 Sr7 2.726938 1_555
O5 Sr4 3.022605 1_555
O5 Sr4 3.022605 1_455
O6 Sr8 2.726938 1_555
O6 Sr8 2.726938 1_655
O6 Sr5 3.022605 1_655
O6 Sr5 3.022605 1_555
O7 Sr9 2.726938 1_555
O7 Sr9 2.726938 1_655
O7 Sr5 3.022605 1_656
O7 Sr5 3.022605 1_556
O8 Sr4 2.857075 1_555
O8 Sr4 2.857075 1_565
O8 Sr6 2.949533 1_555
O8 Sr7 2.949533 1_555
O9 Sr5 2.857075 1_555
O9 Sr5 2.857075 1_545
O9 Sr9 2.949533 1_554
O9 Sr8 2.949533 1_545
O10 Sr0 2.542130 1_555
O10 Sr0 2.542130 1_655
O10 Sr3 2.777795 1_555
O11 Sr1 2.542130 1_555
O11 Sr1 2.542130 1_655
O11 Sr2 2.777795 1_555
O12 Sr2 2.542130 1_465
O12 Sr2 2.542130 1_565
O12 Sr1 2.777795 1_555
O13 Sr3 2.542130 1_445
O13 Sr3 2.542130 1_545
O13 Sr0 2.777795 1_555
O14 Sr9 2.541801 1_665
O14 Sr9 2.541801 1_565
O15 Sr8 2.541801 1_645
O15 Sr8 2.541801 1_545
O16 Sr7 2.541801 1_455
O16 Sr7 2.541801 1_555
O17 Sr6 2.541801 1_555
O17 Sr6 2.541801 1_455
O18 Sr9 2.905924 1_555
O18 Sr9 2.905924 1_655
O19 Sr8 2.905924 1_555
O19 Sr8 2.905924 1_655
O20 Sr7 2.905924 1_555
O20 Sr7 2.905924 1_455
O21 Sr6 2.905924 1_555
O21 Sr6 2.905924 1_455
O22 Sr3 2.471982 1_555
O22 Sr3 2.471982 1_455
O22 Sr0 2.519595 1_555
O23 Sr2 2.471982 1_455
O23 Sr2 2.471982 1_555
O23 Sr1 2.519595 1_555
O24 Sr1 2.471982 1_655
O24 Sr1 2.471982 1_555
O24 Sr2 2.519595 1_565
O25 Sr0 2.471982 1_555
O25 Sr0 2.471982 1_655
O25 Sr3 2.519595 1_545
O26 Sr6 2.597722 1_555
O26 Sr3 2.931430 1_555
O27 Sr7 2.597722 1_555
O27 Sr2 2.931430 1_555
O28 Sr8 2.597722 1_545
O28 Sr1 2.931430 1_545
O29 Sr9 2.597722 1_565
O29 Sr0 2.931430 1_565
O30 Sr4 2.724663 1_555
O30 Sr6 2.828529 1_555
O30 Sr6 2.903388 1_545
O31 Sr4 2.724663 1_565
O31 Sr7 2.828529 1_555
O31 Sr7 2.903388 1_565
O32 Sr5 2.724663 1_555
O32 Sr8 2.828529 1_545
O32 Sr8 2.903388 1_555
O33 Sr5 2.724663 1_556
O33 Sr9 2.828529 1_565
O33 Sr9 2.903388 1_555
