# generated using pymatgen
data_Zr3V3C
_symmetry_space_group_name_H-M   'P 1'
_cell_length_a   8.66387392
_cell_length_b   8.66387392
_cell_length_c   8.66387392
_cell_angle_alpha   60.00000000
_cell_angle_beta   60.00000000
_cell_angle_gamma   60.00000000
_symmetry_Int_Tables_number   1
_chemical_formula_structural   Zr3V3C
_chemical_formula_sum   'Zr12 V12 C4'
_cell_volume   459.85548722
_cell_formula_units_Z   4
loop_
 _symmetry_equiv_pos_site_id
 _symmetry_equiv_pos_as_xyz
  1  'x, y, z'
loop_
 _atom_site_type_symbol
 _atom_site_label
 _atom_site_symmetry_multiplicity
 _atom_site_fract_x
 _atom_site_fract_y
 _atom_site_fract_z
 _atom_site_occupancy
  Zr  Zr0  1  0.19103000  0.80897000  0.19103000  1
  Zr  Zr1  1  0.44103000  0.05897000  0.05897000  1
  Zr  Zr2  1  0.05897000  0.44103000  0.44103000  1
  Zr  Zr3  1  0.44103000  0.05897000  0.44103000  1
  Zr  Zr4  1  0.05897000  0.05897000  0.44103000  1
  Zr  Zr5  1  0.44103000  0.44103000  0.05897000  1
  Zr  Zr6  1  0.19103000  0.19103000  0.80897000  1
  Zr  Zr7  1  0.80897000  0.19103000  0.19103000  1
  Zr  Zr8  1  0.19103000  0.80897000  0.80897000  1
  Zr  Zr9  1  0.80897000  0.80897000  0.19103000  1
  Zr  Zr10  1  0.05897000  0.44103000  0.05897000  1
  Zr  Zr11  1  0.80897000  0.19103000  0.80897000  1
  V  V0  1  0.62500000  0.62500000  0.62500000  1
  V  V1  1  0.12500000  0.62500000  0.62500000  1
  V  V2  1  0.62500000  0.12500000  0.62500000  1
  V  V3  1  0.62500000  0.62500000  0.12500000  1
  V  V4  1  0.82614100  0.82614100  0.82614100  1
  V  V5  1  0.72842400  0.42385900  0.42385900  1
  V  V6  1  0.42385900  0.72842400  0.42385900  1
  V  V7  1  0.42385900  0.42385900  0.72842400  1
  V  V8  1  0.82614100  0.52157600  0.82614100  1
  V  V9  1  0.82614100  0.82614100  0.52157600  1
  V  V10  1  0.52157600  0.82614100  0.82614100  1
  V  V11  1  0.42385900  0.42385900  0.42385900  1
  C  C0  1  0.12500000  0.12500000  0.12500000  1
  C  C1  1  0.62500000  0.12500000  0.12500000  1
  C  C2  1  0.12500000  0.62500000  0.12500000  1
  C  C3  1  0.12500000  0.12500000  0.62500000  1
loop_
_geom_bond_atom_site_label_1
_geom_bond_atom_site_label_2
_geom_bond_distance
_geom_bond_site_symmetry_2
V0 V10 2.605854 1_555
V0 V5 2.605854 1_555
V0 V9 2.605854 1_555
V0 V8 2.605854 1_555
V0 V7 2.605854 1_555
V0 V6 2.605854 1_555
V0 Zr11 3.126085 1_555
V0 Zr5 3.126085 1_556
V0 Zr8 3.126085 1_555
V0 Zr9 3.126085 1_555
V0 Zr2 3.126085 1_655
V0 Zr3 3.126085 1_565
V1 V4 2.605857 1_455
V1 V11 2.605857 1_555
V1 V7 2.605861 1_555
V1 V6 2.605861 1_555
V1 V8 2.605861 1_455
V1 V9 2.605861 1_455
V1 Zr10 3.126085 1_556
V1 Zr8 3.126085 1_555
V1 Zr0 3.126085 1_555
V1 Zr6 3.126085 1_555
V1 Zr4 3.126085 1_565
V1 Zr2 3.126085 1_555
V2 V4 2.605857 1_545
V2 V7 2.605861 1_555
V2 V9 2.605861 1_545
V2 V5 2.605861 1_555
V2 Zr1 3.126085 1_556
V2 Zr11 3.126085 1_555
V2 Zr3 3.126085 1_555
V2 Zr6 3.126085 1_555
V2 Zr7 3.126085 1_555
V2 Zr4 3.126085 1_655
V3 V4 2.605857 1_554
V3 V6 2.605861 1_555
V3 V8 2.605861 1_554
V3 V5 2.605861 1_555
V3 Zr7 3.126085 1_555
V3 Zr9 3.126085 1_555
V3 Zr0 3.126085 1_555
V3 Zr5 3.126085 1_555
V3 Zr10 3.126085 1_655
V3 Zr1 3.126085 1_565
V4 V9 2.638713 1_555
V4 V8 2.638713 1_555
V4 Zr11 3.019922 1_565
V4 Zr9 3.019922 1_556
V4 Zr8 3.019922 1_655
V4 Zr10 3.143070 1_656
V4 Zr1 3.143070 1_566
V4 Zr4 3.143070 1_665
V5 V7 2.638713 1_555
V5 V6 2.638713 1_555
V5 Zr2 3.019914 1_655
V5 Zr4 3.019919 1_655
V5 Zr10 3.019919 1_655
V5 Zr9 3.143066 1_555
V5 Zr11 3.143066 1_555
V5 Zr7 3.143074 1_555
V6 V7 2.638713 1_555
V6 Zr3 3.019914 1_565
V6 Zr1 3.019919 1_565
V6 Zr4 3.019919 1_565
V6 Zr8 3.143066 1_555
V6 Zr9 3.143066 1_555
V6 Zr0 3.143074 1_555
V7 Zr5 3.019914 1_556
V7 Zr10 3.019919 1_556
V7 Zr1 3.019919 1_556
V7 Zr11 3.143066 1_555
V7 Zr8 3.143066 1_555
V7 Zr6 3.143074 1_555
V8 V9 2.638713 1_555
V8 Zr11 3.019914 1_555
V8 Zr7 3.019919 1_556
V8 Zr6 3.019919 1_655
V8 Zr5 3.143066 1_556
V8 Zr2 3.143066 1_655
V8 Zr10 3.143074 1_656
V9 Zr9 3.019914 1_555
V9 Zr0 3.019919 1_655
V9 Zr7 3.019919 1_565
V9 Zr3 3.143066 1_565
V9 Zr2 3.143066 1_655
V9 Zr4 3.143074 1_665
V10 V2 2.605861 1_565
V10 V3 2.605861 1_556
V10 V4 2.638713 1_555
V10 V8 2.638713 1_555
V10 V9 2.638713 1_555
V10 Zr8 3.019914 1_555
V10 Zr0 3.019919 1_556
V10 Zr6 3.019919 1_565
V10 Zr3 3.143066 1_565
V10 Zr5 3.143066 1_556
V10 Zr1 3.143074 1_566
V11 V2 2.605857 1_555
V11 V3 2.605857 1_555
V11 V5 2.638713 1_555
V11 V7 2.638713 1_555
V11 V6 2.638713 1_555
V11 Zr5 3.019922 1_555
V11 Zr2 3.019922 1_555
V11 Zr3 3.019922 1_555
V11 Zr7 3.143070 1_555
V11 Zr0 3.143070 1_555
V11 Zr6 3.143070 1_555
C0 Zr1 2.312133 1_555
C0 Zr4 2.312133 1_555
C0 Zr10 2.312133 1_555
C0 Zr0 2.312133 1_545
C0 Zr7 2.312133 1_455
C0 Zr6 2.312133 1_554
C1 Zr5 2.312133 1_555
C1 Zr3 2.312133 1_555
C1 Zr7 2.312133 1_555
C1 Zr9 2.312133 1_545
C1 Zr11 2.312133 1_554
C1 Zr1 2.312133 1_555
C2 Zr5 2.312133 1_555
C2 Zr2 2.312133 1_555
C2 Zr0 2.312133 1_555
C2 Zr10 2.312133 1_555
C2 Zr8 2.312133 1_554
C2 Zr9 2.312133 1_455
C3 Zr2 2.312133 1_555
C3 Zr3 2.312133 1_555
C3 Zr6 2.312133 1_555
C3 Zr4 2.312133 1_555
C3 Zr11 2.312133 1_455
C3 Zr8 2.312133 1_545
