# generated using pymatgen
data_RbAlBP2HO9
_symmetry_space_group_name_H-M   'P 1'
_cell_length_a   8.53089600
_cell_length_b   9.37819700
_cell_length_c   9.50769051
_cell_angle_alpha   76.22778784
_cell_angle_beta   90.00000000
_cell_angle_gamma   90.00000000
_symmetry_Int_Tables_number   1
_chemical_formula_structural   RbAlBP2HO9
_chemical_formula_sum   'Rb4 Al4 B4 P8 H4 O36'
_cell_volume   738.78828603
_cell_formula_units_Z   4
loop_
 _symmetry_equiv_pos_site_id
 _symmetry_equiv_pos_as_xyz
  1  'x, y, z'
loop_
 _atom_site_type_symbol
 _atom_site_label
 _atom_site_symmetry_multiplicity
 _atom_site_fract_x
 _atom_site_fract_y
 _atom_site_fract_z
 _atom_site_occupancy
  Rb  Rb0  1  0.60815400  0.30920500  0.56063900  1
  Rb  Rb1  1  0.10815400  0.69079500  0.93936100  1
  Rb  Rb2  1  0.39184600  0.69079500  0.43936100  1
  Rb  Rb3  1  0.89184600  0.30920500  0.06063900  1
  Al  Al0  1  0.15392300  0.29968500  0.43137800  1
  Al  Al1  1  0.65392300  0.70031500  0.06862200  1
  Al  Al2  1  0.84607700  0.70031500  0.56862200  1
  Al  Al3  1  0.34607700  0.29968500  0.93137800  1
  B  B0  1  0.95048400  0.16362200  0.69878800  1
  B  B1  1  0.45048400  0.83637800  0.80121200  1
  B  B2  1  0.04951600  0.83637800  0.30121200  1
  B  B3  1  0.54951600  0.16362200  0.19878800  1
  P  P0  1  0.06561400  0.42824800  0.70556300  1
  P  P1  1  0.56561400  0.57175200  0.79443700  1
  P  P2  1  0.93438600  0.57175200  0.29443700  1
  P  P3  1  0.43438600  0.42824800  0.20556300  1
  P  P4  1  0.26409700  0.08662900  0.72181800  1
  P  P5  1  0.76409700  0.91337100  0.77818200  1
  P  P6  1  0.73590300  0.91337100  0.27818200  1
  P  P7  1  0.23590300  0.08662900  0.22181800  1
  H  H0  1  0.93428000  0.11228400  0.49678100  1
  H  H1  1  0.43428000  0.88771600  0.00321900  1
  H  H2  1  0.06572000  0.88771600  0.50321900  1
  H  H3  1  0.56572000  0.11228400  0.99678100  1
  O  O0  1  0.93071900  0.30653900  0.73456000  1
  O  O1  1  0.43071900  0.69346100  0.76544000  1
  O  O2  1  0.06928100  0.69346100  0.26544000  1
  O  O3  1  0.56928100  0.30653900  0.23456000  1
  O  O4  1  0.30637200  0.91874700  0.75252700  1
  O  O5  1  0.80637200  0.08125300  0.74747300  1
  O  O6  1  0.69362800  0.08125300  0.24747300  1
  O  O7  1  0.19362800  0.91874700  0.25252700  1
  O  O8  1  0.28075900  0.15628700  0.56054400  1
  O  O9  1  0.78075900  0.84371300  0.93945600  1
  O  O10  1  0.71924100  0.84371300  0.43945600  1
  O  O11  1  0.21924100  0.15628700  0.06054400  1
  O  O12  1  0.01385200  0.42337500  0.30539600  1
  O  O13  1  0.51385200  0.57662500  0.19460400  1
  O  O14  1  0.98614800  0.57662500  0.69460400  1
  O  O15  1  0.48614800  0.42337500  0.80539600  1
  O  O16  1  0.08797900  0.08160500  0.77051700  1
  O  O17  1  0.58797900  0.91839500  0.72948300  1
  O  O18  1  0.91202100  0.91839500  0.22948300  1
  O  O19  1  0.41202100  0.08160500  0.27051700  1
  O  O20  1  0.33052800  0.39808100  0.34166700  1
  O  O21  1  0.83052800  0.60191900  0.15833300  1
  O  O22  1  0.66947200  0.60191900  0.65833300  1
  O  O23  1  0.16947200  0.39808100  0.84166700  1
  O  O24  1  0.36773800  0.16030700  0.81500700  1
  O  O25  1  0.86773800  0.83969300  0.68499300  1
  O  O26  1  0.63226200  0.83969300  0.18499300  1
  O  O27  1  0.13226200  0.16030700  0.31500700  1
  O  O28  1  0.15529400  0.41790600  0.56847300  1
  O  O29  1  0.65529400  0.58209400  0.93152700  1
  O  O30  1  0.84470600  0.58209400  0.43152700  1
  O  O31  1  0.34470600  0.41790600  0.06847300  1
  O  O32  1  0.96380700  0.19478500  0.53682800  1
  O  O33  1  0.46380700  0.80521500  0.96317200  1
  O  O34  1  0.03619300  0.80521500  0.46317200  1
  O  O35  1  0.53619300  0.19478500  0.03682800  1
loop_
_geom_bond_atom_site_label_1
_geom_bond_atom_site_label_2
_geom_bond_distance
_geom_bond_site_symmetry_2
Al0 O20 1.863900 1_555
Al0 O12 1.883245 1_555
Al0 O28 1.901689 1_555
Al0 O27 1.911920 1_555
Al0 O8 1.923832 1_555
Al0 O32 2.033177 1_455
Al1 O21 1.863900 1_555
Al1 O13 1.883245 1_555
Al1 O29 1.901689 1_554
Al1 O26 1.911920 1_555
Al1 O9 1.923832 1_554
Al1 O33 2.033177 1_554
Al2 O22 1.863900 1_555
Al2 O14 1.883245 1_555
Al2 O30 1.901689 1_555
Al2 O25 1.911920 1_555
Al2 O10 1.923832 1_555
Al2 O34 2.033177 1_655
Al3 O23 1.863900 1_555
Al3 O15 1.883245 1_555
Al3 O31 1.901689 1_556
Al3 O24 1.911920 1_555
Al3 O11 1.923832 1_556
Al3 O35 2.033177 1_556
B0 O5 1.467026 1_555
B0 O0 1.468864 1_555
B0 O16 1.477426 1_655
B0 O32 1.501747 1_555
B1 O4 1.467026 1_555
B1 O1 1.468864 1_555
B1 O17 1.477426 1_555
B1 O33 1.501747 1_555
B2 O7 1.467026 1_555
B2 O2 1.468864 1_555
B2 O18 1.477426 1_455
B2 O34 1.501747 1_555
B3 O6 1.467026 1_555
B3 O3 1.468864 1_555
B3 O19 1.477426 1_555
B3 O35 1.501747 1_555
H0 O32 0.973301 1_555
H1 O33 0.973301 1_554
H2 O34 0.973301 1_555
H3 O35 0.973301 1_556
O0 P0 1.597899 1_655
O0 Rb3 3.123957 1_556
O0 Rb0 3.207416 1_555
O1 P1 1.597899 1_555
O1 Rb2 3.123957 1_555
O1 Rb1 3.207416 1_555
O2 P2 1.597899 1_455
O2 Rb1 3.123957 1_554
O2 Rb2 3.207416 1_555
O3 P3 1.597899 1_555
O3 Rb0 3.123957 1_555
O3 Rb3 3.207416 1_555
O4 P4 1.573300 1_565
O4 Rb1 2.962581 1_555
O5 P5 1.573300 1_545
O5 Rb0 2.962581 1_555
O6 P6 1.573300 1_545
O6 Rb3 2.962581 1_555
O7 P7 1.573300 1_565
O7 Rb2 2.962581 1_555
O8 P4 1.523541 1_555
O8 Rb0 3.139736 1_555
O9 P5 1.523541 1_555
O9 Rb1 3.139736 1_655
O10 P6 1.523541 1_555
O10 Rb2 3.139736 1_555
O11 P7 1.523541 1_555
O11 Rb3 3.139736 1_455
O12 P2 1.528951 1_455
O12 Rb3 2.971753 1_455
O13 P3 1.528951 1_555
O13 Rb2 2.971753 1_555
O14 P0 1.528951 1_655
O14 Rb1 2.971753 1_655
O15 P1 1.528951 1_555
O15 Rb0 2.971753 1_555
O16 P4 1.569572 1_555
O17 P5 1.569572 1_555
O18 P6 1.569572 1_555
O19 P7 1.569572 1_555
O20 P3 1.537939 1_555
O20 Rb0 3.132444 1_555
O20 Rb2 3.144223 1_555
O21 P2 1.537939 1_555
O21 Rb1 3.132444 1_654
O21 Rb3 3.144223 1_555
O22 P1 1.537939 1_555
O22 Rb2 3.132444 1_555
O22 Rb0 3.144223 1_555
O23 P0 1.537939 1_555
O23 Rb3 3.132444 1_456
O23 Rb1 3.144223 1_555
O24 P4 1.528287 1_555
O24 Rb0 3.224493 1_555
O25 P5 1.528287 1_555
O25 Rb1 3.224493 1_655
O26 P6 1.528287 1_555
O26 Rb2 3.224493 1_555
O27 P7 1.528287 1_555
O27 Rb3 3.224493 1_455
O28 P0 1.534202 1_555
O28 Rb2 3.260825 1_555
O29 P1 1.534202 1_555
O29 Rb3 3.260825 1_556
O30 P2 1.534202 1_555
O30 Rb0 3.260825 1_555
O31 P3 1.534202 1_555
O31 Rb1 3.260825 1_554
O32 Rb0 3.244033 1_555
O33 Rb1 3.244033 1_555
O34 Rb2 3.244033 1_555
O35 Rb3 3.244033 1_555
