# generated using pymatgen
data_CuAs2S8N8(OF7)4
_symmetry_space_group_name_H-M   'P 1'
_cell_length_a   12.90929212
_cell_length_b   12.90929212
_cell_length_c   12.90929212
_cell_angle_alpha   120.26954390
_cell_angle_beta   120.26954390
_cell_angle_gamma   89.53376687
_symmetry_Int_Tables_number   1
_chemical_formula_structural   CuAs2S8N8(OF7)4
_chemical_formula_sum   'Cu2 As4 S16 N16 O8 F56'
_cell_volume   1514.96886173
_cell_formula_units_Z   2
loop_
 _symmetry_equiv_pos_site_id
 _symmetry_equiv_pos_as_xyz
  1  'x, y, z'
loop_
 _atom_site_type_symbol
 _atom_site_label
 _atom_site_symmetry_multiplicity
 _atom_site_fract_x
 _atom_site_fract_y
 _atom_site_fract_z
 _atom_site_occupancy
  Cu  Cu0  1  0.00000000  0.00000000  0.00000000  1
  Cu  Cu1  1  0.75000000  0.25000000  0.50000000  1
  As  As0  1  0.50197800  0.00197800  0.50000000  1
  As  As1  1  0.24802200  0.24802200  0.00000000  1
  As  As2  1  0.99802200  0.49802200  0.50000000  1
  As  As3  1  0.75197800  0.75197800  0.00000000  1
  S  S0  1  0.62636500  0.27411500  0.00479700  1
  S  S1  1  0.52758600  0.03010400  0.16468600  1
  S  S2  1  0.88458200  0.88710000  0.66468600  1
  S  S3  1  0.86541800  0.36290000  0.83531400  1
  S  S4  1  0.37843200  0.37363500  0.64775000  1
  S  S5  1  0.02411500  0.51931800  0.14775000  1
  S  S6  1  0.22241400  0.21989600  0.33531400  1
  S  S7  1  0.26931800  0.62156800  0.99520300  1
  S  S8  1  0.72588500  0.73068200  0.35225000  1
  S  S9  1  0.12363500  0.97588500  0.49520300  1
  S  S10  1  0.48068200  0.62843200  0.50479700  1
  S  S11  1  0.96989600  0.13458200  0.49748200  1
  S  S12  1  0.78010400  0.11541800  0.00251800  1
  S  S13  1  0.37156800  0.87636500  0.85225000  1
  S  S14  1  0.63710000  0.47241400  0.50251800  1
  S  S15  1  0.11290000  0.77758600  0.99748200  1
  N  N0  1  0.01250200  0.01669300  0.49428800  1
  N  N1  1  0.73749800  0.23330700  0.00571200  1
  N  N2  1  0.63736400  0.14115400  0.28353200  1
  N  N3  1  0.85762300  0.35383200  0.71646800  1
  N  N4  1  0.22759600  0.73178700  0.99428800  1
  N  N5  1  0.26821300  0.26250200  0.49580900  1
  N  N6  1  0.89237700  0.89616800  0.78353200  1
  N  N7  1  0.85884600  0.14237700  0.49621000  1
  N  N8  1  0.76669300  0.77240400  0.50419100  1
  N  N9  1  0.89115400  0.10762300  0.00379000  1
  N  N10  1  0.64616800  0.36263600  0.50379000  1
  N  N11  1  0.48178700  0.98749800  0.00419100  1
  N  N12  1  0.11263600  0.10884600  0.21646800  1
  N  N13  1  0.98330700  0.47759600  0.99580900  1
  N  N14  1  0.10383200  0.88736400  0.99621000  1
  N  N15  1  0.52240400  0.51821300  0.50571200  1
  O  O0  1  0.35780000  0.86683900  0.73227400  1
  O  O1  1  0.37447400  0.64220000  0.50903900  1
  O  O2  1  0.61543400  0.62447400  0.23227400  1
  O  O3  1  0.13316100  0.86543400  0.49096100  1
  O  O4  1  0.61683900  0.38456600  0.00903900  1
  O  O5  1  0.39220000  0.38316100  0.76772600  1
  O  O6  1  0.13456600  0.62552600  0.26772600  1
  O  O7  1  0.37552600  0.60780000  0.99096100  1
  F  F0  1  0.39913200  0.02544500  0.15364800  1
  F  F1  1  0.46232100  0.62476400  0.37390100  1
  F  F2  1  0.15548900  0.49503900  0.87291100  1
  F  F3  1  0.09962300  0.25087000  0.62760000  1
  F  F4  1  0.87179700  0.24548400  0.84635200  1
  F  F5  1  0.97455500  0.12820300  0.37368700  1
  F  F6  1  0.84966700  0.84966700  0.00000000  1
  F  F7  1  0.89111000  0.75256500  0.13837100  1
  F  F8  1  0.50496100  0.37787200  0.66045000  1
  F  F9  1  0.10947800  0.24757000  0.86228600  1
  F  F10  1  0.65540500  0.65540500  0.00000000  1
  F  F11  1  0.15033300  0.15033300  0.00000000  1
  F  F12  1  0.36471600  0.00280800  0.36228600  1
  F  F13  1  0.65037700  0.99913000  0.87240000  1
  F  F14  1  0.91158000  0.53767900  0.16244300  1
  F  F15  1  0.12673000  0.77797600  0.12760000  1
  F  F16  1  0.13580600  0.49726100  0.63837100  1
  F  F17  1  0.99548400  0.64913200  0.87368700  1
  F  F18  1  0.62327000  0.47202400  0.37240000  1
  F  F19  1  0.61419400  0.75273900  0.86162900  1
  F  F20  1  0.22202400  0.34962300  0.34875300  1
  F  F21  1  0.59966700  0.09966700  0.50000000  1
  F  F22  1  0.50273900  0.14111000  0.63854500  1
  F  F23  1  0.59451100  0.75496100  0.62708900  1
  F  F24  1  0.37523600  0.74913700  0.83755700  1
  F  F25  1  0.25086300  0.08842000  0.62609900  1
  F  F26  1  0.24503900  0.87212800  0.83955000  1
  F  F27  1  0.87820300  0.00451600  0.65364800  1
  F  F28  1  0.75451600  0.60086800  0.62631300  1
  F  F29  1  0.52797600  0.90037700  0.15124700  1
  F  F30  1  0.71742200  0.84451100  0.33955000  1
  F  F31  1  0.90033300  0.40033300  0.50000000  1
  F  F32  1  0.37476400  0.50086300  0.66244300  1
  F  F33  1  0.50256500  0.86419400  0.36145500  1
  F  F34  1  0.77544500  0.12179700  0.12631300  1
  F  F35  1  0.64052200  0.00243000  0.63771400  1
  F  F36  1  0.03257800  0.40548900  0.16045000  1
  F  F37  1  0.83842000  0.71232100  0.33755700  1
  F  F38  1  0.28767900  0.62523600  0.12609900  1
  F  F39  1  0.74913000  0.37673000  0.84875300  1
  F  F40  1  0.24726100  0.10889000  0.86145500  1
  F  F41  1  0.34459500  0.34459500  0.00000000  1
  F  F42  1  0.38528400  0.24719200  0.13771400  1
  F  F43  1  0.75243000  0.61471600  0.86190800  1
  F  F44  1  0.40540500  0.90540500  0.50000000  1
  F  F45  1  0.85889000  0.49743500  0.36162900  1
  F  F46  1  0.00087000  0.87327000  0.65124700  1
  F  F47  1  0.62212800  0.28257800  0.12708900  1
  F  F48  1  0.99757000  0.63528400  0.63809200  1
  F  F49  1  0.35086800  0.22455500  0.34635200  1
  F  F50  1  0.12787200  0.96742200  0.37291100  1
  F  F51  1  0.99719200  0.35947800  0.36190800  1
  F  F52  1  0.24743500  0.38580600  0.13854500  1
  F  F53  1  0.09459500  0.59459500  0.50000000  1
  F  F54  1  0.49913700  0.16158000  0.87390100  1
  F  F55  1  0.75280800  0.89052200  0.13809200  1
loop_
_geom_bond_atom_site_label_1
_geom_bond_atom_site_label_2
_geom_bond_distance
_geom_bond_site_symmetry_2
Cu0 N6 1.968756 1_444
Cu0 N14 1.968756 1_544
Cu0 N12 1.968756 1_555
Cu0 N9 1.968765 1_455
Cu1 N3 1.968756 1_555
Cu1 N2 1.968756 1_555
Cu1 N10 1.968756 1_555
Cu1 N7 1.968765 1_555
As0 F44 1.770243 1_545
As0 F35 1.773013 1_555
As0 F12 1.773013 1_555
As0 F33 1.780151 1_545
As0 F22 1.780151 1_555
As0 F21 1.790700 1_555
As1 F41 1.770243 1_555
As1 F42 1.773013 1_555
As1 F9 1.773013 1_554
As1 F52 1.780151 1_555
As1 F40 1.780151 1_554
As1 F11 1.790700 1_555
As2 F53 1.770243 1_655
As2 F48 1.773013 1_555
As2 F51 1.773013 1_555
As2 F45 1.780151 1_555
As2 F16 1.780151 1_655
As2 F31 1.790700 1_555
As3 F10 1.770243 1_555
As3 F43 1.773013 1_554
As3 F55 1.773013 1_555
As3 F7 1.780151 1_555
As3 F19 1.780151 1_554
As3 F6 1.790700 1_555
N0 S9 1.520778 1_545
N0 S11 1.601956 1_455
N1 S0 1.520778 1_555
N1 S12 1.601956 1_555
N2 S1 1.428680 1_555
N3 S3 1.428686 1_555
N4 S7 1.520786 1_555
N4 S15 1.601964 1_555
N5 S4 1.520782 1_555
N5 S6 1.601960 1_555
N6 S2 1.428686 1_555
N7 S11 1.428679 1_555
N8 S8 1.520782 1_555
N8 S2 1.601960 1_555
N9 S12 1.428679 1_555
N10 S14 1.428680 1_555
N11 S13 1.520782 1_554
N11 S1 1.601960 1_565
N12 S6 1.428680 1_555
N13 S5 1.520782 1_656
N13 S3 1.601960 1_555
N14 S15 1.428680 1_555
N15 S10 1.520786 1_555
N15 S14 1.601964 1_555
O0 S13 1.405822 1_555
O1 S10 1.405822 1_555
O2 S8 1.405828 1_555
O3 S9 1.405835 1_555
O4 S0 1.405835 1_555
O5 S4 1.405822 1_555
O6 S5 1.405828 1_555
O7 S7 1.405822 1_555
F0 S1 1.590122 1_555
F1 S10 1.558685 1_555
F2 S7 1.555734 1_555
F3 S11 1.594532 1_455
F4 S3 1.590122 1_555
F5 S11 1.590122 1_555
F8 S4 1.555734 1_555
F13 S12 1.594532 1_566
F14 S5 1.558685 1_655
F15 S15 1.594539 1_554
F17 S15 1.590122 1_655
F18 S14 1.594539 1_555
F20 S6 1.594532 1_555
F23 S10 1.555734 1_555
F24 S13 1.558685 1_555
F25 S9 1.558685 1_545
F26 S13 1.555734 1_555
F27 S2 1.590122 1_545
F28 S14 1.590122 1_555
F29 S1 1.594532 1_565
F30 S8 1.555734 1_555
F32 S4 1.558685 1_555
F34 S12 1.590122 1_555
F36 S5 1.555734 1_555
F37 S8 1.558685 1_555
F38 S7 1.558685 1_554
F39 S3 1.594532 1_555
F46 S2 1.594532 1_455
F47 S0 1.555734 1_555
F49 S6 1.590122 1_555
F50 S9 1.555734 1_555
F54 S0 1.558685 1_556
