# generated using pymatgen
data_SrZn(SeO3)2
_symmetry_space_group_name_H-M   'P 1'
_cell_length_a   15.17288900
_cell_length_b   4.58023400
_cell_length_c   10.18503074
_cell_angle_alpha   68.75616590
_cell_angle_beta   90.00000000
_cell_angle_gamma   90.00000000
_symmetry_Int_Tables_number   1
_chemical_formula_structural   SrZn(SeO3)2
_chemical_formula_sum   'Sr4 Zn4 Se8 O24'
_cell_volume   659.71451939
_cell_formula_units_Z   4
loop_
 _symmetry_equiv_pos_site_id
 _symmetry_equiv_pos_as_xyz
  1  'x, y, z'
loop_
 _atom_site_type_symbol
 _atom_site_label
 _atom_site_symmetry_multiplicity
 _atom_site_fract_x
 _atom_site_fract_y
 _atom_site_fract_z
 _atom_site_occupancy
  Sr  Sr0  1  0.11666400  0.28753700  0.45922100  1
  Sr  Sr1  1  0.38333600  0.28753700  0.95922100  1
  Sr  Sr2  1  0.88333600  0.71246300  0.54077900  1
  Sr  Sr3  1  0.61666400  0.71246300  0.04077900  1
  Zn  Zn0  1  0.84868000  0.50797100  0.22266500  1
  Zn  Zn1  1  0.65132000  0.50797100  0.72266500  1
  Zn  Zn2  1  0.34868000  0.49202900  0.27733500  1
  Zn  Zn3  1  0.15132000  0.49202900  0.77733500  1
  Se  Se0  1  0.30235200  0.64025500  0.56350800  1
  Se  Se1  1  0.00520200  0.97328200  0.77946100  1
  Se  Se2  1  0.80235200  0.35974500  0.93649200  1
  Se  Se3  1  0.19764800  0.64025500  0.06350800  1
  Se  Se4  1  0.99479800  0.02671800  0.22053900  1
  Se  Se5  1  0.49479800  0.97328200  0.27946100  1
  Se  Se6  1  0.50520200  0.02671800  0.72053900  1
  Se  Se7  1  0.69764800  0.35974500  0.43649200  1
  O  O0  1  0.81006300  0.27371100  0.42612800  1
  O  O1  1  0.18752700  0.37157300  0.22882200  1
  O  O2  1  0.98019000  0.40183700  0.22048200  1
  O  O3  1  0.79046600  0.59366200  0.03851100  1
  O  O4  1  0.31006300  0.72628900  0.07387200  1
  O  O5  1  0.53432400  0.16328100  0.11052600  1
  O  O6  1  0.81247300  0.62842700  0.77117800  1
  O  O7  1  0.03432400  0.83671900  0.38947400  1
  O  O8  1  0.46567600  0.83671900  0.88947400  1
  O  O9  1  0.38344900  0.07966400  0.25650300  1
  O  O10  1  0.01981000  0.59816300  0.77951800  1
  O  O11  1  0.70953400  0.59366200  0.53851100  1
  O  O12  1  0.96567600  0.16328100  0.61052600  1
  O  O13  1  0.68993700  0.27371100  0.92612800  1
  O  O14  1  0.18993700  0.72628900  0.57387200  1
  O  O15  1  0.48019000  0.59816300  0.27951800  1
  O  O16  1  0.51981000  0.40183700  0.72048200  1
  O  O17  1  0.20953400  0.40633800  0.96148900  1
  O  O18  1  0.11655100  0.07966400  0.75650300  1
  O  O19  1  0.61655100  0.92033600  0.74349700  1
  O  O20  1  0.31247300  0.37157300  0.72882200  1
  O  O21  1  0.88344900  0.92033600  0.24349700  1
  O  O22  1  0.29046600  0.40633800  0.46148900  1
  O  O23  1  0.68752700  0.62842700  0.27117800  1
loop_
_geom_bond_atom_site_label_1
_geom_bond_atom_site_label_2
_geom_bond_distance
_geom_bond_site_symmetry_2
O0 Se7 1.762340 1_555
O0 Zn0 2.043918 1_555
O0 Sr2 2.651884 1_545
O0 Sr2 2.887662 1_555
O1 Se3 1.694523 1_555
O1 Sr0 2.481186 1_555
O2 Se4 1.732162 1_555
O2 Zn0 2.055774 1_555
O2 Sr0 3.090615 1_655
O3 Se2 1.751233 1_554
O3 Zn0 1.979565 1_555
O3 Sr3 2.694422 1_555
O4 Se3 1.762340 1_555
O4 Zn2 2.043918 1_555
O4 Sr1 2.651884 1_564
O4 Sr1 2.887662 1_554
O5 Se5 1.729853 1_545
O5 Sr3 2.664155 1_555
O5 Sr1 2.703976 1_554
O5 Sr3 2.718833 1_545
O6 Se2 1.694523 1_555
O6 Sr2 2.481186 1_555
O7 Se4 1.729853 1_465
O7 Sr0 2.664155 1_555
O7 Sr2 2.703976 1_455
O7 Sr0 2.718833 1_565
O8 Se6 1.729853 1_565
O8 Sr1 2.664155 1_555
O8 Sr3 2.703976 1_556
O8 Sr1 2.718833 1_565
O9 Se5 1.750397 1_545
O9 Zn2 2.044755 1_555
O9 Sr1 2.825799 1_554
O10 Se1 1.732162 1_555
O10 Zn3 2.055774 1_555
O10 Sr2 3.090615 1_455
O11 Se7 1.751233 1_555
O11 Zn1 1.979565 1_555
O11 Sr2 2.694422 1_555
O12 Se1 1.729853 1_645
O12 Sr2 2.664155 1_555
O12 Sr0 2.703976 1_655
O12 Sr2 2.718833 1_545
O13 Se2 1.762340 1_555
O13 Zn1 2.043918 1_555
O13 Sr3 2.651884 1_546
O13 Sr3 2.887662 1_556
O14 Se0 1.762340 1_555
O14 Zn3 2.043918 1_555
O14 Sr0 2.651884 1_565
O14 Sr0 2.887662 1_555
O15 Se5 1.732162 1_555
O15 Zn2 2.055774 1_555
O15 Sr3 3.090615 1_555
O16 Se6 1.732162 1_555
O16 Zn1 2.055774 1_555
O16 Sr1 3.090615 1_555
O17 Se3 1.751233 1_556
O17 Zn3 1.979565 1_555
O17 Sr1 2.694422 1_555
O18 Se1 1.750397 1_545
O18 Zn3 2.044755 1_555
O18 Sr0 2.825799 1_555
O19 Se6 1.750397 1_565
O19 Zn1 2.044755 1_555
O19 Sr3 2.825799 1_556
O20 Se0 1.694523 1_555
O20 Sr1 2.481186 1_555
O21 Se4 1.750397 1_565
O21 Zn0 2.044755 1_555
O21 Sr2 2.825799 1_555
O22 Se0 1.751233 1_555
O22 Zn2 1.979565 1_555
O22 Sr0 2.694422 1_555
O23 Se7 1.694523 1_555
O23 Sr3 2.481186 1_555
