# generated using pymatgen
data_EuAg5
_symmetry_space_group_name_H-M   'P 1'
_cell_length_a   5.63395216
_cell_length_b   5.63394566
_cell_length_c   4.63921701
_cell_angle_alpha   90.00000000
_cell_angle_beta   90.00000000
_cell_angle_gamma   119.99981790
_symmetry_Int_Tables_number   1
_chemical_formula_structural   EuAg5
_chemical_formula_sum   'Eu1 Ag5'
_cell_volume   127.52693596
_cell_formula_units_Z   1
loop_
 _symmetry_equiv_pos_site_id
 _symmetry_equiv_pos_as_xyz
  1  'x, y, z'
loop_
 _atom_site_type_symbol
 _atom_site_label
 _atom_site_symmetry_multiplicity
 _atom_site_fract_x
 _atom_site_fract_y
 _atom_site_fract_z
 _atom_site_occupancy
  Eu  Eu0  1  0.00000000  0.00000000  -0.00000000  1
  Ag  Ag0  1  0.33333200  0.66666700  0.00000000  1
  Ag  Ag1  1  0.66666800  0.33333300  0.00000000  1
  Ag  Ag2  1  0.50000000  0.00000000  0.50000000  1
  Ag  Ag3  1  0.50000000  0.50000000  0.50000000  1
  Ag  Ag4  1  0.00000000  0.50000000  0.50000000  1
loop_
_geom_bond_atom_site_label_1
_geom_bond_atom_site_label_2
_geom_bond_distance
_geom_bond_site_symmetry_2
Ag0 Ag4 2.832965 1_555
Ag0 Ag4 2.832965 1_554
Ag0 Ag2 2.832967 1_565
Ag0 Ag2 2.832967 1_564
Ag0 Ag3 2.832970 1_555
Ag0 Ag3 2.832970 1_554
Ag0 Eu0 3.252751 1_565
Ag0 Ag1 3.252757 1_455
Ag0 Ag1 3.252763 1_565
Ag0 Eu0 3.252768 1_555
Ag0 Ag1 3.252775 1_555
Ag0 Eu0 3.252776 1_665
Ag1 Ag4 2.832965 1_655
Ag1 Ag4 2.832965 1_654
Ag1 Ag2 2.832967 1_555
Ag1 Ag2 2.832967 1_554
Ag1 Ag3 2.832970 1_555
Ag1 Ag3 2.832970 1_554
Ag1 Eu0 3.252751 1_655
Ag1 Eu0 3.252768 1_665
Ag1 Eu0 3.252776 1_555
Ag2 Ag3 2.816973 1_555
Ag2 Ag3 2.816973 1_545
Ag2 Ag4 2.816982 1_655
Ag2 Ag4 2.816982 1_545
Ag2 Eu0 3.649101 1_556
Ag2 Eu0 3.649101 1_655
Ag2 Eu0 3.649101 1_656
Ag2 Eu0 3.649101 1_555
Ag3 Ag4 2.816976 1_655
Ag3 Ag4 2.816976 1_555
Ag3 Eu0 3.649106 1_556
Ag3 Eu0 3.649106 1_665
Ag3 Eu0 3.649106 1_666
Ag3 Eu0 3.649106 1_555
Ag4 Eu0 3.649098 1_565
Ag4 Eu0 3.649098 1_555
Ag4 Eu0 3.649098 1_556
Ag4 Eu0 3.649098 1_566
