# generated using pymatgen
data_Ba(FeBr4)2
_symmetry_space_group_name_H-M   'P 1'
_cell_length_a   11.51282800
_cell_length_b   13.48696000
_cell_length_c   22.27164100
_cell_angle_alpha   90.00000000
_cell_angle_beta   90.00000000
_cell_angle_gamma   90.00000000
_symmetry_Int_Tables_number   1
_chemical_formula_structural   Ba(FeBr4)2
_chemical_formula_sum   'Ba8 Fe16 Br64'
_cell_volume   3458.18564267
_cell_formula_units_Z   8
loop_
 _symmetry_equiv_pos_site_id
 _symmetry_equiv_pos_as_xyz
  1  'x, y, z'
loop_
 _atom_site_type_symbol
 _atom_site_label
 _atom_site_symmetry_multiplicity
 _atom_site_fract_x
 _atom_site_fract_y
 _atom_site_fract_z
 _atom_site_occupancy
  Ba  Ba0  1  0.15214900  0.47062000  0.38760900  1
  Ba  Ba1  1  0.65214900  0.52938000  0.11239100  1
  Ba  Ba2  1  0.34785100  0.47062000  0.88760900  1
  Ba  Ba3  1  0.15214900  0.97062000  0.11239100  1
  Ba  Ba4  1  0.84785100  0.02938000  0.88760900  1
  Ba  Ba5  1  0.84785100  0.52938000  0.61239100  1
  Ba  Ba6  1  0.65214900  0.02938000  0.38760900  1
  Ba  Ba7  1  0.34785100  0.97062000  0.61239100  1
  Fe  Fe0  1  0.11098900  0.02999300  0.75340900  1
  Fe  Fe1  1  0.38901100  0.52999300  0.24659100  1
  Fe  Fe2  1  0.77618700  0.27098800  0.49565300  1
  Fe  Fe3  1  0.72381300  0.77098800  0.50434700  1
  Fe  Fe4  1  0.27618700  0.72901200  0.00434700  1
  Fe  Fe5  1  0.77618700  0.77098800  0.00434700  1
  Fe  Fe6  1  0.38901100  0.02999300  0.25340900  1
  Fe  Fe7  1  0.72381300  0.27098800  0.99565300  1
  Fe  Fe8  1  0.27618700  0.22901200  0.49565300  1
  Fe  Fe9  1  0.22381300  0.72901200  0.50434700  1
  Fe  Fe10  1  0.88901100  0.97000700  0.24659100  1
  Fe  Fe11  1  0.61098900  0.97000700  0.74659100  1
  Fe  Fe12  1  0.61098900  0.47000700  0.75340900  1
  Fe  Fe13  1  0.22381300  0.22901200  0.99565300  1
  Fe  Fe14  1  0.11098900  0.52999300  0.74659100  1
  Fe  Fe15  1  0.88901100  0.47000700  0.25340900  1
  Br  Br0  1  0.28565400  0.11537300  0.73358000  1
  Br  Br1  1  0.61381200  0.05691700  0.65435900  1
  Br  Br2  1  0.81655600  0.78341900  0.59802700  1
  Br  Br3  1  0.68344400  0.28341900  0.40197300  1
  Br  Br4  1  0.18344400  0.71658100  0.09802700  1
  Br  Br5  1  0.11381200  0.44308300  0.65435900  1
  Br  Br6  1  0.68373100  0.60124800  0.49082200  1
  Br  Br7  1  0.04576300  0.35791200  0.26153100  1
  Br  Br8  1  0.44931200  0.63027400  0.00082500  1
  Br  Br9  1  0.45423700  0.35791200  0.76153100  1
  Br  Br10  1  0.95423700  0.14208800  0.76153100  1
  Br  Br11  1  0.31655600  0.71658100  0.59802700  1
  Br  Br12  1  0.16230900  0.66301300  0.92643900  1
  Br  Br13  1  0.11381200  0.94308300  0.84564100  1
  Br  Br14  1  0.21434600  0.61537300  0.26642000  1
  Br  Br15  1  0.08951000  0.91659000  0.67306200  1
  Br  Br16  1  0.54576300  0.14208800  0.26153100  1
  Br  Br17  1  0.88618800  0.55691700  0.34564100  1
  Br  Br18  1  0.66230900  0.33698700  0.57356100  1
  Br  Br19  1  0.38618800  0.94308300  0.34564100  1
  Br  Br20  1  0.81626900  0.10124800  0.50917800  1
  Br  Br21  1  0.68344400  0.78341900  0.09802700  1
  Br  Br22  1  0.81626900  0.60124800  0.99082200  1
  Br  Br23  1  0.58951000  0.58341000  0.67306200  1
  Br  Br24  1  0.31626900  0.39875200  0.50917800  1
  Br  Br25  1  0.78565400  0.88462700  0.76642000  1
  Br  Br26  1  0.08951000  0.41659000  0.82693800  1
  Br  Br27  1  0.94931200  0.86972600  0.00082500  1
  Br  Br28  1  0.05068800  0.13027400  0.99917500  1
  Br  Br29  1  0.41049000  0.91659000  0.17306200  1
  Br  Br30  1  0.88618800  0.05691700  0.15435900  1
  Br  Br31  1  0.18373100  0.89875200  0.49082200  1
  Br  Br32  1  0.66230900  0.83698700  0.92643900  1
  Br  Br33  1  0.54576300  0.64208800  0.23846900  1
  Br  Br34  1  0.18373100  0.39875200  0.00917800  1
  Br  Br35  1  0.58951000  0.08341000  0.82693800  1
  Br  Br36  1  0.41049000  0.41659000  0.32693800  1
  Br  Br37  1  0.31655600  0.21658100  0.90197300  1
  Br  Br38  1  0.33769100  0.66301300  0.42643900  1
  Br  Br39  1  0.33769100  0.16301300  0.07356100  1
  Br  Br40  1  0.28565400  0.61537300  0.76642000  1
  Br  Br41  1  0.95423700  0.64208800  0.73846900  1
  Br  Br42  1  0.44931200  0.13027400  0.49917500  1
  Br  Br43  1  0.05068800  0.63027400  0.50082500  1
  Br  Br44  1  0.16230900  0.16301300  0.57356100  1
  Br  Br45  1  0.91049000  0.08341000  0.32693800  1
  Br  Br46  1  0.68373100  0.10124800  0.00917800  1
  Br  Br47  1  0.91049000  0.58341000  0.17306200  1
  Br  Br48  1  0.18344400  0.21658100  0.40197300  1
  Br  Br49  1  0.45423700  0.85791200  0.73846900  1
  Br  Br50  1  0.04576300  0.85791200  0.23846900  1
  Br  Br51  1  0.94931200  0.36972600  0.49917500  1
  Br  Br52  1  0.55068800  0.36972600  0.99917500  1
  Br  Br53  1  0.78565400  0.38462700  0.73358000  1
  Br  Br54  1  0.71434600  0.88462700  0.26642000  1
  Br  Br55  1  0.55068800  0.86972600  0.50082500  1
  Br  Br56  1  0.21434600  0.11537300  0.23358000  1
  Br  Br57  1  0.83769100  0.83698700  0.42643900  1
  Br  Br58  1  0.61381200  0.55691700  0.84564100  1
  Br  Br59  1  0.83769100  0.33698700  0.07356100  1
  Br  Br60  1  0.38618800  0.44308300  0.15435900  1
  Br  Br61  1  0.31626900  0.89875200  0.99082200  1
  Br  Br62  1  0.81655600  0.28341900  0.90197300  1
  Br  Br63  1  0.71434600  0.38462700  0.23358000  1
loop_
_geom_bond_atom_site_label_1
_geom_bond_atom_site_label_2
_geom_bond_distance
_geom_bond_site_symmetry_2
Ba0 Br36 3.347079 1_555
Ba0 Br17 3.406450 1_455
Ba0 Br14 3.407221 1_555
Ba0 Br7 3.419865 1_555
Ba0 Br24 3.440994 1_555
Ba0 Br48 3.459927 1_555
Ba0 Br38 3.470424 1_555
Ba0 Br43 3.515527 1_555
Ba0 Br51 3.671370 1_455
Ba1 Br47 3.347079 1_555
Ba1 Br60 3.406450 1_555
Ba1 Br63 3.407221 1_555
Ba1 Br33 3.419865 1_555
Ba1 Br22 3.440994 1_554
Ba1 Br21 3.459927 1_555
Ba1 Br59 3.470424 1_555
Ba1 Br52 3.515527 1_554
Ba1 Br8 3.671370 1_555
Ba2 Br26 3.347079 1_555
Ba2 Br58 3.406450 1_555
Ba2 Br40 3.407221 1_555
Ba2 Br9 3.419865 1_555
Ba2 Br34 3.440994 1_556
Ba2 Br37 3.459927 1_555
Ba2 Br12 3.470424 1_555
Ba2 Br8 3.515527 1_556
Ba2 Br52 3.671370 1_555
Ba3 Br29 3.347079 1_555
Ba3 Br30 3.406450 1_465
Ba3 Br56 3.407221 1_565
Ba3 Br50 3.419865 1_555
Ba3 Br61 3.440994 1_554
Ba3 Br4 3.459927 1_555
Ba3 Br39 3.470424 1_565
Ba3 Br28 3.515527 1_564
Ba3 Br27 3.671370 1_455
Ba4 Br35 3.347079 1_555
Ba4 Br13 3.406450 1_645
Ba4 Br25 3.407221 1_545
Ba4 Br10 3.419865 1_555
Ba4 Br46 3.440994 1_556
Ba4 Br62 3.459927 1_555
Ba4 Br32 3.470424 1_545
Ba4 Br27 3.515527 1_546
Ba4 Br28 3.671370 1_655
Ba5 Br23 3.347079 1_555
Ba5 Br5 3.406450 1_655
Ba5 Br53 3.407221 1_555
Ba5 Br41 3.419865 1_555
Ba5 Br6 3.440994 1_555
Ba5 Br2 3.459927 1_555
Ba5 Br18 3.470424 1_555
Ba5 Br51 3.515527 1_555
Ba5 Br43 3.671370 1_655
Ba6 Br45 3.347079 1_555
Ba6 Br19 3.406450 1_545
Ba6 Br54 3.407221 1_545
Ba6 Br16 3.419865 1_555
Ba6 Br20 3.440994 1_555
Ba6 Br3 3.459927 1_555
Ba6 Br57 3.470424 1_545
Ba6 Br55 3.515527 1_545
Ba6 Br42 3.671370 1_555
Ba7 Br15 3.347079 1_555
Ba7 Br1 3.406450 1_565
Ba7 Br0 3.407221 1_565
Ba7 Br49 3.419865 1_555
Ba7 Br31 3.440994 1_555
Ba7 Br11 3.459927 1_555
Ba7 Br44 3.470424 1_565
Ba7 Br42 3.515527 1_565
Ba7 Br55 3.671370 1_555
Br0 Fe0 2.358960 1_555
Br1 Fe11 2.365282 1_545
Br2 Fe3 2.349736 1_555
Br3 Fe2 2.349736 1_555
Br4 Fe4 2.349736 1_555
Br5 Fe14 2.365282 1_555
Br6 Fe3 2.354669 1_555
Br7 Fe15 2.361169 1_455
Br8 Fe4 2.398373 1_555
Br9 Fe12 2.361169 1_555
Br10 Fe0 2.361169 1_655
Br11 Fe9 2.349736 1_555
Br12 Fe4 2.349873 1_556
Br13 Fe0 2.365282 1_565
Br14 Fe1 2.358960 1_555
Br15 Fe0 2.366974 1_565
Br16 Fe6 2.361169 1_555
Br17 Fe15 2.365282 1_555
Br18 Fe2 2.349873 1_555
Br19 Fe6 2.365282 1_565
Br20 Fe2 2.354669 1_555
Br21 Fe5 2.349736 1_555
Br22 Fe5 2.354669 1_556
Br23 Fe12 2.366974 1_555
Br24 Fe8 2.354669 1_555
Br25 Fe11 2.358960 1_555
Br26 Fe14 2.366974 1_555
Br27 Fe5 2.398373 1_555
Br28 Fe13 2.398373 1_555
Br29 Fe6 2.366974 1_565
Br30 Fe10 2.365282 1_545
Br31 Fe9 2.354669 1_555
Br32 Fe5 2.349873 1_556
Br33 Fe1 2.361169 1_555
Br34 Fe13 2.354669 1_554
Br35 Fe11 2.366974 1_545
Br36 Fe1 2.366974 1_555
Br37 Fe13 2.349736 1_555
Br38 Fe9 2.349873 1_555
Br39 Fe13 2.349873 1_554
Br40 Fe14 2.358960 1_555
Br41 Fe14 2.361169 1_655
Br42 Fe8 2.398373 1_555
Br43 Fe9 2.398373 1_555
Br44 Fe8 2.349873 1_555
Br45 Fe10 2.366974 1_545
Br46 Fe7 2.354669 1_554
Br47 Fe15 2.366974 1_555
Br48 Fe8 2.349736 1_555
Br49 Fe11 2.361169 1_555
Br50 Fe10 2.361169 1_455
Br51 Fe2 2.398373 1_555
Br52 Fe7 2.398373 1_555
Br53 Fe12 2.358960 1_555
Br54 Fe10 2.358960 1_555
Br55 Fe3 2.398373 1_555
Br56 Fe6 2.358960 1_555
Br57 Fe3 2.349873 1_555
Br58 Fe12 2.365282 1_555
Br59 Fe7 2.349873 1_554
Br60 Fe1 2.365282 1_555
Br61 Fe4 2.354669 1_556
Br62 Fe7 2.349736 1_555
Br63 Fe15 2.358960 1_555
