# generated using pymatgen
data_Mn
_symmetry_space_group_name_H-M   'P 1'
_cell_length_a   6.70557178
_cell_length_b   6.70544575
_cell_length_c   6.70567603
_cell_angle_alpha   89.99390687
_cell_angle_beta   89.99145359
_cell_angle_gamma   90.00603661
_symmetry_Int_Tables_number   1
_chemical_formula_structural   Mn
_chemical_formula_sum   Mn20
_cell_volume   301.51298940
_cell_formula_units_Z   20
loop_
 _symmetry_equiv_pos_site_id
 _symmetry_equiv_pos_as_xyz
  1  'x, y, z'
loop_
 _atom_site_type_symbol
 _atom_site_label
 _atom_site_symmetry_multiplicity
 _atom_site_fract_x
 _atom_site_fract_y
 _atom_site_fract_z
 _atom_site_occupancy
  Mn  Mn0  1  0.05386651  0.05397742  0.05400006  1
  Mn  Mn1  1  0.30410375  0.19585268  0.80389516  1
  Mn  Mn2  1  0.80417242  0.30420116  0.19582418  1
  Mn  Mn3  1  0.19616973  0.80405387  0.30407120  1
  Mn  Mn4  1  0.44597267  0.94598549  0.55400624  1
  Mn  Mn5  1  0.55395933  0.44603966  0.94614632  1
  Mn  Mn6  1  0.94605480  0.55383326  0.44603749  1
  Mn  Mn7  1  0.69586924  0.69616767  0.69589881  1
  Mn  Mn8  1  0.12493808  0.19922190  0.44925198  1
  Mn  Mn9  1  0.37495819  0.80095750  0.94920709  1
  Mn  Mn10  1  0.87504938  0.69915153  0.05082756  1
  Mn  Mn11  1  0.19914948  0.44915297  0.12487955  1
  Mn  Mn12  1  0.80062867  0.94926769  0.37488374  1
  Mn  Mn13  1  0.05078850  0.87498882  0.69907175  1
  Mn  Mn14  1  0.44926008  0.12511789  0.19936648  1
  Mn  Mn15  1  0.30092205  0.55081513  0.62511112  1
  Mn  Mn16  1  0.94913480  0.37499969  0.80082529  1
  Mn  Mn17  1  0.55071209  0.62486683  0.30080962  1
  Mn  Mn18  1  0.69919351  0.05073749  0.87513794  1
  Mn  Mn19  1  0.62509475  0.30061134  0.55074840  1
loop_
_geom_bond_atom_site_label_1
_geom_bond_atom_site_label_2
_geom_bond_distance
_geom_bond_site_symmetry_2
Mn0 Mn2 2.554124 1_455
Mn0 Mn3 2.555623 1_545
Mn0 Mn1 2.555757 1_554
Mn0 Mn18 2.663850 1_454
Mn0 Mn10 2.664310 1_445
Mn0 Mn13 2.665724 1_544
Mn0 Mn12 2.829288 1_445
Mn0 Mn9 2.829967 1_544
Mn0 Mn16 2.830016 1_454
Mn0 Mn11 2.862941 1_555
Mn0 Mn8 2.863787 1_555
Mn0 Mn14 2.864954 1_555
Mn1 Mn4 2.553535 1_545
Mn1 Mn5 2.555694 1_555
Mn1 Mn8 2.664621 1_555
Mn1 Mn15 2.665036 1_555
Mn1 Mn16 2.666411 1_455
Mn1 Mn19 2.829541 1_555
Mn1 Mn13 2.829915 1_545
Mn1 Mn11 2.830840 1_556
Mn1 Mn9 2.861242 1_545
Mn1 Mn18 2.862639 1_555
Mn1 Mn14 2.864538 1_556
Mn2 Mn6 2.554018 1_555
Mn2 Mn5 2.554141 1_554
Mn2 Mn8 2.830388 1_655
Mn3 Mn4 2.553701 1_555
Mn3 Mn6 2.555951 1_455
Mn3 Mn9 2.664474 1_554
Mn3 Mn8 2.863201 1_565
Mn4 Mn7 2.553452 1_555
Mn4 Mn8 2.830552 1_565
Mn4 Mn9 2.862590 1_555
Mn5 Mn7 2.555997 1_555
Mn5 Mn9 2.665633 1_555
Mn6 Mn7 2.555871 1_555
Mn6 Mn8 2.663449 1_655
Mn7 Mn9 2.830037 1_555
Mn10 Mn7 2.666355 1_554
Mn10 Mn11 2.789405 1_655
Mn10 Mn16 2.789703 1_554
Mn10 Mn12 2.790064 1_555
Mn10 Mn17 2.790456 1_555
Mn10 Mn5 2.830030 1_554
Mn10 Mn3 2.831304 1_655
Mn10 Mn2 2.860750 1_555
Mn10 Mn6 2.863463 1_555
Mn10 Mn18 2.887372 1_564
Mn10 Mn13 2.888068 1_654
Mn11 Mn5 2.663958 1_554
Mn11 Mn3 2.666112 1_555
Mn11 Mn16 2.789434 1_454
Mn11 Mn14 2.790002 1_555
Mn11 Mn8 2.790380 1_555
Mn11 Mn6 2.830264 1_455
Mn11 Mn2 2.860913 1_455
Mn11 Mn17 2.887563 1_555
Mn11 Mn9 2.888046 1_554
Mn12 Mn4 2.664216 1_555
Mn12 Mn2 2.665707 1_565
Mn12 Mn17 2.790444 1_555
Mn12 Mn8 2.790487 1_665
Mn12 Mn13 2.790849 1_655
Mn12 Mn7 2.829503 1_555
Mn12 Mn3 2.865088 1_655
Mn12 Mn6 2.865277 1_555
Mn12 Mn19 2.885704 1_565
Mn12 Mn14 2.885844 1_565
Mn13 Mn7 2.664911 1_455
Mn13 Mn8 2.789110 1_565
Mn13 Mn15 2.790182 1_555
Mn13 Mn9 2.790367 1_555
Mn13 Mn6 2.830296 1_455
Mn13 Mn3 2.862176 1_555
Mn13 Mn4 2.862504 1_555
Mn13 Mn18 2.888124 1_465
Mn14 Mn4 2.664208 1_545
Mn14 Mn2 2.665674 1_555
Mn14 Mn8 2.789917 1_555
Mn14 Mn18 2.789963 1_554
Mn14 Mn9 2.790647 1_544
Mn14 Mn5 2.829394 1_554
Mn14 Mn3 2.829594 1_545
Mn14 Mn19 2.885834 1_555
Mn15 Mn6 2.665642 1_455
Mn15 Mn17 2.789228 1_555
Mn15 Mn9 2.789970 1_555
Mn15 Mn19 2.790931 1_555
Mn15 Mn5 2.829837 1_555
Mn15 Mn3 2.830424 1_555
Mn15 Mn7 2.861632 1_555
Mn15 Mn4 2.862489 1_555
Mn15 Mn16 2.888090 1_455
Mn15 Mn8 2.888228 1_555
Mn16 Mn6 2.664189 1_555
Mn16 Mn19 2.789863 1_555
Mn16 Mn18 2.789933 1_555
Mn16 Mn7 2.831596 1_555
Mn16 Mn2 2.860931 1_556
Mn16 Mn5 2.863208 1_555
Mn16 Mn8 2.887388 1_655
Mn17 Mn5 2.663655 1_554
Mn17 Mn3 2.663985 1_555
Mn17 Mn19 2.790156 1_555
Mn17 Mn2 2.829905 1_555
Mn17 Mn4 2.830757 1_555
Mn17 Mn7 2.862859 1_555
Mn17 Mn6 2.864261 1_555
Mn17 Mn9 2.888352 1_554
Mn18 Mn7 2.664292 1_545
Mn18 Mn9 2.788861 1_545
Mn18 Mn19 2.790283 1_555
Mn18 Mn2 2.830090 1_556
Mn18 Mn4 2.831054 1_545
Mn18 Mn5 2.863901 1_555
Mn19 Mn4 2.664031 1_545
Mn19 Mn2 2.665728 1_555
Mn19 Mn6 2.829610 1_555
Mn19 Mn7 2.864987 1_555
Mn19 Mn5 2.865086 1_555
