# generated using pymatgen
data_RbSnS4
_symmetry_space_group_name_H-M   'P 1'
_cell_length_a   10.05223666
_cell_length_b   13.94639021
_cell_length_c   19.87825316
_cell_angle_alpha   90.00000000
_cell_angle_beta   90.00000000
_cell_angle_gamma   90.00000000
_symmetry_Int_Tables_number   1
_chemical_formula_structural   RbSnS4
_chemical_formula_sum   'Rb16 Sn16 S64'
_cell_volume   2786.78031536
_cell_formula_units_Z   16
loop_
 _symmetry_equiv_pos_site_id
 _symmetry_equiv_pos_as_xyz
  1  'x, y, z'
loop_
 _atom_site_type_symbol
 _atom_site_label
 _atom_site_symmetry_multiplicity
 _atom_site_fract_x
 _atom_site_fract_y
 _atom_site_fract_z
 _atom_site_occupancy
  Rb  Rb0  1  0.86028934  0.47359354  0.81205250  1
  Rb  Rb1  1  0.27166178  0.96132680  0.07135020  1
  Rb  Rb2  1  0.36028934  0.52640646  0.68794750  1
  Rb  Rb3  1  0.27166178  0.46132680  0.92864980  1
  Rb  Rb4  1  0.77166178  0.03867320  0.42864980  1
  Rb  Rb5  1  0.13971066  0.52640646  0.18794750  1
  Rb  Rb6  1  0.36028934  0.02640646  0.31205250  1
  Rb  Rb7  1  0.22833822  0.96132680  0.57135020  1
  Rb  Rb8  1  0.63971066  0.47359354  0.31205250  1
  Rb  Rb9  1  0.72833822  0.53867320  0.07135020  1
  Rb  Rb10  1  0.77166178  0.53867320  0.57135020  1
  Rb  Rb11  1  0.22833822  0.46132680  0.42864980  1
  Rb  Rb12  1  0.63971066  0.97359354  0.68794750  1
  Rb  Rb13  1  0.86028934  0.97359354  0.18794750  1
  Rb  Rb14  1  0.13971066  0.02640646  0.81205250  1
  Rb  Rb15  1  0.72833822  0.03867320  0.92864980  1
  Sn  Sn0  1  0.82524916  0.73164464  0.32605848  1
  Sn  Sn1  1  0.32524916  0.76835536  0.82605848  1
  Sn  Sn2  1  0.00000000  0.75000000  0.91732261  1
  Sn  Sn3  1  0.67475084  0.23164464  0.17394152  1
  Sn  Sn4  1  0.50000000  0.25000000  0.58267739  1
  Sn  Sn5  1  0.82524916  0.23164464  0.67394152  1
  Sn  Sn6  1  0.50000000  0.25000000  0.77070467  1
  Sn  Sn7  1  0.17475084  0.26835536  0.67394152  1
  Sn  Sn8  1  0.17475084  0.76835536  0.32605848  1
  Sn  Sn9  1  0.50000000  0.75000000  0.22929533  1
  Sn  Sn10  1  0.00000000  0.25000000  0.08267739  1
  Sn  Sn11  1  0.00000000  0.75000000  0.72929533  1
  Sn  Sn12  1  0.50000000  0.75000000  0.41732261  1
  Sn  Sn13  1  0.32524916  0.26835536  0.17394152  1
  Sn  Sn14  1  0.00000000  0.25000000  0.27070467  1
  Sn  Sn15  1  0.67475084  0.73164464  0.82605848  1
  S  S0  1  0.43655804  0.62162057  0.13982278  1
  S  S1  1  0.56456555  0.87640879  0.50881202  1
  S  S2  1  0.15547564  0.70749988  0.07892662  1
  S  S3  1  0.85824078  0.30124301  0.43783941  1
  S  S4  1  0.72226038  0.16104225  0.57652603  1
  S  S5  1  0.53606353  0.37245961  0.16927665  1
  S  S6  1  0.23234802  0.83091271  0.72262840  1
  S  S7  1  0.76765198  0.66908729  0.72262840  1
  S  S8  1  0.03606353  0.12754039  0.66927665  1
  S  S9  1  0.03606353  0.62754039  0.33072335  1
  S  S10  1  0.93543445  0.37640879  0.99118798  1
  S  S11  1  0.56344196  0.37837943  0.86017722  1
  S  S12  1  0.34452436  0.20749988  0.42107338  1
  S  S13  1  0.39889645  0.64459564  0.32356367  1
  S  S14  1  0.35824078  0.69875699  0.06216059  1
  S  S15  1  0.60110355  0.35540436  0.67643633  1
  S  S16  1  0.89889645  0.35540436  0.17643633  1
  S  S17  1  0.93655804  0.37837943  0.36017722  1
  S  S18  1  0.14175922  0.19875699  0.43783941  1
  S  S19  1  0.35824078  0.19875699  0.93783941  1
  S  S20  1  0.77773962  0.16104225  0.07652603  1
  S  S21  1  0.77773962  0.66104225  0.92347397  1
  S  S22  1  0.76765198  0.16908729  0.27737160  1
  S  S23  1  0.93655804  0.87837943  0.63982278  1
  S  S24  1  0.10110355  0.14459564  0.17643633  1
  S  S25  1  0.27773962  0.83895775  0.42347397  1
  S  S26  1  0.93543445  0.87640879  0.00881202  1
  S  S27  1  0.64175922  0.30124301  0.93783941  1
  S  S28  1  0.43655804  0.12162057  0.86017722  1
  S  S29  1  0.39889645  0.14459564  0.67643633  1
  S  S30  1  0.46393647  0.12754039  0.16927665  1
  S  S31  1  0.64175922  0.80124301  0.06216059  1
  S  S32  1  0.26765198  0.33091271  0.77737160  1
  S  S33  1  0.56344196  0.87837943  0.13982278  1
  S  S34  1  0.96393647  0.87245961  0.33072335  1
  S  S35  1  0.73234802  0.16908729  0.77737160  1
  S  S36  1  0.26765198  0.83091271  0.22262840  1
  S  S37  1  0.46393647  0.62754039  0.83072335  1
  S  S38  1  0.72226038  0.66104225  0.42347397  1
  S  S39  1  0.22226038  0.33895775  0.07652603  1
  S  S40  1  0.15547564  0.20749988  0.92107338  1
  S  S41  1  0.27773962  0.33895775  0.57652603  1
  S  S42  1  0.06456555  0.62359121  0.00881202  1
  S  S43  1  0.10110355  0.64459564  0.82356367  1
  S  S44  1  0.65547564  0.79250012  0.57892662  1
  S  S45  1  0.53606353  0.87245961  0.83072335  1
  S  S46  1  0.23234802  0.33091271  0.27737160  1
  S  S47  1  0.85824078  0.80124301  0.56216059  1
  S  S48  1  0.89889645  0.85540436  0.82356367  1
  S  S49  1  0.56456555  0.37640879  0.49118798  1
  S  S50  1  0.84452436  0.79250012  0.07892662  1
  S  S51  1  0.43543445  0.12359121  0.49118798  1
  S  S52  1  0.60110355  0.85540436  0.32356367  1
  S  S53  1  0.73234802  0.66908729  0.22262840  1
  S  S54  1  0.84452436  0.29250012  0.92107338  1
  S  S55  1  0.06344196  0.62162057  0.63982278  1
  S  S56  1  0.96393647  0.37245961  0.66927665  1
  S  S57  1  0.65547564  0.29250012  0.42107338  1
  S  S58  1  0.14175922  0.69875699  0.56216059  1
  S  S59  1  0.43543445  0.62359121  0.50881202  1
  S  S60  1  0.06344196  0.12162057  0.36017722  1
  S  S61  1  0.22226038  0.83895775  0.92347397  1
  S  S62  1  0.06456555  0.12359121  0.99118798  1
  S  S63  1  0.34452436  0.70749988  0.57892662  1
loop_
_geom_bond_atom_site_label_1
_geom_bond_atom_site_label_2
_geom_bond_distance
_geom_bond_site_symmetry_2
Rb0 S54 3.331709 1_555
Rb0 S56 3.336152 1_555
Rb0 S7 3.385326 1_555
Rb0 S11 3.403320 1_555
Rb0 S43 3.405851 1_655
Rb0 S21 3.525396 1_555
Rb0 S10 3.884283 1_555
Rb1 S33 3.434182 1_555
Rb1 S61 3.435098 1_554
Rb1 S62 3.463262 1_564
Rb1 S36 3.514628 1_555
Rb1 S30 3.591441 1_565
Rb1 S24 3.719668 1_565
Rb1 S2 3.730701 1_555
Rb1 S14 3.768333 1_555
Rb1 S26 3.790948 1_455
Rb2 S63 3.331709 1_555
Rb2 S37 3.336152 1_555
Rb2 S32 3.385326 1_555
Rb2 S55 3.403320 1_555
Rb2 S15 3.405851 1_555
Rb2 S41 3.525396 1_555
Rb2 S59 3.884283 1_555
Rb3 S11 3.434182 1_555
Rb3 S39 3.435098 1_556
Rb3 S42 3.463262 1_556
Rb3 S32 3.514628 1_555
Rb3 S37 3.591441 1_555
Rb3 S43 3.719668 1_555
Rb3 S40 3.730701 1_555
Rb3 S19 3.768333 1_555
Rb3 S10 3.790948 1_455
Rb4 S60 3.434182 1_655
Rb4 S4 3.435098 1_555
Rb4 S1 3.463262 1_545
Rb4 S22 3.514628 1_555
Rb4 S34 3.591441 1_545
Rb4 S52 3.719668 1_545
Rb4 S57 3.730701 1_555
Rb4 S3 3.768333 1_555
Rb4 S51 3.790948 1_555
Rb5 S2 3.331709 1_555
Rb5 S9 3.336152 1_555
Rb5 S46 3.385326 1_555
Rb5 S0 3.403320 1_555
Rb5 S16 3.405851 1_455
Rb5 S39 3.525396 1_555
Rb5 S42 3.884283 1_555
Rb6 S12 3.331709 1_555
Rb6 S30 3.336152 1_555
Rb6 S36 3.385326 1_545
Rb6 S60 3.403320 1_555
Rb6 S52 3.405851 1_545
Rb6 S25 3.525396 1_545
Rb6 S51 3.884283 1_555
Rb7 S23 3.434182 1_455
Rb7 S25 3.435098 1_555
Rb7 S51 3.463262 1_565
Rb7 S6 3.514628 1_555
Rb7 S8 3.591441 1_565
Rb7 S29 3.719668 1_565
Rb7 S63 3.730701 1_555
Rb7 S58 3.768333 1_555
Rb7 S1 3.790948 1_555
Rb8 S57 3.331709 1_555
Rb8 S5 3.336152 1_555
Rb8 S53 3.385326 1_555
Rb8 S17 3.403320 1_555
Rb8 S13 3.405851 1_555
Rb8 S38 3.525396 1_555
Rb8 S49 3.884283 1_555
Rb9 S0 3.434182 1_555
Rb9 S21 3.435098 1_554
Rb9 S10 3.463262 1_554
Rb9 S53 3.514628 1_555
Rb9 S5 3.591441 1_555
Rb9 S16 3.719668 1_555
Rb9 S50 3.730701 1_555
Rb9 S31 3.768333 1_555
Rb9 S42 3.790948 1_655
Rb10 S55 3.434182 1_655
Rb10 S38 3.435098 1_555
Rb10 S49 3.463262 1_555
Rb10 S7 3.514628 1_555
Rb10 S56 3.591441 1_555
Rb10 S15 3.719668 1_555
Rb10 S44 3.730701 1_555
Rb10 S47 3.768333 1_555
Rb10 S59 3.790948 1_555
Rb11 S17 3.434182 1_455
Rb11 S41 3.435098 1_555
Rb11 S59 3.463262 1_555
Rb11 S46 3.514628 1_555
Rb11 S9 3.591441 1_555
Rb11 S13 3.719668 1_555
Rb11 S12 3.730701 1_555
Rb11 S18 3.768333 1_555
Rb11 S49 3.790948 1_555
Rb12 S44 3.331709 1_555
Rb12 S45 3.336152 1_555
Rb12 S35 3.385326 1_565
Rb12 S23 3.403320 1_555
Rb12 S29 3.405851 1_565
Rb12 S4 3.525396 1_565
Rb12 S1 3.884283 1_555
Rb13 S50 3.331709 1_555
Rb13 S34 3.336152 1_555
Rb13 S22 3.385326 1_565
Rb13 S33 3.403320 1_555
Rb13 S24 3.405851 1_665
Rb13 S20 3.525396 1_565
Rb13 S26 3.884283 1_555
Rb14 S40 3.331709 1_555
Rb14 S8 3.336152 1_555
Rb14 S6 3.385326 1_545
Rb14 S28 3.403320 1_555
Rb14 S48 3.405851 1_445
Rb14 S61 3.525396 1_545
Rb14 S62 3.884283 1_555
Rb15 S28 3.434182 1_555
Rb15 S20 3.435098 1_556
Rb15 S26 3.463262 1_546
Rb15 S35 3.514628 1_555
Rb15 S45 3.591441 1_545
Rb15 S48 3.719668 1_545
Rb15 S54 3.730701 1_555
Rb15 S27 3.768333 1_555
Rb15 S62 3.790948 1_655
S0 S14 2.039696 1_555
S0 Sn9 2.603000 1_555
S1 S44 2.036443 1_555
S1 Sn12 2.614709 1_555
S2 S42 2.036443 1_555
S3 S57 2.068907 1_555
S4 Sn5 2.406481 1_555
S4 Sn4 2.558486 1_555
S5 Sn3 2.410168 1_555
S5 Sn13 2.570481 1_555
S6 Sn1 2.420835 1_555
S6 Sn11 2.597316 1_555
S7 Sn15 2.420835 1_555
S7 Sn11 2.597316 1_655
S8 Sn7 2.410168 1_555
S8 Sn5 2.570481 1_455
S9 Sn8 2.410168 1_555
S9 Sn0 2.570481 1_455
S10 S54 2.036443 1_555
S10 Sn10 2.614709 1_656
S11 S27 2.039696 1_555
S11 Sn6 2.603000 1_555
S12 S51 2.036443 1_555
S12 S18 2.068907 1_555
S13 Sn12 2.582140 1_555
S13 Sn9 2.589458 1_555
S13 Sn8 2.838713 1_555
S14 S2 2.068907 1_555
S15 Sn4 2.582140 1_555
S15 Sn6 2.589458 1_555
S15 Sn5 2.838713 1_555
S16 Sn10 2.582140 1_655
S16 Sn14 2.589458 1_655
S16 Sn3 2.838713 1_555
S17 S3 2.039696 1_555
S17 Sn14 2.603000 1_655
S18 S60 2.039696 1_555
S19 S28 2.039696 1_555
S19 S40 2.068907 1_555
S20 Sn3 2.406481 1_555
S20 Sn10 2.558486 1_655
S21 Sn15 2.406481 1_555
S21 Sn2 2.558486 1_655
S22 Sn3 2.420835 1_555
S22 Sn14 2.597316 1_655
S23 S47 2.039696 1_555
S23 Sn11 2.603000 1_655
S24 Sn10 2.582140 1_555
S24 Sn14 2.589458 1_555
S24 Sn13 2.838713 1_555
S25 Sn8 2.406481 1_555
S25 Sn12 2.558486 1_555
S26 S50 2.036443 1_555
S26 Sn2 2.614709 1_654
S27 S54 2.068907 1_555
S28 Sn6 2.603000 1_555
S29 Sn4 2.582140 1_555
S29 Sn6 2.589458 1_555
S29 Sn7 2.838713 1_555
S30 Sn13 2.410168 1_555
S30 Sn3 2.570481 1_555
S31 S33 2.039696 1_555
S31 S50 2.068907 1_555
S32 Sn7 2.420835 1_555
S32 Sn6 2.597316 1_555
S33 Sn9 2.603000 1_555
S34 Sn0 2.410168 1_555
S34 Sn8 2.570481 1_655
S35 Sn5 2.420835 1_555
S35 Sn6 2.597316 1_555
S36 Sn8 2.420835 1_555
S36 Sn9 2.597316 1_555
S37 Sn1 2.410168 1_555
S37 Sn15 2.570481 1_555
S38 Sn0 2.406481 1_555
S38 Sn12 2.558486 1_555
S39 Sn13 2.406481 1_555
S39 Sn10 2.558486 1_555
S40 S62 2.036443 1_555
S41 Sn7 2.406481 1_555
S41 Sn4 2.558486 1_555
S42 Sn2 2.614709 1_554
S43 Sn2 2.582140 1_555
S43 Sn11 2.589458 1_555
S43 Sn1 2.838713 1_555
S44 S47 2.068907 1_555
S45 Sn15 2.410168 1_555
S45 Sn1 2.570481 1_555
S46 Sn13 2.420835 1_555
S46 Sn14 2.597316 1_555
S48 Sn2 2.582140 1_655
S48 Sn11 2.589458 1_655
S48 Sn15 2.838713 1_555
S49 S57 2.036443 1_555
S49 Sn4 2.614709 1_555
S51 Sn4 2.614709 1_555
S52 Sn12 2.582140 1_555
S52 Sn9 2.589458 1_555
S52 Sn0 2.838713 1_555
S53 Sn0 2.420835 1_555
S53 Sn9 2.597316 1_555
S55 S58 2.039696 1_555
S55 Sn11 2.603000 1_555
S56 Sn5 2.410168 1_555
S56 Sn7 2.570481 1_655
S58 S63 2.068907 1_555
S59 S63 2.036443 1_555
S59 Sn12 2.614709 1_555
S60 Sn14 2.603000 1_555
S61 Sn1 2.406481 1_555
S61 Sn2 2.558486 1_555
S62 Sn10 2.614709 1_556
