# generated using pymatgen
data_Na3SrPCO7
_symmetry_space_group_name_H-M   'P 1'
_cell_length_a   7.08961500
_cell_length_b   5.38308600
_cell_length_c   9.28360927
_cell_angle_alpha   89.73503504
_cell_angle_beta   90.00000000
_cell_angle_gamma   90.00000000
_symmetry_Int_Tables_number   1
_chemical_formula_structural   Na3SrPCO7
_chemical_formula_sum   'Na6 Sr2 P2 C2 O14'
_cell_volume   354.29594296
_cell_formula_units_Z   2
loop_
 _symmetry_equiv_pos_site_id
 _symmetry_equiv_pos_as_xyz
  1  'x, y, z'
loop_
 _atom_site_type_symbol
 _atom_site_label
 _atom_site_symmetry_multiplicity
 _atom_site_fract_x
 _atom_site_fract_y
 _atom_site_fract_z
 _atom_site_occupancy
  Na  Na0  1  0.70254500  0.50273500  0.16818400  1
  Na  Na1  1  0.98208000  0.98899500  0.01634000  1
  Na  Na2  1  0.20254500  0.49726500  0.83181600  1
  Na  Na3  1  0.97709100  0.52360400  0.48011000  1
  Na  Na4  1  0.47709100  0.47639600  0.51989000  1
  Na  Na5  1  0.48208000  0.01100500  0.98366000  1
  Sr  Sr0  1  0.76340300  0.01777800  0.68505600  1
  Sr  Sr1  1  0.26340300  0.98222200  0.31494400  1
  P  P0  1  0.23347500  0.99852500  0.67008400  1
  P  P1  1  0.73347500  0.00147500  0.32991600  1
  C  C0  1  0.74595400  0.51217600  0.85560600  1
  C  C1  1  0.24595400  0.48782400  0.14439400  1
  O  O0  1  0.92460000  0.92564900  0.26015200  1
  O  O1  1  0.25574100  0.77804300  0.56362700  1
  O  O2  1  0.72484100  0.71273500  0.93156200  1
  O  O3  1  0.65657200  0.77360400  0.41442100  1
  O  O4  1  0.42460000  0.07435100  0.73984800  1
  O  O5  1  0.09062700  0.91742800  0.78864000  1
  O  O6  1  0.74556900  0.52435400  0.71483200  1
  O  O7  1  0.26850100  0.70175300  0.08046300  1
  O  O8  1  0.22484100  0.28726500  0.06843800  1
  O  O9  1  0.76850100  0.29824700  0.91953700  1
  O  O10  1  0.24556900  0.47564600  0.28516800  1
  O  O11  1  0.15657200  0.22639600  0.58557900  1
  O  O12  1  0.59062700  0.08257200  0.21136000  1
  O  O13  1  0.75574100  0.22195700  0.43637300  1
loop_
_geom_bond_atom_site_label_1
_geom_bond_atom_site_label_2
_geom_bond_distance
_geom_bond_site_symmetry_2
Na0 O12 2.428471 1_555
Na0 O2 2.470921 1_554
Na0 O9 2.604286 1_554
Na0 O3 2.736567 1_555
Na0 O0 2.899680 1_555
Na0 O13 2.931012 1_555
Na1 O5 2.283998 1_654
Na1 O0 2.323453 1_555
Na1 O8 2.404418 1_665
Na1 O9 2.420309 1_564
Na1 O2 2.483506 1_554
Na1 O7 2.619187 1_655
Na2 O5 2.428471 1_555
Na2 O8 2.470921 1_556
Na2 O7 2.604286 1_556
Na2 O11 2.736567 1_555
Na2 O4 2.899680 1_555
Na2 O1 2.931012 1_555
Na3 O11 2.263407 1_655
Na3 O13 2.295718 1_555
Na3 O1 2.527775 1_655
Na3 O10 2.639919 1_655
Na3 O3 2.709060 1_555
Na3 O6 2.728119 1_555
Na4 O3 2.263407 1_555
Na4 O1 2.295718 1_555
Na4 O13 2.527775 1_555
Na4 O6 2.639919 1_555
Na4 O11 2.709060 1_555
Na4 O10 2.728119 1_555
Na5 O12 2.283998 1_556
Na5 O4 2.323453 1_555
Na5 O2 2.404418 1_545
Na5 O7 2.420309 1_546
Na5 O8 2.483506 1_556
Na5 O9 2.619187 1_555
C0 O2 1.300873 1_555
C0 O9 1.302944 1_555
C0 O6 1.308234 1_555
C1 O8 1.300873 1_555
C1 O7 1.302944 1_555
C1 O10 1.308234 1_555
O0 P1 1.557097 1_565
O0 Sr1 2.474356 1_655
O1 P0 1.556015 1_555
O1 Sr1 2.552942 1_555
O2 Sr0 2.823732 1_565
O3 P1 1.551929 1_565
O3 Sr0 2.940129 1_565
O3 Sr1 3.142310 1_555
O4 P0 1.557097 1_545
O4 Sr0 2.474356 1_555
O5 P0 1.556648 1_555
O5 Sr0 2.567809 1_465
O6 Sr0 2.672210 1_565
O6 Sr0 2.745102 1_555
O7 Sr1 2.655137 1_555
O8 Sr1 2.823732 1_545
O9 Sr0 2.655137 1_555
O10 Sr1 2.672210 1_545
O10 Sr1 2.745102 1_555
O11 P0 1.551929 1_545
O11 Sr1 2.940129 1_545
O11 Sr0 3.142310 1_455
O12 P1 1.556648 1_555
O12 Sr1 2.567809 1_545
O13 P1 1.556015 1_555
O13 Sr0 2.552942 1_555
