# generated using pymatgen
data_In3Te4
_symmetry_space_group_name_H-M   'P 1'
_cell_length_a   14.07137967
_cell_length_b   14.07137967
_cell_length_c   14.07137906
_cell_angle_alpha   17.74476978
_cell_angle_beta   17.74476978
_cell_angle_gamma   17.74477026
_symmetry_Int_Tables_number   1
_chemical_formula_structural   In3Te4
_chemical_formula_sum   'In3 Te4'
_cell_volume   225.92434440
_cell_formula_units_Z   1
loop_
 _symmetry_equiv_pos_site_id
 _symmetry_equiv_pos_as_xyz
  1  'x, y, z'
loop_
 _atom_site_type_symbol
 _atom_site_label
 _atom_site_symmetry_multiplicity
 _atom_site_fract_x
 _atom_site_fract_y
 _atom_site_fract_z
 _atom_site_occupancy
  In  In0  1  0.00000000  0.00000000  0.00000000  1
  In  In1  1  0.42663300  0.42663300  0.42663300  1
  In  In2  1  0.57336700  0.57336700  0.57336700  1
  Te  Te0  1  0.12876800  0.12876800  0.12876800  1
  Te  Te1  1  0.87123200  0.87123200  0.87123200  1
  Te  Te2  1  0.29060700  0.29060700  0.29060700  1
  Te  Te3  1  0.70939300  0.70939300  0.70939300  1
loop_
_geom_bond_atom_site_label_1
_geom_bond_atom_site_label_2
_geom_bond_distance
_geom_bond_site_symmetry_2
In0 Te2 3.070861 1_554
In0 Te3 3.070861 1_445
In0 Te2 3.070861 1_545
In0 Te2 3.070861 1_455
In0 Te3 3.070861 1_454
In0 Te3 3.070861 1_544
In1 Te0 2.907043 1_556
In1 Te0 2.907043 1_655
In1 Te0 2.907043 1_565
In1 Te3 3.270088 1_554
In1 Te3 3.270088 1_545
In1 Te3 3.270088 1_455
In2 Te1 2.907043 1_554
In2 Te1 2.907043 1_455
In2 Te1 2.907043 1_545
In2 Te2 3.270088 1_556
In2 Te2 3.270088 1_655
In2 Te2 3.270088 1_565
