# generated using pymatgen
data_RbVPO5
_symmetry_space_group_name_H-M   'P 1'
_cell_length_a   7.75197900
_cell_length_b   8.02055100
_cell_length_c   8.52077800
_cell_angle_alpha   90.00000000
_cell_angle_beta   90.00000000
_cell_angle_gamma   90.00000000
_symmetry_Int_Tables_number   1
_chemical_formula_structural   RbVPO5
_chemical_formula_sum   'Rb4 V4 P4 O20'
_cell_volume   529.78058994
_cell_formula_units_Z   4
loop_
 _symmetry_equiv_pos_site_id
 _symmetry_equiv_pos_as_xyz
  1  'x, y, z'
loop_
 _atom_site_type_symbol
 _atom_site_label
 _atom_site_symmetry_multiplicity
 _atom_site_fract_x
 _atom_site_fract_y
 _atom_site_fract_z
 _atom_site_occupancy
  Rb  Rb0  1  0.12032100  0.45370600  0.22980800  1
  Rb  Rb1  1  0.87967900  0.95370600  0.27019200  1
  Rb  Rb2  1  0.62032100  0.04629400  0.77019200  1
  Rb  Rb3  1  0.37967900  0.54629400  0.72980800  1
  V  V0  1  0.88723200  0.53579700  0.62266800  1
  V  V1  1  0.38723200  0.96420300  0.37733200  1
  V  V2  1  0.61276800  0.46420300  0.12266800  1
  V  V3  1  0.11276800  0.03579700  0.87733200  1
  P  P0  1  0.62462000  0.32087300  0.40265900  1
  P  P1  1  0.87538000  0.67912700  0.90265900  1
  P  P2  1  0.12462000  0.17912700  0.59734100  1
  P  P3  1  0.37538000  0.82087300  0.09734100  1
  O  O0  1  0.51952000  0.93067100  0.17550300  1
  O  O1  1  0.98048000  0.06932900  0.67550300  1
  O  O2  1  0.93092000  0.66984900  0.48315800  1
  O  O3  1  0.23234300  0.83290500  0.22664500  1
  O  O4  1  0.31287700  0.89351600  0.93860400  1
  O  O5  1  0.68712300  0.39351600  0.56139600  1
  O  O6  1  0.18712300  0.10648400  0.43860400  1
  O  O7  1  0.43768300  0.64191900  0.06676700  1
  O  O8  1  0.73234300  0.66709500  0.77335500  1
  O  O9  1  0.76765700  0.33290500  0.27335500  1
  O  O10  1  0.56908000  0.33015100  0.98315800  1
  O  O11  1  0.01952000  0.56932900  0.82449700  1
  O  O12  1  0.26765700  0.16709500  0.72664500  1
  O  O13  1  0.93768300  0.85808100  0.93323300  1
  O  O14  1  0.06231700  0.35808100  0.56676700  1
  O  O15  1  0.81287700  0.60648400  0.06139600  1
  O  O16  1  0.06908000  0.16984900  0.01684200  1
  O  O17  1  0.43092000  0.83015100  0.51684200  1
  O  O18  1  0.48048000  0.43067100  0.32449700  1
  O  O19  1  0.56231700  0.14191900  0.43323300  1
loop_
_geom_bond_atom_site_label_1
_geom_bond_atom_site_label_2
_geom_bond_distance
_geom_bond_site_symmetry_2
O0 P3 1.570860 1_555
O0 V1 2.020266 1_555
O0 Rb1 2.912054 1_555
O1 P2 1.570860 1_655
O1 V3 2.020266 1_655
O1 Rb2 2.912054 1_555
O2 V0 1.638224 1_555
O2 Rb1 2.938367 1_555
O2 Rb0 3.133876 1_655
O3 P3 1.566108 1_555
O3 V1 2.049203 1_555
O3 Rb1 2.924095 1_455
O3 Rb0 3.163045 1_555
O4 P3 1.550372 1_556
O4 V3 1.995293 1_565
O4 Rb2 3.039878 1_565
O4 Rb3 3.345013 1_555
O5 P0 1.550372 1_555
O5 V0 1.995293 1_555
O5 Rb3 3.039878 1_555
O5 Rb2 3.345013 1_555
O6 P2 1.550372 1_555
O6 V1 1.995293 1_545
O6 Rb1 3.039878 1_445
O6 Rb0 3.345013 1_555
O7 P3 1.536634 1_555
O7 V2 2.025026 1_555
O7 Rb3 3.005651 1_554
O7 Rb0 3.203324 1_555
O8 P1 1.566108 1_555
O8 V0 2.049203 1_555
O8 Rb3 2.924095 1_555
O8 Rb2 3.163045 1_565
O9 P0 1.566108 1_555
O9 V2 2.049203 1_555
O9 Rb0 2.924095 1_655
O9 Rb1 3.163045 1_545
O10 V2 1.638224 1_556
O10 Rb2 2.938367 1_555
O10 Rb3 3.133876 1_555
O11 P1 1.570860 1_455
O11 V0 2.020266 1_455
O11 Rb3 2.912054 1_555
O12 P2 1.566108 1_555
O12 V3 2.049203 1_555
O12 Rb2 2.924095 1_555
O12 Rb3 3.163045 1_555
O13 P1 1.536634 1_555
O13 V3 2.025026 1_665
O13 Rb1 3.005651 1_556
O13 Rb2 3.203324 1_565
O14 P2 1.536634 1_555
O14 V0 2.025026 1_455
O14 Rb0 3.005651 1_555
O14 Rb3 3.203324 1_555
O15 P1 1.550372 1_554
O15 V2 1.995293 1_555
O15 Rb0 3.039878 1_655
O15 Rb1 3.345013 1_555
O16 V3 1.638224 1_554
O16 Rb0 2.938367 1_555
O16 Rb1 3.133876 1_445
O17 V1 1.638224 1_555
O17 Rb3 2.938367 1_555
O17 Rb2 3.133876 1_565
O18 P0 1.570860 1_555
O18 V2 2.020266 1_555
O18 Rb0 2.912054 1_555
O19 P0 1.536634 1_555
O19 V1 2.025026 1_545
O19 Rb2 3.005651 1_555
O19 Rb1 3.203324 1_545
