# generated using pymatgen
data_Li2FeP2O7
_symmetry_space_group_name_H-M   'P 1'
_cell_length_a   5.07146500
_cell_length_b   8.50338000
_cell_length_c   14.03935883
_cell_angle_alpha   65.59292073
_cell_angle_beta   90.00000000
_cell_angle_gamma   90.00000000
_symmetry_Int_Tables_number   1
_chemical_formula_structural   Li2FeP2O7
_chemical_formula_sum   'Li8 Fe4 P8 O28'
_cell_volume   551.33491132
_cell_formula_units_Z   4
loop_
 _symmetry_equiv_pos_site_id
 _symmetry_equiv_pos_as_xyz
  1  'x, y, z'
loop_
 _atom_site_type_symbol
 _atom_site_label
 _atom_site_symmetry_multiplicity
 _atom_site_fract_x
 _atom_site_fract_y
 _atom_site_fract_z
 _atom_site_occupancy
  Li  Li0  1  0.24168400  0.04488800  0.82573700  1
  Li  Li1  1  0.22091100  0.50591800  0.57610500  1
  Li  Li2  1  0.25831600  0.04488800  0.32573700  1
  Li  Li3  1  0.74168400  0.95511200  0.67426300  1
  Li  Li4  1  0.77908900  0.49408200  0.42389500  1
  Li  Li5  1  0.75831600  0.95511200  0.17426300  1
  Li  Li6  1  0.72091100  0.49408200  0.92389500  1
  Li  Li7  1  0.27908900  0.50591800  0.07610500  1
  Fe  Fe0  1  0.25590200  0.22058700  0.52130400  1
  Fe  Fe1  1  0.24409800  0.22058700  0.02130400  1
  Fe  Fe2  1  0.75590200  0.77941300  0.97869600  1
  Fe  Fe3  1  0.74409800  0.77941300  0.47869600  1
  P  P0  1  0.23849300  0.80785000  0.62287900  1
  P  P1  1  0.76150700  0.19215000  0.37712100  1
  P  P2  1  0.73849300  0.19215000  0.87712100  1
  P  P3  1  0.26150700  0.80785000  0.12287900  1
  P  P4  1  0.26491500  0.67128400  0.35302000  1
  P  P5  1  0.76491500  0.32871600  0.14698000  1
  P  P6  1  0.23508500  0.67128400  0.85302000  1
  P  P7  1  0.73508500  0.32871600  0.64698000  1
  O  O0  1  0.87248400  0.27444000  0.94239100  1
  O  O1  1  0.44162400  0.16568800  0.89873700  1
  O  O2  1  0.94162400  0.83431200  0.60126300  1
  O  O3  1  0.55837600  0.83431200  0.10126300  1
  O  O4  1  0.59189600  0.18380700  0.14224700  1
  O  O5  1  0.93880500  0.69925500  0.86159400  1
  O  O6  1  0.71733400  0.33852300  0.25858400  1
  O  O7  1  0.87524800  0.02856000  0.88015200  1
  O  O8  1  0.56119500  0.69925500  0.36159400  1
  O  O9  1  0.28266600  0.66147700  0.74141600  1
  O  O10  1  0.37248400  0.72556000  0.55760900  1
  O  O11  1  0.37524800  0.97144000  0.61984800  1
  O  O12  1  0.78266600  0.33852300  0.75858400  1
  O  O13  1  0.05837600  0.16568800  0.39873700  1
  O  O14  1  0.12751600  0.72556000  0.05760900  1
  O  O15  1  0.82886200  0.50785700  0.56836400  1
  O  O16  1  0.67113800  0.50785700  0.06836400  1
  O  O17  1  0.32886200  0.49214300  0.93163600  1
  O  O18  1  0.21733400  0.66147700  0.24141600  1
  O  O19  1  0.90810400  0.18380700  0.64224700  1
  O  O20  1  0.17113800  0.49214300  0.43163600  1
  O  O21  1  0.12475200  0.97144000  0.11984800  1
  O  O22  1  0.62475200  0.02856000  0.38015200  1
  O  O23  1  0.09189600  0.81619300  0.35775300  1
  O  O24  1  0.40810400  0.81619300  0.85775300  1
  O  O25  1  0.43880500  0.30074500  0.63840600  1
  O  O26  1  0.62751600  0.27444000  0.44239100  1
  O  O27  1  0.06119500  0.30074500  0.13840600  1
loop_
_geom_bond_atom_site_label_1
_geom_bond_atom_site_label_2
_geom_bond_distance
_geom_bond_site_symmetry_2
Li0 O7 1.992177 1_455
Li0 O24 1.993428 1_545
Li0 O1 2.000932 1_555
Li1 O10 1.935411 1_555
Li1 O25 1.941359 1_555
Li1 O15 1.990927 1_455
Li1 O20 2.094657 1_555
Li2 O22 1.992177 1_555
Li2 O23 1.993428 1_545
Li2 O13 2.000932 1_555
Li3 O11 1.992177 1_555
Li3 O19 1.993428 1_565
Li3 O2 2.000932 1_555
Li4 O26 1.935411 1_555
Li4 O8 1.941359 1_555
Li4 O20 1.990927 1_655
Li4 O15 2.094657 1_555
Li5 O21 1.992177 1_655
Li5 O4 1.993428 1_565
Li5 O3 2.000932 1_555
Li6 O0 1.935411 1_555
Li6 O5 1.941359 1_555
Li6 O17 1.990927 1_555
Li6 O16 2.094657 1_556
Li7 O14 1.935411 1_555
Li7 O27 1.941359 1_555
Li7 O16 1.990927 1_555
Li7 O17 2.094657 1_554
Fe0 O11 2.084826 1_545
Fe0 O26 2.137676 1_555
Fe0 O20 2.167794 1_555
Fe0 O13 2.201435 1_555
Fe0 O25 2.225752 1_555
Fe0 O19 2.377639 1_455
Fe1 O21 2.084826 1_545
Fe1 O0 2.137676 1_454
Fe1 O17 2.167794 1_554
Fe1 O1 2.201435 1_554
Fe1 O27 2.225752 1_555
Fe1 O4 2.377639 1_555
Fe2 O7 2.084826 1_565
Fe2 O14 2.137676 1_656
Fe2 O16 2.167794 1_556
Fe2 O3 2.201435 1_556
Fe2 O5 2.225752 1_555
Fe2 O24 2.377639 1_555
Fe3 O22 2.084826 1_565
Fe3 O10 2.137676 1_555
Fe3 O15 2.167794 1_555
Fe3 O2 2.201435 1_555
Fe3 O8 2.225752 1_555
Fe3 O23 2.377639 1_655
O0 P2 1.523488 1_555
O1 P2 1.533952 1_555
O2 P0 1.533952 1_655
O3 P3 1.533952 1_555
O4 P5 1.536351 1_555
O5 P6 1.533770 1_655
O6 P5 1.621167 1_555
O6 P1 1.630046 1_555
O7 P2 1.539146 1_555
O8 P4 1.533770 1_555
O9 P6 1.621167 1_555
O9 P0 1.630046 1_555
O10 P0 1.523488 1_555
O11 P0 1.539146 1_555
O12 P7 1.621167 1_555
O12 P2 1.630046 1_555
O13 P1 1.533952 1_455
O14 P3 1.523488 1_555
O15 P7 1.541217 1_555
O16 P5 1.541217 1_555
O17 P6 1.541217 1_555
O18 P4 1.621167 1_555
O18 P3 1.630046 1_555
O19 P7 1.536351 1_555
O20 P4 1.541217 1_555
O21 P3 1.539146 1_555
O22 P1 1.539146 1_555
O23 P4 1.536351 1_555
O24 P6 1.536351 1_555
O25 P7 1.533770 1_555
O26 P1 1.523488 1_555
O27 P5 1.533770 1_455
