# generated using pymatgen
data_BaCa4(CuN2)2
_symmetry_space_group_name_H-M   'P 1'
_cell_length_a   8.28299200
_cell_length_b   8.28299200
_cell_length_c   12.51500500
_cell_angle_alpha   90.00000000
_cell_angle_beta   90.00000000
_cell_angle_gamma   90.00000000
_symmetry_Int_Tables_number   1
_chemical_formula_structural   BaCa4(CuN2)2
_chemical_formula_sum   'Ba4 Ca16 Cu8 N16'
_cell_volume   858.62891829
_cell_formula_units_Z   4
loop_
 _symmetry_equiv_pos_site_id
 _symmetry_equiv_pos_as_xyz
  1  'x, y, z'
loop_
 _atom_site_type_symbol
 _atom_site_label
 _atom_site_symmetry_multiplicity
 _atom_site_fract_x
 _atom_site_fract_y
 _atom_site_fract_z
 _atom_site_occupancy
  Ba  Ba0  1  0.50000000  0.00000000  0.65549800  1
  Ba  Ba1  1  0.00000000  0.50000000  0.84450200  1
  Ba  Ba2  1  0.50000000  0.00000000  0.15549800  1
  Ba  Ba3  1  0.00000000  0.50000000  0.34450200  1
  Ca  Ca0  1  0.16684100  0.88097800  0.41270100  1
  Ca  Ca1  1  0.88097800  0.83315900  0.58729900  1
  Ca  Ca2  1  0.33315900  0.61902200  0.58729900  1
  Ca  Ca3  1  0.83315900  0.11902200  0.41270100  1
  Ca  Ca4  1  0.16684100  0.11902200  0.91270100  1
  Ca  Ca5  1  0.33315900  0.38097800  0.08729900  1
  Ca  Ca6  1  0.38097800  0.66684100  0.91270100  1
  Ca  Ca7  1  0.83315900  0.88097800  0.91270100  1
  Ca  Ca8  1  0.88097800  0.16684100  0.08729900  1
  Ca  Ca9  1  0.61902200  0.33315900  0.91270100  1
  Ca  Ca10  1  0.61902200  0.66684100  0.41270100  1
  Ca  Ca11  1  0.66684100  0.38097800  0.58729900  1
  Ca  Ca12  1  0.11902200  0.16684100  0.58729900  1
  Ca  Ca13  1  0.38097800  0.33315900  0.41270100  1
  Ca  Ca14  1  0.66684100  0.61902200  0.08729900  1
  Ca  Ca15  1  0.11902200  0.83315900  0.08729900  1
  Cu  Cu0  1  0.15303600  0.15303600  0.25000000  1
  Cu  Cu1  1  0.65303600  0.34696400  0.25000000  1
  Cu  Cu2  1  0.15303600  0.84696400  0.75000000  1
  Cu  Cu3  1  0.84696400  0.84696400  0.25000000  1
  Cu  Cu4  1  0.84696400  0.15303600  0.75000000  1
  Cu  Cu5  1  0.65303600  0.65303600  0.75000000  1
  Cu  Cu6  1  0.34696400  0.65303600  0.25000000  1
  Cu  Cu7  1  0.34696400  0.34696400  0.75000000  1
  N  N0  1  0.87440300  0.18052000  0.89690900  1
  N  N1  1  0.31948000  0.37440300  0.89690900  1
  N  N2  1  0.62559700  0.68052000  0.60309100  1
  N  N3  1  0.18052000  0.12559700  0.10309100  1
  N  N4  1  0.31948000  0.62559700  0.39690900  1
  N  N5  1  0.18052000  0.87440300  0.60309100  1
  N  N6  1  0.68052000  0.62559700  0.89690900  1
  N  N7  1  0.81948000  0.12559700  0.60309100  1
  N  N8  1  0.81948000  0.87440300  0.10309100  1
  N  N9  1  0.12559700  0.18052000  0.39690900  1
  N  N10  1  0.87440300  0.81948000  0.39690900  1
  N  N11  1  0.68052000  0.37440300  0.39690900  1
  N  N12  1  0.62559700  0.31948000  0.10309100  1
  N  N13  1  0.12559700  0.81948000  0.89690900  1
  N  N14  1  0.37440300  0.31948000  0.60309100  1
  N  N15  1  0.37440300  0.68052000  0.10309100  1
loop_
_geom_bond_atom_site_label_1
_geom_bond_atom_site_label_2
_geom_bond_distance
_geom_bond_site_symmetry_2
Ba0 N2 2.918060 1_545
Ba0 N14 2.918060 1_555
Ba0 N7 2.918060 1_555
Ba0 N5 2.918060 1_545
Ba1 N6 2.918060 1_455
Ba1 N1 2.918060 1_555
Ba1 N13 2.918060 1_555
Ba1 N0 2.918060 1_455
Ba2 N3 2.918060 1_555
Ba2 N15 2.918060 1_545
Ba2 N12 2.918060 1_555
Ba2 N8 2.918060 1_545
Ba3 N9 2.918060 1_555
Ba3 N11 2.918060 1_455
Ba3 N4 2.918060 1_555
Ba3 N10 2.918060 1_455
Ca0 N5 2.386046 1_555
Ca0 N4 2.472268 1_555
Ca0 N10 2.483120 1_455
Ca0 N9 2.512299 1_565
Ca1 N10 2.386046 1_555
Ca1 N2 2.472268 1_555
Ca1 N7 2.483120 1_565
Ca1 N5 2.512299 1_655
Ca2 N4 2.386046 1_555
Ca2 N5 2.472268 1_555
Ca2 N2 2.483120 1_555
Ca2 N14 2.512299 1_555
Ca3 N7 2.386046 1_555
Ca3 N11 2.472268 1_555
Ca3 N9 2.483120 1_655
Ca3 N10 2.512299 1_545
Ca4 N3 2.386046 1_556
Ca4 N1 2.472268 1_555
Ca4 N0 2.483120 1_455
Ca4 N13 2.512299 1_545
Ca5 N1 2.386046 1_554
Ca5 N3 2.472268 1_555
Ca5 N12 2.483120 1_555
Ca5 N15 2.512299 1_555
Ca6 N15 2.386046 1_556
Ca6 N13 2.472268 1_555
Ca6 N1 2.483120 1_555
Ca6 N6 2.512299 1_555
Ca7 N8 2.386046 1_556
Ca7 N6 2.472268 1_555
Ca7 N13 2.483120 1_655
Ca7 N0 2.512299 1_565
Ca8 N0 2.386046 1_554
Ca8 N12 2.472268 1_555
Ca8 N8 2.483120 1_545
Ca8 N3 2.512299 1_655
Ca9 N12 2.386046 1_556
Ca9 N0 2.472268 1_555
Ca9 N6 2.483120 1_555
Ca9 N1 2.512299 1_555
Ca10 N2 2.386046 1_555
Ca10 N10 2.472268 1_555
Ca10 N11 2.483120 1_555
Ca10 N4 2.512299 1_555
Ca11 N11 2.386046 1_555
Ca11 N7 2.472268 1_555
Ca11 N14 2.483120 1_555
Ca11 N2 2.512299 1_555
Ca12 N9 2.386046 1_555
Ca12 N14 2.472268 1_555
Ca12 N5 2.483120 1_545
Ca12 N7 2.512299 1_455
Ca13 N14 2.386046 1_555
Ca13 N9 2.472268 1_555
Ca13 N4 2.483120 1_555
Ca13 N11 2.512299 1_555
Ca14 N6 2.386046 1_554
Ca14 N8 2.472268 1_555
Ca14 N15 2.483120 1_555
Ca14 N12 2.512299 1_555
Ca15 N13 2.386046 1_554
Ca15 N15 2.472268 1_555
Ca15 N3 2.483120 1_565
Ca15 N8 2.512299 1_455
Cu0 N9 1.866496 1_555
Cu0 N3 1.866496 1_555
Cu1 N11 1.866496 1_555
Cu1 N12 1.866496 1_555
Cu2 N13 1.866496 1_555
Cu2 N5 1.866496 1_555
Cu3 N10 1.866496 1_555
Cu3 N8 1.866496 1_555
Cu4 N0 1.866496 1_555
Cu4 N7 1.866496 1_555
Cu5 N6 1.866496 1_555
Cu5 N2 1.866496 1_555
Cu6 N4 1.866496 1_555
Cu6 N15 1.866496 1_555
Cu7 N1 1.866496 1_555
Cu7 N14 1.866496 1_555
