# generated using pymatgen
data_Ho(CoSi)2
_symmetry_space_group_name_H-M   'P 1'
_cell_length_a   3.84088020
_cell_length_b   3.84088032
_cell_length_c   5.54443981
_cell_angle_alpha   110.26557338
_cell_angle_beta   110.26556583
_cell_angle_gamma   90.00000638
_symmetry_Int_Tables_number   1
_chemical_formula_structural   Ho(CoSi)2
_chemical_formula_sum   'Ho1 Co2 Si2'
_cell_volume   71.30846839
_cell_formula_units_Z   1
loop_
 _symmetry_equiv_pos_site_id
 _symmetry_equiv_pos_as_xyz
  1  'x, y, z'
loop_
 _atom_site_type_symbol
 _atom_site_label
 _atom_site_symmetry_multiplicity
 _atom_site_fract_x
 _atom_site_fract_y
 _atom_site_fract_z
 _atom_site_occupancy
  Ho  Ho0  1  0.00000000  -0.00000000  0.00000000  1
  Co  Co0  1  0.25000000  0.75000000  0.50000000  1
  Co  Co1  1  0.75000000  0.25000000  0.50000000  1
  Si  Si0  1  0.62855483  0.62855483  0.25710966  1
  Si  Si1  1  0.37144517  0.37144517  0.74289034  1
loop_
_geom_bond_atom_site_label_1
_geom_bond_atom_site_label_2
_geom_bond_distance
_geom_bond_site_symmetry_2
Ho0 Si1 2.986755 1_554
Ho0 Si0 2.986755 1_445
Ho0 Si0 2.986756 1_455
Ho0 Si1 2.986756 1_544
Ho0 Si0 2.986756 1_545
Ho0 Si1 2.986756 1_454
Ho0 Si0 2.986756 1_555
Ho0 Si1 2.986756 1_444
Co0 Si0 2.250889 1_555
Co0 Si1 2.250889 1_555
Co0 Si1 2.250890 1_565
Co0 Si0 2.250890 1_455
Co0 Ho0 3.086948 1_566
Co0 Ho0 3.086948 1_565
Co0 Ho0 3.086949 1_555
Co0 Ho0 3.086949 1_666
Co1 Si1 2.250889 1_555
Co1 Si0 2.250889 1_555
Co1 Si0 2.250890 1_545
Co1 Si1 2.250890 1_655
Co1 Ho0 3.086948 1_655
Co1 Ho0 3.086948 1_656
Co1 Ho0 3.086949 1_666
Co1 Ho0 3.086949 1_555
Si0 Si1 2.485581 1_554
