# generated using pymatgen
data_Ca2As3Pb3ClO12
_symmetry_space_group_name_H-M   'P 1'
_cell_length_a   10.39668224
_cell_length_b   10.39668224
_cell_length_c   7.18141300
_cell_angle_alpha   90.00000000
_cell_angle_beta   90.00000000
_cell_angle_gamma   120.00000150
_symmetry_Int_Tables_number   1
_chemical_formula_structural   Ca2As3Pb3ClO12
_chemical_formula_sum   'Ca4 As6 Pb6 Cl2 O24'
_cell_volume   672.24885237
_cell_formula_units_Z   2
loop_
 _symmetry_equiv_pos_site_id
 _symmetry_equiv_pos_as_xyz
  1  'x, y, z'
loop_
 _atom_site_type_symbol
 _atom_site_label
 _atom_site_symmetry_multiplicity
 _atom_site_fract_x
 _atom_site_fract_y
 _atom_site_fract_z
 _atom_site_occupancy
  Ca  Ca0  1  0.66666700  0.33333300  0.50616900  1
  Ca  Ca1  1  0.33333300  0.66666700  0.49383100  1
  Ca  Ca2  1  0.66666700  0.33333300  0.99383100  1
  Ca  Ca3  1  0.33333300  0.66666700  0.00616900  1
  As  As0  1  0.60874300  0.02977500  0.25000000  1
  As  As1  1  0.02977500  0.42103300  0.75000000  1
  As  As2  1  0.57896700  0.60874300  0.75000000  1
  As  As3  1  0.39125700  0.97022500  0.75000000  1
  As  As4  1  0.97022500  0.57896700  0.25000000  1
  As  As5  1  0.42103300  0.39125700  0.25000000  1
  Pb  Pb0  1  0.23550000  0.26203400  0.75000000  1
  Pb  Pb1  1  0.02653300  0.76450000  0.75000000  1
  Pb  Pb2  1  0.76450000  0.73796600  0.25000000  1
  Pb  Pb3  1  0.73796600  0.97346700  0.75000000  1
  Pb  Pb4  1  0.97346700  0.23550000  0.25000000  1
  Pb  Pb5  1  0.26203400  0.02653300  0.25000000  1
  Cl  Cl0  1  0.00000000  0.00000000  0.50000000  1
  Cl  Cl1  1  0.00000000  0.00000000  0.00000000  1
  O  O0  1  0.36352300  0.27456500  0.44074100  1
  O  O1  1  0.53076200  0.14484300  0.25000000  1
  O  O2  1  0.72543500  0.08895800  0.05925900  1
  O  O3  1  0.91104200  0.63647700  0.05925900  1
  O  O4  1  0.46923800  0.85515700  0.75000000  1
  O  O5  1  0.08895800  0.36352300  0.55925900  1
  O  O6  1  0.27456500  0.91104200  0.94074100  1
  O  O7  1  0.63345600  0.47860500  0.75000000  1
  O  O8  1  0.14484300  0.61408100  0.75000000  1
  O  O9  1  0.38591900  0.53076200  0.75000000  1
  O  O10  1  0.36654400  0.52139500  0.25000000  1
  O  O11  1  0.63647700  0.72543500  0.94074100  1
  O  O12  1  0.84514900  0.36654400  0.75000000  1
  O  O13  1  0.15485100  0.63345600  0.25000000  1
  O  O14  1  0.63647700  0.72543500  0.55925900  1
  O  O15  1  0.27456500  0.91104200  0.55925900  1
  O  O16  1  0.08895800  0.36352300  0.94074100  1
  O  O17  1  0.85515700  0.38591900  0.25000000  1
  O  O18  1  0.47860500  0.84514900  0.25000000  1
  O  O19  1  0.36352300  0.27456500  0.05925900  1
  O  O20  1  0.61408100  0.46923800  0.25000000  1
  O  O21  1  0.91104200  0.63647700  0.44074100  1
  O  O22  1  0.72543500  0.08895800  0.44074100  1
  O  O23  1  0.52139500  0.15485100  0.75000000  1
loop_
_geom_bond_atom_site_label_1
_geom_bond_atom_site_label_2
_geom_bond_distance
_geom_bond_site_symmetry_2
Ca0 O12 2.447042 1_555
Ca0 O23 2.447044 1_555
Ca0 O7 2.447049 1_555
Ca0 O17 2.540109 1_555
Ca0 O1 2.540111 1_555
Ca0 O20 2.540116 1_555
Ca0 O22 2.932836 1_555
Ca0 O21 2.932843 1_555
Ca0 O0 2.932846 1_555
Ca1 O13 2.447042 1_555
Ca1 O18 2.447044 1_555
Ca1 O10 2.447049 1_555
Ca1 O8 2.540109 1_555
Ca1 O4 2.540111 1_555
Ca1 O9 2.540116 1_555
Ca1 O15 2.932836 1_555
Ca1 O5 2.932843 1_555
Ca1 O14 2.932846 1_555
Ca2 O12 2.447042 1_555
Ca2 O23 2.447044 1_555
Ca2 O7 2.447049 1_555
Ca2 O17 2.540109 1_556
Ca2 O1 2.540111 1_556
Ca2 O20 2.540116 1_556
Ca2 O2 2.932836 1_556
Ca2 O3 2.932843 1_556
Ca2 O19 2.932846 1_556
Ca3 O13 2.447042 1_555
Ca3 O18 2.447044 1_555
Ca3 O10 2.447049 1_555
Ca3 O8 2.540109 1_554
Ca3 O4 2.540111 1_554
Ca3 O9 2.540116 1_554
Ca3 O6 2.932836 1_554
Ca3 O16 2.932843 1_554
Ca3 O11 2.932846 1_554
As0 O18 1.708216 1_545
As0 O22 1.726357 1_555
As0 O2 1.726357 1_555
As0 O1 1.748832 1_555
As1 O12 1.708214 1_455
As1 O16 1.726362 1_555
As1 O5 1.726362 1_555
As1 O8 1.748824 1_555
As2 O7 1.708224 1_555
As2 O11 1.726357 1_555
As2 O14 1.726357 1_555
As2 O9 1.748822 1_555
As3 O23 1.708216 1_565
As3 O6 1.726357 1_555
As3 O15 1.726357 1_555
As3 O4 1.748832 1_555
As4 O13 1.708214 1_655
As4 O21 1.726362 1_555
As4 O3 1.726362 1_555
As4 O17 1.748824 1_555
As5 O10 1.708224 1_555
As5 O19 1.726357 1_555
As5 O0 1.726357 1_555
As5 O20 1.748822 1_555
Cl0 Pb1 3.157460 1_545
Cl0 Pb4 3.157460 1_455
Cl0 Pb2 3.157465 1_445
Cl0 Pb0 3.157465 1_555
Cl0 Pb3 3.157468 1_445
Cl0 Pb5 3.157468 1_555
Cl1 Pb1 3.157460 1_544
Cl1 Pb4 3.157460 1_455
Cl1 Pb2 3.157465 1_445
Cl1 Pb0 3.157465 1_554
Cl1 Pb3 3.157468 1_444
Cl1 Pb5 3.157468 1_555
O0 Pb0 2.558835 1_555
O0 Pb5 2.630301 1_555
O1 Pb5 2.425321 1_555
O2 Pb3 2.558830 1_544
O2 Pb4 2.630300 1_555
O3 Pb1 2.558833 1_654
O3 Pb2 2.630293 1_555
O4 Pb3 2.425321 1_555
O5 Pb4 2.558833 1_455
O5 Pb0 2.630293 1_555
O6 Pb5 2.558830 1_566
O6 Pb1 2.630300 1_555
O8 Pb1 2.425330 1_555
O9 Pb0 2.425321 1_555
O11 Pb2 2.558835 1_556
O11 Pb3 2.630301 1_555
O14 Pb2 2.558835 1_555
O14 Pb3 2.630301 1_555
O15 Pb5 2.558830 1_565
O15 Pb1 2.630300 1_555
O16 Pb4 2.558833 1_456
O16 Pb0 2.630293 1_555
O17 Pb4 2.425330 1_555
O19 Pb0 2.558835 1_554
O19 Pb5 2.630301 1_555
O20 Pb2 2.425321 1_555
O21 Pb1 2.558833 1_655
O21 Pb2 2.630293 1_555
O22 Pb3 2.558830 1_545
O22 Pb4 2.630300 1_555
