# generated using pymatgen
data_CsAgSb4S7
_symmetry_space_group_name_H-M   'P 1'
_cell_length_a   13.97243503
_cell_length_b   13.97243503
_cell_length_c   12.53954349
_cell_angle_alpha   83.16528243
_cell_angle_beta   83.16528243
_cell_angle_gamma   37.49154667
_symmetry_Int_Tables_number   1
_chemical_formula_structural   CsAgSb4S7
_chemical_formula_sum   'Cs4 Ag4 Sb16 S28'
_cell_volume   1478.19816146
_cell_formula_units_Z   4
loop_
 _symmetry_equiv_pos_site_id
 _symmetry_equiv_pos_as_xyz
  1  'x, y, z'
loop_
 _atom_site_type_symbol
 _atom_site_label
 _atom_site_symmetry_multiplicity
 _atom_site_fract_x
 _atom_site_fract_y
 _atom_site_fract_z
 _atom_site_occupancy
  Cs  Cs0  1  0.50000000  0.00000000  0.50000000  1
  Cs  Cs1  1  0.33549300  0.66450700  0.25000000  1
  Cs  Cs2  1  0.00000000  0.50000000  0.00000000  1
  Cs  Cs3  1  0.66450700  0.33549300  0.75000000  1
  Ag  Ag0  1  0.15642500  0.35931900  0.31292100  1
  Ag  Ag1  1  0.84357500  0.64068100  0.68707900  1
  Ag  Ag2  1  0.35931900  0.15642500  0.81292100  1
  Ag  Ag3  1  0.64068100  0.84357500  0.18707900  1
  Sb  Sb0  1  0.25074700  0.04477200  0.17622000  1
  Sb  Sb1  1  0.44424700  0.27276700  0.06137600  1
  Sb  Sb2  1  0.27276700  0.44424700  0.56137600  1
  Sb  Sb3  1  0.04477200  0.25074700  0.67622000  1
  Sb  Sb4  1  0.98074000  0.87290400  0.57634300  1
  Sb  Sb5  1  0.62755000  0.21330700  0.37463500  1
  Sb  Sb6  1  0.55575300  0.72723300  0.93862400  1
  Sb  Sb7  1  0.95522800  0.74925300  0.32378000  1
  Sb  Sb8  1  0.72723300  0.55575300  0.43862400  1
  Sb  Sb9  1  0.87290400  0.98074000  0.07634300  1
  Sb  Sb10  1  0.01926000  0.12709600  0.42365700  1
  Sb  Sb11  1  0.78669300  0.37245000  0.12536500  1
  Sb  Sb12  1  0.74925300  0.95522800  0.82378000  1
  Sb  Sb13  1  0.37245000  0.78669300  0.62536500  1
  Sb  Sb14  1  0.21330700  0.62755000  0.87463500  1
  Sb  Sb15  1  0.12709600  0.01926000  0.92365700  1
  S  S0  1  0.67036800  0.02761200  0.29398800  1
  S  S1  1  0.26172900  0.06672600  0.97398800  1
  S  S2  1  0.37238100  0.72855200  0.95157500  1
  S  S3  1  0.87625800  0.64675600  0.30397500  1
  S  S4  1  0.35324400  0.12374200  0.19602500  1
  S  S5  1  0.19657100  0.58393900  0.06766600  1
  S  S6  1  0.80342900  0.41606100  0.93233400  1
  S  S7  1  0.93423500  0.98826700  0.39007600  1
  S  S8  1  0.27144800  0.62761900  0.54842500  1
  S  S9  1  0.72855200  0.37238100  0.45157500  1
  S  S10  1  0.12374200  0.35324400  0.69602500  1
  S  S11  1  0.64675600  0.87625800  0.80397500  1
  S  S12  1  0.01173300  0.06576500  0.10992400  1
  S  S13  1  0.97238800  0.32963200  0.20601200  1
  S  S14  1  0.06576500  0.01173300  0.60992400  1
  S  S15  1  0.29943600  0.40345800  0.36945100  1
  S  S16  1  0.41606100  0.80342900  0.43233400  1
  S  S17  1  0.70056400  0.59654200  0.63054900  1
  S  S18  1  0.93327400  0.73827100  0.52601200  1
  S  S19  1  0.06672600  0.26172900  0.47398800  1
  S  S20  1  0.62761900  0.27144800  0.04842500  1
  S  S21  1  0.59654200  0.70056400  0.13054900  1
  S  S22  1  0.98826700  0.93423500  0.89007600  1
  S  S23  1  0.40345800  0.29943600  0.86945100  1
  S  S24  1  0.02761200  0.67036800  0.79398800  1
  S  S25  1  0.32963200  0.97238800  0.70601200  1
  S  S26  1  0.58393900  0.19657100  0.56766600  1
  S  S27  1  0.73827100  0.93327400  0.02601200  1
loop_
_geom_bond_atom_site_label_1
_geom_bond_atom_site_label_2
_geom_bond_distance
_geom_bond_site_symmetry_2
Cs0 S0 3.499340 1_555
Cs0 S25 3.499340 1_545
Cs0 S19 3.896607 1_555
Cs0 S18 3.896607 1_545
Cs0 S26 3.942397 1_555
Cs0 S16 3.942397 1_545
Cs1 S7 3.779241 1_455
Cs1 S12 3.779241 1_565
Cs1 S8 3.813879 1_555
Cs1 S2 3.813879 1_554
Cs1 S5 3.924167 1_555
Cs1 S16 3.924167 1_555
Cs2 S24 3.499340 1_554
Cs2 S13 3.499340 1_455
Cs2 S1 3.896607 1_554
Cs2 S27 3.896607 1_455
Cs2 S5 3.942397 1_555
Cs2 S6 3.942397 1_454
Cs3 S22 3.779241 1_545
Cs3 S14 3.779241 1_655
Cs3 S20 3.813879 1_556
Cs3 S9 3.813879 1_555
Cs3 S26 3.924167 1_555
Cs3 S6 3.924167 1_555
Ag0 S4 2.523954 1_555
Ag0 S3 2.552470 1_455
Ag0 S15 2.696754 1_555
Ag0 S19 2.993881 1_555
Ag1 S11 2.523954 1_555
Ag1 S10 2.552470 1_655
Ag1 S17 2.696754 1_555
Ag1 S18 2.993881 1_555
Ag2 S10 2.523954 1_555
Ag2 S11 2.552470 1_545
Ag2 S23 2.696754 1_555
Ag2 S1 2.993881 1_555
Ag3 S3 2.523954 1_555
Ag3 S4 2.552470 1_565
Ag3 S21 2.696754 1_555
Ag3 S27 2.993881 1_555
S0 Sb5 2.475849 1_555
S0 Sb7 2.559499 1_545
S1 Sb0 2.518997 1_556
S1 Sb15 2.595943 1_555
S1 Sb6 2.952610 1_545
S2 Sb15 2.494686 1_565
S2 Sb6 2.533395 1_555
S3 Sb7 2.446974 1_555
S4 Sb0 2.446974 1_555
S5 Sb14 2.454640 1_554
S5 Sb1 2.650624 1_555
S6 Sb11 2.454640 1_556
S6 Sb6 2.650624 1_555
S7 Sb4 2.505794 1_555
S7 Sb5 2.637751 1_565
S7 Sb10 3.053167 1_665
S8 Sb4 2.494686 1_455
S8 Sb2 2.533395 1_555
S9 Sb10 2.494686 1_655
S9 Sb8 2.533395 1_555
S10 Sb3 2.446974 1_555
S11 Sb12 2.446974 1_555
S12 Sb15 2.505794 1_554
S12 Sb11 2.637751 1_455
S12 Sb9 3.053167 1_445
S13 Sb11 2.475849 1_555
S13 Sb0 2.559499 1_655
S14 Sb10 2.505794 1_555
S14 Sb13 2.637751 1_545
S14 Sb4 3.053167 1_445
S15 Sb2 2.455940 1_555
S15 Sb5 2.963437 1_555
S16 Sb13 2.454640 1_555
S16 Sb8 2.650624 1_555
S17 Sb8 2.455940 1_555
S17 Sb13 2.963437 1_555
S18 Sb7 2.518997 1_555
S18 Sb4 2.595943 1_555
S18 Sb2 2.952610 1_655
S19 Sb3 2.518997 1_555
S19 Sb10 2.595943 1_555
S19 Sb8 2.952610 1_455
S20 Sb9 2.494686 1_545
S20 Sb1 2.533395 1_555
S21 Sb6 2.455940 1_554
S21 Sb11 2.963437 1_555
S22 Sb9 2.505794 1_556
S22 Sb14 2.637751 1_655
S22 Sb15 3.053167 1_665
S23 Sb1 2.455940 1_556
S23 Sb14 2.963437 1_555
S24 Sb14 2.475849 1_555
S24 Sb12 2.559499 1_455
S25 Sb13 2.475849 1_555
S25 Sb3 2.559499 1_565
S26 Sb5 2.454640 1_555
S26 Sb2 2.650624 1_555
S27 Sb12 2.518997 1_554
S27 Sb9 2.595943 1_555
S27 Sb1 2.952610 1_565
