# generated using pymatgen
data_PuGa4
_symmetry_space_group_name_H-M   'P 1'
_cell_length_a   7.82957929
_cell_length_b   7.82708513
_cell_length_c   7.82560779
_cell_angle_alpha   147.57431648
_cell_angle_beta   132.52727037
_cell_angle_gamma   58.65147790
_symmetry_Int_Tables_number   1
_chemical_formula_structural   PuGa4
_chemical_formula_sum   'Pu2 Ga8'
_cell_volume   187.96639362
_cell_formula_units_Z   2
loop_
 _symmetry_equiv_pos_site_id
 _symmetry_equiv_pos_as_xyz
  1  'x, y, z'
loop_
 _atom_site_type_symbol
 _atom_site_label
 _atom_site_symmetry_multiplicity
 _atom_site_fract_x
 _atom_site_fract_y
 _atom_site_fract_z
 _atom_site_occupancy
  Pu  Pu0  1  0.63676228  0.38701922  0.24983992  1
  Pu  Pu1  1  0.36295238  0.61288285  0.75015867  1
  Ga  Ga0  1  0.50072831  -0.00055493  0.49981515  1
  Ga  Ga1  1  -0.00003251  -0.00058748  -0.00077974  1
  Ga  Ga2  1  0.85865484  0.60915082  0.24976387  1
  Ga  Ga3  1  0.14073341  0.39078849  0.74987961  1
  Ga  Ga4  1  0.73561650  0.19965247  0.53777079  1
  Ga  Ga5  1  0.26470031  0.80103392  0.46300353  1
  Ga  Ga6  1  0.83808081  0.80210827  0.03773423  1
  Ga  Ga7  1  0.16180367  0.19850637  0.96281295  1
loop_
_geom_bond_atom_site_label_1
_geom_bond_atom_site_label_2
_geom_bond_distance
_geom_bond_site_symmetry_2
Ga0 Ga4 2.720365 1_555
Ga0 Ga5 2.724153 1_545
Ga0 Ga2 3.070685 1_545
Ga0 Ga2 3.077398 1_556
Ga0 Ga3 3.080959 1_544
Ga0 Ga3 3.083957 1_555
Ga0 Pu1 3.099974 1_544
Ga0 Pu0 3.100514 1_545
Ga0 Pu0 3.104685 1_556
Ga0 Pu1 3.105406 1_555
Ga1 Ga7 2.721614 1_554
Ga1 Ga6 2.724189 1_445
Ga1 Ga2 3.074505 1_444
Ga1 Ga3 3.076980 1_544
Ga1 Ga2 3.080064 1_455
Ga1 Ga3 3.080304 1_555
Ga1 Pu1 3.101032 1_544
Ga1 Pu0 3.104350 1_444
Ga1 Pu1 3.106781 1_555
Ga1 Pu0 3.107382 1_455
Ga2 Ga4 2.837955 1_554
Ga2 Ga7 2.843021 1_665
Ga2 Ga4 2.843690 1_565
Ga2 Ga7 2.844309 1_654
Ga2 Ga6 2.945527 1_555
Ga2 Ga5 2.951698 1_655
Ga2 Pu0 3.031040 1_555
Ga2 Pu1 3.148198 1_554
Ga2 Pu1 3.154329 1_655
Ga3 Ga6 2.839333 1_445
Ga3 Ga5 2.839906 1_556
Ga3 Ga5 2.842446 1_545
Ga3 Ga6 2.844263 1_456
Ga3 Ga7 2.944936 1_555
Ga3 Ga4 2.946502 1_455
Ga3 Pu1 3.030591 1_555
Ga3 Pu0 3.150469 1_556
Ga3 Pu0 3.152073 1_455
Ga4 Ga6 2.594098 1_545
Ga4 Ga6 2.595023 1_556
Ga4 Ga7 2.685696 1_655
Ga4 Pu1 3.065738 1_555
Ga4 Pu1 3.072279 1_544
Ga4 Pu0 3.141123 1_555
Ga5 Ga7 2.595363 1_565
Ga5 Ga7 2.595800 1_554
Ga5 Ga6 2.687551 1_455
Ga5 Pu0 3.064533 1_555
Ga5 Pu0 3.068093 1_566
Ga5 Pu1 3.143456 1_555
Ga6 Pu0 3.065795 1_565
Ga6 Pu0 3.070627 1_554
Ga6 Pu1 3.144068 1_554
Ga7 Pu1 3.068351 1_545
Ga7 Pu1 3.069784 1_556
Ga7 Pu0 3.142190 1_556
