# generated using pymatgen
data_In2Si(AgS3)2
_symmetry_space_group_name_H-M   'P 1'
_cell_length_a   7.16928354
_cell_length_b   7.16928354
_cell_length_c   12.32027237
_cell_angle_alpha   73.38228466
_cell_angle_beta   73.38228466
_cell_angle_gamma   61.23178931
_symmetry_Int_Tables_number   1
_chemical_formula_structural   In2Si(AgS3)2
_chemical_formula_sum   'In4 Si2 Ag4 S12'
_cell_volume   523.54100846
_cell_formula_units_Z   2
loop_
 _symmetry_equiv_pos_site_id
 _symmetry_equiv_pos_as_xyz
  1  'x, y, z'
loop_
 _atom_site_type_symbol
 _atom_site_label
 _atom_site_symmetry_multiplicity
 _atom_site_fract_x
 _atom_site_fract_y
 _atom_site_fract_z
 _atom_site_occupancy
  In  In0  1  0.30370400  0.17406800  0.23291200  1
  In  In1  1  0.51430700  0.32544300  0.43059600  1
  In  In2  1  0.32544300  0.51430700  0.93059600  1
  In  In3  1  0.17406800  0.30370400  0.73291200  1
  Si  Si0  1  0.94102400  0.40323600  0.48973800  1
  Si  Si1  1  0.40323600  0.94102400  0.98973800  1
  Ag  Ag0  1  0.81168000  0.38922200  0.07870300  1
  Ag  Ag1  1  0.98657800  0.80571000  0.23682100  1
  Ag  Ag2  1  0.38922200  0.81168000  0.57870300  1
  Ag  Ag3  1  0.80571000  0.98657800  0.73682100  1
  S  S0  1  0.64899300  0.17005700  0.24910200  1
  S  S1  1  0.65214500  0.59662600  0.41573300  1
  S  S2  1  0.06621500  0.51831200  0.11820700  1
  S  S3  1  0.10368100  0.09941400  0.43389200  1
  S  S4  1  0.59662600  0.65214500  0.91573300  1
  S  S5  1  0.17005700  0.64899300  0.74910200  1
  S  S6  1  0.11542700  0.59417000  0.44008200  1
  S  S7  1  0.51831200  0.06621500  0.61820700  1
  S  S8  1  0.35469500  0.84509200  0.17251400  1
  S  S9  1  0.84509200  0.35469500  0.67251400  1
  S  S10  1  0.09941400  0.10368100  0.93389200  1
  S  S11  1  0.59417000  0.11542700  0.94008200  1
loop_
_geom_bond_atom_site_label_1
_geom_bond_atom_site_label_2
_geom_bond_distance
_geom_bond_site_symmetry_2
In0 S8 2.503659 1_545
In0 S2 2.514704 1_555
In0 S0 2.525710 1_555
In0 S3 2.534536 1_555
In1 S7 2.515353 1_555
In1 S0 2.515504 1_555
In1 S1 2.516361 1_555
In1 S6 2.556910 1_555
In2 S2 2.515353 1_556
In2 S5 2.515504 1_555
In2 S4 2.516361 1_555
In2 S11 2.556910 1_555
In3 S9 2.503659 1_455
In3 S7 2.514704 1_555
In3 S5 2.525710 1_555
In3 S10 2.534536 1_555
Ag0 S0 2.590999 1_555
Ag0 S4 2.601951 1_554
Ag0 S2 2.610482 1_655
Ag0 S10 2.747430 1_654
Ag1 S0 2.575868 1_565
Ag1 S2 2.611441 1_655
Ag1 S8 2.658154 1_655
Ag1 S6 2.688295 1_655
Ag2 S5 2.590999 1_555
Ag2 S1 2.601951 1_555
Ag2 S7 2.610482 1_565
Ag2 S3 2.747430 1_565
Ag3 S5 2.575868 1_655
Ag3 S7 2.611441 1_565
Ag3 S9 2.658154 1_565
Ag3 S11 2.688295 1_565
S1 Si0 2.153140 1_555
S3 Si0 2.128649 1_455
S4 Si1 2.153140 1_555
S6 Si0 2.131274 1_455
S8 Si1 2.135714 1_554
S9 Si0 2.135714 1_555
S10 Si1 2.128649 1_545
S11 Si1 2.131274 1_545
