# generated using pymatgen
data_Ca21(Mn2Bi9)2
_symmetry_space_group_name_H-M   'P 1'
_cell_length_a   12.42990371
_cell_length_b   12.42990371
_cell_length_c   17.22145491
_cell_angle_alpha   88.20474333
_cell_angle_beta   88.20474333
_cell_angle_gamma   90.17457442
_symmetry_Int_Tables_number   1
_chemical_formula_structural   Ca21(Mn2Bi9)2
_chemical_formula_sum   'Ca42 Mn8 Bi36'
_cell_volume   2658.12494655
_cell_formula_units_Z   2
loop_
 _symmetry_equiv_pos_site_id
 _symmetry_equiv_pos_as_xyz
  1  'x, y, z'
loop_
 _atom_site_type_symbol
 _atom_site_label
 _atom_site_symmetry_multiplicity
 _atom_site_fract_x
 _atom_site_fract_y
 _atom_site_fract_z
 _atom_site_occupancy
  Ca  Ca0  1  0.24201000  0.48077200  0.43338700  1
  Ca  Ca1  1  0.23209000  0.40756800  0.65579400  1
  Ca  Ca2  1  0.08992800  0.57886600  0.24040100  1
  Ca  Ca3  1  0.93934100  0.68477000  0.88238700  1
  Ca  Ca4  1  0.25139000  0.73640800  0.57918900  1
  Ca  Ca5  1  0.25636400  0.07930500  0.84061300  1
  Ca  Ca6  1  0.59243200  0.76791000  0.84420600  1
  Ca  Ca7  1  0.73640800  0.25139000  0.07918900  1
  Ca  Ca8  1  0.40756800  0.23209000  0.15579400  1
  Ca  Ca9  1  0.48681700  0.31646900  0.56460900  1
  Ca  Ca10  1  0.92069500  0.74363600  0.65938700  1
  Ca  Ca11  1  0.42841900  0.57158100  0.25000000  1
  Ca  Ca12  1  0.42272900  0.18874000  0.37819900  1
  Ca  Ca13  1  0.57886600  0.08992800  0.74040100  1
  Ca  Ca14  1  0.26646200  0.99790900  0.06231200  1
  Ca  Ca15  1  0.42113400  0.91007200  0.25959900  1
  Ca  Ca16  1  0.00209100  0.73353800  0.43768800  1
  Ca  Ca17  1  0.81126000  0.57727100  0.12180100  1
  Ca  Ca18  1  0.00494500  0.82326100  0.07319400  1
  Ca  Ca19  1  0.57727100  0.81126000  0.62180100  1
  Ca  Ca20  1  0.51318300  0.68353100  0.43539100  1
  Ca  Ca21  1  0.26359200  0.74861000  0.92081100  1
  Ca  Ca22  1  0.18874000  0.42272900  0.87819900  1
  Ca  Ca23  1  0.06065900  0.31523000  0.11761300  1
  Ca  Ca24  1  0.31523000  0.06065900  0.61761300  1
  Ca  Ca25  1  0.99790900  0.26646200  0.56231200  1
  Ca  Ca26  1  0.57158100  0.42841900  0.75000000  1
  Ca  Ca27  1  0.51922800  0.75799000  0.06661300  1
  Ca  Ca28  1  0.17673900  0.99505500  0.42680600  1
  Ca  Ca29  1  0.75799000  0.51922800  0.56661300  1
  Ca  Ca30  1  0.74861000  0.26359200  0.42081100  1
  Ca  Ca31  1  0.99505500  0.17673900  0.92680600  1
  Ca  Ca32  1  0.68353100  0.51318300  0.93539100  1
  Ca  Ca33  1  0.07930500  0.25636400  0.34061300  1
  Ca  Ca34  1  0.68477000  0.93934100  0.38238700  1
  Ca  Ca35  1  0.82326100  0.00494500  0.57319400  1
  Ca  Ca36  1  0.48077200  0.24201000  0.93338700  1
  Ca  Ca37  1  0.74363600  0.92069500  0.15938700  1
  Ca  Ca38  1  0.73353800  0.00209100  0.93768800  1
  Ca  Ca39  1  0.31646900  0.48681700  0.06460900  1
  Ca  Ca40  1  0.91007200  0.42113400  0.75959900  1
  Ca  Ca41  1  0.76791000  0.59243200  0.34420600  1
  Mn  Mn0  1  0.36038300  0.63961700  0.75000000  1
  Mn  Mn1  1  0.63961700  0.36038300  0.25000000  1
  Mn  Mn2  1  0.99897400  0.00102600  0.75000000  1
  Mn  Mn3  1  0.84191300  0.15808700  0.75000000  1
  Mn  Mn4  1  0.15379200  0.84620800  0.75000000  1
  Mn  Mn5  1  0.84620800  0.15379200  0.25000000  1
  Mn  Mn6  1  0.00102600  0.99897400  0.25000000  1
  Mn  Mn7  1  0.15808700  0.84191300  0.25000000  1
  Bi  Bi0  1  0.24271300  0.23931600  0.00020700  1
  Bi  Bi1  1  0.08015400  0.57863700  0.03678700  1
  Bi  Bi2  1  0.07956900  0.93355700  0.59936500  1
  Bi  Bi3  1  0.74591000  0.27184500  0.62511200  1
  Bi  Bi4  1  0.92043100  0.06644300  0.40063500  1
  Bi  Bi5  1  0.57863700  0.08015400  0.53678700  1
  Bi  Bi6  1  0.23931600  0.24271300  0.50020700  1
  Bi  Bi7  1  0.91984600  0.42136300  0.96321300  1
  Bi  Bi8  1  0.22073000  0.07162800  0.24563900  1
  Bi  Bi9  1  0.77927000  0.92837200  0.75436100  1
  Bi  Bi10  1  0.04005700  0.53954600  0.57960400  1
  Bi  Bi11  1  0.72815500  0.25409000  0.87488800  1
  Bi  Bi12  1  0.07162800  0.22073000  0.74563900  1
  Bi  Bi13  1  0.61033700  0.74443000  0.25302200  1
  Bi  Bi14  1  0.25557000  0.38966300  0.24697800  1
  Bi  Bi15  1  0.53954600  0.04005700  0.07960400  1
  Bi  Bi16  1  0.25409000  0.72815500  0.37488800  1
  Bi  Bi17  1  0.76068400  0.75728700  0.49979300  1
  Bi  Bi18  1  0.46045400  0.95994300  0.92039600  1
  Bi  Bi19  1  0.44778600  0.56651500  0.60491200  1
  Bi  Bi20  1  0.38217700  0.86977800  0.74140900  1
  Bi  Bi21  1  0.92837200  0.77927000  0.25436100  1
  Bi  Bi22  1  0.93355700  0.07956900  0.09936500  1
  Bi  Bi23  1  0.95994300  0.46045400  0.42039600  1
  Bi  Bi24  1  0.43348500  0.55221400  0.89508800  1
  Bi  Bi25  1  0.75728700  0.76068400  0.99979300  1
  Bi  Bi26  1  0.38966300  0.25557000  0.74697800  1
  Bi  Bi27  1  0.42136300  0.91984600  0.46321300  1
  Bi  Bi28  1  0.56651500  0.44778600  0.10491200  1
  Bi  Bi29  1  0.13022200  0.61782300  0.75859100  1
  Bi  Bi30  1  0.86977800  0.38217700  0.24140900  1
  Bi  Bi31  1  0.55221400  0.43348500  0.39508800  1
  Bi  Bi32  1  0.74443000  0.61033700  0.75302200  1
  Bi  Bi33  1  0.27184500  0.74591000  0.12511200  1
  Bi  Bi34  1  0.61782300  0.13022200  0.25859100  1
  Bi  Bi35  1  0.06644300  0.92043100  0.90063500  1
loop_
_geom_bond_atom_site_label_1
_geom_bond_atom_site_label_2
_geom_bond_distance
_geom_bond_site_symmetry_2
Ca2 Mn7 3.385477 1_555
Ca4 Mn0 3.460324 1_555
Ca4 Mn4 3.467783 1_555
Ca7 Mn1 3.460324 1_555
Ca7 Mn5 3.467783 1_555
Ca13 Mn3 3.385477 1_555
Ca15 Mn7 3.385477 1_555
Ca21 Mn0 3.460324 1_555
Ca21 Mn4 3.467783 1_555
Ca30 Mn1 3.460324 1_555
Ca30 Mn5 3.467783 1_555
Ca40 Mn3 3.385477 1_555
Bi0 Ca22 3.140056 1_554
Bi0 Ca36 3.140849 1_554
Bi0 Ca23 3.153590 1_555
Bi0 Ca14 3.171616 1_545
Bi0 Ca8 3.422928 1_555
Bi0 Ca39 3.434415 1_555
Bi0 Ca5 3.442945 1_554
Bi0 Ca31 3.459776 1_454
Bi1 Bi7 3.112429 1_454
Bi1 Ca39 3.199168 1_555
Bi1 Ca18 3.257706 1_555
Bi1 Ca3 3.458323 1_454
Bi1 Ca2 3.512525 1_555
Bi1 Ca23 3.522015 1_555
Bi1 Ca17 3.606441 1_455
Bi1 Ca21 3.615613 1_554
Bi1 Ca22 3.626686 1_554
Bi2 Mn2 2.900883 1_465
Bi2 Mn4 2.956216 1_555
Bi2 Ca10 3.198744 1_455
Bi2 Ca28 3.240586 1_555
Bi2 Ca4 3.275047 1_555
Bi2 Ca35 3.350001 1_465
Bi2 Ca24 3.351982 1_565
Bi3 Mn3 2.833666 1_555
Bi3 Ca29 3.207240 1_555
Bi3 Ca25 3.283160 1_555
Bi3 Ca9 3.456858 1_555
Bi3 Ca30 3.522179 1_555
Bi3 Ca13 3.577437 1_555
Bi3 Ca35 3.589059 1_555
Bi3 Ca26 3.620057 1_555
Bi3 Ca40 3.676085 1_555
Bi4 Mn6 2.900883 1_645
Bi4 Mn5 2.956216 1_555
Bi4 Ca33 3.198744 1_655
Bi4 Ca35 3.240586 1_555
Bi4 Ca30 3.275047 1_555
Bi4 Ca28 3.350001 1_645
Bi4 Ca34 3.351982 1_545
Bi5 Ca9 3.199168 1_555
Bi5 Ca35 3.257706 1_555
Bi5 Ca34 3.458323 1_545
Bi5 Ca13 3.512525 1_555
Bi5 Ca24 3.522015 1_555
Bi5 Ca19 3.606441 1_545
Bi5 Ca30 3.615613 1_555
Bi5 Ca12 3.626686 1_555
Bi6 Ca12 3.140056 1_555
Bi6 Ca0 3.140849 1_555
Bi6 Ca24 3.153590 1_555
Bi6 Ca25 3.171616 1_455
Bi6 Ca1 3.422928 1_555
Bi6 Ca9 3.434415 1_555
Bi6 Ca33 3.442945 1_555
Bi6 Ca28 3.459776 1_545
Bi7 Ca32 3.199168 1_555
Bi7 Ca31 3.257706 1_555
Bi7 Ca23 3.458323 1_656
Bi7 Ca40 3.512525 1_555
Bi7 Ca3 3.522015 1_555
Bi7 Ca22 3.606441 1_655
Bi7 Ca7 3.615613 1_556
Bi7 Ca17 3.626686 1_556
Bi8 Mn6 2.871738 1_545
Bi8 Mn7 2.955372 1_545
Bi8 Ca15 3.214532 1_545
Bi8 Ca28 3.262350 1_545
Bi8 Ca33 3.334352 1_555
Bi8 Ca14 3.346999 1_545
Bi8 Ca8 3.364353 1_555
Bi8 Ca12 3.765621 1_555
Bi9 Mn2 2.871738 1_565
Bi9 Mn3 2.955372 1_565
Bi9 Ca13 3.214532 1_565
Bi9 Ca35 3.262350 1_565
Bi9 Ca10 3.334352 1_555
Bi9 Ca38 3.346999 1_565
Bi9 Ca6 3.364353 1_555
Bi9 Ca19 3.765621 1_555
Bi10 Bi23 3.132021 1_455
Bi10 Ca1 3.193045 1_555
Bi10 Ca10 3.261612 1_455
Bi10 Ca16 3.423473 1_555
Bi10 Ca25 3.456505 1_455
Bi10 Bi29 3.478758 1_555
Bi10 Ca29 3.528969 1_455
Bi10 Ca4 3.584220 1_555
Bi10 Ca0 3.592514 1_555
Bi10 Ca40 3.710968 1_455
Bi11 Mn3 2.833666 1_555
Bi11 Ca36 3.207240 1_555
Bi11 Ca38 3.283160 1_555
Bi11 Ca32 3.456858 1_555
Bi11 Ca7 3.522179 1_556
Bi11 Ca40 3.577437 1_555
Bi11 Ca31 3.589059 1_555
Bi11 Ca26 3.620057 1_555
Bi11 Ca13 3.676085 1_555
Bi12 Mn2 2.871738 1_455
Bi12 Mn3 2.955372 1_455
Bi12 Ca40 3.214532 1_455
Bi12 Ca31 3.262350 1_455
Bi12 Ca5 3.334352 1_555
Bi12 Ca25 3.346999 1_455
Bi12 Ca1 3.364353 1_555
Bi12 Ca22 3.765621 1_555
Bi13 Ca11 3.117154 1_555
Bi13 Ca37 3.120089 1_555
Bi13 Ca15 3.132129 1_555
Bi13 Ca41 3.146584 1_555
Bi13 Ca20 3.391595 1_555
Bi13 Ca27 3.436795 1_555
Bi13 Ca34 3.484621 1_555
Bi14 Ca11 3.117154 1_555
Bi14 Ca33 3.120089 1_555
Bi14 Ca2 3.132129 1_555
Bi14 Ca8 3.146584 1_555
Bi14 Ca39 3.391595 1_555
Bi14 Ca0 3.436795 1_555
Bi14 Ca23 3.484621 1_555
Bi15 Bi18 3.132021 1_544
Bi15 Ca8 3.193045 1_555
Bi15 Ca37 3.261612 1_545
Bi15 Ca38 3.423473 1_554
Bi15 Ca14 3.456505 1_545
Bi15 Bi34 3.478758 1_555
Bi15 Ca27 3.528969 1_545
Bi15 Ca7 3.584220 1_555
Bi15 Ca36 3.592514 1_554
Bi15 Ca15 3.710968 1_545
Bi16 Mn7 2.833666 1_555
Bi16 Ca0 3.207240 1_555
Bi16 Ca16 3.283160 1_555
Bi16 Ca20 3.456858 1_555
Bi16 Ca4 3.522179 1_555
Bi16 Ca15 3.577437 1_555
Bi16 Ca28 3.589059 1_555
Bi16 Ca11 3.620057 1_555
Bi16 Ca2 3.676085 1_555
Bi17 Ca19 3.140056 1_555
Bi17 Ca29 3.140849 1_555
Bi17 Ca34 3.153590 1_555
Bi17 Ca16 3.171616 1_655
Bi17 Ca41 3.422928 1_555
Bi17 Ca20 3.434415 1_555
Bi17 Ca10 3.442945 1_555
Bi17 Ca35 3.459776 1_565
Bi18 Ca6 3.193045 1_555
Bi18 Ca5 3.261612 1_565
Bi18 Ca14 3.423473 1_556
Bi18 Ca38 3.456505 1_565
Bi18 Bi20 3.478758 1_555
Bi18 Ca36 3.528969 1_565
Bi18 Ca21 3.584220 1_555
Bi18 Ca27 3.592514 1_556
Bi18 Ca13 3.710968 1_565
Bi19 Mn0 2.868319 1_555
Bi19 Ca9 3.240421 1_555
Bi19 Ca4 3.264303 1_555
Bi19 Ca20 3.298071 1_555
Bi19 Ca26 3.397885 1_555
Bi19 Ca1 3.401684 1_555
Bi19 Ca19 3.461891 1_555
Bi20 Mn4 2.851741 1_555
Bi20 Mn0 2.871611 1_555
Bi20 Ca19 3.231752 1_555
Bi20 Ca24 3.267002 1_565
Bi20 Ca6 3.425933 1_555
Bi20 Ca5 3.504778 1_565
Bi20 Ca21 3.660057 1_555
Bi20 Ca13 3.663221 1_565
Bi20 Ca4 3.708625 1_555
Bi21 Mn6 2.871738 1_655
Bi21 Mn7 2.955372 1_655
Bi21 Ca2 3.214532 1_655
Bi21 Ca18 3.262350 1_655
Bi21 Ca37 3.334352 1_555
Bi21 Ca16 3.346999 1_655
Bi21 Ca41 3.364353 1_555
Bi21 Ca17 3.765621 1_555
Bi22 Mn6 2.900883 1_645
Bi22 Mn5 2.956216 1_555
Bi22 Ca37 3.198744 1_545
Bi22 Ca31 3.240586 1_554
Bi22 Ca7 3.275047 1_555
Bi22 Ca18 3.350001 1_645
Bi22 Ca23 3.351982 1_655
Bi23 Ca41 3.193045 1_555
Bi23 Ca33 3.261612 1_655
Bi23 Ca25 3.423473 1_555
Bi23 Ca16 3.456505 1_655
Bi23 Bi30 3.478758 1_555
Bi23 Ca0 3.528969 1_655
Bi23 Ca30 3.584220 1_555
Bi23 Ca29 3.592514 1_555
Bi23 Ca2 3.710968 1_655
Bi24 Mn0 2.868319 1_555
Bi24 Ca32 3.240421 1_555
Bi24 Ca21 3.264303 1_555
Bi24 Ca39 3.298071 1_556
Bi24 Ca26 3.397885 1_555
Bi24 Ca6 3.401684 1_555
Bi24 Ca22 3.461891 1_555
Bi25 Ca17 3.140056 1_556
Bi25 Ca27 3.140849 1_556
Bi25 Ca3 3.153590 1_555
Bi25 Ca38 3.171616 1_565
Bi25 Ca6 3.422928 1_555
Bi25 Ca32 3.434415 1_555
Bi25 Ca37 3.442945 1_556
Bi25 Ca18 3.459776 1_656
Bi26 Ca26 3.117154 1_555
Bi26 Ca5 3.120089 1_555
Bi26 Ca13 3.132129 1_555
Bi26 Ca1 3.146584 1_555
Bi26 Ca9 3.391595 1_555
Bi26 Ca36 3.436795 1_555
Bi26 Ca24 3.484621 1_555
Bi27 Bi5 3.112429 1_565
Bi27 Ca20 3.199168 1_555
Bi27 Ca28 3.257706 1_555
Bi27 Ca24 3.458323 1_565
Bi27 Ca15 3.512525 1_555
Bi27 Ca34 3.522015 1_555
Bi27 Ca12 3.606441 1_565
Bi27 Ca4 3.615613 1_555
Bi27 Ca19 3.626686 1_555
Bi28 Mn1 2.868319 1_555
Bi28 Ca39 3.240421 1_555
Bi28 Ca7 3.264303 1_555
Bi28 Ca32 3.298071 1_554
Bi28 Ca11 3.397885 1_555
Bi28 Ca8 3.401684 1_555
Bi28 Ca17 3.461891 1_555
Bi29 Mn4 2.851741 1_555
Bi29 Mn0 2.871611 1_555
Bi29 Ca22 3.231752 1_555
Bi29 Ca3 3.267002 1_455
Bi29 Ca1 3.425933 1_555
Bi29 Ca10 3.504778 1_455
Bi29 Ca4 3.660057 1_555
Bi29 Ca40 3.663221 1_455
Bi29 Ca21 3.708625 1_555
Bi30 Mn5 2.851741 1_555
Bi30 Mn1 2.871611 1_555
Bi30 Ca17 3.231752 1_555
Bi30 Ca23 3.267002 1_655
Bi30 Ca41 3.425933 1_555
Bi30 Ca33 3.504778 1_655
Bi30 Ca30 3.660057 1_555
Bi30 Ca2 3.663221 1_655
Bi30 Ca7 3.708625 1_555
Bi31 Mn1 2.868319 1_555
Bi31 Ca20 3.240421 1_555
Bi31 Ca30 3.264303 1_555
Bi31 Ca9 3.298071 1_555
Bi31 Ca11 3.397885 1_555
Bi31 Ca41 3.401684 1_555
Bi31 Ca12 3.461891 1_555
Bi32 Ca26 3.117154 1_555
Bi32 Ca10 3.120089 1_555
Bi32 Ca40 3.132129 1_555
Bi32 Ca6 3.146584 1_555
Bi32 Ca32 3.391595 1_555
Bi32 Ca29 3.436795 1_555
Bi32 Ca3 3.484621 1_555
Bi33 Mn7 2.833666 1_555
Bi33 Ca27 3.207240 1_555
Bi33 Ca14 3.283160 1_555
Bi33 Ca39 3.456858 1_555
Bi33 Ca21 3.522179 1_554
Bi33 Ca2 3.577437 1_555
Bi33 Ca18 3.589059 1_555
Bi33 Ca11 3.620057 1_555
Bi33 Ca15 3.676085 1_555
Bi34 Mn5 2.851741 1_555
Bi34 Mn1 2.871611 1_555
Bi34 Ca12 3.231752 1_555
Bi34 Ca34 3.267002 1_545
Bi34 Ca8 3.425933 1_555
Bi34 Ca37 3.504778 1_545
Bi34 Ca7 3.660057 1_555
Bi34 Ca15 3.663221 1_545
Bi34 Ca30 3.708625 1_555
Bi35 Mn2 2.900883 1_465
Bi35 Mn4 2.956216 1_555
Bi35 Ca5 3.198744 1_565
Bi35 Ca18 3.240586 1_556
Bi35 Ca21 3.275047 1_555
Bi35 Ca31 3.350001 1_465
Bi35 Ca3 3.351982 1_455
