# generated using pymatgen
data_Hg2SeO3
_symmetry_space_group_name_H-M   'P 1'
_cell_length_a   8.91843911
_cell_length_b   8.91848029
_cell_length_c   8.91849510
_cell_angle_alpha   127.74658752
_cell_angle_beta   107.21925484
_cell_angle_gamma   95.26734927
_symmetry_Int_Tables_number   1
_chemical_formula_structural   Hg2SeO3
_chemical_formula_sum   'Hg8 Se4 O12'
_cell_volume   499.54456885
_cell_formula_units_Z   4
loop_
 _symmetry_equiv_pos_site_id
 _symmetry_equiv_pos_as_xyz
  1  'x, y, z'
loop_
 _atom_site_type_symbol
 _atom_site_label
 _atom_site_symmetry_multiplicity
 _atom_site_fract_x
 _atom_site_fract_y
 _atom_site_fract_z
 _atom_site_occupancy
  Hg  Hg0  1  0.43818660  0.85046881  0.07517105  1
  Hg  Hg1  1  0.22470435  0.13698517  0.57517083  1
  Hg  Hg2  1  0.43818638  0.36301558  0.58771821  1
  Hg  Hg3  1  0.56181335  0.63698485  0.41228167  1
  Hg  Hg4  1  0.77529286  0.35046357  0.91227861  1
  Hg  Hg5  1  0.56181263  0.14953052  0.92482793  1
  Hg  Hg6  1  0.77529465  0.86301474  0.42482962  1
  Hg  Hg7  1  0.22470672  0.64953591  0.08772149  1
  Se  Se0  1  0.83587520  0.30065207  0.53522479  1
  Se  Se1  1  0.76543218  0.80064856  0.96478337  1
  Se  Se2  1  0.16412605  0.69934834  0.46477538  1
  Se  Se3  1  0.23456668  0.19935084  0.03521556  1
  O  O0  1  0.35306452  0.38630408  0.30680399  1
  O  O1  1  0.63834504  0.17530356  0.46304154  1
  O  O2  1  0.07949714  0.88630487  0.53323582  1
  O  O3  1  0.71226072  0.67529998  0.03695979  1
  O  O4  1  0.36165582  0.82469648  0.53695871  1
  O  O5  1  0.64693353  0.61369586  0.69319493  1
  O  O6  1  0.64693417  0.95373954  0.03323902  1
  O  O7  1  0.92050355  0.45374020  0.80681105  1
  O  O8  1  0.07949656  0.54626070  0.19319023  1
  O  O9  1  0.28773884  0.32469949  0.96303924  1
  O  O10  1  0.35306586  0.04626053  0.96676139  1
  O  O11  1  0.92050460  0.11369474  0.46676577  1
loop_
_geom_bond_atom_site_label_1
_geom_bond_atom_site_label_2
_geom_bond_distance
_geom_bond_site_symmetry_2
Hg0 O6 2.230056 1_555
Hg0 O10 2.536937 1_564
Hg0 O1 2.582708 1_565
Hg1 O2 2.230065 1_545
Hg1 O11 2.536906 1_455
Hg1 O9 2.582699 1_555
Hg2 O5 2.230056 1_555
Hg2 O0 2.536952 1_555
Hg2 O1 2.582710 1_555
Hg3 O0 2.230065 1_555
Hg3 O5 2.536947 1_555
Hg3 O4 2.582701 1_555
Hg4 O7 2.230070 1_555
Hg4 O8 2.536936 1_656
Hg4 O3 2.582702 1_556
Hg5 O10 2.230056 1_555
Hg5 O6 2.536942 1_546
Hg5 O4 2.582699 1_545
Hg6 O11 2.230067 1_565
Hg6 O2 2.536930 1_655
Hg6 O3 2.582711 1_555
Hg7 O8 2.230068 1_555
Hg7 O7 2.536930 1_454
Hg7 O9 2.582701 1_554
O0 Se3 1.726297 1_555
O1 Se0 1.689216 1_555
O2 Se2 1.726279 1_555
O3 Se1 1.689204 1_554
O4 Se2 1.689211 1_555
O5 Se1 1.726297 1_555
O6 Se1 1.726299 1_554
O7 Se0 1.726289 1_555
O8 Se2 1.726281 1_555
O9 Se3 1.689206 1_556
O10 Se3 1.726303 1_556
O11 Se0 1.726289 1_555
