# generated using pymatgen
data_Pr21Fe8Bi7C12
_symmetry_space_group_name_H-M   'P 1'
_cell_length_a   11.57083939
_cell_length_b   11.57083939
_cell_length_c   11.57083939
_cell_angle_alpha   60.00000000
_cell_angle_beta   60.00000000
_cell_angle_gamma   60.00000000
_symmetry_Int_Tables_number   1
_chemical_formula_structural   Pr21Fe8Bi7C12
_chemical_formula_sum   'Pr21 Fe8 Bi7 C12'
_cell_volume   1095.41730834
_cell_formula_units_Z   1
loop_
 _symmetry_equiv_pos_site_id
 _symmetry_equiv_pos_as_xyz
  1  'x, y, z'
loop_
 _atom_site_type_symbol
 _atom_site_label
 _atom_site_symmetry_multiplicity
 _atom_site_fract_x
 _atom_site_fract_y
 _atom_site_fract_z
 _atom_site_occupancy
  Pr  Pr0  1  0.36307900  0.36307900  0.36307900  1
  Pr  Pr1  1  0.34239300  0.00000000  0.00000000  1
  Pr  Pr2  1  0.36307900  0.91076300  0.36307900  1
  Pr  Pr3  1  0.63692100  0.63692100  0.63692100  1
  Pr  Pr4  1  0.36307900  0.36307900  0.91076300  1
  Pr  Pr5  1  0.00000000  0.00000000  0.65760700  1
  Pr  Pr6  1  0.00000000  0.65760700  0.00000000  1
  Pr  Pr7  1  0.63692100  0.08923700  0.63692100  1
  Pr  Pr8  1  0.34239300  0.65760700  0.00000000  1
  Pr  Pr9  1  0.08923700  0.63692100  0.63692100  1
  Pr  Pr10  1  0.91076300  0.36307900  0.36307900  1
  Pr  Pr11  1  0.00000000  0.34239300  0.65760700  1
  Pr  Pr12  1  0.65760700  0.34239300  0.00000000  1
  Pr  Pr13  1  0.34239300  0.00000000  0.65760700  1
  Pr  Pr14  1  0.63692100  0.63692100  0.08923700  1
  Pr  Pr15  1  0.00000000  0.65760700  0.34239300  1
  Pr  Pr16  1  0.65760700  0.00000000  0.00000000  1
  Pr  Pr17  1  0.65760700  0.00000000  0.34239300  1
  Pr  Pr18  1  0.50000000  0.50000000  0.50000000  1
  Pr  Pr19  1  0.00000000  0.00000000  0.34239300  1
  Pr  Pr20  1  0.00000000  0.34239300  0.00000000  1
  Fe  Fe0  1  0.19569100  0.19569100  0.19569100  1
  Fe  Fe1  1  0.41292600  0.19569100  0.19569100  1
  Fe  Fe2  1  0.80430900  0.80430900  0.58707400  1
  Fe  Fe3  1  0.19569100  0.41292600  0.19569100  1
  Fe  Fe4  1  0.19569100  0.19569100  0.41292600  1
  Fe  Fe5  1  0.80430900  0.58707400  0.80430900  1
  Fe  Fe6  1  0.58707400  0.80430900  0.80430900  1
  Fe  Fe7  1  0.80430900  0.80430900  0.80430900  1
  Bi  Bi0  1  0.71045200  0.28954800  0.28954800  1
  Bi  Bi1  1  0.28954800  0.28954800  0.71045200  1
  Bi  Bi2  1  0.28954800  0.71045200  0.71045200  1
  Bi  Bi3  1  0.71045200  0.28954800  0.71045200  1
  Bi  Bi4  1  0.28954800  0.71045200  0.28954800  1
  Bi  Bi5  1  0.00000000  0.00000000  0.00000000  1
  Bi  Bi6  1  0.71045200  0.71045200  0.28954800  1
  C  C0  1  0.39125300  0.39125300  0.10874700  1
  C  C1  1  0.60874700  0.60874700  0.89125300  1
  C  C2  1  0.39125300  0.10874700  0.10874700  1
  C  C3  1  0.10874700  0.39125300  0.10874700  1
  C  C4  1  0.89125300  0.89125300  0.60874700  1
  C  C5  1  0.89125300  0.60874700  0.89125300  1
  C  C6  1  0.10874700  0.10874700  0.39125300  1
  C  C7  1  0.39125300  0.10874700  0.39125300  1
  C  C8  1  0.60874700  0.89125300  0.89125300  1
  C  C9  1  0.60874700  0.89125300  0.60874700  1
  C  C10  1  0.10874700  0.39125300  0.39125300  1
  C  C11  1  0.89125300  0.60874700  0.60874700  1
loop_
_geom_bond_atom_site_label_1
_geom_bond_atom_site_label_2
_geom_bond_distance
_geom_bond_site_symmetry_2
Bi0 Pr10 3.389349 1_555
Bi0 Pr14 3.389349 1_555
Bi0 Pr7 3.389349 1_555
Bi0 Pr0 3.389349 1_555
Bi0 Pr19 3.405655 1_655
Bi0 Pr20 3.405655 1_655
Bi0 Pr12 3.405655 1_555
Bi0 Pr17 3.405655 1_555
Bi0 Pr18 3.443760 1_555
Bi1 Pr9 3.389349 1_555
Bi1 Pr4 3.389349 1_555
Bi1 Pr7 3.389349 1_555
Bi1 Pr0 3.389349 1_555
Bi1 Pr1 3.405655 1_556
Bi1 Pr11 3.405655 1_555
Bi1 Pr13 3.405655 1_555
Bi1 Pr20 3.405655 1_556
Bi1 Pr18 3.443760 1_555
Bi2 Pr3 3.389349 1_555
Bi2 Pr2 3.389349 1_555
Bi2 Pr4 3.389349 1_555
Bi2 Pr9 3.389349 1_555
Bi2 Pr5 3.405655 1_565
Bi2 Pr6 3.405655 1_556
Bi2 Pr13 3.405655 1_565
Bi2 Pr8 3.405655 1_556
Bi2 Pr18 3.443760 1_555
Bi3 Pr10 3.389349 1_555
Bi3 Pr3 3.389349 1_555
Bi3 Pr4 3.389349 1_555
Bi3 Pr7 3.389349 1_555
Bi3 Pr5 3.405655 1_655
Bi3 Pr16 3.405655 1_556
Bi3 Pr11 3.405655 1_655
Bi3 Pr12 3.405655 1_556
Bi3 Pr18 3.443760 1_555
Bi4 Pr9 3.389349 1_555
Bi4 Pr2 3.389349 1_555
Bi4 Pr14 3.389349 1_555
Bi4 Pr0 3.389349 1_555
Bi4 Pr19 3.405655 1_565
Bi4 Pr1 3.405655 1_565
Bi4 Pr15 3.405655 1_555
Bi4 Pr8 3.405655 1_555
Bi4 Pr18 3.443760 1_555
Bi5 Pr6 3.961774 1_545
Bi5 Pr16 3.961774 1_455
Bi5 Pr5 3.961774 1_554
Bi5 Pr13 3.961774 1_554
Bi5 Pr8 3.961774 1_545
Bi5 Pr1 3.961774 1_555
Bi5 Pr19 3.961774 1_555
Bi5 Pr17 3.961774 1_455
Bi5 Pr15 3.961774 1_545
Bi5 Pr11 3.961774 1_554
Bi5 Pr20 3.961774 1_555
Bi5 Pr12 3.961774 1_455
Bi6 Pr3 3.389349 1_555
Bi6 Pr10 3.389349 1_555
Bi6 Pr2 3.389349 1_555
Bi6 Pr14 3.389349 1_555
Bi6 Pr16 3.405655 1_565
Bi6 Pr6 3.405655 1_655
Bi6 Pr15 3.405655 1_655
Bi6 Pr17 3.405655 1_565
Bi6 Pr18 3.443760 1_555
C0 Fe3 1.898339 1_555
C0 Fe1 1.898339 1_555
C0 Pr8 2.547997 1_555
C0 Pr12 2.547997 1_555
C0 Pr0 2.657139 1_555
C0 Pr4 2.657139 1_554
C1 Fe6 1.898339 1_555
C1 Fe5 1.898339 1_555
C1 Pr12 2.547997 1_556
C1 Pr8 2.547997 1_556
C1 Pr14 2.657139 1_556
C1 Pr3 2.657139 1_555
C2 Fe1 1.898329 1_555
C2 Fe0 1.898337 1_555
C2 Pr1 2.547997 1_555
C2 Pr16 2.547997 1_555
C2 Pr2 2.657139 1_545
C2 Pr4 2.657139 1_554
C3 Fe3 1.898329 1_555
C3 Fe0 1.898337 1_555
C3 Pr6 2.547997 1_555
C3 Pr20 2.547997 1_555
C3 Pr4 2.657139 1_554
C3 Pr10 2.657139 1_455
C4 Fe2 1.898329 1_555
C4 Fe7 1.898337 1_555
C4 Pr19 2.547997 1_665
C4 Pr5 2.547997 1_665
C4 Pr9 2.657139 1_655
C4 Pr7 2.657139 1_565
C5 Fe5 1.898329 1_555
C5 Fe7 1.898337 1_555
C5 Pr20 2.547997 1_656
C5 Pr6 2.547997 1_656
C5 Pr9 2.657139 1_655
C5 Pr14 2.657139 1_556
C6 Fe4 1.898329 1_555
C6 Fe0 1.898337 1_555
C6 Pr5 2.547997 1_555
C6 Pr19 2.547997 1_555
C6 Pr2 2.657139 1_545
C6 Pr10 2.657139 1_455
C7 Fe4 1.898339 1_555
C7 Fe1 1.898339 1_555
C7 Pr13 2.547997 1_555
C7 Pr17 2.547997 1_555
C7 Pr0 2.657139 1_555
C7 Pr2 2.657139 1_545
C8 Fe6 1.898329 1_555
C8 Fe7 1.898337 1_555
C8 Pr1 2.547997 1_566
C8 Pr16 2.547997 1_566
C8 Pr14 2.657139 1_556
C8 Pr7 2.657139 1_565
C9 Fe2 1.898339 1_555
C9 Fe6 1.898339 1_555
C9 Pr17 2.547997 1_565
C9 Pr13 2.547997 1_565
C9 Pr7 2.657139 1_565
C9 Pr3 2.657139 1_555
C10 Fe4 1.898339 1_555
C10 Fe3 1.898339 1_555
C10 Pr11 2.547997 1_555
C10 Pr15 2.547997 1_555
C10 Pr0 2.657139 1_555
C10 Pr10 2.657139 1_455
C11 Fe5 1.898339 1_555
C11 Fe2 1.898339 1_555
C11 Pr15 2.547997 1_655
C11 Pr11 2.547997 1_655
C11 Pr9 2.657139 1_655
C11 Pr3 2.657139 1_555
