# generated using pymatgen
data_Ba5Er2ZrAl2O13
_symmetry_space_group_name_H-M   'P 1'
_cell_length_a   6.01733614
_cell_length_b   6.01733614
_cell_length_c   25.17070900
_cell_angle_alpha   90.00000000
_cell_angle_beta   90.00000000
_cell_angle_gamma   120.00000153
_symmetry_Int_Tables_number   1
_chemical_formula_structural   Ba5Er2ZrAl2O13
_chemical_formula_sum   'Ba10 Er4 Zr2 Al4 O26'
_cell_volume   789.28639895
_cell_formula_units_Z   2
loop_
 _symmetry_equiv_pos_site_id
 _symmetry_equiv_pos_as_xyz
  1  'x, y, z'
loop_
 _atom_site_type_symbol
 _atom_site_label
 _atom_site_symmetry_multiplicity
 _atom_site_fract_x
 _atom_site_fract_y
 _atom_site_fract_z
 _atom_site_occupancy
  Ba  Ba0  1  0.00000000  0.00000000  0.36274900  1
  Ba  Ba1  1  0.66666700  0.33333300  0.95858000  1
  Ba  Ba2  1  0.00000000  0.00000000  0.63725100  1
  Ba  Ba3  1  0.00000000  0.00000000  0.86274900  1
  Ba  Ba4  1  0.66666700  0.33333300  0.54142000  1
  Ba  Ba5  1  0.33333300  0.66666700  0.45858000  1
  Ba  Ba6  1  0.00000000  0.00000000  0.13725100  1
  Ba  Ba7  1  0.33333300  0.66666700  0.04142000  1
  Ba  Ba8  1  0.66666700  0.33333300  0.25000000  1
  Ba  Ba9  1  0.33333300  0.66666700  0.75000000  1
  Er  Er0  1  0.66666700  0.33333300  0.10392300  1
  Er  Er1  1  0.33333300  0.66666700  0.89607700  1
  Er  Er2  1  0.33333300  0.66666700  0.60392300  1
  Er  Er3  1  0.66666700  0.33333300  0.39607700  1
  Zr  Zr0  1  0.00000000  0.00000000  0.50000000  1
  Zr  Zr1  1  0.00000000  0.00000000  0.00000000  1
  Al  Al0  1  0.66666700  0.33333300  0.81907800  1
  Al  Al1  1  0.33333300  0.66666700  0.18092200  1
  Al  Al2  1  0.66666700  0.33333300  0.68092200  1
  Al  Al3  1  0.33333300  0.66666700  0.31907800  1
  O  O0  1  0.83681600  0.67363100  0.05037600  1
  O  O1  1  0.83681600  0.67363100  0.44962400  1
  O  O2  1  0.16318400  0.83681600  0.94962400  1
  O  O3  1  0.16318400  0.32636900  0.55037600  1
  O  O4  1  0.50517500  0.49482500  0.84194100  1
  O  O5  1  0.83681600  0.16318400  0.05037600  1
  O  O6  1  0.49482500  0.98964900  0.15805900  1
  O  O7  1  0.01035100  0.50517500  0.15805900  1
  O  O8  1  0.83681600  0.16318400  0.44962400  1
  O  O9  1  0.32636900  0.16318400  0.05037600  1
  O  O10  1  0.98964900  0.49482500  0.65805900  1
  O  O11  1  0.50517500  0.01035100  0.65805900  1
  O  O12  1  0.01035100  0.50517500  0.34194100  1
  O  O13  1  0.67363100  0.83681600  0.55037600  1
  O  O14  1  0.66666700  0.33333300  0.75000000  1
  O  O15  1  0.49482500  0.50517500  0.34194100  1
  O  O16  1  0.67363100  0.83681600  0.94962400  1
  O  O17  1  0.50517500  0.01035100  0.84194100  1
  O  O18  1  0.98964900  0.49482500  0.84194100  1
  O  O19  1  0.50517500  0.49482500  0.65805900  1
  O  O20  1  0.16318400  0.83681600  0.55037600  1
  O  O21  1  0.16318400  0.32636900  0.94962400  1
  O  O22  1  0.49482500  0.50517500  0.15805900  1
  O  O23  1  0.32636900  0.16318400  0.44962400  1
  O  O24  1  0.33333300  0.66666700  0.25000000  1
  O  O25  1  0.49482500  0.98964900  0.34194100  1
loop_
_geom_bond_atom_site_label_1
_geom_bond_atom_site_label_2
_geom_bond_distance
_geom_bond_site_symmetry_2
Ba0 O8 2.770245 1_455
Ba0 O23 2.770248 1_555
Ba0 O1 2.770248 1_445
Ba0 O25 3.054389 1_445
Ba0 O12 3.054389 1_555
Ba0 O15 3.054392 1_445
Ba0 O15 3.054392 1_555
Ba0 O25 3.054395 1_545
Ba0 O12 3.054395 1_545
Ba1 O0 2.912645 1_556
Ba1 O9 2.912645 1_556
Ba1 O5 2.912645 1_556
Ba1 O21 3.017314 1_655
Ba1 O16 3.017314 1_545
Ba1 O2 3.017320 1_655
Ba1 O2 3.017320 1_545
Ba1 O21 3.017326 1_555
Ba1 O16 3.017326 1_555
Ba1 O18 3.384124 1_555
Ba1 O17 3.384124 1_555
Ba1 O4 3.384129 1_555
Ba2 O20 2.770245 1_545
Ba2 O13 2.770248 1_445
Ba2 O3 2.770248 1_555
Ba2 O10 3.054389 1_445
Ba2 O11 3.054389 1_555
Ba2 O19 3.054392 1_445
Ba2 O19 3.054392 1_555
Ba2 O10 3.054395 1_455
Ba2 O11 3.054395 1_455
Ba3 O2 2.770245 1_545
Ba3 O16 2.770248 1_445
Ba3 O21 2.770248 1_555
Ba3 O18 3.054389 1_445
Ba3 O17 3.054389 1_555
Ba3 O4 3.054392 1_445
Ba3 O4 3.054392 1_555
Ba3 O18 3.054395 1_455
Ba3 O17 3.054395 1_455
Ba4 O23 2.912645 1_555
Ba4 O1 2.912645 1_555
Ba4 O8 2.912645 1_555
Ba4 O3 3.017314 1_655
Ba4 O13 3.017314 1_545
Ba4 O20 3.017320 1_655
Ba4 O20 3.017320 1_545
Ba4 O3 3.017326 1_555
Ba4 O13 3.017326 1_555
Ba4 O10 3.384124 1_555
Ba4 O11 3.384124 1_555
Ba4 O19 3.384129 1_555
Ba5 O3 2.912645 1_555
Ba5 O13 2.912645 1_555
Ba5 O20 2.912645 1_555
Ba5 O1 3.017314 1_455
Ba5 O23 3.017314 1_565
Ba5 O8 3.017320 1_565
Ba5 O8 3.017320 1_455
Ba5 O23 3.017326 1_555
Ba5 O1 3.017326 1_555
Ba5 O12 3.384124 1_555
Ba5 O25 3.384124 1_555
Ba5 O15 3.384129 1_555
Ba6 O5 2.770245 1_455
Ba6 O0 2.770248 1_445
Ba6 O9 2.770248 1_555
Ba6 O6 3.054389 1_445
Ba6 O7 3.054389 1_555
Ba6 O22 3.054392 1_445
Ba6 O22 3.054392 1_555
Ba6 O6 3.054395 1_545
Ba6 O7 3.054395 1_545
Ba7 O21 2.912645 1_554
Ba7 O16 2.912645 1_554
Ba7 O2 2.912645 1_554
Ba7 O0 3.017314 1_455
Ba7 O9 3.017314 1_565
Ba7 O5 3.017320 1_565
Ba7 O5 3.017320 1_455
Ba7 O9 3.017326 1_555
Ba7 O0 3.017326 1_555
Ba7 O6 3.384124 1_555
Ba7 O7 3.384124 1_555
Ba7 O22 3.384129 1_555
Ba8 O7 2.926308 1_655
Ba8 O6 2.926308 1_545
Ba8 O12 2.926308 1_655
Ba8 O25 2.926308 1_545
Ba8 O22 2.926308 1_555
Ba8 O15 2.926308 1_555
Ba9 O18 2.926308 1_455
Ba9 O11 2.926308 1_565
Ba9 O17 2.926308 1_565
Ba9 O10 2.926308 1_455
Ba9 O19 2.926308 1_555
Ba9 O4 2.926308 1_555
Er0 O9 2.227415 1_555
Er0 O0 2.227415 1_555
Er0 O5 2.227415 1_555
Er0 O6 2.250434 1_545
Er0 O7 2.250434 1_655
Er0 O22 2.250434 1_555
Er1 O21 2.227415 1_555
Er1 O16 2.227415 1_555
Er1 O2 2.227415 1_555
Er1 O18 2.250434 1_455
Er1 O17 2.250434 1_565
Er1 O4 2.250434 1_555
Er2 O3 2.227415 1_555
Er2 O13 2.227415 1_555
Er2 O20 2.227415 1_555
Er2 O10 2.250434 1_455
Er2 O11 2.250434 1_565
Er2 O19 2.250434 1_555
Er3 O23 2.227415 1_555
Er3 O1 2.227415 1_555
Er3 O8 2.227415 1_555
Er3 O25 2.250434 1_545
Er3 O12 2.250434 1_655
Er3 O15 2.250434 1_555
Al0 O14 1.738742 1_555
Al0 O18 1.778776 1_555
Al0 O17 1.778776 1_555
Al0 O4 1.778786 1_555
Al1 O24 1.738742 1_555
Al1 O6 1.778776 1_555
Al1 O7 1.778776 1_555
Al1 O22 1.778786 1_555
Al2 O14 1.738742 1_555
Al2 O10 1.778776 1_555
Al2 O11 1.778776 1_555
Al2 O19 1.778786 1_555
Al3 O24 1.738742 1_555
Al3 O25 1.778776 1_555
Al3 O12 1.778776 1_555
Al3 O15 1.778786 1_555
O0 Zr1 2.121419 1_665
O1 Zr0 2.121419 1_665
O2 Zr1 2.121415 1_566
O3 Zr0 2.121419 1_555
O5 Zr1 2.121415 1_655
O8 Zr0 2.121415 1_655
O9 Zr1 2.121419 1_555
O13 Zr0 2.121419 1_665
O16 Zr1 2.121419 1_666
O20 Zr0 2.121415 1_565
O21 Zr1 2.121419 1_556
O23 Zr0 2.121419 1_555
