# generated using pymatgen
data_NaV3(FeO4)3
_symmetry_space_group_name_H-M   'P 1'
_cell_length_a   6.88757100
_cell_length_b   8.31830728
_cell_length_c   10.03358242
_cell_angle_alpha   106.18976526
_cell_angle_beta   104.52066612
_cell_angle_gamma   101.92853996
_symmetry_Int_Tables_number   1
_chemical_formula_structural   NaV3(FeO4)3
_chemical_formula_sum   'Na2 V6 Fe6 O24'
_cell_volume   510.22056536
_cell_formula_units_Z   2
loop_
 _symmetry_equiv_pos_site_id
 _symmetry_equiv_pos_as_xyz
  1  'x, y, z'
loop_
 _atom_site_type_symbol
 _atom_site_label
 _atom_site_symmetry_multiplicity
 _atom_site_fract_x
 _atom_site_fract_y
 _atom_site_fract_z
 _atom_site_occupancy
  Na  Na0  1  0.98109200  0.02927000  0.55758700  1
  Na  Na1  1  0.45329800  0.98699200  0.46111900  1
  V  V0  1  0.73458200  0.17061000  0.26289400  1
  V  V1  1  0.09712900  0.78316300  0.13006100  1
  V  V2  1  0.27258700  0.83333300  0.73876900  1
  V  V3  1  0.90679200  0.21374900  0.87637400  1
  V  V4  1  0.38742900  0.40977000  0.67006300  1
  V  V5  1  0.61384700  0.58897900  0.33070700  1
  Fe  Fe0  1  0.88195500  0.44414500  0.60551300  1
  Fe  Fe1  1  0.45819300  0.29159900  0.98169600  1
  Fe  Fe2  1  0.12184500  0.55455100  0.39704400  1
  Fe  Fe3  1  0.77610700  0.76521800  0.79817300  1
  Fe  Fe4  1  0.23047500  0.23127400  0.20678400  1
  Fe  Fe5  1  0.54782100  0.70758200  0.01940700  1
  O  O0  1  0.69433800  0.95818600  0.17483600  1
  O  O1  1  0.31180500  0.05199600  0.82390800  1
  O  O2  1  0.98653600  0.28719500  0.26159500  1
  O  O3  1  0.37154600  0.47659400  0.34906000  1
  O  O4  1  0.63122400  0.52301600  0.66008700  1
  O  O5  1  0.83296200  0.52825300  0.41379500  1
  O  O6  1  0.49326800  0.77661200  0.82598000  1
  O  O7  1  0.41357300  0.43710700  0.85631200  1
  O  O8  1  0.18135400  0.47815300  0.57830100  1
  O  O9  1  0.19711400  0.01106100  0.23500500  1
  O  O10  1  0.16019600  0.26094400  0.01543700  1
  O  O11  1  0.08269700  0.67005500  0.25135900  1
  O  O12  1  0.82272800  0.98865100  0.77211700  1
  O  O13  1  0.50985800  0.22754900  0.16950300  1
  O  O14  1  0.32828900  0.19601400  0.57953600  1
  O  O15  1  0.72720500  0.27055800  0.95833900  1
  O  O16  1  0.24972700  0.80115400  0.55492900  1
  O  O17  1  0.57739800  0.54668500  0.14289300  1
  O  O18  1  0.74555500  0.19232900  0.44168500  1
  O  O19  1  0.85366500  0.74286700  0.98877400  1
  O  O20  1  0.93460800  0.31461100  0.75468900  1
  O  O21  1  0.02541400  0.72039400  0.74294200  1
  O  O22  1  0.26705900  0.72983700  0.04567000  1
  O  O23  1  0.66211900  0.80231900  0.41809700  1
loop_
_geom_bond_atom_site_label_1
_geom_bond_atom_site_label_2
_geom_bond_distance
_geom_bond_site_symmetry_2
Na0 O23 2.370569 1_545
Na0 O14 2.425967 1_655
Na0 O18 2.582068 1_555
Na0 O12 2.714354 1_545
Na0 O20 2.767921 1_555
Na0 O16 2.910780 1_645
Na0 O1 2.975342 1_655
Na1 O14 2.270681 1_565
Na1 O23 2.338729 1_555
Na1 O16 2.412204 1_555
Na1 O18 2.443084 1_565
Na1 O9 2.587000 1_565
Fe0 O20 2.078830 1_555
Fe0 O4 2.110631 1_555
Fe0 O18 2.112905 1_555
Fe0 O8 2.119250 1_655
Fe0 O21 2.183889 1_655
Fe0 O5 2.196872 1_555
Fe1 O15 1.961504 1_555
Fe1 O7 1.987757 1_555
Fe1 O1 2.026006 1_555
Fe1 O13 2.064786 1_556
Fe1 O17 2.119572 1_556
Fe1 O10 2.138344 1_556
Fe2 O11 1.955798 1_555
Fe2 O5 2.010792 1_455
Fe2 O16 2.057804 1_555
Fe2 O8 2.063431 1_555
Fe2 O3 2.076604 1_555
Fe2 O2 2.117577 1_455
Fe3 O12 1.921494 1_555
Fe3 O19 1.924652 1_555
Fe3 O4 1.973189 1_555
Fe3 O21 2.005303 1_655
Fe3 O6 2.053278 1_555
Fe4 O9 1.906918 1_555
Fe4 O10 1.956736 1_555
Fe4 O2 1.996370 1_455
Fe4 O3 2.001633 1_555
Fe4 O13 2.054953 1_555
Fe5 O22 2.054137 1_555
Fe5 O17 2.068522 1_555
Fe5 O0 2.079506 1_555
Fe5 O6 2.140660 1_554
Fe5 O19 2.176567 1_554
Fe5 O7 2.218790 1_554
O0 V0 1.668506 1_565
O1 V2 1.710512 1_545
O2 V0 1.809642 1_555
O3 V5 1.816078 1_555
O4 V4 1.788841 1_555
O5 V5 1.773929 1_555
O6 V2 1.777164 1_555
O7 V4 1.775867 1_555
O8 V4 1.776606 1_555
O9 V1 1.777734 1_545
O10 V3 1.826827 1_454
O11 V1 1.742664 1_555
O12 V3 1.758233 1_565
O13 V0 1.822450 1_555
O14 V4 1.663428 1_555
O15 V3 1.721813 1_555
O16 V2 1.749429 1_555
O17 V5 1.759118 1_555
O18 V0 1.732662 1_555
O19 V1 1.801255 1_656
O20 V3 1.689198 1_555
O21 V2 1.783006 1_555
O22 V1 1.669047 1_555
O23 V5 1.664594 1_555
