# generated using pymatgen
data_Tm2Te4O11
_symmetry_space_group_name_H-M   'P 1'
_cell_length_a   6.63144802
_cell_length_b   6.63144802
_cell_length_c   15.97963101
_cell_angle_alpha   75.42229704
_cell_angle_beta   75.42229704
_cell_angle_gamma   44.89035786
_symmetry_Int_Tables_number   1
_chemical_formula_structural   Tm2Te4O11
_chemical_formula_sum   'Tm4 Te8 O22'
_cell_volume   477.20381163
_cell_formula_units_Z   2
loop_
 _symmetry_equiv_pos_site_id
 _symmetry_equiv_pos_as_xyz
  1  'x, y, z'
loop_
 _atom_site_type_symbol
 _atom_site_label
 _atom_site_symmetry_multiplicity
 _atom_site_fract_x
 _atom_site_fract_y
 _atom_site_fract_z
 _atom_site_occupancy
  Tm  Tm0  1  0.86872104  0.36955452  0.96377621  1
  Tm  Tm1  1  0.63044548  0.13127896  0.53622379  1
  Tm  Tm2  1  0.36955452  0.86872104  0.46377621  1
  Tm  Tm3  1  0.13127896  0.63044548  0.03622379  1
  Te  Te0  1  0.59124287  0.15523745  0.87408131  1
  Te  Te1  1  0.59587882  0.15908874  0.19809211  1
  Te  Te2  1  0.40412118  0.84091126  0.80190789  1
  Te  Te3  1  0.84091126  0.40412118  0.30190789  1
  Te  Te4  1  0.40875713  0.84476255  0.12591869  1
  Te  Te5  1  0.84476255  0.40875713  0.62591869  1
  Te  Te6  1  0.15908874  0.59587882  0.69809211  1
  Te  Te7  1  0.15523745  0.59124287  0.37408131  1
  O  O0  1  0.08903350  0.20515808  0.83431466  1
  O  O1  1  0.55356582  0.39930391  0.09429864  1
  O  O2  1  0.60069609  0.44643418  0.40570136  1
  O  O3  1  0.66071416  0.75492076  0.55246723  1
  O  O4  1  0.79484192  0.91096650  0.66568534  1
  O  O5  1  0.15098399  0.84901601  0.75000000  1
  O  O6  1  0.17512898  0.96458595  0.04410250  1
  O  O7  1  0.82487102  0.03541405  0.95589750  1
  O  O8  1  0.84901601  0.15098399  0.25000000  1
  O  O9  1  0.03541405  0.82487102  0.45589750  1
  O  O10  1  0.33928584  0.24507924  0.44753277  1
  O  O11  1  0.19096290  0.31612329  0.62617792  1
  O  O12  1  0.75492076  0.66071416  0.05246723  1
  O  O13  1  0.39930391  0.55356582  0.59429864  1
  O  O14  1  0.20515808  0.08903350  0.33431466  1
  O  O15  1  0.96458595  0.17512898  0.54410250  1
  O  O16  1  0.80903710  0.68387671  0.37382208  1
  O  O17  1  0.91096650  0.79484192  0.16568534  1
  O  O18  1  0.68387671  0.80903710  0.87382208  1
  O  O19  1  0.44643418  0.60069609  0.90570136  1
  O  O20  1  0.31612329  0.19096290  0.12617792  1
  O  O21  1  0.24507924  0.33928584  0.94753277  1
loop_
_geom_bond_atom_site_label_1
_geom_bond_atom_site_label_2
_geom_bond_distance
_geom_bond_site_symmetry_2
O0 Te2 1.844535 1_545
O0 Tm0 2.227055 1_455
O1 Te1 1.907392 1_555
O1 Tm3 2.358586 1_555
O1 Tm0 2.487081 1_554
O1 Te4 2.528138 1_555
O2 Te3 1.907392 1_555
O2 Tm2 2.358586 1_555
O2 Tm1 2.487081 1_555
O2 Te7 2.528138 1_555
O3 Te5 1.879324 1_555
O3 Tm2 2.254025 1_555
O3 Tm1 2.308023 1_565
O4 Te6 1.844535 1_655
O4 Tm1 2.227055 1_565
O5 Te2 2.014811 1_555
O5 Te6 2.014811 1_555
O6 Te4 1.869045 1_555
O6 Tm0 2.198689 1_464
O6 Tm3 2.466206 1_555
O7 Te0 1.869045 1_555
O7 Tm3 2.198689 1_646
O7 Tm0 2.466206 1_555
O8 Te1 2.014811 1_555
O8 Te3 2.014811 1_555
O9 Te7 1.869045 1_555
O9 Tm1 2.198689 1_465
O9 Tm2 2.466206 1_555
O10 Te7 1.879324 1_555
O10 Tm1 2.254025 1_555
O10 Tm2 2.308023 1_545
O11 Te5 1.911370 1_455
O11 Te6 2.280842 1_555
O11 Tm1 2.403918 1_555
O12 Te4 1.879324 1_555
O12 Tm0 2.254025 1_554
O12 Tm3 2.308023 1_655
O13 Te6 1.907392 1_555
O13 Tm1 2.358586 1_555
O13 Tm2 2.487081 1_555
O13 Te5 2.528138 1_555
O14 Te3 1.844535 1_455
O14 Tm2 2.227055 1_545
O15 Te5 1.869045 1_555
O15 Tm2 2.198689 1_645
O15 Tm1 2.466206 1_555
O16 Te7 1.911370 1_655
O16 Te3 2.280842 1_555
O16 Tm2 2.403918 1_555
O17 Te1 1.844535 1_565
O17 Tm3 2.227055 1_655
O18 Te0 1.911370 1_565
O18 Te2 2.280842 1_555
O18 Tm0 2.403918 1_555
O19 Te2 1.907392 1_555
O19 Tm0 2.358586 1_555
O19 Tm3 2.487081 1_556
O19 Te0 2.528138 1_555
O20 Te4 1.911370 1_545
O20 Te1 2.280842 1_555
O20 Tm3 2.403918 1_555
O21 Te0 1.879324 1_555
O21 Tm3 2.254025 1_556
O21 Tm0 2.308023 1_455
