# generated using pymatgen
data_KNb5O13
_symmetry_space_group_name_H-M   'P 1'
_cell_length_a   5.79959400
_cell_length_b   10.95673700
_cell_length_c   17.07994900
_cell_angle_alpha   90.00000000
_cell_angle_beta   90.00000000
_cell_angle_gamma   90.00000000
_symmetry_Int_Tables_number   1
_chemical_formula_structural   KNb5O13
_chemical_formula_sum   'K4 Nb20 O52'
_cell_volume   1085.33897412
_cell_formula_units_Z   4
loop_
 _symmetry_equiv_pos_site_id
 _symmetry_equiv_pos_as_xyz
  1  'x, y, z'
loop_
 _atom_site_type_symbol
 _atom_site_label
 _atom_site_symmetry_multiplicity
 _atom_site_fract_x
 _atom_site_fract_y
 _atom_site_fract_z
 _atom_site_occupancy
  K  K0  1  0.78846900  0.32581300  0.25000000  1
  K  K1  1  0.21153100  0.67418700  0.75000000  1
  K  K2  1  0.21153100  0.82581300  0.25000000  1
  K  K3  1  0.78846900  0.17418700  0.75000000  1
  Nb  Nb0  1  0.83189800  0.93523100  0.07631900  1
  Nb  Nb1  1  0.33999800  0.13304900  0.13684000  1
  Nb  Nb2  1  0.33999800  0.36695100  0.86316000  1
  Nb  Nb3  1  0.83189800  0.93523100  0.42368100  1
  Nb  Nb4  1  0.16810200  0.06476900  0.92368100  1
  Nb  Nb5  1  0.83189800  0.56476900  0.57631900  1
  Nb  Nb6  1  0.66000200  0.63304900  0.36316000  1
  Nb  Nb7  1  0.83189800  0.56476900  0.92368100  1
  Nb  Nb8  1  0.66000200  0.63304900  0.13684000  1
  Nb  Nb9  1  0.33999800  0.13304900  0.36316000  1
  Nb  Nb10  1  0.16810200  0.06476900  0.57631900  1
  Nb  Nb11  1  0.32309000  0.75000000  0.50000000  1
  Nb  Nb12  1  0.16810200  0.43523100  0.42368100  1
  Nb  Nb13  1  0.32309000  0.75000000  0.00000000  1
  Nb  Nb14  1  0.67691000  0.25000000  0.00000000  1
  Nb  Nb15  1  0.33999800  0.36695100  0.63684000  1
  Nb  Nb16  1  0.16810200  0.43523100  0.07631900  1
  Nb  Nb17  1  0.67691000  0.25000000  0.50000000  1
  Nb  Nb18  1  0.66000200  0.86695100  0.63684000  1
  Nb  Nb19  1  0.66000200  0.86695100  0.86316000  1
  O  O0  1  0.13183900  0.28334900  0.12795000  1
  O  O1  1  0.59331800  0.25199800  0.39009800  1
  O  O2  1  0.40758900  0.99423200  0.63554600  1
  O  O3  1  0.90915100  0.98204800  0.86471400  1
  O  O4  1  0.90915100  0.51795200  0.36471400  1
  O  O5  1  0.35440100  0.12343300  0.48753900  1
  O  O6  1  0.12916600  0.60764700  0.49629600  1
  O  O7  1  0.12916600  0.89235300  0.99629600  1
  O  O8  1  0.35440100  0.37656700  0.98753900  1
  O  O9  1  0.36696500  0.34741500  0.75000000  1
  O  O10  1  0.59331800  0.24800200  0.89009800  1
  O  O11  1  0.09084900  0.01795200  0.13528600  1
  O  O12  1  0.59331800  0.25199800  0.10990200  1
  O  O13  1  0.12916600  0.60764700  0.00370400  1
  O  O14  1  0.40668200  0.75199800  0.10990200  1
  O  O15  1  0.40758900  0.50576800  0.36445400  1
  O  O16  1  0.63303500  0.65258500  0.25000000  1
  O  O17  1  0.13183900  0.21665100  0.62795000  1
  O  O18  1  0.59241100  0.49423200  0.86445400  1
  O  O19  1  0.40668200  0.75199800  0.39009800  1
  O  O20  1  0.09084900  0.48204800  0.86471400  1
  O  O21  1  0.64559900  0.62343300  0.48753900  1
  O  O22  1  0.64559900  0.87656700  0.51246100  1
  O  O23  1  0.13183900  0.21665100  0.87205000  1
  O  O24  1  0.63303500  0.84741500  0.75000000  1
  O  O25  1  0.40758900  0.50576800  0.13554600  1
  O  O26  1  0.87083400  0.10764700  0.49629600  1
  O  O27  1  0.40668200  0.74800200  0.60990200  1
  O  O28  1  0.90915100  0.51795200  0.13528600  1
  O  O29  1  0.40758900  0.99423200  0.86445400  1
  O  O30  1  0.59241100  0.49423200  0.63554600  1
  O  O31  1  0.09084900  0.01795200  0.36471400  1
  O  O32  1  0.87083400  0.39235300  0.50370400  1
  O  O33  1  0.40668200  0.74800200  0.89009800  1
  O  O34  1  0.64559900  0.87656700  0.98753900  1
  O  O35  1  0.09084900  0.48204800  0.63528600  1
  O  O36  1  0.36696500  0.15258500  0.25000000  1
  O  O37  1  0.35440100  0.37656700  0.51246100  1
  O  O38  1  0.59331800  0.24800200  0.60990200  1
  O  O39  1  0.12916600  0.89235300  0.50370400  1
  O  O40  1  0.64559900  0.62343300  0.01246100  1
  O  O41  1  0.59241100  0.00576800  0.36445400  1
  O  O42  1  0.87083400  0.39235300  0.99629600  1
  O  O43  1  0.87083400  0.10764700  0.00370400  1
  O  O44  1  0.59241100  0.00576800  0.13554600  1
  O  O45  1  0.86816100  0.78334900  0.37205000  1
  O  O46  1  0.86816100  0.78334900  0.12795000  1
  O  O47  1  0.90915100  0.98204800  0.63528600  1
  O  O48  1  0.86816100  0.71665100  0.87205000  1
  O  O49  1  0.13183900  0.28334900  0.37205000  1
  O  O50  1  0.86816100  0.71665100  0.62795000  1
  O  O51  1  0.35440100  0.12343300  0.01246100  1
loop_
_geom_bond_atom_site_label_1
_geom_bond_atom_site_label_2
_geom_bond_distance
_geom_bond_site_symmetry_2
K0 O1 2.767831 1_555
K0 O12 2.767831 1_555
K0 O0 2.920233 1_655
K0 O49 2.920233 1_655
K0 O4 2.959848 1_555
K0 O28 2.959848 1_555
K0 O36 3.094881 1_555
K1 O33 2.767831 1_555
K1 O27 2.767831 1_555
K1 O50 2.920233 1_455
K1 O48 2.920233 1_455
K1 O35 2.959848 1_555
K1 O20 2.959848 1_555
K1 O24 3.094881 1_555
K2 O19 2.767831 1_555
K2 O14 2.767831 1_555
K2 O46 2.920233 1_455
K2 O45 2.920233 1_455
K2 O31 2.959848 1_565
K2 O11 2.959848 1_565
K2 O16 3.094881 1_555
K3 O10 2.767831 1_555
K3 O38 2.767831 1_555
K3 O17 2.920233 1_655
K3 O23 2.920233 1_655
K3 O47 2.959848 1_545
K3 O3 2.959848 1_545
K3 O9 3.094881 1_555
Nb0 O44 1.884077 1_565
Nb0 O46 1.895054 1_555
Nb0 O34 1.969741 1_554
Nb0 O11 2.022688 1_665
Nb0 O7 2.249693 1_654
Nb0 O43 2.271123 1_565
Nb1 O11 1.918063 1_555
Nb1 O36 1.950863 1_555
Nb1 O12 2.017096 1_555
Nb1 O44 2.021964 1_555
Nb1 O0 2.047540 1_555
Nb1 O51 2.128638 1_555
Nb2 O20 1.918063 1_555
Nb2 O9 1.950863 1_555
Nb2 O10 2.017096 1_555
Nb2 O18 2.021964 1_555
Nb2 O23 2.047540 1_555
Nb2 O8 2.128638 1_555
Nb3 O41 1.884077 1_565
Nb3 O45 1.895054 1_555
Nb3 O22 1.969741 1_555
Nb3 O31 2.022688 1_665
Nb3 O39 2.249693 1_655
Nb3 O26 2.271123 1_565
Nb4 O29 1.884077 1_545
Nb4 O23 1.895054 1_555
Nb4 O51 1.969741 1_556
Nb4 O3 2.022688 1_445
Nb4 O43 2.249693 1_456
Nb4 O7 2.271123 1_545
Nb5 O30 1.884077 1_555
Nb5 O50 1.895054 1_555
Nb5 O21 1.969741 1_555
Nb5 O35 2.022688 1_655
Nb5 O6 2.249693 1_655
Nb5 O32 2.271123 1_555
Nb6 O4 1.918063 1_555
Nb6 O16 1.950863 1_555
Nb6 O19 2.017096 1_555
Nb6 O15 2.021964 1_555
Nb6 O45 2.047540 1_555
Nb6 O21 2.128638 1_555
Nb7 O18 1.884077 1_555
Nb7 O48 1.895054 1_555
Nb7 O40 1.969741 1_556
Nb7 O20 2.022688 1_655
Nb7 O13 2.249693 1_656
Nb7 O42 2.271123 1_555
Nb8 O28 1.918063 1_555
Nb8 O16 1.950863 1_555
Nb8 O14 2.017096 1_555
Nb8 O25 2.021964 1_555
Nb8 O46 2.047540 1_555
Nb8 O40 2.128638 1_555
Nb9 O31 1.918063 1_555
Nb9 O36 1.950863 1_555
Nb9 O1 2.017096 1_555
Nb9 O41 2.021964 1_555
Nb9 O49 2.047540 1_555
Nb9 O5 2.128638 1_555
Nb10 O2 1.884077 1_545
Nb10 O17 1.895054 1_555
Nb10 O5 1.969741 1_555
Nb10 O47 2.022688 1_445
Nb10 O26 2.249693 1_455
Nb10 O39 2.271123 1_545
Nb11 O39 1.923967 1_555
Nb11 O6 1.923967 1_555
Nb11 O27 1.938838 1_555
Nb11 O19 1.938838 1_555
Nb11 O22 2.338136 1_555
Nb11 O21 2.338136 1_555
Nb12 O15 1.884077 1_555
Nb12 O49 1.895054 1_555
Nb12 O37 1.969741 1_555
Nb12 O4 2.022688 1_455
Nb12 O32 2.249693 1_455
Nb12 O6 2.271123 1_555
Nb13 O7 1.923967 1_554
Nb13 O13 1.923967 1_555
Nb13 O14 1.938838 1_555
Nb13 O33 1.938838 1_554
Nb13 O40 2.338136 1_555
Nb13 O34 2.338136 1_554
Nb14 O42 1.923967 1_554
Nb14 O43 1.923967 1_555
Nb14 O12 1.938838 1_555
Nb14 O10 1.938838 1_554
Nb14 O51 2.338136 1_555
Nb14 O8 2.338136 1_554
Nb15 O35 1.918063 1_555
Nb15 O9 1.950863 1_555
Nb15 O38 2.017096 1_555
Nb15 O30 2.021964 1_555
Nb15 O17 2.047540 1_555
Nb15 O37 2.128638 1_555
Nb16 O25 1.884077 1_555
Nb16 O0 1.895054 1_555
Nb16 O8 1.969741 1_554
Nb16 O28 2.022688 1_455
Nb16 O42 2.249693 1_454
Nb16 O13 2.271123 1_555
Nb17 O32 1.923967 1_555
Nb17 O26 1.923967 1_555
Nb17 O38 1.938838 1_555
Nb17 O1 1.938838 1_555
Nb17 O37 2.338136 1_555
Nb17 O5 2.338136 1_555
Nb18 O47 1.918063 1_555
Nb18 O24 1.950863 1_555
Nb18 O27 2.017096 1_555
Nb18 O2 2.021964 1_555
Nb18 O50 2.047540 1_555
Nb18 O22 2.128638 1_555
Nb19 O3 1.918063 1_555
Nb19 O24 1.950863 1_555
Nb19 O33 2.017096 1_555
Nb19 O29 2.021964 1_555
Nb19 O48 2.047540 1_555
Nb19 O34 2.128638 1_555
