# generated using pymatgen
data_Mn8Cu7O20
_symmetry_space_group_name_H-M   'P 1'
_cell_length_a   6.03022370
_cell_length_b   5.81790595
_cell_length_c   30.14786567
_cell_angle_alpha   60.00648634
_cell_angle_beta   57.77509889
_cell_angle_gamma   59.80104703
_symmetry_Int_Tables_number   1
_chemical_formula_structural   Mn8Cu7O20
_chemical_formula_sum   'Mn16 Cu14 O40'
_cell_volume   733.47829094
_cell_formula_units_Z   2
loop_
 _symmetry_equiv_pos_site_id
 _symmetry_equiv_pos_as_xyz
  1  'x, y, z'
loop_
 _atom_site_type_symbol
 _atom_site_label
 _atom_site_symmetry_multiplicity
 _atom_site_fract_x
 _atom_site_fract_y
 _atom_site_fract_z
 _atom_site_occupancy
  Mn  Mn0  1  0.00097600  0.99005800  0.00399200  1
  Mn  Mn1  1  0.01520700  0.97810400  0.20412000  1
  Mn  Mn2  1  0.12786200  0.62723200  0.12462300  1
  Mn  Mn3  1  0.61153900  0.63333600  0.02580700  1
  Mn  Mn4  1  0.02427000  0.97298300  0.40285800  1
  Mn  Mn5  1  0.13580300  0.61812800  0.32477100  1
  Mn  Mn6  1  0.62329900  0.62229900  0.22659300  1
  Mn  Mn7  1  0.12940100  0.61641400  0.52642000  1
  Mn  Mn8  1  0.62276100  0.12058300  0.52685900  1
  Mn  Mn9  1  0.63332800  0.61258900  0.42689700  1
  Mn  Mn10  1  0.12537800  0.62549700  0.72469900  1
  Mn  Mn11  1  0.62553300  0.62279600  0.62540100  1
  Mn  Mn12  1  0.62541200  0.12553600  0.72466600  1
  Mn  Mn13  1  0.12529600  0.63176200  0.92318400  1
  Mn  Mn14  1  0.62552400  0.13420900  0.92284800  1
  Mn  Mn15  1  0.62540000  0.62915500  0.82385100  1
  Cu  Cu0  1  0.22839400  0.27864800  0.04661500  1
  Cu  Cu1  1  0.62562700  0.12879900  0.12507000  1
  Cu  Cu2  1  0.23649800  0.26982000  0.24672600  1
  Cu  Cu3  1  0.62297300  0.62729700  0.12547400  1
  Cu  Cu4  1  0.62811000  0.11811800  0.32614700  1
  Cu  Cu5  1  0.00937300  0.98583700  0.60202400  1
  Cu  Cu6  1  0.24889600  0.25393000  0.44755800  1
  Cu  Cu7  1  0.63035200  0.61696500  0.32577300  1
  Cu  Cu8  1  0.23966400  0.25948000  0.64944600  1
  Cu  Cu9  1  0.00961000  0.99047900  0.80080100  1
  Cu  Cu10  1  0.62687300  0.61761500  0.52653800  1
  Cu  Cu11  1  0.24161900  0.26598900  0.84703500  1
  Cu  Cu12  1  0.62547600  0.62552900  0.72471100  1
  Cu  Cu13  1  0.62562700  0.63078000  0.92379700  1
  O  O0  1  0.36533300  0.42313900  0.07114200  1
  O  O1  1  0.35565300  0.86482000  0.07188400  1
  O  O2  1  0.36781200  0.40943600  0.16365300  1
  O  O3  1  0.81752400  0.42411800  0.07064000  1
  O  O4  1  0.36871900  0.40960200  0.27363700  1
  O  O5  1  0.41566600  0.85130700  0.17691700  1
  O  O6  1  0.37095100  0.39962600  0.36563700  1
  O  O7  1  0.36222700  0.85420200  0.27366900  1
  O  O8  1  0.88756700  0.38981900  0.17706100  1
  O  O9  1  0.87396900  0.85367800  0.08430700  1
  O  O10  1  0.82412500  0.40364000  0.27335700  1
  O  O11  1  0.88167400  0.84296700  0.17702400  1
  O  O12  1  0.42541300  0.83072100  0.37923700  1
  O  O13  1  0.39345200  0.36456800  0.48053600  1
  O  O14  1  0.89179100  0.38253800  0.37790700  1
  O  O15  1  0.37239100  0.38768200  0.56704200  1
  O  O16  1  0.37115100  0.83765700  0.47453400  1
  O  O17  1  0.88101900  0.84568700  0.28478700  1
  O  O18  1  0.83079300  0.37761100  0.47741700  1
  O  O19  1  0.88302900  0.83007600  0.37905000  1
  O  O20  1  0.39221100  0.37562500  0.67827200  1
  O  O21  1  0.42327400  0.85359500  0.57597700  1
  O  O22  1  0.37378000  0.39445800  0.76487900  1
  O  O23  1  0.36629900  0.84597100  0.67328100  1
  O  O24  1  0.88485000  0.40023900  0.57702700  1
  O  O25  1  0.88039300  0.85272100  0.48461100  1
  O  O26  1  0.82745700  0.39158000  0.67470600  1
  O  O27  1  0.85886400  0.86871300  0.57251700  1
  O  O28  1  0.42300600  0.85966400  0.77468300  1
  O  O29  1  0.39145700  0.38275300  0.87649800  1
  O  O30  1  0.88444600  0.40483500  0.77622600  1
  O  O31  1  0.36434900  0.85165900  0.87227400  1
  O  O32  1  0.37132000  0.39972900  0.96348500  1
  O  O33  1  0.87728700  0.85677300  0.68440600  1
  O  O34  1  0.85840200  0.87553700  0.77119100  1
  O  O35  1  0.82716700  0.39886300  0.87342100  1
  O  O36  1  0.41412600  0.87341400  0.97253400  1
  O  O37  1  0.88092600  0.40469300  0.97594500  1
  O  O38  1  0.87662200  0.86244300  0.88339600  1
  O  O39  1  0.85742600  0.88387300  0.96992400  1
loop_
_geom_bond_atom_site_label_1
_geom_bond_atom_site_label_2
_geom_bond_distance
_geom_bond_site_symmetry_2
Mn0 O9 1.947235 1_455
Mn0 O37 1.978614 1_464
Mn0 O36 1.997418 1_554
Mn0 O39 2.075190 1_454
Mn1 O5 1.936214 1_555
Mn1 O17 1.953928 1_455
Mn1 O8 1.963853 1_465
Mn1 O11 1.978477 1_455
Mn2 O2 1.887972 1_555
Mn2 O1 1.925897 1_555
Mn2 O0 1.949698 1_555
Mn2 O11 1.970197 1_455
Mn2 O8 1.973324 1_455
Mn2 O9 1.977749 1_455
Mn3 O3 1.864401 1_555
Mn3 O0 1.886564 1_555
Mn3 O1 1.902170 1_555
Mn3 O37 1.972090 1_554
Mn3 O36 2.017671 1_554
Mn3 O39 2.053392 1_554
Mn4 O12 1.944640 1_555
Mn4 O14 1.953323 1_465
Mn4 O19 1.973033 1_455
Mn4 O25 1.980639 1_455
Mn5 O6 1.904854 1_555
Mn5 O7 1.910963 1_555
Mn5 O4 1.915072 1_555
Mn5 O17 1.974755 1_455
Mn5 O14 1.982377 1_455
Mn5 O19 1.997031 1_455
Mn6 O10 1.884255 1_555
Mn6 O7 1.925559 1_555
Mn6 O4 1.932331 1_555
Mn6 O8 1.977851 1_555
Mn6 O5 1.977965 1_555
Mn6 O11 1.979883 1_555
Mn7 O24 1.905807 1_455
Mn7 O16 1.916130 1_555
Mn7 O15 1.934040 1_555
Mn7 O13 1.981435 1_555
Mn7 O25 1.985634 1_455
Mn7 O27 1.989956 1_455
Mn8 O18 1.922521 1_555
Mn8 O21 1.932087 1_545
Mn8 O15 1.932123 1_555
Mn8 O25 1.975608 1_545
Mn8 O13 1.995056 1_555
Mn8 O27 2.010886 1_545
Mn9 O16 1.911201 1_555
Mn9 O19 1.929898 1_555
Mn9 O12 1.935068 1_555
Mn9 O18 1.954828 1_555
Mn9 O14 1.955690 1_555
Mn9 O13 2.015366 1_555
Mn10 O23 1.908886 1_555
Mn10 O30 1.909873 1_455
Mn10 O22 1.949244 1_555
Mn10 O33 1.950162 1_455
Mn10 O20 1.985134 1_555
Mn10 O34 1.987105 1_455
Mn11 O23 1.907519 1_555
Mn11 O24 1.915091 1_555
Mn11 O26 1.945519 1_555
Mn11 O21 1.949622 1_555
Mn11 O27 1.980090 1_555
Mn11 O20 1.984981 1_555
Mn12 O26 1.938551 1_555
Mn12 O28 1.939239 1_545
Mn12 O22 1.940691 1_555
Mn12 O33 1.940949 1_545
Mn12 O20 2.013823 1_555
Mn12 O34 2.015703 1_545
Mn13 O31 1.898144 1_555
Mn13 O32 1.940955 1_555
Mn13 O38 1.942397 1_455
Mn13 O37 1.950523 1_455
Mn13 O29 1.986474 1_555
Mn13 O39 2.000407 1_455
Mn14 O35 1.930529 1_555
Mn14 O32 1.934972 1_555
Mn14 O38 1.938641 1_545
Mn14 O36 1.951406 1_545
Mn14 O29 2.016386 1_555
Mn14 O39 2.022896 1_545
Mn15 O30 1.906683 1_555
Mn15 O31 1.916633 1_555
Mn15 O28 1.944383 1_555
Mn15 O35 1.950932 1_555
Mn15 O34 1.980219 1_555
Mn15 O29 1.983946 1_555
Cu0 O1 1.974044 1_545
Cu0 O0 1.976451 1_555
Cu0 O3 1.992256 1_455
Cu0 O32 2.015464 1_554
Cu1 O2 1.962749 1_555
Cu1 O9 1.976717 1_545
Cu1 O5 2.018748 1_545
Cu1 O3 2.034692 1_555
Cu1 O11 2.234877 1_545
Cu1 O0 2.296400 1_555
Cu2 O7 1.982485 1_545
Cu2 O4 1.989260 1_555
Cu2 O10 1.995616 1_455
Cu2 O2 2.014280 1_555
Cu3 O2 1.978251 1_555
Cu3 O9 1.983337 1_555
Cu3 O5 1.995167 1_555
Cu3 O3 1.999185 1_555
Cu3 O8 2.270217 1_555
Cu3 O1 2.328687 1_555
Cu4 O17 1.977106 1_545
Cu4 O6 1.982418 1_555
Cu4 O10 2.003814 1_555
Cu4 O12 2.036043 1_545
Cu4 O19 2.250790 1_545
Cu4 O4 2.262044 1_555
Cu5 O24 1.977411 1_465
Cu5 O33 1.998518 1_455
Cu5 O21 2.005023 1_555
Cu5 O27 2.041738 1_455
Cu6 O16 1.986012 1_545
Cu6 O6 1.988918 1_555
Cu6 O18 2.021594 1_455
Cu6 O13 2.071534 1_555
Cu7 O10 1.983809 1_555
Cu7 O6 1.988872 1_555
Cu7 O17 1.992495 1_555
Cu7 O12 2.001353 1_555
Cu7 O14 2.269857 1_555
Cu7 O7 2.298410 1_555
Cu8 O23 1.973786 1_545
Cu8 O26 1.998451 1_455
Cu8 O15 1.999018 1_555
Cu8 O20 2.030530 1_555
Cu9 O30 1.977430 1_465
Cu9 O28 2.002682 1_555
Cu9 O38 2.003800 1_455
Cu9 O34 2.038089 1_455
Cu10 O21 2.003086 1_555
Cu10 O18 2.013161 1_555
Cu10 O15 2.017197 1_555
Cu10 O25 2.029785 1_555
Cu10 O24 2.226631 1_555
Cu10 O16 2.249573 1_555
Cu11 O31 1.977221 1_545
Cu11 O22 1.992902 1_555
Cu11 O35 2.006860 1_455
Cu11 O29 2.035583 1_555
Cu12 O28 2.008198 1_555
Cu12 O26 2.008545 1_555
Cu12 O22 2.010531 1_555
Cu12 O33 2.011264 1_555
Cu12 O23 2.251958 1_555
Cu12 O30 2.252793 1_555
Cu13 O35 2.008664 1_555
Cu13 O38 2.008922 1_555
Cu13 O36 2.010513 1_555
Cu13 O32 2.024638 1_555
Cu13 O37 2.246881 1_555
Cu13 O31 2.263636 1_555
