# generated using pymatgen
data_FeCoBO4
_symmetry_space_group_name_H-M   'P 1'
_cell_length_a   3.14697500
_cell_length_b   9.39119600
_cell_length_c   9.51381300
_cell_angle_alpha   90.00000000
_cell_angle_beta   90.00000000
_cell_angle_gamma   90.00000000
_symmetry_Int_Tables_number   1
_chemical_formula_structural   FeCoBO4
_chemical_formula_sum   'Fe4 Co4 B4 O16'
_cell_volume   281.16988826
_cell_formula_units_Z   4
loop_
 _symmetry_equiv_pos_site_id
 _symmetry_equiv_pos_as_xyz
  1  'x, y, z'
loop_
 _atom_site_type_symbol
 _atom_site_label
 _atom_site_symmetry_multiplicity
 _atom_site_fract_x
 _atom_site_fract_y
 _atom_site_fract_z
 _atom_site_occupancy
  Fe  Fe0  1  0.75000000  0.38074100  0.56769200  1
  Fe  Fe1  1  0.25000000  0.61925900  0.43230800  1
  Fe  Fe2  1  0.75000000  0.88074100  0.93230800  1
  Fe  Fe3  1  0.25000000  0.11925900  0.06769200  1
  Co  Co0  1  0.75000000  0.39757000  0.18715200  1
  Co  Co1  1  0.25000000  0.60243000  0.81284800  1
  Co  Co2  1  0.75000000  0.89757000  0.31284800  1
  Co  Co3  1  0.25000000  0.10243000  0.68715200  1
  B  B0  1  0.75000000  0.33400800  0.87157300  1
  B  B1  1  0.25000000  0.66599200  0.12842700  1
  B  B2  1  0.75000000  0.83400800  0.62842700  1
  B  B3  1  0.25000000  0.16599200  0.37157300  1
  O  O0  1  0.75000000  0.47799900  0.87050400  1
  O  O1  1  0.25000000  0.52200100  0.12949600  1
  O  O2  1  0.75000000  0.97799900  0.62949600  1
  O  O3  1  0.25000000  0.02200100  0.37050400  1
  O  O4  1  0.75000000  0.25700000  0.74537200  1
  O  O5  1  0.25000000  0.74300000  0.25462800  1
  O  O6  1  0.75000000  0.75700000  0.75462800  1
  O  O7  1  0.25000000  0.24300000  0.24537200  1
  O  O8  1  0.75000000  0.25918300  0.00054400  1
  O  O9  1  0.25000000  0.74081700  0.99945600  1
  O  O10  1  0.75000000  0.75918300  0.49945600  1
  O  O11  1  0.25000000  0.24081700  0.50054400  1
  O  O12  1  0.75000000  0.49319600  0.38525700  1
  O  O13  1  0.25000000  0.50680400  0.61474300  1
  O  O14  1  0.75000000  0.99319600  0.11474300  1
  O  O15  1  0.25000000  0.00680400  0.88525700  1
loop_
_geom_bond_atom_site_label_1
_geom_bond_atom_site_label_2
_geom_bond_distance
_geom_bond_site_symmetry_2
Fe0 O13 2.019361 1_555
Fe0 O13 2.019361 1_655
Fe0 O12 2.031701 1_555
Fe0 O4 2.051322 1_555
Fe0 O11 2.147256 1_655
Fe0 O11 2.147256 1_555
Fe1 O12 2.019361 1_555
Fe1 O12 2.019361 1_455
Fe1 O13 2.031701 1_555
Fe1 O5 2.051322 1_555
Fe1 O10 2.147256 1_455
Fe1 O10 2.147256 1_555
Fe2 O15 2.019361 1_665
Fe2 O15 2.019361 1_565
Fe2 O14 2.031701 1_556
Fe2 O6 2.051322 1_555
Fe2 O9 2.147256 1_555
Fe2 O9 2.147256 1_655
Fe3 O14 2.019361 1_545
Fe3 O14 2.019361 1_445
Fe3 O15 2.031701 1_554
Fe3 O7 2.051322 1_555
Fe3 O8 2.147256 1_455
Fe3 O8 2.147256 1_555
Co0 O1 2.035257 1_555
Co0 O1 2.035257 1_655
Co0 O12 2.087751 1_555
Co0 O8 2.200203 1_555
Co0 O7 2.211288 1_655
Co0 O7 2.211288 1_555
Co1 O0 2.035257 1_555
Co1 O0 2.035257 1_455
Co1 O13 2.087751 1_555
Co1 O9 2.200203 1_555
Co1 O6 2.211288 1_455
Co1 O6 2.211288 1_555
Co2 O3 2.035257 1_665
Co2 O3 2.035257 1_565
Co2 O14 2.087751 1_555
Co2 O10 2.200203 1_555
Co2 O5 2.211288 1_655
Co2 O5 2.211288 1_555
Co3 O2 2.035257 1_445
Co3 O2 2.035257 1_545
Co3 O15 2.087751 1_555
Co3 O11 2.200203 1_555
Co3 O4 2.211288 1_455
Co3 O4 2.211288 1_555
B0 O0 1.352286 1_555
B0 O4 1.401635 1_555
B0 O8 1.413975 1_556
B1 O1 1.352286 1_555
B1 O5 1.401635 1_555
B1 O9 1.413975 1_554
B2 O2 1.352286 1_555
B2 O6 1.401635 1_555
B2 O10 1.413975 1_555
B3 O3 1.352286 1_555
B3 O7 1.401635 1_555
B3 O11 1.413975 1_555
