# generated using pymatgen
data_Ba3V2(PO5)3
_symmetry_space_group_name_H-M   'P 1'
_cell_length_a   5.19695800
_cell_length_b   12.64911000
_cell_length_c   21.18741900
_cell_angle_alpha   90.00000000
_cell_angle_beta   90.00000000
_cell_angle_gamma   90.00000000
_symmetry_Int_Tables_number   1
_chemical_formula_structural   Ba3V2(PO5)3
_chemical_formula_sum   'Ba12 V8 P12 O60'
_cell_volume   1392.79510438
_cell_formula_units_Z   4
loop_
 _symmetry_equiv_pos_site_id
 _symmetry_equiv_pos_as_xyz
  1  'x, y, z'
loop_
 _atom_site_type_symbol
 _atom_site_label
 _atom_site_symmetry_multiplicity
 _atom_site_fract_x
 _atom_site_fract_y
 _atom_site_fract_z
 _atom_site_occupancy
  Ba  Ba0  1  0.19187900  0.62361900  0.43682200  1
  Ba  Ba1  1  0.30812100  0.37638100  0.93682200  1
  Ba  Ba2  1  0.72365400  0.13903000  0.42041900  1
  Ba  Ba3  1  0.20291900  0.78191600  0.75684100  1
  Ba  Ba4  1  0.69187900  0.87638100  0.56317800  1
  Ba  Ba5  1  0.29708100  0.21808400  0.25684100  1
  Ba  Ba6  1  0.80812100  0.12361900  0.06317800  1
  Ba  Ba7  1  0.22365400  0.36097000  0.57958100  1
  Ba  Ba8  1  0.27634600  0.63903000  0.07958100  1
  Ba  Ba9  1  0.79708100  0.28191600  0.74315900  1
  Ba  Ba10  1  0.70291900  0.71808400  0.24315900  1
  Ba  Ba11  1  0.77634600  0.86097000  0.92041900  1
  V  V0  1  0.67305200  0.60794000  0.68032400  1
  V  V1  1  0.71419900  0.44209200  0.34678500  1
  V  V2  1  0.78580100  0.55790800  0.84678500  1
  V  V3  1  0.32694800  0.10794000  0.81967600  1
  V  V4  1  0.28580100  0.94209200  0.15321500  1
  V  V5  1  0.82694800  0.39206000  0.18032400  1
  V  V6  1  0.21419900  0.05790800  0.65321500  1
  V  V7  1  0.17305200  0.89206000  0.31967600  1
  P  P0  1  0.21879800  0.32473400  0.41099600  1
  P  P1  1  0.18699500  0.68050100  0.59419800  1
  P  P2  1  0.69853500  0.96412000  0.73873100  1
  P  P3  1  0.19853500  0.53588000  0.26126900  1
  P  P4  1  0.30146500  0.46412000  0.76126900  1
  P  P5  1  0.78120200  0.82473400  0.08900400  1
  P  P6  1  0.68699500  0.81949900  0.40580200  1
  P  P7  1  0.80146500  0.03588000  0.23873100  1
  P  P8  1  0.81300500  0.18050100  0.90580200  1
  P  P9  1  0.28120200  0.67526600  0.91099600  1
  P  P10  1  0.71879800  0.17526600  0.58900400  1
  P  P11  1  0.31300500  0.31949900  0.09419800  1
  O  O0  1  0.01344900  0.83107200  0.13642900  1
  O  O1  1  0.29312000  0.42989600  0.06633900  1
  O  O2  1  0.78883800  0.71635900  0.05578800  1
  O  O3  1  0.96721200  0.17698300  0.63247900  1
  O  O4  1  0.94178700  0.69419900  0.63818700  1
  O  O5  1  0.21031300  0.13501500  0.74677100  1
  O  O6  1  0.66705900  0.06843900  0.77781500  1
  O  O7  1  0.75098800  0.51368500  0.15806400  1
  O  O8  1  0.44178700  0.80580100  0.36181300  1
  O  O9  1  0.28883800  0.78364100  0.94421200  1
  O  O10  1  0.71116200  0.28364100  0.55578800  1
  O  O11  1  0.71031300  0.36498500  0.25322900  1
  O  O12  1  0.03778300  0.04941300  0.19399600  1
  O  O13  1  0.48655100  0.16892800  0.63642900  1
  O  O14  1  0.71199100  0.50668200  0.41471600  1
  O  O15  1  0.33294100  0.56843900  0.72218500  1
  O  O16  1  0.28682900  0.36792300  0.71703100  1
  O  O17  1  0.79312000  0.07010400  0.93366100  1
  O  O18  1  0.93164000  0.79412500  0.36237700  1
  O  O19  1  0.03278800  0.67698300  0.86752100  1
  O  O20  1  0.51344900  0.66892800  0.86357100  1
  O  O21  1  0.78682900  0.13207700  0.28296900  1
  O  O22  1  0.28800900  0.00668200  0.08528400  1
  O  O23  1  0.21116200  0.21635900  0.44421200  1
  O  O24  1  0.53278800  0.82301700  0.13247900  1
  O  O25  1  0.22115400  0.41707600  0.45708700  1
  O  O26  1  0.53778300  0.45058700  0.80600400  1
  O  O27  1  0.43164000  0.70587500  0.63762300  1
  O  O28  1  0.24901200  0.01368500  0.34193600  1
  O  O29  1  0.82351100  0.26707700  0.95609400  1
  O  O30  1  0.67648900  0.73292300  0.45609400  1
  O  O31  1  0.32351100  0.23292300  0.04390600  1
  O  O32  1  0.77884600  0.91707600  0.04291300  1
  O  O33  1  0.78968700  0.63501500  0.75322900  1
  O  O34  1  0.83294100  0.93156100  0.27781500  1
  O  O35  1  0.70688000  0.92989600  0.43366100  1
  O  O36  1  0.25098800  0.98631500  0.84193600  1
  O  O37  1  0.78800900  0.49331800  0.91471600  1
  O  O38  1  0.20688000  0.57010400  0.56633900  1
  O  O39  1  0.28968700  0.86498500  0.24677100  1
  O  O40  1  0.46221700  0.95058700  0.69399600  1
  O  O41  1  0.98655100  0.33107200  0.36357100  1
  O  O42  1  0.05821300  0.19419900  0.86181300  1
  O  O43  1  0.56836000  0.20587500  0.86237700  1
  O  O44  1  0.21317100  0.63207700  0.21703100  1
  O  O45  1  0.44289200  0.53414800  0.30311400  1
  O  O46  1  0.94289200  0.96585200  0.69688600  1
  O  O47  1  0.21199100  0.99331800  0.58528400  1
  O  O48  1  0.17648900  0.76707700  0.54390600  1
  O  O49  1  0.71317100  0.86792300  0.78296900  1
  O  O50  1  0.16705900  0.43156100  0.22218500  1
  O  O51  1  0.55710800  0.03414800  0.19688600  1
  O  O52  1  0.55821300  0.30580100  0.13818700  1
  O  O53  1  0.96221700  0.54941300  0.30600400  1
  O  O54  1  0.05710800  0.46585200  0.80311400  1
  O  O55  1  0.27884600  0.58292400  0.95708700  1
  O  O56  1  0.72115400  0.08292400  0.54291300  1
  O  O57  1  0.74901200  0.48631500  0.65806400  1
  O  O58  1  0.46721200  0.32301700  0.36752100  1
  O  O59  1  0.06836000  0.29412500  0.13762300  1
loop_
_geom_bond_atom_site_label_1
_geom_bond_atom_site_label_2
_geom_bond_distance
_geom_bond_site_symmetry_2
Ba0 O25 2.651999 1_555
Ba0 O38 2.827463 1_555
Ba0 O30 2.901920 1_555
Ba0 O48 2.906344 1_555
Ba0 O14 2.937189 1_455
Ba0 O18 2.994755 1_455
Ba0 O30 3.041785 1_455
Ba0 O8 3.085925 1_555
Ba0 O14 3.116643 1_555
Ba0 O53 3.160362 1_455
Ba0 O45 3.317833 1_555
Ba1 O55 2.651999 1_555
Ba1 O1 2.827463 1_556
Ba1 O29 2.901920 1_455
Ba1 O31 2.906344 1_556
Ba1 O37 2.937189 1_555
Ba1 O43 2.994755 1_555
Ba1 O29 3.041785 1_555
Ba1 O42 3.085925 1_555
Ba1 O37 3.116643 1_455
Ba1 O26 3.160362 1_555
Ba1 O54 3.317833 1_555
Ba2 O35 2.661623 1_545
Ba2 O56 2.690646 1_555
Ba2 O23 2.762211 1_655
Ba2 O23 2.881768 1_555
Ba2 O58 2.906624 1_555
Ba2 O21 2.931979 1_555
Ba2 O41 3.036154 1_555
Ba2 O28 3.370976 1_555
Ba2 O10 3.402396 1_555
Ba3 O49 2.822774 1_455
Ba3 O19 2.835953 1_555
Ba3 O33 2.840882 1_455
Ba3 O40 2.853219 1_555
Ba3 O15 2.878774 1_555
Ba3 O49 2.919217 1_555
Ba3 O27 2.952683 1_555
Ba3 O46 2.975395 1_455
Ba3 O4 3.064774 1_455
Ba3 O20 3.124199 1_555
Ba3 O36 3.161905 1_555
Ba4 O56 2.651999 1_565
Ba4 O35 2.827463 1_555
Ba4 O48 2.901920 1_655
Ba4 O30 2.906344 1_555
Ba4 O47 2.937189 1_555
Ba4 O27 2.994755 1_555
Ba4 O48 3.041785 1_555
Ba4 O4 3.085925 1_555
Ba4 O47 3.116643 1_655
Ba4 O40 3.160362 1_555
Ba4 O46 3.317833 1_555
Ba5 O21 2.822774 1_555
Ba5 O58 2.835953 1_555
Ba5 O11 2.840882 1_555
Ba5 O12 2.853219 1_555
Ba5 O50 2.878774 1_555
Ba5 O21 2.919217 1_455
Ba5 O59 2.952683 1_555
Ba5 O51 2.975395 1_555
Ba5 O52 3.064774 1_555
Ba5 O41 3.124199 1_455
Ba5 O28 3.161905 1_555
Ba6 O32 2.651999 1_545
Ba6 O17 2.827463 1_554
Ba6 O31 2.901920 1_555
Ba6 O29 2.906344 1_554
Ba6 O22 2.937189 1_655
Ba6 O59 2.994755 1_655
Ba6 O31 3.041785 1_655
Ba6 O52 3.085925 1_555
Ba6 O22 3.116643 1_555
Ba6 O12 3.160362 1_655
Ba6 O51 3.317833 1_555
Ba7 O38 2.661623 1_555
Ba7 O25 2.690646 1_555
Ba7 O10 2.762211 1_555
Ba7 O10 2.881768 1_455
Ba7 O3 2.906624 1_455
Ba7 O16 2.931979 1_555
Ba7 O13 3.036154 1_555
Ba7 O57 3.370976 1_455
Ba7 O23 3.402396 1_555
Ba8 O1 2.661623 1_555
Ba8 O55 2.690646 1_554
Ba8 O2 2.762211 1_455
Ba8 O2 2.881768 1_555
Ba8 O24 2.906624 1_555
Ba8 O44 2.931979 1_555
Ba8 O0 3.036154 1_555
Ba8 O7 3.370976 1_555
Ba8 O9 3.402396 1_554
Ba9 O16 2.822774 1_655
Ba9 O3 2.835953 1_555
Ba9 O5 2.840882 1_655
Ba9 O26 2.853219 1_555
Ba9 O6 2.878774 1_555
Ba9 O16 2.919217 1_555
Ba9 O43 2.952683 1_555
Ba9 O54 2.975395 1_655
Ba9 O42 3.064774 1_655
Ba9 O13 3.124199 1_555
Ba9 O57 3.161905 1_555
Ba10 O44 2.822774 1_555
Ba10 O24 2.835953 1_555
Ba10 O39 2.840882 1_555
Ba10 O53 2.853219 1_555
Ba10 O34 2.878774 1_555
Ba10 O44 2.919217 1_655
Ba10 O18 2.952683 1_555
Ba10 O45 2.975395 1_555
Ba10 O8 3.064774 1_555
Ba10 O0 3.124199 1_655
Ba10 O7 3.161905 1_555
Ba11 O17 2.661623 1_565
Ba11 O32 2.690646 1_556
Ba11 O9 2.762211 1_555
Ba11 O9 2.881768 1_655
Ba11 O19 2.906624 1_655
Ba11 O49 2.931979 1_555
Ba11 O20 3.036154 1_555
Ba11 O36 3.370976 1_655
Ba11 O2 3.402396 1_556
O0 P5 1.572537 1_455
O0 V4 2.025320 1_555
O1 P11 1.519568 1_555
O2 P5 1.541453 1_555
O3 P10 1.586068 1_555
O3 V6 2.027121 1_655
O4 P1 1.588270 1_655
O4 V0 1.984452 1_555
O5 V3 1.694315 1_555
O5 V6 2.209263 1_555
O6 P2 1.566423 1_545
O6 V3 2.039730 1_555
O7 V5 1.656833 1_555
O8 P6 1.588270 1_555
O8 V7 1.984452 1_555
O9 P9 1.541453 1_555
O10 P10 1.541453 1_555
O11 V5 1.694315 1_555
O11 V1 2.209263 1_555
O12 P7 1.560762 1_455
O12 V4 2.061743 1_545
O13 P10 1.572537 1_555
O13 V6 2.025320 1_555
O14 V1 1.655042 1_555
O15 P4 1.566423 1_555
O15 V0 2.039730 1_555
O16 P4 1.537828 1_555
O17 P8 1.519568 1_555
O18 P6 1.601878 1_555
O18 V7 1.981709 1_655
O19 P9 1.586068 1_555
O19 V2 2.027121 1_455
O20 P9 1.572537 1_555
O20 V2 2.025320 1_555
O21 P7 1.537828 1_555
O22 V4 1.655042 1_545
O23 P0 1.541453 1_555
O24 P5 1.586068 1_555
O24 V4 2.027121 1_555
O25 P0 1.522539 1_555
O26 P4 1.560762 1_555
O26 V2 2.061743 1_555
O27 P1 1.601878 1_555
O27 V0 1.981709 1_555
O28 V7 1.656833 1_545
O29 P8 1.528940 1_555
O30 P6 1.528940 1_555
O31 P11 1.528940 1_555
O32 P5 1.522539 1_555
O33 V0 1.694315 1_555
O33 V2 2.209263 1_555
O34 P7 1.566423 1_565
O34 V7 2.039730 1_655
O35 P6 1.519568 1_555
O36 V3 1.656833 1_565
O37 V2 1.655042 1_555
O38 P1 1.519568 1_555
O39 V7 1.694315 1_555
O39 V4 2.209263 1_555
O40 P2 1.560762 1_555
O40 V6 2.061743 1_565
O41 P0 1.572537 1_655
O41 V1 2.025320 1_555
O42 P8 1.588270 1_455
O42 V3 1.984452 1_555
O43 P8 1.601878 1_555
O43 V3 1.981709 1_555
O44 P3 1.537828 1_555
O45 P3 1.548934 1_555
O45 V1 2.049401 1_555
O46 P2 1.548934 1_555
O46 V6 2.049401 1_665
O47 V6 1.655042 1_565
O48 P1 1.528940 1_555
O49 P2 1.537828 1_555
O50 P3 1.566423 1_555
O50 V5 2.039730 1_455
O51 P7 1.548934 1_555
O51 V4 2.049401 1_545
O52 P11 1.588270 1_555
O52 V5 1.984452 1_555
O53 P3 1.560762 1_655
O53 V1 2.061743 1_555
O54 P4 1.548934 1_555
O54 V2 2.049401 1_455
O55 P9 1.522539 1_555
O56 P10 1.522539 1_555
O57 V0 1.656833 1_555
O58 P0 1.586068 1_555
O58 V1 2.027121 1_555
O59 P11 1.601878 1_555
O59 V5 1.981709 1_455
