# generated using pymatgen
data_Li2ZnSnS4
_symmetry_space_group_name_H-M   'P 1'
_cell_length_a   6.79705000
_cell_length_b   6.45917600
_cell_length_c   10.31087305
_cell_angle_alpha   51.10778504
_cell_angle_beta   90.00000000
_cell_angle_gamma   90.00000000
_symmetry_Int_Tables_number   1
_chemical_formula_structural   Li2ZnSnS4
_chemical_formula_sum   'Li4 Zn2 Sn2 S8'
_cell_volume   352.33512162
_cell_formula_units_Z   2
loop_
 _symmetry_equiv_pos_site_id
 _symmetry_equiv_pos_as_xyz
  1  'x, y, z'
loop_
 _atom_site_type_symbol
 _atom_site_label
 _atom_site_symmetry_multiplicity
 _atom_site_fract_x
 _atom_site_fract_y
 _atom_site_fract_z
 _atom_site_occupancy
  Li  Li0  1  0.66341100  0.70139600  0.68214800  1
  Li  Li1  1  0.16221500  0.96557900  0.42599600  1
  Li  Li2  1  0.33658900  0.70139600  0.18214800  1
  Li  Li3  1  0.83778500  0.96557900  0.92599600  1
  Zn  Zn0  1  0.67508800  0.20781600  0.17984900  1
  Zn  Zn1  1  0.32491200  0.20781600  0.67984900  1
  Sn  Sn0  1  0.82847200  0.45730400  0.42955300  1
  Sn  Sn1  1  0.17152800  0.45730400  0.92955300  1
  S  S0  1  0.34467100  0.32902400  0.17651100  1
  S  S1  1  0.18035200  0.08367100  0.92661200  1
  S  S2  1  0.32759600  0.84023500  0.68051000  1
  S  S3  1  0.83382100  0.57207500  0.93602100  1
  S  S4  1  0.16617900  0.57207500  0.43602100  1
  S  S5  1  0.81964800  0.08367100  0.42661200  1
  S  S6  1  0.67240400  0.84023500  0.18051000  1
  S  S7  1  0.65532900  0.32902400  0.67651100  1
loop_
_geom_bond_atom_site_label_1
_geom_bond_atom_site_label_2
_geom_bond_distance
_geom_bond_site_symmetry_2
Li0 S7 2.442746 1_555
Li0 S2 2.448577 1_555
Li0 S5 2.448946 1_565
Li0 S3 2.479071 1_555
Li1 S5 2.451450 1_465
Li1 S0 2.466415 1_565
Li1 S2 2.477475 1_555
Li1 S4 2.478265 1_555
Li2 S0 2.442746 1_555
Li2 S6 2.448577 1_555
Li2 S1 2.448946 1_564
Li2 S4 2.479071 1_555
Li3 S1 2.451450 1_665
Li3 S7 2.466415 1_565
Li3 S6 2.477475 1_556
Li3 S3 2.478265 1_555
S0 Zn0 2.371535 1_555
S0 Sn1 2.430242 1_554
S1 Zn1 2.349507 1_555
S1 Sn1 2.433254 1_555
S2 Zn1 2.370067 1_565
S2 Sn1 2.421043 1_555
S3 Zn0 2.364875 1_556
S3 Sn1 2.425903 1_655
S4 Zn1 2.364875 1_555
S4 Sn0 2.425903 1_455
S5 Zn0 2.349507 1_555
S5 Sn0 2.433254 1_555
S6 Zn0 2.370067 1_565
S6 Sn0 2.421043 1_555
S7 Zn1 2.371535 1_555
S7 Sn0 2.430242 1_555
