# generated using pymatgen
data_CsLa2CuSe4
_symmetry_space_group_name_H-M   'P 1'
_cell_length_a   7.89408608
_cell_length_b   7.89408608
_cell_length_c   14.89066300
_cell_angle_alpha   90.00000000
_cell_angle_beta   90.00000000
_cell_angle_gamma   148.05615734
_symmetry_Int_Tables_number   1
_chemical_formula_structural   CsLa2CuSe4
_chemical_formula_sum   'Cs2 La4 Cu2 Se8'
_cell_volume   490.95931938
_cell_formula_units_Z   2
loop_
 _symmetry_equiv_pos_site_id
 _symmetry_equiv_pos_as_xyz
  1  'x, y, z'
loop_
 _atom_site_type_symbol
 _atom_site_label
 _atom_site_symmetry_multiplicity
 _atom_site_fract_x
 _atom_site_fract_y
 _atom_site_fract_z
 _atom_site_occupancy
  Cs  Cs0  1  0.89464800  0.10535200  0.75000000  1
  Cs  Cs1  1  0.10535200  0.89464800  0.25000000  1
  La  La0  1  0.63463100  0.36536900  0.93903900  1
  La  La1  1  0.36536900  0.63463100  0.06096100  1
  La  La2  1  0.36536900  0.63463100  0.43903900  1
  La  La3  1  0.63463100  0.36536900  0.56096100  1
  Cu  Cu0  1  0.16536500  0.83463500  0.75000000  1
  Cu  Cu1  1  0.83463500  0.16536500  0.25000000  1
  Se  Se0  1  0.74096100  0.25903900  0.38803800  1
  Se  Se1  1  0.25903900  0.74096100  0.61196200  1
  Se  Se2  1  0.25903900  0.74096100  0.88803800  1
  Se  Se3  1  0.74096100  0.25903900  0.11196200  1
  Se  Se4  1  0.57951300  0.42048700  0.75000000  1
  Se  Se5  1  0.42048700  0.57951300  0.25000000  1
  Se  Se6  1  0.00000000  0.00000000  0.00000000  1
  Se  Se7  1  0.00000000  0.00000000  0.50000000  1
loop_
_geom_bond_atom_site_label_1
_geom_bond_atom_site_label_2
_geom_bond_distance
_geom_bond_site_symmetry_2
Cs0 Se4 3.548532 1_545
Cs0 Se4 3.548532 1_655
Cs0 Se1 3.630462 1_655
Cs0 Se2 3.630462 1_655
Cs0 Se1 3.630462 1_545
Cs0 Se2 3.630462 1_545
Cs0 Se7 4.051590 1_655
Cs0 Se6 4.051590 1_656
Cs1 Se5 3.548532 1_455
Cs1 Se5 3.548532 1_565
Cs1 Se0 3.630462 1_565
Cs1 Se0 3.630462 1_455
Cs1 Se3 3.630462 1_565
Cs1 Se3 3.630462 1_455
Cs1 Se7 4.051590 1_565
Cs1 Se6 4.051590 1_565
La0 Se4 2.936611 1_555
La0 Se2 2.976745 1_655
La0 Se2 2.976745 1_545
La0 Se3 3.038938 1_556
La0 Se6 3.117433 1_666
La0 Se6 3.117433 1_556
La1 Se5 2.936611 1_555
La1 Se3 2.976745 1_565
La1 Se3 2.976745 1_455
La1 Se2 3.038938 1_554
La1 Se6 3.117433 1_665
La1 Se6 3.117433 1_555
La2 Se5 2.936611 1_555
La2 Se0 2.976745 1_565
La2 Se0 2.976745 1_455
La2 Se1 3.038938 1_555
La2 Se7 3.117433 1_555
La2 Se7 3.117433 1_665
La3 Se4 2.936611 1_555
La3 Se1 2.976745 1_655
La3 Se1 2.976745 1_545
La3 Se0 3.038938 1_555
La3 Se7 3.117433 1_665
La3 Se7 3.117433 1_555
Cu0 Se2 2.499328 1_555
Cu0 Se1 2.499328 1_555
Cu0 Se4 2.533085 1_455
Cu0 Se4 2.533085 1_565
Cu1 Se0 2.499328 1_555
Cu1 Se3 2.499328 1_555
Cu1 Se5 2.533085 1_545
Cu1 Se5 2.533085 1_655
