# generated using pymatgen
data_CsK2Sb
_symmetry_space_group_name_H-M   'P 1'
_cell_length_a   6.09812913
_cell_length_b   6.09812814
_cell_length_c   6.09812838
_cell_angle_alpha   60.00000970
_cell_angle_beta   60.00001511
_cell_angle_gamma   60.00000469
_symmetry_Int_Tables_number   1
_chemical_formula_structural   CsK2Sb
_chemical_formula_sum   'Cs1 K2 Sb1'
_cell_volume   160.35216373
_cell_formula_units_Z   1
loop_
 _symmetry_equiv_pos_site_id
 _symmetry_equiv_pos_as_xyz
  1  'x, y, z'
loop_
 _atom_site_type_symbol
 _atom_site_label
 _atom_site_symmetry_multiplicity
 _atom_site_fract_x
 _atom_site_fract_y
 _atom_site_fract_z
 _atom_site_occupancy
  Cs  Cs0  1  0.50000000  0.50000000  0.50000000  1
  K  K0  1  0.75000000  0.75000000  0.75000000  1
  K  K1  1  0.25000000  0.25000000  0.25000000  1
  Sb  Sb0  1  0.00000000  -0.00000000  0.00000000  1
loop_
_geom_bond_atom_site_label_1
_geom_bond_atom_site_label_2
_geom_bond_distance
_geom_bond_site_symmetry_2
Cs0 K0 3.734326 1_555
Cs0 K1 3.734326 1_555
Cs0 K1 3.734326 1_565
Cs0 K0 3.734326 1_545
Cs0 K0 3.734326 1_554
Cs0 K1 3.734326 1_556
Cs0 K0 3.734327 1_455
Cs0 K1 3.734327 1_655
Cs0 Sb0 4.312028 1_565
Cs0 Sb0 4.312028 1_656
Cs0 Sb0 4.312028 1_655
Cs0 Sb0 4.312028 1_566
Cs0 Sb0 4.312029 1_556
Cs0 Sb0 4.312029 1_665
K0 Sb0 3.734326 1_666
K0 Sb0 3.734326 1_656
K0 Sb0 3.734326 1_665
K0 Sb0 3.734327 1_566
K1 Sb0 3.734326 1_555
K1 Sb0 3.734326 1_565
K1 Sb0 3.734326 1_556
K1 Sb0 3.734327 1_655
