# generated using pymatgen
data_Co4Sn(CO)16
_symmetry_space_group_name_H-M   'P 1'
_cell_length_a   12.47294077
_cell_length_b   12.47294077
_cell_length_c   12.47294077
_cell_angle_alpha   60.00000000
_cell_angle_beta   60.00000000
_cell_angle_gamma   60.00000000
_symmetry_Int_Tables_number   1
_chemical_formula_structural   Co4Sn(CO)16
_chemical_formula_sum   'Co8 Sn2 C32 O32'
_cell_volume   1372.11838117
_cell_formula_units_Z   2
loop_
 _symmetry_equiv_pos_site_id
 _symmetry_equiv_pos_as_xyz
  1  'x, y, z'
loop_
 _atom_site_type_symbol
 _atom_site_label
 _atom_site_symmetry_multiplicity
 _atom_site_fract_x
 _atom_site_fract_y
 _atom_site_fract_z
 _atom_site_occupancy
  Co  Co0  1  0.91102100  0.91102100  0.26693700  1
  Co  Co1  1  0.41102100  0.41102100  0.41102100  1
  Co  Co2  1  0.91102100  0.91102100  0.91102100  1
  Co  Co3  1  0.76693700  0.41102100  0.41102100  1
  Co  Co4  1  0.91102100  0.26693700  0.91102100  1
  Co  Co5  1  0.26693700  0.91102100  0.91102100  1
  Co  Co6  1  0.41102100  0.76693700  0.41102100  1
  Co  Co7  1  0.41102100  0.41102100  0.76693700  1
  Sn  Sn0  1  0.00000000  0.00000000  0.00000000  1
  Sn  Sn1  1  0.50000000  0.50000000  0.50000000  1
  C  C0  1  0.25458500  0.76209000  0.04162700  1
  C  C1  1  0.76209000  0.94169800  0.04162700  1
  C  C2  1  0.35318700  0.94044000  0.35318700  1
  C  C3  1  0.75458500  0.54162700  0.26209000  1
  C  C4  1  0.35318700  0.35318700  0.35318700  1
  C  C5  1  0.75458500  0.44169800  0.54162700  1
  C  C6  1  0.25458500  0.04162700  0.94169800  1
  C  C7  1  0.44044000  0.85318700  0.85318700  1
  C  C8  1  0.85318700  0.85318700  0.85318700  1
  C  C9  1  0.44169800  0.26209000  0.54162700  1
  C  C10  1  0.25458500  0.94169800  0.76209000  1
  C  C11  1  0.04162700  0.94169800  0.25458500  1
  C  C12  1  0.76209000  0.04162700  0.25458500  1
  C  C13  1  0.85318700  0.85318700  0.44044000  1
  C  C14  1  0.85318700  0.44044000  0.85318700  1
  C  C15  1  0.54162700  0.26209000  0.75458500  1
  C  C16  1  0.44169800  0.54162700  0.75458500  1
  C  C17  1  0.04162700  0.25458500  0.76209000  1
  C  C18  1  0.94044000  0.35318700  0.35318700  1
  C  C19  1  0.54162700  0.44169800  0.26209000  1
  C  C20  1  0.94169800  0.04162700  0.76209000  1
  C  C21  1  0.94169800  0.25458500  0.04162700  1
  C  C22  1  0.26209000  0.54162700  0.44169800  1
  C  C23  1  0.94169800  0.76209000  0.25458500  1
  C  C24  1  0.04162700  0.76209000  0.94169800  1
  C  C25  1  0.76209000  0.25458500  0.94169800  1
  C  C26  1  0.54162700  0.75458500  0.44169800  1
  C  C27  1  0.26209000  0.75458500  0.54162700  1
  C  C28  1  0.35318700  0.35318700  0.94044000  1
  C  C29  1  0.44169800  0.75458500  0.26209000  1
  C  C30  1  0.75458500  0.26209000  0.44169800  1
  C  C31  1  0.26209000  0.44169800  0.75458500  1
  O  O0  1  0.62360100  0.16037300  0.75939900  1
  O  O1  1  0.31542300  0.31542300  0.05373000  1
  O  O2  1  0.75939900  0.16037300  0.45662700  1
  O  O3  1  0.12360100  0.66037300  0.95662700  1
  O  O4  1  0.81542300  0.81542300  0.81542300  1
  O  O5  1  0.55373000  0.81542300  0.81542300  1
  O  O6  1  0.66037300  0.95662700  0.12360100  1
  O  O7  1  0.75939900  0.45662700  0.62360100  1
  O  O8  1  0.62360100  0.45662700  0.16037300  1
  O  O9  1  0.16037300  0.62360100  0.45662700  1
  O  O10  1  0.12360100  0.95662700  0.25939900  1
  O  O11  1  0.81542300  0.55373000  0.81542300  1
  O  O12  1  0.95662700  0.66037300  0.25939900  1
  O  O13  1  0.45662700  0.62360100  0.75939900  1
  O  O14  1  0.16037300  0.75939900  0.62360100  1
  O  O15  1  0.16037300  0.45662700  0.75939900  1
  O  O16  1  0.12360100  0.25939900  0.66037300  1
  O  O17  1  0.31542300  0.05373000  0.31542300  1
  O  O18  1  0.25939900  0.66037300  0.12360100  1
  O  O19  1  0.05373000  0.31542300  0.31542300  1
  O  O20  1  0.95662700  0.25939900  0.12360100  1
  O  O21  1  0.66037300  0.12360100  0.25939900  1
  O  O22  1  0.45662700  0.75939900  0.16037300  1
  O  O23  1  0.45662700  0.16037300  0.62360100  1
  O  O24  1  0.25939900  0.95662700  0.66037300  1
  O  O25  1  0.66037300  0.25939900  0.95662700  1
  O  O26  1  0.25939900  0.12360100  0.95662700  1
  O  O27  1  0.62360100  0.75939900  0.45662700  1
  O  O28  1  0.81542300  0.81542300  0.55373000  1
  O  O29  1  0.75939900  0.62360100  0.16037300  1
  O  O30  1  0.31542300  0.31542300  0.31542300  1
  O  O31  1  0.95662700  0.12360100  0.66037300  1
loop_
_geom_bond_atom_site_label_1
_geom_bond_atom_site_label_2
_geom_bond_distance
_geom_bond_site_symmetry_2
Co0 Sn0 2.718517 1_665
Co1 Sn1 2.718517 1_555
Co2 Sn0 2.718517 1_666
Co3 Sn1 2.718517 1_555
Co4 Sn0 2.718517 1_656
Co5 Sn0 2.718517 1_566
Co6 Sn1 2.718517 1_555
Co7 Sn1 2.718517 1_555
C0 O18 1.160457 1_555
C0 Co5 1.771246 1_554
C1 O6 1.160457 1_555
C1 Co2 1.771246 1_554
C2 O17 1.153758 1_565
C2 Co6 1.766974 1_555
C3 O29 1.160457 1_555
C3 Co3 1.771246 1_555
C4 O30 1.153779 1_555
C4 Co1 1.766964 1_555
C5 O7 1.160457 1_555
C5 Co3 1.771246 1_555
C6 O26 1.160457 1_555
C6 Co5 1.771246 1_545
C7 O5 1.153758 1_555
C7 Co5 1.766974 1_555
C8 O4 1.153779 1_555
C8 Co2 1.766964 1_555
C9 O23 1.160457 1_555
C9 Co1 1.771246 1_555
C10 O24 1.160457 1_555
C10 Co5 1.771246 1_555
C11 O10 1.160457 1_555
C11 Co0 1.771246 1_455
C12 O21 1.160457 1_555
C12 Co0 1.771246 1_545
C13 O28 1.153758 1_555
C13 Co0 1.766974 1_555
C14 O11 1.153758 1_555
C14 Co4 1.766974 1_555
C15 O0 1.160457 1_555
C15 Co7 1.771246 1_555
C16 O13 1.160457 1_555
C16 Co7 1.771246 1_555
C17 O16 1.160457 1_555
C17 Co4 1.771246 1_455
C18 O19 1.153758 1_655
C18 Co3 1.766974 1_555
C19 O8 1.160457 1_555
C19 Co1 1.771246 1_555
C20 O31 1.160457 1_555
C20 Co2 1.771246 1_545
C21 O20 1.160457 1_555
C21 Co4 1.771246 1_554
C22 O9 1.160457 1_555
C22 Co1 1.771246 1_555
C23 O12 1.160457 1_555
C23 Co0 1.771246 1_555
C24 O3 1.160457 1_555
C24 Co2 1.771246 1_455
C25 O25 1.160457 1_555
C25 Co4 1.771246 1_555
C26 O27 1.160457 1_555
C26 Co6 1.771246 1_555
C27 O14 1.160457 1_555
C27 Co6 1.771246 1_555
C28 O1 1.153758 1_556
C28 Co7 1.766974 1_555
C29 O22 1.160457 1_555
C29 Co6 1.771246 1_555
C30 O2 1.160457 1_555
C30 Co3 1.771246 1_555
C31 O15 1.160457 1_555
C31 Co7 1.771246 1_555
