# generated using pymatgen
data_Hg3AsO4
_symmetry_space_group_name_H-M   'P 1'
_cell_length_a   8.72415733
_cell_length_b   10.24120880
_cell_length_c   13.60993810
_cell_angle_alpha   79.09166674
_cell_angle_beta   90.00000000
_cell_angle_gamma   90.00000000
_symmetry_Int_Tables_number   1
_chemical_formula_structural   Hg3AsO4
_chemical_formula_sum   'Hg24 As8 O32'
_cell_volume   1194.02087378
_cell_formula_units_Z   8
loop_
 _symmetry_equiv_pos_site_id
 _symmetry_equiv_pos_as_xyz
  1  'x, y, z'
loop_
 _atom_site_type_symbol
 _atom_site_label
 _atom_site_symmetry_multiplicity
 _atom_site_fract_x
 _atom_site_fract_y
 _atom_site_fract_z
 _atom_site_occupancy
  Hg  Hg0  1  0.55774618  0.51464258  0.35981357  1
  Hg  Hg1  1  0.05774618  0.48535742  0.14018643  1
  Hg  Hg2  1  0.94225382  0.51464258  0.85981357  1
  Hg  Hg3  1  0.58915351  0.73019276  0.83487132  1
  Hg  Hg4  1  0.25504307  0.94586852  0.96004068  1
  Hg  Hg5  1  0.75504307  0.05413148  0.53995932  1
  Hg  Hg6  1  0.08915351  0.26980724  0.66512868  1
  Hg  Hg7  1  0.93322008  0.90947141  0.66574612  1
  Hg  Hg8  1  0.24495693  0.94586852  0.46004068  1
  Hg  Hg9  1  0.61465756  0.19192828  0.30016177  1
  Hg  Hg10  1  0.91084649  0.73019276  0.33487132  1
  Hg  Hg11  1  0.43322008  0.09052859  0.83425388  1
  Hg  Hg12  1  0.11465756  0.80807172  0.19983823  1
  Hg  Hg13  1  0.27255780  0.49117871  0.40146451  1
  Hg  Hg14  1  0.44225382  0.48535742  0.64018643  1
  Hg  Hg15  1  0.74495693  0.05413148  0.03995932  1
  Hg  Hg16  1  0.77255780  0.50882129  0.09853549  1
  Hg  Hg17  1  0.72744220  0.50882129  0.59853549  1
  Hg  Hg18  1  0.38534244  0.80807172  0.69983823  1
  Hg  Hg19  1  0.06677992  0.09052859  0.33425388  1
  Hg  Hg20  1  0.56677992  0.90947141  0.16574612  1
  Hg  Hg21  1  0.88534244  0.19192828  0.80016177  1
  Hg  Hg22  1  0.22744220  0.49117871  0.90146451  1
  Hg  Hg23  1  0.41084649  0.26980724  0.16512868  1
  As  As0  1  0.09535458  0.63312090  0.59633549  1
  As  As1  1  0.91763336  0.83689047  0.90764908  1
  As  As2  1  0.40464542  0.63312090  0.09633549  1
  As  As3  1  0.08236664  0.16310953  0.09235092  1
  As  As4  1  0.59535458  0.36687910  0.90366451  1
  As  As5  1  0.41763336  0.16310953  0.59235092  1
  As  As6  1  0.58236664  0.83689047  0.40764908  1
  As  As7  1  0.90464542  0.36687910  0.40366451  1
  O  O0  1  0.30092456  0.50723819  0.16710912  1
  O  O1  1  0.09630712  0.62563706  0.47304756  1
  O  O2  1  0.58160711  0.62674703  0.14882928  1
  O  O3  1  0.96504260  0.16545282  0.99251120  1
  O  O4  1  0.40369288  0.62563706  0.97304756  1
  O  O5  1  0.03152326  0.81908430  0.80867833  1
  O  O6  1  0.08160711  0.37325297  0.35117072  1
  O  O7  1  0.80620186  0.97518981  0.87950905  1
  O  O8  1  0.80092456  0.49276181  0.33289088  1
  O  O9  1  0.16958950  0.78405012  0.61089134  1
  O  O10  1  0.59630712  0.37436294  0.02695244  1
  O  O11  1  0.70796319  0.70479294  0.43273567  1
  O  O12  1  0.69907544  0.49276181  0.83289088  1
  O  O13  1  0.53495740  0.16545282  0.49251120  1
  O  O14  1  0.90369288  0.37436294  0.52695244  1
  O  O15  1  0.30620186  0.02481019  0.62049095  1
  O  O16  1  0.41839289  0.37325297  0.85117072  1
  O  O17  1  0.66958950  0.21594988  0.88910866  1
  O  O18  1  0.20796319  0.29520706  0.06726433  1
  O  O19  1  0.46847674  0.81908430  0.30867833  1
  O  O20  1  0.79203681  0.70479294  0.93273567  1
  O  O21  1  0.69379814  0.97518981  0.37950905  1
  O  O22  1  0.19907544  0.50723819  0.66710912  1
  O  O23  1  0.03495740  0.83454718  0.00748880  1
  O  O24  1  0.29203681  0.29520706  0.56726433  1
  O  O25  1  0.91839289  0.62674703  0.64882928  1
  O  O26  1  0.83041050  0.21594988  0.38910866  1
  O  O27  1  0.53152326  0.18091570  0.69132167  1
  O  O28  1  0.46504260  0.83454718  0.50748880  1
  O  O29  1  0.33041050  0.78405012  0.11089134  1
  O  O30  1  0.19379814  0.02481019  0.12049095  1
  O  O31  1  0.96847674  0.18091570  0.19132167  1
loop_
_geom_bond_atom_site_label_1
_geom_bond_atom_site_label_2
_geom_bond_distance
_geom_bond_site_symmetry_2
Hg0 O8 2.171733 1_555
Hg1 O0 2.171733 1_555
Hg2 O12 2.171733 1_555
Hg3 O20 2.200776 1_555
Hg3 O4 2.557120 1_555
Hg3 O12 2.618730 1_555
Hg4 O23 2.263793 1_556
Hg4 O29 2.471045 1_556
Hg4 O30 2.525054 1_566
Hg5 O13 2.263793 1_555
Hg5 O26 2.471045 1_555
Hg5 O21 2.525054 1_545
Hg6 O24 2.200776 1_555
Hg6 O14 2.557120 1_455
Hg6 O22 2.618730 1_555
Hg7 O5 2.166802 1_655
Hg7 O9 2.611994 1_655
Hg8 O28 2.263793 1_555
Hg8 O9 2.471045 1_555
Hg8 O15 2.525054 1_565
Hg9 O26 2.276314 1_555
Hg9 O21 2.379620 1_545
Hg10 O11 2.200776 1_555
Hg10 O1 2.557120 1_655
Hg10 O8 2.618730 1_555
Hg11 O27 2.166802 1_555
Hg11 O17 2.611994 1_555
Hg12 O29 2.276314 1_555
Hg12 O30 2.379620 1_565
Hg13 O6 2.239447 1_555
Hg13 O1 2.391107 1_555
Hg14 O22 2.171733 1_555
Hg15 O3 2.263793 1_554
Hg15 O17 2.471045 1_554
Hg15 O7 2.525054 1_544
Hg16 O2 2.239447 1_555
Hg16 O10 2.391107 1_555
Hg17 O25 2.239447 1_555
Hg17 O14 2.391107 1_555
Hg18 O9 2.276314 1_555
Hg18 O15 2.379620 1_565
Hg19 O31 2.166802 1_455
Hg19 O26 2.611994 1_455
Hg20 O19 2.166802 1_555
Hg20 O29 2.611994 1_555
Hg21 O17 2.276314 1_555
Hg21 O7 2.379620 1_545
Hg22 O16 2.239447 1_555
Hg22 O4 2.391107 1_555
Hg23 O18 2.200776 1_555
Hg23 O10 2.557120 1_555
Hg23 O0 2.618730 1_555
As0 O1 1.694138 1_555
As0 O25 1.697197 1_455
As0 O22 1.714244 1_555
As0 O9 1.721556 1_555
As1 O23 1.697724 1_656
As1 O7 1.700734 1_555
As1 O5 1.711087 1_655
As1 O20 1.724105 1_555
As2 O4 1.694138 1_554
As2 O2 1.697197 1_555
As2 O0 1.714244 1_555
As2 O29 1.721556 1_555
As3 O3 1.697724 1_454
As3 O30 1.700734 1_555
As3 O31 1.711087 1_455
As3 O18 1.724105 1_555
As4 O10 1.694138 1_556
As4 O16 1.697197 1_555
As4 O12 1.714244 1_555
As4 O17 1.721556 1_555
As5 O13 1.697724 1_555
As5 O15 1.700734 1_555
As5 O27 1.711087 1_555
As5 O24 1.724105 1_555
As6 O28 1.697724 1_555
As6 O21 1.700734 1_555
As6 O19 1.711087 1_555
As6 O11 1.724105 1_555
As7 O14 1.694138 1_555
As7 O6 1.697197 1_655
As7 O8 1.714244 1_555
As7 O26 1.721556 1_555
